0:0
     RDKit          3D

 44 45  0  0  0  0  0  0  0  0999 V2000
   -8.7330   18.6610  -31.7320 C   0  0  0  0  0  0  0  0  0  0  0  0
   -7.4620   18.7080  -32.5890 C   0  0  0  0  0  0  0  0  0  0  0  0
   -7.3890   19.9260  -33.4210 N   0  0  0  0  0  0  0  0  0  0  0  0
   -6.7640   21.0480  -32.6970 C   0  0  0  0  0  0  0  0  0  0  0  0
   -7.8040   21.9450  -31.9680 C   0  0  0  0  0  0  0  0  0  0  0  0
   -7.5720   21.9210  -30.4240 C   0  0  0  0  0  0  0  0  0  0  0  0
   -6.9510   23.2160  -29.8690 C   0  0  0  0  0  0  0  0  0  0  0  0
   -6.0160   23.7970  -30.8430 N   0  0  0  0  0  0  0  0  0  0  0  0
   -4.6800   24.1810  -30.4690 C   0  0  0  0  0  0  0  0  0  0  0  0
   -4.2270   25.2980  -30.8400 O   0  0  0  0  0  0  0  0  0  0  0  0
   -3.7560   23.2200  -29.7730 C   0  0  0  0  0  0  0  0  0  0  0  0
   -3.1270   23.8900  -28.5830 C   0  0  0  0  0  0  0  0  0  0  0  0
   -1.7560   24.2090  -28.5840 C   0  0  0  0  0  0  0  0  0  0  0  0
   -1.1910   24.8880  -27.4980 C   0  0  0  0  0  0  0  0  0  0  0  0
   -1.9860   25.2430  -26.4000 C   0  0  0  0  0  0  0  0  0  0  0  0
   -1.2770   26.0940  -25.0380 Cl  0  0  0  0  0  0  0  0  0  0  0  0
   -3.3490   24.9230  -26.3900 C   0  0  0  0  0  0  0  0  0  0  0  0
   -3.9180   24.2550  -27.4790 C   0  0  0  0  0  0  0  0  0  0  0  0
   -6.5070   24.1360  -32.1860 C   0  0  0  0  0  0  0  0  0  0  0  0
   -7.8220   23.3980  -32.5030 C   0  0  0  0  0  0  0  0  0  0  0  0
   -8.4577   18.6712  -30.6670 H   0  0  0  0  0  0  0  0  0  0  0  0
   -9.3596   19.5366  -31.9571 H   0  0  0  0  0  0  0  0  0  0  0  0
   -9.2932   17.7415  -31.9571 H   0  0  0  0  0  0  0  0  0  0  0  0
   -6.5862   18.6814  -31.9239 H   0  0  0  0  0  0  0  0  0  0  0  0
   -7.4810   17.8405  -33.2651 H   0  0  0  0  0  0  0  0  0  0  0  0
   -6.8020   19.6930  -34.2560 H   0  0  0  0  0  0  0  0  0  0  0  0
   -8.3460   20.1940  -33.7540 H   0  0  0  0  0  0  0  0  0  0  0  0
   -6.0663   20.6403  -31.9507 H   0  0  0  0  0  0  0  0  0  0  0  0
   -6.2462   21.6746  -33.4381 H   0  0  0  0  0  0  0  0  0  0  0  0
   -8.7953   21.5192  -32.1826 H   0  0  0  0  0  0  0  0  0  0  0  0
   -8.5419   21.7619  -29.9299 H   0  0  0  0  0  0  0  0  0  0  0  0
   -6.8576   21.1099  -30.2198 H   0  0  0  0  0  0  0  0  0  0  0  0
   -7.7517   23.9405  -29.6592 H   0  0  0  0  0  0  0  0  0  0  0  0
   -6.4018   22.9799  -28.9456 H   0  0  0  0  0  0  0  0  0  0  0  0
   -4.3273   22.3417  -29.4380 H   0  0  0  0  0  0  0  0  0  0  0  0
   -2.9669   22.9043  -30.4714 H   0  0  0  0  0  0  0  0  0  0  0  0
   -1.1270   23.9240  -29.4403 H   0  0  0  0  0  0  0  0  0  0  0  0
   -0.1211   25.1433  -27.5066 H   0  0  0  0  0  0  0  0  0  0  0  0
   -3.9721   25.1969  -25.5259 H   0  0  0  0  0  0  0  0  0  0  0  0
   -4.9911   24.0135  -27.4720 H   0  0  0  0  0  0  0  0  0  0  0  0
   -6.6825   25.2206  -32.2404 H   0  0  0  0  0  0  0  0  0  0  0  0
   -5.7493   23.8275  -32.9213 H   0  0  0  0  0  0  0  0  0  0  0  0
   -8.6572   23.9401  -32.0355 H   0  0  0  0  0  0  0  0  0  0  0  0
   -7.9404   23.3606  -33.5960 H   0  0  0  0  0  0  0  0  0  0  0  0
  1  2  1  0
  2  3  1  0
  3  4  1  0
  4  5  1  0
  5  6  1  0
  6  7  1  0
  7  8  1  0
  8  9  1  0
  9 10  2  0
  9 11  1  0
 11 12  1  0
 12 13  2  0
 13 14  1  0
 14 15  2  0
 15 16  1  0
 15 17  1  0
 17 18  2  0
  8 19  1  0
 19 20  1  0
 20  5  1  0
 18 12  1  0
  1 21  1  0
  1 22  1  0
  1 23  1  0
  2 24  1  0
  2 25  1  0
  3 26  1  0
  3 27  1  0
  4 28  1  0
  4 29  1  0
  5 30  1  0
  6 31  1  0
  6 32  1  0
  7 33  1  0
  7 34  1  0
 11 35  1  0
 11 36  1  0
 13 37  1  0
 14 38  1  0
 17 39  1  0
 18 40  1  0
 19 41  1  0
 19 42  1  0
 20 43  1  0
 20 44  1  0
M  CHG  1   3   1
M  END
>  <UniqueID>  (1) 
1

>  <SMILES>  (1) 
CC[NH2+]CC1CCN(C(=O)Cc2ccc(Cl)cc2)CC1

>  <Energy>  (1) 
42.80049567087041

>  <Genealogy>  (1) 
CC[NH2+]CC1CCN(C(=O)Cc2ccc(Cl)cc2)CC1 (protonated)
CC[NH2+]CC1CCN(C(=O)Cc2ccc(Cl)cc2)CC1 (3D coordinates assigned)
CC[NH2+]CC1CCN(C(=O)Cc2ccc(Cl)cc2)CC1 (nonaromatic ring conformer: 42.80049567087041 kcal/mol)

>  <smiles>  (1) 
CCNCC1CCN(C(=O)Cc2ccc(Cl)cc2)CC1

>  <score_type>  (1) 
oracle

>  <origin>  (1) 
adg

>  <m_score__min__energy>  (1) 
-7.71

>  <m_primary>  (1) 
energy

$$$$
1:0
     RDKit          3D

 51 52  0  0  0  0  0  0  0  0999 V2000
   -5.6920   15.1390  -33.7230 C   0  0  0  0  0  0  0  0  0  0  0  0
   -4.9590   16.3980  -33.2370 C   0  0  0  0  0  0  0  0  0  0  0  0
   -5.4960   17.6770  -33.7640 N   0  0  0  0  0  0  0  0  0  0  0  0
   -6.8900   17.9790  -33.3770 C   0  0  0  0  0  0  0  0  0  0  0  0
   -7.1580   17.8270  -31.8790 C   0  0  0  0  0  0  0  0  0  0  0  0
   -4.5920   18.8470  -33.7450 C   0  0  0  0  0  0  0  0  0  0  0  0
   -5.3870   20.1510  -33.7650 C   0  0  0  0  0  0  0  0  0  0  0  0
   -5.5220   20.6440  -32.4360 O   0  0  0  0  0  0  0  0  0  0  0  0
   -6.6060   21.4200  -32.0170 C   0  0  0  0  0  0  0  0  0  0  0  0
   -7.7870   21.0170  -32.2140 O   0  0  0  0  0  0  0  0  0  0  0  0
   -6.3620   22.7140  -31.3470 C   0  0  0  0  0  0  0  0  0  0  0  0
   -7.4300   23.4690  -30.8310 C   0  0  0  0  0  0  0  0  0  0  0  0
   -7.1890   24.6890  -30.1970 C   0  0  0  0  0  0  0  0  0  0  0  0
   -5.8850   25.1720  -30.0730 C   0  0  0  0  0  0  0  0  0  0  0  0
   -4.8090   24.4430  -30.5930 C   0  0  0  0  0  0  0  0  0  0  0  0
   -3.4800   24.9580  -30.4190 N   0  0  0  0  0  0  0  0  0  0  0  0
   -2.5330   24.5810  -29.4100 C   0  0  0  0  0  0  0  0  0  0  0  0
   -1.7810   25.4740  -28.9350 O   0  0  0  0  0  0  0  0  0  0  0  0
   -2.3650   23.1760  -28.9590 C   0  0  0  0  0  0  0  0  0  0  0  0
   -3.2210   22.6180  -27.9930 C   0  0  0  0  0  0  0  0  0  0  0  0
   -3.0700   21.2860  -27.6000 C   0  0  0  0  0  0  0  0  0  0  0  0
   -2.0780   20.4900  -28.1780 C   0  0  0  0  0  0  0  0  0  0  0  0
   -1.2220   21.0260  -29.1500 C   0  0  0  0  0  0  0  0  0  0  0  0
   -0.2030   20.1500  -29.8190 C   0  0  0  0  0  0  0  0  0  0  0  0
   -1.3750   22.3650  -29.5440 C   0  0  0  0  0  0  0  0  0  0  0  0
   -5.0500   23.2040  -31.2130 C   0  0  0  0  0  0  0  0  0  0  0  0
   -6.0321   14.5548  -32.8552 H   0  0  0  0  0  0  0  0  0  0  0  0
   -6.5606   15.4321  -34.3309 H   0  0  0  0  0  0  0  0  0  0  0  0
   -5.0083   14.5283  -34.3309 H   0  0  0  0  0  0  0  0  0  0  0  0
   -5.0220   16.4276  -32.1392 H   0  0  0  0  0  0  0  0  0  0  0  0
   -3.9281   16.3186  -33.6123 H   0  0  0  0  0  0  0  0  0  0  0  0
   -7.1140   19.0163  -33.6665 H   0  0  0  0  0  0  0  0  0  0  0  0
   -7.5325   17.2513  -33.8943 H   0  0  0  0  0  0  0  0  0  0  0  0
   -6.3386   18.2917  -31.3109 H   0  0  0  0  0  0  0  0  0  0  0  0
   -8.1071   18.3212  -31.6243 H   0  0  0  0  0  0  0  0  0  0  0  0
   -7.2210   16.7587  -31.6243 H   0  0  0  0  0  0  0  0  0  0  0  0
   -3.9786   18.8133  -32.8326 H   0  0  0  0  0  0  0  0  0  0  0  0
   -3.9528   18.8116  -34.6395 H   0  0  0  0  0  0  0  0  0  0  0  0
   -4.8578   20.8939  -34.3799 H   0  0  0  0  0  0  0  0  0  0  0  0
   -6.3842   19.9664  -34.1911 H   0  0  0  0  0  0  0  0  0  0  0  0
   -8.4605   23.0964  -30.9274 H   0  0  0  0  0  0  0  0  0  0  0  0
   -8.0299   25.2722  -29.7935 H   0  0  0  0  0  0  0  0  0  0  0  0
   -5.7022   26.1300  -29.5642 H   0  0  0  0  0  0  0  0  0  0  0  0
   -4.0142   23.2340  -27.5441 H   0  0  0  0  0  0  0  0  0  0  0  0
   -3.7346   20.8623  -26.8326 H   0  0  0  0  0  0  0  0  0  0  0  0
   -1.9684   19.4398  -27.8695 H   0  0  0  0  0  0  0  0  0  0  0  0
    0.3964   19.6347  -29.0540 H   0  0  0  0  0  0  0  0  0  0  0  0
   -0.7148   19.4056  -30.4466 H   0  0  0  0  0  0  0  0  0  0  0  0
    0.4562   20.7677  -30.4466 H   0  0  0  0  0  0  0  0  0  0  0  0
   -0.7146   22.7841  -30.3175 H   0  0  0  0  0  0  0  0  0  0  0  0
   -4.2054   22.6128  -31.5965 H   0  0  0  0  0  0  0  0  0  0  0  0
  1  2  1  0
  2  3  1  0
  3  4  1  0
  4  5  1  0
  3  6  1  0
  6  7  1  0
  7  8  1  0
  8  9  1  0
  9 10  2  0
  9 11  1  0
 11 12  2  0
 12 13  1  0
 13 14  2  0
 14 15  1  0
 15 16  1  0
 16 17  1  0
 17 18  2  0
 17 19  1  0
 19 20  2  0
 20 21  1  0
 21 22  2  0
 22 23  1  0
 23 24  1  0
 23 25  2  0
 15 26  2  0
 26 11  1  0
 25 19  1  0
  1 27  1  0
  1 28  1  0
  1 29  1  0
  2 30  1  0
  2 31  1  0
  4 32  1  0
  4 33  1  0
  5 34  1  0
  5 35  1  0
  5 36  1  0
  6 37  1  0
  6 38  1  0
  7 39  1  0
  7 40  1  0
 12 41  1  0
 13 42  1  0
 14 43  1  0
 20 44  1  0
 21 45  1  0
 22 46  1  0
 24 47  1  0
 24 48  1  0
 24 49  1  0
 25 50  1  0
 26 51  1  0
M  CHG  1  16  -1
M  END
>  <UniqueID>  (2) 
2

>  <SMILES>  (2) 
CCN(CC)CCOC(=O)c1cccc([N-]C(=O)c2cccc(C)c2)c1

>  <Energy>  (2) 
56.51892843232351

>  <Genealogy>  (2) 
CCN(CC)CCOC(=O)c1cccc([N-]C(=O)c2cccc(C)c2)c1 (protonated)
CCN(CC)CCOC(=O)c1cccc([N-]C(=O)c2cccc(C)c2)c1 (3D coordinates assigned)
CCN(CC)CCOC(=O)c1cccc([N-]C(=O)c2cccc(C)c2)c1 (optimized conformer: 56.51892843232351 kcal/mol)

>  <smiles>  (2) 
CCN(CC)CCOC(=O)c1cccc(NC(=O)c2cccc(C)c2)c1

>  <score_type>  (2) 
oracle

>  <origin>  (2) 
adg

>  <m_score__min__energy>  (2) 
-9.4199999999999999

>  <m_primary>  (2) 
energy

$$$$
2:0
     RDKit          3D

 52 54  0  0  0  0  0  0  0  0999 V2000
   -2.7720   23.6650  -27.4950 C   0  0  0  0  0  0  0  0  0  0  0  0
   -3.6360   23.7560  -28.7190 C   0  0  0  0  0  0  0  0  0  0  0  0
   -3.3250   23.0020  -29.8610 C   0  0  0  0  0  0  0  0  0  0  0  0
   -4.1510   23.0570  -30.9880 C   0  0  0  0  0  0  0  0  0  0  0  0
   -5.2990   23.8640  -30.9860 C   0  0  0  0  0  0  0  0  0  0  0  0
   -6.2110   23.8920  -32.1850 C   0  0  0  0  0  0  0  0  0  0  0  0
   -6.9740   22.6350  -32.2770 N   0  0  0  0  0  0  0  0  0  0  0  0
   -8.3990   22.8190  -31.9460 C   0  0  0  0  0  0  0  0  0  0  0  0
   -9.1760   21.4990  -31.7400 C   0  0  0  0  0  0  0  0  0  0  0  0
   -8.7390   20.3550  -32.6900 C   0  0  2  0  0  0  0  0  0  0  0  0
   -9.4100   19.0170  -32.3400 C   0  0  0  0  0  0  0  0  0  0  0  0
   -8.3410   18.1650  -31.6770 C   0  0  0  0  0  0  0  0  0  0  0  0
   -7.0970   19.0370  -31.6210 C   0  0  0  0  0  0  0  0  0  0  0  0
   -7.2850   20.1520  -32.5560 N   0  0  0  0  0  0  0  0  0  0  0  0
   -6.5700   19.9840  -33.8480 C   0  0  0  0  0  0  0  0  0  0  0  0
   -5.0720   19.7660  -33.7190 C   0  0  0  0  0  0  0  0  0  0  0  0
   -4.2330   20.8130  -33.2980 C   0  0  0  0  0  0  0  0  0  0  0  0
   -2.8560   20.6090  -33.1720 C   0  0  0  0  0  0  0  0  0  0  0  0
   -2.3010   19.3650  -33.4820 C   0  0  0  0  0  0  0  0  0  0  0  0
   -3.1200   18.3280  -33.9330 C   0  0  0  0  0  0  0  0  0  0  0  0
   -4.4980   18.5280  -34.0610 C   0  0  0  0  0  0  0  0  0  0  0  0
   -5.6260   24.5920  -29.8320 C   0  0  0  0  0  0  0  0  0  0  0  0
   -4.8010   24.5380  -28.7050 C   0  0  0  0  0  0  0  0  0  0  0  0
   -3.4020   23.7314  -26.5957 H   0  0  0  0  0  0  0  0  0  0  0  0
   -2.2345   22.7053  -27.4961 H   0  0  0  0  0  0  0  0  0  0  0  0
   -2.0463   24.4917  -27.4961 H   0  0  0  0  0  0  0  0  0  0  0  0
   -2.4280   22.3653  -29.8696 H   0  0  0  0  0  0  0  0  0  0  0  0
   -3.8997   22.4649  -31.8803 H   0  0  0  0  0  0  0  0  0  0  0  0
   -6.9110   24.7351  -32.0888 H   0  0  0  0  0  0  0  0  0  0  0  0
   -5.6030   24.0087  -33.0942 H   0  0  0  0  0  0  0  0  0  0  0  0
   -6.8680   22.2090  -33.2260 H   0  0  0  0  0  0  0  0  0  0  0  0
   -6.5740   21.9590  -31.5850 H   0  0  0  0  0  0  0  0  0  0  0  0
   -8.4648   23.4066  -31.0184 H   0  0  0  0  0  0  0  0  0  0  0  0
   -8.8606   23.3272  -32.8055 H   0  0  0  0  0  0  0  0  0  0  0  0
   -9.0221   21.1653  -30.7032 H   0  0  0  0  0  0  0  0  0  0  0  0
  -10.2315   21.7129  -31.9641 H   0  0  0  0  0  0  0  0  0  0  0  0
   -9.0318   20.6502  -33.7084 H   0  0  0  0  0  0  0  0  0  0  0  0
  -10.2495   19.1812  -31.6484 H   0  0  0  0  0  0  0  0  0  0  0  0
   -9.8139   18.5253  -33.2373 H   0  0  0  0  0  0  0  0  0  0  0  0
   -8.6541   17.8776  -30.6624 H   0  0  0  0  0  0  0  0  0  0  0  0
   -8.1599   17.2341  -32.2344 H   0  0  0  0  0  0  0  0  0  0  0  0
   -6.9577   19.4242  -30.6009 H   0  0  0  0  0  0  0  0  0  0  0  0
   -6.2067   18.4524  -31.8961 H   0  0  0  0  0  0  0  0  0  0  0  0
   -6.9996   19.1146  -34.3672 H   0  0  0  0  0  0  0  0  0  0  0  0
   -6.7012   20.9257  -34.4012 H   0  0  0  0  0  0  0  0  0  0  0  0
   -4.6630   21.7986  -33.0664 H   0  0  0  0  0  0  0  0  0  0  0  0
   -2.2084   21.4291  -32.8283 H   0  0  0  0  0  0  0  0  0  0  0  0
   -1.2188   19.2025  -33.3708 H   0  0  0  0  0  0  0  0  0  0  0  0
   -2.6806   17.3523  -34.1880 H   0  0  0  0  0  0  0  0  0  0  0  0
   -5.1369   17.7127  -34.4312 H   0  0  0  0  0  0  0  0  0  0  0  0
   -6.5367   25.2087  -29.8141 H   0  0  0  0  0  0  0  0  0  0  0  0
   -5.0660   25.1106  -27.8039 H   0  0  0  0  0  0  0  0  0  0  0  0
  1  2  1  0
  2  3  2  0
  3  4  1  0
  4  5  2  0
  5  6  1  0
  6  7  1  0
  7  8  1  0
  8  9  1  0
  9 10  1  0
 10 11  1  0
 11 12  1  0
 12 13  1  0
 13 14  1  0
 14 15  1  0
 15 16  1  0
 16 17  2  0
 17 18  1  0
 18 19  2  0
 19 20  1  0
 20 21  2  0
  5 22  1  0
 22 23  2  0
 23  2  1  0
 14 10  1  0
 21 16  1  0
  1 24  1  0
  1 25  1  0
  1 26  1  0
  3 27  1  0
  4 28  1  0
  6 29  1  0
  6 30  1  0
  7 31  1  0
  7 32  1  0
  8 33  1  0
  8 34  1  0
  9 35  1  0
  9 36  1  0
 10 37  1  6
 11 38  1  0
 11 39  1  0
 12 40  1  0
 12 41  1  0
 13 42  1  0
 13 43  1  0
 15 44  1  0
 15 45  1  0
 17 46  1  0
 18 47  1  0
 19 48  1  0
 20 49  1  0
 21 50  1  0
 22 51  1  0
 23 52  1  0
M  CHG  1   7   1
M  END
>  <UniqueID>  (3) 
3

>  <SMILES>  (3) 
Cc1ccc(C[NH2+]CC[C@@H]2CCCN2Cc2ccccc2)cc1

>  <Energy>  (3) 
57.56737047553036

>  <Genealogy>  (3) 
Cc1ccc(C[NH2+]CCC2CCCN2Cc2ccccc2)cc1 (protonated)
Cc1ccc(C[NH2+]CC[C@@H]2CCCN2Cc2ccccc2)cc1 (chirality)
Cc1ccc(C[NH2+]CC[C@@H]2CCCN2Cc2ccccc2)cc1 (3D coordinates assigned)
Cc1ccc(C[NH2+]CC[C@@H]2CCCN2Cc2ccccc2)cc1 (nonaromatic ring conformer: 57.56737047553036 kcal/mol)

>  <smiles>  (3) 
Cc1ccc(CNCCC2CCCN2Cc2ccccc2)cc1

>  <score_type>  (3) 
oracle

>  <origin>  (3) 
adg

>  <m_score__min__energy>  (3) 
-8.0199999999999996

>  <m_primary>  (3) 
energy

$$$$
3:0
     RDKit          3D

 65 68  0  0  0  0  0  0  0  0999 V2000
   -3.1570   18.8760  -26.3240 C   0  0  0  0  0  0  0  0  0  0  0  0
   -2.0040   19.8590  -26.4910 C   0  0  0  0  0  0  0  0  0  0  0  0
   -2.2610   20.7630  -27.6370 N   0  0  0  0  0  0  0  0  0  0  0  0
   -1.6180   20.2450  -28.8680 C   0  0  0  0  0  0  0  0  0  0  0  0
   -0.2930   19.5560  -28.5380 C   0  0  0  0  0  0  0  0  0  0  0  0
   -1.8100   22.1410  -27.3430 C   0  0  0  0  0  0  0  0  0  0  0  0
   -2.9230   23.1510  -27.6760 C   0  0  0  0  0  0  0  0  0  0  0  0
   -2.3660   24.5430  -28.0040 C   0  0  0  0  0  0  0  0  0  0  0  0
   -2.7660   24.9810  -29.3440 N   0  0  0  0  0  0  0  0  0  0  0  0
   -3.9440   24.4660  -29.9840 C   0  0  0  0  0  0  0  0  0  0  0  0
   -5.2180   25.0740  -29.7400 C   0  0  0  0  0  0  0  0  0  0  0  0
   -6.3910   24.5990  -30.3740 C   0  0  0  0  0  0  0  0  0  0  0  0
   -6.2540   23.5260  -31.2520 C   0  0  0  0  0  0  0  0  0  0  0  0
   -5.0470   22.9680  -31.4710 C   0  0  0  0  0  0  0  0  0  0  0  0
   -5.2480   21.9050  -32.2830 C   0  0  0  0  0  0  0  0  0  0  0  0
   -6.5680   21.8060  -32.5680 N   0  0  0  0  0  0  0  0  0  0  0  0
   -7.1780   22.8130  -31.9360 N   0  0  0  0  0  0  0  0  0  0  0  0
   -8.6210   23.0410  -31.9640 C   0  0  0  0  0  0  0  0  0  0  0  0
   -9.3680   21.8040  -31.4380 C   0  0  0  0  0  0  0  0  0  0  0  0
   -9.1700   20.6230  -32.2930 N   0  0  0  0  0  0  0  0  0  0  0  0
   -8.7650   19.4410  -31.5160 C   0  0  0  0  0  0  0  0  0  0  0  0
   -7.8660   18.5350  -32.3600 C   0  0  0  0  0  0  0  0  0  0  0  0
   -7.2580   19.2610  -33.3950 O   0  0  0  0  0  0  0  0  0  0  0  0
   -4.1310   21.0160  -32.6360 C   0  0  0  0  0  0  0  0  0  0  0  0
   -4.3030   19.9070  -33.4710 C   0  0  0  0  0  0  0  0  0  0  0  0
   -3.2070   19.0960  -33.7820 C   0  0  0  0  0  0  0  0  0  0  0  0
   -1.9440   19.3790  -33.2480 C   0  0  0  0  0  0  0  0  0  0  0  0
   -1.7650   20.4820  -32.4080 C   0  0  0  0  0  0  0  0  0  0  0  0
   -2.8500   21.3160  -32.0900 C   0  0  0  0  0  0  0  0  0  0  0  0
   -2.6820   22.4960  -31.1680 C   0  0  0  0  0  0  0  0  0  0  0  0
   -1.5650   22.7300  -30.6370 O   0  0  0  0  0  0  0  0  0  0  0  0
   -3.8680   23.3570  -30.8740 C   0  0  0  0  0  0  0  0  0  0  0  0
   -3.3479   18.7133  -25.2530 H   0  0  0  0  0  0  0  0  0  0  0  0
   -4.0603   19.2862  -26.7993 H   0  0  0  0  0  0  0  0  0  0  0  0
   -2.8949   17.9192  -26.7993 H   0  0  0  0  0  0  0  0  0  0  0  0
   -1.9008   20.4567  -25.5733 H   0  0  0  0  0  0  0  0  0  0  0  0
   -1.0781   19.2959  -26.6799 H   0  0  0  0  0  0  0  0  0  0  0  0
   -2.2914   19.5206  -29.3495 H   0  0  0  0  0  0  0  0  0  0  0  0
   -1.4183   21.0892  -29.5443 H   0  0  0  0  0  0  0  0  0  0  0  0
   -0.1739   19.4941  -27.4462 H   0  0  0  0  0  0  0  0  0  0  0  0
   -0.2904   18.5424  -28.9652 H   0  0  0  0  0  0  0  0  0  0  0  0
    0.5383   20.1361  -28.9652 H   0  0  0  0  0  0  0  0  0  0  0  0
   -1.5564   22.2196  -26.2755 H   0  0  0  0  0  0  0  0  0  0  0  0
   -0.9266   22.3669  -27.9583 H   0  0  0  0  0  0  0  0  0  0  0  0
   -3.4875   22.7819  -28.5450 H   0  0  0  0  0  0  0  0  0  0  0  0
   -3.5677   23.2463  -26.7898 H   0  0  0  0  0  0  0  0  0  0  0  0
   -2.7462   25.2632  -27.2645 H   0  0  0  0  0  0  0  0  0  0  0  0
   -1.2677   24.4908  -27.9722 H   0  0  0  0  0  0  0  0  0  0  0  0
   -2.1740   25.6700  -29.8570 H   0  0  0  0  0  0  0  0  0  0  0  0
   -5.2859   25.9257  -29.0472 H   0  0  0  0  0  0  0  0  0  0  0  0
   -7.3716   25.0587  -30.1812 H   0  0  0  0  0  0  0  0  0  0  0  0
   -8.8636   23.9075  -31.3313 H   0  0  0  0  0  0  0  0  0  0  0  0
   -8.9326   23.2324  -33.0015 H   0  0  0  0  0  0  0  0  0  0  0  0
   -9.0013   21.5735  -30.4269 H   0  0  0  0  0  0  0  0  0  0  0  0
  -10.4428   22.0382  -31.4336 H   0  0  0  0  0  0  0  0  0  0  0  0
   -8.4380   20.8300  -33.0140 H   0  0  0  0  0  0  0  0  0  0  0  0
   -8.2149   19.7660  -30.6206 H   0  0  0  0  0  0  0  0  0  0  0  0
   -9.6643   18.8800  -31.2219 H   0  0  0  0  0  0  0  0  0  0  0  0
   -7.0858   18.1013  -31.7172 H   0  0  0  0  0  0  0  0  0  0  0  0
   -8.4833   17.7395  -32.8028 H   0  0  0  0  0  0  0  0  0  0  0  0
   -7.2000   20.2020  -33.0860 H   0  0  0  0  0  0  0  0  0  0  0  0
   -5.2965   19.6737  -33.8814 H   0  0  0  0  0  0  0  0  0  0  0  0
   -3.3378   18.2315  -34.4495 H   0  0  0  0  0  0  0  0  0  0  0  0
   -1.0890   18.7307  -33.4905 H   0  0  0  0  0  0  0  0  0  0  0  0
   -0.7692   20.6981  -31.9937 H   0  0  0  0  0  0  0  0  0  0  0  0
  1  2  1  0
  2  3  1  0
  3  4  1  0
  4  5  1  0
  3  6  1  0
  6  7  1  0
  7  8  1  0
  8  9  1  0
  9 10  1  0
 10 11  2  0
 11 12  1  0
 12 13  2  0
 13 14  1  0
 14 15  1  0
 15 16  2  0
 16 17  1  0
 17 18  1  0
 18 19  1  0
 19 20  1  0
 20 21  1  0
 21 22  1  0
 22 23  1  0
 15 24  1  0
 24 25  2  0
 25 26  1  0
 26 27  2  0
 27 28  1  0
 28 29  2  0
 29 30  1  0
 30 31  2  0
 30 32  1  0
 32 10  1  0
 17 13  1  0
 29 24  1  0
 32 14  2  0
  1 33  1  0
  1 34  1  0
  1 35  1  0
  2 36  1  0
  2 37  1  0
  4 38  1  0
  4 39  1  0
  5 40  1  0
  5 41  1  0
  5 42  1  0
  6 43  1  0
  6 44  1  0
  7 45  1  0
  7 46  1  0
  8 47  1  0
  8 48  1  0
  9 49  1  0
 11 50  1  0
 12 51  1  0
 18 52  1  0
 18 53  1  0
 19 54  1  0
 19 55  1  0
 20 56  1  0
 21 57  1  0
 21 58  1  0
 22 59  1  0
 22 60  1  0
 23 61  1  0
 25 62  1  0
 26 63  1  0
 27 64  1  0
 28 65  1  0
M  END
>  <UniqueID>  (4) 
4

>  <SMILES>  (4) 
CCN(CC)CCCNc1ccc2c3c(nn2CCNCCO)-c2ccccc2C(=O)c13

>  <Energy>  (4) 
114.26357276543192

>  <Genealogy>  (4) 
CCN(CC)CCCNc1ccc2c3c(nn2CCNCCO)-c2ccccc2C(=O)c13 (3D coordinates assigned)
CCN(CC)CCCNc1ccc2c3c(nn2CCNCCO)-c2ccccc2C(=O)c13 (nonaromatic ring conformer: 114.26357276543192 kcal/mol)

>  <smiles>  (4) 
CCN(CC)CCCNc1ccc2c3c(nn2CCNCCO)-c2ccccc2C(=O)c13

>  <score_type>  (4) 
oracle

>  <origin>  (4) 
adg

>  <m_score__min__energy>  (4) 
-9.0899999999999999

>  <m_primary>  (4) 
energy

$$$$
4:0
     RDKit          3D

 64 68  0  0  0  0  0  0  0  0999 V2000
   -7.6895   19.2879  -33.9897 H   0  0  0  0  0  0  0  0  0  0  0  0
   -6.9190   19.7800  -33.3780 C   0  0  0  0  0  0  0  0  0  0  0  0
   -5.5730   19.6770  -33.7360 C   0  0  0  0  0  0  0  0  0  0  0  0
   -5.2847   19.1001  -34.6271 H   0  0  0  0  0  0  0  0  0  0  0  0
   -4.5920   20.3050  -32.9650 C   0  0  0  0  0  0  0  0  0  0  0  0
   -3.5324   20.2140  -33.2461 H   0  0  0  0  0  0  0  0  0  0  0  0
   -4.9540   21.0530  -31.8310 C   0  0  0  0  0  0  0  0  0  0  0  0
   -3.9100   21.7110  -31.0100 C   0  0  0  0  0  0  0  0  0  0  0  0
   -2.8310   20.9350  -30.5330 C   0  0  0  0  0  0  0  0  0  0  0  0
   -2.7746   19.8651  -30.7821 H   0  0  0  0  0  0  0  0  0  0  0  0
   -1.8240   21.5250  -29.7380 C   0  0  0  0  0  0  0  0  0  0  0  0
   -0.8280   20.8380  -29.2560 N   0  0  0  0  0  0  0  0  0  0  0  0
   -0.5160   19.4360  -29.5240 C   0  0  0  0  0  0  0  0  0  0  0  0
   -1.3146   18.9930  -30.1371 H   0  0  0  0  0  0  0  0  0  0  0  0
   -0.4386   18.8885  -28.5731 H   0  0  0  0  0  0  0  0  0  0  0  0
    0.8150   19.3460  -30.2760 C   0  0  0  0  0  0  0  0  0  0  0  0
    1.4171   18.5309  -29.8482 H   0  0  0  0  0  0  0  0  0  0  0  0
    1.3442   20.3050  -30.1746 H   0  0  0  0  0  0  0  0  0  0  0  0
    0.5860   19.0780  -31.7150 N   0  0  0  0  0  0  0  0  0  0  0  0
    1.5040   18.0300  -32.1990 C   0  0  0  0  0  0  0  0  0  0  0  0
    1.9565   17.5135  -31.3397 H   0  0  0  0  0  0  0  0  0  0  0  0
    0.9445   17.3057  -32.8092 H   0  0  0  0  0  0  0  0  0  0  0  0
    2.2957   18.4893  -32.8092 H   0  0  0  0  0  0  0  0  0  0  0  0
   -0.8230   18.7080  -31.9830 C   0  0  0  0  0  0  0  0  0  0  0  0
   -1.1072   17.8699  -31.3297 H   0  0  0  0  0  0  0  0  0  0  0  0
   -1.4628   19.5802  -31.7831 H   0  0  0  0  0  0  0  0  0  0  0  0
   -1.0030   18.2860  -33.4570 C   0  0  0  0  0  0  0  0  0  0  0  0
   -0.1206   17.7083  -33.7694 H   0  0  0  0  0  0  0  0  0  0  0  0
   -1.9222   17.6855  -33.5242 H   0  0  0  0  0  0  0  0  0  0  0  0
   -1.1560   19.4520  -34.3650 N   0  0  0  0  0  0  0  0  0  0  0  0
   -1.9900   19.2750  -34.9750 H   0  0  0  0  0  0  0  0  0  0  0  0
    0.0340   19.6100  -35.2440 C   0  0  0  0  0  0  0  0  0  0  0  0
    0.9295   19.2803  -34.6969 H   0  0  0  0  0  0  0  0  0  0  0  0
   -0.1183   18.9998  -36.1465 H   0  0  0  0  0  0  0  0  0  0  0  0
    0.2220   21.0770  -35.6760 C   0  0  0  0  0  0  0  0  0  0  0  0
    1.0955   21.1346  -36.3420 H   0  0  0  0  0  0  0  0  0  0  0  0
   -0.7063   21.3881  -36.1775 H   0  0  0  0  0  0  0  0  0  0  0  0
    0.4270   21.9660  -34.5880 O   0  0  0  0  0  0  0  0  0  0  0  0
   -0.1820   21.5370  -33.3760 C   0  0  0  0  0  0  0  0  0  0  0  0
    0.5476   20.9359  -32.8135 H   0  0  0  0  0  0  0  0  0  0  0  0
   -0.4872   22.4415  -32.8294 H   0  0  0  0  0  0  0  0  0  0  0  0
   -1.4490   20.6890  -33.5920 C   0  0  0  0  0  0  0  0  0  0  0  0
   -1.8616   20.4079  -32.6118 H   0  0  0  0  0  0  0  0  0  0  0  0
   -2.1708   21.2895  -34.1651 H   0  0  0  0  0  0  0  0  0  0  0  0
   -1.9290   22.8580  -29.4660 N   0  0  0  0  0  0  0  0  0  0  0  0
   -2.9510   23.6300  -29.9070 C   0  0  0  0  0  0  0  0  0  0  0  0
   -2.8710   24.9280  -29.5130 N   0  0  0  0  0  0  0  0  0  0  0  0
   -1.7330   24.9430  -28.7880 C   0  0  0  0  0  0  0  0  0  0  0  0
   -1.1640   26.0380  -28.1410 C   0  0  0  0  0  0  0  0  0  0  0  0
   -1.6410   27.0286  -28.1747 H   0  0  0  0  0  0  0  0  0  0  0  0
    0.0410   25.8350  -27.4430 C   0  0  0  0  0  0  0  0  0  0  0  0
    0.5179   26.6775  -26.9207 H   0  0  0  0  0  0  0  0  0  0  0  0
    0.6430   24.5570  -27.4080 C   0  0  0  0  0  0  0  0  0  0  0  0
    1.5839   24.4112  -26.8571 H   0  0  0  0  0  0  0  0  0  0  0  0
    0.0470   23.4700  -28.0730 C   0  0  0  0  0  0  0  0  0  0  0  0
    0.5095   22.4720  -28.0587 H   0  0  0  0  0  0  0  0  0  0  0  0
   -1.1550   23.7010  -28.7540 C   0  0  0  0  0  0  0  0  0  0  0  0
   -3.9720   23.0920  -30.6940 C   0  0  0  0  0  0  0  0  0  0  0  0
   -5.0190   23.9510  -31.2010 C   0  0  0  0  0  0  0  0  0  0  0  0
   -5.8520   24.6430  -31.6080 N   0  0  0  0  0  0  0  0  0  0  0  0
   -6.3110   21.1440  -31.4720 C   0  0  0  0  0  0  0  0  0  0  0  0
   -6.6045   21.7181  -30.5808 H   0  0  0  0  0  0  0  0  0  0  0  0
   -7.2880   20.5080  -32.2430 C   0  0  0  0  0  0  0  0  0  0  0  0
   -8.3476   20.5803  -31.9566 H   0  0  0  0  0  0  0  0  0  0  0  0
  1  2  1  0
  2  3  2  0
  3  4  1  0
  3  5  1  0
  5  6  1  0
  5  7  2  0
  7  8  1  0
  8  9  2  0
  9 10  1  0
  9 11  1  0
 11 12  2  0
 12 13  1  0
 13 14  1  0
 13 15  1  0
 13 16  1  0
 16 17  1  0
 16 18  1  0
 16 19  1  0
 19 20  1  0
 20 21  1  0
 20 22  1  0
 20 23  1  0
 19 24  1  0
 24 25  1  0
 24 26  1  0
 24 27  1  0
 27 28  1  0
 27 29  1  0
 27 30  1  0
 30 31  1  0
 30 32  1  0
 32 33  1  0
 32 34  1  0
 32 35  1  0
 35 36  1  0
 35 37  1  0
 35 38  1  0
 38 39  1  0
 39 40  1  0
 39 41  1  0
 39 42  1  0
 42 43  1  0
 42 44  1  0
 11 45  1  0
 45 46  1  0
 46 47  1  0
 47 48  1  0
 48 49  2  0
 49 50  1  0
 49 51  1  0
 51 52  1  0
 51 53  2  0
 53 54  1  0
 53 55  1  0
 55 56  1  0
 55 57  2  0
 46 58  2  0
 58 59  1  0
 59 60  3  0
  7 61  1  0
 61 62  1  0
 61 63  2  0
 63 64  1  0
 63  2  1  0
 58  8  1  0
 42 30  1  0
 57 45  1  0
 57 48  1  0
M  CHG  2  30   1  47  -1
M  END
>  <UniqueID>  (5) 
5

>  <SMILES>  (5) 
CN(CC/N=c1\cc(-c2ccccc2)c(C#N)c2[n-]c3ccccc3n12)CC[NH+]1CCOCC1

>  <Energy>  (5) 
135.28345919476624

>  <Genealogy>  (5) 
CN(CCN=c1cc(-c2ccccc2)c(C#N)c2[n-]c3ccccc3n12)CC[NH+]1CCOCC1 (protonated)
CN(CC/N=c1\cc(-c2ccccc2)c(C#N)c2[n-]c3ccccc3n12)CC[NH+]1CCOCC1 (cis-trans isomerization)
CN(CC/N=c1\cc(-c2ccccc2)c(C#N)c2[n-]c3ccccc3n12)CC[NH+]1CCOCC1 (3D coordinates assigned)
CN(CC/N=c1\cc(-c2ccccc2)c(C#N)c2[n-]c3ccccc3n12)CC[NH+]1CCOCC1 (nonaromatic ring conformer: 135.28345919476624 kcal/mol)

>  <smiles>  (5) 
CN(CCN=c1cc(-c2ccccc2)c(C#N)c2[nH]c3ccccc3n12)CCN1CCOCC1

>  <score_type>  (5) 
oracle

>  <origin>  (5) 
adg

>  <m_score__min__energy>  (5) 
-9.0099999999999998

>  <m_primary>  (5) 
energy

$$$$
5:0
     RDKit          3D

 71 74  0  0  0  0  0  0  0  0999 V2000
   -3.6340   17.4880  -34.9910 C   0  0  0  0  0  0  0  0  0  0  0  0
   -2.9560   17.9840  -33.7880 N   0  0  0  0  0  0  0  0  0  0  0  0
   -1.9540   17.0230  -33.2770 C   0  0  0  0  0  0  0  0  0  0  0  0
   -0.8790   17.6890  -32.3990 C   0  0  0  0  0  0  0  0  0  0  0  0
   -1.2100   19.0940  -32.1370 N   0  0  0  0  0  0  0  0  0  0  0  0
   -0.6500   19.9580  -33.1850 C   0  0  0  0  0  0  0  0  0  0  0  0
   -1.5700   21.1560  -33.4530 C   0  0  0  0  0  0  0  0  0  0  0  0
   -2.8000   21.0810  -32.6660 N   0  0  0  0  0  0  0  0  0  0  0  0
   -3.8280   20.3390  -33.0500 N   0  0  0  0  0  0  0  0  0  0  0  0
   -4.7800   20.4370  -32.1070 C   0  0  0  0  0  0  0  0  0  0  0  0
   -6.1050   19.8130  -32.2140 C   0  0  0  0  0  0  0  0  0  0  0  0
   -7.2240   20.6580  -32.1320 C   0  0  0  0  0  0  0  0  0  0  0  0
   -8.5150   20.1250  -32.0990 C   0  0  0  0  0  0  0  0  0  0  0  0
   -9.9040   21.1940  -31.9980 Cl  0  0  0  0  0  0  0  0  0  0  0  0
   -8.7000   18.7430  -32.1340 C   0  0  0  0  0  0  0  0  0  0  0  0
   -7.5970   17.8930  -32.2310 C   0  0  0  0  0  0  0  0  0  0  0  0
   -6.2940   18.4070  -32.3040 C   0  0  0  0  0  0  0  0  0  0  0  0
   -5.2580   17.4710  -32.4890 O   0  0  0  0  0  0  0  0  0  0  0  0
   -5.4020   16.0550  -32.5100 C   0  0  0  0  0  0  0  0  0  0  0  0
   -5.9460   15.6520  -33.7130 F   0  0  0  0  0  0  0  0  0  0  0  0
   -4.1540   15.4800  -32.3800 F   0  0  0  0  0  0  0  0  0  0  0  0
   -4.3720   21.2940  -31.1090 C   0  0  0  0  0  0  0  0  0  0  0  0
   -3.0980   21.6870  -31.4860 C   0  0  0  0  0  0  0  0  0  0  0  0
   -2.2620   22.6850  -30.6960 C   0  0  0  0  0  0  0  0  0  0  0  0
   -3.1100   23.7760  -29.9930 C   0  0  0  0  0  0  0  0  0  0  0  0
   -3.0590   23.7330  -28.4670 C   0  0  0  0  0  0  0  0  0  0  0  0
   -1.6630   23.6150  -28.0150 N   0  0  0  0  0  0  0  0  0  0  0  0
   -1.5810   23.8640  -26.5600 C   0  0  0  0  0  0  0  0  0  0  0  0
   -1.2440   25.3070  -26.2830 C   0  0  0  0  0  0  0  0  0  0  0  0
   -1.3540   25.8310  -24.9850 C   0  0  0  0  0  0  0  0  0  0  0  0
   -1.0330   27.1700  -24.7370 C   0  0  0  0  0  0  0  0  0  0  0  0
   -0.6000   27.9920  -25.7820 C   0  0  0  0  0  0  0  0  0  0  0  0
   -0.4860   27.4760  -27.0750 C   0  0  0  0  0  0  0  0  0  0  0  0
   -0.8080   26.1400  -27.3280 C   0  0  0  0  0  0  0  0  0  0  0  0
   -1.1740   22.2620  -28.3380 C   0  0  0  0  0  0  0  0  0  0  0  0
   -1.1320   22.0200  -29.8570 C   0  0  0  0  0  0  0  0  0  0  0  0
   -4.4897   16.8620  -34.6979 H   0  0  0  0  0  0  0  0  0  0  0  0
   -3.9906   18.3400  -35.5885 H   0  0  0  0  0  0  0  0  0  0  0  0
   -2.9300   16.8902  -35.5885 H   0  0  0  0  0  0  0  0  0  0  0  0
   -2.5260   18.9170  -33.9940 H   0  0  0  0  0  0  0  0  0  0  0  0
   -3.6870   18.1360  -33.0530 H   0  0  0  0  0  0  0  0  0  0  0  0
   -2.4729   16.2599  -32.6784 H   0  0  0  0  0  0  0  0  0  0  0  0
   -1.4441   16.5836  -34.1470 H   0  0  0  0  0  0  0  0  0  0  0  0
   -0.8121   17.1508  -31.4420 H   0  0  0  0  0  0  0  0  0  0  0  0
    0.0825   17.6491  -32.9318 H   0  0  0  0  0  0  0  0  0  0  0  0
   -0.7330   19.3570  -31.2450 H   0  0  0  0  0  0  0  0  0  0  0  0
    0.3351   20.3252  -32.8614 H   0  0  0  0  0  0  0  0  0  0  0  0
   -0.5551   19.3723  -34.1113 H   0  0  0  0  0  0  0  0  0  0  0  0
   -1.0356   22.0812  -33.1916 H   0  0  0  0  0  0  0  0  0  0  0  0
   -1.8438   21.1460  -34.5183 H   0  0  0  0  0  0  0  0  0  0  0  0
   -7.0827   21.7482  -32.0935 H   0  0  0  0  0  0  0  0  0  0  0  0
   -9.7154   18.3228  -32.0851 H   0  0  0  0  0  0  0  0  0  0  0  0
   -7.7520   16.8041  -32.2505 H   0  0  0  0  0  0  0  0  0  0  0  0
   -6.0623   15.7458  -31.6863 H   0  0  0  0  0  0  0  0  0  0  0  0
   -4.9324   21.5985  -30.2128 H   0  0  0  0  0  0  0  0  0  0  0  0
   -1.6891   23.2716  -31.4293 H   0  0  0  0  0  0  0  0  0  0  0  0
   -2.7441   24.7600  -30.3213 H   0  0  0  0  0  0  0  0  0  0  0  0
   -4.1564   23.5895  -30.2763 H   0  0  0  0  0  0  0  0  0  0  0  0
   -3.4968   24.6570  -28.0613 H   0  0  0  0  0  0  0  0  0  0  0  0
   -3.6298   22.8630  -28.1101 H   0  0  0  0  0  0  0  0  0  0  0  0
   -2.5501   23.6247  -26.0978 H   0  0  0  0  0  0  0  0  0  0  0  0
   -0.7885   23.2290  -26.1373 H   0  0  0  0  0  0  0  0  0  0  0  0
   -1.6936   25.1868  -24.1606 H   0  0  0  0  0  0  0  0  0  0  0  0
   -1.1214   27.5766  -23.7187 H   0  0  0  0  0  0  0  0  0  0  0  0
   -0.3492   29.0449  -25.5859 H   0  0  0  0  0  0  0  0  0  0  0  0
   -0.1421   28.1226  -27.8957 H   0  0  0  0  0  0  0  0  0  0  0  0
   -0.7200   25.7388  -28.3484 H   0  0  0  0  0  0  0  0  0  0  0  0
   -0.1596   22.1426  -27.9298 H   0  0  0  0  0  0  0  0  0  0  0  0
   -1.8661   21.5318  -27.8933 H   0  0  0  0  0  0  0  0  0  0  0  0
   -0.1699   22.4012  -30.2300 H   0  0  0  0  0  0  0  0  0  0  0  0
   -1.2733   20.9365  -29.9840 H   0  0  0  0  0  0  0  0  0  0  0  0
  1  2  1  0
  2  3  1  0
  3  4  1  0
  4  5  1  0
  5  6  1  0
  6  7  1  0
  7  8  1  0
  8  9  1  0
  9 10  2  0
 10 11  1  0
 11 12  2  0
 12 13  1  0
 13 14  1  0
 13 15  2  0
 15 16  1  0
 16 17  2  0
 17 18  1  0
 18 19  1  0
 19 20  1  0
 19 21  1  0
 10 22  1  0
 22 23  2  0
 23 24  1  0
 24 25  1  0
 25 26  1  0
 26 27  1  0
 27 28  1  0
 28 29  1  0
 29 30  2  0
 30 31  1  0
 31 32  2  0
 32 33  1  0
 33 34  2  0
 27 35  1  0
 35 36  1  0
 23  8  1  0
 36 24  1  0
 17 11  1  0
 34 29  1  0
  1 37  1  0
  1 38  1  0
  1 39  1  0
  2 40  1  0
  2 41  1  0
  3 42  1  0
  3 43  1  0
  4 44  1  0
  4 45  1  0
  5 46  1  0
  6 47  1  0
  6 48  1  0
  7 49  1  0
  7 50  1  0
 12 51  1  0
 15 52  1  0
 16 53  1  0
 19 54  1  0
 22 55  1  0
 24 56  1  0
 25 57  1  0
 25 58  1  0
 26 59  1  0
 26 60  1  0
 28 61  1  0
 28 62  1  0
 30 63  1  0
 31 64  1  0
 32 65  1  0
 33 66  1  0
 34 67  1  0
 35 68  1  0
 35 69  1  0
 36 70  1  0
 36 71  1  0
M  CHG  1   2   1
M  END
>  <UniqueID>  (6) 
6

>  <SMILES>  (6) 
C[NH2+]CCNCCn1nc(-c2cc(Cl)ccc2OC(F)F)cc1C1CCN(Cc2ccccc2)CC1

>  <Energy>  (6) 
122.13894470103129

>  <Genealogy>  (6) 
C[NH2+]CCNCCn1nc(-c2cc(Cl)ccc2OC(F)F)cc1C1CCN(Cc2ccccc2)CC1 (protonated)
C[NH2+]CCNCCn1nc(-c2cc(Cl)ccc2OC(F)F)cc1C1CCN(Cc2ccccc2)CC1 (3D coordinates assigned)
C[NH2+]CCNCCn1nc(-c2cc(Cl)ccc2OC(F)F)cc1C1CCN(Cc2ccccc2)CC1 (nonaromatic ring conformer: 122.13894470103129 kcal/mol)

>  <smiles>  (6) 
CNCCNCCn1nc(-c2cc(Cl)ccc2OC(F)F)cc1C1CCN(Cc2ccccc2)CC1

>  <score_type>  (6) 
oracle

>  <origin>  (6) 
adg

>  <m_score__min__energy>  (6) 
-8.5999999999999996

>  <m_primary>  (6) 
energy

$$$$
6:0
     RDKit          3D

 47 50  0  0  0  0  0  0  0  0999 V2000
   -3.4980   23.7910  -28.9570 C   0  0  0  0  0  0  0  0  0  0  0  0
   -3.7630   23.9550  -30.4510 C   0  0  0  0  0  0  0  0  0  0  0  0
   -4.2340   25.3170  -30.7280 N   0  0  0  0  0  0  0  0  0  0  0  0
   -5.6700   25.3160  -31.0380 C   0  0  0  0  0  0  0  0  0  0  0  0
   -6.2070   23.8840  -31.0570 C   0  0  0  0  0  0  0  0  0  0  0  0
   -5.9810   23.2680  -32.3610 N   0  0  0  0  0  0  0  0  0  0  0  0
   -5.8650   21.8450  -32.4870 C   0  0  0  0  0  0  0  0  0  0  0  0
   -6.9790   20.9850  -32.3790 C   0  0  0  0  0  0  0  0  0  0  0  0
   -8.2510   21.4970  -32.0560 C   0  0  0  0  0  0  0  0  0  0  0  0
   -9.3570   20.6530  -31.9820 C   0  0  0  0  0  0  0  0  0  0  0  0
   -9.2200   19.2940  -32.2420 C   0  0  0  0  0  0  0  0  0  0  0  0
   -7.9700   18.7550  -32.5470 C   0  0  0  0  0  0  0  0  0  0  0  0
   -6.8130   19.5720  -32.5840 C   0  0  0  0  0  0  0  0  0  0  0  0
   -5.5520   19.0430  -32.8240 N   0  0  0  0  0  0  0  0  0  0  0  0
   -5.2980   17.5920  -32.7960 C   0  0  0  0  0  0  0  0  0  0  0  0
   -4.5120   19.9180  -33.0120 C   0  0  0  0  0  0  0  0  0  0  0  0
   -4.6390   21.2740  -32.8020 C   0  0  0  0  0  0  0  0  0  0  0  0
   -3.4740   21.9240  -33.0070 N   0  0  0  0  0  0  0  0  0  0  0  0
   -2.6010   20.9700  -33.3820 C   0  0  0  0  0  0  0  0  0  0  0  0
   -1.2720   21.1670  -33.7590 C   0  0  0  0  0  0  0  0  0  0  0  0
   -0.5350   20.0550  -34.2000 C   0  0  0  0  0  0  0  0  0  0  0  0
   -1.1400   18.7850  -34.2810 C   0  0  0  0  0  0  0  0  0  0  0  0
   -2.4840   18.6070  -33.9050 C   0  0  0  0  0  0  0  0  0  0  0  0
   -3.1910   19.7180  -33.4190 C   0  0  0  0  0  0  0  0  0  0  0  0
   -4.2976   24.2859  -28.3863 H   0  0  0  0  0  0  0  0  0  0  0  0
   -3.4753   22.7207  -28.7039 H   0  0  0  0  0  0  0  0  0  0  0  0
   -2.5300   24.2482  -28.7039 H   0  0  0  0  0  0  0  0  0  0  0  0
   -2.8332   23.7701  -31.0088 H   0  0  0  0  0  0  0  0  0  0  0  0
   -4.5335   23.2347  -30.7634 H   0  0  0  0  0  0  0  0  0  0  0  0
   -3.7330   25.6730  -31.5760 H   0  0  0  0  0  0  0  0  0  0  0  0
   -6.2071   25.8950  -30.2723 H   0  0  0  0  0  0  0  0  0  0  0  0
   -5.8229   25.7691  -32.0286 H   0  0  0  0  0  0  0  0  0  0  0  0
   -5.6918   23.2944  -30.2844 H   0  0  0  0  0  0  0  0  0  0  0  0
   -7.2887   23.9081  -30.8588 H   0  0  0  0  0  0  0  0  0  0  0  0
   -6.2120   23.8230  -33.2130 H   0  0  0  0  0  0  0  0  0  0  0  0
   -8.3721   22.5727  -31.8605 H   0  0  0  0  0  0  0  0  0  0  0  0
  -10.3425   21.0634  -31.7168 H   0  0  0  0  0  0  0  0  0  0  0  0
  -10.1033   18.6394  -32.2070 H   0  0  0  0  0  0  0  0  0  0  0  0
   -7.8813   17.6799  -32.7619 H   0  0  0  0  0  0  0  0  0  0  0  0
   -5.2382   17.2503  -31.7521 H   0  0  0  0  0  0  0  0  0  0  0  0
   -6.1178   17.0663  -33.3075 H   0  0  0  0  0  0  0  0  0  0  0  0
   -4.3484   17.3760  -33.3075 H   0  0  0  0  0  0  0  0  0  0  0  0
   -3.2890   22.9500  -32.9290 H   0  0  0  0  0  0  0  0  0  0  0  0
   -0.8137   22.1659  -33.7122 H   0  0  0  0  0  0  0  0  0  0  0  0
    0.5208   20.1766  -34.4838 H   0  0  0  0  0  0  0  0  0  0  0  0
   -0.5563   17.9251  -34.6414 H   0  0  0  0  0  0  0  0  0  0  0  0
   -2.9681   17.6229  -33.9897 H   0  0  0  0  0  0  0  0  0  0  0  0
  1  2  1  0
  2  3  1  0
  3  4  1  0
  4  5  1  0
  5  6  1  0
  6  7  1  0
  7  8  2  0
  8  9  1  0
  9 10  2  0
 10 11  1  0
 11 12  2  0
 12 13  1  0
 13 14  2  0
 14 15  1  0
 14 16  1  0
 16 17  2  0
 17 18  1  0
 18 19  1  0
 19 20  2  0
 20 21  1  0
 21 22  2  0
 22 23  1  0
 23 24  2  0
 17  7  1  0
 24 19  1  0
 13  8  1  0
 24 16  1  0
  1 25  1  0
  1 26  1  0
  1 27  1  0
  2 28  1  0
  2 29  1  0
  3 30  1  0
  4 31  1  0
  4 32  1  0
  5 33  1  0
  5 34  1  0
  6 35  1  0
  9 36  1  0
 10 37  1  0
 11 38  1  0
 12 39  1  0
 15 40  1  0
 15 41  1  0
 15 42  1  0
 18 43  1  0
 20 44  1  0
 21 45  1  0
 22 46  1  0
 23 47  1  0
M  CHG  1  14   1
M  END
>  <UniqueID>  (7) 
7

>  <SMILES>  (7) 
CCNCCNc1c2ccccc2[n+](C)c2c1[nH]c1ccccc12

>  <Energy>  (7) 
104.78118442252845

>  <Genealogy>  (7) 
CCNCCNc1c2ccccc2[n+](C)c2c1[nH]c1ccccc12 (3D coordinates assigned)
CCNCCNc1c2ccccc2[n+](C)c2c1[nH]c1ccccc12 (optimized conformer: 104.78118442252845 kcal/mol)

>  <smiles>  (7) 
CCNCCNc1c2ccccc2[n+](C)c2c1[nH]c1ccccc12

>  <score_type>  (7) 
oracle

>  <origin>  (7) 
adg

>  <m_score__min__energy>  (7) 
-8.9399999999999995

>  <m_primary>  (7) 
energy

$$$$
7:0
     RDKit          3D

 39 40  0  0  0  0  0  0  0  0999 V2000
   -2.7350   20.6330  -27.8820 C   0  0  0  0  0  0  0  0  0  0  0  0
   -2.8930   22.1530  -27.8150 C   0  0  0  0  0  0  0  0  0  0  0  0
   -3.5090   22.7420  -29.0940 C   0  0  0  0  0  0  0  0  0  0  0  0
   -2.6330   23.8290  -29.7270 C   0  0  0  0  0  0  0  0  0  0  0  0
   -3.4790   24.9330  -30.1960 N   0  0  0  0  0  0  0  0  0  0  0  0
   -4.8380   24.8830  -29.6300 C   0  0  0  0  0  0  0  0  0  0  0  0
   -5.9460   24.9140  -30.6980 C   0  0  0  0  0  0  0  0  0  0  0  0
   -5.5190   24.3060  -31.9180 O   0  0  0  0  0  0  0  0  0  0  0  0
   -5.4950   22.9250  -32.1870 C   0  0  0  0  0  0  0  0  0  0  0  0
   -4.2980   22.2400  -32.4740 C   0  0  0  0  0  0  0  0  0  0  0  0
   -4.3100   20.8690  -32.7380 C   0  0  0  0  0  0  0  0  0  0  0  0
   -5.5100   20.1590  -32.7240 C   0  0  0  0  0  0  0  0  0  0  0  0
   -6.7130   20.8200  -32.4450 C   0  0  0  0  0  0  0  0  0  0  0  0
   -7.9250   20.1210  -32.4260 C   0  0  0  0  0  0  0  0  0  0  0  0
   -9.1110   20.7960  -32.1420 C   0  0  0  0  0  0  0  0  0  0  0  0
   -9.0770   22.1650  -31.8790 C   0  0  0  0  0  0  0  0  0  0  0  0
   -7.8950   22.8410  -31.8980 N   0  0  0  0  0  0  0  0  0  0  0  0
   -6.7130   22.2110  -32.1740 C   0  0  0  0  0  0  0  0  0  0  0  0
   -2.6924   20.2235  -26.8620 H   0  0  0  0  0  0  0  0  0  0  0  0
   -3.5928   20.1984  -28.4161 H   0  0  0  0  0  0  0  0  0  0  0  0
   -1.8061   20.3841  -28.4161 H   0  0  0  0  0  0  0  0  0  0  0  0
   -3.5439   22.4020  -26.9639 H   0  0  0  0  0  0  0  0  0  0  0  0
   -1.8888   22.5868  -27.6995 H   0  0  0  0  0  0  0  0  0  0  0  0
   -3.6458   21.9309  -29.8243 H   0  0  0  0  0  0  0  0  0  0  0  0
   -4.4669   23.2068  -28.8175 H   0  0  0  0  0  0  0  0  0  0  0  0
   -1.9203   24.2064  -28.9789 H   0  0  0  0  0  0  0  0  0  0  0  0
   -2.0823   23.4038  -30.5790 H   0  0  0  0  0  0  0  0  0  0  0  0
   -3.5330   24.9070  -31.2420 H   0  0  0  0  0  0  0  0  0  0  0  0
   -4.9398   23.9547  -29.0487 H   0  0  0  0  0  0  0  0  0  0  0  0
   -4.9632   25.7800  -29.0058 H   0  0  0  0  0  0  0  0  0  0  0  0
   -6.8239   24.3715  -30.3172 H   0  0  0  0  0  0  0  0  0  0  0  0
   -6.1931   25.9655  -30.9062 H   0  0  0  0  0  0  0  0  0  0  0  0
   -3.3455   22.7900  -32.4903 H   0  0  0  0  0  0  0  0  0  0  0  0
   -3.3676   20.3461  -32.9582 H   0  0  0  0  0  0  0  0  0  0  0  0
   -5.5119   19.0789  -32.9322 H   0  0  0  0  0  0  0  0  0  0  0  0
   -7.9418   19.0411  -32.6347 H   0  0  0  0  0  0  0  0  0  0  0  0
  -10.0672   20.2525  -32.1255 H   0  0  0  0  0  0  0  0  0  0  0  0
  -10.0105   22.7020  -31.6549 H   0  0  0  0  0  0  0  0  0  0  0  0
   -7.9180   23.8650  -31.6930 H   0  0  0  0  0  0  0  0  0  0  0  0
  1  2  1  0
  2  3  1  0
  3  4  1  0
  4  5  1  0
  5  6  1  0
  6  7  1  0
  7  8  1  0
  8  9  1  0
  9 10  2  0
 10 11  1  0
 11 12  2  0
 12 13  1  0
 13 14  2  0
 14 15  1  0
 15 16  2  0
 16 17  1  0
 17 18  2  0
 18  9  1  0
 18 13  1  0
  1 19  1  0
  1 20  1  0
  1 21  1  0
  2 22  1  0
  2 23  1  0
  3 24  1  0
  3 25  1  0
  4 26  1  0
  4 27  1  0
  5 28  1  0
  6 29  1  0
  6 30  1  0
  7 31  1  0
  7 32  1  0
 10 33  1  0
 11 34  1  0
 12 35  1  0
 14 36  1  0
 15 37  1  0
 16 38  1  0
 17 39  1  0
M  CHG  1  17   1
M  END
>  <UniqueID>  (8) 
8

>  <SMILES>  (8) 
CCCCNCCOc1cccc2ccc[nH+]c12

>  <Energy>  (8) 
35.79531215435867

>  <Genealogy>  (8) 
CCCCNCCOc1cccc2ccc[nH+]c12 (protonated)
CCCCNCCOc1cccc2ccc[nH+]c12 (3D coordinates assigned)
CCCCNCCOc1cccc2ccc[nH+]c12 (optimized conformer: 35.79531215435867 kcal/mol)

>  <smiles>  (8) 
CCCCNCCOc1cccc2cccnc12

>  <score_type>  (8) 
oracle

>  <origin>  (8) 
adg

>  <m_score__min__energy>  (8) 
-5.8899999999999997

>  <m_primary>  (8) 
energy

$$$$
8:0
     RDKit          3D

 41 41  0  0  0  0  0  0  0  0999 V2000
   -8.8610   18.5550  -31.6010 C   0  0  0  0  0  0  0  0  0  0  0  0
   -8.8660   19.8800  -32.3590 C   0  0  0  0  0  0  0  0  0  0  0  0
   -7.4810   20.3770  -32.5320 N   0  0  0  0  0  0  0  0  0  0  0  0
   -7.4070   21.8410  -32.3170 C   0  0  0  0  0  0  0  0  0  0  0  0
   -7.5900   22.1670  -30.8380 C   0  0  0  0  0  0  0  0  0  0  0  0
   -6.9400   20.0000  -33.8570 C   0  0  0  0  0  0  0  0  0  0  0  0
   -6.2880   18.6180  -33.7830 C   0  0  0  0  0  0  0  0  0  0  0  0
   -5.3470   18.4220  -32.2280 S   0  0  0  0  0  0  0  0  0  0  0  0
   -3.7320   18.3220  -33.0190 C   0  0  0  0  0  0  0  0  0  0  0  0
   -3.2890   16.9170  -33.7280 S   0  0  0  0  0  0  0  0  0  0  0  0
   -2.8730   19.4680  -33.1260 N   0  0  0  0  0  0  0  0  0  0  0  0
   -3.0350   20.6650  -32.3510 C   0  0  0  0  0  0  0  0  0  0  0  0
   -4.0430   21.5790  -32.6940 C   0  0  0  0  0  0  0  0  0  0  0  0
   -4.2050   22.7590  -31.9630 C   0  0  0  0  0  0  0  0  0  0  0  0
   -3.3480   23.0500  -30.8930 C   0  0  0  0  0  0  0  0  0  0  0  0
   -3.5620   24.5270  -29.9610 S   0  0  0  0  0  0  0  0  0  0  0  0
   -2.0330   25.0460  -29.3450 N   0  0  0  0  0  0  0  0  0  0  0  0
   -4.5030   24.2780  -28.8170 O   0  0  0  0  0  0  0  0  0  0  0  0
   -4.1410   25.6030  -30.8360 O   0  0  0  0  0  0  0  0  0  0  0  0
   -2.3280   22.1480  -30.5600 C   0  0  0  0  0  0  0  0  0  0  0  0
   -2.1650   20.9680  -31.2910 C   0  0  0  0  0  0  0  0  0  0  0  0
   -8.8617   18.7517  -30.5187 H   0  0  0  0  0  0  0  0  0  0  0  0
   -9.7570   17.9759  -31.8690 H   0  0  0  0  0  0  0  0  0  0  0  0
   -7.9607   17.9826  -31.8690 H   0  0  0  0  0  0  0  0  0  0  0  0
   -9.3245   19.7310  -33.3477 H   0  0  0  0  0  0  0  0  0  0  0  0
   -9.4430   20.6195  -31.7844 H   0  0  0  0  0  0  0  0  0  0  0  0
   -6.4253   22.2080  -32.6511 H   0  0  0  0  0  0  0  0  0  0  0  0
   -8.2068   22.3290  -32.8934 H   0  0  0  0  0  0  0  0  0  0  0  0
   -7.1418   21.3686  -30.2284 H   0  0  0  0  0  0  0  0  0  0  0  0
   -7.0969   23.1234  -30.6096 H   0  0  0  0  0  0  0  0  0  0  0  0
   -8.6633   22.2441  -30.6096 H   0  0  0  0  0  0  0  0  0  0  0  0
   -7.7585   19.9776  -34.5915 H   0  0  0  0  0  0  0  0  0  0  0  0
   -6.1847   20.7393  -34.1619 H   0  0  0  0  0  0  0  0  0  0  0  0
   -7.0716   17.8473  -33.8292 H   0  0  0  0  0  0  0  0  0  0  0  0
   -5.5935   18.5116  -34.6294 H   0  0  0  0  0  0  0  0  0  0  0  0
   -2.1520   19.4710  -33.8830 H   0  0  0  0  0  0  0  0  0  0  0  0
   -4.7093   21.3655  -33.5428 H   0  0  0  0  0  0  0  0  0  0  0  0
   -5.0082   23.4621  -32.2285 H   0  0  0  0  0  0  0  0  0  0  0  0
   -1.6020   25.6580  -30.0740 H   0  0  0  0  0  0  0  0  0  0  0  0
   -1.6532   22.3698  -29.7201 H   0  0  0  0  0  0  0  0  0  0  0  0
   -1.3515   20.2733  -31.0349 H   0  0  0  0  0  0  0  0  0  0  0  0
  1  2  1  0
  2  3  1  0
  3  4  1  0
  4  5  1  0
  3  6  1  0
  6  7  1  0
  7  8  1  0
  8  9  1  0
  9 10  2  0
  9 11  1  0
 11 12  1  0
 12 13  2  0
 13 14  1  0
 14 15  2  0
 15 16  1  0
 16 17  1  0
 16 18  2  0
 16 19  2  0
 15 20  1  0
 20 21  2  0
 21 12  1  0
  1 22  1  0
  1 23  1  0
  1 24  1  0
  2 25  1  0
  2 26  1  0
  4 27  1  0
  4 28  1  0
  5 29  1  0
  5 30  1  0
  5 31  1  0
  6 32  1  0
  6 33  1  0
  7 34  1  0
  7 35  1  0
 11 36  1  0
 13 37  1  0
 14 38  1  0
 17 39  1  0
 20 40  1  0
 21 41  1  0
M  CHG  1  17  -1
M  END
>  <UniqueID>  (9) 
9

>  <SMILES>  (9) 
CCN(CC)CCSC(=S)Nc1ccc(S([NH-])(=O)=O)cc1

>  <Energy>  (9) 
35.67237293789111

>  <Genealogy>  (9) 
CCN(CC)CCSC(=S)Nc1ccc(S([NH-])(=O)=O)cc1 (protonated)
CCN(CC)CCSC(=S)Nc1ccc(S([NH-])(=O)=O)cc1 (3D coordinates assigned)
CCN(CC)CCSC(=S)Nc1ccc(S([NH-])(=O)=O)cc1 (optimized conformer: 35.67237293789111 kcal/mol)

>  <smiles>  (9) 
CCN(CC)CCSC(=S)Nc1ccc(S(N)(=O)=O)cc1

>  <score_type>  (9) 
oracle

>  <origin>  (9) 
adg

>  <m_score__min__energy>  (9) 
-9.4900000000000002

>  <m_primary>  (9) 
energy

$$$$
9:0
     RDKit          3D

 30 32  0  0  0  0  0  0  0  0999 V2000
   -3.2370   19.3720  -33.4540 C   0  0  0  0  0  0  0  0  0  0  0  0
   -4.1990   18.8540  -34.3680 O   0  0  0  0  0  0  0  0  0  0  0  0
   -4.8390   17.6100  -34.2350 C   0  0  0  0  0  0  0  0  0  0  0  0
   -4.2450   16.4230  -34.7110 C   0  0  0  0  0  0  0  0  0  0  0  0
   -4.8970   15.1970  -34.5700 C   0  0  0  0  0  0  0  0  0  0  0  0
   -6.1460   15.1360  -33.9550 C   0  0  0  0  0  0  0  0  0  0  0  0
   -6.7500   16.3000  -33.4790 C   0  0  0  0  0  0  0  0  0  0  0  0
   -6.1080   17.5450  -33.6110 C   0  0  0  0  0  0  0  0  0  0  0  0
   -6.7730   18.7650  -33.0950 C   0  0  0  0  0  0  0  0  0  0  0  0
   -8.1090   18.9560  -33.0810 N   0  0  0  0  0  0  0  0  0  0  0  0
   -8.3140   20.1510  -32.5500 N   0  0  0  0  0  0  0  0  0  0  0  0
   -7.0960   20.6460  -32.2610 C   0  0  0  0  0  0  0  0  0  0  0  0
   -6.8590   21.9580  -31.6520 C   0  0  0  0  0  0  0  0  0  0  0  0
   -7.7340   22.6390  -30.8100 C   0  0  0  0  0  0  0  0  0  0  0  0
   -7.2380   23.8760  -30.3830 C   0  0  0  0  0  0  0  0  0  0  0  0
   -5.9750   24.1560  -30.8930 C   0  0  0  0  0  0  0  0  0  0  0  0
   -5.2170   25.3400  -30.6330 N   0  0  0  0  0  0  0  0  0  0  0  0
   -5.7800   26.3760  -30.2210 O   0  0  0  0  0  0  0  0  0  0  0  0
   -3.8560   25.3460  -30.8350 O   0  0  0  0  0  0  0  0  0  0  0  0
   -5.4690   22.8840  -31.8710 S   0  0  0  0  0  0  0  0  0  0  0  0
   -6.1480   19.8040  -32.5910 O   0  0  0  0  0  0  0  0  0  0  0  0
   -3.5753   19.1899  -32.4233 H   0  0  0  0  0  0  0  0  0  0  0  0
   -2.2706   18.8723  -33.6165 H   0  0  0  0  0  0  0  0  0  0  0  0
   -3.1222   20.4539  -33.6165 H   0  0  0  0  0  0  0  0  0  0  0  0
   -3.2593   16.4636  -35.1976 H   0  0  0  0  0  0  0  0  0  0  0  0
   -4.4241   14.2773  -34.9450 H   0  0  0  0  0  0  0  0  0  0  0  0
   -6.6567   14.1680  -33.8446 H   0  0  0  0  0  0  0  0  0  0  0  0
   -7.7368   16.2439  -32.9963 H   0  0  0  0  0  0  0  0  0  0  0  0
   -8.7162   22.2445  -30.5106 H   0  0  0  0  0  0  0  0  0  0  0  0
   -7.7887   24.5546  -29.7150 H   0  0  0  0  0  0  0  0  0  0  0  0
  1  2  1  0
  2  3  1  0
  3  4  2  0
  4  5  1  0
  5  6  2  0
  6  7  1  0
  7  8  2  0
  8  9  1  0
  9 10  2  0
 10 11  1  0
 11 12  2  0
 12 13  1  0
 13 14  2  0
 14 15  1  0
 15 16  2  0
 16 17  1  0
 17 18  2  0
 17 19  1  0
 16 20  1  0
 12 21  1  0
  8  3  1  0
 21  9  1  0
 20 13  1  0
  1 22  1  0
  1 23  1  0
  1 24  1  0
  4 25  1  0
  5 26  1  0
  6 27  1  0
  7 28  1  0
 14 29  1  0
 15 30  1  0
M  CHG  2  17   1  19  -1
M  END
>  <UniqueID>  (10) 
10

>  <SMILES>  (10) 
COc1ccccc1-c1nnc(-c2ccc([N+](=O)[O-])s2)o1

>  <Energy>  (10) 
93.46674497826018

>  <Genealogy>  (10) 
COc1ccccc1-c1nnc(-c2ccc([N+](=O)[O-])s2)o1 (3D coordinates assigned)
COc1ccccc1-c1nnc(-c2ccc([N+](=O)[O-])s2)o1 (optimized conformer: 93.46674497826018 kcal/mol)

>  <smiles>  (10) 
COc1ccccc1-c1nnc(-c2ccc([N+](=O)[O-])s2)o1

>  <score_type>  (10) 
oracle

>  <origin>  (10) 
adg

>  <m_score__min__energy>  (10) 
-7.7000000000000002

>  <m_primary>  (10) 
energy

$$$$
10:0
     RDKit          3D

 43 45  0  0  0  0  0  0  0  0999 V2000
   -6.3920   16.1580  -33.9690 C   0  0  0  0  0  0  0  0  0  0  0  0
   -6.5530   17.5650  -33.4750 C   0  0  0  0  0  0  0  0  0  0  0  0
   -7.2100   17.8170  -32.2620 C   0  0  0  0  0  0  0  0  0  0  0  0
   -7.3950   19.1300  -31.8180 C   0  0  0  0  0  0  0  0  0  0  0  0
   -6.9360   20.2150  -32.5870 C   0  0  0  0  0  0  0  0  0  0  0  0
   -7.1180   21.6170  -32.1410 C   0  0  0  0  0  0  0  0  0  0  0  0
   -6.1190   22.4650  -31.8120 N   0  0  0  0  0  0  0  0  0  0  0  0
   -6.7450   23.6050  -31.4740 C   0  0  0  0  0  0  0  0  0  0  0  0
   -6.0550   24.8490  -30.9890 C   0  0  0  0  0  0  0  0  0  0  0  0
   -4.5980   24.6660  -30.8740 N   0  0  0  0  0  0  0  0  0  0  0  0
   -4.1840   24.2120  -29.5360 C   0  0  0  0  0  0  0  0  0  0  0  0
   -4.2060   22.6810  -29.4520 C   0  0  0  0  0  0  0  0  0  0  0  0
   -2.8980   22.0610  -29.9590 C   0  0  0  0  0  0  0  0  0  0  0  0
   -3.0540   21.5610  -31.3220 N   0  0  0  0  0  0  0  0  0  0  0  0
   -2.8090   20.3060  -31.7420 C   0  0  0  0  0  0  0  0  0  0  0  0
   -3.0180   20.2560  -33.1030 C   0  0  0  0  0  0  0  0  0  0  0  0
   -3.3910   21.5400  -33.4490 C   0  0  0  0  0  0  0  0  0  0  0  0
   -3.4020   22.3190  -32.3500 N   0  0  0  0  0  0  0  0  0  0  0  0
   -8.1050   23.4180  -31.6000 C   0  0  0  0  0  0  0  0  0  0  0  0
   -8.2990   22.1880  -32.0140 O   0  0  0  0  0  0  0  0  0  0  0  0
   -6.2950   19.9560  -33.8110 C   0  0  0  0  0  0  0  0  0  0  0  0
   -6.1110   18.6430  -34.2540 C   0  0  0  0  0  0  0  0  0  0  0  0
   -6.3138   15.4747  -33.1105 H   0  0  0  0  0  0  0  0  0  0  0  0
   -7.2644   15.8816  -34.5794 H   0  0  0  0  0  0  0  0  0  0  0  0
   -5.4797   16.0858  -34.5794 H   0  0  0  0  0  0  0  0  0  0  0  0
   -7.5818   16.9773  -31.6565 H   0  0  0  0  0  0  0  0  0  0  0  0
   -7.9032   19.3159  -30.8603 H   0  0  0  0  0  0  0  0  0  0  0  0
   -5.0900   22.2960  -31.8060 H   0  0  0  0  0  0  0  0  0  0  0  0
   -6.2549   25.6651  -31.6989 H   0  0  0  0  0  0  0  0  0  0  0  0
   -6.4465   25.0851  -29.9885 H   0  0  0  0  0  0  0  0  0  0  0  0
   -4.2900   23.9560  -31.5800 H   0  0  0  0  0  0  0  0  0  0  0  0
   -3.1640   24.5701  -29.3328 H   0  0  0  0  0  0  0  0  0  0  0  0
   -4.8860   24.6170  -28.7923 H   0  0  0  0  0  0  0  0  0  0  0  0
   -4.3570   22.3846  -28.4035 H   0  0  0  0  0  0  0  0  0  0  0  0
   -5.0252   22.3166  -30.0893 H   0  0  0  0  0  0  0  0  0  0  0  0
   -2.1072   22.8254  -29.9438 H   0  0  0  0  0  0  0  0  0  0  0  0
   -2.6302   21.2191  -29.3036 H   0  0  0  0  0  0  0  0  0  0  0  0
   -2.4955   19.4641  -31.1072 H   0  0  0  0  0  0  0  0  0  0  0  0
   -2.9113   19.3857  -33.7672 H   0  0  0  0  0  0  0  0  0  0  0  0
   -3.6409   21.8753  -34.4664 H   0  0  0  0  0  0  0  0  0  0  0  0
   -8.8857   24.1643  -31.3914 H   0  0  0  0  0  0  0  0  0  0  0  0
   -5.9349   20.7941  -34.4257 H   0  0  0  0  0  0  0  0  0  0  0  0
   -5.6169   18.4550  -35.2186 H   0  0  0  0  0  0  0  0  0  0  0  0
  1  2  1  0
  2  3  2  0
  3  4  1  0
  4  5  2  0
  5  6  1  0
  6  7  2  0
  7  8  1  0
  8  9  1  0
  9 10  1  0
 10 11  1  0
 11 12  1  0
 12 13  1  0
 13 14  1  0
 14 15  1  0
 15 16  2  0
 16 17  1  0
 17 18  2  0
  8 19  2  0
 19 20  1  0
  5 21  1  0
 21 22  2  0
 22  2  1  0
 20  6  1  0
 18 14  1  0
  1 23  1  0
  1 24  1  0
  1 25  1  0
  3 26  1  0
  4 27  1  0
  7 28  1  0
  9 29  1  0
  9 30  1  0
 10 31  1  0
 11 32  1  0
 11 33  1  0
 12 34  1  0
 12 35  1  0
 13 36  1  0
 13 37  1  0
 15 38  1  0
 16 39  1  0
 17 40  1  0
 19 41  1  0
 21 42  1  0
 22 43  1  0
M  CHG  1   7   1
M  END
>  <UniqueID>  (11) 
11

>  <SMILES>  (11) 
Cc1ccc(-c2[nH+]c(CNCCCn3cccn3)co2)cc1

>  <Energy>  (11) 
99.78168330405484

>  <Genealogy>  (11) 
Cc1ccc(-c2[nH+]c(CNCCCn3cccn3)co2)cc1 (protonated)
Cc1ccc(-c2[nH+]c(CNCCCn3cccn3)co2)cc1 (3D coordinates assigned)
Cc1ccc(-c2[nH+]c(CNCCCn3cccn3)co2)cc1 (optimized conformer: 99.78168330405484 kcal/mol)

>  <smiles>  (11) 
Cc1ccc(-c2nc(CNCCCn3cccn3)co2)cc1

>  <score_type>  (11) 
oracle

>  <origin>  (11) 
adg

>  <m_score__min__energy>  (11) 
-6.0899999999999999

>  <m_primary>  (11) 
energy

$$$$
11:0
     RDKit          3D

 50 52  0  0  0  0  0  0  0  0999 V2000
   -9.0450   18.4760  -31.6150 C   0  0  0  0  0  0  0  0  0  0  0  0
   -9.0180   19.8660  -32.2450 C   0  0  0  0  0  0  0  0  0  0  0  0
   -8.0440   20.7300  -31.5380 N   0  0  0  0  0  0  0  0  0  0  0  0
   -6.6600   20.4570  -31.9880 C   0  0  0  0  0  0  0  0  0  0  0  0
   -6.6530   20.0500  -33.4590 C   0  0  0  0  0  0  0  0  0  0  0  0
   -8.3860   22.1640  -31.6950 C   0  0  0  0  0  0  0  0  0  0  0  0
   -7.3000   23.0340  -31.0520 C   0  0  0  0  0  0  0  0  0  0  0  0
   -6.4790   23.7710  -32.1170 C   0  0  0  0  0  0  0  0  0  0  0  0
   -5.0990   23.2830  -32.1300 N   0  0  0  0  0  0  0  0  0  0  0  0
   -4.2340   23.2310  -30.9760 C   0  0  0  0  0  0  0  0  0  0  0  0
   -3.9060   21.9970  -30.3490 C   0  0  0  0  0  0  0  0  0  0  0  0
   -3.0660   21.9570  -29.2220 C   0  0  0  0  0  0  0  0  0  0  0  0
   -2.7500   20.7450  -28.6210 O   0  0  0  0  0  0  0  0  0  0  0  0
   -2.5680   23.1630  -28.7340 C   0  0  0  0  0  0  0  0  0  0  0  0
   -2.8820   24.3690  -29.3250 C   0  0  0  0  0  0  0  0  0  0  0  0
   -2.2920   25.4040  -28.6880 N   0  0  0  0  0  0  0  0  0  0  0  0
   -1.5940   24.8400  -27.6750 C   0  0  0  0  0  0  0  0  0  0  0  0
   -0.8070   25.4950  -26.7180 C   0  0  0  0  0  0  0  0  0  0  0  0
   -0.6520   26.9870  -26.7240 C   0  0  0  0  0  0  0  0  0  0  0  0
   -0.1660   24.6960  -25.7450 C   0  0  0  0  0  0  0  0  0  0  0  0
   -0.3200   23.2940  -25.7470 C   0  0  0  0  0  0  0  0  0  0  0  0
   -1.1140   22.6620  -26.7190 C   0  0  0  0  0  0  0  0  0  0  0  0
   -1.7400   23.4660  -27.6710 C   0  0  0  0  0  0  0  0  0  0  0  0
   -3.7120   24.4360  -30.4450 C   0  0  0  0  0  0  0  0  0  0  0  0
   -4.0070   25.6670  -31.0220 O   0  0  0  0  0  0  0  0  0  0  0  0
   -9.0432   18.5701  -30.5190 H   0  0  0  0  0  0  0  0  0  0  0  0
   -9.9536   17.9455  -31.9360 H   0  0  0  0  0  0  0  0  0  0  0  0
   -8.1577   17.9107  -31.9360 H   0  0  0  0  0  0  0  0  0  0  0  0
   -8.7268   19.7800  -33.3023 H   0  0  0  0  0  0  0  0  0  0  0  0
  -10.0191   20.3150  -32.1662 H   0  0  0  0  0  0  0  0  0  0  0  0
   -6.0508   21.3638  -31.8593 H   0  0  0  0  0  0  0  0  0  0  0  0
   -6.2433   19.6353  -31.3869 H   0  0  0  0  0  0  0  0  0  0  0  0
   -6.6341   18.9528  -33.5358 H   0  0  0  0  0  0  0  0  0  0  0  0
   -7.5579   20.4365  -33.9507 H   0  0  0  0  0  0  0  0  0  0  0  0
   -5.7619   20.4674  -33.9507 H   0  0  0  0  0  0  0  0  0  0  0  0
   -8.4605   22.4059  -32.7655 H   0  0  0  0  0  0  0  0  0  0  0  0
   -9.3483   22.3625  -31.2005 H   0  0  0  0  0  0  0  0  0  0  0  0
   -7.7765   23.7729  -30.3910 H   0  0  0  0  0  0  0  0  0  0  0  0
   -6.6239   22.3818  -30.4798 H   0  0  0  0  0  0  0  0  0  0  0  0
   -6.9322   23.6013  -33.1048 H   0  0  0  0  0  0  0  0  0  0  0  0
   -6.4739   24.8454  -31.8813 H   0  0  0  0  0  0  0  0  0  0  0  0
   -4.7280   22.9580  -33.0520 H   0  0  0  0  0  0  0  0  0  0  0  0
   -4.3159   21.0592  -30.7521 H   0  0  0  0  0  0  0  0  0  0  0  0
   -2.3630   26.4170  -28.9280 H   0  0  0  0  0  0  0  0  0  0  0  0
   -0.6137   27.3558  -25.6884 H   0  0  0  0  0  0  0  0  0  0  0  0
    0.2790   27.2568  -27.2440 H   0  0  0  0  0  0  0  0  0  0  0  0
   -1.5077   27.4424  -27.2440 H   0  0  0  0  0  0  0  0  0  0  0  0
    0.4605   25.1729  -24.9769 H   0  0  0  0  0  0  0  0  0  0  0  0
    0.1864   22.6894  -24.9802 H   0  0  0  0  0  0  0  0  0  0  0  0
   -1.2377   21.5690  -26.7286 H   0  0  0  0  0  0  0  0  0  0  0  0
  1  2  1  0
  2  3  1  0
  3  4  1  0
  4  5  1  0
  3  6  1  0
  6  7  1  0
  7  8  1  0
  8  9  1  0
  9 10  1  0
 10 11  2  0
 11 12  1  0
 12 13  1  0
 12 14  2  0
 14 15  1  0
 15 16  1  0
 16 17  1  0
 17 18  2  0
 18 19  1  0
 18 20  1  0
 20 21  2  0
 21 22  1  0
 22 23  2  0
 15 24  2  0
 24 25  1  0
 24 10  1  0
 23 14  1  0
 23 17  1  0
  1 26  1  0
  1 27  1  0
  1 28  1  0
  2 29  1  0
  2 30  1  0
  4 31  1  0
  4 32  1  0
  5 33  1  0
  5 34  1  0
  5 35  1  0
  6 36  1  0
  6 37  1  0
  7 38  1  0
  7 39  1  0
  8 40  1  0
  8 41  1  0
  9 42  1  0
 11 43  1  0
 16 44  1  0
 19 45  1  0
 19 46  1  0
 19 47  1  0
 20 48  1  0
 21 49  1  0
 22 50  1  0
M  CHG  2  13  -1  25  -1
M  END
>  <UniqueID>  (12) 
12

>  <SMILES>  (12) 
CCN(CC)CCCNc1cc([O-])c2c([nH]c3c(C)cccc32)c1[O-]

>  <Energy>  (12) 
87.48333481447105

>  <Genealogy>  (12) 
CCN(CC)CCCNc1cc([O-])c2c([nH]c3c(C)cccc32)c1[O-] (protonated)
CCN(CC)CCCNc1cc([O-])c2c([nH]c3c(C)cccc32)c1[O-] (3D coordinates assigned)
CCN(CC)CCCNc1cc([O-])c2c([nH]c3c(C)cccc32)c1[O-] (optimized conformer: 87.48333481447105 kcal/mol)

>  <smiles>  (12) 
CCN(CC)CCCNc1cc(O)c2c([nH]c3c(C)cccc32)c1O

>  <score_type>  (12) 
oracle

>  <origin>  (12) 
adg

>  <m_score__min__energy>  (12) 
-10.75

>  <m_primary>  (12) 
energy

$$$$
12:0
     RDKit          3D

 53 56  0  0  0  0  0  0  0  0999 V2000
   -6.8690   15.7610  -34.1430 C   0  0  0  0  0  0  0  0  0  0  0  0
   -6.1450   16.9840  -34.0740 O   0  0  0  0  0  0  0  0  0  0  0  0
   -6.5350   18.1040  -33.3210 C   0  0  0  0  0  0  0  0  0  0  0  0
   -7.7910   18.1630  -32.6880 C   0  0  0  0  0  0  0  0  0  0  0  0
   -8.1730   19.2970  -31.9750 C   0  0  0  0  0  0  0  0  0  0  0  0
   -7.3110   20.3960  -31.8750 C   0  0  0  0  0  0  0  0  0  0  0  0
   -7.7050   21.5320  -31.1510 C   0  0  0  0  0  0  0  0  0  0  0  0
   -6.8390   22.6260  -31.0340 C   0  0  0  0  0  0  0  0  0  0  0  0
   -7.2020   23.7710  -30.3170 C   0  0  0  0  0  0  0  0  0  0  0  0
   -6.3040   24.8340  -30.2260 C   0  0  0  0  0  0  0  0  0  0  0  0
   -5.0590   24.7250  -30.8540 C   0  0  0  0  0  0  0  0  0  0  0  0
   -4.2340   25.6740  -30.7820 O   0  0  0  0  0  0  0  0  0  0  0  0
   -4.7400   23.6240  -31.5280 O   0  0  0  0  0  0  0  0  0  0  0  0
   -5.5680   22.5880  -31.6420 C   0  0  0  0  0  0  0  0  0  0  0  0
   -5.1730   21.4590  -32.3660 C   0  0  0  0  0  0  0  0  0  0  0  0
   -6.0380   20.3530  -32.4980 C   0  0  0  0  0  0  0  0  0  0  0  0
   -5.6520   19.1960  -33.2170 C   0  0  0  0  0  0  0  0  0  0  0  0
   -4.3650   19.1320  -33.8540 N   0  0  0  0  0  0  0  0  0  0  0  0
   -3.3030   18.2430  -33.3830 C   0  0  0  0  0  0  0  0  0  0  0  0
   -3.1230   17.0560  -34.3470 C   0  0  0  0  0  0  0  0  0  0  0  0
   -3.5380   15.7710  -33.7390 N   0  0  0  0  0  0  0  0  0  0  0  0
   -2.5550   15.3030  -32.7230 C   0  0  0  0  0  0  0  0  0  0  0  0
   -2.4610   13.7640  -32.6130 C   0  0  0  0  0  0  0  0  0  0  0  0
   -3.7470   13.0960  -32.8870 N   0  0  0  0  0  0  0  0  0  0  0  0
   -4.7060   13.2750  -31.7840 C   0  0  0  0  0  0  0  0  0  0  0  0
   -4.3210   13.4590  -34.2050 C   0  0  0  0  0  0  0  0  0  0  0  0
   -3.7390   14.7590  -34.7950 C   0  0  0  0  0  0  0  0  0  0  0  0
   -7.0812   15.4026  -33.1249 H   0  0  0  0  0  0  0  0  0  0  0  0
   -7.8156   15.9250  -34.6787 H   0  0  0  0  0  0  0  0  0  0  0  0
   -6.2699   15.0100  -34.6787 H   0  0  0  0  0  0  0  0  0  0  0  0
   -8.4770   17.3059  -32.7571 H   0  0  0  0  0  0  0  0  0  0  0  0
   -9.1584   19.3294  -31.4872 H   0  0  0  0  0  0  0  0  0  0  0  0
   -8.6960   21.5629  -30.6746 H   0  0  0  0  0  0  0  0  0  0  0  0
   -8.1863   23.8323  -29.8297 H   0  0  0  0  0  0  0  0  0  0  0  0
   -6.5707   25.7442  -29.6689 H   0  0  0  0  0  0  0  0  0  0  0  0
   -4.1791   21.4332  -32.8366 H   0  0  0  0  0  0  0  0  0  0  0  0
   -4.1360   19.8320  -34.5960 H   0  0  0  0  0  0  0  0  0  0  0  0
   -2.3601   18.8063  -33.3230 H   0  0  0  0  0  0  0  0  0  0  0  0
   -3.5785   17.8557  -32.3910 H   0  0  0  0  0  0  0  0  0  0  0  0
   -3.7312   17.2349  -35.2460 H   0  0  0  0  0  0  0  0  0  0  0  0
   -2.0536   16.9819  -34.5940 H   0  0  0  0  0  0  0  0  0  0  0  0
   -4.4640   15.9260  -33.2730 H   0  0  0  0  0  0  0  0  0  0  0  0
   -1.5629   15.6932  -32.9940 H   0  0  0  0  0  0  0  0  0  0  0  0
   -2.8995   15.6749  -31.7468 H   0  0  0  0  0  0  0  0  0  0  0  0
   -1.7156   13.4039  -33.3374 H   0  0  0  0  0  0  0  0  0  0  0  0
   -2.1730   13.5209  -31.5796 H   0  0  0  0  0  0  0  0  0  0  0  0
   -4.1811   13.1770  -30.8223 H   0  0  0  0  0  0  0  0  0  0  0  0
   -5.1618   14.2737  -31.8529 H   0  0  0  0  0  0  0  0  0  0  0  0
   -5.4914   12.5079  -31.8529 H   0  0  0  0  0  0  0  0  0  0  0  0
   -4.1216   12.6378  -34.9092 H   0  0  0  0  0  0  0  0  0  0  0  0
   -5.3973   13.6276  -34.0526 H   0  0  0  0  0  0  0  0  0  0  0  0
   -2.7723   14.5377  -35.2709 H   0  0  0  0  0  0  0  0  0  0  0  0
   -4.4481   15.1583  -35.5351 H   0  0  0  0  0  0  0  0  0  0  0  0
  1  2  1  0
  2  3  1  0
  3  4  2  0
  4  5  1  0
  5  6  2  0
  6  7  1  0
  7  8  2  0
  8  9  1  0
  9 10  2  0
 10 11  1  0
 11 12  2  0
 11 13  1  0
 13 14  1  0
 14 15  2  0
 15 16  1  0
 16 17  2  0
 17 18  1  0
 18 19  1  0
 19 20  1  0
 20 21  1  0
 21 22  1  0
 22 23  1  0
 23 24  1  0
 24 25  1  0
 24 26  1  0
 26 27  1  0
 17  3  1  0
 27 21  1  0
 16  6  1  0
 14  8  1  0
  1 28  1  0
  1 29  1  0
  1 30  1  0
  4 31  1  0
  5 32  1  0
  7 33  1  0
  9 34  1  0
 10 35  1  0
 15 36  1  0
 18 37  1  0
 19 38  1  0
 19 39  1  0
 20 40  1  0
 20 41  1  0
 21 42  1  0
 22 43  1  0
 22 44  1  0
 23 45  1  0
 23 46  1  0
 25 47  1  0
 25 48  1  0
 25 49  1  0
 26 50  1  0
 26 51  1  0
 27 52  1  0
 27 53  1  0
M  CHG  1  21   1
M  END
>  <UniqueID>  (13) 
13

>  <SMILES>  (13) 
COc1ccc2cc3ccc(=O)oc3cc2c1NCC[NH+]1CCN(C)CC1

>  <Energy>  (13) 
78.6981643392183

>  <Genealogy>  (13) 
COc1ccc2cc3ccc(=O)oc3cc2c1NCC[NH+]1CCN(C)CC1 (protonated)
COc1ccc2cc3ccc(=O)oc3cc2c1NCC[NH+]1CCN(C)CC1 (3D coordinates assigned)
COc1ccc2cc3ccc(=O)oc3cc2c1NCC[NH+]1CCN(C)CC1 (nonaromatic ring conformer: 78.6981643392183 kcal/mol)

>  <smiles>  (13) 
COc1ccc2cc3ccc(=O)oc3cc2c1NCCN1CCN(C)CC1

>  <score_type>  (13) 
oracle

>  <origin>  (13) 
adg

>  <m_score__min__energy>  (13) 
-8.2400000000000002

>  <m_primary>  (13) 
energy

$$$$
13:0
     RDKit          3D

 34 36  0  0  0  0  0  0  0  0999 V2000
    1.0369   25.7300  -26.7232 H   0  0  0  0  0  0  0  0  0  0  0  0
    0.1610   25.1300  -27.0110 C   0  0  0  0  0  0  0  0  0  0  0  0
   -0.0830   23.9070  -26.3850 C   0  0  0  0  0  0  0  0  0  0  0  0
    0.6007   23.5448  -25.6031 H   0  0  0  0  0  0  0  0  0  0  0  0
   -1.1940   23.1410  -26.7490 C   0  0  0  0  0  0  0  0  0  0  0  0
   -1.3749   22.1746  -26.2556 H   0  0  0  0  0  0  0  0  0  0  0  0
   -2.0880   23.5970  -27.7460 C   0  0  0  0  0  0  0  0  0  0  0  0
   -3.2090   22.8300  -28.1590 C   0  0  0  0  0  0  0  0  0  0  0  0
   -3.2930   21.6100  -27.6800 N   0  0  0  0  0  0  0  0  0  0  0  0
   -2.5860   20.3600  -27.9570 C   0  0  0  0  0  0  0  0  0  0  0  0
   -1.5161   20.5732  -28.0983 H   0  0  0  0  0  0  0  0  0  0  0  0
   -3.0068   19.9082  -28.8674 H   0  0  0  0  0  0  0  0  0  0  0  0
   -2.7540   19.3810  -26.7980 C   0  0  0  0  0  0  0  0  0  0  0  0
   -2.6612   19.9219  -25.8447 H   0  0  0  0  0  0  0  0  0  0  0  0
   -3.7462   18.9097  -26.8570 H   0  0  0  0  0  0  0  0  0  0  0  0
   -1.9757   18.6059  -26.8570 H   0  0  0  0  0  0  0  0  0  0  0  0
   -4.1260   23.4080  -29.1000 C   0  0  0  0  0  0  0  0  0  0  0  0
   -3.7590   24.6290  -29.7320 C   0  0  0  0  0  0  0  0  0  0  0  0
   -2.6440   25.2910  -29.3410 N   0  0  0  0  0  0  0  0  0  0  0  0
   -1.8240   24.8340  -28.3700 C   0  0  0  0  0  0  0  0  0  0  0  0
   -0.7060   25.5920  -28.0020 C   0  0  0  0  0  0  0  0  0  0  0  0
   -0.5103   26.5552  -28.4958 H   0  0  0  0  0  0  0  0  0  0  0  0
   -4.6170   25.3020  -30.7740 C   0  0  0  0  0  0  0  0  0  0  0  0
   -5.0810   26.1924  -30.3247 H   0  0  0  0  0  0  0  0  0  0  0  0
   -3.9645   25.5630  -31.6202 H   0  0  0  0  0  0  0  0  0  0  0  0
   -5.7210   24.3960  -31.3100 C   0  0  0  0  0  0  0  0  0  0  0  0
   -6.4305   24.9917  -31.9030 H   0  0  0  0  0  0  0  0  0  0  0  0
   -5.2814   23.6147  -31.9474 H   0  0  0  0  0  0  0  0  0  0  0  0
   -6.4500   23.7520  -30.1410 C   0  0  0  0  0  0  0  0  0  0  0  0
   -6.8165   24.5382  -29.4646 H   0  0  0  0  0  0  0  0  0  0  0  0
   -7.2946   23.1627  -30.5275 H   0  0  0  0  0  0  0  0  0  0  0  0
   -5.5060   22.8230  -29.3710 C   0  0  0  0  0  0  0  0  0  0  0  0
   -5.9732   22.5828  -28.4045 H   0  0  0  0  0  0  0  0  0  0  0  0
   -5.3514   21.9381  -30.0058 H   0  0  0  0  0  0  0  0  0  0  0  0
  1  2  1  0
  2  3  2  0
  3  4  1  0
  3  5  1  0
  5  6  1  0
  5  7  2  0
  7  8  1  0
  8  9  2  0
  9 10  1  0
 10 11  1  0
 10 12  1  0
 10 13  1  0
 13 14  1  0
 13 15  1  0
 13 16  1  0
  8 17  1  0
 17 18  2  0
 18 19  1  0
 19 20  1  0
 20 21  2  0
 21 22  1  0
 18 23  1  0
 23 24  1  0
 23 25  1  0
 23 26  1  0
 26 27  1  0
 26 28  1  0
 26 29  1  0
 29 30  1  0
 29 31  1  0
 29 32  1  0
 32 33  1  0
 32 34  1  0
 21  2  1  0
 20  7  1  0
 32 17  1  0
M  CHG  1  19  -1
M  END
>  <UniqueID>  (14) 
14

>  <SMILES>  (14) 
CC/N=c1\c2c([n-]c3ccccc13)CCCC2

>  <Energy>  (14) 
53.720924582085786

>  <Genealogy>  (14) 
CCN=c1c2c([n-]c3ccccc13)CCCC2 (protonated)
CC/N=c1\c2c([n-]c3ccccc13)CCCC2 (cis-trans isomerization)
CC/N=c1\c2c([n-]c3ccccc13)CCCC2 (3D coordinates assigned)
CC/N=c1\c2c([n-]c3ccccc13)CCCC2 (nonaromatic ring conformer: 53.720924582085786 kcal/mol)

>  <smiles>  (14) 
CCN=c1c2c([nH]c3ccccc13)CCCC2

>  <score_type>  (14) 
oracle

>  <origin>  (14) 
adg

>  <m_score__min__energy>  (14) 
-7.71

>  <m_primary>  (14) 
energy

$$$$
14:0
     RDKit          3D

 38 40  0  0  0  0  0  0  0  0999 V2000
   -9.3230   21.2700  -30.2660 O   0  0  0  0  0  0  0  0  0  0  0  0
   -9.2240   21.3260  -31.7660 S   0  0  0  0  0  0  0  0  0  0  0  0
  -10.5950   21.1200  -32.3480 O   0  0  0  0  0  0  0  0  0  0  0  0
   -8.5850   22.9100  -32.2700 C   0  0  0  0  0  0  0  0  0  0  0  0
   -7.6260   23.4250  -31.2470 C   0  0  0  0  0  0  0  0  0  0  0  0
   -7.6140   23.0580  -29.9550 N   0  0  0  0  0  0  0  0  0  0  0  0
   -6.6130   23.6930  -29.3700 N   0  0  0  0  0  0  0  0  0  0  0  0
   -6.0430   24.4330  -30.3430 C   0  0  0  0  0  0  0  0  0  0  0  0
   -4.8630   25.3240  -30.1340 C   0  0  0  0  0  0  0  0  0  0  0  0
   -3.6760   24.7080  -30.6350 O   0  0  0  0  0  0  0  0  0  0  0  0
   -3.5000   23.3280  -30.8320 C   0  0  0  0  0  0  0  0  0  0  0  0
   -4.0060   22.6490  -31.9590 C   0  0  0  0  0  0  0  0  0  0  0  0
   -3.7950   21.2740  -32.1040 C   0  0  0  0  0  0  0  0  0  0  0  0
   -3.0860   20.5660  -31.1310 C   0  0  0  0  0  0  0  0  0  0  0  0
   -2.5860   21.2320  -30.0090 C   0  0  0  0  0  0  0  0  0  0  0  0
   -2.7920   22.6070  -29.8610 C   0  0  0  0  0  0  0  0  0  0  0  0
   -6.6550   24.2700  -31.4960 O   0  0  0  0  0  0  0  0  0  0  0  0
   -8.1420   20.0610  -32.3360 C   0  0  0  0  0  0  0  0  0  0  0  0
   -8.3560   18.7270  -31.9600 C   0  0  0  0  0  0  0  0  0  0  0  0
   -7.4870   17.7240  -32.4010 C   0  0  0  0  0  0  0  0  0  0  0  0
   -6.3970   18.0490  -33.2150 C   0  0  0  0  0  0  0  0  0  0  0  0
   -5.3070   16.7910  -33.7660 Cl  0  0  0  0  0  0  0  0  0  0  0  0
   -6.1760   19.3790  -33.5860 C   0  0  0  0  0  0  0  0  0  0  0  0
   -7.0440   20.3840  -33.1460 C   0  0  0  0  0  0  0  0  0  0  0  0
   -8.0661   22.8031  -33.2340 H   0  0  0  0  0  0  0  0  0  0  0  0
   -9.4195   23.6196  -32.3711 H   0  0  0  0  0  0  0  0  0  0  0  0
   -8.2610   22.3900  -29.4780 H   0  0  0  0  0  0  0  0  0  0  0  0
   -5.0287   26.2741  -30.6630 H   0  0  0  0  0  0  0  0  0  0  0  0
   -4.7414   25.5062  -29.0560 H   0  0  0  0  0  0  0  0  0  0  0  0
   -4.5681   23.2018  -32.7261 H   0  0  0  0  0  0  0  0  0  0  0  0
   -4.1885   20.7488  -32.9868 H   0  0  0  0  0  0  0  0  0  0  0  0
   -2.9213   19.4847  -31.2479 H   0  0  0  0  0  0  0  0  0  0  0  0
   -2.0298   20.6740  -29.2414 H   0  0  0  0  0  0  0  0  0  0  0  0
   -2.3955   23.1265  -28.9762 H   0  0  0  0  0  0  0  0  0  0  0  0
   -9.2099   18.4689  -31.3163 H   0  0  0  0  0  0  0  0  0  0  0  0
   -7.6609   16.6783  -32.1074 H   0  0  0  0  0  0  0  0  0  0  0  0
   -5.3181   19.6355  -34.2250 H   0  0  0  0  0  0  0  0  0  0  0  0
   -6.8648   21.4298  -33.4361 H   0  0  0  0  0  0  0  0  0  0  0  0
  1  2  2  0
  2  3  2  0
  2  4  1  0
  4  5  1  0
  5  6  2  0
  6  7  1  0
  7  8  2  0
  8  9  1  0
  9 10  1  0
 10 11  1  0
 11 12  2  0
 12 13  1  0
 13 14  2  0
 14 15  1  0
 15 16  2  0
  8 17  1  0
  2 18  1  0
 18 19  2  0
 19 20  1  0
 20 21  2  0
 21 22  1  0
 21 23  1  0
 23 24  2  0
 17  5  1  0
 24 18  1  0
 16 11  1  0
  4 25  1  0
  4 26  1  0
  6 27  1  0
  9 28  1  0
  9 29  1  0
 12 30  1  0
 13 31  1  0
 14 32  1  0
 15 33  1  0
 16 34  1  0
 19 35  1  0
 20 36  1  0
 23 37  1  0
 24 38  1  0
M  CHG  1   6   1
M  END
>  <UniqueID>  (15) 
15

>  <SMILES>  (15) 
O=S(=O)(Cc1[nH+]nc(COc2ccccc2)o1)c1ccc(Cl)cc1

>  <Energy>  (15) 
70.83728449999637

>  <Genealogy>  (15) 
O=S(=O)(Cc1[nH+]nc(COc2ccccc2)o1)c1ccc(Cl)cc1 (protonated)
O=S(=O)(Cc1[nH+]nc(COc2ccccc2)o1)c1ccc(Cl)cc1 (3D coordinates assigned)
O=S(=O)(Cc1[nH+]nc(COc2ccccc2)o1)c1ccc(Cl)cc1 (optimized conformer: 70.83728449999637 kcal/mol)

>  <smiles>  (15) 
O=S(=O)(Cc1nnc(COc2ccccc2)o1)c1ccc(Cl)cc1

>  <score_type>  (15) 
oracle

>  <origin>  (15) 
adg

>  <m_score__min__energy>  (15) 
-8.9499999999999993

>  <m_primary>  (15) 
energy

$$$$
15:0
     RDKit          3D

 41 42  0  0  0  0  0  0  0  0999 V2000
   -0.8230   25.4089  -27.4698 H   0  0  0  0  0  0  0  0  0  0  0  0
   -1.3780   24.7630  -28.1660 C   0  0  0  0  0  0  0  0  0  0  0  0
   -2.3320   25.2950  -28.9720 N   0  0  0  0  0  0  0  0  0  0  0  0
   -3.0700   24.5540  -29.8460 C   0  0  0  0  0  0  0  0  0  0  0  0
   -3.9030   25.2110  -30.6120 N   0  0  0  0  0  0  0  0  0  0  0  0
   -5.2860   25.6430  -30.4050 C   0  0  0  0  0  0  0  0  0  0  0  0
   -5.6196   26.2174  -31.2818 H   0  0  0  0  0  0  0  0  0  0  0  0
   -5.3292   26.2668  -29.5000 H   0  0  0  0  0  0  0  0  0  0  0  0
   -6.2060   24.4400  -30.2150 C   0  0  0  0  0  0  0  0  0  0  0  0
   -6.3486   24.2536  -29.1403 H   0  0  0  0  0  0  0  0  0  0  0  0
   -7.1797   24.6453  -30.6839 H   0  0  0  0  0  0  0  0  0  0  0  0
   -5.7528   23.5541  -30.6839 H   0  0  0  0  0  0  0  0  0  0  0  0
   -2.8470   23.1410  -29.8930 C   0  0  0  0  0  0  0  0  0  0  0  0
   -3.6630   22.1790  -30.6530 C   0  0  0  0  0  0  0  0  0  0  0  0
   -3.8880   21.0380  -30.1670 O   0  0  0  0  0  0  0  0  0  0  0  0
   -4.2910   22.5460  -31.8860 N   0  0  0  0  0  0  0  0  0  0  0  0
   -4.2400   21.7410  -33.1030 C   0  0  0  0  0  0  0  0  0  0  0  0
   -4.2500   22.4050  -33.9799 H   0  0  0  0  0  0  0  0  0  0  0  0
   -3.3184   21.1405  -33.1009 H   0  0  0  0  0  0  0  0  0  0  0  0
   -5.4580   20.7990  -33.1620 C   0  0  0  0  0  0  0  0  0  0  0  0
   -6.2055   21.2406  -33.8375 H   0  0  0  0  0  0  0  0  0  0  0  0
   -5.0922   19.8246  -33.5178 H   0  0  0  0  0  0  0  0  0  0  0  0
   -6.1010   20.5640  -31.8400 N   0  0  0  0  0  0  0  0  0  0  0  0
   -5.3980   20.8250  -31.1070 H   0  0  0  0  0  0  0  0  0  0  0  0
   -7.2790   21.4570  -31.6590 C   0  0  0  0  0  0  0  0  0  0  0  0
   -7.3510   21.7344  -30.5970 H   0  0  0  0  0  0  0  0  0  0  0  0
   -7.1301   22.3389  -32.2994 H   0  0  0  0  0  0  0  0  0  0  0  0
   -8.6030   20.7870  -32.0860 C   0  0  0  0  0  0  0  0  0  0  0  0
   -9.0719   20.3220  -31.2063 H   0  0  0  0  0  0  0  0  0  0  0  0
   -9.2653   21.5550  -32.5120 H   0  0  0  0  0  0  0  0  0  0  0  0
   -8.3710   19.7960  -33.0650 O   0  0  0  0  0  0  0  0  0  0  0  0
   -7.6670   18.7070  -32.4950 C   0  0  0  0  0  0  0  0  0  0  0  0
   -8.3670   18.1188  -31.8835 H   0  0  0  0  0  0  0  0  0  0  0  0
   -7.2485   18.1165  -33.3233 H   0  0  0  0  0  0  0  0  0  0  0  0
   -6.4840   19.1520  -31.6000 C   0  0  0  0  0  0  0  0  0  0  0  0
   -6.7752   19.0382  -30.5454 H   0  0  0  0  0  0  0  0  0  0  0  0
   -5.6177   18.5204  -31.8463 H   0  0  0  0  0  0  0  0  0  0  0  0
   -1.8420   22.5940  -29.0810 C   0  0  0  0  0  0  0  0  0  0  0  0
   -1.6356   21.5144  -29.1243 H   0  0  0  0  0  0  0  0  0  0  0  0
   -1.1030   23.4020  -28.2210 C   0  0  0  0  0  0  0  0  0  0  0  0
   -0.3111   22.9683  -27.5927 H   0  0  0  0  0  0  0  0  0  0  0  0
  1  2  1  0
  2  3  1  0
  3  4  1  0
  4  5  2  0
  5  6  1  0
  6  7  1  0
  6  8  1  0
  6  9  1  0
  9 10  1  0
  9 11  1  0
  9 12  1  0
  4 13  1  0
 13 14  1  0
 14 15  2  0
 14 16  1  0
 16 17  1  0
 17 18  1  0
 17 19  1  0
 17 20  1  0
 20 21  1  0
 20 22  1  0
 20 23  1  0
 23 24  1  0
 23 25  1  0
 25 26  1  0
 25 27  1  0
 25 28  1  0
 28 29  1  0
 28 30  1  0
 28 31  1  0
 31 32  1  0
 32 33  1  0
 32 34  1  0
 32 35  1  0
 35 36  1  0
 35 37  1  0
 13 38  2  0
 38 39  1  0
 38 40  1  0
 40 41  1  0
 40  2  2  0
 35 23  1  0
M  CHG  3   3  -1  16  -1  23   1
M  END
>  <UniqueID>  (16) 
16

>  <SMILES>  (16) 
CC/N=c1/[n-]cccc1C(=O)[N-]CC[NH+]1CCOCC1

>  <Energy>  (16) 
67.09263669809368

>  <Genealogy>  (16) 
CCN=c1[n-]cccc1C(=O)[N-]CC[NH+]1CCOCC1 (protonated)
CC/N=c1/[n-]cccc1C(=O)[N-]CC[NH+]1CCOCC1 (cis-trans isomerization)
CC/N=c1/[n-]cccc1C(=O)[N-]CC[NH+]1CCOCC1 (3D coordinates assigned)
CC/N=c1/[n-]cccc1C(=O)[N-]CC[NH+]1CCOCC1 (nonaromatic ring conformer: 67.09263669809368 kcal/mol)

>  <smiles>  (16) 
CCN=c1[nH]cccc1C(=O)NCCN1CCOCC1

>  <score_type>  (16) 
oracle

>  <origin>  (16) 
adg

>  <m_score__min__energy>  (16) 
-7.5800000000000001

>  <m_primary>  (16) 
energy

$$$$
16:0
     RDKit          3D

 45 46  0  0  0  0  0  0  0  0999 V2000
   -1.6230   20.3710  -30.6880 C   0  0  0  0  0  0  0  0  0  0  0  0
   -1.0510   20.4040  -29.2660 C   0  0  0  0  0  0  0  0  0  0  0  0
   -1.8340   21.2700  -28.3440 N   0  0  0  0  0  0  0  0  0  0  0  0
   -1.9890   20.6220  -27.0120 C   0  0  0  0  0  0  0  0  0  0  0  0
   -2.7440   19.2890  -27.0900 C   0  0  0  0  0  0  0  0  0  0  0  0
   -1.2980   22.6570  -28.2200 C   0  0  0  0  0  0  0  0  0  0  0  0
   -1.9310   23.6980  -29.1630 C   0  0  0  0  0  0  0  0  0  0  0  0
   -3.2770   23.3510  -29.4640 O   0  0  0  0  0  0  0  0  0  0  0  0
   -4.0120   23.9700  -30.4780 C   0  0  0  0  0  0  0  0  0  0  0  0
   -3.8780   25.2050  -30.7020 O   0  0  0  0  0  0  0  0  0  0  0  0
   -5.0090   23.1510  -31.2560 C   0  0  0  0  0  0  0  0  0  0  0  0
   -6.4150   23.1780  -30.6480 C   0  0  0  0  0  0  0  0  0  0  0  0
   -7.4200   22.7350  -31.5520 O   0  0  0  0  0  0  0  0  0  0  0  0
   -7.5910   21.4110  -31.9680 C   0  0  0  0  0  0  0  0  0  0  0  0
   -8.8700   20.8520  -31.8410 C   0  0  0  0  0  0  0  0  0  0  0  0
   -9.1020   19.5190  -32.1830 C   0  0  0  0  0  0  0  0  0  0  0  0
   -8.0520   18.7240  -32.6400 C   0  0  0  0  0  0  0  0  0  0  0  0
   -6.7690   19.2610  -32.7520 C   0  0  0  0  0  0  0  0  0  0  0  0
   -6.5250   20.6020  -32.4300 C   0  0  0  0  0  0  0  0  0  0  0  0
   -5.2090   21.0620  -32.5220 O   0  0  0  0  0  0  0  0  0  0  0  0
   -4.5150   21.7200  -31.4690 C   0  0  0  0  0  0  0  0  0  0  0  0
   -2.7202   20.3077  -30.6405 H   0  0  0  0  0  0  0  0  0  0  0  0
   -1.3314   21.2875  -31.2219 H   0  0  0  0  0  0  0  0  0  0  0  0
   -1.2279   19.4942  -31.2219 H   0  0  0  0  0  0  0  0  0  0  0  0
   -1.0473   19.3794  -28.8659 H   0  0  0  0  0  0  0  0  0  0  0  0
   -0.0363   20.8240  -29.3294 H   0  0  0  0  0  0  0  0  0  0  0  0
   -2.7920   21.3760  -28.7560 H   0  0  0  0  0  0  0  0  0  0  0  0
   -0.9895   20.4369  -26.5916 H   0  0  0  0  0  0  0  0  0  0  0  0
   -2.5763   21.3014  -26.3768 H   0  0  0  0  0  0  0  0  0  0  0  0
   -2.9505   18.9245  -26.0729 H   0  0  0  0  0  0  0  0  0  0  0  0
   -3.6930   19.4359  -27.6265 H   0  0  0  0  0  0  0  0  0  0  0  0
   -2.1300   18.5507  -27.6265 H   0  0  0  0  0  0  0  0  0  0  0  0
   -1.4618   22.9927  -27.1854 H   0  0  0  0  0  0  0  0  0  0  0  0
   -0.2368   22.5978  -28.5034 H   0  0  0  0  0  0  0  0  0  0  0  0
   -1.9126   24.6844  -28.6764 H   0  0  0  0  0  0  0  0  0  0  0  0
   -1.3545   23.7235  -30.0995 H   0  0  0  0  0  0  0  0  0  0  0  0
   -5.0946   23.6290  -32.2430 H   0  0  0  0  0  0  0  0  0  0  0  0
   -6.4269   22.5247  -29.7631 H   0  0  0  0  0  0  0  0  0  0  0  0
   -6.6419   24.2230  -30.3900 H   0  0  0  0  0  0  0  0  0  0  0  0
   -9.6996   21.4704  -31.4678 H   0  0  0  0  0  0  0  0  0  0  0  0
  -10.1132   19.0957  -32.0920 H   0  0  0  0  0  0  0  0  0  0  0  0
   -8.2348   17.6740  -32.9121 H   0  0  0  0  0  0  0  0  0  0  0  0
   -5.9407   18.6246  -33.0967 H   0  0  0  0  0  0  0  0  0  0  0  0
   -4.6628   21.1522  -30.5385 H   0  0  0  0  0  0  0  0  0  0  0  0
   -3.4512   21.7680  -31.7446 H   0  0  0  0  0  0  0  0  0  0  0  0
  1  2  1  0
  2  3  1  0
  3  4  1  0
  4  5  1  0
  3  6  1  0
  6  7  1  0
  7  8  1  0
  8  9  1  0
  9 10  2  0
  9 11  1  0
 11 12  1  0
 12 13  1  0
 13 14  1  0
 14 15  2  0
 15 16  1  0
 16 17  2  0
 17 18  1  0
 18 19  2  0
 19 20  1  0
 20 21  1  0
 21 11  1  0
 19 14  1  0
  1 22  1  0
  1 23  1  0
  1 24  1  0
  2 25  1  0
  2 26  1  0
  3 27  1  0
  4 28  1  0
  4 29  1  0
  5 30  1  0
  5 31  1  0
  5 32  1  0
  6 33  1  0
  6 34  1  0
  7 35  1  0
  7 36  1  0
 11 37  1  0
 12 38  1  0
 12 39  1  0
 15 40  1  0
 16 41  1  0
 17 42  1  0
 18 43  1  0
 21 44  1  0
 21 45  1  0
M  CHG  1   3   1
M  END
>  <UniqueID>  (17) 
17

>  <SMILES>  (17) 
CC[NH+](CC)CCOC(=O)C1COc2ccccc2OC1

>  <Energy>  (17) 
53.817182819236294

>  <Genealogy>  (17) 
CC[NH+](CC)CCOC(=O)C1COc2ccccc2OC1 (protonated)
CC[NH+](CC)CCOC(=O)C1COc2ccccc2OC1 (3D coordinates assigned)
CC[NH+](CC)CCOC(=O)C1COc2ccccc2OC1 (nonaromatic ring conformer: 53.817182819236294 kcal/mol)

>  <smiles>  (17) 
CCN(CC)CCOC(=O)C1COc2ccccc2OC1

>  <score_type>  (17) 
oracle

>  <origin>  (17) 
adg

>  <m_score__min__energy>  (17) 
-3.71

>  <m_primary>  (17) 
energy

$$$$
17:0
     RDKit          3D

 43 44  0  0  0  0  0  0  0  0999 V2000
   -2.7400   24.6130  -28.9630 C   0  0  0  0  0  0  0  0  0  0  0  0
   -3.4600   24.9200  -30.1950 N   0  0  0  0  0  0  0  0  0  0  0  0
   -4.6650   24.2450  -30.6000 C   0  0  0  0  0  0  0  0  0  0  0  0
   -5.8990   24.6680  -30.0780 C   0  0  0  0  0  0  0  0  0  0  0  0
   -7.0840   24.0320  -30.4530 C   0  0  0  0  0  0  0  0  0  0  0  0
   -7.0530   22.9570  -31.3470 C   0  0  0  0  0  0  0  0  0  0  0  0
   -8.5780   22.1450  -31.8370 S   0  0  0  0  0  0  0  0  0  0  0  0
   -7.7650   20.7320  -32.6720 C   0  0  0  0  0  0  0  0  0  0  0  0
   -7.7590   19.4560  -31.8040 C   0  0  1  0  0  0  0  0  0  0  0  0
   -9.0960   18.7030  -31.8920 C   0  0  0  0  0  0  0  0  0  0  0  0
   -6.5840   18.5330  -32.1820 C   0  0  0  0  0  0  0  0  0  0  0  0
   -6.7390   18.0170  -33.5660 N   0  0  0  0  0  0  0  0  0  0  0  0
   -5.7720   18.6100  -34.5150 C   0  0  0  0  0  0  0  0  0  0  0  0
   -4.4170   17.8690  -34.5080 C   0  0  0  0  0  0  0  0  0  0  0  0
   -4.2910   17.0440  -33.3680 O   0  0  0  0  0  0  0  0  0  0  0  0
   -5.2540   16.0080  -33.4180 C   0  0  0  0  0  0  0  0  0  0  0  0
   -6.6900   16.5440  -33.6310 C   0  0  0  0  0  0  0  0  0  0  0  0
   -5.8310   22.5370  -31.8850 C   0  0  0  0  0  0  0  0  0  0  0  0
   -4.6430   23.1710  -31.5120 C   0  0  0  0  0  0  0  0  0  0  0  0
   -3.3644   24.8792  -28.0974 H   0  0  0  0  0  0  0  0  0  0  0  0
   -2.5088   23.5380  -28.9316 H   0  0  0  0  0  0  0  0  0  0  0  0
   -1.8042   25.1904  -28.9316 H   0  0  0  0  0  0  0  0  0  0  0  0
   -3.0720   25.6730  -30.8070 H   0  0  0  0  0  0  0  0  0  0  0  0
   -5.9318   25.5074  -29.3678 H   0  0  0  0  0  0  0  0  0  0  0  0
   -8.0449   24.3775  -30.0440 H   0  0  0  0  0  0  0  0  0  0  0  0
   -8.3018   20.5192  -33.6082 H   0  0  0  0  0  0  0  0  0  0  0  0
   -6.7183   21.0127  -32.8606 H   0  0  0  0  0  0  0  0  0  0  0  0
   -7.6244   19.7724  -30.7591 H   0  0  0  0  0  0  0  0  0  0  0  0
   -9.4667   18.4942  -30.8776 H   0  0  0  0  0  0  0  0  0  0  0  0
   -9.8298   19.3205  -32.4307 H   0  0  0  0  0  0  0  0  0  0  0  0
   -8.9483   17.7554  -32.4307 H   0  0  0  0  0  0  0  0  0  0  0  0
   -5.6439   19.0999  -32.1122 H   0  0  0  0  0  0  0  0  0  0  0  0
   -6.5705   17.6794  -31.4883 H   0  0  0  0  0  0  0  0  0  0  0  0
   -6.1963   18.5625  -35.5288 H   0  0  0  0  0  0  0  0  0  0  0  0
   -5.5895   19.6496  -34.2051 H   0  0  0  0  0  0  0  0  0  0  0  0
   -4.3443   17.2458  -35.4115 H   0  0  0  0  0  0  0  0  0  0  0  0
   -3.6111   18.6174  -34.4868 H   0  0  0  0  0  0  0  0  0  0  0  0
   -5.0027   15.3325  -34.2490 H   0  0  0  0  0  0  0  0  0  0  0  0
   -5.2325   15.4845  -32.4508 H   0  0  0  0  0  0  0  0  0  0  0  0
   -7.0488   16.2188  -34.6187 H   0  0  0  0  0  0  0  0  0  0  0  0
   -7.3272   16.1444  -32.8283 H   0  0  0  0  0  0  0  0  0  0  0  0
   -5.8058   21.7049  -32.6040 H   0  0  0  0  0  0  0  0  0  0  0  0
   -3.6855   22.8299  -31.9325 H   0  0  0  0  0  0  0  0  0  0  0  0
  1  2  1  0
  2  3  1  0
  3  4  2  0
  4  5  1  0
  5  6  2  0
  6  7  1  0
  7  8  1  0
  8  9  1  0
  9 10  1  0
  9 11  1  0
 11 12  1  0
 12 13  1  0
 13 14  1  0
 14 15  1  0
 15 16  1  0
 16 17  1  0
  6 18  1  0
 18 19  2  0
 19  3  1  0
 17 12  1  0
  1 20  1  0
  1 21  1  0
  1 22  1  0
  2 23  1  0
  4 24  1  0
  5 25  1  0
  8 26  1  0
  8 27  1  0
  9 28  1  1
 10 29  1  0
 10 30  1  0
 10 31  1  0
 11 32  1  0
 11 33  1  0
 13 34  1  0
 13 35  1  0
 14 36  1  0
 14 37  1  0
 16 38  1  0
 16 39  1  0
 17 40  1  0
 17 41  1  0
 18 42  1  0
 19 43  1  0
M  END
>  <UniqueID>  (18) 
18

>  <SMILES>  (18) 
CNc1ccc(SC[C@@H](C)CN2CCOCC2)cc1

>  <Energy>  (18) 
45.606988227021816

>  <Genealogy>  (18) 
CNc1ccc(SC[C@@H](C)CN2CCOCC2)cc1 (chirality)
CNc1ccc(SC[C@@H](C)CN2CCOCC2)cc1 (3D coordinates assigned)
CNc1ccc(SC[C@@H](C)CN2CCOCC2)cc1 (nonaromatic ring conformer: 45.606988227021816 kcal/mol)

>  <smiles>  (18) 
CNc1ccc(SCC(C)CN2CCOCC2)cc1

>  <score_type>  (18) 
oracle

>  <origin>  (18) 
adg

>  <m_score__min__energy>  (18) 
-7.8499999999999996

>  <m_primary>  (18) 
energy

$$$$
18:0
     RDKit          3D

 60 63  0  0  0  0  0  0  0  0999 V2000
   -4.5900   13.4050  -31.1790 C   0  0  0  0  0  0  0  0  0  0  0  0
   -3.4770   13.7910  -32.1500 C   0  0  0  0  0  0  0  0  0  0  0  0
   -3.8320   14.9630  -32.9800 N   0  0  0  0  0  0  0  0  0  0  0  0
   -2.6460   15.8430  -33.1560 C   0  0  0  0  0  0  0  0  0  0  0  0
   -3.0010   17.3290  -33.2100 C   0  0  0  0  0  0  0  0  0  0  0  0
   -4.5460   14.6130  -34.2450 C   0  0  0  0  0  0  0  0  0  0  0  0
   -6.0080   14.1330  -34.0740 C   0  0  0  0  0  0  0  0  0  0  0  0
   -6.9410   15.2510  -34.2250 N   0  0  0  0  0  0  0  0  0  0  0  0
   -6.6420   16.6240  -33.9230 C   0  0  0  0  0  0  0  0  0  0  0  0
   -6.9160   17.1910  -32.6600 C   0  0  0  0  0  0  0  0  0  0  0  0
   -6.5530   18.5120  -32.3860 C   0  0  0  0  0  0  0  0  0  0  0  0
   -5.9450   19.2980  -33.3780 C   0  0  0  0  0  0  0  0  0  0  0  0
   -5.4370   20.6760  -33.0500 C   0  0  0  0  0  0  0  0  0  0  0  0
   -4.8200   20.6820  -31.7230 N   0  0  0  0  0  0  0  0  0  0  0  0
   -4.2350   21.8740  -31.1640 C   0  0  0  0  0  0  0  0  0  0  0  0
   -5.0430   23.0050  -30.8890 C   0  0  0  0  0  0  0  0  0  0  0  0
   -6.4290   23.0020  -31.1670 C   0  0  0  0  0  0  0  0  0  0  0  0
   -7.2100   24.1320  -30.9040 C   0  0  0  0  0  0  0  0  0  0  0  0
   -6.6280   25.2760  -30.3600 C   0  0  0  0  0  0  0  0  0  0  0  0
   -5.2640   25.2900  -30.0460 C   0  0  0  0  0  0  0  0  0  0  0  0
   -4.4590   24.1610  -30.3000 C   0  0  0  0  0  0  0  0  0  0  0  0
   -3.0860   24.1720  -29.9740 C   0  0  0  0  0  0  0  0  0  0  0  0
   -2.5180   25.2980  -29.3750 O   0  0  0  0  0  0  0  0  0  0  0  0
   -2.2880   23.0480  -30.2510 C   0  0  0  0  0  0  0  0  0  0  0  0
   -0.9140   23.0330  -29.9430 C   0  0  0  0  0  0  0  0  0  0  0  0
   -0.1420   21.9110  -30.2490 C   0  0  0  0  0  0  0  0  0  0  0  0
   -0.7430   20.8110  -30.8630 C   0  0  0  0  0  0  0  0  0  0  0  0
   -2.0730   20.8310  -31.1480 N   0  0  0  0  0  0  0  0  0  0  0  0
   -2.8620   21.9050  -30.8570 C   0  0  0  0  0  0  0  0  0  0  0  0
   -5.7100   18.7470  -34.6490 C   0  0  0  0  0  0  0  0  0  0  0  0
   -6.0580   17.4220  -34.9190 C   0  0  0  0  0  0  0  0  0  0  0  0
   -4.2341   13.5284  -30.1455 H   0  0  0  0  0  0  0  0  0  0  0  0
   -5.4632   14.0528  -31.3459 H   0  0  0  0  0  0  0  0  0  0  0  0
   -4.8746   12.3557  -31.3459 H   0  0  0  0  0  0  0  0  0  0  0  0
   -2.5715   14.0287  -31.5725 H   0  0  0  0  0  0  0  0  0  0  0  0
   -3.3126   12.9393  -32.8264 H   0  0  0  0  0  0  0  0  0  0  0  0
   -1.9600   15.6780  -32.3121 H   0  0  0  0  0  0  0  0  0  0  0  0
   -2.1855   15.5818  -34.1202 H   0  0  0  0  0  0  0  0  0  0  0  0
   -3.0947   17.7210  -32.1865 H   0  0  0  0  0  0  0  0  0  0  0  0
   -2.2083   17.8763  -33.7412 H   0  0  0  0  0  0  0  0  0  0  0  0
   -3.9555   17.4589  -33.7412 H   0  0  0  0  0  0  0  0  0  0  0  0
   -4.5554   15.5061  -34.8871 H   0  0  0  0  0  0  0  0  0  0  0  0
   -3.9973   13.7627  -34.6762 H   0  0  0  0  0  0  0  0  0  0  0  0
   -6.2298   13.3721  -34.8368 H   0  0  0  0  0  0  0  0  0  0  0  0
   -6.1251   13.7085  -33.0660 H   0  0  0  0  0  0  0  0  0  0  0  0
   -7.8730   15.0400  -34.6420 H   0  0  0  0  0  0  0  0  0  0  0  0
   -7.4179   16.5899  -31.8875 H   0  0  0  0  0  0  0  0  0  0  0  0
   -6.7441   18.9377  -31.3899 H   0  0  0  0  0  0  0  0  0  0  0  0
   -4.6903   20.9765  -33.7998 H   0  0  0  0  0  0  0  0  0  0  0  0
   -6.2805   21.3820  -33.0580 H   0  0  0  0  0  0  0  0  0  0  0  0
   -4.6550   19.7650  -31.2450 H   0  0  0  0  0  0  0  0  0  0  0  0
   -6.8974   22.1029  -31.5940 H   0  0  0  0  0  0  0  0  0  0  0  0
   -8.2870   24.1180  -31.1271 H   0  0  0  0  0  0  0  0  0  0  0  0
   -7.2423   26.1700  -30.1770 H   0  0  0  0  0  0  0  0  0  0  0  0
   -4.8166   26.1892  -29.5974 H   0  0  0  0  0  0  0  0  0  0  0  0
   -0.4489   23.9057  -29.4612 H   0  0  0  0  0  0  0  0  0  0  0  0
    0.9312   21.8939  -30.0082 H   0  0  0  0  0  0  0  0  0  0  0  0
   -0.1402   19.9266  -31.1168 H   0  0  0  0  0  0  0  0  0  0  0  0
   -5.2494   19.3628  -35.4355 H   0  0  0  0  0  0  0  0  0  0  0  0
   -5.8733   17.0010  -35.9183 H   0  0  0  0  0  0  0  0  0  0  0  0
  1  2  1  0
  2  3  1  0
  3  4  1  0
  4  5  1  0
  3  6  1  0
  6  7  1  0
  7  8  1  0
  8  9  1  0
  9 10  2  0
 10 11  1  0
 11 12  2  0
 12 13  1  0
 13 14  1  0
 14 15  1  0
 15 16  1  0
 16 17  2  0
 17 18  1  0
 18 19  2  0
 19 20  1  0
 20 21  2  0
 21 22  1  0
 22 23  1  0
 22 24  2  0
 24 25  1  0
 25 26  2  0
 26 27  1  0
 27 28  2  0
 28 29  1  0
 12 30  1  0
 30 31  2  0
 31  9  1  0
 29 15  2  0
 21 16  1  0
 29 24  1  0
  1 32  1  0
  1 33  1  0
  1 34  1  0
  2 35  1  0
  2 36  1  0
  4 37  1  0
  4 38  1  0
  5 39  1  0
  5 40  1  0
  5 41  1  0
  6 42  1  0
  6 43  1  0
  7 44  1  0
  7 45  1  0
  8 46  1  0
 10 47  1  0
 11 48  1  0
 13 49  1  0
 13 50  1  0
 14 51  1  0
 17 52  1  0
 18 53  1  0
 19 54  1  0
 20 55  1  0
 25 56  1  0
 26 57  1  0
 27 58  1  0
 30 59  1  0
 31 60  1  0
M  CHG  1  23  -1
M  END
>  <UniqueID>  (19) 
19

>  <SMILES>  (19) 
CCN(CC)CCNc1ccc(CNc2c3ccccc3c([O-])c3cccnc23)cc1

>  <Energy>  (19) 
78.1371756278513

>  <Genealogy>  (19) 
CCN(CC)CCNc1ccc(CNc2c3ccccc3c([O-])c3cccnc23)cc1 (protonated)
CCN(CC)CCNc1ccc(CNc2c3ccccc3c([O-])c3cccnc23)cc1 (3D coordinates assigned)
CCN(CC)CCNc1ccc(CNc2c3ccccc3c([O-])c3cccnc23)cc1 (optimized conformer: 78.1371756278513 kcal/mol)

>  <smiles>  (19) 
CCN(CC)CCNc1ccc(CNc2c3ccccc3c(O)c3cccnc23)cc1

>  <score_type>  (19) 
oracle

>  <origin>  (19) 
adg

>  <m_score__min__energy>  (19) 
-10.41

>  <m_primary>  (19) 
energy

$$$$
19:0
     RDKit          3D

 62 65  0  0  0  0  0  0  0  0999 V2000
   -2.2660   17.1500  -33.9060 C   0  0  0  0  0  0  0  0  0  0  0  0
   -2.2410   18.5720  -33.8530 O   0  0  0  0  0  0  0  0  0  0  0  0
   -1.1020   19.3580  -34.0940 C   0  0  0  0  0  0  0  0  0  0  0  0
   -0.1490   19.0060  -35.0690 C   0  0  0  0  0  0  0  0  0  0  0  0
    0.9880   19.7940  -35.2620 C   0  0  0  0  0  0  0  0  0  0  0  0
    1.1890   20.9380  -34.4900 C   0  0  0  0  0  0  0  0  0  0  0  0
    0.2490   21.3010  -33.5230 C   0  0  0  0  0  0  0  0  0  0  0  0
   -0.9010   20.5220  -33.3220 C   0  0  0  0  0  0  0  0  0  0  0  0
   -1.8590   20.9160  -32.3230 N   0  0  0  0  0  0  0  0  0  0  0  0
   -1.4610   20.9270  -30.9110 C   0  0  0  0  0  0  0  0  0  0  0  0
   -2.6490   21.2980  -30.0170 C   0  0  0  0  0  0  0  0  0  0  0  0
   -3.3210   22.5110  -30.5380 N   0  0  0  0  0  0  0  0  0  0  0  0
   -4.3700   23.0180  -29.6160 C   0  0  0  0  0  0  0  0  0  0  0  0
   -4.7210   24.5200  -29.8120 C   0  0  1  0  0  0  0  0  0  0  0  0
   -3.8080   25.0910  -30.7130 O   0  0  0  0  0  0  0  0  0  0  0  0
   -6.1480   24.6910  -30.3690 C   0  0  0  0  0  0  0  0  0  0  0  0
   -6.3040   24.0200  -31.6210 O   0  0  0  0  0  0  0  0  0  0  0  0
   -7.1740   22.9460  -31.8690 C   0  0  0  0  0  0  0  0  0  0  0  0
   -8.5680   23.0390  -31.6920 C   0  0  0  0  0  0  0  0  0  0  0  0
   -9.3810   21.9280  -31.9330 C   0  0  0  0  0  0  0  0  0  0  0  0
   -8.8180   20.7230  -32.3610 C   0  0  0  0  0  0  0  0  0  0  0  0
   -7.4310   20.6160  -32.5560 C   0  0  0  0  0  0  0  0  0  0  0  0
   -6.8280   19.3370  -33.0140 C   0  0  0  0  0  0  0  0  0  0  0  0
   -7.0380   18.1470  -32.2900 C   0  0  0  0  0  0  0  0  0  0  0  0
   -6.4620   16.9480  -32.7180 C   0  0  0  0  0  0  0  0  0  0  0  0
   -5.6750   16.9200  -33.8730 C   0  0  0  0  0  0  0  0  0  0  0  0
   -5.4640   18.0930  -34.6020 C   0  0  0  0  0  0  0  0  0  0  0  0
   -6.0360   19.2940  -34.1780 C   0  0  0  0  0  0  0  0  0  0  0  0
   -6.6190   21.7390  -32.3090 C   0  0  0  0  0  0  0  0  0  0  0  0
   -3.8230   22.3720  -31.9370 C   0  0  0  0  0  0  0  0  0  0  0  0
   -3.2610   21.1500  -32.6870 C   0  0  0  0  0  0  0  0  0  0  0  0
   -2.2731   16.7450  -32.8833 H   0  0  0  0  0  0  0  0  0  0  0  0
   -3.1701   16.8187  -34.4378 H   0  0  0  0  0  0  0  0  0  0  0  0
   -1.3741   16.7872  -34.4378 H   0  0  0  0  0  0  0  0  0  0  0  0
   -0.3008   18.1054  -35.6821 H   0  0  0  0  0  0  0  0  0  0  0  0
    1.7276   19.5113  -36.0256 H   0  0  0  0  0  0  0  0  0  0  0  0
    2.0874   21.5540  -34.6427 H   0  0  0  0  0  0  0  0  0  0  0  0
    0.4110   22.2033  -32.9150 H   0  0  0  0  0  0  0  0  0  0  0  0
   -1.0962   19.9278  -30.6307 H   0  0  0  0  0  0  0  0  0  0  0  0
   -0.6668   21.6755  -30.7729 H   0  0  0  0  0  0  0  0  0  0  0  0
   -3.3660   20.4639  -30.0005 H   0  0  0  0  0  0  0  0  0  0  0  0
   -2.2837   21.4988  -28.9990 H   0  0  0  0  0  0  0  0  0  0  0  0
   -2.5870   23.2610  -30.5570 H   0  0  0  0  0  0  0  0  0  0  0  0
   -5.2839   22.4268  -29.7752 H   0  0  0  0  0  0  0  0  0  0  0  0
   -3.9691   22.9181  -28.5965 H   0  0  0  0  0  0  0  0  0  0  0  0
   -4.6655   25.0201  -28.8338 H   0  0  0  0  0  0  0  0  0  0  0  0
   -4.2770   25.1810  -31.5840 H   0  0  0  0  0  0  0  0  0  0  0  0
   -6.8659   24.2737  -29.6476 H   0  0  0  0  0  0  0  0  0  0  0  0
   -6.3313   25.7641  -30.5267 H   0  0  0  0  0  0  0  0  0  0  0  0
   -9.0177   23.9876  -31.3635 H   0  0  0  0  0  0  0  0  0  0  0  0
  -10.4685   22.0026  -31.7851 H   0  0  0  0  0  0  0  0  0  0  0  0
   -9.4648   19.8528  -32.5464 H   0  0  0  0  0  0  0  0  0  0  0  0
   -7.6591   18.1617  -31.3823 H   0  0  0  0  0  0  0  0  0  0  0  0
   -6.6282   16.0240  -32.1447 H   0  0  0  0  0  0  0  0  0  0  0  0
   -5.2222   15.9750  -34.2077 H   0  0  0  0  0  0  0  0  0  0  0  0
   -4.8461   18.0703  -35.5117 H   0  0  0  0  0  0  0  0  0  0  0  0
   -5.8669   20.2136  -34.7574 H   0  0  0  0  0  0  0  0  0  0  0  0
   -5.5324   21.6668  -32.4641 H   0  0  0  0  0  0  0  0  0  0  0  0
   -4.9189   22.2832  -31.9038 H   0  0  0  0  0  0  0  0  0  0  0  0
   -3.4861   23.2640  -32.4855 H   0  0  0  0  0  0  0  0  0  0  0  0
   -3.8548   20.2617  -32.4255 H   0  0  0  0  0  0  0  0  0  0  0  0
   -3.3175   21.3429  -33.7685 H   0  0  0  0  0  0  0  0  0  0  0  0
  1  2  1  0
  2  3  1  0
  3  4  2  0
  4  5  1  0
  5  6  2  0
  6  7  1  0
  7  8  2  0
  8  9  1  0
  9 10  1  0
 10 11  1  0
 11 12  1  0
 12 13  1  0
 13 14  1  0
 14 15  1  0
 14 16  1  0
 16 17  1  0
 17 18  1  0
 18 19  2  0
 19 20  1  0
 20 21  2  0
 21 22  1  0
 22 23  1  0
 23 24  2  0
 24 25  1  0
 25 26  2  0
 26 27  1  0
 27 28  2  0
 22 29  2  0
 12 30  1  0
 30 31  1  0
  8  3  1  0
 31  9  1  0
 29 18  1  0
 28 23  1  0
  1 32  1  0
  1 33  1  0
  1 34  1  0
  4 35  1  0
  5 36  1  0
  6 37  1  0
  7 38  1  0
 10 39  1  0
 10 40  1  0
 11 41  1  0
 11 42  1  0
 12 43  1  0
 13 44  1  0
 13 45  1  0
 14 46  1  1
 15 47  1  0
 16 48  1  0
 16 49  1  0
 19 50  1  0
 20 51  1  0
 21 52  1  0
 24 53  1  0
 25 54  1  0
 26 55  1  0
 27 56  1  0
 28 57  1  0
 29 58  1  0
 30 59  1  0
 30 60  1  0
 31 61  1  0
 31 62  1  0
M  CHG  1  12   1
M  END
>  <UniqueID>  (20) 
20

>  <SMILES>  (20) 
COc1ccccc1N1CC[NH+](C[C@@H](O)COc2cccc(-c3ccccc3)c2)CC1

>  <Energy>  (20) 
82.56953840896945

>  <Genealogy>  (20) 
COc1ccccc1N1CC[NH+](CC(O)COc2cccc(-c3ccccc3)c2)CC1 (protonated)
COc1ccccc1N1CC[NH+](C[C@@H](O)COc2cccc(-c3ccccc3)c2)CC1 (chirality)
COc1ccccc1N1CC[NH+](C[C@@H](O)COc2cccc(-c3ccccc3)c2)CC1 (3D coordinates assigned)
COc1ccccc1N1CC[NH+](C[C@@H](O)COc2cccc(-c3ccccc3)c2)CC1 (nonaromatic ring conformer: 82.56953840896945 kcal/mol)

>  <smiles>  (20) 
COc1ccccc1N1CCN(CC(O)COc2cccc(-c3ccccc3)c2)CC1

>  <score_type>  (20) 
oracle

>  <origin>  (20) 
adg

>  <m_score__min__energy>  (20) 
-9.2799999999999994

>  <m_primary>  (20) 
energy

$$$$
20:0
     RDKit          3D

 32 34  0  0  0  0  0  0  0  0999 V2000
   -9.9170   20.8340  -32.1610 O   0  0  0  0  0  0  0  0  0  0  0  0
   -8.6670   20.7960  -32.3230 C   0  0  0  0  0  0  0  0  0  0  0  0
   -7.7480   21.8280  -31.8690 C   0  0  0  0  0  0  0  0  0  0  0  0
   -7.9690   22.9890  -31.1330 C   0  0  0  0  0  0  0  0  0  0  0  0
   -6.8620   23.8020  -30.8320 C   0  0  0  0  0  0  0  0  0  0  0  0
   -5.5590   23.4460  -31.2700 C   0  0  0  0  0  0  0  0  0  0  0  0
   -4.4340   24.2860  -30.9550 N   0  0  0  0  0  0  0  0  0  0  0  0
   -3.2990   23.7930  -30.7870 O   0  0  0  0  0  0  0  0  0  0  0  0
   -4.5900   25.6480  -30.8330 O   0  0  0  0  0  0  0  0  0  0  0  0
   -5.3810   22.2580  -32.0180 C   0  0  0  0  0  0  0  0  0  0  0  0
   -6.5000   21.4760  -32.2960 C   0  0  0  0  0  0  0  0  0  0  0  0
   -6.6320   20.2210  -33.0210 C   0  0  0  0  0  0  0  0  0  0  0  0
   -5.6830   19.6380  -33.6120 O   0  0  0  0  0  0  0  0  0  0  0  0
   -7.9900   19.7320  -33.0240 N   0  0  1  0  0  0  0  0  0  0  0  0
   -8.1230   18.4270  -32.3350 C   0  0  0  0  0  0  0  0  0  0  0  0
   -7.0010   17.4520  -32.6470 C   0  0  0  0  0  0  0  0  0  0  0  0
   -6.1010   17.0600  -31.6410 C   0  0  0  0  0  0  0  0  0  0  0  0
   -5.0920   16.1330  -31.9200 C   0  0  0  0  0  0  0  0  0  0  0  0
   -4.9720   15.5920  -33.2030 C   0  0  0  0  0  0  0  0  0  0  0  0
   -5.8590   15.9810  -34.2100 C   0  0  0  0  0  0  0  0  0  0  0  0
   -6.8690   16.9080  -33.9350 C   0  0  0  0  0  0  0  0  0  0  0  0
   -8.9801   23.2623  -30.7968 H   0  0  0  0  0  0  0  0  0  0  0  0
   -7.0070   24.7244  -30.2505 H   0  0  0  0  0  0  0  0  0  0  0  0
   -4.3831   21.9592  -32.3714 H   0  0  0  0  0  0  0  0  0  0  0  0
   -8.3430   19.6730  -34.0080 H   0  0  0  0  0  0  0  0  0  0  0  0
   -8.1341   18.6072  -31.2499 H   0  0  0  0  0  0  0  0  0  0  0  0
   -9.0556   17.9681  -32.6951 H   0  0  0  0  0  0  0  0  0  0  0  0
   -6.1908   17.4842  -30.6301 H   0  0  0  0  0  0  0  0  0  0  0  0
   -4.3915   15.8290  -31.1283 H   0  0  0  0  0  0  0  0  0  0  0  0
   -4.1797   14.8604  -33.4199 H   0  0  0  0  0  0  0  0  0  0  0  0
   -5.7626   15.5574  -35.2206 H   0  0  0  0  0  0  0  0  0  0  0  0
   -7.5637   17.2127  -34.7316 H   0  0  0  0  0  0  0  0  0  0  0  0
  1  2  2  0
  2  3  1  0
  3  4  2  0
  4  5  1  0
  5  6  2  0
  6  7  1  0
  7  8  2  0
  7  9  1  0
  6 10  1  0
 10 11  2  0
 11 12  1  0
 12 13  2  0
 12 14  1  0
 14 15  1  0
 15 16  1  0
 16 17  2  0
 17 18  1  0
 18 19  2  0
 19 20  1  0
 20 21  2  0
 14  2  1  0
 21 16  1  0
 11  3  1  0
  4 22  1  0
  5 23  1  0
 10 24  1  0
 14 25  1  6
 15 26  1  0
 15 27  1  0
 17 28  1  0
 18 29  1  0
 19 30  1  0
 20 31  1  0
 21 32  1  0
M  CHG  3   7   1   9  -1  14   1
M  END
>  <UniqueID>  (21) 
21

>  <SMILES>  (21) 
O=C1c2ccc([N+](=O)[O-])cc2C(=O)[N@H+]1Cc1ccccc1

>  <Energy>  (21) 
62.11832552599283

>  <Genealogy>  (21) 
O=C1c2ccc([N+](=O)[O-])cc2C(=O)[NH+]1Cc1ccccc1 (protonated)
O=C1c2ccc([N+](=O)[O-])cc2C(=O)[N@H+]1Cc1ccccc1 (chirality)
O=C1c2ccc([N+](=O)[O-])cc2C(=O)[N@H+]1Cc1ccccc1 (3D coordinates assigned)
O=C1c2ccc([N+](=O)[O-])cc2C(=O)[N@H+]1Cc1ccccc1 (nonaromatic ring conformer: 62.11832552599283 kcal/mol)

>  <smiles>  (21) 
O=C1c2ccc([N+](=O)[O-])cc2C(=O)N1Cc1ccccc1

>  <score_type>  (21) 
oracle

>  <origin>  (21) 
adg

>  <m_score__min__energy>  (21) 
-9.0700000000000003

>  <m_primary>  (21) 
energy

$$$$
21:0
     RDKit          3D

 35 37  0  0  0  0  0  0  0  0999 V2000
   -1.1631   20.3843  -27.9837 H   0  0  0  0  0  0  0  0  0  0  0  0
   -1.7560   21.1370  -28.5240 C   0  0  0  0  0  0  0  0  0  0  0  0
   -2.7470   21.8560  -27.8530 C   0  0  0  0  0  0  0  0  0  0  0  0
   -2.9328   21.6638  -26.7860 H   0  0  0  0  0  0  0  0  0  0  0  0
   -3.5110   22.8260  -28.5320 C   0  0  0  0  0  0  0  0  0  0  0  0
   -4.5000   23.5760  -27.8740 O   0  0  0  0  0  0  0  0  0  0  0  0
   -4.2400   24.5790  -26.8970 C   0  0  0  0  0  0  0  0  0  0  0  0
   -4.3516   24.1485  -25.8909 H   0  0  0  0  0  0  0  0  0  0  0  0
   -3.2144   24.9562  -27.0227 H   0  0  0  0  0  0  0  0  0  0  0  0
   -4.9532   25.4070  -27.0227 H   0  0  0  0  0  0  0  0  0  0  0  0
   -3.2660   23.0630  -29.9030 C   0  0  0  0  0  0  0  0  0  0  0  0
   -4.0560   24.0660  -30.6610 C   0  0  0  0  0  0  0  0  0  0  0  0
   -3.8420   25.2920  -30.4740 O   0  0  0  0  0  0  0  0  0  0  0  0
   -5.1280   23.6820  -31.5350 N   0  0  0  0  0  0  0  0  0  0  0  0
   -5.4360   22.4660  -31.8860 C   0  0  0  0  0  0  0  0  0  0  0  0
   -4.4500   21.4290  -32.8040 S   0  0  0  0  0  0  0  0  0  0  0  0
   -5.6000   20.2090  -32.8050 C   0  0  0  0  0  0  0  0  0  0  0  0
   -5.5160   18.9500  -33.3950 C   0  0  0  0  0  0  0  0  0  0  0  0
   -4.6141   18.6423  -33.9444 H   0  0  0  0  0  0  0  0  0  0  0  0
   -6.6140   18.0850  -33.2690 C   0  0  0  0  0  0  0  0  0  0  0  0
   -6.5480   16.3470  -34.0590 Br  0  0  0  0  0  0  0  0  0  0  0  0
   -7.7630   18.4920  -32.5640 C   0  0  0  0  0  0  0  0  0  0  0  0
   -8.6185   17.8067  -32.4713 H   0  0  0  0  0  0  0  0  0  0  0  0
   -7.8240   19.7680  -31.9780 C   0  0  0  0  0  0  0  0  0  0  0  0
   -8.7211   20.0868  -31.4271 H   0  0  0  0  0  0  0  0  0  0  0  0
   -6.7240   20.6290  -32.1060 C   0  0  0  0  0  0  0  0  0  0  0  0
   -6.6370   21.8940  -31.5940 N   0  0  0  0  0  0  0  0  0  0  0  0
   -7.7070   22.5420  -30.8280 C   0  0  0  0  0  0  0  0  0  0  0  0
   -7.5112   22.4234  -29.7521 H   0  0  0  0  0  0  0  0  0  0  0  0
   -7.7408   23.6125  -31.0787 H   0  0  0  0  0  0  0  0  0  0  0  0
   -8.6714   22.0760  -31.0787 H   0  0  0  0  0  0  0  0  0  0  0  0
   -2.2700   22.3240  -30.5660 C   0  0  0  0  0  0  0  0  0  0  0  0
   -2.0832   22.4982  -31.6359 H   0  0  0  0  0  0  0  0  0  0  0  0
   -1.5160   21.3710  -29.8780 C   0  0  0  0  0  0  0  0  0  0  0  0
   -0.2710   20.4630  -30.7180 Cl  0  0  0  0  0  0  0  0  0  0  0  0
  1  2  1  0
  2  3  2  0
  3  4  1  0
  3  5  1  0
  5  6  1  0
  6  7  1  0
  7  8  1  0
  7  9  1  0
  7 10  1  0
  5 11  2  0
 11 12  1  0
 12 13  2  0
 12 14  1  0
 14 15  2  0
 15 16  1  0
 16 17  1  0
 17 18  2  0
 18 19  1  0
 18 20  1  0
 20 21  1  0
 20 22  2  0
 22 23  1  0
 22 24  1  0
 24 25  1  0
 24 26  2  0
 26 27  1  0
 27 28  1  0
 28 29  1  0
 28 30  1  0
 28 31  1  0
 11 32  1  0
 32 33  1  0
 32 34  2  0
 34 35  1  0
 34  2  1  0
 27 15  1  0
 26 17  1  0
M  END
>  <UniqueID>  (22) 
22

>  <SMILES>  (22) 
COc1ccc(Cl)cc1C(=O)/N=c1\sc2cc(Br)ccc2n1C

>  <Energy>  (22) 
82.60760965386964

>  <Genealogy>  (22) 
COc1ccc(Cl)cc1C(=O)/N=c1\sc2cc(Br)ccc2n1C (cis-trans isomerization)
COc1ccc(Cl)cc1C(=O)/N=c1\sc2cc(Br)ccc2n1C (3D coordinates assigned)
COc1ccc(Cl)cc1C(=O)/N=c1\sc2cc(Br)ccc2n1C (optimized conformer: 82.60760965386964 kcal/mol)

>  <smiles>  (22) 
COc1ccc(Cl)cc1C(=O)N=c1sc2cc(Br)ccc2n1C

>  <score_type>  (22) 
oracle

>  <origin>  (22) 
adg

>  <m_score__min__energy>  (22) 
-9.2200000000000006

>  <m_primary>  (22) 
energy

$$$$
22:0
     RDKit          3D

 40 42  0  0  0  0  0  0  0  0999 V2000
   -0.8810   21.8710  -30.9010 C   0  0  0  0  0  0  0  0  0  0  0  0
   -0.8290   20.6990  -31.8820 C   0  0  0  0  0  0  0  0  0  0  0  0
   -0.7410   21.1550  -33.3530 C   0  0  0  0  0  0  0  0  0  0  0  0
   -2.0510   21.1830  -34.0330 N   0  0  0  0  0  0  0  0  0  0  0  0
   -3.1150   20.5820  -33.2110 C   0  0  0  0  0  0  0  0  0  0  0  0
   -4.4270   21.2840  -33.4480 C   0  0  0  0  0  0  0  0  0  0  0  0
   -5.3390   21.5730  -32.4970 C   0  0  0  0  0  0  0  0  0  0  0  0
   -6.5270   20.7010  -32.3120 C   0  0  0  0  0  0  0  0  0  0  0  0
   -6.4040   19.3030  -32.2240 C   0  0  0  0  0  0  0  0  0  0  0  0
   -7.5130   18.5220  -31.8850 C   0  0  0  0  0  0  0  0  0  0  0  0
   -8.7440   19.1270  -31.6170 C   0  0  0  0  0  0  0  0  0  0  0  0
   -8.8760   20.5160  -31.7030 C   0  0  0  0  0  0  0  0  0  0  0  0
   -7.7770   21.3020  -32.0650 C   0  0  0  0  0  0  0  0  0  0  0  0
   -7.9740   23.0760  -32.3070 S   0  0  0  0  0  0  0  0  0  0  0  0
   -6.4910   23.4770  -31.3720 C   0  0  0  0  0  0  0  0  0  0  0  0
   -6.5270   24.4880  -30.4050 C   0  0  0  0  0  0  0  0  0  0  0  0
   -5.3700   24.8210  -29.6970 C   0  0  0  0  0  0  0  0  0  0  0  0
   -4.1810   24.1290  -29.9340 C   0  0  0  0  0  0  0  0  0  0  0  0
   -4.1450   23.0990  -30.8780 C   0  0  0  0  0  0  0  0  0  0  0  0
   -5.2910   22.7820  -31.6300 C   0  0  0  0  0  0  0  0  0  0  0  0
   -0.8640   21.4874  -29.8702 H   0  0  0  0  0  0  0  0  0  0  0  0
   -0.0109   22.5241  -31.0636 H   0  0  0  0  0  0  0  0  0  0  0  0
   -1.8055   22.4445  -31.0636 H   0  0  0  0  0  0  0  0  0  0  0  0
    0.0544   20.0858  -31.6506 H   0  0  0  0  0  0  0  0  0  0  0  0
   -1.7626   20.1288  -31.7670 H   0  0  0  0  0  0  0  0  0  0  0  0
   -0.3115   22.1673  -33.3800 H   0  0  0  0  0  0  0  0  0  0  0  0
   -0.1127   20.4250  -33.8843 H   0  0  0  0  0  0  0  0  0  0  0  0
   -2.3030   22.1840  -34.2070 H   0  0  0  0  0  0  0  0  0  0  0  0
   -1.9960   20.7110  -34.9620 H   0  0  0  0  0  0  0  0  0  0  0  0
   -3.2202   19.5196  -33.4759 H   0  0  0  0  0  0  0  0  0  0  0  0
   -2.8443   20.6840  -32.1497 H   0  0  0  0  0  0  0  0  0  0  0  0
   -4.6600   21.5852  -34.4800 H   0  0  0  0  0  0  0  0  0  0  0  0
   -5.4341   18.8233  -32.4221 H   0  0  0  0  0  0  0  0  0  0  0  0
   -7.4163   17.4277  -31.8290 H   0  0  0  0  0  0  0  0  0  0  0  0
   -9.6103   18.5093  -31.3380 H   0  0  0  0  0  0  0  0  0  0  0  0
   -9.8442   20.9909  -31.4860 H   0  0  0  0  0  0  0  0  0  0  0  0
   -7.4676   25.0210  -30.2023 H   0  0  0  0  0  0  0  0  0  0  0  0
   -5.3957   25.6296  -28.9517 H   0  0  0  0  0  0  0  0  0  0  0  0
   -3.2707   24.3949  -29.3767 H   0  0  0  0  0  0  0  0  0  0  0  0
   -3.2149   22.5327  -31.0340 H   0  0  0  0  0  0  0  0  0  0  0  0
  1  2  1  0
  2  3  1  0
  3  4  1  0
  4  5  1  0
  5  6  1  0
  6  7  2  3
  7  8  1  0
  8  9  2  0
  9 10  1  0
 10 11  2  0
 11 12  1  0
 12 13  2  0
 13 14  1  0
 14 15  1  0
 15 16  2  0
 16 17  1  0
 17 18  2  0
 18 19  1  0
 19 20  2  0
 20  7  1  0
 13  8  1  0
 20 15  1  0
  1 21  1  0
  1 22  1  0
  1 23  1  0
  2 24  1  0
  2 25  1  0
  3 26  1  0
  3 27  1  0
  4 28  1  0
  4 29  1  0
  5 30  1  0
  5 31  1  0
  6 32  1  0
  9 33  1  0
 10 34  1  0
 11 35  1  0
 12 36  1  0
 16 37  1  0
 17 38  1  0
 18 39  1  0
 19 40  1  0
M  CHG  1   4   1
M  END
>  <UniqueID>  (23) 
23

>  <SMILES>  (23) 
CCC[NH2+]CC=C1c2ccccc2Sc2ccccc21

>  <Energy>  (23) 
60.14545831422749

>  <Genealogy>  (23) 
CCC[NH2+]CC=C1c2ccccc2Sc2ccccc21 (protonated)
CCC[NH2+]CC=C1c2ccccc2Sc2ccccc21 (3D coordinates assigned)
CCC[NH2+]CC=C1c2ccccc2Sc2ccccc21 (nonaromatic ring conformer: 60.14545831422749 kcal/mol)

>  <smiles>  (23) 
CCCNCC=C1c2ccccc2Sc2ccccc21

>  <score_type>  (23) 
oracle

>  <origin>  (23) 
adg

>  <m_score__min__energy>  (23) 
-7.8799999999999999

>  <m_primary>  (23) 
energy

$$$$
23:0
     RDKit          3D

 39 41  0  0  0  0  0  0  0  0999 V2000
   -5.3230   15.5240  -33.4170 C   0  0  0  0  0  0  0  0  0  0  0  0
   -6.5330   16.2490  -33.9940 C   0  0  0  0  0  0  0  0  0  0  0  0
   -7.1080   17.1260  -33.0250 O   0  0  0  0  0  0  0  0  0  0  0  0
   -6.7080   18.4500  -32.7800 C   0  0  0  0  0  0  0  0  0  0  0  0
   -5.3620   18.8220  -32.6180 C   0  0  0  0  0  0  0  0  0  0  0  0
   -5.0170   20.1530  -32.3710 C   0  0  0  0  0  0  0  0  0  0  0  0
   -6.0130   21.1480  -32.2760 C   0  0  0  0  0  0  0  0  0  0  0  0
   -5.7350   22.5150  -32.0050 C   0  0  0  0  0  0  0  0  0  0  0  0
   -4.3480   23.0660  -31.7470 C   0  0  0  0  0  0  0  0  0  0  0  0
   -4.4200   24.3830  -31.0900 N   0  0  0  0  0  0  0  0  0  0  0  0
   -4.6600   24.2840  -29.6420 C   0  0  0  0  0  0  0  0  0  0  0  0
   -3.4130   24.5810  -28.8670 C   0  0  0  0  0  0  0  0  0  0  0  0
   -3.1440   24.1810  -27.5720 C   0  0  0  0  0  0  0  0  0  0  0  0
   -1.8890   24.6740  -27.2870 C   0  0  0  0  0  0  0  0  0  0  0  0
   -1.4780   25.3540  -28.4150 C   0  0  0  0  0  0  0  0  0  0  0  0
   -2.4100   25.2850  -29.3380 O   0  0  0  0  0  0  0  0  0  0  0  0
   -6.8120   23.4080  -31.9090 C   0  0  0  0  0  0  0  0  0  0  0  0
   -8.1140   22.9440  -32.0860 C   0  0  0  0  0  0  0  0  0  0  0  0
   -9.0830   23.7430  -32.0020 O   0  0  0  0  0  0  0  0  0  0  0  0
   -8.3420   21.6620  -32.3380 O   0  0  0  0  0  0  0  0  0  0  0  0
   -7.3680   20.7640  -32.4340 C   0  0  0  0  0  0  0  0  0  0  0  0
   -7.7000   19.4300  -32.6850 C   0  0  0  0  0  0  0  0  0  0  0  0
   -5.3687   15.5514  -32.3183 H   0  0  0  0  0  0  0  0  0  0  0  0
   -5.3251   14.4782  -33.7581 H   0  0  0  0  0  0  0  0  0  0  0  0
   -4.4019   16.0191  -33.7581 H   0  0  0  0  0  0  0  0  0  0  0  0
   -6.2182   16.8357  -34.8696 H   0  0  0  0  0  0  0  0  0  0  0  0
   -7.2863   15.5019  -34.2845 H   0  0  0  0  0  0  0  0  0  0  0  0
   -4.5734   18.0582  -32.6863 H   0  0  0  0  0  0  0  0  0  0  0  0
   -3.9589   20.4280  -32.2494 H   0  0  0  0  0  0  0  0  0  0  0  0
   -3.7985   22.3689  -31.0974 H   0  0  0  0  0  0  0  0  0  0  0  0
   -3.8305   23.1815  -32.7108 H   0  0  0  0  0  0  0  0  0  0  0  0
   -3.4890   24.8430  -31.2200 H   0  0  0  0  0  0  0  0  0  0  0  0
   -5.4403   25.0050  -29.3571 H   0  0  0  0  0  0  0  0  0  0  0  0
   -4.9791   23.2571  -29.4102 H   0  0  0  0  0  0  0  0  0  0  0  0
   -3.7947   23.5928  -26.9082 H   0  0  0  0  0  0  0  0  0  0  0  0
   -1.3279   24.5503  -26.3490 H   0  0  0  0  0  0  0  0  0  0  0  0
   -0.5155   25.8751  -28.5247 H   0  0  0  0  0  0  0  0  0  0  0  0
   -6.6296   24.4714  -31.6947 H   0  0  0  0  0  0  0  0  0  0  0  0
   -8.7558   19.1475  -32.8094 H   0  0  0  0  0  0  0  0  0  0  0  0
  1  2  1  0
  2  3  1  0
  3  4  1  0
  4  5  2  0
  5  6  1  0
  6  7  2  0
  7  8  1  0
  8  9  1  0
  9 10  1  0
 10 11  1  0
 11 12  1  0
 12 13  2  0
 13 14  1  0
 14 15  2  0
 15 16  1  0
  8 17  2  0
 17 18  1  0
 18 19  2  0
 18 20  1  0
 20 21  1  0
 21 22  2  0
 22  4  1  0
 21  7  1  0
 16 12  1  0
  1 23  1  0
  1 24  1  0
  1 25  1  0
  2 26  1  0
  2 27  1  0
  5 28  1  0
  6 29  1  0
  9 30  1  0
  9 31  1  0
 10 32  1  0
 11 33  1  0
 11 34  1  0
 13 35  1  0
 14 36  1  0
 15 37  1  0
 17 38  1  0
 22 39  1  0
M  END
>  <UniqueID>  (24) 
24

>  <SMILES>  (24) 
CCOc1ccc2c(CNCc3ccco3)cc(=O)oc2c1

>  <Energy>  (24) 
68.85624095092813

>  <Genealogy>  (24) 
CCOc1ccc2c(CNCc3ccco3)cc(=O)oc2c1 (3D coordinates assigned)
CCOc1ccc2c(CNCc3ccco3)cc(=O)oc2c1 (optimized conformer: 68.85624095092813 kcal/mol)

>  <smiles>  (24) 
CCOc1ccc2c(CNCc3ccco3)cc(=O)oc2c1

>  <score_type>  (24) 
oracle

>  <origin>  (24) 
adg

>  <m_score__min__energy>  (24) 
-7.8600000000000003

>  <m_primary>  (24) 
energy

$$$$
24:0
     RDKit          3D

 51 53  0  0  0  0  0  0  0  0999 V2000
   -9.4880   19.8830  -32.3390 C   0  0  0  0  0  0  0  0  0  0  0  0
   -8.0320   20.1310  -32.5790 C   0  0  0  0  0  0  0  0  0  0  0  0
   -7.2320   19.1700  -33.1190 N   0  0  0  0  0  0  0  0  0  0  0  0
   -5.9490   19.5800  -33.2590 C   0  0  0  0  0  0  0  0  0  0  0  0
   -4.8770   18.7240  -33.8170 C   0  0  0  0  0  0  0  0  0  0  0  0
   -3.5210   19.0830  -33.6850 C   0  0  0  0  0  0  0  0  0  0  0  0
   -2.5180   18.2670  -34.2160 C   0  0  0  0  0  0  0  0  0  0  0  0
   -2.8540   17.0860  -34.8820 C   0  0  0  0  0  0  0  0  0  0  0  0
   -4.1940   16.7190  -35.0180 C   0  0  0  0  0  0  0  0  0  0  0  0
   -5.2020   17.5320  -34.4890 C   0  0  0  0  0  0  0  0  0  0  0  0
   -5.7640   21.1640  -32.7120 S   0  0  0  0  0  0  0  0  0  0  0  0
   -7.3820   21.3330  -32.2880 C   0  0  0  0  0  0  0  0  0  0  0  0
   -7.9740   22.5600  -31.6510 C   0  0  0  0  0  0  0  0  0  0  0  0
   -7.6100   22.6620  -30.1620 C   0  0  0  0  0  0  0  0  0  0  0  0
   -6.4350   23.5210  -29.9470 N   0  0  0  0  0  0  0  0  0  0  0  0
   -6.8270   24.9400  -29.9210 C   0  0  0  0  0  0  0  0  0  0  0  0
   -5.6840   25.8480  -30.4040 C   0  0  0  0  0  0  0  0  0  0  0  0
   -4.5530   25.0610  -30.9170 N   0  0  0  0  0  0  0  0  0  0  0  0
   -3.6260   24.6780  -29.8460 C   0  0  0  0  0  0  0  0  0  0  0  0
   -3.2250   23.2400  -30.0260 C   0  0  0  0  0  0  0  0  0  0  0  0
   -3.0090   22.7170  -31.3120 C   0  0  0  0  0  0  0  0  0  0  0  0
   -2.6850   21.3670  -31.4760 C   0  0  0  0  0  0  0  0  0  0  0  0
   -2.5850   20.5290  -30.3610 C   0  0  0  0  0  0  0  0  0  0  0  0
   -2.8160   21.0400  -29.0810 C   0  0  0  0  0  0  0  0  0  0  0  0
   -3.1410   22.3880  -28.9120 C   0  0  0  0  0  0  0  0  0  0  0  0
   -9.6808   19.8502  -31.2565 H   0  0  0  0  0  0  0  0  0  0  0  0
  -10.0776   20.6937  -32.7920 H   0  0  0  0  0  0  0  0  0  0  0  0
   -9.7760   18.9229  -32.7920 H   0  0  0  0  0  0  0  0  0  0  0  0
   -3.2499   20.0113  -33.1608 H   0  0  0  0  0  0  0  0  0  0  0  0
   -1.4619   18.5555  -34.1092 H   0  0  0  0  0  0  0  0  0  0  0  0
   -2.0630   16.4454  -35.2991 H   0  0  0  0  0  0  0  0  0  0  0  0
   -4.4578   15.7886  -35.5422 H   0  0  0  0  0  0  0  0  0  0  0  0
   -6.2559   17.2370  -34.5993 H   0  0  0  0  0  0  0  0  0  0  0  0
   -7.5934   23.4507  -32.1724 H   0  0  0  0  0  0  0  0  0  0  0  0
   -9.0690   22.4925  -31.7314 H   0  0  0  0  0  0  0  0  0  0  0  0
   -8.4653   23.0841  -29.6140 H   0  0  0  0  0  0  0  0  0  0  0  0
   -7.3682   21.6525  -29.7980 H   0  0  0  0  0  0  0  0  0  0  0  0
   -5.7470   23.3690  -30.7210 H   0  0  0  0  0  0  0  0  0  0  0  0
   -5.9950   23.2700  -29.0300 H   0  0  0  0  0  0  0  0  0  0  0  0
   -7.6985   25.0824  -30.5770 H   0  0  0  0  0  0  0  0  0  0  0  0
   -7.0700   25.2125  -28.8834 H   0  0  0  0  0  0  0  0  0  0  0  0
   -6.0596   26.4997  -31.2066 H   0  0  0  0  0  0  0  0  0  0  0  0
   -5.3312   26.4442  -29.5495 H   0  0  0  0  0  0  0  0  0  0  0  0
   -4.0250   25.6630  -31.5920 H   0  0  0  0  0  0  0  0  0  0  0  0
   -2.7316   25.3169  -29.8884 H   0  0  0  0  0  0  0  0  0  0  0  0
   -4.1182   24.8038  -28.8703 H   0  0  0  0  0  0  0  0  0  0  0  0
   -3.0950   23.3714  -32.1920 H   0  0  0  0  0  0  0  0  0  0  0  0
   -2.5084   20.9633  -32.4839 H   0  0  0  0  0  0  0  0  0  0  0  0
   -2.3247   19.4682  -30.4914 H   0  0  0  0  0  0  0  0  0  0  0  0
   -2.7417   20.3793  -28.2047 H   0  0  0  0  0  0  0  0  0  0  0  0
   -3.3318   22.7837  -27.9035 H   0  0  0  0  0  0  0  0  0  0  0  0
  1  2  1  0
  2  3  1  0
  3  4  2  0
  4  5  1  0
  5  6  2  0
  6  7  1  0
  7  8  2  0
  8  9  1  0
  9 10  2  0
  4 11  1  0
 11 12  1  0
 12 13  1  0
 13 14  1  0
 14 15  1  0
 15 16  1  0
 16 17  1  0
 17 18  1  0
 18 19  1  0
 19 20  1  0
 20 21  2  0
 21 22  1  0
 22 23  2  0
 23 24  1  0
 24 25  2  0
 12  2  2  0
 25 20  1  0
 10  5  1  0
  1 26  1  0
  1 27  1  0
  1 28  1  0
  6 29  1  0
  7 30  1  0
  8 31  1  0
  9 32  1  0
 10 33  1  0
 13 34  1  0
 13 35  1  0
 14 36  1  0
 14 37  1  0
 15 38  1  0
 15 39  1  0
 16 40  1  0
 16 41  1  0
 17 42  1  0
 17 43  1  0
 18 44  1  0
 19 45  1  0
 19 46  1  0
 21 47  1  0
 22 48  1  0
 23 49  1  0
 24 50  1  0
 25 51  1  0
M  CHG  1  15   1
M  END
>  <UniqueID>  (25) 
25

>  <SMILES>  (25) 
Cc1nc(-c2ccccc2)sc1CC[NH2+]CCNCc1ccccc1

>  <Energy>  (25) 
75.2134235913555

>  <Genealogy>  (25) 
Cc1nc(-c2ccccc2)sc1CC[NH2+]CCNCc1ccccc1 (protonated)
Cc1nc(-c2ccccc2)sc1CC[NH2+]CCNCc1ccccc1 (3D coordinates assigned)
Cc1nc(-c2ccccc2)sc1CC[NH2+]CCNCc1ccccc1 (optimized conformer: 75.2134235913555 kcal/mol)

>  <smiles>  (25) 
Cc1nc(-c2ccccc2)sc1CCNCCNCc1ccccc1

>  <score_type>  (25) 
oracle

>  <origin>  (25) 
adg

>  <m_score__min__energy>  (25) 
-7.8300000000000001

>  <m_primary>  (25) 
energy

$$$$
25:0
     RDKit          3D

 35 36  0  0  0  0  0  0  0  0999 V2000
   -3.9620   25.6020  -30.4770 N   0  0  0  0  0  0  0  0  0  0  0  0
   -5.3870   25.8740  -30.6230 C   0  0  0  0  0  0  0  0  0  0  0  0
   -6.1460   24.6720  -31.2230 C   0  0  0  0  0  0  0  0  0  0  0  0
   -5.3730   23.3120  -31.2720 C   0  0  2  0  0  0  0  0  0  0  0  0
   -6.2880   22.0960  -31.4330 C   0  0  0  0  0  0  0  0  0  0  0  0
   -7.5390   22.0340  -30.7830 C   0  0  0  0  0  0  0  0  0  0  0  0
   -8.3890   20.9390  -30.9600 C   0  0  0  0  0  0  0  0  0  0  0  0
   -8.0100   19.8840  -31.7890 C   0  0  0  0  0  0  0  0  0  0  0  0
   -9.0810   18.5130  -32.0090 Cl  0  0  0  0  0  0  0  0  0  0  0  0
   -6.7780   19.9220  -32.4420 C   0  0  0  0  0  0  0  0  0  0  0  0
   -5.9170   21.0120  -32.2740 C   0  0  0  0  0  0  0  0  0  0  0  0
   -4.3830   20.9720  -33.1400 Cl  0  0  0  0  0  0  0  0  0  0  0  0
   -4.3440   23.0990  -30.2070 N   0  0  0  0  0  0  0  0  0  0  0  0
   -3.4730   21.9180  -30.2640 C   0  0  0  0  0  0  0  0  0  0  0  0
   -2.8450   21.8120  -28.8870 C   0  0  0  0  0  0  0  0  0  0  0  0
   -3.8630   22.4380  -27.9460 C   0  0  0  0  0  0  0  0  0  0  0  0
   -4.9020   23.0930  -28.8500 C   0  0  0  0  0  0  0  0  0  0  0  0
   -3.8170   25.1140  -29.5630 H   0  0  0  0  0  0  0  0  0  0  0  0
   -3.6900   24.9170  -31.2190 H   0  0  0  0  0  0  0  0  0  0  0  0
   -5.8084   26.1018  -29.6328 H   0  0  0  0  0  0  0  0  0  0  0  0
   -5.5019   26.7257  -31.3096 H   0  0  0  0  0  0  0  0  0  0  0  0
   -7.0555   24.5181  -30.6237 H   0  0  0  0  0  0  0  0  0  0  0  0
   -6.3312   24.9397  -32.2737 H   0  0  0  0  0  0  0  0  0  0  0  0
   -4.7868   23.4107  -32.1975 H   0  0  0  0  0  0  0  0  0  0  0  0
   -7.8499   22.8603  -30.1269 H   0  0  0  0  0  0  0  0  0  0  0  0
   -9.3599   20.9093  -30.4438 H   0  0  0  0  0  0  0  0  0  0  0  0
   -6.4808   19.0879  -33.0946 H   0  0  0  0  0  0  0  0  0  0  0  0
   -4.0617   21.0164  -30.4887 H   0  0  0  0  0  0  0  0  0  0  0  0
   -2.7128   22.0088  -31.0538 H   0  0  0  0  0  0  0  0  0  0  0  0
   -2.6683   20.7592  -28.6218 H   0  0  0  0  0  0  0  0  0  0  0  0
   -1.8683   22.3156  -28.8363 H   0  0  0  0  0  0  0  0  0  0  0  0
   -4.3315   21.6663  -27.3176 H   0  0  0  0  0  0  0  0  0  0  0  0
   -3.3970   23.1653  -27.2649 H   0  0  0  0  0  0  0  0  0  0  0  0
   -5.8387   22.5167  -28.8289 H   0  0  0  0  0  0  0  0  0  0  0  0
   -5.1282   24.1154  -28.5130 H   0  0  0  0  0  0  0  0  0  0  0  0
  1  2  1  0
  2  3  1  0
  3  4  1  0
  4  5  1  0
  5  6  2  0
  6  7  1  0
  7  8  2  0
  8  9  1  0
  8 10  1  0
 10 11  2  0
 11 12  1  0
  4 13  1  0
 13 14  1  0
 14 15  1  0
 15 16  1  0
 16 17  1  0
 11  5  1  0
 17 13  1  0
  1 18  1  0
  1 19  1  0
  2 20  1  0
  2 21  1  0
  3 22  1  0
  3 23  1  0
  4 24  1  6
  6 25  1  0
  7 26  1  0
 10 27  1  0
 14 28  1  0
 14 29  1  0
 15 30  1  0
 15 31  1  0
 16 32  1  0
 16 33  1  0
 17 34  1  0
 17 35  1  0
M  END
>  <UniqueID>  (26) 
26

>  <SMILES>  (26) 
NCC[C@H](c1ccc(Cl)cc1Cl)N1CCCC1

>  <Energy>  (26) 
51.34768887575324

>  <Genealogy>  (26) 
NCC[C@H](c1ccc(Cl)cc1Cl)N1CCCC1 (chirality)
NCC[C@H](c1ccc(Cl)cc1Cl)N1CCCC1 (3D coordinates assigned)
NCC[C@H](c1ccc(Cl)cc1Cl)N1CCCC1 (nonaromatic ring conformer: 51.34768887575324 kcal/mol)

>  <smiles>  (26) 
NCCC(c1ccc(Cl)cc1Cl)N1CCCC1

>  <score_type>  (26) 
oracle

>  <origin>  (26) 
adg

>  <m_score__min__energy>  (26) 
-7.8899999999999997

>  <m_primary>  (26) 
energy

$$$$
26:0
     RDKit          3D

 45 46  0  0  0  0  0  0  0  0999 V2000
   -8.4080   18.1810  -31.6130 C   0  0  0  0  0  0  0  0  0  0  0  0
   -7.1980   17.5620  -32.3060 C   0  0  0  0  0  0  0  0  0  0  0  0
   -5.8940   18.3310  -32.0250 C   0  0  0  0  0  0  0  0  0  0  0  0
   -5.3620   18.9940  -33.2310 N   0  0  0  0  0  0  0  0  0  0  0  0
   -5.7870   18.5160  -34.5520 C   0  0  0  0  0  0  0  0  0  0  0  0
   -4.6310   20.2440  -33.1660 C   0  0  0  0  0  0  0  0  0  0  0  0
   -3.5150   20.3460  -33.7450 O   0  0  0  0  0  0  0  0  0  0  0  0
   -5.1480   21.4360  -32.4670 C   0  0  0  0  0  0  0  0  0  0  0  0
   -4.3700   22.4660  -31.9710 C   0  0  0  0  0  0  0  0  0  0  0  0
   -5.2480   23.4160  -31.4900 C   0  0  0  0  0  0  0  0  0  0  0  0
   -4.8740   24.6830  -30.8400 C   0  0  0  0  0  0  0  0  0  0  0  0
   -5.7660   25.5350  -30.5930 O   0  0  0  0  0  0  0  0  0  0  0  0
   -3.5200   24.9590  -30.4610 N   0  0  0  0  0  0  0  0  0  0  0  0
   -2.7130   24.1230  -29.5760 C   0  0  0  0  0  0  0  0  0  0  0  0
   -1.9490   24.9680  -28.6050 C   0  0  0  0  0  0  0  0  0  0  0  0
   -1.7960   24.7140  -27.2570 C   0  0  0  0  0  0  0  0  0  0  0  0
   -0.9930   25.7290  -26.7800 C   0  0  0  0  0  0  0  0  0  0  0  0
   -0.7110   26.5370  -27.8630 C   0  0  0  0  0  0  0  0  0  0  0  0
   -1.2960   26.0580  -28.9360 O   0  0  0  0  0  0  0  0  0  0  0  0
   -6.5310   22.9450  -31.7310 C   0  0  0  0  0  0  0  0  0  0  0  0
   -7.8080   23.6080  -31.3040 C   0  0  0  0  0  0  0  0  0  0  0  0
   -6.4610   21.7240  -32.3080 N   0  0  0  0  0  0  0  0  0  0  0  0
   -7.5930   20.8960  -32.7270 C   0  0  0  0  0  0  0  0  0  0  0  0
   -8.2794   18.1152  -30.5225 H   0  0  0  0  0  0  0  0  0  0  0  0
   -8.4995   19.2366  -31.9084 H   0  0  0  0  0  0  0  0  0  0  0  0
   -9.3176   17.6375  -31.9084 H   0  0  0  0  0  0  0  0  0  0  0  0
   -7.0800   16.5277  -31.9507 H   0  0  0  0  0  0  0  0  0  0  0  0
   -7.3799   17.6017  -33.3901 H   0  0  0  0  0  0  0  0  0  0  0  0
   -6.0926   19.0958  -31.2598 H   0  0  0  0  0  0  0  0  0  0  0  0
   -5.1428   17.6042  -31.6823 H   0  0  0  0  0  0  0  0  0  0  0  0
   -6.5134   17.6990  -34.4301 H   0  0  0  0  0  0  0  0  0  0  0  0
   -6.2543   19.3422  -35.1080 H   0  0  0  0  0  0  0  0  0  0  0  0
   -4.9119   18.1486  -35.1080 H   0  0  0  0  0  0  0  0  0  0  0  0
   -3.2713   22.5178  -31.9617 H   0  0  0  0  0  0  0  0  0  0  0  0
   -3.3740   23.4416  -29.0203 H   0  0  0  0  0  0  0  0  0  0  0  0
   -1.9991   23.5485  -30.1844 H   0  0  0  0  0  0  0  0  0  0  0  0
   -2.2241   23.8784  -26.6839 H   0  0  0  0  0  0  0  0  0  0  0  0
   -0.6470   25.8668  -25.7450 H   0  0  0  0  0  0  0  0  0  0  0  0
   -0.0902   27.4446  -27.8316 H   0  0  0  0  0  0  0  0  0  0  0  0
   -7.8581   23.6340  -30.2055 H   0  0  0  0  0  0  0  0  0  0  0  0
   -7.8371   24.6351  -31.6968 H   0  0  0  0  0  0  0  0  0  0  0  0
   -8.6648   23.0408  -31.6968 H   0  0  0  0  0  0  0  0  0  0  0  0
   -8.1162   20.5133  -31.8383 H   0  0  0  0  0  0  0  0  0  0  0  0
   -8.2870   21.5011  -33.3288 H   0  0  0  0  0  0  0  0  0  0  0  0
   -7.2265   20.0513  -33.3288 H   0  0  0  0  0  0  0  0  0  0  0  0
  1  2  1  0
  2  3  1  0
  3  4  1  0
  4  5  1  0
  4  6  1  0
  6  7  2  0
  6  8  1  0
  8  9  2  0
  9 10  1  0
 10 11  1  0
 11 12  2  0
 11 13  1  0
 13 14  1  0
 14 15  1  0
 15 16  2  0
 16 17  1  0
 17 18  2  0
 18 19  1  0
 10 20  2  0
 20 21  1  0
 20 22  1  0
 22 23  1  0
 22  8  1  0
 19 15  1  0
  1 24  1  0
  1 25  1  0
  1 26  1  0
  2 27  1  0
  2 28  1  0
  3 29  1  0
  3 30  1  0
  5 31  1  0
  5 32  1  0
  5 33  1  0
  9 34  1  0
 14 35  1  0
 14 36  1  0
 16 37  1  0
 17 38  1  0
 18 39  1  0
 21 40  1  0
 21 41  1  0
 21 42  1  0
 23 43  1  0
 23 44  1  0
 23 45  1  0
M  CHG  1  13  -1
M  END
>  <UniqueID>  (27) 
27

>  <SMILES>  (27) 
CCCN(C)C(=O)c1cc(C(=O)[N-]Cc2ccco2)c(C)n1C

>  <Energy>  (27) 
97.23108952959682

>  <Genealogy>  (27) 
CCCN(C)C(=O)c1cc(C(=O)[N-]Cc2ccco2)c(C)n1C (protonated)
CCCN(C)C(=O)c1cc(C(=O)[N-]Cc2ccco2)c(C)n1C (3D coordinates assigned)
CCCN(C)C(=O)c1cc(C(=O)[N-]Cc2ccco2)c(C)n1C (optimized conformer: 97.23108952959682 kcal/mol)

>  <smiles>  (27) 
CCCN(C)C(=O)c1cc(C(=O)NCc2ccco2)c(C)n1C

>  <score_type>  (27) 
oracle

>  <origin>  (27) 
adg

>  <m_score__min__energy>  (27) 
-9.7200000000000006

>  <m_primary>  (27) 
energy

$$$$
27:0
     RDKit          3D

 41 42  0  0  0  0  0  0  0  0999 V2000
   -6.6580   25.0170  -29.7100 C   0  0  0  0  0  0  0  0  0  0  0  0
   -5.3570   25.3090  -30.4630 C   0  0  0  0  0  0  0  0  0  0  0  0
   -4.9880   24.2330  -31.3950 N   0  0  0  0  0  0  0  0  0  0  0  0
   -4.5420   23.0190  -30.6960 C   0  0  0  0  0  0  0  0  0  0  0  0
   -3.2230   22.5150  -31.2900 C   0  0  0  0  0  0  0  0  0  0  0  0
   -3.4560   21.5010  -32.4260 C   0  0  0  0  0  0  0  0  0  0  0  0
   -4.6670   21.8100  -33.2070 N   0  0  0  0  0  0  0  0  0  0  0  0
   -5.6940   20.8070  -33.0240 C   0  0  0  0  0  0  0  0  0  0  0  0
   -5.4320   19.4670  -33.3610 C   0  0  0  0  0  0  0  0  0  0  0  0
   -6.4210   18.4760  -33.2130 C   0  0  0  0  0  0  0  0  0  0  0  0
   -6.1920   17.1310  -33.5440 O   0  0  0  0  0  0  0  0  0  0  0  0
   -4.9830   16.6350  -34.1080 C   0  0  0  0  0  0  0  0  0  0  0  0
   -7.6800   18.8300  -32.7210 C   0  0  0  0  0  0  0  0  0  0  0  0
   -7.9630   20.1580  -32.3800 C   0  0  0  0  0  0  0  0  0  0  0  0
   -9.2240   20.5240  -31.8890 C   0  0  0  0  0  0  0  0  0  0  0  0
   -9.4820   21.8540  -31.5570 C   0  0  0  0  0  0  0  0  0  0  0  0
   -8.4770   22.8090  -31.7180 C   0  0  0  0  0  0  0  0  0  0  0  0
   -7.2580   22.4430  -32.1960 N   0  0  0  0  0  0  0  0  0  0  0  0
   -6.9700   21.1530  -32.5300 C   0  0  0  0  0  0  0  0  0  0  0  0
   -6.4719   25.0588  -28.6267 H   0  0  0  0  0  0  0  0  0  0  0  0
   -7.4150   25.7676  -29.9812 H   0  0  0  0  0  0  0  0  0  0  0  0
   -7.0216   24.0149  -29.9812 H   0  0  0  0  0  0  0  0  0  0  0  0
   -5.4819   26.2413  -31.0333 H   0  0  0  0  0  0  0  0  0  0  0  0
   -4.5528   25.3935  -29.7173 H   0  0  0  0  0  0  0  0  0  0  0  0
   -5.8120   23.9980  -31.9980 H   0  0  0  0  0  0  0  0  0  0  0  0
   -4.3955   23.2476  -29.6300 H   0  0  0  0  0  0  0  0  0  0  0  0
   -5.3077   22.2380  -30.8133 H   0  0  0  0  0  0  0  0  0  0  0  0
   -2.6614   23.3728  -31.6884 H   0  0  0  0  0  0  0  0  0  0  0  0
   -2.6601   22.0095  -30.4914 H   0  0  0  0  0  0  0  0  0  0  0  0
   -2.5863   21.5171  -33.0993 H   0  0  0  0  0  0  0  0  0  0  0  0
   -3.5911   20.5087  -31.9710 H   0  0  0  0  0  0  0  0  0  0  0  0
   -4.4110   21.8600  -34.2210 H   0  0  0  0  0  0  0  0  0  0  0  0
   -5.0250   22.7580  -32.9450 H   0  0  0  0  0  0  0  0  0  0  0  0
   -4.4397   19.1891  -33.7459 H   0  0  0  0  0  0  0  0  0  0  0  0
   -4.2913   16.3512  -33.3011 H   0  0  0  0  0  0  0  0  0  0  0  0
   -5.2025   15.7543  -34.7294 H   0  0  0  0  0  0  0  0  0  0  0  0
   -4.5207   17.4161  -34.7294 H   0  0  0  0  0  0  0  0  0  0  0  0
   -8.4552   18.0589  -32.6006 H   0  0  0  0  0  0  0  0  0  0  0  0
  -10.0090   19.7634  -31.7657 H   0  0  0  0  0  0  0  0  0  0  0  0
  -10.4695   22.1478  -31.1715 H   0  0  0  0  0  0  0  0  0  0  0  0
   -8.6716   23.8599  -31.4576 H   0  0  0  0  0  0  0  0  0  0  0  0
  1  2  1  0
  2  3  1  0
  3  4  1  0
  4  5  1  0
  5  6  1  0
  6  7  1  0
  7  8  1  0
  8  9  2  0
  9 10  1  0
 10 11  1  0
 11 12  1  0
 10 13  2  0
 13 14  1  0
 14 15  2  0
 15 16  1  0
 16 17  2  0
 17 18  1  0
 18 19  2  0
 19  8  1  0
 19 14  1  0
  1 20  1  0
  1 21  1  0
  1 22  1  0
  2 23  1  0
  2 24  1  0
  3 25  1  0
  4 26  1  0
  4 27  1  0
  5 28  1  0
  5 29  1  0
  6 30  1  0
  6 31  1  0
  7 32  1  0
  7 33  1  0
  9 34  1  0
 12 35  1  0
 12 36  1  0
 12 37  1  0
 13 38  1  0
 15 39  1  0
 16 40  1  0
 17 41  1  0
M  CHG  1   7   1
M  END
>  <UniqueID>  (28) 
28

>  <SMILES>  (28) 
CCNCCC[NH2+]c1cc(OC)cc2cccnc12

>  <Energy>  (28) 
39.46440312266703

>  <Genealogy>  (28) 
CCNCCC[NH2+]c1cc(OC)cc2cccnc12 (protonated)
CCNCCC[NH2+]c1cc(OC)cc2cccnc12 (3D coordinates assigned)
CCNCCC[NH2+]c1cc(OC)cc2cccnc12 (optimized conformer: 39.46440312266703 kcal/mol)

>  <smiles>  (28) 
CCNCCCNc1cc(OC)cc2cccnc12

>  <score_type>  (28) 
oracle

>  <origin>  (28) 
adg

>  <m_score__min__energy>  (28) 
-7.3200000000000003

>  <m_primary>  (28) 
energy

$$$$
28:0
     RDKit          3D

 51 54  0  0  0  0  0  0  0  0999 V2000
   -0.1040   19.6290  -27.8480 C   0  0  0  0  0  0  0  0  0  0  0  0
    0.3090   21.0820  -27.6570 C   0  0  0  0  0  0  0  0  0  0  0  0
   -0.8730   21.9970  -27.8250 C   0  0  0  0  0  0  0  0  0  0  0  0
   -1.2620   22.8550  -26.7610 C   0  0  0  0  0  0  0  0  0  0  0  0
   -2.3340   23.7530  -26.9140 C   0  0  0  0  0  0  0  0  0  0  0  0
   -2.9950   23.7680  -28.1410 C   0  0  0  0  0  0  0  0  0  0  0  0
   -4.0150   24.5130  -28.4880 O   0  0  0  0  0  0  0  0  0  0  0  0
   -4.3280   24.2150  -29.7330 C   0  0  0  0  0  0  0  0  0  0  0  0
   -5.4380   24.8480  -30.4700 C   0  0  0  0  0  0  0  0  0  0  0  0
   -5.3530   26.0780  -30.7430 O   0  0  0  0  0  0  0  0  0  0  0  0
   -6.6540   24.1230  -30.7920 N   0  0  0  0  0  0  0  0  0  0  0  0
   -6.7730   22.9330  -29.9060 C   0  0  0  0  0  0  0  0  0  0  0  0
   -7.6300   21.8260  -30.5300 C   0  0  0  0  0  0  0  0  0  0  0  0
   -7.0270   21.4080  -31.7990 N   0  0  0  0  0  0  0  0  0  0  0  0
   -7.1190   20.0350  -32.2420 C   0  0  0  0  0  0  0  0  0  0  0  0
   -6.3000   19.5610  -33.2830 C   0  0  0  0  0  0  0  0  0  0  0  0
   -6.3620   18.2220  -33.6830 C   0  0  0  0  0  0  0  0  0  0  0  0
   -7.2450   17.3450  -33.0510 C   0  0  0  0  0  0  0  0  0  0  0  0
   -8.0790   17.8080  -32.0270 C   0  0  0  0  0  0  0  0  0  0  0  0
   -8.0180   19.1400  -31.6180 C   0  0  0  0  0  0  0  0  0  0  0  0
   -6.3100   22.4030  -32.6080 C   0  0  0  0  0  0  0  0  0  0  0  0
   -6.7770   23.8230  -32.2460 C   0  0  0  0  0  0  0  0  0  0  0  0
   -3.4750   23.2260  -30.2170 C   0  0  0  0  0  0  0  0  0  0  0  0
   -3.5070   22.5540  -31.5470 C   0  0  0  0  0  0  0  0  0  0  0  0
   -2.6210   22.9510  -29.1710 C   0  0  0  0  0  0  0  0  0  0  0  0
   -1.5600   22.0520  -29.0550 C   0  0  0  0  0  0  0  0  0  0  0  0
   -0.2390   19.1540  -26.8651 H   0  0  0  0  0  0  0  0  0  0  0  0
   -1.0496   19.5872  -28.4084 H   0  0  0  0  0  0  0  0  0  0  0  0
    0.6783   19.0961  -28.4084 H   0  0  0  0  0  0  0  0  0  0  0  0
    0.7237   21.2097  -26.6462 H   0  0  0  0  0  0  0  0  0  0  0  0
    1.0646   21.3375  -28.4145 H   0  0  0  0  0  0  0  0  0  0  0  0
   -0.7180   22.8165  -25.8057 H   0  0  0  0  0  0  0  0  0  0  0  0
   -2.6398   24.4198  -26.0943 H   0  0  0  0  0  0  0  0  0  0  0  0
   -7.4550   24.7590  -30.5570 H   0  0  0  0  0  0  0  0  0  0  0  0
   -5.7663   22.5342  -29.7124 H   0  0  0  0  0  0  0  0  0  0  0  0
   -7.2639   23.2542  -28.9755 H   0  0  0  0  0  0  0  0  0  0  0  0
   -7.6777   20.9670  -29.8446 H   0  0  0  0  0  0  0  0  0  0  0  0
   -8.6474   22.2033  -30.7105 H   0  0  0  0  0  0  0  0  0  0  0  0
   -5.6051   20.2491  -33.7866 H   0  0  0  0  0  0  0  0  0  0  0  0
   -5.7149   17.8602  -34.4956 H   0  0  0  0  0  0  0  0  0  0  0  0
   -7.2854   16.2895  -33.3579 H   0  0  0  0  0  0  0  0  0  0  0  0
   -8.7858   17.1183  -31.5425 H   0  0  0  0  0  0  0  0  0  0  0  0
   -8.6713   19.4952  -30.8075 H   0  0  0  0  0  0  0  0  0  0  0  0
   -5.2303   22.3163  -32.4164 H   0  0  0  0  0  0  0  0  0  0  0  0
   -6.5204   22.2177  -33.6717 H   0  0  0  0  0  0  0  0  0  0  0  0
   -6.1662   24.5464  -32.8061 H   0  0  0  0  0  0  0  0  0  0  0  0
   -7.8428   23.8958  -32.5081 H   0  0  0  0  0  0  0  0  0  0  0  0
   -3.5589   21.4643  -31.4061 H   0  0  0  0  0  0  0  0  0  0  0  0
   -4.3900   22.8936  -32.1083 H   0  0  0  0  0  0  0  0  0  0  0  0
   -2.5957   22.8082  -32.1083 H   0  0  0  0  0  0  0  0  0  0  0  0
   -1.2688   21.4065  -29.8968 H   0  0  0  0  0  0  0  0  0  0  0  0
  1  2  1  0
  2  3  1  0
  3  4  2  0
  4  5  1  0
  5  6  2  0
  6  7  1  0
  7  8  1  0
  8  9  1  0
  9 10  2  0
  9 11  1  0
 11 12  1  0
 12 13  1  0
 13 14  1  0
 14 15  1  0
 15 16  2  0
 16 17  1  0
 17 18  2  0
 18 19  1  0
 19 20  2  0
 14 21  1  0
 21 22  1  0
  8 23  2  0
 23 24  1  0
 23 25  1  0
 25 26  2  0
 26  3  1  0
 25  6  1  0
 22 11  1  0
 20 15  1  0
  1 27  1  0
  1 28  1  0
  1 29  1  0
  2 30  1  0
  2 31  1  0
  4 32  1  0
  5 33  1  0
 11 34  1  0
 12 35  1  0
 12 36  1  0
 13 37  1  0
 13 38  1  0
 16 39  1  0
 17 40  1  0
 18 41  1  0
 19 42  1  0
 20 43  1  0
 21 44  1  0
 21 45  1  0
 22 46  1  0
 22 47  1  0
 24 48  1  0
 24 49  1  0
 24 50  1  0
 26 51  1  0
M  CHG  1  11   1
M  END
>  <UniqueID>  (29) 
29

>  <SMILES>  (29) 
CCc1ccc2oc(C(=O)[NH+]3CCN(c4ccccc4)CC3)c(C)c2c1

>  <Energy>  (29) 
102.79390428684628

>  <Genealogy>  (29) 
CCc1ccc2oc(C(=O)[NH+]3CCN(c4ccccc4)CC3)c(C)c2c1 (protonated)
CCc1ccc2oc(C(=O)[NH+]3CCN(c4ccccc4)CC3)c(C)c2c1 (3D coordinates assigned)
CCc1ccc2oc(C(=O)[NH+]3CCN(c4ccccc4)CC3)c(C)c2c1 (nonaromatic ring conformer: 102.79390428684628 kcal/mol)

>  <smiles>  (29) 
CCc1ccc2oc(C(=O)N3CCN(c4ccccc4)CC3)c(C)c2c1

>  <score_type>  (29) 
oracle

>  <origin>  (29) 
adg

>  <m_score__min__energy>  (29) 
-8.3100000000000005

>  <m_primary>  (29) 
energy

$$$$
29:0
     RDKit          3D

 39 41  0  0  0  0  0  0  0  0999 V2000
   -8.4520   21.3020  -31.9850 C   0  0  0  0  0  0  0  0  0  0  0  0
   -7.1860   21.7410  -31.3120 C   0  0  0  0  0  0  0  0  0  0  0  0
   -7.2160   22.7520  -30.3400 C   0  0  0  0  0  0  0  0  0  0  0  0
   -6.0320   23.1880  -29.7390 C   0  0  0  0  0  0  0  0  0  0  0  0
   -4.7990   22.6240  -30.1070 C   0  0  0  0  0  0  0  0  0  0  0  0
   -3.5790   23.0780  -29.4960 N   0  0  0  0  0  0  0  0  0  0  0  0
   -2.9900   24.2770  -29.6720 C   0  0  0  0  0  0  0  0  0  0  0  0
   -3.4970   25.2990  -30.4660 O   0  0  0  0  0  0  0  0  0  0  0  0
   -1.8260   24.3340  -28.9460 C   0  0  0  0  0  0  0  0  0  0  0  0
   -1.6770   23.1590  -28.2930 N   0  0  0  0  0  0  0  0  0  0  0  0
   -0.5150   22.7370  -27.4860 C   0  0  0  0  0  0  0  0  0  0  0  0
   -0.9510   22.0900  -26.1390 C   0  0  0  0  0  0  0  0  0  0  0  0
   -0.2780   22.7270  -24.9160 C   0  0  0  0  0  0  0  0  0  0  0  0
   -0.4520   24.2500  -24.9260 C   0  0  0  0  0  0  0  0  0  0  0  0
    0.0280   24.9120  -26.2360 C   0  0  0  0  0  0  0  0  0  0  0  0
    0.4730   23.9100  -27.3140 C   0  0  0  0  0  0  0  0  0  0  0  0
   -2.7500   22.4090  -28.6580 C   0  0  0  0  0  0  0  0  0  0  0  0
   -2.9480   20.8270  -28.2490 S   0  0  0  0  0  0  0  0  0  0  0  0
   -4.7690   21.6310  -31.0980 C   0  0  0  0  0  0  0  0  0  0  0  0
   -5.9540   21.1940  -31.6980 C   0  0  0  0  0  0  0  0  0  0  0  0
   -9.2014   21.0422  -31.2228 H   0  0  0  0  0  0  0  0  0  0  0  0
   -8.8359   22.1195  -32.6130 H   0  0  0  0  0  0  0  0  0  0  0  0
   -8.2474   20.4223  -32.6130 H   0  0  0  0  0  0  0  0  0  0  0  0
   -8.1760   23.2037  -30.0495 H   0  0  0  0  0  0  0  0  0  0  0  0
   -6.0657   23.9772  -28.9735 H   0  0  0  0  0  0  0  0  0  0  0  0
   -1.1340   25.1880  -28.9029 H   0  0  0  0  0  0  0  0  0  0  0  0
    0.0221   21.9441  -28.0271 H   0  0  0  0  0  0  0  0  0  0  0  0
   -2.0406   22.1997  -26.0351 H   0  0  0  0  0  0  0  0  0  0  0  0
   -0.6427   21.0345  -26.1687 H   0  0  0  0  0  0  0  0  0  0  0  0
   -0.7328   22.3187  -24.0014 H   0  0  0  0  0  0  0  0  0  0  0  0
    0.7971   22.4963  -24.9470 H   0  0  0  0  0  0  0  0  0  0  0  0
   -1.5189   24.4802  -24.7892 H   0  0  0  0  0  0  0  0  0  0  0  0
    0.1674   24.6536  -24.1115 H   0  0  0  0  0  0  0  0  0  0  0  0
   -0.7980   25.5140  -26.6426 H   0  0  0  0  0  0  0  0  0  0  0  0
    0.9089   25.5200  -25.9823 H   0  0  0  0  0  0  0  0  0  0  0  0
    0.5582   24.4411  -28.2735 H   0  0  0  0  0  0  0  0  0  0  0  0
    1.4366   23.4866  -26.9944 H   0  0  0  0  0  0  0  0  0  0  0  0
   -3.8074   21.1937  -31.4047 H   0  0  0  0  0  0  0  0  0  0  0  0
   -5.9195   20.4175  -32.4764 H   0  0  0  0  0  0  0  0  0  0  0  0
  1  2  1  0
  2  3  2  0
  3  4  1  0
  4  5  2  0
  5  6  1  0
  6  7  1  0
  7  8  1  0
  7  9  2  0
  9 10  1  0
 10 11  1  0
 11 12  1  0
 12 13  1  0
 13 14  1  0
 14 15  1  0
 15 16  1  0
 10 17  1  0
 17 18  2  0
  5 19  1  0
 19 20  2  0
 20  2  1  0
 17  6  1  0
 16 11  1  0
  1 21  1  0
  1 22  1  0
  1 23  1  0
  3 24  1  0
  4 25  1  0
  9 26  1  0
 11 27  1  0
 12 28  1  0
 12 29  1  0
 13 30  1  0
 13 31  1  0
 14 32  1  0
 14 33  1  0
 15 34  1  0
 15 35  1  0
 16 36  1  0
 16 37  1  0
 19 38  1  0
 20 39  1  0
M  CHG  1   8  -1
M  END
>  <UniqueID>  (30) 
30

>  <SMILES>  (30) 
Cc1ccc(-n2c([O-])cn(C3CCCCC3)c2=S)cc1

>  <Energy>  (30) 
84.11382435414748

>  <Genealogy>  (30) 
Cc1ccc(-n2c([O-])cn(C3CCCCC3)c2=S)cc1 (protonated)
Cc1ccc(-n2c([O-])cn(C3CCCCC3)c2=S)cc1 (3D coordinates assigned)
Cc1ccc(-n2c([O-])cn(C3CCCCC3)c2=S)cc1 (nonaromatic ring conformer: 84.11382435414748 kcal/mol)

>  <smiles>  (30) 
Cc1ccc(-n2c(O)cn(C3CCCCC3)c2=S)cc1

>  <score_type>  (30) 
oracle

>  <origin>  (30) 
adg

>  <m_score__min__energy>  (30) 
-9.8100000000000005

>  <m_primary>  (30) 
energy

$$$$
30:0
     RDKit          3D

 53 56  0  0  0  0  0  0  0  0999 V2000
   -6.9140   17.1180  -32.7510 C   0  0  0  0  0  0  0  0  0  0  0  0
   -7.2170   18.5840  -32.6370 C   0  0  0  0  0  0  0  0  0  0  0  0
   -8.3480   19.0200  -31.9260 C   0  0  0  0  0  0  0  0  0  0  0  0
   -8.6130   20.3880  -31.7900 C   0  0  0  0  0  0  0  0  0  0  0  0
   -7.7520   21.3410  -32.3490 C   0  0  0  0  0  0  0  0  0  0  0  0
   -8.0690   22.7010  -32.1780 O   0  0  0  0  0  0  0  0  0  0  0  0
   -7.6110   23.5340  -31.1110 C   0  0  0  0  0  0  0  0  0  0  0  0
   -6.1190   23.4800  -31.0150 C   0  0  0  0  0  0  0  0  0  0  0  0
   -5.3730   22.4610  -30.4640 C   0  0  0  0  0  0  0  0  0  0  0  0
   -4.0920   22.8630  -30.5250 N   0  0  0  0  0  0  0  0  0  0  0  0
   -2.9400   22.1020  -30.0200 C   0  0  1  0  0  0  0  0  0  0  0  0
   -1.5760   22.7180  -30.3280 C   0  0  0  0  0  0  0  0  0  0  0  0
   -1.1850   22.6160  -28.8390 C   0  0  1  0  0  0  0  0  0  0  0  0
   -0.6390   23.8430  -28.1980 N   0  0  0  0  0  0  0  0  0  0  0  0
    0.5190   23.7260  -27.4750 C   0  0  0  0  0  0  0  0  0  0  0  0
    1.1060   24.8340  -26.8540 C   0  0  0  0  0  0  0  0  0  0  0  0
    2.3550   24.6760  -26.0320 C   0  0  0  0  0  0  0  0  0  0  0  0
    0.5460   26.0920  -27.0970 C   0  0  0  0  0  0  0  0  0  0  0  0
    1.0350   27.1290  -26.5760 O   0  0  0  0  0  0  0  0  0  0  0  0
   -0.5170   26.1990  -27.9260 N   0  0  0  0  0  0  0  0  0  0  0  0
   -1.0900   25.1100  -28.5030 C   0  0  0  0  0  0  0  0  0  0  0  0
   -2.0030   25.2950  -29.3490 O   0  0  0  0  0  0  0  0  0  0  0  0
   -2.6630   22.2340  -28.5030 C   0  0  0  0  0  0  0  0  0  0  0  0
   -3.5240   23.3300  -27.8210 C   0  0  0  0  0  0  0  0  0  0  0  0
   -2.7810   20.8890  -27.7660 C   0  0  0  0  0  0  0  0  0  0  0  0
   -4.0600   24.0760  -31.0620 N   0  0  0  0  0  0  0  0  0  0  0  0
   -5.2860   24.4800  -31.3700 N   0  0  0  0  0  0  0  0  0  0  0  0
   -6.6050   20.9030  -33.0470 C   0  0  0  0  0  0  0  0  0  0  0  0
   -6.3390   19.5350  -33.1820 C   0  0  0  0  0  0  0  0  0  0  0  0
   -6.8241   16.6828  -31.7447 H   0  0  0  0  0  0  0  0  0  0  0  0
   -7.7275   16.6167  -33.2959 H   0  0  0  0  0  0  0  0  0  0  0  0
   -5.9684   16.9803  -33.2959 H   0  0  0  0  0  0  0  0  0  0  0  0
   -9.0283   18.2830  -31.4742 H   0  0  0  0  0  0  0  0  0  0  0  0
   -9.5060   20.7176  -31.2388 H   0  0  0  0  0  0  0  0  0  0  0  0
   -7.9253   24.5711  -31.2995 H   0  0  0  0  0  0  0  0  0  0  0  0
   -8.0440   23.1754  -30.1655 H   0  0  0  0  0  0  0  0  0  0  0  0
   -5.7495   21.5111  -30.0568 H   0  0  0  0  0  0  0  0  0  0  0  0
   -3.2196   21.1255  -30.4423 H   0  0  0  0  0  0  0  0  0  0  0  0
   -0.9507   22.1096  -30.9980 H   0  0  0  0  0  0  0  0  0  0  0  0
   -1.5092   23.6819  -30.8537 H   0  0  0  0  0  0  0  0  0  0  0  0
   -0.3536   21.9703  -28.5199 H   0  0  0  0  0  0  0  0  0  0  0  0
    0.9974   22.7400  -27.3807 H   0  0  0  0  0  0  0  0  0  0  0  0
    2.0971   24.7086  -24.9632 H   0  0  0  0  0  0  0  0  0  0  0  0
    2.8281   23.7108  -26.2657 H   0  0  0  0  0  0  0  0  0  0  0  0
    3.0536   25.4929  -26.2657 H   0  0  0  0  0  0  0  0  0  0  0  0
   -3.4459   23.2305  -26.7283 H   0  0  0  0  0  0  0  0  0  0  0  0
   -3.1620   24.3231  -28.1256 H   0  0  0  0  0  0  0  0  0  0  0  0
   -4.5745   23.2134  -28.1256 H   0  0  0  0  0  0  0  0  0  0  0  0
   -2.7657   21.0634  -26.6800 H   0  0  0  0  0  0  0  0  0  0  0  0
   -3.7255   20.3994  -28.0455 H   0  0  0  0  0  0  0  0  0  0  0  0
   -1.9361   20.2424  -28.0455 H   0  0  0  0  0  0  0  0  0  0  0  0
   -5.9172   21.6403  -33.4868 H   0  0  0  0  0  0  0  0  0  0  0  0
   -5.4374   19.2033  -33.7178 H   0  0  0  0  0  0  0  0  0  0  0  0
  1  2  1  0
  2  3  2  0
  3  4  1  0
  4  5  2  0
  5  6  1  0
  6  7  1  0
  7  8  1  0
  8  9  2  0
  9 10  1  0
 10 11  1  0
 11 12  1  0
 12 13  1  0
 13 14  1  0
 14 15  1  0
 15 16  2  0
 16 17  1  0
 16 18  1  0
 18 19  2  0
 18 20  1  0
 20 21  1  0
 21 22  2  0
 13 23  1  0
 23 24  1  0
 23 25  1  0
 10 26  1  0
 26 27  2  0
  5 28  1  0
 28 29  2  0
 29  2  1  0
 27  8  1  0
 23 11  1  0
 21 14  1  0
  1 30  1  0
  1 31  1  0
  1 32  1  0
  3 33  1  0
  4 34  1  0
  7 35  1  0
  7 36  1  0
  9 37  1  0
 11 38  1  1
 12 39  1  0
 12 40  1  0
 13 41  1  6
 15 42  1  0
 17 43  1  0
 17 44  1  0
 17 45  1  0
 24 46  1  0
 24 47  1  0
 24 48  1  0
 25 49  1  0
 25 50  1  0
 25 51  1  0
 28 52  1  0
 29 53  1  0
M  CHG  1  20  -1
M  END
>  <UniqueID>  (31) 
31

>  <SMILES>  (31) 
Cc1ccc(OCc2cn([C@H]3C[C@@H](n4cc(C)c(=O)[n-]c4=O)C3(C)C)nn2)cc1

>  <Energy>  (31) 
167.5513317932885

>  <Genealogy>  (31) 
Cc1ccc(OCc2cn(C3CC(n4cc(C)c(=O)[n-]c4=O)C3(C)C)nn2)cc1 (protonated)
Cc1ccc(OCc2cn([C@H]3C[C@@H](n4cc(C)c(=O)[n-]c4=O)C3(C)C)nn2)cc1 (chirality)
Cc1ccc(OCc2cn([C@H]3C[C@@H](n4cc(C)c(=O)[n-]c4=O)C3(C)C)nn2)cc1 (3D coordinates assigned)
Cc1ccc(OCc2cn([C@H]3C[C@@H](n4cc(C)c(=O)[n-]c4=O)C3(C)C)nn2)cc1 (nonaromatic ring conformer: 167.5513317932885 kcal/mol)

>  <smiles>  (31) 
Cc1ccc(OCc2cn(C3CC(n4cc(C)c(=O)[nH]c4=O)C3(C)C)nn2)cc1

>  <score_type>  (31) 
oracle

>  <origin>  (31) 
adg

>  <m_score__min__energy>  (31) 
-11.08

>  <m_primary>  (31) 
energy

$$$$
31:0
     RDKit          3D

 35 37  0  0  0  0  0  0  0  0999 V2000
   -9.2390   20.1050  -32.6740 C   0  0  0  0  0  0  0  0  0  0  0  0
   -7.9820   19.3320  -32.4380 C   0  0  0  0  0  0  0  0  0  0  0  0
   -7.9030   18.0260  -32.5570 O   0  0  0  0  0  0  0  0  0  0  0  0
   -6.6720   17.6520  -32.3010 C   0  0  0  0  0  0  0  0  0  0  0  0
   -5.8990   18.7540  -32.0010 C   0  0  0  0  0  0  0  0  0  0  0  0
   -6.7440   19.8450  -32.0820 C   0  0  0  0  0  0  0  0  0  0  0  0
   -6.3900   21.2710  -31.9070 C   0  0  0  0  0  0  0  0  0  0  0  0
   -5.3230   21.8390  -32.5100 N   0  0  0  0  0  0  0  0  0  0  0  0
   -5.2900   23.0980  -32.1070 N   0  0  0  0  0  0  0  0  0  0  0  0
   -6.3240   23.2940  -31.2730 C   0  0  0  0  0  0  0  0  0  0  0  0
   -6.6620   24.8530  -30.4520 S   0  0  0  0  0  0  0  0  0  0  0  0
   -5.4250   24.5600  -29.1480 C   0  0  0  0  0  0  0  0  0  0  0  0
   -4.0520   24.5700  -29.7470 C   0  0  0  0  0  0  0  0  0  0  0  0
   -3.8640   25.1750  -30.8370 O   0  0  0  0  0  0  0  0  0  0  0  0
   -2.9110   23.9210  -29.0750 C   0  0  0  0  0  0  0  0  0  0  0  0
   -2.9130   22.6870  -28.4310 C   0  0  0  0  0  0  0  0  0  0  0  0
   -1.6700   22.3470  -27.8810 C   0  0  0  0  0  0  0  0  0  0  0  0
   -0.6870   23.3050  -28.0870 C   0  0  0  0  0  0  0  0  0  0  0  0
   -1.3650   24.5760  -28.9530 S   0  0  0  0  0  0  0  0  0  0  0  0
   -7.0500   22.1670  -31.1340 N   0  0  0  0  0  0  0  0  0  0  0  0
   -8.2490   21.9790  -30.3190 C   0  0  0  0  0  0  0  0  0  0  0  0
   -9.6869   20.3805  -31.7078 H   0  0  0  0  0  0  0  0  0  0  0  0
   -9.0072   21.0168  -33.2439 H   0  0  0  0  0  0  0  0  0  0  0  0
   -9.9481   19.4867  -33.2439 H   0  0  0  0  0  0  0  0  0  0  0  0
   -6.3100   16.6135  -32.3224 H   0  0  0  0  0  0  0  0  0  0  0  0
   -4.8284   18.7630  -31.7487 H   0  0  0  0  0  0  0  0  0  0  0  0
   -4.5720   23.7980  -32.3930 H   0  0  0  0  0  0  0  0  0  0  0  0
   -5.4989   25.3523  -28.3885 H   0  0  0  0  0  0  0  0  0  0  0  0
   -5.6123   23.5825  -28.6796 H   0  0  0  0  0  0  0  0  0  0  0  0
   -3.8019   22.0429  -28.3608 H   0  0  0  0  0  0  0  0  0  0  0  0
   -1.4900   21.4083  -27.3366 H   0  0  0  0  0  0  0  0  0  0  0  0
    0.3559   23.2431  -27.7428 H   0  0  0  0  0  0  0  0  0  0  0  0
   -7.9785   22.0214  -29.2536 H   0  0  0  0  0  0  0  0  0  0  0  0
   -8.9744   22.7744  -30.5451 H   0  0  0  0  0  0  0  0  0  0  0  0
   -8.6962   20.9998  -30.5451 H   0  0  0  0  0  0  0  0  0  0  0  0
  1  2  1  0
  2  3  1  0
  3  4  1  0
  4  5  2  0
  5  6  1  0
  6  7  1  0
  7  8  2  0
  8  9  1  0
  9 10  2  0
 10 11  1  0
 11 12  1  0
 12 13  1  0
 13 14  2  0
 13 15  1  0
 15 16  2  0
 16 17  1  0
 17 18  2  0
 18 19  1  0
 10 20  1  0
 20 21  1  0
  6  2  2  0
 20  7  1  0
 19 15  1  0
  1 22  1  0
  1 23  1  0
  1 24  1  0
  4 25  1  0
  5 26  1  0
  9 27  1  0
 12 28  1  0
 12 29  1  0
 16 30  1  0
 17 31  1  0
 18 32  1  0
 21 33  1  0
 21 34  1  0
 21 35  1  0
M  CHG  1   9   1
M  END
>  <UniqueID>  (32) 
32

>  <SMILES>  (32) 
Cc1occc1-c1n[nH+]c(SCC(=O)c2cccs2)n1C

>  <Energy>  (32) 
119.9828789015688

>  <Genealogy>  (32) 
Cc1occc1-c1n[nH+]c(SCC(=O)c2cccs2)n1C (protonated)
Cc1occc1-c1n[nH+]c(SCC(=O)c2cccs2)n1C (3D coordinates assigned)
Cc1occc1-c1n[nH+]c(SCC(=O)c2cccs2)n1C (optimized conformer: 119.9828789015688 kcal/mol)

>  <smiles>  (32) 
Cc1occc1-c1nnc(SCC(=O)c2cccs2)n1C

>  <score_type>  (32) 
oracle

>  <origin>  (32) 
adg

>  <m_score__min__energy>  (32) 
-7.5700000000000003

>  <m_primary>  (32) 
energy

$$$$
32:0
     RDKit          3D

 43 44  0  0  0  0  0  0  0  0999 V2000
   -2.8900   21.2490  -28.9810 C   0  0  0  0  0  0  0  0  0  0  0  0
   -3.2370   21.6380  -30.3060 O   0  0  0  0  0  0  0  0  0  0  0  0
   -4.3290   22.4580  -30.6370 C   0  0  0  0  0  0  0  0  0  0  0  0
   -5.0620   23.1480  -29.6500 C   0  0  0  0  0  0  0  0  0  0  0  0
   -6.1340   23.9680  -30.0090 C   0  0  0  0  0  0  0  0  0  0  0  0
   -6.4880   24.1120  -31.3500 C   0  0  0  0  0  0  0  0  0  0  0  0
   -5.7720   23.4340  -32.3370 C   0  0  0  0  0  0  0  0  0  0  0  0
   -4.6960   22.6000  -31.9940 C   0  0  0  0  0  0  0  0  0  0  0  0
   -3.9160   21.9100  -33.0950 C   0  0  0  0  0  0  0  0  0  0  0  0
   -3.0330   20.8590  -32.5620 N   0  0  0  0  0  0  0  0  0  0  0  0
   -2.4070   20.0690  -33.6370 C   0  0  0  0  0  0  0  0  0  0  0  0
   -3.2050   18.7900  -33.9420 C   0  0  0  0  0  0  0  0  0  0  0  0
   -4.4110   18.6580  -33.1050 N   0  0  0  0  0  0  0  0  0  0  0  0
   -5.6670   18.5640  -33.8700 C   0  0  0  0  0  0  0  0  0  0  0  0
   -6.8640   19.0440  -33.0840 C   0  0  0  0  0  0  0  0  0  0  0  0
   -7.6440   18.1350  -32.3510 C   0  0  0  0  0  0  0  0  0  0  0  0
   -8.7410   18.5860  -31.6100 C   0  0  0  0  0  0  0  0  0  0  0  0
   -9.0650   19.9450  -31.5950 C   0  0  0  0  0  0  0  0  0  0  0  0
   -8.2930   20.8560  -32.3220 C   0  0  0  0  0  0  0  0  0  0  0  0
   -8.6080   22.1760  -32.3060 F   0  0  0  0  0  0  0  0  0  0  0  0
   -7.1950   20.4090  -33.0640 C   0  0  0  0  0  0  0  0  0  0  0  0
   -3.4431   21.8690  -28.2601 H   0  0  0  0  0  0  0  0  0  0  0  0
   -3.1497   20.1909  -28.8296 H   0  0  0  0  0  0  0  0  0  0  0  0
   -1.8092   21.3866  -28.8296 H   0  0  0  0  0  0  0  0  0  0  0  0
   -4.7878   23.0398  -28.5902 H   0  0  0  0  0  0  0  0  0  0  0  0
   -6.7006   24.5017  -29.2318 H   0  0  0  0  0  0  0  0  0  0  0  0
   -7.3317   24.7601  -31.6297 H   0  0  0  0  0  0  0  0  0  0  0  0
   -6.0531   23.5540  -33.3937 H   0  0  0  0  0  0  0  0  0  0  0  0
   -4.6249   21.4549  -33.8024 H   0  0  0  0  0  0  0  0  0  0  0  0
   -3.2889   22.6634  -33.5942 H   0  0  0  0  0  0  0  0  0  0  0  0
   -3.5800   20.2350  -31.9230 H   0  0  0  0  0  0  0  0  0  0  0  0
   -2.2770   21.3210  -32.0010 H   0  0  0  0  0  0  0  0  0  0  0  0
   -2.3568   20.6835  -34.5480 H   0  0  0  0  0  0  0  0  0  0  0  0
   -1.4009   19.7741  -33.3043 H   0  0  0  0  0  0  0  0  0  0  0  0
   -3.5105   18.8095  -34.9985 H   0  0  0  0  0  0  0  0  0  0  0  0
   -2.5530   17.9317  -33.7225 H   0  0  0  0  0  0  0  0  0  0  0  0
   -4.3090   17.7950  -32.5210 H   0  0  0  0  0  0  0  0  0  0  0  0
   -5.5730   19.1775  -34.7781 H   0  0  0  0  0  0  0  0  0  0  0  0
   -5.8310   17.5035  -34.1116 H   0  0  0  0  0  0  0  0  0  0  0  0
   -7.3913   17.0645  -32.3597 H   0  0  0  0  0  0  0  0  0  0  0  0
   -9.3495   17.8699  -31.0383 H   0  0  0  0  0  0  0  0  0  0  0  0
   -9.9277   20.2982  -31.0110 H   0  0  0  0  0  0  0  0  0  0  0  0
   -6.5887   21.1286  -33.6337 H   0  0  0  0  0  0  0  0  0  0  0  0
  1  2  1  0
  2  3  1  0
  3  4  2  0
  4  5  1  0
  5  6  2  0
  6  7  1  0
  7  8  2  0
  8  9  1  0
  9 10  1  0
 10 11  1  0
 11 12  1  0
 12 13  1  0
 13 14  1  0
 14 15  1  0
 15 16  2  0
 16 17  1  0
 17 18  2  0
 18 19  1  0
 19 20  1  0
 19 21  2  0
  8  3  1  0
 21 15  1  0
  1 22  1  0
  1 23  1  0
  1 24  1  0
  4 25  1  0
  5 26  1  0
  6 27  1  0
  7 28  1  0
  9 29  1  0
  9 30  1  0
 10 31  1  0
 10 32  1  0
 11 33  1  0
 11 34  1  0
 12 35  1  0
 12 36  1  0
 13 37  1  0
 14 38  1  0
 14 39  1  0
 16 40  1  0
 17 41  1  0
 18 42  1  0
 21 43  1  0
M  CHG  1  10   1
M  END
>  <UniqueID>  (33) 
33

>  <SMILES>  (33) 
COc1ccccc1C[NH2+]CCNCc1cccc(F)c1

>  <Energy>  (33) 
41.19313966858137

>  <Genealogy>  (33) 
COc1ccccc1C[NH2+]CCNCc1cccc(F)c1 (protonated)
COc1ccccc1C[NH2+]CCNCc1cccc(F)c1 (3D coordinates assigned)
COc1ccccc1C[NH2+]CCNCc1cccc(F)c1 (optimized conformer: 41.19313966858137 kcal/mol)

>  <smiles>  (33) 
COc1ccccc1CNCCNCc1cccc(F)c1

>  <score_type>  (33) 
oracle

>  <origin>  (33) 
adg

>  <m_score__min__energy>  (33) 
-6.1100000000000003

>  <m_primary>  (33) 
energy

$$$$
33:0
     RDKit          3D

 50 52  0  0  0  0  0  0  0  0999 V2000
   -3.3320   21.2030  -33.3860 C   0  0  0  0  0  0  0  0  0  0  0  0
   -2.6680   20.3650  -32.2990 C   0  0  0  0  0  0  0  0  0  0  0  0
   -3.0060   20.8550  -31.0020 O   0  0  0  0  0  0  0  0  0  0  0  0
   -2.2830   21.8110  -30.2640 C   0  0  0  0  0  0  0  0  0  0  0  0
   -1.0160   21.5220  -29.7170 C   0  0  0  0  0  0  0  0  0  0  0  0
   -0.3120   22.4940  -29.0040 C   0  0  0  0  0  0  0  0  0  0  0  0
   -0.8610   23.7600  -28.8190 C   0  0  0  0  0  0  0  0  0  0  0  0
   -2.1170   24.0620  -29.3480 C   0  0  0  0  0  0  0  0  0  0  0  0
   -2.8410   23.0960  -30.0720 C   0  0  0  0  0  0  0  0  0  0  0  0
   -4.1670   23.4400  -30.6410 C   0  0  0  0  0  0  0  0  0  0  0  0
   -5.1070   22.5360  -30.9900 N   0  0  0  0  0  0  0  0  0  0  0  0
   -6.1560   23.2770  -31.3850 C   0  0  0  0  0  0  0  0  0  0  0  0
   -7.5140   22.7290  -31.7000 C   0  0  0  0  0  0  0  0  0  0  0  0
   -7.4580   21.2540  -31.8150 N   0  0  0  0  0  0  0  0  0  0  0  0
   -8.7570   20.6180  -31.4960 C   0  0  0  0  0  0  0  0  0  0  0  0
   -9.4830   20.0470  -32.7220 C   0  0  0  0  0  0  0  0  0  0  0  0
   -6.9140   20.7900  -33.1160 C   0  0  0  0  0  0  0  0  0  0  0  0
   -6.4580   19.3560  -33.0320 C   0  0  0  0  0  0  0  0  0  0  0  0
   -6.4250   18.6960  -31.7920 C   0  0  0  0  0  0  0  0  0  0  0  0
   -5.9660   17.3790  -31.7060 C   0  0  0  0  0  0  0  0  0  0  0  0
   -5.5490   16.7050  -32.8570 C   0  0  0  0  0  0  0  0  0  0  0  0
   -5.6010   17.3460  -34.0980 C   0  0  0  0  0  0  0  0  0  0  0  0
   -6.0610   18.6640  -34.1890 C   0  0  0  0  0  0  0  0  0  0  0  0
   -5.8200   24.6080  -31.2830 C   0  0  0  0  0  0  0  0  0  0  0  0
   -4.5910   24.6740  -30.8260 O   0  0  0  0  0  0  0  0  0  0  0  0
   -3.9509   21.9840  -32.9202 H   0  0  0  0  0  0  0  0  0  0  0  0
   -2.5581   21.6726  -34.0110 H   0  0  0  0  0  0  0  0  0  0  0  0
   -3.9660   20.5570  -34.0110 H   0  0  0  0  0  0  0  0  0  0  0  0
   -3.0071   19.3225  -32.3900 H   0  0  0  0  0  0  0  0  0  0  0  0
   -1.5769   20.4259  -32.4249 H   0  0  0  0  0  0  0  0  0  0  0  0
   -0.5785   20.5220  -29.8533 H   0  0  0  0  0  0  0  0  0  0  0  0
    0.6786   22.2592  -28.5874 H   0  0  0  0  0  0  0  0  0  0  0  0
   -0.3044   24.5232  -28.2553 H   0  0  0  0  0  0  0  0  0  0  0  0
   -2.5449   25.0641  -29.1977 H   0  0  0  0  0  0  0  0  0  0  0  0
   -5.0750   21.4970  -30.9000 H   0  0  0  0  0  0  0  0  0  0  0  0
   -8.2120   23.0042  -30.8956 H   0  0  0  0  0  0  0  0  0  0  0  0
   -7.8571   23.1501  -32.6566 H   0  0  0  0  0  0  0  0  0  0  0  0
   -8.5767   19.7974  -30.7860 H   0  0  0  0  0  0  0  0  0  0  0  0
   -9.4040   21.4023  -31.0761 H   0  0  0  0  0  0  0  0  0  0  0  0
  -10.3075   19.3985  -32.3908 H   0  0  0  0  0  0  0  0  0  0  0  0
   -9.8861   20.8726  -33.3269 H   0  0  0  0  0  0  0  0  0  0  0  0
   -8.7756   19.4607  -33.3269 H   0  0  0  0  0  0  0  0  0  0  0  0
   -7.6975   20.8736  -33.8836 H   0  0  0  0  0  0  0  0  0  0  0  0
   -6.0490   21.4174  -33.3772 H   0  0  0  0  0  0  0  0  0  0  0  0
   -6.7621   19.2185  -30.8846 H   0  0  0  0  0  0  0  0  0  0  0  0
   -5.9328   16.8718  -30.7305 H   0  0  0  0  0  0  0  0  0  0  0  0
   -5.1802   15.6711  -32.7864 H   0  0  0  0  0  0  0  0  0  0  0  0
   -5.2796   16.8130  -35.0050 H   0  0  0  0  0  0  0  0  0  0  0  0
   -6.1121   19.1603  -35.1693 H   0  0  0  0  0  0  0  0  0  0  0  0
   -6.4647   25.4619  -31.5383 H   0  0  0  0  0  0  0  0  0  0  0  0
  1  2  1  0
  2  3  1  0
  3  4  1  0
  4  5  2  0
  5  6  1  0
  6  7  2  0
  7  8  1  0
  8  9  2  0
  9 10  1  0
 10 11  2  0
 11 12  1  0
 12 13  1  0
 13 14  1  0
 14 15  1  0
 15 16  1  0
 14 17  1  0
 17 18  1  0
 18 19  2  0
 19 20  1  0
 20 21  2  0
 21 22  1  0
 22 23  2  0
 12 24  2  0
 24 25  1  0
  9  4  1  0
 25 10  1  0
 23 18  1  0
  1 26  1  0
  1 27  1  0
  1 28  1  0
  2 29  1  0
  2 30  1  0
  5 31  1  0
  6 32  1  0
  7 33  1  0
  8 34  1  0
 11 35  1  0
 13 36  1  0
 13 37  1  0
 15 38  1  0
 15 39  1  0
 16 40  1  0
 16 41  1  0
 16 42  1  0
 17 43  1  0
 17 44  1  0
 19 45  1  0
 20 46  1  0
 21 47  1  0
 22 48  1  0
 23 49  1  0
 24 50  1  0
M  CHG  1  11   1
M  END
>  <UniqueID>  (34) 
34

>  <SMILES>  (34) 
CCOc1ccccc1-c1[nH+]c(CN(CC)Cc2ccccc2)co1

>  <Energy>  (34) 
79.72990785450845

>  <Genealogy>  (34) 
CCOc1ccccc1-c1[nH+]c(CN(CC)Cc2ccccc2)co1 (protonated)
CCOc1ccccc1-c1[nH+]c(CN(CC)Cc2ccccc2)co1 (3D coordinates assigned)
CCOc1ccccc1-c1[nH+]c(CN(CC)Cc2ccccc2)co1 (optimized conformer: 79.72990785450845 kcal/mol)

>  <smiles>  (34) 
CCOc1ccccc1-c1nc(CN(CC)Cc2ccccc2)co1

>  <score_type>  (34) 
oracle

>  <origin>  (34) 
adg

>  <m_score__min__energy>  (34) 
-7.8899999999999997

>  <m_primary>  (34) 
energy

$$$$
34:0
     RDKit          3D

 54 57  0  0  1  0  0  0  0  0999 V2000
   -7.2790   23.4470  -32.3460 C   0  0  0  0  0  0  0  0  0  0  0  0
   -6.6030   23.1150  -31.0160 C   0  0  0  0  0  0  0  0  0  0  0  0
   -5.4500   24.1040  -30.8550 C   0  0  0  0  0  0  0  0  0  0  0  0
   -6.1190   21.8060  -31.1230 O   0  0  0  0  0  0  0  0  0  0  0  0
   -6.7950   20.7150  -31.5920 C   0  0  0  0  0  0  0  0  0  0  0  0
   -8.0950   20.3870  -31.2690 C   0  0  0  0  0  0  0  0  0  0  0  0
   -8.7390   19.2750  -31.7670 C   0  0  0  0  0  0  0  0  0  0  0  0
   -8.0760   18.4270  -32.6340 C   0  0  0  0  0  0  0  0  0  0  0  0
   -6.7670   18.7440  -32.9670 C   0  0  0  0  0  0  0  0  0  0  0  0
   -6.1380   19.8640  -32.4580 C   0  0  0  0  0  0  0  0  0  0  0  0
   -4.7600   20.1310  -32.8560 C   0  0  0  0  0  0  0  0  0  0  0  0
   -3.9170   19.0510  -32.9990 C   0  0  0  0  0  0  0  0  0  0  0  0
   -2.6080   19.2370  -33.3710 C   0  0  0  0  0  0  0  0  0  0  0  0
   -2.0850   20.5260  -33.6190 C   0  0  0  0  0  0  0  0  0  0  0  0
   -0.7090   20.7590  -33.9900 C   0  0  0  0  0  0  0  0  0  0  0  0
   -0.1110   21.3210  -35.0550 N   0  0  0  0  0  0  0  0  0  0  0  0
    0.4890   22.3130  -35.4930 C   0  0  0  0  0  0  0  0  0  0  0  0
   -0.1050   23.4620  -35.8560 N   0  0  0  0  0  0  0  0  0  0  0  0
    0.5960   24.5070  -36.3250 C   0  0  0  0  0  0  0  0  0  0  0  0
   -0.0150   25.7700  -36.7290 C   0  0  0  0  0  0  0  0  0  0  0  0
   -0.5140   26.6820  -35.8240 C   0  0  0  0  0  0  0  0  0  0  0  0
   -1.0790   27.8590  -36.2700 C   0  0  0  0  0  0  0  0  0  0  0  0
   -1.1700   28.1720  -37.6240 C   0  0  0  0  0  0  0  0  0  0  0  0
   -0.6670   27.2470  -38.4930 N   0  0  0  0  0  0  0  0  0  0  0  0
   -0.1150   26.1000  -38.0620 C   0  0  0  0  0  0  0  0  0  0  0  0
    1.9370   24.3800  -36.4270 N   0  0  0  0  0  0  0  0  0  0  0  0
    2.5850   23.2550  -36.0790 C   0  0  0  0  0  0  0  0  0  0  0  0
    1.8590   22.2120  -35.6080 C   0  0  0  0  0  0  0  0  0  0  0  0
    2.4360   21.0880  -35.2530 F   0  0  0  0  0  0  0  0  0  0  0  0
   -2.9790   21.5600  -33.4600 C   0  0  0  0  0  0  0  0  0  0  0  0
   -4.2920   21.4040  -33.0880 C   0  0  0  0  0  0  0  0  0  0  0  0
   -8.2512   23.9245  -32.1540 H   0  0  0  0  0  0  0  0  0  0  0  0
   -6.6402   24.1339  -32.9206 H   0  0  0  0  0  0  0  0  0  0  0  0
   -7.4321   22.5216  -32.9206 H   0  0  0  0  0  0  0  0  0  0  0  0
   -7.2794   23.1875  -30.1516 H   0  0  0  0  0  0  0  0  0  0  0  0
   -5.2562   24.2702  -29.7850 H   0  0  0  0  0  0  0  0  0  0  0  0
   -4.5470   23.6953  -31.3320 H   0  0  0  0  0  0  0  0  0  0  0  0
   -5.7165   25.0587  -31.3320 H   0  0  0  0  0  0  0  0  0  0  0  0
   -8.6448   21.0452  -30.5801 H   0  0  0  0  0  0  0  0  0  0  0  0
   -9.7782   19.0628  -31.4752 H   0  0  0  0  0  0  0  0  0  0  0  0
   -8.5683   17.5333  -33.0450 H   0  0  0  0  0  0  0  0  0  0  0  0
   -6.2152   18.0861  -33.6546 H   0  0  0  0  0  0  0  0  0  0  0  0
   -4.2941   18.0343  -32.8143 H   0  0  0  0  0  0  0  0  0  0  0  0
   -1.9509   18.3614  -33.4785 H   0  0  0  0  0  0  0  0  0  0  0  0
   -0.3215   21.3502  -33.1472 H   0  0  0  0  0  0  0  0  0  0  0  0
   -0.5053   19.7210  -34.2919 H   0  0  0  0  0  0  0  0  0  0  0  0
   -1.1300   23.5220  -35.7650 H   0  0  0  0  0  0  0  0  0  0  0  0
   -0.4617   26.4713  -34.7456 H   0  0  0  0  0  0  0  0  0  0  0  0
   -1.4707   28.5740  -35.5315 H   0  0  0  0  0  0  0  0  0  0  0  0
   -1.6219   29.1120  -37.9737 H   0  0  0  0  0  0  0  0  0  0  0  0
    0.2748   25.3923  -38.8085 H   0  0  0  0  0  0  0  0  0  0  0  0
    3.6785   23.1826  -36.1742 H   0  0  0  0  0  0  0  0  0  0  0  0
   -2.6170   22.5824  -33.6435 H   0  0  0  0  0  0  0  0  0  0  0  0
   -4.9536   22.2759  -32.9782 H   0  0  0  0  0  0  0  0  0  0  0  0
  1  2  1  0
  2  3  1  0
  2  4  1  0
  4  5  1  0
  5  6  2  0
  6  7  1  0
  7  8  2  0
  8  9  1  0
  9 10  2  0
 10 11  1  0
 11 12  2  0
 12 13  1  0
 13 14  2  0
 14 15  1  0
 15 16  1  0
 16 17  2  0
 17 18  1  0
 18 19  1  0
 19 20  1  0
 20 21  2  0
 21 22  1  0
 22 23  2  0
 23 24  1  0
 24 25  2  0
 19 26  2  0
 26 27  1  0
 27 28  2  0
 28 29  1  0
 14 30  1  0
 30 31  2  0
 10  5  1  0
 31 11  1  0
 28 17  1  0
 25 20  1  0
  1 32  1  0
  1 33  1  0
  1 34  1  0
  2 35  1  0
  3 36  1  0
  3 37  1  0
  3 38  1  0
  6 39  1  0
  7 40  1  0
  8 41  1  0
  9 42  1  0
 12 43  1  0
 13 44  1  0
 15 45  1  0
 15 46  1  0
 18 47  1  0
 21 48  1  0
 22 49  1  0
 23 50  1  0
 25 51  1  0
 27 52  1  0
 30 53  1  0
 31 54  1  0
M  END
>  <smiles>  (35) 
CC(C)Oc1ccccc1-c1ccc(CN=c2[nH]c(-c3cccnc3)ncc2F)cc1

>  <score_type>  (35) 
oracle

>  <origin>  (35) 
adg

>  <m_score__min__energy>  (35) 
-9.9100000000000001

>  <m_primary>  (35) 
energy

$$$$
35:0
     RDKit          3D

 40 42  0  0  0  0  0  0  0  0999 V2000
   -2.3770   24.9090  -27.4220 C   0  0  0  0  0  0  0  0  0  0  0  0
   -2.5220   24.9970  -28.8350 O   0  0  0  0  0  0  0  0  0  0  0  0
   -2.7750   23.9030  -29.6780 C   0  0  0  0  0  0  0  0  0  0  0  0
   -2.1190   22.6680  -29.5190 C   0  0  0  0  0  0  0  0  0  0  0  0
   -2.3990   21.6030  -30.3750 C   0  0  0  0  0  0  0  0  0  0  0  0
   -3.3450   21.7450  -31.3990 C   0  0  0  0  0  0  0  0  0  0  0  0
   -3.6300   20.6560  -32.2910 N   0  0  0  0  0  0  0  0  0  0  0  0
   -2.6080   19.8250  -32.9410 C   0  0  0  0  0  0  0  0  0  0  0  0
   -3.3630   18.5770  -33.4720 C   0  0  0  0  0  0  0  0  0  0  0  0
   -4.7280   18.7840  -33.0170 N   0  0  0  0  0  0  0  0  0  0  0  0
   -5.9090   18.5500  -33.6210 C   0  0  0  0  0  0  0  0  0  0  0  0
   -6.1110   17.5290  -34.6920 C   0  0  0  0  0  0  0  0  0  0  0  0
   -6.7940   19.5410  -33.3630 N   0  0  0  0  0  0  0  0  0  0  0  0
   -6.1240   20.4400  -32.6050 C   0  0  0  0  0  0  0  0  0  0  0  0
   -6.5840   21.8460  -32.3910 C   0  0  0  0  0  0  0  0  0  0  0  0
   -4.8490   19.9410  -32.3910 C   0  0  0  0  0  0  0  0  0  0  0  0
   -3.9900   22.9780  -31.5690 C   0  0  0  0  0  0  0  0  0  0  0  0
   -3.7140   24.0600  -30.7110 C   0  0  0  0  0  0  0  0  0  0  0  0
   -4.3510   25.3030  -30.8490 O   0  0  0  0  0  0  0  0  0  0  0  0
   -5.6740   25.5860  -30.4050 C   0  0  0  0  0  0  0  0  0  0  0  0
   -3.2199   25.4206  -26.9343 H   0  0  0  0  0  0  0  0  0  0  0  0
   -2.3655   23.8514  -27.1197 H   0  0  0  0  0  0  0  0  0  0  0  0
   -1.4335   25.3870  -27.1197 H   0  0  0  0  0  0  0  0  0  0  0  0
   -1.3802   22.5418  -28.7139 H   0  0  0  0  0  0  0  0  0  0  0  0
   -1.8737   20.6452  -30.2454 H   0  0  0  0  0  0  0  0  0  0  0  0
   -2.1388   20.3726  -33.7717 H   0  0  0  0  0  0  0  0  0  0  0  0
   -1.8033   19.5486  -32.2438 H   0  0  0  0  0  0  0  0  0  0  0  0
   -3.3181   18.5285  -34.5700 H   0  0  0  0  0  0  0  0  0  0  0  0
   -2.9314   17.6313  -33.1124 H   0  0  0  0  0  0  0  0  0  0  0  0
   -6.3049   16.5487  -34.2322 H   0  0  0  0  0  0  0  0  0  0  0  0
   -6.9695   17.8174  -35.3163 H   0  0  0  0  0  0  0  0  0  0  0  0
   -5.2074   17.4688  -35.3163 H   0  0  0  0  0  0  0  0  0  0  0  0
   -7.7310   19.6710  -33.8060 H   0  0  0  0  0  0  0  0  0  0  0  0
   -6.6507   22.0498  -31.3121 H   0  0  0  0  0  0  0  0  0  0  0  0
   -5.8663   22.5407  -32.8517 H   0  0  0  0  0  0  0  0  0  0  0  0
   -7.5735   21.9822  -32.8517 H   0  0  0  0  0  0  0  0  0  0  0  0
   -4.7203   23.1018  -32.3822 H   0  0  0  0  0  0  0  0  0  0  0  0
   -5.6984   25.5912  -29.3053 H   0  0  0  0  0  0  0  0  0  0  0  0
   -5.9849   26.5710  -30.7834 H   0  0  0  0  0  0  0  0  0  0  0  0
   -6.3607   24.8144  -30.7834 H   0  0  0  0  0  0  0  0  0  0  0  0
  1  2  1  0
  2  3  1  0
  3  4  2  0
  4  5  1  0
  5  6  2  0
  6  7  1  0
  7  8  1  0
  8  9  1  0
  9 10  1  0
 10 11  1  0
 11 12  1  0
 11 13  2  0
 13 14  1  0
 14 15  1  0
 14 16  2  0
  6 17  1  0
 17 18  2  0
 18 19  1  0
 19 20  1  0
 18  3  1  0
 16  7  1  0
 16 10  1  0
  1 21  1  0
  1 22  1  0
  1 23  1  0
  4 24  1  0
  5 25  1  0
  8 26  1  0
  8 27  1  0
  9 28  1  0
  9 29  1  0
 12 30  1  0
 12 31  1  0
 12 32  1  0
 13 33  1  0
 15 34  1  0
 15 35  1  0
 15 36  1  0
 17 37  1  0
 20 38  1  0
 20 39  1  0
 20 40  1  0
M  CHG  1  13   1
M  END
>  <UniqueID>  (36) 
35

>  <SMILES>  (36) 
COc1ccc(N2CCn3c(C)[nH+]c(C)c32)cc1OC

>  <Energy>  (36) 
102.7845518707291

>  <Genealogy>  (36) 
COc1ccc(N2CCn3c(C)[nH+]c(C)c32)cc1OC (protonated)
COc1ccc(N2CCn3c(C)[nH+]c(C)c32)cc1OC (3D coordinates assigned)
COc1ccc(N2CCn3c(C)[nH+]c(C)c32)cc1OC (nonaromatic ring conformer: 102.7845518707291 kcal/mol)

>  <smiles>  (36) 
COc1ccc(N2CCn3c(C)nc(C)c32)cc1OC

>  <score_type>  (36) 
oracle

>  <origin>  (36) 
adg

>  <m_score__min__energy>  (36) 
-6.6500000000000004

>  <m_primary>  (36) 
energy

$$$$
36:0
     RDKit          3D

 49 52  0  0  0  0  0  0  0  0999 V2000
   -1.8300   24.9800  -28.1890 C   0  0  0  0  0  0  0  0  0  0  0  0
   -2.5760   25.2810  -29.3640 O   0  0  0  0  0  0  0  0  0  0  0  0
   -3.5790   24.4580  -29.8980 C   0  0  0  0  0  0  0  0  0  0  0  0
   -3.5080   23.0530  -29.8490 C   0  0  0  0  0  0  0  0  0  0  0  0
   -4.5350   22.2770  -30.3940 C   0  0  0  0  0  0  0  0  0  0  0  0
   -5.6450   22.8880  -31.0010 C   0  0  0  0  0  0  0  0  0  0  0  0
   -6.7420   22.0620  -31.5620 C   0  0  0  0  0  0  0  0  0  0  0  0
   -6.4680   20.7700  -32.0420 C   0  0  0  0  0  0  0  0  0  0  0  0
   -7.4990   19.9550  -32.5350 C   0  0  0  0  0  0  0  0  0  0  0  0
   -7.1980   18.5580  -33.0190 C   0  0  0  0  0  0  0  0  0  0  0  0
   -6.3620   18.5500  -34.2350 N   0  0  0  0  0  0  0  0  0  0  0  0
   -5.1570   17.7490  -34.0950 C   0  0  0  0  0  0  0  0  0  0  0  0
   -5.2510   16.3380  -34.1460 C   0  0  0  0  0  0  0  0  0  0  0  0
   -6.4540   15.7280  -34.3000 F   0  0  0  0  0  0  0  0  0  0  0  0
   -4.1200   15.5390  -33.9920 C   0  0  0  0  0  0  0  0  0  0  0  0
   -2.8830   16.1190  -33.7330 C   0  0  0  0  0  0  0  0  0  0  0  0
   -2.7710   17.5030  -33.6140 C   0  0  0  0  0  0  0  0  0  0  0  0
   -3.8870   18.3390  -33.8130 C   0  0  0  0  0  0  0  0  0  0  0  0
   -3.7440   19.8240  -33.5520 C   0  0  0  0  0  0  0  0  0  0  0  0
   -2.3360   20.3680  -33.7480 C   0  0  0  0  0  0  0  0  0  0  0  0
   -2.9070   20.2600  -32.3500 C   0  0  0  0  0  0  0  0  0  0  0  0
   -8.8130   20.4440  -32.5590 C   0  0  0  0  0  0  0  0  0  0  0  0
   -9.0910   21.7350  -32.1030 C   0  0  0  0  0  0  0  0  0  0  0  0
   -8.0650   22.5430  -31.6050 C   0  0  0  0  0  0  0  0  0  0  0  0
   -8.3620   23.8010  -31.1890 F   0  0  0  0  0  0  0  0  0  0  0  0
   -5.7140   24.2900  -31.0420 C   0  0  0  0  0  0  0  0  0  0  0  0
   -4.6870   25.0650  -30.4970 C   0  0  0  0  0  0  0  0  0  0  0  0
   -2.4315   25.2227  -27.3006 H   0  0  0  0  0  0  0  0  0  0  0  0
   -1.5772   23.9095  -28.1794 H   0  0  0  0  0  0  0  0  0  0  0  0
   -0.9051   25.5753  -28.1794 H   0  0  0  0  0  0  0  0  0  0  0  0
   -2.6413   22.5640  -29.3802 H   0  0  0  0  0  0  0  0  0  0  0  0
   -4.4736   21.1797  -30.3473 H   0  0  0  0  0  0  0  0  0  0  0  0
   -5.4346   20.3933  -32.0313 H   0  0  0  0  0  0  0  0  0  0  0  0
   -6.6678   18.0152  -32.2226 H   0  0  0  0  0  0  0  0  0  0  0  0
   -8.1552   18.0766  -33.2679 H   0  0  0  0  0  0  0  0  0  0  0  0
   -6.9520   18.2470  -35.0420 H   0  0  0  0  0  0  0  0  0  0  0  0
   -6.0720   19.5350  -34.4380 H   0  0  0  0  0  0  0  0  0  0  0  0
   -4.2059   14.4456  -34.0756 H   0  0  0  0  0  0  0  0  0  0  0  0
   -1.9914   15.4844  -33.6219 H   0  0  0  0  0  0  0  0  0  0  0  0
   -1.7976   17.9487  -33.3612 H   0  0  0  0  0  0  0  0  0  0  0  0
   -4.7549   20.0718  -33.9080 H   0  0  0  0  0  0  0  0  0  0  0  0
   -1.5262   19.6938  -34.0636 H   0  0  0  0  0  0  0  0  0  0  0  0
   -1.8948   21.1801  -34.3446 H   0  0  0  0  0  0  0  0  0  0  0  0
   -2.5132   19.5067  -31.6518 H   0  0  0  0  0  0  0  0  0  0  0  0
   -3.0528   20.9593  -31.5135 H   0  0  0  0  0  0  0  0  0  0  0  0
   -9.6274   19.8092  -32.9380 H   0  0  0  0  0  0  0  0  0  0  0  0
  -10.1219   22.1172  -32.1361 H   0  0  0  0  0  0  0  0  0  0  0  0
   -6.5820   24.7812  -31.5061 H   0  0  0  0  0  0  0  0  0  0  0  0
   -4.7508   26.1623  -30.5396 H   0  0  0  0  0  0  0  0  0  0  0  0
  1  2  1  0
  2  3  1  0
  3  4  2  0
  4  5  1  0
  5  6  2  0
  6  7  1  0
  7  8  2  0
  8  9  1  0
  9 10  1  0
 10 11  1  0
 11 12  1  0
 12 13  2  0
 13 14  1  0
 13 15  1  0
 15 16  2  0
 16 17  1  0
 17 18  2  0
 18 19  1  0
 19 20  1  0
 20 21  1  0
  9 22  2  0
 22 23  1  0
 23 24  2  0
 24 25  1  0
  6 26  1  0
 26 27  2  0
 27  3  1  0
 24  7  1  0
 18 12  1  0
 21 19  1  0
  1 28  1  0
  1 29  1  0
  1 30  1  0
  4 31  1  0
  5 32  1  0
  8 33  1  0
 10 34  1  0
 10 35  1  0
 11 36  1  0
 11 37  1  0
 15 38  1  0
 16 39  1  0
 17 40  1  0
 19 41  1  0
 20 42  1  0
 20 43  1  0
 21 44  1  0
 21 45  1  0
 22 46  1  0
 23 47  1  0
 26 48  1  0
 27 49  1  0
M  CHG  1  11   1
M  END
>  <UniqueID>  (37) 
36

>  <SMILES>  (37) 
COc1ccc(-c2cc(C[NH2+]c3c(F)cccc3C3CC3)ccc2F)cc1

>  <Energy>  (37) 
325.4721572504578

>  <Genealogy>  (37) 
COc1ccc(-c2cc(C[NH2+]c3c(F)cccc3C3CC3)ccc2F)cc1 (protonated)
COc1ccc(-c2cc(C[NH2+]c3c(F)cccc3C3CC3)ccc2F)cc1 (3D coordinates assigned)
COc1ccc(-c2cc(C[NH2+]c3c(F)cccc3C3CC3)ccc2F)cc1 (nonaromatic ring conformer: 325.4721572504578 kcal/mol)

>  <smiles>  (37) 
COc1ccc(-c2cc(CNc3c(F)cccc3C3CC3)ccc2F)cc1

>  <score_type>  (37) 
oracle

>  <origin>  (37) 
adg

>  <m_score__min__energy>  (37) 
-8.6500000000000004

>  <m_primary>  (37) 
energy

$$$$
37:0
     RDKit          3D

 39 40  0  0  0  0  0  0  0  0999 V2000
   -6.5340   17.7590  -31.2930 C   0  0  0  0  0  0  0  0  0  0  0  0
   -6.6410   17.7160  -32.8160 C   0  0  0  0  0  0  0  0  0  0  0  0
   -6.8240   19.0820  -33.4390 C   0  0  0  0  0  0  0  0  0  0  0  0
   -6.2230   19.3610  -34.5140 O   0  0  0  0  0  0  0  0  0  0  0  0
   -7.6690   20.0760  -32.8170 N   0  0  0  0  0  0  0  0  0  0  0  0
   -9.1160   19.8580  -32.6990 C   0  0  0  0  0  0  0  0  0  0  0  0
   -7.0800   21.2360  -32.1950 C   0  0  0  0  0  0  0  0  0  0  0  0
   -7.8920   22.2810  -31.7250 C   0  0  0  0  0  0  0  0  0  0  0  0
   -7.3180   23.4060  -31.1230 C   0  0  0  0  0  0  0  0  0  0  0  0
   -5.9280   23.4990  -30.9870 C   0  0  0  0  0  0  0  0  0  0  0  0
   -5.1960   24.9100  -30.2280 S   0  0  0  0  0  0  0  0  0  0  0  0
   -5.4840   24.9130  -28.7510 O   0  0  0  0  0  0  0  0  0  0  0  0
   -5.7760   26.1520  -30.8430 O   0  0  0  0  0  0  0  0  0  0  0  0
   -3.4770   24.8980  -30.4790 N   0  0  0  0  0  0  0  0  0  0  0  0
   -2.8340   24.0670  -29.4660 C   0  0  0  0  0  0  0  0  0  0  0  0
   -2.0640   24.9410  -28.5340 C   0  0  0  0  0  0  0  0  0  0  0  0
   -1.8690   24.7090  -27.1870 C   0  0  0  0  0  0  0  0  0  0  0  0
   -1.0820   25.7490  -26.7440 C   0  0  0  0  0  0  0  0  0  0  0  0
   -0.8430   26.5470  -27.8450 C   0  0  0  0  0  0  0  0  0  0  0  0
   -1.4390   26.0360  -28.8990 O   0  0  0  0  0  0  0  0  0  0  0  0
   -5.1130   22.4650  -31.4660 C   0  0  0  0  0  0  0  0  0  0  0  0
   -5.6850   21.3390  -32.0650 C   0  0  0  0  0  0  0  0  0  0  0  0
   -7.4679   17.3837  -30.8491 H   0  0  0  0  0  0  0  0  0  0  0  0
   -5.6936   17.1288  -30.9665 H   0  0  0  0  0  0  0  0  0  0  0  0
   -6.3635   18.7955  -30.9665 H   0  0  0  0  0  0  0  0  0  0  0  0
   -5.7203   17.2685  -33.2187 H   0  0  0  0  0  0  0  0  0  0  0  0
   -7.5323   17.1212  -33.0645 H   0  0  0  0  0  0  0  0  0  0  0  0
   -9.3950   19.8160  -31.6358 H   0  0  0  0  0  0  0  0  0  0  0  0
   -9.6524   20.6855  -33.1864 H   0  0  0  0  0  0  0  0  0  0  0  0
   -9.3848   18.9092  -33.1864 H   0  0  0  0  0  0  0  0  0  0  0  0
   -8.9849   22.2147  -31.8307 H   0  0  0  0  0  0  0  0  0  0  0  0
   -7.9608   24.2196  -30.7556 H   0  0  0  0  0  0  0  0  0  0  0  0
   -3.6001   23.5133  -28.9033 H   0  0  0  0  0  0  0  0  0  0  0  0
   -2.1531   23.3520  -29.9510 H   0  0  0  0  0  0  0  0  0  0  0  0
   -2.2599   23.8700  -26.5926 H   0  0  0  0  0  0  0  0  0  0  0  0
   -0.7172   25.9112  -25.7190 H   0  0  0  0  0  0  0  0  0  0  0  0
   -0.2447   27.4701  -27.8407 H   0  0  0  0  0  0  0  0  0  0  0  0
   -4.0197   22.5395  -31.3704 H   0  0  0  0  0  0  0  0  0  0  0  0
   -5.0395   20.5294  -32.4365 H   0  0  0  0  0  0  0  0  0  0  0  0
  1  2  1  0
  2  3  1  0
  3  4  2  0
  3  5  1  0
  5  6  1  0
  5  7  1  0
  7  8  2  0
  8  9  1  0
  9 10  2  0
 10 11  1  0
 11 12  2  0
 11 13  2  0
 11 14  1  0
 14 15  1  0
 15 16  1  0
 16 17  2  0
 17 18  1  0
 18 19  2  0
 19 20  1  0
 10 21  1  0
 21 22  2  0
 22  7  1  0
 20 16  1  0
  1 23  1  0
  1 24  1  0
  1 25  1  0
  2 26  1  0
  2 27  1  0
  6 28  1  0
  6 29  1  0
  6 30  1  0
  8 31  1  0
  9 32  1  0
 15 33  1  0
 15 34  1  0
 17 35  1  0
 18 36  1  0
 19 37  1  0
 21 38  1  0
 22 39  1  0
M  CHG  1  14  -1
M  END
>  <UniqueID>  (38) 
37

>  <SMILES>  (38) 
CCC(=O)N(C)c1ccc(S(=O)(=O)[N-]Cc2ccco2)cc1

>  <Energy>  (38) 
65.15694211747203

>  <Genealogy>  (38) 
CCC(=O)N(C)c1ccc(S(=O)(=O)[N-]Cc2ccco2)cc1 (protonated)
CCC(=O)N(C)c1ccc(S(=O)(=O)[N-]Cc2ccco2)cc1 (3D coordinates assigned)
CCC(=O)N(C)c1ccc(S(=O)(=O)[N-]Cc2ccco2)cc1 (optimized conformer: 65.15694211747203 kcal/mol)

>  <smiles>  (38) 
CCC(=O)N(C)c1ccc(S(=O)(=O)NCc2ccco2)cc1

>  <score_type>  (38) 
oracle

>  <origin>  (38) 
adg

>  <m_score__min__energy>  (38) 
-10.220000000000001

>  <m_primary>  (38) 
energy

$$$$
38:0
     RDKit          3D

 43 44  0  0  0  0  0  0  0  0999 V2000
   -3.0020   24.0280  -27.6560 C   0  0  0  0  0  0  0  0  0  0  0  0
   -2.3430   24.8900  -28.7270 C   0  0  0  0  0  0  0  0  0  0  0  0
   -3.2930   25.2750  -29.7210 O   0  0  0  0  0  0  0  0  0  0  0  0
   -4.4520   24.5620  -30.0740 C   0  0  0  0  0  0  0  0  0  0  0  0
   -5.7270   24.9280  -29.5980 C   0  0  0  0  0  0  0  0  0  0  0  0
   -6.8660   24.2410  -30.0210 C   0  0  0  0  0  0  0  0  0  0  0  0
   -6.7550   23.1830  -30.9290 C   0  0  0  0  0  0  0  0  0  0  0  0
   -8.2020   22.3340  -31.4660 S   0  0  0  0  0  0  0  0  0  0  0  0
   -9.0430   23.2450  -32.3180 O   0  0  0  0  0  0  0  0  0  0  0  0
   -8.9930   21.9190  -30.2580 O   0  0  0  0  0  0  0  0  0  0  0  0
   -7.7480   20.9250  -32.3950 N   0  0  0  0  0  0  0  0  0  0  0  0
   -8.9430   20.1240  -32.7700 C   0  0  0  0  0  0  0  0  0  0  0  0
   -9.1200   18.8670  -31.9050 C   0  0  0  0  0  0  0  0  0  0  0  0
   -7.8870   17.9530  -31.9940 C   0  0  0  0  0  0  0  0  0  0  0  0
   -6.5800   18.7370  -32.2080 C   0  0  0  0  0  0  0  0  0  0  0  0
   -6.7000   20.1680  -31.6750 C   0  0  0  0  0  0  0  0  0  0  0  0
   -5.4940   22.8130  -31.4070 C   0  0  0  0  0  0  0  0  0  0  0  0
   -4.3410   23.4710  -30.9630 C   0  0  0  0  0  0  0  0  0  0  0  0
   -3.0720   23.0460  -31.4800 N   0  0  0  0  0  0  0  0  0  0  0  0
   -2.7150   21.6920  -31.7800 C   0  0  0  0  0  0  0  0  0  0  0  0
   -2.1230   20.9820  -30.9220 O   0  0  0  0  0  0  0  0  0  0  0  0
   -3.0680   21.1190  -33.1140 C   0  0  0  0  0  0  0  0  0  0  0  0
   -3.8430   22.0230  -33.8170 F   0  0  0  0  0  0  0  0  0  0  0  0
   -3.7770   19.9390  -32.9640 F   0  0  0  0  0  0  0  0  0  0  0  0
   -1.9100   20.8640  -33.8240 F   0  0  0  0  0  0  0  0  0  0  0  0
   -2.7180   24.3995  -26.6603 H   0  0  0  0  0  0  0  0  0  0  0  0
   -4.0952   24.0768  -27.7675 H   0  0  0  0  0  0  0  0  0  0  0  0
   -2.6682   22.9858  -27.7675 H   0  0  0  0  0  0  0  0  0  0  0  0
   -1.9259   25.7930  -28.2574 H   0  0  0  0  0  0  0  0  0  0  0  0
   -1.5446   24.3063  -29.2085 H   0  0  0  0  0  0  0  0  0  0  0  0
   -5.8253   25.7618  -28.8873 H   0  0  0  0  0  0  0  0  0  0  0  0
   -7.8552   24.5329  -29.6386 H   0  0  0  0  0  0  0  0  0  0  0  0
   -9.8370   20.7551  -32.6580 H   0  0  0  0  0  0  0  0  0  0  0  0
   -8.8024   19.7908  -33.8089 H   0  0  0  0  0  0  0  0  0  0  0  0
   -9.2674   19.1698  -30.8578 H   0  0  0  0  0  0  0  0  0  0  0  0
   -9.9938   18.3102  -32.2742 H   0  0  0  0  0  0  0  0  0  0  0  0
   -7.8049   17.3809  -31.0581 H   0  0  0  0  0  0  0  0  0  0  0  0
   -8.0247   17.2935  -32.8635 H   0  0  0  0  0  0  0  0  0  0  0  0
   -5.7631   18.2242  -31.6791 H   0  0  0  0  0  0  0  0  0  0  0  0
   -6.3737   18.7831  -33.2875 H   0  0  0  0  0  0  0  0  0  0  0  0
   -6.9553   20.1316  -30.6057 H   0  0  0  0  0  0  0  0  0  0  0  0
   -5.7371   20.6771  -31.8287 H   0  0  0  0  0  0  0  0  0  0  0  0
   -5.4072   21.9967  -32.1392 H   0  0  0  0  0  0  0  0  0  0  0  0
  1  2  1  0
  2  3  1  0
  3  4  1  0
  4  5  2  0
  5  6  1  0
  6  7  2  0
  7  8  1  0
  8  9  2  0
  8 10  2  0
  8 11  1  0
 11 12  1  0
 12 13  1  0
 13 14  1  0
 14 15  1  0
 15 16  1  0
  7 17  1  0
 17 18  2  0
 18 19  1  0
 19 20  1  0
 20 21  2  0
 20 22  1  0
 22 23  1  0
 22 24  1  0
 22 25  1  0
 18  4  1  0
 16 11  1  0
  1 26  1  0
  1 27  1  0
  1 28  1  0
  2 29  1  0
  2 30  1  0
  5 31  1  0
  6 32  1  0
 12 33  1  0
 12 34  1  0
 13 35  1  0
 13 36  1  0
 14 37  1  0
 14 38  1  0
 15 39  1  0
 15 40  1  0
 16 41  1  0
 16 42  1  0
 17 43  1  0
M  CHG  1  19  -1
M  END
>  <UniqueID>  (39) 
38

>  <SMILES>  (39) 
CCOc1ccc(S(=O)(=O)N2CCCCC2)cc1[N-]C(=O)C(F)(F)F

>  <Energy>  (39) 
48.7693244118683

>  <Genealogy>  (39) 
CCOc1ccc(S(=O)(=O)N2CCCCC2)cc1[N-]C(=O)C(F)(F)F (protonated)
CCOc1ccc(S(=O)(=O)N2CCCCC2)cc1[N-]C(=O)C(F)(F)F (3D coordinates assigned)
CCOc1ccc(S(=O)(=O)N2CCCCC2)cc1[N-]C(=O)C(F)(F)F (nonaromatic ring conformer: 48.7693244118683 kcal/mol)

>  <smiles>  (39) 
CCOc1ccc(S(=O)(=O)N2CCCCC2)cc1NC(=O)C(F)(F)F

>  <score_type>  (39) 
oracle

>  <origin>  (39) 
adg

>  <m_score__min__energy>  (39) 
-8.8200000000000003

>  <m_primary>  (39) 
energy

$$$$
39:0
     RDKit          3D

 57 60  0  0  0  0  0  0  0  0999 V2000
   -6.4660   25.6860  -29.3510 C   0  0  0  0  0  0  0  0  0  0  0  0
   -5.7840   25.4280  -30.6920 C   0  0  0  0  0  0  0  0  0  0  0  0
   -5.9210   24.0050  -31.0760 N   0  0  0  0  0  0  0  0  0  0  0  0
   -7.2590   23.4760  -30.7260 C   0  0  0  0  0  0  0  0  0  0  0  0
   -8.1460   23.4000  -31.9680 C   0  0  0  0  0  0  0  0  0  0  0  0
   -4.8300   23.1700  -30.5100 C   0  0  0  0  0  0  0  0  0  0  0  0
   -4.0740   22.4600  -31.6400 C   0  0  0  0  0  0  0  0  0  0  0  0
   -4.9690   22.1000  -32.7510 N   0  0  0  0  0  0  0  0  0  0  0  0
   -4.9300   20.6690  -32.9840 C   0  0  0  0  0  0  0  0  0  0  0  0
   -6.0680   19.8370  -32.7630 C   0  0  0  0  0  0  0  0  0  0  0  0
   -7.3200   20.3810  -32.3900 C   0  0  0  0  0  0  0  0  0  0  0  0
   -8.4200   19.5590  -32.1660 C   0  0  0  0  0  0  0  0  0  0  0  0
   -8.3090   18.1820  -32.3160 C   0  0  0  0  0  0  0  0  0  0  0  0
   -7.0980   17.6140  -32.7010 C   0  0  0  0  0  0  0  0  0  0  0  0
   -5.9540   18.4170  -32.9380 C   0  0  0  0  0  0  0  0  0  0  0  0
   -4.7560   17.8540  -33.3430 N   0  0  0  0  0  0  0  0  0  0  0  0
   -4.6140   16.3940  -33.5030 C   0  0  0  0  0  0  0  0  0  0  0  0
   -3.7050   18.6820  -33.6230 C   0  0  0  0  0  0  0  0  0  0  0  0
   -2.1860   18.2570  -34.2180 S   0  0  0  0  0  0  0  0  0  0  0  0
   -1.5710   19.8280  -34.2900 C   0  0  0  0  0  0  0  0  0  0  0  0
   -0.2110   20.1950  -34.7630 C   0  0  0  0  0  0  0  0  0  0  0  0
    0.1110   21.5410  -35.0240 C   0  0  0  0  0  0  0  0  0  0  0  0
    1.3890   21.8920  -35.4690 C   0  0  0  0  0  0  0  0  0  0  0  0
    2.3600   20.9080  -35.6620 C   0  0  0  0  0  0  0  0  0  0  0  0
    2.0540   19.5690  -35.4140 C   0  0  0  0  0  0  0  0  0  0  0  0
    0.7780   19.2110  -34.9680 C   0  0  0  0  0  0  0  0  0  0  0  0
   -2.5650   20.7050  -33.8480 C   0  0  0  0  0  0  0  0  0  0  0  0
   -3.7590   20.0570  -33.4670 C   0  0  0  0  0  0  0  0  0  0  0  0
   -5.7777   25.4256  -28.5335 H   0  0  0  0  0  0  0  0  0  0  0  0
   -6.7381   26.7492  -29.2766 H   0  0  0  0  0  0  0  0  0  0  0  0
   -7.3737   25.0691  -29.2766 H   0  0  0  0  0  0  0  0  0  0  0  0
   -6.2512   26.0580  -31.4632 H   0  0  0  0  0  0  0  0  0  0  0  0
   -4.7151   25.6714  -30.6011 H   0  0  0  0  0  0  0  0  0  0  0  0
   -7.1493   22.4689  -30.2973 H   0  0  0  0  0  0  0  0  0  0  0  0
   -7.7281   24.1505  -29.9945 H   0  0  0  0  0  0  0  0  0  0  0  0
   -9.1987   23.3098  -31.6618 H   0  0  0  0  0  0  0  0  0  0  0  0
   -8.0156   24.3126  -32.5681 H   0  0  0  0  0  0  0  0  0  0  0  0
   -7.8622   22.5229  -32.5681 H   0  0  0  0  0  0  0  0  0  0  0  0
   -4.1323   23.8115  -29.9516 H   0  0  0  0  0  0  0  0  0  0  0  0
   -5.2639   22.4165  -29.8362 H   0  0  0  0  0  0  0  0  0  0  0  0
   -3.2875   23.1295  -32.0184 H   0  0  0  0  0  0  0  0  0  0  0  0
   -3.6414   21.5337  -31.2341 H   0  0  0  0  0  0  0  0  0  0  0  0
   -4.7180   22.6130  -33.6230 H   0  0  0  0  0  0  0  0  0  0  0  0
   -5.9420   22.4100  -32.5330 H   0  0  0  0  0  0  0  0  0  0  0  0
   -7.4251   21.4700  -32.2754 H   0  0  0  0  0  0  0  0  0  0  0  0
   -9.3823   20.0013  -31.8687 H   0  0  0  0  0  0  0  0  0  0  0  0
   -9.1814   17.5384  -32.1298 H   0  0  0  0  0  0  0  0  0  0  0  0
   -7.0274   16.5231  -32.8235 H   0  0  0  0  0  0  0  0  0  0  0  0
   -4.5678   15.9193  -32.5118 H   0  0  0  0  0  0  0  0  0  0  0  0
   -5.4781   16.0002  -34.0582 H   0  0  0  0  0  0  0  0  0  0  0  0
   -3.6902   16.1741  -34.0582 H   0  0  0  0  0  0  0  0  0  0  0  0
   -0.6491   22.3223  -34.8765 H   0  0  0  0  0  0  0  0  0  0  0  0
    1.6301   22.9467  -35.6676 H   0  0  0  0  0  0  0  0  0  0  0  0
    3.3656   21.1876  -36.0093 H   0  0  0  0  0  0  0  0  0  0  0  0
    2.8184   18.7935  -35.5698 H   0  0  0  0  0  0  0  0  0  0  0  0
    0.5439   18.1536  -34.7756 H   0  0  0  0  0  0  0  0  0  0  0  0
   -2.4296   21.7957  -33.8016 H   0  0  0  0  0  0  0  0  0  0  0  0
  1  2  1  0
  2  3  1  0
  3  4  1  0
  4  5  1  0
  3  6  1  0
  6  7  1  0
  7  8  1  0
  8  9  1  0
  9 10  2  0
 10 11  1  0
 11 12  2  0
 12 13  1  0
 13 14  2  0
 14 15  1  0
 15 16  2  0
 16 17  1  0
 16 18  1  0
 18 19  1  0
 19 20  1  0
 20 21  1  0
 21 22  2  0
 22 23  1  0
 23 24  2  0
 24 25  1  0
 25 26  2  0
 20 27  2  0
 27 28  1  0
 28  9  1  0
 15 10  1  0
 28 18  2  0
 26 21  1  0
  1 29  1  0
  1 30  1  0
  1 31  1  0
  2 32  1  0
  2 33  1  0
  4 34  1  0
  4 35  1  0
  5 36  1  0
  5 37  1  0
  5 38  1  0
  6 39  1  0
  6 40  1  0
  7 41  1  0
  7 42  1  0
  8 43  1  0
  8 44  1  0
 11 45  1  0
 12 46  1  0
 13 47  1  0
 14 48  1  0
 17 49  1  0
 17 50  1  0
 17 51  1  0
 22 52  1  0
 23 53  1  0
 24 54  1  0
 25 55  1  0
 26 56  1  0
 27 57  1  0
M  CHG  2   8   1  16   1
M  END
>  <UniqueID>  (40) 
39

>  <SMILES>  (40) 
CCN(CC)CC[NH2+]c1c2ccccc2[n+](C)c2sc(-c3ccccc3)cc12

>  <Energy>  (40) 
106.0932565184693

>  <Genealogy>  (40) 
CCN(CC)CC[NH2+]c1c2ccccc2[n+](C)c2sc(-c3ccccc3)cc12 (protonated)
CCN(CC)CC[NH2+]c1c2ccccc2[n+](C)c2sc(-c3ccccc3)cc12 (3D coordinates assigned)
CCN(CC)CC[NH2+]c1c2ccccc2[n+](C)c2sc(-c3ccccc3)cc12 (optimized conformer: 106.0932565184693 kcal/mol)

>  <smiles>  (40) 
CCN(CC)CCNc1c2ccccc2[n+](C)c2sc(-c3ccccc3)cc12

>  <score_type>  (40) 
oracle

>  <origin>  (40) 
adg

>  <m_score__min__energy>  (40) 
-8.7200000000000006

>  <m_primary>  (40) 
energy

$$$$
40:0
     RDKit          3D

 37 39  0  0  0  0  0  0  0  0999 V2000
   -6.4920   26.0460  -29.1710 C   0  0  0  0  0  0  0  0  0  0  0  0
   -5.5730   25.7820  -30.2260 O   0  0  0  0  0  0  0  0  0  0  0  0
   -5.2300   24.4970  -30.6770 C   0  0  0  0  0  0  0  0  0  0  0  0
   -6.1770   23.6480  -31.2990 C   0  0  0  0  0  0  0  0  0  0  0  0
   -5.7560   22.3900  -31.7170 C   0  0  0  0  0  0  0  0  0  0  0  0
   -6.4620   21.3790  -32.3300 C   0  0  0  0  0  0  0  0  0  0  0  0
   -5.5470   20.3420  -32.4970 C   0  0  0  0  0  0  0  0  0  0  0  0
   -5.8880   19.0270  -33.0820 C   0  0  0  0  0  0  0  0  0  0  0  0
   -5.1790   18.5240  -34.1870 C   0  0  0  0  0  0  0  0  0  0  0  0
   -5.4970   17.2700  -34.7190 C   0  0  0  0  0  0  0  0  0  0  0  0
   -6.5150   16.5030  -34.1450 C   0  0  0  0  0  0  0  0  0  0  0  0
   -6.8200   15.2870  -34.6610 F   0  0  0  0  0  0  0  0  0  0  0  0
   -7.2120   16.9860  -33.0340 C   0  0  0  0  0  0  0  0  0  0  0  0
   -6.8970   18.2400  -32.5000 C   0  0  0  0  0  0  0  0  0  0  0  0
   -4.3190   20.7090  -32.0360 N   0  0  0  0  0  0  0  0  0  0  0  0
   -3.0810   19.9290  -32.0650 C   0  0  0  0  0  0  0  0  0  0  0  0
   -4.4690   21.9570  -31.5460 C   0  0  0  0  0  0  0  0  0  0  0  0
   -3.5100   22.7650  -30.9320 C   0  0  0  0  0  0  0  0  0  0  0  0
   -3.8970   24.0550  -30.4920 C   0  0  0  0  0  0  0  0  0  0  0  0
   -2.9900   24.9270  -29.8670 O   0  0  0  0  0  0  0  0  0  0  0  0
   -2.2660   24.6200  -28.6800 C   0  0  0  0  0  0  0  0  0  0  0  0
   -5.9901   25.9018  -28.2029 H   0  0  0  0  0  0  0  0  0  0  0  0
   -6.8500   27.0833  -29.2475 H   0  0  0  0  0  0  0  0  0  0  0  0
   -7.3459   25.3568  -29.2475 H   0  0  0  0  0  0  0  0  0  0  0  0
   -7.2169   23.9743  -31.4476 H   0  0  0  0  0  0  0  0  0  0  0  0
   -7.5217   21.3883  -32.6247 H   0  0  0  0  0  0  0  0  0  0  0  0
   -4.3702   19.1196  -34.6354 H   0  0  0  0  0  0  0  0  0  0  0  0
   -4.9453   16.8869  -35.5901 H   0  0  0  0  0  0  0  0  0  0  0  0
   -8.0090   16.3795  -32.5791 H   0  0  0  0  0  0  0  0  0  0  0  0
   -7.4418   18.6123  -31.6199 H   0  0  0  0  0  0  0  0  0  0  0  0
   -2.7535   19.7226  -31.0354 H   0  0  0  0  0  0  0  0  0  0  0  0
   -3.2583   18.9792  -32.5907 H   0  0  0  0  0  0  0  0  0  0  0  0
   -2.3008   20.4990  -32.5907 H   0  0  0  0  0  0  0  0  0  0  0  0
   -2.4787   22.4086  -30.7932 H   0  0  0  0  0  0  0  0  0  0  0  0
   -2.8755   24.8785  -27.8015 H   0  0  0  0  0  0  0  0  0  0  0  0
   -2.0322   23.5453  -28.6607 H   0  0  0  0  0  0  0  0  0  0  0  0
   -1.3310   25.1991  -28.6607 H   0  0  0  0  0  0  0  0  0  0  0  0
  1  2  1  0
  2  3  1  0
  3  4  2  0
  4  5  1  0
  5  6  1  0
  6  7  2  0
  7  8  1  0
  8  9  2  0
  9 10  1  0
 10 11  2  0
 11 12  1  0
 11 13  1  0
 13 14  2  0
  7 15  1  0
 15 16  1  0
 15 17  1  0
 17 18  1  0
 18 19  2  0
 19 20  1  0
 20 21  1  0
 19  3  1  0
 17  5  2  0
 14  8  1  0
  1 22  1  0
  1 23  1  0
  1 24  1  0
  4 25  1  0
  6 26  1  0
  9 27  1  0
 10 28  1  0
 13 29  1  0
 14 30  1  0
 16 31  1  0
 16 32  1  0
 16 33  1  0
 18 34  1  0
 21 35  1  0
 21 36  1  0
 21 37  1  0
M  END
>  <UniqueID>  (41) 
40

>  <SMILES>  (41) 
COc1cc2cc(-c3ccc(F)cc3)n(C)c2cc1OC

>  <Energy>  (41) 
76.77585005921448

>  <Genealogy>  (41) 
COc1cc2cc(-c3ccc(F)cc3)n(C)c2cc1OC (3D coordinates assigned)
COc1cc2cc(-c3ccc(F)cc3)n(C)c2cc1OC (optimized conformer: 76.77585005921448 kcal/mol)

>  <smiles>  (41) 
COc1cc2cc(-c3ccc(F)cc3)n(C)c2cc1OC

>  <score_type>  (41) 
oracle

>  <origin>  (41) 
adg

>  <m_score__min__energy>  (41) 
-7.29

>  <m_primary>  (41) 
energy

$$$$
41:0
     RDKit          3D

 49 52  0  0  0  0  0  0  0  0999 V2000
   -0.8730   19.0680  -32.0660 C   0  0  0  0  0  0  0  0  0  0  0  0
   -1.3280   19.5410  -30.8020 O   0  0  0  0  0  0  0  0  0  0  0  0
   -2.1330   20.6750  -30.6240 C   0  0  0  0  0  0  0  0  0  0  0  0
   -2.7310   20.9900  -29.3900 C   0  0  0  0  0  0  0  0  0  0  0  0
   -3.5140   22.1420  -29.2600 C   0  0  0  0  0  0  0  0  0  0  0  0
   -3.7040   22.9960  -30.3550 C   0  0  0  0  0  0  0  0  0  0  0  0
   -4.6330   24.4850  -30.1730 S   0  0  0  0  0  0  0  0  0  0  0  0
   -4.7890   24.7970  -28.7110 O   0  0  0  0  0  0  0  0  0  0  0  0
   -3.8790   25.6180  -30.8120 O   0  0  0  0  0  0  0  0  0  0  0  0
   -6.2180   24.3480  -30.9030 N   0  0  0  0  0  0  0  0  0  0  0  0
   -6.1410   23.7090  -32.2370 C   0  0  0  0  0  0  0  0  0  0  0  0
   -7.3880   22.8930  -32.5710 C   0  0  0  0  0  0  0  0  0  0  0  0
   -7.5710   21.8840  -31.5290 N   0  0  0  0  0  0  0  0  0  0  0  0
   -7.7010   20.4980  -31.8830 C   0  0  0  0  0  0  0  0  0  0  0  0
   -8.8950   19.8280  -31.5910 C   0  0  0  0  0  0  0  0  0  0  0  0
   -9.0270   18.4770  -31.9040 C   0  0  0  0  0  0  0  0  0  0  0  0
   -8.0010   17.8030  -32.4900 N   0  0  0  0  0  0  0  0  0  0  0  0
   -6.8220   18.4210  -32.7940 C   0  0  0  0  0  0  0  0  0  0  0  0
   -5.7840   17.7000  -33.4050 C   0  0  0  0  0  0  0  0  0  0  0  0
   -4.5810   18.3340  -33.7270 C   0  0  0  0  0  0  0  0  0  0  0  0
   -3.2890   17.4260  -34.4920 Cl  0  0  0  0  0  0  0  0  0  0  0  0
   -4.4070   19.6920  -33.4450 C   0  0  0  0  0  0  0  0  0  0  0  0
   -5.4320   20.4220  -32.8370 C   0  0  0  0  0  0  0  0  0  0  0  0
   -6.6450   19.7950  -32.4970 C   0  0  0  0  0  0  0  0  0  0  0  0
   -7.4010   22.2540  -30.1220 C   0  0  0  0  0  0  0  0  0  0  0  0
   -7.2110   23.7730  -29.9640 C   0  0  0  0  0  0  0  0  0  0  0  0
   -3.1230   22.6730  -31.5890 C   0  0  0  0  0  0  0  0  0  0  0  0
   -2.3420   21.5210  -31.7200 C   0  0  0  0  0  0  0  0  0  0  0  0
   -0.1178   18.2829  -31.9135 H   0  0  0  0  0  0  0  0  0  0  0  0
   -1.7222   18.6552  -32.6304 H   0  0  0  0  0  0  0  0  0  0  0  0
   -0.4276   19.9005  -32.6304 H   0  0  0  0  0  0  0  0  0  0  0  0
   -2.5823   20.3280  -28.5242 H   0  0  0  0  0  0  0  0  0  0  0  0
   -3.9829   22.3788  -28.2935 H   0  0  0  0  0  0  0  0  0  0  0  0
   -6.0201   24.4946  -32.9974 H   0  0  0  0  0  0  0  0  0  0  0  0
   -5.2845   23.0188  -32.2265 H   0  0  0  0  0  0  0  0  0  0  0  0
   -8.2664   23.5542  -32.6064 H   0  0  0  0  0  0  0  0  0  0  0  0
   -7.2712   22.4077  -33.5512 H   0  0  0  0  0  0  0  0  0  0  0  0
   -9.7274   20.3673  -31.1153 H   0  0  0  0  0  0  0  0  0  0  0  0
   -9.9664   17.9522  -31.6759 H   0  0  0  0  0  0  0  0  0  0  0  0
   -8.1360   16.7890  -32.7080 H   0  0  0  0  0  0  0  0  0  0  0  0
   -5.9181   16.6319  -33.6312 H   0  0  0  0  0  0  0  0  0  0  0  0
   -3.4596   20.1880  -33.7026 H   0  0  0  0  0  0  0  0  0  0  0  0
   -5.2899   21.4916  -32.6233 H   0  0  0  0  0  0  0  0  0  0  0  0
   -8.2938   21.9438  -29.5592 H   0  0  0  0  0  0  0  0  0  0  0  0
   -6.5034   21.7491  -29.7355 H   0  0  0  0  0  0  0  0  0  0  0  0
   -8.1795   24.2646  -30.1382 H   0  0  0  0  0  0  0  0  0  0  0  0
   -6.8307   23.9463  -28.9465 H   0  0  0  0  0  0  0  0  0  0  0  0
   -3.2822   23.3286  -32.4578 H   0  0  0  0  0  0  0  0  0  0  0  0
   -1.8880   21.2772  -32.6918 H   0  0  0  0  0  0  0  0  0  0  0  0
  1  2  1  0
  2  3  1  0
  3  4  2  0
  4  5  1  0
  5  6  2  0
  6  7  1  0
  7  8  2  0
  7  9  2  0
  7 10  1  0
 10 11  1  0
 11 12  1  0
 12 13  1  0
 13 14  1  0
 14 15  2  0
 15 16  1  0
 16 17  2  0
 17 18  1  0
 18 19  2  0
 19 20  1  0
 20 21  1  0
 20 22  2  0
 22 23  1  0
 23 24  2  0
 13 25  1  0
 25 26  1  0
  6 27  1  0
 27 28  2  0
 28  3  1  0
 26 10  1  0
 24 14  1  0
 24 18  1  0
  1 29  1  0
  1 30  1  0
  1 31  1  0
  4 32  1  0
  5 33  1  0
 11 34  1  0
 11 35  1  0
 12 36  1  0
 12 37  1  0
 15 38  1  0
 16 39  1  0
 17 40  1  0
 19 41  1  0
 22 42  1  0
 23 43  1  0
 25 44  1  0
 25 45  1  0
 26 46  1  0
 26 47  1  0
 27 48  1  0
 28 49  1  0
M  CHG  1  17   1
M  END
>  <UniqueID>  (42) 
41

>  <SMILES>  (42) 
COc1ccc(S(=O)(=O)N2CCN(c3cc[nH+]c4cc(Cl)ccc34)CC2)cc1

>  <Energy>  (42) 
65.47423857701413

>  <Genealogy>  (42) 
COc1ccc(S(=O)(=O)N2CCN(c3cc[nH+]c4cc(Cl)ccc34)CC2)cc1 (protonated)
COc1ccc(S(=O)(=O)N2CCN(c3cc[nH+]c4cc(Cl)ccc34)CC2)cc1 (3D coordinates assigned)
COc1ccc(S(=O)(=O)N2CCN(c3cc[nH+]c4cc(Cl)ccc34)CC2)cc1 (nonaromatic ring conformer: 65.47423857701413 kcal/mol)

>  <smiles>  (42) 
COc1ccc(S(=O)(=O)N2CCN(c3ccnc4cc(Cl)ccc34)CC2)cc1

>  <score_type>  (42) 
oracle

>  <origin>  (42) 
adg

>  <m_score__min__energy>  (42) 
-9.2599999999999998

>  <m_primary>  (42) 
energy

$$$$
42:0
     RDKit          3D

 68 72  0  0  0  0  0  0  0  0999 V2000
    0.9590   19.9680  -32.6880 C   0  0  0  0  0  0  0  0  0  0  0  0
   -0.0880   19.6380  -31.6980 N   0  0  0  0  0  0  0  0  0  0  0  0
   -0.4130   20.8140  -30.8540 C   0  0  0  0  0  0  0  0  0  0  0  0
   -1.9270   21.0600  -30.7010 C   0  0  0  0  0  0  0  0  0  0  0  0
   -2.4890   21.9540  -31.8200 C   0  0  0  0  0  0  0  0  0  0  0  0
   -3.8980   21.6330  -32.1100 N   0  0  0  0  0  0  0  0  0  0  0  0
   -4.2820   20.2960  -32.4930 C   0  0  0  0  0  0  0  0  0  0  0  0
   -3.4020   19.4520  -32.8240 O   0  0  0  0  0  0  0  0  0  0  0  0
   -5.7100   19.9080  -32.4890 C   0  0  0  0  0  0  0  0  0  0  0  0
   -6.0900   18.5840  -32.7770 C   0  0  0  0  0  0  0  0  0  0  0  0
   -7.4360   18.2160  -32.7670 C   0  0  0  0  0  0  0  0  0  0  0  0
   -8.4210   19.1580  -32.4740 C   0  0  0  0  0  0  0  0  0  0  0  0
   -8.0670   20.4830  -32.1810 C   0  0  0  0  0  0  0  0  0  0  0  0
   -9.0580   21.4300  -31.8850 C   0  0  0  0  0  0  0  0  0  0  0  0
   -8.7050   22.7460  -31.5920 C   0  0  0  0  0  0  0  0  0  0  0  0
   -7.3650   23.1320  -31.5870 C   0  0  0  0  0  0  0  0  0  0  0  0
   -6.3520   22.2010  -31.8790 C   0  0  0  0  0  0  0  0  0  0  0  0
   -6.7000   20.8660  -32.1830 C   0  0  0  0  0  0  0  0  0  0  0  0
   -4.9270   22.6050  -31.8510 C   0  0  0  0  0  0  0  0  0  0  0  0
   -4.6160   23.7990  -31.5850 O   0  0  0  0  0  0  0  0  0  0  0  0
    0.3890   18.5130  -30.8570 C   0  0  0  0  0  0  0  0  0  0  0  0
    1.4910   18.9370  -29.8660 C   0  0  0  0  0  0  0  0  0  0  0  0
    0.9810   19.1680  -28.5650 O   0  0  0  0  0  0  0  0  0  0  0  0
    0.2800   18.0430  -28.0620 C   0  0  0  0  0  0  0  0  0  0  0  0
   -0.8950   18.5020  -27.1980 C   0  0  0  0  0  0  0  0  0  0  0  0
   -1.1590   19.9250  -27.3950 N   0  0  0  0  0  0  0  0  0  0  0  0
   -2.4880   20.4700  -27.3620 C   0  0  0  0  0  0  0  0  0  0  0  0
   -3.4570   19.7380  -27.0180 O   0  0  0  0  0  0  0  0  0  0  0  0
   -2.7400   21.8770  -27.7550 C   0  0  0  0  0  0  0  0  0  0  0  0
   -4.0400   22.2830  -28.1070 C   0  0  0  0  0  0  0  0  0  0  0  0
   -4.2980   23.6040  -28.4820 C   0  0  0  0  0  0  0  0  0  0  0  0
   -3.2660   24.5430  -28.5120 C   0  0  0  0  0  0  0  0  0  0  0  0
   -1.9620   24.1630  -28.1650 C   0  0  0  0  0  0  0  0  0  0  0  0
   -0.9140   25.0920  -28.1790 C   0  0  0  0  0  0  0  0  0  0  0  0
    0.3730   24.6950  -27.8150 C   0  0  0  0  0  0  0  0  0  0  0  0
    0.6010   23.3690  -27.4390 C   0  0  0  0  0  0  0  0  0  0  0  0
   -0.4240   22.4760  -27.4320 N   0  0  0  0  0  0  0  0  0  0  0  0
   -1.6930   22.8250  -27.7870 C   0  0  0  0  0  0  0  0  0  0  0  0
    1.8811   20.2586  -32.1634 H   0  0  0  0  0  0  0  0  0  0  0  0
    1.1575   19.0889  -33.3186 H   0  0  0  0  0  0  0  0  0  0  0  0
    0.6175   20.8021  -33.3186 H   0  0  0  0  0  0  0  0  0  0  0  0
    0.0169   20.6547  -29.8541 H   0  0  0  0  0  0  0  0  0  0  0  0
    0.0101   21.6981  -31.3533 H   0  0  0  0  0  0  0  0  0  0  0  0
   -2.4473   20.0912  -30.7272 H   0  0  0  0  0  0  0  0  0  0  0  0
   -2.0890   21.5770  -29.7437 H   0  0  0  0  0  0  0  0  0  0  0  0
   -2.4191   23.0060  -31.5064 H   0  0  0  0  0  0  0  0  0  0  0  0
   -1.8996   21.7779  -32.7319 H   0  0  0  0  0  0  0  0  0  0  0  0
   -5.3205   17.8338  -33.0117 H   0  0  0  0  0  0  0  0  0  0  0  0
   -7.7212   17.1776  -32.9914 H   0  0  0  0  0  0  0  0  0  0  0  0
   -9.4801   18.8608  -32.4726 H   0  0  0  0  0  0  0  0  0  0  0  0
  -10.1172   21.1332  -31.8841 H   0  0  0  0  0  0  0  0  0  0  0  0
   -9.4877   23.4843  -31.3634 H   0  0  0  0  0  0  0  0  0  0  0  0
   -7.0981   24.1731  -31.3528 H   0  0  0  0  0  0  0  0  0  0  0  0
   -0.4628   18.1142  -30.2866 H   0  0  0  0  0  0  0  0  0  0  0  0
    0.8194   17.7553  -31.5284 H   0  0  0  0  0  0  0  0  0  0  0  0
    2.2465   18.1392  -29.8138 H   0  0  0  0  0  0  0  0  0  0  0  0
    1.9277   19.8789  -30.2295 H   0  0  0  0  0  0  0  0  0  0  0  0
   -0.0987   17.4439  -28.9032 H   0  0  0  0  0  0  0  0  0  0  0  0
    0.9632   17.4364  -27.4494 H   0  0  0  0  0  0  0  0  0  0  0  0
   -1.7915   17.9273  -27.4738 H   0  0  0  0  0  0  0  0  0  0  0  0
   -0.6423   18.3334  -26.1408 H   0  0  0  0  0  0  0  0  0  0  0  0
   -0.3500   20.5430  -27.6320 H   0  0  0  0  0  0  0  0  0  0  0  0
   -4.8623   21.5526  -28.0868 H   0  0  0  0  0  0  0  0  0  0  0  0
   -5.3200   23.9055  -28.7551 H   0  0  0  0  0  0  0  0  0  0  0  0
   -3.4758   25.5815  -28.8080 H   0  0  0  0  0  0  0  0  0  0  0  0
   -1.1054   26.1335  -28.4767 H   0  0  0  0  0  0  0  0  0  0  0  0
    1.2007   25.4195  -27.8240 H   0  0  0  0  0  0  0  0  0  0  0  0
    1.6117   23.0469  -27.1481 H   0  0  0  0  0  0  0  0  0  0  0  0
  1  2  1  0
  2  3  1  0
  3  4  1  0
  4  5  1  0
  5  6  1  0
  6  7  1  0
  7  8  2  0
  7  9  1  0
  9 10  2  0
 10 11  1  0
 11 12  2  0
 12 13  1  0
 13 14  2  0
 14 15  1  0
 15 16  2  0
 16 17  1  0
 17 18  2  0
 17 19  1  0
 19 20  2  0
  2 21  1  0
 21 22  1  0
 22 23  1  0
 23 24  1  0
 24 25  1  0
 25 26  1  0
 26 27  1  0
 27 28  2  0
 27 29  1  0
 29 30  2  0
 30 31  1  0
 31 32  2  0
 32 33  1  0
 33 34  2  0
 34 35  1  0
 35 36  2  0
 36 37  1  0
 37 38  2  0
 19  6  1  0
 38 29  1  0
 18  9  1  0
 38 33  1  0
 18 13  1  0
  1 39  1  0
  1 40  1  0
  1 41  1  0
  3 42  1  0
  3 43  1  0
  4 44  1  0
  4 45  1  0
  5 46  1  0
  5 47  1  0
 10 48  1  0
 11 49  1  0
 12 50  1  0
 14 51  1  0
 15 52  1  0
 16 53  1  0
 21 54  1  0
 21 55  1  0
 22 56  1  0
 22 57  1  0
 24 58  1  0
 24 59  1  0
 25 60  1  0
 25 61  1  0
 26 62  1  0
 30 63  1  0
 31 64  1  0
 32 65  1  0
 34 66  1  0
 35 67  1  0
 36 68  1  0
M  END
>  <UniqueID>  (43) 
42

>  <SMILES>  (43) 
CN(CCCN1C(=O)c2cccc3cccc(c23)C1=O)CCOCCNC(=O)c1cccc2cccnc12

>  <Energy>  (43) 
85.84118845525597

>  <Genealogy>  (43) 
CN(CCCN1C(=O)c2cccc3cccc(c23)C1=O)CCOCCNC(=O)c1cccc2cccnc12 (3D coordinates assigned)
CN(CCCN1C(=O)c2cccc3cccc(c23)C1=O)CCOCCNC(=O)c1cccc2cccnc12 (nonaromatic ring conformer: 85.84118845525597 kcal/mol)

>  <smiles>  (43) 
CN(CCCN1C(=O)c2cccc3cccc(c23)C1=O)CCOCCNC(=O)c1cccc2cccnc12

>  <score_type>  (43) 
oracle

>  <origin>  (43) 
adg

>  <m_score__min__energy>  (43) 
-10.42

>  <m_primary>  (43) 
energy

$$$$
