0:0
     RDKit          3D

 75 79  0  0  0  0  0  0  0  0999 V2000
   -5.2770   19.3640  -32.2160 C   0  0  0  0  0  0  0  0  0  0  0  0
   -4.4730   19.6330  -33.4820 C   0  0  0  0  0  0  0  0  0  0  0  0
   -4.3820   18.3930  -34.2860 N   0  0  0  0  0  0  0  0  0  0  0  0
   -5.6980   17.8210  -34.6360 C   0  0  0  0  0  0  0  0  0  0  0  0
   -5.9280   16.5130  -33.8830 C   0  0  0  0  0  0  0  0  0  0  0  0
   -3.4420   17.3970  -33.7230 C   0  0  0  0  0  0  0  0  0  0  0  0
   -2.0300   17.4340  -34.3490 C   0  0  0  0  0  0  0  0  0  0  0  0
   -1.0040   17.5440  -33.3090 N   0  0  0  0  0  0  0  0  0  0  0  0
   -0.8430   18.7120  -32.4830 C   0  0  0  0  0  0  0  0  0  0  0  0
    0.4020   19.3580  -32.4430 C   0  0  0  0  0  0  0  0  0  0  0  0
    0.5920   20.4870  -31.6430 C   0  0  0  0  0  0  0  0  0  0  0  0
   -0.4630   20.9980  -30.8730 C   0  0  0  0  0  0  0  0  0  0  0  0
   -1.7280   20.3880  -30.9530 C   0  0  0  0  0  0  0  0  0  0  0  0
   -1.9080   19.2380  -31.7290 C   0  0  0  0  0  0  0  0  0  0  0  0
   -2.8260   20.9560  -30.3010 O   0  0  0  0  0  0  0  0  0  0  0  0
   -2.7610   22.2340  -29.7420 C   0  0  0  0  0  0  0  0  0  0  0  0
   -3.9390   22.8740  -29.3460 C   0  0  0  0  0  0  0  0  0  0  0  0
   -3.9020   24.1800  -28.8290 C   0  0  0  0  0  0  0  0  0  0  0  0
   -5.1230   24.8540  -28.4620 N   0  0  0  0  0  0  0  0  0  0  0  0
   -5.8260   25.3170  -29.6670 C   0  0  0  0  0  0  0  0  0  0  0  0
   -6.3940   24.1470  -30.4260 C   0  0  0  0  0  0  0  0  0  0  0  0
   -6.0300   23.9220  -31.7640 C   0  0  0  0  0  0  0  0  0  0  0  0
   -6.5380   22.8190  -32.4570 C   0  0  0  0  0  0  0  0  0  0  0  0
   -7.4020   21.9270  -31.8150 C   0  0  0  0  0  0  0  0  0  0  0  0
   -7.7570   22.1360  -30.4790 C   0  0  0  0  0  0  0  0  0  0  0  0
   -7.2530   23.2390  -29.7840 C   0  0  0  0  0  0  0  0  0  0  0  0
   -2.6660   24.8400  -28.7240 C   0  0  0  0  0  0  0  0  0  0  0  0
   -1.4850   24.1980  -29.1020 C   0  0  0  0  0  0  0  0  0  0  0  0
   -1.5220   22.8900  -29.6120 C   0  0  0  0  0  0  0  0  0  0  0  0
   -0.2330   22.1420  -29.8990 C   0  0  1  0  0  0  0  0  0  0  0  0
    0.3380   21.6140  -28.5620 C   0  0  0  0  0  0  0  0  0  0  0  0
   -0.5250   20.5430  -27.9440 C   0  0  0  0  0  0  0  0  0  0  0  0
   -0.1790   19.1870  -28.0700 C   0  0  0  0  0  0  0  0  0  0  0  0
   -0.9660   18.2010  -27.4680 C   0  0  0  0  0  0  0  0  0  0  0  0
   -2.1050   18.5590  -26.7410 C   0  0  0  0  0  0  0  0  0  0  0  0
   -2.4540   19.9060  -26.6100 C   0  0  0  0  0  0  0  0  0  0  0  0
   -1.6660   20.8960  -27.2060 C   0  0  0  0  0  0  0  0  0  0  0  0
   -4.6533   19.5727  -31.3343 H   0  0  0  0  0  0  0  0  0  0  0  0
   -6.1640   20.0143  -32.1999 H   0  0  0  0  0  0  0  0  0  0  0  0
   -5.5941   18.3108  -32.1999 H   0  0  0  0  0  0  0  0  0  0  0  0
   -4.9710   20.4162  -34.0723 H   0  0  0  0  0  0  0  0  0  0  0  0
   -3.4609   19.9656  -33.2080 H   0  0  0  0  0  0  0  0  0  0  0  0
   -6.4878   18.5378  -34.3667 H   0  0  0  0  0  0  0  0  0  0  0  0
   -5.7228   17.6191  -35.7170 H   0  0  0  0  0  0  0  0  0  0  0  0
   -5.8947   16.7027  -32.8000 H   0  0  0  0  0  0  0  0  0  0  0  0
   -6.9121   16.1025  -34.1532 H   0  0  0  0  0  0  0  0  0  0  0  0
   -5.1430   15.7914  -34.1532 H   0  0  0  0  0  0  0  0  0  0  0  0
   -3.3458   17.5852  -32.6435 H   0  0  0  0  0  0  0  0  0  0  0  0
   -3.8611   16.4050  -33.9471 H   0  0  0  0  0  0  0  0  0  0  0  0
   -1.8651   16.5098  -34.9223 H   0  0  0  0  0  0  0  0  0  0  0  0
   -1.9592   18.3111  -35.0091 H   0  0  0  0  0  0  0  0  0  0  0  0
   -0.3830   16.7240  -33.1250 H   0  0  0  0  0  0  0  0  0  0  0  0
    1.2360   18.9717  -33.0473 H   0  0  0  0  0  0  0  0  0  0  0  0
    1.5756   20.9787  -31.6167 H   0  0  0  0  0  0  0  0  0  0  0  0
   -2.8893   18.7414  -31.7498 H   0  0  0  0  0  0  0  0  0  0  0  0
   -4.9023   22.3512  -29.4398 H   0  0  0  0  0  0  0  0  0  0  0  0
   -4.8990   25.6730  -27.8480 H   0  0  0  0  0  0  0  0  0  0  0  0
   -5.7380   24.2040  -27.9200 H   0  0  0  0  0  0  0  0  0  0  0  0
   -6.6448   25.9900  -29.3727 H   0  0  0  0  0  0  0  0  0  0  0  0
   -5.1128   25.8493  -30.3136 H   0  0  0  0  0  0  0  0  0  0  0  0
   -5.3424   24.6166  -32.2687 H   0  0  0  0  0  0  0  0  0  0  0  0
   -6.2577   22.6531  -33.5077 H   0  0  0  0  0  0  0  0  0  0  0  0
   -7.8027   21.0603  -32.3612 H   0  0  0  0  0  0  0  0  0  0  0  0
   -8.4340   21.4313  -29.9740 H   0  0  0  0  0  0  0  0  0  0  0  0
   -7.5297   23.3968  -28.7311 H   0  0  0  0  0  0  0  0  0  0  0  0
   -2.6284   25.8705  -28.3410 H   0  0  0  0  0  0  0  0  0  0  0  0
   -0.5216   24.7190  -28.9999 H   0  0  0  0  0  0  0  0  0  0  0  0
    0.4871   22.8275  -30.3696 H   0  0  0  0  0  0  0  0  0  0  0  0
    1.3387   21.1965  -28.7470 H   0  0  0  0  0  0  0  0  0  0  0  0
    0.3738   22.4591  -27.8588 H   0  0  0  0  0  0  0  0  0  0  0  0
    0.7143   18.9004  -28.6444 H   0  0  0  0  0  0  0  0  0  0  0  0
   -0.6884   17.1412  -27.5666 H   0  0  0  0  0  0  0  0  0  0  0  0
   -2.7260   17.7813  -26.2725 H   0  0  0  0  0  0  0  0  0  0  0  0
   -3.3498   20.1880  -26.0373 H   0  0  0  0  0  0  0  0  0  0  0  0
   -1.9413   21.9553  -27.0961 H   0  0  0  0  0  0  0  0  0  0  0  0
  1  2  1  0
  2  3  1  0
  3  4  1  0
  4  5  1  0
  3  6  1  0
  6  7  1  0
  7  8  1  0
  8  9  1  0
  9 10  2  0
 10 11  1  0
 11 12  2  0
 12 13  1  0
 13 14  2  0
 13 15  1  0
 15 16  1  0
 16 17  2  0
 17 18  1  0
 18 19  1  0
 19 20  1  0
 20 21  1  0
 21 22  2  0
 22 23  1  0
 23 24  2  0
 24 25  1  0
 25 26  2  0
 18 27  2  0
 27 28  1  0
 28 29  2  0
 29 30  1  0
 30 31  1  0
 31 32  1  0
 32 33  2  0
 33 34  1  0
 34 35  2  0
 35 36  1  0
 36 37  2  0
 14  9  1  0
 29 16  1  0
 37 32  1  0
 30 12  1  0
 26 21  1  0
  1 38  1  0
  1 39  1  0
  1 40  1  0
  2 41  1  0
  2 42  1  0
  4 43  1  0
  4 44  1  0
  5 45  1  0
  5 46  1  0
  5 47  1  0
  6 48  1  0
  6 49  1  0
  7 50  1  0
  7 51  1  0
  8 52  1  0
 10 53  1  0
 11 54  1  0
 14 55  1  0
 17 56  1  0
 19 57  1  0
 19 58  1  0
 20 59  1  0
 20 60  1  0
 22 61  1  0
 23 62  1  0
 24 63  1  0
 25 64  1  0
 26 65  1  0
 27 66  1  0
 28 67  1  0
 30 68  1  6
 31 69  1  0
 31 70  1  0
 33 71  1  0
 34 72  1  0
 35 73  1  0
 36 74  1  0
 37 75  1  0
M  CHG  1  19   1
M  END
>  <UniqueID>  (1) 
1

>  <SMILES>  (1) 
CCN(CC)CCNc1ccc2c(c1)Oc1cc([NH2+]Cc3ccccc3)ccc1[C@H]2Cc1ccccc1

>  <Energy>  (1) 
81.95616313647464

>  <Genealogy>  (1) 
CCN(CC)CCNc1ccc2c(c1)Oc1cc([NH2+]Cc3ccccc3)ccc1C2Cc1ccccc1 (protonated)
CCN(CC)CCNc1ccc2c(c1)Oc1cc([NH2+]Cc3ccccc3)ccc1[C@H]2Cc1ccccc1 (chirality)
CCN(CC)CCNc1ccc2c(c1)Oc1cc([NH2+]Cc3ccccc3)ccc1[C@H]2Cc1ccccc1 (3D coordinates assigned)
CCN(CC)CCNc1ccc2c(c1)Oc1cc([NH2+]Cc3ccccc3)ccc1[C@H]2Cc1ccccc1 (nonaromatic ring conformer: 81.95616313647464 kcal/mol)

>  <smiles>  (1) 
CCN(CC)CCNc1ccc2c(c1)Oc1cc(NCc3ccccc3)ccc1C2Cc1ccccc1

>  <score_type>  (1) 
oracle

>  <origin>  (1) 
adg

>  <m_score__min__energy>  (1) 
-10.359999999999999

>  <m_primary>  (1) 
energy

$$$$
1:0
     RDKit          3D

 42 43  0  0  0  0  0  0  0  0999 V2000
   -4.5190   18.8680  -32.9830 C   0  0  0  0  0  0  0  0  0  0  0  0
   -5.5140   19.7030  -33.7960 C   0  0  0  0  0  0  0  0  0  0  0  0
   -6.8520   19.0850  -33.8700 N   0  0  0  0  0  0  0  0  0  0  0  0
   -7.2990   18.4210  -32.6290 C   0  0  0  0  0  0  0  0  0  0  0  0
   -8.5900   19.0080  -32.0080 C   0  0  0  0  0  0  0  0  0  0  0  0
   -9.3190   19.9580  -32.8690 N   0  0  0  0  0  0  0  0  0  0  0  0
   -9.4730   21.3090  -32.3060 C   0  0  0  0  0  0  0  0  0  0  0  0
   -8.1760   21.8350  -31.6670 C   0  0  0  0  0  0  0  0  0  0  0  0
   -7.9430   23.3370  -31.8920 C   0  0  0  0  0  0  0  0  0  0  0  0
   -6.7360   23.8340  -31.1480 C   0  0  0  0  0  0  0  0  0  0  0  0
   -6.7120   24.8690  -30.2180 C   0  0  0  0  0  0  0  0  0  0  0  0
   -5.4720   25.0040  -29.6930 N   0  0  0  0  0  0  0  0  0  0  0  0
   -4.7160   24.0580  -30.2770 C   0  0  0  0  0  0  0  0  0  0  0  0
   -3.3670   23.7940  -30.0460 C   0  0  0  0  0  0  0  0  0  0  0  0
   -2.7700   22.7400  -30.7620 C   0  0  0  0  0  0  0  0  0  0  0  0
   -3.5270   21.9820  -31.6820 C   0  0  0  0  0  0  0  0  0  0  0  0
   -4.8870   22.2700  -31.8960 C   0  0  0  0  0  0  0  0  0  0  0  0
   -5.4520   23.3220  -31.1710 C   0  0  0  0  0  0  0  0  0  0  0  0
   -4.7024   19.0219  -31.9094 H   0  0  0  0  0  0  0  0  0  0  0  0
   -4.6475   17.8034  -33.2280 H   0  0  0  0  0  0  0  0  0  0  0  0
   -3.4928   19.1793  -33.2280 H   0  0  0  0  0  0  0  0  0  0  0  0
   -5.6094   20.6927  -33.3254 H   0  0  0  0  0  0  0  0  0  0  0  0
   -5.1251   19.7753  -34.8224 H   0  0  0  0  0  0  0  0  0  0  0  0
   -7.5500   19.8270  -34.1110 H   0  0  0  0  0  0  0  0  0  0  0  0
   -6.8670   18.3990  -34.6600 H   0  0  0  0  0  0  0  0  0  0  0  0
   -7.4796   17.3596  -32.8546 H   0  0  0  0  0  0  0  0  0  0  0  0
   -6.5003   18.5773  -31.8889 H   0  0  0  0  0  0  0  0  0  0  0  0
   -9.2659   18.1727  -31.7726 H   0  0  0  0  0  0  0  0  0  0  0  0
   -8.2738   19.5768  -31.1211 H   0  0  0  0  0  0  0  0  0  0  0  0
   -8.8550   20.0230  -33.8030 H   0  0  0  0  0  0  0  0  0  0  0  0
   -9.7717   21.9948  -33.1125 H   0  0  0  0  0  0  0  0  0  0  0  0
  -10.2360   21.2555  -31.5155 H   0  0  0  0  0  0  0  0  0  0  0  0
   -8.2220   21.6489  -30.5838 H   0  0  0  0  0  0  0  0  0  0  0  0
   -7.3415   21.3040  -32.1484 H   0  0  0  0  0  0  0  0  0  0  0  0
   -7.7971   23.5172  -32.9673 H   0  0  0  0  0  0  0  0  0  0  0  0
   -8.8230   23.8789  -31.5151 H   0  0  0  0  0  0  0  0  0  0  0  0
   -7.5788   25.4899  -29.9477 H   0  0  0  0  0  0  0  0  0  0  0  0
   -5.1720   25.6950  -28.9710 H   0  0  0  0  0  0  0  0  0  0  0  0
   -2.7873   24.3909  -29.3265 H   0  0  0  0  0  0  0  0  0  0  0  0
   -1.7070   22.5051  -30.6041 H   0  0  0  0  0  0  0  0  0  0  0  0
   -3.0495   21.1601  -32.2355 H   0  0  0  0  0  0  0  0  0  0  0  0
   -5.4859   21.6862  -32.6105 H   0  0  0  0  0  0  0  0  0  0  0  0
  1  2  1  0
  2  3  1  0
  3  4  1  0
  4  5  1  0
  5  6  1  0
  6  7  1  0
  7  8  1  0
  8  9  1  0
  9 10  1  0
 10 11  2  0
 11 12  1  0
 12 13  1  0
 13 14  2  0
 14 15  1  0
 15 16  2  0
 16 17  1  0
 17 18  2  0
 18 10  1  0
 18 13  1  0
  1 19  1  0
  1 20  1  0
  1 21  1  0
  2 22  1  0
  2 23  1  0
  3 24  1  0
  3 25  1  0
  4 26  1  0
  4 27  1  0
  5 28  1  0
  5 29  1  0
  6 30  1  0
  7 31  1  0
  7 32  1  0
  8 33  1  0
  8 34  1  0
  9 35  1  0
  9 36  1  0
 11 37  1  0
 12 38  1  0
 14 39  1  0
 15 40  1  0
 16 41  1  0
 17 42  1  0
M  CHG  1   3   1
M  END
>  <UniqueID>  (2) 
2

>  <SMILES>  (2) 
CC[NH2+]CCNCCCc1c[nH]c2ccccc12

>  <Energy>  (2) 
71.4364682591244

>  <Genealogy>  (2) 
CC[NH2+]CCNCCCc1c[nH]c2ccccc12 (protonated)
CC[NH2+]CCNCCCc1c[nH]c2ccccc12 (3D coordinates assigned)
CC[NH2+]CCNCCCc1c[nH]c2ccccc12 (optimized conformer: 71.4364682591244 kcal/mol)

>  <smiles>  (2) 
CCNCCNCCCc1c[nH]c2ccccc12

>  <score_type>  (2) 
oracle

>  <origin>  (2) 
adg

>  <m_score__min__energy>  (2) 
-7.4900000000000002

>  <m_primary>  (2) 
energy

$$$$
2:0
     RDKit          3D

 46 48  0  0  0  0  0  0  0  0999 V2000
   -2.6900   20.2720  -27.5160 C   0  0  0  0  0  0  0  0  0  0  0  0
   -2.7460   21.7960  -27.5310 C   0  0  0  0  0  0  0  0  0  0  0  0
   -1.4050   22.3530  -27.8240 N   0  0  0  0  0  0  0  0  0  0  0  0
   -0.3680   21.3170  -27.6660 C   0  0  0  0  0  0  0  0  0  0  0  0
   -1.0930   23.5190  -26.9660 C   0  0  0  0  0  0  0  0  0  0  0  0
   -2.0920   24.6650  -27.1930 C   0  0  0  0  0  0  0  0  0  0  0  0
   -1.8750   25.3200  -28.5220 C   0  0  0  0  0  0  0  0  0  0  0  0
   -1.4490   26.5050  -28.5750 O   0  0  0  0  0  0  0  0  0  0  0  0
   -2.1610   24.5900  -29.7200 N   0  0  0  0  0  0  0  0  0  0  0  0
   -3.4420   24.0770  -30.1100 C   0  0  0  0  0  0  0  0  0  0  0  0
   -4.5940   24.8830  -30.1110 C   0  0  0  0  0  0  0  0  0  0  0  0
   -5.8200   24.3620  -30.5340 C   0  0  0  0  0  0  0  0  0  0  0  0
   -5.9100   23.0280  -30.9740 C   0  0  0  0  0  0  0  0  0  0  0  0
   -7.1190   22.4600  -31.4120 C   0  0  0  0  0  0  0  0  0  0  0  0
   -8.1730   23.1610  -31.4110 O   0  0  0  0  0  0  0  0  0  0  0  0
   -7.1530   21.1520  -31.8360 N   0  0  0  0  0  0  0  0  0  0  0  0
   -8.3250   20.5880  -32.2740 C   0  0  0  0  0  0  0  0  0  0  0  0
   -8.3680   19.2580  -32.6980 C   0  0  0  0  0  0  0  0  0  0  0  0
   -7.2080   18.4820  -32.6690 C   0  0  0  0  0  0  0  0  0  0  0  0
   -7.2370   17.0600  -33.1500 C   0  0  0  0  0  0  0  0  0  0  0  0
   -6.0110   19.0650  -32.2450 C   0  0  0  0  0  0  0  0  0  0  0  0
   -5.9960   20.3990  -31.8260 C   0  0  0  0  0  0  0  0  0  0  0  0
   -4.8250   20.9440  -31.4090 N   0  0  0  0  0  0  0  0  0  0  0  0
   -4.7520   22.2300  -30.9870 C   0  0  0  0  0  0  0  0  0  0  0  0
   -3.5260   22.7560  -30.5670 C   0  0  0  0  0  0  0  0  0  0  0  0
   -2.6769   19.9158  -26.4754 H   0  0  0  0  0  0  0  0  0  0  0  0
   -3.5739   19.8675  -28.0309 H   0  0  0  0  0  0  0  0  0  0  0  0
   -1.7788   19.9335  -28.0309 H   0  0  0  0  0  0  0  0  0  0  0  0
   -3.4540   22.1262  -28.3054 H   0  0  0  0  0  0  0  0  0  0  0  0
   -3.0760   22.1534  -26.5444 H   0  0  0  0  0  0  0  0  0  0  0  0
   -0.1887   21.1379  -26.5956 H   0  0  0  0  0  0  0  0  0  0  0  0
   -0.7056   20.3847  -28.1423 H   0  0  0  0  0  0  0  0  0  0  0  0
    0.5640   21.6555  -28.1423 H   0  0  0  0  0  0  0  0  0  0  0  0
   -1.1370   23.2094  -25.9114 H   0  0  0  0  0  0  0  0  0  0  0  0
   -0.0868   23.8802  -27.2249 H   0  0  0  0  0  0  0  0  0  0  0  0
   -3.1147   24.2618  -27.1549 H   0  0  0  0  0  0  0  0  0  0  0  0
   -1.9414   25.4183  -26.4057 H   0  0  0  0  0  0  0  0  0  0  0  0
   -4.5301   25.9291  -29.7771 H   0  0  0  0  0  0  0  0  0  0  0  0
   -6.7181   24.9970  -30.5230 H   0  0  0  0  0  0  0  0  0  0  0  0
   -9.2440   21.1923  -32.2914 H   0  0  0  0  0  0  0  0  0  0  0  0
   -9.3136   18.8230  -33.0539 H   0  0  0  0  0  0  0  0  0  0  0  0
   -7.2509   16.3806  -32.2850 H   0  0  0  0  0  0  0  0  0  0  0  0
   -8.1387   16.8971  -33.7587 H   0  0  0  0  0  0  0  0  0  0  0  0
   -6.3427   16.8605  -33.7587 H   0  0  0  0  0  0  0  0  0  0  0  0
   -5.0822   18.4757  -32.2408 H   0  0  0  0  0  0  0  0  0  0  0  0
   -2.6229   22.1286  -30.5958 H   0  0  0  0  0  0  0  0  0  0  0  0
  1  2  1  0
  2  3  1  0
  3  4  1  0
  3  5  1  0
  5  6  1  0
  6  7  1  0
  7  8  2  0
  7  9  1  0
  9 10  1  0
 10 11  2  0
 11 12  1  0
 12 13  2  0
 13 14  1  0
 14 15  2  0
 14 16  1  0
 16 17  1  0
 17 18  2  0
 18 19  1  0
 19 20  1  0
 19 21  2  0
 21 22  1  0
 22 23  2  0
 23 24  1  0
 24 25  2  0
 25 10  1  0
 24 13  1  0
 22 16  1  0
  1 26  1  0
  1 27  1  0
  1 28  1  0
  2 29  1  0
  2 30  1  0
  4 31  1  0
  4 32  1  0
  4 33  1  0
  5 34  1  0
  5 35  1  0
  6 36  1  0
  6 37  1  0
 11 38  1  0
 12 39  1  0
 17 40  1  0
 18 41  1  0
 20 42  1  0
 20 43  1  0
 20 44  1  0
 21 45  1  0
 25 46  1  0
M  CHG  1   9  -1
M  END
>  <UniqueID>  (3) 
3

>  <SMILES>  (3) 
CCN(C)CCC(=O)[N-]c1ccc2c(=O)n3ccc(C)cc3nc2c1

>  <Energy>  (3) 
56.26876423495508

>  <Genealogy>  (3) 
CCN(C)CCC(=O)[N-]c1ccc2c(=O)n3ccc(C)cc3nc2c1 (protonated)
CCN(C)CCC(=O)[N-]c1ccc2c(=O)n3ccc(C)cc3nc2c1 (3D coordinates assigned)
CCN(C)CCC(=O)[N-]c1ccc2c(=O)n3ccc(C)cc3nc2c1 (optimized conformer: 56.26876423495508 kcal/mol)

>  <smiles>  (3) 
CCN(C)CCC(=O)Nc1ccc2c(=O)n3ccc(C)cc3nc2c1

>  <score_type>  (3) 
oracle

>  <origin>  (3) 
adg

>  <m_score__min__energy>  (3) 
-10.4

>  <m_primary>  (3) 
energy

$$$$
3:0
     RDKit          3D

 34 36  0  0  0  0  0  0  0  0999 V2000
   -5.3210   17.7690  -35.2760 C   0  0  0  0  0  0  0  0  0  0  0  0
   -5.0490   18.2110  -34.1880 C   0  0  0  0  0  0  0  0  0  0  0  0
   -4.7160   18.7460  -32.8660 C   0  0  0  0  0  0  0  0  0  0  0  0
   -5.5020   19.9530  -32.6030 N   0  0  0  0  0  0  0  0  0  0  0  0
   -5.0880   21.2460  -32.6470 C   0  0  0  0  0  0  0  0  0  0  0  0
   -3.3940   21.7540  -32.9600 S   0  0  0  0  0  0  0  0  0  0  0  0
   -2.7840   21.2670  -31.3080 C   0  0  0  0  0  0  0  0  0  0  0  0
   -3.2970   22.2010  -30.2450 C   0  0  0  0  0  0  0  0  0  0  0  0
   -2.9920   21.9770  -28.8920 C   0  0  0  0  0  0  0  0  0  0  0  0
   -3.5010   22.8270  -27.9060 C   0  0  0  0  0  0  0  0  0  0  0  0
   -4.3180   23.9040  -28.2630 C   0  0  0  0  0  0  0  0  0  0  0  0
   -4.6280   24.1320  -29.6070 C   0  0  0  0  0  0  0  0  0  0  0  0
   -5.7500   25.6000  -30.0910 Br  0  0  0  0  0  0  0  0  0  0  0  0
   -4.1210   23.2820  -30.5960 C   0  0  0  0  0  0  0  0  0  0  0  0
   -6.0830   22.1440  -32.4280 N   0  0  0  0  0  0  0  0  0  0  0  0
   -7.1600   21.3590  -32.2460 C   0  0  0  0  0  0  0  0  0  0  0  0
   -8.4690   21.7620  -31.9900 C   0  0  0  0  0  0  0  0  0  0  0  0
   -9.4470   20.7590  -31.8520 C   0  0  0  0  0  0  0  0  0  0  0  0
   -9.0970   19.3950  -31.9750 C   0  0  0  0  0  0  0  0  0  0  0  0
   -7.7660   19.0210  -32.2340 C   0  0  0  0  0  0  0  0  0  0  0  0
   -6.8190   20.0410  -32.3570 C   0  0  0  0  0  0  0  0  0  0  0  0
   -5.5692   17.3657  -36.2688 H   0  0  0  0  0  0  0  0  0  0  0  0
   -4.9415   17.9900  -32.0995 H   0  0  0  0  0  0  0  0  0  0  0  0
   -3.6457   18.9981  -32.8371 H   0  0  0  0  0  0  0  0  0  0  0  0
   -3.1266   20.2458  -31.0850 H   0  0  0  0  0  0  0  0  0  0  0  0
   -1.6850   21.3130  -31.3134 H   0  0  0  0  0  0  0  0  0  0  0  0
   -2.3505   21.1299  -28.6077 H   0  0  0  0  0  0  0  0  0  0  0  0
   -3.2585   22.6484  -26.8480 H   0  0  0  0  0  0  0  0  0  0  0  0
   -4.7171   24.5724  -27.4858 H   0  0  0  0  0  0  0  0  0  0  0  0
   -4.3690   23.4615  -31.6525 H   0  0  0  0  0  0  0  0  0  0  0  0
   -8.7291   22.8269  -31.8989 H   0  0  0  0  0  0  0  0  0  0  0  0
  -10.4909   21.0386  -31.6470 H   0  0  0  0  0  0  0  0  0  0  0  0
   -9.8709   18.6207  -31.8674 H   0  0  0  0  0  0  0  0  0  0  0  0
   -7.4809   17.9635  -32.3361 H   0  0  0  0  0  0  0  0  0  0  0  0
  1  2  3  0
  2  3  1  0
  3  4  1  0
  4  5  1  0
  5  6  1  0
  6  7  1  0
  7  8  1  0
  8  9  2  0
  9 10  1  0
 10 11  2  0
 11 12  1  0
 12 13  1  0
 12 14  2  0
  5 15  2  0
 15 16  1  0
 16 17  2  0
 17 18  1  0
 18 19  2  0
 19 20  1  0
 20 21  2  0
 21  4  1  0
 14  8  1  0
 21 16  1  0
  1 22  1  0
  3 23  1  0
  3 24  1  0
  7 25  1  0
  7 26  1  0
  9 27  1  0
 10 28  1  0
 11 29  1  0
 14 30  1  0
 17 31  1  0
 18 32  1  0
 19 33  1  0
 20 34  1  0
M  END
>  <UniqueID>  (4) 
4

>  <SMILES>  (4) 
C#CCn1c(SCc2cccc(Br)c2)nc2ccccc21

>  <Energy>  (4) 
65.61117136381507

>  <Genealogy>  (4) 
C#CCn1c(SCc2cccc(Br)c2)nc2ccccc21 (3D coordinates assigned)
C#CCn1c(SCc2cccc(Br)c2)nc2ccccc21 (optimized conformer: 65.61117136381507 kcal/mol)

>  <smiles>  (4) 
C#CCn1c(SCc2cccc(Br)c2)nc2ccccc21

>  <score_type>  (4) 
oracle

>  <origin>  (4) 
adg

>  <m_score__min__energy>  (4) 
-7.8700000000000001

>  <m_primary>  (4) 
energy

$$$$
4:0
     RDKit          3D

 34 37  0  0  0  0  0  0  0  0999 V2000
   -6.9270   17.0060  -33.1030 C   0  0  0  0  0  0  0  0  0  0  0  0
   -7.1600   18.3240  -32.5260 N   0  0  0  0  0  0  0  0  0  0  0  0
   -6.2710   19.3310  -32.4820 C   0  0  0  0  0  0  0  0  0  0  0  0
   -6.8970   20.4340  -31.9280 C   0  0  0  0  0  0  0  0  0  0  0  0
   -6.3170   21.7780  -31.6810 C   0  0  0  0  0  0  0  0  0  0  0  0
   -5.0470   21.9010  -31.0650 C   0  0  0  0  0  0  0  0  0  0  0  0
   -4.5530   23.1880  -30.8670 C   0  0  0  0  0  0  0  0  0  0  0  0
   -3.4060   23.6920  -30.2820 C   0  0  0  0  0  0  0  0  0  0  0  0
   -2.2610   22.9440  -29.7230 C   0  0  0  0  0  0  0  0  0  0  0  0
   -1.7890   23.2010  -28.4230 C   0  0  0  0  0  0  0  0  0  0  0  0
   -0.7110   22.4730  -27.9070 C   0  0  0  0  0  0  0  0  0  0  0  0
   -0.1050   21.4770  -28.6780 C   0  0  0  0  0  0  0  0  0  0  0  0
    0.9380   20.7710  -28.1740 F   0  0  0  0  0  0  0  0  0  0  0  0
   -0.5810   21.2010  -29.9620 C   0  0  0  0  0  0  0  0  0  0  0  0
   -1.6580   21.9260  -30.4810 C   0  0  0  0  0  0  0  0  0  0  0  0
   -3.4880   25.0440  -30.2840 N   0  0  0  0  0  0  0  0  0  0  0  0
   -4.6320   25.4120  -30.8560 N   0  0  0  0  0  0  0  0  0  0  0  0
   -5.2750   24.2880  -31.2110 C   0  0  0  0  0  0  0  0  0  0  0  0
   -6.5210   24.1690  -31.8090 C   0  0  0  0  0  0  0  0  0  0  0  0
   -7.0120   22.9130  -32.0390 N   0  0  0  0  0  0  0  0  0  0  0  0
   -8.1920   20.0090  -31.6690 C   0  0  0  0  0  0  0  0  0  0  0  0
   -8.3270   18.7240  -32.0490 N   0  0  0  0  0  0  0  0  0  0  0  0
   -6.7969   16.2701  -32.2958 H   0  0  0  0  0  0  0  0  0  0  0  0
   -7.7886   16.7202  -33.7243 H   0  0  0  0  0  0  0  0  0  0  0  0
   -6.0197   17.0329  -33.7243 H   0  0  0  0  0  0  0  0  0  0  0  0
   -5.2273   19.2863  -32.8264 H   0  0  0  0  0  0  0  0  0  0  0  0
   -4.4737   21.0148  -30.7553 H   0  0  0  0  0  0  0  0  0  0  0  0
   -2.2693   23.9775  -27.8095 H   0  0  0  0  0  0  0  0  0  0  0  0
   -0.3401   22.6849  -26.8933 H   0  0  0  0  0  0  0  0  0  0  0  0
   -0.1079   20.4123  -30.5655 H   0  0  0  0  0  0  0  0  0  0  0  0
   -2.0355   21.6981  -31.4887 H   0  0  0  0  0  0  0  0  0  0  0  0
   -7.0992   25.0613  -32.0909 H   0  0  0  0  0  0  0  0  0  0  0  0
   -7.9450   22.8400  -32.5010 H   0  0  0  0  0  0  0  0  0  0  0  0
   -8.9856   20.6260  -31.2224 H   0  0  0  0  0  0  0  0  0  0  0  0
  1  2  1  0
  2  3  1  0
  3  4  2  0
  4  5  1  0
  5  6  2  0
  6  7  1  0
  7  8  2  0
  8  9  1  0
  9 10  2  0
 10 11  1  0
 11 12  2  0
 12 13  1  0
 12 14  1  0
 14 15  2  0
  8 16  1  0
 16 17  1  0
 17 18  2  0
 18 19  1  0
 19 20  2  0
  4 21  1  0
 21 22  2  0
 22  2  1  0
 20  5  1  0
 18  7  1  0
 15  9  1  0
  1 23  1  0
  1 24  1  0
  1 25  1  0
  3 26  1  0
  6 27  1  0
 10 28  1  0
 11 29  1  0
 14 30  1  0
 15 31  1  0
 19 32  1  0
 20 33  1  0
 21 34  1  0
M  CHG  2  16  -1  20   1
M  END
>  <UniqueID>  (5) 
5

>  <SMILES>  (5) 
Cn1cc(-c2cc3c(-c4ccc(F)cc4)[n-]nc3c[nH+]2)cn1

>  <Energy>  (5) 
112.3862436491614

>  <Genealogy>  (5) 
Cn1cc(-c2cc3c(-c4ccc(F)cc4)[n-]nc3c[nH+]2)cn1 (protonated)
Cn1cc(-c2cc3c(-c4ccc(F)cc4)[n-]nc3c[nH+]2)cn1 (3D coordinates assigned)
Cn1cc(-c2cc3c(-c4ccc(F)cc4)[n-]nc3c[nH+]2)cn1 (optimized conformer: 112.3862436491614 kcal/mol)

>  <smiles>  (5) 
Cn1cc(-c2cc3c(-c4ccc(F)cc4)[nH]nc3cn2)cn1

>  <score_type>  (5) 
oracle

>  <origin>  (5) 
adg

>  <m_score__min__energy>  (5) 
-8.6099999999999994

>  <m_primary>  (5) 
energy

$$$$
5:0
     RDKit          3D

 49 52  0  0  0  0  0  0  0  0999 V2000
   -3.9650   20.2150  -33.0170 C   0  0  0  0  0  0  0  0  0  0  0  0
   -4.5770   19.0730  -33.7670 C   0  0  0  0  0  0  0  0  0  0  0  0
   -3.8530   18.2610  -34.5660 N   0  0  0  0  0  0  0  0  0  0  0  0
   -4.7570   17.4030  -35.0780 C   0  0  0  0  0  0  0  0  0  0  0  0
   -6.0080   17.7010  -34.5860 C   0  0  0  0  0  0  0  0  0  0  0  0
   -5.8910   18.7470  -33.7490 N   0  0  0  0  0  0  0  0  0  0  0  0
   -6.9650   19.3720  -33.0230 C   0  0  0  0  0  0  0  0  0  0  0  0
   -8.0560   18.6080  -32.5840 C   0  0  0  0  0  0  0  0  0  0  0  0
   -9.0980   19.2090  -31.8730 C   0  0  0  0  0  0  0  0  0  0  0  0
   -9.0580   20.5770  -31.5940 C   0  0  0  0  0  0  0  0  0  0  0  0
   -7.9730   21.3580  -32.0240 C   0  0  0  0  0  0  0  0  0  0  0  0
   -7.9250   22.8410  -31.7140 C   0  0  0  0  0  0  0  0  0  0  0  0
   -6.7020   23.2650  -30.9950 N   0  0  0  0  0  0  0  0  0  0  0  0
   -6.9010   24.4690  -30.1580 C   0  0  0  0  0  0  0  0  0  0  0  0
   -5.5770   25.1350  -29.7210 C   0  0  0  0  0  0  0  0  0  0  0  0
   -4.4370   24.2070  -29.7930 N   0  0  0  0  0  0  0  0  0  0  0  0
   -3.3410   24.3440  -28.8660 C   0  0  0  0  0  0  0  0  0  0  0  0
   -3.5830   24.5510  -27.4950 C   0  0  0  0  0  0  0  0  0  0  0  0
   -2.5180   24.6880  -26.6000 C   0  0  0  0  0  0  0  0  0  0  0  0
   -1.2020   24.6200  -27.0620 C   0  0  0  0  0  0  0  0  0  0  0  0
   -0.9480   24.4140  -28.4200 C   0  0  0  0  0  0  0  0  0  0  0  0
   -2.0110   24.2760  -29.3190 C   0  0  0  0  0  0  0  0  0  0  0  0
   -4.2730   23.3330  -30.9650 C   0  0  0  0  0  0  0  0  0  0  0  0
   -5.5140   23.3640  -31.8540 C   0  0  0  0  0  0  0  0  0  0  0  0
   -6.9180   20.7420  -32.7180 C   0  0  0  0  0  0  0  0  0  0  0  0
   -4.0605   20.0368  -31.9357 H   0  0  0  0  0  0  0  0  0  0  0  0
   -2.9008   20.2994  -33.2821 H   0  0  0  0  0  0  0  0  0  0  0  0
   -4.4840   21.1479  -33.2821 H   0  0  0  0  0  0  0  0  0  0  0  0
   -4.5302   16.5886  -35.7818 H   0  0  0  0  0  0  0  0  0  0  0  0
   -6.9414   17.1747  -34.8345 H   0  0  0  0  0  0  0  0  0  0  0  0
   -8.0916   17.5301  -32.8005 H   0  0  0  0  0  0  0  0  0  0  0  0
   -9.9511   18.6038  -31.5325 H   0  0  0  0  0  0  0  0  0  0  0  0
   -9.8811   21.0453  -31.0343 H   0  0  0  0  0  0  0  0  0  0  0  0
   -7.9784   23.3949  -32.6628 H   0  0  0  0  0  0  0  0  0  0  0  0
   -8.7757   23.0559  -31.0506 H   0  0  0  0  0  0  0  0  0  0  0  0
   -7.4869   25.2011  -30.7331 H   0  0  0  0  0  0  0  0  0  0  0  0
   -7.4216   24.1479  -29.2437 H   0  0  0  0  0  0  0  0  0  0  0  0
   -5.3776   25.9927  -30.3802 H   0  0  0  0  0  0  0  0  0  0  0  0
   -5.6884   25.4521  -28.6736 H   0  0  0  0  0  0  0  0  0  0  0  0
   -4.6175   24.6054  -27.1252 H   0  0  0  0  0  0  0  0  0  0  0  0
   -2.7169   24.8496  -25.5303 H   0  0  0  0  0  0  0  0  0  0  0  0
   -0.3652   24.7287  -26.3564 H   0  0  0  0  0  0  0  0  0  0  0  0
    0.0890   24.3602  -28.7830 H   0  0  0  0  0  0  0  0  0  0  0  0
   -1.8054   24.1132  -30.3873 H   0  0  0  0  0  0  0  0  0  0  0  0
   -3.4050   23.6739  -31.5483 H   0  0  0  0  0  0  0  0  0  0  0  0
   -4.1223   22.3019  -30.6126 H   0  0  0  0  0  0  0  0  0  0  0  0
   -5.5422   24.3068  -32.4199 H   0  0  0  0  0  0  0  0  0  0  0  0
   -5.4907   22.5252  -32.5652 H   0  0  0  0  0  0  0  0  0  0  0  0
   -6.0466   21.3388  -33.0255 H   0  0  0  0  0  0  0  0  0  0  0  0
  1  2  1  0
  2  3  2  0
  3  4  1  0
  4  5  2  0
  5  6  1  0
  6  7  1  0
  7  8  2  0
  8  9  1  0
  9 10  2  0
 10 11  1  0
 11 12  1  0
 12 13  1  0
 13 14  1  0
 14 15  1  0
 15 16  1  0
 16 17  1  0
 17 18  2  0
 18 19  1  0
 19 20  2  0
 20 21  1  0
 21 22  2  0
 16 23  1  0
 23 24  1  0
 11 25  2  0
  6  2  1  0
 25  7  1  0
 24 13  1  0
 22 17  1  0
  1 26  1  0
  1 27  1  0
  1 28  1  0
  4 29  1  0
  5 30  1  0
  8 31  1  0
  9 32  1  0
 10 33  1  0
 12 34  1  0
 12 35  1  0
 14 36  1  0
 14 37  1  0
 15 38  1  0
 15 39  1  0
 18 40  1  0
 19 41  1  0
 20 42  1  0
 21 43  1  0
 22 44  1  0
 23 45  1  0
 23 46  1  0
 24 47  1  0
 24 48  1  0
 25 49  1  0
M  END
>  <UniqueID>  (6) 
6

>  <SMILES>  (6) 
Cc1nccn1-c1cccc(CN2CCN(c3ccccc3)CC2)c1

>  <Energy>  (6) 
97.14179978981026

>  <Genealogy>  (6) 
Cc1nccn1-c1cccc(CN2CCN(c3ccccc3)CC2)c1 (3D coordinates assigned)
Cc1nccn1-c1cccc(CN2CCN(c3ccccc3)CC2)c1 (nonaromatic ring conformer: 97.14179978981026 kcal/mol)

>  <smiles>  (6) 
Cc1nccn1-c1cccc(CN2CCN(c3ccccc3)CC2)c1

>  <score_type>  (6) 
oracle

>  <origin>  (6) 
adg

>  <m_score__min__energy>  (6) 
-8.9199999999999999

>  <m_primary>  (6) 
energy

$$$$
6:0
     RDKit          3D

 57 60  0  0  0  0  0  0  0  0999 V2000
    1.2000   20.2670  -33.4880 C   0  0  0  0  0  0  0  0  0  0  0  0
    1.2840   19.3300  -32.2860 C   0  0  0  0  0  0  0  0  0  0  0  0
   -0.0380   19.1840  -31.6370 N   0  0  0  0  0  0  0  0  0  0  0  0
   -0.6150   20.4850  -31.2250 C   0  0  0  0  0  0  0  0  0  0  0  0
   -1.9640   20.8000  -31.8880 C   0  0  0  0  0  0  0  0  0  0  0  0
   -0.0530   18.1750  -30.5510 C   0  0  0  0  0  0  0  0  0  0  0  0
    1.2010   18.3310  -29.6920 C   0  0  0  0  0  0  0  0  0  0  0  0
    0.7950   18.1250  -27.9690 S   0  0  0  0  0  0  0  0  0  0  0  0
    0.8280   16.5130  -27.4940 O   0  0  0  0  0  0  0  0  0  0  0  0
   -0.7280   18.8960  -27.5630 C   0  0  0  0  0  0  0  0  0  0  0  0
   -1.6530   18.2550  -26.7330 C   0  0  0  0  0  0  0  0  0  0  0  0
   -2.8780   18.8650  -26.4520 C   0  0  0  0  0  0  0  0  0  0  0  0
   -3.1930   20.1060  -27.0150 C   0  0  0  0  0  0  0  0  0  0  0  0
   -2.2750   20.7550  -27.8630 C   0  0  0  0  0  0  0  0  0  0  0  0
   -2.6160   22.0280  -28.5420 C   0  0  0  0  0  0  0  0  0  0  0  0
   -1.7690   23.1620  -28.4780 C   0  0  0  0  0  0  0  0  0  0  0  0
   -2.1560   24.3360  -29.1420 C   0  0  0  0  0  0  0  0  0  0  0  0
   -1.4250   25.3630  -29.1180 O   0  0  0  0  0  0  0  0  0  0  0  0
   -3.3340   24.3330  -29.8130 N   0  0  0  0  0  0  0  0  0  0  0  0
   -3.8630   25.3220  -30.5130 N   0  0  0  0  0  0  0  0  0  0  0  0
   -5.0300   24.8580  -31.0230 C   0  0  0  0  0  0  0  0  0  0  0  0
   -5.2410   23.5370  -30.6240 C   0  0  0  0  0  0  0  0  0  0  0  0
   -6.3860   22.6580  -30.9690 C   0  0  0  0  0  0  0  0  0  0  0  0
   -6.3190   21.7830  -32.0680 C   0  0  0  0  0  0  0  0  0  0  0  0
   -7.4100   20.9690  -32.3710 C   0  0  0  0  0  0  0  0  0  0  0  0
   -8.5570   21.0240  -31.5810 C   0  0  0  0  0  0  0  0  0  0  0  0
   -8.5940   21.8950  -30.4920 C   0  0  0  0  0  0  0  0  0  0  0  0
   -7.5220   22.6840  -30.2070 N   0  0  0  0  0  0  0  0  0  0  0  0
   -4.1260   23.2600  -29.8600 C   0  0  0  0  0  0  0  0  0  0  0  0
   -3.7850   22.1010  -29.2490 N   0  0  0  0  0  0  0  0  0  0  0  0
   -1.0370   20.1400  -28.1220 C   0  0  0  0  0  0  0  0  0  0  0  0
    1.1069   21.3055  -33.1375 H   0  0  0  0  0  0  0  0  0  0  0  0
    2.1108   20.1656  -34.0963 H   0  0  0  0  0  0  0  0  0  0  0  0
    0.3217   20.0052  -34.0963 H   0  0  0  0  0  0  0  0  0  0  0  0
    1.6309   18.3420  -32.6230 H   0  0  0  0  0  0  0  0  0  0  0  0
    1.9885   19.7562  -31.5566 H   0  0  0  0  0  0  0  0  0  0  0  0
   -0.7588   20.4713  -30.1345 H   0  0  0  0  0  0  0  0  0  0  0  0
    0.0907   21.2655  -31.5456 H   0  0  0  0  0  0  0  0  0  0  0  0
   -2.7221   20.9770  -31.1108 H   0  0  0  0  0  0  0  0  0  0  0  0
   -1.8639   21.6989  -32.5140 H   0  0  0  0  0  0  0  0  0  0  0  0
   -2.2723   19.9497  -32.5140 H   0  0  0  0  0  0  0  0  0  0  0  0
   -0.9461   18.3226  -29.9260 H   0  0  0  0  0  0  0  0  0  0  0  0
   -0.0738   17.1661  -30.9888 H   0  0  0  0  0  0  0  0  0  0  0  0
    1.9393   17.5700  -29.9850 H   0  0  0  0  0  0  0  0  0  0  0  0
    1.6184   19.3372  -29.8450 H   0  0  0  0  0  0  0  0  0  0  0  0
    0.2030   16.4580  -26.7280 H   0  0  0  0  0  0  0  0  0  0  0  0
   -1.4163   17.2712  -26.3017 H   0  0  0  0  0  0  0  0  0  0  0  0
   -3.5977   18.3673  -25.7853 H   0  0  0  0  0  0  0  0  0  0  0  0
   -4.1622   20.5772  -26.7944 H   0  0  0  0  0  0  0  0  0  0  0  0
   -0.8236   23.1227  -27.9170 H   0  0  0  0  0  0  0  0  0  0  0  0
   -5.7130   25.4391  -31.6600 H   0  0  0  0  0  0  0  0  0  0  0  0
   -5.4099   21.7409  -32.6859 H   0  0  0  0  0  0  0  0  0  0  0  0
   -7.3655   20.2851  -33.2314 H   0  0  0  0  0  0  0  0  0  0  0  0
   -9.4235   20.3876  -31.8137 H   0  0  0  0  0  0  0  0  0  0  0  0
   -9.4935   21.9445  -29.8607 H   0  0  0  0  0  0  0  0  0  0  0  0
   -7.5950   23.3320  -29.3920 H   0  0  0  0  0  0  0  0  0  0  0  0
   -0.3045   20.6425  -28.7707 H   0  0  0  0  0  0  0  0  0  0  0  0
  1  2  1  0
  2  3  1  0
  3  4  1  0
  4  5  1  0
  3  6  1  0
  6  7  1  0
  7  8  1  0
  8  9  1  6
  8 10  1  0
 10 11  2  0
 11 12  1  0
 12 13  2  0
 13 14  1  0
 14 15  1  0
 15 16  2  0
 16 17  1  0
 17 18  2  0
 17 19  1  0
 19 20  1  0
 20 21  1  0
 21 22  2  0
 22 23  1  0
 23 24  2  0
 24 25  1  0
 25 26  2  0
 26 27  1  0
 27 28  2  0
 22 29  1  0
 29 30  2  0
 14 31  2  0
 31 10  1  0
 30 15  1  0
 29 19  1  0
 28 23  1  0
  1 32  1  0
  1 33  1  0
  1 34  1  0
  2 35  1  0
  2 36  1  0
  4 37  1  0
  4 38  1  0
  5 39  1  0
  5 40  1  0
  5 41  1  0
  6 42  1  0
  6 43  1  0
  7 44  1  0
  7 45  1  0
  9 46  1  0
 11 47  1  0
 12 48  1  0
 13 49  1  0
 16 50  1  0
 21 51  1  0
 24 52  1  0
 25 53  1  0
 26 54  1  0
 27 55  1  0
 28 56  1  0
 31 57  1  0
M  CHG  3   8   1  20  -1  28   1
M  END
>  <UniqueID>  (7) 
7

>  <SMILES>  (7) 
CCN(CC)CC[S@+](O)c1cccc(-c2cc(=O)n3[n-]cc(-c4cccc[nH+]4)c3n2)c1

>  <Energy>  (7) 
98.54697077133754

>  <Genealogy>  (7) 
CCN(CC)CC[S+](O)c1cccc(-c2cc(=O)n3[n-]cc(-c4cccc[nH+]4)c3n2)c1 (protonated)
CCN(CC)CC[S@+](O)c1cccc(-c2cc(=O)n3[n-]cc(-c4cccc[nH+]4)c3n2)c1 (chirality)
CCN(CC)CC[S@+](O)c1cccc(-c2cc(=O)n3[n-]cc(-c4cccc[nH+]4)c3n2)c1 (3D coordinates assigned)
CCN(CC)CC[S@+](O)c1cccc(-c2cc(=O)n3[n-]cc(-c4cccc[nH+]4)c3n2)c1 (optimized conformer: 98.54697077133754 kcal/mol)

>  <smiles>  (7) 
CCN(CC)CC[S+]([O-])c1cccc(-c2cc(=O)n3[nH]cc(-c4ccccn4)c3n2)c1

>  <score_type>  (7) 
oracle

>  <origin>  (7) 
adg

>  <m_score__min__energy>  (7) 
-9.9000000000000004

>  <m_primary>  (7) 
energy

$$$$
7:0
     RDKit          3D

 49 50  0  0  0  0  0  0  0  0999 V2000
   -5.3914   26.5693  -31.1434 H   0  0  0  0  0  0  0  0  0  0  0  0
   -5.1110   25.5520  -30.8330 C   0  0  0  0  0  0  0  0  0  0  0  0
   -3.8570   25.3070  -30.3760 N   0  0  0  0  0  0  0  0  0  0  0  0
   -3.4680   24.0670  -29.9810 C   0  0  0  0  0  0  0  0  0  0  0  0
   -2.1630   23.8660  -29.5160 C   0  0  0  0  0  0  0  0  0  0  0  0
   -1.4597   24.7107  -29.4739 H   0  0  0  0  0  0  0  0  0  0  0  0
   -1.7510   22.5950  -29.1050 C   0  0  0  0  0  0  0  0  0  0  0  0
   -0.1150   22.3500  -28.5210 Cl  0  0  0  0  0  0  0  0  0  0  0  0
   -2.6410   21.5190  -29.1580 C   0  0  0  0  0  0  0  0  0  0  0  0
   -2.3130   20.5202  -28.8342 H   0  0  0  0  0  0  0  0  0  0  0  0
   -3.9470   21.7070  -29.6210 C   0  0  0  0  0  0  0  0  0  0  0  0
   -4.6418   20.8551  -29.6594 H   0  0  0  0  0  0  0  0  0  0  0  0
   -4.3780   22.9830  -30.0390 C   0  0  0  0  0  0  0  0  0  0  0  0
   -5.6910   23.2150  -30.5130 C   0  0  0  0  0  0  0  0  0  0  0  0
   -6.5410   22.2250  -30.5700 N   0  0  0  0  0  0  0  0  0  0  0  0
   -7.9910   22.3120  -30.4050 C   0  0  0  0  0  0  0  0  0  0  0  0
   -8.2984   23.3679  -30.4274 H   0  0  0  0  0  0  0  0  0  0  0  0
   -8.2744   21.8638  -29.4412 H   0  0  0  0  0  0  0  0  0  0  0  0
   -8.6860   21.5580  -31.5350 C   0  0  0  0  0  0  0  0  0  0  0  0
   -9.0086   22.2734  -32.3058 H   0  0  0  0  0  0  0  0  0  0  0  0
   -9.5598   21.0263  -31.1302 H   0  0  0  0  0  0  0  0  0  0  0  0
   -7.7620   20.5830  -32.1320 N   0  0  0  0  0  0  0  0  0  0  0  0
   -7.0140   20.3480  -31.4400 H   0  0  0  0  0  0  0  0  0  0  0  0
   -8.4450   19.3530  -32.5680 C   0  0  0  0  0  0  0  0  0  0  0  0
   -8.7390   19.4721  -33.6213 H   0  0  0  0  0  0  0  0  0  0  0  0
   -9.3131   19.2121  -31.9074 H   0  0  0  0  0  0  0  0  0  0  0  0
   -7.5710   18.0920  -32.4450 C   0  0  0  0  0  0  0  0  0  0  0  0
   -7.3082   17.7363  -33.4522 H   0  0  0  0  0  0  0  0  0  0  0  0
   -8.1390   17.3224  -31.9017 H   0  0  0  0  0  0  0  0  0  0  0  0
   -6.3390   18.3790  -31.7000 N   0  0  0  0  0  0  0  0  0  0  0  0
   -6.3090   19.4130  -31.5360 H   0  0  0  0  0  0  0  0  0  0  0  0
   -5.1580   18.0190  -32.4960 C   0  0  0  0  0  0  0  0  0  0  0  0
   -5.4730   17.3973  -33.3471 H   0  0  0  0  0  0  0  0  0  0  0  0
   -4.4570   17.4648  -31.8545 H   0  0  0  0  0  0  0  0  0  0  0  0
   -4.4500   19.2770  -33.0260 C   0  0  0  0  0  0  0  0  0  0  0  0
   -4.2807   19.1551  -34.1060 H   0  0  0  0  0  0  0  0  0  0  0  0
   -3.5058   19.3813  -32.4713 H   0  0  0  0  0  0  0  0  0  0  0  0
   -5.2300   20.5150  -32.8080 N   0  0  0  0  0  0  0  0  0  0  0  0
   -5.6030   20.5550  -31.8300 H   0  0  0  0  0  0  0  0  0  0  0  0
   -6.0530   20.5060  -33.4570 H   0  0  0  0  0  0  0  0  0  0  0  0
   -4.4370   21.7220  -33.0960 C   0  0  0  0  0  0  0  0  0  0  0  0
   -4.6855   22.5002  -32.3593 H   0  0  0  0  0  0  0  0  0  0  0  0
   -4.6765   22.0648  -34.1134 H   0  0  0  0  0  0  0  0  0  0  0  0
   -2.9400   21.4230  -33.0220 C   0  0  0  0  0  0  0  0  0  0  0  0
   -2.6301   21.3611  -31.9684 H   0  0  0  0  0  0  0  0  0  0  0  0
   -2.7321   20.4656  -33.5222 H   0  0  0  0  0  0  0  0  0  0  0  0
   -2.3803   22.2271  -33.5222 H   0  0  0  0  0  0  0  0  0  0  0  0
   -6.0460   24.5200  -30.9110 C   0  0  0  0  0  0  0  0  0  0  0  0
   -7.0607   24.7244  -31.2832 H   0  0  0  0  0  0  0  0  0  0  0  0
  1  2  1  0
  2  3  1  0
  3  4  1  0
  4  5  2  0
  5  6  1  0
  5  7  1  0
  7  8  1  0
  7  9  2  0
  9 10  1  0
  9 11  1  0
 11 12  1  0
 11 13  2  0
 13 14  1  0
 14 15  2  0
 15 16  1  0
 16 17  1  0
 16 18  1  0
 16 19  1  0
 19 20  1  0
 19 21  1  0
 19 22  1  0
 22 23  1  0
 22 24  1  0
 24 25  1  0
 24 26  1  0
 24 27  1  0
 27 28  1  0
 27 29  1  0
 27 30  1  0
 30 31  1  0
 30 32  1  0
 32 33  1  0
 32 34  1  0
 32 35  1  0
 35 36  1  0
 35 37  1  0
 35 38  1  0
 38 39  1  0
 38 40  1  0
 38 41  1  0
 41 42  1  0
 41 43  1  0
 41 44  1  0
 44 45  1  0
 44 46  1  0
 44 47  1  0
 14 48  1  0
 48 49  1  0
 48  2  2  0
 13  4  1  0
M  CHG  2   3  -1  38   1
M  END
>  <UniqueID>  (8) 
8

>  <SMILES>  (8) 
CC[NH2+]CCNCCNCC/N=c1\cc[n-]c2cc(Cl)ccc12

>  <Energy>  (8) 
47.23047826082351

>  <Genealogy>  (8) 
CC[NH2+]CCNCCNCCN=c1cc[n-]c2cc(Cl)ccc12 (protonated)
CC[NH2+]CCNCCNCC/N=c1\cc[n-]c2cc(Cl)ccc12 (cis-trans isomerization)
CC[NH2+]CCNCCNCC/N=c1\cc[n-]c2cc(Cl)ccc12 (3D coordinates assigned)
CC[NH2+]CCNCCNCC/N=c1\cc[n-]c2cc(Cl)ccc12 (optimized conformer: 47.23047826082351 kcal/mol)

>  <smiles>  (8) 
CCNCCNCCNCCN=c1cc[nH]c2cc(Cl)ccc12

>  <score_type>  (8) 
oracle

>  <origin>  (8) 
adg

>  <m_score__min__energy>  (8) 
-7.5599999999999996

>  <m_primary>  (8) 
energy

$$$$
8:0
     RDKit          3D

 50 53  0  0  0  0  0  0  0  0999 V2000
   -1.3010   17.9530  -33.6400 C   0  0  0  0  0  0  0  0  0  0  0  0
   -0.9360   19.0250  -34.6740 C   0  0  0  0  0  0  0  0  0  0  0  0
   -1.2790   20.3930  -34.2110 N   0  0  2  0  0  0  0  0  0  0  0  0
   -0.0970   21.2800  -34.1660 C   0  0  0  0  0  0  0  0  0  0  0  0
   -1.9990   20.3790  -32.9130 C   0  0  0  0  0  0  0  0  0  0  0  0
   -2.6940   21.7160  -32.5450 C   0  0  0  0  0  0  0  0  0  0  0  0
   -4.0230   21.8200  -33.1530 N   0  0  0  0  0  0  0  0  0  0  0  0
   -5.2190   21.6920  -32.3730 C   0  0  0  0  0  0  0  0  0  0  0  0
   -5.6170   22.7320  -31.5000 C   0  0  0  0  0  0  0  0  0  0  0  0
   -4.7560   23.8170  -31.2340 C   0  0  0  0  0  0  0  0  0  0  0  0
   -5.1530   24.8520  -30.3930 C   0  0  0  0  0  0  0  0  0  0  0  0
   -6.4050   24.8220  -29.7890 C   0  0  0  0  0  0  0  0  0  0  0  0
   -7.2660   23.7480  -30.0110 C   0  0  0  0  0  0  0  0  0  0  0  0
   -6.8940   22.6770  -30.8630 C   0  0  0  0  0  0  0  0  0  0  0  0
   -7.7340   21.5990  -31.0740 N   0  0  0  0  0  0  0  0  0  0  0  0
   -9.0730   21.5480  -30.4560 C   0  0  0  0  0  0  0  0  0  0  0  0
   -7.2900   20.5610  -31.8520 C   0  0  0  0  0  0  0  0  0  0  0  0
   -8.1150   19.1200  -32.1880 S   0  0  0  0  0  0  0  0  0  0  0  0
   -6.9000   18.4770  -33.1440 C   0  0  0  0  0  0  0  0  0  0  0  0
   -6.9050   17.2370  -33.7780 C   0  0  0  0  0  0  0  0  0  0  0  0
   -5.7810   16.8650  -34.5230 C   0  0  0  0  0  0  0  0  0  0  0  0
   -4.6780   17.7280  -34.6130 C   0  0  0  0  0  0  0  0  0  0  0  0
   -4.6870   18.9730  -33.9640 C   0  0  0  0  0  0  0  0  0  0  0  0
   -5.8230   19.3610  -33.2250 C   0  0  0  0  0  0  0  0  0  0  0  0
   -6.0490   20.5610  -32.4950 C   0  0  0  0  0  0  0  0  0  0  0  0
   -1.1629   18.3587  -32.6269 H   0  0  0  0  0  0  0  0  0  0  0  0
   -2.3512   17.6552  -33.7757 H   0  0  0  0  0  0  0  0  0  0  0  0
   -0.6508   17.0762  -33.7757 H   0  0  0  0  0  0  0  0  0  0  0  0
    0.1460   18.9774  -34.8663 H   0  0  0  0  0  0  0  0  0  0  0  0
   -1.5151   18.8233  -35.5872 H   0  0  0  0  0  0  0  0  0  0  0  0
   -1.9450   20.8150  -34.9010 H   0  0  0  0  0  0  0  0  0  0  0  0
    0.1709   21.4810  -33.1182 H   0  0  0  0  0  0  0  0  0  0  0  0
    0.7478   20.7911  -34.6731 H   0  0  0  0  0  0  0  0  0  0  0  0
   -0.3303   22.2278  -34.6731 H   0  0  0  0  0  0  0  0  0  0  0  0
   -2.7676   19.5933  -32.9556 H   0  0  0  0  0  0  0  0  0  0  0  0
   -1.2398   20.1988  -32.1376 H   0  0  0  0  0  0  0  0  0  0  0  0
   -2.7964   21.7756  -31.4514 H   0  0  0  0  0  0  0  0  0  0  0  0
   -2.0757   22.5412  -32.9280 H   0  0  0  0  0  0  0  0  0  0  0  0
   -4.1070   21.8290  -34.1940 H   0  0  0  0  0  0  0  0  0  0  0  0
   -3.7586   23.8453  -31.6970 H   0  0  0  0  0  0  0  0  0  0  0  0
   -4.4740   25.6968  -30.2054 H   0  0  0  0  0  0  0  0  0  0  0  0
   -6.7173   25.6485  -29.1337 H   0  0  0  0  0  0  0  0  0  0  0  0
   -8.2490   23.7311  -29.5177 H   0  0  0  0  0  0  0  0  0  0  0  0
   -8.9717   21.5519  -29.3607 H   0  0  0  0  0  0  0  0  0  0  0  0
   -9.6569   22.4246  -30.7733 H   0  0  0  0  0  0  0  0  0  0  0  0
   -9.5886   20.6296  -30.7733 H   0  0  0  0  0  0  0  0  0  0  0  0
   -7.7725   16.5658  -33.6949 H   0  0  0  0  0  0  0  0  0  0  0  0
   -5.7616   15.8939  -35.0394 H   0  0  0  0  0  0  0  0  0  0  0  0
   -3.7970   17.4258  -35.1982 H   0  0  0  0  0  0  0  0  0  0  0  0
   -3.8149   19.6400  -34.0316 H   0  0  0  0  0  0  0  0  0  0  0  0
  1  2  1  0
  2  3  1  0
  3  4  1  0
  3  5  1  0
  5  6  1  0
  6  7  1  0
  7  8  1  0
  8  9  2  0
  9 10  1  0
 10 11  2  0
 11 12  1  0
 12 13  2  0
 13 14  1  0
 14 15  2  0
 15 16  1  0
 15 17  1  0
 17 18  1  0
 18 19  1  0
 19 20  2  0
 20 21  1  0
 21 22  2  0
 22 23  1  0
 23 24  2  0
 24 25  1  0
 25  8  1  0
 14  9  1  0
 25 17  2  0
 24 19  1  0
  1 26  1  0
  1 27  1  0
  1 28  1  0
  2 29  1  0
  2 30  1  0
  3 31  1  6
  4 32  1  0
  4 33  1  0
  4 34  1  0
  5 35  1  0
  5 36  1  0
  6 37  1  0
  6 38  1  0
  7 39  1  0
 10 40  1  0
 11 41  1  0
 12 42  1  0
 13 43  1  0
 16 44  1  0
 16 45  1  0
 16 46  1  0
 20 47  1  0
 21 48  1  0
 22 49  1  0
 23 50  1  0
M  CHG  2   3   1  15   1
M  END
>  <UniqueID>  (9) 
9

>  <SMILES>  (9) 
CC[N@H+](C)CCNc1c2ccccc2[n+](C)c2sc3ccccc3c12

>  <Energy>  (9) 
111.87787645481754

>  <Genealogy>  (9) 
CC[NH+](C)CCNc1c2ccccc2[n+](C)c2sc3ccccc3c12 (protonated)
CC[N@H+](C)CCNc1c2ccccc2[n+](C)c2sc3ccccc3c12 (chirality)
CC[N@H+](C)CCNc1c2ccccc2[n+](C)c2sc3ccccc3c12 (3D coordinates assigned)
CC[N@H+](C)CCNc1c2ccccc2[n+](C)c2sc3ccccc3c12 (optimized conformer: 111.87787645481754 kcal/mol)

>  <smiles>  (9) 
CCN(C)CCNc1c2ccccc2[n+](C)c2sc3ccccc3c12

>  <score_type>  (9) 
oracle

>  <origin>  (9) 
adg

>  <m_score__min__energy>  (9) 
-7.7199999999999998

>  <m_primary>  (9) 
energy

$$$$
9:0
     RDKit          3D

 38 40  0  0  0  0  0  0  0  0999 V2000
   -2.6580   19.2150  -33.8300 C   0  0  0  0  0  0  0  0  0  0  0  0
   -2.7680   20.6650  -33.7240 N   0  0  0  0  0  0  0  0  0  0  0  0
   -3.0720   21.3480  -32.4900 C   0  0  0  0  0  0  0  0  0  0  0  0
   -2.0420   21.7020  -31.5970 C   0  0  0  0  0  0  0  0  0  0  0  0
   -2.3200   22.4510  -30.4510 C   0  0  0  0  0  0  0  0  0  0  0  0
   -1.0250   22.8820  -29.3480 Cl  0  0  0  0  0  0  0  0  0  0  0  0
   -3.6240   22.8740  -30.1910 C   0  0  0  0  0  0  0  0  0  0  0  0
   -4.6570   22.5210  -31.0590 C   0  0  0  0  0  0  0  0  0  0  0  0
   -4.4040   21.7220  -32.1810 C   0  0  0  0  0  0  0  0  0  0  0  0
   -5.5030   21.3110  -32.9520 O   0  0  0  0  0  0  0  0  0  0  0  0
   -6.8220   21.1770  -32.4840 C   0  0  0  0  0  0  0  0  0  0  0  0
   -7.5460   22.3530  -32.2440 C   0  0  0  0  0  0  0  0  0  0  0  0
   -8.8830   22.2980  -31.8480 C   0  0  0  0  0  0  0  0  0  0  0  0
   -9.5110   21.0640  -31.6740 C   0  0  0  0  0  0  0  0  0  0  0  0
   -8.7940   19.8820  -31.8700 C   0  0  0  0  0  0  0  0  0  0  0  0
   -7.4430   19.9190  -32.2540 C   0  0  0  0  0  0  0  0  0  0  0  0
   -6.6990   18.6450  -32.3400 C   0  0  0  0  0  0  0  0  0  0  0  0
   -6.1450   18.2230  -33.5560 C   0  0  0  0  0  0  0  0  0  0  0  0
   -5.4170   17.0350  -33.6160 C   0  0  0  0  0  0  0  0  0  0  0  0
   -5.2620   16.2670  -32.4590 C   0  0  0  0  0  0  0  0  0  0  0  0
   -5.8260   16.6740  -31.2890 N   0  0  0  0  0  0  0  0  0  0  0  0
   -6.5400   17.8300  -31.2080 C   0  0  0  0  0  0  0  0  0  0  0  0
   -2.6246   18.7752  -32.8223 H   0  0  0  0  0  0  0  0  0  0  0  0
   -3.5288   18.8200  -34.3738 H   0  0  0  0  0  0  0  0  0  0  0  0
   -1.7376   18.9559  -34.3738 H   0  0  0  0  0  0  0  0  0  0  0  0
   -2.6120   21.2200  -34.5940 H   0  0  0  0  0  0  0  0  0  0  0  0
   -1.0090   21.3857  -31.8039 H   0  0  0  0  0  0  0  0  0  0  0  0
   -3.8372   23.4856  -29.3019 H   0  0  0  0  0  0  0  0  0  0  0  0
   -5.6799   22.8734  -30.8605 H   0  0  0  0  0  0  0  0  0  0  0  0
   -7.0552   23.3294  -32.3691 H   0  0  0  0  0  0  0  0  0  0  0  0
   -9.4426   23.2286  -31.6728 H   0  0  0  0  0  0  0  0  0  0  0  0
  -10.5708   21.0225  -31.3824 H   0  0  0  0  0  0  0  0  0  0  0  0
   -9.2918   18.9123  -31.7223 H   0  0  0  0  0  0  0  0  0  0  0  0
   -6.2844   18.8289  -34.4634 H   0  0  0  0  0  0  0  0  0  0  0  0
   -4.9691   16.7057  -34.5651 H   0  0  0  0  0  0  0  0  0  0  0  0
   -4.6833   15.3321  -32.4938 H   0  0  0  0  0  0  0  0  0  0  0  0
   -5.7060   16.0870  -30.4350 H   0  0  0  0  0  0  0  0  0  0  0  0
   -6.9945   18.1270  -30.2513 H   0  0  0  0  0  0  0  0  0  0  0  0
  1  2  1  0
  2  3  1  0
  3  4  2  0
  4  5  1  0
  5  6  1  0
  5  7  2  0
  7  8  1  0
  8  9  2  0
  9 10  1  0
 10 11  1  0
 11 12  2  0
 12 13  1  0
 13 14  2  0
 14 15  1  0
 15 16  2  0
 16 17  1  0
 17 18  2  0
 18 19  1  0
 19 20  2  0
 20 21  1  0
 21 22  2  0
  9  3  1  0
 16 11  1  0
 22 17  1  0
  1 23  1  0
  1 24  1  0
  1 25  1  0
  2 26  1  0
  4 27  1  0
  7 28  1  0
  8 29  1  0
 12 30  1  0
 13 31  1  0
 14 32  1  0
 15 33  1  0
 18 34  1  0
 19 35  1  0
 20 36  1  0
 21 37  1  0
 22 38  1  0
M  CHG  1  21   1
M  END
>  <UniqueID>  (10) 
10

>  <SMILES>  (10) 
CNc1cc(Cl)ccc1Oc1ccccc1-c1ccc[nH+]c1

>  <Energy>  (10) 
54.260920116425034

>  <Genealogy>  (10) 
CNc1cc(Cl)ccc1Oc1ccccc1-c1ccc[nH+]c1 (protonated)
CNc1cc(Cl)ccc1Oc1ccccc1-c1ccc[nH+]c1 (3D coordinates assigned)
CNc1cc(Cl)ccc1Oc1ccccc1-c1ccc[nH+]c1 (optimized conformer: 54.260920116425034 kcal/mol)

>  <smiles>  (10) 
CNc1cc(Cl)ccc1Oc1ccccc1-c1cccnc1

>  <score_type>  (10) 
oracle

>  <origin>  (10) 
adg

>  <m_score__min__energy>  (10) 
-7.5999999999999996

>  <m_primary>  (10) 
energy

$$$$
10:0
     RDKit          3D

 46 48  0  0  0  0  0  0  0  0999 V2000
   -5.7270   18.1780  -34.8930 C   0  0  0  0  0  0  0  0  0  0  0  0
   -5.3680   17.4850  -33.7180 O   0  0  0  0  0  0  0  0  0  0  0  0
   -5.3960   18.3560  -32.6040 C   0  0  0  0  0  0  0  0  0  0  0  0
   -6.7840   18.9220  -32.4050 C   0  0  0  0  0  0  0  0  0  0  0  0
   -7.8090   18.0570  -31.9800 C   0  0  0  0  0  0  0  0  0  0  0  0
   -9.1190   18.5160  -31.8450 C   0  0  0  0  0  0  0  0  0  0  0  0
   -9.4290   19.8430  -32.1390 C   0  0  0  0  0  0  0  0  0  0  0  0
   -8.4280   20.7180  -32.5610 C   0  0  0  0  0  0  0  0  0  0  0  0
   -7.0980   20.2780  -32.6950 C   0  0  0  0  0  0  0  0  0  0  0  0
   -6.0370   21.2820  -33.0910 C   0  0  0  0  0  0  0  0  0  0  0  0
   -5.8170   22.2440  -31.9880 N   0  0  0  0  0  0  0  0  0  0  0  0
   -6.5160   23.5250  -32.2350 C   0  0  0  0  0  0  0  0  0  0  0  0
   -6.8550   24.3010  -30.9450 C   0  0  0  0  0  0  0  0  0  0  0  0
   -5.9270   24.0290  -29.8250 N   0  0  0  0  0  0  0  0  0  0  0  0
   -4.7040   24.8130  -29.9250 C   0  0  0  0  0  0  0  0  0  0  0  0
   -4.6070   25.6610  -30.8570 O   0  0  0  0  0  0  0  0  0  0  0  0
   -3.5020   24.6120  -29.0820 C   0  0  0  0  0  0  0  0  0  0  0  0
   -3.3600   23.8390  -27.9390 C   0  0  0  0  0  0  0  0  0  0  0  0
   -2.0710   24.0510  -27.4990 C   0  0  0  0  0  0  0  0  0  0  0  0
   -1.5030   24.9360  -28.3880 C   0  0  0  0  0  0  0  0  0  0  0  0
   -2.3780   25.2560  -29.3120 O   0  0  0  0  0  0  0  0  0  0  0  0
   -5.7130   22.5860  -29.5430 C   0  0  0  0  0  0  0  0  0  0  0  0
   -6.1790   21.6650  -30.6830 C   0  0  0  0  0  0  0  0  0  0  0  0
   -6.2177   19.1252  -34.6246 H   0  0  0  0  0  0  0  0  0  0  0  0
   -4.8241   18.3877  -35.4853 H   0  0  0  0  0  0  0  0  0  0  0  0
   -6.4191   17.5615  -35.4853 H   0  0  0  0  0  0  0  0  0  0  0  0
   -5.1000   17.7994  -31.7025 H   0  0  0  0  0  0  0  0  0  0  0  0
   -4.6975   19.1861  -32.7855 H   0  0  0  0  0  0  0  0  0  0  0  0
   -7.5745   17.0068  -31.7516 H   0  0  0  0  0  0  0  0  0  0  0  0
   -9.9090   17.8298  -31.5059 H   0  0  0  0  0  0  0  0  0  0  0  0
  -10.4644   20.2005  -32.0381 H   0  0  0  0  0  0  0  0  0  0  0  0
   -8.6810   21.7634  -32.7916 H   0  0  0  0  0  0  0  0  0  0  0  0
   -5.0969   20.7532  -33.3067 H   0  0  0  0  0  0  0  0  0  0  0  0
   -6.3707   21.8275  -33.9861 H   0  0  0  0  0  0  0  0  0  0  0  0
   -5.8713   24.1579  -32.8626 H   0  0  0  0  0  0  0  0  0  0  0  0
   -7.4698   23.2831  -32.7267 H   0  0  0  0  0  0  0  0  0  0  0  0
   -6.8228   25.3775  -31.1689 H   0  0  0  0  0  0  0  0  0  0  0  0
   -7.8529   23.9685  -30.6231 H   0  0  0  0  0  0  0  0  0  0  0  0
   -6.4250   24.4020  -28.9800 H   0  0  0  0  0  0  0  0  0  0  0  0
   -4.1197   23.1903  -27.4785 H   0  0  0  0  0  0  0  0  0  0  0  0
   -1.5924   23.6033  -26.6155 H   0  0  0  0  0  0  0  0  0  0  0  0
   -0.4725   25.3168  -28.3321 H   0  0  0  0  0  0  0  0  0  0  0  0
   -4.6385   22.4188  -29.3769 H   0  0  0  0  0  0  0  0  0  0  0  0
   -6.3148   22.3357  -28.6569 H   0  0  0  0  0  0  0  0  0  0  0  0
   -5.6968   20.6822  -30.5757 H   0  0  0  0  0  0  0  0  0  0  0  0
   -7.2723   21.5559  -30.6307 H   0  0  0  0  0  0  0  0  0  0  0  0
  1  2  1  0
  2  3  1  0
  3  4  1  0
  4  5  2  0
  5  6  1  0
  6  7  2  0
  7  8  1  0
  8  9  2  0
  9 10  1  0
 10 11  1  0
 11 12  1  0
 12 13  1  0
 13 14  1  0
 14 15  1  0
 15 16  2  0
 15 17  1  0
 17 18  2  0
 18 19  1  0
 19 20  2  0
 20 21  1  0
 14 22  1  0
 22 23  1  0
  9  4  1  0
 23 11  1  0
 21 17  1  0
  1 24  1  0
  1 25  1  0
  1 26  1  0
  3 27  1  0
  3 28  1  0
  5 29  1  0
  6 30  1  0
  7 31  1  0
  8 32  1  0
 10 33  1  0
 10 34  1  0
 12 35  1  0
 12 36  1  0
 13 37  1  0
 13 38  1  0
 14 39  1  0
 18 40  1  0
 19 41  1  0
 20 42  1  0
 22 43  1  0
 22 44  1  0
 23 45  1  0
 23 46  1  0
M  CHG  1  14   1
M  END
>  <UniqueID>  (11) 
11

>  <SMILES>  (11) 
COCc1ccccc1CN1CC[NH+](C(=O)c2ccco2)CC1

>  <Energy>  (11) 
95.24304579791945

>  <Genealogy>  (11) 
COCc1ccccc1CN1CC[NH+](C(=O)c2ccco2)CC1 (protonated)
COCc1ccccc1CN1CC[NH+](C(=O)c2ccco2)CC1 (3D coordinates assigned)
COCc1ccccc1CN1CC[NH+](C(=O)c2ccco2)CC1 (nonaromatic ring conformer: 95.24304579791945 kcal/mol)

>  <smiles>  (11) 
COCc1ccccc1CN1CCN(C(=O)c2ccco2)CC1

>  <score_type>  (11) 
oracle

>  <origin>  (11) 
adg

>  <m_score__min__energy>  (11) 
-7.6500000000000004

>  <m_primary>  (11) 
energy

$$$$
11:0
     RDKit          3D

 53 56  0  0  0  0  0  0  0  0999 V2000
   -2.7910   22.1380  -29.0340 C   0  0  0  0  0  0  0  0  0  0  0  0
   -1.6580   22.2440  -30.0610 C   0  0  0  0  0  0  0  0  0  0  0  0
   -1.5760   21.0510  -30.9440 N   0  0  2  0  0  0  0  0  0  0  0  0
   -0.5330   21.2420  -31.9720 C   0  0  0  0  0  0  0  0  0  0  0  0
   -2.8820   20.7890  -31.6020 C   0  0  0  0  0  0  0  0  0  0  0  0
   -2.9890   21.4390  -32.9960 C   0  0  0  0  0  0  0  0  0  0  0  0
   -4.3840   21.6780  -33.3720 N   0  0  0  0  0  0  0  0  0  0  0  0
   -5.4350   21.5190  -32.4050 C   0  0  0  0  0  0  0  0  0  0  0  0
   -5.7410   22.5930  -31.5540 C   0  0  0  0  0  0  0  0  0  0  0  0
   -4.8160   23.6390  -31.3480 C   0  0  0  0  0  0  0  0  0  0  0  0
   -5.0990   24.6690  -30.4550 C   0  0  0  0  0  0  0  0  0  0  0  0
   -6.2970   24.6710  -29.7500 C   0  0  0  0  0  0  0  0  0  0  0  0
   -7.2370   23.6610  -29.9640 C   0  0  0  0  0  0  0  0  0  0  0  0
   -6.9940   22.6250  -30.9000 C   0  0  0  0  0  0  0  0  0  0  0  0
   -7.9500   21.6780  -31.2080 N   0  0  0  0  0  0  0  0  0  0  0  0
   -9.3680   21.9230  -30.8520 C   0  0  0  0  0  0  0  0  0  0  0  0
   -7.5850   20.5160  -31.8660 C   0  0  0  0  0  0  0  0  0  0  0  0
   -8.4970   19.4450  -32.0150 C   0  0  0  0  0  0  0  0  0  0  0  0
   -8.1550   18.2940  -32.7100 C   0  0  0  0  0  0  0  0  0  0  0  0
   -6.8570   18.1080  -33.1750 C   0  0  0  0  0  0  0  0  0  0  0  0
   -6.5120   16.8930  -33.7890 C   0  0  0  0  0  0  0  0  0  0  0  0
   -5.1890   16.6330  -34.1400 C   0  0  0  0  0  0  0  0  0  0  0  0
   -4.1980   17.5620  -33.8430 C   0  0  0  0  0  0  0  0  0  0  0  0
   -4.5310   18.7790  -33.2430 C   0  0  0  0  0  0  0  0  0  0  0  0
   -5.8790   19.1170  -32.9700 C   0  0  0  0  0  0  0  0  0  0  0  0
   -6.2740   20.3760  -32.4140 C   0  0  0  0  0  0  0  0  0  0  0  0
   -2.3702   22.1774  -28.0184 H   0  0  0  0  0  0  0  0  0  0  0  0
   -3.4916   22.9745  -29.1733 H   0  0  0  0  0  0  0  0  0  0  0  0
   -3.3243   21.1860  -29.1733 H   0  0  0  0  0  0  0  0  0  0  0  0
   -1.8297   23.1335  -30.6850 H   0  0  0  0  0  0  0  0  0  0  0  0
   -0.7104   22.3152  -29.5069 H   0  0  0  0  0  0  0  0  0  0  0  0
   -1.3090   20.2180  -30.3710 H   0  0  0  0  0  0  0  0  0  0  0  0
    0.4360   21.4195  -31.4826 H   0  0  0  0  0  0  0  0  0  0  0  0
   -0.4673   20.3410  -32.5995 H   0  0  0  0  0  0  0  0  0  0  0  0
   -0.7909   22.1079  -32.5995 H   0  0  0  0  0  0  0  0  0  0  0  0
   -3.0092   19.7018  -31.7103 H   0  0  0  0  0  0  0  0  0  0  0  0
   -3.6663   21.2303  -30.9694 H   0  0  0  0  0  0  0  0  0  0  0  0
   -2.4525   22.3992  -32.9846 H   0  0  0  0  0  0  0  0  0  0  0  0
   -2.5465   20.7514  -33.7319 H   0  0  0  0  0  0  0  0  0  0  0  0
   -4.6270   21.5670  -34.3830 H   0  0  0  0  0  0  0  0  0  0  0  0
   -3.8632   23.6404  -31.8978 H   0  0  0  0  0  0  0  0  0  0  0  0
   -4.3734   25.4825  -30.3071 H   0  0  0  0  0  0  0  0  0  0  0  0
   -6.5048   25.4694  -29.0225 H   0  0  0  0  0  0  0  0  0  0  0  0
   -8.1800   23.6695  -29.3978 H   0  0  0  0  0  0  0  0  0  0  0  0
   -9.4733   21.9412  -29.7572 H   0  0  0  0  0  0  0  0  0  0  0  0
   -9.6885   22.8898  -31.2673 H   0  0  0  0  0  0  0  0  0  0  0  0
   -9.9944   21.1198  -31.2673 H   0  0  0  0  0  0  0  0  0  0  0  0
   -9.4996   19.5266  -31.5699 H   0  0  0  0  0  0  0  0  0  0  0  0
   -8.9165   17.5220  -32.8949 H   0  0  0  0  0  0  0  0  0  0  0  0
   -7.2901   16.1429  -33.9938 H   0  0  0  0  0  0  0  0  0  0  0  0
   -4.9289   15.6944  -34.6512 H   0  0  0  0  0  0  0  0  0  0  0  0
   -3.1478   17.3379  -34.0814 H   0  0  0  0  0  0  0  0  0  0  0  0
   -3.7321   19.4872  -32.9780 H   0  0  0  0  0  0  0  0  0  0  0  0
  1  2  1  0
  2  3  1  0
  3  4  1  0
  3  5  1  0
  5  6  1  0
  6  7  1  0
  7  8  1  0
  8  9  2  0
  9 10  1  0
 10 11  2  0
 11 12  1  0
 12 13  2  0
 13 14  1  0
 14 15  2  0
 15 16  1  0
 15 17  1  0
 17 18  2  0
 18 19  1  0
 19 20  2  0
 20 21  1  0
 21 22  2  0
 22 23  1  0
 23 24  2  0
 24 25  1  0
 25 26  2  0
 26  8  1  0
 14  9  1  0
 26 17  1  0
 25 20  1  0
  1 27  1  0
  1 28  1  0
  1 29  1  0
  2 30  1  0
  2 31  1  0
  3 32  1  1
  4 33  1  0
  4 34  1  0
  4 35  1  0
  5 36  1  0
  5 37  1  0
  6 38  1  0
  6 39  1  0
  7 40  1  0
 10 41  1  0
 11 42  1  0
 12 43  1  0
 13 44  1  0
 16 45  1  0
 16 46  1  0
 16 47  1  0
 18 48  1  0
 19 49  1  0
 21 50  1  0
 22 51  1  0
 23 52  1  0
 24 53  1  0
M  CHG  2   3   1  15   1
M  END
>  <UniqueID>  (12) 
12

>  <SMILES>  (12) 
CC[N@H+](C)CCNc1c2ccccc2[n+](C)c2ccc3ccccc3c12

>  <Energy>  (12) 
97.79039624884695

>  <Genealogy>  (12) 
CC[NH+](C)CCNc1c2ccccc2[n+](C)c2ccc3ccccc3c12 (protonated)
CC[N@H+](C)CCNc1c2ccccc2[n+](C)c2ccc3ccccc3c12 (chirality)
CC[N@H+](C)CCNc1c2ccccc2[n+](C)c2ccc3ccccc3c12 (3D coordinates assigned)
CC[N@H+](C)CCNc1c2ccccc2[n+](C)c2ccc3ccccc3c12 (optimized conformer: 97.79039624884695 kcal/mol)

>  <smiles>  (12) 
CCN(C)CCNc1c2ccccc2[n+](C)c2ccc3ccccc3c12

>  <score_type>  (12) 
oracle

>  <origin>  (12) 
adg

>  <m_score__min__energy>  (12) 
-7.9699999999999998

>  <m_primary>  (12) 
energy

$$$$
12:0
     RDKit          3D

 54 57  0  0  0  0  0  0  0  0999 V2000
   -3.6690   23.3540  -28.4540 C   0  0  0  0  0  0  0  0  0  0  0  0
   -3.4450   24.4030  -29.5560 C   0  0  0  0  0  0  0  0  0  0  0  0
   -4.1830   24.1420  -30.8170 N   0  0  0  0  0  0  0  0  0  0  0  0
   -5.3710   25.0030  -31.0300 C   0  0  0  0  0  0  0  0  0  0  0  0
   -6.1770   25.2960  -29.7620 C   0  0  0  0  0  0  0  0  0  0  0  0
   -4.3490   22.7140  -31.1670 C   0  0  0  0  0  0  0  0  0  0  0  0
   -3.3780   22.2930  -32.2810 C   0  0  0  0  0  0  0  0  0  0  0  0
   -4.1130   21.8610  -33.4820 N   0  0  0  0  0  0  0  0  0  0  0  0
   -4.5930   20.5050  -33.3240 C   0  0  0  0  0  0  0  0  0  0  0  0
   -5.9330   20.2460  -32.9680 C   0  0  0  0  0  0  0  0  0  0  0  0
   -6.4200   18.9450  -32.9800 C   0  0  0  0  0  0  0  0  0  0  0  0
   -5.6480   17.8670  -33.3190 N   0  0  0  0  0  0  0  0  0  0  0  0
   -6.2710   16.5410  -33.4890 C   0  0  0  0  0  0  0  0  0  0  0  0
   -4.2870   18.0550  -33.4830 C   0  0  0  0  0  0  0  0  0  0  0  0
   -3.4040   16.9540  -33.6070 C   0  0  0  0  0  0  0  0  0  0  0  0
   -2.0380   17.1430  -33.8010 C   0  0  0  0  0  0  0  0  0  0  0  0
   -1.5120   18.4270  -33.8600 C   0  0  0  0  0  0  0  0  0  0  0  0
   -2.3440   19.5340  -33.7110 C   0  0  0  0  0  0  0  0  0  0  0  0
   -3.7370   19.3800  -33.5130 C   0  0  0  0  0  0  0  0  0  0  0  0
   -7.8320   18.9720  -32.5730 C   0  0  0  0  0  0  0  0  0  0  0  0
   -8.5880   17.9890  -32.3560 O   0  0  0  0  0  0  0  0  0  0  0  0
   -8.1720   20.3600  -32.3410 C   0  0  0  0  0  0  0  0  0  0  0  0
   -9.3830   20.8970  -31.9050 C   0  0  0  0  0  0  0  0  0  0  0  0
   -9.4550   22.2770  -31.6780 C   0  0  0  0  0  0  0  0  0  0  0  0
   -8.3200   23.0850  -31.8690 C   0  0  0  0  0  0  0  0  0  0  0  0
   -7.1060   22.5250  -32.2980 C   0  0  0  0  0  0  0  0  0  0  0  0
   -7.0480   21.1430  -32.5560 C   0  0  0  0  0  0  0  0  0  0  0  0
   -3.5672   23.8307  -27.4679 H   0  0  0  0  0  0  0  0  0  0  0  0
   -4.6783   22.9281  -28.5529 H   0  0  0  0  0  0  0  0  0  0  0  0
   -2.9217   22.5529  -28.5529 H   0  0  0  0  0  0  0  0  0  0  0  0
   -3.7641   25.3816  -29.1680 H   0  0  0  0  0  0  0  0  0  0  0  0
   -2.3749   24.3667  -29.8080 H   0  0  0  0  0  0  0  0  0  0  0  0
   -5.0304   25.9610  -31.4499 H   0  0  0  0  0  0  0  0  0  0  0  0
   -6.0405   24.4513  -31.7063 H   0  0  0  0  0  0  0  0  0  0  0  0
   -5.5627   25.0727  -28.8773 H   0  0  0  0  0  0  0  0  0  0  0  0
   -6.4669   26.3570  -29.7488 H   0  0  0  0  0  0  0  0  0  0  0  0
   -7.0806   24.6688  -29.7488 H   0  0  0  0  0  0  0  0  0  0  0  0
   -4.1559   22.1018  -30.2737 H   0  0  0  0  0  0  0  0  0  0  0  0
   -5.3769   22.5635  -31.5287 H   0  0  0  0  0  0  0  0  0  0  0  0
   -2.7347   23.1469  -32.5400 H   0  0  0  0  0  0  0  0  0  0  0  0
   -2.7703   21.4508  -31.9184 H   0  0  0  0  0  0  0  0  0  0  0  0
   -3.5030   21.9420  -34.3270 H   0  0  0  0  0  0  0  0  0  0  0  0
   -4.9140   22.4930  -33.6910 H   0  0  0  0  0  0  0  0  0  0  0  0
   -6.4767   16.1032  -32.5011 H   0  0  0  0  0  0  0  0  0  0  0  0
   -7.2134   16.6474  -34.0464 H   0  0  0  0  0  0  0  0  0  0  0  0
   -5.5876   15.8835  -34.0464 H   0  0  0  0  0  0  0  0  0  0  0  0
   -3.8047   15.9312  -33.5490 H   0  0  0  0  0  0  0  0  0  0  0  0
   -1.3737   16.2728  -33.9078 H   0  0  0  0  0  0  0  0  0  0  0  0
   -0.4339   18.5703  -34.0251 H   0  0  0  0  0  0  0  0  0  0  0  0
   -1.9114   20.5447  -33.7478 H   0  0  0  0  0  0  0  0  0  0  0  0
  -10.2598   20.2526  -31.7434 H   0  0  0  0  0  0  0  0  0  0  0  0
  -10.4019   22.7302  -31.3494 H   0  0  0  0  0  0  0  0  0  0  0  0
   -8.3839   24.1668  -31.6804 H   0  0  0  0  0  0  0  0  0  0  0  0
   -6.2149   23.1563  -32.4302 H   0  0  0  0  0  0  0  0  0  0  0  0
  1  2  1  0
  2  3  1  0
  3  4  1  0
  4  5  1  0
  3  6  1  0
  6  7  1  0
  7  8  1  0
  8  9  1  0
  9 10  2  0
 10 11  1  0
 11 12  2  0
 12 13  1  0
 12 14  1  0
 14 15  2  0
 15 16  1  0
 16 17  2  0
 17 18  1  0
 18 19  2  0
 11 20  1  0
 20 21  2  0
 20 22  1  0
 22 23  2  0
 23 24  1  0
 24 25  2  0
 25 26  1  0
 26 27  2  0
 19  9  1  0
 27 22  1  0
 27 10  1  0
 19 14  1  0
  1 28  1  0
  1 29  1  0
  1 30  1  0
  2 31  1  0
  2 32  1  0
  4 33  1  0
  4 34  1  0
  5 35  1  0
  5 36  1  0
  5 37  1  0
  6 38  1  0
  6 39  1  0
  7 40  1  0
  7 41  1  0
  8 42  1  0
  8 43  1  0
 13 44  1  0
 13 45  1  0
 13 46  1  0
 15 47  1  0
 16 48  1  0
 17 49  1  0
 18 50  1  0
 23 51  1  0
 24 52  1  0
 25 53  1  0
 26 54  1  0
M  CHG  2   8   1  12   1
M  END
>  <UniqueID>  (13) 
13

>  <SMILES>  (13) 
CCN(CC)CC[NH2+]c1c2c([n+](C)c3ccccc13)C(=O)c1ccccc1-2

>  <Energy>  (13) 
115.95467145751412

>  <Genealogy>  (13) 
CCN(CC)CC[NH2+]c1c2c([n+](C)c3ccccc13)C(=O)c1ccccc1-2 (protonated)
CCN(CC)CC[NH2+]c1c2c([n+](C)c3ccccc13)C(=O)c1ccccc1-2 (3D coordinates assigned)
CCN(CC)CC[NH2+]c1c2c([n+](C)c3ccccc13)C(=O)c1ccccc1-2 (nonaromatic ring conformer: 115.95467145751412 kcal/mol)

>  <smiles>  (13) 
CCN(CC)CCNc1c2c([n+](C)c3ccccc13)C(=O)c1ccccc1-2

>  <score_type>  (13) 
oracle

>  <origin>  (13) 
adg

>  <m_score__min__energy>  (13) 
-9.2699999999999996

>  <m_primary>  (13) 
energy

$$$$
13:0
     RDKit          3D

 47 49  0  0  0  0  0  0  0  0999 V2000
   -6.1480   25.6980  -29.6500 C   0  0  0  0  0  0  0  0  0  0  0  0
   -5.2370   25.4810  -30.8550 C   0  0  0  0  0  0  0  0  0  0  0  0
   -5.4210   24.1150  -31.3980 N   0  0  0  0  0  0  0  0  0  0  0  0
   -6.8030   23.6310  -31.1700 C   0  0  0  0  0  0  0  0  0  0  0  0
   -6.8410   22.6910  -29.9680 C   0  0  0  0  0  0  0  0  0  0  0  0
   -4.4260   23.1750  -30.8310 C   0  0  0  0  0  0  0  0  0  0  0  0
   -3.8670   22.2680  -31.9410 C   0  0  0  0  0  0  0  0  0  0  0  0
   -4.8580   22.0000  -32.9990 N   0  0  0  0  0  0  0  0  0  0  0  0
   -5.1620   20.5850  -33.1110 C   0  0  0  0  0  0  0  0  0  0  0  0
   -6.4540   20.0480  -32.8300 C   0  0  0  0  0  0  0  0  0  0  0  0
   -7.5280   20.8780  -32.4410 C   0  0  0  0  0  0  0  0  0  0  0  0
   -8.7850   20.3440  -32.1670 C   0  0  0  0  0  0  0  0  0  0  0  0
   -9.0030   18.9760  -32.2720 C   0  0  0  0  0  0  0  0  0  0  0  0
   -7.9680   18.1260  -32.6550 C   0  0  0  0  0  0  0  0  0  0  0  0
   -6.6760   18.6280  -32.9430 C   0  0  0  0  0  0  0  0  0  0  0  0
   -5.6450   17.7820  -33.3250 N   0  0  0  0  0  0  0  0  0  0  0  0
   -5.8590   16.3270  -33.4460 C   0  0  0  0  0  0  0  0  0  0  0  0
   -4.4200   18.3330  -33.5840 C   0  0  0  0  0  0  0  0  0  0  0  0
   -3.2280   17.7380  -33.9690 C   0  0  0  0  0  0  0  0  0  0  0  0
   -2.3130   18.6780  -34.0950 O   0  0  0  0  0  0  0  0  0  0  0  0
   -2.8420   19.8510  -33.8150 C   0  0  0  0  0  0  0  0  0  0  0  0
   -4.1730   19.6730  -33.4870 C   0  0  0  0  0  0  0  0  0  0  0  0
   -5.5703   25.5604  -28.7241 H   0  0  0  0  0  0  0  0  0  0  0  0
   -6.5571   26.7187  -29.6787 H   0  0  0  0  0  0  0  0  0  0  0  0
   -6.9733   24.9713  -29.6787 H   0  0  0  0  0  0  0  0  0  0  0  0
   -5.4836   26.2176  -31.6339 H   0  0  0  0  0  0  0  0  0  0  0  0
   -4.1903   25.6031  -30.5394 H   0  0  0  0  0  0  0  0  0  0  0  0
   -7.4623   24.4907  -30.9798 H   0  0  0  0  0  0  0  0  0  0  0  0
   -7.1442   23.0861  -32.0626 H   0  0  0  0  0  0  0  0  0  0  0  0
   -6.8171   23.2812  -29.0401 H   0  0  0  0  0  0  0  0  0  0  0  0
   -7.7640   22.0935  -29.9989 H   0  0  0  0  0  0  0  0  0  0  0  0
   -5.9692   22.0209  -29.9989 H   0  0  0  0  0  0  0  0  0  0  0  0
   -3.6023   23.7461  -30.3778 H   0  0  0  0  0  0  0  0  0  0  0  0
   -4.9127   22.5518  -30.0663 H   0  0  0  0  0  0  0  0  0  0  0  0
   -2.9925   22.7596  -32.3922 H   0  0  0  0  0  0  0  0  0  0  0  0
   -3.5960   21.3052  -31.4832 H   0  0  0  0  0  0  0  0  0  0  0  0
   -4.5110   22.3830  -33.9080 H   0  0  0  0  0  0  0  0  0  0  0  0
   -5.7350   22.5350  -32.8030 H   0  0  0  0  0  0  0  0  0  0  0  0
   -7.3696   21.9630  -32.3530 H   0  0  0  0  0  0  0  0  0  0  0  0
   -9.6085   21.0083  -31.8662 H   0  0  0  0  0  0  0  0  0  0  0  0
   -9.9980   18.5619  -32.0516 H   0  0  0  0  0  0  0  0  0  0  0  0
   -8.1580   17.0455  -32.7351 H   0  0  0  0  0  0  0  0  0  0  0  0
   -5.9245   15.8813  -32.4425 H   0  0  0  0  0  0  0  0  0  0  0  0
   -6.7946   16.1382  -33.9929 H   0  0  0  0  0  0  0  0  0  0  0  0
   -5.0174   15.8768  -33.9929 H   0  0  0  0  0  0  0  0  0  0  0  0
   -3.0724   16.6626  -34.1403 H   0  0  0  0  0  0  0  0  0  0  0  0
   -2.3117   20.8144  -33.8383 H   0  0  0  0  0  0  0  0  0  0  0  0
  1  2  1  0
  2  3  1  0
  3  4  1  0
  4  5  1  0
  3  6  1  0
  6  7  1  0
  7  8  1  0
  8  9  1  0
  9 10  2  0
 10 11  1  0
 11 12  2  0
 12 13  1  0
 13 14  2  0
 14 15  1  0
 15 16  2  0
 16 17  1  0
 16 18  1  0
 18 19  2  0
 19 20  1  0
 20 21  1  0
 21 22  2  0
 22  9  1  0
 15 10  1  0
 22 18  1  0
  1 23  1  0
  1 24  1  0
  1 25  1  0
  2 26  1  0
  2 27  1  0
  4 28  1  0
  4 29  1  0
  5 30  1  0
  5 31  1  0
  5 32  1  0
  6 33  1  0
  6 34  1  0
  7 35  1  0
  7 36  1  0
  8 37  1  0
  8 38  1  0
 11 39  1  0
 12 40  1  0
 13 41  1  0
 14 42  1  0
 17 43  1  0
 17 44  1  0
 17 45  1  0
 19 46  1  0
 21 47  1  0
M  CHG  2   8   1  16   1
M  END
>  <UniqueID>  (14) 
14

>  <SMILES>  (14) 
CCN(CC)CC[NH2+]c1c2ccccc2[n+](C)c2cocc12

>  <Energy>  (14) 
94.50034660883304

>  <Genealogy>  (14) 
CCN(CC)CC[NH2+]c1c2ccccc2[n+](C)c2cocc12 (protonated)
CCN(CC)CC[NH2+]c1c2ccccc2[n+](C)c2cocc12 (3D coordinates assigned)
CCN(CC)CC[NH2+]c1c2ccccc2[n+](C)c2cocc12 (optimized conformer: 94.50034660883304 kcal/mol)

>  <smiles>  (14) 
CCN(CC)CCNc1c2ccccc2[n+](C)c2cocc12

>  <score_type>  (14) 
oracle

>  <origin>  (14) 
adg

>  <m_score__min__energy>  (14) 
-6.8200000000000003

>  <m_primary>  (14) 
energy

$$$$
14:0
     RDKit          3D

 42 44  0  0  0  0  0  0  0  0999 V2000
   -1.1150   21.5180  -26.0050 C   0  0  0  0  0  0  0  0  0  0  0  0
   -1.9350   22.1270  -27.1030 C   0  0  0  0  0  0  0  0  0  0  0  0
   -2.8580   21.3450  -27.8130 C   0  0  0  0  0  0  0  0  0  0  0  0
   -3.5960   21.9020  -28.8600 C   0  0  0  0  0  0  0  0  0  0  0  0
   -3.4070   23.2430  -29.2250 C   0  0  0  0  0  0  0  0  0  0  0  0
   -4.3480   23.9350  -30.5470 S   0  0  0  0  0  0  0  0  0  0  0  0
   -3.8090   25.3050  -30.8500 O   0  0  0  0  0  0  0  0  0  0  0  0
   -4.2110   23.0660  -31.7670 O   0  0  0  0  0  0  0  0  0  0  0  0
   -6.0350   24.0370  -30.0830 N   0  0  0  0  0  0  0  0  0  0  0  0
   -6.4810   22.8130  -29.3690 C   0  0  0  0  0  0  0  0  0  0  0  0
   -7.4360   21.9260  -30.1870 C   0  0  0  0  0  0  0  0  0  0  0  0
   -7.0800   21.9780  -31.6080 N   0  0  0  0  0  0  0  0  0  0  0  0
   -6.7840   20.7780  -32.3500 C   0  0  0  0  0  0  0  0  0  0  0  0
   -5.6000   20.6790  -33.1020 C   0  0  0  0  0  0  0  0  0  0  0  0
   -5.3060   19.5090  -33.8080 C   0  0  0  0  0  0  0  0  0  0  0  0
   -6.1860   18.4240  -33.7660 C   0  0  0  0  0  0  0  0  0  0  0  0
   -5.8980   17.2900  -34.4500 F   0  0  0  0  0  0  0  0  0  0  0  0
   -7.3600   18.5080  -33.0130 C   0  0  0  0  0  0  0  0  0  0  0  0
   -7.6590   19.6770  -32.3070 C   0  0  0  0  0  0  0  0  0  0  0  0
   -7.0050   23.2880  -32.2630 C   0  0  0  0  0  0  0  0  0  0  0  0
   -6.8960   24.4150  -31.2220 C   0  0  0  0  0  0  0  0  0  0  0  0
   -2.4790   24.0270  -28.5200 C   0  0  0  0  0  0  0  0  0  0  0  0
   -2.2880   25.3310  -28.8400 F   0  0  0  0  0  0  0  0  0  0  0  0
   -1.7420   23.4670  -27.4710 C   0  0  0  0  0  0  0  0  0  0  0  0
   -1.5241   21.8218  -25.0302 H   0  0  0  0  0  0  0  0  0  0  0  0
   -1.1452   20.4217  -26.0897 H   0  0  0  0  0  0  0  0  0  0  0  0
   -0.0742   21.8638  -26.0897 H   0  0  0  0  0  0  0  0  0  0  0  0
   -3.0013   20.2881  -27.5440 H   0  0  0  0  0  0  0  0  0  0  0  0
   -4.3292   21.2858  -29.4010 H   0  0  0  0  0  0  0  0  0  0  0  0
   -5.5917   22.2189  -29.1118 H   0  0  0  0  0  0  0  0  0  0  0  0
   -7.0378   23.1468  -28.4810 H   0  0  0  0  0  0  0  0  0  0  0  0
   -7.3622   20.8877  -29.8314 H   0  0  0  0  0  0  0  0  0  0  0  0
   -8.4651   22.2932  -30.0603 H   0  0  0  0  0  0  0  0  0  0  0  0
   -4.9008   21.5276  -33.1349 H   0  0  0  0  0  0  0  0  0  0  0  0
   -4.3800   19.4420  -34.3979 H   0  0  0  0  0  0  0  0  0  0  0  0
   -8.0504   17.6525  -32.9756 H   0  0  0  0  0  0  0  0  0  0  0  0
   -8.5838   19.7364  -31.7144 H   0  0  0  0  0  0  0  0  0  0  0  0
   -6.1205   23.3141  -32.9164 H   0  0  0  0  0  0  0  0  0  0  0  0
   -7.9215   23.4402  -32.8520 H   0  0  0  0  0  0  0  0  0  0  0  0
   -6.4716   25.3063  -31.7072 H   0  0  0  0  0  0  0  0  0  0  0  0
   -7.9050   24.6154  -30.8324 H   0  0  0  0  0  0  0  0  0  0  0  0
   -1.0064   24.0814  -26.9312 H   0  0  0  0  0  0  0  0  0  0  0  0
  1  2  1  0
  2  3  2  0
  3  4  1  0
  4  5  2  0
  5  6  1  0
  6  7  2  0
  6  8  2  0
  6  9  1  0
  9 10  1  0
 10 11  1  0
 11 12  1  0
 12 13  1  0
 13 14  2  0
 14 15  1  0
 15 16  2  0
 16 17  1  0
 16 18  1  0
 18 19  2  0
 12 20  1  0
 20 21  1  0
  5 22  1  0
 22 23  1  0
 22 24  2  0
 24  2  1  0
 21  9  1  0
 19 13  1  0
  1 25  1  0
  1 26  1  0
  1 27  1  0
  3 28  1  0
  4 29  1  0
 10 30  1  0
 10 31  1  0
 11 32  1  0
 11 33  1  0
 14 34  1  0
 15 35  1  0
 18 36  1  0
 19 37  1  0
 20 38  1  0
 20 39  1  0
 21 40  1  0
 21 41  1  0
 24 42  1  0
M  END
>  <UniqueID>  (15) 
15

>  <SMILES>  (15) 
Cc1ccc(S(=O)(=O)N2CCN(c3ccc(F)cc3)CC2)c(F)c1

>  <Energy>  (15) 
53.903194176494374

>  <Genealogy>  (15) 
Cc1ccc(S(=O)(=O)N2CCN(c3ccc(F)cc3)CC2)c(F)c1 (3D coordinates assigned)
Cc1ccc(S(=O)(=O)N2CCN(c3ccc(F)cc3)CC2)c(F)c1 (nonaromatic ring conformer: 53.903194176494374 kcal/mol)

>  <smiles>  (15) 
Cc1ccc(S(=O)(=O)N2CCN(c3ccc(F)cc3)CC2)c(F)c1

>  <score_type>  (15) 
oracle

>  <origin>  (15) 
adg

>  <m_score__min__energy>  (15) 
-8.4399999999999995

>  <m_primary>  (15) 
energy

$$$$
15:0
     RDKit          3D

 50 52  0  0  0  0  0  0  0  0999 V2000
   -0.2680   21.0550  -34.3390 C   0  0  0  0  0  0  0  0  0  0  0  0
   -1.3150   20.9490  -33.2300 C   0  0  0  0  0  0  0  0  0  0  0  0
   -2.6770   20.8300  -33.7950 N   0  0  0  0  0  0  0  0  0  0  0  0
   -3.1340   19.4150  -33.8470 C   0  0  0  0  0  0  0  0  0  0  0  0
   -4.6280   19.2620  -33.5380 C   0  0  0  0  0  0  0  0  0  0  0  0
   -4.9180   19.7770  -32.1860 N   0  0  0  0  0  0  0  0  0  0  0  0
   -6.3580   19.6610  -31.8370 C   0  0  2  0  0  0  0  0  0  0  0  0
   -6.8400   18.1940  -31.6760 C   0  0  0  0  0  0  0  0  0  0  0  0
   -8.3380   18.0360  -31.9850 C   0  0  0  0  0  0  0  0  0  0  0  0
   -9.1070   19.3110  -31.6200 C   0  0  0  0  0  0  0  0  0  0  0  0
   -8.6750   20.4730  -32.4350 N   0  0  0  0  0  0  0  0  0  0  0  0
   -9.0510   21.7420  -31.7800 C   0  0  0  0  0  0  0  0  0  0  0  0
   -7.8190   22.5230  -31.4060 C   0  0  0  0  0  0  0  0  0  0  0  0
   -7.2320   23.4170  -32.3170 C   0  0  0  0  0  0  0  0  0  0  0  0
   -6.0990   24.1520  -31.9520 C   0  0  0  0  0  0  0  0  0  0  0  0
   -5.5440   23.9970  -30.6780 C   0  0  0  0  0  0  0  0  0  0  0  0
   -4.4500   24.7120  -30.3240 F   0  0  0  0  0  0  0  0  0  0  0  0
   -6.1210   23.1060  -29.7680 C   0  0  0  0  0  0  0  0  0  0  0  0
   -7.2540   22.3720  -30.1290 C   0  0  0  0  0  0  0  0  0  0  0  0
   -7.2410   20.4450  -32.8340 C   0  0  0  0  0  0  0  0  0  0  0  0
   -4.2830   21.0880  -31.8850 C   0  0  0  0  0  0  0  0  0  0  0  0
   -3.6320   21.7380  -33.1170 C   0  0  0  0  0  0  0  0  0  0  0  0
    0.7316   21.1562  -33.8911 H   0  0  0  0  0  0  0  0  0  0  0  0
   -0.3007   20.1490  -34.9619 H   0  0  0  0  0  0  0  0  0  0  0  0
   -0.4816   21.9361  -34.9619 H   0  0  0  0  0  0  0  0  0  0  0  0
   -1.1011   20.0608  -32.6173 H   0  0  0  0  0  0  0  0  0  0  0  0
   -1.2689   21.8611  -32.6168 H   0  0  0  0  0  0  0  0  0  0  0  0
   -2.9413   19.0202  -34.8555 H   0  0  0  0  0  0  0  0  0  0  0  0
   -2.5779   18.8586  -33.0781 H   0  0  0  0  0  0  0  0  0  0  0  0
   -5.2130   19.8289  -34.2772 H   0  0  0  0  0  0  0  0  0  0  0  0
   -4.8997   18.1971  -33.5852 H   0  0  0  0  0  0  0  0  0  0  0  0
   -6.4694   20.1210  -30.8440 H   0  0  0  0  0  0  0  0  0  0  0  0
   -6.2672   17.5556  -32.3648 H   0  0  0  0  0  0  0  0  0  0  0  0
   -6.6790   17.8994  -30.6285 H   0  0  0  0  0  0  0  0  0  0  0  0
   -8.4652   17.8331  -33.0586 H   0  0  0  0  0  0  0  0  0  0  0  0
   -8.7350   17.2019  -31.3878 H   0  0  0  0  0  0  0  0  0  0  0  0
  -10.1804   19.1388  -31.7880 H   0  0  0  0  0  0  0  0  0  0  0  0
   -8.9015   19.5413  -30.5642 H   0  0  0  0  0  0  0  0  0  0  0  0
   -9.6633   22.3396  -32.4714 H   0  0  0  0  0  0  0  0  0  0  0  0
   -9.6228   21.5176  -30.8675 H   0  0  0  0  0  0  0  0  0  0  0  0
   -7.6648   23.5395  -33.3208 H   0  0  0  0  0  0  0  0  0  0  0  0
   -5.6443   24.8525  -32.6679 H   0  0  0  0  0  0  0  0  0  0  0  0
   -5.6826   22.9827  -28.7667 H   0  0  0  0  0  0  0  0  0  0  0  0
   -7.7054   21.6728  -29.4098 H   0  0  0  0  0  0  0  0  0  0  0  0
   -7.1605   19.9708  -33.8232 H   0  0  0  0  0  0  0  0  0  0  0  0
   -6.8809   21.4843  -32.8496 H   0  0  0  0  0  0  0  0  0  0  0  0
   -5.0537   21.7694  -31.4954 H   0  0  0  0  0  0  0  0  0  0  0  0
   -3.4856   20.9059  -31.1495 H   0  0  0  0  0  0  0  0  0  0  0  0
   -4.4227   22.0154  -33.8296 H   0  0  0  0  0  0  0  0  0  0  0  0
   -3.0713   22.6202  -32.7745 H   0  0  0  0  0  0  0  0  0  0  0  0
  1  2  1  0
  2  3  1  0
  3  4  1  0
  4  5  1  0
  5  6  1  0
  6  7  1  0
  7  8  1  0
  8  9  1  0
  9 10  1  0
 10 11  1  0
 11 12  1  0
 12 13  1  0
 13 14  2  0
 14 15  1  0
 15 16  2  0
 16 17  1  0
 16 18  1  0
 18 19  2  0
 11 20  1  0
  6 21  1  0
 21 22  1  0
 22  3  1  0
 20  7  1  0
 19 13  1  0
  1 23  1  0
  1 24  1  0
  1 25  1  0
  2 26  1  0
  2 27  1  0
  4 28  1  0
  4 29  1  0
  5 30  1  0
  5 31  1  0
  7 32  1  1
  8 33  1  0
  8 34  1  0
  9 35  1  0
  9 36  1  0
 10 37  1  0
 10 38  1  0
 12 39  1  0
 12 40  1  0
 14 41  1  0
 15 42  1  0
 18 43  1  0
 19 44  1  0
 20 45  1  0
 20 46  1  0
 21 47  1  0
 21 48  1  0
 22 49  1  0
 22 50  1  0
M  END
>  <UniqueID>  (16) 
16

>  <SMILES>  (16) 
CCN1CCN([C@@H]2CCCN(Cc3ccc(F)cc3)C2)CC1

>  <Energy>  (16) 
73.78847381900734

>  <Genealogy>  (16) 
CCN1CCN([C@@H]2CCCN(Cc3ccc(F)cc3)C2)CC1 (chirality)
CCN1CCN([C@@H]2CCCN(Cc3ccc(F)cc3)C2)CC1 (3D coordinates assigned)
CCN1CCN([C@@H]2CCCN(Cc3ccc(F)cc3)C2)CC1 (nonaromatic ring conformer: 73.78847381900734 kcal/mol)

>  <smiles>  (16) 
CCN1CCN(C2CCCN(Cc3ccc(F)cc3)C2)CC1

>  <score_type>  (16) 
oracle

>  <origin>  (16) 
adg

>  <m_score__min__energy>  (16) 
-8

>  <m_primary>  (16) 
energy

$$$$
16:0
     RDKit          3D

 58 61  0  0  0  0  0  0  0  0999 V2000
   -2.9170   21.8930  -29.5320 C   0  0  0  0  0  0  0  0  0  0  0  0
   -2.7430   23.1400  -30.3930 C   0  0  0  0  0  0  0  0  0  0  0  0
   -3.4690   24.2820  -29.7960 N   0  0  0  0  0  0  0  0  0  0  0  0
   -3.5530   24.1770  -28.3300 C   0  0  0  0  0  0  0  0  0  0  0  0
   -4.7810   24.5480  -30.4340 C   0  0  0  0  0  0  0  0  0  0  0  0
   -5.8000   23.3850  -30.3260 C   0  0  0  0  0  0  0  0  0  0  0  0
   -6.8970   23.4710  -31.4120 C   0  0  0  0  0  0  0  0  0  0  0  0
   -6.5240   22.8940  -32.7210 N   0  0  0  0  0  0  0  0  0  0  0  0
   -6.2100   21.4740  -32.6760 C   0  0  0  0  0  0  0  0  0  0  0  0
   -4.8860   21.0530  -32.8600 C   0  0  0  0  0  0  0  0  0  0  0  0
   -4.5290   19.7170  -32.7720 C   0  0  0  0  0  0  0  0  0  0  0  0
   -5.4690   18.7240  -32.6150 N   0  0  0  0  0  0  0  0  0  0  0  0
   -5.0820   17.3070  -32.7660 C   0  0  0  0  0  0  0  0  0  0  0  0
   -5.3500   16.8130  -34.1890 C   0  0  0  0  0  0  0  0  0  0  0  0
   -6.7900   19.0860  -32.3820 C   0  0  0  0  0  0  0  0  0  0  0  0
   -7.7800   18.1130  -32.0810 C   0  0  0  0  0  0  0  0  0  0  0  0
   -9.1110   18.4670  -31.8900 C   0  0  0  0  0  0  0  0  0  0  0  0
   -9.5030   19.7910  -31.9920 C   0  0  0  0  0  0  0  0  0  0  0  0
   -8.5630   20.7800  -32.2600 C   0  0  0  0  0  0  0  0  0  0  0  0
   -7.1920   20.4650  -32.4360 C   0  0  0  0  0  0  0  0  0  0  0  0
   -3.0660   19.6340  -32.9850 C   0  0  0  0  0  0  0  0  0  0  0  0
   -2.1370   18.5880  -32.8240 C   0  0  0  0  0  0  0  0  0  0  0  0
   -0.7770   18.8430  -33.0550 C   0  0  0  0  0  0  0  0  0  0  0  0
   -0.3430   20.1320  -33.4030 C   0  0  0  0  0  0  0  0  0  0  0  0
   -1.2640   21.1810  -33.5000 C   0  0  0  0  0  0  0  0  0  0  0  0
   -2.6160   20.9110  -33.2790 C   0  0  0  0  0  0  0  0  0  0  0  0
   -3.7100   21.9150  -33.2270 C   0  0  0  0  0  0  0  0  0  0  0  0
   -2.8779   22.1730  -28.4690 H   0  0  0  0  0  0  0  0  0  0  0  0
   -3.8888   21.4275  -29.7531 H   0  0  0  0  0  0  0  0  0  0  0  0
   -2.1098   21.1792  -29.7531 H   0  0  0  0  0  0  0  0  0  0  0  0
   -1.6732   23.3865  -30.4625 H   0  0  0  0  0  0  0  0  0  0  0  0
   -3.1502   22.9421  -31.3955 H   0  0  0  0  0  0  0  0  0  0  0  0
   -2.9288   24.9573  -27.8701 H   0  0  0  0  0  0  0  0  0  0  0  0
   -4.5978   24.3087  -28.0122 H   0  0  0  0  0  0  0  0  0  0  0  0
   -3.1952   23.1866  -28.0122 H   0  0  0  0  0  0  0  0  0  0  0  0
   -5.2213   25.4352  -29.9555 H   0  0  0  0  0  0  0  0  0  0  0  0
   -4.5825   24.6893  -31.5067 H   0  0  0  0  0  0  0  0  0  0  0  0
   -5.2633   22.4314  -30.4386 H   0  0  0  0  0  0  0  0  0  0  0  0
   -6.2897   23.4535  -29.3434 H   0  0  0  0  0  0  0  0  0  0  0  0
   -7.7851   22.9365  -31.0436 H   0  0  0  0  0  0  0  0  0  0  0  0
   -7.0747   24.5424  -31.5866 H   0  0  0  0  0  0  0  0  0  0  0  0
   -7.2470   23.1300  -33.4300 H   0  0  0  0  0  0  0  0  0  0  0  0
   -5.6780   23.4070  -33.0590 H   0  0  0  0  0  0  0  0  0  0  0  0
   -4.0096   17.2017  -32.5448 H   0  0  0  0  0  0  0  0  0  0  0  0
   -5.6811   16.7042  -32.0676 H   0  0  0  0  0  0  0  0  0  0  0  0
   -5.8742   15.8468  -34.1491 H   0  0  0  0  0  0  0  0  0  0  0  0
   -5.9737   17.5468  -34.7205 H   0  0  0  0  0  0  0  0  0  0  0  0
   -4.3948   16.6902  -34.7205 H   0  0  0  0  0  0  0  0  0  0  0  0
   -7.4873   17.0560  -31.9971 H   0  0  0  0  0  0  0  0  0  0  0  0
   -9.8558   17.6918  -31.6568 H   0  0  0  0  0  0  0  0  0  0  0  0
  -10.5612   20.0613  -31.8606 H   0  0  0  0  0  0  0  0  0  0  0  0
   -8.8896   21.8276  -32.3370 H   0  0  0  0  0  0  0  0  0  0  0  0
   -2.4730   17.5852  -32.5214 H   0  0  0  0  0  0  0  0  0  0  0  0
   -0.0452   18.0269  -32.9628 H   0  0  0  0  0  0  0  0  0  0  0  0
    0.7232   20.3177  -33.5998 H   0  0  0  0  0  0  0  0  0  0  0  0
   -0.9291   22.1995  -33.7458 H   0  0  0  0  0  0  0  0  0  0  0  0
   -3.5176   22.6805  -32.4609 H   0  0  0  0  0  0  0  0  0  0  0  0
   -3.8429   22.4842  -34.1589 H   0  0  0  0  0  0  0  0  0  0  0  0
  1  2  1  0
  2  3  1  0
  3  4  1  0
  3  5  1  0
  5  6  1  0
  6  7  1  0
  7  8  1  0
  8  9  1  0
  9 10  2  0
 10 11  1  0
 11 12  2  0
 12 13  1  0
 13 14  1  0
 12 15  1  0
 15 16  2  0
 16 17  1  0
 17 18  2  0
 18 19  1  0
 19 20  2  0
 11 21  1  0
 21 22  2  0
 22 23  1  0
 23 24  2  0
 24 25  1  0
 25 26  2  0
 26 27  1  0
 20  9  1  0
 26 21  1  0
 27 10  1  0
 20 15  1  0
  1 28  1  0
  1 29  1  0
  1 30  1  0
  2 31  1  0
  2 32  1  0
  4 33  1  0
  4 34  1  0
  4 35  1  0
  5 36  1  0
  5 37  1  0
  6 38  1  0
  6 39  1  0
  7 40  1  0
  7 41  1  0
  8 42  1  0
  8 43  1  0
 13 44  1  0
 13 45  1  0
 14 46  1  0
 14 47  1  0
 14 48  1  0
 16 49  1  0
 17 50  1  0
 18 51  1  0
 19 52  1  0
 22 53  1  0
 23 54  1  0
 24 55  1  0
 25 56  1  0
 27 57  1  0
 27 58  1  0
M  CHG  2   8   1  12   1
M  END
>  <UniqueID>  (17) 
17

>  <SMILES>  (17) 
CCN(C)CCC[NH2+]c1c2c([n+](CC)c3ccccc13)-c1ccccc1C2

>  <Energy>  (17) 
102.87840652214672

>  <Genealogy>  (17) 
CCN(C)CCC[NH2+]c1c2c([n+](CC)c3ccccc13)-c1ccccc1C2 (protonated)
CCN(C)CCC[NH2+]c1c2c([n+](CC)c3ccccc13)-c1ccccc1C2 (3D coordinates assigned)
CCN(C)CCC[NH2+]c1c2c([n+](CC)c3ccccc13)-c1ccccc1C2 (nonaromatic ring conformer: 102.87840652214672 kcal/mol)

>  <smiles>  (17) 
CCN(C)CCCNc1c2c([n+](CC)c3ccccc13)-c1ccccc1C2

>  <score_type>  (17) 
oracle

>  <origin>  (17) 
adg

>  <m_score__min__energy>  (17) 
-8.3100000000000005

>  <m_primary>  (17) 
energy

$$$$
17:0
     RDKit          3D

 52 54  0  0  0  0  0  0  0  0999 V2000
   -8.5610   18.7620  -31.6960 C   0  0  0  0  0  0  0  0  0  0  0  0
   -7.1230   18.2710  -31.8080 C   0  0  0  0  0  0  0  0  0  0  0  0
   -6.4280   18.9350  -32.9300 N   0  0  0  0  0  0  0  0  0  0  0  0
   -7.2030   20.0660  -33.4740 C   0  0  0  0  0  0  0  0  0  0  0  0
   -5.0390   19.3210  -32.5960 C   0  0  0  0  0  0  0  0  0  0  0  0
   -4.8950   20.0430  -31.2420 C   0  0  0  0  0  0  0  0  0  0  0  0
   -4.0120   21.2100  -31.3860 N   0  0  0  0  0  0  0  0  0  0  0  0
   -2.6490   21.1500  -30.8420 C   0  0  0  0  0  0  0  0  0  0  0  0
   -2.5310   22.0800  -29.6650 C   0  0  0  0  0  0  0  0  0  0  0  0
   -3.4420   21.9840  -28.5940 C   0  0  0  0  0  0  0  0  0  0  0  0
   -3.3890   22.8980  -27.5360 C   0  0  0  0  0  0  0  0  0  0  0  0
   -2.4330   23.9190  -27.5480 C   0  0  0  0  0  0  0  0  0  0  0  0
   -1.5090   24.0080  -28.5990 C   0  0  0  0  0  0  0  0  0  0  0  0
   -1.5650   23.1030  -29.6630 C   0  0  0  0  0  0  0  0  0  0  0  0
   -0.5410   25.0180  -28.5700 O   0  0  0  0  0  0  0  0  0  0  0  0
   -0.2980   25.7750  -27.3800 C   0  0  0  0  0  0  0  0  0  0  0  0
   -1.6180   26.0660  -26.6570 C   0  0  0  0  0  0  0  0  0  0  0  0
   -2.3870   24.8660  -26.5210 O   0  0  0  0  0  0  0  0  0  0  0  0
   -4.4850   22.4350  -31.9840 C   0  0  0  0  0  0  0  0  0  0  0  0
   -4.2600   22.6730  -33.2020 O   0  0  0  0  0  0  0  0  0  0  0  0
   -5.1580   23.4670  -31.1860 C   0  0  0  0  0  0  0  0  0  0  0  0
   -4.4010   24.7810  -30.4600 S   0  0  0  0  0  0  0  0  0  0  0  0
   -5.7870   25.4030  -29.7250 C   0  0  0  0  0  0  0  0  0  0  0  0
   -6.8630   24.5740  -30.0350 C   0  0  0  0  0  0  0  0  0  0  0  0
   -6.5150   23.4880  -30.8530 C   0  0  0  0  0  0  0  0  0  0  0  0
   -7.4990   22.4430  -31.2920 C   0  0  0  0  0  0  0  0  0  0  0  0
   -8.8349   18.8555  -30.6348 H   0  0  0  0  0  0  0  0  0  0  0  0
   -8.6529   19.7424  -32.1862 H   0  0  0  0  0  0  0  0  0  0  0  0
   -9.2333   18.0425  -32.1862 H   0  0  0  0  0  0  0  0  0  0  0  0
   -6.5915   18.4949  -30.8713 H   0  0  0  0  0  0  0  0  0  0  0  0
   -7.1339   17.1866  -31.9921 H   0  0  0  0  0  0  0  0  0  0  0  0
   -7.6119   20.6627  -32.6452 H   0  0  0  0  0  0  0  0  0  0  0  0
   -6.5467   20.6971  -34.0912 H   0  0  0  0  0  0  0  0  0  0  0  0
   -8.0284   19.6817  -34.0912 H   0  0  0  0  0  0  0  0  0  0  0  0
   -4.4242   18.4093  -32.5685 H   0  0  0  0  0  0  0  0  0  0  0  0
   -4.7120   20.0306  -33.3703 H   0  0  0  0  0  0  0  0  0  0  0  0
   -5.8859   20.3759  -30.8995 H   0  0  0  0  0  0  0  0  0  0  0  0
   -4.4600   19.3494  -30.5073 H   0  0  0  0  0  0  0  0  0  0  0  0
   -2.4292   20.1217  -30.5189 H   0  0  0  0  0  0  0  0  0  0  0  0
   -1.9328   21.4541  -31.6196 H   0  0  0  0  0  0  0  0  0  0  0  0
   -4.1990   21.1859  -28.5898 H   0  0  0  0  0  0  0  0  0  0  0  0
   -4.0965   22.8140  -26.6979 H   0  0  0  0  0  0  0  0  0  0  0  0
   -0.8544   23.1906  -30.4981 H   0  0  0  0  0  0  0  0  0  0  0  0
    0.3624   25.2012  -26.7132 H   0  0  0  0  0  0  0  0  0  0  0  0
    0.1787   26.7281  -27.6528 H   0  0  0  0  0  0  0  0  0  0  0  0
   -1.4022   26.4735  -25.6583 H   0  0  0  0  0  0  0  0  0  0  0  0
   -2.1945   26.7947  -27.2457 H   0  0  0  0  0  0  0  0  0  0  0  0
   -5.8331   26.3106  -29.1052 H   0  0  0  0  0  0  0  0  0  0  0  0
   -7.8863   24.7533  -29.6736 H   0  0  0  0  0  0  0  0  0  0  0  0
   -7.9473   21.9669  -30.4075 H   0  0  0  0  0  0  0  0  0  0  0  0
   -8.2893   22.9139  -31.8951 H   0  0  0  0  0  0  0  0  0  0  0  0
   -6.9815   21.6824  -31.8951 H   0  0  0  0  0  0  0  0  0  0  0  0
  1  2  1  0
  2  3  1  0
  3  4  1  0
  3  5  1  0
  5  6  1  0
  6  7  1  0
  7  8  1  0
  8  9  1  0
  9 10  2  0
 10 11  1  0
 11 12  2  0
 12 13  1  0
 13 14  2  0
 13 15  1  0
 15 16  1  0
 16 17  1  0
 17 18  1  0
  7 19  1  0
 19 20  2  0
 19 21  1  0
 21 22  1  0
 22 23  1  0
 23 24  2  0
 24 25  1  0
 25 26  1  0
 14  9  1  0
 25 21  2  0
 18 12  1  0
  1 27  1  0
  1 28  1  0
  1 29  1  0
  2 30  1  0
  2 31  1  0
  4 32  1  0
  4 33  1  0
  4 34  1  0
  5 35  1  0
  5 36  1  0
  6 37  1  0
  6 38  1  0
  8 39  1  0
  8 40  1  0
 10 41  1  0
 11 42  1  0
 14 43  1  0
 16 44  1  0
 16 45  1  0
 17 46  1  0
 17 47  1  0
 23 48  1  0
 24 49  1  0
 26 50  1  0
 26 51  1  0
 26 52  1  0
M  END
>  <UniqueID>  (18) 
18

>  <SMILES>  (18) 
CCN(C)CCN(Cc1ccc2c(c1)OCCO2)C(=O)c1sccc1C

>  <Energy>  (18) 
82.28612221794278

>  <Genealogy>  (18) 
CCN(C)CCN(Cc1ccc2c(c1)OCCO2)C(=O)c1sccc1C (3D coordinates assigned)
CCN(C)CCN(Cc1ccc2c(c1)OCCO2)C(=O)c1sccc1C (nonaromatic ring conformer: 82.28612221794278 kcal/mol)

>  <smiles>  (18) 
CCN(C)CCN(Cc1ccc2c(c1)OCCO2)C(=O)c1sccc1C

>  <score_type>  (18) 
oracle

>  <origin>  (18) 
adg

>  <m_score__min__energy>  (18) 
-8.0600000000000005

>  <m_primary>  (18) 
energy

$$$$
18:0
     RDKit          3D

 38 39  0  0  0  0  0  0  0  0999 V2000
   -2.2970   24.2230  -29.0020 C   0  0  0  0  0  0  0  0  0  0  0  0
   -3.1190   24.9440  -29.9120 O   0  0  0  0  0  0  0  0  0  0  0  0
   -4.3920   24.5300  -30.3340 C   0  0  0  0  0  0  0  0  0  0  0  0
   -5.5680   25.1700  -29.8990 C   0  0  0  0  0  0  0  0  0  0  0  0
   -6.8170   24.7300  -30.3400 C   0  0  0  0  0  0  0  0  0  0  0  0
   -6.9150   23.6530  -31.2310 C   0  0  0  0  0  0  0  0  0  0  0  0
   -8.2640   23.1600  -31.6770 C   0  0  0  0  0  0  0  0  0  0  0  0
   -8.6200   21.8510  -30.9630 C   0  0  0  0  0  0  0  0  0  0  0  0
   -9.0050   20.7880  -31.9550 C   0  0  0  0  0  0  0  0  0  0  0  0
  -10.2040   20.7520  -32.3450 O   0  0  0  0  0  0  0  0  0  0  0  0
   -8.0400   19.7690  -32.4610 C   0  0  0  0  0  0  0  0  0  0  0  0
   -8.1160   18.4150  -32.0720 C   0  0  0  0  0  0  0  0  0  0  0  0
   -7.1990   17.4810  -32.5630 C   0  0  0  0  0  0  0  0  0  0  0  0
   -6.1970   17.8810  -33.4470 C   0  0  0  0  0  0  0  0  0  0  0  0
   -6.1080   19.2150  -33.8440 C   0  0  0  0  0  0  0  0  0  0  0  0
   -7.0220   20.1540  -33.3570 C   0  0  0  0  0  0  0  0  0  0  0  0
   -5.7460   23.0030  -31.6580 C   0  0  0  0  0  0  0  0  0  0  0  0
   -4.4810   23.4400  -31.2150 C   0  0  0  0  0  0  0  0  0  0  0  0
   -3.2920   22.8170  -31.6270 O   0  0  0  0  0  0  0  0  0  0  0  0
   -3.2320   21.6210  -32.3970 C   0  0  0  0  0  0  0  0  0  0  0  0
   -2.5839   24.4746  -27.9703 H   0  0  0  0  0  0  0  0  0  0  0  0
   -2.4280   23.1432  -29.1660 H   0  0  0  0  0  0  0  0  0  0  0  0
   -1.2435   24.4936  -29.1660 H   0  0  0  0  0  0  0  0  0  0  0  0
   -5.5021   26.0225  -29.2070 H   0  0  0  0  0  0  0  0  0  0  0  0
   -7.7297   25.2316  -29.9860 H   0  0  0  0  0  0  0  0  0  0  0  0
   -9.0235   23.9197  -31.4402 H   0  0  0  0  0  0  0  0  0  0  0  0
   -8.2355   22.9775  -32.7614 H   0  0  0  0  0  0  0  0  0  0  0  0
   -7.7492   21.5069  -30.3857 H   0  0  0  0  0  0  0  0  0  0  0  0
   -9.4743   22.0353  -30.2950 H   0  0  0  0  0  0  0  0  0  0  0  0
   -8.9039   18.0913  -31.3760 H   0  0  0  0  0  0  0  0  0  0  0  0
   -7.2678   16.4283  -32.2515 H   0  0  0  0  0  0  0  0  0  0  0  0
   -5.4766   17.1439  -33.8313 H   0  0  0  0  0  0  0  0  0  0  0  0
   -5.3174   19.5288  -34.5414 H   0  0  0  0  0  0  0  0  0  0  0  0
   -6.9461   21.2039  -33.6762 H   0  0  0  0  0  0  0  0  0  0  0  0
   -5.8178   22.1459  -32.3437 H   0  0  0  0  0  0  0  0  0  0  0  0
   -3.1884   20.7528  -31.7230 H   0  0  0  0  0  0  0  0  0  0  0  0
   -4.1276   21.5481  -33.0315 H   0  0  0  0  0  0  0  0  0  0  0  0
   -2.3336   21.6381  -33.0315 H   0  0  0  0  0  0  0  0  0  0  0  0
  1  2  1  0
  2  3  1  0
  3  4  2  0
  4  5  1  0
  5  6  2  0
  6  7  1  0
  7  8  1  0
  8  9  1  0
  9 10  2  0
  9 11  1  0
 11 12  2  0
 12 13  1  0
 13 14  2  0
 14 15  1  0
 15 16  2  0
  6 17  1  0
 17 18  2  0
 18 19  1  0
 19 20  1  0
 18  3  1  0
 16 11  1  0
  1 21  1  0
  1 22  1  0
  1 23  1  0
  4 24  1  0
  5 25  1  0
  7 26  1  0
  7 27  1  0
  8 28  1  0
  8 29  1  0
 12 30  1  0
 13 31  1  0
 14 32  1  0
 15 33  1  0
 16 34  1  0
 17 35  1  0
 20 36  1  0
 20 37  1  0
 20 38  1  0
M  END
>  <UniqueID>  (19) 
19

>  <SMILES>  (19) 
COc1ccc(CCC(=O)c2ccccc2)cc1OC

>  <Energy>  (19) 
35.49151441081023

>  <Genealogy>  (19) 
COc1ccc(CCC(=O)c2ccccc2)cc1OC (3D coordinates assigned)
COc1ccc(CCC(=O)c2ccccc2)cc1OC (optimized conformer: 35.49151441081023 kcal/mol)

>  <smiles>  (19) 
COc1ccc(CCC(=O)c2ccccc2)cc1OC

>  <score_type>  (19) 
oracle

>  <origin>  (19) 
adg

>  <m_score__min__energy>  (19) 
-8.2599999999999998

>  <m_primary>  (19) 
energy

$$$$
19:0
     RDKit          3D

 63 66  0  0  0  0  0  0  0  0999 V2000
   -9.1410   19.0300  -32.7110 C   0  0  0  0  0  0  0  0  0  0  0  0
   -8.2140   18.4410  -31.6390 C   0  0  0  0  0  0  0  0  0  0  0  0
   -6.7750   18.3690  -32.0240 N   0  0  0  0  0  0  0  0  0  0  0  0
   -6.1230   17.0900  -31.6450 C   0  0  0  0  0  0  0  0  0  0  0  0
   -5.4810   16.3660  -32.8340 C   0  0  0  0  0  0  0  0  0  0  0  0
   -6.5360   18.6420  -33.4660 C   0  0  0  0  0  0  0  0  0  0  0  0
   -5.5460   19.7970  -33.7420 C   0  0  0  0  0  0  0  0  0  0  0  0
   -5.1210   20.4160  -32.5380 O   0  0  0  0  0  0  0  0  0  0  0  0
   -4.1090   21.3850  -32.7330 C   0  0  0  0  0  0  0  0  0  0  0  0
   -4.4020   22.6730  -31.9380 C   0  0  1  0  0  0  0  0  0  0  0  0
   -5.8920   23.1240  -32.1250 C   0  0  0  0  0  0  0  0  0  0  0  0
   -6.5120   23.8420  -30.9680 N   0  0  0  0  0  0  0  0  0  0  0  0
   -7.3690   22.9490  -30.1540 C   0  0  0  0  0  0  0  0  0  0  0  0
   -8.0140   21.8840  -31.0540 C   0  0  0  0  0  0  0  0  0  0  0  0
   -9.4800   21.5790  -30.7790 C   0  0  0  0  0  0  0  0  0  0  0  0
   -9.0880   22.4070  -31.9950 C   0  0  0  0  0  0  0  0  0  0  0  0
   -5.5390   24.5810  -30.1300 C   0  0  0  0  0  0  0  0  0  0  0  0
   -4.4820   23.6390  -29.6490 C   0  0  0  0  0  0  0  0  0  0  0  0
   -4.0270   22.6370  -30.4720 C   0  0  0  0  0  0  0  0  0  0  0  0
   -3.0850   21.9400  -29.7140 C   0  0  0  0  0  0  0  0  0  0  0  0
   -2.3140   20.7990  -29.9700 C   0  0  0  0  0  0  0  0  0  0  0  0
   -1.4510   20.3360  -28.9640 C   0  0  0  0  0  0  0  0  0  0  0  0
   -1.3820   20.9940  -27.7220 C   0  0  0  0  0  0  0  0  0  0  0  0
   -2.1810   22.1200  -27.4670 C   0  0  0  0  0  0  0  0  0  0  0  0
   -3.0260   22.5740  -28.4860 C   0  0  0  0  0  0  0  0  0  0  0  0
   -3.8680   23.6310  -28.4440 N   0  0  0  0  0  0  0  0  0  0  0  0
   -4.1330   24.5200  -27.3140 C   0  0  0  0  0  0  0  0  0  0  0  0
   -9.9739   19.5592  -32.2249 H   0  0  0  0  0  0  0  0  0  0  0  0
   -8.5751   19.7345  -33.3382 H   0  0  0  0  0  0  0  0  0  0  0  0
   -9.5384   18.2184  -33.3382 H   0  0  0  0  0  0  0  0  0  0  0  0
   -8.2955   19.0647  -30.7366 H   0  0  0  0  0  0  0  0  0  0  0  0
   -8.5437   17.4033  -31.4823 H   0  0  0  0  0  0  0  0  0  0  0  0
   -6.2760   19.1170  -31.4860 H   0  0  0  0  0  0  0  0  0  0  0  0
   -5.3411   17.3028  -30.9012 H   0  0  0  0  0  0  0  0  0  0  0  0
   -6.9056   16.4297  -31.2431 H   0  0  0  0  0  0  0  0  0  0  0  0
   -4.7938   15.5910  -32.4638 H   0  0  0  0  0  0  0  0  0  0  0  0
   -6.2663   15.8979  -33.4457 H   0  0  0  0  0  0  0  0  0  0  0  0
   -4.9223   17.0896  -33.4457 H   0  0  0  0  0  0  0  0  0  0  0  0
   -6.1350   17.7275  -33.9274 H   0  0  0  0  0  0  0  0  0  0  0  0
   -7.5027   18.9488  -33.8918 H   0  0  0  0  0  0  0  0  0  0  0  0
   -4.6667   19.3963  -34.2677 H   0  0  0  0  0  0  0  0  0  0  0  0
   -6.0587   20.5520  -34.3561 H   0  0  0  0  0  0  0  0  0  0  0  0
   -3.1467   20.9696  -32.3991 H   0  0  0  0  0  0  0  0  0  0  0  0
   -4.0747   21.6390  -33.8027 H   0  0  0  0  0  0  0  0  0  0  0  0
   -3.7285   23.4242  -32.3764 H   0  0  0  0  0  0  0  0  0  0  0  0
   -5.9338   23.7929  -32.9972 H   0  0  0  0  0  0  0  0  0  0  0  0
   -6.4698   22.1951  -32.2406 H   0  0  0  0  0  0  0  0  0  0  0  0
   -6.7559   22.4552  -29.3857 H   0  0  0  0  0  0  0  0  0  0  0  0
   -8.1588   23.5439  -29.6721 H   0  0  0  0  0  0  0  0  0  0  0  0
   -7.1044   21.2748  -31.1615 H   0  0  0  0  0  0  0  0  0  0  0  0
   -9.8632   20.5563  -30.9100 H   0  0  0  0  0  0  0  0  0  0  0  0
  -10.1580   21.7233  -29.9249 H   0  0  0  0  0  0  0  0  0  0  0  0
   -9.1885   21.9826  -33.0049 H   0  0  0  0  0  0  0  0  0  0  0  0
   -9.3661   23.3978  -32.3836 H   0  0  0  0  0  0  0  0  0  0  0  0
   -5.0745   25.3807  -30.7256 H   0  0  0  0  0  0  0  0  0  0  0  0
   -6.0583   25.0226  -29.2667 H   0  0  0  0  0  0  0  0  0  0  0  0
   -2.3830   20.2780  -30.9363 H   0  0  0  0  0  0  0  0  0  0  0  0
   -0.8235   19.4515  -29.1482 H   0  0  0  0  0  0  0  0  0  0  0  0
   -0.6970   20.6234  -26.9452 H   0  0  0  0  0  0  0  0  0  0  0  0
   -2.1438   22.6310  -26.4936 H   0  0  0  0  0  0  0  0  0  0  0  0
   -3.9705   23.9748  -26.3726 H   0  0  0  0  0  0  0  0  0  0  0  0
   -3.4532   25.3836  -27.3596 H   0  0  0  0  0  0  0  0  0  0  0  0
   -5.1747   24.8705  -27.3596 H   0  0  0  0  0  0  0  0  0  0  0  0
  1  2  1  0
  2  3  1  0
  3  4  1  0
  4  5  1  0
  3  6  1  0
  6  7  1  0
  7  8  1  0
  8  9  1  0
  9 10  1  0
 10 11  1  0
 11 12  1  0
 12 13  1  0
 13 14  1  0
 14 15  1  0
 15 16  1  0
 12 17  1  0
 17 18  1  0
 18 19  2  0
 19 20  1  0
 20 21  2  0
 21 22  1  0
 22 23  2  0
 23 24  1  0
 24 25  2  0
 25 26  1  0
 26 27  1  0
 19 10  1  0
 25 20  1  0
 16 14  1  0
 26 18  1  0
  1 28  1  0
  1 29  1  0
  1 30  1  0
  2 31  1  0
  2 32  1  0
  3 33  1  0
  4 34  1  0
  4 35  1  0
  5 36  1  0
  5 37  1  0
  5 38  1  0
  6 39  1  0
  6 40  1  0
  7 41  1  0
  7 42  1  0
  9 43  1  0
  9 44  1  0
 10 45  1  6
 11 46  1  0
 11 47  1  0
 13 48  1  0
 13 49  1  0
 14 50  1  0
 15 51  1  0
 15 52  1  0
 16 53  1  0
 16 54  1  0
 17 55  1  0
 17 56  1  0
 21 57  1  0
 22 58  1  0
 23 59  1  0
 24 60  1  0
 27 61  1  0
 27 62  1  0
 27 63  1  0
M  CHG  1   3   1
M  END
>  <UniqueID>  (20) 
20

>  <SMILES>  (20) 
CC[NH+](CC)CCOC[C@H]1CN(CC2CC2)Cc2c1c1ccccc1n2C

>  <Energy>  (20) 
388.1443618834528

>  <Genealogy>  (20) 
CC[NH+](CC)CCOCC1CN(CC2CC2)Cc2c1c1ccccc1n2C (protonated)
CC[NH+](CC)CCOC[C@H]1CN(CC2CC2)Cc2c1c1ccccc1n2C (chirality)
CC[NH+](CC)CCOC[C@H]1CN(CC2CC2)Cc2c1c1ccccc1n2C (3D coordinates assigned)
CC[NH+](CC)CCOC[C@H]1CN(CC2CC2)Cc2c1c1ccccc1n2C (nonaromatic ring conformer: 388.1443618834528 kcal/mol)

>  <smiles>  (20) 
CCN(CC)CCOCC1CN(CC2CC2)Cc2c1c1ccccc1n2C

>  <score_type>  (20) 
oracle

>  <origin>  (20) 
adg

>  <m_score__min__energy>  (20) 
-7.3899999999999997

>  <m_primary>  (20) 
energy

$$$$
20:0
     RDKit          3D

 35 35  0  0  0  0  0  0  0  0999 V2000
   -3.6830   22.1420  -32.3060 C   0  0  0  0  0  0  0  0  0  0  0  0
   -4.5820   22.5370  -31.1380 C   0  0  0  0  0  0  0  0  0  0  0  0
   -4.9480   23.9700  -31.2260 N   0  0  0  0  0  0  0  0  0  0  0  0
   -5.0590   24.5610  -29.8800 C   0  0  0  0  0  0  0  0  0  0  0  0
   -6.2210   24.1500  -31.9530 C   0  0  0  0  0  0  0  0  0  0  0  0
   -6.9820   22.8950  -31.9600 C   0  0  0  0  0  0  0  0  0  0  0  0
   -7.6060   21.8630  -31.9640 C   0  0  0  0  0  0  0  0  0  0  0  0
   -8.3690   20.6040  -31.9680 C   0  0  0  0  0  0  0  0  0  0  0  0
   -7.9260   19.7060  -33.0650 N   0  0  0  0  0  0  0  0  0  0  0  0
   -6.5740   20.0570  -33.5750 C   0  0  0  0  0  0  0  0  0  0  0  0
   -5.4490   19.2690  -32.8730 C   0  0  0  0  0  0  0  0  0  0  0  0
   -5.8340   18.9100  -31.5650 O   0  0  0  0  0  0  0  0  0  0  0  0
   -6.8770   17.9500  -31.6110 C   0  0  0  0  0  0  0  0  0  0  0  0
   -7.9760   18.2880  -32.6470 C   0  0  0  0  0  0  0  0  0  0  0  0
   -2.7402   21.7278  -31.9193 H   0  0  0  0  0  0  0  0  0  0  0  0
   -4.1917   21.3845  -32.9204 H   0  0  0  0  0  0  0  0  0  0  0  0
   -3.4691   23.0290  -32.9204 H   0  0  0  0  0  0  0  0  0  0  0  0
   -5.4973   21.9274  -31.1635 H   0  0  0  0  0  0  0  0  0  0  0  0
   -4.0384   22.3659  -30.1971 H   0  0  0  0  0  0  0  0  0  0  0  0
   -4.9118   23.7774  -29.1222 H   0  0  0  0  0  0  0  0  0  0  0  0
   -4.2913   25.3391  -29.7567 H   0  0  0  0  0  0  0  0  0  0  0  0
   -6.0567   25.0075  -29.7567 H   0  0  0  0  0  0  0  0  0  0  0  0
   -6.8149   24.9324  -31.4578 H   0  0  0  0  0  0  0  0  0  0  0  0
   -6.0036   24.4440  -32.9905 H   0  0  0  0  0  0  0  0  0  0  0  0
   -8.2214   20.0928  -31.0052 H   0  0  0  0  0  0  0  0  0  0  0  0
   -9.4313   20.8432  -32.1237 H   0  0  0  0  0  0  0  0  0  0  0  0
   -8.6070   19.8080  -33.8570 H   0  0  0  0  0  0  0  0  0  0  0  0
   -6.5369   19.8387  -34.6525 H   0  0  0  0  0  0  0  0  0  0  0  0
   -6.4089   21.1250  -33.3700 H   0  0  0  0  0  0  0  0  0  0  0  0
   -5.2330   18.3571  -33.4491 H   0  0  0  0  0  0  0  0  0  0  0  0
   -4.5535   19.9053  -32.8162 H   0  0  0  0  0  0  0  0  0  0  0  0
   -6.4415   16.9737  -31.8701 H   0  0  0  0  0  0  0  0  0  0  0  0
   -7.3552   17.9413  -30.6204 H   0  0  0  0  0  0  0  0  0  0  0  0
   -7.8366   17.6514  -33.5332 H   0  0  0  0  0  0  0  0  0  0  0  0
   -8.9537   18.1066  -32.1767 H   0  0  0  0  0  0  0  0  0  0  0  0
  1  2  1  0
  2  3  1  0
  3  4  1  0
  3  5  1  0
  5  6  1  0
  6  7  3  0
  7  8  1  0
  8  9  1  0
  9 10  1  0
 10 11  1  0
 11 12  1  0
 12 13  1  0
 13 14  1  0
 14  9  1  0
  1 15  1  0
  1 16  1  0
  1 17  1  0
  2 18  1  0
  2 19  1  0
  4 20  1  0
  4 21  1  0
  4 22  1  0
  5 23  1  0
  5 24  1  0
  8 25  1  0
  8 26  1  0
  9 27  1  0
 10 28  1  0
 10 29  1  0
 11 30  1  0
 11 31  1  0
 13 32  1  0
 13 33  1  0
 14 34  1  0
 14 35  1  0
M  CHG  1   9   1
M  END
>  <UniqueID>  (21) 
21

>  <SMILES>  (21) 
CCN(C)CC#CC[NH+]1CCOCC1

>  <Energy>  (21) 
39.16274876700237

>  <Genealogy>  (21) 
CCN(C)CC#CC[NH+]1CCOCC1 (protonated)
CCN(C)CC#CC[NH+]1CCOCC1 (3D coordinates assigned)
CCN(C)CC#CC[NH+]1CCOCC1 (nonaromatic ring conformer: 39.16274876700237 kcal/mol)

>  <smiles>  (21) 
CCN(C)CC#CCN1CCOCC1

>  <score_type>  (21) 
oracle

>  <origin>  (21) 
adg

>  <m_score__min__energy>  (21) 
-4.71

>  <m_primary>  (21) 
energy

$$$$
21:0
     RDKit          3D

 32 33  0  0  0  0  0  0  0  0999 V2000
   -5.4270   26.1760  -30.8370 O   0  0  0  0  0  0  0  0  0  0  0  0
   -4.8910   25.0370  -30.8350 C   0  0  0  0  0  0  0  0  0  0  0  0
   -3.5200   24.9120  -30.4420 N   0  0  0  0  0  0  0  0  0  0  0  0
   -3.0840   24.2290  -29.2280 C   0  0  0  0  0  0  0  0  0  0  0  0
   -1.5890   24.4390  -29.0200 C   0  0  0  0  0  0  0  0  0  0  0  0
   -0.8840   23.5810  -29.8430 F   0  0  0  0  0  0  0  0  0  0  0  0
   -1.2480   25.7440  -29.3280 F   0  0  0  0  0  0  0  0  0  0  0  0
   -1.2550   24.1780  -27.7030 F   0  0  0  0  0  0  0  0  0  0  0  0
   -5.6860   23.8620  -31.2360 C   0  0  0  0  0  0  0  0  0  0  0  0
   -7.0680   23.8650  -30.9960 C   0  0  0  0  0  0  0  0  0  0  0  0
   -7.8490   22.7640  -31.3510 C   0  0  0  0  0  0  0  0  0  0  0  0
   -7.2580   21.6530  -31.9530 C   0  0  0  0  0  0  0  0  0  0  0  0
   -5.8830   21.6350  -32.1950 C   0  0  0  0  0  0  0  0  0  0  0  0
   -5.0790   22.7300  -31.8290 C   0  0  0  0  0  0  0  0  0  0  0  0
   -3.6610   22.7020  -32.0770 N   0  0  0  0  0  0  0  0  0  0  0  0
   -2.9410   21.4860  -32.3580 C   0  0  0  0  0  0  0  0  0  0  0  0
   -3.4880   20.3730  -32.1320 O   0  0  0  0  0  0  0  0  0  0  0  0
   -1.5270   21.4750  -32.8910 C   0  0  0  0  0  0  0  0  0  0  0  0
   -0.9970   20.1280  -33.3580 C   0  0  0  0  0  0  0  0  0  0  0  0
   -0.4680   20.7520  -32.0720 C   0  0  0  0  0  0  0  0  0  0  0  0
   -3.6323   24.6346  -28.3650 H   0  0  0  0  0  0  0  0  0  0  0  0
   -3.2871   23.1524  -29.3267 H   0  0  0  0  0  0  0  0  0  0  0  0
   -7.5392   24.7404  -30.5251 H   0  0  0  0  0  0  0  0  0  0  0  0
   -8.9315   22.7724  -31.1559 H   0  0  0  0  0  0  0  0  0  0  0  0
   -7.8766   20.7892  -32.2377 H   0  0  0  0  0  0  0  0  0  0  0  0
   -5.4248   20.7580  -32.6755 H   0  0  0  0  0  0  0  0  0  0  0  0
   -3.1320   23.5940  -31.9640 H   0  0  0  0  0  0  0  0  0  0  0  0
   -1.6079   22.4823  -33.3256 H   0  0  0  0  0  0  0  0  0  0  0  0
   -1.6414   19.2376  -33.3129 H   0  0  0  0  0  0  0  0  0  0  0  0
   -0.5404   19.7504  -34.2848 H   0  0  0  0  0  0  0  0  0  0  0  0
   -0.7306   20.3123  -31.0985 H   0  0  0  0  0  0  0  0  0  0  0  0
    0.5286   21.0117  -31.6855 H   0  0  0  0  0  0  0  0  0  0  0  0
  1  2  2  0
  2  3  1  0
  3  4  1  0
  4  5  1  0
  5  6  1  0
  5  7  1  0
  5  8  1  0
  2  9  1  0
  9 10  2  0
 10 11  1  0
 11 12  2  0
 12 13  1  0
 13 14  2  0
 14 15  1  0
 15 16  1  0
 16 17  2  0
 16 18  1  0
 18 19  1  0
 19 20  1  0
 14  9  1  0
 20 18  1  0
  4 21  1  0
  4 22  1  0
 10 23  1  0
 11 24  1  0
 12 25  1  0
 13 26  1  0
 15 27  1  0
 18 28  1  0
 19 29  1  0
 19 30  1  0
 20 31  1  0
 20 32  1  0
M  CHG  1   3  -1
M  END
>  <UniqueID>  (22) 
22

>  <SMILES>  (22) 
O=C([N-]CC(F)(F)F)c1ccccc1NC(=O)C1CC1

>  <Energy>  (22) 
303.58517359642786

>  <Genealogy>  (22) 
O=C([N-]CC(F)(F)F)c1ccccc1NC(=O)C1CC1 (protonated)
O=C([N-]CC(F)(F)F)c1ccccc1NC(=O)C1CC1 (3D coordinates assigned)
O=C([N-]CC(F)(F)F)c1ccccc1NC(=O)C1CC1 (nonaromatic ring conformer: 303.58517359642786 kcal/mol)

>  <smiles>  (22) 
O=C(NCC(F)(F)F)c1ccccc1NC(=O)C1CC1

>  <score_type>  (22) 
oracle

>  <origin>  (22) 
adg

>  <m_score__min__energy>  (22) 
-7.4299999999999997

>  <m_primary>  (22) 
energy

$$$$
22:0
     RDKit          3D

 59 61  0  0  0  0  0  0  0  0999 V2000
   -2.7280   18.5540  -25.9120 C   0  0  0  0  0  0  0  0  0  0  0  0
   -3.1470   19.6950  -26.8310 C   0  0  0  0  0  0  0  0  0  0  0  0
   -2.1040   19.9380  -27.8360 N   0  0  0  0  0  0  0  0  0  0  0  0
   -0.7670   19.6330  -27.3070 C   0  0  0  0  0  0  0  0  0  0  0  0
    0.2700   19.6610  -28.4330 C   0  0  0  0  0  0  0  0  0  0  0  0
   -0.4010   19.4960  -29.7300 N   0  0  0  0  0  0  0  0  0  0  0  0
    0.0040   20.5230  -30.7030 C   0  0  0  0  0  0  0  0  0  0  0  0
   -1.0500   21.6390  -30.8550 C   0  0  0  0  0  0  0  0  0  0  0  0
   -1.9030   21.7600  -29.6610 N   0  0  0  0  0  0  0  0  0  0  0  0
   -2.6020   23.0240  -29.6260 C   0  0  0  0  0  0  0  0  0  0  0  0
   -2.1680   24.2320  -29.0630 C   0  0  0  0  0  0  0  0  0  0  0  0
   -0.9730   24.4490  -28.2140 C   0  0  0  0  0  0  0  0  0  0  0  0
   -0.4680   23.3960  -27.5380 C   0  0  0  0  0  0  0  0  0  0  0  0
    0.9670   22.9420  -27.5050 C   0  0  0  0  0  0  0  0  0  0  0  0
    1.9100   23.9290  -26.8240 C   0  0  0  0  0  0  0  0  0  0  0  0
    1.7960   25.3450  -27.4130 C   0  0  0  0  0  0  0  0  0  0  0  0
    0.5650   26.0770  -27.0390 N   0  0  0  0  0  0  0  0  0  0  0  0
    0.7810   27.4630  -26.5990 C   0  0  0  0  0  0  0  0  0  0  0  0
   -0.5960   25.8960  -27.9330 C   0  0  0  0  0  0  0  0  0  0  0  0
   -3.0200   25.2410  -29.3740 N   0  0  0  0  0  0  0  0  0  0  0  0
   -3.9860   24.6670  -30.1180 C   0  0  0  0  0  0  0  0  0  0  0  0
   -5.0890   25.3070  -30.6800 C   0  0  0  0  0  0  0  0  0  0  0  0
   -5.9850   24.5320  -31.4390 C   0  0  0  0  0  0  0  0  0  0  0  0
   -5.7620   23.1500  -31.6170 C   0  0  0  0  0  0  0  0  0  0  0  0
   -4.6400   22.5300  -31.0390 C   0  0  0  0  0  0  0  0  0  0  0  0
   -3.7700   23.3250  -30.2920 C   0  0  0  0  0  0  0  0  0  0  0  0
   -2.8428   18.8666  -24.8636 H   0  0  0  0  0  0  0  0  0  0  0  0
   -3.3625   17.6763  -26.1045 H   0  0  0  0  0  0  0  0  0  0  0  0
   -1.6763   18.2955  -26.1045 H   0  0  0  0  0  0  0  0  0  0  0  0
   -4.0864   19.4287  -27.3377 H   0  0  0  0  0  0  0  0  0  0  0  0
   -3.2919   20.6066  -26.2326 H   0  0  0  0  0  0  0  0  0  0  0  0
   -2.2850   19.2910  -28.6400 H   0  0  0  0  0  0  0  0  0  0  0  0
   -0.4980   20.3818  -26.5474 H   0  0  0  0  0  0  0  0  0  0  0  0
   -0.7806   18.6287  -26.8585 H   0  0  0  0  0  0  0  0  0  0  0  0
    0.8015   20.6239  -28.4164 H   0  0  0  0  0  0  0  0  0  0  0  0
    0.9874   18.8399  -28.2874 H   0  0  0  0  0  0  0  0  0  0  0  0
   -1.4380   19.5350  -29.5900 H   0  0  0  0  0  0  0  0  0  0  0  0
    0.9496   20.9738  -30.3675 H   0  0  0  0  0  0  0  0  0  0  0  0
    0.1154   20.0322  -31.6811 H   0  0  0  0  0  0  0  0  0  0  0  0
   -0.5327   22.5956  -31.0200 H   0  0  0  0  0  0  0  0  0  0  0  0
   -1.6951   21.3824  -31.7082 H   0  0  0  0  0  0  0  0  0  0  0  0
   -1.3210   21.6260  -28.8040 H   0  0  0  0  0  0  0  0  0  0  0  0
   -2.6160   20.9950  -29.6780 H   0  0  0  0  0  0  0  0  0  0  0  0
   -1.1827   22.8049  -26.9466 H   0  0  0  0  0  0  0  0  0  0  0  0
    1.0158   21.9858  -26.9634 H   0  0  0  0  0  0  0  0  0  0  0  0
    1.2983   22.8516  -28.5500 H   0  0  0  0  0  0  0  0  0  0  0  0
    1.6651   23.9707  -25.7524 H   0  0  0  0  0  0  0  0  0  0  0  0
    2.9398   23.5783  -26.9869 H   0  0  0  0  0  0  0  0  0  0  0  0
    2.6605   25.9302  -27.0663 H   0  0  0  0  0  0  0  0  0  0  0  0
    1.7634   25.2235  -28.5058 H   0  0  0  0  0  0  0  0  0  0  0  0
    0.7871   27.5020  -25.4997 H   0  0  0  0  0  0  0  0  0  0  0  0
    1.7462   27.8237  -26.9840 H   0  0  0  0  0  0  0  0  0  0  0  0
   -0.0287   28.1003  -26.9840 H   0  0  0  0  0  0  0  0  0  0  0  0
   -1.4629   26.3907  -27.4706 H   0  0  0  0  0  0  0  0  0  0  0  0
   -0.3088   26.3320  -28.9012 H   0  0  0  0  0  0  0  0  0  0  0  0
   -5.2540   26.3848  -30.5347 H   0  0  0  0  0  0  0  0  0  0  0  0
   -6.8654   25.0066  -31.8968 H   0  0  0  0  0  0  0  0  0  0  0  0
   -6.4702   22.5541  -32.2115 H   0  0  0  0  0  0  0  0  0  0  0  0
   -4.4543   21.4539  -31.1714 H   0  0  0  0  0  0  0  0  0  0  0  0
  1  2  1  0
  2  3  1  0
  3  4  1  0
  4  5  1  0
  5  6  1  0
  6  7  1  0
  7  8  1  0
  8  9  1  0
  9 10  1  0
 10 11  2  0
 11 12  1  0
 12 13  2  0
 13 14  1  0
 14 15  1  0
 15 16  1  0
 16 17  1  0
 17 18  1  0
 17 19  1  0
 11 20  1  0
 20 21  1  0
 21 22  2  0
 22 23  1  0
 23 24  2  0
 24 25  1  0
 25 26  2  0
 26 10  1  0
 19 12  1  0
 26 21  1  0
  1 27  1  0
  1 28  1  0
  1 29  1  0
  2 30  1  0
  2 31  1  0
  3 32  1  0
  4 33  1  0
  4 34  1  0
  5 35  1  0
  5 36  1  0
  6 37  1  0
  7 38  1  0
  7 39  1  0
  8 40  1  0
  8 41  1  0
  9 42  1  0
  9 43  1  0
 13 44  1  0
 14 45  1  0
 14 46  1  0
 15 47  1  0
 15 48  1  0
 16 49  1  0
 16 50  1  0
 18 51  1  0
 18 52  1  0
 18 53  1  0
 19 54  1  0
 19 55  1  0
 22 56  1  0
 23 57  1  0
 24 58  1  0
 25 59  1  0
M  CHG  2   9   1  20  -1
M  END
>  <UniqueID>  (23) 
23

>  <SMILES>  (23) 
CCNCCNCC[NH2+]c1c(C2=CCCCN(C)C2)[n-]c2ccccc12

>  <Energy>  (23) 
103.59812632503755

>  <Genealogy>  (23) 
CCNCCNCC[NH2+]c1c(C2=CCCCN(C)C2)[n-]c2ccccc12 (protonated)
CCNCCNCC[NH2+]c1c(C2=CCCCN(C)C2)[n-]c2ccccc12 (3D coordinates assigned)
CCNCCNCC[NH2+]c1c(C2=CCCCN(C)C2)[n-]c2ccccc12 (nonaromatic ring conformer: 103.59812632503755 kcal/mol)

>  <smiles>  (23) 
CCNCCNCCNc1c(C2=CCCCN(C)C2)[nH]c2ccccc12

>  <score_type>  (23) 
oracle

>  <origin>  (23) 
adg

>  <m_score__min__energy>  (23) 
-5.7800000000000002

>  <m_primary>  (23) 
energy

$$$$
23:0
     RDKit          3D

 53 56  0  0  0  0  0  0  0  0999 V2000
   -3.5090   23.6310  -27.4970 C   0  0  0  0  0  0  0  0  0  0  0  0
   -3.4120   22.6590  -28.6810 C   0  0  0  0  0  0  0  0  0  0  0  0
   -4.0200   23.1770  -29.9290 N   0  0  0  0  0  0  0  0  0  0  0  0
   -5.0710   24.1840  -29.6690 C   0  0  0  0  0  0  0  0  0  0  0  0
   -5.1440   25.2080  -30.7980 C   0  0  0  0  0  0  0  0  0  0  0  0
   -4.4490   22.0960  -30.8510 C   0  0  0  0  0  0  0  0  0  0  0  0
   -3.6710   22.1880  -32.1710 C   0  0  0  0  0  0  0  0  0  0  0  0
   -4.5710   22.1160  -33.3320 N   0  0  0  0  0  0  0  0  0  0  0  0
   -5.6480   21.1840  -33.0710 C   0  0  0  0  0  0  0  0  0  0  0  0
   -6.9180   21.5820  -32.5640 C   0  0  0  0  0  0  0  0  0  0  0  0
   -7.2140   22.9390  -32.3070 C   0  0  0  0  0  0  0  0  0  0  0  0
   -8.4780   23.3230  -31.8670 C   0  0  0  0  0  0  0  0  0  0  0  0
   -9.4760   22.3740  -31.6860 C   0  0  0  0  0  0  0  0  0  0  0  0
   -9.2120   21.0240  -31.9090 C   0  0  0  0  0  0  0  0  0  0  0  0
   -7.9280   20.5860  -32.3120 C   0  0  0  0  0  0  0  0  0  0  0  0
   -7.6420   19.2380  -32.4780 N   0  0  0  0  0  0  0  0  0  0  0  0
   -8.5370   18.1850  -31.9700 C   0  0  0  0  0  0  0  0  0  0  0  0
   -6.4500   18.9020  -33.0640 C   0  0  0  0  0  0  0  0  0  0  0  0
   -5.4650   19.8260  -33.3210 C   0  0  0  0  0  0  0  0  0  0  0  0
   -4.3910   19.2530  -33.8250 O   0  0  0  0  0  0  0  0  0  0  0  0
   -4.6560   17.9710  -33.9330 C   0  0  0  0  0  0  0  0  0  0  0  0
   -3.8150   16.9880  -34.4470 C   0  0  0  0  0  0  0  0  0  0  0  0
   -4.3080   15.6760  -34.5340 C   0  0  0  0  0  0  0  0  0  0  0  0
   -5.6260   15.3790  -34.1260 C   0  0  0  0  0  0  0  0  0  0  0  0
   -6.2930   13.5970  -34.3020 Br  0  0  0  0  0  0  0  0  0  0  0  0
   -6.4590   16.3880  -33.6090 C   0  0  0  0  0  0  0  0  0  0  0  0
   -5.9320   17.6810  -33.4890 C   0  0  0  0  0  0  0  0  0  0  0  0
   -3.4527   23.0672  -26.5542 H   0  0  0  0  0  0  0  0  0  0  0  0
   -2.6782   24.3504  -27.5442 H   0  0  0  0  0  0  0  0  0  0  0  0
   -4.4656   24.1720  -27.5442 H   0  0  0  0  0  0  0  0  0  0  0  0
   -2.3491   22.4508  -28.8731 H   0  0  0  0  0  0  0  0  0  0  0  0
   -3.9732   21.7552  -28.4014 H   0  0  0  0  0  0  0  0  0  0  0  0
   -6.0423   23.6750  -29.5826 H   0  0  0  0  0  0  0  0  0  0  0  0
   -4.8256   24.7112  -28.7353 H   0  0  0  0  0  0  0  0  0  0  0  0
   -5.2161   26.2194  -30.3716 H   0  0  0  0  0  0  0  0  0  0  0  0
   -4.2384   25.1352  -31.4181 H   0  0  0  0  0  0  0  0  0  0  0  0
   -6.0301   25.0075  -31.4181 H   0  0  0  0  0  0  0  0  0  0  0  0
   -4.2556   21.1199  -30.3821 H   0  0  0  0  0  0  0  0  0  0  0  0
   -5.5237   22.2055  -31.0584 H   0  0  0  0  0  0  0  0  0  0  0  0
   -3.1264   23.1433  -32.1993 H   0  0  0  0  0  0  0  0  0  0  0  0
   -2.9737   21.3388  -32.2211 H   0  0  0  0  0  0  0  0  0  0  0  0
   -4.0220   21.8040  -34.1660 H   0  0  0  0  0  0  0  0  0  0  0  0
   -4.9580   23.0550  -33.5760 H   0  0  0  0  0  0  0  0  0  0  0  0
   -6.4360   23.7022  -32.4564 H   0  0  0  0  0  0  0  0  0  0  0  0
   -8.6873   24.3832  -31.6617 H   0  0  0  0  0  0  0  0  0  0  0  0
  -10.4797   22.6897  -31.3651 H   0  0  0  0  0  0  0  0  0  0  0  0
  -10.0156   20.2859  -31.7694 H   0  0  0  0  0  0  0  0  0  0  0  0
   -8.5281   18.1954  -30.8701 H   0  0  0  0  0  0  0  0  0  0  0  0
   -9.5601   18.3681  -32.3302 H   0  0  0  0  0  0  0  0  0  0  0  0
   -8.1914   17.2048  -32.3302 H   0  0  0  0  0  0  0  0  0  0  0  0
   -2.7939   17.2319  -34.7755 H   0  0  0  0  0  0  0  0  0  0  0  0
   -3.6627   14.8745  -34.9227 H   0  0  0  0  0  0  0  0  0  0  0  0
   -7.4939   16.1684  -33.3077 H   0  0  0  0  0  0  0  0  0  0  0  0
  1  2  1  0
  2  3  1  0
  3  4  1  0
  4  5  1  0
  3  6  1  0
  6  7  1  0
  7  8  1  0
  8  9  1  0
  9 10  2  0
 10 11  1  0
 11 12  2  0
 12 13  1  0
 13 14  2  0
 14 15  1  0
 15 16  2  0
 16 17  1  0
 16 18  1  0
 18 19  2  0
 19 20  1  0
 20 21  1  0
 21 22  2  0
 22 23  1  0
 23 24  2  0
 24 25  1  0
 24 26  1  0
 26 27  2  0
 19  9  1  0
 27 21  1  0
 15 10  1  0
 27 18  1  0
  1 28  1  0
  1 29  1  0
  1 30  1  0
  2 31  1  0
  2 32  1  0
  4 33  1  0
  4 34  1  0
  5 35  1  0
  5 36  1  0
  5 37  1  0
  6 38  1  0
  6 39  1  0
  7 40  1  0
  7 41  1  0
  8 42  1  0
  8 43  1  0
 11 44  1  0
 12 45  1  0
 13 46  1  0
 14 47  1  0
 17 48  1  0
 17 49  1  0
 17 50  1  0
 22 51  1  0
 23 52  1  0
 26 53  1  0
M  CHG  2   8   1  16   1
M  END
>  <UniqueID>  (24) 
24

>  <SMILES>  (24) 
CCN(CC)CC[NH2+]c1c2ccccc2[n+](C)c2c1oc1ccc(Br)cc12

>  <Energy>  (24) 
115.04762700669443

>  <Genealogy>  (24) 
CCN(CC)CC[NH2+]c1c2ccccc2[n+](C)c2c1oc1ccc(Br)cc12 (protonated)
CCN(CC)CC[NH2+]c1c2ccccc2[n+](C)c2c1oc1ccc(Br)cc12 (3D coordinates assigned)
CCN(CC)CC[NH2+]c1c2ccccc2[n+](C)c2c1oc1ccc(Br)cc12 (optimized conformer: 115.04762700669443 kcal/mol)

>  <smiles>  (24) 
CCN(CC)CCNc1c2ccccc2[n+](C)c2c1oc1ccc(Br)cc12

>  <score_type>  (24) 
oracle

>  <origin>  (24) 
adg

>  <m_score__min__energy>  (24) 
-8.8699999999999992

>  <m_primary>  (24) 
energy

$$$$
24:0
     RDKit          3D

 59 62  0  0  0  0  0  0  0  0999 V2000
   -8.9530   21.8290  -31.0930 C   0  0  0  0  0  0  0  0  0  0  0  0
   -7.9590   22.6220  -31.9390 C   0  0  0  0  0  0  0  0  0  0  0  0
   -6.6900   22.8130  -31.2020 N   0  0  0  0  0  0  0  0  0  0  0  0
   -6.9620   23.2500  -29.8220 C   0  0  0  0  0  0  0  0  0  0  0  0
   -5.7970   23.7750  -31.8890 C   0  0  0  0  0  0  0  0  0  0  0  0
   -5.3770   24.8900  -30.9260 C   0  0  0  0  0  0  0  0  0  0  0  0
   -4.0430   24.7020  -30.4870 O   0  0  0  0  0  0  0  0  0  0  0  0
   -3.9970   24.2300  -29.1520 C   0  0  0  0  0  0  0  0  0  0  0  0
   -2.6420   23.5810  -28.8670 C   0  0  0  0  0  0  0  0  0  0  0  0
   -1.9320   23.3120  -30.1160 N   0  0  0  0  0  0  0  0  0  0  0  0
   -2.3060   22.2610  -31.0150 C   0  0  0  0  0  0  0  0  0  0  0  0
   -1.5130   21.6230  -31.9490 C   0  0  0  0  0  0  0  0  0  0  0  0
   -2.2570   20.6910  -32.5770 N   0  0  0  0  0  0  0  0  0  0  0  0
   -3.4860   20.7330  -32.0750 N   0  0  0  0  0  0  0  0  0  0  0  0
   -4.5790   19.8270  -32.4730 C   0  0  2  0  0  0  0  0  0  0  0  0
   -5.5720   20.5480  -33.4330 C   0  0  0  0  0  0  0  0  0  0  0  0
   -6.7080   19.5880  -33.8480 C   0  0  1  0  0  0  0  0  0  0  0  0
   -6.1050   18.3620  -34.5690 C   0  0  0  0  0  0  0  0  0  0  0  0
   -5.1320   17.6300  -33.6200 C   0  0  2  0  0  0  0  0  0  0  0  0
   -5.8970   17.1650  -32.3610 C   0  0  0  0  0  0  0  0  0  0  0  0
   -6.5020   18.3890  -31.6390 C   0  0  2  0  0  0  0  0  0  0  0  0
   -7.4720   19.1210  -32.5910 C   0  0  0  0  0  0  0  0  0  0  0  0
   -5.3670   19.3500  -31.2200 C   0  0  0  0  0  0  0  0  0  0  0  0
   -3.9950   18.5900  -33.2060 C   0  0  0  0  0  0  0  0  0  0  0  0
   -3.5470   21.6790  -31.1110 C   0  0  0  0  0  0  0  0  0  0  0  0
   -8.7426   21.9969  -30.0264 H   0  0  0  0  0  0  0  0  0  0  0  0
   -9.9763   22.1616  -31.3216 H   0  0  0  0  0  0  0  0  0  0  0  0
   -8.8561   20.7574  -31.3216 H   0  0  0  0  0  0  0  0  0  0  0  0
   -7.7577   22.0732  -32.8708 H   0  0  0  0  0  0  0  0  0  0  0  0
   -8.3911   23.6078  -32.1661 H   0  0  0  0  0  0  0  0  0  0  0  0
   -6.5162   22.5338  -29.1160 H   0  0  0  0  0  0  0  0  0  0  0  0
   -6.5239   24.2459  -29.6597 H   0  0  0  0  0  0  0  0  0  0  0  0
   -8.0490   23.2967  -29.6597 H   0  0  0  0  0  0  0  0  0  0  0  0
   -4.9006   23.2469  -32.2462 H   0  0  0  0  0  0  0  0  0  0  0  0
   -6.3355   24.2196  -32.7389 H   0  0  0  0  0  0  0  0  0  0  0  0
   -5.4536   25.8589  -31.4412 H   0  0  0  0  0  0  0  0  0  0  0  0
   -6.0421   24.8674  -30.0501 H   0  0  0  0  0  0  0  0  0  0  0  0
   -4.1476   25.0741  -28.4629 H   0  0  0  0  0  0  0  0  0  0  0  0
   -4.7903   23.4816  -29.0087 H   0  0  0  0  0  0  0  0  0  0  0  0
   -2.0387   24.2597  -28.2463 H   0  0  0  0  0  0  0  0  0  0  0  0
   -2.8063   22.6303  -28.3386 H   0  0  0  0  0  0  0  0  0  0  0  0
   -1.0940   23.8920  -30.3470 H   0  0  0  0  0  0  0  0  0  0  0  0
   -0.4528   21.8392  -32.1469 H   0  0  0  0  0  0  0  0  0  0  0  0
   -6.0033   21.4206  -32.9206 H   0  0  0  0  0  0  0  0  0  0  0  0
   -5.0289   20.8705  -34.3336 H   0  0  0  0  0  0  0  0  0  0  0  0
   -7.4009   20.1091  -34.5250 H   0  0  0  0  0  0  0  0  0  0  0  0
   -6.9133   17.6768  -34.8643 H   0  0  0  0  0  0  0  0  0  0  0  0
   -5.5601   18.6961  -35.4642 H   0  0  0  0  0  0  0  0  0  0  0  0
   -4.7042   16.7569  -34.1345 H   0  0  0  0  0  0  0  0  0  0  0  0
   -6.7042   16.4785  -32.6562 H   0  0  0  0  0  0  0  0  0  0  0  0
   -5.2025   16.6479  -31.6825 H   0  0  0  0  0  0  0  0  0  0  0  0
   -7.0494   18.0552  -30.7452 H   0  0  0  0  0  0  0  0  0  0  0  0
   -8.2808   18.4367  -32.8871 H   0  0  0  0  0  0  0  0  0  0  0  0
   -7.8993   19.9946  -32.0770 H   0  0  0  0  0  0  0  0  0  0  0  0
   -5.7996   20.2226  -30.7086 H   0  0  0  0  0  0  0  0  0  0  0  0
   -4.6799   18.8213  -30.5430 H   0  0  0  0  0  0  0  0  0  0  0  0
   -3.3013   18.0634  -32.5341 H   0  0  0  0  0  0  0  0  0  0  0  0
   -3.4620   18.9255  -34.1079 H   0  0  0  0  0  0  0  0  0  0  0  0
   -4.4320   21.9367  -30.5108 H   0  0  0  0  0  0  0  0  0  0  0  0
  1  2  1  0
  2  3  1  0
  3  4  1  0
  3  5  1  0
  5  6  1  0
  6  7  1  0
  7  8  1  0
  8  9  1  0
  9 10  1  0
 10 11  1  0
 11 12  1  0
 12 13  2  0
 13 14  1  0
 15 14  1  1
 15 16  1  0
 16 17  1  0
 17 18  1  0
 18 19  1  0
 19 20  1  0
 20 21  1  0
 21 22  1  0
 21 23  1  0
 19 24  1  0
 14 25  1  0
 25 11  2  0
 23 15  1  0
 24 15  1  0
 22 17  1  0
  1 26  1  0
  1 27  1  0
  1 28  1  0
  2 29  1  0
  2 30  1  0
  4 31  1  0
  4 32  1  0
  4 33  1  0
  5 34  1  0
  5 35  1  0
  6 36  1  0
  6 37  1  0
  8 38  1  0
  8 39  1  0
  9 40  1  0
  9 41  1  0
 10 42  1  0
 12 43  1  0
 16 44  1  0
 16 45  1  0
 17 46  1  6
 18 47  1  0
 18 48  1  0
 19 49  1  6
 20 50  1  0
 20 51  1  0
 21 52  1  1
 22 53  1  0
 22 54  1  0
 23 55  1  0
 23 56  1  0
 24 57  1  0
 24 58  1  0
 25 59  1  0
M  END
>  <UniqueID>  (25) 
25

>  <SMILES>  (25) 
CCN(C)CCOCCNc1cnn(C23CC4CC(CC(C4)C2)C3)c1

>  <Energy>  (25) 
86.96395625993719

>  <Genealogy>  (25) 
CCN(C)CCOCCNc1cnn(C23CC4CC(CC(C4)C2)C3)c1 (3D coordinates assigned)
CCN(C)CCOCCNc1cnn(C23CC4CC(CC(C4)C2)C3)c1 (nonaromatic ring conformer: 86.96395625993719 kcal/mol)

>  <smiles>  (25) 
CCN(C)CCOCCNc1cnn(C23CC4CC(CC(C4)C2)C3)c1

>  <score_type>  (25) 
oracle

>  <origin>  (25) 
adg

>  <m_score__min__energy>  (25) 
-8.4100000000000001

>  <m_primary>  (25) 
energy

$$$$
25:0
     RDKit          3D

 63 65  0  0  0  0  0  0  0  0999 V2000
   -0.9120   26.1630  -27.1340 C   0  0  0  0  0  0  0  0  0  0  0  0
   -0.9570   25.5090  -28.5100 C   0  0  0  0  0  0  0  0  0  0  0  0
   -2.2830   24.8720  -28.7150 N   0  0  0  0  0  0  0  0  0  0  0  0
   -2.9340   24.5430  -27.4260 C   0  0  0  0  0  0  0  0  0  0  0  0
   -3.6330   23.1860  -27.4970 C   0  0  0  0  0  0  0  0  0  0  0  0
   -2.1950   23.6660  -29.5690 C   0  0  0  0  0  0  0  0  0  0  0  0
   -3.3290   23.6240  -30.6030 C   0  0  0  0  0  0  0  0  0  0  0  0
   -3.8670   24.9720  -30.8120 N   0  0  0  0  0  0  0  0  0  0  0  0
   -5.0160   25.2080  -29.9270 C   0  0  0  0  0  0  0  0  0  0  0  0
   -5.9780   24.0160  -29.9550 C   0  0  0  0  0  0  0  0  0  0  0  0
   -7.1250   24.1770  -30.9720 C   0  0  0  0  0  0  0  0  0  0  0  0
   -6.8270   23.5570  -32.3520 C   0  0  0  0  0  0  0  0  0  0  0  0
   -5.5610   22.8070  -32.4030 N   0  0  0  0  0  0  0  0  0  0  0  0
   -5.4660   21.3850  -32.6460 C   0  0  0  0  0  0  0  0  0  0  0  0
   -4.2580   20.8180  -33.1060 C   0  0  0  0  0  0  0  0  0  0  0  0
   -3.0450   21.5410  -33.0720 C   0  0  0  0  0  0  0  0  0  0  0  0
   -1.8490   20.9490  -33.4770 C   0  0  0  0  0  0  0  0  0  0  0  0
   -1.8420   19.6380  -33.9360 C   0  0  0  0  0  0  0  0  0  0  0  0
   -3.0280   18.9090  -33.9980 C   0  0  0  0  0  0  0  0  0  0  0  0
   -4.2620   19.4850  -33.6020 C   0  0  0  0  0  0  0  0  0  0  0  0
   -5.4460   18.7780  -33.6730 N   0  0  0  0  0  0  0  0  0  0  0  0
   -5.5250   17.5380  -34.4760 C   0  0  0  0  0  0  0  0  0  0  0  0
   -6.5490   19.2190  -32.9700 C   0  0  0  0  0  0  0  0  0  0  0  0
   -7.6660   18.3770  -32.7310 C   0  0  0  0  0  0  0  0  0  0  0  0
   -8.7520   18.8200  -31.9790 C   0  0  0  0  0  0  0  0  0  0  0  0
   -8.7390   20.0890  -31.4140 C   0  0  0  0  0  0  0  0  0  0  0  0
   -7.6490   20.9320  -31.6170 C   0  0  0  0  0  0  0  0  0  0  0  0
   -6.5660   20.5320  -32.4270 C   0  0  0  0  0  0  0  0  0  0  0  0
   -0.9654   25.3863  -26.3569 H   0  0  0  0  0  0  0  0  0  0  0  0
    0.0270   26.7257  -27.0260 H   0  0  0  0  0  0  0  0  0  0  0  0
   -1.7651   26.8490  -27.0260 H   0  0  0  0  0  0  0  0  0  0  0  0
   -0.7942   26.2733  -29.2842 H   0  0  0  0  0  0  0  0  0  0  0  0
   -0.1695   24.7439  -28.5771 H   0  0  0  0  0  0  0  0  0  0  0  0
   -2.1707   24.5136  -26.6345 H   0  0  0  0  0  0  0  0  0  0  0  0
   -3.6869   25.3143  -27.2063 H   0  0  0  0  0  0  0  0  0  0  0  0
   -3.8228   22.8176  -26.4781 H   0  0  0  0  0  0  0  0  0  0  0  0
   -4.5881   23.2931  -28.0320 H   0  0  0  0  0  0  0  0  0  0  0  0
   -2.9913   22.4705  -28.0320 H   0  0  0  0  0  0  0  0  0  0  0  0
   -1.2300   23.6717  -30.0970 H   0  0  0  0  0  0  0  0  0  0  0  0
   -2.2835   22.7794  -28.9239 H   0  0  0  0  0  0  0  0  0  0  0  0
   -2.9393   23.2355  -31.5555 H   0  0  0  0  0  0  0  0  0  0  0  0
   -4.1310   22.9684  -30.2330 H   0  0  0  0  0  0  0  0  0  0  0  0
   -3.1130   25.6530  -30.5580 H   0  0  0  0  0  0  0  0  0  0  0  0
   -4.6547   25.3558  -28.8986 H   0  0  0  0  0  0  0  0  0  0  0  0
   -5.5525   26.1024  -30.2766 H   0  0  0  0  0  0  0  0  0  0  0  0
   -5.4063   23.1129  -30.2147 H   0  0  0  0  0  0  0  0  0  0  0  0
   -6.4366   23.9461  -28.9576 H   0  0  0  0  0  0  0  0  0  0  0  0
   -8.0230   23.6925  -30.5611 H   0  0  0  0  0  0  0  0  0  0  0  0
   -7.2630   25.2568  -31.1298 H   0  0  0  0  0  0  0  0  0  0  0  0
   -7.6476   22.8710  -32.6090 H   0  0  0  0  0  0  0  0  0  0  0  0
   -6.7366   24.3893  -33.0656 H   0  0  0  0  0  0  0  0  0  0  0  0
   -4.6840   23.3630  -32.2990 H   0  0  0  0  0  0  0  0  0  0  0  0
   -3.0437   22.5838  -32.7218 H   0  0  0  0  0  0  0  0  0  0  0  0
   -0.9103   21.5208  -33.4329 H   0  0  0  0  0  0  0  0  0  0  0  0
   -0.8963   19.1733  -34.2519 H   0  0  0  0  0  0  0  0  0  0  0  0
   -3.0067   17.8704  -34.3598 H   0  0  0  0  0  0  0  0  0  0  0  0
   -5.5804   16.6689  -33.8040 H   0  0  0  0  0  0  0  0  0  0  0  0
   -6.4230   17.5687  -35.1105 H   0  0  0  0  0  0  0  0  0  0  0  0
   -4.6304   17.4545  -35.1105 H   0  0  0  0  0  0  0  0  0  0  0  0
   -7.6746   17.3584  -33.1461 H   0  0  0  0  0  0  0  0  0  0  0  0
   -9.6221   18.1631  -31.8323 H   0  0  0  0  0  0  0  0  0  0  0  0
   -9.5903   20.4284  -30.8057 H   0  0  0  0  0  0  0  0  0  0  0  0
   -7.6327   21.9227  -31.1393 H   0  0  0  0  0  0  0  0  0  0  0  0
  1  2  1  0
  2  3  1  0
  3  4  1  0
  4  5  1  0
  3  6  1  0
  6  7  1  0
  7  8  1  0
  8  9  1  0
  9 10  1  0
 10 11  1  0
 11 12  1  0
 12 13  1  0
 13 14  1  0
 14 15  2  0
 15 16  1  0
 16 17  2  0
 17 18  1  0
 18 19  2  0
 19 20  1  0
 20 21  2  0
 21 22  1  0
 21 23  1  0
 23 24  2  0
 24 25  1  0
 25 26  2  0
 26 27  1  0
 27 28  2  0
 28 14  1  0
 20 15  1  0
 28 23  1  0
  1 29  1  0
  1 30  1  0
  1 31  1  0
  2 32  1  0
  2 33  1  0
  4 34  1  0
  4 35  1  0
  5 36  1  0
  5 37  1  0
  5 38  1  0
  6 39  1  0
  6 40  1  0
  7 41  1  0
  7 42  1  0
  8 43  1  0
  9 44  1  0
  9 45  1  0
 10 46  1  0
 10 47  1  0
 11 48  1  0
 11 49  1  0
 12 50  1  0
 12 51  1  0
 13 52  1  0
 16 53  1  0
 17 54  1  0
 18 55  1  0
 19 56  1  0
 22 57  1  0
 22 58  1  0
 22 59  1  0
 24 60  1  0
 25 61  1  0
 26 62  1  0
 27 63  1  0
M  CHG  1  21   1
M  END
>  <UniqueID>  (26) 
26

>  <SMILES>  (26) 
CCN(CC)CCNCCCCNc1c2ccccc2[n+](C)c2ccccc12

>  <Energy>  (26) 
81.95292011412292

>  <Genealogy>  (26) 
CCN(CC)CCNCCCCNc1c2ccccc2[n+](C)c2ccccc12 (3D coordinates assigned)
CCN(CC)CCNCCCCNc1c2ccccc2[n+](C)c2ccccc12 (optimized conformer: 81.95292011412292 kcal/mol)

>  <smiles>  (26) 
CCN(CC)CCNCCCCNc1c2ccccc2[n+](C)c2ccccc12

>  <score_type>  (26) 
oracle

>  <origin>  (26) 
adg

>  <m_score__min__energy>  (26) 
-8.9700000000000006

>  <m_primary>  (26) 
energy

$$$$
26:0
     RDKit          3D

 31 33  0  0  0  0  0  0  0  0999 V2000
   -1.8020   22.0310  -30.1100 C   0  0  0  0  0  0  0  0  0  0  0  0
   -2.9920   21.9780  -30.9880 C   0  0  0  0  0  0  0  0  0  0  0  0
   -3.3250   20.9330  -31.7980 N   0  0  0  0  0  0  0  0  0  0  0  0
   -4.4460   21.2180  -32.4400 N   0  0  0  0  0  0  0  0  0  0  0  0
   -5.0990   20.3170  -33.4000 C   0  0  0  0  0  0  0  0  0  0  0  0
   -6.3640   19.8100  -32.8130 C   0  0  0  0  0  0  0  0  0  0  0  0
   -6.3740   18.5760  -32.1700 C   0  0  0  0  0  0  0  0  0  0  0  0
   -7.5460   18.0660  -31.6050 C   0  0  0  0  0  0  0  0  0  0  0  0
   -8.7300   18.7790  -31.6730 C   0  0  0  0  0  0  0  0  0  0  0  0
   -8.7300   20.0030  -32.3090 C   0  0  0  0  0  0  0  0  0  0  0  0
   -7.5570   20.4920  -32.8620 C   0  0  0  0  0  0  0  0  0  0  0  0
   -4.8890   22.4380  -32.0890 C   0  0  0  0  0  0  0  0  0  0  0  0
   -5.9640   23.1510  -32.4650 N   0  0  0  0  0  0  0  0  0  0  0  0
   -6.1180   24.3610  -31.9130 C   0  0  0  0  0  0  0  0  0  0  0  0
   -5.2400   24.8500  -31.0180 N   0  0  0  0  0  0  0  0  0  0  0  0
   -4.1370   24.1500  -30.6160 C   0  0  0  0  0  0  0  0  0  0  0  0
   -3.3830   24.7110  -29.7700 N   0  0  0  0  0  0  0  0  0  0  0  0
   -3.9760   22.9120  -31.1780 C   0  0  0  0  0  0  0  0  0  0  0  0
   -2.1219   22.0168  -29.0576 H   0  0  0  0  0  0  0  0  0  0  0  0
   -1.1598   21.1606  -30.3099 H   0  0  0  0  0  0  0  0  0  0  0  0
   -1.2397   22.9551  -30.3099 H   0  0  0  0  0  0  0  0  0  0  0  0
   -5.3182   20.8652  -34.3282 H   0  0  0  0  0  0  0  0  0  0  0  0
   -4.4320   19.4718  -33.6251 H   0  0  0  0  0  0  0  0  0  0  0  0
   -5.4439   17.9923  -32.1054 H   0  0  0  0  0  0  0  0  0  0  0  0
   -7.5272   17.0883  -31.1013 H   0  0  0  0  0  0  0  0  0  0  0  0
   -9.6528   18.3777  -31.2287 H   0  0  0  0  0  0  0  0  0  0  0  0
   -9.6583   20.5893  -32.3771 H   0  0  0  0  0  0  0  0  0  0  0  0
   -7.5815   21.4709  -33.3632 H   0  0  0  0  0  0  0  0  0  0  0  0
   -6.6670   22.8200  -33.1490 H   0  0  0  0  0  0  0  0  0  0  0  0
   -6.9865   24.9725  -32.1990 H   0  0  0  0  0  0  0  0  0  0  0  0
   -3.0780   25.6740  -29.7100 H   0  0  0  0  0  0  0  0  0  0  0  0
  1  2  1  0
  2  3  2  0
  3  4  1  0
  4  5  1  0
  5  6  1  0
  6  7  2  0
  7  8  1  0
  8  9  2  0
  9 10  1  0
 10 11  2  0
  4 12  1  0
 12 13  1  0
 13 14  1  0
 14 15  2  0
 15 16  1  0
 16 17  2  3
 16 18  1  0
 18  2  1  0
 11  6  1  0
 18 12  2  0
  1 19  1  0
  1 20  1  0
  1 21  1  0
  5 22  1  0
  5 23  1  0
  7 24  1  0
  8 25  1  0
  9 26  1  0
 10 27  1  0
 11 28  1  0
 13 29  1  0
 14 30  1  0
 17 31  1  0
M  END
>  <smiles>  (27) 
Cc1nn(Cc2ccccc2)c2[nH]cnc(=N)c12

>  <score_type>  (27) 
oracle

>  <origin>  (27) 
adg

>  <m_score__min__energy>  (27) 
-7.0999999999999996

>  <m_primary>  (27) 
energy

$$$$
27:0
     RDKit          3D

 45 46  0  0  0  0  0  0  0  0999 V2000
   -4.5290   24.9110  -26.2980 C   0  0  0  0  0  0  0  0  0  0  0  0
   -3.6380   23.9680  -27.0970 C   0  0  0  0  0  0  0  0  0  0  0  0
   -2.4110   24.6480  -27.5070 N   0  0  0  0  0  0  0  0  0  0  0  0
   -1.7890   25.6170  -26.8140 C   0  0  0  0  0  0  0  0  0  0  0  0
   -0.6580   25.9810  -27.5050 C   0  0  0  0  0  0  0  0  0  0  0  0
   -0.5680   25.2560  -28.6370 N   0  0  0  0  0  0  0  0  0  0  0  0
   -1.6620   24.4640  -28.6200 C   0  0  0  0  0  0  0  0  0  0  0  0
   -1.9000   23.4130  -29.6730 C   0  0  0  0  0  0  0  0  0  0  0  0
   -3.3340   23.1390  -29.8760 N   0  0  0  0  0  0  0  0  0  0  0  0
   -3.8030   21.7460  -29.8850 C   0  0  0  0  0  0  0  0  0  0  0  0
   -4.2840   24.1710  -30.2330 C   0  0  0  0  0  0  0  0  0  0  0  0
   -3.8670   25.2140  -30.8110 O   0  0  0  0  0  0  0  0  0  0  0  0
   -5.7410   24.1190  -29.8330 C   0  0  0  0  0  0  0  0  0  0  0  0
   -6.6960   24.1870  -31.0380 C   0  0  0  0  0  0  0  0  0  0  0  0
   -7.0940   22.8140  -31.5280 C   0  0  0  0  0  0  0  0  0  0  0  0
   -8.3510   22.2990  -31.1670 C   0  0  0  0  0  0  0  0  0  0  0  0
   -8.7490   21.0330  -31.5990 C   0  0  0  0  0  0  0  0  0  0  0  0
   -7.8930   20.2610  -32.3850 C   0  0  0  0  0  0  0  0  0  0  0  0
   -6.6390   20.7540  -32.7460 C   0  0  0  0  0  0  0  0  0  0  0  0
   -6.2240   22.0340  -32.3240 C   0  0  0  0  0  0  0  0  0  0  0  0
   -4.9700   22.5550  -32.6790 O   0  0  0  0  0  0  0  0  0  0  0  0
   -3.8880   21.7830  -33.1890 C   0  0  0  0  0  0  0  0  0  0  0  0
   -4.3699   24.7426  -25.2227 H   0  0  0  0  0  0  0  0  0  0  0  0
   -4.2773   25.9524  -26.5472 H   0  0  0  0  0  0  0  0  0  0  0  0
   -5.5830   24.7188  -26.5472 H   0  0  0  0  0  0  0  0  0  0  0  0
   -3.3795   23.0992  -26.4738 H   0  0  0  0  0  0  0  0  0  0  0  0
   -4.1813   23.6414  -27.9960 H   0  0  0  0  0  0  0  0  0  0  0  0
   -2.1268   26.0450  -25.8586 H   0  0  0  0  0  0  0  0  0  0  0  0
    0.0631   26.7468  -27.1831 H   0  0  0  0  0  0  0  0  0  0  0  0
   -1.4682   23.7602  -30.6233 H   0  0  0  0  0  0  0  0  0  0  0  0
   -1.4244   22.4815  -29.3322 H   0  0  0  0  0  0  0  0  0  0  0  0
   -3.9220   21.3925  -28.8502 H   0  0  0  0  0  0  0  0  0  0  0  0
   -4.7702   21.6881  -30.4058 H   0  0  0  0  0  0  0  0  0  0  0  0
   -3.0678   21.1149  -30.4058 H   0  0  0  0  0  0  0  0  0  0  0  0
   -5.9234   23.1780  -29.2933 H   0  0  0  0  0  0  0  0  0  0  0  0
   -5.9417   24.9980  -29.2029 H   0  0  0  0  0  0  0  0  0  0  0  0
   -7.6030   24.7340  -30.7410 H   0  0  0  0  0  0  0  0  0  0  0  0
   -6.1704   24.6992  -31.8574 H   0  0  0  0  0  0  0  0  0  0  0  0
   -9.0264   22.8985  -30.5390 H   0  0  0  0  0  0  0  0  0  0  0  0
   -9.7389   20.6433  -31.3194 H   0  0  0  0  0  0  0  0  0  0  0  0
   -8.2075   19.2618  -32.7206 H   0  0  0  0  0  0  0  0  0  0  0  0
   -5.9685   20.1395  -33.3647 H   0  0  0  0  0  0  0  0  0  0  0  0
   -3.3069   21.3684  -32.3521 H   0  0  0  0  0  0  0  0  0  0  0  0
   -4.2822   20.9609  -33.8045 H   0  0  0  0  0  0  0  0  0  0  0  0
   -3.2389   22.4232  -33.8045 H   0  0  0  0  0  0  0  0  0  0  0  0
  1  2  1  0
  2  3  1  0
  3  4  1  0
  4  5  2  0
  5  6  1  0
  6  7  2  0
  7  8  1  0
  8  9  1  0
  9 10  1  0
  9 11  1  0
 11 12  2  0
 11 13  1  0
 13 14  1  0
 14 15  1  0
 15 16  2  0
 16 17  1  0
 17 18  2  0
 18 19  1  0
 19 20  2  0
 20 21  1  0
 21 22  1  0
  7  3  1  0
 20 15  1  0
  1 23  1  0
  1 24  1  0
  1 25  1  0
  2 26  1  0
  2 27  1  0
  4 28  1  0
  5 29  1  0
  8 30  1  0
  8 31  1  0
 10 32  1  0
 10 33  1  0
 10 34  1  0
 13 35  1  0
 13 36  1  0
 14 37  1  0
 14 38  1  0
 16 39  1  0
 17 40  1  0
 18 41  1  0
 19 42  1  0
 22 43  1  0
 22 44  1  0
 22 45  1  0
M  END
>  <UniqueID>  (28) 
27

>  <SMILES>  (28) 
CCn1ccnc1CN(C)C(=O)CCc1ccccc1OC

>  <Energy>  (28) 
62.21665354131145

>  <Genealogy>  (28) 
CCn1ccnc1CN(C)C(=O)CCc1ccccc1OC (3D coordinates assigned)
CCn1ccnc1CN(C)C(=O)CCc1ccccc1OC (optimized conformer: 62.21665354131145 kcal/mol)

>  <smiles>  (28) 
CCn1ccnc1CN(C)C(=O)CCc1ccccc1OC

>  <score_type>  (28) 
oracle

>  <origin>  (28) 
adg

>  <m_score__min__energy>  (28) 
-7.5199999999999996

>  <m_primary>  (28) 
energy

$$$$
28:0
     RDKit          3D

 59 61  0  0  0  0  0  0  0  0999 V2000
   -0.8620   25.9520  -24.5030 C   0  0  0  0  0  0  0  0  0  0  0  0
   -1.9720   25.7720  -25.5360 C   0  0  0  0  0  0  0  0  0  0  0  0
   -1.8320   24.4830  -26.2360 N   0  0  0  0  0  0  0  0  0  0  0  0
   -0.7530   23.5650  -25.8540 C   0  0  0  0  0  0  0  0  0  0  0  0
   -2.7540   24.1000  -27.2840 C   0  0  0  0  0  0  0  0  0  0  0  0
   -4.0860   24.5480  -27.2790 C   0  0  0  0  0  0  0  0  0  0  0  0
   -4.9420   24.1810  -28.2690 N   0  0  0  0  0  0  0  0  0  0  0  0
   -4.5520   23.3750  -29.2950 C   0  0  0  0  0  0  0  0  0  0  0  0
   -5.4970   23.0220  -30.3140 N   0  0  0  0  0  0  0  0  0  0  0  0
   -6.8390   22.5890  -29.9090 C   0  0  0  0  0  0  0  0  0  0  0  0
   -7.6210   22.0110  -31.0950 C   0  0  0  0  0  0  0  0  0  0  0  0
   -6.6630   21.2490  -32.0450 C   0  0  0  0  0  0  0  0  0  0  0  0
   -7.4570   20.3910  -32.9880 N   0  0  0  0  0  0  0  0  0  0  0  0
   -8.8440   20.1760  -32.4640 C   0  0  0  0  0  0  0  0  0  0  0  0
   -9.0770   18.7930  -31.7980 C   0  0  0  0  0  0  0  0  0  0  0  0
   -7.7890   18.2000  -31.2150 C   0  0  0  0  0  0  0  0  0  0  0  0
   -6.6730   18.1000  -32.2720 C   0  0  0  0  0  0  0  0  0  0  0  0
   -6.9020   19.0800  -33.4410 C   0  0  2  0  0  0  0  0  0  0  0  0
   -5.7140   19.1730  -34.4130 C   0  0  0  0  0  0  0  0  0  0  0  0
   -5.7540   22.3200  -32.7040 C   0  0  0  0  0  0  0  0  0  0  0  0
   -5.2110   23.3740  -31.7090 C   0  0  0  0  0  0  0  0  0  0  0  0
   -3.2330   22.8920  -29.3460 C   0  0  0  0  0  0  0  0  0  0  0  0
   -2.7850   21.9830  -30.4580 C   0  0  0  0  0  0  0  0  0  0  0  0
   -2.3370   23.2690  -28.3360 C   0  0  0  0  0  0  0  0  0  0  0  0
   -1.2880   25.8829  -23.4912 H   0  0  0  0  0  0  0  0  0  0  0  0
   -0.1054   25.1648  -24.6368 H   0  0  0  0  0  0  0  0  0  0  0  0
   -0.3929   26.9379  -24.6368 H   0  0  0  0  0  0  0  0  0  0  0  0
   -2.9466   25.8018  -25.0269 H   0  0  0  0  0  0  0  0  0  0  0  0
   -1.9007   26.5838  -26.2749 H   0  0  0  0  0  0  0  0  0  0  0  0
   -0.6890   23.5106  -24.7572 H   0  0  0  0  0  0  0  0  0  0  0  0
   -0.9625   22.5640  -26.2592 H   0  0  0  0  0  0  0  0  0  0  0  0
    0.2015   23.9322  -26.2592 H   0  0  0  0  0  0  0  0  0  0  0  0
   -4.4388   25.2011  -26.4672 H   0  0  0  0  0  0  0  0  0  0  0  0
   -5.9230   24.5410  -28.2410 H   0  0  0  0  0  0  0  0  0  0  0  0
   -6.7466   21.8172  -29.1307 H   0  0  0  0  0  0  0  0  0  0  0  0
   -7.3851   23.4642  -29.5271 H   0  0  0  0  0  0  0  0  0  0  0  0
   -8.3894   21.3183  -30.7211 H   0  0  0  0  0  0  0  0  0  0  0  0
   -8.0962   22.8345  -31.6481 H   0  0  0  0  0  0  0  0  0  0  0  0
   -6.0054   20.5332  -31.5300 H   0  0  0  0  0  0  0  0  0  0  0  0
   -9.0531   20.9559  -31.7170 H   0  0  0  0  0  0  0  0  0  0  0  0
   -9.5158   20.2199  -33.3339 H   0  0  0  0  0  0  0  0  0  0  0  0
   -9.8104   18.9108  -30.9866 H   0  0  0  0  0  0  0  0  0  0  0  0
   -9.4416   18.1043  -32.5744 H   0  0  0  0  0  0  0  0  0  0  0  0
   -7.4426   18.8422  -30.3918 H   0  0  0  0  0  0  0  0  0  0  0  0
   -8.0126   17.1838  -30.8581 H   0  0  0  0  0  0  0  0  0  0  0  0
   -5.7093   18.3331  -31.7955 H   0  0  0  0  0  0  0  0  0  0  0  0
   -6.6765   17.0774  -32.6773 H   0  0  0  0  0  0  0  0  0  0  0  0
   -7.6973   18.6419  -34.0619 H   0  0  0  0  0  0  0  0  0  0  0  0
   -4.7772   19.2463  -33.8411 H   0  0  0  0  0  0  0  0  0  0  0  0
   -5.6874   18.2742  -35.0466 H   0  0  0  0  0  0  0  0  0  0  0  0
   -5.8276   20.0650  -35.0466 H   0  0  0  0  0  0  0  0  0  0  0  0
   -4.8984   21.8097  -33.1704 H   0  0  0  0  0  0  0  0  0  0  0  0
   -6.3723   22.8589  -33.4370 H   0  0  0  0  0  0  0  0  0  0  0  0
   -4.1214   23.4535  -31.8375 H   0  0  0  0  0  0  0  0  0  0  0  0
   -5.7117   24.3295  -31.9244 H   0  0  0  0  0  0  0  0  0  0  0  0
   -2.3370   21.0739  -30.0304 H   0  0  0  0  0  0  0  0  0  0  0  0
   -3.6509   21.7082  -31.0783 H   0  0  0  0  0  0  0  0  0  0  0  0
   -2.0396   22.5023  -31.0783 H   0  0  0  0  0  0  0  0  0  0  0  0
   -1.2976   22.9104  -28.3680 H   0  0  0  0  0  0  0  0  0  0  0  0
  1  2  1  0
  2  3  1  0
  3  4  1  0
  3  5  1  0
  5  6  2  0
  6  7  1  0
  7  8  2  0
  8  9  1  0
  9 10  1  0
 10 11  1  0
 11 12  1  0
 12 13  1  0
 13 14  1  0
 14 15  1  0
 15 16  1  0
 16 17  1  0
 17 18  1  0
 18 19  1  0
 12 20  1  0
 20 21  1  0
  8 22  1  0
 22 23  1  0
 22 24  2  0
 24  5  1  0
 21  9  1  0
 18 13  1  0
  1 25  1  0
  1 26  1  0
  1 27  1  0
  2 28  1  0
  2 29  1  0
  4 30  1  0
  4 31  1  0
  4 32  1  0
  6 33  1  0
  7 34  1  0
 10 35  1  0
 10 36  1  0
 11 37  1  0
 11 38  1  0
 12 39  1  0
 14 40  1  0
 14 41  1  0
 15 42  1  0
 15 43  1  0
 16 44  1  0
 16 45  1  0
 17 46  1  0
 17 47  1  0
 18 48  1  6
 19 49  1  0
 19 50  1  0
 19 51  1  0
 20 52  1  0
 20 53  1  0
 21 54  1  0
 21 55  1  0
 23 56  1  0
 23 57  1  0
 23 58  1  0
 24 59  1  0
M  CHG  1   7   1
M  END
>  <UniqueID>  (29) 
28

>  <SMILES>  (29) 
CCN(C)c1c[nH+]c(N2CCC(N3CCCC[C@@H]3C)CC2)c(C)c1

>  <Energy>  (29) 
88.45928948067076

>  <Genealogy>  (29) 
CCN(C)c1c[nH+]c(N2CCC(N3CCCCC3C)CC2)c(C)c1 (protonated)
CCN(C)c1c[nH+]c(N2CCC(N3CCCC[C@@H]3C)CC2)c(C)c1 (chirality)
CCN(C)c1c[nH+]c(N2CCC(N3CCCC[C@@H]3C)CC2)c(C)c1 (3D coordinates assigned)
CCN(C)c1c[nH+]c(N2CCC(N3CCCC[C@@H]3C)CC2)c(C)c1 (nonaromatic ring conformer: 88.45928948067076 kcal/mol)

>  <smiles>  (29) 
CCN(C)c1cnc(N2CCC(N3CCCCC3C)CC2)c(C)c1

>  <score_type>  (29) 
oracle

>  <origin>  (29) 
adg

>  <m_score__min__energy>  (29) 
-7.6600000000000001

>  <m_primary>  (29) 
energy

$$$$
29:0
     RDKit          3D

 44 47  0  0  0  0  0  0  0  0999 V2000
   -6.4960   17.9200  -32.7580 C   0  0  0  0  0  0  0  0  0  0  0  0
   -7.1100   18.6000  -31.6680 O   0  0  0  0  0  0  0  0  0  0  0  0
   -7.7210   19.8600  -31.7620 C   0  0  0  0  0  0  0  0  0  0  0  0
   -9.1170   20.0100  -31.8690 C   0  0  0  0  0  0  0  0  0  0  0  0
   -9.6810   21.2830  -31.9770 C   0  0  0  0  0  0  0  0  0  0  0  0
   -8.8680   22.4170  -31.9530 C   0  0  0  0  0  0  0  0  0  0  0  0
   -7.4750   22.2920  -31.8150 C   0  0  0  0  0  0  0  0  0  0  0  0
   -6.9070   21.0020  -31.7580 C   0  0  0  0  0  0  0  0  0  0  0  0
   -5.5210   20.8540  -31.7130 O   0  0  0  0  0  0  0  0  0  0  0  0
   -4.6760   21.9310  -32.0860 C   0  0  0  0  0  0  0  0  0  0  0  0
   -5.1140   23.2210  -31.3640 C   0  0  1  0  0  0  0  0  0  0  0  0
   -6.6120   23.5430  -31.7110 C   0  0  2  0  0  0  0  0  0  0  0  0
   -7.2310   24.3970  -30.7510 O   0  0  0  0  0  0  0  0  0  0  0  0
   -6.3140   25.2980  -30.1750 C   0  0  0  0  0  0  0  0  0  0  0  0
   -5.2770   24.5330  -29.3330 C   0  0  0  0  0  0  0  0  0  0  0  0
   -4.9870   23.1820  -29.8830 N   0  0  0  0  0  0  0  0  0  0  0  0
   -3.6670   22.7000  -29.4110 C   0  0  0  0  0  0  0  0  0  0  0  0
   -2.9500   23.7540  -28.6020 C   0  0  0  0  0  0  0  0  0  0  0  0
   -3.2560   23.9470  -27.2440 C   0  0  0  0  0  0  0  0  0  0  0  0
   -2.5710   24.9110  -26.4980 C   0  0  0  0  0  0  0  0  0  0  0  0
   -1.5780   25.6880  -27.1010 C   0  0  0  0  0  0  0  0  0  0  0  0
   -1.2660   25.5000  -28.4500 C   0  0  0  0  0  0  0  0  0  0  0  0
   -1.9470   24.5370  -29.1990 C   0  0  0  0  0  0  0  0  0  0  0  0
   -5.8058   17.1557  -32.3714 H   0  0  0  0  0  0  0  0  0  0  0  0
   -7.2705   17.4376  -33.3723 H   0  0  0  0  0  0  0  0  0  0  0  0
   -5.9373   18.6414  -33.3723 H   0  0  0  0  0  0  0  0  0  0  0  0
   -9.7655   19.1215  -31.8675 H   0  0  0  0  0  0  0  0  0  0  0  0
  -10.7706   21.3923  -32.0814 H   0  0  0  0  0  0  0  0  0  0  0  0
   -9.3206   23.4156  -32.0427 H   0  0  0  0  0  0  0  0  0  0  0  0
   -3.6386   21.6928  -31.8085 H   0  0  0  0  0  0  0  0  0  0  0  0
   -4.7461   22.0846  -33.1730 H   0  0  0  0  0  0  0  0  0  0  0  0
   -4.4245   23.9978  -31.7263 H   0  0  0  0  0  0  0  0  0  0  0  0
   -6.5565   24.0480  -32.6867 H   0  0  0  0  0  0  0  0  0  0  0  0
   -5.7975   25.8512  -30.9733 H   0  0  0  0  0  0  0  0  0  0  0  0
   -6.8585   25.9989  -29.5251 H   0  0  0  0  0  0  0  0  0  0  0  0
   -4.3428   25.1133  -29.3101 H   0  0  0  0  0  0  0  0  0  0  0  0
   -5.6944   24.4022  -28.3237 H   0  0  0  0  0  0  0  0  0  0  0  0
   -3.8153   21.8080  -28.7846 H   0  0  0  0  0  0  0  0  0  0  0  0
   -3.0514   22.4625  -30.2911 H   0  0  0  0  0  0  0  0  0  0  0  0
   -4.0372   23.3375  -26.7663 H   0  0  0  0  0  0  0  0  0  0  0  0
   -2.8139   25.0580  -25.4353 H   0  0  0  0  0  0  0  0  0  0  0  0
   -1.0419   26.4478  -26.5134 H   0  0  0  0  0  0  0  0  0  0  0  0
   -0.4831   26.1111  -28.9230 H   0  0  0  0  0  0  0  0  0  0  0  0
   -1.6972   24.3910  -30.2603 H   0  0  0  0  0  0  0  0  0  0  0  0
  1  2  1  0
  2  3  1  0
  3  4  2  0
  4  5  1  0
  5  6  2  0
  6  7  1  0
  7  8  2  0
  8  9  1  0
  9 10  1  0
 10 11  1  0
 11 12  1  0
 12 13  1  0
 13 14  1  0
 14 15  1  0
 15 16  1  0
 16 17  1  0
 17 18  1  0
 18 19  2  0
 19 20  1  0
 20 21  2  0
 21 22  1  0
 22 23  2  0
  8  3  1  0
 16 11  1  0
 23 18  1  0
 12  7  1  0
  1 24  1  0
  1 25  1  0
  1 26  1  0
  4 27  1  0
  5 28  1  0
  6 29  1  0
 10 30  1  0
 10 31  1  0
 11 32  1  6
 12 33  1  6
 14 34  1  0
 14 35  1  0
 15 36  1  0
 15 37  1  0
 17 38  1  0
 17 39  1  0
 19 40  1  0
 20 41  1  0
 21 42  1  0
 22 43  1  0
 23 44  1  0
M  END
>  <UniqueID>  (30) 
29

>  <SMILES>  (30) 
COc1cccc2c1OC[C@H]1[C@@H]2OCCN1Cc1ccccc1

>  <Energy>  (30) 
66.19675457893511

>  <Genealogy>  (30) 
COc1cccc2c1OC[C@H]1[C@@H]2OCCN1Cc1ccccc1 (chirality)
COc1cccc2c1OC[C@H]1[C@@H]2OCCN1Cc1ccccc1 (3D coordinates assigned)
COc1cccc2c1OC[C@H]1[C@@H]2OCCN1Cc1ccccc1 (nonaromatic ring conformer: 66.19675457893511 kcal/mol)

>  <smiles>  (30) 
COc1cccc2c1OCC1C2OCCN1Cc1ccccc1

>  <score_type>  (30) 
oracle

>  <origin>  (30) 
adg

>  <m_score__min__energy>  (30) 
-7.4400000000000004

>  <m_primary>  (30) 
energy

$$$$
30:0
     RDKit          3D

 42 44  0  0  0  0  0  0  0  0999 V2000
   -5.7550   23.2760  -29.7710 C   0  0  0  0  0  0  0  0  0  0  0  0
   -5.0410   23.7770  -30.9590 N   0  0  0  0  0  0  0  0  0  0  0  0
   -4.8130   25.2240  -30.8140 C   0  0  0  0  0  0  0  0  0  0  0  0
   -3.7470   23.0840  -31.1450 C   0  0  0  0  0  0  0  0  0  0  0  0
   -3.8410   21.9150  -32.1460 C   0  0  0  0  0  0  0  0  0  0  0  0
   -4.9660   22.0470  -33.0910 N   0  0  0  0  0  0  0  0  0  0  0  0
   -6.0000   21.0560  -32.8390 C   0  0  0  0  0  0  0  0  0  0  0  0
   -5.8060   19.6590  -33.0420 C   0  0  0  0  0  0  0  0  0  0  0  0
   -4.6070   19.1240  -33.5690 C   0  0  0  0  0  0  0  0  0  0  0  0
   -4.4610   17.7540  -33.7720 C   0  0  0  0  0  0  0  0  0  0  0  0
   -5.5010   16.8860  -33.4720 C   0  0  0  0  0  0  0  0  0  0  0  0
   -6.6960   17.3770  -32.9550 C   0  0  0  0  0  0  0  0  0  0  0  0
   -6.8760   18.7620  -32.7120 C   0  0  0  0  0  0  0  0  0  0  0  0
   -8.0590   19.2450  -32.1780 N   0  0  0  0  0  0  0  0  0  0  0  0
   -9.1380   18.3290  -31.7590 C   0  0  0  0  0  0  0  0  0  0  0  0
   -8.2090   20.6020  -32.0610 C   0  0  0  0  0  0  0  0  0  0  0  0
   -9.3310   21.3060  -31.6380 C   0  0  0  0  0  0  0  0  0  0  0  0
   -8.9820   22.6420  -31.6890 C   0  0  0  0  0  0  0  0  0  0  0  0
   -7.6780   22.7020  -32.1390 C   0  0  0  0  0  0  0  0  0  0  0  0
   -7.2180   21.4540  -32.3700 N   0  0  0  0  0  0  0  0  0  0  0  0
   -5.2483   23.6315  -28.8617 H   0  0  0  0  0  0  0  0  0  0  0  0
   -6.7907   23.6465  -29.7823 H   0  0  0  0  0  0  0  0  0  0  0  0
   -5.7589   22.1761  -29.7823 H   0  0  0  0  0  0  0  0  0  0  0  0
   -4.7721   25.4835  -29.7458 H   0  0  0  0  0  0  0  0  0  0  0  0
   -3.8611   25.4951  -31.2939 H   0  0  0  0  0  0  0  0  0  0  0  0
   -5.6355   25.7747  -31.2939 H   0  0  0  0  0  0  0  0  0  0  0  0
   -3.0090   23.8093  -31.5182 H   0  0  0  0  0  0  0  0  0  0  0  0
   -3.4485   22.6671  -30.1718 H   0  0  0  0  0  0  0  0  0  0  0  0
   -2.9045   21.8716  -32.7214 H   0  0  0  0  0  0  0  0  0  0  0  0
   -4.0108   20.9982  -31.5623 H   0  0  0  0  0  0  0  0  0  0  0  0
   -5.3860   22.9960  -32.9670 H   0  0  0  0  0  0  0  0  0  0  0  0
   -4.6250   22.0570  -34.0730 H   0  0  0  0  0  0  0  0  0  0  0  0
   -3.7774   19.8005  -33.8223 H   0  0  0  0  0  0  0  0  0  0  0  0
   -3.5161   17.3579  -34.1723 H   0  0  0  0  0  0  0  0  0  0  0  0
   -5.3805   15.8061  -33.6434 H   0  0  0  0  0  0  0  0  0  0  0  0
   -7.5154   16.6781  -32.7309 H   0  0  0  0  0  0  0  0  0  0  0  0
   -9.1816   18.2920  -30.6605 H   0  0  0  0  0  0  0  0  0  0  0  0
  -10.0995   18.6909  -32.1521 H   0  0  0  0  0  0  0  0  0  0  0  0
   -8.9370   17.3215  -32.1521 H   0  0  0  0  0  0  0  0  0  0  0  0
  -10.2985   20.8854  -31.3265 H   0  0  0  0  0  0  0  0  0  0  0  0
   -9.6218   23.4960  -31.4217 H   0  0  0  0  0  0  0  0  0  0  0  0
   -7.1012   23.6269  -32.2869 H   0  0  0  0  0  0  0  0  0  0  0  0
  1  2  1  0
  2  3  1  0
  2  4  1  0
  4  5  1  0
  5  6  1  0
  6  7  1  0
  7  8  2  0
  8  9  1  0
  9 10  2  0
 10 11  1  0
 11 12  2  0
 12 13  1  0
 13 14  2  0
 14 15  1  0
 14 16  1  0
 16 17  2  0
 17 18  1  0
 18 19  2  0
 19 20  1  0
 20  7  1  0
 13  8  1  0
 20 16  1  0
  1 21  1  0
  1 22  1  0
  1 23  1  0
  3 24  1  0
  3 25  1  0
  3 26  1  0
  4 27  1  0
  4 28  1  0
  5 29  1  0
  5 30  1  0
  6 31  1  0
  6 32  1  0
  9 33  1  0
 10 34  1  0
 11 35  1  0
 12 36  1  0
 15 37  1  0
 15 38  1  0
 15 39  1  0
 17 40  1  0
 18 41  1  0
 19 42  1  0
M  CHG  2   6   1  14   1
M  END
>  <UniqueID>  (31) 
30

>  <SMILES>  (31) 
CN(C)CC[NH2+]c1c2ccccc2[n+](C)c2cccn12

>  <Energy>  (31) 
89.73114811858633

>  <Genealogy>  (31) 
CN(C)CC[NH2+]c1c2ccccc2[n+](C)c2cccn12 (protonated)
CN(C)CC[NH2+]c1c2ccccc2[n+](C)c2cccn12 (3D coordinates assigned)
CN(C)CC[NH2+]c1c2ccccc2[n+](C)c2cccn12 (optimized conformer: 89.73114811858633 kcal/mol)

>  <smiles>  (31) 
CN(C)CCNc1c2ccccc2[n+](C)c2cccn12

>  <score_type>  (31) 
oracle

>  <origin>  (31) 
adg

>  <m_score__min__energy>  (31) 
-6.6699999999999999

>  <m_primary>  (31) 
energy

$$$$
31:0
     RDKit          3D

 39 40  0  0  0  0  0  0  0  0999 V2000
   -8.6970   18.6340  -31.2790 C   0  0  0  0  0  0  0  0  0  0  0  0
   -7.9950   17.7360  -32.2920 C   0  0  0  0  0  0  0  0  0  0  0  0
   -6.5260   17.8250  -32.1220 N   0  0  0  0  0  0  0  0  0  0  0  0
   -6.1140   17.1800  -30.8630 C   0  0  0  0  0  0  0  0  0  0  0  0
   -5.8060   17.2140  -33.2620 C   0  0  0  0  0  0  0  0  0  0  0  0
   -5.6490   18.2050  -34.4340 C   0  0  0  0  0  0  0  0  0  0  0  0
   -6.4530   19.4310  -34.2750 N   0  0  0  0  0  0  0  0  0  0  0  0
   -5.7820   20.4210  -33.4600 C   0  0  0  0  0  0  0  0  0  0  0  0
   -4.3830   20.5200  -33.4950 C   0  0  0  0  0  0  0  0  0  0  0  0
   -3.7140   21.4760  -32.7330 C   0  0  0  0  0  0  0  0  0  0  0  0
   -4.4200   22.3560  -31.9010 C   0  0  0  0  0  0  0  0  0  0  0  0
   -3.6800   23.2830  -31.0910 N   0  0  0  0  0  0  0  0  0  0  0  0
   -4.1000   24.4460  -30.9250 O   0  0  0  0  0  0  0  0  0  0  0  0
   -2.6680   22.8220  -30.2800 O   0  0  0  0  0  0  0  0  0  0  0  0
   -5.8360   22.2920  -31.8680 C   0  0  0  0  0  0  0  0  0  0  0  0
   -6.6130   23.1950  -31.1170 C   0  0  0  0  0  0  0  0  0  0  0  0
   -8.0030   23.0860  -31.1050 C   0  0  0  0  0  0  0  0  0  0  0  0
   -8.6210   22.0860  -31.8520 C   0  0  0  0  0  0  0  0  0  0  0  0
   -7.8710   21.2360  -32.5980 N   0  0  0  0  0  0  0  0  0  0  0  0
   -6.5110   21.3100  -32.6410 C   0  0  0  0  0  0  0  0  0  0  0  0
   -8.4415   18.3072  -30.2602 H   0  0  0  0  0  0  0  0  0  0  0  0
   -8.3704   19.6745  -31.4230 H   0  0  0  0  0  0  0  0  0  0  0  0
   -9.7855   18.5682  -31.4230 H   0  0  0  0  0  0  0  0  0  0  0  0
   -8.3162   16.6951  -32.1390 H   0  0  0  0  0  0  0  0  0  0  0  0
   -8.2597   18.0649  -33.3078 H   0  0  0  0  0  0  0  0  0  0  0  0
   -6.4885   17.7663  -30.0110 H   0  0  0  0  0  0  0  0  0  0  0  0
   -6.5299   16.1626  -30.8190 H   0  0  0  0  0  0  0  0  0  0  0  0
   -5.0160   17.1295  -30.8190 H   0  0  0  0  0  0  0  0  0  0  0  0
   -4.8074   16.8987  -32.9254 H   0  0  0  0  0  0  0  0  0  0  0  0
   -6.3921   16.3533  -33.6165 H   0  0  0  0  0  0  0  0  0  0  0  0
   -4.5893   18.4902  -34.5101 H   0  0  0  0  0  0  0  0  0  0  0  0
   -6.0083   17.6959  -35.3405 H   0  0  0  0  0  0  0  0  0  0  0  0
   -6.6360   19.8360  -35.2220 H   0  0  0  0  0  0  0  0  0  0  0  0
   -7.3900   19.1920  -33.8750 H   0  0  0  0  0  0  0  0  0  0  0  0
   -3.8063   19.8337  -34.1325 H   0  0  0  0  0  0  0  0  0  0  0  0
   -2.6172   21.5409  -32.7851 H   0  0  0  0  0  0  0  0  0  0  0  0
   -6.1211   23.9899  -30.5372 H   0  0  0  0  0  0  0  0  0  0  0  0
   -8.6078   23.7855  -30.5092 H   0  0  0  0  0  0  0  0  0  0  0  0
   -9.7163   21.9853  -31.8373 H   0  0  0  0  0  0  0  0  0  0  0  0
  1  2  1  0
  2  3  1  0
  3  4  1  0
  3  5  1  0
  5  6  1  0
  6  7  1  0
  7  8  1  0
  8  9  2  0
  9 10  1  0
 10 11  2  0
 11 12  1  0
 12 13  2  0
 12 14  1  0
 11 15  1  0
 15 16  2  0
 16 17  1  0
 17 18  2  0
 18 19  1  0
 19 20  2  0
 20  8  1  0
 20 15  1  0
  1 21  1  0
  1 22  1  0
  1 23  1  0
  2 24  1  0
  2 25  1  0
  4 26  1  0
  4 27  1  0
  4 28  1  0
  5 29  1  0
  5 30  1  0
  6 31  1  0
  6 32  1  0
  7 33  1  0
  7 34  1  0
  9 35  1  0
 10 36  1  0
 16 37  1  0
 17 38  1  0
 18 39  1  0
M  CHG  3   7   1  12   1  14  -1
M  END
>  <UniqueID>  (32) 
31

>  <SMILES>  (32) 
CCN(C)CC[NH2+]c1ccc([N+](=O)[O-])c2cccnc12

>  <Energy>  (32) 
49.22893298741668

>  <Genealogy>  (32) 
CCN(C)CC[NH2+]c1ccc([N+](=O)[O-])c2cccnc12 (protonated)
CCN(C)CC[NH2+]c1ccc([N+](=O)[O-])c2cccnc12 (3D coordinates assigned)
CCN(C)CC[NH2+]c1ccc([N+](=O)[O-])c2cccnc12 (optimized conformer: 49.22893298741668 kcal/mol)

>  <smiles>  (32) 
CCN(C)CCNc1ccc([N+](=O)[O-])c2cccnc12

>  <score_type>  (32) 
oracle

>  <origin>  (32) 
adg

>  <m_score__min__energy>  (32) 
-7.0199999999999996

>  <m_primary>  (32) 
energy

$$$$
32:0
     RDKit          3D

 45 48  0  0  0  0  0  0  0  0999 V2000
   -4.0460   16.6860  -35.3860 C   0  0  0  0  0  0  0  0  0  0  0  0
   -4.7360   17.7110  -34.5370 C   0  0  0  0  0  0  0  0  0  0  0  0
   -6.1130   17.5640  -34.2240 C   0  0  0  0  0  0  0  0  0  0  0  0
   -6.7820   18.5380  -33.4590 C   0  0  0  0  0  0  0  0  0  0  0  0
   -6.0480   19.6430  -33.0420 C   0  0  0  0  0  0  0  0  0  0  0  0
   -6.4370   20.6670  -32.3350 O   0  0  0  0  0  0  0  0  0  0  0  0
   -5.3750   21.4500  -32.2130 C   0  0  0  0  0  0  0  0  0  0  0  0
   -5.3710   22.7270  -31.4560 C   0  0  0  0  0  0  0  0  0  0  0  0
   -6.4770   23.5820  -31.5950 C   0  0  0  0  0  0  0  0  0  0  0  0
   -6.5000   24.8250  -30.9720 C   0  0  0  0  0  0  0  0  0  0  0  0
   -5.4120   25.2500  -30.2160 C   0  0  0  0  0  0  0  0  0  0  0  0
   -4.2900   24.4210  -30.0440 C   0  0  0  0  0  0  0  0  0  0  0  0
   -3.1460   24.9050  -29.3140 N   0  0  0  0  0  0  0  0  0  0  0  0
   -2.7990   24.4220  -27.9770 C   0  0  0  0  0  0  0  0  0  0  0  0
   -1.9890   25.4580  -27.2390 C   0  0  0  0  0  0  0  0  0  0  0  0
   -2.0140   25.5030  -25.8350 C   0  0  0  0  0  0  0  0  0  0  0  0
   -1.2890   26.4790  -25.1470 C   0  0  0  0  0  0  0  0  0  0  0  0
   -0.5410   27.4250  -25.8530 C   0  0  0  0  0  0  0  0  0  0  0  0
   -0.5210   27.3980  -27.2500 C   0  0  0  0  0  0  0  0  0  0  0  0
   -1.2450   26.4240  -27.9460 C   0  0  0  0  0  0  0  0  0  0  0  0
   -1.2250   26.4220  -29.3380 O   0  0  0  0  0  0  0  0  0  0  0  0
   -4.2860   23.1230  -30.6240 C   0  0  0  0  0  0  0  0  0  0  0  0
   -3.1510   22.1680  -30.3240 C   0  0  0  0  0  0  0  0  0  0  0  0
   -4.2710   20.9490  -32.8300 N   0  0  0  0  0  0  0  0  0  0  0  0
   -4.7320   19.8000  -33.3500 C   0  0  0  0  0  0  0  0  0  0  0  0
   -4.0340   18.8590  -34.1030 C   0  0  0  0  0  0  0  0  0  0  0  0
   -3.5493   15.9481  -34.7389 H   0  0  0  0  0  0  0  0  0  0  0  0
   -4.7863   16.1774  -36.0210 H   0  0  0  0  0  0  0  0  0  0  0  0
   -3.2962   17.1805  -36.0210 H   0  0  0  0  0  0  0  0  0  0  0  0
   -6.6621   16.6809  -34.5826 H   0  0  0  0  0  0  0  0  0  0  0  0
   -7.8457   18.4291  -33.2007 H   0  0  0  0  0  0  0  0  0  0  0  0
   -7.3358   23.2641  -32.2045 H   0  0  0  0  0  0  0  0  0  0  0  0
   -7.3815   25.4746  -31.0772 H   0  0  0  0  0  0  0  0  0  0  0  0
   -5.4301   26.2453  -29.7480 H   0  0  0  0  0  0  0  0  0  0  0  0
   -2.5680   25.6690  -29.7320 H   0  0  0  0  0  0  0  0  0  0  0  0
   -3.7219   24.2154  -27.4152 H   0  0  0  0  0  0  0  0  0  0  0  0
   -2.2018   23.5032  -28.0728 H   0  0  0  0  0  0  0  0  0  0  0  0
   -2.6076   24.7658  -25.2745 H   0  0  0  0  0  0  0  0  0  0  0  0
   -1.3069   26.5029  -24.0474 H   0  0  0  0  0  0  0  0  0  0  0  0
    0.0318   28.1906  -25.3092 H   0  0  0  0  0  0  0  0  0  0  0  0
    0.0660   28.1451  -27.8043 H   0  0  0  0  0  0  0  0  0  0  0  0
   -3.0333   22.0690  -29.2348 H   0  0  0  0  0  0  0  0  0  0  0  0
   -3.3756   21.1832  -30.7596 H   0  0  0  0  0  0  0  0  0  0  0  0
   -2.2191   22.5577  -30.7596 H   0  0  0  0  0  0  0  0  0  0  0  0
   -2.9723   19.0040  -34.3517 H   0  0  0  0  0  0  0  0  0  0  0  0
  1  2  1  0
  2  3  2  0
  3  4  1  0
  4  5  2  0
  5  6  1  0
  6  7  1  0
  7  8  1  0
  8  9  2  0
  9 10  1  0
 10 11  2  0
 11 12  1  0
 12 13  1  0
 13 14  1  0
 14 15  1  0
 15 16  2  0
 16 17  1  0
 17 18  2  0
 18 19  1  0
 19 20  2  0
 20 21  1  0
 12 22  2  0
 22 23  1  0
  7 24  2  0
 24 25  1  0
 25 26  2  0
 26  2  1  0
 25  5  1  0
 22  8  1  0
 20 15  1  0
  1 27  1  0
  1 28  1  0
  1 29  1  0
  3 30  1  0
  4 31  1  0
  9 32  1  0
 10 33  1  0
 11 34  1  0
 13 35  1  0
 14 36  1  0
 14 37  1  0
 16 38  1  0
 17 39  1  0
 18 40  1  0
 19 41  1  0
 23 42  1  0
 23 43  1  0
 23 44  1  0
 26 45  1  0
M  CHG  1  21  -1
M  END
>  <UniqueID>  (33) 
32

>  <SMILES>  (33) 
Cc1ccc2oc(-c3cccc(NCc4ccccc4[O-])c3C)nc2c1

>  <Energy>  (33) 
93.81137728192759

>  <Genealogy>  (33) 
Cc1ccc2oc(-c3cccc(NCc4ccccc4[O-])c3C)nc2c1 (protonated)
Cc1ccc2oc(-c3cccc(NCc4ccccc4[O-])c3C)nc2c1 (3D coordinates assigned)
Cc1ccc2oc(-c3cccc(NCc4ccccc4[O-])c3C)nc2c1 (optimized conformer: 93.81137728192759 kcal/mol)

>  <smiles>  (33) 
Cc1ccc2oc(-c3cccc(NCc4ccccc4O)c3C)nc2c1

>  <score_type>  (33) 
oracle

>  <origin>  (33) 
adg

>  <m_score__min__energy>  (33) 
-12.41

>  <m_primary>  (33) 
energy

$$$$
33:0
     RDKit          3D

 43 44  0  0  0  0  0  0  0  0999 V2000
   -0.7070   26.0350  -23.6010 C   0  0  0  0  0  0  0  0  0  0  0  0
    0.1670   24.9870  -24.1380 N   0  0  0  0  0  0  0  0  0  0  0  0
   -0.4950   23.6700  -24.2080 C   0  0  0  0  0  0  0  0  0  0  0  0
   -0.8390   23.2390  -25.6500 C   0  0  0  0  0  0  0  0  0  0  0  0
   -1.0120   24.3960  -26.5570 N   0  0  0  0  0  0  0  0  0  0  0  0
   -0.7710   24.0300  -27.9800 C   0  0  0  0  0  0  0  0  0  0  0  0
   -1.6640   24.7940  -28.9660 C   0  0  0  0  0  0  0  0  0  0  0  0
   -3.0720   24.5970  -28.6070 N   0  0  0  0  0  0  0  0  0  0  0  0
   -4.0840   24.5910  -29.6360 C   0  0  0  0  0  0  0  0  0  0  0  0
   -3.8250   25.0930  -30.7650 O   0  0  0  0  0  0  0  0  0  0  0  0
   -5.4620   24.0340  -29.3900 C   0  0  0  0  0  0  0  0  0  0  0  0
   -5.8070   22.9920  -30.4220 C   0  0  0  0  0  0  0  0  0  0  0  0
   -4.7920   22.2860  -31.0860 C   0  0  0  0  0  0  0  0  0  0  0  0
   -5.1170   21.2970  -32.0190 C   0  0  0  0  0  0  0  0  0  0  0  0
   -6.4570   20.9980  -32.2930 C   0  0  0  0  0  0  0  0  0  0  0  0
   -6.8260   19.7460  -33.4720 Cl  0  0  0  0  0  0  0  0  0  0  0  0
   -7.4780   21.6920  -31.6230 C   0  0  0  0  0  0  0  0  0  0  0  0
   -9.1750   21.3400  -31.9300 Cl  0  0  0  0  0  0  0  0  0  0  0  0
   -7.1510   22.6830  -30.6890 C   0  0  0  0  0  0  0  0  0  0  0  0
   -3.4390   24.5450  -27.1850 C   0  0  0  0  0  0  0  0  0  0  0  0
   -2.3000   25.0910  -26.3130 C   0  0  0  0  0  0  0  0  0  0  0  0
   -0.6823   26.0054  -22.5017 H   0  0  0  0  0  0  0  0  0  0  0  0
   -0.3574   27.0181  -23.9493 H   0  0  0  0  0  0  0  0  0  0  0  0
   -1.7369   25.8676  -23.9493 H   0  0  0  0  0  0  0  0  0  0  0  0
    1.0400   24.9330  -23.5640 H   0  0  0  0  0  0  0  0  0  0  0  0
    0.4400   25.2660  -25.1090 H   0  0  0  0  0  0  0  0  0  0  0  0
    0.1762   22.9174  -23.7687 H   0  0  0  0  0  0  0  0  0  0  0  0
   -1.4428   23.7504  -23.6556 H   0  0  0  0  0  0  0  0  0  0  0  0
   -0.0244   22.6074  -26.0341 H   0  0  0  0  0  0  0  0  0  0  0  0
   -1.7923   22.6910  -25.6186 H   0  0  0  0  0  0  0  0  0  0  0  0
    0.2800   24.2460  -28.2222 H   0  0  0  0  0  0  0  0  0  0  0  0
   -1.0113   22.9618  -28.0854 H   0  0  0  0  0  0  0  0  0  0  0  0
   -1.4219   25.8662  -28.9243 H   0  0  0  0  0  0  0  0  0  0  0  0
   -1.4901   24.4171  -29.9847 H   0  0  0  0  0  0  0  0  0  0  0  0
   -5.4933   23.5763  -28.3902 H   0  0  0  0  0  0  0  0  0  0  0  0
   -6.1922   24.8539  -29.4573 H   0  0  0  0  0  0  0  0  0  0  0  0
   -3.7370   22.5116  -30.8715 H   0  0  0  0  0  0  0  0  0  0  0  0
   -4.3165   20.7514  -32.5401 H   0  0  0  0  0  0  0  0  0  0  0  0
   -7.9513   23.2225  -30.1614 H   0  0  0  0  0  0  0  0  0  0  0  0
   -4.3418   25.1520  -27.0222 H   0  0  0  0  0  0  0  0  0  0  0  0
   -3.6289   23.4981  -26.9057 H   0  0  0  0  0  0  0  0  0  0  0  0
   -2.1701   26.1611  -26.5323 H   0  0  0  0  0  0  0  0  0  0  0  0
   -2.5754   24.9233  -25.2613 H   0  0  0  0  0  0  0  0  0  0  0  0
  1  2  1  0
  2  3  1  0
  3  4  1  0
  4  5  1  0
  5  6  1  0
  6  7  1  0
  7  8  1  0
  8  9  1  0
  9 10  2  0
  9 11  1  0
 11 12  1  0
 12 13  2  0
 13 14  1  0
 14 15  2  0
 15 16  1  0
 15 17  1  0
 17 18  1  0
 17 19  2  0
  8 20  1  0
 20 21  1  0
 21  5  1  0
 19 12  1  0
  1 22  1  0
  1 23  1  0
  1 24  1  0
  2 25  1  0
  2 26  1  0
  3 27  1  0
  3 28  1  0
  4 29  1  0
  4 30  1  0
  6 31  1  0
  6 32  1  0
  7 33  1  0
  7 34  1  0
 11 35  1  0
 11 36  1  0
 13 37  1  0
 14 38  1  0
 19 39  1  0
 20 40  1  0
 20 41  1  0
 21 42  1  0
 21 43  1  0
M  CHG  1   2   1
M  END
>  <UniqueID>  (34) 
33

>  <SMILES>  (34) 
C[NH2+]CCN1CCN(C(=O)Cc2ccc(Cl)c(Cl)c2)CC1

>  <Energy>  (34) 
50.08689256508881

>  <Genealogy>  (34) 
C[NH2+]CCN1CCN(C(=O)Cc2ccc(Cl)c(Cl)c2)CC1 (protonated)
C[NH2+]CCN1CCN(C(=O)Cc2ccc(Cl)c(Cl)c2)CC1 (3D coordinates assigned)
C[NH2+]CCN1CCN(C(=O)Cc2ccc(Cl)c(Cl)c2)CC1 (nonaromatic ring conformer: 50.08689256508881 kcal/mol)

>  <smiles>  (34) 
CNCCN1CCN(C(=O)Cc2ccc(Cl)c(Cl)c2)CC1

>  <score_type>  (34) 
oracle

>  <origin>  (34) 
adg

>  <m_score__min__energy>  (34) 
-8.0899999999999999

>  <m_primary>  (34) 
energy

$$$$
34:0
     RDKit          3D

 46 48  0  0  0  0  0  0  0  0999 V2000
   -7.5180   20.1570  -32.4190 C   0  0  0  0  0  0  0  0  0  0  0  0
   -6.1650   19.5780  -32.4530 N   0  0  0  0  0  0  0  0  0  0  0  0
   -6.1240   18.3790  -31.5980 C   0  0  0  0  0  0  0  0  0  0  0  0
   -5.7750   19.2520  -33.8450 C   0  0  0  0  0  0  0  0  0  0  0  0
   -4.3090   18.7940  -33.9080 C   0  0  0  0  0  0  0  0  0  0  0  0
   -3.4940   19.3810  -32.8250 N   0  0  0  0  0  0  0  0  0  0  0  0
   -2.1930   19.8960  -33.2810 C   0  0  0  0  0  0  0  0  0  0  0  0
   -1.5570   20.8930  -32.2900 C   0  0  0  0  0  0  0  0  0  0  0  0
   -2.4690   21.2690  -31.2100 N   0  0  0  0  0  0  0  0  0  0  0  0
   -2.8680   22.3930  -30.6590 C   0  0  0  0  0  0  0  0  0  0  0  0
   -4.1120   23.0620  -30.9310 C   0  0  0  0  0  0  0  0  0  0  0  0
   -5.2300   22.4680  -31.5640 C   0  0  0  0  0  0  0  0  0  0  0  0
   -6.3860   23.2030  -31.8360 C   0  0  0  0  0  0  0  0  0  0  0  0
   -6.4790   24.5370  -31.4520 C   0  0  0  0  0  0  0  0  0  0  0  0
   -5.4300   25.1300  -30.7570 C   0  0  0  0  0  0  0  0  0  0  0  0
   -4.2690   24.4010  -30.4700 C   0  0  0  0  0  0  0  0  0  0  0  0
   -3.3140   24.9870  -29.7110 N   0  0  0  0  0  0  0  0  0  0  0  0
   -2.1840   24.3450  -29.3430 C   0  0  0  0  0  0  0  0  0  0  0  0
   -1.2570   25.0020  -28.5260 C   0  0  0  0  0  0  0  0  0  0  0  0
   -0.0800   24.3600  -28.1400 C   0  0  0  0  0  0  0  0  0  0  0  0
    0.1770   23.0580  -28.5680 C   0  0  0  0  0  0  0  0  0  0  0  0
   -0.7390   22.3940  -29.3890 C   0  0  0  0  0  0  0  0  0  0  0  0
   -1.9390   23.0270  -29.7920 C   0  0  0  0  0  0  0  0  0  0  0  0
   -7.8330   20.2918  -31.3737 H   0  0  0  0  0  0  0  0  0  0  0  0
   -7.5127   21.1316  -32.9289 H   0  0  0  0  0  0  0  0  0  0  0  0
   -8.2194   19.4802  -32.9289 H   0  0  0  0  0  0  0  0  0  0  0  0
   -6.1344   18.6821  -30.5406 H   0  0  0  0  0  0  0  0  0  0  0  0
   -7.0011   17.7491  -31.8075 H   0  0  0  0  0  0  0  0  0  0  0  0
   -5.2059   17.8105  -31.8075 H   0  0  0  0  0  0  0  0  0  0  0  0
   -6.4213   18.4453  -34.2211 H   0  0  0  0  0  0  0  0  0  0  0  0
   -5.8895   20.1542  -34.4638 H   0  0  0  0  0  0  0  0  0  0  0  0
   -4.2763   17.6979  -33.8216 H   0  0  0  0  0  0  0  0  0  0  0  0
   -3.8903   19.1327  -34.8672 H   0  0  0  0  0  0  0  0  0  0  0  0
   -4.0070   20.1210  -32.2920 H   0  0  0  0  0  0  0  0  0  0  0  0
   -1.5065   19.0466  -33.4124 H   0  0  0  0  0  0  0  0  0  0  0  0
   -2.3654   20.4351  -34.2242 H   0  0  0  0  0  0  0  0  0  0  0  0
   -0.6613   20.4301  -31.8501 H   0  0  0  0  0  0  0  0  0  0  0  0
   -1.3072   21.8066  -32.8494 H   0  0  0  0  0  0  0  0  0  0  0  0
   -5.1875   21.4060  -31.8474 H   0  0  0  0  0  0  0  0  0  0  0  0
   -7.2282   22.7242  -32.3571 H   0  0  0  0  0  0  0  0  0  0  0  0
   -7.3786   25.1206  -31.6970 H   0  0  0  0  0  0  0  0  0  0  0  0
   -5.5128   26.1773  -30.4310 H   0  0  0  0  0  0  0  0  0  0  0  0
   -1.4572   26.0290  -28.1867 H   0  0  0  0  0  0  0  0  0  0  0  0
    0.6454   24.8810  -27.4979 H   0  0  0  0  0  0  0  0  0  0  0  0
    1.1034   22.5519  -28.2586 H   0  0  0  0  0  0  0  0  0  0  0  0
   -0.5249   21.3688  -29.7254 H   0  0  0  0  0  0  0  0  0  0  0  0
  1  2  1  0
  2  3  1  0
  2  4  1  0
  4  5  1  0
  5  6  1  0
  6  7  1  0
  7  8  1  0
  8  9  1  0
  9 10  2  3
 10 11  1  0
 11 12  2  0
 12 13  1  0
 13 14  2  0
 14 15  1  0
 15 16  2  0
 16 17  1  0
 17 18  1  0
 18 19  2  0
 19 20  1  0
 20 21  2  0
 21 22  1  0
 22 23  2  0
 23 10  1  0
 16 11  1  0
 23 18  1  0
  1 24  1  0
  1 25  1  0
  1 26  1  0
  3 27  1  0
  3 28  1  0
  3 29  1  0
  4 30  1  0
  4 31  1  0
  5 32  1  0
  5 33  1  0
  6 34  1  0
  7 35  1  0
  7 36  1  0
  8 37  1  0
  8 38  1  0
 12 39  1  0
 13 40  1  0
 14 41  1  0
 15 42  1  0
 19 43  1  0
 20 44  1  0
 21 45  1  0
 22 46  1  0
M  CHG  1  17  -1
M  END
>  <UniqueID>  (35) 
34

>  <SMILES>  (35) 
CN(C)CCNCCN=c1c2ccccc2[n-]c2ccccc12

>  <Energy>  (35) 
74.5811039471844

>  <Genealogy>  (35) 
CN(C)CCNCCN=c1c2ccccc2[n-]c2ccccc12 (protonated)
CN(C)CCNCCN=c1c2ccccc2[n-]c2ccccc12 (3D coordinates assigned)
CN(C)CCNCCN=c1c2ccccc2[n-]c2ccccc12 (optimized conformer: 74.5811039471844 kcal/mol)

>  <smiles>  (35) 
CN(C)CCNCCN=c1c2ccccc2[nH]c2ccccc12

>  <score_type>  (35) 
oracle

>  <origin>  (35) 
adg

>  <m_score__min__energy>  (35) 
-8.2799999999999994

>  <m_primary>  (35) 
energy

$$$$
35:0
     RDKit          3D

 67 71  0  0  0  0  0  0  0  0999 V2000
   -0.1620   23.3260  -28.7530 C   0  0  0  0  0  0  0  0  0  0  0  0
   -0.7750   22.4710  -29.8510 C   0  0  0  0  0  0  0  0  0  0  0  0
   -2.2130   22.7940  -29.9880 N   0  0  0  0  0  0  0  0  0  0  0  0
   -3.0840   21.6360  -29.6950 C   0  0  0  0  0  0  0  0  0  0  0  0
   -2.4030   20.5130  -28.8860 C   0  0  0  0  0  0  0  0  0  0  0  0
   -2.6040   23.9990  -29.2250 C   0  0  0  0  0  0  0  0  0  0  0  0
   -4.0700   24.3730  -29.4970 C   0  0  0  0  0  0  0  0  0  0  0  0
   -4.2190   25.0970  -30.7010 O   0  0  0  0  0  0  0  0  0  0  0  0
   -5.5300   24.9820  -31.2240 C   0  0  0  0  0  0  0  0  0  0  0  0
   -6.0150   23.5340  -31.1110 C   0  0  0  0  0  0  0  0  0  0  0  0
   -6.2380   22.9490  -32.4320 N   0  0  0  0  0  0  0  0  0  0  0  0
   -6.0110   21.5510  -32.6550 C   0  0  0  0  0  0  0  0  0  0  0  0
   -4.7280   21.0980  -32.9630 C   0  0  0  0  0  0  0  0  0  0  0  0
   -4.4540   19.7420  -33.0250 C   0  0  0  0  0  0  0  0  0  0  0  0
   -5.4470   18.7960  -32.9640 N   0  0  0  0  0  0  0  0  0  0  0  0
   -5.1550   17.4050  -33.3470 C   0  0  0  0  0  0  0  0  0  0  0  0
   -6.7290   19.2010  -32.6240 C   0  0  0  0  0  0  0  0  0  0  0  0
   -7.7660   18.2640  -32.3850 C   0  0  0  0  0  0  0  0  0  0  0  0
   -9.0610   18.6870  -32.0820 C   0  0  0  0  0  0  0  0  0  0  0  0
   -9.3600   20.0430  -32.0150 C   0  0  0  0  0  0  0  0  0  0  0  0
   -8.3560   20.9880  -32.2130 C   0  0  0  0  0  0  0  0  0  0  0  0
   -7.0340   20.5920  -32.4870 C   0  0  0  0  0  0  0  0  0  0  0  0
   -2.9990   19.5950  -33.0750 C   0  0  0  0  0  0  0  0  0  0  0  0
   -2.2400   18.5020  -32.7680 N   0  0  0  0  0  0  0  0  0  0  0  0
   -0.8870   18.6320  -32.6410 C   0  0  0  0  0  0  0  0  0  0  0  0
   -0.0900   17.5180  -32.3390 C   0  0  0  0  0  0  0  0  0  0  0  0
    1.2910   17.6590  -32.1890 C   0  0  0  0  0  0  0  0  0  0  0  0
    1.8940   18.9090  -32.3450 C   0  0  0  0  0  0  0  0  0  0  0  0
    1.1170   20.0340  -32.6410 C   0  0  0  0  0  0  0  0  0  0  0  0
   -0.2690   19.9070  -32.7910 C   0  0  0  0  0  0  0  0  0  0  0  0
   -1.0730   21.0370  -33.0240 C   0  0  0  0  0  0  0  0  0  0  0  0
   -2.4410   20.8600  -33.1550 C   0  0  0  0  0  0  0  0  0  0  0  0
   -3.4880   21.9240  -33.1410 C   0  0  0  0  0  0  0  0  0  0  0  0
   -0.4505   22.9236  -27.7708 H   0  0  0  0  0  0  0  0  0  0  0  0
    0.9339   23.3131  -28.8470 H   0  0  0  0  0  0  0  0  0  0  0  0
   -0.5260   24.3598  -28.8470 H   0  0  0  0  0  0  0  0  0  0  0  0
   -0.2620   22.6742  -30.8026 H   0  0  0  0  0  0  0  0  0  0  0  0
   -0.6627   21.4079  -29.5916 H   0  0  0  0  0  0  0  0  0  0  0  0
   -3.9517   21.9948  -29.1219 H   0  0  0  0  0  0  0  0  0  0  0  0
   -3.3611   21.1989  -30.6657 H   0  0  0  0  0  0  0  0  0  0  0  0
   -2.5232   20.7111  -27.8107 H   0  0  0  0  0  0  0  0  0  0  0  0
   -2.8681   19.5478  -29.1352 H   0  0  0  0  0  0  0  0  0  0  0  0
   -1.3321   20.4792  -29.1352 H   0  0  0  0  0  0  0  0  0  0  0  0
   -2.4769   23.8011  -28.1504 H   0  0  0  0  0  0  0  0  0  0  0  0
   -1.9647   24.8363  -29.5415 H   0  0  0  0  0  0  0  0  0  0  0  0
   -4.6653   23.4503  -29.5619 H   0  0  0  0  0  0  0  0  0  0  0  0
   -4.4151   25.0132  -28.6717 H   0  0  0  0  0  0  0  0  0  0  0  0
   -6.2070   25.6380  -30.6571 H   0  0  0  0  0  0  0  0  0  0  0  0
   -5.5229   25.2783  -32.2833 H   0  0  0  0  0  0  0  0  0  0  0  0
   -5.2561   22.9414  -30.5791 H   0  0  0  0  0  0  0  0  0  0  0  0
   -6.9672   23.5265  -30.5603 H   0  0  0  0  0  0  0  0  0  0  0  0
   -6.1390   23.5860  -33.2630 H   0  0  0  0  0  0  0  0  0  0  0  0
   -5.0268   16.7944  -32.4410 H   0  0  0  0  0  0  0  0  0  0  0  0
   -5.9890   17.0060  -33.9431 H   0  0  0  0  0  0  0  0  0  0  0  0
   -4.2310   17.3751  -33.9431 H   0  0  0  0  0  0  0  0  0  0  0  0
   -7.5465   17.1875  -32.4392 H   0  0  0  0  0  0  0  0  0  0  0  0
   -9.8496   17.9432  -31.8951 H   0  0  0  0  0  0  0  0  0  0  0  0
  -10.3893   20.3696  -31.8056 H   0  0  0  0  0  0  0  0  0  0  0  0
   -8.6001   22.0590  -32.1543 H   0  0  0  0  0  0  0  0  0  0  0  0
   -2.6940   17.5890  -32.5420 H   0  0  0  0  0  0  0  0  0  0  0  0
   -0.5552   16.5284  -32.2197 H   0  0  0  0  0  0  0  0  0  0  0  0
    1.9074   16.7808  -31.9466 H   0  0  0  0  0  0  0  0  0  0  0  0
    2.9839   19.0093  -32.2347 H   0  0  0  0  0  0  0  0  0  0  0  0
    1.5950   21.0181  -32.7558 H   0  0  0  0  0  0  0  0  0  0  0  0
   -0.6258   22.0391  -33.1005 H   0  0  0  0  0  0  0  0  0  0  0  0
   -3.3436   22.6227  -32.3037 H   0  0  0  0  0  0  0  0  0  0  0  0
   -3.4944   22.5677  -34.0330 H   0  0  0  0  0  0  0  0  0  0  0  0
  1  2  1  0
  2  3  1  0
  3  4  1  0
  4  5  1  0
  3  6  1  0
  6  7  1  0
  7  8  1  0
  8  9  1  0
  9 10  1  0
 10 11  1  0
 11 12  1  0
 12 13  2  0
 13 14  1  0
 14 15  2  0
 15 16  1  0
 15 17  1  0
 17 18  2  0
 18 19  1  0
 19 20  2  0
 20 21  1  0
 21 22  2  0
 14 23  1  0
 23 24  2  0
 24 25  1  0
 25 26  2  0
 26 27  1  0
 27 28  2  0
 28 29  1  0
 29 30  2  0
 30 31  1  0
 31 32  2  0
 32 33  1  0
 22 12  1  0
 32 23  1  0
 33 13  1  0
 22 17  1  0
 30 25  1  0
  1 34  1  0
  1 35  1  0
  1 36  1  0
  2 37  1  0
  2 38  1  0
  4 39  1  0
  4 40  1  0
  5 41  1  0
  5 42  1  0
  5 43  1  0
  6 44  1  0
  6 45  1  0
  7 46  1  0
  7 47  1  0
  9 48  1  0
  9 49  1  0
 10 50  1  0
 10 51  1  0
 11 52  1  0
 16 53  1  0
 16 54  1  0
 16 55  1  0
 18 56  1  0
 19 57  1  0
 20 58  1  0
 21 59  1  0
 24 60  1  0
 26 61  1  0
 27 62  1  0
 28 63  1  0
 29 64  1  0
 31 65  1  0
 33 66  1  0
 33 67  1  0
M  CHG  2  15   1  24   1
M  END
>  <UniqueID>  (36) 
35

>  <SMILES>  (36) 
CCN(CC)CCOCCNc1c2c([n+](C)c3ccccc13)-c1[nH+]c3ccccc3cc1C2

>  <Energy>  (36) 
123.5622417897833

>  <Genealogy>  (36) 
CCN(CC)CCOCCNc1c2c([n+](C)c3ccccc13)-c1[nH+]c3ccccc3cc1C2 (protonated)
CCN(CC)CCOCCNc1c2c([n+](C)c3ccccc13)-c1[nH+]c3ccccc3cc1C2 (3D coordinates assigned)
CCN(CC)CCOCCNc1c2c([n+](C)c3ccccc13)-c1[nH+]c3ccccc3cc1C2 (nonaromatic ring conformer: 123.5622417897833 kcal/mol)

>  <smiles>  (36) 
CCN(CC)CCOCCNc1c2c([n+](C)c3ccccc13)-c1nc3ccccc3cc1C2

>  <score_type>  (36) 
oracle

>  <origin>  (36) 
adg

>  <m_score__min__energy>  (36) 
-9.1099999999999994

>  <m_primary>  (36) 
energy

$$$$
36:0
     RDKit          3D

 47 49  0  0  0  0  0  0  0  0999 V2000
   -6.6150   17.7430  -31.2400 C   0  0  0  0  0  0  0  0  0  0  0  0
   -7.1060   17.4290  -32.6590 C   0  0  0  0  0  0  0  0  0  0  0  0
   -6.2320   18.0030  -33.7140 N   0  0  2  0  0  0  0  0  0  0  0  0
   -5.7100   16.9380  -34.5970 C   0  0  0  0  0  0  0  0  0  0  0  0
   -5.1190   18.7540  -33.0780 C   0  0  0  0  0  0  0  0  0  0  0  0
   -4.9010   20.1440  -33.7030 C   0  0  0  0  0  0  0  0  0  0  0  0
   -5.4300   21.1830  -32.8180 N   0  0  0  0  0  0  0  0  0  0  0  0
   -4.7010   22.1490  -32.2080 C   0  0  0  0  0  0  0  0  0  0  0  0
   -5.5170   22.9050  -31.3790 C   0  0  0  0  0  0  0  0  0  0  0  0
   -5.0140   24.2270  -30.3370 S   0  0  0  0  0  0  0  0  0  0  0  0
   -4.3150   25.2810  -31.1470 O   0  0  0  0  0  0  0  0  0  0  0  0
   -6.2350   24.8290  -29.6990 O   0  0  0  0  0  0  0  0  0  0  0  0
   -3.9090   23.6150  -29.1120 C   0  0  0  0  0  0  0  0  0  0  0  0
   -3.0920   24.5080  -28.4030 C   0  0  0  0  0  0  0  0  0  0  0  0
   -2.2010   24.0310  -27.4380 C   0  0  0  0  0  0  0  0  0  0  0  0
   -2.1210   22.6600  -27.1750 C   0  0  0  0  0  0  0  0  0  0  0  0
   -2.9330   21.7660  -27.8780 C   0  0  0  0  0  0  0  0  0  0  0  0
   -3.8260   22.2410  -28.8450 C   0  0  0  0  0  0  0  0  0  0  0  0
   -6.7810   22.3630  -31.4810 C   0  0  0  0  0  0  0  0  0  0  0  0
   -7.9770   22.6970  -30.8460 C   0  0  0  0  0  0  0  0  0  0  0  0
   -9.1130   21.9210  -31.1350 C   0  0  0  0  0  0  0  0  0  0  0  0
   -9.0290   20.8370  -32.0370 C   0  0  0  0  0  0  0  0  0  0  0  0
   -7.8070   20.5210  -32.6580 C   0  0  0  0  0  0  0  0  0  0  0  0
   -6.6940   21.3130  -32.3600 C   0  0  0  0  0  0  0  0  0  0  0  0
   -7.3058   17.3012  -30.5068 H   0  0  0  0  0  0  0  0  0  0  0  0
   -5.6097   17.3198  -31.0978 H   0  0  0  0  0  0  0  0  0  0  0  0
   -6.5774   18.8331  -31.0978 H   0  0  0  0  0  0  0  0  0  0  0  0
   -7.1378   16.3368  -32.7856 H   0  0  0  0  0  0  0  0  0  0  0  0
   -8.1013   17.8837  -32.7718 H   0  0  0  0  0  0  0  0  0  0  0  0
   -6.7980   18.6720  -34.2890 H   0  0  0  0  0  0  0  0  0  0  0  0
   -5.3080   16.1178  -33.9841 H   0  0  0  0  0  0  0  0  0  0  0  0
   -6.5233   16.5567  -35.2319 H   0  0  0  0  0  0  0  0  0  0  0  0
   -4.9104   17.3472  -35.2319 H   0  0  0  0  0  0  0  0  0  0  0  0
   -5.3468   18.8813  -32.0094 H   0  0  0  0  0  0  0  0  0  0  0  0
   -4.1976   18.1737  -33.2334 H   0  0  0  0  0  0  0  0  0  0  0  0
   -3.8242   20.3095  -33.8551 H   0  0  0  0  0  0  0  0  0  0  0  0
   -5.4274   20.1911  -34.6677 H   0  0  0  0  0  0  0  0  0  0  0  0
   -3.6220   22.3098  -32.3493 H   0  0  0  0  0  0  0  0  0  0  0  0
   -3.1529   25.5871  -28.6073 H   0  0  0  0  0  0  0  0  0  0  0  0
   -1.5619   24.7348  -26.8847 H   0  0  0  0  0  0  0  0  0  0  0  0
   -1.4193   22.2854  -26.4152 H   0  0  0  0  0  0  0  0  0  0  0  0
   -2.8701   20.6875  -27.6710 H   0  0  0  0  0  0  0  0  0  0  0  0
   -4.4641   21.5351  -29.3968 H   0  0  0  0  0  0  0  0  0  0  0  0
   -8.0297   23.5404  -30.1418 H   0  0  0  0  0  0  0  0  0  0  0  0
  -10.0739   22.1595  -30.6555 H   0  0  0  0  0  0  0  0  0  0  0  0
   -9.9245   20.2365  -32.2550 H   0  0  0  0  0  0  0  0  0  0  0  0
   -7.7294   19.6756  -33.3575 H   0  0  0  0  0  0  0  0  0  0  0  0
  1  2  1  0
  2  3  1  0
  3  4  1  0
  3  5  1  0
  5  6  1  0
  6  7  1  0
  7  8  1  0
  8  9  2  0
  9 10  1  0
 10 11  2  0
 10 12  2  0
 10 13  1  0
 13 14  2  0
 14 15  1  0
 15 16  2  0
 16 17  1  0
 17 18  2  0
  9 19  1  0
 19 20  2  0
 20 21  1  0
 21 22  2  0
 22 23  1  0
 23 24  2  0
 24  7  1  0
 18 13  1  0
 24 19  1  0
  1 25  1  0
  1 26  1  0
  1 27  1  0
  2 28  1  0
  2 29  1  0
  3 30  1  6
  4 31  1  0
  4 32  1  0
  4 33  1  0
  5 34  1  0
  5 35  1  0
  6 36  1  0
  6 37  1  0
  8 38  1  0
 14 39  1  0
 15 40  1  0
 16 41  1  0
 17 42  1  0
 18 43  1  0
 20 44  1  0
 21 45  1  0
 22 46  1  0
 23 47  1  0
M  CHG  1   3   1
M  END
>  <UniqueID>  (37) 
36

>  <SMILES>  (37) 
CC[N@H+](C)CCn1cc(S(=O)(=O)c2ccccc2)c2ccccc21

>  <Energy>  (37) 
83.38955316822381

>  <Genealogy>  (37) 
CC[NH+](C)CCn1cc(S(=O)(=O)c2ccccc2)c2ccccc21 (protonated)
CC[N@H+](C)CCn1cc(S(=O)(=O)c2ccccc2)c2ccccc21 (chirality)
CC[N@H+](C)CCn1cc(S(=O)(=O)c2ccccc2)c2ccccc21 (3D coordinates assigned)
CC[N@H+](C)CCn1cc(S(=O)(=O)c2ccccc2)c2ccccc21 (optimized conformer: 83.38955316822381 kcal/mol)

>  <smiles>  (37) 
CCN(C)CCn1cc(S(=O)(=O)c2ccccc2)c2ccccc21

>  <score_type>  (37) 
oracle

>  <origin>  (37) 
adg

>  <m_score__min__energy>  (37) 
-8.0700000000000003

>  <m_primary>  (37) 
energy

$$$$
37:0
     RDKit          3D

 54 57  0  0  0  0  0  0  0  0999 V2000
   -0.2700   20.1330  -32.4460 C   0  0  0  0  0  0  0  0  0  0  0  0
   -1.7240   20.0730  -32.6690 N   0  0  0  0  0  0  0  0  0  0  0  0
   -2.0650   18.7940  -33.3190 C   0  0  0  0  0  0  0  0  0  0  0  0
   -2.1670   21.2220  -33.4890 C   0  0  0  0  0  0  0  0  0  0  0  0
   -3.6470   21.5450  -33.2070 C   0  0  0  0  0  0  0  0  0  0  0  0
   -4.2200   20.6650  -32.1670 N   0  0  0  0  0  0  0  0  0  0  0  0
   -5.4710   21.1830  -31.6160 C   0  0  0  0  0  0  0  0  0  0  0  0
   -6.6770   20.4720  -31.8110 C   0  0  0  0  0  0  0  0  0  0  0  0
   -6.6980   19.0630  -31.9180 C   0  0  0  0  0  0  0  0  0  0  0  0
   -7.8960   18.3800  -32.1140 C   0  0  0  0  0  0  0  0  0  0  0  0
   -9.0940   19.0800  -32.1840 C   0  0  0  0  0  0  0  0  0  0  0  0
   -9.1030   20.4690  -32.0570 C   0  0  0  0  0  0  0  0  0  0  0  0
   -7.8970   21.1920  -31.8810 C   0  0  0  0  0  0  0  0  0  0  0  0
   -7.8870   22.5670  -31.7780 N   0  0  0  0  0  0  0  0  0  0  0  0
   -9.0560   23.3510  -32.2320 C   0  0  0  0  0  0  0  0  0  0  0  0
   -6.7890   23.2010  -31.2320 C   0  0  0  0  0  0  0  0  0  0  0  0
   -6.8570   24.5520  -30.8140 C   0  0  0  0  0  0  0  0  0  0  0  0
   -5.7530   25.1910  -30.2620 C   0  0  0  0  0  0  0  0  0  0  0  0
   -4.5780   24.4900  -30.0420 C   0  0  0  0  0  0  0  0  0  0  0  0
   -4.4760   23.1370  -30.3920 C   0  0  0  0  0  0  0  0  0  0  0  0
   -3.3040   22.4070  -29.8620 C   0  0  0  0  0  0  0  0  0  0  0  0
   -3.4670   21.4700  -28.8270 C   0  0  0  0  0  0  0  0  0  0  0  0
   -2.3580   20.7930  -28.3110 C   0  0  0  0  0  0  0  0  0  0  0  0
   -1.0810   21.0550  -28.8150 C   0  0  0  0  0  0  0  0  0  0  0  0
   -0.9090   22.0000  -29.8300 C   0  0  0  0  0  0  0  0  0  0  0  0
   -2.0150   22.6810  -30.3480 C   0  0  0  0  0  0  0  0  0  0  0  0
   -5.5600   22.4940  -31.0680 C   0  0  0  0  0  0  0  0  0  0  0  0
   -0.0648   20.1415  -31.3653 H   0  0  0  0  0  0  0  0  0  0  0  0
    0.2076   19.2538  -32.9030 H   0  0  0  0  0  0  0  0  0  0  0  0
    0.1336   21.0486  -32.9030 H   0  0  0  0  0  0  0  0  0  0  0  0
   -2.2676   18.0343  -32.5497 H   0  0  0  0  0  0  0  0  0  0  0  0
   -2.9587   18.9282  -33.9461 H   0  0  0  0  0  0  0  0  0  0  0  0
   -1.2231   18.4655  -33.9461 H   0  0  0  0  0  0  0  0  0  0  0  0
   -1.5515   22.1003  -33.2446 H   0  0  0  0  0  0  0  0  0  0  0  0
   -2.0544   20.9654  -34.5527 H   0  0  0  0  0  0  0  0  0  0  0  0
   -3.7241   22.5892  -32.8699 H   0  0  0  0  0  0  0  0  0  0  0  0
   -4.2121   21.3829  -34.1367 H   0  0  0  0  0  0  0  0  0  0  0  0
   -3.5200   20.4950  -31.4160 H   0  0  0  0  0  0  0  0  0  0  0  0
   -4.3490   19.7380  -32.6260 H   0  0  0  0  0  0  0  0  0  0  0  0
   -5.7566   18.4987  -31.8456 H   0  0  0  0  0  0  0  0  0  0  0  0
   -7.8935   17.2845  -32.2135 H   0  0  0  0  0  0  0  0  0  0  0  0
  -10.0380   18.5374  -32.3400 H   0  0  0  0  0  0  0  0  0  0  0  0
  -10.0596   21.0108  -32.0940 H   0  0  0  0  0  0  0  0  0  0  0  0
   -9.6102   23.7227  -31.3575 H   0  0  0  0  0  0  0  0  0  0  0  0
   -8.7134   24.2026  -32.8381 H   0  0  0  0  0  0  0  0  0  0  0  0
   -9.7139   22.7108  -32.8381 H   0  0  0  0  0  0  0  0  0  0  0  0
   -7.8005   25.1059  -30.9282 H   0  0  0  0  0  0  0  0  0  0  0  0
   -5.8122   26.2574  -29.9987 H   0  0  0  0  0  0  0  0  0  0  0  0
   -3.7163   25.0011  -29.5878 H   0  0  0  0  0  0  0  0  0  0  0  0
   -4.4698   21.2689  -28.4220 H   0  0  0  0  0  0  0  0  0  0  0  0
   -2.4906   20.0534  -27.5076 H   0  0  0  0  0  0  0  0  0  0  0  0
   -0.2103   20.5167  -28.4122 H   0  0  0  0  0  0  0  0  0  0  0  0
    0.0975   22.2084  -30.2219 H   0  0  0  0  0  0  0  0  0  0  0  0
   -1.8752   23.4333  -31.1382 H   0  0  0  0  0  0  0  0  0  0  0  0
  1  2  1  0
  2  3  1  0
  2  4  1  0
  4  5  1  0
  5  6  1  0
  6  7  1  0
  7  8  2  0
  8  9  1  0
  9 10  2  0
 10 11  1  0
 11 12  2  0
 12 13  1  0
 13 14  2  0
 14 15  1  0
 14 16  1  0
 16 17  2  0
 17 18  1  0
 18 19  2  0
 19 20  1  0
 20 21  1  0
 21 22  2  0
 22 23  1  0
 23 24  2  0
 24 25  1  0
 25 26  2  0
 20 27  2  0
 27  7  1  0
 13  8  1  0
 27 16  1  0
 26 21  1  0
  1 28  1  0
  1 29  1  0
  1 30  1  0
  3 31  1  0
  3 32  1  0
  3 33  1  0
  4 34  1  0
  4 35  1  0
  5 36  1  0
  5 37  1  0
  6 38  1  0
  6 39  1  0
  9 40  1  0
 10 41  1  0
 11 42  1  0
 12 43  1  0
 15 44  1  0
 15 45  1  0
 15 46  1  0
 17 47  1  0
 18 48  1  0
 19 49  1  0
 22 50  1  0
 23 51  1  0
 24 52  1  0
 25 53  1  0
 26 54  1  0
M  CHG  2   6   1  14   1
M  END
>  <UniqueID>  (38) 
37

>  <SMILES>  (38) 
CN(C)CC[NH2+]c1c2ccccc2[n+](C)c2cccc(-c3ccccc3)c12

>  <Energy>  (38) 
104.19908235110216

>  <Genealogy>  (38) 
CN(C)CC[NH2+]c1c2ccccc2[n+](C)c2cccc(-c3ccccc3)c12 (protonated)
CN(C)CC[NH2+]c1c2ccccc2[n+](C)c2cccc(-c3ccccc3)c12 (3D coordinates assigned)
CN(C)CC[NH2+]c1c2ccccc2[n+](C)c2cccc(-c3ccccc3)c12 (optimized conformer: 104.19908235110216 kcal/mol)

>  <smiles>  (38) 
CN(C)CCNc1c2ccccc2[n+](C)c2cccc(-c3ccccc3)c12

>  <score_type>  (38) 
oracle

>  <origin>  (38) 
adg

>  <m_score__min__energy>  (38) 
-7.0499999999999998

>  <m_primary>  (38) 
energy

$$$$
38:0
     RDKit          3D

 25 27  0  0  0  0  0  0  0  0999 V2000
   -4.0501   21.3216  -33.0824 H   0  0  0  0  0  0  0  0  0  0  0  0
   -5.1200   21.2220  -32.8470 C   0  0  0  0  0  0  0  0  0  0  0  0
   -5.9190   20.2210  -33.2810 N   0  0  0  0  0  0  0  0  0  0  0  0
   -7.1250   20.4510  -32.7900 N   0  0  0  0  0  0  0  0  0  0  0  0
   -8.2250   19.6820  -32.9860 C   0  0  0  0  0  0  0  0  0  0  0  0
   -8.1730   18.7713  -33.6007 H   0  0  0  0  0  0  0  0  0  0  0  0
   -9.4290   20.0750  -32.3870 C   0  0  0  0  0  0  0  0  0  0  0  0
  -10.3398   19.4740  -32.5257 H   0  0  0  0  0  0  0  0  0  0  0  0
   -9.4630   21.2460  -31.6060 C   0  0  0  0  0  0  0  0  0  0  0  0
  -10.4050   21.5611  -31.1334 H   0  0  0  0  0  0  0  0  0  0  0  0
   -8.3010   22.0140  -31.4270 C   0  0  0  0  0  0  0  0  0  0  0  0
   -8.3125   22.9304  -30.8187 H   0  0  0  0  0  0  0  0  0  0  0  0
   -7.1290   21.5730  -32.0490 C   0  0  0  0  0  0  0  0  0  0  0  0
   -5.8500   22.1090  -32.0580 C   0  0  0  0  0  0  0  0  0  0  0  0
   -5.3450   23.3300  -31.3960 C   0  0  0  0  0  0  0  0  0  0  0  0
   -4.1030   23.3950  -30.8450 N   0  0  0  0  0  0  0  0  0  0  0  0
   -3.8620   24.6070  -30.2990 C   0  0  0  0  0  0  0  0  0  0  0  0
   -2.7510   24.9270  -29.7110 N   0  0  0  0  0  0  0  0  0  0  0  0
   -2.3860   24.4580  -28.3800 C   0  0  0  0  0  0  0  0  0  0  0  0
   -2.8758   25.0874  -27.6224 H   0  0  0  0  0  0  0  0  0  0  0  0
   -2.7122   23.4147  -28.2566 H   0  0  0  0  0  0  0  0  0  0  0  0
   -1.2946   24.5180  -28.2566 H   0  0  0  0  0  0  0  0  0  0  0  0
   -5.1640   25.6490  -30.4670 S   0  0  0  0  0  0  0  0  0  0  0  0
   -6.0940   24.5050  -31.2820 C   0  0  0  0  0  0  0  0  0  0  0  0
   -7.1159   24.6566  -31.6599 H   0  0  0  0  0  0  0  0  0  0  0  0
  1  2  1  0
  2  3  2  0
  3  4  1  0
  4  5  1  0
  5  6  1  0
  5  7  2  0
  7  8  1  0
  7  9  1  0
  9 10  1  0
  9 11  2  0
 11 12  1  0
 11 13  1  0
 13 14  2  0
 14 15  1  0
 15 16  1  0
 16 17  1  0
 17 18  2  0
 18 19  1  0
 19 20  1  0
 19 21  1  0
 19 22  1  0
 17 23  1  0
 23 24  1  0
 24 25  1  0
 14  2  1  0
 24 15  2  0
 13  4  1  0
M  CHG  1  16  -1
M  END
>  <UniqueID>  (39) 
38

>  <SMILES>  (39) 
C/N=c1\[n-]c(-c2cnn3ccccc23)cs1

>  <Energy>  (39) 
92.40674876779052

>  <Genealogy>  (39) 
CN=c1[n-]c(-c2cnn3ccccc23)cs1 (protonated)
C/N=c1\[n-]c(-c2cnn3ccccc23)cs1 (cis-trans isomerization)
C/N=c1\[n-]c(-c2cnn3ccccc23)cs1 (3D coordinates assigned)
C/N=c1\[n-]c(-c2cnn3ccccc23)cs1 (optimized conformer: 92.40674876779052 kcal/mol)

>  <smiles>  (39) 
CN=c1[nH]c(-c2cnn3ccccc23)cs1

>  <score_type>  (39) 
oracle

>  <origin>  (39) 
adg

>  <m_score__min__energy>  (39) 
-8.1899999999999995

>  <m_primary>  (39) 
energy

$$$$
39:0
     RDKit          3D

 50 52  0  0  0  0  0  0  0  0999 V2000
   -1.2930   26.1220  -26.5220 C   0  0  0  0  0  0  0  0  0  0  0  0
   -0.8010   26.6500  -27.8660 C   0  0  0  0  0  0  0  0  0  0  0  0
   -1.2820   25.7970  -28.9620 N   0  0  0  0  0  0  0  0  0  0  0  0
   -1.3440   24.3870  -28.5560 C   0  0  0  0  0  0  0  0  0  0  0  0
   -2.5210   23.7230  -29.2150 C   0  0  0  0  0  0  0  0  0  0  0  0
   -3.5560   24.4980  -29.7570 C   0  0  0  0  0  0  0  0  0  0  0  0
   -4.6350   23.8860  -30.4020 C   0  0  0  0  0  0  0  0  0  0  0  0
   -4.6900   22.4850  -30.5290 C   0  0  0  0  0  0  0  0  0  0  0  0
   -5.8040   21.8520  -31.1970 N   0  0  0  0  0  0  0  0  0  0  0  0
   -5.5790   20.8110  -32.2070 C   0  0  0  0  0  0  0  0  0  0  0  0
   -6.7390   20.7900  -33.2100 C   0  0  0  0  0  0  0  0  0  0  0  0
   -8.0680   20.6070  -32.5680 N   0  0  0  0  0  0  0  0  0  0  0  0
   -8.5510   19.2170  -32.7120 C   0  0  0  0  0  0  0  0  0  0  0  0
   -7.4120   18.2340  -32.6100 C   0  0  0  0  0  0  0  0  0  0  0  0
   -6.8640   17.6720  -33.7750 C   0  0  0  0  0  0  0  0  0  0  0  0
   -5.8250   16.7410  -33.6860 C   0  0  0  0  0  0  0  0  0  0  0  0
   -5.3300   16.3610  -32.4350 C   0  0  0  0  0  0  0  0  0  0  0  0
   -5.8750   16.9120  -31.2710 C   0  0  0  0  0  0  0  0  0  0  0  0
   -6.9150   17.8430  -31.3550 C   0  0  0  0  0  0  0  0  0  0  0  0
   -8.1300   21.0570  -31.1520 C   0  0  0  0  0  0  0  0  0  0  0  0
   -7.1850   22.2290  -30.8680 C   0  0  0  0  0  0  0  0  0  0  0  0
   -3.6400   21.7140  -29.9970 C   0  0  0  0  0  0  0  0  0  0  0  0
   -2.5640   22.3290  -29.3510 C   0  0  0  0  0  0  0  0  0  0  0  0
   -0.7884   26.6636  -25.7083 H   0  0  0  0  0  0  0  0  0  0  0  0
   -2.3798   26.2731  -26.4443 H   0  0  0  0  0  0  0  0  0  0  0  0
   -1.0656   25.0486  -26.4443 H   0  0  0  0  0  0  0  0  0  0  0  0
   -1.1768   27.6734  -28.0123 H   0  0  0  0  0  0  0  0  0  0  0  0
    0.2990   26.6457  -27.8686 H   0  0  0  0  0  0  0  0  0  0  0  0
   -0.5930   25.8670  -29.7470 H   0  0  0  0  0  0  0  0  0  0  0  0
   -0.4182   23.8773  -28.8610 H   0  0  0  0  0  0  0  0  0  0  0  0
   -1.4553   24.3263  -27.4633 H   0  0  0  0  0  0  0  0  0  0  0  0
   -3.5189   25.5943  -29.6743 H   0  0  0  0  0  0  0  0  0  0  0  0
   -5.4469   24.5037  -30.8133 H   0  0  0  0  0  0  0  0  0  0  0  0
   -4.6401   21.0191  -32.7410 H   0  0  0  0  0  0  0  0  0  0  0  0
   -5.5170   19.8327  -31.7079 H   0  0  0  0  0  0  0  0  0  0  0  0
   -6.7442   21.7438  -33.7579 H   0  0  0  0  0  0  0  0  0  0  0  0
   -6.5779   19.9301  -33.8768 H   0  0  0  0  0  0  0  0  0  0  0  0
   -9.2804   19.0057  -31.9162 H   0  0  0  0  0  0  0  0  0  0  0  0
   -9.0178   19.1098  -33.7022 H   0  0  0  0  0  0  0  0  0  0  0  0
   -7.2539   17.9656  -34.7608 H   0  0  0  0  0  0  0  0  0  0  0  0
   -5.3964   16.3069  -34.6014 H   0  0  0  0  0  0  0  0  0  0  0  0
   -4.5120   15.6288  -32.3663 H   0  0  0  0  0  0  0  0  0  0  0  0
   -5.4848   16.6124  -30.2872 H   0  0  0  0  0  0  0  0  0  0  0  0
   -7.3449   18.2701  -30.4370 H   0  0  0  0  0  0  0  0  0  0  0  0
   -9.1597   21.3712  -30.9263 H   0  0  0  0  0  0  0  0  0  0  0  0
   -7.8170   20.2137  -30.5188 H   0  0  0  0  0  0  0  0  0  0  0  0
   -7.4823   23.0932  -31.4801 H   0  0  0  0  0  0  0  0  0  0  0  0
   -7.2436   22.4897  -29.8009 H   0  0  0  0  0  0  0  0  0  0  0  0
   -3.6663   20.6183  -30.0903 H   0  0  0  0  0  0  0  0  0  0  0  0
   -1.7458   21.7149  -28.9468 H   0  0  0  0  0  0  0  0  0  0  0  0
  1  2  1  0
  2  3  1  0
  3  4  1  0
  4  5  1  0
  5  6  2  0
  6  7  1  0
  7  8  2  0
  8  9  1  0
  9 10  1  0
 10 11  1  0
 11 12  1  0
 12 13  1  0
 13 14  1  0
 14 15  2  0
 15 16  1  0
 16 17  2  0
 17 18  1  0
 18 19  2  0
 12 20  1  0
 20 21  1  0
  8 22  1  0
 22 23  2  0
 23  5  1  0
 21  9  1  0
 19 14  1  0
  1 24  1  0
  1 25  1  0
  1 26  1  0
  2 27  1  0
  2 28  1  0
  3 29  1  0
  4 30  1  0
  4 31  1  0
  6 32  1  0
  7 33  1  0
 10 34  1  0
 10 35  1  0
 11 36  1  0
 11 37  1  0
 13 38  1  0
 13 39  1  0
 15 40  1  0
 16 41  1  0
 17 42  1  0
 18 43  1  0
 19 44  1  0
 20 45  1  0
 20 46  1  0
 21 47  1  0
 21 48  1  0
 22 49  1  0
 23 50  1  0
M  END
>  <UniqueID>  (40) 
39

>  <SMILES>  (40) 
CCNCc1ccc(N2CCN(Cc3ccccc3)CC2)cc1

>  <Energy>  (40) 
57.783136339939915

>  <Genealogy>  (40) 
CCNCc1ccc(N2CCN(Cc3ccccc3)CC2)cc1 (3D coordinates assigned)
CCNCc1ccc(N2CCN(Cc3ccccc3)CC2)cc1 (nonaromatic ring conformer: 57.783136339939915 kcal/mol)

>  <smiles>  (40) 
CCNCc1ccc(N2CCN(Cc3ccccc3)CC2)cc1

>  <score_type>  (40) 
oracle

>  <origin>  (40) 
adg

>  <m_score__min__energy>  (40) 
-7.8499999999999996

>  <m_primary>  (40) 
energy

$$$$
40:0
     RDKit          3D

 47 50  0  0  0  0  0  0  0  0999 V2000
   -5.3350   25.7190  -30.5560 C   0  0  0  0  0  0  0  0  0  0  0  0
   -4.6230   24.4370  -30.6970 N   0  0  0  0  0  0  0  0  0  0  0  0
   -3.4550   24.4290  -29.8010 C   0  0  0  0  0  0  0  0  0  0  0  0
   -5.5050   23.2920  -30.3790 C   0  0  0  0  0  0  0  0  0  0  0  0
   -6.7110   23.1960  -31.3350 C   0  0  0  0  0  0  0  0  0  0  0  0
   -6.3420   22.7840  -32.7030 N   0  0  0  0  0  0  0  0  0  0  0  0
   -5.9970   21.3740  -32.7640 C   0  0  0  0  0  0  0  0  0  0  0  0
   -6.9210   20.3090  -32.5340 C   0  0  0  0  0  0  0  0  0  0  0  0
   -8.2580   20.5460  -32.1360 C   0  0  0  0  0  0  0  0  0  0  0  0
   -9.1300   19.4920  -31.8800 C   0  0  0  0  0  0  0  0  0  0  0  0
   -8.6950   18.1780  -31.9880 C   0  0  0  0  0  0  0  0  0  0  0  0
   -7.3880   17.9020  -32.3810 C   0  0  0  0  0  0  0  0  0  0  0  0
   -6.4820   18.9430  -32.6960 C   0  0  0  0  0  0  0  0  0  0  0  0
   -5.1920   18.6640  -33.1280 N   0  0  0  0  0  0  0  0  0  0  0  0
   -4.7940   17.3180  -33.5740 C   0  0  0  0  0  0  0  0  0  0  0  0
   -4.3020   19.7000  -33.1970 C   0  0  0  0  0  0  0  0  0  0  0  0
   -4.6840   21.0130  -33.0580 C   0  0  0  0  0  0  0  0  0  0  0  0
   -3.6640   21.8280  -33.2300 O   0  0  0  0  0  0  0  0  0  0  0  0
   -2.6080   21.0790  -33.4540 C   0  0  0  0  0  0  0  0  0  0  0  0
   -1.3030   21.5190  -33.6630 C   0  0  0  0  0  0  0  0  0  0  0  0
   -0.2990   20.5520  -33.8270 C   0  0  0  0  0  0  0  0  0  0  0  0
   -0.6120   19.1780  -33.7640 C   0  0  0  0  0  0  0  0  0  0  0  0
   -1.9370   18.7550  -33.5540 C   0  0  0  0  0  0  0  0  0  0  0  0
   -2.9300   19.7360  -33.4350 C   0  0  0  0  0  0  0  0  0  0  0  0
   -5.4640   25.9513  -29.4886 H   0  0  0  0  0  0  0  0  0  0  0  0
   -4.7511   26.5175  -31.0371 H   0  0  0  0  0  0  0  0  0  0  0  0
   -6.3215   25.6454  -31.0371 H   0  0  0  0  0  0  0  0  0  0  0  0
   -3.7953   24.4313  -28.7550 H   0  0  0  0  0  0  0  0  0  0  0  0
   -2.8546   23.5267  -29.9893 H   0  0  0  0  0  0  0  0  0  0  0  0
   -2.8423   25.3230  -29.9893 H   0  0  0  0  0  0  0  0  0  0  0  0
   -4.9197   22.3637  -30.4542 H   0  0  0  0  0  0  0  0  0  0  0  0
   -5.8947   23.4413  -29.3612 H   0  0  0  0  0  0  0  0  0  0  0  0
   -7.4206   22.4603  -30.9286 H   0  0  0  0  0  0  0  0  0  0  0  0
   -7.1506   24.2019  -31.4058 H   0  0  0  0  0  0  0  0  0  0  0  0
   -5.6100   23.4130  -33.0930 H   0  0  0  0  0  0  0  0  0  0  0  0
   -7.1760   22.9400  -33.3150 H   0  0  0  0  0  0  0  0  0  0  0  0
   -8.6142   21.5810  -32.0271 H   0  0  0  0  0  0  0  0  0  0  0  0
  -10.1703   19.7013  -31.5903 H   0  0  0  0  0  0  0  0  0  0  0  0
   -9.3854   17.3519  -31.7623 H   0  0  0  0  0  0  0  0  0  0  0  0
   -7.0535   16.8562  -32.4479 H   0  0  0  0  0  0  0  0  0  0  0  0
   -4.6059   16.6817  -32.6966 H   0  0  0  0  0  0  0  0  0  0  0  0
   -5.6007   16.8788  -34.1792 H   0  0  0  0  0  0  0  0  0  0  0  0
   -3.8782   17.3882  -34.1792 H   0  0  0  0  0  0  0  0  0  0  0  0
   -1.0663   22.5926  -33.6985 H   0  0  0  0  0  0  0  0  0  0  0  0
    0.7394   20.8679  -34.0059 H   0  0  0  0  0  0  0  0  0  0  0  0
    0.1870   18.4309  -33.8801 H   0  0  0  0  0  0  0  0  0  0  0  0
   -2.1860   17.6858  -33.4853 H   0  0  0  0  0  0  0  0  0  0  0  0
  1  2  1  0
  2  3  1  0
  2  4  1  0
  4  5  1  0
  5  6  1  0
  6  7  1  0
  7  8  2  0
  8  9  1  0
  9 10  2  0
 10 11  1  0
 11 12  2  0
 12 13  1  0
 13 14  2  0
 14 15  1  0
 14 16  1  0
 16 17  2  0
 17 18  1  0
 18 19  1  0
 19 20  2  0
 20 21  1  0
 21 22  2  0
 22 23  1  0
 23 24  2  0
 17  7  1  0
 24 19  1  0
 13  8  1  0
 24 16  1  0
  1 25  1  0
  1 26  1  0
  1 27  1  0
  3 28  1  0
  3 29  1  0
  3 30  1  0
  4 31  1  0
  4 32  1  0
  5 33  1  0
  5 34  1  0
  6 35  1  0
  6 36  1  0
  9 37  1  0
 10 38  1  0
 11 39  1  0
 12 40  1  0
 15 41  1  0
 15 42  1  0
 15 43  1  0
 20 44  1  0
 21 45  1  0
 22 46  1  0
 23 47  1  0
M  CHG  2   6   1  14   1
M  END
>  <UniqueID>  (41) 
40

>  <SMILES>  (41) 
CN(C)CC[NH2+]c1c2ccccc2[n+](C)c2c1oc1ccccc12

>  <Energy>  (41) 
111.48046090450418

>  <Genealogy>  (41) 
CN(C)CC[NH2+]c1c2ccccc2[n+](C)c2c1oc1ccccc12 (protonated)
CN(C)CC[NH2+]c1c2ccccc2[n+](C)c2c1oc1ccccc12 (3D coordinates assigned)
CN(C)CC[NH2+]c1c2ccccc2[n+](C)c2c1oc1ccccc12 (optimized conformer: 111.48046090450418 kcal/mol)

>  <smiles>  (41) 
CN(C)CCNc1c2ccccc2[n+](C)c2c1oc1ccccc12

>  <score_type>  (41) 
oracle

>  <origin>  (41) 
adg

>  <m_score__min__energy>  (41) 
-7.5300000000000002

>  <m_primary>  (41) 
energy

$$$$
