0:0
     RDKit          3D

 59 61  0  0  0  0  0  0  0  0999 V2000
   -2.1990   22.5220  -27.4830 C   0  0  0  0  0  0  0  0  0  0  0  0
   -3.5170   21.8760  -27.9050 C   0  0  0  0  0  0  0  0  0  0  0  0
   -4.5840   22.8960  -27.9930 N   0  0  0  0  0  0  0  0  0  0  0  0
   -4.0340   24.2360  -27.7240 C   0  0  0  0  0  0  0  0  0  0  0  0
   -5.2700   22.8660  -29.3060 C   0  0  0  0  0  0  0  0  0  0  0  0
   -5.0060   24.1820  -30.0520 C   0  0  0  0  0  0  0  0  0  0  0  0
   -4.0350   24.0240  -31.1450 N   0  0  0  0  0  0  0  0  0  0  0  0
   -3.1010   22.9110  -30.9250 C   0  0  0  0  0  0  0  0  0  0  0  0
   -3.4150   21.7360  -31.8760 C   0  0  0  0  0  0  0  0  0  0  0  0
   -4.4890   21.9530  -32.8870 N   0  0  0  0  0  0  0  0  0  0  0  0
   -5.6210   21.0350  -32.8530 C   0  0  0  0  0  0  0  0  0  0  0  0
   -6.8970   21.5150  -32.4480 C   0  0  0  0  0  0  0  0  0  0  0  0
   -7.1630   22.9020  -32.3120 C   0  0  0  0  0  0  0  0  0  0  0  0
   -8.4300   23.3630  -31.9660 C   0  0  0  0  0  0  0  0  0  0  0  0
   -9.4640   22.4630  -31.7570 C   0  0  0  0  0  0  0  0  0  0  0  0
   -9.2310   21.0950  -31.8670 C   0  0  0  0  0  0  0  0  0  0  0  0
   -7.9410   20.5930  -32.1810 C   0  0  0  0  0  0  0  0  0  0  0  0
   -7.6960   19.2390  -32.2280 N   0  0  0  0  0  0  0  0  0  0  0  0
   -8.6470   18.2980  -31.5950 C   0  0  0  0  0  0  0  0  0  0  0  0
   -6.5600   18.7640  -32.8500 C   0  0  0  0  0  0  0  0  0  0  0  0
   -6.4560   17.3960  -33.2000 C   0  0  0  0  0  0  0  0  0  0  0  0
   -5.3100   16.8850  -33.7860 C   0  0  0  0  0  0  0  0  0  0  0  0
   -4.2500   17.7200  -34.0810 C   0  0  0  0  0  0  0  0  0  0  0  0
   -4.3190   19.0990  -33.8150 C   0  0  0  0  0  0  0  0  0  0  0  0
   -3.2650   19.9290  -34.2300 O   0  0  0  0  0  0  0  0  0  0  0  0
   -1.8770   19.6270  -34.1240 C   0  0  0  0  0  0  0  0  0  0  0  0
   -5.4780   19.6450  -33.1700 C   0  0  0  0  0  0  0  0  0  0  0  0
   -2.1399   22.5510  -26.3850 H   0  0  0  0  0  0  0  0  0  0  0  0
   -1.3586   21.9337  -27.8800 H   0  0  0  0  0  0  0  0  0  0  0  0
   -2.1492   23.5466  -27.8800 H   0  0  0  0  0  0  0  0  0  0  0  0
   -3.3890   21.3992  -28.8880 H   0  0  0  0  0  0  0  0  0  0  0  0
   -3.8026   21.1235  -27.1552 H   0  0  0  0  0  0  0  0  0  0  0  0
   -3.9690   24.3943  -26.6374 H   0  0  0  0  0  0  0  0  0  0  0  0
   -3.0303   24.3161  -28.1669 H   0  0  0  0  0  0  0  0  0  0  0  0
   -4.6920   24.9981  -28.1669 H   0  0  0  0  0  0  0  0  0  0  0  0
   -4.8864   22.0240  -29.9009 H   0  0  0  0  0  0  0  0  0  0  0  0
   -6.3521   22.7430  -29.1514 H   0  0  0  0  0  0  0  0  0  0  0  0
   -5.9550   24.5456  -30.4729 H   0  0  0  0  0  0  0  0  0  0  0  0
   -4.5839   24.8968  -29.3303 H   0  0  0  0  0  0  0  0  0  0  0  0
   -3.4980   24.9150  -31.2690 H   0  0  0  0  0  0  0  0  0  0  0  0
   -2.0743   23.2599  -31.1096 H   0  0  0  0  0  0  0  0  0  0  0  0
   -3.2060   22.5624  -29.8870 H   0  0  0  0  0  0  0  0  0  0  0  0
   -2.4905   21.4935  -32.4206 H   0  0  0  0  0  0  0  0  0  0  0  0
   -3.7930   20.9341  -31.2248 H   0  0  0  0  0  0  0  0  0  0  0  0
   -4.8220   22.9410  -32.8590 H   0  0  0  0  0  0  0  0  0  0  0  0
   -4.0630   21.9360  -33.8410 H   0  0  0  0  0  0  0  0  0  0  0  0
   -6.3531   23.6264  -32.4831 H   0  0  0  0  0  0  0  0  0  0  0  0
   -8.6112   24.4426  -31.8582 H   0  0  0  0  0  0  0  0  0  0  0  0
  -10.4695   22.8305  -31.5040 H   0  0  0  0  0  0  0  0  0  0  0  0
  -10.0610   20.3909  -31.7078 H   0  0  0  0  0  0  0  0  0  0  0  0
   -8.5673   18.3769  -30.5007 H   0  0  0  0  0  0  0  0  0  0  0  0
   -9.6720   18.5473  -31.9069 H   0  0  0  0  0  0  0  0  0  0  0  0
   -8.4085   17.2705  -31.9069 H   0  0  0  0  0  0  0  0  0  0  0  0
   -7.3043   16.7242  -33.0021 H   0  0  0  0  0  0  0  0  0  0  0  0
   -5.2437   15.8116  -34.0171 H   0  0  0  0  0  0  0  0  0  0  0  0
   -3.3383   17.2999  -34.5307 H   0  0  0  0  0  0  0  0  0  0  0  0
   -1.5951   19.5657  -33.0625 H   0  0  0  0  0  0  0  0  0  0  0  0
   -1.6730   18.6634  -34.6138 H   0  0  0  0  0  0  0  0  0  0  0  0
   -1.2911   20.4187  -34.6138 H   0  0  0  0  0  0  0  0  0  0  0  0
  1  2  1  0
  2  3  1  0
  3  4  1  0
  3  5  1  0
  5  6  1  0
  6  7  1  0
  7  8  1  0
  8  9  1  0
  9 10  1  0
 10 11  1  0
 11 12  2  0
 12 13  1  0
 13 14  2  0
 14 15  1  0
 15 16  2  0
 16 17  1  0
 17 18  2  0
 18 19  1  0
 18 20  1  0
 20 21  2  0
 21 22  1  0
 22 23  2  0
 23 24  1  0
 24 25  1  0
 25 26  1  0
 24 27  2  0
 27 11  1  0
 17 12  1  0
 27 20  1  0
  1 28  1  0
  1 29  1  0
  1 30  1  0
  2 31  1  0
  2 32  1  0
  4 33  1  0
  4 34  1  0
  4 35  1  0
  5 36  1  0
  5 37  1  0
  6 38  1  0
  6 39  1  0
  7 40  1  0
  8 41  1  0
  8 42  1  0
  9 43  1  0
  9 44  1  0
 10 45  1  0
 10 46  1  0
 13 47  1  0
 14 48  1  0
 15 49  1  0
 16 50  1  0
 19 51  1  0
 19 52  1  0
 19 53  1  0
 21 54  1  0
 22 55  1  0
 23 56  1  0
 26 57  1  0
 26 58  1  0
 26 59  1  0
M  CHG  2  10   1  18   1
M  END
>  <UniqueID>  (1) 
1

>  <SMILES>  (1) 
CCN(C)CCNCC[NH2+]c1c2ccccc2[n+](C)c2cccc(OC)c12

>  <Energy>  (1) 
96.47753253646

>  <Genealogy>  (1) 
CCN(C)CCNCC[NH2+]c1c2ccccc2[n+](C)c2cccc(OC)c12 (protonated)
CCN(C)CCNCC[NH2+]c1c2ccccc2[n+](C)c2cccc(OC)c12 (3D coordinates assigned)
CCN(C)CCNCC[NH2+]c1c2ccccc2[n+](C)c2cccc(OC)c12 (optimized conformer: 96.47753253646 kcal/mol)

>  <smiles>  (1) 
CCN(C)CCNCCNc1c2ccccc2[n+](C)c2cccc(OC)c12

>  <score_type>  (1) 
oracle

>  <origin>  (1) 
adg

>  <m_score__min__energy>  (1) 
-8.0299999999999994

>  <m_primary>  (1) 
energy

$$$$
1:0
     RDKit          3D

 56 59  0  0  0  0  0  0  0  0999 V2000
   -4.1610   23.8410  -28.4610 C   0  0  0  0  0  0  0  0  0  0  0  0
   -4.3920   24.7740  -29.6400 C   0  0  0  0  0  0  0  0  0  0  0  0
   -4.0540   24.1010  -30.8370 O   0  0  0  0  0  0  0  0  0  0  0  0
   -3.1030   23.0860  -30.5780 C   0  0  0  0  0  0  0  0  0  0  0  0
   -3.3230   21.9090  -31.4810 C   0  0  0  0  0  0  0  0  0  0  0  0
   -2.9450   21.8250  -32.8130 C   0  0  0  0  0  0  0  0  0  0  0  0
   -3.3020   20.6110  -33.4130 C   0  0  0  0  0  0  0  0  0  0  0  0
   -3.9420   19.7340  -32.5420 C   0  0  0  0  0  0  0  0  0  0  0  0
   -4.4850   18.4010  -32.8640 C   0  0  0  0  0  0  0  0  0  0  0  0
   -3.6960   17.2990  -32.9190 N   0  0  0  0  0  0  0  0  0  0  0  0
   -4.5190   16.3140  -33.3050 C   0  0  0  0  0  0  0  0  0  0  0  0
   -4.1990   14.9840  -33.5630 C   0  0  0  0  0  0  0  0  0  0  0  0
   -5.2270   14.1410  -34.0210 C   0  0  0  0  0  0  0  0  0  0  0  0
   -6.5320   14.6490  -34.2160 C   0  0  0  0  0  0  0  0  0  0  0  0
   -6.8200   16.0010  -33.9540 C   0  0  0  0  0  0  0  0  0  0  0  0
   -5.7790   16.8100  -33.4870 C   0  0  0  0  0  0  0  0  0  0  0  0
   -5.7780   18.1360  -33.2210 N   0  0  0  0  0  0  0  0  0  0  0  0
   -6.8670   19.0890  -33.4770 C   0  0  0  0  0  0  0  0  0  0  0  0
   -8.0010   18.9590  -32.4450 C   0  0  0  0  0  0  0  0  0  0  0  0
   -8.5590   20.3160  -31.9750 C   0  0  0  0  0  0  0  0  0  0  0  0
   -7.5190   21.1540  -31.3360 N   0  0  0  0  0  0  0  0  0  0  0  0
   -8.0680   21.9590  -30.2170 C   0  0  0  0  0  0  0  0  0  0  0  0
   -7.1750   23.1670  -29.9060 C   0  0  0  0  0  0  0  0  0  0  0  0
   -7.0900   24.0910  -31.0520 N   0  0  0  0  0  0  0  0  0  0  0  0
   -7.2430   23.4300  -32.3620 C   0  0  0  0  0  0  0  0  0  0  0  0
   -6.7710   21.9690  -32.3300 C   0  0  0  0  0  0  0  0  0  0  0  0
   -4.1000   20.4840  -31.0440 S   0  0  0  0  0  0  0  0  0  0  0  0
   -4.2985   24.3964  -27.5215 H   0  0  0  0  0  0  0  0  0  0  0  0
   -4.8805   23.0101  -28.5045 H   0  0  0  0  0  0  0  0  0  0  0  0
   -3.1369   23.4418  -28.5045 H   0  0  0  0  0  0  0  0  0  0  0  0
   -5.4503   25.0723  -29.6716 H   0  0  0  0  0  0  0  0  0  0  0  0
   -3.7654   25.6714  -29.5302 H   0  0  0  0  0  0  0  0  0  0  0  0
   -2.0926   23.4866  -30.7469 H   0  0  0  0  0  0  0  0  0  0  0  0
   -3.2138   22.7561  -29.5345 H   0  0  0  0  0  0  0  0  0  0  0  0
   -2.4178   22.6309  -33.3446 H   0  0  0  0  0  0  0  0  0  0  0  0
   -3.0971   20.3741  -34.4675 H   0  0  0  0  0  0  0  0  0  0  0  0
   -2.6710   17.2340  -32.7270 H   0  0  0  0  0  0  0  0  0  0  0  0
   -3.1770   14.6055  -33.4137 H   0  0  0  0  0  0  0  0  0  0  0  0
   -5.0150   13.0817  -34.2285 H   0  0  0  0  0  0  0  0  0  0  0  0
   -7.3289   13.9815  -34.5756 H   0  0  0  0  0  0  0  0  0  0  0  0
   -7.8298   16.4080  -34.1111 H   0  0  0  0  0  0  0  0  0  0  0  0
   -6.4623   20.1109  -33.4332 H   0  0  0  0  0  0  0  0  0  0  0  0
   -7.2847   18.8688  -34.4705 H   0  0  0  0  0  0  0  0  0  0  0  0
   -8.8210   18.3830  -32.8987 H   0  0  0  0  0  0  0  0  0  0  0  0
   -7.5799   18.4573  -31.5612 H   0  0  0  0  0  0  0  0  0  0  0  0
   -8.9630   20.8541  -32.8452 H   0  0  0  0  0  0  0  0  0  0  0  0
   -9.3426   20.1200  -31.2282 H   0  0  0  0  0  0  0  0  0  0  0  0
   -9.0712   22.3168  -30.4920 H   0  0  0  0  0  0  0  0  0  0  0  0
   -8.1128   21.3218  -29.3215 H   0  0  0  0  0  0  0  0  0  0  0  0
   -7.5927   23.7065  -29.0432 H   0  0  0  0  0  0  0  0  0  0  0  0
   -6.1622   22.7978  -29.6870 H   0  0  0  0  0  0  0  0  0  0  0  0
   -6.1530   24.5570  -31.0220 H   0  0  0  0  0  0  0  0  0  0  0  0
   -8.3045   23.4537  -32.6495 H   0  0  0  0  0  0  0  0  0  0  0  0
   -6.6205   23.9714  -33.0896 H   0  0  0  0  0  0  0  0  0  0  0  0
   -6.9151   21.5291  -33.3279 H   0  0  0  0  0  0  0  0  0  0  0  0
   -5.7106   21.9651  -32.0375 H   0  0  0  0  0  0  0  0  0  0  0  0
  1  2  1  0
  2  3  1  0
  3  4  1  0
  4  5  1  0
  5  6  2  0
  6  7  1  0
  7  8  2  0
  8  9  1  0
  9 10  2  0
 10 11  1  0
 11 12  2  0
 12 13  1  0
 13 14  2  0
 14 15  1  0
 15 16  2  0
 16 17  1  0
 17 18  1  0
 18 19  1  0
 19 20  1  0
 20 21  1  0
 21 22  1  0
 22 23  1  0
 23 24  1  0
 24 25  1  0
 25 26  1  0
  8 27  1  0
 27  5  1  0
 17  9  1  0
 26 21  1  0
 16 11  1  0
  1 28  1  0
  1 29  1  0
  1 30  1  0
  2 31  1  0
  2 32  1  0
  4 33  1  0
  4 34  1  0
  6 35  1  0
  7 36  1  0
 10 37  1  0
 12 38  1  0
 13 39  1  0
 14 40  1  0
 15 41  1  0
 18 42  1  0
 18 43  1  0
 19 44  1  0
 19 45  1  0
 20 46  1  0
 20 47  1  0
 22 48  1  0
 22 49  1  0
 23 50  1  0
 23 51  1  0
 24 52  1  0
 25 53  1  0
 25 54  1  0
 26 55  1  0
 26 56  1  0
M  CHG  1  10   1
M  END
>  <UniqueID>  (2) 
2

>  <SMILES>  (2) 
CCOCc1ccc(-c2[nH+]c3ccccc3n2CCCN2CCNCC2)s1

>  <Energy>  (2) 
129.79160097147656

>  <Genealogy>  (2) 
CCOCc1ccc(-c2[nH+]c3ccccc3n2CCCN2CCNCC2)s1 (protonated)
CCOCc1ccc(-c2[nH+]c3ccccc3n2CCCN2CCNCC2)s1 (3D coordinates assigned)
CCOCc1ccc(-c2[nH+]c3ccccc3n2CCCN2CCNCC2)s1 (nonaromatic ring conformer: 129.79160097147656 kcal/mol)

>  <smiles>  (2) 
CCOCc1ccc(-c2nc3ccccc3n2CCCN2CCNCC2)s1

>  <score_type>  (2) 
oracle

>  <origin>  (2) 
adg

>  <m_score__min__energy>  (2) 
-8.0600000000000005

>  <m_primary>  (2) 
energy

$$$$
2:0
     RDKit          3D

 56 59  0  0  0  0  0  0  0  0999 V2000
   -4.9920   15.5320  -32.0260 C   0  0  0  0  0  0  0  0  0  0  0  0
   -4.0330   14.3870  -32.3310 C   0  0  0  0  0  0  0  0  0  0  0  0
   -2.8180   14.8990  -32.9820 N   0  0  0  0  0  0  0  0  0  0  0  0
   -2.4790   14.1240  -34.1830 C   0  0  0  0  0  0  0  0  0  0  0  0
   -3.4660   14.4360  -35.3150 C   0  0  0  0  0  0  0  0  0  0  0  0
   -3.0870   15.7050  -36.0950 C   0  0  0  0  0  0  0  0  0  0  0  0
   -2.7900   16.7940  -35.2220 O   0  0  0  0  0  0  0  0  0  0  0  0
   -3.7300   17.6640  -34.6490 C   0  0  0  0  0  0  0  0  0  0  0  0
   -5.1160   17.3740  -34.6080 C   0  0  0  0  0  0  0  0  0  0  0  0
   -6.0210   18.2680  -34.0130 C   0  0  0  0  0  0  0  0  0  0  0  0
   -5.5400   19.4770  -33.4830 C   0  0  0  0  0  0  0  0  0  0  0  0
   -4.1780   19.7370  -33.5090 C   0  0  0  0  0  0  0  0  0  0  0  0
   -3.2630   18.8610  -34.0880 C   0  0  0  0  0  0  0  0  0  0  0  0
   -3.9160   20.9760  -32.8040 C   0  0  0  0  0  0  0  0  0  0  0  0
   -2.7820   21.4960  -32.6340 O   0  0  0  0  0  0  0  0  0  0  0  0
   -5.2070   21.4810  -32.3330 C   0  0  0  0  0  0  0  0  0  0  0  0
   -6.2000   20.6030  -32.7590 C   0  0  0  0  0  0  0  0  0  0  0  0
   -7.5310   20.8580  -32.5180 N   0  0  0  0  0  0  0  0  0  0  0  0
   -8.6010   20.0060  -33.0640 C   0  0  0  0  0  0  0  0  0  0  0  0
   -9.0870   19.0080  -32.0120 C   0  0  0  0  0  0  0  0  0  0  0  0
   -8.3240   17.8240  -32.1110 O   0  0  0  0  0  0  0  0  0  0  0  0
   -7.2440   17.8880  -31.2070 C   0  0  0  0  0  0  0  0  0  0  0  0
   -7.8730   21.9500  -31.7450 C   0  0  0  0  0  0  0  0  0  0  0  0
   -9.0850   22.1630  -31.4550 O   0  0  0  0  0  0  0  0  0  0  0  0
   -6.8830   22.8460  -31.2670 C   0  0  0  0  0  0  0  0  0  0  0  0
   -7.2320   23.9710  -30.4920 C   0  0  0  0  0  0  0  0  0  0  0  0
   -6.2490   24.8530  -30.0390 C   0  0  0  0  0  0  0  0  0  0  0  0
   -6.5980   25.9320  -29.2960 F   0  0  0  0  0  0  0  0  0  0  0  0
   -4.9090   24.6270  -30.3520 C   0  0  0  0  0  0  0  0  0  0  0  0
   -4.5410   23.5180  -31.1150 C   0  0  0  0  0  0  0  0  0  0  0  0
   -5.5200   22.6190  -31.5780 C   0  0  0  0  0  0  0  0  0  0  0  0
   -5.0894   15.6483  -30.9365 H   0  0  0  0  0  0  0  0  0  0  0  0
   -4.6008   16.4636  -32.4607 H   0  0  0  0  0  0  0  0  0  0  0  0
   -5.9778   15.3103  -32.4607 H   0  0  0  0  0  0  0  0  0  0  0  0
   -3.7574   13.8845  -31.3921 H   0  0  0  0  0  0  0  0  0  0  0  0
   -4.5288   13.6754  -33.0076 H   0  0  0  0  0  0  0  0  0  0  0  0
   -3.0030   15.8850  -33.2810 H   0  0  0  0  0  0  0  0  0  0  0  0
   -1.4608   14.3846  -34.5074 H   0  0  0  0  0  0  0  0  0  0  0  0
   -2.5360   13.0517  -33.9444 H   0  0  0  0  0  0  0  0  0  0  0  0
   -3.4829   13.5855  -36.0123 H   0  0  0  0  0  0  0  0  0  0  0  0
   -4.4528   14.6064  -34.8598 H   0  0  0  0  0  0  0  0  0  0  0  0
   -2.2022   15.4923  -36.7129 H   0  0  0  0  0  0  0  0  0  0  0  0
   -3.9456   15.9918  -36.7200 H   0  0  0  0  0  0  0  0  0  0  0  0
   -5.4880   16.4369  -35.0477 H   0  0  0  0  0  0  0  0  0  0  0  0
   -7.0926   18.0248  -33.9626 H   0  0  0  0  0  0  0  0  0  0  0  0
   -2.1904   19.1046  -34.1049 H   0  0  0  0  0  0  0  0  0  0  0  0
   -9.4436   20.6403  -33.3765 H   0  0  0  0  0  0  0  0  0  0  0  0
   -8.2040   19.4476  -33.9246 H   0  0  0  0  0  0  0  0  0  0  0  0
   -8.9651   19.4419  -31.0086 H   0  0  0  0  0  0  0  0  0  0  0  0
  -10.1496   18.7793  -32.1811 H   0  0  0  0  0  0  0  0  0  0  0  0
   -7.6269   17.8653  -30.1761 H   0  0  0  0  0  0  0  0  0  0  0  0
   -6.5781   17.0277  -31.3698 H   0  0  0  0  0  0  0  0  0  0  0  0
   -6.6843   18.8209  -31.3698 H   0  0  0  0  0  0  0  0  0  0  0  0
   -8.2873   24.1553  -30.2422 H   0  0  0  0  0  0  0  0  0  0  0  0
   -4.1383   25.3263  -29.9957 H   0  0  0  0  0  0  0  0  0  0  0  0
   -3.4815   23.3458  -31.3555 H   0  0  0  0  0  0  0  0  0  0  0  0
  1  2  1  0
  2  3  1  0
  3  4  1  0
  4  5  1  0
  5  6  1  0
  6  7  1  0
  7  8  1  0
  8  9  2  0
  9 10  1  0
 10 11  2  0
 11 12  1  0
 12 13  2  0
 12 14  1  0
 14 15  2  0
 14 16  1  0
 16 17  2  0
 17 18  1  0
 18 19  1  0
 19 20  1  0
 20 21  1  0
 21 22  1  0
 18 23  1  0
 23 24  2  0
 23 25  1  0
 25 26  2  0
 26 27  1  0
 27 28  1  0
 27 29  2  0
 29 30  1  0
 30 31  2  0
 13  8  1  0
 31 16  1  0
 17 11  1  0
 31 25  1  0
  1 32  1  0
  1 33  1  0
  1 34  1  0
  2 35  1  0
  2 36  1  0
  3 37  1  0
  4 38  1  0
  4 39  1  0
  5 40  1  0
  5 41  1  0
  6 42  1  0
  6 43  1  0
  9 44  1  0
 10 45  1  0
 13 46  1  0
 19 47  1  0
 19 48  1  0
 20 49  1  0
 20 50  1  0
 22 51  1  0
 22 52  1  0
 22 53  1  0
 26 54  1  0
 29 55  1  0
 30 56  1  0
M  END
>  <UniqueID>  (3) 
3

>  <SMILES>  (3) 
CCNCCCOc1ccc2c(c1)C(=O)c1c-2n(CCOC)c(=O)c2cc(F)ccc12

>  <Energy>  (3) 
99.40254398891

>  <Genealogy>  (3) 
CCNCCCOc1ccc2c(c1)C(=O)c1c-2n(CCOC)c(=O)c2cc(F)ccc12 (3D coordinates assigned)
CCNCCCOc1ccc2c(c1)C(=O)c1c-2n(CCOC)c(=O)c2cc(F)ccc12 (nonaromatic ring conformer: 99.40254398891 kcal/mol)

>  <smiles>  (3) 
CCNCCCOc1ccc2c(c1)C(=O)c1c-2n(CCOC)c(=O)c2cc(F)ccc12

>  <score_type>  (3) 
oracle

>  <origin>  (3) 
adg

>  <m_score__min__energy>  (3) 
-8.6699999999999999

>  <m_primary>  (3) 
energy

$$$$
3:0
     RDKit          3D

 55 57  0  0  0  0  0  0  0  0999 V2000
   -0.8580   22.7710  -28.4100 C   0  0  0  0  0  0  0  0  0  0  0  0
   -0.8750   23.9970  -29.3220 C   0  0  0  0  0  0  0  0  0  0  0  0
   -1.8800   24.9960  -28.8940 N   0  0  0  0  0  0  0  0  0  0  0  0
   -1.4470   25.6790  -27.6640 C   0  0  0  0  0  0  0  0  0  0  0  0
   -3.2780   24.5020  -28.8170 C   0  0  0  0  0  0  0  0  0  0  0  0
   -3.7820   23.7410  -30.0580 C   0  0  0  0  0  0  0  0  0  0  0  0
   -4.2660   24.6500  -31.0240 O   0  0  0  0  0  0  0  0  0  0  0  0
   -5.4660   25.2590  -30.5850 C   0  0  0  0  0  0  0  0  0  0  0  0
   -6.6690   24.4140  -30.9950 C   0  0  0  0  0  0  0  0  0  0  0  0
   -6.2570   23.0710  -31.1540 O   0  0  0  0  0  0  0  0  0  0  0  0
   -5.8080   22.8660  -32.4360 N   0  0  0  0  0  0  0  0  0  0  0  0
   -5.7020   21.4410  -32.7090 C   0  0  0  0  0  0  0  0  0  0  0  0
   -6.8450   20.6090  -32.5730 C   0  0  0  0  0  0  0  0  0  0  0  0
   -8.0650   21.1070  -32.0540 C   0  0  0  0  0  0  0  0  0  0  0  0
   -9.1660   20.2730  -31.8810 C   0  0  0  0  0  0  0  0  0  0  0  0
   -9.0790   18.9270  -32.2090 C   0  0  0  0  0  0  0  0  0  0  0  0
   -7.8980   18.4130  -32.7370 C   0  0  0  0  0  0  0  0  0  0  0  0
   -6.7700   19.2440  -32.9620 C   0  0  0  0  0  0  0  0  0  0  0  0
   -5.6190   18.7470  -33.5340 N   0  0  0  0  0  0  0  0  0  0  0  0
   -5.6470   17.4480  -34.2430 C   0  0  0  0  0  0  0  0  0  0  0  0
   -4.4450   19.4690  -33.4650 C   0  0  0  0  0  0  0  0  0  0  0  0
   -3.1960   18.8640  -33.7520 C   0  0  0  0  0  0  0  0  0  0  0  0
   -2.0140   19.5980  -33.7280 C   0  0  0  0  0  0  0  0  0  0  0  0
   -2.0410   20.9440  -33.4000 C   0  0  0  0  0  0  0  0  0  0  0  0
   -3.2440   21.5620  -33.0740 C   0  0  0  0  0  0  0  0  0  0  0  0
   -4.4670   20.8420  -33.0820 C   0  0  0  0  0  0  0  0  0  0  0  0
   -0.8625   23.0957  -27.3590 H   0  0  0  0  0  0  0  0  0  0  0  0
   -1.7477   22.1549  -28.6072 H   0  0  0  0  0  0  0  0  0  0  0  0
    0.0484   22.1798  -28.6072 H   0  0  0  0  0  0  0  0  0  0  0  0
    0.1201   24.4654  -29.3050 H   0  0  0  0  0  0  0  0  0  0  0  0
   -1.1413   23.6616  -30.3352 H   0  0  0  0  0  0  0  0  0  0  0  0
   -1.8031   25.1172  -26.7879 H   0  0  0  0  0  0  0  0  0  0  0  0
   -0.3486   25.7342  -27.6425 H   0  0  0  0  0  0  0  0  0  0  0  0
   -1.8657   26.6960  -27.6425 H   0  0  0  0  0  0  0  0  0  0  0  0
   -3.3515   23.8263  -27.9521 H   0  0  0  0  0  0  0  0  0  0  0  0
   -3.9107   25.3980  -28.7347 H   0  0  0  0  0  0  0  0  0  0  0  0
   -2.9536   23.1596  -30.4890 H   0  0  0  0  0  0  0  0  0  0  0  0
   -4.5981   23.0668  -29.7588 H   0  0  0  0  0  0  0  0  0  0  0  0
   -5.4453   25.3535  -29.4893 H   0  0  0  0  0  0  0  0  0  0  0  0
   -5.5527   26.2534  -31.0472 H   0  0  0  0  0  0  0  0  0  0  0  0
   -7.4431   24.4722  -30.2156 H   0  0  0  0  0  0  0  0  0  0  0  0
   -7.0811   24.7904  -31.9429 H   0  0  0  0  0  0  0  0  0  0  0  0
   -6.5260   23.2670  -33.0790 H   0  0  0  0  0  0  0  0  0  0  0  0
   -4.9610   23.4290  -32.6720 H   0  0  0  0  0  0  0  0  0  0  0  0
   -8.1438   22.1702  -31.7832 H   0  0  0  0  0  0  0  0  0  0  0  0
  -10.1069   20.6814  -31.4836 H   0  0  0  0  0  0  0  0  0  0  0  0
   -9.9440   18.2660  -32.0516 H   0  0  0  0  0  0  0  0  0  0  0  0
   -7.8381   17.3429  -32.9844 H   0  0  0  0  0  0  0  0  0  0  0  0
   -5.6646   16.6296  -33.5083 H   0  0  0  0  0  0  0  0  0  0  0  0
   -6.5465   17.3939  -34.8738 H   0  0  0  0  0  0  0  0  0  0  0  0
   -4.7506   17.3552  -34.8738 H   0  0  0  0  0  0  0  0  0  0  0  0
   -3.1602   17.7926  -33.9987 H   0  0  0  0  0  0  0  0  0  0  0  0
   -1.0583   19.1097  -33.9694 H   0  0  0  0  0  0  0  0  0  0  0  0
   -1.1077   21.5261  -33.3974 H   0  0  0  0  0  0  0  0  0  0  0  0
   -3.2473   22.6286  -32.8050 H   0  0  0  0  0  0  0  0  0  0  0  0
  1  2  1  0
  2  3  1  0
  3  4  1  0
  3  5  1  0
  5  6  1  0
  6  7  1  0
  7  8  1  0
  8  9  1  0
  9 10  1  0
 10 11  1  0
 11 12  1  0
 12 13  2  0
 13 14  1  0
 14 15  2  0
 15 16  1  0
 16 17  2  0
 17 18  1  0
 18 19  2  0
 19 20  1  0
 19 21  1  0
 21 22  2  0
 22 23  1  0
 23 24  2  0
 24 25  1  0
 25 26  2  0
 26 12  1  0
 18 13  1  0
 26 21  1  0
  1 27  1  0
  1 28  1  0
  1 29  1  0
  2 30  1  0
  2 31  1  0
  4 32  1  0
  4 33  1  0
  4 34  1  0
  5 35  1  0
  5 36  1  0
  6 37  1  0
  6 38  1  0
  8 39  1  0
  8 40  1  0
  9 41  1  0
  9 42  1  0
 11 43  1  0
 11 44  1  0
 14 45  1  0
 15 46  1  0
 16 47  1  0
 17 48  1  0
 20 49  1  0
 20 50  1  0
 20 51  1  0
 22 52  1  0
 23 53  1  0
 24 54  1  0
 25 55  1  0
M  CHG  2  11   1  19   1
M  END
>  <UniqueID>  (4) 
4

>  <SMILES>  (4) 
CCN(C)CCOCCO[NH2+]c1c2ccccc2[n+](C)c2ccccc12

>  <Energy>  (4) 
91.74293009353056

>  <Genealogy>  (4) 
CCN(C)CCOCCO[NH2+]c1c2ccccc2[n+](C)c2ccccc12 (protonated)
CCN(C)CCOCCO[NH2+]c1c2ccccc2[n+](C)c2ccccc12 (3D coordinates assigned)
CCN(C)CCOCCO[NH2+]c1c2ccccc2[n+](C)c2ccccc12 (optimized conformer: 91.74293009353056 kcal/mol)

>  <smiles>  (4) 
CCN(C)CCOCCONc1c2ccccc2[n+](C)c2ccccc12

>  <score_type>  (4) 
oracle

>  <origin>  (4) 
adg

>  <m_score__min__energy>  (4) 
-7.8899999999999997

>  <m_primary>  (4) 
energy

$$$$
4:0
     RDKit          3D

 45 46  0  0  0  0  0  0  0  0999 V2000
   -6.3310   18.6040  -33.1750 C   0  0  0  0  0  0  0  0  0  0  0  0
   -7.5570   18.9410  -32.3360 C   0  0  0  0  0  0  0  0  0  0  0  0
   -8.2060   20.1470  -32.8680 N   0  0  0  0  0  0  0  0  0  0  0  0
   -9.5100   20.4130  -32.2390 C   0  0  0  0  0  0  0  0  0  0  0  0
   -9.5170   21.6660  -31.3430 C   0  0  0  0  0  0  0  0  0  0  0  0
   -8.4350   22.9910  -32.0050 S   0  0  0  0  0  0  0  0  0  0  0  0
   -6.8960   22.2950  -31.4210 N   0  0  0  0  0  0  0  0  0  0  0  0
   -6.6640   22.6750  -29.9980 C   0  0  0  0  0  0  0  0  0  0  0  0
   -5.4310   23.5660  -29.7770 C   0  0  0  0  0  0  0  0  0  0  0  0
   -4.2630   22.9950  -30.4610 N   0  0  0  0  0  0  0  0  0  0  0  0
   -2.9360   23.1490  -29.9110 C   0  0  0  0  0  0  0  0  0  0  0  0
   -1.9530   22.1680  -30.1350 C   0  0  0  0  0  0  0  0  0  0  0  0
   -0.6640   22.3260  -29.6220 C   0  0  0  0  0  0  0  0  0  0  0  0
   -0.3380   23.4600  -28.8770 C   0  0  0  0  0  0  0  0  0  0  0  0
   -1.3080   24.4450  -28.6220 C   0  0  0  0  0  0  0  0  0  0  0  0
   -0.9410   25.6980  -27.8650 C   0  0  0  0  0  0  0  0  0  0  0  0
   -1.6540   25.7790  -26.6810 F   0  0  0  0  0  0  0  0  0  0  0  0
    0.4090   25.7060  -27.5580 F   0  0  0  0  0  0  0  0  0  0  0  0
   -1.2320   26.8020  -28.6440 F   0  0  0  0  0  0  0  0  0  0  0  0
   -2.5970   24.2930  -29.1630 C   0  0  0  0  0  0  0  0  0  0  0  0
   -4.4420   22.3900  -31.7870 C   0  0  0  0  0  0  0  0  0  0  0  0
   -5.8290   22.7230  -32.3470 C   0  0  0  0  0  0  0  0  0  0  0  0
   -5.4851   18.3715  -32.5113 H   0  0  0  0  0  0  0  0  0  0  0  0
   -6.5493   17.7326  -33.8098 H   0  0  0  0  0  0  0  0  0  0  0  0
   -6.0732   19.4646  -33.8098 H   0  0  0  0  0  0  0  0  0  0  0  0
   -8.2652   18.0999  -32.3694 H   0  0  0  0  0  0  0  0  0  0  0  0
   -7.2476   19.1229  -31.2962 H   0  0  0  0  0  0  0  0  0  0  0  0
   -8.3210   20.0480  -33.9040 H   0  0  0  0  0  0  0  0  0  0  0  0
  -10.2583   20.5493  -33.0336 H   0  0  0  0  0  0  0  0  0  0  0  0
   -9.7386   19.5525  -31.5930 H   0  0  0  0  0  0  0  0  0  0  0  0
  -10.5461   22.0486  -31.2756 H   0  0  0  0  0  0  0  0  0  0  0  0
   -9.1338   21.3777  -30.3530 H   0  0  0  0  0  0  0  0  0  0  0  0
   -6.9480   21.2510  -31.4830 H   0  0  0  0  0  0  0  0  0  0  0  0
   -7.5505   23.2169  -29.6367 H   0  0  0  0  0  0  0  0  0  0  0  0
   -6.4818   21.7406  -29.4469 H   0  0  0  0  0  0  0  0  0  0  0  0
   -5.6319   24.5703  -30.1782 H   0  0  0  0  0  0  0  0  0  0  0  0
   -5.2211   23.6272  -28.6990 H   0  0  0  0  0  0  0  0  0  0  0  0
   -2.2017   21.2695  -30.7188 H   0  0  0  0  0  0  0  0  0  0  0  0
    0.0974   21.5536  -29.8058 H   0  0  0  0  0  0  0  0  0  0  0  0
    0.6832   23.5838  -28.4873 H   0  0  0  0  0  0  0  0  0  0  0  0
   -3.3503   25.0778  -28.9998 H   0  0  0  0  0  0  0  0  0  0  0  0
   -3.6729   22.7804  -32.4697 H   0  0  0  0  0  0  0  0  0  0  0  0
   -4.3488   21.2978  -31.6948 H   0  0  0  0  0  0  0  0  0  0  0  0
   -5.9022   23.8097  -32.5010 H   0  0  0  0  0  0  0  0  0  0  0  0
   -5.9581   22.1866  -33.2986 H   0  0  0  0  0  0  0  0  0  0  0  0
  1  2  1  0
  2  3  1  0
  3  4  1  0
  4  5  1  0
  5  6  1  0
  6  7  1  0
  7  8  1  0
  8  9  1  0
  9 10  1  0
 10 11  1  0
 11 12  2  0
 12 13  1  0
 13 14  2  0
 14 15  1  0
 15 16  1  0
 16 17  1  0
 16 18  1  0
 16 19  1  0
 15 20  2  0
 10 21  1  0
 21 22  1  0
 22  7  1  0
 20 11  1  0
  1 23  1  0
  1 24  1  0
  1 25  1  0
  2 26  1  0
  2 27  1  0
  3 28  1  0
  4 29  1  0
  4 30  1  0
  5 31  1  0
  5 32  1  0
  7 33  1  0
  8 34  1  0
  8 35  1  0
  9 36  1  0
  9 37  1  0
 12 38  1  0
 13 39  1  0
 14 40  1  0
 20 41  1  0
 21 42  1  0
 21 43  1  0
 22 44  1  0
 22 45  1  0
M  CHG  1   7   1
M  END
>  <UniqueID>  (5) 
5

>  <SMILES>  (5) 
CCNCCS[NH+]1CCN(c2cccc(C(F)(F)F)c2)CC1

>  <Energy>  (5) 
48.78625974577674

>  <Genealogy>  (5) 
CCNCCS[NH+]1CCN(c2cccc(C(F)(F)F)c2)CC1 (protonated)
CCNCCS[NH+]1CCN(c2cccc(C(F)(F)F)c2)CC1 (3D coordinates assigned)
CCNCCS[NH+]1CCN(c2cccc(C(F)(F)F)c2)CC1 (nonaromatic ring conformer: 48.78625974577674 kcal/mol)

>  <smiles>  (5) 
CCNCCSN1CCN(c2cccc(C(F)(F)F)c2)CC1

>  <score_type>  (5) 
oracle

>  <origin>  (5) 
adg

>  <m_score__min__energy>  (5) 
-6.5999999999999996

>  <m_primary>  (5) 
energy

$$$$
5:0
     RDKit          3D

 52 55  0  0  0  0  0  0  0  0999 V2000
   -9.4840   20.7550  -31.9540 C   0  0  0  0  0  0  0  0  0  0  0  0
   -8.5860   21.9760  -31.7820 C   0  0  0  0  0  0  0  0  0  0  0  0
   -7.2560   21.7920  -32.5190 C   0  0  0  0  0  0  0  0  0  0  0  0
   -6.4330   22.9980  -32.4030 N   0  0  0  0  0  0  0  0  0  0  0  0
   -5.7200   23.3960  -31.2180 C   0  0  0  0  0  0  0  0  0  0  0  0
   -6.0590   24.5650  -30.4990 C   0  0  0  0  0  0  0  0  0  0  0  0
   -5.3540   24.9180  -29.3460 C   0  0  0  0  0  0  0  0  0  0  0  0
   -4.3050   24.1100  -28.8890 C   0  0  0  0  0  0  0  0  0  0  0  0
   -3.5830   24.4450  -27.7390 C   0  0  0  0  0  0  0  0  0  0  0  0
   -2.5210   23.6360  -27.3100 C   0  0  0  0  0  0  0  0  0  0  0  0
   -1.7200   24.0720  -26.1510 C   0  0  0  0  0  0  0  0  0  0  0  0
   -0.8580   23.3030  -25.3890 C   0  0  0  0  0  0  0  0  0  0  0  0
   -0.2980   24.0970  -24.4580 N   0  0  0  0  0  0  0  0  0  0  0  0
   -0.7510   25.3300  -24.6160 N   0  0  0  0  0  0  0  0  0  0  0  0
   -0.4250   26.4530  -23.7450 C   0  0  0  0  0  0  0  0  0  0  0  0
   -1.6230   25.3540  -25.6410 C   0  0  0  0  0  0  0  0  0  0  0  0
   -2.2200   22.4610  -28.0380 C   0  0  0  0  0  0  0  0  0  0  0  0
   -1.2180   21.5310  -27.5960 N   0  0  0  0  0  0  0  0  0  0  0  0
    0.1840   21.7330  -27.9720 C   0  0  0  0  0  0  0  0  0  0  0  0
    0.8680   20.3800  -28.2220 C   0  0  0  0  0  0  0  0  0  0  0  0
    0.6190   19.4760  -27.1620 O   0  0  0  0  0  0  0  0  0  0  0  0
   -0.7680   19.1770  -27.1110 C   0  0  0  0  0  0  0  0  0  0  0  0
   -1.5630   20.4190  -26.7080 C   0  0  0  0  0  0  0  0  0  0  0  0
   -2.9400   22.1600  -29.1550 N   0  0  0  0  0  0  0  0  0  0  0  0
   -3.9570   22.9440  -29.5990 C   0  0  0  0  0  0  0  0  0  0  0  0
   -4.6650   22.5910  -30.7520 C   0  0  0  0  0  0  0  0  0  0  0  0
   -9.7691   20.3673  -30.9649 H   0  0  0  0  0  0  0  0  0  0  0  0
  -10.3887   21.0407  -32.5106 H   0  0  0  0  0  0  0  0  0  0  0  0
   -8.9417   19.9765  -32.5106 H   0  0  0  0  0  0  0  0  0  0  0  0
   -9.1009   22.8602  -32.1858 H   0  0  0  0  0  0  0  0  0  0  0  0
   -8.3758   22.1063  -30.7102 H   0  0  0  0  0  0  0  0  0  0  0  0
   -6.7143   20.9408  -32.0808 H   0  0  0  0  0  0  0  0  0  0  0  0
   -7.4624   21.6037  -33.5829 H   0  0  0  0  0  0  0  0  0  0  0  0
   -6.3410   23.5880  -33.2550 H   0  0  0  0  0  0  0  0  0  0  0  0
   -6.8844   25.2016  -30.8503 H   0  0  0  0  0  0  0  0  0  0  0  0
   -5.6230   25.8319  -28.7960 H   0  0  0  0  0  0  0  0  0  0  0  0
   -3.8494   25.3470  -27.1686 H   0  0  0  0  0  0  0  0  0  0  0  0
   -0.6641   22.2284  -25.5215 H   0  0  0  0  0  0  0  0  0  0  0  0
    0.3850   23.8010  -23.7280 H   0  0  0  0  0  0  0  0  0  0  0  0
   -0.5157   26.1404  -22.6942 H   0  0  0  0  0  0  0  0  0  0  0  0
    0.6059   26.7825  -23.9418 H   0  0  0  0  0  0  0  0  0  0  0  0
   -1.1192   27.2833  -23.9418 H   0  0  0  0  0  0  0  0  0  0  0  0
   -2.1639   26.2384  -26.0087 H   0  0  0  0  0  0  0  0  0  0  0  0
    0.2303   22.3383  -28.8893 H   0  0  0  0  0  0  0  0  0  0  0  0
    0.7037   22.2513  -27.1526 H   0  0  0  0  0  0  0  0  0  0  0  0
    0.4816   19.9503  -29.1580 H   0  0  0  0  0  0  0  0  0  0  0  0
    1.9533   20.5461  -28.2899 H   0  0  0  0  0  0  0  0  0  0  0  0
   -1.1029   18.8374  -28.1022 H   0  0  0  0  0  0  0  0  0  0  0  0
   -0.9368   18.3861  -26.3654 H   0  0  0  0  0  0  0  0  0  0  0  0
   -2.6394   20.2068  -26.7878 H   0  0  0  0  0  0  0  0  0  0  0  0
   -1.3177   20.6897  -25.6704 H   0  0  0  0  0  0  0  0  0  0  0  0
   -4.3945   21.6759  -31.2992 H   0  0  0  0  0  0  0  0  0  0  0  0
  1  2  1  0
  2  3  1  0
  3  4  1  0
  4  5  1  0
  5  6  2  0
  6  7  1  0
  7  8  2  0
  8  9  1  0
  9 10  2  0
 10 11  1  0
 11 12  1  0
 12 13  2  0
 13 14  1  0
 14 15  1  0
 14 16  1  0
 10 17  1  0
 17 18  1  0
 18 19  1  0
 19 20  1  0
 20 21  1  0
 21 22  1  0
 22 23  1  0
 17 24  2  0
 24 25  1  0
 25 26  2  0
 26  5  1  0
 25  8  1  0
 16 11  2  0
 23 18  1  0
  1 27  1  0
  1 28  1  0
  1 29  1  0
  2 30  1  0
  2 31  1  0
  3 32  1  0
  3 33  1  0
  4 34  1  0
  6 35  1  0
  7 36  1  0
  9 37  1  0
 12 38  1  0
 13 39  1  0
 15 40  1  0
 15 41  1  0
 15 42  1  0
 16 43  1  0
 19 44  1  0
 19 45  1  0
 20 46  1  0
 20 47  1  0
 22 48  1  0
 22 49  1  0
 23 50  1  0
 23 51  1  0
 26 52  1  0
M  CHG  1  13   1
M  END
>  <UniqueID>  (6) 
6

>  <SMILES>  (6) 
CCCNc1ccc2cc(-c3c[nH+]n(C)c3)c(N3CCOCC3)nc2c1

>  <Energy>  (6) 
93.63239144005873

>  <Genealogy>  (6) 
CCCNc1ccc2cc(-c3c[nH+]n(C)c3)c(N3CCOCC3)nc2c1 (protonated)
CCCNc1ccc2cc(-c3c[nH+]n(C)c3)c(N3CCOCC3)nc2c1 (3D coordinates assigned)
CCCNc1ccc2cc(-c3c[nH+]n(C)c3)c(N3CCOCC3)nc2c1 (nonaromatic ring conformer: 93.63239144005873 kcal/mol)

>  <smiles>  (6) 
CCCNc1ccc2cc(-c3cnn(C)c3)c(N3CCOCC3)nc2c1

>  <score_type>  (6) 
oracle

>  <origin>  (6) 
adg

>  <m_score__min__energy>  (6) 
-7.5899999999999999

>  <m_primary>  (6) 
energy

$$$$
6:0
     RDKit          3D

 51 53  0  0  0  0  0  0  0  0999 V2000
    1.0020   21.2970  -35.6550 C   0  0  0  0  0  0  0  0  0  0  0  0
    0.2030   20.7580  -34.4660 C   0  0  0  0  0  0  0  0  0  0  0  0
   -1.2080   21.1780  -34.4990 N   0  0  0  0  0  0  0  0  0  0  0  0
   -1.9400   20.7800  -33.2830 C   0  0  0  0  0  0  0  0  0  0  0  0
   -3.4370   21.1040  -33.3980 C   0  0  0  0  0  0  0  0  0  0  0  0
   -4.1990   20.4690  -32.3220 N   0  0  0  0  0  0  0  0  0  0  0  0
   -5.4190   21.0540  -31.8350 C   0  0  0  0  0  0  0  0  0  0  0  0
   -6.6340   20.3820  -32.0490 C   0  0  0  0  0  0  0  0  0  0  0  0
   -6.6590   19.0130  -32.3870 C   0  0  0  0  0  0  0  0  0  0  0  0
   -7.8680   18.3470  -32.5720 C   0  0  0  0  0  0  0  0  0  0  0  0
   -9.0680   19.0280  -32.4110 C   0  0  0  0  0  0  0  0  0  0  0  0
   -9.0670   20.3860  -32.0920 C   0  0  0  0  0  0  0  0  0  0  0  0
   -7.8510   21.0990  -31.9410 C   0  0  0  0  0  0  0  0  0  0  0  0
   -7.8270   22.4600  -31.7160 N   0  0  0  0  0  0  0  0  0  0  0  0
   -9.0400   23.2700  -31.9690 C   0  0  0  0  0  0  0  0  0  0  0  0
   -6.6670   23.0660  -31.2650 C   0  0  0  0  0  0  0  0  0  0  0  0
   -6.6750   24.3920  -30.7790 C   0  0  0  0  0  0  0  0  0  0  0  0
   -5.5090   25.0160  -30.3600 C   0  0  0  0  0  0  0  0  0  0  0  0
   -4.3010   24.3170  -30.3150 C   0  0  0  0  0  0  0  0  0  0  0  0
   -3.1170   24.9330  -29.8690 O   0  0  0  0  0  0  0  0  0  0  0  0
   -2.4840   24.6730  -28.6220 C   0  0  0  0  0  0  0  0  0  0  0  0
   -4.2660   22.9610  -30.7010 C   0  0  0  0  0  0  0  0  0  0  0  0
   -3.0080   22.1760  -30.3930 C   0  0  0  0  0  0  0  0  0  0  0  0
   -5.4310   22.3530  -31.2730 C   0  0  0  0  0  0  0  0  0  0  0  0
    1.8613   21.8767  -35.2868 H   0  0  0  0  0  0  0  0  0  0  0  0
    1.3617   20.4563  -36.2664 H   0  0  0  0  0  0  0  0  0  0  0  0
    0.3572   21.9454  -36.2664 H   0  0  0  0  0  0  0  0  0  0  0  0
    0.2445   19.6589  -34.4820 H   0  0  0  0  0  0  0  0  0  0  0  0
    0.6522   21.1659  -33.5485 H   0  0  0  0  0  0  0  0  0  0  0  0
   -1.2260   22.2200  -34.5940 H   0  0  0  0  0  0  0  0  0  0  0  0
   -1.6800   20.7720  -35.3410 H   0  0  0  0  0  0  0  0  0  0  0  0
   -1.8189   19.6973  -33.1308 H   0  0  0  0  0  0  0  0  0  0  0  0
   -1.5287   21.3426  -32.4319 H   0  0  0  0  0  0  0  0  0  0  0  0
   -3.5739   22.1939  -33.3400 H   0  0  0  0  0  0  0  0  0  0  0  0
   -3.8045   20.7181  -34.3603 H   0  0  0  0  0  0  0  0  0  0  0  0
   -3.9040   19.5280  -31.9770 H   0  0  0  0  0  0  0  0  0  0  0  0
   -5.7127   18.4650  -32.5059 H   0  0  0  0  0  0  0  0  0  0  0  0
   -7.8727   17.2816  -32.8456 H   0  0  0  0  0  0  0  0  0  0  0  0
  -10.0220   18.4947  -32.5354 H   0  0  0  0  0  0  0  0  0  0  0  0
  -10.0238   20.9113  -31.9556 H   0  0  0  0  0  0  0  0  0  0  0  0
   -9.4878   23.5691  -31.0098 H   0  0  0  0  0  0  0  0  0  0  0  0
   -8.7680   24.1683  -32.5426 H   0  0  0  0  0  0  0  0  0  0  0  0
   -9.7655   22.6745  -32.5426 H   0  0  0  0  0  0  0  0  0  0  0  0
   -7.6265   24.9420  -30.7317 H   0  0  0  0  0  0  0  0  0  0  0  0
   -5.5364   26.0739  -30.0597 H   0  0  0  0  0  0  0  0  0  0  0  0
   -3.1618   24.9514  -27.8016 H   0  0  0  0  0  0  0  0  0  0  0  0
   -2.2416   23.6025  -28.5500 H   0  0  0  0  0  0  0  0  0  0  0  0
   -1.5591   25.2641  -28.5500 H   0  0  0  0  0  0  0  0  0  0  0  0
   -2.8824   22.0976  -29.3030 H   0  0  0  0  0  0  0  0  0  0  0  0
   -3.0894   21.1682  -30.8261 H   0  0  0  0  0  0  0  0  0  0  0  0
   -2.1385   22.6921  -30.8261 H   0  0  0  0  0  0  0  0  0  0  0  0
  1  2  1  0
  2  3  1  0
  3  4  1  0
  4  5  1  0
  5  6  1  0
  6  7  1  0
  7  8  2  0
  8  9  1  0
  9 10  2  0
 10 11  1  0
 11 12  2  0
 12 13  1  0
 13 14  2  0
 14 15  1  0
 14 16  1  0
 16 17  2  0
 17 18  1  0
 18 19  2  0
 19 20  1  0
 20 21  1  0
 19 22  1  0
 22 23  1  0
 22 24  2  0
 24  7  1  0
 13  8  1  0
 24 16  1  0
  1 25  1  0
  1 26  1  0
  1 27  1  0
  2 28  1  0
  2 29  1  0
  3 30  1  0
  3 31  1  0
  4 32  1  0
  4 33  1  0
  5 34  1  0
  5 35  1  0
  6 36  1  0
  9 37  1  0
 10 38  1  0
 11 39  1  0
 12 40  1  0
 15 41  1  0
 15 42  1  0
 15 43  1  0
 17 44  1  0
 18 45  1  0
 21 46  1  0
 21 47  1  0
 21 48  1  0
 23 49  1  0
 23 50  1  0
 23 51  1  0
M  CHG  2   3   1  14   1
M  END
>  <UniqueID>  (7) 
7

>  <SMILES>  (7) 
CC[NH2+]CCNc1c2ccccc2[n+](C)c2ccc(OC)c(C)c12

>  <Energy>  (7) 
83.6691728428108

>  <Genealogy>  (7) 
CC[NH2+]CCNc1c2ccccc2[n+](C)c2ccc(OC)c(C)c12 (protonated)
CC[NH2+]CCNc1c2ccccc2[n+](C)c2ccc(OC)c(C)c12 (3D coordinates assigned)
CC[NH2+]CCNc1c2ccccc2[n+](C)c2ccc(OC)c(C)c12 (optimized conformer: 83.6691728428108 kcal/mol)

>  <smiles>  (7) 
CCNCCNc1c2ccccc2[n+](C)c2ccc(OC)c(C)c12

>  <score_type>  (7) 
oracle

>  <origin>  (7) 
adg

>  <m_score__min__energy>  (7) 
-7.9199999999999999

>  <m_primary>  (7) 
energy

$$$$
7:0
     RDKit          3D

 49 51  0  0  0  0  0  0  0  0999 V2000
   -6.0620   24.9600  -29.4850 C   0  0  0  0  0  0  0  0  0  0  0  0
   -5.4300   25.3880  -30.8030 C   0  0  0  0  0  0  0  0  0  0  0  0
   -3.9820   25.1310  -30.7880 N   0  0  0  0  0  0  0  0  0  0  0  0
   -3.5470   24.3570  -29.6070 C   0  0  0  0  0  0  0  0  0  0  0  0
   -2.9710   22.9680  -29.9650 C   0  0  0  0  0  0  0  0  0  0  0  0
   -3.9740   22.0220  -30.6460 C   0  0  0  0  0  0  0  0  0  0  0  0
   -3.5040   21.5530  -32.0300 C   0  0  0  0  0  0  0  0  0  0  0  0
   -4.5950   21.6400  -33.0020 N   0  0  0  0  0  0  0  0  0  0  0  0
   -5.7780   20.8350  -32.8590 C   0  0  0  0  0  0  0  0  0  0  0  0
   -6.9890   21.4140  -32.4440 C   0  0  0  0  0  0  0  0  0  0  0  0
   -7.1230   22.8160  -32.3460 C   0  0  0  0  0  0  0  0  0  0  0  0
   -8.3280   23.3880  -31.9490 C   0  0  0  0  0  0  0  0  0  0  0  0
   -9.4230   22.5800  -31.6660 C   0  0  0  0  0  0  0  0  0  0  0  0
   -9.3170   21.1930  -31.7650 C   0  0  0  0  0  0  0  0  0  0  0  0
   -8.0930   20.5770  -32.1320 C   0  0  0  0  0  0  0  0  0  0  0  0
   -7.9600   19.2030  -32.2020 N   0  0  0  0  0  0  0  0  0  0  0  0
   -8.9890   18.3290  -31.5960 C   0  0  0  0  0  0  0  0  0  0  0  0
   -6.8520   18.6460  -32.8120 C   0  0  0  0  0  0  0  0  0  0  0  0
   -6.7980   17.2700  -33.1530 C   0  0  0  0  0  0  0  0  0  0  0  0
   -5.6460   16.7100  -33.7080 C   0  0  0  0  0  0  0  0  0  0  0  0
   -5.6020   14.8510  -34.1460 Br  0  0  0  0  0  0  0  0  0  0  0  0
   -4.5280   17.5040  -33.9470 C   0  0  0  0  0  0  0  0  0  0  0  0
   -4.5660   18.8660  -33.6610 C   0  0  0  0  0  0  0  0  0  0  0  0
   -5.7260   19.4550  -33.1170 C   0  0  0  0  0  0  0  0  0  0  0  0
   -5.4711   25.3602  -28.6480 H   0  0  0  0  0  0  0  0  0  0  0  0
   -7.0893   25.3490  -29.4276 H   0  0  0  0  0  0  0  0  0  0  0  0
   -6.0821   23.8617  -29.4276 H   0  0  0  0  0  0  0  0  0  0  0  0
   -5.8897   24.8208  -31.6258 H   0  0  0  0  0  0  0  0  0  0  0  0
   -5.5983   26.4658  -30.9445 H   0  0  0  0  0  0  0  0  0  0  0  0
   -3.4680   26.0420  -30.8420 H   0  0  0  0  0  0  0  0  0  0  0  0
   -2.7712   24.9313  -29.0795 H   0  0  0  0  0  0  0  0  0  0  0  0
   -4.4361   24.1898  -28.9813 H   0  0  0  0  0  0  0  0  0  0  0  0
   -2.1188   23.1136  -30.6451 H   0  0  0  0  0  0  0  0  0  0  0  0
   -2.6847   22.4921  -29.0155 H   0  0  0  0  0  0  0  0  0  0  0  0
   -4.1154   21.1393  -30.0051 H   0  0  0  0  0  0  0  0  0  0  0  0
   -4.9121   22.5791  -30.7860 H   0  0  0  0  0  0  0  0  0  0  0  0
   -2.6711   22.1894  -32.3636 H   0  0  0  0  0  0  0  0  0  0  0  0
   -3.1771   20.5052  -31.9570 H   0  0  0  0  0  0  0  0  0  0  0  0
   -4.4880   22.2510  -33.8420 H   0  0  0  0  0  0  0  0  0  0  0  0
   -6.2662   23.4629  -32.5859 H   0  0  0  0  0  0  0  0  0  0  0  0
   -8.4140   24.4809  -31.8591 H   0  0  0  0  0  0  0  0  0  0  0  0
  -10.3768   23.0363  -31.3628 H   0  0  0  0  0  0  0  0  0  0  0  0
  -10.1966   20.5666  -31.5552 H   0  0  0  0  0  0  0  0  0  0  0  0
   -8.9203   18.3874  -30.4997 H   0  0  0  0  0  0  0  0  0  0  0  0
   -9.9872   18.6595  -31.9189 H   0  0  0  0  0  0  0  0  0  0  0  0
   -8.8244   17.2904  -31.9189 H   0  0  0  0  0  0  0  0  0  0  0  0
   -7.6781   16.6340  -32.9772 H   0  0  0  0  0  0  0  0  0  0  0  0
   -3.6137   17.0550  -34.3622 H   0  0  0  0  0  0  0  0  0  0  0  0
   -3.6820   19.4891  -33.8615 H   0  0  0  0  0  0  0  0  0  0  0  0
  1  2  1  0
  2  3  1  0
  3  4  1  0
  4  5  1  0
  5  6  1  0
  6  7  1  0
  7  8  1  0
  8  9  1  0
  9 10  2  0
 10 11  1  0
 11 12  2  0
 12 13  1  0
 13 14  2  0
 14 15  1  0
 15 16  2  0
 16 17  1  0
 16 18  1  0
 18 19  2  0
 19 20  1  0
 20 21  1  0
 20 22  2  0
 22 23  1  0
 23 24  2  0
 24  9  1  0
 15 10  1  0
 24 18  1  0
  1 25  1  0
  1 26  1  0
  1 27  1  0
  2 28  1  0
  2 29  1  0
  3 30  1  0
  4 31  1  0
  4 32  1  0
  5 33  1  0
  5 34  1  0
  6 35  1  0
  6 36  1  0
  7 37  1  0
  7 38  1  0
  8 39  1  0
 11 40  1  0
 12 41  1  0
 13 42  1  0
 14 43  1  0
 17 44  1  0
 17 45  1  0
 17 46  1  0
 19 47  1  0
 22 48  1  0
 23 49  1  0
M  CHG  1  16   1
M  END
>  <UniqueID>  (8) 
8

>  <SMILES>  (8) 
CCNCCCCNc1c2ccccc2[n+](C)c2cc(Br)ccc12

>  <Energy>  (8) 
69.0396667060456

>  <Genealogy>  (8) 
CCNCCCCNc1c2ccccc2[n+](C)c2cc(Br)ccc12 (3D coordinates assigned)
CCNCCCCNc1c2ccccc2[n+](C)c2cc(Br)ccc12 (optimized conformer: 69.0396667060456 kcal/mol)

>  <smiles>  (8) 
CCNCCCCNc1c2ccccc2[n+](C)c2cc(Br)ccc12

>  <score_type>  (8) 
oracle

>  <origin>  (8) 
adg

>  <m_score__min__energy>  (8) 
-9.6300000000000008

>  <m_primary>  (8) 
energy

$$$$
8:0
     RDKit          3D

 32 32  0  0  0  0  0  0  0  0999 V2000
   -1.8360   24.9120  -28.6090 C   0  0  0  0  0  0  0  0  0  0  0  0
   -2.7940   24.0820  -29.4500 C   0  0  0  0  0  0  0  0  0  0  0  0
   -3.4190   24.9330  -30.4600 N   0  0  0  0  0  0  0  0  0  0  0  0
   -5.1450   24.8880  -30.2820 S   0  0  0  0  0  0  0  0  0  0  0  0
   -5.5040   24.8420  -28.8220 O   0  0  0  0  0  0  0  0  0  0  0  0
   -5.7350   26.1360  -30.8760 O   0  0  0  0  0  0  0  0  0  0  0  0
   -5.8090   23.4850  -31.1170 C   0  0  0  0  0  0  0  0  0  0  0  0
   -4.9650   22.5780  -31.7660 C   0  0  0  0  0  0  0  0  0  0  0  0
   -5.5000   21.4810  -32.4450 C   0  0  0  0  0  0  0  0  0  0  0  0
   -6.8930   21.2780  -32.4920 C   0  0  0  0  0  0  0  0  0  0  0  0
   -7.4730   20.1870  -33.1640 O   0  0  0  0  0  0  0  0  0  0  0  0
   -6.8510   18.9260  -33.4220 C   0  0  0  0  0  0  0  0  0  0  0  0
   -7.3110   17.8700  -32.4180 C   0  0  0  0  0  0  0  0  0  0  0  0
   -8.6000   18.1280  -31.9920 F   0  0  0  0  0  0  0  0  0  0  0  0
   -7.2790   16.6230  -33.0160 F   0  0  0  0  0  0  0  0  0  0  0  0
   -6.4650   17.8670  -31.3240 F   0  0  0  0  0  0  0  0  0  0  0  0
   -7.7410   22.1910  -31.8350 C   0  0  0  0  0  0  0  0  0  0  0  0
   -9.2320   21.9990  -31.8760 C   0  0  0  0  0  0  0  0  0  0  0  0
   -7.1940   23.2930  -31.1580 C   0  0  0  0  0  0  0  0  0  0  0  0
   -2.0384   24.7366  -27.5421 H   0  0  0  0  0  0  0  0  0  0  0  0
   -0.8003   24.6210  -28.8384 H   0  0  0  0  0  0  0  0  0  0  0  0
   -1.9765   25.9786  -28.8384 H   0  0  0  0  0  0  0  0  0  0  0  0
   -2.2390   23.2719  -29.9457 H   0  0  0  0  0  0  0  0  0  0  0  0
   -3.5714   23.6511  -28.8019 H   0  0  0  0  0  0  0  0  0  0  0  0
   -3.8757   22.7292  -31.7416 H   0  0  0  0  0  0  0  0  0  0  0  0
   -4.8279   20.7696  -32.9472 H   0  0  0  0  0  0  0  0  0  0  0  0
   -7.1158   18.5958  -34.4373 H   0  0  0  0  0  0  0  0  0  0  0  0
   -5.7619   19.0477  -33.3267 H   0  0  0  0  0  0  0  0  0  0  0  0
   -9.6236   21.9486  -30.8493 H   0  0  0  0  0  0  0  0  0  0  0  0
   -9.6962   22.8448  -32.4043 H   0  0  0  0  0  0  0  0  0  0  0  0
   -9.4668   21.0632  -32.4043 H   0  0  0  0  0  0  0  0  0  0  0  0
   -7.8597   24.0107  -30.6561 H   0  0  0  0  0  0  0  0  0  0  0  0
  1  2  1  0
  2  3  1  0
  3  4  1  0
  4  5  2  0
  4  6  2  0
  4  7  1  0
  7  8  2  0
  8  9  1  0
  9 10  2  0
 10 11  1  0
 11 12  1  0
 12 13  1  0
 13 14  1  0
 13 15  1  0
 13 16  1  0
 10 17  1  0
 17 18  1  0
 17 19  2  0
 19  7  1  0
  1 20  1  0
  1 21  1  0
  1 22  1  0
  2 23  1  0
  2 24  1  0
  8 25  1  0
  9 26  1  0
 12 27  1  0
 12 28  1  0
 18 29  1  0
 18 30  1  0
 18 31  1  0
 19 32  1  0
M  CHG  1   3  -1
M  END
>  <UniqueID>  (9) 
9

>  <SMILES>  (9) 
CC[N-]S(=O)(=O)c1ccc(OCC(F)(F)F)c(C)c1

>  <Energy>  (9) 
23.776338073299705

>  <Genealogy>  (9) 
CC[N-]S(=O)(=O)c1ccc(OCC(F)(F)F)c(C)c1 (protonated)
CC[N-]S(=O)(=O)c1ccc(OCC(F)(F)F)c(C)c1 (3D coordinates assigned)
CC[N-]S(=O)(=O)c1ccc(OCC(F)(F)F)c(C)c1 (optimized conformer: 23.776338073299705 kcal/mol)

>  <smiles>  (9) 
CCNS(=O)(=O)c1ccc(OCC(F)(F)F)c(C)c1

>  <score_type>  (9) 
oracle

>  <origin>  (9) 
adg

>  <m_score__min__energy>  (9) 
-7.5999999999999996

>  <m_primary>  (9) 
energy

$$$$
9:0
     RDKit          3D

 53 56  0  0  0  0  0  0  0  0999 V2000
   -1.6100   20.3810  -25.8310 C   0  0  0  0  0  0  0  0  0  0  0  0
   -2.2660   19.4160  -26.7290 N   0  0  0  0  0  0  0  0  0  0  0  0
   -3.2610   18.6390  -25.9720 C   0  0  0  0  0  0  0  0  0  0  0  0
   -1.2680   18.5260  -27.3670 C   0  0  0  0  0  0  0  0  0  0  0  0
   -0.7720   19.1270  -28.6860 C   0  0  0  0  0  0  0  0  0  0  0  0
   -1.5930   20.2840  -29.0890 N   0  0  0  0  0  0  0  0  0  0  0  0
   -0.9970   21.5700  -28.6960 C   0  0  0  0  0  0  0  0  0  0  0  0
   -1.9300   22.7020  -29.0080 C   0  0  0  0  0  0  0  0  0  0  0  0
   -3.2110   22.5220  -29.3840 N   0  0  0  0  0  0  0  0  0  0  0  0
   -3.6580   23.7930  -29.4940 C   0  0  0  0  0  0  0  0  0  0  0  0
   -5.0330   24.1500  -29.8830 C   0  0  0  0  0  0  0  0  0  0  0  0
   -5.7440   25.1220  -29.2760 N   0  0  0  0  0  0  0  0  0  0  0  0
   -6.9430   25.1310  -29.8910 C   0  0  0  0  0  0  0  0  0  0  0  0
   -6.9490   24.1550  -30.8660 C   0  0  0  0  0  0  0  0  0  0  0  0
   -5.7480   23.5450  -30.8570 N   0  0  0  0  0  0  0  0  0  0  0  0
   -5.3750   22.4170  -31.6590 C   0  0  0  0  0  0  0  0  0  0  0  0
   -4.1030   22.3820  -32.2400 C   0  0  0  0  0  0  0  0  0  0  0  0
   -3.7280   21.2850  -33.0180 C   0  0  0  0  0  0  0  0  0  0  0  0
   -4.5960   20.2590  -33.2160 N   0  0  0  0  0  0  0  0  0  0  0  0
   -5.8420   20.2570  -32.6720 C   0  0  0  0  0  0  0  0  0  0  0  0
   -6.7040   19.1810  -32.9070 C   0  0  0  0  0  0  0  0  0  0  0  0
   -7.9820   19.1690  -32.3420 C   0  0  0  0  0  0  0  0  0  0  0  0
   -8.4040   20.2330  -31.5390 C   0  0  0  0  0  0  0  0  0  0  0  0
   -7.5530   21.3160  -31.3010 C   0  0  0  0  0  0  0  0  0  0  0  0
   -6.2650   21.3430  -31.8680 C   0  0  0  0  0  0  0  0  0  0  0  0
   -2.7090   24.7050  -29.2040 N   0  0  0  0  0  0  0  0  0  0  0  0
   -1.6340   24.0090  -28.8830 N   0  0  0  0  0  0  0  0  0  0  0  0
   -0.3490   24.6050  -28.5340 C   0  0  0  0  0  0  0  0  0  0  0  0
   -1.8022   20.0982  -24.7855 H   0  0  0  0  0  0  0  0  0  0  0  0
   -0.5261   20.3779  -26.0183 H   0  0  0  0  0  0  0  0  0  0  0  0
   -2.0116   21.3878  -26.0183 H   0  0  0  0  0  0  0  0  0  0  0  0
   -3.0885   18.7737  -24.8940 H   0  0  0  0  0  0  0  0  0  0  0  0
   -4.2718   18.9892  -26.2282 H   0  0  0  0  0  0  0  0  0  0  0  0
   -3.1662   17.5734  -26.2282 H   0  0  0  0  0  0  0  0  0  0  0  0
   -0.4140   18.3944  -26.6863 H   0  0  0  0  0  0  0  0  0  0  0  0
   -1.7419   17.5556  -27.5764 H   0  0  0  0  0  0  0  0  0  0  0  0
    0.2710   19.4536  -28.5614 H   0  0  0  0  0  0  0  0  0  0  0  0
   -0.8476   18.3577  -29.4686 H   0  0  0  0  0  0  0  0  0  0  0  0
   -2.5150   20.2100  -28.5990 H   0  0  0  0  0  0  0  0  0  0  0  0
   -0.7919   21.5581  -27.6154 H   0  0  0  0  0  0  0  0  0  0  0  0
   -0.0633   21.7148  -29.2592 H   0  0  0  0  0  0  0  0  0  0  0  0
   -5.4400   25.7400  -28.4910 H   0  0  0  0  0  0  0  0  0  0  0  0
   -7.7792   25.8054  -29.6546 H   0  0  0  0  0  0  0  0  0  0  0  0
   -7.7890   23.9163  -31.5349 H   0  0  0  0  0  0  0  0  0  0  0  0
   -3.4015   23.2149  -32.0846 H   0  0  0  0  0  0  0  0  0  0  0  0
   -2.7266   21.2514  -33.4720 H   0  0  0  0  0  0  0  0  0  0  0  0
   -6.3752   18.3422  -33.5381 H   0  0  0  0  0  0  0  0  0  0  0  0
   -8.6572   18.3210  -32.5293 H   0  0  0  0  0  0  0  0  0  0  0  0
   -9.4094   20.2177  -31.0929 H   0  0  0  0  0  0  0  0  0  0  0  0
   -7.8910   22.1500  -30.6684 H   0  0  0  0  0  0  0  0  0  0  0  0
   -0.2511   24.6504  -27.4393 H   0  0  0  0  0  0  0  0  0  0  0  0
    0.4644   23.9922  -28.9498 H   0  0  0  0  0  0  0  0  0  0  0  0
   -0.2914   25.6218  -28.9498 H   0  0  0  0  0  0  0  0  0  0  0  0
  1  2  1  0
  2  3  1  0
  2  4  1  0
  4  5  1  0
  5  6  1  0
  6  7  1  0
  7  8  1  0
  8  9  2  0
  9 10  1  0
 10 11  1  0
 11 12  2  0
 12 13  1  0
 13 14  2  0
 14 15  1  0
 15 16  1  0
 16 17  2  0
 17 18  1  0
 18 19  2  0
 19 20  1  0
 20 21  2  0
 21 22  1  0
 22 23  2  0
 23 24  1  0
 24 25  2  0
 10 26  2  0
 26 27  1  0
 27 28  1  0
 27  8  1  0
 15 11  1  0
 25 16  1  0
 25 20  1  0
  1 29  1  0
  1 30  1  0
  1 31  1  0
  3 32  1  0
  3 33  1  0
  3 34  1  0
  4 35  1  0
  4 36  1  0
  5 37  1  0
  5 38  1  0
  6 39  1  0
  7 40  1  0
  7 41  1  0
 12 42  1  0
 13 43  1  0
 14 44  1  0
 17 45  1  0
 18 46  1  0
 21 47  1  0
 22 48  1  0
 23 49  1  0
 24 50  1  0
 28 51  1  0
 28 52  1  0
 28 53  1  0
M  CHG  1  12   1
M  END
>  <UniqueID>  (10) 
10

>  <SMILES>  (10) 
CN(C)CCNCc1nc(-c2[nH+]ccn2-c2ccnc3ccccc23)nn1C

>  <Energy>  (10) 
125.10548414872008

>  <Genealogy>  (10) 
CN(C)CCNCc1nc(-c2[nH+]ccn2-c2ccnc3ccccc23)nn1C (protonated)
CN(C)CCNCc1nc(-c2[nH+]ccn2-c2ccnc3ccccc23)nn1C (3D coordinates assigned)
CN(C)CCNCc1nc(-c2[nH+]ccn2-c2ccnc3ccccc23)nn1C (optimized conformer: 125.10548414872008 kcal/mol)

>  <smiles>  (10) 
CN(C)CCNCc1nc(-c2nccn2-c2ccnc3ccccc23)nn1C

>  <score_type>  (10) 
oracle

>  <origin>  (10) 
adg

>  <m_score__min__energy>  (10) 
-7.8700000000000001

>  <m_primary>  (10) 
energy

$$$$
10:0
     RDKit          3D

 75 78  0  0  0  0  0  0  0  0999 V2000
  -10.1088   19.0203  -31.7769 H   0  0  0  0  0  0  0  0  0  0  0  0
   -9.1040   19.4660  -31.8170 C   0  0  0  0  0  0  0  0  0  0  0  0
   -7.9780   18.6530  -31.7020 C   0  0  0  0  0  0  0  0  0  0  0  0
   -8.0976   17.5650  -31.5926 H   0  0  0  0  0  0  0  0  0  0  0  0
   -6.6970   19.2130  -31.7250 C   0  0  0  0  0  0  0  0  0  0  0  0
   -5.8153   18.5655  -31.6092 H   0  0  0  0  0  0  0  0  0  0  0  0
   -6.5280   20.6050  -31.8960 C   0  0  0  0  0  0  0  0  0  0  0  0
   -5.2440   21.2080  -31.9100 C   0  0  0  0  0  0  0  0  0  0  0  0
   -4.0500   20.4190  -31.7490 N   0  0  0  0  0  0  0  0  0  0  0  0
   -3.9780   19.8170  -30.8980 H   0  0  0  0  0  0  0  0  0  0  0  0
   -3.1240   20.1600  -32.8140 C   0  0  0  0  0  0  0  0  0  0  0  0
   -2.7960   18.7990  -33.1140 N   0  0  0  0  0  0  0  0  0  0  0  0
   -3.4340   18.0340  -32.7930 H   0  0  0  0  0  0  0  0  0  0  0  0
   -1.6250   18.4820  -33.7290 O   0  0  0  0  0  0  0  0  0  0  0  0
   -1.4950   17.0780  -33.6840 C   0  0  0  0  0  0  0  0  0  0  0  0
   -2.4613   16.6304  -33.4085 H   0  0  0  0  0  0  0  0  0  0  0  0
   -0.7346   16.8074  -32.9366 H   0  0  0  0  0  0  0  0  0  0  0  0
   -1.0670   16.5560  -35.0480 C   0  0  0  0  0  0  0  0  0  0  0  0
   -0.1853   15.9085  -34.9324 H   0  0  0  0  0  0  0  0  0  0  0  0
   -0.8167   17.4040  -35.7024 H   0  0  0  0  0  0  0  0  0  0  0  0
   -2.1240   15.8140  -35.6230 O   0  0  0  0  0  0  0  0  0  0  0  0
   -3.2720   15.9160  -34.8060 C   0  0  0  0  0  0  0  0  0  0  0  0
   -2.9669   16.1553  -33.7766 H   0  0  0  0  0  0  0  0  0  0  0  0
   -3.8129   14.9583  -34.8205 H   0  0  0  0  0  0  0  0  0  0  0  0
   -4.1900   17.0210  -35.3330 C   0  0  0  0  0  0  0  0  0  0  0  0
   -4.8881   16.5869  -36.0639 H   0  0  0  0  0  0  0  0  0  0  0  0
   -3.5638   17.7953  -35.8003 H   0  0  0  0  0  0  0  0  0  0  0  0
   -4.9670   17.6500  -34.2410 N   0  0  0  0  0  0  0  0  0  0  0  0
   -5.9750   18.5640  -34.8130 C   0  0  0  0  0  0  0  0  0  0  0  0
   -6.5231   19.0610  -33.9990 H   0  0  0  0  0  0  0  0  0  0  0  0
   -5.4732   19.3214  -35.4331 H   0  0  0  0  0  0  0  0  0  0  0  0
   -6.6798   17.9907  -35.4331 H   0  0  0  0  0  0  0  0  0  0  0  0
   -5.6230   16.6360  -33.3840 C   0  0  0  0  0  0  0  0  0  0  0  0
   -5.9239   17.1019  -32.4341 H   0  0  0  0  0  0  0  0  0  0  0  0
   -4.9161   15.8157  -33.1906 H   0  0  0  0  0  0  0  0  0  0  0  0
   -6.8580   16.0770  -34.0860 C   0  0  0  0  0  0  0  0  0  0  0  0
   -7.5891   15.7461  -33.3337 H   0  0  0  0  0  0  0  0  0  0  0  0
   -7.3078   16.8593  -34.7151 H   0  0  0  0  0  0  0  0  0  0  0  0
   -6.5670   15.2228  -34.7151 H   0  0  0  0  0  0  0  0  0  0  0  0
   -2.5300   21.1290  -33.4660 N   0  0  0  0  0  0  0  0  0  0  0  0
   -3.0570   21.6260  -34.2190 H   0  0  0  0  0  0  0  0  0  0  0  0
   -1.1340   21.5390  -33.2850 C   0  0  0  0  0  0  0  0  0  0  0  0
   -0.5613   21.2805  -34.1879 H   0  0  0  0  0  0  0  0  0  0  0  0
   -1.1027   22.6250  -33.1127 H   0  0  0  0  0  0  0  0  0  0  0  0
   -0.5170   20.8300  -32.0780 C   0  0  0  0  0  0  0  0  0  0  0  0
   -1.0845   19.9116  -31.8672 H   0  0  0  0  0  0  0  0  0  0  0  0
    0.5302   20.5814  -32.3051 H   0  0  0  0  0  0  0  0  0  0  0  0
   -0.5560   21.7020  -30.9040 N   0  0  0  0  0  0  0  0  0  0  0  0
   -0.1070   22.6480  -30.9750 H   0  0  0  0  0  0  0  0  0  0  0  0
   -1.4090   21.4280  -29.7830 C   0  0  0  0  0  0  0  0  0  0  0  0
   -1.2040   20.2450  -29.0580 C   0  0  0  0  0  0  0  0  0  0  0  0
   -0.4215   19.5402  -29.3758 H   0  0  0  0  0  0  0  0  0  0  0  0
   -1.9840   19.9530  -27.9360 C   0  0  0  0  0  0  0  0  0  0  0  0
   -1.8074   19.0251  -27.3723 H   0  0  0  0  0  0  0  0  0  0  0  0
   -2.9860   20.8340  -27.5280 C   0  0  0  0  0  0  0  0  0  0  0  0
   -3.5898   20.6021  -26.6383 H   0  0  0  0  0  0  0  0  0  0  0  0
   -3.2270   22.0140  -28.2470 C   0  0  0  0  0  0  0  0  0  0  0  0
   -4.2270   22.9050  -27.8240 C   0  0  0  0  0  0  0  0  0  0  0  0
   -4.8099   22.6844  -26.9176 H   0  0  0  0  0  0  0  0  0  0  0  0
   -4.4840   24.0700  -28.5500 C   0  0  0  0  0  0  0  0  0  0  0  0
   -5.2539   24.7750  -28.2033 H   0  0  0  0  0  0  0  0  0  0  0  0
   -3.7660   24.3400  -29.7130 C   0  0  0  0  0  0  0  0  0  0  0  0
   -3.9917   25.2441  -30.2976 H   0  0  0  0  0  0  0  0  0  0  0  0
   -2.7610   23.4690  -30.1410 C   0  0  0  0  0  0  0  0  0  0  0  0
   -2.2083   23.6872  -31.0667 H   0  0  0  0  0  0  0  0  0  0  0  0
   -2.4490   22.3130  -29.3970 C   0  0  0  0  0  0  0  0  0  0  0  0
   -5.1350   22.5950  -32.1040 C   0  0  0  0  0  0  0  0  0  0  0  0
   -4.1407   23.0650  -32.1253 H   0  0  0  0  0  0  0  0  0  0  0  0
   -6.2750   23.3830  -32.2700 C   0  0  0  0  0  0  0  0  0  0  0  0
   -6.1726   24.4645  -32.4427 H   0  0  0  0  0  0  0  0  0  0  0  0
   -7.5420   22.8060  -32.2180 C   0  0  0  0  0  0  0  0  0  0  0  0
   -8.4365   23.4377  -32.3217 H   0  0  0  0  0  0  0  0  0  0  0  0
   -7.6810   21.4230  -32.0340 C   0  0  0  0  0  0  0  0  0  0  0  0
   -8.9600   20.8450  -31.9830 C   0  0  0  0  0  0  0  0  0  0  0  0
   -9.8525   21.4816  -32.0742 H   0  0  0  0  0  0  0  0  0  0  0  0
  1  2  1  0
  2  3  2  0
  3  4  1  0
  3  5  1  0
  5  6  1  0
  5  7  2  0
  7  8  1  0
  8  9  1  0
  9 10  1  0
  9 11  1  0
 11 12  1  0
 12 13  1  0
 12 14  1  0
 14 15  1  0
 15 16  1  0
 15 17  1  0
 15 18  1  0
 18 19  1  0
 18 20  1  0
 18 21  1  0
 21 22  1  0
 22 23  1  0
 22 24  1  0
 22 25  1  0
 25 26  1  0
 25 27  1  0
 25 28  1  0
 28 29  1  0
 29 30  1  0
 29 31  1  0
 29 32  1  0
 28 33  1  0
 33 34  1  0
 33 35  1  0
 33 36  1  0
 36 37  1  0
 36 38  1  0
 36 39  1  0
 11 40  2  0
 40 41  1  0
 40 42  1  0
 42 43  1  0
 42 44  1  0
 42 45  1  0
 45 46  1  0
 45 47  1  0
 45 48  1  0
 48 49  1  0
 48 50  1  0
 50 51  2  0
 51 52  1  0
 51 53  1  0
 53 54  1  0
 53 55  2  0
 55 56  1  0
 55 57  1  0
 57 58  2  0
 58 59  1  0
 58 60  1  0
 60 61  1  0
 60 62  2  0
 62 63  1  0
 62 64  1  0
 64 65  1  0
 64 66  2  0
  8 67  2  0
 67 68  1  0
 67 69  1  0
 69 70  1  0
 69 71  2  0
 71 72  1  0
 71 73  1  0
 73 74  2  0
 74 75  1  0
 74  2  1  0
 73  7  1  0
 66 50  1  0
 66 57  1  0
M  CHG  1  40   1
M  END
>  <UniqueID>  (11) 
11

>  <SMILES>  (11) 
CCN(C)CCOCCON/C(Nc1cccc2ccccc12)=[NH+]/CCNc1cccc2ccccc12

>  <Energy>  (11) 
85.17778093604187

>  <Genealogy>  (11) 
CCN(C)CCOCCONC(Nc1cccc2ccccc12)=[NH+]CCNc1cccc2ccccc12 (protonated)
CCN(C)CCOCCON/C(Nc1cccc2ccccc12)=[NH+]/CCNc1cccc2ccccc12 (cis-trans isomerization)
CCN(C)CCOCCON/C(Nc1cccc2ccccc12)=[NH+]/CCNc1cccc2ccccc12 (3D coordinates assigned)
CCN(C)CCOCCON/C(Nc1cccc2ccccc12)=[NH+]/CCNc1cccc2ccccc12 (optimized conformer: 85.17778093604187 kcal/mol)

>  <smiles>  (11) 
CCN(C)CCOCCONC(=NCCNc1cccc2ccccc12)Nc1cccc2ccccc12

>  <score_type>  (11) 
oracle

>  <origin>  (11) 
adg

>  <m_score__min__energy>  (11) 
-9.3399999999999999

>  <m_primary>  (11) 
energy

$$$$
11:0
     RDKit          3D

 37 38  0  0  0  0  0  0  0  0999 V2000
   -0.9340   24.5520  -28.8980 C   0  0  0  0  0  0  0  0  0  0  0  0
   -2.4230   24.5080  -28.9740 C   0  0  0  0  0  0  0  0  0  0  0  0
   -3.2630   23.9810  -28.0120 C   0  0  0  0  0  0  0  0  0  0  0  0
   -4.5400   24.1280  -28.5110 C   0  0  0  0  0  0  0  0  0  0  0  0
   -4.3920   24.7350  -29.7440 C   0  0  0  0  0  0  0  0  0  0  0  0
   -5.4970   25.0730  -30.6870 C   0  0  0  0  0  0  0  0  0  0  0  0
   -5.7800   23.6680  -31.8140 S   0  0  0  0  0  0  0  0  0  0  0  0
   -4.3830   22.6490  -31.2100 C   0  0  0  0  0  0  0  0  0  0  0  0
   -3.8720   21.7070  -32.3020 C   0  0  0  0  0  0  0  0  0  0  0  0
   -4.9290   21.4300  -33.2850 N   0  0  0  0  0  0  0  0  0  0  0  0
   -5.1440   19.9860  -33.4420 C   0  0  0  0  0  0  0  0  0  0  0  0
   -6.4880   19.5900  -32.8920 C   0  0  0  0  0  0  0  0  0  0  0  0
   -7.4950   20.5580  -32.7330 C   0  0  0  0  0  0  0  0  0  0  0  0
   -8.7400   20.1990  -32.2070 C   0  0  0  0  0  0  0  0  0  0  0  0
   -8.9880   18.8750  -31.8350 C   0  0  0  0  0  0  0  0  0  0  0  0
   -7.9900   17.9080  -31.9850 C   0  0  0  0  0  0  0  0  0  0  0  0
   -6.7430   18.2630  -32.5110 C   0  0  0  0  0  0  0  0  0  0  0  0
   -3.1210   24.9430  -29.9970 O   0  0  0  0  0  0  0  0  0  0  0  0
   -0.6208   24.5613  -27.8436 H   0  0  0  0  0  0  0  0  0  0  0  0
   -0.5150   23.6658  -29.3972 H   0  0  0  0  0  0  0  0  0  0  0  0
   -0.5681   25.4614  -29.3972 H   0  0  0  0  0  0  0  0  0  0  0  0
   -2.9733   23.5366  -27.0484 H   0  0  0  0  0  0  0  0  0  0  0  0
   -5.4809   23.8252  -28.0282 H   0  0  0  0  0  0  0  0  0  0  0  0
   -6.4157   25.2781  -30.1178 H   0  0  0  0  0  0  0  0  0  0  0  0
   -5.2228   25.9639  -31.2711 H   0  0  0  0  0  0  0  0  0  0  0  0
   -3.5638   23.3129  -30.8968 H   0  0  0  0  0  0  0  0  0  0  0  0
   -4.7356   22.0417  -30.3633 H   0  0  0  0  0  0  0  0  0  0  0  0
   -3.0178   22.1756  -32.8126 H   0  0  0  0  0  0  0  0  0  0  0  0
   -3.5647   20.7590  -31.8362 H   0  0  0  0  0  0  0  0  0  0  0  0
   -4.6060   21.7950  -34.2110 H   0  0  0  0  0  0  0  0  0  0  0  0
   -5.0996   19.7275  -34.5103 H   0  0  0  0  0  0  0  0  0  0  0  0
   -4.3606   19.4475  -32.8886 H   0  0  0  0  0  0  0  0  0  0  0  0
   -7.3029   21.6015  -33.0234 H   0  0  0  0  0  0  0  0  0  0  0  0
   -9.5252   20.9598  -32.0859 H   0  0  0  0  0  0  0  0  0  0  0  0
   -9.9688   18.5938  -31.4240 H   0  0  0  0  0  0  0  0  0  0  0  0
   -8.1852   16.8667  -31.6892 H   0  0  0  0  0  0  0  0  0  0  0  0
   -5.9595   17.4996  -32.6264 H   0  0  0  0  0  0  0  0  0  0  0  0
  1  2  1  0
  2  3  2  0
  3  4  1  0
  4  5  2  0
  5  6  1  0
  6  7  1  0
  7  8  1  0
  8  9  1  0
  9 10  1  0
 10 11  1  0
 11 12  1  0
 12 13  2  0
 13 14  1  0
 14 15  2  0
 15 16  1  0
 16 17  2  0
  5 18  1  0
 18  2  1  0
 17 12  1  0
  1 19  1  0
  1 20  1  0
  1 21  1  0
  3 22  1  0
  4 23  1  0
  6 24  1  0
  6 25  1  0
  8 26  1  0
  8 27  1  0
  9 28  1  0
  9 29  1  0
 10 30  1  0
 11 31  1  0
 11 32  1  0
 13 33  1  0
 14 34  1  0
 15 35  1  0
 16 36  1  0
 17 37  1  0
M  END
>  <UniqueID>  (12) 
12

>  <SMILES>  (12) 
Cc1ccc(CSCCNCc2ccccc2)o1

>  <Energy>  (12) 
54.60833421004798

>  <Genealogy>  (12) 
Cc1ccc(CSCCNCc2ccccc2)o1 (3D coordinates assigned)
Cc1ccc(CSCCNCc2ccccc2)o1 (optimized conformer: 54.60833421004798 kcal/mol)

>  <smiles>  (12) 
Cc1ccc(CSCCNCc2ccccc2)o1

>  <score_type>  (12) 
oracle

>  <origin>  (12) 
adg

>  <m_score__min__energy>  (12) 
-7.5999999999999996

>  <m_primary>  (12) 
energy

$$$$
12:0
     RDKit          3D

 42 44  0  0  0  0  0  0  0  0999 V2000
   -6.2570   22.8620  -30.1780 H   0  0  0  0  0  0  0  0  0  0  0  0
   -6.9910   22.3750  -30.7360 N   0  0  0  0  0  0  0  0  0  0  0  0
   -6.7850   21.3720  -31.5410 C   0  0  0  0  0  0  0  0  0  0  0  0
   -5.5040   20.7810  -31.5940 C   0  0  0  0  0  0  0  0  0  0  0  0
   -4.3470   21.2860  -30.7980 C   0  0  0  0  0  0  0  0  0  0  0  0
   -3.4570   20.4080  -30.2570 N   0  0  0  0  0  0  0  0  0  0  0  0
   -2.3860   20.8320  -29.5380 C   0  0  0  0  0  0  0  0  0  0  0  0
   -1.6849   20.1007  -29.1095 H   0  0  0  0  0  0  0  0  0  0  0  0
   -2.1770   22.2000  -29.3440 C   0  0  0  0  0  0  0  0  0  0  0  0
   -1.0860   22.6800  -28.6090 C   0  0  0  0  0  0  0  0  0  0  0  0
   -0.3661   21.9759  -28.1662 H   0  0  0  0  0  0  0  0  0  0  0  0
   -0.9150   24.0560  -28.4400 C   0  0  0  0  0  0  0  0  0  0  0  0
   -0.0582   24.4341  -27.8629 H   0  0  0  0  0  0  0  0  0  0  0  0
   -1.8280   24.9560  -29.0010 C   0  0  0  0  0  0  0  0  0  0  0  0
   -1.6845   26.0378  -28.8626 H   0  0  0  0  0  0  0  0  0  0  0  0
   -2.9300   24.4850  -29.7420 C   0  0  0  0  0  0  0  0  0  0  0  0
   -3.8680   25.3560  -30.3200 O   0  0  0  0  0  0  0  0  0  0  0  0
   -5.2710   25.3020  -30.0830 C   0  0  0  0  0  0  0  0  0  0  0  0
   -5.4598   25.2947  -28.9993 H   0  0  0  0  0  0  0  0  0  0  0  0
   -5.7531   26.1823  -30.5333 H   0  0  0  0  0  0  0  0  0  0  0  0
   -5.6840   24.3873  -30.5333 H   0  0  0  0  0  0  0  0  0  0  0  0
   -3.0990   23.1010  -29.9110 C   0  0  0  0  0  0  0  0  0  0  0  0
   -4.1540   22.6220  -30.6220 N   0  0  0  0  0  0  0  0  0  0  0  0
   -5.3180   19.6770  -32.4310 C   0  0  0  0  0  0  0  0  0  0  0  0
   -4.3320   19.1922  -32.4844 H   0  0  0  0  0  0  0  0  0  0  0  0
   -6.3750   19.1850  -33.2000 C   0  0  0  0  0  0  0  0  0  0  0  0
   -6.1870   18.0450  -34.0760 N   0  0  0  0  0  0  0  0  0  0  0  0
   -5.3740   18.1700  -35.2910 C   0  0  0  0  0  0  0  0  0  0  0  0
   -4.3220   18.3317  -35.0132 H   0  0  0  0  0  0  0  0  0  0  0  0
   -5.4588   17.2483  -35.8853 H   0  0  0  0  0  0  0  0  0  0  0  0
   -5.7317   19.0237  -35.8853 H   0  0  0  0  0  0  0  0  0  0  0  0
   -6.8030   16.7510  -33.7640 C   0  0  0  0  0  0  0  0  0  0  0  0
   -6.8622   16.6267  -32.6726 H   0  0  0  0  0  0  0  0  0  0  0  0
   -7.8154   16.7140  -34.1927 H   0  0  0  0  0  0  0  0  0  0  0  0
   -6.1935   15.9419  -34.1927 H   0  0  0  0  0  0  0  0  0  0  0  0
   -7.5880   19.8040  -33.1160 N   0  0  0  0  0  0  0  0  0  0  0  0
   -8.3800   19.4240  -33.6800 H   0  0  0  0  0  0  0  0  0  0  0  0
   -7.8010   20.8640  -32.3220 N   0  0  0  0  0  0  0  0  0  0  0  0
   -9.1480   21.4580  -32.3000 C   0  0  0  0  0  0  0  0  0  0  0  0
   -9.4693   21.5997  -31.2575 H   0  0  0  0  0  0  0  0  0  0  0  0
   -9.1282   22.4308  -32.8130 H   0  0  0  0  0  0  0  0  0  0  0  0
   -9.8529   20.7873  -32.8130 H   0  0  0  0  0  0  0  0  0  0  0  0
  1  2  1  0
  2  3  2  0
  3  4  1  0
  4  5  1  0
  5  6  2  0
  6  7  1  0
  7  8  1  0
  7  9  2  0
  9 10  1  0
 10 11  1  0
 10 12  2  0
 12 13  1  0
 12 14  1  0
 14 15  1  0
 14 16  2  0
 16 17  1  0
 17 18  1  0
 18 19  1  0
 18 20  1  0
 18 21  1  0
 16 22  1  0
 22 23  2  0
  4 24  2  0
 24 25  1  0
 24 26  1  0
 26 27  1  0
 27 28  1  0
 28 29  1  0
 28 30  1  0
 28 31  1  0
 27 32  1  0
 32 33  1  0
 32 34  1  0
 32 35  1  0
 26 36  2  0
 36 37  1  0
 36 38  1  0
 38 39  1  0
 39 40  1  0
 39 41  1  0
 39 42  1  0
 38  3  1  0
 23  5  1  0
 22  9  1  0
M  CHG  1  36   1
M  END
>  <UniqueID>  (13) 
13

>  <SMILES>  (13) 
[H]/N=c1/c(-c2ncc3cccc(OC)c3n2)cc(N(C)C)[nH+]n1C

>  <Energy>  (13) 
56.99705926232699

>  <Genealogy>  (13) 
COc1cccc2cnc(-c3cc(N(C)C)[nH+]n(C)c3=N)nc12 (protonated)
[H]/N=c1/c(-c2ncc3cccc(OC)c3n2)cc(N(C)C)[nH+]n1C (cis-trans isomerization)
[H]/N=c1/c(-c2ncc3cccc(OC)c3n2)cc(N(C)C)[nH+]n1C (3D coordinates assigned)
[H]/N=c1/c(-c2ncc3cccc(OC)c3n2)cc(N(C)C)[nH+]n1C (optimized conformer: 56.99705926232699 kcal/mol)

>  <smiles>  (13) 
COc1cccc2cnc(-c3cc(N(C)C)nn(C)c3=N)nc12

>  <score_type>  (13) 
oracle

>  <origin>  (13) 
adg

>  <m_score__min__energy>  (13) 
-6.71

>  <m_primary>  (13) 
energy

$$$$
13:0
     RDKit          3D

 52 54  0  0  0  0  0  0  0  0999 V2000
   -4.5660   22.4323  -28.9777 H   0  0  0  0  0  0  0  0  0  0  0  0
   -3.8800   23.0320  -29.5940 C   0  0  0  0  0  0  0  0  0  0  0  0
   -3.2100   22.3990  -30.5750 C   0  0  0  0  0  0  0  0  0  0  0  0
   -2.2529   22.8344  -30.8981 H   0  0  0  0  0  0  0  0  0  0  0  0
   -3.6700   21.1370  -31.2670 C   0  0  0  0  0  0  0  0  0  0  0  0
   -2.7915   20.5262  -31.5222 H   0  0  0  0  0  0  0  0  0  0  0  0
   -4.3372   20.5878  -30.5864 H   0  0  0  0  0  0  0  0  0  0  0  0
   -4.4160   21.4520  -32.5050 N   0  0  0  0  0  0  0  0  0  0  0  0
   -3.8230   21.2440  -33.3360 H   0  0  0  0  0  0  0  0  0  0  0  0
   -4.5940   22.4740  -32.6020 H   0  0  0  0  0  0  0  0  0  0  0  0
   -5.6610   20.7020  -32.6070 C   0  0  0  0  0  0  0  0  0  0  0  0
   -6.8960   21.3560  -32.3270 C   0  0  0  0  0  0  0  0  0  0  0  0
   -6.9880   22.7640  -32.1760 C   0  0  0  0  0  0  0  0  0  0  0  0
   -6.0697   23.3691  -32.1986 H   0  0  0  0  0  0  0  0  0  0  0  0
   -8.2150   23.3950  -32.0000 C   0  0  0  0  0  0  0  0  0  0  0  0
   -8.2586   24.4880  -31.8844 H   0  0  0  0  0  0  0  0  0  0  0  0
   -9.3830   22.6490  -31.9700 C   0  0  0  0  0  0  0  0  0  0  0  0
  -10.3569   23.1525  -31.8808 H   0  0  0  0  0  0  0  0  0  0  0  0
   -9.3200   21.2610  -32.0530 C   0  0  0  0  0  0  0  0  0  0  0  0
  -10.2508   20.6754  -32.0275 H   0  0  0  0  0  0  0  0  0  0  0  0
   -8.0760   20.5880  -32.1700 C   0  0  0  0  0  0  0  0  0  0  0  0
   -7.9990   19.2170  -32.0920 N   0  0  0  0  0  0  0  0  0  0  0  0
   -9.1220   18.4540  -31.4980 C   0  0  0  0  0  0  0  0  0  0  0  0
   -9.0560   18.4988  -30.4009 H   0  0  0  0  0  0  0  0  0  0  0  0
  -10.0765   18.8913  -31.8261 H   0  0  0  0  0  0  0  0  0  0  0  0
   -9.0670   17.4055  -31.8261 H   0  0  0  0  0  0  0  0  0  0  0  0
   -6.8680   18.5590  -32.5330 C   0  0  0  0  0  0  0  0  0  0  0  0
   -6.8760   17.1490  -32.6810 C   0  0  0  0  0  0  0  0  0  0  0  0
   -7.8058   16.5946  -32.4855 H   0  0  0  0  0  0  0  0  0  0  0  0
   -5.7440   16.4530  -33.0650 C   0  0  0  0  0  0  0  0  0  0  0  0
   -5.7588   15.3536  -33.0986 H   0  0  0  0  0  0  0  0  0  0  0  0
   -4.5960   17.1390  -33.4060 C   0  0  0  0  0  0  0  0  0  0  0  0
   -3.6985   16.5782  -33.7058 H   0  0  0  0  0  0  0  0  0  0  0  0
   -4.5570   18.5360  -33.3760 C   0  0  0  0  0  0  0  0  0  0  0  0
   -3.1050   19.2240  -34.1940 S   0  0  0  0  0  0  0  0  0  0  0  0
   -1.9250   18.4320  -33.0520 C   0  0  0  0  0  0  0  0  0  0  0  0
   -2.2271   18.6347  -32.0139 H   0  0  0  0  0  0  0  0  0  0  0  0
   -1.9185   17.3460  -33.2265 H   0  0  0  0  0  0  0  0  0  0  0  0
   -0.9174   18.8374  -33.2265 H   0  0  0  0  0  0  0  0  0  0  0  0
   -5.6740   19.2860  -32.8560 C   0  0  0  0  0  0  0  0  0  0  0  0
   -3.7610   24.5020  -29.2760 C   0  0  0  0  0  0  0  0  0  0  0  0
   -2.7425   24.7147  -28.9191 H   0  0  0  0  0  0  0  0  0  0  0  0
   -4.4947   24.7601  -28.4982 H   0  0  0  0  0  0  0  0  0  0  0  0
   -4.0320   25.3060  -30.4730 N   0  0  0  0  0  0  0  0  0  0  0  0
   -3.4860   24.8970  -31.2670 H   0  0  0  0  0  0  0  0  0  0  0  0
   -5.4550   25.2430  -30.8200 C   0  0  0  0  0  0  0  0  0  0  0  0
   -5.6850   24.2507  -31.2351 H   0  0  0  0  0  0  0  0  0  0  0  0
   -5.6795   26.0206  -31.5650 H   0  0  0  0  0  0  0  0  0  0  0  0
   -6.3060   25.4800  -29.5780 C   0  0  0  0  0  0  0  0  0  0  0  0
   -5.6966   25.3103  -28.6781 H   0  0  0  0  0  0  0  0  0  0  0  0
   -6.6768   26.5156  -29.5798 H   0  0  0  0  0  0  0  0  0  0  0  0
   -7.1588   24.7852  -29.5798 H   0  0  0  0  0  0  0  0  0  0  0  0
  1  2  1  0
  2  3  2  0
  3  4  1  0
  3  5  1  0
  5  6  1  0
  5  7  1  0
  5  8  1  0
  8  9  1  0
  8 10  1  0
  8 11  1  0
 11 12  2  0
 12 13  1  0
 13 14  1  0
 13 15  2  0
 15 16  1  0
 15 17  1  0
 17 18  1  0
 17 19  2  0
 19 20  1  0
 19 21  1  0
 21 22  2  0
 22 23  1  0
 23 24  1  0
 23 25  1  0
 23 26  1  0
 22 27  1  0
 27 28  2  0
 28 29  1  0
 28 30  1  0
 30 31  1  0
 30 32  2  0
 32 33  1  0
 32 34  1  0
 34 35  1  0
 35 36  1  0
 36 37  1  0
 36 38  1  0
 36 39  1  0
 34 40  2  0
  2 41  1  0
 41 42  1  0
 41 43  1  0
 41 44  1  0
 44 45  1  0
 44 46  1  0
 46 47  1  0
 46 48  1  0
 46 49  1  0
 49 50  1  0
 49 51  1  0
 49 52  1  0
 40 11  1  0
 21 12  1  0
 40 27  1  0
M  CHG  2   8   1  22   1
M  END
>  <UniqueID>  (14) 
14

>  <SMILES>  (14) 
CCNC/C=C\C[NH2+]c1c2ccccc2[n+](C)c2cccc(SC)c12

>  <Energy>  (14) 
83.354194153546

>  <Genealogy>  (14) 
CCNCC=CC[NH2+]c1c2ccccc2[n+](C)c2cccc(SC)c12 (protonated)
CCNC/C=C\C[NH2+]c1c2ccccc2[n+](C)c2cccc(SC)c12 (cis-trans isomerization)
CCNC/C=C\C[NH2+]c1c2ccccc2[n+](C)c2cccc(SC)c12 (3D coordinates assigned)
CCNC/C=C\C[NH2+]c1c2ccccc2[n+](C)c2cccc(SC)c12 (optimized conformer: 83.354194153546 kcal/mol)

>  <smiles>  (14) 
CCNCC=CCNc1c2ccccc2[n+](C)c2cccc(SC)c12

>  <score_type>  (14) 
oracle

>  <origin>  (14) 
adg

>  <m_score__min__energy>  (14) 
-8.5

>  <m_primary>  (14) 
energy

$$$$
14:0
     RDKit          3D

 65 67  0  0  0  0  0  0  0  0999 V2000
   -1.3210   23.0930  -29.6960 C   0  0  0  0  0  0  0  0  0  0  0  0
   -2.7740   22.7020  -30.0490 C   0  0  0  0  0  0  0  0  0  0  0  0
   -3.5350   23.9990  -30.4150 C   0  0  0  0  0  0  0  0  0  0  0  0
   -3.4580   22.0920  -28.8050 C   0  0  0  0  0  0  0  0  0  0  0  0
   -2.7640   21.6620  -31.1900 C   0  0  0  0  0  0  0  0  0  0  0  0
   -1.9360   20.5160  -31.1750 C   0  0  0  0  0  0  0  0  0  0  0  0
   -1.9520   19.6040  -32.2330 C   0  0  0  0  0  0  0  0  0  0  0  0
   -2.7830   19.8010  -33.3380 C   0  0  0  0  0  0  0  0  0  0  0  0
   -2.7450   18.8540  -34.3740 O   0  0  0  0  0  0  0  0  0  0  0  0
   -2.5070   17.4540  -34.2140 C   0  0  0  0  0  0  0  0  0  0  0  0
   -3.7070   16.6410  -34.7330 C   0  0  0  0  0  0  0  0  0  0  0  0
   -5.0110   17.1310  -34.2470 N   0  0  0  0  0  0  0  0  0  0  0  0
   -5.1840   17.0790  -32.7410 C   0  0  0  0  0  0  0  0  0  0  0  0
   -6.5890   17.6680  -32.2920 C   0  0  1  0  0  0  0  0  0  0  0  0
   -6.5840   18.9410  -31.3430 C   0  0  0  0  0  0  0  0  0  0  0  0
   -7.2420   20.1670  -31.9690 N   0  0  0  0  0  0  0  0  0  0  0  0
   -8.6620   20.2850  -31.5670 C   0  0  0  0  0  0  0  0  0  0  0  0
   -8.9220   21.6540  -30.9140 C   0  0  0  0  0  0  0  0  0  0  0  0
   -8.3600   22.8240  -31.7350 C   0  0  0  0  0  0  0  0  0  0  0  0
   -6.7410   23.3650  -31.1910 S   0  0  0  0  0  0  0  0  0  0  0  0
   -6.8640   24.7660  -30.0990 C   0  0  0  0  0  0  0  0  0  0  0  0
   -6.0300   22.2420  -30.4890 O   0  0  0  0  0  0  0  0  0  0  0  0
   -5.9420   23.7640  -32.4010 O   0  0  0  0  0  0  0  0  0  0  0  0
   -7.0430   20.3460  -33.4640 C   0  0  0  0  0  0  0  0  0  0  0  0
   -6.4380   19.0680  -33.9980 C   0  0  2  0  0  0  0  0  0  0  0  0
   -5.5160   18.3570  -34.9670 C   0  0  0  0  0  0  0  0  0  0  0  0
   -7.2450   18.0490  -33.4530 O   0  0  0  0  0  0  0  0  0  0  0  0
   -3.6200   20.9300  -33.3660 C   0  0  0  0  0  0  0  0  0  0  0  0
   -3.6090   21.8440  -32.3090 C   0  0  0  0  0  0  0  0  0  0  0  0
   -1.2050   23.1242  -28.6026 H   0  0  0  0  0  0  0  0  0  0  0  0
   -0.6285   22.3492  -30.1171 H   0  0  0  0  0  0  0  0  0  0  0  0
   -1.0953   24.0838  -30.1171 H   0  0  0  0  0  0  0  0  0  0  0  0
   -3.8394   24.5178  -29.4940 H   0  0  0  0  0  0  0  0  0  0  0  0
   -2.8786   24.6550  -31.0055 H   0  0  0  0  0  0  0  0  0  0  0  0
   -4.4279   23.7460  -31.0055 H   0  0  0  0  0  0  0  0  0  0  0  0
   -2.9972   22.5030  -27.8947 H   0  0  0  0  0  0  0  0  0  0  0  0
   -4.5297   22.3397  -28.8174 H   0  0  0  0  0  0  0  0  0  0  0  0
   -3.3341   20.9991  -28.8174 H   0  0  0  0  0  0  0  0  0  0  0  0
   -1.2695   20.3400  -30.3178 H   0  0  0  0  0  0  0  0  0  0  0  0
   -1.3009   18.7182  -32.1952 H   0  0  0  0  0  0  0  0  0  0  0  0
   -1.6069   17.1727  -34.7803 H   0  0  0  0  0  0  0  0  0  0  0  0
   -2.3654   17.2368  -33.1450 H   0  0  0  0  0  0  0  0  0  0  0  0
   -3.7072   16.6855  -35.8321 H   0  0  0  0  0  0  0  0  0  0  0  0
   -3.5879   15.6152  -34.3541 H   0  0  0  0  0  0  0  0  0  0  0  0
   -5.1136   16.0324  -32.4097 H   0  0  0  0  0  0  0  0  0  0  0  0
   -4.3928   17.6907  -32.2830 H   0  0  0  0  0  0  0  0  0  0  0  0
   -7.0589   16.8685  -31.7004 H   0  0  0  0  0  0  0  0  0  0  0  0
   -7.1247   18.6889  -30.4188 H   0  0  0  0  0  0  0  0  0  0  0  0
   -5.5319   19.1993  -31.1523 H   0  0  0  0  0  0  0  0  0  0  0  0
   -9.3005   20.1805  -32.4566 H   0  0  0  0  0  0  0  0  0  0  0  0
   -8.8944   19.4927  -30.8401 H   0  0  0  0  0  0  0  0  0  0  0  0
  -10.0081   21.7908  -30.8059 H   0  0  0  0  0  0  0  0  0  0  0  0
   -8.4101   21.6579  -29.9404 H   0  0  0  0  0  0  0  0  0  0  0  0
   -8.2868   22.5084  -32.7862 H   0  0  0  0  0  0  0  0  0  0  0  0
   -9.0469   23.6728  -31.6015 H   0  0  0  0  0  0  0  0  0  0  0  0
   -6.8337   24.4209  -29.0550 H   0  0  0  0  0  0  0  0  0  0  0  0
   -6.0224   25.4499  -30.2837 H   0  0  0  0  0  0  0  0  0  0  0  0
   -7.8118   25.2928  -30.2837 H   0  0  0  0  0  0  0  0  0  0  0  0
   -8.0106   20.5359  -33.9516 H   0  0  0  0  0  0  0  0  0  0  0  0
   -6.3825   21.2018  -33.6672 H   0  0  0  0  0  0  0  0  0  0  0  0
   -5.6568   19.8119  -34.2131 H   0  0  0  0  0  0  0  0  0  0  0  0
   -6.0668   18.0666  -35.8738 H   0  0  0  0  0  0  0  0  0  0  0  0
   -4.6861   19.0074  -35.2804 H   0  0  0  0  0  0  0  0  0  0  0  0
   -4.2874   21.0949  -34.2247 H   0  0  0  0  0  0  0  0  0  0  0  0
   -4.2705   22.7220  -32.3482 H   0  0  0  0  0  0  0  0  0  0  0  0
  1  2  1  0
  2  3  1  0
  2  4  1  0
  2  5  1  0
  5  6  2  0
  6  7  1  0
  7  8  2  0
  8  9  1  0
  9 10  1  0
 10 11  1  0
 11 12  1  0
 12 13  1  0
 13 14  1  0
 14 15  1  0
 15 16  1  0
 16 17  1  0
 17 18  1  0
 18 19  1  0
 19 20  1  0
 20 21  1  0
 20 22  2  0
 20 23  2  0
 16 24  1  0
 24 25  1  0
 25 26  1  0
 25 27  1  0
  8 28  1  0
 28 29  2  0
 29  5  1  0
 26 12  1  0
 27 14  1  0
  1 30  1  0
  1 31  1  0
  1 32  1  0
  3 33  1  0
  3 34  1  0
  3 35  1  0
  4 36  1  0
  4 37  1  0
  4 38  1  0
  6 39  1  0
  7 40  1  0
 10 41  1  0
 10 42  1  0
 11 43  1  0
 11 44  1  0
 13 45  1  0
 13 46  1  0
 14 47  1  1
 15 48  1  0
 15 49  1  0
 17 50  1  0
 17 51  1  0
 18 52  1  0
 18 53  1  0
 19 54  1  0
 19 55  1  0
 21 56  1  0
 21 57  1  0
 21 58  1  0
 24 59  1  0
 24 60  1  0
 25 61  1  1
 26 62  1  0
 26 63  1  0
 28 64  1  0
 29 65  1  0
M  END
>  <UniqueID>  (15) 
15

>  <SMILES>  (15) 
CC(C)(C)c1ccc(OCCN2C[C@H]3CN(CCCS(C)(=O)=O)C[C@H](C2)O3)cc1

>  <Energy>  (15) 
174.0528865911057

>  <Genealogy>  (15) 
CC(C)(C)c1ccc(OCCN2C[C@H]3CN(CCCS(C)(=O)=O)C[C@H](C2)O3)cc1 (chirality)
CC(C)(C)c1ccc(OCCN2C[C@H]3CN(CCCS(C)(=O)=O)C[C@H](C2)O3)cc1 (3D coordinates assigned)
CC(C)(C)c1ccc(OCCN2C[C@H]3CN(CCCS(C)(=O)=O)C[C@H](C2)O3)cc1 (nonaromatic ring conformer: 174.0528865911057 kcal/mol)

>  <smiles>  (15) 
CC(C)(C)c1ccc(OCCN2CC3CN(CCCS(C)(=O)=O)CC(C2)O3)cc1

>  <score_type>  (15) 
oracle

>  <origin>  (15) 
adg

>  <m_score__min__energy>  (15) 
-10.779999999999999

>  <m_primary>  (15) 
energy

$$$$
15:0
     RDKit          3D

 43 46  0  0  0  0  0  0  0  0999 V2000
   -5.9390   25.1430  -30.3580 C   0  0  0  0  0  0  0  0  0  0  0  0
   -5.6190   24.1080  -31.4470 C   0  0  2  0  0  0  0  0  0  0  0  0
   -6.7540   23.1720  -31.7190 C   0  0  0  0  0  0  0  0  0  0  0  0
   -8.0750   23.3650  -31.5500 N   0  0  0  0  0  0  0  0  0  0  0  0
   -8.6880   22.2490  -31.9240 N   0  0  0  0  0  0  0  0  0  0  0  0
   -7.7940   21.3680  -32.3550 N   0  0  0  0  0  0  0  0  0  0  0  0
   -8.1020   19.9940  -32.7280 C   0  0  0  0  0  0  0  0  0  0  0  0
   -6.5760   21.9300  -32.2450 C   0  0  0  0  0  0  0  0  0  0  0  0
   -5.2400   21.3070  -32.4970 C   0  0  0  0  0  0  0  0  0  0  0  0
   -4.0850   22.3170  -32.2450 C   0  0  0  0  0  0  0  0  0  0  0  0
   -4.3730   23.3300  -31.1910 N   0  0  0  0  0  0  0  0  0  0  0  0
   -4.0920   22.8730  -29.8050 C   0  0  0  0  0  0  0  0  0  0  0  0
   -3.1040   23.7250  -29.0550 C   0  0  0  0  0  0  0  0  0  0  0  0
   -1.8080   24.0180  -29.4660 C   0  0  0  0  0  0  0  0  0  0  0  0
   -1.1100   24.8290  -28.6270 N   0  0  0  0  0  0  0  0  0  0  0  0
   -1.8400   25.2110  -27.5530 C   0  0  0  0  0  0  0  0  0  0  0  0
   -1.3140   26.0750  -26.4730 C   0  0  0  0  0  0  0  0  0  0  0  0
   -0.4960   27.1780  -26.7850 C   0  0  0  0  0  0  0  0  0  0  0  0
    0.0100   27.9930  -25.7680 C   0  0  0  0  0  0  0  0  0  0  0  0
   -0.2920   27.7200  -24.4330 C   0  0  0  0  0  0  0  0  0  0  0  0
   -1.1010   26.6280  -24.1110 C   0  0  0  0  0  0  0  0  0  0  0  0
   -1.6100   25.8080  -25.1230 C   0  0  0  0  0  0  0  0  0  0  0  0
   -3.3920   24.5550  -27.6210 S   0  0  0  0  0  0  0  0  0  0  0  0
   -5.7982   24.6876  -29.3666 H   0  0  0  0  0  0  0  0  0  0  0  0
   -5.2659   26.0066  -30.4638 H   0  0  0  0  0  0  0  0  0  0  0  0
   -6.9820   25.4760  -30.4638 H   0  0  0  0  0  0  0  0  0  0  0  0
   -5.4499   24.7178  -32.3468 H   0  0  0  0  0  0  0  0  0  0  0  0
   -8.5560   24.2120  -31.1740 H   0  0  0  0  0  0  0  0  0  0  0  0
   -8.2376   19.3890  -31.8194 H   0  0  0  0  0  0  0  0  0  0  0  0
   -9.0269   19.9742  -33.3231 H   0  0  0  0  0  0  0  0  0  0  0  0
   -7.2741   19.5812  -33.3231 H   0  0  0  0  0  0  0  0  0  0  0  0
   -5.1147   20.4453  -31.8248 H   0  0  0  0  0  0  0  0  0  0  0  0
   -5.1991   20.9908  -33.5498 H   0  0  0  0  0  0  0  0  0  0  0  0
   -3.1920   21.7502  -31.9428 H   0  0  0  0  0  0  0  0  0  0  0  0
   -3.9427   22.8722  -33.1839 H   0  0  0  0  0  0  0  0  0  0  0  0
   -5.0389   22.8715  -29.2452 H   0  0  0  0  0  0  0  0  0  0  0  0
   -3.6412   21.8733  -29.8907 H   0  0  0  0  0  0  0  0  0  0  0  0
   -1.3800   23.6234  -30.3993 H   0  0  0  0  0  0  0  0  0  0  0  0
   -0.2538   27.3996  -27.8349 H   0  0  0  0  0  0  0  0  0  0  0  0
    0.6484   28.8524  -26.0209 H   0  0  0  0  0  0  0  0  0  0  0  0
    0.1067   28.3641  -23.6354 H   0  0  0  0  0  0  0  0  0  0  0  0
   -1.3384   26.4124  -23.0588 H   0  0  0  0  0  0  0  0  0  0  0  0
   -2.2457   24.9489  -24.8624 H   0  0  0  0  0  0  0  0  0  0  0  0
  1  2  1  0
  2  3  1  0
  3  4  1  0
  4  5  2  0
  5  6  1  0
  6  7  1  0
  6  8  1  0
  8  9  1  0
  9 10  1  0
 10 11  1  0
 11 12  1  0
 12 13  1  0
 13 14  2  0
 14 15  1  0
 15 16  2  0
 16 17  1  0
 17 18  2  0
 18 19  1  0
 19 20  2  0
 20 21  1  0
 21 22  2  0
 16 23  1  0
 11  2  1  0
 23 13  1  0
  8  3  2  0
 22 17  1  0
  1 24  1  0
  1 25  1  0
  1 26  1  0
  2 27  1  6
  4 28  1  0
  7 29  1  0
  7 30  1  0
  7 31  1  0
  9 32  1  0
  9 33  1  0
 10 34  1  0
 10 35  1  0
 12 36  1  0
 12 37  1  0
 14 38  1  0
 18 39  1  0
 19 40  1  0
 20 41  1  0
 21 42  1  0
 22 43  1  0
M  CHG  1   4   1
M  END
>  <UniqueID>  (16) 
16

>  <SMILES>  (16) 
C[C@@H]1c2[nH+]nn(C)c2CCN1Cc1cnc(-c2ccccc2)s1

>  <Energy>  (16) 
125.73237187819143

>  <Genealogy>  (16) 
CC1c2[nH+]nn(C)c2CCN1Cc1cnc(-c2ccccc2)s1 (protonated)
C[C@@H]1c2[nH+]nn(C)c2CCN1Cc1cnc(-c2ccccc2)s1 (chirality)
C[C@@H]1c2[nH+]nn(C)c2CCN1Cc1cnc(-c2ccccc2)s1 (3D coordinates assigned)
C[C@@H]1c2[nH+]nn(C)c2CCN1Cc1cnc(-c2ccccc2)s1 (nonaromatic ring conformer: 125.73237187819143 kcal/mol)

>  <smiles>  (16) 
CC1c2nnn(C)c2CCN1Cc1cnc(-c2ccccc2)s1

>  <score_type>  (16) 
oracle

>  <origin>  (16) 
adg

>  <m_score__min__energy>  (16) 
-8.3100000000000005

>  <m_primary>  (16) 
energy

$$$$
16:0
     RDKit          3D

 44 46  0  0  0  0  0  0  0  0999 V2000
   -5.7690   25.6810  -30.1850 C   0  0  0  0  0  0  0  0  0  0  0  0
   -5.0100   24.3760  -29.9770 C   0  0  0  0  0  0  0  0  0  0  0  0
   -4.1490   24.1070  -31.1370 N   0  0  0  0  0  0  0  0  0  0  0  0
   -3.3460   22.8900  -30.9370 C   0  0  0  0  0  0  0  0  0  0  0  0
   -3.3240   22.0510  -32.2240 C   0  0  0  0  0  0  0  0  0  0  0  0
   -4.5020   22.2970  -33.0800 N   0  0  0  0  0  0  0  0  0  0  0  0
   -5.5650   21.3340  -32.8490 C   0  0  0  0  0  0  0  0  0  0  0  0
   -6.8340   21.7660  -32.4380 C   0  0  0  0  0  0  0  0  0  0  0  0
   -7.8590   20.8730  -32.2460 C   0  0  0  0  0  0  0  0  0  0  0  0
   -7.6940   19.5190  -32.3800 N   0  0  0  0  0  0  0  0  0  0  0  0
   -8.7820   18.6030  -31.9870 C   0  0  0  0  0  0  0  0  0  0  0  0
   -6.4880   19.0420  -32.8650 C   0  0  0  0  0  0  0  0  0  0  0  0
   -6.3120   17.6760  -33.1940 C   0  0  0  0  0  0  0  0  0  0  0  0
   -5.0770   17.1880  -33.6160 C   0  0  0  0  0  0  0  0  0  0  0  0
   -3.9880   18.0450  -33.7290 C   0  0  0  0  0  0  0  0  0  0  0  0
   -2.2940   17.3600  -34.2880 Br  0  0  0  0  0  0  0  0  0  0  0  0
   -4.1350   19.4030  -33.4560 C   0  0  0  0  0  0  0  0  0  0  0  0
   -5.3820   19.9360  -33.0590 C   0  0  0  0  0  0  0  0  0  0  0  0
   -9.0600   21.6220  -31.8930 C   0  0  0  0  0  0  0  0  0  0  0  0
  -10.2240   21.1490  -31.8050 O   0  0  0  0  0  0  0  0  0  0  0  0
   -8.7560   23.0710  -31.7650 C   0  0  0  0  0  0  0  0  0  0  0  0
   -7.2630   23.1750  -32.1280 C   0  0  0  0  0  0  0  0  0  0  0  0
   -6.0228   26.1173  -29.2077 H   0  0  0  0  0  0  0  0  0  0  0  0
   -5.1397   26.3854  -30.7487 H   0  0  0  0  0  0  0  0  0  0  0  0
   -6.6924   25.4823  -30.7487 H   0  0  0  0  0  0  0  0  0  0  0  0
   -4.3889   24.4556  -29.0726 H   0  0  0  0  0  0  0  0  0  0  0  0
   -5.7305   23.5527  -29.8625 H   0  0  0  0  0  0  0  0  0  0  0  0
   -3.4860   24.9130  -31.2290 H   0  0  0  0  0  0  0  0  0  0  0  0
   -2.3171   23.1734  -30.6704 H   0  0  0  0  0  0  0  0  0  0  0  0
   -3.7932   22.2940  -30.1278 H   0  0  0  0  0  0  0  0  0  0  0  0
   -2.4163   22.3013  -32.7927 H   0  0  0  0  0  0  0  0  0  0  0  0
   -3.3389   20.9906  -31.9319 H   0  0  0  0  0  0  0  0  0  0  0  0
   -4.8650   23.2620  -32.9060 H   0  0  0  0  0  0  0  0  0  0  0  0
   -4.2020   22.3010  -34.0810 H   0  0  0  0  0  0  0  0  0  0  0  0
   -8.8411   18.5533  -30.8897 H   0  0  0  0  0  0  0  0  0  0  0  0
   -9.7365   18.9735  -32.3892 H   0  0  0  0  0  0  0  0  0  0  0  0
   -8.5796   17.5994  -32.3892 H   0  0  0  0  0  0  0  0  0  0  0  0
   -7.1661   16.9873  -33.1150 H   0  0  0  0  0  0  0  0  0  0  0  0
   -4.9632   16.1216  -33.8605 H   0  0  0  0  0  0  0  0  0  0  0  0
   -3.2664   20.0712  -33.5510 H   0  0  0  0  0  0  0  0  0  0  0  0
   -9.3693   23.6617  -32.4614 H   0  0  0  0  0  0  0  0  0  0  0  0
   -8.9743   23.4610  -30.7599 H   0  0  0  0  0  0  0  0  0  0  0  0
   -7.1236   23.8228  -33.0060 H   0  0  0  0  0  0  0  0  0  0  0  0
   -6.6709   23.6153  -31.3122 H   0  0  0  0  0  0  0  0  0  0  0  0
  1  2  1  0
  2  3  1  0
  3  4  1  0
  4  5  1  0
  5  6  1  0
  6  7  1  0
  7  8  2  0
  8  9  1  0
  9 10  2  0
 10 11  1  0
 10 12  1  0
 12 13  2  0
 13 14  1  0
 14 15  2  0
 15 16  1  0
 15 17  1  0
 17 18  2  0
  9 19  1  0
 19 20  2  0
 19 21  1  0
 21 22  1  0
 18  7  1  0
 22  8  1  0
 18 12  1  0
  1 23  1  0
  1 24  1  0
  1 25  1  0
  2 26  1  0
  2 27  1  0
  3 28  1  0
  4 29  1  0
  4 30  1  0
  5 31  1  0
  5 32  1  0
  6 33  1  0
  6 34  1  0
 11 35  1  0
 11 36  1  0
 11 37  1  0
 13 38  1  0
 14 39  1  0
 17 40  1  0
 21 41  1  0
 21 42  1  0
 22 43  1  0
 22 44  1  0
M  CHG  2   6   1  10   1
M  END
>  <UniqueID>  (17) 
17

>  <SMILES>  (17) 
CCNCC[NH2+]c1c2c([n+](C)c3ccc(Br)cc13)C(=O)CC2

>  <Energy>  (17) 
70.70303719211887

>  <Genealogy>  (17) 
CCNCC[NH2+]c1c2c([n+](C)c3ccc(Br)cc13)C(=O)CC2 (protonated)
CCNCC[NH2+]c1c2c([n+](C)c3ccc(Br)cc13)C(=O)CC2 (3D coordinates assigned)
CCNCC[NH2+]c1c2c([n+](C)c3ccc(Br)cc13)C(=O)CC2 (nonaromatic ring conformer: 70.70303719211887 kcal/mol)

>  <smiles>  (17) 
CCNCCNc1c2c([n+](C)c3ccc(Br)cc13)C(=O)CC2

>  <score_type>  (17) 
oracle

>  <origin>  (17) 
adg

>  <m_score__min__energy>  (17) 
-8.2100000000000009

>  <m_primary>  (17) 
energy

$$$$
17:0
     RDKit          3D

 51 53  0  0  0  0  0  0  0  0999 V2000
   -5.9850   25.7460  -29.6970 C   0  0  0  0  0  0  0  0  0  0  0  0
   -5.9880   24.4350  -30.4340 C   0  0  0  0  0  0  0  0  0  0  0  0
   -7.2060   23.8270  -30.7790 C   0  0  0  0  0  0  0  0  0  0  0  0
   -7.2230   22.6220  -31.4890 C   0  0  0  0  0  0  0  0  0  0  0  0
   -8.9190   21.8460  -31.9370 Br  0  0  0  0  0  0  0  0  0  0  0  0
   -6.0150   22.0160  -31.8640 C   0  0  0  0  0  0  0  0  0  0  0  0
   -5.9760   20.3730  -32.8500 Br  0  0  0  0  0  0  0  0  0  0  0  0
   -4.8000   22.6180  -31.5260 C   0  0  0  0  0  0  0  0  0  0  0  0
   -4.7740   23.8300  -30.8080 C   0  0  0  0  0  0  0  0  0  0  0  0
   -3.5680   24.4600  -30.4520 O   0  0  0  0  0  0  0  0  0  0  0  0
   -2.4360   23.8150  -29.8690 C   0  0  0  0  0  0  0  0  0  0  0  0
   -1.9030   24.5990  -28.6990 C   0  0  0  0  0  0  0  0  0  0  0  0
   -2.7020   25.0240  -27.8240 O   0  0  0  0  0  0  0  0  0  0  0  0
   -0.5130   24.9300  -28.5810 N   0  0  0  0  0  0  0  0  0  0  0  0
    0.5530   23.9900  -28.2510 C   0  0  0  0  0  0  0  0  0  0  0  0
    0.0580   22.9420  -27.2880 C   0  0  0  0  0  0  0  0  0  0  0  0
   -0.3610   23.2260  -26.0420 C   0  0  0  0  0  0  0  0  0  0  0  0
    0.1670   24.3950  -25.2430 C   0  0  0  0  0  0  0  0  0  0  0  0
   -0.3160   25.6890  -25.7890 N   0  0  2  0  0  0  0  0  0  0  0  0
    0.7020   26.6210  -26.3060 C   0  0  1  0  0  0  0  0  0  0  0  0
   -0.0870   27.9120  -26.5840 C   0  0  0  0  0  0  0  0  0  0  0  0
   -1.2570   27.8590  -25.5970 C   0  0  0  0  0  0  0  0  0  0  0  0
   -1.0490   26.5380  -24.8350 C   0  0  2  0  0  0  0  0  0  0  0  0
   -0.2160   26.8000  -23.5500 C   0  0  0  0  0  0  0  0  0  0  0  0
    1.2330   27.1150  -23.8660 C   0  0  0  0  0  0  0  0  0  0  0  0
    1.9660   27.5040  -22.9710 O   0  0  0  0  0  0  0  0  0  0  0  0
    1.8090   26.9020  -25.2520 C   0  0  0  0  0  0  0  0  0  0  0  0
   -5.9854   25.5574  -28.6133 H   0  0  0  0  0  0  0  0  0  0  0  0
   -5.0855   26.3177  -29.9693 H   0  0  0  0  0  0  0  0  0  0  0  0
   -6.8818   26.3218  -29.9693 H   0  0  0  0  0  0  0  0  0  0  0  0
   -8.1545   24.3023  -30.4885 H   0  0  0  0  0  0  0  0  0  0  0  0
   -3.8545   22.1409  -31.8234 H   0  0  0  0  0  0  0  0  0  0  0  0
   -2.7323   22.8133  -29.5242 H   0  0  0  0  0  0  0  0  0  0  0  0
   -1.6451   23.7459  -30.6303 H   0  0  0  0  0  0  0  0  0  0  0  0
    0.8999   23.4991  -29.1723 H   0  0  0  0  0  0  0  0  0  0  0  0
    1.3790   24.5425  -27.7794 H   0  0  0  0  0  0  0  0  0  0  0  0
    0.0384   21.8936  -27.6203 H   0  0  0  0  0  0  0  0  0  0  0  0
   -1.1226   22.5780  -25.5837 H   0  0  0  0  0  0  0  0  0  0  0  0
   -0.1716   24.2979  -24.2009 H   0  0  0  0  0  0  0  0  0  0  0  0
    1.2655   24.3844  -25.3000 H   0  0  0  0  0  0  0  0  0  0  0  0
   -0.9790   25.4570  -26.5710 H   0  0  0  0  0  0  0  0  0  0  0  0
    1.2147   26.2165  -27.1912 H   0  0  0  0  0  0  0  0  0  0  0  0
   -0.4525   27.9298  -27.6213 H   0  0  0  0  0  0  0  0  0  0  0  0
    0.5277   28.8158  -26.4598 H   0  0  0  0  0  0  0  0  0  0  0  0
   -2.2184   27.8538  -26.1316 H   0  0  0  0  0  0  0  0  0  0  0  0
   -1.2834   28.7316  -24.9278 H   0  0  0  0  0  0  0  0  0  0  0  0
   -1.9872   26.0679  -24.5053 H   0  0  0  0  0  0  0  0  0  0  0  0
   -0.2538   25.9036  -22.9135 H   0  0  0  0  0  0  0  0  0  0  0  0
   -0.6487   27.6714  -23.0368 H   0  0  0  0  0  0  0  0  0  0  0  0
    2.4972   26.0444  -25.2226 H   0  0  0  0  0  0  0  0  0  0  0  0
    2.3331   27.8230  -25.5472 H   0  0  0  0  0  0  0  0  0  0  0  0
  1  2  1  0
  2  3  2  0
  3  4  1  0
  4  5  1  0
  4  6  2  0
  6  7  1  0
  6  8  1  0
  8  9  2  0
  9 10  1  0
 10 11  1  0
 11 12  1  0
 12 13  2  0
 12 14  1  0
 14 15  1  0
 15 16  1  0
 16 17  2  3
 17 18  1  0
 18 19  1  0
 19 20  1  0
 20 21  1  0
 21 22  1  0
 22 23  1  0
 23 24  1  0
 24 25  1  0
 25 26  2  0
 25 27  1  0
  9  2  1  0
 23 19  1  0
 27 20  1  0
  1 28  1  0
  1 29  1  0
  1 30  1  0
  3 31  1  0
  8 32  1  0
 11 33  1  0
 11 34  1  0
 15 35  1  0
 15 36  1  0
 16 37  1  0
 17 38  1  0
 18 39  1  0
 18 40  1  0
 19 41  1  6
 20 42  1  6
 21 43  1  0
 21 44  1  0
 22 45  1  0
 22 46  1  0
 23 47  1  1
 24 48  1  0
 24 49  1  0
 27 50  1  0
 27 51  1  0
M  CHG  2  14  -1  19   1
M  END
>  <UniqueID>  (18) 
18

>  <SMILES>  (18) 
Cc1cc(Br)c(Br)cc1OCC(=O)[N-]CC=CC[NH+]1[C@@H]2CC[C@H]1CC(=O)C2

>  <Energy>  (18) 
63.051166754145164

>  <Genealogy>  (18) 
Cc1cc(Br)c(Br)cc1OCC(=O)[N-]CC=CC[NH+]1C2CCC1CC(=O)C2 (protonated)
Cc1cc(Br)c(Br)cc1OCC(=O)[N-]CC=CC[NH+]1[C@@H]2CC[C@H]1CC(=O)C2 (chirality)
Cc1cc(Br)c(Br)cc1OCC(=O)[N-]CC=CC[NH+]1[C@@H]2CC[C@H]1CC(=O)C2 (3D coordinates assigned)
Cc1cc(Br)c(Br)cc1OCC(=O)[N-]CC=CC[NH+]1[C@@H]2CC[C@H]1CC(=O)C2 (nonaromatic ring conformer: 63.051166754145164 kcal/mol)

>  <smiles>  (18) 
Cc1cc(Br)c(Br)cc1OCC(=O)NCC=CCN1C2CCC1CC(=O)C2

>  <score_type>  (18) 
oracle

>  <origin>  (18) 
adg

>  <m_score__min__energy>  (18) 
-11.109999999999999

>  <m_primary>  (18) 
energy

$$$$
