0:0
     RDKit          3D

 77 81  0  0  0  0  0  0  0  0999 V2000
   -2.9570   18.9660  -26.3630 C   0  0  0  0  0  0  0  0  0  0  0  0
   -1.6960   19.8390  -26.3360 C   0  0  0  0  0  0  0  0  0  0  0  0
   -0.9900   19.8740  -27.6430 N   0  0  1  0  0  0  0  0  0  0  0  0
   -0.2250   18.6260  -27.8600 C   0  0  0  0  0  0  0  0  0  0  0  0
   -1.9710   20.0800  -28.7420 C   0  0  0  0  0  0  0  0  0  0  0  0
   -1.3140   20.6490  -30.0150 C   0  0  0  0  0  0  0  0  0  0  0  0
   -1.9120   21.9330  -30.3870 N   0  0  0  0  0  0  0  0  0  0  0  0
   -2.3550   22.8730  -29.4010 C   0  0  0  0  0  0  0  0  0  0  0  0
   -1.4850   23.3060  -28.3700 C   0  0  0  0  0  0  0  0  0  0  0  0
   -0.1200   22.9530  -28.3820 C   0  0  0  0  0  0  0  0  0  0  0  0
    0.7410   23.3950  -27.3800 C   0  0  0  0  0  0  0  0  0  0  0  0
    0.2660   24.2150  -26.3620 C   0  0  0  0  0  0  0  0  0  0  0  0
   -1.0730   24.6010  -26.3370 C   0  0  0  0  0  0  0  0  0  0  0  0
   -1.9840   24.1500  -27.3240 C   0  0  0  0  0  0  0  0  0  0  0  0
   -3.3170   24.5260  -27.3090 N   0  0  0  0  0  0  0  0  0  0  0  0
   -3.8930   25.2910  -26.1880 C   0  0  0  0  0  0  0  0  0  0  0  0
   -4.0980   24.2060  -28.3890 C   0  0  0  0  0  0  0  0  0  0  0  0
   -5.3560   24.6470  -28.6120 N   0  0  0  0  0  0  0  0  0  0  0  0
   -5.7160   24.1170  -29.7930 C   0  0  0  0  0  0  0  0  0  0  0  0
   -6.9240   24.3430  -30.4480 C   0  0  0  0  0  0  0  0  0  0  0  0
   -7.1170   23.7570  -31.7010 C   0  0  0  0  0  0  0  0  0  0  0  0
   -6.1070   22.9670  -32.2810 C   0  0  0  0  0  0  0  0  0  0  0  0
   -4.8790   22.7460  -31.6140 C   0  0  0  0  0  0  0  0  0  0  0  0
   -3.8890   21.9400  -32.1820 O   0  0  0  0  0  0  0  0  0  0  0  0
   -4.1170   21.0180  -33.2500 C   0  0  0  0  0  0  0  0  0  0  0  0
   -4.4970   19.6240  -32.6880 C   0  0  0  0  0  0  0  0  0  0  0  0
   -5.7950   19.0510  -33.1830 N   0  0  0  0  0  0  0  0  0  0  0  0
   -5.7310   18.8500  -34.6560 C   0  0  0  0  0  0  0  0  0  0  0  0
   -6.0730   17.7300  -32.5160 C   0  0  0  0  0  0  0  0  0  0  0  0
   -6.8940   17.8660  -31.2240 C   0  0  0  0  0  0  0  0  0  0  0  0
   -8.2810   18.4600  -31.5140 C   0  0  0  0  0  0  0  0  0  0  0  0
   -8.2680   19.4180  -32.7170 C   0  0  0  0  0  0  0  0  0  0  0  0
   -6.8800   20.0570  -32.8980 C   0  0  0  0  0  0  0  0  0  0  0  0
   -4.7120   23.3340  -30.3400 C   0  0  0  0  0  0  0  0  0  0  0  0
   -3.6530   23.3990  -29.4240 C   0  0  0  0  0  0  0  0  0  0  0  0
   -3.2734   18.7469  -25.3325 H   0  0  0  0  0  0  0  0  0  0  0  0
   -3.7622   19.5010  -26.8879 H   0  0  0  0  0  0  0  0  0  0  0  0
   -2.7397   18.0241  -26.8879 H   0  0  0  0  0  0  0  0  0  0  0  0
   -1.9851   20.8653  -26.0655 H   0  0  0  0  0  0  0  0  0  0  0  0
   -1.0064   19.4009  -25.5995 H   0  0  0  0  0  0  0  0  0  0  0  0
   -0.3190   20.6790  -27.6310 H   0  0  0  0  0  0  0  0  0  0  0  0
    0.0440   18.1871  -26.8879 H   0  0  0  0  0  0  0  0  0  0  0  0
   -0.8409   17.9122  -28.4267 H   0  0  0  0  0  0  0  0  0  0  0  0
    0.6905   18.8510  -28.4267 H   0  0  0  0  0  0  0  0  0  0  0  0
   -2.4365   19.1137  -28.9861 H   0  0  0  0  0  0  0  0  0  0  0  0
   -2.7171   20.8095  -28.3941 H   0  0  0  0  0  0  0  0  0  0  0  0
   -0.2391   20.7930  -29.8311 H   0  0  0  0  0  0  0  0  0  0  0  0
   -1.4730   19.9374  -30.8386 H   0  0  0  0  0  0  0  0  0  0  0  0
   -1.8560   22.2510  -31.3810 H   0  0  0  0  0  0  0  0  0  0  0  0
    0.2701   22.3204  -29.1930 H   0  0  0  0  0  0  0  0  0  0  0  0
    1.7991   23.0947  -27.3940 H   0  0  0  0  0  0  0  0  0  0  0  0
    0.9502   24.5605  -25.5730 H   0  0  0  0  0  0  0  0  0  0  0  0
   -1.4286   25.2673  -25.5372 H   0  0  0  0  0  0  0  0  0  0  0  0
   -3.5619   24.8513  -25.2356 H   0  0  0  0  0  0  0  0  0  0  0  0
   -3.5559   26.3365  -26.2460 H   0  0  0  0  0  0  0  0  0  0  0  0
   -4.9909   25.2560  -26.2460 H   0  0  0  0  0  0  0  0  0  0  0  0
   -5.9300   25.3070  -28.0430 H   0  0  0  0  0  0  0  0  0  0  0  0
   -7.7059   24.9669  -29.9904 H   0  0  0  0  0  0  0  0  0  0  0  0
   -8.0642   23.9139  -32.2378 H   0  0  0  0  0  0  0  0  0  0  0  0
   -6.2751   22.5139  -33.2692 H   0  0  0  0  0  0  0  0  0  0  0  0
   -4.9372   21.3902  -33.8814 H   0  0  0  0  0  0  0  0  0  0  0  0
   -3.1958   20.9245  -33.8438 H   0  0  0  0  0  0  0  0  0  0  0  0
   -3.6940   18.9217  -32.9561 H   0  0  0  0  0  0  0  0  0  0  0  0
   -4.6260   19.7637  -31.6046 H   0  0  0  0  0  0  0  0  0  0  0  0
   -5.4038   17.8222  -34.8719 H   0  0  0  0  0  0  0  0  0  0  0  0
   -6.7268   19.0171  -35.0925 H   0  0  0  0  0  0  0  0  0  0  0  0
   -5.0152   19.5621  -35.0925 H   0  0  0  0  0  0  0  0  0  0  0  0
   -6.6303   17.0936  -33.2191 H   0  0  0  0  0  0  0  0  0  0  0  0
   -5.1023   17.2910  -32.2422 H   0  0  0  0  0  0  0  0  0  0  0  0
   -7.0162   16.8720  -30.7689 H   0  0  0  0  0  0  0  0  0  0  0  0
   -6.3600   18.5403  -30.5383 H   0  0  0  0  0  0  0  0  0  0  0  0
   -8.9806   17.6377  -31.7247 H   0  0  0  0  0  0  0  0  0  0  0  0
   -8.5910   19.0360  -30.6296 H   0  0  0  0  0  0  0  0  0  0  0  0
   -8.5269   18.8565  -33.6268 H   0  0  0  0  0  0  0  0  0  0  0  0
   -9.0012   20.2178  -32.5360 H   0  0  0  0  0  0  0  0  0  0  0  0
   -6.9285   20.7660  -33.7377 H   0  0  0  0  0  0  0  0  0  0  0  0
   -6.6235   20.5543  -31.9510 H   0  0  0  0  0  0  0  0  0  0  0  0
  1  2  1  0
  2  3  1  0
  3  4  1  0
  3  5  1  0
  5  6  1  0
  6  7  1  0
  7  8  1  0
  8  9  2  0
  9 10  1  0
 10 11  2  0
 11 12  1  0
 12 13  2  0
 13 14  1  0
 14 15  2  0
 15 16  1  0
 15 17  1  0
 17 18  1  0
 18 19  1  0
 19 20  2  0
 20 21  1  0
 21 22  2  0
 22 23  1  0
 23 24  1  0
 24 25  1  0
 25 26  1  0
 26 27  1  0
 27 28  1  0
 27 29  1  0
 29 30  1  0
 30 31  1  0
 31 32  1  0
 32 33  1  0
 23 34  2  0
 34 35  1  0
 35  8  1  0
 14  9  1  0
 35 17  2  0
 34 19  1  0
 33 27  1  0
  1 36  1  0
  1 37  1  0
  1 38  1  0
  2 39  1  0
  2 40  1  0
  3 41  1  1
  4 42  1  0
  4 43  1  0
  4 44  1  0
  5 45  1  0
  5 46  1  0
  6 47  1  0
  6 48  1  0
  7 49  1  0
 10 50  1  0
 11 51  1  0
 12 52  1  0
 13 53  1  0
 16 54  1  0
 16 55  1  0
 16 56  1  0
 18 57  1  0
 20 58  1  0
 21 59  1  0
 22 60  1  0
 25 61  1  0
 25 62  1  0
 26 63  1  0
 26 64  1  0
 28 65  1  0
 28 66  1  0
 28 67  1  0
 29 68  1  0
 29 69  1  0
 30 70  1  0
 30 71  1  0
 31 72  1  0
 31 73  1  0
 32 74  1  0
 32 75  1  0
 33 76  1  0
 33 77  1  0
M  CHG  3   3   1  15   1  27   1
M  END
>  <UniqueID>  (1) 
1

>  <SMILES>  (1) 
CC[N@@H+](C)CCNc1c2ccccc2[n+](C)c2[nH]c3cccc(OCC[N+]4(C)CCCCC4)c3c12

>  <Energy>  (1) 
159.46446968061966

>  <Genealogy>  (1) 
CC[NH+](C)CCNc1c2ccccc2[n+](C)c2[nH]c3cccc(OCC[N+]4(C)CCCCC4)c3c12 (protonated)
CC[N@@H+](C)CCNc1c2ccccc2[n+](C)c2[nH]c3cccc(OCC[N+]4(C)CCCCC4)c3c12 (chirality)
CC[N@@H+](C)CCNc1c2ccccc2[n+](C)c2[nH]c3cccc(OCC[N+]4(C)CCCCC4)c3c12 (3D coordinates assigned)
CC[N@@H+](C)CCNc1c2ccccc2[n+](C)c2[nH]c3cccc(OCC[N+]4(C)CCCCC4)c3c12 (nonaromatic ring conformer: 159.46446968061966 kcal/mol)

>  <smiles>  (1) 
CCN(C)CCNc1c2ccccc2[n+](C)c2[nH]c3cccc(OCC[N+]4(C)CCCCC4)c3c12

>  <score_type>  (1) 
oracle

>  <origin>  (1) 
adg

>  <m_score__min__energy>  (1) 
-8.0299999999999994

>  <m_primary>  (1) 
energy

$$$$
1:0
     RDKit          3D

 42 44  0  0  0  0  0  0  0  0999 V2000
   -9.3740   19.6250  -32.6510 C   0  0  0  0  0  0  0  0  0  0  0  0
   -8.3500   19.2070  -31.6000 C   0  0  0  0  0  0  0  0  0  0  0  0
   -7.6490   17.8800  -31.9430 C   0  0  0  0  0  0  0  0  0  0  0  0
   -7.3540   17.7390  -33.3820 N   0  0  0  0  0  0  0  0  0  0  0  0
   -6.0180   17.1820  -33.6540 C   0  0  0  0  0  0  0  0  0  0  0  0
   -5.0260   17.5960  -32.5610 C   0  0  0  0  0  0  0  0  0  0  0  0
   -4.0820   18.6620  -33.0400 C   0  0  0  0  0  0  0  0  0  0  0  0
   -4.3310   20.0170  -33.3440 C   0  0  0  0  0  0  0  0  0  0  0  0
   -5.6300   20.7180  -33.2330 C   0  0  0  0  0  0  0  0  0  0  0  0
   -6.6030   20.3320  -33.9360 O   0  0  0  0  0  0  0  0  0  0  0  0
   -5.8100   21.8830  -32.3370 C   0  0  0  0  0  0  0  0  0  0  0  0
   -7.0820   22.4490  -32.1300 C   0  0  0  0  0  0  0  0  0  0  0  0
   -7.2360   23.5580  -31.2910 C   0  0  0  0  0  0  0  0  0  0  0  0
   -6.1230   24.1200  -30.6610 C   0  0  0  0  0  0  0  0  0  0  0  0
   -6.3360   25.6360  -29.5190 Br  0  0  0  0  0  0  0  0  0  0  0  0
   -4.8530   23.5760  -30.8730 C   0  0  0  0  0  0  0  0  0  0  0  0
   -4.6950   22.4680  -31.7100 C   0  0  0  0  0  0  0  0  0  0  0  0
   -3.2060   20.6120  -33.8350 N   0  0  0  0  0  0  0  0  0  0  0  0
   -2.2760   19.6450  -33.8320 C   0  0  0  0  0  0  0  0  0  0  0  0
   -0.9590   19.6100  -34.2680 C   0  0  0  0  0  0  0  0  0  0  0  0
   -0.0090   21.0940  -35.0020 Br  0  0  0  0  0  0  0  0  0  0  0  0
   -0.4250   18.3230  -34.1110 C   0  0  0  0  0  0  0  0  0  0  0  0
   -1.6100   17.2750  -33.4530 S   0  0  0  0  0  0  0  0  0  0  0  0
   -2.7610   18.4890  -33.3710 C   0  0  0  0  0  0  0  0  0  0  0  0
  -10.2815   19.9954  -32.1518 H   0  0  0  0  0  0  0  0  0  0  0  0
   -8.9499   20.4220  -33.2795 H   0  0  0  0  0  0  0  0  0  0  0  0
   -9.6288   18.7589  -33.2795 H   0  0  0  0  0  0  0  0  0  0  0  0
   -7.5879   19.9961  -31.5188 H   0  0  0  0  0  0  0  0  0  0  0  0
   -8.8894   19.0608  -30.6526 H   0  0  0  0  0  0  0  0  0  0  0  0
   -6.7027   17.8289  -31.3845 H   0  0  0  0  0  0  0  0  0  0  0  0
   -8.3338   17.0649  -31.6660 H   0  0  0  0  0  0  0  0  0  0  0  0
   -7.4600   18.6570  -33.8730 H   0  0  0  0  0  0  0  0  0  0  0  0
   -6.0838   16.0844  -33.6851 H   0  0  0  0  0  0  0  0  0  0  0  0
   -5.6627   17.5704  -34.6199 H   0  0  0  0  0  0  0  0  0  0  0  0
   -5.5880   17.9800  -31.6968 H   0  0  0  0  0  0  0  0  0  0  0  0
   -4.4323   16.7120  -32.2850 H   0  0  0  0  0  0  0  0  0  0  0  0
   -7.9606   22.0166  -32.6311 H   0  0  0  0  0  0  0  0  0  0  0  0
   -8.2351   23.9881  -31.1272 H   0  0  0  0  0  0  0  0  0  0  0  0
   -3.9761   24.0209  -30.3800 H   0  0  0  0  0  0  0  0  0  0  0  0
   -3.6916   22.0504  -31.8797 H   0  0  0  0  0  0  0  0  0  0  0  0
   -3.0960   21.5880  -34.1880 H   0  0  0  0  0  0  0  0  0  0  0  0
    0.6026   18.0296  -34.3717 H   0  0  0  0  0  0  0  0  0  0  0  0
  1  2  1  0
  2  3  1  0
  3  4  1  0
  4  5  1  0
  5  6  1  0
  6  7  1  0
  7  8  2  0
  8  9  1  0
  9 10  2  0
  9 11  1  0
 11 12  2  0
 12 13  1  0
 13 14  2  0
 14 15  1  0
 14 16  1  0
 16 17  2  0
  8 18  1  0
 18 19  1  0
 19 20  1  0
 20 21  1  0
 20 22  2  0
 22 23  1  0
 23 24  1  0
 24  7  1  0
 17 11  1  0
 24 19  2  0
  1 25  1  0
  1 26  1  0
  1 27  1  0
  2 28  1  0
  2 29  1  0
  3 30  1  0
  3 31  1  0
  4 32  1  0
  5 33  1  0
  5 34  1  0
  6 35  1  0
  6 36  1  0
 12 37  1  0
 13 38  1  0
 16 39  1  0
 17 40  1  0
 18 41  1  0
 22 42  1  0
M  END
>  <UniqueID>  (2) 
2

>  <SMILES>  (2) 
CCCNCCc1c(C(=O)c2ccc(Br)cc2)[nH]c2c(Br)csc12

>  <Energy>  (2) 
117.33064942178441

>  <Genealogy>  (2) 
CCCNCCc1c(C(=O)c2ccc(Br)cc2)[nH]c2c(Br)csc12 (3D coordinates assigned)
CCCNCCc1c(C(=O)c2ccc(Br)cc2)[nH]c2c(Br)csc12 (optimized conformer: 117.33064942178441 kcal/mol)

>  <smiles>  (2) 
CCCNCCc1c(C(=O)c2ccc(Br)cc2)[nH]c2c(Br)csc12

>  <score_type>  (2) 
oracle

>  <origin>  (2) 
adg

>  <m_score__min__energy>  (2) 
-9.0800000000000001

>  <m_primary>  (2) 
energy

$$$$
2:0
     RDKit          3D

 55 57  0  0  0  0  0  0  0  0999 V2000
   -6.1802   18.6192  -31.2342 H   0  0  0  0  0  0  0  0  0  0  0  0
   -6.9390   18.4080  -32.0020 C   0  0  0  0  0  0  0  0  0  0  0  0
   -6.5250   18.0450  -33.2350 C   0  0  0  0  0  0  0  0  0  0  0  0
   -6.5000   16.5820  -33.5880 C   0  0  0  0  0  0  0  0  0  0  0  0
   -6.4898   15.9824  -32.6658 H   0  0  0  0  0  0  0  0  0  0  0  0
   -7.3940   16.3319  -34.1781 H   0  0  0  0  0  0  0  0  0  0  0  0
   -5.5980   16.3625  -34.1781 H   0  0  0  0  0  0  0  0  0  0  0  0
   -6.0890   19.0710  -34.2560 C   0  0  0  0  0  0  0  0  0  0  0  0
   -5.7093   19.9645  -33.7388 H   0  0  0  0  0  0  0  0  0  0  0  0
   -5.2936   18.6463  -34.8861 H   0  0  0  0  0  0  0  0  0  0  0  0
   -6.9468   19.3488  -34.8861 H   0  0  0  0  0  0  0  0  0  0  0  0
   -8.3960   18.5370  -31.6300 C   0  0  0  0  0  0  0  0  0  0  0  0
   -8.9150   17.6018  -31.8871 H   0  0  0  0  0  0  0  0  0  0  0  0
   -8.4608   18.7359  -30.5501 H   0  0  0  0  0  0  0  0  0  0  0  0
   -9.0640   19.6990  -32.3750 C   0  0  0  0  0  0  0  0  0  0  0  0
   -8.8183   19.6320  -33.4451 H   0  0  0  0  0  0  0  0  0  0  0  0
  -10.1527   19.6349  -32.2315 H   0  0  0  0  0  0  0  0  0  0  0  0
   -8.5760   21.0250  -31.8340 C   0  0  0  0  0  0  0  0  0  0  0  0
   -7.6540   21.7190  -32.5410 C   0  0  0  0  0  0  0  0  0  0  0  0
   -7.1070   21.1814  -33.3295 H   0  0  0  0  0  0  0  0  0  0  0  0
   -7.3180   23.1850  -32.3270 C   0  0  0  0  0  0  0  0  0  0  0  0
   -7.6770   23.7557  -33.1962 H   0  0  0  0  0  0  0  0  0  0  0  0
   -7.8083   23.4982  -31.3935 H   0  0  0  0  0  0  0  0  0  0  0  0
   -5.8690   23.4370  -32.1660 N   0  0  1  0  0  0  0  0  0  0  0  0
   -5.4550   23.5900  -33.1140 H   0  0  0  0  0  0  0  0  0  0  0  0
   -5.5420   24.9230  -31.2290 S   0  0  0  0  0  0  0  0  0  0  0  0
   -4.0120   24.2430  -30.6900 N   0  0  0  0  0  0  0  0  0  0  0  0
   -4.0180   22.9620  -30.7850 C   0  0  0  0  0  0  0  0  0  0  0  0
   -2.8430   22.1720  -30.8290 N   0  0  0  0  0  0  0  0  0  0  0  0
   -1.5010   22.6840  -30.5480 C   0  0  0  0  0  0  0  0  0  0  0  0
   -0.7761   21.8592  -30.6128 H   0  0  0  0  0  0  0  0  0  0  0  0
   -1.2510   23.4613  -31.2851 H   0  0  0  0  0  0  0  0  0  0  0  0
   -1.4530   23.2810  -29.1680 C   0  0  0  0  0  0  0  0  0  0  0  0
   -1.4490   24.6770  -29.0070 C   0  0  0  0  0  0  0  0  0  0  0  0
   -1.4506   25.3309  -29.8916 H   0  0  0  0  0  0  0  0  0  0  0  0
   -1.4430   25.2380  -27.7250 C   0  0  0  0  0  0  0  0  0  0  0  0
   -1.4336   26.3312  -27.6036 H   0  0  0  0  0  0  0  0  0  0  0  0
   -1.4490   24.4100  -26.5980 C   0  0  0  0  0  0  0  0  0  0  0  0
   -1.4411   24.8522  -25.5908 H   0  0  0  0  0  0  0  0  0  0  0  0
   -1.4650   23.0200  -26.7510 C   0  0  0  0  0  0  0  0  0  0  0  0
   -1.4729   22.3696  -25.8639 H   0  0  0  0  0  0  0  0  0  0  0  0
   -1.4710   22.4560  -28.0310 C   0  0  0  0  0  0  0  0  0  0  0  0
   -1.4899   21.3624  -28.1478 H   0  0  0  0  0  0  0  0  0  0  0  0
   -3.1050   21.0340  -31.7060 C   0  0  0  0  0  0  0  0  0  0  0  0
   -3.1384   20.1020  -31.1226 H   0  0  0  0  0  0  0  0  0  0  0  0
   -2.3143   20.9184  -32.4619 H   0  0  0  0  0  0  0  0  0  0  0  0
   -4.4770   21.3060  -32.3610 C   0  0  0  0  0  0  0  0  0  0  0  0
   -5.0745   20.3833  -32.4010 H   0  0  0  0  0  0  0  0  0  0  0  0
   -4.3736   21.6634  -33.3962 H   0  0  0  0  0  0  0  0  0  0  0  0
   -5.1570   22.3490  -31.4600 C   0  0  2  0  0  0  0  0  0  0  0  0
   -5.9218   21.8574  -30.8407 H   0  0  0  0  0  0  0  0  0  0  0  0
   -9.1210   21.5250  -30.5160 C   0  0  0  0  0  0  0  0  0  0  0  0
   -8.5868   21.0349  -29.6887 H   0  0  0  0  0  0  0  0  0  0  0  0
   -8.9793   22.6138  -30.4500 H   0  0  0  0  0  0  0  0  0  0  0  0
  -10.1936   21.2902  -30.4500 H   0  0  0  0  0  0  0  0  0  0  0  0
  1  2  1  0
  2  3  2  3
  3  4  1  0
  4  5  1  0
  4  6  1  0
  4  7  1  0
  3  8  1  0
  8  9  1  0
  8 10  1  0
  8 11  1  0
  2 12  1  0
 12 13  1  0
 12 14  1  0
 12 15  1  0
 15 16  1  0
 15 17  1  0
 15 18  1  0
 18 19  2  0
 19 20  1  0
 19 21  1  0
 21 22  1  0
 21 23  1  0
 21 24  1  0
 24 25  1  6
 24 26  1  0
 26 27  1  0
 27 28  2  0
 28 29  1  0
 29 30  1  0
 30 31  1  0
 30 32  1  0
 30 33  1  0
 33 34  2  0
 34 35  1  0
 34 36  1  0
 36 37  1  0
 36 38  2  0
 38 39  1  0
 38 40  1  0
 40 41  1  0
 40 42  2  0
 42 43  1  0
 29 44  1  0
 44 45  1  0
 44 46  1  0
 44 47  1  0
 47 48  1  0
 47 49  1  0
 47 50  1  0
 50 51  1  1
 18 52  1  0
 52 53  1  0
 52 54  1  0
 52 55  1  0
 50 24  1  0
 50 28  1  0
 42 33  1  0
M  CHG  1  24   1
M  END
>  <UniqueID>  (3) 
3

>  <SMILES>  (3) 
CC(C)=CCC/C(C)=C/C[N@H+]1SN=C2[C@@H]1CCN2Cc1ccccc1

>  <Energy>  (3) 
69.67034476830564

>  <Genealogy>  (3) 
CC(C)=CCCC(C)=CC[NH+]1SN=C2C1CCN2Cc1ccccc1 (protonated)
CC(C)=CCCC(C)=CC[N@H+]1SN=C2[C@@H]1CCN2Cc1ccccc1 (chirality)
CC(C)=CCC/C(C)=C/C[N@H+]1SN=C2[C@@H]1CCN2Cc1ccccc1 (cis-trans isomerization)
CC(C)=CCC/C(C)=C/C[N@H+]1SN=C2[C@@H]1CCN2Cc1ccccc1 (3D coordinates assigned)
CC(C)=CCC/C(C)=C/C[N@H+]1SN=C2[C@@H]1CCN2Cc1ccccc1 (nonaromatic ring conformer: 69.67034476830564 kcal/mol)

>  <smiles>  (3) 
CC(C)=CCCC(C)=CCN1SN=C2C1CCN2Cc1ccccc1

>  <score_type>  (3) 
oracle

>  <origin>  (3) 
adg

>  <m_score__min__energy>  (3) 
-8.1199999999999992

>  <m_primary>  (3) 
energy

$$$$
3:0
     RDKit          3D

 46 49  0  0  0  0  0  0  0  0999 V2000
   -2.2740   19.6020  -32.5940 C   0  0  0  0  0  0  0  0  0  0  0  0
   -2.8090   20.3690  -33.7990 C   0  0  0  0  0  0  0  0  0  0  0  0
   -4.2350   20.4230  -33.7730 O   0  0  0  0  0  0  0  0  0  0  0  0
   -5.1100   19.3230  -33.7230 C   0  0  0  0  0  0  0  0  0  0  0  0
   -4.8250   18.1340  -34.4240 C   0  0  0  0  0  0  0  0  0  0  0  0
   -5.6840   17.0390  -34.3490 C   0  0  0  0  0  0  0  0  0  0  0  0
   -6.8350   17.1030  -33.5720 C   0  0  0  0  0  0  0  0  0  0  0  0
   -7.1540   18.2780  -32.8810 C   0  0  0  0  0  0  0  0  0  0  0  0
   -6.3070   19.4060  -32.9580 C   0  0  0  0  0  0  0  0  0  0  0  0
   -6.7250   20.6240  -32.1380 C   0  0  1  0  0  0  0  0  0  0  0  0
   -5.9930   21.8440  -32.4920 N   0  0  0  0  0  0  0  0  0  0  0  0
   -5.8480   22.9640  -31.5970 C   0  0  0  0  0  0  0  0  0  0  0  0
   -6.9510   23.7980  -31.3380 C   0  0  0  0  0  0  0  0  0  0  0  0
   -6.8570   24.8440  -30.4210 C   0  0  0  0  0  0  0  0  0  0  0  0
   -5.6620   25.0810  -29.7440 C   0  0  0  0  0  0  0  0  0  0  0  0
   -4.5450   24.2710  -29.9870 C   0  0  0  0  0  0  0  0  0  0  0  0
   -3.3370   24.5080  -29.3160 C   0  0  0  0  0  0  0  0  0  0  0  0
   -2.2510   23.7340  -29.5690 N   0  0  0  0  0  0  0  0  0  0  0  0
   -2.2920   22.7170  -30.4690 C   0  0  0  0  0  0  0  0  0  0  0  0
   -3.4700   22.4370  -31.1630 C   0  0  0  0  0  0  0  0  0  0  0  0
   -4.6250   23.2060  -30.9210 C   0  0  0  0  0  0  0  0  0  0  0  0
   -8.2310   20.8790  -32.3380 C   0  0  0  0  0  0  0  0  0  0  0  0
   -9.1140   19.6450  -32.0450 C   0  0  0  0  0  0  0  0  0  0  0  0
   -8.3490   18.3110  -31.9610 C   0  0  0  0  0  0  0  0  0  0  0  0
   -2.6141   20.0896  -31.6685 H   0  0  0  0  0  0  0  0  0  0  0  0
   -2.6477   18.5678  -32.6222 H   0  0  0  0  0  0  0  0  0  0  0  0
   -1.1744   19.5955  -32.6222 H   0  0  0  0  0  0  0  0  0  0  0  0
   -2.4089   21.3935  -33.7810 H   0  0  0  0  0  0  0  0  0  0  0  0
   -2.4924   19.8504  -34.7160 H   0  0  0  0  0  0  0  0  0  0  0  0
   -3.9142   18.0695  -35.0374 H   0  0  0  0  0  0  0  0  0  0  0  0
   -5.4502   16.1203  -34.9070 H   0  0  0  0  0  0  0  0  0  0  0  0
   -7.4972   16.2276  -33.4999 H   0  0  0  0  0  0  0  0  0  0  0  0
   -6.4887   20.3932  -31.0888 H   0  0  0  0  0  0  0  0  0  0  0  0
   -5.5280   21.8790  -33.4280 H   0  0  0  0  0  0  0  0  0  0  0  0
   -7.9000   23.6225  -31.8659 H   0  0  0  0  0  0  0  0  0  0  0  0
   -7.7302   25.4853  -30.2309 H   0  0  0  0  0  0  0  0  0  0  0  0
   -5.5958   25.9049  -29.0181 H   0  0  0  0  0  0  0  0  0  0  0  0
   -3.2690   25.3243  -28.5818 H   0  0  0  0  0  0  0  0  0  0  0  0
   -1.3922   22.1112  -30.6516 H   0  0  0  0  0  0  0  0  0  0  0  0
   -3.4964   21.6181  -31.8969 H   0  0  0  0  0  0  0  0  0  0  0  0
   -8.5378   21.6933  -31.6651 H   0  0  0  0  0  0  0  0  0  0  0  0
   -8.3760   21.1338  -33.3982 H   0  0  0  0  0  0  0  0  0  0  0  0
   -9.6235   19.8088  -31.0840 H   0  0  0  0  0  0  0  0  0  0  0  0
   -9.8085   19.5518  -32.8930 H   0  0  0  0  0  0  0  0  0  0  0  0
   -8.0035   18.1658  -30.9268 H   0  0  0  0  0  0  0  0  0  0  0  0
   -9.0352   17.5092  -32.2714 H   0  0  0  0  0  0  0  0  0  0  0  0
  1  2  1  0
  2  3  1  0
  3  4  1  0
  4  5  2  0
  5  6  1  0
  6  7  2  0
  7  8  1  0
  8  9  2  0
  9 10  1  0
 10 11  1  0
 11 12  1  0
 12 13  2  0
 13 14  1  0
 14 15  2  0
 15 16  1  0
 16 17  2  0
 17 18  1  0
 18 19  2  0
 19 20  1  0
 20 21  2  0
 10 22  1  0
 22 23  1  0
 23 24  1  0
  9  4  1  0
 21 12  1  0
 24  8  1  0
 21 16  1  0
  1 25  1  0
  1 26  1  0
  1 27  1  0
  2 28  1  0
  2 29  1  0
  5 30  1  0
  6 31  1  0
  7 32  1  0
 10 33  1  1
 11 34  1  0
 13 35  1  0
 14 36  1  0
 15 37  1  0
 17 38  1  0
 19 39  1  0
 20 40  1  0
 22 41  1  0
 22 42  1  0
 23 43  1  0
 23 44  1  0
 24 45  1  0
 24 46  1  0
M  END
>  <UniqueID>  (4) 
4

>  <SMILES>  (4) 
CCOc1cccc2c1[C@@H](Nc1cccc3cnccc13)CCC2

>  <Energy>  (4) 
63.47324699132106

>  <Genealogy>  (4) 
CCOc1cccc2c1[C@@H](Nc1cccc3cnccc13)CCC2 (chirality)
CCOc1cccc2c1[C@@H](Nc1cccc3cnccc13)CCC2 (3D coordinates assigned)
CCOc1cccc2c1[C@@H](Nc1cccc3cnccc13)CCC2 (nonaromatic ring conformer: 63.47324699132106 kcal/mol)

>  <smiles>  (4) 
CCOc1cccc2c1C(Nc1cccc3cnccc13)CCC2

>  <score_type>  (4) 
oracle

>  <origin>  (4) 
adg

>  <m_score__min__energy>  (4) 
-8.8399999999999999

>  <m_primary>  (4) 
energy

$$$$
4:0
     RDKit          3D

 77 79  0  0  1  0  0  0  0  0999 V2000
   -3.6520   18.5620  -26.0020 C   0  0  0  0  0  0  0  0  0  0  0  0
   -2.3270   18.5450  -26.6230 C   0  0  0  0  0  0  0  0  0  0  0  0
   -1.2360   18.5170  -27.1420 C   0  0  0  0  0  0  0  0  0  0  0  0
    0.0910   18.4940  -27.7550 C   0  0  0  0  0  0  0  0  0  0  0  0
    0.6450   19.7770  -27.9250 O   0  0  0  0  0  0  0  0  0  0  0  0
   -0.1970   20.8560  -28.1030 C   0  0  0  0  0  0  0  0  0  0  0  0
   -0.9530   21.4450  -27.1370 C   0  0  0  0  0  0  0  0  0  0  0  0
   -1.7750   22.5230  -27.3810 C   0  0  0  0  0  0  0  0  0  0  0  0
   -1.8760   23.0790  -28.6660 C   0  0  0  0  0  0  0  0  0  0  0  0
   -2.9480   24.3970  -28.9250 S   0  0  0  0  0  0  0  0  0  0  0  0
   -3.9490   24.5470  -27.7990 O   0  0  0  0  0  0  0  0  0  0  0  0
   -2.0770   25.6590  -28.9440 O   0  0  0  0  0  0  0  0  0  0  0  0
   -3.7420   24.3260  -30.4670 C   0  0  0  0  0  0  0  0  0  0  0  0
   -4.4440   23.0880  -30.8610 C   0  0  0  0  0  0  0  0  0  0  0  0
   -3.6040   21.9560  -31.3060 C   0  0  0  0  0  0  0  0  0  0  0  0
   -2.9990   22.0100  -32.5780 O   0  0  0  0  0  0  0  0  0  0  0  0
   -3.3630   20.8970  -30.6210 N   0  0  0  0  0  0  0  0  0  0  0  0
   -2.4580   19.9260  -30.9830 O   0  0  0  0  0  0  0  0  0  0  0  0
   -5.3780   23.4830  -32.0210 C   0  0  0  0  0  0  0  0  0  0  0  0
   -6.6460   23.9980  -31.4360 C   0  0  0  0  0  0  0  0  0  0  0  0
   -7.4520   22.9120  -31.0040 N   0  0  0  0  0  0  0  0  0  0  0  0
   -8.4390   22.3870  -31.8330 C   0  0  0  0  0  0  0  0  0  0  0  0
   -9.3540   21.3320  -31.3640 C   0  0  0  0  0  0  0  0  0  0  0  0
   -8.8780   19.7080  -31.9750 S   0  0  0  0  0  0  0  0  0  0  0  0
   -9.1410   18.7490  -30.8500 O   0  0  0  0  0  0  0  0  0  0  0  0
   -9.8370   19.3690  -33.0850 O   0  0  0  0  0  0  0  0  0  0  0  0
   -7.2290   19.6370  -32.4720 C   0  0  0  0  0  0  0  0  0  0  0  0
   -6.6970   20.4110  -33.4540 C   0  0  0  0  0  0  0  0  0  0  0  0
   -5.3730   20.3200  -33.8210 C   0  0  0  0  0  0  0  0  0  0  0  0
   -4.4930   19.4180  -33.1950 C   0  0  0  0  0  0  0  0  0  0  0  0
   -3.2160   19.4170  -33.6330 O   0  0  0  0  0  0  0  0  0  0  0  0
   -2.3190   18.3880  -33.7960 C   0  0  0  0  0  0  0  0  0  0  0  0
   -0.8820   18.7630  -33.5520 C   0  0  0  0  0  0  0  0  0  0  0  0
   -0.7070   19.9970  -32.9950 O   0  0  0  0  0  0  0  0  0  0  0  0
   -0.2600   20.9750  -33.8190 C   0  0  0  0  0  0  0  0  0  0  0  0
   -5.0480   18.6500  -32.2080 C   0  0  0  0  0  0  0  0  0  0  0  0
   -6.3880   18.7390  -31.8350 C   0  0  0  0  0  0  0  0  0  0  0  0
   -6.6290   21.9860  -30.2980 C   0  0  0  0  0  0  0  0  0  0  0  0
   -5.3740   22.6340  -29.7400 C   0  0  0  0  0  0  0  0  0  0  0  0
   -1.1110   22.4880  -29.6550 C   0  0  0  0  0  0  0  0  0  0  0  0
   -0.2850   21.3980  -29.3890 C   0  0  0  0  0  0  0  0  0  0  0  0
   -3.5439   18.5606  -24.9073 H   0  0  0  0  0  0  0  0  0  0  0  0
   -4.1925   19.4672  -26.3159 H   0  0  0  0  0  0  0  0  0  0  0  0
   -4.2155   17.6710  -26.3159 H   0  0  0  0  0  0  0  0  0  0  0  0
    0.7627   17.9053  -27.1129 H   0  0  0  0  0  0  0  0  0  0  0  0
   -0.0183   18.0497  -28.7553 H   0  0  0  0  0  0  0  0  0  0  0  0
   -0.9055   21.0419  -26.1146 H   0  0  0  0  0  0  0  0  0  0  0  0
   -2.3612   22.9548  -26.5564 H   0  0  0  0  0  0  0  0  0  0  0  0
   -4.4861   25.1359  -30.4826 H   0  0  0  0  0  0  0  0  0  0  0  0
   -2.9158   24.3987  -31.1895 H   0  0  0  0  0  0  0  0  0  0  0  0
   -2.4990   21.1850  -32.9410 H   0  0  0  0  0  0  0  0  0  0  0  0
   -2.0050   19.8600  -31.8820 H   0  0  0  0  0  0  0  0  0  0  0  0
   -4.9040   24.2653  -32.6320 H   0  0  0  0  0  0  0  0  0  0  0  0
   -5.5792   22.6126  -32.6628 H   0  0  0  0  0  0  0  0  0  0  0  0
   -6.4155   24.6459  -30.5775 H   0  0  0  0  0  0  0  0  0  0  0  0
   -7.1906   24.5737  -32.1989 H   0  0  0  0  0  0  0  0  0  0  0  0
   -9.0713   23.2338  -32.1382 H   0  0  0  0  0  0  0  0  0  0  0  0
   -7.8505   21.8661  -32.6026 H   0  0  0  0  0  0  0  0  0  0  0  0
   -9.3429   21.3151  -30.2642 H   0  0  0  0  0  0  0  0  0  0  0  0
  -10.3597   21.5585  -31.7478 H   0  0  0  0  0  0  0  0  0  0  0  0
   -7.3447   21.1333  -33.9723 H   0  0  0  0  0  0  0  0  0  0  0  0
   -4.9936   20.9690  -34.6240 H   0  0  0  0  0  0  0  0  0  0  0  0
   -2.5876   17.5847  -33.0942 H   0  0  0  0  0  0  0  0  0  0  0  0
   -2.3857   18.0812  -34.8502 H   0  0  0  0  0  0  0  0  0  0  0  0
   -0.4415   18.0151  -32.8763 H   0  0  0  0  0  0  0  0  0  0  0  0
   -0.3939   18.7918  -34.5374 H   0  0  0  0  0  0  0  0  0  0  0  0
    0.1232   21.8134  -33.2188 H   0  0  0  0  0  0  0  0  0  0  0  0
    0.5467   20.5795  -34.4536 H   0  0  0  0  0  0  0  0  0  0  0  0
   -1.0870   21.3262  -34.4536 H   0  0  0  0  0  0  0  0  0  0  0  0
   -4.4056   17.9274  -31.6835 H   0  0  0  0  0  0  0  0  0  0  0  0
   -6.7786   18.0950  -31.0333 H   0  0  0  0  0  0  0  0  0  0  0  0
   -7.2085   21.5629  -29.4642 H   0  0  0  0  0  0  0  0  0  0  0  0
   -6.3161   21.2066  -31.0084 H   0  0  0  0  0  0  0  0  0  0  0  0
   -5.6594   23.5069  -29.1346 H   0  0  0  0  0  0  0  0  0  0  0  0
   -4.8428   21.8930  -29.1246 H   0  0  0  0  0  0  0  0  0  0  0  0
   -1.1558   22.8890  -30.6783 H   0  0  0  0  0  0  0  0  0  0  0  0
    0.3076   20.9566  -30.2039 H   0  0  0  0  0  0  0  0  0  0  0  0
  1  2  1  0
  2  3  3  0
  3  4  1  0
  4  5  1  0
  5  6  1  0
  6  7  2  0
  7  8  1  0
  8  9  2  0
  9 10  1  0
 10 11  2  0
 10 12  2  0
 10 13  1  0
 13 14  1  0
 14 15  1  0
 15 16  1  0
 15 17  2  0
 17 18  1  0
 14 19  1  0
 19 20  1  0
 20 21  1  0
 21 22  1  0
 22 23  1  0
 23 24  1  0
 24 25  2  0
 24 26  2  0
 24 27  1  0
 27 28  2  0
 28 29  1  0
 29 30  2  0
 30 31  1  0
 31 32  1  0
 32 33  1  0
 33 34  1  0
 34 35  1  0
 30 36  1  0
 36 37  2  0
 21 38  1  0
 38 39  1  0
  9 40  1  0
 40 41  2  0
 41  6  1  0
 39 14  1  0
 37 27  1  0
  1 42  1  0
  1 43  1  0
  1 44  1  0
  4 45  1  0
  4 46  1  0
  7 47  1  0
  8 48  1  0
 13 49  1  0
 13 50  1  0
 16 51  1  0
 18 52  1  0
 19 53  1  0
 19 54  1  0
 20 55  1  0
 20 56  1  0
 22 57  1  0
 22 58  1  0
 23 59  1  0
 23 60  1  0
 28 61  1  0
 29 62  1  0
 32 63  1  0
 32 64  1  0
 33 65  1  0
 33 66  1  0
 35 67  1  0
 35 68  1  0
 35 69  1  0
 36 70  1  0
 37 71  1  0
 38 72  1  0
 38 73  1  0
 39 74  1  0
 39 75  1  0
 40 76  1  0
 41 77  1  0
M  END
>  <smiles>  (5) 
CC#CCOc1ccc(S(=O)(=O)CC2(C(O)=NO)CCN(CCS(=O)(=O)c3ccc(OCCOC)cc3)CC2)cc1

>  <score_type>  (5) 
oracle

>  <origin>  (5) 
adg

>  <m_score__min__energy>  (5) 
-10.84

>  <m_primary>  (5) 
energy

$$$$
5:0
     RDKit          3D

 42 43  0  0  0  0  0  0  0  0999 V2000
   -2.1290   25.6710  -25.9850 C   0  0  0  0  0  0  0  0  0  0  0  0
   -3.1620   24.8900  -26.7910 C   0  0  0  0  0  0  0  0  0  0  0  0
   -2.7120   24.7260  -28.1910 N   0  0  0  0  0  0  0  0  0  0  0  0
   -1.2560   24.5230  -28.2910 C   0  0  0  0  0  0  0  0  0  0  0  0
   -3.4850   23.7010  -28.9310 C   0  0  0  0  0  0  0  0  0  0  0  0
   -3.4580   23.8630  -30.4630 C   0  0  0  0  0  0  0  0  0  0  0  0
   -4.0420   25.0970  -30.8290 O   0  0  0  0  0  0  0  0  0  0  0  0
   -5.3200   25.2370  -30.2380 C   0  0  0  0  0  0  0  0  0  0  0  0
   -6.3750   24.5340  -31.0960 C   0  0  0  0  0  0  0  0  0  0  0  0
   -6.5690   23.1900  -30.6580 O   0  0  0  0  0  0  0  0  0  0  0  0
   -7.3470   22.2170  -31.3120 C   0  0  0  0  0  0  0  0  0  0  0  0
   -8.7550   22.2190  -31.2510 C   0  0  0  0  0  0  0  0  0  0  0  0
   -9.4810   21.2300  -31.9160 C   0  0  0  0  0  0  0  0  0  0  0  0
   -8.8390   20.2640  -32.6200 N   0  0  0  0  0  0  0  0  0  0  0  0
   -7.4830   20.2220  -32.7040 C   0  0  0  0  0  0  0  0  0  0  0  0
   -6.8620   19.2070  -33.4420 C   0  0  0  0  0  0  0  0  0  0  0  0
   -5.4670   19.1580  -33.5320 C   0  0  0  0  0  0  0  0  0  0  0  0
   -4.6250   17.7740  -34.5430 Br  0  0  0  0  0  0  0  0  0  0  0  0
   -4.6890   20.1260  -32.8890 C   0  0  0  0  0  0  0  0  0  0  0  0
   -5.2980   21.1420  -32.1490 C   0  0  0  0  0  0  0  0  0  0  0  0
   -6.7010   21.2010  -32.0470 C   0  0  0  0  0  0  0  0  0  0  0  0
   -2.3178   25.5282  -24.9108 H   0  0  0  0  0  0  0  0  0  0  0  0
   -1.1205   25.3076  -26.2315 H   0  0  0  0  0  0  0  0  0  0  0  0
   -2.2038   26.7404  -26.2315 H   0  0  0  0  0  0  0  0  0  0  0  0
   -3.3005   23.8977  -26.3368 H   0  0  0  0  0  0  0  0  0  0  0  0
   -4.1112   25.4458  -26.7856 H   0  0  0  0  0  0  0  0  0  0  0  0
   -0.8240   24.4628  -27.2812 H   0  0  0  0  0  0  0  0  0  0  0  0
   -1.0526   23.5878  -28.8332 H   0  0  0  0  0  0  0  0  0  0  0  0
   -0.8045   25.3669  -28.8332 H   0  0  0  0  0  0  0  0  0  0  0  0
   -3.0708   22.7127  -28.6827 H   0  0  0  0  0  0  0  0  0  0  0  0
   -4.5344   23.8175  -28.6225 H   0  0  0  0  0  0  0  0  0  0  0  0
   -2.4159   23.8349  -30.8140 H   0  0  0  0  0  0  0  0  0  0  0  0
   -4.0288   23.0429  -30.9229 H   0  0  0  0  0  0  0  0  0  0  0  0
   -5.3082   24.7870  -29.2343 H   0  0  0  0  0  0  0  0  0  0  0  0
   -5.5684   26.3061  -30.1653 H   0  0  0  0  0  0  0  0  0  0  0  0
   -7.3266   25.0801  -31.0173 H   0  0  0  0  0  0  0  0  0  0  0  0
   -6.0283   24.5187  -32.1398 H   0  0  0  0  0  0  0  0  0  0  0  0
   -9.2807   22.9987  -30.6803 H   0  0  0  0  0  0  0  0  0  0  0  0
  -10.5800   21.2336  -31.8692 H   0  0  0  0  0  0  0  0  0  0  0  0
   -7.4722   18.4469  -33.9518 H   0  0  0  0  0  0  0  0  0  0  0  0
   -3.5924   20.0870  -32.9664 H   0  0  0  0  0  0  0  0  0  0  0  0
   -4.6794   21.8986  -31.6442 H   0  0  0  0  0  0  0  0  0  0  0  0
  1  2  1  0
  2  3  1  0
  3  4  1  0
  3  5  1  0
  5  6  1  0
  6  7  1  0
  7  8  1  0
  8  9  1  0
  9 10  1  0
 10 11  1  0
 11 12  2  0
 12 13  1  0
 13 14  2  0
 14 15  1  0
 15 16  2  0
 16 17  1  0
 17 18  1  0
 17 19  2  0
 19 20  1  0
 20 21  2  0
 21 11  1  0
 21 15  1  0
  1 22  1  0
  1 23  1  0
  1 24  1  0
  2 25  1  0
  2 26  1  0
  4 27  1  0
  4 28  1  0
  4 29  1  0
  5 30  1  0
  5 31  1  0
  6 32  1  0
  6 33  1  0
  8 34  1  0
  8 35  1  0
  9 36  1  0
  9 37  1  0
 12 38  1  0
 13 39  1  0
 16 40  1  0
 19 41  1  0
 20 42  1  0
M  END
>  <UniqueID>  (6) 
5

>  <SMILES>  (6) 
CCN(C)CCOCCOc1ccnc2cc(Br)ccc12

>  <Energy>  (6) 
46.46316567327798

>  <Genealogy>  (6) 
CCN(C)CCOCCOc1ccnc2cc(Br)ccc12 (3D coordinates assigned)
CCN(C)CCOCCOc1ccnc2cc(Br)ccc12 (optimized conformer: 46.46316567327798 kcal/mol)

>  <smiles>  (6) 
CCN(C)CCOCCOc1ccnc2cc(Br)ccc12

>  <score_type>  (6) 
oracle

>  <origin>  (6) 
adg

>  <m_score__min__energy>  (6) 
-7.9800000000000004

>  <m_primary>  (6) 
energy

$$$$
6:0
     RDKit          3D

 54 56  0  0  0  0  0  0  0  0999 V2000
   -5.9340   16.1140  -33.7420 C   0  0  0  0  0  0  0  0  0  0  0  0
   -4.7250   16.8220  -33.1350 C   0  0  0  0  0  0  0  0  0  0  0  0
   -4.5500   18.1630  -33.7360 N   0  0  0  0  0  0  0  0  0  0  0  0
   -5.4560   18.3380  -34.8880 C   0  0  0  0  0  0  0  0  0  0  0  0
   -3.1430   18.3830  -34.1450 C   0  0  0  0  0  0  0  0  0  0  0  0
   -2.6620   19.8090  -33.8260 C   0  0  0  0  0  0  0  0  0  0  0  0
   -3.7550   20.7390  -33.2510 C   0  0  0  0  0  0  0  0  0  0  0  0
   -4.3890   20.2350  -32.0140 N   0  0  0  0  0  0  0  0  0  0  0  0
   -5.6270   20.9360  -31.6830 C   0  0  0  0  0  0  0  0  0  0  0  0
   -6.8850   20.3200  -31.8950 C   0  0  0  0  0  0  0  0  0  0  0  0
   -8.0440   21.1310  -32.0200 C   0  0  0  0  0  0  0  0  0  0  0  0
   -7.9500   22.4960  -31.8390 N   0  0  0  0  0  0  0  0  0  0  0  0
   -9.1080   23.3690  -32.1380 C   0  0  0  0  0  0  0  0  0  0  0  0
   -6.8060   23.0450  -31.2950 C   0  0  0  0  0  0  0  0  0  0  0  0
   -6.7860   24.3760  -30.8010 C   0  0  0  0  0  0  0  0  0  0  0  0
   -5.6380   24.9180  -30.2290 C   0  0  0  0  0  0  0  0  0  0  0  0
   -4.4930   24.1470  -30.1030 C   0  0  0  0  0  0  0  0  0  0  0  0
   -4.4820   22.8330  -30.5630 C   0  0  0  0  0  0  0  0  0  0  0  0
   -5.6190   22.2680  -31.1950 C   0  0  0  0  0  0  0  0  0  0  0  0
   -9.4060   20.4880  -32.3090 C   0  0  0  0  0  0  0  0  0  0  0  0
   -9.4510   18.9530  -32.3250 C   0  0  0  0  0  0  0  0  0  0  0  0
   -8.3610   18.3440  -31.4590 C   0  0  0  0  0  0  0  0  0  0  0  0
   -7.0080   18.8090  -31.9750 C   0  0  0  0  0  0  0  0  0  0  0  0
   -6.5801   15.7356  -32.9361 H   0  0  0  0  0  0  0  0  0  0  0  0
   -6.5003   16.8232  -34.3636 H   0  0  0  0  0  0  0  0  0  0  0  0
   -5.5926   15.2731  -34.3636 H   0  0  0  0  0  0  0  0  0  0  0  0
   -4.8756   16.9288  -32.0506 H   0  0  0  0  0  0  0  0  0  0  0  0
   -3.8250   16.2228  -33.3373 H   0  0  0  0  0  0  0  0  0  0  0  0
   -6.4758   18.5350  -34.5258 H   0  0  0  0  0  0  0  0  0  0  0  0
   -5.1134   19.1866  -35.4984 H   0  0  0  0  0  0  0  0  0  0  0  0
   -5.4540   17.4229  -35.4984 H   0  0  0  0  0  0  0  0  0  0  0  0
   -2.5025   17.6653  -33.6114 H   0  0  0  0  0  0  0  0  0  0  0  0
   -3.0815   18.2413  -35.2341 H   0  0  0  0  0  0  0  0  0  0  0  0
   -1.8470   19.7405  -33.0905 H   0  0  0  0  0  0  0  0  0  0  0  0
   -2.3428   20.2531  -34.7804 H   0  0  0  0  0  0  0  0  0  0  0  0
   -3.2973   21.7149  -33.0314 H   0  0  0  0  0  0  0  0  0  0  0  0
   -4.5484   20.8022  -34.0103 H   0  0  0  0  0  0  0  0  0  0  0  0
   -4.5740   19.2120  -32.1180 H   0  0  0  0  0  0  0  0  0  0  0  0
   -3.6650   20.2990  -31.2710 H   0  0  0  0  0  0  0  0  0  0  0  0
   -9.5620   23.7112  -31.1963 H   0  0  0  0  0  0  0  0  0  0  0  0
   -8.7705   24.2393  -32.7199 H   0  0  0  0  0  0  0  0  0  0  0  0
   -9.8518   22.8050  -32.7199 H   0  0  0  0  0  0  0  0  0  0  0  0
   -7.6952   24.9911  -30.8715 H   0  0  0  0  0  0  0  0  0  0  0  0
   -5.6397   25.9600  -29.8765 H   0  0  0  0  0  0  0  0  0  0  0  0
   -3.5917   24.5740  -29.6389 H   0  0  0  0  0  0  0  0  0  0  0  0
   -3.5760   22.2226  -30.4341 H   0  0  0  0  0  0  0  0  0  0  0  0
  -10.1094   20.8347  -31.5376 H   0  0  0  0  0  0  0  0  0  0  0  0
   -9.6616   20.7968  -33.3334 H   0  0  0  0  0  0  0  0  0  0  0  0
  -10.4303   18.6222  -31.9487 H   0  0  0  0  0  0  0  0  0  0  0  0
   -9.2898   18.6185  -33.3604 H   0  0  0  0  0  0  0  0  0  0  0  0
   -8.4913   18.6705  -30.4167 H   0  0  0  0  0  0  0  0  0  0  0  0
   -8.4199   17.2464  -31.5010 H   0  0  0  0  0  0  0  0  0  0  0  0
   -6.2142   18.3508  -31.3667 H   0  0  0  0  0  0  0  0  0  0  0  0
   -6.9111   18.5048  -33.0277 H   0  0  0  0  0  0  0  0  0  0  0  0
  1  2  1  0
  2  3  1  0
  3  4  1  0
  3  5  1  0
  5  6  1  0
  6  7  1  0
  7  8  1  0
  8  9  1  0
  9 10  2  0
 10 11  1  0
 11 12  2  0
 12 13  1  0
 12 14  1  0
 14 15  2  0
 15 16  1  0
 16 17  2  0
 17 18  1  0
 18 19  2  0
 11 20  1  0
 20 21  1  0
 21 22  1  0
 22 23  1  0
 19  9  1  0
 23 10  1  0
 19 14  1  0
  1 24  1  0
  1 25  1  0
  1 26  1  0
  2 27  1  0
  2 28  1  0
  4 29  1  0
  4 30  1  0
  4 31  1  0
  5 32  1  0
  5 33  1  0
  6 34  1  0
  6 35  1  0
  7 36  1  0
  7 37  1  0
  8 38  1  0
  8 39  1  0
 13 40  1  0
 13 41  1  0
 13 42  1  0
 15 43  1  0
 16 44  1  0
 17 45  1  0
 18 46  1  0
 20 47  1  0
 20 48  1  0
 21 49  1  0
 21 50  1  0
 22 51  1  0
 22 52  1  0
 23 53  1  0
 23 54  1  0
M  CHG  2   8   1  12   1
M  END
>  <UniqueID>  (7) 
6

>  <SMILES>  (7) 
CCN(C)CCC[NH2+]c1c2c([n+](C)c3ccccc13)CCCC2

>  <Energy>  (7) 
82.74451275623288

>  <Genealogy>  (7) 
CCN(C)CCC[NH2+]c1c2c([n+](C)c3ccccc13)CCCC2 (protonated)
CCN(C)CCC[NH2+]c1c2c([n+](C)c3ccccc13)CCCC2 (3D coordinates assigned)
CCN(C)CCC[NH2+]c1c2c([n+](C)c3ccccc13)CCCC2 (nonaromatic ring conformer: 82.74451275623288 kcal/mol)

>  <smiles>  (7) 
CCN(C)CCCNc1c2c([n+](C)c3ccccc13)CCCC2

>  <score_type>  (7) 
oracle

>  <origin>  (7) 
adg

>  <m_score__min__energy>  (7) 
-7.6600000000000001

>  <m_primary>  (7) 
energy

$$$$
7:0
     RDKit          3D

 45 47  0  0  0  0  0  0  0  0999 V2000
   -6.2320   25.2770  -29.6730 C   0  0  0  0  0  0  0  0  0  0  0  0
   -5.3160   25.6080  -30.8460 C   0  0  0  0  0  0  0  0  0  0  0  0
   -3.9230   25.2990  -30.4970 N   0  0  0  0  0  0  0  0  0  0  0  0
   -3.8420   24.3840  -29.3480 C   0  0  0  0  0  0  0  0  0  0  0  0
   -2.4530   23.7370  -29.2330 C   0  0  0  0  0  0  0  0  0  0  0  0
   -2.3940   22.2910  -29.7600 C   0  0  0  0  0  0  0  0  0  0  0  0
   -2.2560   22.1850  -31.2870 C   0  0  0  0  0  0  0  0  0  0  0  0
   -3.4030   22.7060  -31.9600 O   0  0  0  0  0  0  0  0  0  0  0  0
   -4.6260   22.0340  -32.1580 C   0  0  0  0  0  0  0  0  0  0  0  0
   -5.8370   22.5610  -31.6900 C   0  0  0  0  0  0  0  0  0  0  0  0
   -7.0430   21.8820  -31.8860 C   0  0  0  0  0  0  0  0  0  0  0  0
   -8.2330   22.4450  -31.3960 C   0  0  0  0  0  0  0  0  0  0  0  0
   -9.4490   21.7920  -31.5750 C   0  0  0  0  0  0  0  0  0  0  0  0
   -9.4930   20.5730  -32.2420 C   0  0  0  0  0  0  0  0  0  0  0  0
   -8.3210   19.9970  -32.7380 C   0  0  0  0  0  0  0  0  0  0  0  0
   -7.0670   20.6380  -32.5740 C   0  0  0  0  0  0  0  0  0  0  0  0
   -5.8420   20.0930  -33.0640 C   0  0  0  0  0  0  0  0  0  0  0  0
   -5.7770   18.8600  -33.7610 C   0  0  0  0  0  0  0  0  0  0  0  0
   -4.5600   18.3580  -34.2230 C   0  0  0  0  0  0  0  0  0  0  0  0
   -3.3820   19.0610  -34.0070 C   0  0  0  0  0  0  0  0  0  0  0  0
   -3.4100   20.2760  -33.3280 C   0  0  0  0  0  0  0  0  0  0  0  0
   -4.6250   20.8070  -32.8500 C   0  0  0  0  0  0  0  0  0  0  0  0
   -5.7019   25.4686  -28.7284 H   0  0  0  0  0  0  0  0  0  0  0  0
   -7.1327   25.9065  -29.7222 H   0  0  0  0  0  0  0  0  0  0  0  0
   -6.5223   24.2171  -29.7222 H   0  0  0  0  0  0  0  0  0  0  0  0
   -5.6136   25.0110  -31.7206 H   0  0  0  0  0  0  0  0  0  0  0  0
   -5.4010   26.6795  -31.0799 H   0  0  0  0  0  0  0  0  0  0  0  0
   -3.4930   24.8110  -31.3190 H   0  0  0  0  0  0  0  0  0  0  0  0
   -4.0494   24.9489  -28.4272 H   0  0  0  0  0  0  0  0  0  0  0  0
   -4.5819   23.5834  -29.4946 H   0  0  0  0  0  0  0  0  0  0  0  0
   -1.7388   24.3448  -29.8079 H   0  0  0  0  0  0  0  0  0  0  0  0
   -2.2063   23.6974  -28.1618 H   0  0  0  0  0  0  0  0  0  0  0  0
   -1.5295   21.7904  -29.2994 H   0  0  0  0  0  0  0  0  0  0  0  0
   -3.3505   21.8172  -29.4942 H   0  0  0  0  0  0  0  0  0  0  0  0
   -1.3685   22.7520  -31.6047 H   0  0  0  0  0  0  0  0  0  0  0  0
   -2.1595   21.1210  -31.5489 H   0  0  0  0  0  0  0  0  0  0  0  0
   -5.8387   23.5247  -31.1597 H   0  0  0  0  0  0  0  0  0  0  0  0
   -8.2036   23.4090  -30.8670 H   0  0  0  0  0  0  0  0  0  0  0  0
  -10.3759   22.2407  -31.1884 H   0  0  0  0  0  0  0  0  0  0  0  0
  -10.4559   20.0593  -32.3799 H   0  0  0  0  0  0  0  0  0  0  0  0
   -8.3717   19.0320  -33.2635 H   0  0  0  0  0  0  0  0  0  0  0  0
   -6.7007   18.2902  -33.9403 H   0  0  0  0  0  0  0  0  0  0  0  0
   -4.5334   17.3993  -34.7617 H   0  0  0  0  0  0  0  0  0  0  0  0
   -2.4262   18.6576  -34.3726 H   0  0  0  0  0  0  0  0  0  0  0  0
   -2.4730   20.8280  -33.1626 H   0  0  0  0  0  0  0  0  0  0  0  0
  1  2  1  0
  2  3  1  0
  3  4  1  0
  4  5  1  0
  5  6  1  0
  6  7  1  0
  7  8  1  0
  8  9  1  0
  9 10  2  0
 10 11  1  0
 11 12  2  0
 12 13  1  0
 13 14  2  0
 14 15  1  0
 15 16  2  0
 16 17  1  0
 17 18  2  0
 18 19  1  0
 19 20  2  0
 20 21  1  0
 21 22  2  0
 22  9  1  0
 16 11  1  0
 22 17  1  0
  1 23  1  0
  1 24  1  0
  1 25  1  0
  2 26  1  0
  2 27  1  0
  3 28  1  0
  4 29  1  0
  4 30  1  0
  5 31  1  0
  5 32  1  0
  6 33  1  0
  6 34  1  0
  7 35  1  0
  7 36  1  0
 10 37  1  0
 12 38  1  0
 13 39  1  0
 14 40  1  0
 15 41  1  0
 18 42  1  0
 19 43  1  0
 20 44  1  0
 21 45  1  0
M  END
>  <UniqueID>  (8) 
7

>  <SMILES>  (8) 
CCNCCCCOc1cc2ccccc2c2ccccc12

>  <Energy>  (8) 
51.35780413683556

>  <Genealogy>  (8) 
CCNCCCCOc1cc2ccccc2c2ccccc12 (3D coordinates assigned)
CCNCCCCOc1cc2ccccc2c2ccccc12 (optimized conformer: 51.35780413683556 kcal/mol)

>  <smiles>  (8) 
CCNCCCCOc1cc2ccccc2c2ccccc12

>  <score_type>  (8) 
oracle

>  <origin>  (8) 
adg

>  <m_score__min__energy>  (8) 
-8.9499999999999993

>  <m_primary>  (8) 
energy

$$$$
8:0
     RDKit          3D

 53 55  0  0  0  0  0  0  0  0999 V2000
   -9.2610   21.5610  -30.5530 C   0  0  0  0  0  0  0  0  0  0  0  0
   -8.7170   22.3430  -31.7470 C   0  0  0  0  0  0  0  0  0  0  0  0
   -7.2380   22.2930  -31.7790 N   0  0  0  0  0  0  0  0  0  0  0  0
   -6.5250   23.3190  -31.2080 C   0  0  0  0  0  0  0  0  0  0  0  0
   -5.1550   23.3400  -31.2120 C   0  0  0  0  0  0  0  0  0  0  0  0
   -4.4150   22.3150  -31.7890 C   0  0  0  0  0  0  0  0  0  0  0  0
   -2.9840   22.3490  -31.7610 N   0  0  0  0  0  0  0  0  0  0  0  0
   -2.2380   21.3100  -31.0530 C   0  0  0  0  0  0  0  0  0  0  0  0
   -1.2390   21.9370  -30.0670 C   0  0  0  0  0  0  0  0  0  0  0  0
   -1.8190   22.9630  -29.1600 N   0  0  0  0  0  0  0  0  0  0  0  0
   -0.8570   24.0530  -28.8490 C   0  0  0  0  0  0  0  0  0  0  0  0
   -1.4630   25.1150  -27.9230 C   0  0  0  0  0  0  0  0  0  0  0  0
   -2.5310   22.3780  -27.9850 C   0  0  0  0  0  0  0  0  0  0  0  0
   -4.0340   22.6970  -27.8790 C   0  0  0  0  0  0  0  0  0  0  0  0
   -5.1130   21.2590  -32.4060 C   0  0  0  0  0  0  0  0  0  0  0  0
   -4.4140   20.2030  -33.0230 C   0  0  0  0  0  0  0  0  0  0  0  0
   -5.1040   19.1670  -33.6480 C   0  0  0  0  0  0  0  0  0  0  0  0
   -6.4950   19.1680  -33.6720 C   0  0  0  0  0  0  0  0  0  0  0  0
   -7.2120   20.1990  -33.0640 C   0  0  0  0  0  0  0  0  0  0  0  0
   -6.5460   21.2640  -32.4050 C   0  0  0  0  0  0  0  0  0  0  0  0
   -4.6970   24.5600  -30.5840 C   0  0  0  0  0  0  0  0  0  0  0  0
   -3.4910   24.9030  -30.4610 O   0  0  0  0  0  0  0  0  0  0  0  0
   -5.8520   25.3830  -30.1340 C   0  0  0  0  0  0  0  0  0  0  0  0
   -7.0850   24.5430  -30.5290 C   0  0  0  0  0  0  0  0  0  0  0  0
   -8.9286   22.0388  -29.6196 H   0  0  0  0  0  0  0  0  0  0  0  0
  -10.3604   21.5534  -30.5898 H   0  0  0  0  0  0  0  0  0  0  0  0
   -8.8858   20.5276  -30.5898 H   0  0  0  0  0  0  0  0  0  0  0  0
   -9.1127   21.9051  -32.6753 H   0  0  0  0  0  0  0  0  0  0  0  0
   -9.0321   23.3928  -31.6538 H   0  0  0  0  0  0  0  0  0  0  0  0
   -2.4930   23.0490  -32.3620 H   0  0  0  0  0  0  0  0  0  0  0  0
   -2.9429   20.6738  -30.4977 H   0  0  0  0  0  0  0  0  0  0  0  0
   -1.6814   20.7101  -31.7881 H   0  0  0  0  0  0  0  0  0  0  0  0
   -0.8180   21.1313  -29.4476 H   0  0  0  0  0  0  0  0  0  0  0  0
   -0.4843   22.4543  -30.6776 H   0  0  0  0  0  0  0  0  0  0  0  0
   -2.5710   23.4050  -29.7440 H   0  0  0  0  0  0  0  0  0  0  0  0
    0.0255   23.6170  -28.3580 H   0  0  0  0  0  0  0  0  0  0  0  0
   -0.5871   24.5448  -29.7952 H   0  0  0  0  0  0  0  0  0  0  0  0
   -1.2976   24.8251  -26.8749 H   0  0  0  0  0  0  0  0  0  0  0  0
   -0.9829   26.0859  -28.1150 H   0  0  0  0  0  0  0  0  0  0  0  0
   -2.5431   25.1957  -28.1150 H   0  0  0  0  0  0  0  0  0  0  0  0
   -2.4218   21.2846  -28.0355 H   0  0  0  0  0  0  0  0  0  0  0  0
   -2.0673   22.8363  -27.0990 H   0  0  0  0  0  0  0  0  0  0  0  0
   -4.3220   22.7581  -26.8191 H   0  0  0  0  0  0  0  0  0  0  0  0
   -4.2403   23.6589  -28.3711 H   0  0  0  0  0  0  0  0  0  0  0  0
   -4.6132   21.9018  -28.3711 H   0  0  0  0  0  0  0  0  0  0  0  0
   -3.3141   20.1965  -33.0111 H   0  0  0  0  0  0  0  0  0  0  0  0
   -4.5477   18.3460  -34.1238 H   0  0  0  0  0  0  0  0  0  0  0  0
   -7.0332   18.3504  -34.1738 H   0  0  0  0  0  0  0  0  0  0  0  0
   -8.3114   20.1857  -33.0962 H   0  0  0  0  0  0  0  0  0  0  0  0
   -5.8190   25.5414  -29.0460 H   0  0  0  0  0  0  0  0  0  0  0  0
   -5.8597   26.3854  -30.5869 H   0  0  0  0  0  0  0  0  0  0  0  0
   -7.6614   24.2596  -29.6360 H   0  0  0  0  0  0  0  0  0  0  0  0
   -7.7708   25.1003  -31.1840 H   0  0  0  0  0  0  0  0  0  0  0  0
  1  2  1  0
  2  3  1  0
  3  4  2  0
  4  5  1  0
  5  6  2  0
  6  7  1  0
  7  8  1  0
  8  9  1  0
  9 10  1  0
 10 11  1  0
 11 12  1  0
 10 13  1  0
 13 14  1  0
  6 15  1  0
 15 16  2  0
 16 17  1  0
 17 18  2  0
 18 19  1  0
 19 20  2  0
  5 21  1  0
 21 22  2  0
 21 23  1  0
 23 24  1  0
 20  3  1  0
 24  4  1  0
 20 15  1  0
  1 25  1  0
  1 26  1  0
  1 27  1  0
  2 28  1  0
  2 29  1  0
  7 30  1  0
  8 31  1  0
  8 32  1  0
  9 33  1  0
  9 34  1  0
 10 35  1  0
 11 36  1  0
 11 37  1  0
 12 38  1  0
 12 39  1  0
 12 40  1  0
 13 41  1  0
 13 42  1  0
 14 43  1  0
 14 44  1  0
 14 45  1  0
 16 46  1  0
 17 47  1  0
 18 48  1  0
 19 49  1  0
 23 50  1  0
 23 51  1  0
 24 52  1  0
 24 53  1  0
M  CHG  2   3   1  10   1
M  END
>  <UniqueID>  (9) 
8

>  <SMILES>  (9) 
CC[n+]1c2c(c(NCC[NH+](CC)CC)c3ccccc31)C(=O)CC2

>  <Energy>  (9) 
86.38690666761869

>  <Genealogy>  (9) 
CC[n+]1c2c(c(NCC[NH+](CC)CC)c3ccccc31)C(=O)CC2 (protonated)
CC[n+]1c2c(c(NCC[NH+](CC)CC)c3ccccc31)C(=O)CC2 (3D coordinates assigned)
CC[n+]1c2c(c(NCC[NH+](CC)CC)c3ccccc31)C(=O)CC2 (nonaromatic ring conformer: 86.38690666761869 kcal/mol)

>  <smiles>  (9) 
CCN(CC)CCNc1c2c([n+](CC)c3ccccc13)CCC2=O

>  <score_type>  (9) 
oracle

>  <origin>  (9) 
adg

>  <m_score__min__energy>  (9) 
-6.5

>  <m_primary>  (9) 
energy

$$$$
9:0
     RDKit          3D

 58 61  0  0  0  0  0  0  0  0999 V2000
   -1.4010   21.1980  -29.5950 C   0  0  0  0  0  0  0  0  0  0  0  0
   -2.7820   21.4980  -29.0170 C   0  0  0  0  0  0  0  0  0  0  0  0
   -3.0860   23.0040  -29.0700 C   0  0  0  0  0  0  0  0  0  0  0  0
   -4.1590   23.4270  -28.0480 C   0  0  0  0  0  0  0  0  0  0  0  0
   -4.9880   24.5640  -28.5150 N   0  0  0  0  0  0  0  0  0  0  0  0
   -4.7550   24.9220  -29.9280 C   0  0  0  0  0  0  0  0  0  0  0  0
   -6.0410   25.0250  -30.7790 C   0  0  0  0  0  0  0  0  0  0  0  0
   -6.7480   23.6930  -31.0800 C   0  0  0  0  0  0  0  0  0  0  0  0
   -5.8950   22.5310  -30.8060 N   0  0  0  0  0  0  0  0  0  0  0  0
   -5.7730   21.4180  -31.7130 C   0  0  0  0  0  0  0  0  0  0  0  0
   -4.5540   21.1890  -32.3480 C   0  0  0  0  0  0  0  0  0  0  0  0
   -4.3340   20.0340  -33.0750 C   0  0  0  0  0  0  0  0  0  0  0  0
   -5.3360   19.1310  -33.3270 N   0  0  0  0  0  0  0  0  0  0  0  0
   -5.1390   18.0780  -34.3380 C   0  0  0  0  0  0  0  0  0  0  0  0
   -6.5550   19.2980  -32.6880 C   0  0  0  0  0  0  0  0  0  0  0  0
   -7.5710   18.3140  -32.7580 C   0  0  0  0  0  0  0  0  0  0  0  0
   -8.8300   18.5430  -32.2040 C   0  0  0  0  0  0  0  0  0  0  0  0
   -9.1150   19.7560  -31.5870 C   0  0  0  0  0  0  0  0  0  0  0  0
   -8.1240   20.7260  -31.4610 C   0  0  0  0  0  0  0  0  0  0  0  0
   -6.8160   20.4860  -31.9320 C   0  0  0  0  0  0  0  0  0  0  0  0
   -2.9200   20.0240  -33.4760 C   0  0  0  0  0  0  0  0  0  0  0  0
   -2.1130   19.0130  -34.0220 C   0  0  0  0  0  0  0  0  0  0  0  0
   -0.7490   19.2730  -34.2250 C   0  0  0  0  0  0  0  0  0  0  0  0
   -0.1950   20.5090  -33.8460 C   0  0  0  0  0  0  0  0  0  0  0  0
   -0.9970   21.4830  -33.2360 C   0  0  0  0  0  0  0  0  0  0  0  0
   -2.3540   21.2160  -33.0510 C   0  0  0  0  0  0  0  0  0  0  0  0
   -3.3360   22.0680  -32.3160 C   0  0  0  0  0  0  0  0  0  0  0  0
   -0.6857   21.0426  -28.7739 H   0  0  0  0  0  0  0  0  0  0  0  0
   -1.4518   20.2900  -30.2138 H   0  0  0  0  0  0  0  0  0  0  0  0
   -1.0705   22.0453  -30.2138 H   0  0  0  0  0  0  0  0  0  0  0  0
   -3.5415   20.9569  -29.6005 H   0  0  0  0  0  0  0  0  0  0  0  0
   -2.8002   21.1735  -27.9661 H   0  0  0  0  0  0  0  0  0  0  0  0
   -2.1597   23.5583  -28.8585 H   0  0  0  0  0  0  0  0  0  0  0  0
   -3.4736   23.2311  -30.0741 H   0  0  0  0  0  0  0  0  0  0  0  0
   -4.8186   22.5678  -27.8564 H   0  0  0  0  0  0  0  0  0  0  0  0
   -3.6353   23.7539  -27.1376 H   0  0  0  0  0  0  0  0  0  0  0  0
   -4.8860   25.4110  -27.9140 H   0  0  0  0  0  0  0  0  0  0  0  0
   -5.9920   24.2820  -28.4350 H   0  0  0  0  0  0  0  0  0  0  0  0
   -4.2441   25.8957  -29.9568 H   0  0  0  0  0  0  0  0  0  0  0  0
   -4.1537   24.1103  -30.3633 H   0  0  0  0  0  0  0  0  0  0  0  0
   -6.7511   25.6711  -30.2420 H   0  0  0  0  0  0  0  0  0  0  0  0
   -5.7250   25.4246  -31.7539 H   0  0  0  0  0  0  0  0  0  0  0  0
   -7.6507   23.6234  -30.4552 H   0  0  0  0  0  0  0  0  0  0  0  0
   -6.9966   23.6806  -32.1515 H   0  0  0  0  0  0  0  0  0  0  0  0
   -5.6500   22.3690  -29.8030 H   0  0  0  0  0  0  0  0  0  0  0  0
   -4.9591   17.1162  -33.8354 H   0  0  0  0  0  0  0  0  0  0  0  0
   -6.0382   18.0006  -34.9668 H   0  0  0  0  0  0  0  0  0  0  0  0
   -4.2726   18.3309  -34.9668 H   0  0  0  0  0  0  0  0  0  0  0  0
   -7.3641   17.3555  -33.2564 H   0  0  0  0  0  0  0  0  0  0  0  0
   -9.6013   17.7604  -32.2553 H   0  0  0  0  0  0  0  0  0  0  0  0
  -10.1254   19.9497  -31.1976 H   0  0  0  0  0  0  0  0  0  0  0  0
   -8.3637   21.6902  -30.9889 H   0  0  0  0  0  0  0  0  0  0  0  0
   -2.5421   18.0351  -34.2858 H   0  0  0  0  0  0  0  0  0  0  0  0
   -0.1088   18.5050  -34.6836 H   0  0  0  0  0  0  0  0  0  0  0  0
    0.8706   20.7117  -34.0289 H   0  0  0  0  0  0  0  0  0  0  0  0
   -0.5647   22.4402  -32.9091 H   0  0  0  0  0  0  0  0  0  0  0  0
   -3.0074   22.2665  -31.2852 H   0  0  0  0  0  0  0  0  0  0  0  0
   -3.4852   23.0676  -32.7503 H   0  0  0  0  0  0  0  0  0  0  0  0
  1  2  1  0
  2  3  1  0
  3  4  1  0
  4  5  1  0
  5  6  1  0
  6  7  1  0
  7  8  1  0
  8  9  1  0
  9 10  1  0
 10 11  2  0
 11 12  1  0
 12 13  2  0
 13 14  1  0
 13 15  1  0
 15 16  2  0
 16 17  1  0
 17 18  2  0
 18 19  1  0
 19 20  2  0
 12 21  1  0
 21 22  2  0
 22 23  1  0
 23 24  2  0
 24 25  1  0
 25 26  2  0
 26 27  1  0
 20 10  1  0
 26 21  1  0
 27 11  1  0
 20 15  1  0
  1 28  1  0
  1 29  1  0
  1 30  1  0
  2 31  1  0
  2 32  1  0
  3 33  1  0
  3 34  1  0
  4 35  1  0
  4 36  1  0
  5 37  1  0
  5 38  1  0
  6 39  1  0
  6 40  1  0
  7 41  1  0
  7 42  1  0
  8 43  1  0
  8 44  1  0
  9 45  1  0
 14 46  1  0
 14 47  1  0
 14 48  1  0
 16 49  1  0
 17 50  1  0
 18 51  1  0
 19 52  1  0
 22 53  1  0
 23 54  1  0
 24 55  1  0
 25 56  1  0
 27 57  1  0
 27 58  1  0
M  CHG  2   5   1  13   1
M  END
>  <UniqueID>  (10) 
9

>  <SMILES>  (10) 
CCCC[NH2+]CCCNc1c2c([n+](C)c3ccccc13)-c1ccccc1C2

>  <Energy>  (10) 
98.1738168048401

>  <Genealogy>  (10) 
CCCC[NH2+]CCCNc1c2c([n+](C)c3ccccc13)-c1ccccc1C2 (protonated)
CCCC[NH2+]CCCNc1c2c([n+](C)c3ccccc13)-c1ccccc1C2 (3D coordinates assigned)
CCCC[NH2+]CCCNc1c2c([n+](C)c3ccccc13)-c1ccccc1C2 (nonaromatic ring conformer: 98.1738168048401 kcal/mol)

>  <smiles>  (10) 
CCCCNCCCNc1c2c([n+](C)c3ccccc13)-c1ccccc1C2

>  <score_type>  (10) 
oracle

>  <origin>  (10) 
adg

>  <m_score__min__energy>  (10) 
-8.1400000000000006

>  <m_primary>  (10) 
energy

$$$$
10:0
     RDKit          3D

 65 68  0  0  0  0  0  0  0  0999 V2000
   -4.3220   14.4760  -32.3430 C   0  0  0  0  0  0  0  0  0  0  0  0
   -5.1990   14.3490  -33.5810 C   0  0  0  0  0  0  0  0  0  0  0  0
   -5.1660   15.5490  -34.3510 O   0  0  0  0  0  0  0  0  0  0  0  0
   -5.7550   16.7760  -33.9890 C   0  0  0  0  0  0  0  0  0  0  0  0
   -6.8960   16.8530  -33.1710 C   0  0  0  0  0  0  0  0  0  0  0  0
   -7.4130   18.0960  -32.7810 C   0  0  0  0  0  0  0  0  0  0  0  0
   -6.8250   19.2800  -33.2600 C   0  0  0  0  0  0  0  0  0  0  0  0
   -5.6990   19.2040  -34.0910 C   0  0  0  0  0  0  0  0  0  0  0  0
   -5.1510   17.9560  -34.4460 C   0  0  0  0  0  0  0  0  0  0  0  0
   -4.0020   17.8400  -35.2480 O   0  0  0  0  0  0  0  0  0  0  0  0
   -2.7210   17.3830  -34.8160 C   0  0  0  0  0  0  0  0  0  0  0  0
   -2.1500   18.3000  -33.7430 C   0  0  0  0  0  0  0  0  0  0  0  0
   -7.2840   20.6310  -32.7630 C   0  0  0  0  0  0  0  0  0  0  0  0
   -8.6480   20.5950  -32.1950 N   0  0  0  0  0  0  0  0  0  0  0  0
   -8.9740   21.8930  -31.5580 C   0  0  0  0  0  0  0  0  0  0  0  0
   -7.7780   22.4420  -30.7660 C   0  0  0  0  0  0  0  0  0  0  0  0
   -7.3330   23.7980  -31.1960 N   0  0  2  0  0  0  0  0  0  0  0  0
   -6.4750   23.8150  -32.4080 C   0  0  0  0  0  0  0  0  0  0  0  0
   -5.1990   22.9900  -32.2270 C   0  0  0  0  0  0  0  0  0  0  0  0
   -4.5400   23.2620  -30.8940 C   0  0  0  0  0  0  0  0  0  0  0  0
   -3.2380   22.7890  -30.6670 C   0  0  0  0  0  0  0  0  0  0  0  0
   -2.6030   23.0160  -29.4330 C   0  0  0  0  0  0  0  0  0  0  0  0
   -1.2970   22.5820  -29.1700 O   0  0  0  0  0  0  0  0  0  0  0  0
   -0.9680   21.2890  -28.6780 C   0  0  0  0  0  0  0  0  0  0  0  0
   -3.2880   23.7040  -28.4300 C   0  0  0  0  0  0  0  0  0  0  0  0
   -4.5920   24.1620  -28.6390 C   0  0  0  0  0  0  0  0  0  0  0  0
   -5.2360   23.9250  -29.8590 C   0  0  0  0  0  0  0  0  0  0  0  0
   -6.6280   24.4820  -30.0890 C   0  0  0  0  0  0  0  0  0  0  0  0
   -8.7710   19.5030  -31.2130 C   0  0  0  0  0  0  0  0  0  0  0  0
   -8.6290   18.1480  -31.9010 C   0  0  0  0  0  0  0  0  0  0  0  0
   -4.9454   14.3857  -31.4412 H   0  0  0  0  0  0  0  0  0  0  0  0
   -3.5648   13.6781  -32.3467 H   0  0  0  0  0  0  0  0  0  0  0  0
   -3.8222   15.4559  -32.3467 H   0  0  0  0  0  0  0  0  0  0  0  0
   -4.8334   13.5147  -34.1977 H   0  0  0  0  0  0  0  0  0  0  0  0
   -6.2351   14.1639  -33.2613 H   0  0  0  0  0  0  0  0  0  0  0  0
   -7.3877   15.9286  -32.8338 H   0  0  0  0  0  0  0  0  0  0  0  0
   -5.2385   20.1284  -34.4698 H   0  0  0  0  0  0  0  0  0  0  0  0
   -2.8206   16.3672  -34.4058 H   0  0  0  0  0  0  0  0  0  0  0  0
   -2.0384   17.3840  -35.6786 H   0  0  0  0  0  0  0  0  0  0  0  0
   -2.3988   17.9004  -32.7488 H   0  0  0  0  0  0  0  0  0  0  0  0
   -1.0569   18.3563  -33.8525 H   0  0  0  0  0  0  0  0  0  0  0  0
   -2.5817   19.3058  -33.8525 H   0  0  0  0  0  0  0  0  0  0  0  0
   -6.5873   20.9752  -31.9845 H   0  0  0  0  0  0  0  0  0  0  0  0
   -7.3001   21.3147  -33.6245 H   0  0  0  0  0  0  0  0  0  0  0  0
   -9.2488   22.6167  -32.3395 H   0  0  0  0  0  0  0  0  0  0  0  0
   -9.8102   21.7371  -30.8605 H   0  0  0  0  0  0  0  0  0  0  0  0
   -8.0607   22.4920  -29.7041 H   0  0  0  0  0  0  0  0  0  0  0  0
   -6.9357   21.7590  -30.9502 H   0  0  0  0  0  0  0  0  0  0  0  0
   -8.1910   24.3640  -31.4050 H   0  0  0  0  0  0  0  0  0  0  0  0
   -7.0467   23.4019  -33.2521 H   0  0  0  0  0  0  0  0  0  0  0  0
   -6.1783   24.8574  -32.5960 H   0  0  0  0  0  0  0  0  0  0  0  0
   -5.4541   21.9217  -32.2869 H   0  0  0  0  0  0  0  0  0  0  0  0
   -4.4930   23.2726  -33.0218 H   0  0  0  0  0  0  0  0  0  0  0  0
   -2.7111   22.2373  -31.4594 H   0  0  0  0  0  0  0  0  0  0  0  0
   -0.9716   21.3033  -27.5781 H   0  0  0  0  0  0  0  0  0  0  0  0
   -1.7093   20.5603  -29.0377 H   0  0  0  0  0  0  0  0  0  0  0  0
    0.0315   21.0032  -29.0377 H   0  0  0  0  0  0  0  0  0  0  0  0
   -2.7957   23.8879  -27.4636 H   0  0  0  0  0  0  0  0  0  0  0  0
   -5.1142   24.7109  -27.8415 H   0  0  0  0  0  0  0  0  0  0  0  0
   -7.2147   24.3587  -29.1668 H   0  0  0  0  0  0  0  0  0  0  0  0
   -6.5243   25.5426  -30.3617 H   0  0  0  0  0  0  0  0  0  0  0  0
   -7.9820   19.6081  -30.4538 H   0  0  0  0  0  0  0  0  0  0  0  0
   -9.7623   19.5598  -30.7395 H   0  0  0  0  0  0  0  0  0  0  0  0
   -8.5467   17.3651  -31.1327 H   0  0  0  0  0  0  0  0  0  0  0  0
   -9.5158   17.9895  -32.5322 H   0  0  0  0  0  0  0  0  0  0  0  0
  1  2  1  0
  2  3  1  0
  3  4  1  0
  4  5  2  0
  5  6  1  0
  6  7  2  0
  7  8  1  0
  8  9  2  0
  9 10  1  0
 10 11  1  0
 11 12  1  0
  7 13  1  0
 13 14  1  0
 14 15  1  0
 15 16  1  0
 16 17  1  0
 17 18  1  0
 18 19  1  0
 19 20  1  0
 20 21  2  0
 21 22  1  0
 22 23  1  0
 23 24  1  0
 22 25  2  0
 25 26  1  0
 26 27  2  0
 27 28  1  0
 14 29  1  0
 29 30  1  0
  9  4  1  0
 28 17  1  0
 30  6  1  0
 27 20  1  0
  1 31  1  0
  1 32  1  0
  1 33  1  0
  2 34  1  0
  2 35  1  0
  5 36  1  0
  8 37  1  0
 11 38  1  0
 11 39  1  0
 12 40  1  0
 12 41  1  0
 12 42  1  0
 13 43  1  0
 13 44  1  0
 15 45  1  0
 15 46  1  0
 16 47  1  0
 16 48  1  0
 17 49  1  6
 18 50  1  0
 18 51  1  0
 19 52  1  0
 19 53  1  0
 21 54  1  0
 24 55  1  0
 24 56  1  0
 24 57  1  0
 25 58  1  0
 26 59  1  0
 28 60  1  0
 28 61  1  0
 29 62  1  0
 29 63  1  0
 30 64  1  0
 30 65  1  0
M  CHG  1  17   1
M  END
>  <UniqueID>  (11) 
10

>  <SMILES>  (11) 
CCOc1cc2c(cc1OCC)CN(CC[N@@H+]1CCc3cc(OC)ccc3C1)CC2

>  <Energy>  (11) 
74.8210603850691

>  <Genealogy>  (11) 
CCOc1cc2c(cc1OCC)CN(CC[NH+]1CCc3cc(OC)ccc3C1)CC2 (protonated)
CCOc1cc2c(cc1OCC)CN(CC[N@@H+]1CCc3cc(OC)ccc3C1)CC2 (chirality)
CCOc1cc2c(cc1OCC)CN(CC[N@@H+]1CCc3cc(OC)ccc3C1)CC2 (3D coordinates assigned)
CCOc1cc2c(cc1OCC)CN(CC[N@@H+]1CCc3cc(OC)ccc3C1)CC2 (nonaromatic ring conformer: 74.8210603850691 kcal/mol)

>  <smiles>  (11) 
CCOc1cc2c(cc1OCC)CN(CCN1CCc3cc(OC)ccc3C1)CC2

>  <score_type>  (11) 
oracle

>  <origin>  (11) 
adg

>  <m_score__min__energy>  (11) 
-8.3699999999999992

>  <m_primary>  (11) 
energy

$$$$
11:0
     RDKit          3D

 39 41  0  0  0  0  0  0  0  0999 V2000
   -4.1800   24.1590  -28.4850 C   0  0  0  0  0  0  0  0  0  0  0  0
   -3.3580   24.2200  -29.7660 C   0  0  0  0  0  0  0  0  0  0  0  0
   -3.9620   25.0960  -30.6980 O   0  0  0  0  0  0  0  0  0  0  0  0
   -5.3000   25.3650  -30.3320 C   0  0  0  0  0  0  0  0  0  0  0  0
   -6.2280   24.3780  -31.0390 C   0  0  0  0  0  0  0  0  0  0  0  0
   -5.4670   23.4580  -31.8810 N   0  0  0  0  0  0  0  0  0  0  0  0
   -5.8400   22.0810  -32.0120 C   0  0  0  0  0  0  0  0  0  0  0  0
   -5.0060   21.0280  -32.3710 C   0  0  0  0  0  0  0  0  0  0  0  0
   -3.5400   21.0680  -32.5570 C   0  0  0  0  0  0  0  0  0  0  0  0
   -2.9660   20.5380  -33.7230 C   0  0  0  0  0  0  0  0  0  0  0  0
   -1.5820   20.5770  -33.9050 C   0  0  0  0  0  0  0  0  0  0  0  0
   -0.7780   21.1360  -32.9110 C   0  0  0  0  0  0  0  0  0  0  0  0
   -1.3420   21.6290  -31.7770 N   0  0  0  0  0  0  0  0  0  0  0  0
   -2.6880   21.6070  -31.5790 C   0  0  0  0  0  0  0  0  0  0  0  0
   -5.7570   19.9290  -32.6300 N   0  0  0  0  0  0  0  0  0  0  0  0
   -7.0230   20.3470  -32.4170 C   0  0  0  0  0  0  0  0  0  0  0  0
   -8.1730   19.5740  -32.5680 C   0  0  0  0  0  0  0  0  0  0  0  0
   -9.4110   20.1930  -32.3280 C   0  0  0  0  0  0  0  0  0  0  0  0
   -9.4680   21.5490  -31.9520 C   0  0  0  0  0  0  0  0  0  0  0  0
   -8.2790   22.2790  -31.8170 C   0  0  0  0  0  0  0  0  0  0  0  0
   -7.1050   21.6400  -32.0560 N   0  0  0  0  0  0  0  0  0  0  0  0
   -3.5081   24.2089  -27.6155 H   0  0  0  0  0  0  0  0  0  0  0  0
   -4.8792   25.0077  -28.4572 H   0  0  0  0  0  0  0  0  0  0  0  0
   -4.7463   23.2164  -28.4572 H   0  0  0  0  0  0  0  0  0  0  0  0
   -2.3465   24.5825  -29.5307 H   0  0  0  0  0  0  0  0  0  0  0  0
   -3.3059   23.2127  -30.2049 H   0  0  0  0  0  0  0  0  0  0  0  0
   -5.4112   25.2576  -29.2429 H   0  0  0  0  0  0  0  0  0  0  0  0
   -5.5623   26.3917  -30.6271 H   0  0  0  0  0  0  0  0  0  0  0  0
   -6.7820   23.8007  -30.2842 H   0  0  0  0  0  0  0  0  0  0  0  0
   -6.9232   24.9442  -31.6763 H   0  0  0  0  0  0  0  0  0  0  0  0
   -4.6010   23.7960  -32.3560 H   0  0  0  0  0  0  0  0  0  0  0  0
   -3.6083   20.0905  -34.4958 H   0  0  0  0  0  0  0  0  0  0  0  0
   -1.1304   20.1713  -34.8223 H   0  0  0  0  0  0  0  0  0  0  0  0
    0.3130   21.1777  -33.0453 H   0  0  0  0  0  0  0  0  0  0  0  0
   -3.1110   22.0133  -30.6484 H   0  0  0  0  0  0  0  0  0  0  0  0
   -8.1133   18.5164  -32.8647 H   0  0  0  0  0  0  0  0  0  0  0  0
  -10.3411   19.6154  -32.4343 H   0  0  0  0  0  0  0  0  0  0  0  0
  -10.4386   22.0318  -31.7656 H   0  0  0  0  0  0  0  0  0  0  0  0
   -8.2965   23.3396  -31.5257 H   0  0  0  0  0  0  0  0  0  0  0  0
  1  2  1  0
  2  3  1  0
  3  4  1  0
  4  5  1  0
  5  6  1  0
  6  7  1  0
  7  8  2  0
  8  9  1  0
  9 10  2  0
 10 11  1  0
 11 12  2  0
 12 13  1  0
 13 14  2  0
  8 15  1  0
 15 16  2  0
 16 17  1  0
 17 18  2  0
 18 19  1  0
 19 20  2  0
 20 21  1  0
 21  7  1  0
 14  9  1  0
 21 16  1  0
  1 22  1  0
  1 23  1  0
  1 24  1  0
  2 25  1  0
  2 26  1  0
  4 27  1  0
  4 28  1  0
  5 29  1  0
  5 30  1  0
  6 31  1  0
 10 32  1  0
 11 33  1  0
 12 34  1  0
 14 35  1  0
 17 36  1  0
 18 37  1  0
 19 38  1  0
 20 39  1  0
M  END
>  <UniqueID>  (12) 
11

>  <SMILES>  (12) 
CCOCCNc1c(-c2cccnc2)nc2ccccn12

>  <Energy>  (12) 
81.54547182269016

>  <Genealogy>  (12) 
CCOCCNc1c(-c2cccnc2)nc2ccccn12 (3D coordinates assigned)
CCOCCNc1c(-c2cccnc2)nc2ccccn12 (optimized conformer: 81.54547182269016 kcal/mol)

>  <smiles>  (12) 
CCOCCNc1c(-c2cccnc2)nc2ccccn12

>  <score_type>  (12) 
oracle

>  <origin>  (12) 
adg

>  <m_score__min__energy>  (12) 
-7.4199999999999999

>  <m_primary>  (12) 
energy

$$$$
12:0
     RDKit          3D

 55 56  0  0  0  0  0  0  0  0999 V2000
   -3.8360   21.9370  -33.3240 C   0  0  0  0  0  0  0  0  0  0  0  0
   -3.9330   20.7210  -32.4070 C   0  0  0  0  0  0  0  0  0  0  0  0
   -4.2360   21.1410  -30.9620 C   0  0  0  0  0  0  0  0  0  0  0  0
   -3.0790   20.8370  -29.9960 C   0  0  0  0  0  0  0  0  0  0  0  0
   -1.6720   21.1120  -30.5630 C   0  0  0  0  0  0  0  0  0  0  0  0
   -0.6050   21.3450  -29.4890 C   0  0  0  0  0  0  0  0  0  0  0  0
   -1.0870   22.2530  -28.5020 O   0  0  0  0  0  0  0  0  0  0  0  0
   -1.0350   23.6410  -28.6590 C   0  0  0  0  0  0  0  0  0  0  0  0
    0.0730   24.2430  -28.7050 O   0  0  0  0  0  0  0  0  0  0  0  0
   -2.3110   24.4190  -28.7130 C   0  0  0  0  0  0  0  0  0  0  0  0
   -3.0870   24.0970  -29.9890 C   0  0  0  0  0  0  0  0  0  0  0  0
   -3.7500   25.2980  -30.4900 N   0  0  0  0  0  0  0  0  0  0  0  0
   -5.1710   25.4530  -30.5770 C   0  0  0  0  0  0  0  0  0  0  0  0
   -5.6700   26.5960  -30.4070 O   0  0  0  0  0  0  0  0  0  0  0  0
   -6.0640   24.3040  -30.8270 C   0  0  0  0  0  0  0  0  0  0  0  0
   -6.6550   23.6200  -29.7540 C   0  0  0  0  0  0  0  0  0  0  0  0
   -7.5200   22.5480  -29.9890 C   0  0  0  0  0  0  0  0  0  0  0  0
   -7.8180   22.1450  -31.3020 C   0  0  0  0  0  0  0  0  0  0  0  0
   -8.7260   21.0000  -31.5460 C   0  0  0  0  0  0  0  0  0  0  0  0
   -9.9170   21.2060  -31.9060 O   0  0  0  0  0  0  0  0  0  0  0  0
   -8.2320   19.6580  -31.4290 N   0  0  0  0  0  0  0  0  0  0  0  0
   -7.2440   19.0310  -32.2610 C   0  0  0  0  0  0  0  0  0  0  0  0
   -6.7050   17.8040  -31.8530 C   0  0  0  0  0  0  0  0  0  0  0  0
   -5.7600   17.1480  -32.6460 C   0  0  0  0  0  0  0  0  0  0  0  0
   -5.3560   17.7060  -33.8630 C   0  0  0  0  0  0  0  0  0  0  0  0
   -4.1730   16.8800  -34.8600 Cl  0  0  0  0  0  0  0  0  0  0  0  0
   -5.9070   18.9200  -34.2880 C   0  0  0  0  0  0  0  0  0  0  0  0
   -6.8520   19.5790  -33.4950 C   0  0  0  0  0  0  0  0  0  0  0  0
   -7.2450   22.8500  -32.3760 C   0  0  0  0  0  0  0  0  0  0  0  0
   -6.3820   23.9250  -32.1390 C   0  0  0  0  0  0  0  0  0  0  0  0
   -3.7631   22.8504  -32.7153 H   0  0  0  0  0  0  0  0  0  0  0  0
   -2.9422   21.8471  -33.9588 H   0  0  0  0  0  0  0  0  0  0  0  0
   -4.7328   21.9900  -33.9588 H   0  0  0  0  0  0  0  0  0  0  0  0
   -4.7383   20.0635  -32.7663 H   0  0  0  0  0  0  0  0  0  0  0  0
   -2.9676   20.1940  -32.4224 H   0  0  0  0  0  0  0  0  0  0  0  0
   -4.4326   22.2232  -30.9448 H   0  0  0  0  0  0  0  0  0  0  0  0
   -5.1082   20.5614  -30.6255 H   0  0  0  0  0  0  0  0  0  0  0  0
   -3.2124   21.4567  -29.0970 H   0  0  0  0  0  0  0  0  0  0  0  0
   -3.1237   19.7573  -29.7906 H   0  0  0  0  0  0  0  0  0  0  0  0
   -1.3684   20.2470  -31.1710 H   0  0  0  0  0  0  0  0  0  0  0  0
   -1.7404   22.0387  -31.1517 H   0  0  0  0  0  0  0  0  0  0  0  0
   -0.3569   20.3864  -29.0099 H   0  0  0  0  0  0  0  0  0  0  0  0
    0.2913   21.7730  -29.9618 H   0  0  0  0  0  0  0  0  0  0  0  0
   -2.9285   24.1607  -27.8401 H   0  0  0  0  0  0  0  0  0  0  0  0
   -2.0709   25.4925  -28.7068 H   0  0  0  0  0  0  0  0  0  0  0  0
   -2.3909   23.7203  -30.7529 H   0  0  0  0  0  0  0  0  0  0  0  0
   -3.8465   23.3333  -29.7654 H   0  0  0  0  0  0  0  0  0  0  0  0
   -6.4361   23.9295  -28.7214 H   0  0  0  0  0  0  0  0  0  0  0  0
   -7.9715   22.0151  -29.1392 H   0  0  0  0  0  0  0  0  0  0  0  0
   -7.0277   17.3542  -30.9025 H   0  0  0  0  0  0  0  0  0  0  0  0
   -5.3330   16.1907  -32.3124 H   0  0  0  0  0  0  0  0  0  0  0  0
   -5.5961   19.3572  -35.2483 H   0  0  0  0  0  0  0  0  0  0  0  0
   -7.2896   20.5283  -33.8376 H   0  0  0  0  0  0  0  0  0  0  0  0
   -7.4773   22.5538  -33.4096 H   0  0  0  0  0  0  0  0  0  0  0  0
   -5.9501   24.4765  -32.9871 H   0  0  0  0  0  0  0  0  0  0  0  0
  1  2  1  0
  2  3  1  0
  3  4  1  0
  4  5  1  0
  5  6  1  0
  6  7  1  0
  7  8  1  0
  8  9  2  0
  8 10  1  0
 10 11  1  0
 11 12  1  0
 12 13  1  0
 13 14  2  0
 13 15  1  0
 15 16  2  0
 16 17  1  0
 17 18  2  0
 18 19  1  0
 19 20  2  0
 19 21  1  0
 21 22  1  0
 22 23  2  0
 23 24  1  0
 24 25  2  0
 25 26  1  0
 25 27  1  0
 27 28  2  0
 18 29  1  0
 29 30  2  0
 30 15  1  0
 28 22  1  0
  1 31  1  0
  1 32  1  0
  1 33  1  0
  2 34  1  0
  2 35  1  0
  3 36  1  0
  3 37  1  0
  4 38  1  0
  4 39  1  0
  5 40  1  0
  5 41  1  0
  6 42  1  0
  6 43  1  0
 10 44  1  0
 10 45  1  0
 11 46  1  0
 11 47  1  0
 16 48  1  0
 17 49  1  0
 23 50  1  0
 24 51  1  0
 27 52  1  0
 28 53  1  0
 29 54  1  0
 30 55  1  0
M  CHG  2  12  -1  21  -1
M  END
>  <UniqueID>  (13) 
12

>  <SMILES>  (13) 
CCCCCCOC(=O)CC[N-]C(=O)c1ccc(C(=O)[N-]c2ccc(Cl)cc2)cc1

>  <Energy>  (13) 
45.90499758109914

>  <Genealogy>  (13) 
CCCCCCOC(=O)CC[N-]C(=O)c1ccc(C(=O)[N-]c2ccc(Cl)cc2)cc1 (protonated)
CCCCCCOC(=O)CC[N-]C(=O)c1ccc(C(=O)[N-]c2ccc(Cl)cc2)cc1 (3D coordinates assigned)
CCCCCCOC(=O)CC[N-]C(=O)c1ccc(C(=O)[N-]c2ccc(Cl)cc2)cc1 (optimized conformer: 45.90499758109914 kcal/mol)

>  <smiles>  (13) 
CCCCCCOC(=O)CCNC(=O)c1ccc(C(=O)Nc2ccc(Cl)cc2)cc1

>  <score_type>  (13) 
oracle

>  <origin>  (13) 
adg

>  <m_score__min__energy>  (13) 
-11

>  <m_primary>  (13) 
energy

$$$$
13:0
     RDKit          3D

 51 53  0  0  0  0  0  0  0  0999 V2000
   -5.9070   25.1010  -29.4370 C   0  0  0  0  0  0  0  0  0  0  0  0
   -5.2650   25.2290  -30.8130 C   0  0  0  0  0  0  0  0  0  0  0  0
   -3.8970   24.8290  -30.7730 O   0  0  0  0  0  0  0  0  0  0  0  0
   -3.2820   24.0960  -29.7420 C   0  0  0  0  0  0  0  0  0  0  0  0
   -2.4000   24.6990  -28.8210 C   0  0  0  0  0  0  0  0  0  0  0  0
   -1.7920   23.9370  -27.8220 C   0  0  0  0  0  0  0  0  0  0  0  0
   -2.0560   22.5710  -27.7200 C   0  0  0  0  0  0  0  0  0  0  0  0
   -1.2140   21.5340  -26.3550 Br  0  0  0  0  0  0  0  0  0  0  0  0
   -2.9350   21.9620  -28.6190 C   0  0  0  0  0  0  0  0  0  0  0  0
   -3.5610   22.7170  -29.6260 C   0  0  0  0  0  0  0  0  0  0  0  0
   -4.5020   22.0210  -30.5880 C   0  0  0  0  0  0  0  0  0  0  0  0
   -4.0560   22.1470  -31.9870 N   0  0  0  0  0  0  0  0  0  0  0  0
   -2.7830   21.4500  -32.2300 C   0  0  0  0  0  0  0  0  0  0  0  0
   -2.7850   20.7840  -33.6160 C   0  0  0  0  0  0  0  0  0  0  0  0
   -3.0650   19.2800  -33.5350 C   0  0  0  0  0  0  0  0  0  0  0  0
   -4.3900   18.9720  -34.0780 N   0  0  0  0  0  0  0  0  0  0  0  0
   -5.6080   19.3540  -33.4240 C   0  0  0  0  0  0  0  0  0  0  0  0
   -6.5210   18.3720  -33.0180 C   0  0  0  0  0  0  0  0  0  0  0  0
   -7.6920   18.7450  -32.3520 C   0  0  0  0  0  0  0  0  0  0  0  0
   -8.5000   17.8520  -31.9770 O   0  0  0  0  0  0  0  0  0  0  0  0
   -7.9510   20.1070  -32.1050 C   0  0  0  0  0  0  0  0  0  0  0  0
   -9.1050   20.5360  -31.4240 C   0  0  0  0  0  0  0  0  0  0  0  0
   -9.3190   21.9000  -31.1940 C   0  0  0  0  0  0  0  0  0  0  0  0
   -8.3890   22.8430  -31.6410 C   0  0  0  0  0  0  0  0  0  0  0  0
   -7.2400   22.4290  -32.3190 C   0  0  0  0  0  0  0  0  0  0  0  0
   -7.0150   21.0670  -32.5530 C   0  0  0  0  0  0  0  0  0  0  0  0
   -5.8820   20.6670  -33.1900 N   0  0  0  0  0  0  0  0  0  0  0  0
   -5.1431   25.2533  -28.6604 H   0  0  0  0  0  0  0  0  0  0  0  0
   -6.6963   25.8595  -29.3287 H   0  0  0  0  0  0  0  0  0  0  0  0
   -6.3451   24.0978  -29.3287 H   0  0  0  0  0  0  0  0  0  0  0  0
   -5.8071   24.5891  -31.5248 H   0  0  0  0  0  0  0  0  0  0  0  0
   -5.3154   26.2815  -31.1289 H   0  0  0  0  0  0  0  0  0  0  0  0
   -2.1900   25.7765  -28.8905 H   0  0  0  0  0  0  0  0  0  0  0  0
   -1.1016   24.4158  -27.1120 H   0  0  0  0  0  0  0  0  0  0  0  0
   -3.1387   20.8840  -28.5383 H   0  0  0  0  0  0  0  0  0  0  0  0
   -4.5517   20.9538  -30.3261 H   0  0  0  0  0  0  0  0  0  0  0  0
   -5.4891   22.4989  -30.5023 H   0  0  0  0  0  0  0  0  0  0  0  0
   -3.9290   23.1670  -32.1890 H   0  0  0  0  0  0  0  0  0  0  0  0
   -4.7930   21.7750  -32.6300 H   0  0  0  0  0  0  0  0  0  0  0  0
   -1.9582   22.1760  -32.1793 H   0  0  0  0  0  0  0  0  0  0  0  0
   -2.6535   20.6718  -31.4634 H   0  0  0  0  0  0  0  0  0  0  0  0
   -3.5623   21.2562  -34.2348 H   0  0  0  0  0  0  0  0  0  0  0  0
   -1.7861   20.9182  -34.0566 H   0  0  0  0  0  0  0  0  0  0  0  0
   -2.3023   18.7387  -34.1140 H   0  0  0  0  0  0  0  0  0  0  0  0
   -3.0333   18.9698  -32.4801 H   0  0  0  0  0  0  0  0  0  0  0  0
   -4.4430   18.4090  -34.9570 H   0  0  0  0  0  0  0  0  0  0  0  0
   -6.3170   17.3106  -33.2227 H   0  0  0  0  0  0  0  0  0  0  0  0
   -9.8406   19.7979  -31.0716 H   0  0  0  0  0  0  0  0  0  0  0  0
  -10.2219   22.2309  -30.6598 H   0  0  0  0  0  0  0  0  0  0  0  0
   -8.5624   23.9138  -31.4584 H   0  0  0  0  0  0  0  0  0  0  0  0
   -6.5108   23.1742  -32.6696 H   0  0  0  0  0  0  0  0  0  0  0  0
  1  2  1  0
  2  3  1  0
  3  4  1  0
  4  5  2  0
  5  6  1  0
  6  7  2  0
  7  8  1  0
  7  9  1  0
  9 10  2  0
 10 11  1  0
 11 12  1  0
 12 13  1  0
 13 14  1  0
 14 15  1  0
 15 16  1  0
 16 17  1  0
 17 18  2  0
 18 19  1  0
 19 20  2  0
 19 21  1  0
 21 22  2  0
 22 23  1  0
 23 24  2  0
 24 25  1  0
 25 26  2  0
 26 27  1  0
 10  4  1  0
 27 17  1  0
 26 21  1  0
  1 28  1  0
  1 29  1  0
  1 30  1  0
  2 31  1  0
  2 32  1  0
  5 33  1  0
  6 34  1  0
  9 35  1  0
 11 36  1  0
 11 37  1  0
 12 38  1  0
 12 39  1  0
 13 40  1  0
 13 41  1  0
 14 42  1  0
 14 43  1  0
 15 44  1  0
 15 45  1  0
 16 46  1  0
 18 47  1  0
 22 48  1  0
 23 49  1  0
 24 50  1  0
 25 51  1  0
M  CHG  2  12   1  27  -1
M  END
>  <UniqueID>  (14) 
13

>  <SMILES>  (14) 
CCOc1ccc(Br)cc1C[NH2+]CCCNc1cc(=O)c2ccccc2[n-]1

>  <Energy>  (14) 
47.334249271952785

>  <Genealogy>  (14) 
CCOc1ccc(Br)cc1C[NH2+]CCCNc1cc(=O)c2ccccc2[n-]1 (protonated)
CCOc1ccc(Br)cc1C[NH2+]CCCNc1cc(=O)c2ccccc2[n-]1 (3D coordinates assigned)
CCOc1ccc(Br)cc1C[NH2+]CCCNc1cc(=O)c2ccccc2[n-]1 (optimized conformer: 47.334249271952785 kcal/mol)

>  <smiles>  (14) 
CCOc1ccc(Br)cc1CNCCCNc1cc(=O)c2ccccc2[nH]1

>  <score_type>  (14) 
oracle

>  <origin>  (14) 
adg

>  <m_score__min__energy>  (14) 
-10.27

>  <m_primary>  (14) 
energy

$$$$
14:0
     RDKit          3D

 55 58  0  0  0  0  0  0  0  0999 V2000
   -4.2550   22.6690  -28.7460 C   0  0  0  0  0  0  0  0  0  0  0  0
   -4.2560   24.1520  -28.3780 C   0  0  0  0  0  0  0  0  0  0  0  0
   -5.4140   24.8390  -28.9740 N   0  0  0  0  0  0  0  0  0  0  0  0
   -5.4420   24.7180  -30.4440 C   0  0  0  0  0  0  0  0  0  0  0  0
   -6.6290   23.8850  -30.9590 C   0  0  0  0  0  0  0  0  0  0  0  0
   -6.3170   23.2300  -32.2290 N   0  0  0  0  0  0  0  0  0  0  0  0
   -6.0100   21.8290  -32.2650 C   0  0  0  0  0  0  0  0  0  0  0  0
   -7.0460   20.8810  -32.3010 C   0  0  0  0  0  0  0  0  0  0  0  0
   -8.3960   21.2910  -32.3130 C   0  0  0  0  0  0  0  0  0  0  0  0
   -9.4230   20.3520  -32.2850 C   0  0  0  0  0  0  0  0  0  0  0  0
   -9.1250   18.9950  -32.2320 C   0  0  0  0  0  0  0  0  0  0  0  0
   -7.7970   18.5670  -32.2350 C   0  0  0  0  0  0  0  0  0  0  0  0
   -6.7280   19.4970  -32.3090 C   0  0  0  0  0  0  0  0  0  0  0  0
   -5.4080   19.0870  -32.3650 N   0  0  0  0  0  0  0  0  0  0  0  0
   -5.0850   17.6710  -32.6500 C   0  0  0  0  0  0  0  0  0  0  0  0
   -4.3890   20.0060  -32.1900 C   0  0  0  0  0  0  0  0  0  0  0  0
   -3.0440   19.6040  -31.9900 C   0  0  0  0  0  0  0  0  0  0  0  0
   -2.0170   20.5450  -31.8740 C   0  0  0  0  0  0  0  0  0  0  0  0
   -0.3270   20.0050  -31.6090 S   0  0  0  0  0  0  0  0  0  0  0  0
   -0.6110   19.6880  -29.8670 C   0  0  0  0  0  0  0  0  0  0  0  0
    0.0410   18.6230  -29.2310 C   0  0  0  0  0  0  0  0  0  0  0  0
   -0.1880   18.3710  -27.8750 C   0  0  0  0  0  0  0  0  0  0  0  0
   -1.0640   19.1850  -27.1500 C   0  0  0  0  0  0  0  0  0  0  0  0
   -1.7110   20.2530  -27.7810 C   0  0  0  0  0  0  0  0  0  0  0  0
   -1.4850   20.5050  -29.1380 C   0  0  0  0  0  0  0  0  0  0  0  0
   -2.3060   21.9030  -31.9530 C   0  0  0  0  0  0  0  0  0  0  0  0
   -3.6230   22.3300  -32.1000 C   0  0  0  0  0  0  0  0  0  0  0  0
   -4.6770   21.3970  -32.1860 C   0  0  0  0  0  0  0  0  0  0  0  0
   -4.2546   22.0634  -27.8277 H   0  0  0  0  0  0  0  0  0  0  0  0
   -5.1530   22.4374  -29.3376 H   0  0  0  0  0  0  0  0  0  0  0  0
   -3.3567   22.4386  -29.3376 H   0  0  0  0  0  0  0  0  0  0  0  0
   -4.3019   24.2517  -27.2835 H   0  0  0  0  0  0  0  0  0  0  0  0
   -3.3354   24.6118  -28.7667 H   0  0  0  0  0  0  0  0  0  0  0  0
   -5.4190   25.8470  -28.6900 H   0  0  0  0  0  0  0  0  0  0  0  0
   -6.2880   24.3980  -28.6020 H   0  0  0  0  0  0  0  0  0  0  0  0
   -5.5084   25.7270  -30.8770 H   0  0  0  0  0  0  0  0  0  0  0  0
   -4.5209   24.1990  -30.7478 H   0  0  0  0  0  0  0  0  0  0  0  0
   -6.8761   23.1161  -30.2122 H   0  0  0  0  0  0  0  0  0  0  0  0
   -7.4799   24.5629  -31.1217 H   0  0  0  0  0  0  0  0  0  0  0  0
   -6.4460   23.7340  -33.1360 H   0  0  0  0  0  0  0  0  0  0  0  0
   -8.6392   22.3633  -32.3448 H   0  0  0  0  0  0  0  0  0  0  0  0
  -10.4716   20.6839  -32.3048 H   0  0  0  0  0  0  0  0  0  0  0  0
   -9.9389   18.2564  -32.1876 H   0  0  0  0  0  0  0  0  0  0  0  0
   -7.5752   17.4910  -32.1791 H   0  0  0  0  0  0  0  0  0  0  0  0
   -4.9606   17.1255  -31.7029 H   0  0  0  0  0  0  0  0  0  0  0  0
   -5.9028   17.2178  -33.2294 H   0  0  0  0  0  0  0  0  0  0  0  0
   -4.1515   17.6173  -33.2294 H   0  0  0  0  0  0  0  0  0  0  0  0
   -2.8045   18.5324  -31.9250 H   0  0  0  0  0  0  0  0  0  0  0  0
    0.7336   17.9847  -29.7992 H   0  0  0  0  0  0  0  0  0  0  0  0
    0.3211   17.5320  -27.3782 H   0  0  0  0  0  0  0  0  0  0  0  0
   -1.2444   18.9855  -26.0834 H   0  0  0  0  0  0  0  0  0  0  0  0
   -2.3977   20.8948  -27.2096 H   0  0  0  0  0  0  0  0  0  0  0  0
   -1.9938   21.3452  -29.6332 H   0  0  0  0  0  0  0  0  0  0  0  0
   -1.4924   22.6413  -31.8992 H   0  0  0  0  0  0  0  0  0  0  0  0
   -3.8437   23.4065  -32.1496 H   0  0  0  0  0  0  0  0  0  0  0  0
  1  2  1  0
  2  3  1  0
  3  4  1  0
  4  5  1  0
  5  6  1  0
  6  7  1  0
  7  8  2  0
  8  9  1  0
  9 10  2  0
 10 11  1  0
 11 12  2  0
 12 13  1  0
 13 14  2  0
 14 15  1  0
 14 16  1  0
 16 17  2  0
 17 18  1  0
 18 19  1  0
 19 20  1  0
 20 21  2  0
 21 22  1  0
 22 23  2  0
 23 24  1  0
 24 25  2  0
 18 26  2  0
 26 27  1  0
 27 28  2  0
 28  7  1  0
 13  8  1  0
 28 16  1  0
 25 20  1  0
  1 29  1  0
  1 30  1  0
  1 31  1  0
  2 32  1  0
  2 33  1  0
  3 34  1  0
  3 35  1  0
  4 36  1  0
  4 37  1  0
  5 38  1  0
  5 39  1  0
  6 40  1  0
  9 41  1  0
 10 42  1  0
 11 43  1  0
 12 44  1  0
 15 45  1  0
 15 46  1  0
 15 47  1  0
 17 48  1  0
 21 49  1  0
 22 50  1  0
 23 51  1  0
 24 52  1  0
 25 53  1  0
 26 54  1  0
 27 55  1  0
M  CHG  2   3   1  14   1
M  END
>  <UniqueID>  (15) 
14

>  <SMILES>  (15) 
CC[NH2+]CCNc1c2ccccc2[n+](C)c2cc(Sc3ccccc3)ccc12

>  <Energy>  (15) 
75.93361843640291

>  <Genealogy>  (15) 
CC[NH2+]CCNc1c2ccccc2[n+](C)c2cc(Sc3ccccc3)ccc12 (protonated)
CC[NH2+]CCNc1c2ccccc2[n+](C)c2cc(Sc3ccccc3)ccc12 (3D coordinates assigned)
CC[NH2+]CCNc1c2ccccc2[n+](C)c2cc(Sc3ccccc3)ccc12 (optimized conformer: 75.93361843640291 kcal/mol)

>  <smiles>  (15) 
CCNCCNc1c2ccccc2[n+](C)c2cc(Sc3ccccc3)ccc12

>  <score_type>  (15) 
oracle

>  <origin>  (15) 
adg

>  <m_score__min__energy>  (15) 
-8.2599999999999998

>  <m_primary>  (15) 
energy

$$$$
15:0
     RDKit          3D

 52 52  0  0  0  0  0  0  0  0999 V2000
   -7.4300   18.6850  -31.7760 C   0  0  0  0  0  0  0  0  0  0  0  0
   -5.9120   18.7010  -31.6260 C   0  0  0  0  0  0  0  0  0  0  0  0
   -5.2780   19.1120  -32.8890 N   0  0  0  0  0  0  0  0  0  0  0  0
   -6.1580   18.9130  -34.0540 C   0  0  0  0  0  0  0  0  0  0  0  0
   -6.1240   17.4610  -34.5650 C   0  0  0  0  0  0  0  0  0  0  0  0
   -4.7070   16.8720  -34.5200 C   0  0  0  0  0  0  0  0  0  0  0  0
   -3.7180   17.8570  -34.9810 N   0  0  0  0  0  0  0  0  0  0  0  0
   -2.3550   17.4920  -34.5650 C   0  0  0  0  0  0  0  0  0  0  0  0
   -1.6950   18.6030  -33.7390 C   0  0  0  0  0  0  0  0  0  0  0  0
   -2.5940   19.7560  -33.6110 N   0  0  0  0  0  0  0  0  0  0  0  0
   -2.1890   20.5990  -32.4790 C   0  0  0  0  0  0  0  0  0  0  0  0
   -2.9570   21.9320  -32.4940 C   0  0  0  0  0  0  0  0  0  0  0  0
   -4.2710   21.8300  -33.1510 N   0  0  0  0  0  0  0  0  0  0  0  0
   -5.3060   22.4160  -32.3440 C   0  0  0  0  0  0  0  0  0  0  0  0
   -5.0530   23.5350  -31.6110 N   0  0  0  0  0  0  0  0  0  0  0  0
   -6.0240   24.1170  -30.8580 C   0  0  0  0  0  0  0  0  0  0  0  0
   -5.7220   25.3640  -30.0890 C   0  0  0  0  0  0  0  0  0  0  0  0
   -7.3130   23.5730  -30.8490 C   0  0  0  0  0  0  0  0  0  0  0  0
   -7.5590   22.4240  -31.6060 C   0  0  0  0  0  0  0  0  0  0  0  0
   -8.9250   21.8180  -31.6490 C   0  0  0  0  0  0  0  0  0  0  0  0
   -6.5560   21.8810  -32.3440 N   0  0  0  0  0  0  0  0  0  0  0  0
   -7.8968   18.6801  -30.7800 H   0  0  0  0  0  0  0  0  0  0  0  0
   -7.7534   19.5798  -32.3281 H   0  0  0  0  0  0  0  0  0  0  0  0
   -7.7344   17.7836  -32.3281 H   0  0  0  0  0  0  0  0  0  0  0  0
   -5.6333   19.4100  -30.8325 H   0  0  0  0  0  0  0  0  0  0  0  0
   -5.5676   17.6893  -31.3655 H   0  0  0  0  0  0  0  0  0  0  0  0
   -4.3930   18.5690  -33.0200 H   0  0  0  0  0  0  0  0  0  0  0  0
   -7.1897   19.1635  -33.7660 H   0  0  0  0  0  0  0  0  0  0  0  0
   -5.7999   19.5654  -34.8640 H   0  0  0  0  0  0  0  0  0  0  0  0
   -6.7847   16.8468  -33.9356 H   0  0  0  0  0  0  0  0  0  0  0  0
   -6.4609   17.4599  -35.6121 H   0  0  0  0  0  0  0  0  0  0  0  0
   -4.4704   16.5799  -33.4862 H   0  0  0  0  0  0  0  0  0  0  0  0
   -4.6679   15.9956  -35.1837 H   0  0  0  0  0  0  0  0  0  0  0  0
   -3.9480   18.7720  -34.5250 H   0  0  0  0  0  0  0  0  0  0  0  0
   -2.4014   16.5762  -33.9574 H   0  0  0  0  0  0  0  0  0  0  0  0
   -1.7514   17.3350  -35.4711 H   0  0  0  0  0  0  0  0  0  0  0  0
   -1.4584   18.2162  -32.7368 H   0  0  0  0  0  0  0  0  0  0  0  0
   -0.7756   18.9255  -34.2496 H   0  0  0  0  0  0  0  0  0  0  0  0
   -3.5580   19.3950  -33.4140 H   0  0  0  0  0  0  0  0  0  0  0  0
   -2.4029   20.0692  -31.5391 H   0  0  0  0  0  0  0  0  0  0  0  0
   -1.1124   20.8093  -32.5610 H   0  0  0  0  0  0  0  0  0  0  0  0
   -3.1087   22.2612  -31.4554 H   0  0  0  0  0  0  0  0  0  0  0  0
   -2.3561   22.6522  -33.0686 H   0  0  0  0  0  0  0  0  0  0  0  0
   -4.2490   22.2890  -34.0910 H   0  0  0  0  0  0  0  0  0  0  0  0
   -4.4960   20.8180  -33.2950 H   0  0  0  0  0  0  0  0  0  0  0  0
   -5.7735   25.1515  -29.0110 H   0  0  0  0  0  0  0  0  0  0  0  0
   -4.7123   25.7174  -30.3453 H   0  0  0  0  0  0  0  0  0  0  0  0
   -6.4581   26.1402  -30.3453 H   0  0  0  0  0  0  0  0  0  0  0  0
   -8.1156   24.0395  -30.2589 H   0  0  0  0  0  0  0  0  0  0  0  0
   -9.2873   21.6573  -30.6229 H   0  0  0  0  0  0  0  0  0  0  0  0
   -9.6106   22.4964  -32.1779 H   0  0  0  0  0  0  0  0  0  0  0  0
   -8.8822   20.8544  -32.1779 H   0  0  0  0  0  0  0  0  0  0  0  0
  1  2  1  0
  2  3  1  0
  3  4  1  0
  4  5  1  0
  5  6  1  0
  6  7  1  0
  7  8  1  0
  8  9  1  0
  9 10  1  0
 10 11  1  0
 11 12  1  0
 12 13  1  0
 13 14  1  0
 14 15  2  0
 15 16  1  0
 16 17  1  0
 16 18  2  0
 18 19  1  0
 19 20  1  0
 19 21  2  0
 21 14  1  0
  1 22  1  0
  1 23  1  0
  1 24  1  0
  2 25  1  0
  2 26  1  0
  3 27  1  0
  4 28  1  0
  4 29  1  0
  5 30  1  0
  5 31  1  0
  6 32  1  0
  6 33  1  0
  7 34  1  0
  8 35  1  0
  8 36  1  0
  9 37  1  0
  9 38  1  0
 10 39  1  0
 11 40  1  0
 11 41  1  0
 12 42  1  0
 12 43  1  0
 13 44  1  0
 13 45  1  0
 17 46  1  0
 17 47  1  0
 17 48  1  0
 18 49  1  0
 20 50  1  0
 20 51  1  0
 20 52  1  0
M  CHG  1  13   1
M  END
>  <UniqueID>  (16) 
15

>  <SMILES>  (16) 
CCNCCCNCCNCC[NH2+]c1nc(C)cc(C)n1

>  <Energy>  (16) 
32.74320510880047

>  <Genealogy>  (16) 
CCNCCCNCCNCC[NH2+]c1nc(C)cc(C)n1 (protonated)
CCNCCCNCCNCC[NH2+]c1nc(C)cc(C)n1 (3D coordinates assigned)
CCNCCCNCCNCC[NH2+]c1nc(C)cc(C)n1 (optimized conformer: 32.74320510880047 kcal/mol)

>  <smiles>  (16) 
CCNCCCNCCNCCNc1nc(C)cc(C)n1

>  <score_type>  (16) 
oracle

>  <origin>  (16) 
adg

>  <m_score__min__energy>  (16) 
-5.9400000000000004

>  <m_primary>  (16) 
energy

$$$$
16:0
     RDKit          3D

 54 55  0  0  0  0  0  0  0  0999 V2000
   -9.4330   21.5520  -30.7590 C   0  0  0  0  0  0  0  0  0  0  0  0
   -8.8790   22.4610  -31.8450 C   0  0  0  0  0  0  0  0  0  0  0  0
   -7.7220   21.8690  -32.3980 O   0  0  0  0  0  0  0  0  0  0  0  0
   -7.8480   20.4590  -32.4230 C   0  0  0  0  0  0  0  0  0  0  0  0
   -6.5650   19.8090  -32.9480 C   0  0  0  0  0  0  0  0  0  0  0  0
   -5.7130   20.7930  -33.5060 O   0  0  0  0  0  0  0  0  0  0  0  0
   -4.4940   20.8590  -32.7970 C   0  0  0  0  0  0  0  0  0  0  0  0
   -4.5680   21.9600  -31.7290 C   0  0  0  0  0  0  0  0  0  0  0  0
   -5.2170   23.1920  -32.2090 N   0  0  0  0  0  0  0  0  0  0  0  0
   -5.8730   23.9420  -31.1320 C   0  0  0  0  0  0  0  0  0  0  0  0
   -5.2240   25.3180  -30.9870 C   0  0  0  0  0  0  0  0  0  0  0  0
   -3.9050   25.1990  -30.4560 O   0  0  0  0  0  0  0  0  0  0  0  0
   -3.4630   24.1890  -29.5840 C   0  0  0  0  0  0  0  0  0  0  0  0
   -4.0360   23.9740  -28.3150 C   0  0  0  0  0  0  0  0  0  0  0  0
   -3.5660   22.9500  -27.4920 C   0  0  0  0  0  0  0  0  0  0  0  0
   -2.5120   22.1280  -27.9140 C   0  0  0  0  0  0  0  0  0  0  0  0
   -2.0410   21.1010  -27.0850 C   0  0  0  0  0  0  0  0  0  0  0  0
   -0.9870   20.2900  -27.5040 C   0  0  0  0  0  0  0  0  0  0  0  0
   -0.3940   20.4920  -28.7520 C   0  0  0  0  0  0  0  0  0  0  0  0
   -0.8540   21.5120  -29.6090 C   0  0  0  0  0  0  0  0  0  0  0  0
   -0.2770   21.7380  -30.8730 O   0  0  0  0  0  0  0  0  0  0  0  0
   -0.2200   20.7990  -31.9470 C   0  0  0  0  0  0  0  0  0  0  0  0
   -1.1910   21.1860  -33.0570 C   0  0  0  0  0  0  0  0  0  0  0  0
   -1.9180   22.3380  -29.1840 C   0  0  0  0  0  0  0  0  0  0  0  0
   -2.4060   23.3740  -30.0050 C   0  0  0  0  0  0  0  0  0  0  0  0
   -9.1811   21.9653  -29.7712 H   0  0  0  0  0  0  0  0  0  0  0  0
  -10.5262   21.4840  -30.8601 H   0  0  0  0  0  0  0  0  0  0  0  0
   -8.9924   20.5492  -30.8601 H   0  0  0  0  0  0  0  0  0  0  0  0
   -9.6351   22.5974  -32.6322 H   0  0  0  0  0  0  0  0  0  0  0  0
   -8.6240   23.4403  -31.4139 H   0  0  0  0  0  0  0  0  0  0  0  0
   -8.0453   20.0962  -31.4035 H   0  0  0  0  0  0  0  0  0  0  0  0
   -8.6791   20.1905  -33.0918 H   0  0  0  0  0  0  0  0  0  0  0  0
   -6.0460   19.3067  -32.1183 H   0  0  0  0  0  0  0  0  0  0  0  0
   -6.8255   19.0759  -33.7257 H   0  0  0  0  0  0  0  0  0  0  0  0
   -4.3026   19.8913  -32.3103 H   0  0  0  0  0  0  0  0  0  0  0  0
   -3.6794   21.0904  -33.4991 H   0  0  0  0  0  0  0  0  0  0  0  0
   -5.1384   21.5762  -30.8703 H   0  0  0  0  0  0  0  0  0  0  0  0
   -3.5347   22.2202  -31.4559 H   0  0  0  0  0  0  0  0  0  0  0  0
   -5.9240   22.9530  -32.9430 H   0  0  0  0  0  0  0  0  0  0  0  0
   -6.9398   24.0651  -31.3705 H   0  0  0  0  0  0  0  0  0  0  0  0
   -5.7648   23.3890  -30.1873 H   0  0  0  0  0  0  0  0  0  0  0  0
   -5.1737   25.7996  -31.9747 H   0  0  0  0  0  0  0  0  0  0  0  0
   -5.8299   25.9244  -30.2976 H   0  0  0  0  0  0  0  0  0  0  0  0
   -4.8591   24.6175  -27.9709 H   0  0  0  0  0  0  0  0  0  0  0  0
   -4.0254   22.7868  -26.5060 H   0  0  0  0  0  0  0  0  0  0  0  0
   -2.5040   20.9342  -26.1012 H   0  0  0  0  0  0  0  0  0  0  0  0
   -0.6206   19.4867  -26.8479 H   0  0  0  0  0  0  0  0  0  0  0  0
    0.4401   19.8489  -29.0693 H   0  0  0  0  0  0  0  0  0  0  0  0
    0.8020   20.7774  -32.3532 H   0  0  0  0  0  0  0  0  0  0  0  0
   -0.5006   19.8071  -31.5632 H   0  0  0  0  0  0  0  0  0  0  0  0
   -2.1259   21.5586  -32.6129 H   0  0  0  0  0  0  0  0  0  0  0  0
   -0.7413   21.9736  -33.6794 H   0  0  0  0  0  0  0  0  0  0  0  0
   -1.4064   20.3050  -33.6794 H   0  0  0  0  0  0  0  0  0  0  0  0
   -1.9495   23.5447  -30.9912 H   0  0  0  0  0  0  0  0  0  0  0  0
  1  2  1  0
  2  3  1  0
  3  4  1  0
  4  5  1  0
  5  6  1  0
  6  7  1  0
  7  8  1  0
  8  9  1  0
  9 10  1  0
 10 11  1  0
 11 12  1  0
 12 13  1  0
 13 14  2  0
 14 15  1  0
 15 16  2  0
 16 17  1  0
 17 18  2  0
 18 19  1  0
 19 20  2  0
 20 21  1  0
 21 22  1  0
 22 23  1  0
 20 24  1  0
 24 25  2  0
 25 13  1  0
 24 16  1  0
  1 26  1  0
  1 27  1  0
  1 28  1  0
  2 29  1  0
  2 30  1  0
  4 31  1  0
  4 32  1  0
  5 33  1  0
  5 34  1  0
  7 35  1  0
  7 36  1  0
  8 37  1  0
  8 38  1  0
  9 39  1  0
 10 40  1  0
 10 41  1  0
 11 42  1  0
 11 43  1  0
 14 44  1  0
 15 45  1  0
 17 46  1  0
 18 47  1  0
 19 48  1  0
 22 49  1  0
 22 50  1  0
 23 51  1  0
 23 52  1  0
 23 53  1  0
 25 54  1  0
M  END
>  <UniqueID>  (17) 
16

>  <SMILES>  (17) 
CCOCCOCCNCCOc1ccc2cccc(OCC)c2c1

>  <Energy>  (17) 
52.05151957076534

>  <Genealogy>  (17) 
CCOCCOCCNCCOc1ccc2cccc(OCC)c2c1 (3D coordinates assigned)
CCOCCOCCNCCOc1ccc2cccc(OCC)c2c1 (optimized conformer: 52.05151957076534 kcal/mol)

>  <smiles>  (17) 
CCOCCOCCNCCOc1ccc2cccc(OCC)c2c1

>  <score_type>  (17) 
oracle

>  <origin>  (17) 
adg

>  <m_score__min__energy>  (17) 
-8.3499999999999996

>  <m_primary>  (17) 
energy

$$$$
17:0
     RDKit          3D

 66 68  0  0  0  0  0  0  0  0999 V2000
   -1.3070   25.3270  -28.2350 C   0  0  0  0  0  0  0  0  0  0  0  0
   -0.9060   24.1480  -29.1150 C   0  0  0  0  0  0  0  0  0  0  0  0
   -1.9800   23.1450  -29.1490 N   0  0  0  0  0  0  0  0  0  0  0  0
   -2.7680   23.1590  -27.9090 C   0  0  0  0  0  0  0  0  0  0  0  0
   -3.6360   21.9050  -27.8330 C   0  0  0  0  0  0  0  0  0  0  0  0
   -3.0020   20.8510  -28.5410 O   0  0  0  0  0  0  0  0  0  0  0  0
   -2.7940   19.7410  -27.6910 C   0  0  0  0  0  0  0  0  0  0  0  0
   -1.3000   19.5480  -27.4460 C   0  0  0  0  0  0  0  0  0  0  0  0
   -0.5290   20.5590  -28.1880 N   0  0  0  0  0  0  0  0  0  0  0  0
    0.4610   19.9570  -29.0970 C   0  0  0  0  0  0  0  0  0  0  0  0
    0.0420   20.0470  -30.5730 C   0  0  0  0  0  0  0  0  0  0  0  0
   -0.9410   21.0540  -30.7400 O   0  0  0  0  0  0  0  0  0  0  0  0
   -1.2460   21.2290  -32.1070 C   0  0  0  0  0  0  0  0  0  0  0  0
   -2.7530   21.0770  -32.3170 C   0  0  0  0  0  0  0  0  0  0  0  0
   -3.4720   21.0530  -31.0320 N   0  0  0  0  0  0  0  0  0  0  0  0
   -4.8780   21.3770  -31.2260 C   0  0  0  0  0  0  0  0  0  0  0  0
   -5.3650   22.6810  -30.9410 C   0  0  0  0  0  0  0  0  0  0  0  0
   -4.4900   23.7440  -30.5990 C   0  0  0  0  0  0  0  0  0  0  0  0
   -4.9830   24.9970  -30.2440 C   0  0  0  0  0  0  0  0  0  0  0  0
   -6.3510   25.2200  -30.2040 C   0  0  0  0  0  0  0  0  0  0  0  0
   -7.2340   24.2070  -30.5580 C   0  0  0  0  0  0  0  0  0  0  0  0
   -6.7650   22.9380  -30.9930 C   0  0  0  0  0  0  0  0  0  0  0  0
   -7.6380   21.9670  -31.4400 N   0  0  0  0  0  0  0  0  0  0  0  0
   -9.0430   22.3230  -31.7480 C   0  0  0  0  0  0  0  0  0  0  0  0
   -7.1940   20.6760  -31.6500 C   0  0  0  0  0  0  0  0  0  0  0  0
   -8.1050   19.6110  -31.8800 C   0  0  0  0  0  0  0  0  0  0  0  0
   -7.6560   18.3320  -32.1920 C   0  0  0  0  0  0  0  0  0  0  0  0
   -6.2970   18.0760  -32.2890 C   0  0  0  0  0  0  0  0  0  0  0  0
   -5.3770   19.0820  -32.0110 C   0  0  0  0  0  0  0  0  0  0  0  0
   -5.8030   20.3780  -31.6290 C   0  0  0  0  0  0  0  0  0  0  0  0
   -1.2107   25.0439  -27.1764 H   0  0  0  0  0  0  0  0  0  0  0  0
   -0.6495   26.1830  -28.4469 H   0  0  0  0  0  0  0  0  0  0  0  0
   -2.3501   25.6046  -28.4469 H   0  0  0  0  0  0  0  0  0  0  0  0
   -0.7133   24.5074  -30.1366 H   0  0  0  0  0  0  0  0  0  0  0  0
    0.0013   23.6852  -28.6995 H   0  0  0  0  0  0  0  0  0  0  0  0
   -1.5330   22.2010  -29.2280 H   0  0  0  0  0  0  0  0  0  0  0  0
   -2.0881   23.1854  -27.0447 H   0  0  0  0  0  0  0  0  0  0  0  0
   -3.4144   24.0490  -27.8997 H   0  0  0  0  0  0  0  0  0  0  0  0
   -3.7683   21.6131  -26.7807 H   0  0  0  0  0  0  0  0  0  0  0  0
   -4.6193   22.1103  -28.2813 H   0  0  0  0  0  0  0  0  0  0  0  0
   -3.3015   19.9165  -26.7310 H   0  0  0  0  0  0  0  0  0  0  0  0
   -3.2028   18.8378  -28.1677 H   0  0  0  0  0  0  0  0  0  0  0  0
   -1.0920   19.6494  -26.3706 H   0  0  0  0  0  0  0  0  0  0  0  0
   -1.0057   18.5463  -27.7924 H   0  0  0  0  0  0  0  0  0  0  0  0
   -1.1890   21.1490  -28.7430 H   0  0  0  0  0  0  0  0  0  0  0  0
    1.4196   20.4815  -28.9706 H   0  0  0  0  0  0  0  0  0  0  0  0
    0.5439   18.8908  -28.8393 H   0  0  0  0  0  0  0  0  0  0  0  0
    0.9215   20.2919  -31.1865 H   0  0  0  0  0  0  0  0  0  0  0  0
   -0.3766   19.0797  -30.8879 H   0  0  0  0  0  0  0  0  0  0  0  0
   -0.9307   22.2330  -32.4274 H   0  0  0  0  0  0  0  0  0  0  0  0
   -0.7149   20.4707  -32.7010 H   0  0  0  0  0  0  0  0  0  0  0  0
   -3.1186   21.9237  -32.9165 H   0  0  0  0  0  0  0  0  0  0  0  0
   -2.9372   20.1248  -32.8360 H   0  0  0  0  0  0  0  0  0  0  0  0
   -3.3560   20.1230  -30.5680 H   0  0  0  0  0  0  0  0  0  0  0  0
   -3.0320   21.7080  -30.3480 H   0  0  0  0  0  0  0  0  0  0  0  0
   -3.4031   23.5755  -30.6145 H   0  0  0  0  0  0  0  0  0  0  0  0
   -4.2863   25.8110  -29.9950 H   0  0  0  0  0  0  0  0  0  0  0  0
   -6.7382   26.2010  -29.8913 H   0  0  0  0  0  0  0  0  0  0  0  0
   -8.3170   24.3910  -30.5004 H   0  0  0  0  0  0  0  0  0  0  0  0
   -9.5996   22.4640  -30.8098 H   0  0  0  0  0  0  0  0  0  0  0  0
   -9.0656   23.2553  -32.3314 H   0  0  0  0  0  0  0  0  0  0  0  0
   -9.5068   21.5140  -32.3314 H   0  0  0  0  0  0  0  0  0  0  0  0
   -9.1862   19.8012  -31.8101 H   0  0  0  0  0  0  0  0  0  0  0  0
   -8.3807   17.5221  -32.3621 H   0  0  0  0  0  0  0  0  0  0  0  0
   -5.9458   17.0768  -32.5860 H   0  0  0  0  0  0  0  0  0  0  0  0
   -4.3009   18.8675  -32.0891 H   0  0  0  0  0  0  0  0  0  0  0  0
  1  2  1  0
  2  3  1  0
  3  4  1  0
  4  5  1  0
  5  6  1  0
  6  7  1  0
  7  8  1  0
  8  9  1  0
  9 10  1  0
 10 11  1  0
 11 12  1  0
 12 13  1  0
 13 14  1  0
 14 15  1  0
 15 16  1  0
 16 17  2  0
 17 18  1  0
 18 19  2  0
 19 20  1  0
 20 21  2  0
 21 22  1  0
 22 23  2  0
 23 24  1  0
 23 25  1  0
 25 26  2  0
 26 27  1  0
 27 28  2  0
 28 29  1  0
 29 30  2  0
 30 16  1  0
 22 17  1  0
 30 25  1  0
  1 31  1  0
  1 32  1  0
  1 33  1  0
  2 34  1  0
  2 35  1  0
  3 36  1  0
  4 37  1  0
  4 38  1  0
  5 39  1  0
  5 40  1  0
  7 41  1  0
  7 42  1  0
  8 43  1  0
  8 44  1  0
  9 45  1  0
 10 46  1  0
 10 47  1  0
 11 48  1  0
 11 49  1  0
 13 50  1  0
 13 51  1  0
 14 52  1  0
 14 53  1  0
 15 54  1  0
 15 55  1  0
 18 56  1  0
 19 57  1  0
 20 58  1  0
 21 59  1  0
 24 60  1  0
 24 61  1  0
 24 62  1  0
 26 63  1  0
 27 64  1  0
 28 65  1  0
 29 66  1  0
M  CHG  2  15   1  23   1
M  END
>  <UniqueID>  (18) 
17

>  <SMILES>  (18) 
CCNCCOCCNCCOCC[NH2+]c1c2ccccc2[n+](C)c2ccccc12

>  <Energy>  (18) 
89.93358431157645

>  <Genealogy>  (18) 
CCNCCOCCNCCOCC[NH2+]c1c2ccccc2[n+](C)c2ccccc12 (protonated)
CCNCCOCCNCCOCC[NH2+]c1c2ccccc2[n+](C)c2ccccc12 (3D coordinates assigned)
CCNCCOCCNCCOCC[NH2+]c1c2ccccc2[n+](C)c2ccccc12 (optimized conformer: 89.93358431157645 kcal/mol)

>  <smiles>  (18) 
CCNCCOCCNCCOCCNc1c2ccccc2[n+](C)c2ccccc12

>  <score_type>  (18) 
oracle

>  <origin>  (18) 
adg

>  <m_score__min__energy>  (18) 
-8.2300000000000004

>  <m_primary>  (18) 
energy

$$$$
18:0
     RDKit          3D

 65 69  0  0  0  0  0  0  0  0999 V2000
   -1.8670   18.9290  -33.8210 C   0  0  0  0  0  0  0  0  0  0  0  0
   -3.2200   19.0260  -34.2520 O   0  0  0  0  0  0  0  0  0  0  0  0
   -4.2630   18.2120  -33.7820 C   0  0  0  0  0  0  0  0  0  0  0  0
   -4.3240   16.8320  -34.0770 C   0  0  0  0  0  0  0  0  0  0  0  0
   -5.3890   16.0580  -33.6080 C   0  0  0  0  0  0  0  0  0  0  0  0
   -6.3920   16.6400  -32.8290 C   0  0  0  0  0  0  0  0  0  0  0  0
   -6.3360   18.0010  -32.5130 C   0  0  0  0  0  0  0  0  0  0  0  0
   -5.2730   18.7870  -32.9840 C   0  0  0  0  0  0  0  0  0  0  0  0
   -5.2190   20.2150  -32.6400 C   0  0  0  0  0  0  0  0  0  0  0  0
   -4.0620   20.8930  -32.4850 N   0  0  0  0  0  0  0  0  0  0  0  0
   -4.4010   22.1580  -32.2880 N   0  0  0  0  0  0  0  0  0  0  0  0
   -5.7410   22.2410  -32.3350 C   0  0  0  0  0  0  0  0  0  0  0  0
   -6.6500   23.7800  -32.2080 S   0  0  0  0  0  0  0  0  0  0  0  0
   -6.9250   23.6210  -30.4070 C   0  0  0  0  0  0  0  0  0  0  0  0
   -6.0360   24.6010  -29.6260 C   0  0  0  0  0  0  0  0  0  0  0  0
   -4.7210   24.9260  -30.3580 C   0  0  0  0  0  0  0  0  0  0  0  0
   -3.6930   23.8920  -30.1130 N   0  0  0  0  0  0  0  0  0  0  0  0
   -4.2850   22.6720  -29.5130 C   0  0  0  0  0  0  0  0  0  0  0  0
   -3.1950   21.6630  -29.0450 C   0  0  2  0  0  0  0  0  0  0  0  0
   -3.0860   21.6530  -27.4930 C   0  0  0  0  0  0  0  0  0  0  0  0
   -1.7700   21.0720  -26.9530 C   0  0  0  0  0  0  0  0  0  0  0  0
   -0.5060   21.9650  -27.1170 C   0  0  0  0  0  0  0  0  0  0  0  0
   -0.6720   23.3180  -27.8740 C   0  0  0  0  0  0  0  0  0  0  0  0
    0.6290   24.1330  -27.8380 C   0  0  0  0  0  0  0  0  0  0  0  0
   -0.5610   24.5920  -27.0250 C   0  0  0  0  0  0  0  0  0  0  0  0
   -1.3880   23.3920  -29.2710 C   0  0  1  0  0  0  0  0  0  0  0  0
   -1.8640   22.0040  -29.7350 C   0  0  0  0  0  0  0  0  0  0  0  0
   -2.5820   24.3990  -29.2790 C   0  0  0  0  0  0  0  0  0  0  0  0
   -6.2930   21.0300  -32.5320 N   0  0  0  0  0  0  0  0  0  0  0  0
   -7.7020   20.7120  -32.7570 C   0  0  0  0  0  0  0  0  0  0  0  0
   -1.8317   18.9265  -32.7216 H   0  0  0  0  0  0  0  0  0  0  0  0
   -1.4260   17.9969  -34.2042 H   0  0  0  0  0  0  0  0  0  0  0  0
   -1.2976   19.7886  -34.2042 H   0  0  0  0  0  0  0  0  0  0  0  0
   -3.5302   16.3647  -34.6782 H   0  0  0  0  0  0  0  0  0  0  0  0
   -5.4376   14.9868  -33.8531 H   0  0  0  0  0  0  0  0  0  0  0  0
   -7.2281   16.0259  -32.4632 H   0  0  0  0  0  0  0  0  0  0  0  0
   -7.1248   18.4554  -31.8955 H   0  0  0  0  0  0  0  0  0  0  0  0
   -3.7260   22.9410  -32.1570 H   0  0  0  0  0  0  0  0  0  0  0  0
   -7.9804   23.8364  -30.1838 H   0  0  0  0  0  0  0  0  0  0  0  0
   -6.6683   22.5957  -30.1023 H   0  0  0  0  0  0  0  0  0  0  0  0
   -6.5939   25.5366  -29.4734 H   0  0  0  0  0  0  0  0  0  0  0  0
   -5.7741   24.1220  -28.6710 H   0  0  0  0  0  0  0  0  0  0  0  0
   -4.9187   24.9842  -31.4385 H   0  0  0  0  0  0  0  0  0  0  0  0
   -4.3423   25.8856  -29.9762 H   0  0  0  0  0  0  0  0  0  0  0  0
   -4.8950   22.9633  -28.6453 H   0  0  0  0  0  0  0  0  0  0  0  0
   -4.8968   22.1781  -30.2823 H   0  0  0  0  0  0  0  0  0  0  0  0
   -3.4743   20.6405  -29.3390 H   0  0  0  0  0  0  0  0  0  0  0  0
   -3.1772   22.6891  -27.1350 H   0  0  0  0  0  0  0  0  0  0  0  0
   -3.8915   21.0001  -27.1259 H   0  0  0  0  0  0  0  0  0  0  0  0
   -1.9054   20.8760  -25.8791 H   0  0  0  0  0  0  0  0  0  0  0  0
   -1.5756   20.1731  -27.5565 H   0  0  0  0  0  0  0  0  0  0  0  0
   -0.1328   22.1958  -26.1083 H   0  0  0  0  0  0  0  0  0  0  0  0
    0.1743   21.3736  -27.7474 H   0  0  0  0  0  0  0  0  0  0  0  0
    1.5167   23.7274  -27.3305 H   0  0  0  0  0  0  0  0  0  0  0  0
    1.2738   24.5977  -28.5985 H   0  0  0  0  0  0  0  0  0  0  0  0
   -0.5365   24.5196  -25.9277 H   0  0  0  0  0  0  0  0  0  0  0  0
   -1.1355   25.5272  -26.9525 H   0  0  0  0  0  0  0  0  0  0  0  0
   -0.6343   23.7631  -29.9811 H   0  0  0  0  0  0  0  0  0  0  0  0
   -2.0073   22.0109  -30.8256 H   0  0  0  0  0  0  0  0  0  0  0  0
   -1.1090   21.2493  -29.4698 H   0  0  0  0  0  0  0  0  0  0  0  0
   -2.9405   24.5410  -28.2488 H   0  0  0  0  0  0  0  0  0  0  0  0
   -2.2340   25.3541  -29.6992 H   0  0  0  0  0  0  0  0  0  0  0  0
   -8.2111   20.5971  -31.7887 H   0  0  0  0  0  0  0  0  0  0  0  0
   -8.1753   21.5259  -33.3258 H   0  0  0  0  0  0  0  0  0  0  0  0
   -7.7798   19.7737  -33.3258 H   0  0  0  0  0  0  0  0  0  0  0  0
  1  2  1  0
  2  3  1  0
  3  4  2  0
  4  5  1  0
  5  6  2  0
  6  7  1  0
  7  8  2  0
  8  9  1  0
  9 10  2  0
 10 11  1  0
 11 12  2  0
 12 13  1  0
 13 14  1  0
 14 15  1  0
 15 16  1  0
 16 17  1  0
 17 18  1  0
 18 19  1  0
 19 20  1  0
 20 21  1  0
 21 22  1  0
 22 23  1  0
 23 24  1  0
 24 25  1  0
 23 26  1  0
 26 27  1  0
 26 28  1  0
 12 29  1  0
 29 30  1  0
  8  3  1  0
 29  9  1  0
 28 17  1  0
 27 19  1  0
 25 23  1  0
  1 31  1  0
  1 32  1  0
  1 33  1  0
  4 34  1  0
  5 35  1  0
  6 36  1  0
  7 37  1  0
 11 38  1  0
 14 39  1  0
 14 40  1  0
 15 41  1  0
 15 42  1  0
 16 43  1  0
 16 44  1  0
 18 45  1  0
 18 46  1  0
 19 47  1  6
 20 48  1  0
 20 49  1  0
 21 50  1  0
 21 51  1  0
 22 52  1  0
 22 53  1  0
 24 54  1  0
 24 55  1  0
 25 56  1  0
 25 57  1  0
 26 58  1  6
 27 59  1  0
 27 60  1  0
 28 61  1  0
 28 62  1  0
 30 63  1  0
 30 64  1  0
 30 65  1  0
M  CHG  1  11   1
M  END
>  <UniqueID>  (19) 
18

>  <SMILES>  (19) 
COc1ccccc1-c1n[nH+]c(SCCCN2C[C@@H]3CCCC4(CC4)[C@@H](C3)C2)n1C

>  <Energy>  (19) 
392.7867440583527

>  <Genealogy>  (19) 
COc1ccccc1-c1n[nH+]c(SCCCN2CC3CCCC4(CC4)C(C3)C2)n1C (protonated)
COc1ccccc1-c1n[nH+]c(SCCCN2C[C@@H]3CCCC4(CC4)[C@@H](C3)C2)n1C (chirality)
COc1ccccc1-c1n[nH+]c(SCCCN2C[C@@H]3CCCC4(CC4)[C@@H](C3)C2)n1C (3D coordinates assigned)
COc1ccccc1-c1n[nH+]c(SCCCN2C[C@@H]3CCCC4(CC4)[C@@H](C3)C2)n1C (nonaromatic ring conformer: 392.7867440583527 kcal/mol)

>  <smiles>  (19) 
COc1ccccc1-c1nnc(SCCCN2CC3CCCC4(CC4)C(C3)C2)n1C

>  <score_type>  (19) 
oracle

>  <origin>  (19) 
adg

>  <m_score__min__energy>  (19) 
-7.8499999999999996

>  <m_primary>  (19) 
energy

$$$$
19:0
     RDKit          3D

114119  0  0  0  0  0  0  0  0999 V2000
   -5.7300   18.2510  -35.0720 C   0  0  0  0  0  0  0  0  0  0  0  0
   -4.7810   17.1590  -34.6050 C   0  0  0  0  0  0  0  0  0  0  0  0
   -3.5380   17.3120  -35.2590 O   0  0  0  0  0  0  0  0  0  0  0  0
   -2.4890   17.4110  -34.3140 C   0  0  0  0  0  0  0  0  0  0  0  0
   -2.0580   18.8730  -34.1570 C   0  0  0  0  0  0  0  0  0  0  0  0
   -3.0950   19.6330  -33.5640 O   0  0  0  0  0  0  0  0  0  0  0  0
   -2.7470   21.0020  -33.5250 C   0  0  0  0  0  0  0  0  0  0  0  0
   -1.2840   21.1390  -33.0910 C   0  0  0  0  0  0  0  0  0  0  0  0
   -1.1260   20.9110  -31.6370 N   0  0  0  0  0  0  0  0  0  0  0  0
   -0.1040   21.7920  -31.0290 C   0  0  0  0  0  0  0  0  0  0  0  0
   -0.7380   22.7050  -29.9670 C   0  0  0  0  0  0  0  0  0  0  0  0
   -0.4380   22.2350  -28.6030 N   0  0  0  0  0  0  0  0  0  0  0  0
   -0.5170   23.3350  -27.6600 C   0  0  0  0  0  0  0  0  0  0  0  0
    0.6590   23.8590  -27.1020 C   0  0  0  0  0  0  0  0  0  0  0  0
    0.6240   24.9130  -26.2260 C   0  0  0  0  0  0  0  0  0  0  0  0
   -0.5510   25.5090  -25.8500 N   0  0  0  0  0  0  0  0  0  0  0  0
   -0.5300   26.6730  -24.9440 C   0  0  0  0  0  0  0  0  0  0  0  0
   -1.7480   24.9980  -26.3210 C   0  0  0  0  0  0  0  0  0  0  0  0
   -2.9930   25.5360  -25.9090 C   0  0  0  0  0  0  0  0  0  0  0  0
   -4.1960   25.0100  -26.3760 C   0  0  0  0  0  0  0  0  0  0  0  0
   -4.1950   23.9350  -27.2530 C   0  0  0  0  0  0  0  0  0  0  0  0
   -2.9920   23.3740  -27.6750 C   0  0  0  0  0  0  0  0  0  0  0  0
   -1.7540   23.8910  -27.2330 C   0  0  0  0  0  0  0  0  0  0  0  0
    1.9970   25.2830  -25.7700 C   0  0  0  0  0  0  0  0  0  0  0  0
    2.9040   24.1970  -26.3630 C   0  0  0  0  0  0  0  0  0  0  0  0
    2.0530   23.3990  -27.3580 C   0  0  0  0  0  0  0  0  0  0  0  0
   -0.9860   19.4900  -31.2350 C   0  0  0  0  0  0  0  0  0  0  0  0
    0.4590   19.0300  -30.9680 C   0  0  0  0  0  0  0  0  0  0  0  0
    0.4600   17.7220  -30.4250 O   0  0  0  0  0  0  0  0  0  0  0  0
    0.6610   17.7230  -29.0220 C   0  0  0  0  0  0  0  0  0  0  0  0
    1.0130   19.1180  -28.4920 C   0  0  0  0  0  0  0  0  0  0  0  0
   -0.1510   19.7470  -27.9920 O   0  0  0  0  0  0  0  0  0  0  0  0
   -0.9660   18.8230  -27.2940 C   0  0  0  0  0  0  0  0  0  0  0  0
   -2.0870   19.5480  -26.5530 C   0  0  0  0  0  0  0  0  0  0  0  0
   -2.5780   20.6010  -27.3560 O   0  0  0  0  0  0  0  0  0  0  0  0
   -3.1530   20.0700  -28.5310 C   0  0  0  0  0  0  0  0  0  0  0  0
   -3.0990   21.1310  -29.6280 C   0  0  0  0  0  0  0  0  0  0  0  0
   -3.7640   20.6630  -30.8450 N   0  0  0  0  0  0  0  0  0  0  0  0
   -5.1400   20.9580  -31.1440 C   0  0  0  0  0  0  0  0  0  0  0  0
   -6.0110   19.9510  -31.5620 C   0  0  0  0  0  0  0  0  0  0  0  0
   -7.3340   20.2200  -31.8050 C   0  0  0  0  0  0  0  0  0  0  0  0
   -7.8600   21.4830  -31.6800 N   0  0  0  0  0  0  0  0  0  0  0  0
   -9.2780   21.7290  -32.0020 C   0  0  0  0  0  0  0  0  0  0  0  0
   -7.0410   22.5100  -31.2410 C   0  0  0  0  0  0  0  0  0  0  0  0
   -7.5370   23.8210  -31.0380 C   0  0  0  0  0  0  0  0  0  0  0  0
   -6.6970   24.8440  -30.5980 C   0  0  0  0  0  0  0  0  0  0  0  0
   -5.3500   24.5950  -30.3560 C   0  0  0  0  0  0  0  0  0  0  0  0
   -4.8310   23.3150  -30.5380 C   0  0  0  0  0  0  0  0  0  0  0  0
   -5.6590   22.2590  -30.9700 C   0  0  0  0  0  0  0  0  0  0  0  0
   -8.0780   18.9780  -32.1670 C   0  0  0  0  0  0  0  0  0  0  0  0
   -7.0660   17.8480  -31.9350 C   0  0  0  0  0  0  0  0  0  0  0  0
   -5.6950   18.5100  -31.7490 C   0  0  0  0  0  0  0  0  0  0  0  0
   -6.1679   18.7548  -34.1977 H   0  0  0  0  0  0  0  0  0  0  0  0
   -5.1765   18.9833  -35.6781 H   0  0  0  0  0  0  0  0  0  0  0  0
   -6.5323   17.8050  -35.6781 H   0  0  0  0  0  0  0  0  0  0  0  0
   -4.6365   17.2377  -33.5174 H   0  0  0  0  0  0  0  0  0  0  0  0
   -5.2057   16.1731  -34.8450 H   0  0  0  0  0  0  0  0  0  0  0  0
   -2.8365   17.0279  -33.3432 H   0  0  0  0  0  0  0  0  0  0  0  0
   -1.6312   16.8185  -34.6649 H   0  0  0  0  0  0  0  0  0  0  0  0
   -1.1635   18.9205  -33.5186 H   0  0  0  0  0  0  0  0  0  0  0  0
   -1.8357   19.2879  -35.1512 H   0  0  0  0  0  0  0  0  0  0  0  0
   -2.8769   21.4430  -34.5243 H   0  0  0  0  0  0  0  0  0  0  0  0
   -3.3953   21.5273  -32.8083 H   0  0  0  0  0  0  0  0  0  0  0  0
   -0.6786   20.4002  -33.6365 H   0  0  0  0  0  0  0  0  0  0  0  0
   -0.9510   22.1625  -33.3181 H   0  0  0  0  0  0  0  0  0  0  0  0
    0.6721   21.1723  -30.5560 H   0  0  0  0  0  0  0  0  0  0  0  0
    0.3374   22.4192  -31.8175 H   0  0  0  0  0  0  0  0  0  0  0  0
   -0.3422   23.7240  -30.0892 H   0  0  0  0  0  0  0  0  0  0  0  0
   -1.8292   22.6899  -30.1054 H   0  0  0  0  0  0  0  0  0  0  0  0
    0.4990   21.7720  -28.5690 H   0  0  0  0  0  0  0  0  0  0  0  0
   -1.1180   21.4920  -28.3200 H   0  0  0  0  0  0  0  0  0  0  0  0
   -0.5363   26.3255  -23.9004 H   0  0  0  0  0  0  0  0  0  0  0  0
    0.3790   27.2645  -25.1280 H   0  0  0  0  0  0  0  0  0  0  0  0
   -1.4170   27.2969  -25.1280 H   0  0  0  0  0  0  0  0  0  0  0  0
   -3.0099   26.3837  -25.2082 H   0  0  0  0  0  0  0  0  0  0  0  0
   -5.1499   25.4488  -26.0481 H   0  0  0  0  0  0  0  0  0  0  0  0
   -5.1483   23.5240  -27.6166 H   0  0  0  0  0  0  0  0  0  0  0  0
   -3.0062   22.5156  -28.3627 H   0  0  0  0  0  0  0  0  0  0  0  0
    2.2789   26.2757  -26.1508 H   0  0  0  0  0  0  0  0  0  0  0  0
    2.0730   25.3391  -24.6741 H   0  0  0  0  0  0  0  0  0  0  0  0
    3.7577   24.6586  -26.8807 H   0  0  0  0  0  0  0  0  0  0  0  0
    3.3026   23.5431  -25.5734 H   0  0  0  0  0  0  0  0  0  0  0  0
    2.3527   23.6210  -28.3928 H   0  0  0  0  0  0  0  0  0  0  0  0
    2.1669   22.3123  -27.2315 H   0  0  0  0  0  0  0  0  0  0  0  0
   -1.5688   19.3364  -30.3148 H   0  0  0  0  0  0  0  0  0  0  0  0
   -1.3474   18.8924  -32.0849 H   0  0  0  0  0  0  0  0  0  0  0  0
    1.0222   19.0323  -31.9129 H   0  0  0  0  0  0  0  0  0  0  0  0
    0.9296   19.7184  -30.2506 H   0  0  0  0  0  0  0  0  0  0  0  0
   -0.2614   17.3791  -28.5311 H   0  0  0  0  0  0  0  0  0  0  0  0
    1.5044   17.0528  -28.7996 H   0  0  0  0  0  0  0  0  0  0  0  0
    1.7541   19.0258  -27.6844 H   0  0  0  0  0  0  0  0  0  0  0  0
    1.4306   19.7232  -29.3101 H   0  0  0  0  0  0  0  0  0  0  0  0
   -1.4059   18.1149  -28.0117 H   0  0  0  0  0  0  0  0  0  0  0  0
   -0.3458   18.2861  -26.5612 H   0  0  0  0  0  0  0  0  0  0  0  0
   -2.9015   18.8407  -26.3376 H   0  0  0  0  0  0  0  0  0  0  0  0
   -1.6977   19.9575  -25.6092 H   0  0  0  0  0  0  0  0  0  0  0  0
   -2.5895   19.1804  -28.8490 H   0  0  0  0  0  0  0  0  0  0  0  0
   -4.1975   19.7832  -28.3394 H   0  0  0  0  0  0  0  0  0  0  0  0
   -3.6013   22.0425  -29.2717 H   0  0  0  0  0  0  0  0  0  0  0  0
   -2.0445   21.3382  -29.8629 H   0  0  0  0  0  0  0  0  0  0  0  0
   -3.2620   19.9760  -31.4490 H   0  0  0  0  0  0  0  0  0  0  0  0
   -9.8537   21.8289  -31.0700 H   0  0  0  0  0  0  0  0  0  0  0  0
   -9.3655   22.6557  -32.5881 H   0  0  0  0  0  0  0  0  0  0  0  0
   -9.6725   20.8859  -32.5881 H   0  0  0  0  0  0  0  0  0  0  0  0
   -8.5987   24.0353  -31.2299 H   0  0  0  0  0  0  0  0  0  0  0  0
   -7.1025   25.8545  -30.4413 H   0  0  0  0  0  0  0  0  0  0  0  0
   -4.6930   25.4108  -30.0201 H   0  0  0  0  0  0  0  0  0  0  0  0
   -3.7650   23.1265  -30.3428 H   0  0  0  0  0  0  0  0  0  0  0  0
   -8.9596   18.8500  -31.5218 H   0  0  0  0  0  0  0  0  0  0  0  0
   -8.4539   18.9997  -33.2006 H   0  0  0  0  0  0  0  0  0  0  0  0
   -7.3360   17.2773  -31.0342 H   0  0  0  0  0  0  0  0  0  0  0  0
   -7.0541   17.1491  -32.7844 H   0  0  0  0  0  0  0  0  0  0  0  0
   -5.1823   18.1046  -30.8643 H   0  0  0  0  0  0  0  0  0  0  0  0
   -5.0212   18.3323  -32.6001 H   0  0  0  0  0  0  0  0  0  0  0  0
  1  2  1  0
  2  3  1  0
  3  4  1  0
  4  5  1  0
  5  6  1  0
  6  7  1  0
  7  8  1  0
  8  9  1  0
  9 10  1  0
 10 11  1  0
 11 12  1  0
 12 13  1  0
 13 14  2  0
 14 15  1  0
 15 16  2  0
 16 17  1  0
 16 18  1  0
 18 19  2  0
 19 20  1  0
 20 21  2  0
 21 22  1  0
 22 23  2  0
 15 24  1  0
 24 25  1  0
 25 26  1  0
  9 27  1  0
 27 28  1  0
 28 29  1  0
 29 30  1  0
 30 31  1  0
 31 32  1  0
 32 33  1  0
 33 34  1  0
 34 35  1  0
 35 36  1  0
 36 37  1  0
 37 38  1  0
 38 39  1  0
 39 40  2  0
 40 41  1  0
 41 42  2  0
 42 43  1  0
 42 44  1  0
 44 45  2  0
 45 46  1  0
 46 47  2  0
 47 48  1  0
 48 49  2  0
 41 50  1  0
 50 51  1  0
 51 52  1  0
 23 13  1  0
 49 39  1  0
 26 14  1  0
 52 40  1  0
 23 18  1  0
 49 44  1  0
  1 53  1  0
  1 54  1  0
  1 55  1  0
  2 56  1  0
  2 57  1  0
  4 58  1  0
  4 59  1  0
  5 60  1  0
  5 61  1  0
  7 62  1  0
  7 63  1  0
  8 64  1  0
  8 65  1  0
 10 66  1  0
 10 67  1  0
 11 68  1  0
 11 69  1  0
 12 70  1  0
 12 71  1  0
 17 72  1  0
 17 73  1  0
 17 74  1  0
 19 75  1  0
 20 76  1  0
 21 77  1  0
 22 78  1  0
 24 79  1  0
 24 80  1  0
 25 81  1  0
 25 82  1  0
 26 83  1  0
 26 84  1  0
 27 85  1  0
 27 86  1  0
 28 87  1  0
 28 88  1  0
 30 89  1  0
 30 90  1  0
 31 91  1  0
 31 92  1  0
 33 93  1  0
 33 94  1  0
 34 95  1  0
 34 96  1  0
 36 97  1  0
 36 98  1  0
 37 99  1  0
 37100  1  0
 38101  1  0
 43102  1  0
 43103  1  0
 43104  1  0
 45105  1  0
 46106  1  0
 47107  1  0
 48108  1  0
 50109  1  0
 50110  1  0
 51111  1  0
 51112  1  0
 52113  1  0
 52114  1  0
M  CHG  3  12   1  16   1  42   1
M  END
>  <UniqueID>  (20) 
19

>  <SMILES>  (20) 
CCOCCOCCN(CC[NH2+]c1c2c([n+](C)c3ccccc13)CCC2)CCOCCOCCOCCNc1c2c([n+](C)c3ccccc13)CCC2

>  <Energy>  (20) 
161.5073041173685

>  <Genealogy>  (20) 
CCOCCOCCN(CC[NH2+]c1c2c([n+](C)c3ccccc13)CCC2)CCOCCOCCOCCNc1c2c([n+](C)c3ccccc13)CCC2 (protonated)
CCOCCOCCN(CC[NH2+]c1c2c([n+](C)c3ccccc13)CCC2)CCOCCOCCOCCNc1c2c([n+](C)c3ccccc13)CCC2 (3D coordinates assigned)
CCOCCOCCN(CC[NH2+]c1c2c([n+](C)c3ccccc13)CCC2)CCOCCOCCOCCNc1c2c([n+](C)c3ccccc13)CCC2 (nonaromatic ring conformer: 161.5073041173685 kcal/mol)

>  <smiles>  (20) 
CCOCCOCCN(CCNc1c2c([n+](C)c3ccccc13)CCC2)CCOCCOCCOCCNc1c2c([n+](C)c3ccccc13)CCC2

>  <score_type>  (20) 
oracle

>  <origin>  (20) 
adg

>  <m_score__min__energy>  (20) 
-8.8599999999999994

>  <m_primary>  (20) 
energy

$$$$
20:0
     RDKit          3D

 46 46  0  0  0  0  0  0  0  0999 V2000
   -4.1270   24.5350  -27.1480 C   0  0  0  0  0  0  0  0  0  0  0  0
   -3.1540   24.0640  -27.9330 C   0  0  0  0  0  0  0  0  0  0  0  0
   -2.5320   24.9150  -29.0030 C   0  0  0  0  0  0  0  0  0  0  0  0
   -3.4910   25.1930  -30.0680 N   0  0  0  0  0  0  0  0  0  0  0  0
   -4.2520   24.2420  -30.8320 C   0  0  0  0  0  0  0  0  0  0  0  0
   -3.6220   23.3680  -31.4820 O   0  0  0  0  0  0  0  0  0  0  0  0
   -5.7330   24.2500  -30.8960 C   0  0  0  0  0  0  0  0  0  0  0  0
   -6.4050   24.8970  -30.0500 O   0  0  0  0  0  0  0  0  0  0  0  0
   -6.4120   23.5290  -31.9380 N   0  0  0  0  0  0  0  0  0  0  0  0
   -7.8700   23.4250  -32.0050 C   0  0  0  0  0  0  0  0  0  0  0  0
   -8.3690   22.2400  -31.1720 C   0  0  0  0  0  0  0  0  0  0  0  0
   -8.0570   20.9190  -31.8290 C   0  0  0  0  0  0  0  0  0  0  0  0
   -8.8900   19.8110  -31.6210 C   0  0  0  0  0  0  0  0  0  0  0  0
   -8.6000   18.5870  -32.2230 C   0  0  0  0  0  0  0  0  0  0  0  0
   -7.4740   18.4500  -33.0560 C   0  0  0  0  0  0  0  0  0  0  0  0
   -7.1320   17.2320  -33.6700 O   0  0  0  0  0  0  0  0  0  0  0  0
   -6.0930   16.3480  -33.2460 C   0  0  0  0  0  0  0  0  0  0  0  0
   -5.6830   16.6460  -31.8080 C   0  0  0  0  0  0  0  0  0  0  0  0
   -6.6550   19.5650  -33.2990 C   0  0  0  0  0  0  0  0  0  0  0  0
   -5.5610   19.4100  -34.1640 O   0  0  0  0  0  0  0  0  0  0  0  0
   -4.2070   19.2720  -33.7380 C   0  0  0  0  0  0  0  0  0  0  0  0
   -3.7330   20.5800  -33.1250 C   0  0  0  0  0  0  0  0  0  0  0  0
   -6.9460   20.7940  -32.6750 C   0  0  0  0  0  0  0  0  0  0  0  0
   -4.5667   23.8921  -26.3712 H   0  0  0  0  0  0  0  0  0  0  0  0
   -4.4885   25.5657  -27.2784 H   0  0  0  0  0  0  0  0  0  0  0  0
   -2.8011   23.0316  -27.7928 H   0  0  0  0  0  0  0  0  0  0  0  0
   -2.1997   25.8654  -28.5600 H   0  0  0  0  0  0  0  0  0  0  0  0
   -1.6767   24.3723  -29.4319 H   0  0  0  0  0  0  0  0  0  0  0  0
   -5.8560   22.9600  -32.6160 H   0  0  0  0  0  0  0  0  0  0  0  0
   -8.3161   24.3524  -31.6164 H   0  0  0  0  0  0  0  0  0  0  0  0
   -8.1648   23.2686  -33.0531 H   0  0  0  0  0  0  0  0  0  0  0  0
   -7.8838   22.2697  -30.1853 H   0  0  0  0  0  0  0  0  0  0  0  0
   -9.4618   22.3248  -31.0796 H   0  0  0  0  0  0  0  0  0  0  0  0
   -9.7779   19.9076  -30.9789 H   0  0  0  0  0  0  0  0  0  0  0  0
   -9.2562   17.7222  -32.0454 H   0  0  0  0  0  0  0  0  0  0  0  0
   -6.4531   15.3106  -33.3109 H   0  0  0  0  0  0  0  0  0  0  0  0
   -5.2194   16.4912  -33.8990 H   0  0  0  0  0  0  0  0  0  0  0  0
   -6.3756   16.1426  -31.1174 H   0  0  0  0  0  0  0  0  0  0  0  0
   -4.6607   16.2787  -31.6346 H   0  0  0  0  0  0  0  0  0  0  0  0
   -5.7169   17.7317  -31.6346 H   0  0  0  0  0  0  0  0  0  0  0  0
   -4.1383   18.4697  -32.9886 H   0  0  0  0  0  0  0  0  0  0  0  0
   -3.5743   19.0215  -34.6023 H   0  0  0  0  0  0  0  0  0  0  0  0
   -3.7612   20.5023  -32.0281 H   0  0  0  0  0  0  0  0  0  0  0  0
   -2.7030   20.7860  -33.4517 H   0  0  0  0  0  0  0  0  0  0  0  0
   -4.3919   21.3980  -33.4517 H   0  0  0  0  0  0  0  0  0  0  0  0
   -6.2958   21.6632  -32.8531 H   0  0  0  0  0  0  0  0  0  0  0  0
  1  2  2  0
  2  3  1  0
  3  4  1  0
  4  5  1  0
  5  6  2  0
  5  7  1  0
  7  8  2  0
  7  9  1  0
  9 10  1  0
 10 11  1  0
 11 12  1  0
 12 13  2  0
 13 14  1  0
 14 15  2  0
 15 16  1  0
 16 17  1  0
 17 18  1  0
 15 19  1  0
 19 20  1  0
 20 21  1  0
 21 22  1  0
 19 23  2  0
 23 12  1  0
  1 24  1  0
  1 25  1  0
  2 26  1  0
  3 27  1  0
  3 28  1  0
  9 29  1  0
 10 30  1  0
 10 31  1  0
 11 32  1  0
 11 33  1  0
 13 34  1  0
 14 35  1  0
 17 36  1  0
 17 37  1  0
 18 38  1  0
 18 39  1  0
 18 40  1  0
 21 41  1  0
 21 42  1  0
 22 43  1  0
 22 44  1  0
 22 45  1  0
 23 46  1  0
M  CHG  1   4  -1
M  END
>  <UniqueID>  (21) 
20

>  <SMILES>  (21) 
C=CC[N-]C(=O)C(=O)NCCc1ccc(OCC)c(OCC)c1

>  <Energy>  (21) 
27.940542531657055

>  <Genealogy>  (21) 
C=CC[N-]C(=O)C(=O)NCCc1ccc(OCC)c(OCC)c1 (protonated)
C=CC[N-]C(=O)C(=O)NCCc1ccc(OCC)c(OCC)c1 (3D coordinates assigned)
C=CC[N-]C(=O)C(=O)NCCc1ccc(OCC)c(OCC)c1 (optimized conformer: 27.940542531657055 kcal/mol)

>  <smiles>  (21) 
C=CCNC(=O)C(=O)NCCc1ccc(OCC)c(OCC)c1

>  <score_type>  (21) 
oracle

>  <origin>  (21) 
adg

>  <m_score__min__energy>  (21) 
-8.3599999999999994

>  <m_primary>  (21) 
energy

$$$$
21:0
     RDKit          3D

 45 46  0  0  0  0  0  0  0  0999 V2000
   -1.2130   27.0700  -25.4460 C   0  0  0  0  0  0  0  0  0  0  0  0
   -1.6130   26.0360  -26.4950 C   0  0  0  0  0  0  0  0  0  0  0  0
   -0.8670   26.2440  -27.8190 C   0  0  0  0  0  0  0  0  0  0  0  0
   -1.6090   25.7190  -28.9060 O   0  0  0  0  0  0  0  0  0  0  0  0
   -1.2360   24.3830  -29.1910 C   0  0  0  0  0  0  0  0  0  0  0  0
   -2.1320   23.4090  -28.4200 C   0  0  0  0  0  0  0  0  0  0  0  0
   -3.5400   23.9840  -28.2320 C   0  0  0  0  0  0  0  0  0  0  0  0
   -4.3800   23.6670  -29.3850 N   0  0  0  0  0  0  0  0  0  0  0  0
   -4.5410   24.5580  -30.4950 C   0  0  0  0  0  0  0  0  0  0  0  0
   -3.9350   25.6630  -30.5120 O   0  0  0  0  0  0  0  0  0  0  0  0
   -5.3610   24.1580  -31.6000 N   0  0  0  0  0  0  0  0  0  0  0  0
   -6.0210   22.8940  -31.7620 C   0  0  0  0  0  0  0  0  0  0  0  0
   -7.3470   22.7610  -31.2830 C   0  0  0  0  0  0  0  0  0  0  0  0
   -8.0510   21.5520  -31.4320 C   0  0  0  0  0  0  0  0  0  0  0  0
   -7.4020   20.5030  -32.0830 C   0  0  0  0  0  0  0  0  0  0  0  0
   -6.1310   20.6250  -32.5600 C   0  0  0  0  0  0  0  0  0  0  0  0
   -5.4050   21.8070  -32.4290 C   0  0  0  0  0  0  0  0  0  0  0  0
   -5.7260   19.4770  -33.1340 N   0  0  0  0  0  0  0  0  0  0  0  0
   -6.8040   18.6620  -32.9770 C   0  0  0  0  0  0  0  0  0  0  0  0
   -6.8150   17.2440  -33.4560 C   0  0  0  0  0  0  0  0  0  0  0  0
   -7.8510   19.2660  -32.3550 N   0  0  0  0  0  0  0  0  0  0  0  0
   -9.1280   18.6730  -31.9580 C   0  0  0  0  0  0  0  0  0  0  0  0
   -1.3741   26.6536  -24.4407 H   0  0  0  0  0  0  0  0  0  0  0  0
   -0.1507   27.3267  -25.5707 H   0  0  0  0  0  0  0  0  0  0  0  0
   -1.8260   27.9748  -25.5707 H   0  0  0  0  0  0  0  0  0  0  0  0
   -1.3812   25.0318  -26.1105 H   0  0  0  0  0  0  0  0  0  0  0  0
   -2.6898   26.1481  -26.6899 H   0  0  0  0  0  0  0  0  0  0  0  0
   -0.7088   27.3209  -27.9778 H   0  0  0  0  0  0  0  0  0  0  0  0
    0.0973   25.7175  -27.7652 H   0  0  0  0  0  0  0  0  0  0  0  0
   -1.3422   24.1982  -30.2702 H   0  0  0  0  0  0  0  0  0  0  0  0
   -0.1907   24.2286  -28.8852 H   0  0  0  0  0  0  0  0  0  0  0  0
   -2.2015   22.4649  -28.9802 H   0  0  0  0  0  0  0  0  0  0  0  0
   -1.6893   23.2386  -27.4276 H   0  0  0  0  0  0  0  0  0  0  0  0
   -3.9899   23.5512  -27.3263 H   0  0  0  0  0  0  0  0  0  0  0  0
   -3.4679   25.0772  -28.1340 H   0  0  0  0  0  0  0  0  0  0  0  0
   -4.9330   22.7800  -29.3720 H   0  0  0  0  0  0  0  0  0  0  0  0
   -7.8331   23.6145  -30.7877 H   0  0  0  0  0  0  0  0  0  0  0  0
   -9.0759   21.4382  -31.0490 H   0  0  0  0  0  0  0  0  0  0  0  0
   -4.3848   21.8933  -32.8312 H   0  0  0  0  0  0  0  0  0  0  0  0
   -6.8203   16.5647  -32.5908 H   0  0  0  0  0  0  0  0  0  0  0  0
   -7.7145   17.0695  -34.0646 H   0  0  0  0  0  0  0  0  0  0  0  0
   -5.9183   17.0556  -34.0646 H   0  0  0  0  0  0  0  0  0  0  0  0
   -9.1928   18.6429  -30.8603 H   0  0  0  0  0  0  0  0  0  0  0  0
   -9.9540   19.2797  -32.3576 H   0  0  0  0  0  0  0  0  0  0  0  0
   -9.1974   17.6505  -32.3576 H   0  0  0  0  0  0  0  0  0  0  0  0
  1  2  1  0
  2  3  1  0
  3  4  1  0
  4  5  1  0
  5  6  1  0
  6  7  1  0
  7  8  1  0
  8  9  1  0
  9 10  2  0
  9 11  1  0
 11 12  1  0
 12 13  2  0
 13 14  1  0
 14 15  2  0
 15 16  1  0
 16 17  2  0
 16 18  1  0
 18 19  2  0
 19 20  1  0
 19 21  1  0
 21 22  1  0
 17 12  1  0
 21 15  1  0
  1 23  1  0
  1 24  1  0
  1 25  1  0
  2 26  1  0
  2 27  1  0
  3 28  1  0
  3 29  1  0
  5 30  1  0
  5 31  1  0
  6 32  1  0
  6 33  1  0
  7 34  1  0
  7 35  1  0
  8 36  1  0
 13 37  1  0
 14 38  1  0
 17 39  1  0
 20 40  1  0
 20 41  1  0
 20 42  1  0
 22 43  1  0
 22 44  1  0
 22 45  1  0
M  CHG  1  11  -1
M  END
>  <UniqueID>  (22) 
21

>  <SMILES>  (22) 
CCCOCCCNC(=O)[N-]c1ccc2c(c1)nc(C)n2C

>  <Energy>  (22) 
75.77673832518042

>  <Genealogy>  (22) 
CCCOCCCNC(=O)[N-]c1ccc2c(c1)nc(C)n2C (protonated)
CCCOCCCNC(=O)[N-]c1ccc2c(c1)nc(C)n2C (3D coordinates assigned)
CCCOCCCNC(=O)[N-]c1ccc2c(c1)nc(C)n2C (optimized conformer: 75.77673832518042 kcal/mol)

>  <smiles>  (22) 
CCCOCCCNC(=O)Nc1ccc2c(c1)nc(C)n2C

>  <score_type>  (22) 
oracle

>  <origin>  (22) 
adg

>  <m_score__min__energy>  (22) 
-9.0099999999999998

>  <m_primary>  (22) 
energy

$$$$
22:0
     RDKit          3D

 57 59  0  0  0  0  0  0  0  0999 V2000
   -3.8040   22.4800  -28.1130 C   0  0  0  0  0  0  0  0  0  0  0  0
   -4.1330   23.8430  -27.4970 C   0  0  0  0  0  0  0  0  0  0  0  0
   -4.9880   24.6650  -28.3710 N   0  0  0  0  0  0  0  0  0  0  0  0
   -4.6150   24.5480  -29.7930 C   0  0  0  0  0  0  0  0  0  0  0  0
   -5.8130   24.8500  -30.7200 C   0  0  0  0  0  0  0  0  0  0  0  0
   -6.0630   23.7620  -31.7790 C   0  0  0  0  0  0  0  0  0  0  0  0
   -5.0790   22.5920  -31.6740 C   0  0  0  0  0  0  0  0  0  0  0  0
   -5.0050   21.8600  -32.9380 N   0  0  0  0  0  0  0  0  0  0  0  0
   -5.3080   20.4580  -33.0160 C   0  0  0  0  0  0  0  0  0  0  0  0
   -6.5870   20.0130  -32.6410 C   0  0  0  0  0  0  0  0  0  0  0  0
   -7.5180   20.8990  -32.0560 C   0  0  0  0  0  0  0  0  0  0  0  0
   -8.7730   20.4480  -31.6520 C   0  0  0  0  0  0  0  0  0  0  0  0
   -9.1160   19.1120  -31.8130 C   0  0  0  0  0  0  0  0  0  0  0  0
   -8.2180   18.2220  -32.4010 C   0  0  0  0  0  0  0  0  0  0  0  0
   -6.9480   18.6590  -32.8570 C   0  0  0  0  0  0  0  0  0  0  0  0
   -6.0700   17.8070  -33.4930 N   0  0  0  0  0  0  0  0  0  0  0  0
   -6.5530   16.5060  -34.0130 C   0  0  0  0  0  0  0  0  0  0  0  0
   -4.7460   18.1720  -33.6590 C   0  0  0  0  0  0  0  0  0  0  0  0
   -3.7650   17.2200  -34.0300 C   0  0  0  0  0  0  0  0  0  0  0  0
   -2.4420   17.5890  -34.2280 C   0  0  0  0  0  0  0  0  0  0  0  0
   -2.0440   18.9020  -34.0310 C   0  0  0  0  0  0  0  0  0  0  0  0
   -2.9660   19.8760  -33.6150 C   0  0  0  0  0  0  0  0  0  0  0  0
   -2.5380   21.1880  -33.3460 O   0  0  0  0  0  0  0  0  0  0  0  0
   -1.5500   21.5520  -32.3860 C   0  0  0  0  0  0  0  0  0  0  0  0
   -2.0470   21.1970  -30.9940 C   0  0  0  0  0  0  0  0  0  0  0  0
   -4.3360   19.5200  -33.4370 C   0  0  0  0  0  0  0  0  0  0  0  0
   -3.6274   21.7482  -27.3110 H   0  0  0  0  0  0  0  0  0  0  0  0
   -4.6472   22.1457  -28.7352 H   0  0  0  0  0  0  0  0  0  0  0  0
   -2.9011   22.5672  -28.7352 H   0  0  0  0  0  0  0  0  0  0  0  0
   -4.6555   23.6820  -26.5425 H   0  0  0  0  0  0  0  0  0  0  0  0
   -3.1853   24.3825  -27.3530 H   0  0  0  0  0  0  0  0  0  0  0  0
   -4.8920   25.6590  -28.0620 H   0  0  0  0  0  0  0  0  0  0  0  0
   -5.9900   24.3880  -28.2470 H   0  0  0  0  0  0  0  0  0  0  0  0
   -3.8064   25.2615  -30.0102 H   0  0  0  0  0  0  0  0  0  0  0  0
   -4.2867   23.5148  -29.9794 H   0  0  0  0  0  0  0  0  0  0  0  0
   -6.7166   24.9459  -30.1001 H   0  0  0  0  0  0  0  0  0  0  0  0
   -5.5759   25.7779  -31.2611 H   0  0  0  0  0  0  0  0  0  0  0  0
   -7.0844   23.3745  -31.6501 H   0  0  0  0  0  0  0  0  0  0  0  0
   -5.9228   24.2242  -32.7673 H   0  0  0  0  0  0  0  0  0  0  0  0
   -4.0811   22.9815  -31.4240 H   0  0  0  0  0  0  0  0  0  0  0  0
   -5.4301   21.9056  -30.8893 H   0  0  0  0  0  0  0  0  0  0  0  0
   -4.7260   22.3660  -33.8080 H   0  0  0  0  0  0  0  0  0  0  0  0
   -7.2496   21.9567  -31.9177 H   0  0  0  0  0  0  0  0  0  0  0  0
   -9.4922   21.1504  -31.2054 H   0  0  0  0  0  0  0  0  0  0  0  0
  -10.0999   18.7545  -31.4753 H   0  0  0  0  0  0  0  0  0  0  0  0
   -8.4989   17.1644  -32.5130 H   0  0  0  0  0  0  0  0  0  0  0  0
   -6.7992   15.8430  -33.1705 H   0  0  0  0  0  0  0  0  0  0  0  0
   -7.4512   16.6673  -34.6272 H   0  0  0  0  0  0  0  0  0  0  0  0
   -5.7672   16.0421  -34.6272 H   0  0  0  0  0  0  0  0  0  0  0  0
   -4.0575   16.1681  -34.1637 H   0  0  0  0  0  0  0  0  0  0  0  0
   -1.7052   16.8354  -34.5430 H   0  0  0  0  0  0  0  0  0  0  0  0
   -0.9947   19.1840  -34.2024 H   0  0  0  0  0  0  0  0  0  0  0  0
   -0.6176   21.0065  -32.5934 H   0  0  0  0  0  0  0  0  0  0  0  0
   -1.3603   22.6339  -32.4447 H   0  0  0  0  0  0  0  0  0  0  0  0
   -1.3941   21.6634  -30.2415 H   0  0  0  0  0  0  0  0  0  0  0  0
   -3.0753   21.5662  -30.8666 H   0  0  0  0  0  0  0  0  0  0  0  0
   -2.0312   20.1045  -30.8666 H   0  0  0  0  0  0  0  0  0  0  0  0
  1  2  1  0
  2  3  1  0
  3  4  1  0
  4  5  1  0
  5  6  1  0
  6  7  1  0
  7  8  1  0
  8  9  1  0
  9 10  2  0
 10 11  1  0
 11 12  2  0
 12 13  1  0
 13 14  2  0
 14 15  1  0
 15 16  2  0
 16 17  1  0
 16 18  1  0
 18 19  2  0
 19 20  1  0
 20 21  2  0
 21 22  1  0
 22 23  1  0
 23 24  1  0
 24 25  1  0
 22 26  2  0
 26  9  1  0
 15 10  1  0
 26 18  1  0
  1 27  1  0
  1 28  1  0
  1 29  1  0
  2 30  1  0
  2 31  1  0
  3 32  1  0
  3 33  1  0
  4 34  1  0
  4 35  1  0
  5 36  1  0
  5 37  1  0
  6 38  1  0
  6 39  1  0
  7 40  1  0
  7 41  1  0
  8 42  1  0
 11 43  1  0
 12 44  1  0
 13 45  1  0
 14 46  1  0
 17 47  1  0
 17 48  1  0
 17 49  1  0
 19 50  1  0
 20 51  1  0
 21 52  1  0
 24 53  1  0
 24 54  1  0
 25 55  1  0
 25 56  1  0
 25 57  1  0
M  CHG  2   3   1  16   1
M  END
>  <UniqueID>  (23) 
22

>  <SMILES>  (23) 
CC[NH2+]CCCCNc1c2ccccc2[n+](C)c2cccc(OCC)c12

>  <Energy>  (23) 
78.3741277286532

>  <Genealogy>  (23) 
CC[NH2+]CCCCNc1c2ccccc2[n+](C)c2cccc(OCC)c12 (protonated)
CC[NH2+]CCCCNc1c2ccccc2[n+](C)c2cccc(OCC)c12 (3D coordinates assigned)
CC[NH2+]CCCCNc1c2ccccc2[n+](C)c2cccc(OCC)c12 (optimized conformer: 78.3741277286532 kcal/mol)

>  <smiles>  (23) 
CCNCCCCNc1c2ccccc2[n+](C)c2cccc(OCC)c12

>  <score_type>  (23) 
oracle

>  <origin>  (23) 
adg

>  <m_score__min__energy>  (23) 
-7.6500000000000004

>  <m_primary>  (23) 
energy

$$$$
