0:0
     RDKit          3D

 46 48  0  0  0  0  0  0  0  0999 V2000
   -6.1520   25.5660  -29.7250 C   0  0  0  0  0  0  0  0  0  0  0  0
   -5.1070   25.2820  -30.7990 C   0  0  0  0  0  0  0  0  0  0  0  0
   -5.0470   23.8280  -31.0840 N   0  0  0  0  0  0  0  0  0  0  0  0
   -5.4980   23.0060  -29.9370 C   0  0  0  0  0  0  0  0  0  0  0  0
   -4.4210   22.8100  -28.8600 C   0  0  0  0  0  0  0  0  0  0  0  0
   -5.7330   23.4520  -32.3420 C   0  0  0  0  0  0  0  0  0  0  0  0
   -6.8160   22.4330  -32.0760 C   0  0  0  0  0  0  0  0  0  0  0  0
   -8.0910   22.8920  -31.6980 C   0  0  0  0  0  0  0  0  0  0  0  0
   -9.1090   21.9880  -31.3880 C   0  0  0  0  0  0  0  0  0  0  0  0
   -8.8670   20.6150  -31.4470 C   0  0  0  0  0  0  0  0  0  0  0  0
   -7.6090   20.1420  -31.8220 C   0  0  0  0  0  0  0  0  0  0  0  0
   -6.5780   21.0380  -32.1460 C   0  0  0  0  0  0  0  0  0  0  0  0
   -5.2920   20.5200  -32.5210 N   0  0  0  0  0  0  0  0  0  0  0  0
   -4.1500   20.6950  -31.6140 C   0  0  0  0  0  0  0  0  0  0  0  0
   -2.8350   20.6530  -32.3530 C   0  0  0  0  0  0  0  0  0  0  0  0
   -1.7000   21.2620  -31.7970 C   0  0  0  0  0  0  0  0  0  0  0  0
   -0.4600   21.1560  -32.4320 C   0  0  0  0  0  0  0  0  0  0  0  0
   -0.3410   20.4270  -33.6180 C   0  0  0  0  0  0  0  0  0  0  0  0
   -1.4620   19.8060  -34.1740 C   0  0  0  0  0  0  0  0  0  0  0  0
   -2.7120   19.9150  -33.5480 C   0  0  0  0  0  0  0  0  0  0  0  0
   -3.8670   19.3040  -34.1360 N   0  0  0  0  0  0  0  0  0  0  0  0
   -5.1670   19.6390  -33.6500 C   0  0  0  0  0  0  0  0  0  0  0  0
   -6.1910   19.1870  -34.2310 O   0  0  0  0  0  0  0  0  0  0  0  0
   -5.6985   25.4427  -28.7304 H   0  0  0  0  0  0  0  0  0  0  0  0
   -6.5201   26.5967  -29.8350 H   0  0  0  0  0  0  0  0  0  0  0  0
   -6.9911   24.8633  -29.8350 H   0  0  0  0  0  0  0  0  0  0  0  0
   -5.3757   25.8217  -31.7190 H   0  0  0  0  0  0  0  0  0  0  0  0
   -4.1231   25.6181  -30.4399 H   0  0  0  0  0  0  0  0  0  0  0  0
   -6.3658   23.4997  -29.4752 H   0  0  0  0  0  0  0  0  0  0  0  0
   -5.7447   22.0093  -30.3316 H   0  0  0  0  0  0  0  0  0  0  0  0
   -4.8794   22.8934  -27.8636 H   0  0  0  0  0  0  0  0  0  0  0  0
   -3.9669   21.8145  -28.9725 H   0  0  0  0  0  0  0  0  0  0  0  0
   -3.6452   23.5817  -28.9725 H   0  0  0  0  0  0  0  0  0  0  0  0
   -6.1842   24.3499  -32.7895 H   0  0  0  0  0  0  0  0  0  0  0  0
   -4.9951   23.0125  -33.0293 H   0  0  0  0  0  0  0  0  0  0  0  0
   -8.2877   23.9730  -31.6462 H   0  0  0  0  0  0  0  0  0  0  0  0
  -10.1029   22.3586  -31.0969 H   0  0  0  0  0  0  0  0  0  0  0  0
   -9.6690   19.9047  -31.1976 H   0  0  0  0  0  0  0  0  0  0  0  0
   -7.4237   19.0585  -31.8641 H   0  0  0  0  0  0  0  0  0  0  0  0
   -4.2430   21.6673  -31.1080 H   0  0  0  0  0  0  0  0  0  0  0  0
   -4.1605   19.8686  -30.8881 H   0  0  0  0  0  0  0  0  0  0  0  0
   -1.7868   21.8258  -30.8564 H   0  0  0  0  0  0  0  0  0  0  0  0
    0.4234   21.6469  -31.9978 H   0  0  0  0  0  0  0  0  0  0  0  0
    0.6368   20.3419  -34.1146 H   0  0  0  0  0  0  0  0  0  0  0  0
   -1.3638   19.2297  -35.1058 H   0  0  0  0  0  0  0  0  0  0  0  0
   -3.7720   18.6870  -34.9730 H   0  0  0  0  0  0  0  0  0  0  0  0
  1  2  1  0
  2  3  1  0
  3  4  1  0
  4  5  1  0
  3  6  1  0
  6  7  1  0
  7  8  2  0
  8  9  1  0
  9 10  2  0
 10 11  1  0
 11 12  2  0
 12 13  1  0
 13 14  1  0
 14 15  1  0
 15 16  2  0
 16 17  1  0
 17 18  2  0
 18 19  1  0
 19 20  2  0
 20 21  1  0
 21 22  1  0
 22 23  2  0
 12  7  1  0
 22 13  1  0
 20 15  1  0
  1 24  1  0
  1 25  1  0
  1 26  1  0
  2 27  1  0
  2 28  1  0
  4 29  1  0
  4 30  1  0
  5 31  1  0
  5 32  1  0
  5 33  1  0
  6 34  1  0
  6 35  1  0
  8 36  1  0
  9 37  1  0
 10 38  1  0
 11 39  1  0
 14 40  1  0
 14 41  1  0
 16 42  1  0
 17 43  1  0
 18 44  1  0
 19 45  1  0
 21 46  1  0
M  END
>  <UniqueID>  (1) 
1

>  <SMILES>  (1) 
CCN(CC)Cc1ccccc1N1Cc2ccccc2NC1=O

>  <Energy>  (1) 
54.50376039951154

>  <Genealogy>  (1) 
CCN(CC)Cc1ccccc1N1Cc2ccccc2NC1=O (3D coordinates assigned)
CCN(CC)Cc1ccccc1N1Cc2ccccc2NC1=O (nonaromatic ring conformer: 54.50376039951154 kcal/mol)

>  <smiles>  (1) 
CCN(CC)Cc1ccccc1N1Cc2ccccc2NC1=O

>  <score_type>  (1) 
oracle

>  <origin>  (1) 
adg

>  <m_score__min__energy>  (1) 
-7.6299999999999999

>  <m_primary>  (1) 
energy

$$$$
1:0
     RDKit          3D

 54 57  0  0  0  0  0  0  0  0999 V2000
   -4.2540   24.9350  -26.4280 C   0  0  0  0  0  0  0  0  0  0  0  0
   -3.7540   24.0710  -27.5910 C   0  0  0  0  0  0  0  0  0  0  0  0
   -2.3470   24.3150  -27.9990 N   0  0  0  0  0  0  0  0  0  0  0  0
   -1.3740   24.3990  -26.8950 C   0  0  0  0  0  0  0  0  0  0  0  0
   -0.8510   23.0260  -26.4400 C   0  0  0  0  0  0  0  0  0  0  0  0
   -0.7730   21.9920  -27.5370 C   0  0  0  0  0  0  0  0  0  0  0  0
   -0.2220   20.7380  -27.2250 C   0  0  0  0  0  0  0  0  0  0  0  0
   -0.1130   19.7490  -28.2020 C   0  0  0  0  0  0  0  0  0  0  0  0
   -0.5400   20.0040  -29.5030 C   0  0  0  0  0  0  0  0  0  0  0  0
   -1.0940   21.2430  -29.8280 C   0  0  0  0  0  0  0  0  0  0  0  0
   -1.2570   22.2390  -28.8430 C   0  0  0  0  0  0  0  0  0  0  0  0
   -1.7990   23.6180  -29.1900 C   0  0  1  0  0  0  0  0  0  0  0  0
   -2.7550   23.6800  -30.4080 C   0  0  0  0  0  0  0  0  0  0  0  0
   -3.4910   24.9410  -30.4510 N   0  0  0  0  0  0  0  0  0  0  0  0
   -4.8960   25.0560  -30.7020 C   0  0  0  0  0  0  0  0  0  0  0  0
   -5.3990   26.2040  -30.8200 O   0  0  0  0  0  0  0  0  0  0  0  0
   -5.7620   23.8720  -30.8620 C   0  0  0  0  0  0  0  0  0  0  0  0
   -6.9910   23.7930  -30.1930 C   0  0  0  0  0  0  0  0  0  0  0  0
   -7.8160   22.6810  -30.3680 C   0  0  0  0  0  0  0  0  0  0  0  0
   -7.4210   21.6400  -31.2120 C   0  0  0  0  0  0  0  0  0  0  0  0
   -6.1930   21.7010  -31.8940 C   0  0  0  0  0  0  0  0  0  0  0  0
   -5.7960   20.6320  -32.7750 N   0  0  0  0  0  0  0  0  0  0  0  0
   -4.4210   20.3240  -33.1380 C   0  0  0  0  0  0  0  0  0  0  0  0
   -4.4710   18.9930  -33.9100 C   0  0  0  0  0  0  0  0  0  0  0  0
   -5.9430   18.7280  -34.2550 C   0  0  0  0  0  0  0  0  0  0  0  0
   -6.6630   19.7470  -33.4660 C   0  0  0  0  0  0  0  0  0  0  0  0
   -7.9180   19.8670  -33.4730 O   0  0  0  0  0  0  0  0  0  0  0  0
   -5.3780   22.8360  -31.7270 C   0  0  0  0  0  0  0  0  0  0  0  0
   -3.9794   24.4606  -25.4743 H   0  0  0  0  0  0  0  0  0  0  0  0
   -3.7933   25.9321  -26.4875 H   0  0  0  0  0  0  0  0  0  0  0  0
   -5.3481   25.0324  -26.4875 H   0  0  0  0  0  0  0  0  0  0  0  0
   -3.8445   23.0156  -27.2946 H   0  0  0  0  0  0  0  0  0  0  0  0
   -4.3748   24.3377  -28.4591 H   0  0  0  0  0  0  0  0  0  0  0  0
   -0.5190   25.0054  -27.2284 H   0  0  0  0  0  0  0  0  0  0  0  0
   -1.8928   24.8510  -26.0368 H   0  0  0  0  0  0  0  0  0  0  0  0
    0.1582   23.1631  -26.0244 H   0  0  0  0  0  0  0  0  0  0  0  0
   -1.5717   22.6453  -25.7013 H   0  0  0  0  0  0  0  0  0  0  0  0
    0.1263   20.5346  -26.2016 H   0  0  0  0  0  0  0  0  0  0  0  0
    0.3105   18.7668  -27.9450 H   0  0  0  0  0  0  0  0  0  0  0  0
   -0.4404   19.2274  -30.2757 H   0  0  0  0  0  0  0  0  0  0  0  0
   -1.4067   21.4448  -30.8631 H   0  0  0  0  0  0  0  0  0  0  0  0
   -0.9146   24.1751  -29.5328 H   0  0  0  0  0  0  0  0  0  0  0  0
   -2.1645   23.5798  -31.3306 H   0  0  0  0  0  0  0  0  0  0  0  0
   -3.4826   22.8602  -30.3160 H   0  0  0  0  0  0  0  0  0  0  0  0
   -7.3064   24.6102  -29.5277 H   0  0  0  0  0  0  0  0  0  0  0  0
   -8.7794   22.6240  -29.8402 H   0  0  0  0  0  0  0  0  0  0  0  0
   -8.0758   20.7660  -31.3439 H   0  0  0  0  0  0  0  0  0  0  0  0
   -4.0070   21.1195  -33.7751 H   0  0  0  0  0  0  0  0  0  0  0  0
   -3.7779   20.2488  -32.2488 H   0  0  0  0  0  0  0  0  0  0  0  0
   -3.8749   19.0683  -34.8314 H   0  0  0  0  0  0  0  0  0  0  0  0
   -4.0563   18.1731  -33.3052 H   0  0  0  0  0  0  0  0  0  0  0  0
   -6.1259   18.8608  -35.3315 H   0  0  0  0  0  0  0  0  0  0  0  0
   -6.2616   17.7004  -34.0258 H   0  0  0  0  0  0  0  0  0  0  0  0
   -4.4303   22.9118  -32.2802 H   0  0  0  0  0  0  0  0  0  0  0  0
  1  2  1  0
  2  3  1  0
  3  4  1  0
  4  5  1  0
  5  6  1  0
  6  7  2  0
  7  8  1  0
  8  9  2  0
  9 10  1  0
 10 11  2  0
 11 12  1  0
 12 13  1  0
 13 14  1  0
 14 15  1  0
 15 16  2  0
 15 17  1  0
 17 18  2  0
 18 19  1  0
 19 20  2  0
 20 21  1  0
 21 22  1  0
 22 23  1  0
 23 24  1  0
 24 25  1  0
 25 26  1  0
 26 27  2  0
 21 28  2  0
 12  3  1  0
 28 17  1  0
 11  6  1  0
 26 22  1  0
  1 29  1  0
  1 30  1  0
  1 31  1  0
  2 32  1  0
  2 33  1  0
  4 34  1  0
  4 35  1  0
  5 36  1  0
  5 37  1  0
  7 38  1  0
  8 39  1  0
  9 40  1  0
 10 41  1  0
 12 42  1  6
 13 43  1  0
 13 44  1  0
 18 45  1  0
 19 46  1  0
 20 47  1  0
 23 48  1  0
 23 49  1  0
 24 50  1  0
 24 51  1  0
 25 52  1  0
 25 53  1  0
 28 54  1  0
M  CHG  1  14  -1
M  END
>  <UniqueID>  (2) 
2

>  <SMILES>  (2) 
CCN1CCc2ccccc2[C@H]1C[N-]C(=O)c1cccc(N2CCCC2=O)c1

>  <Energy>  (2) 
87.21920084654245

>  <Genealogy>  (2) 
CCN1CCc2ccccc2C1C[N-]C(=O)c1cccc(N2CCCC2=O)c1 (protonated)
CCN1CCc2ccccc2[C@H]1C[N-]C(=O)c1cccc(N2CCCC2=O)c1 (chirality)
CCN1CCc2ccccc2[C@H]1C[N-]C(=O)c1cccc(N2CCCC2=O)c1 (3D coordinates assigned)
CCN1CCc2ccccc2[C@H]1C[N-]C(=O)c1cccc(N2CCCC2=O)c1 (nonaromatic ring conformer: 87.21920084654245 kcal/mol)

>  <smiles>  (2) 
CCN1CCc2ccccc2C1CNC(=O)c1cccc(N2CCCC2=O)c1

>  <score_type>  (2) 
oracle

>  <origin>  (2) 
adg

>  <m_score__min__energy>  (2) 
-10.91

>  <m_primary>  (2) 
energy

$$$$
2:0
     RDKit          3D

 49 51  0  0  0  0  0  0  0  0999 V2000
   -3.0890   25.2960  -26.1220 C   0  0  0  0  0  0  0  0  0  0  0  0
   -1.9130   26.1590  -26.2030 N   0  0  0  0  0  0  0  0  0  0  0  0
   -1.6570   27.1190  -25.3290 N   0  0  0  0  0  0  0  0  0  0  0  0
   -0.5770   27.8060  -25.7480 C   0  0  0  0  0  0  0  0  0  0  0  0
   -0.0380   29.0290  -25.0740 C   0  0  0  0  0  0  0  0  0  0  0  0
   -1.0730   29.8820  -24.7350 F   0  0  0  0  0  0  0  0  0  0  0  0
    0.8290   29.6930  -25.9230 F   0  0  0  0  0  0  0  0  0  0  0  0
    0.6420   28.6590  -23.9290 F   0  0  0  0  0  0  0  0  0  0  0  0
   -0.1420   27.2830  -26.9540 C   0  0  0  0  0  0  0  0  0  0  0  0
   -1.0010   26.2270  -27.1990 C   0  0  0  0  0  0  0  0  0  0  0  0
   -0.9470   25.3550  -28.3830 C   0  0  0  0  0  0  0  0  0  0  0  0
    0.0550   24.6100  -28.5480 O   0  0  0  0  0  0  0  0  0  0  0  0
   -2.0170   25.3010  -29.3340 N   0  0  0  0  0  0  0  0  0  0  0  0
   -3.1870   24.4290  -29.2430 C   0  0  0  0  0  0  0  0  0  0  0  0
   -4.1520   24.6600  -30.4150 C   0  0  0  0  0  0  0  0  0  0  0  0
   -4.6490   23.3830  -30.9730 N   0  0  0  0  0  0  0  0  0  0  0  0
   -5.8000   23.6150  -31.8590 C   0  0  0  0  0  0  0  0  0  0  0  0
   -6.4700   22.2720  -32.1480 C   0  0  0  0  0  0  0  0  0  0  0  0
   -5.4750   21.2530  -32.5060 N   0  0  0  0  0  0  0  0  0  0  0  0
   -5.9250   19.9350  -32.8860 C   0  0  0  0  0  0  0  0  0  0  0  0
   -7.0600   19.3680  -32.2790 C   0  0  0  0  0  0  0  0  0  0  0  0
   -7.4980   18.0920  -32.6500 C   0  0  0  0  0  0  0  0  0  0  0  0
   -6.8110   17.3720  -33.6300 C   0  0  0  0  0  0  0  0  0  0  0  0
   -7.2370   16.1370  -33.9880 F   0  0  0  0  0  0  0  0  0  0  0  0
   -5.6820   17.9250  -34.2390 C   0  0  0  0  0  0  0  0  0  0  0  0
   -5.2400   19.2000  -33.8700 C   0  0  0  0  0  0  0  0  0  0  0  0
   -4.0800   21.6490  -32.7400 C   0  0  0  0  0  0  0  0  0  0  0  0
   -3.5690   22.6280  -31.6590 C   0  0  0  0  0  0  0  0  0  0  0  0
   -3.3378   25.1134  -25.0662 H   0  0  0  0  0  0  0  0  0  0  0  0
   -3.9387   25.7865  -26.6194 H   0  0  0  0  0  0  0  0  0  0  0  0
   -2.8760   24.3383  -26.6194 H   0  0  0  0  0  0  0  0  0  0  0  0
   -2.2330   27.3230  -24.4810 H   0  0  0  0  0  0  0  0  0  0  0  0
    0.6966   27.6289  -27.5762 H   0  0  0  0  0  0  0  0  0  0  0  0
   -2.8537   23.3808  -29.2554 H   0  0  0  0  0  0  0  0  0  0  0  0
   -3.7179   24.6594  -28.3075 H   0  0  0  0  0  0  0  0  0  0  0  0
   -5.0088   25.2517  -30.0603 H   0  0  0  0  0  0  0  0  0  0  0  0
   -3.6073   25.1926  -31.2085 H   0  0  0  0  0  0  0  0  0  0  0  0
   -6.5169   24.2887  -31.3668 H   0  0  0  0  0  0  0  0  0  0  0  0
   -5.4642   24.0779  -32.7987 H   0  0  0  0  0  0  0  0  0  0  0  0
   -7.0160   21.9423  -31.2518 H   0  0  0  0  0  0  0  0  0  0  0  0
   -7.1603   22.4001  -32.9948 H   0  0  0  0  0  0  0  0  0  0  0  0
   -7.6065   19.9310  -31.5081 H   0  0  0  0  0  0  0  0  0  0  0  0
   -8.3854   17.6549  -32.1688 H   0  0  0  0  0  0  0  0  0  0  0  0
   -5.1399   17.3573  -35.0096 H   0  0  0  0  0  0  0  0  0  0  0  0
   -4.3504   19.6306  -34.3529 H   0  0  0  0  0  0  0  0  0  0  0  0
   -3.4485   20.7484  -32.7310 H   0  0  0  0  0  0  0  0  0  0  0  0
   -4.0295   22.1595  -33.7131 H   0  0  0  0  0  0  0  0  0  0  0  0
   -3.0153   22.0515  -30.9033 H   0  0  0  0  0  0  0  0  0  0  0  0
   -2.9370   23.3684  -32.1712 H   0  0  0  0  0  0  0  0  0  0  0  0
  1  2  1  0
  2  3  1  0
  3  4  2  0
  4  5  1  0
  5  6  1  0
  5  7  1  0
  5  8  1  0
  4  9  1  0
  9 10  2  0
 10 11  1  0
 11 12  2  0
 11 13  1  0
 13 14  1  0
 14 15  1  0
 15 16  1  0
 16 17  1  0
 17 18  1  0
 18 19  1  0
 19 20  1  0
 20 21  2  0
 21 22  1  0
 22 23  2  0
 23 24  1  0
 23 25  1  0
 25 26  2  0
 19 27  1  0
 27 28  1  0
 10  2  1  0
 28 16  1  0
 26 20  1  0
  1 29  1  0
  1 30  1  0
  1 31  1  0
  3 32  1  0
  9 33  1  0
 14 34  1  0
 14 35  1  0
 15 36  1  0
 15 37  1  0
 17 38  1  0
 17 39  1  0
 18 40  1  0
 18 41  1  0
 21 42  1  0
 22 43  1  0
 25 44  1  0
 26 45  1  0
 27 46  1  0
 27 47  1  0
 28 48  1  0
 28 49  1  0
M  CHG  2   3   1  13  -1
M  END
>  <UniqueID>  (3) 
3

>  <SMILES>  (3) 
Cn1[nH+]c(C(F)(F)F)cc1C(=O)[N-]CCN1CCN(c2ccc(F)cc2)CC1

>  <Energy>  (3) 
91.73481547823417

>  <Genealogy>  (3) 
Cn1[nH+]c(C(F)(F)F)cc1C(=O)[N-]CCN1CCN(c2ccc(F)cc2)CC1 (protonated)
Cn1[nH+]c(C(F)(F)F)cc1C(=O)[N-]CCN1CCN(c2ccc(F)cc2)CC1 (3D coordinates assigned)
Cn1[nH+]c(C(F)(F)F)cc1C(=O)[N-]CCN1CCN(c2ccc(F)cc2)CC1 (nonaromatic ring conformer: 91.73481547823417 kcal/mol)

>  <smiles>  (3) 
Cn1nc(C(F)(F)F)cc1C(=O)NCCN1CCN(c2ccc(F)cc2)CC1

>  <score_type>  (3) 
oracle

>  <origin>  (3) 
adg

>  <m_score__min__energy>  (3) 
-9.8000000000000007

>  <m_primary>  (3) 
energy

$$$$
3:0
     RDKit          3D

 68 71  0  0  0  0  0  0  0  0999 V2000
    0.3780   19.4250  -29.1840 C   0  0  0  0  0  0  0  0  0  0  0  0
   -0.2360   18.9670  -30.4730 C   0  0  0  0  0  0  0  0  0  0  0  0
   -0.0510   17.6460  -30.9060 C   0  0  0  0  0  0  0  0  0  0  0  0
   -0.5930   17.2210  -32.1200 C   0  0  0  0  0  0  0  0  0  0  0  0
   -1.2990   18.1170  -32.9240 C   0  0  0  0  0  0  0  0  0  0  0  0
   -1.4600   19.4570  -32.5270 C   0  0  0  0  0  0  0  0  0  0  0  0
   -2.1810   20.4210  -33.3940 C   0  0  0  0  0  0  0  0  0  0  0  0
   -1.5290   21.1560  -34.1830 O   0  0  0  0  0  0  0  0  0  0  0  0
   -3.6050   20.5740  -33.3300 N   0  0  0  0  0  0  0  0  0  0  0  0
   -4.3110   21.3530  -32.3530 C   0  0  0  0  0  0  0  0  0  0  0  0
   -3.7520   22.5420  -31.8500 C   0  0  0  0  0  0  0  0  0  0  0  0
   -4.4400   23.3140  -30.9030 C   0  0  0  0  0  0  0  0  0  0  0  0
   -3.8520   24.5740  -30.4020 C   0  0  0  0  0  0  0  0  0  0  0  0
   -4.2650   25.6740  -30.8610 O   0  0  0  0  0  0  0  0  0  0  0  0
   -2.8210   24.5880  -29.4060 N   0  0  0  0  0  0  0  0  0  0  0  0
   -1.5630   23.8520  -29.5000 C   0  0  0  0  0  0  0  0  0  0  0  0
   -1.8150   22.3540  -29.3130 C   0  0  0  0  0  0  0  0  0  0  0  0
   -2.3840   22.0810  -27.9750 N   0  0  0  0  0  0  0  0  0  0  0  0
   -2.7960   20.6700  -27.8530 C   0  0  0  0  0  0  0  0  0  0  0  0
   -1.3940   22.3900  -26.9290 C   0  0  0  0  0  0  0  0  0  0  0  0
   -5.6670   22.8520  -30.4090 C   0  0  0  0  0  0  0  0  0  0  0  0
   -6.2200   21.6620  -30.8870 C   0  0  0  0  0  0  0  0  0  0  0  0
   -5.5560   20.9070  -31.8660 C   0  0  0  0  0  0  0  0  0  0  0  0
   -6.2010   19.7470  -32.4280 N   0  0  0  0  0  0  0  0  0  0  0  0
   -6.5710   19.7180  -33.8460 C   0  0  0  0  0  0  0  0  0  0  0  0
   -5.7320   18.6610  -34.5700 C   0  0  0  0  0  0  0  0  0  0  0  0
   -5.6650   17.4030  -33.8040 N   0  0  0  0  0  0  0  0  0  0  0  0
   -4.8200   16.3370  -34.2900 C   0  0  0  0  0  0  0  0  0  0  0  0
   -5.1530   14.9830  -34.0990 C   0  0  0  0  0  0  0  0  0  0  0  0
   -4.2980   13.9880  -34.5780 C   0  0  0  0  0  0  0  0  0  0  0  0
   -3.1290   14.3370  -35.2510 C   0  0  0  0  0  0  0  0  0  0  0  0
   -2.8360   15.6880  -35.4480 C   0  0  0  0  0  0  0  0  0  0  0  0
   -3.6780   16.6430  -34.9710 N   0  0  0  0  0  0  0  0  0  0  0  0
   -6.4330   17.2700  -32.5530 C   0  0  0  0  0  0  0  0  0  0  0  0
   -6.2110   18.4950  -31.6560 C   0  0  0  0  0  0  0  0  0  0  0  0
   -0.9330   19.8710  -31.2920 C   0  0  0  0  0  0  0  0  0  0  0  0
   -0.1865   19.0039  -28.3390 H   0  0  0  0  0  0  0  0  0  0  0  0
    1.4225   19.0836  -29.1337 H   0  0  0  0  0  0  0  0  0  0  0  0
    0.3485   20.5235  -29.1337 H   0  0  0  0  0  0  0  0  0  0  0  0
    0.5236   16.9419  -30.2863 H   0  0  0  0  0  0  0  0  0  0  0  0
   -0.4634   16.1777  -32.4437 H   0  0  0  0  0  0  0  0  0  0  0  0
   -1.7326   17.7731  -33.8747 H   0  0  0  0  0  0  0  0  0  0  0  0
   -2.7634   22.8699  -32.2038 H   0  0  0  0  0  0  0  0  0  0  0  0
   -1.1135   24.0247  -30.4890 H   0  0  0  0  0  0  0  0  0  0  0  0
   -0.8805   24.2034  -28.7122 H   0  0  0  0  0  0  0  0  0  0  0  0
   -2.5207   22.0080  -30.0826 H   0  0  0  0  0  0  0  0  0  0  0  0
   -0.8573   21.8208  -29.4048 H   0  0  0  0  0  0  0  0  0  0  0  0
   -2.8744   20.4016  -26.7891 H   0  0  0  0  0  0  0  0  0  0  0  0
   -3.7726   20.5298  -28.3394 H   0  0  0  0  0  0  0  0  0  0  0  0
   -2.0483   20.0263  -28.3394 H   0  0  0  0  0  0  0  0  0  0  0  0
   -1.8506   22.2475  -25.9384 H   0  0  0  0  0  0  0  0  0  0  0  0
   -0.5285   21.7193  -27.0337 H   0  0  0  0  0  0  0  0  0  0  0  0
   -1.0637   23.4340  -27.0337 H   0  0  0  0  0  0  0  0  0  0  0  0
   -6.1985   23.4307  -29.6392 H   0  0  0  0  0  0  0  0  0  0  0  0
   -7.1856   21.3131  -30.4922 H   0  0  0  0  0  0  0  0  0  0  0  0
   -7.6380   19.4681  -33.9417 H   0  0  0  0  0  0  0  0  0  0  0  0
   -6.3844   20.7050  -34.2943 H   0  0  0  0  0  0  0  0  0  0  0  0
   -6.1842   18.4574  -35.5519 H   0  0  0  0  0  0  0  0  0  0  0  0
   -4.7094   19.0507  -34.6816 H   0  0  0  0  0  0  0  0  0  0  0  0
   -6.0812   14.7100  -33.5756 H   0  0  0  0  0  0  0  0  0  0  0  0
   -4.5477   12.9279  -34.4238 H   0  0  0  0  0  0  0  0  0  0  0  0
   -2.4460   13.5587  -35.6222 H   0  0  0  0  0  0  0  0  0  0  0  0
   -1.9238   15.9796  -35.9892 H   0  0  0  0  0  0  0  0  0  0  0  0
   -7.5033   17.1851  -32.7921 H   0  0  0  0  0  0  0  0  0  0  0  0
   -6.0923   16.3706  -32.0192 H   0  0  0  0  0  0  0  0  0  0  0  0
   -7.0203   18.5424  -30.9125 H   0  0  0  0  0  0  0  0  0  0  0  0
   -5.2304   18.3873  -31.1694 H   0  0  0  0  0  0  0  0  0  0  0  0
   -1.0674   20.9122  -30.9635 H   0  0  0  0  0  0  0  0  0  0  0  0
  1  2  1  0
  2  3  2  0
  3  4  1  0
  4  5  2  0
  5  6  1  0
  6  7  1  0
  7  8  2  0
  7  9  1  0
  9 10  1  0
 10 11  2  0
 11 12  1  0
 12 13  1  0
 13 14  2  0
 13 15  1  0
 15 16  1  0
 16 17  1  0
 17 18  1  0
 18 19  1  0
 18 20  1  0
 12 21  2  0
 21 22  1  0
 22 23  2  0
 23 24  1  0
 24 25  1  0
 25 26  1  0
 26 27  1  0
 27 28  1  0
 28 29  2  0
 29 30  1  0
 30 31  2  0
 31 32  1  0
 32 33  2  0
 27 34  1  0
 34 35  1  0
  6 36  2  0
 36  2  1  0
 23 10  1  0
 35 24  1  0
 33 28  1  0
  1 37  1  0
  1 38  1  0
  1 39  1  0
  3 40  1  0
  4 41  1  0
  5 42  1  0
 11 43  1  0
 16 44  1  0
 16 45  1  0
 17 46  1  0
 17 47  1  0
 19 48  1  0
 19 49  1  0
 19 50  1  0
 20 51  1  0
 20 52  1  0
 20 53  1  0
 21 54  1  0
 22 55  1  0
 25 56  1  0
 25 57  1  0
 26 58  1  0
 26 59  1  0
 29 60  1  0
 30 61  1  0
 31 62  1  0
 32 63  1  0
 34 64  1  0
 34 65  1  0
 35 66  1  0
 35 67  1  0
 36 68  1  0
M  CHG  2   9  -1  15  -1
M  END
>  <UniqueID>  (4) 
4

>  <SMILES>  (4) 
Cc1cccc(C(=O)[N-]c2cc(C(=O)[N-]CCN(C)C)ccc2N2CCN(c3ccccn3)CC2)c1

>  <Energy>  (4) 
90.27192894660678

>  <Genealogy>  (4) 
Cc1cccc(C(=O)[N-]c2cc(C(=O)[N-]CCN(C)C)ccc2N2CCN(c3ccccn3)CC2)c1 (protonated)
Cc1cccc(C(=O)[N-]c2cc(C(=O)[N-]CCN(C)C)ccc2N2CCN(c3ccccn3)CC2)c1 (3D coordinates assigned)
Cc1cccc(C(=O)[N-]c2cc(C(=O)[N-]CCN(C)C)ccc2N2CCN(c3ccccn3)CC2)c1 (nonaromatic ring conformer: 90.27192894660678 kcal/mol)

>  <smiles>  (4) 
Cc1cccc(C(=O)Nc2cc(C(=O)NCCN(C)C)ccc2N2CCN(c3ccccn3)CC2)c1

>  <score_type>  (4) 
oracle

>  <origin>  (4) 
adg

>  <m_score__min__energy>  (4) 
-11.130000000000001

>  <m_primary>  (4) 
energy

$$$$
4:0
     RDKit          3D

 41 43  0  0  0  0  0  0  0  0999 V2000
   -6.8200   18.3440  -33.2170 C   0  0  0  0  0  0  0  0  0  0  0  0
   -6.9740   19.7420  -32.6690 C   0  0  0  0  0  0  0  0  0  0  0  0
   -5.8420   20.4760  -32.4260 N   0  0  0  0  0  0  0  0  0  0  0  0
   -5.9630   21.7280  -31.9230 C   0  0  0  0  0  0  0  0  0  0  0  0
   -7.1750   22.2780  -31.6620 C   0  0  0  0  0  0  0  0  0  0  0  0
   -6.9620   23.5520  -31.1780 C   0  0  0  0  0  0  0  0  0  0  0  0
   -5.5770   23.7020  -31.1610 C   0  0  0  0  0  0  0  0  0  0  0  0
   -4.8870   24.9240  -30.7180 C   0  0  0  0  0  0  0  0  0  0  0  0
   -5.5520   25.9790  -30.5540 O   0  0  0  0  0  0  0  0  0  0  0  0
   -3.4850   24.9310  -30.4310 N   0  0  0  0  0  0  0  0  0  0  0  0
   -2.8860   24.2560  -29.2850 C   0  0  0  0  0  0  0  0  0  0  0  0
   -1.5290   24.8800  -28.9740 C   0  0  0  0  0  0  0  0  0  0  0  0
   -1.5330   25.4890  -27.6080 C   0  0  0  0  0  0  0  0  0  0  0  0
   -0.6110   26.4100  -27.1260 C   0  0  0  0  0  0  0  0  0  0  0  0
   -0.8200   26.7450  -25.7830 C   0  0  0  0  0  0  0  0  0  0  0  0
   -1.8920   26.0800  -25.2020 C   0  0  0  0  0  0  0  0  0  0  0  0
   -2.5790   25.0720  -26.3600 S   0  0  0  0  0  0  0  0  0  0  0  0
   -4.9630   22.5820  -31.6280 N   0  0  0  0  0  0  0  0  0  0  0  0
   -3.5380   22.3680  -31.8780 C   0  0  0  0  0  0  0  0  0  0  0  0
   -8.3360   21.5620  -31.9100 C   0  0  0  0  0  0  0  0  0  0  0  0
   -9.4590   22.0790  -31.6550 O   0  0  0  0  0  0  0  0  0  0  0  0
   -8.2300   20.2900  -32.4340 N   0  0  0  0  0  0  0  0  0  0  0  0
   -9.4460   19.5000  -32.6980 C   0  0  0  0  0  0  0  0  0  0  0  0
   -6.7414   17.6302  -32.3838 H   0  0  0  0  0  0  0  0  0  0  0  0
   -7.6959   18.0932  -33.8333 H   0  0  0  0  0  0  0  0  0  0  0  0
   -5.9105   18.2899  -33.8333 H   0  0  0  0  0  0  0  0  0  0  0  0
   -4.8940   20.0790  -32.6170 H   0  0  0  0  0  0  0  0  0  0  0  0
   -7.7198   24.2884  -30.8723 H   0  0  0  0  0  0  0  0  0  0  0  0
   -3.5463   24.3621  -28.4116 H   0  0  0  0  0  0  0  0  0  0  0  0
   -2.7522   23.1895  -29.5187 H   0  0  0  0  0  0  0  0  0  0  0  0
   -0.7533   24.1015  -29.0209 H   0  0  0  0  0  0  0  0  0  0  0  0
   -1.3216   25.6672  -29.7138 H   0  0  0  0  0  0  0  0  0  0  0  0
    0.2001   26.8326  -27.7372 H   0  0  0  0  0  0  0  0  0  0  0  0
   -0.1938   27.4673  -25.2388 H   0  0  0  0  0  0  0  0  0  0  0  0
   -2.2333   26.1932  -24.1624 H   0  0  0  0  0  0  0  0  0  0  0  0
   -3.0054   22.2880  -30.9189 H   0  0  0  0  0  0  0  0  0  0  0  0
   -3.4018   21.4393  -32.4516 H   0  0  0  0  0  0  0  0  0  0  0  0
   -3.1350   23.2157  -32.4516 H   0  0  0  0  0  0  0  0  0  0  0  0
   -9.9043   19.2023  -31.7434 H   0  0  0  0  0  0  0  0  0  0  0  0
  -10.1599   20.1072  -33.2738 H   0  0  0  0  0  0  0  0  0  0  0  0
   -9.1813   18.6009  -33.2738 H   0  0  0  0  0  0  0  0  0  0  0  0
  1  2  1  0
  2  3  2  0
  3  4  1  0
  4  5  2  0
  5  6  1  0
  6  7  2  0
  7  8  1  0
  8  9  2  0
  8 10  1  0
 10 11  1  0
 11 12  1  0
 12 13  1  0
 13 14  2  0
 14 15  1  0
 15 16  2  0
 16 17  1  0
  7 18  1  0
 18 19  1  0
  5 20  1  0
 20 21  2  0
 20 22  1  0
 22 23  1  0
 22  2  1  0
 18  4  1  0
 17 13  1  0
  1 24  1  0
  1 25  1  0
  1 26  1  0
  3 27  1  0
  6 28  1  0
 11 29  1  0
 11 30  1  0
 12 31  1  0
 12 32  1  0
 14 33  1  0
 15 34  1  0
 16 35  1  0
 19 36  1  0
 19 37  1  0
 19 38  1  0
 23 39  1  0
 23 40  1  0
 23 41  1  0
M  CHG  2   3   1  10  -1
M  END
>  <UniqueID>  (5) 
5

>  <SMILES>  (5) 
Cc1[nH+]c2c(cc(C(=O)[N-]CCc3cccs3)n2C)c(=O)n1C

>  <Energy>  (5) 
108.26306713825912

>  <Genealogy>  (5) 
Cc1[nH+]c2c(cc(C(=O)[N-]CCc3cccs3)n2C)c(=O)n1C (protonated)
Cc1[nH+]c2c(cc(C(=O)[N-]CCc3cccs3)n2C)c(=O)n1C (3D coordinates assigned)
Cc1[nH+]c2c(cc(C(=O)[N-]CCc3cccs3)n2C)c(=O)n1C (optimized conformer: 108.26306713825912 kcal/mol)

>  <smiles>  (5) 
Cc1nc2c(cc(C(=O)NCCc3cccs3)n2C)c(=O)n1C

>  <score_type>  (5) 
oracle

>  <origin>  (5) 
adg

>  <m_score__min__energy>  (5) 
-9.3399999999999999

>  <m_primary>  (5) 
energy

$$$$
5:0
     RDKit          3D

 34 37  0  0  0  0  0  0  0  0999 V2000
   -9.4960   19.0000  -32.7070 C   0  0  0  0  0  0  0  0  0  0  0  0
   -8.7640   20.1720  -32.2070 N   0  0  0  0  0  0  0  0  0  0  0  0
   -9.4890   21.2360  -31.7100 C   0  0  0  0  0  0  0  0  0  0  0  0
   -8.8660   22.3470  -31.2190 N   0  0  0  0  0  0  0  0  0  0  0  0
   -7.5170   22.3830  -31.2350 C   0  0  0  0  0  0  0  0  0  0  0  0
   -6.7600   21.3610  -31.7350 C   0  0  0  0  0  0  0  0  0  0  0  0
   -5.4400   21.6550  -31.6720 N   0  0  0  0  0  0  0  0  0  0  0  0
   -5.3910   22.8880  -31.1140 C   0  0  0  0  0  0  0  0  0  0  0  0
   -4.2530   23.6450  -30.8380 C   0  0  0  0  0  0  0  0  0  0  0  0
   -4.4320   24.9170  -30.2610 C   0  0  0  0  0  0  0  0  0  0  0  0
   -5.7290   25.4030  -29.9760 C   0  0  0  0  0  0  0  0  0  0  0  0
   -6.8650   24.6230  -30.2650 C   0  0  0  0  0  0  0  0  0  0  0  0
   -6.6540   23.3680  -30.8320 C   0  0  0  0  0  0  0  0  0  0  0  0
   -7.3830   20.2240  -32.2480 C   0  0  0  0  0  0  0  0  0  0  0  0
   -6.5670   19.1270  -32.8140 C   0  0  0  0  0  0  0  0  0  0  0  0
   -6.3170   17.9690  -32.0610 C   0  0  0  0  0  0  0  0  0  0  0  0
   -5.5500   16.9310  -32.5990 C   0  0  0  0  0  0  0  0  0  0  0  0
   -5.0340   17.0410  -33.8940 C   0  0  0  0  0  0  0  0  0  0  0  0
   -5.2860   18.1890  -34.6510 C   0  0  0  0  0  0  0  0  0  0  0  0
   -6.0510   19.2290  -34.1160 C   0  0  0  0  0  0  0  0  0  0  0  0
   -9.8656   18.4083  -31.8565 H   0  0  0  0  0  0  0  0  0  0  0  0
  -10.3470   19.3330  -33.3194 H   0  0  0  0  0  0  0  0  0  0  0  0
   -8.8234   18.3814  -33.3194 H   0  0  0  0  0  0  0  0  0  0  0  0
  -10.5880   21.1880  -31.7095 H   0  0  0  0  0  0  0  0  0  0  0  0
   -4.6340   21.0730  -31.9930 H   0  0  0  0  0  0  0  0  0  0  0  0
   -3.2473   23.2608  -31.0638 H   0  0  0  0  0  0  0  0  0  0  0  0
   -3.5544   25.5386  -30.0297 H   0  0  0  0  0  0  0  0  0  0  0  0
   -5.8514   26.3987  -29.5248 H   0  0  0  0  0  0  0  0  0  0  0  0
   -7.8797   24.9902  -30.0514 H   0  0  0  0  0  0  0  0  0  0  0  0
   -6.7260   17.8778  -31.0439 H   0  0  0  0  0  0  0  0  0  0  0  0
   -5.3525   16.0276  -32.0033 H   0  0  0  0  0  0  0  0  0  0  0  0
   -4.4301   16.2246  -34.3169 H   0  0  0  0  0  0  0  0  0  0  0  0
   -4.8811   18.2739  -35.6703 H   0  0  0  0  0  0  0  0  0  0  0  0
   -6.2493   20.1293  -34.7160 H   0  0  0  0  0  0  0  0  0  0  0  0
  1  2  1  0
  2  3  2  0
  3  4  1  0
  4  5  2  0
  5  6  1  0
  6  7  1  0
  7  8  1  0
  8  9  2  0
  9 10  1  0
 10 11  2  0
 11 12  1  0
 12 13  2  0
  6 14  2  0
 14 15  1  0
 15 16  2  0
 16 17  1  0
 17 18  2  0
 18 19  1  0
 19 20  2  0
 14  2  1  0
 20 15  1  0
 13  5  1  0
 13  8  1  0
  1 21  1  0
  1 22  1  0
  1 23  1  0
  3 24  1  0
  7 25  1  0
  9 26  1  0
 10 27  1  0
 11 28  1  0
 12 29  1  0
 16 30  1  0
 17 31  1  0
 18 32  1  0
 19 33  1  0
 20 34  1  0
M  CHG  1   2   1
M  END
>  <UniqueID>  (6) 
6

>  <SMILES>  (6) 
C[n+]1cnc2c([nH]c3ccccc32)c1-c1ccccc1

>  <Energy>  (6) 
91.16078200892888

>  <Genealogy>  (6) 
C[n+]1cnc2c([nH]c3ccccc32)c1-c1ccccc1 (3D coordinates assigned)
C[n+]1cnc2c([nH]c3ccccc32)c1-c1ccccc1 (optimized conformer: 91.16078200892888 kcal/mol)

>  <smiles>  (6) 
C[n+]1cnc2c([nH]c3ccccc32)c1-c1ccccc1

>  <score_type>  (6) 
oracle

>  <origin>  (6) 
adg

>  <m_score__min__energy>  (6) 
-7.7199999999999998

>  <m_primary>  (6) 
energy

$$$$
6:0
     RDKit          3D

 71 73  0  0  0  0  0  0  0  0999 V2000
   -3.6880   22.1230  -27.8350 C   0  0  0  0  0  0  0  0  0  0  0  0
   -2.2020   21.8020  -27.6720 C   0  0  0  0  0  0  0  0  0  0  0  0
   -1.8380   20.5160  -28.3140 N   0  0  0  0  0  0  0  0  0  0  0  0
   -1.5850   19.4090  -27.3580 C   0  0  0  0  0  0  0  0  0  0  0  0
   -2.8200   18.9820  -26.5530 C   0  0  0  0  0  0  0  0  0  0  0  0
   -0.7260   20.6880  -29.2800 C   0  0  0  0  0  0  0  0  0  0  0  0
   -0.5940   19.4530  -30.1790 C   0  0  0  0  0  0  0  0  0  0  0  0
   -0.0750   19.8170  -31.5770 C   0  0  0  0  0  0  0  0  0  0  0  0
   -0.9360   20.8350  -32.1820 N   0  0  0  0  0  0  0  0  0  0  0  0
   -2.2720   20.5440  -32.6250 C   0  0  0  0  0  0  0  0  0  0  0  0
   -2.4730   19.4210  -33.4160 C   0  0  0  0  0  0  0  0  0  0  0  0
   -3.7380   19.1080  -33.8830 C   0  0  0  0  0  0  0  0  0  0  0  0
   -4.8560   19.9120  -33.5860 C   0  0  0  0  0  0  0  0  0  0  0  0
   -6.1210   19.5010  -34.1670 N   0  0  0  0  0  0  0  0  0  0  0  0
   -6.0860   18.0700  -34.5280 C   0  0  0  0  0  0  0  0  0  0  0  0
   -6.8820   17.2200  -33.5310 C   0  0  0  0  0  0  0  0  0  0  0  0
   -7.1010   17.9780  -32.2750 N   0  0  0  0  0  0  0  0  0  0  0  0
   -8.5310   18.1390  -31.9280 C   0  0  0  0  0  0  0  0  0  0  0  0
   -9.0260   19.5350  -32.2980 C   0  0  0  0  0  0  0  0  0  0  0  0
   -6.2940   17.4690  -31.1400 C   0  0  0  0  0  0  0  0  0  0  0  0
   -5.3720   16.2990  -31.5140 C   0  0  0  0  0  0  0  0  0  0  0  0
   -4.7020   21.0540  -32.7080 C   0  0  0  0  0  0  0  0  0  0  0  0
   -5.8250   21.8790  -32.2940 C   0  0  0  0  0  0  0  0  0  0  0  0
   -6.9770   21.5910  -32.7120 O   0  0  0  0  0  0  0  0  0  0  0  0
   -5.7500   23.0170  -31.4240 C   0  0  0  0  0  0  0  0  0  0  0  0
   -6.9220   23.7590  -31.1290 C   0  0  0  0  0  0  0  0  0  0  0  0
   -6.8820   24.8710  -30.2810 C   0  0  0  0  0  0  0  0  0  0  0  0
   -5.6790   25.2730  -29.7070 C   0  0  0  0  0  0  0  0  0  0  0  0
   -4.5110   24.5620  -29.9780 C   0  0  0  0  0  0  0  0  0  0  0  0
   -4.5510   23.4490  -30.8270 C   0  0  0  0  0  0  0  0  0  0  0  0
   -3.1500   22.6090  -31.1660 S   0  0  0  0  0  0  0  0  0  0  0  0
   -3.3780   21.3320  -32.2440 C   0  0  0  0  0  0  0  0  0  0  0  0
   -4.1524   22.2233  -26.8429 H   0  0  0  0  0  0  0  0  0  0  0  0
   -3.8007   23.0662  -28.3897 H   0  0  0  0  0  0  0  0  0  0  0  0
   -4.1800   21.3104  -28.3897 H   0  0  0  0  0  0  0  0  0  0  0  0
   -1.6119   22.6082  -28.1322 H   0  0  0  0  0  0  0  0  0  0  0  0
   -1.9887   21.7171  -26.5962 H   0  0  0  0  0  0  0  0  0  0  0  0
   -1.2243   18.5383  -27.9253 H   0  0  0  0  0  0  0  0  0  0  0  0
   -0.8457   19.7791  -26.6324 H   0  0  0  0  0  0  0  0  0  0  0  0
   -2.6009   19.0577  -25.4777 H   0  0  0  0  0  0  0  0  0  0  0  0
   -3.6656   19.6400  -26.8022 H   0  0  0  0  0  0  0  0  0  0  0  0
   -3.0786   17.9423  -26.8022 H   0  0  0  0  0  0  0  0  0  0  0  0
   -0.9244   21.5707  -29.9057 H   0  0  0  0  0  0  0  0  0  0  0  0
    0.2117   20.8202  -28.7203 H   0  0  0  0  0  0  0  0  0  0  0  0
    0.1076   18.7462  -29.7119 H   0  0  0  0  0  0  0  0  0  0  0  0
   -1.5920   19.0043  -30.2915 H   0  0  0  0  0  0  0  0  0  0  0  0
    0.9495   20.2088  -31.4945 H   0  0  0  0  0  0  0  0  0  0  0  0
   -0.0808   18.9172  -32.2096 H   0  0  0  0  0  0  0  0  0  0  0  0
   -0.6780   21.8350  -32.0260 H   0  0  0  0  0  0  0  0  0  0  0  0
   -1.6207   18.7751  -33.6736 H   0  0  0  0  0  0  0  0  0  0  0  0
   -3.8737   18.2087  -34.5017 H   0  0  0  0  0  0  0  0  0  0  0  0
   -6.9220   19.7560  -33.5510 H   0  0  0  0  0  0  0  0  0  0  0  0
   -6.2990   20.0440  -35.0440 H   0  0  0  0  0  0  0  0  0  0  0  0
   -6.5191   17.9437  -35.5312 H   0  0  0  0  0  0  0  0  0  0  0  0
   -5.0386   17.7345  -34.5088 H   0  0  0  0  0  0  0  0  0  0  0  0
   -7.8550   16.9579  -33.9720 H   0  0  0  0  0  0  0  0  0  0  0  0
   -6.3147   16.3051  -33.3048 H   0  0  0  0  0  0  0  0  0  0  0  0
   -9.1214   17.3902  -32.4763 H   0  0  0  0  0  0  0  0  0  0  0  0
   -8.6478   18.0001  -30.8431 H   0  0  0  0  0  0  0  0  0  0  0  0
   -9.2289   20.1072  -31.3807 H   0  0  0  0  0  0  0  0  0  0  0  0
   -8.2564   20.0520  -32.8900 H   0  0  0  0  0  0  0  0  0  0  0  0
   -9.9494   19.4517  -32.8900 H   0  0  0  0  0  0  0  0  0  0  0  0
   -5.6726   18.2927  -30.7587 H   0  0  0  0  0  0  0  0  0  0  0  0
   -7.0010   17.0929  -30.3859 H   0  0  0  0  0  0  0  0  0  0  0  0
   -4.9956   15.8213  -30.5974 H   0  0  0  0  0  0  0  0  0  0  0  0
   -5.9355   15.5629  -32.1062 H   0  0  0  0  0  0  0  0  0  0  0  0
   -4.5246   16.6748  -32.1062 H   0  0  0  0  0  0  0  0  0  0  0  0
   -7.8802   23.4546  -31.5752 H   0  0  0  0  0  0  0  0  0  0  0  0
   -7.8049   25.4300  -30.0669 H   0  0  0  0  0  0  0  0  0  0  0  0
   -5.6503   26.1487  -29.0419 H   0  0  0  0  0  0  0  0  0  0  0  0
   -3.5586   24.8750  -29.5253 H   0  0  0  0  0  0  0  0  0  0  0  0
  1  2  1  0
  2  3  1  0
  3  4  1  0
  4  5  1  0
  3  6  1  0
  6  7  1  0
  7  8  1  0
  8  9  1  0
  9 10  1  0
 10 11  2  0
 11 12  1  0
 12 13  2  0
 13 14  1  0
 14 15  1  0
 15 16  1  0
 16 17  1  0
 17 18  1  0
 18 19  1  0
 17 20  1  0
 20 21  1  0
 13 22  1  0
 22 23  1  0
 23 24  2  0
 23 25  1  0
 25 26  2  0
 26 27  1  0
 27 28  2  0
 28 29  1  0
 29 30  2  0
 30 31  1  0
 31 32  1  0
 32 10  1  0
 32 22  2  0
 30 25  1  0
  1 33  1  0
  1 34  1  0
  1 35  1  0
  2 36  1  0
  2 37  1  0
  4 38  1  0
  4 39  1  0
  5 40  1  0
  5 41  1  0
  5 42  1  0
  6 43  1  0
  6 44  1  0
  7 45  1  0
  7 46  1  0
  8 47  1  0
  8 48  1  0
  9 49  1  0
 11 50  1  0
 12 51  1  0
 14 52  1  0
 14 53  1  0
 15 54  1  0
 15 55  1  0
 16 56  1  0
 16 57  1  0
 18 58  1  0
 18 59  1  0
 19 60  1  0
 19 61  1  0
 19 62  1  0
 20 63  1  0
 20 64  1  0
 21 65  1  0
 21 66  1  0
 21 67  1  0
 26 68  1  0
 27 69  1  0
 28 70  1  0
 29 71  1  0
M  CHG  1  14   1
M  END
>  <UniqueID>  (7) 
7

>  <SMILES>  (7) 
CCN(CC)CCCNc1ccc([NH2+]CCN(CC)CC)c2c(=O)c3ccccc3sc12

>  <Energy>  (7) 
97.79390600795038

>  <Genealogy>  (7) 
CCN(CC)CCCNc1ccc([NH2+]CCN(CC)CC)c2c(=O)c3ccccc3sc12 (protonated)
CCN(CC)CCCNc1ccc([NH2+]CCN(CC)CC)c2c(=O)c3ccccc3sc12 (3D coordinates assigned)
CCN(CC)CCCNc1ccc([NH2+]CCN(CC)CC)c2c(=O)c3ccccc3sc12 (optimized conformer: 97.79390600795038 kcal/mol)

>  <smiles>  (7) 
CCN(CC)CCCNc1ccc(NCCN(CC)CC)c2c(=O)c3ccccc3sc12

>  <score_type>  (7) 
oracle

>  <origin>  (7) 
adg

>  <m_score__min__energy>  (7) 
-8.4900000000000002

>  <m_primary>  (7) 
energy

$$$$
7:0
     RDKit          3D

 84 88  0  0  0  0  0  0  0  0999 V2000
   -1.9430   25.7820  -25.4270 C   0  0  0  0  0  0  0  0  0  0  0  0
   -1.0570   26.5500  -24.4450 C   0  0  0  0  0  0  0  0  0  0  0  0
   -0.3390   27.6770  -25.0930 N   0  0  0  0  0  0  0  0  0  0  0  0
   -0.6500   27.7860  -26.5440 C   0  0  0  0  0  0  0  0  0  0  0  0
   -0.4420   29.2070  -27.0780 C   0  0  0  0  0  0  0  0  0  0  0  0
    1.1280   27.5430  -24.8880 C   0  0  0  0  0  0  0  0  0  0  0  0
    1.4410   26.7180  -23.6330 C   0  0  0  0  0  0  0  0  0  0  0  0
    2.1420   25.5150  -23.9540 O   0  0  0  0  0  0  0  0  0  0  0  0
    1.7240   24.5320  -24.8670 C   0  0  0  0  0  0  0  0  0  0  0  0
    0.6660   23.6380  -24.6040 C   0  0  0  0  0  0  0  0  0  0  0  0
    0.3060   22.6750  -25.5510 C   0  0  0  0  0  0  0  0  0  0  0  0
    0.9930   22.5910  -26.7690 C   0  0  0  0  0  0  0  0  0  0  0  0
    0.6290   21.5630  -27.7530 C   0  0  0  0  0  0  0  0  0  0  0  0
    1.3130   20.3280  -27.7420 C   0  0  0  0  0  0  0  0  0  0  0  0
    0.9620   19.3290  -28.6650 C   0  0  0  0  0  0  0  0  0  0  0  0
    1.5480   18.0620  -28.7420 C   0  0  0  0  0  0  0  0  0  0  0  0
    1.0010   17.2710  -29.7470 C   0  0  0  0  0  0  0  0  0  0  0  0
   -0.2020   18.1520  -30.5360 S   0  0  0  0  0  0  0  0  0  0  0  0
   -0.0480   19.5430  -29.6030 C   0  0  0  0  0  0  0  0  0  0  0  0
   -0.7370   20.7650  -29.6310 C   0  0  0  0  0  0  0  0  0  0  0  0
   -0.3940   21.7540  -28.7110 C   0  0  0  0  0  0  0  0  0  0  0  0
   -1.2220   22.8300  -28.9840 C   0  0  0  0  0  0  0  0  0  0  0  0
   -1.3190   24.1050  -28.4180 C   0  0  0  0  0  0  0  0  0  0  0  0
   -2.2750   24.9920  -28.9420 C   0  0  0  0  0  0  0  0  0  0  0  0
   -3.1030   24.6020  -30.0120 C   0  0  0  0  0  0  0  0  0  0  0  0
   -4.0410   25.4930  -30.5190 O   0  0  0  0  0  0  0  0  0  0  0  0
   -2.9840   23.3180  -30.5730 C   0  0  0  0  0  0  0  0  0  0  0  0
   -2.0280   22.4450  -30.0380 C   0  0  0  0  0  0  0  0  0  0  0  0
   -1.7470   21.1800  -30.4460 N   0  0  0  0  0  0  0  0  0  0  0  0
   -2.3440   20.5010  -31.6030 C   0  0  0  0  0  0  0  0  0  0  0  0
   -2.3640   21.4210  -32.8250 C   0  0  0  0  0  0  0  0  0  0  0  0
   -3.6970   21.6880  -33.2160 O   0  0  0  0  0  0  0  0  0  0  0  0
   -4.5760   21.1920  -32.2280 C   0  0  0  0  0  0  0  0  0  0  0  0
   -6.0230   21.2020  -32.7420 C   0  0  0  0  0  0  0  0  0  0  0  0
   -6.7210   22.4950  -32.4800 N   0  0  0  0  0  0  0  0  0  0  0  0
   -5.9160   23.3500  -31.5680 C   0  0  0  0  0  0  0  0  0  0  0  0
   -6.7350   23.9310  -30.4100 C   0  0  0  0  0  0  0  0  0  0  0  0
   -8.1150   22.2740  -32.0040 C   0  0  0  0  0  0  0  0  0  0  0  0
   -8.5590   20.8030  -32.0150 C   0  0  0  0  0  0  0  0  0  0  0  0
    2.0470   23.4730  -27.0310 C   0  0  0  0  0  0  0  0  0  0  0  0
    2.4010   24.4420  -26.0880 C   0  0  0  0  0  0  0  0  0  0  0  0
   -2.6586   25.1617  -24.8673 H   0  0  0  0  0  0  0  0  0  0  0  0
   -2.4921   26.4946  -26.0600 H   0  0  0  0  0  0  0  0  0  0  0  0
   -1.3155   25.1373  -26.0600 H   0  0  0  0  0  0  0  0  0  0  0  0
   -1.6884   26.9506  -23.6383 H   0  0  0  0  0  0  0  0  0  0  0  0
   -0.3023   25.8505  -24.0563 H   0  0  0  0  0  0  0  0  0  0  0  0
    0.0066   27.0999  -27.0991 H   0  0  0  0  0  0  0  0  0  0  0  0
   -1.7101   27.5266  -26.6814 H   0  0  0  0  0  0  0  0  0  0  0  0
   -0.3399   29.9047  -26.2337 H   0  0  0  0  0  0  0  0  0  0  0  0
    0.4703   29.2382  -27.6918 H   0  0  0  0  0  0  0  0  0  0  0  0
   -1.3071   29.4983  -27.6918 H   0  0  0  0  0  0  0  0  0  0  0  0
    1.5684   27.0443  -25.7640 H   0  0  0  0  0  0  0  0  0  0  0  0
    1.5543   28.5487  -24.7584 H   0  0  0  0  0  0  0  0  0  0  0  0
    2.0613   27.3221  -22.9545 H   0  0  0  0  0  0  0  0  0  0  0  0
    0.4885   26.4436  -23.1560 H   0  0  0  0  0  0  0  0  0  0  0  0
    0.1218   23.6986  -23.6500 H   0  0  0  0  0  0  0  0  0  0  0  0
   -0.5201   21.9803  -25.3390 H   0  0  0  0  0  0  0  0  0  0  0  0
    2.1175   20.1488  -27.0136 H   0  0  0  0  0  0  0  0  0  0  0  0
    2.3573   17.7257  -28.0772 H   0  0  0  0  0  0  0  0  0  0  0  0
    1.3030   16.2410  -29.9876 H   0  0  0  0  0  0  0  0  0  0  0  0
   -0.6653   24.4054  -27.5859 H   0  0  0  0  0  0  0  0  0  0  0  0
   -2.3773   25.9995  -28.5125 H   0  0  0  0  0  0  0  0  0  0  0  0
   -3.6254   23.0070  -31.4108 H   0  0  0  0  0  0  0  0  0  0  0  0
   -1.7536   19.6030  -31.8378 H   0  0  0  0  0  0  0  0  0  0  0  0
   -3.3793   20.2255  -31.3533 H   0  0  0  0  0  0  0  0  0  0  0  0
   -1.8625   22.3676  -32.5750 H   0  0  0  0  0  0  0  0  0  0  0  0
   -1.8398   20.9251  -33.6552 H   0  0  0  0  0  0  0  0  0  0  0  0
   -4.2895   20.1610  -31.9731 H   0  0  0  0  0  0  0  0  0  0  0  0
   -4.5101   21.8349  -31.3378 H   0  0  0  0  0  0  0  0  0  0  0  0
   -6.0117   21.0223  -33.8272 H   0  0  0  0  0  0  0  0  0  0  0  0
   -6.5711   20.4148  -32.2036 H   0  0  0  0  0  0  0  0  0  0  0  0
   -6.8130   23.0160  -33.3850 H   0  0  0  0  0  0  0  0  0  0  0  0
   -5.0993   22.7435  -31.1495 H   0  0  0  0  0  0  0  0  0  0  0  0
   -5.5384   24.1967  -32.1601 H   0  0  0  0  0  0  0  0  0  0  0  0
   -6.2919   23.6166  -29.4535 H   0  0  0  0  0  0  0  0  0  0  0  0
   -6.7308   25.0292  -30.4727 H   0  0  0  0  0  0  0  0  0  0  0  0
   -7.7701   23.5641  -30.4727 H   0  0  0  0  0  0  0  0  0  0  0  0
   -8.1910   22.6495  -30.9729 H   0  0  0  0  0  0  0  0  0  0  0  0
   -8.7757   22.8087  -32.7023 H   0  0  0  0  0  0  0  0  0  0  0  0
   -8.6671   20.4449  -30.9806 H   0  0  0  0  0  0  0  0  0  0  0  0
   -9.5237   20.7151  -32.5362 H   0  0  0  0  0  0  0  0  0  0  0  0
   -7.8040   20.1960  -32.5362 H   0  0  0  0  0  0  0  0  0  0  0  0
    2.5979   23.4037  -27.9806 H   0  0  0  0  0  0  0  0  0  0  0  0
    3.2209   25.1415  -26.3083 H   0  0  0  0  0  0  0  0  0  0  0  0
  1  2  1  0
  2  3  1  0
  3  4  1  0
  4  5  1  0
  3  6  1  0
  6  7  1  0
  7  8  1  0
  8  9  1  0
  9 10  2  0
 10 11  1  0
 11 12  2  0
 12 13  1  0
 13 14  2  0
 14 15  1  0
 15 16  1  0
 16 17  2  0
 17 18  1  0
 18 19  1  0
 19 20  1  0
 20 21  2  0
 21 22  1  0
 22 23  2  0
 23 24  1  0
 24 25  2  0
 25 26  1  0
 25 27  1  0
 27 28  2  0
 28 29  1  0
 29 30  1  0
 30 31  1  0
 31 32  1  0
 32 33  1  0
 33 34  1  0
 34 35  1  0
 35 36  1  0
 36 37  1  0
 35 38  1  0
 38 39  1  0
 12 40  1  0
 40 41  2  0
 41  9  1  0
 21 13  1  0
 28 22  1  0
 19 15  2  0
 29 20  1  0
  1 42  1  0
  1 43  1  0
  1 44  1  0
  2 45  1  0
  2 46  1  0
  4 47  1  0
  4 48  1  0
  5 49  1  0
  5 50  1  0
  5 51  1  0
  6 52  1  0
  6 53  1  0
  7 54  1  0
  7 55  1  0
 10 56  1  0
 11 57  1  0
 14 58  1  0
 16 59  1  0
 17 60  1  0
 23 61  1  0
 24 62  1  0
 27 63  1  0
 30 64  1  0
 30 65  1  0
 31 66  1  0
 31 67  1  0
 33 68  1  0
 33 69  1  0
 34 70  1  0
 34 71  1  0
 35 72  1  0
 36 73  1  0
 36 74  1  0
 37 75  1  0
 37 76  1  0
 37 77  1  0
 38 78  1  0
 38 79  1  0
 39 80  1  0
 39 81  1  0
 39 82  1  0
 40 83  1  0
 41 84  1  0
M  CHG  2  26  -1  35   1
M  END
>  <UniqueID>  (8) 
8

>  <SMILES>  (8) 
CCN(CC)CCOc1ccc(-c2cc3ccsc3c3c2c2ccc([O-])cc2n3CCOCC[NH+](CC)CC)cc1

>  <Energy>  (8) 
172.89186326549915

>  <Genealogy>  (8) 
CCN(CC)CCOc1ccc(-c2cc3ccsc3c3c2c2ccc([O-])cc2n3CCOCC[NH+](CC)CC)cc1 (protonated)
CCN(CC)CCOc1ccc(-c2cc3ccsc3c3c2c2ccc([O-])cc2n3CCOCC[NH+](CC)CC)cc1 (3D coordinates assigned)
CCN(CC)CCOc1ccc(-c2cc3ccsc3c3c2c2ccc([O-])cc2n3CCOCC[NH+](CC)CC)cc1 (optimized conformer: 172.89186326549915 kcal/mol)

>  <smiles>  (8) 
CCN(CC)CCOCCn1c2cc(O)ccc2c2c(-c3ccc(OCCN(CC)CC)cc3)cc3ccsc3c21

>  <score_type>  (8) 
oracle

>  <origin>  (8) 
adg

>  <m_score__min__energy>  (8) 
-10.17

>  <m_primary>  (8) 
energy

$$$$
8:0
     RDKit          3D

 51 54  0  0  1  0  0  0  0  0999 V2000
   -0.1040   27.1180  -22.9640 C   0  0  0  0  0  0  0  0  0  0  0  0
   -1.0310   27.5850  -23.9150 O   0  0  0  0  0  0  0  0  0  0  0  0
   -1.1010   26.9400  -25.1420 C   0  0  0  0  0  0  0  0  0  0  0  0
   -2.0140   25.9060  -25.2440 C   0  0  0  0  0  0  0  0  0  0  0  0
   -2.1360   25.2200  -26.4340 C   0  0  0  0  0  0  0  0  0  0  0  0
   -1.3740   25.5240  -27.5560 C   0  0  0  0  0  0  0  0  0  0  0  0
   -1.5240   24.7640  -28.8410 C   0  0  0  0  0  0  0  0  0  0  0  0
   -2.8510   24.8450  -29.3620 N   0  0  0  0  0  0  0  0  0  0  0  0
   -3.4060   24.0140  -30.1740 C   0  0  0  0  0  0  0  0  0  0  0  0
   -2.6530   23.0640  -30.7510 N   0  0  0  0  0  0  0  0  0  0  0  0
   -3.1950   22.1850  -31.6000 C   0  0  0  0  0  0  0  0  0  0  0  0
   -2.3750   21.1210  -32.2530 C   0  0  0  0  0  0  0  0  0  0  0  0
   -4.5110   22.1950  -31.9220 N   0  0  0  0  0  0  0  0  0  0  0  0
   -5.3060   23.1450  -31.3540 C   0  0  0  0  0  0  0  0  0  0  0  0
   -4.7510   24.0580  -30.4760 C   0  0  0  0  0  0  0  0  0  0  0  0
   -5.7510   24.8950  -30.0510 C   0  0  0  0  0  0  0  0  0  0  0  0
   -6.8760   24.4840  -30.6670 N   0  0  0  0  0  0  0  0  0  0  0  0
   -6.6130   23.4440  -31.4430 N   0  0  0  0  0  0  0  0  0  0  0  0
   -7.5560   22.6990  -32.2820 C   0  0  0  0  0  0  0  0  0  0  0  0
   -8.0830   21.5110  -31.5410 C   0  0  1  0  0  0  0  0  0  0  0  0
   -9.8530   21.5600  -31.6620 Cl  0  0  0  0  0  0  0  0  0  0  0  0
   -7.5160   20.2850  -32.1750 C   0  0  0  0  0  0  0  0  0  0  0  0
   -7.8260   19.0380  -31.6580 C   0  0  0  0  0  0  0  0  0  0  0  0
   -7.2830   17.9230  -32.2720 C   0  0  0  0  0  0  0  0  0  0  0  0
   -6.4680   18.0530  -33.3510 C   0  0  0  0  0  0  0  0  0  0  0  0
   -6.1430   19.2920  -33.8870 C   0  0  0  0  0  0  0  0  0  0  0  0
   -6.6800   20.4330  -33.2830 C   0  0  0  0  0  0  0  0  0  0  0  0
   -0.4760   26.5610  -27.4140 C   0  0  0  0  0  0  0  0  0  0  0  0
   -0.3330   27.2660  -26.2270 C   0  0  0  0  0  0  0  0  0  0  0  0
   -0.4882   27.3116  -21.9516 H   0  0  0  0  0  0  0  0  0  0  0  0
    0.0462   26.0367  -23.0986 H   0  0  0  0  0  0  0  0  0  0  0  0
    0.8544   27.6409  -23.0986 H   0  0  0  0  0  0  0  0  0  0  0  0
   -2.6390   25.6326  -24.3811 H   0  0  0  0  0  0  0  0  0  0  0  0
   -2.8656   24.3993  -26.4979 H   0  0  0  0  0  0  0  0  0  0  0  0
   -0.8260   25.1799  -29.5825 H   0  0  0  0  0  0  0  0  0  0  0  0
   -1.3050   23.7057  -28.6358 H   0  0  0  0  0  0  0  0  0  0  0  0
   -1.6340   23.0080  -30.5400 H   0  0  0  0  0  0  0  0  0  0  0  0
   -1.8969   20.5007  -31.4806 H   0  0  0  0  0  0  0  0  0  0  0  0
   -3.0235   20.4911  -32.8797 H   0  0  0  0  0  0  0  0  0  0  0  0
   -1.6007   21.5876  -32.8797 H   0  0  0  0  0  0  0  0  0  0  0  0
   -5.6536   25.7347  -29.3472 H   0  0  0  0  0  0  0  0  0  0  0  0
   -8.3941   23.3560  -32.5575 H   0  0  0  0  0  0  0  0  0  0  0  0
   -7.0346   22.3540  -33.1871 H   0  0  0  0  0  0  0  0  0  0  0  0
   -7.7981   21.5109  -30.4785 H   0  0  0  0  0  0  0  0  0  0  0  0
   -8.4856   18.9367  -30.7835 H   0  0  0  0  0  0  0  0  0  0  0  0
   -7.5138   16.9206  -31.8821 H   0  0  0  0  0  0  0  0  0  0  0  0
   -6.0518   17.1469  -33.8154 H   0  0  0  0  0  0  0  0  0  0  0  0
   -5.4817   19.3736  -34.7622 H   0  0  0  0  0  0  0  0  0  0  0  0
   -6.4468   21.4337  -33.6757 H   0  0  0  0  0  0  0  0  0  0  0  0
    0.1506   26.8399  -28.2740 H   0  0  0  0  0  0  0  0  0  0  0  0
    0.3969   28.0860  -26.1583 H   0  0  0  0  0  0  0  0  0  0  0  0
  1  2  1  0
  2  3  1  0
  3  4  2  0
  4  5  1  0
  5  6  2  0
  6  7  1  0
  7  8  1  0
  8  9  2  0
  9 10  1  0
 10 11  1  0
 11 12  1  0
 11 13  2  0
 13 14  1  0
 14 15  2  0
 15 16  1  0
 16 17  2  0
 17 18  1  0
 18 19  1  0
 19 20  1  0
 20 21  1  0
 20 22  1  0
 22 23  2  0
 23 24  1  0
 24 25  2  0
 25 26  1  0
 26 27  2  0
  6 28  1  0
 28 29  2  0
 29  3  1  0
 15  9  1  0
 27 22  1  0
 18 14  1  0
  1 30  1  0
  1 31  1  0
  1 32  1  0
  4 33  1  0
  5 34  1  0
  7 35  1  0
  7 36  1  0
 10 37  1  0
 12 38  1  0
 12 39  1  0
 12 40  1  0
 16 41  1  0
 19 42  1  0
 19 43  1  0
 20 44  1  1
 23 45  1  0
 24 46  1  0
 25 47  1  0
 26 48  1  0
 27 49  1  0
 28 50  1  0
 29 51  1  0
M  END
>  <smiles>  (9) 
COc1ccc(CN=c2[nH]c(C)nc3c2cnn3CC(Cl)c2ccccc2)cc1

>  <score_type>  (9) 
oracle

>  <origin>  (9) 
adg

>  <m_score__min__energy>  (9) 
-9.3499999999999996

>  <m_primary>  (9) 
energy

$$$$
9:0
     RDKit          3D

 41 44  0  0  1  0  0  0  0  0999 V2000
   -2.1560   24.7870  -27.9490 C   0  0  0  0  0  0  0  0  0  0  0  0
   -2.3790   24.8730  -29.3410 O   0  0  0  0  0  0  0  0  0  0  0  0
   -2.7630   23.8060  -30.1390 C   0  0  0  0  0  0  0  0  0  0  0  0
   -2.0440   22.6450  -30.2690 C   0  0  0  0  0  0  0  0  0  0  0  0
   -2.4390   21.5890  -31.0690 C   0  0  0  0  0  0  0  0  0  0  0  0
   -1.7280   20.4540  -31.1910 N   0  0  0  0  0  0  0  0  0  0  0  0
   -2.1410   19.4380  -31.9810 C   0  0  0  0  0  0  0  0  0  0  0  0
   -3.2970   19.5890  -32.6570 N   0  0  0  0  0  0  0  0  0  0  0  0
   -4.0470   20.7210  -32.5620 C   0  0  0  0  0  0  0  0  0  0  0  0
   -5.1620   20.8280  -33.2320 N   0  0  0  0  0  0  0  0  0  0  0  0
   -6.3180   20.0710  -32.8790 C   0  0  0  0  0  0  0  0  0  0  0  0
   -6.3870   18.7010  -33.0210 C   0  0  0  0  0  0  0  0  0  0  0  0
   -7.5300   18.0160  -32.6640 C   0  0  0  0  0  0  0  0  0  0  0  0
   -8.6020   18.7530  -32.1610 C   0  0  0  0  0  0  0  0  0  0  0  0
   -8.5440   20.1120  -32.0180 C   0  0  0  0  0  0  0  0  0  0  0  0
   -7.3920   20.7880  -32.3780 C   0  0  0  0  0  0  0  0  0  0  0  0
   -7.5920   22.2520  -32.1220 C   0  0  0  0  0  0  0  0  0  0  0  0
   -8.8620   22.2700  -31.2910 C   0  0  0  0  0  0  0  0  0  0  0  0
   -9.4840   21.0130  -31.5450 O   0  0  0  0  0  0  0  0  0  0  0  0
   -3.6280   21.7490  -31.7610 C   0  0  0  0  0  0  0  0  0  0  0  0
   -4.3580   22.9130  -31.6370 C   0  0  0  0  0  0  0  0  0  0  0  0
   -3.9450   23.9450  -30.8370 C   0  0  0  0  0  0  0  0  0  0  0  0
   -4.6910   25.0880  -30.7360 O   0  0  0  0  0  0  0  0  0  0  0  0
   -5.9380   25.0280  -30.0760 C   0  0  0  0  0  0  0  0  0  0  0  0
   -3.0518   25.1325  -27.4121 H   0  0  0  0  0  0  0  0  0  0  0  0
   -1.9444   23.7428  -27.6754 H   0  0  0  0  0  0  0  0  0  0  0  0
   -1.2981   25.4188  -27.6754 H   0  0  0  0  0  0  0  0  0  0  0  0
   -1.1033   22.5492  -29.7069 H   0  0  0  0  0  0  0  0  0  0  0  0
   -0.8260   20.3910  -30.6360 H   0  0  0  0  0  0  0  0  0  0  0  0
   -1.5504   18.5142  -32.0696 H   0  0  0  0  0  0  0  0  0  0  0  0
   -5.5236   18.1500  -33.4222 H   0  0  0  0  0  0  0  0  0  0  0  0
   -7.5939   16.9232  -32.7726 H   0  0  0  0  0  0  0  0  0  0  0  0
   -9.5223   18.2251  -31.8704 H   0  0  0  0  0  0  0  0  0  0  0  0
   -6.7453   22.6771  -31.5631 H   0  0  0  0  0  0  0  0  0  0  0  0
   -7.6610   22.8524  -33.0411 H   0  0  0  0  0  0  0  0  0  0  0  0
   -8.6238   22.3750  -30.2223 H   0  0  0  0  0  0  0  0  0  0  0  0
   -9.5155   23.1156  -31.5515 H   0  0  0  0  0  0  0  0  0  0  0  0
   -5.2992   23.0152  -32.1970 H   0  0  0  0  0  0  0  0  0  0  0  0
   -5.7776   25.0357  -28.9878 H   0  0  0  0  0  0  0  0  0  0  0  0
   -6.5470   25.8979  -30.3631 H   0  0  0  0  0  0  0  0  0  0  0  0
   -6.4607   24.1037  -30.3631 H   0  0  0  0  0  0  0  0  0  0  0  0
  1  2  1  0
  2  3  1  0
  3  4  2  0
  4  5  1  0
  5  6  1  0
  6  7  1  0
  7  8  2  0
  8  9  1  0
  9 10  2  0
 10 11  1  0
 11 12  2  0
 12 13  1  0
 13 14  2  0
 14 15  1  0
 15 16  2  0
 16 17  1  0
 17 18  1  0
 18 19  1  0
  9 20  1  0
 20 21  1  0
 21 22  2  0
 22 23  1  0
 23 24  1  0
 22  3  1  0
 20  5  2  0
 16 11  1  0
 19 15  1  0
  1 25  1  0
  1 26  1  0
  1 27  1  0
  4 28  1  0
  6 29  1  0
  7 30  1  0
 12 31  1  0
 13 32  1  0
 14 33  1  0
 17 34  1  0
 17 35  1  0
 18 36  1  0
 18 37  1  0
 21 38  1  0
 24 39  1  0
 24 40  1  0
 24 41  1  0
M  END
>  <smiles>  (10) 
COc1cc2[nH]cnc(=Nc3cccc4c3CCO4)c2cc1OC

>  <score_type>  (10) 
oracle

>  <origin>  (10) 
adg

>  <m_score__min__energy>  (10) 
-8.1899999999999995

>  <m_primary>  (10) 
energy

$$$$
10:0
     RDKit          3D

 43 46  0  0  0  0  0  0  0  0999 V2000
   -0.9860   21.1570  -27.0610 C   0  0  0  0  0  0  0  0  0  0  0  0
   -1.9740   21.9820  -27.8320 C   0  0  0  0  0  0  0  0  0  0  0  0
   -3.3160   21.5780  -27.9190 C   0  0  0  0  0  0  0  0  0  0  0  0
   -4.2300   22.3250  -28.6690 C   0  0  0  0  0  0  0  0  0  0  0  0
   -3.8080   23.4740  -29.3510 C   0  0  0  0  0  0  0  0  0  0  0  0
   -4.9420   24.4180  -30.3130 S   0  0  0  0  0  0  0  0  0  0  0  0
   -6.0990   24.8710  -29.4680 O   0  0  0  0  0  0  0  0  0  0  0  0
   -4.2460   25.6380  -30.8490 O   0  0  0  0  0  0  0  0  0  0  0  0
   -5.5380   23.4420  -31.6240 N   0  0  0  0  0  0  0  0  0  0  0  0
   -6.8330   23.7340  -32.2430 C   0  0  0  0  0  0  0  0  0  0  0  0
   -7.7180   22.4660  -32.3490 C   0  0  2  0  0  0  0  0  0  0  0  0
   -8.6580   22.2820  -31.1640 C   0  0  0  0  0  0  0  0  0  0  0  0
   -8.9010   20.7770  -31.1120 C   0  0  0  0  0  0  0  0  0  0  0  0
   -7.6540   20.1430  -31.7220 C   0  0  0  0  0  0  0  0  0  0  0  0
   -6.9570   21.2190  -32.4170 N   0  0  0  0  0  0  0  0  0  0  0  0
   -5.5270   21.1980  -32.5480 C   0  0  0  0  0  0  0  0  0  0  0  0
   -4.8530   20.0600  -33.0150 C   0  0  0  0  0  0  0  0  0  0  0  0
   -3.4560   20.0500  -33.0710 C   0  0  0  0  0  0  0  0  0  0  0  0
   -2.7300   21.1700  -32.6520 C   0  0  0  0  0  0  0  0  0  0  0  0
   -3.3980   22.3010  -32.1720 C   0  0  0  0  0  0  0  0  0  0  0  0
   -4.8020   22.3130  -32.1160 C   0  0  0  0  0  0  0  0  0  0  0  0
   -2.4660   23.8690  -29.2790 C   0  0  0  0  0  0  0  0  0  0  0  0
   -1.5520   23.1230  -28.5300 C   0  0  0  0  0  0  0  0  0  0  0  0
   -1.1536   21.2970  -25.9829 H   0  0  0  0  0  0  0  0  0  0  0  0
   -1.1157   20.0952  -27.3174 H   0  0  0  0  0  0  0  0  0  0  0  0
    0.0356   21.4740  -27.3174 H   0  0  0  0  0  0  0  0  0  0  0  0
   -3.6498   20.6702  -27.3951 H   0  0  0  0  0  0  0  0  0  0  0  0
   -5.2825   22.0099  -28.7236 H   0  0  0  0  0  0  0  0  0  0  0  0
   -7.3578   24.4848  -31.6340 H   0  0  0  0  0  0  0  0  0  0  0  0
   -6.6493   24.1093  -33.2605 H   0  0  0  0  0  0  0  0  0  0  0  0
   -8.2716   22.6473  -33.2821 H   0  0  0  0  0  0  0  0  0  0  0  0
   -8.1875   22.6339  -30.2341 H   0  0  0  0  0  0  0  0  0  0  0  0
   -9.5898   22.8566  -31.2711 H   0  0  0  0  0  0  0  0  0  0  0  0
   -9.0322   20.4442  -30.0718 H   0  0  0  0  0  0  0  0  0  0  0  0
   -9.8130   20.4911  -31.6566 H   0  0  0  0  0  0  0  0  0  0  0  0
   -7.0148   19.7202  -30.9329 H   0  0  0  0  0  0  0  0  0  0  0  0
   -7.9125   19.3215  -32.4063 H   0  0  0  0  0  0  0  0  0  0  0  0
   -5.4231   19.1761  -33.3369 H   0  0  0  0  0  0  0  0  0  0  0  0
   -2.9273   19.1607  -33.4448 H   0  0  0  0  0  0  0  0  0  0  0  0
   -1.6311   21.1610  -32.7002 H   0  0  0  0  0  0  0  0  0  0  0  0
   -2.8256   23.1793  -31.8390 H   0  0  0  0  0  0  0  0  0  0  0  0
   -2.1304   24.7697  -29.8140 H   0  0  0  0  0  0  0  0  0  0  0  0
   -0.4971   23.4320  -28.4877 H   0  0  0  0  0  0  0  0  0  0  0  0
  1  2  1  0
  2  3  2  0
  3  4  1  0
  4  5  2  0
  5  6  1  0
  6  7  2  0
  6  8  2  0
  6  9  1  0
  9 10  1  0
 10 11  1  0
 11 12  1  0
 12 13  1  0
 13 14  1  0
 14 15  1  0
 15 16  1  0
 16 17  2  0
 17 18  1  0
 18 19  2  0
 19 20  1  0
 20 21  2  0
  5 22  1  0
 22 23  2  0
 23  2  1  0
 21  9  1  0
 15 11  1  0
 21 16  1  0
  1 24  1  0
  1 25  1  0
  1 26  1  0
  3 27  1  0
  4 28  1  0
 10 29  1  0
 10 30  1  0
 11 31  1  6
 12 32  1  0
 12 33  1  0
 13 34  1  0
 13 35  1  0
 14 36  1  0
 14 37  1  0
 17 38  1  0
 18 39  1  0
 19 40  1  0
 20 41  1  0
 22 42  1  0
 23 43  1  0
M  END
>  <UniqueID>  (11) 
9

>  <SMILES>  (11) 
Cc1ccc(S(=O)(=O)N2C[C@@H]3CCCN3c3ccccc32)cc1

>  <Energy>  (11) 
58.31532634132802

>  <Genealogy>  (11) 
Cc1ccc(S(=O)(=O)N2C[C@@H]3CCCN3c3ccccc32)cc1 (chirality)
Cc1ccc(S(=O)(=O)N2C[C@@H]3CCCN3c3ccccc32)cc1 (3D coordinates assigned)
Cc1ccc(S(=O)(=O)N2C[C@@H]3CCCN3c3ccccc32)cc1 (nonaromatic ring conformer: 58.31532634132802 kcal/mol)

>  <smiles>  (11) 
Cc1ccc(S(=O)(=O)N2CC3CCCN3c3ccccc32)cc1

>  <score_type>  (11) 
oracle

>  <origin>  (11) 
adg

>  <m_score__min__energy>  (11) 
-8.8699999999999992

>  <m_primary>  (11) 
energy

$$$$
11:0
     RDKit          3D

 51 53  0  0  0  0  0  0  0  0999 V2000
   -4.6070   15.1110  -32.2010 C   0  0  0  0  0  0  0  0  0  0  0  0
   -4.9190   15.7480  -33.5760 C   0  0  0  0  0  0  0  0  0  0  0  0
   -3.6990   15.4840  -34.4910 C   0  0  0  0  0  0  0  0  0  0  0  0
   -6.1450   15.0270  -34.1840 C   0  0  0  0  0  0  0  0  0  0  0  0
   -5.1510   17.3020  -33.4170 C   0  0  0  0  0  0  0  0  0  0  0  0
   -6.4610   17.6730  -32.6770 C   0  0  0  0  0  0  0  0  0  0  0  0
   -6.7230   19.1980  -32.6980 C   0  0  0  0  0  0  0  0  0  0  0  0
   -5.4960   19.9640  -33.0210 N   0  0  0  0  0  0  0  0  0  0  0  0
   -5.6280   21.4490  -33.0610 C   0  0  1  0  0  0  0  0  0  0  0  0
   -6.5930   21.9180  -31.9340 C   0  0  0  0  0  0  0  0  0  0  0  0
   -6.2060   23.2120  -31.2560 C   0  0  0  0  0  0  0  0  0  0  0  0
   -7.2090   24.0140  -30.6910 C   0  0  0  0  0  0  0  0  0  0  0  0
   -6.8730   25.1480  -29.9530 C   0  0  0  0  0  0  0  0  0  0  0  0
   -5.5340   25.4680  -29.7330 C   0  0  0  0  0  0  0  0  0  0  0  0
   -4.5150   24.6660  -30.2570 C   0  0  0  0  0  0  0  0  0  0  0  0
   -3.1970   24.9980  -29.9340 O   0  0  0  0  0  0  0  0  0  0  0  0
   -4.8470   23.5510  -31.0690 C   0  0  0  0  0  0  0  0  0  0  0  0
   -3.7950   22.7020  -31.7400 C   0  0  0  0  0  0  0  0  0  0  0  0
   -4.2880   22.2490  -33.1250 C   0  0  1  0  0  0  0  0  0  0  0  0
   -3.2880   21.5290  -33.7970 O   0  0  0  0  0  0  0  0  0  0  0  0
   -4.3310   19.4640  -32.2680 C   0  0  0  0  0  0  0  0  0  0  0  0
   -3.9540   18.0540  -32.7610 C   0  0  0  0  0  0  0  0  0  0  0  0
   -4.9385   15.7878  -31.3997 H   0  0  0  0  0  0  0  0  0  0  0  0
   -5.1369   14.1511  -32.1129 H   0  0  0  0  0  0  0  0  0  0  0  0
   -3.5238   14.9412  -32.1129 H   0  0  0  0  0  0  0  0  0  0  0  0
   -2.8107   15.2918  -33.8713 H   0  0  0  0  0  0  0  0  0  0  0  0
   -3.8996   14.6085  -35.1260 H   0  0  0  0  0  0  0  0  0  0  0  0
   -3.5196   16.3641  -35.1260 H   0  0  0  0  0  0  0  0  0  0  0  0
   -6.7870   14.6494  -33.3745 H   0  0  0  0  0  0  0  0  0  0  0  0
   -6.7152   15.7336  -34.8049 H   0  0  0  0  0  0  0  0  0  0  0  0
   -5.8046   14.1852  -34.8049 H   0  0  0  0  0  0  0  0  0  0  0  0
   -5.2419   17.6441  -34.4585 H   0  0  0  0  0  0  0  0  0  0  0  0
   -7.3029   17.1607  -33.1656 H   0  0  0  0  0  0  0  0  0  0  0  0
   -6.3608   17.3585  -31.6277 H   0  0  0  0  0  0  0  0  0  0  0  0
   -7.4892   19.4170  -33.4563 H   0  0  0  0  0  0  0  0  0  0  0  0
   -7.0602   19.5003  -31.6956 H   0  0  0  0  0  0  0  0  0  0  0  0
   -6.0752   21.6987  -34.0345 H   0  0  0  0  0  0  0  0  0  0  0  0
   -7.5925   22.0495  -32.3741 H   0  0  0  0  0  0  0  0  0  0  0  0
   -6.5557   21.1414  -31.1559 H   0  0  0  0  0  0  0  0  0  0  0  0
   -8.2667   23.7464  -30.8312 H   0  0  0  0  0  0  0  0  0  0  0  0
   -7.6657   25.7914  -29.5436 H   0  0  0  0  0  0  0  0  0  0  0  0
   -5.2766   26.3593  -29.1420 H   0  0  0  0  0  0  0  0  0  0  0  0
   -2.6460   25.6720  -30.4470 H   0  0  0  0  0  0  0  0  0  0  0  0
   -2.8724   23.2897  -31.8562 H   0  0  0  0  0  0  0  0  0  0  0  0
   -3.5974   21.8154  -31.1197 H   0  0  0  0  0  0  0  0  0  0  0  0
   -4.5062   23.1600  -33.7016 H   0  0  0  0  0  0  0  0  0  0  0  0
   -3.6880   20.6660  -34.0810 H   0  0  0  0  0  0  0  0  0  0  0  0
   -3.4794   20.1434  -32.4202 H   0  0  0  0  0  0  0  0  0  0  0  0
   -4.5836   19.4182  -31.1984 H   0  0  0  0  0  0  0  0  0  0  0  0
   -3.1474   18.1455  -33.5033 H   0  0  0  0  0  0  0  0  0  0  0  0
   -3.6379   17.4706  -31.8837 H   0  0  0  0  0  0  0  0  0  0  0  0
  1  2  1  0
  2  3  1  0
  2  4  1  0
  2  5  1  0
  5  6  1  0
  6  7  1  0
  7  8  1  0
  8  9  1  0
  9 10  1  0
 10 11  1  0
 11 12  2  0
 12 13  1  0
 13 14  2  0
 14 15  1  0
 15 16  1  0
 15 17  2  0
 17 18  1  0
 18 19  1  0
 19 20  1  0
  8 21  1  0
 21 22  1  0
 22  5  1  0
 19  9  1  0
 17 11  1  0
  1 23  1  0
  1 24  1  0
  1 25  1  0
  3 26  1  0
  3 27  1  0
  3 28  1  0
  4 29  1  0
  4 30  1  0
  4 31  1  0
  5 32  1  0
  6 33  1  0
  6 34  1  0
  7 35  1  0
  7 36  1  0
  9 37  1  6
 10 38  1  0
 10 39  1  0
 12 40  1  0
 13 41  1  0
 14 42  1  0
 16 43  1  0
 18 44  1  0
 18 45  1  0
 19 46  1  6
 20 47  1  0
 21 48  1  0
 21 49  1  0
 22 50  1  0
 22 51  1  0
M  END
>  <UniqueID>  (12) 
10

>  <SMILES>  (12) 
CC(C)(C)C1CCN([C@H]2Cc3cccc(O)c3C[C@H]2O)CC1

>  <Energy>  (12) 
76.38886815359113

>  <Genealogy>  (12) 
CC(C)(C)C1CCN([C@H]2Cc3cccc(O)c3C[C@H]2O)CC1 (chirality)
CC(C)(C)C1CCN([C@H]2Cc3cccc(O)c3C[C@H]2O)CC1 (3D coordinates assigned)
CC(C)(C)C1CCN([C@H]2Cc3cccc(O)c3C[C@H]2O)CC1 (nonaromatic ring conformer: 76.38886815359113 kcal/mol)

>  <smiles>  (12) 
CC(C)(C)C1CCN(C2Cc3cccc(O)c3CC2O)CC1

>  <score_type>  (12) 
oracle

>  <origin>  (12) 
adg

>  <m_score__min__energy>  (12) 
-8.7599999999999998

>  <m_primary>  (12) 
energy

$$$$
12:0
     RDKit          3D

 53 55  0  0  1  0  0  0  0  0999 V2000
   -4.2020   24.9210  -26.3420 C   0  0  0  0  0  0  0  0  0  0  0  0
   -3.1060   24.5180  -27.3010 C   0  0  0  0  0  0  0  0  0  0  0  0
   -3.6110   24.2850  -28.5760 N   0  0  0  0  0  0  0  0  0  0  0  0
   -2.7690   23.9590  -29.6500 C   0  0  0  0  0  0  0  0  0  0  0  0
   -1.3400   23.6630  -29.3460 C   0  0  0  0  0  0  0  0  0  0  0  0
   -5.0020   24.2660  -28.8070 C   0  0  0  0  0  0  0  0  0  0  0  0
   -5.4560   25.2680  -29.8540 C   0  0  0  0  0  0  0  0  0  0  0  0
   -6.6720   24.7240  -30.4230 N   0  0  0  0  0  0  0  0  0  0  0  0
   -6.6870   23.5880  -31.0000 C   0  0  0  0  0  0  0  0  0  0  0  0
   -5.6060   23.2710  -31.8020 C   0  0  0  0  0  0  0  0  0  0  0  0
   -5.6120   22.0560  -32.4170 C   0  0  0  0  0  0  0  0  0  0  0  0
   -4.5730   21.5880  -33.2890 N   0  0  0  0  0  0  0  0  0  0  0  0
   -3.3450   21.2340  -32.6180 C   0  0  0  0  0  0  0  0  0  0  0  0
   -3.4100   20.9430  -31.2510 C   0  0  0  0  0  0  0  0  0  0  0  0
   -2.2650   20.6060  -30.5280 C   0  0  0  0  0  0  0  0  0  0  0  0
   -1.0590   20.5630  -31.1970 C   0  0  0  0  0  0  0  0  0  0  0  0
   -1.0230   20.8540  -32.5430 C   0  0  0  0  0  0  0  0  0  0  0  0
    0.3300   20.8000  -33.1880 C   0  0  0  0  0  0  0  0  0  0  0  0
   -2.1380   21.1920  -33.2810 C   0  0  0  0  0  0  0  0  0  0  0  0
   -6.6440   21.1870  -32.2460 N   0  0  0  0  0  0  0  0  0  0  0  0
   -6.6360   19.9680  -32.8630 C   0  0  0  0  0  0  0  0  0  0  0  0
   -7.6930   19.0830  -32.6790 C   0  0  0  0  0  0  0  0  0  0  0  0
   -8.7680   19.4240  -31.8680 C   0  0  0  0  0  0  0  0  0  0  0  0
   -8.7480   20.6670  -31.2570 C   0  0  0  0  0  0  0  0  0  0  0  0
   -7.6820   21.5300  -31.4570 C   0  0  0  0  0  0  0  0  0  0  0  0
   -7.7290   22.7360  -30.8170 N   0  0  0  0  0  0  0  0  0  0  0  0
   -3.8502   24.7916  -25.3078 H   0  0  0  0  0  0  0  0  0  0  0  0
   -4.4669   25.9753  -26.5100 H   0  0  0  0  0  0  0  0  0  0  0  0
   -5.0868   24.2894  -26.5100 H   0  0  0  0  0  0  0  0  0  0  0  0
   -2.3604   25.3251  -27.3528 H   0  0  0  0  0  0  0  0  0  0  0  0
   -2.6476   23.5880  -26.9336 H   0  0  0  0  0  0  0  0  0  0  0  0
   -3.1915   23.0695  -30.1402 H   0  0  0  0  0  0  0  0  0  0  0  0
   -2.7390   24.8700  -30.2657 H   0  0  0  0  0  0  0  0  0  0  0  0
   -1.1956   23.6331  -28.2559 H   0  0  0  0  0  0  0  0  0  0  0  0
   -1.0671   22.6893  -29.7789 H   0  0  0  0  0  0  0  0  0  0  0  0
   -0.7028   24.4482  -29.7789 H   0  0  0  0  0  0  0  0  0  0  0  0
   -5.2852   23.2579  -29.1439 H   0  0  0  0  0  0  0  0  0  0  0  0
   -5.4908   24.5425  -27.8612 H   0  0  0  0  0  0  0  0  0  0  0  0
   -5.6550   26.2445  -29.3882 H   0  0  0  0  0  0  0  0  0  0  0  0
   -4.6855   25.4257  -30.6231 H   0  0  0  0  0  0  0  0  0  0  0  0
   -4.7716   23.9747  -31.9382 H   0  0  0  0  0  0  0  0  0  0  0  0
   -4.6960   21.5090  -34.3090 H   0  0  0  0  0  0  0  0  0  0  0  0
   -4.3816   20.9806  -30.7367 H   0  0  0  0  0  0  0  0  0  0  0  0
   -2.3224   20.3805  -29.4529 H   0  0  0  0  0  0  0  0  0  0  0  0
   -0.1355   20.2990  -30.6609 H   0  0  0  0  0  0  0  0  0  0  0  0
    1.1064   20.7690  -32.4094 H   0  0  0  0  0  0  0  0  0  0  0  0
    0.4021   19.8983  -33.8138 H   0  0  0  0  0  0  0  0  0  0  0  0
    0.4738   21.6931  -33.8138 H   0  0  0  0  0  0  0  0  0  0  0  0
   -2.0666   21.4188  -34.3550 H   0  0  0  0  0  0  0  0  0  0  0  0
   -5.7906   19.6855  -33.5076 H   0  0  0  0  0  0  0  0  0  0  0  0
   -7.6776   18.1040  -33.1803 H   0  0  0  0  0  0  0  0  0  0  0  0
   -9.6076   18.7297  -31.7160 H   0  0  0  0  0  0  0  0  0  0  0  0
   -9.5833   20.9711  -30.6091 H   0  0  0  0  0  0  0  0  0  0  0  0
  1  2  1  0
  2  3  1  0
  3  4  1  0
  4  5  1  0
  3  6  1  0
  6  7  1  0
  7  8  1  0
  8  9  2  0
  9 10  1  0
 10 11  2  0
 11 12  1  0
 12 13  1  0
 13 14  2  0
 14 15  1  0
 15 16  2  0
 16 17  1  0
 17 18  1  0
 17 19  2  0
 11 20  1  0
 20 21  1  0
 21 22  2  0
 22 23  1  0
 23 24  2  0
 24 25  1  0
 25 26  2  0
 26  9  1  0
 19 13  1  0
 25 20  1  0
  1 27  1  0
  1 28  1  0
  1 29  1  0
  2 30  1  0
  2 31  1  0
  4 32  1  0
  4 33  1  0
  5 34  1  0
  5 35  1  0
  5 36  1  0
  6 37  1  0
  6 38  1  0
  7 39  1  0
  7 40  1  0
 10 41  1  0
 12 42  1  0
 14 43  1  0
 15 44  1  0
 16 45  1  0
 18 46  1  0
 18 47  1  0
 18 48  1  0
 19 49  1  0
 21 50  1  0
 22 51  1  0
 23 52  1  0
 24 53  1  0
M  END
>  <smiles>  (13) 
CCN(CC)CCN=c1cc(Nc2cccc(C)c2)n2ccccc2n1

>  <score_type>  (13) 
oracle

>  <origin>  (13) 
adg

>  <m_score__min__energy>  (13) 
-8.1699999999999999

>  <m_primary>  (13) 
energy

$$$$
13:0
     RDKit          3D

 54 56  0  0  0  0  0  0  0  0999 V2000
   -1.9710   25.8780  -25.4480 C   0  0  0  0  0  0  0  0  0  0  0  0
   -1.4080   26.0550  -26.8660 C   0  0  0  0  0  0  0  0  0  0  0  0
   -1.7410   24.9470  -27.7960 N   0  0  0  0  0  0  0  0  0  0  0  0
   -0.6090   24.5260  -28.6560 C   0  0  0  0  0  0  0  0  0  0  0  0
   -0.0690   23.1540  -28.2570 C   0  0  0  0  0  0  0  0  0  0  0  0
   -2.3530   23.7960  -27.0960 C   0  0  0  0  0  0  0  0  0  0  0  0
   -3.8760   23.8030  -27.2940 C   0  0  0  0  0  0  0  0  0  0  0  0
   -4.3090   24.7650  -28.3260 N   0  0  0  0  0  0  0  0  0  0  0  0
   -4.9540   24.1080  -29.4480 C   0  0  0  0  0  0  0  0  0  0  0  0
   -6.3260   24.3280  -29.6330 C   0  0  0  0  0  0  0  0  0  0  0  0
   -7.0170   23.7450  -30.6850 C   0  0  0  0  0  0  0  0  0  0  0  0
   -6.3710   22.9120  -31.6050 C   0  0  0  0  0  0  0  0  0  0  0  0
   -7.2270   22.3350  -32.7170 C   0  0  0  0  0  0  0  0  0  0  0  0
   -7.4910   20.8670  -32.4880 C   0  0  0  0  0  0  0  0  0  0  0  0
   -8.4910   20.4510  -31.5910 C   0  0  0  0  0  0  0  0  0  0  0  0
   -8.7360   19.0880  -31.3920 C   0  0  0  0  0  0  0  0  0  0  0  0
   -7.9890   18.1320  -32.0850 C   0  0  0  0  0  0  0  0  0  0  0  0
   -6.9970   18.5370  -32.9840 C   0  0  0  0  0  0  0  0  0  0  0  0
   -6.7500   19.8980  -33.1860 C   0  0  0  0  0  0  0  0  0  0  0  0
   -4.9830   22.6360  -31.4340 C   0  0  0  0  0  0  0  0  0  0  0  0
   -4.2860   21.7680  -32.3090 C   0  0  0  0  0  0  0  0  0  0  0  0
   -2.9300   21.5060  -32.1310 C   0  0  0  0  0  0  0  0  0  0  0  0
   -2.2350   22.0910  -31.0840 C   0  0  0  0  0  0  0  0  0  0  0  0
   -2.8880   22.9470  -30.2010 C   0  0  0  0  0  0  0  0  0  0  0  0
   -4.2660   23.2410  -30.3510 C   0  0  0  0  0  0  0  0  0  0  0  0
   -1.1920   26.1229  -24.7110 H   0  0  0  0  0  0  0  0  0  0  0  0
   -2.8315   26.5490  -25.3087 H   0  0  0  0  0  0  0  0  0  0  0  0
   -2.2927   24.8354  -25.3087 H   0  0  0  0  0  0  0  0  0  0  0  0
   -1.8122   26.9890  -27.2835 H   0  0  0  0  0  0  0  0  0  0  0  0
   -0.3122   26.0694  -26.7713 H   0  0  0  0  0  0  0  0  0  0  0  0
   -0.9527   24.4829  -29.7001 H   0  0  0  0  0  0  0  0  0  0  0  0
    0.2018   25.2595  -28.5349 H   0  0  0  0  0  0  0  0  0  0  0  0
   -0.0386   23.0767  -27.1601 H   0  0  0  0  0  0  0  0  0  0  0  0
   -0.7255   22.3697  -28.6618 H   0  0  0  0  0  0  0  0  0  0  0  0
    0.9460   23.0275  -28.6618 H   0  0  0  0  0  0  0  0  0  0  0  0
   -1.9382   22.8616  -27.5019 H   0  0  0  0  0  0  0  0  0  0  0  0
   -2.1306   23.8702  -26.0213 H   0  0  0  0  0  0  0  0  0  0  0  0
   -4.1969   22.7949  -27.5951 H   0  0  0  0  0  0  0  0  0  0  0  0
   -4.3347   24.1068  -26.3415 H   0  0  0  0  0  0  0  0  0  0  0  0
   -3.5230   25.3890  -28.6080 H   0  0  0  0  0  0  0  0  0  0  0  0
   -5.0050   25.4090  -27.8820 H   0  0  0  0  0  0  0  0  0  0  0  0
   -6.8665   24.9772  -28.9285 H   0  0  0  0  0  0  0  0  0  0  0  0
   -8.0934   23.9413  -30.7981 H   0  0  0  0  0  0  0  0  0  0  0  0
   -8.1862   22.8726  -32.7488 H   0  0  0  0  0  0  0  0  0  0  0  0
   -6.6895   22.4506  -33.6698 H   0  0  0  0  0  0  0  0  0  0  0  0
   -9.0826   21.1998  -31.0439 H   0  0  0  0  0  0  0  0  0  0  0  0
   -9.5186   18.7682  -30.6883 H   0  0  0  0  0  0  0  0  0  0  0  0
   -8.1810   17.0610  -31.9236 H   0  0  0  0  0  0  0  0  0  0  0  0
   -6.4111   17.7845  -33.5321 H   0  0  0  0  0  0  0  0  0  0  0  0
   -5.9707   20.2125  -33.8958 H   0  0  0  0  0  0  0  0  0  0  0  0
   -4.8242   21.2931  -33.1426 H   0  0  0  0  0  0  0  0  0  0  0  0
   -2.4075   20.8312  -32.8250 H   0  0  0  0  0  0  0  0  0  0  0  0
   -1.1641   21.8783  -30.9503 H   0  0  0  0  0  0  0  0  0  0  0  0
   -2.3248   23.4026  -29.3732 H   0  0  0  0  0  0  0  0  0  0  0  0
  1  2  1  0
  2  3  1  0
  3  4  1  0
  4  5  1  0
  3  6  1  0
  6  7  1  0
  7  8  1  0
  8  9  1  0
  9 10  2  0
 10 11  1  0
 11 12  2  0
 12 13  1  0
 13 14  1  0
 14 15  2  0
 15 16  1  0
 16 17  2  0
 17 18  1  0
 18 19  2  0
 12 20  1  0
 20 21  2  0
 21 22  1  0
 22 23  2  0
 23 24  1  0
 24 25  2  0
 25  9  1  0
 19 14  1  0
 25 20  1  0
  1 26  1  0
  1 27  1  0
  1 28  1  0
  2 29  1  0
  2 30  1  0
  4 31  1  0
  4 32  1  0
  5 33  1  0
  5 34  1  0
  5 35  1  0
  6 36  1  0
  6 37  1  0
  7 38  1  0
  7 39  1  0
  8 40  1  0
  8 41  1  0
 10 42  1  0
 11 43  1  0
 13 44  1  0
 13 45  1  0
 15 46  1  0
 16 47  1  0
 17 48  1  0
 18 49  1  0
 19 50  1  0
 21 51  1  0
 22 52  1  0
 23 53  1  0
 24 54  1  0
M  CHG  1   8   1
M  END
>  <UniqueID>  (14) 
11

>  <SMILES>  (14) 
CCN(CC)CC[NH2+]c1ccc(Cc2ccccc2)c2ccccc12

>  <Energy>  (14) 
68.22234368737706

>  <Genealogy>  (14) 
CCN(CC)CC[NH2+]c1ccc(Cc2ccccc2)c2ccccc12 (protonated)
CCN(CC)CC[NH2+]c1ccc(Cc2ccccc2)c2ccccc12 (3D coordinates assigned)
CCN(CC)CC[NH2+]c1ccc(Cc2ccccc2)c2ccccc12 (optimized conformer: 68.22234368737706 kcal/mol)

>  <smiles>  (14) 
CCN(CC)CCNc1ccc(Cc2ccccc2)c2ccccc12

>  <score_type>  (14) 
oracle

>  <origin>  (14) 
adg

>  <m_score__min__energy>  (14) 
-7.5999999999999996

>  <m_primary>  (14) 
energy

$$$$
14:0
     RDKit          3D

 56 57  0  0  0  0  0  0  0  0999 V2000
   -1.1330   20.3920  -34.6030 C   0  0  0  0  0  0  0  0  0  0  0  0
    0.0400   20.8660  -33.7500 C   0  0  0  0  0  0  0  0  0  0  0  0
   -0.4260   21.2650  -32.3400 C   0  0  0  0  0  0  0  0  0  0  0  0
   -1.0410   20.1170  -31.5680 C   0  0  0  0  0  0  0  0  0  0  0  0
   -0.2950   19.1970  -31.1290 O   0  0  0  0  0  0  0  0  0  0  0  0
   -2.4640   20.0670  -31.2990 N   0  0  0  0  0  0  0  0  0  0  0  0
   -3.4230   19.5640  -32.2980 C   0  0  0  0  0  0  0  0  0  0  0  0
   -4.4850   20.5920  -32.5730 C   0  0  0  0  0  0  0  0  0  0  0  0
   -4.1420   21.7400  -32.9660 O   0  0  0  0  0  0  0  0  0  0  0  0
   -5.8730   20.2610  -32.4200 N   0  0  0  0  0  0  0  0  0  0  0  0
   -6.9380   21.2280  -32.7190 C   0  0  0  0  0  0  0  0  0  0  0  0
   -8.3160   20.6800  -32.3370 C   0  0  0  0  0  0  0  0  0  0  0  0
   -9.0610   21.8060  -31.6240 C   0  0  0  0  0  0  0  0  0  0  0  0
   -8.1920   23.0500  -31.7540 C   0  0  0  0  0  0  0  0  0  0  0  0
   -6.7750   22.5380  -31.9460 C   0  0  0  0  0  0  0  0  0  0  0  0
   -2.9670   20.4640  -29.9740 C   0  0  0  0  0  0  0  0  0  0  0  0
   -2.6070   21.8970  -29.6780 C   0  0  0  0  0  0  0  0  0  0  0  0
   -1.4960   22.1990  -28.8810 C   0  0  0  0  0  0  0  0  0  0  0  0
   -1.1590   23.5290  -28.6150 C   0  0  0  0  0  0  0  0  0  0  0  0
   -1.9310   24.5820  -29.1410 C   0  0  0  0  0  0  0  0  0  0  0  0
   -1.6000   25.9330  -28.9270 O   0  0  0  0  0  0  0  0  0  0  0  0
   -0.8640   26.4320  -27.8140 C   0  0  0  0  0  0  0  0  0  0  0  0
   -3.0630   24.2830  -29.9330 C   0  0  0  0  0  0  0  0  0  0  0  0
   -3.8690   25.2830  -30.4850 O   0  0  0  0  0  0  0  0  0  0  0  0
   -5.2880   25.2690  -30.4050 C   0  0  0  0  0  0  0  0  0  0  0  0
   -3.3780   22.9420  -30.2100 C   0  0  0  0  0  0  0  0  0  0  0  0
   -1.9524   20.0609  -33.9481 H   0  0  0  0  0  0  0  0  0  0  0  0
   -1.4826   21.2194  -35.2379 H   0  0  0  0  0  0  0  0  0  0  0  0
   -0.8096   19.5540  -35.2379 H   0  0  0  0  0  0  0  0  0  0  0  0
    0.7764   20.0529  -33.6683 H   0  0  0  0  0  0  0  0  0  0  0  0
    0.4886   21.7472  -34.2319 H   0  0  0  0  0  0  0  0  0  0  0  0
    0.4422   21.6391  -31.7777 H   0  0  0  0  0  0  0  0  0  0  0  0
   -1.2041   22.0335  -32.4581 H   0  0  0  0  0  0  0  0  0  0  0  0
   -2.8876   19.3379  -33.2319 H   0  0  0  0  0  0  0  0  0  0  0  0
   -3.9014   18.6546  -31.9054 H   0  0  0  0  0  0  0  0  0  0  0  0
   -6.1180   19.3230  -32.0140 H   0  0  0  0  0  0  0  0  0  0  0  0
   -6.8607   21.4083  -33.8014 H   0  0  0  0  0  0  0  0  0  0  0  0
   -8.8654   20.3758  -33.2401 H   0  0  0  0  0  0  0  0  0  0  0  0
   -8.2217   19.7978  -31.6868 H   0  0  0  0  0  0  0  0  0  0  0  0
  -10.0391   21.9745  -32.0983 H   0  0  0  0  0  0  0  0  0  0  0  0
   -9.2428   21.5564  -30.5682 H   0  0  0  0  0  0  0  0  0  0  0  0
   -8.5052   23.6486  -32.6221 H   0  0  0  0  0  0  0  0  0  0  0  0
   -8.2746   23.6993  -30.8699 H   0  0  0  0  0  0  0  0  0  0  0  0
   -6.1772   23.2580  -32.5242 H   0  0  0  0  0  0  0  0  0  0  0  0
   -6.2505   22.3950  -30.9897 H   0  0  0  0  0  0  0  0  0  0  0  0
   -4.0614   20.3548  -29.9551 H   0  0  0  0  0  0  0  0  0  0  0  0
   -2.5071   19.8179  -29.2117 H   0  0  0  0  0  0  0  0  0  0  0  0
   -0.8855   21.3854  -28.4622 H   0  0  0  0  0  0  0  0  0  0  0  0
   -0.2830   23.7549  -27.9892 H   0  0  0  0  0  0  0  0  0  0  0  0
   -1.3452   26.1057  -26.8802 H   0  0  0  0  0  0  0  0  0  0  0  0
    0.1648   26.0444  -27.8512 H   0  0  0  0  0  0  0  0  0  0  0  0
   -0.8433   27.5312  -27.8512 H   0  0  0  0  0  0  0  0  0  0  0  0
   -5.5957   25.2660  -29.3489 H   0  0  0  0  0  0  0  0  0  0  0  0
   -5.6921   26.1632  -30.9021 H   0  0  0  0  0  0  0  0  0  0  0  0
   -5.6744   24.3670  -30.9021 H   0  0  0  0  0  0  0  0  0  0  0  0
   -4.2400   22.7082  -30.8521 H   0  0  0  0  0  0  0  0  0  0  0  0
  1  2  1  0
  2  3  1  0
  3  4  1  0
  4  5  2  0
  4  6  1  0
  6  7  1  0
  7  8  1  0
  8  9  2  0
  8 10  1  0
 10 11  1  0
 11 12  1  0
 12 13  1  0
 13 14  1  0
 14 15  1  0
  6 16  1  0
 16 17  1  0
 17 18  2  0
 18 19  1  0
 19 20  2  0
 20 21  1  0
 21 22  1  0
 20 23  1  0
 23 24  1  0
 24 25  1  0
 23 26  2  0
 15 11  1  0
 26 17  1  0
  1 27  1  0
  1 28  1  0
  1 29  1  0
  2 30  1  0
  2 31  1  0
  3 32  1  0
  3 33  1  0
  7 34  1  0
  7 35  1  0
 10 36  1  0
 11 37  1  0
 12 38  1  0
 12 39  1  0
 13 40  1  0
 13 41  1  0
 14 42  1  0
 14 43  1  0
 15 44  1  0
 15 45  1  0
 16 46  1  0
 16 47  1  0
 18 48  1  0
 19 49  1  0
 22 50  1  0
 22 51  1  0
 22 52  1  0
 25 53  1  0
 25 54  1  0
 25 55  1  0
 26 56  1  0
M  END
>  <UniqueID>  (15) 
12

>  <SMILES>  (15) 
CCCC(=O)N(CC(=O)NC1CCCC1)Cc1ccc(OC)c(OC)c1

>  <Energy>  (15) 
50.220649588984564

>  <Genealogy>  (15) 
CCCC(=O)N(CC(=O)NC1CCCC1)Cc1ccc(OC)c(OC)c1 (3D coordinates assigned)
CCCC(=O)N(CC(=O)NC1CCCC1)Cc1ccc(OC)c(OC)c1 (nonaromatic ring conformer: 50.220649588984564 kcal/mol)

>  <smiles>  (15) 
CCCC(=O)N(CC(=O)NC1CCCC1)Cc1ccc(OC)c(OC)c1

>  <score_type>  (15) 
oracle

>  <origin>  (15) 
adg

>  <m_score__min__energy>  (15) 
-9

>  <m_primary>  (15) 
energy

$$$$
15:0
     RDKit          3D

 66 68  0  0  0  0  0  0  0  0999 V2000
   -4.4680   12.9880  -33.6520 C   0  0  0  0  0  0  0  0  0  0  0  0
   -4.2500   14.0530  -32.6570 N   0  0  0  0  0  0  0  0  0  0  0  0
   -4.5740   13.5450  -31.3110 C   0  0  0  0  0  0  0  0  0  0  0  0
   -2.8490   14.5380  -32.7430 C   0  0  0  0  0  0  0  0  0  0  0  0
   -2.6830   15.7630  -33.6710 C   0  0  0  0  0  0  0  0  0  0  0  0
   -3.9380   16.1180  -34.3410 N   0  0  0  0  0  0  0  0  0  0  0  0
   -4.8200   17.1780  -33.9240 C   0  0  0  0  0  0  0  0  0  0  0  0
   -6.1810   16.9620  -33.7130 C   0  0  0  0  0  0  0  0  0  0  0  0
   -7.0040   17.9970  -33.2850 C   0  0  0  0  0  0  0  0  0  0  0  0
   -6.4960   19.3000  -33.0580 C   0  0  0  0  0  0  0  0  0  0  0  0
   -7.3240   20.3610  -32.6000 C   0  0  0  0  0  0  0  0  0  0  0  0
   -8.7090   20.2030  -32.3260 C   0  0  0  0  0  0  0  0  0  0  0  0
   -9.4800   21.2710  -31.8660 C   0  0  0  0  0  0  0  0  0  0  0  0
   -8.9010   22.5180  -31.6660 C   0  0  0  0  0  0  0  0  0  0  0  0
   -7.5470   22.7040  -31.9250 C   0  0  0  0  0  0  0  0  0  0  0  0
   -6.7480   21.6370  -32.3930 C   0  0  0  0  0  0  0  0  0  0  0  0
   -5.3840   21.8390  -32.6550 C   0  0  0  0  0  0  0  0  0  0  0  0
   -4.8910   22.9890  -32.4650 O   0  0  0  0  0  0  0  0  0  0  0  0
   -4.5840   20.8180  -33.1130 N   0  0  0  0  0  0  0  0  0  0  0  0
   -3.1620   21.1500  -33.4000 C   0  0  0  0  0  0  0  0  0  0  0  0
   -2.2160   20.6470  -32.2940 C   0  0  0  0  0  0  0  0  0  0  0  0
   -1.4200   21.7740  -31.6210 C   0  0  0  0  0  0  0  0  0  0  0  0
   -1.9790   22.1120  -30.2350 C   0  0  0  0  0  0  0  0  0  0  0  0
   -3.4410   22.2450  -30.2930 N   0  0  0  0  0  0  0  0  0  0  0  0
   -3.9940   22.9280  -29.1130 C   0  0  0  0  0  0  0  0  0  0  0  0
   -5.3540   23.6090  -29.3840 C   0  0  0  0  0  0  0  0  0  0  0  0
   -5.2030   24.9500  -30.1130 C   0  0  0  0  0  0  0  0  0  0  0  0
   -3.9230   24.9990  -30.8130 N   0  0  0  0  0  0  0  0  0  0  0  0
   -5.1080   19.5460  -33.2930 C   0  0  0  0  0  0  0  0  0  0  0  0
   -4.2950   18.4550  -33.7040 C   0  0  0  0  0  0  0  0  0  0  0  0
   -4.6627   12.0370  -33.1345 H   0  0  0  0  0  0  0  0  0  0  0  0
   -5.3319   13.2461  -34.2821 H   0  0  0  0  0  0  0  0  0  0  0  0
   -3.5721   12.8859  -34.2821 H   0  0  0  0  0  0  0  0  0  0  0  0
   -4.9050   14.8380  -32.8870 H   0  0  0  0  0  0  0  0  0  0  0  0
   -4.1455   14.2168  -30.5526 H   0  0  0  0  0  0  0  0  0  0  0  0
   -5.6663   13.5026  -31.1882 H   0  0  0  0  0  0  0  0  0  0  0  0
   -4.1518   12.5367  -31.1882 H   0  0  0  0  0  0  0  0  0  0  0  0
   -2.5132   14.8166  -31.7333 H   0  0  0  0  0  0  0  0  0  0  0  0
   -2.2468   13.7220  -33.1691 H   0  0  0  0  0  0  0  0  0  0  0  0
   -2.3461   16.6207  -33.0703 H   0  0  0  0  0  0  0  0  0  0  0  0
   -1.9453   15.5055  -34.4452 H   0  0  0  0  0  0  0  0  0  0  0  0
   -4.1950   15.5630  -35.1900 H   0  0  0  0  0  0  0  0  0  0  0  0
   -6.6075   15.9631  -33.8869 H   0  0  0  0  0  0  0  0  0  0  0  0
   -8.0734   17.8002  -33.1188 H   0  0  0  0  0  0  0  0  0  0  0  0
   -9.1817   19.2216  -32.4792 H   0  0  0  0  0  0  0  0  0  0  0  0
  -10.5508   21.1251  -31.6608 H   0  0  0  0  0  0  0  0  0  0  0  0
   -9.5126   23.3573  -31.3033 H   0  0  0  0  0  0  0  0  0  0  0  0
   -7.0933   23.6930  -31.7636 H   0  0  0  0  0  0  0  0  0  0  0  0
   -2.8739   20.6825  -34.3531 H   0  0  0  0  0  0  0  0  0  0  0  0
   -3.0730   22.2452  -33.4502 H   0  0  0  0  0  0  0  0  0  0  0  0
   -2.8158   20.1360  -31.5265 H   0  0  0  0  0  0  0  0  0  0  0  0
   -1.4891   19.9710  -32.7678 H   0  0  0  0  0  0  0  0  0  0  0  0
   -0.3721   21.4565  -31.5152 H   0  0  0  0  0  0  0  0  0  0  0  0
   -1.4976   22.6725  -32.2509 H   0  0  0  0  0  0  0  0  0  0  0  0
   -1.7154   21.3084  -29.5316 H   0  0  0  0  0  0  0  0  0  0  0  0
   -1.5462   23.0653  -29.8976 H   0  0  0  0  0  0  0  0  0  0  0  0
   -3.7060   22.7720  -31.1590 H   0  0  0  0  0  0  0  0  0  0  0  0
   -4.1280   22.1869  -28.3112 H   0  0  0  0  0  0  0  0  0  0  0  0
   -3.2835   23.7190  -28.8310 H   0  0  0  0  0  0  0  0  0  0  0  0
   -5.9677   22.9379  -30.0029 H   0  0  0  0  0  0  0  0  0  0  0  0
   -5.8284   23.8080  -28.4117 H   0  0  0  0  0  0  0  0  0  0  0  0
   -6.0202   25.0626  -30.8407 H   0  0  0  0  0  0  0  0  0  0  0  0
   -5.2423   25.7664  -29.3769 H   0  0  0  0  0  0  0  0  0  0  0  0
   -4.0060   25.6850  -31.5990 H   0  0  0  0  0  0  0  0  0  0  0  0
   -3.7650   24.0610  -31.2520 H   0  0  0  0  0  0  0  0  0  0  0  0
   -3.2179   18.6207  -33.8538 H   0  0  0  0  0  0  0  0  0  0  0  0
  1  2  1  0
  2  3  1  0
  2  4  1  0
  4  5  1  0
  5  6  1  0
  6  7  1  0
  7  8  2  0
  8  9  1  0
  9 10  2  0
 10 11  1  0
 11 12  2  0
 12 13  1  0
 13 14  2  0
 14 15  1  0
 15 16  2  0
 16 17  1  0
 17 18  2  0
 17 19  1  0
 19 20  1  0
 20 21  1  0
 21 22  1  0
 22 23  1  0
 23 24  1  0
 24 25  1  0
 25 26  1  0
 26 27  1  0
 27 28  1  0
 19 29  1  0
 29 30  2  0
 30  7  1  0
 29 10  1  0
 16 11  1  0
  1 31  1  0
  1 32  1  0
  1 33  1  0
  2 34  1  0
  3 35  1  0
  3 36  1  0
  3 37  1  0
  4 38  1  0
  4 39  1  0
  5 40  1  0
  5 41  1  0
  6 42  1  0
  8 43  1  0
  9 44  1  0
 12 45  1  0
 13 46  1  0
 14 47  1  0
 15 48  1  0
 20 49  1  0
 20 50  1  0
 21 51  1  0
 21 52  1  0
 22 53  1  0
 22 54  1  0
 23 55  1  0
 23 56  1  0
 24 57  1  0
 25 58  1  0
 25 59  1  0
 26 60  1  0
 26 61  1  0
 27 62  1  0
 27 63  1  0
 28 64  1  0
 28 65  1  0
 30 66  1  0
M  CHG  1   2   1
M  END
>  <UniqueID>  (16) 
13

>  <SMILES>  (16) 
C[NH+](C)CCNc1ccc2c3ccccc3c(=O)n(CCCCNCCCN)c2c1

>  <Energy>  (16) 
82.28882666636311

>  <Genealogy>  (16) 
C[NH+](C)CCNc1ccc2c3ccccc3c(=O)n(CCCCNCCCN)c2c1 (protonated)
C[NH+](C)CCNc1ccc2c3ccccc3c(=O)n(CCCCNCCCN)c2c1 (3D coordinates assigned)
C[NH+](C)CCNc1ccc2c3ccccc3c(=O)n(CCCCNCCCN)c2c1 (optimized conformer: 82.28882666636311 kcal/mol)

>  <smiles>  (16) 
CN(C)CCNc1ccc2c3ccccc3c(=O)n(CCCCNCCCN)c2c1

>  <score_type>  (16) 
oracle

>  <origin>  (16) 
adg

>  <m_score__min__energy>  (16) 
-8.2400000000000002

>  <m_primary>  (16) 
energy

$$$$
16:0
     RDKit          3D

 49 50  0  0  0  0  0  0  0  0999 V2000
   -5.7670   16.7500  -32.0160 C   0  0  0  0  0  0  0  0  0  0  0  0
   -6.3450   18.0740  -31.5060 C   0  0  0  0  0  0  0  0  0  0  0  0
   -7.4040   18.6530  -32.3670 N   0  0  0  0  0  0  0  0  0  0  0  0
   -6.9340   19.7120  -33.2950 C   0  0  0  0  0  0  0  0  0  0  0  0
   -5.7830   19.2870  -34.2220 C   0  0  0  0  0  0  0  0  0  0  0  0
   -8.6990   18.9290  -31.7070 C   0  0  0  0  0  0  0  0  0  0  0  0
   -9.2900   20.2670  -32.1530 C   0  0  0  0  0  0  0  0  0  0  0  0
   -8.8580   21.2940  -31.2670 O   0  0  0  0  0  0  0  0  0  0  0  0
   -8.6050   22.6040  -31.6900 C   0  0  0  0  0  0  0  0  0  0  0  0
   -9.4890   23.2420  -32.3260 O   0  0  0  0  0  0  0  0  0  0  0  0
   -7.3050   23.2400  -31.3840 C   0  0  0  0  0  0  0  0  0  0  0  0
   -7.2330   24.3580  -30.5360 C   0  0  0  0  0  0  0  0  0  0  0  0
   -5.9990   24.9490  -30.2440 C   0  0  0  0  0  0  0  0  0  0  0  0
   -4.8190   24.4200  -30.7770 C   0  0  0  0  0  0  0  0  0  0  0  0
   -3.5700   25.0480  -30.4630 N   0  0  0  0  0  0  0  0  0  0  0  0
   -2.5630   24.5550  -29.5660 C   0  0  0  0  0  0  0  0  0  0  0  0
   -1.8350   25.3870  -28.9640 O   0  0  0  0  0  0  0  0  0  0  0  0
   -2.4130   23.0880  -29.2280 C   0  0  2  0  0  0  0  0  0  0  0  0
   -3.0180   22.7440  -27.8700 C   0  0  0  0  0  0  0  0  0  0  0  0
   -1.9770   21.8800  -27.2100 C   0  0  0  0  0  0  0  0  0  0  0  0
   -0.9360   21.6670  -28.2900 C   0  0  0  0  0  0  0  0  0  0  0  0
   -1.0620   22.6920  -29.2430 O   0  0  0  0  0  0  0  0  0  0  0  0
   -4.8880   23.3280  -31.6530 C   0  0  0  0  0  0  0  0  0  0  0  0
   -6.1190   22.7330  -31.9450 C   0  0  0  0  0  0  0  0  0  0  0  0
   -5.4905   16.1167  -31.1601 H   0  0  0  0  0  0  0  0  0  0  0  0
   -6.5209   16.2320  -32.6270 H   0  0  0  0  0  0  0  0  0  0  0  0
   -4.8746   16.9507  -32.6270 H   0  0  0  0  0  0  0  0  0  0  0  0
   -6.7707   17.9011  -30.5066 H   0  0  0  0  0  0  0  0  0  0  0  0
   -5.5157   18.7966  -31.5002 H   0  0  0  0  0  0  0  0  0  0  0  0
   -7.7835   20.0202  -33.9221 H   0  0  0  0  0  0  0  0  0  0  0  0
   -6.5435   20.5260  -32.6666 H   0  0  0  0  0  0  0  0  0  0  0  0
   -4.9221   18.9691  -33.6156 H   0  0  0  0  0  0  0  0  0  0  0  0
   -6.1129   18.4514  -34.8568 H   0  0  0  0  0  0  0  0  0  0  0  0
   -5.4907   20.1365  -34.8568 H   0  0  0  0  0  0  0  0  0  0  0  0
   -9.4061   18.1253  -31.9602 H   0  0  0  0  0  0  0  0  0  0  0  0
   -8.5264   18.9763  -30.6217 H   0  0  0  0  0  0  0  0  0  0  0  0
   -8.9502   20.4962  -33.1738 H   0  0  0  0  0  0  0  0  0  0  0  0
  -10.3882   20.2067  -32.1377 H   0  0  0  0  0  0  0  0  0  0  0  0
   -8.1536   24.7716  -30.0985 H   0  0  0  0  0  0  0  0  0  0  0  0
   -5.9566   25.8340  -29.5921 H   0  0  0  0  0  0  0  0  0  0  0  0
   -2.9634   22.5388  -30.0061 H   0  0  0  0  0  0  0  0  0  0  0  0
   -3.1988   23.6555  -27.2813 H   0  0  0  0  0  0  0  0  0  0  0  0
   -3.9909   22.2384  -27.9582 H   0  0  0  0  0  0  0  0  0  0  0  0
   -1.5387   22.3917  -26.3405 H   0  0  0  0  0  0  0  0  0  0  0  0
   -2.3915   20.9345  -26.8303 H   0  0  0  0  0  0  0  0  0  0  0  0
    0.0699   21.6957  -27.8458 H   0  0  0  0  0  0  0  0  0  0  0  0
   -1.0864   20.6882  -28.7689 H   0  0  0  0  0  0  0  0  0  0  0  0
   -3.9686   22.9370  -32.1132 H   0  0  0  0  0  0  0  0  0  0  0  0
   -6.1603   21.8634  -32.6173 H   0  0  0  0  0  0  0  0  0  0  0  0
  1  2  1  0
  2  3  1  0
  3  4  1  0
  4  5  1  0
  3  6  1  0
  6  7  1  0
  7  8  1  0
  8  9  1  0
  9 10  2  0
  9 11  1  0
 11 12  2  0
 12 13  1  0
 13 14  2  0
 14 15  1  0
 15 16  1  0
 16 17  2  0
 16 18  1  0
 18 19  1  0
 19 20  1  0
 20 21  1  0
 21 22  1  0
 14 23  1  0
 23 24  2  0
 24 11  1  0
 22 18  1  0
  1 25  1  0
  1 26  1  0
  1 27  1  0
  2 28  1  0
  2 29  1  0
  4 30  1  0
  4 31  1  0
  5 32  1  0
  5 33  1  0
  5 34  1  0
  6 35  1  0
  6 36  1  0
  7 37  1  0
  7 38  1  0
 12 39  1  0
 13 40  1  0
 18 41  1  6
 19 42  1  0
 19 43  1  0
 20 44  1  0
 20 45  1  0
 21 46  1  0
 21 47  1  0
 23 48  1  0
 24 49  1  0
M  CHG  1  15  -1
M  END
>  <UniqueID>  (17) 
14

>  <SMILES>  (17) 
CCN(CC)CCOC(=O)c1ccc([N-]C(=O)[C@@H]2CCCO2)cc1

>  <Energy>  (17) 
56.6218826577266

>  <Genealogy>  (17) 
CCN(CC)CCOC(=O)c1ccc([N-]C(=O)C2CCCO2)cc1 (protonated)
CCN(CC)CCOC(=O)c1ccc([N-]C(=O)[C@@H]2CCCO2)cc1 (chirality)
CCN(CC)CCOC(=O)c1ccc([N-]C(=O)[C@@H]2CCCO2)cc1 (3D coordinates assigned)
CCN(CC)CCOC(=O)c1ccc([N-]C(=O)[C@@H]2CCCO2)cc1 (nonaromatic ring conformer: 56.6218826577266 kcal/mol)

>  <smiles>  (17) 
CCN(CC)CCOC(=O)c1ccc(NC(=O)C2CCCO2)cc1

>  <score_type>  (17) 
oracle

>  <origin>  (17) 
adg

>  <m_score__min__energy>  (17) 
-9.4100000000000001

>  <m_primary>  (17) 
energy

$$$$
17:0
     RDKit          3D

 42 43  0  0  0  0  0  0  0  0999 V2000
   -6.1520   17.1540  -31.4660 C   0  0  0  0  0  0  0  0  0  0  0  0
   -6.7320   17.1550  -32.8780 C   0  0  0  0  0  0  0  0  0  0  0  0
   -6.7760   18.5180  -33.4340 N   0  0  0  0  0  0  0  0  0  0  0  0
   -5.9180   18.8380  -34.5840 C   0  0  0  0  0  0  0  0  0  0  0  0
   -4.6760   17.9500  -34.5990 C   0  0  0  0  0  0  0  0  0  0  0  0
   -7.5730   19.5640  -32.8280 C   0  0  0  0  0  0  0  0  0  0  0  0
   -8.9190   19.6230  -33.0090 N   0  0  0  0  0  0  0  0  0  0  0  0
   -9.3560   20.9390  -32.1240 S   0  0  0  0  0  0  0  0  0  0  0  0
   -7.9390   21.4840  -31.4770 N   0  0  0  0  0  0  0  0  0  0  0  0
   -7.0430   20.5860  -31.9770 C   0  0  0  0  0  0  0  0  0  0  0  0
   -5.6850   20.6530  -31.6500 O   0  0  0  0  0  0  0  0  0  0  0  0
   -4.7140   21.3200  -32.4530 C   0  0  0  0  0  0  0  0  0  0  0  0
   -4.2210   22.5990  -31.7720 C   0  0  0  0  0  0  0  0  0  0  0  0
   -5.1560   22.9930  -30.6910 N   0  0  0  0  0  0  0  0  0  0  0  0
   -5.9550   24.1940  -31.0320 C   0  0  0  0  0  0  0  0  0  0  0  0
   -5.2600   25.5030  -30.6050 C   0  0  0  0  0  0  0  0  0  0  0  0
   -3.8660   25.3150  -30.4820 O   0  0  0  0  0  0  0  0  0  0  0  0
   -3.5900   24.4500  -29.3930 C   0  0  0  0  0  0  0  0  0  0  0  0
   -4.4700   23.1780  -29.3960 C   0  0  0  0  0  0  0  0  0  0  0  0
   -6.9720   17.1554  -30.7328 H   0  0  0  0  0  0  0  0  0  0  0  0
   -5.5346   16.2548  -31.3239 H   0  0  0  0  0  0  0  0  0  0  0  0
   -5.5315   18.0511  -31.3239 H   0  0  0  0  0  0  0  0  0  0  0  0
   -6.1044   16.5238  -33.5243 H   0  0  0  0  0  0  0  0  0  0  0  0
   -7.7590   16.7634  -32.8333 H   0  0  0  0  0  0  0  0  0  0  0  0
   -6.4859   18.6792  -35.5126 H   0  0  0  0  0  0  0  0  0  0  0  0
   -5.5993   19.8878  -34.5042 H   0  0  0  0  0  0  0  0  0  0  0  0
   -4.3695   17.7308  -33.5656 H   0  0  0  0  0  0  0  0  0  0  0  0
   -4.9043   17.0091  -35.1211 H   0  0  0  0  0  0  0  0  0  0  0  0
   -3.8595   18.4703  -35.1211 H   0  0  0  0  0  0  0  0  0  0  0  0
   -9.5340   19.0020  -33.5760 H   0  0  0  0  0  0  0  0  0  0  0  0
   -3.8591   20.6473  -32.6160 H   0  0  0  0  0  0  0  0  0  0  0  0
   -5.1801   21.5917  -33.4116 H   0  0  0  0  0  0  0  0  0  0  0  0
   -3.2234   22.4219  -31.3437 H   0  0  0  0  0  0  0  0  0  0  0  0
   -4.1703   23.4070  -32.5167 H   0  0  0  0  0  0  0  0  0  0  0  0
   -6.1123   24.2163  -32.1205 H   0  0  0  0  0  0  0  0  0  0  0  0
   -6.9089   24.1278  -30.4882 H   0  0  0  0  0  0  0  0  0  0  0  0
   -5.4538   26.2774  -31.3618 H   0  0  0  0  0  0  0  0  0  0  0  0
   -5.6610   25.8121  -29.6285 H   0  0  0  0  0  0  0  0  0  0  0  0
   -2.5340   24.1463  -29.4450 H   0  0  0  0  0  0  0  0  0  0  0  0
   -3.8122   25.0027  -28.4682 H   0  0  0  0  0  0  0  0  0  0  0  0
   -3.8326   22.3028  -29.2017 H   0  0  0  0  0  0  0  0  0  0  0  0
   -5.2359   23.2883  -28.6142 H   0  0  0  0  0  0  0  0  0  0  0  0
  1  2  1  0
  2  3  1  0
  3  4  1  0
  4  5  1  0
  3  6  1  0
  6  7  2  0
  7  8  1  0
  8  9  1  0
  9 10  2  0
 10 11  1  0
 11 12  1  0
 12 13  1  0
 13 14  1  0
 14 15  1  0
 15 16  1  0
 16 17  1  0
 17 18  1  0
 18 19  1  0
 10  6  1  0
 19 14  1  0
  1 20  1  0
  1 21  1  0
  1 22  1  0
  2 23  1  0
  2 24  1  0
  4 25  1  0
  4 26  1  0
  5 27  1  0
  5 28  1  0
  5 29  1  0
  7 30  1  0
 12 31  1  0
 12 32  1  0
 13 33  1  0
 13 34  1  0
 15 35  1  0
 15 36  1  0
 16 37  1  0
 16 38  1  0
 18 39  1  0
 18 40  1  0
 19 41  1  0
 19 42  1  0
M  CHG  1   7   1
M  END
>  <UniqueID>  (18) 
15

>  <SMILES>  (18) 
CCN(CC)c1[nH+]snc1OCCN1CCOCC1

>  <Energy>  (18) 
83.41493457803024

>  <Genealogy>  (18) 
CCN(CC)c1[nH+]snc1OCCN1CCOCC1 (protonated)
CCN(CC)c1[nH+]snc1OCCN1CCOCC1 (3D coordinates assigned)
CCN(CC)c1[nH+]snc1OCCN1CCOCC1 (nonaromatic ring conformer: 83.41493457803024 kcal/mol)

>  <smiles>  (18) 
CCN(CC)c1nsnc1OCCN1CCOCC1

>  <score_type>  (18) 
oracle

>  <origin>  (18) 
adg

>  <m_score__min__energy>  (18) 
-6.6100000000000003

>  <m_primary>  (18) 
energy

$$$$
18:0
     RDKit          3D

 48 50  0  0  0  0  0  0  0  0999 V2000
    1.2750   24.6830  -27.0390 C   0  0  0  0  0  0  0  0  0  0  0  0
    0.6310   24.2080  -28.2170 O   0  0  0  0  0  0  0  0  0  0  0  0
   -0.7560   24.0520  -28.3540 C   0  0  0  0  0  0  0  0  0  0  0  0
   -1.4170   23.1910  -27.4720 C   0  0  0  0  0  0  0  0  0  0  0  0
   -2.8000   23.0110  -27.5610 C   0  0  0  0  0  0  0  0  0  0  0  0
   -3.5340   23.6820  -28.5420 C   0  0  0  0  0  0  0  0  0  0  0  0
   -2.8820   24.5330  -29.4520 C   0  0  0  0  0  0  0  0  0  0  0  0
   -3.6000   25.2590  -30.4610 N   0  0  0  0  0  0  0  0  0  0  0  0
   -5.0250   25.3410  -30.6030 C   0  0  0  0  0  0  0  0  0  0  0  0
   -5.6280   26.4110  -30.3140 O   0  0  0  0  0  0  0  0  0  0  0  0
   -5.7970   24.1520  -31.0350 C   0  0  0  0  0  0  0  0  0  0  0  0
   -7.1980   24.1380  -30.9400 C   0  0  0  0  0  0  0  0  0  0  0  0
   -7.9250   23.0180  -31.3480 C   0  0  0  0  0  0  0  0  0  0  0  0
   -7.2690   21.8860  -31.8640 C   0  0  0  0  0  0  0  0  0  0  0  0
   -7.9810   20.7490  -32.2820 O   0  0  0  0  0  0  0  0  0  0  0  0
   -9.3860   20.5740  -32.1350 C   0  0  0  0  0  0  0  0  0  0  0  0
   -5.8630   21.8940  -31.9690 C   0  0  0  0  0  0  0  0  0  0  0  0
   -4.9800   20.4970  -32.6170 S   0  0  0  0  0  0  0  0  0  0  0  0
   -4.0080   20.9780  -33.6580 O   0  0  0  0  0  0  0  0  0  0  0  0
   -4.1860   19.8470  -31.5190 O   0  0  0  0  0  0  0  0  0  0  0  0
   -6.0330   19.3040  -33.3400 N   0  0  0  0  0  0  0  0  0  0  0  0
   -6.4540   18.2860  -32.3790 C   0  0  0  0  0  0  0  0  0  0  0  0
   -6.7710   17.0330  -33.1860 C   0  0  0  0  0  0  0  0  0  0  0  0
   -6.1230   17.2540  -34.5460 C   0  0  0  0  0  0  0  0  0  0  0  0
   -5.3790   18.5720  -34.4220 C   0  0  0  0  0  0  0  0  0  0  0  0
   -5.1400   23.0210  -31.5470 C   0  0  0  0  0  0  0  0  0  0  0  0
   -1.4990   24.7290  -29.3410 C   0  0  0  0  0  0  0  0  0  0  0  0
    0.7504   24.2961  -26.1529 H   0  0  0  0  0  0  0  0  0  0  0  0
    2.3191   24.3371  -27.0271 H   0  0  0  0  0  0  0  0  0  0  0  0
    1.2529   25.7827  -27.0271 H   0  0  0  0  0  0  0  0  0  0  0  0
   -0.8444   22.6518  -26.7030 H   0  0  0  0  0  0  0  0  0  0  0  0
   -3.3121   22.3390  -26.8566 H   0  0  0  0  0  0  0  0  0  0  0  0
   -4.6237   23.5445  -28.6027 H   0  0  0  0  0  0  0  0  0  0  0  0
   -7.7267   25.0162  -30.5411 H   0  0  0  0  0  0  0  0  0  0  0  0
   -9.0219   23.0210  -31.2650 H   0  0  0  0  0  0  0  0  0  0  0  0
   -9.6416   20.5422  -31.0656 H   0  0  0  0  0  0  0  0  0  0  0  0
   -9.9121   21.4136  -32.6129 H   0  0  0  0  0  0  0  0  0  0  0  0
   -9.6900   19.6310  -32.6129 H   0  0  0  0  0  0  0  0  0  0  0  0
   -5.6445   18.0819  -31.6627 H   0  0  0  0  0  0  0  0  0  0  0  0
   -7.3299   18.6205  -31.8037 H   0  0  0  0  0  0  0  0  0  0  0  0
   -6.3472   16.1431  -32.6977 H   0  0  0  0  0  0  0  0  0  0  0  0
   -7.8546   16.8644  -33.2715 H   0  0  0  0  0  0  0  0  0  0  0  0
   -5.4242   16.4367  -34.7779 H   0  0  0  0  0  0  0  0  0  0  0  0
   -6.8657   17.2754  -35.3571 H   0  0  0  0  0  0  0  0  0  0  0  0
   -4.3217   18.3924  -34.1773 H   0  0  0  0  0  0  0  0  0  0  0  0
   -5.4042   19.1388  -35.3644 H   0  0  0  0  0  0  0  0  0  0  0  0
   -4.0423   23.0183  -31.6184 H   0  0  0  0  0  0  0  0  0  0  0  0
   -0.9889   25.4176  -30.0307 H   0  0  0  0  0  0  0  0  0  0  0  0
  1  2  1  0
  2  3  1  0
  3  4  2  0
  4  5  1  0
  5  6  2  0
  6  7  1  0
  7  8  1  0
  8  9  1  0
  9 10  2  0
  9 11  1  0
 11 12  2  0
 12 13  1  0
 13 14  2  0
 14 15  1  0
 15 16  1  0
 14 17  1  0
 17 18  1  0
 18 19  2  0
 18 20  2  0
 18 21  1  0
 21 22  1  0
 22 23  1  0
 23 24  1  0
 24 25  1  0
 17 26  2  0
  7 27  2  0
 27  3  1  0
 26 11  1  0
 25 21  1  0
  1 28  1  0
  1 29  1  0
  1 30  1  0
  4 31  1  0
  5 32  1  0
  6 33  1  0
 12 34  1  0
 13 35  1  0
 16 36  1  0
 16 37  1  0
 16 38  1  0
 22 39  1  0
 22 40  1  0
 23 41  1  0
 23 42  1  0
 24 43  1  0
 24 44  1  0
 25 45  1  0
 25 46  1  0
 26 47  1  0
 27 48  1  0
M  CHG  1   8  -1
M  END
>  <UniqueID>  (19) 
16

>  <SMILES>  (19) 
COc1cccc([N-]C(=O)c2ccc(OC)c(S(=O)(=O)N3CCCC3)c2)c1

>  <Energy>  (19) 
54.14778559857818

>  <Genealogy>  (19) 
COc1cccc([N-]C(=O)c2ccc(OC)c(S(=O)(=O)N3CCCC3)c2)c1 (protonated)
COc1cccc([N-]C(=O)c2ccc(OC)c(S(=O)(=O)N3CCCC3)c2)c1 (3D coordinates assigned)
COc1cccc([N-]C(=O)c2ccc(OC)c(S(=O)(=O)N3CCCC3)c2)c1 (nonaromatic ring conformer: 54.14778559857818 kcal/mol)

>  <smiles>  (19) 
COc1cccc(NC(=O)c2ccc(OC)c(S(=O)(=O)N3CCCC3)c2)c1

>  <score_type>  (19) 
oracle

>  <origin>  (19) 
adg

>  <m_score__min__energy>  (19) 
-10.6

>  <m_primary>  (19) 
energy

$$$$
19:0
     RDKit          3D

 56 59  0  0  0  0  0  0  0  0999 V2000
   -1.7520   20.1450  -31.4840 C   0  0  0  0  0  0  0  0  0  0  0  0
   -2.4050   20.6970  -30.3450 O   0  0  0  0  0  0  0  0  0  0  0  0
   -2.2210   22.0080  -29.8700 C   0  0  0  0  0  0  0  0  0  0  0  0
   -1.1390   22.3380  -29.0330 C   0  0  0  0  0  0  0  0  0  0  0  0
   -0.9660   23.6450  -28.5840 C   0  0  0  0  0  0  0  0  0  0  0  0
   -1.8690   24.6390  -28.9520 C   0  0  0  0  0  0  0  0  0  0  0  0
   -2.9670   24.3380  -29.7790 C   0  0  0  0  0  0  0  0  0  0  0  0
   -3.9130   25.3190  -30.1200 O   0  0  0  0  0  0  0  0  0  0  0  0
   -5.2990   25.2610  -29.7960 C   0  0  0  0  0  0  0  0  0  0  0  0
   -3.1360   23.0150  -30.2540 C   0  0  0  0  0  0  0  0  0  0  0  0
   -4.2760   22.6620  -31.1360 C   0  0  0  0  0  0  0  0  0  0  0  0
   -5.0120   21.4860  -31.1330 C   0  0  0  0  0  0  0  0  0  0  0  0
   -5.9600   21.6820  -32.1170 C   0  0  0  0  0  0  0  0  0  0  0  0
   -6.9820   20.7060  -32.5410 C   0  0  0  0  0  0  0  0  0  0  0  0
   -8.1960   21.0440  -32.5050 O   0  0  0  0  0  0  0  0  0  0  0  0
   -6.6280   19.3830  -32.9870 N   0  0  0  0  0  0  0  0  0  0  0  0
   -7.5780   18.2840  -32.8130 C   0  0  0  0  0  0  0  0  0  0  0  0
   -6.8960   16.9360  -33.0780 C   0  0  0  0  0  0  0  0  0  0  0  0
   -6.2930   16.8600  -34.4350 N   0  0  0  0  0  0  0  0  0  0  0  0
   -5.3130   15.7440  -34.5940 C   0  0  0  0  0  0  0  0  0  0  0  0
   -3.8440   16.1870  -34.6820 C   0  0  0  0  0  0  0  0  0  0  0  0
   -3.3960   16.4020  -33.2480 C   0  0  0  0  0  0  0  0  0  0  0  0
   -4.2450   15.4580  -32.4030 C   0  0  0  0  0  0  0  0  0  0  0  0
   -5.3060   14.8700  -33.3320 C   0  0  0  0  0  0  0  0  0  0  0  0
   -5.7150   18.1560  -34.9040 C   0  0  0  0  0  0  0  0  0  0  0  0
   -5.4100   19.1420  -33.7690 C   0  0  0  0  0  0  0  0  0  0  0  0
   -5.7680   22.8950  -32.6670 N   0  0  0  0  0  0  0  0  0  0  0  0
   -4.7650   23.4580  -32.0610 O   0  0  0  0  0  0  0  0  0  0  0  0
   -0.9505   19.4675  -31.1546 H   0  0  0  0  0  0  0  0  0  0  0  0
   -2.4804   19.5847  -32.0885 H   0  0  0  0  0  0  0  0  0  0  0  0
   -1.3208   20.9565  -32.0885 H   0  0  0  0  0  0  0  0  0  0  0  0
   -0.4246   21.5580  -28.7311 H   0  0  0  0  0  0  0  0  0  0  0  0
   -0.1125   23.8931  -27.9360 H   0  0  0  0  0  0  0  0  0  0  0  0
   -1.7228   25.6685  -28.5931 H   0  0  0  0  0  0  0  0  0  0  0  0
   -5.4201   25.2559  -28.7027 H   0  0  0  0  0  0  0  0  0  0  0  0
   -5.8111   26.1385  -30.2176 H   0  0  0  0  0  0  0  0  0  0  0  0
   -5.7360   24.3438  -30.2176 H   0  0  0  0  0  0  0  0  0  0  0  0
   -4.8724   20.6016  -30.4940 H   0  0  0  0  0  0  0  0  0  0  0  0
   -7.9630   18.2983  -31.7827 H   0  0  0  0  0  0  0  0  0  0  0  0
   -8.4036   18.4113  -33.5287 H   0  0  0  0  0  0  0  0  0  0  0  0
   -6.1024   16.7892  -32.3306 H   0  0  0  0  0  0  0  0  0  0  0  0
   -7.6656   16.1530  -33.0099 H   0  0  0  0  0  0  0  0  0  0  0  0
   -5.6368   15.2482  -35.5210 H   0  0  0  0  0  0  0  0  0  0  0  0
   -3.2355   15.4060  -35.1614 H   0  0  0  0  0  0  0  0  0  0  0  0
   -3.7295   17.0996  -35.2854 H   0  0  0  0  0  0  0  0  0  0  0  0
   -2.3288   16.1587  -33.1393 H   0  0  0  0  0  0  0  0  0  0  0  0
   -3.5222   17.4494  -32.9365 H   0  0  0  0  0  0  0  0  0  0  0  0
   -3.6188   14.6551  -31.9868 H   0  0  0  0  0  0  0  0  0  0  0  0
   -4.7091   15.9911  -31.5602 H   0  0  0  0  0  0  0  0  0  0  0  0
   -5.0515   13.8315  -33.5904 H   0  0  0  0  0  0  0  0  0  0  0  0
   -6.2948   14.8592  -32.8501 H   0  0  0  0  0  0  0  0  0  0  0  0
   -4.7787   17.9445  -35.4412 H   0  0  0  0  0  0  0  0  0  0  0  0
   -6.4703   18.6305  -35.5477 H   0  0  0  0  0  0  0  0  0  0  0  0
   -4.6328   18.7191  -33.1154 H   0  0  0  0  0  0  0  0  0  0  0  0
   -5.0551   20.0919  -34.1953 H   0  0  0  0  0  0  0  0  0  0  0  0
   -6.2890   23.3200  -33.4650 H   0  0  0  0  0  0  0  0  0  0  0  0
  1  2  1  0
  2  3  1  0
  3  4  2  0
  4  5  1  0
  5  6  2  0
  6  7  1  0
  7  8  1  0
  8  9  1  0
  7 10  2  0
 10 11  1  0
 11 12  2  0
 12 13  1  0
 13 14  1  0
 14 15  2  0
 14 16  1  0
 16 17  1  0
 17 18  1  0
 18 19  1  0
 19 20  1  0
 20 21  1  0
 21 22  1  0
 22 23  1  0
 23 24  1  0
 19 25  1  0
 25 26  1  0
 13 27  2  0
 27 28  1  0
 10  3  1  0
 28 11  1  0
 26 16  1  0
 24 20  1  0
  1 29  1  0
  1 30  1  0
  1 31  1  0
  4 32  1  0
  5 33  1  0
  6 34  1  0
  9 35  1  0
  9 36  1  0
  9 37  1  0
 12 38  1  0
 17 39  1  0
 17 40  1  0
 18 41  1  0
 18 42  1  0
 20 43  1  0
 21 44  1  0
 21 45  1  0
 22 46  1  0
 22 47  1  0
 23 48  1  0
 23 49  1  0
 24 50  1  0
 24 51  1  0
 25 52  1  0
 25 53  1  0
 26 54  1  0
 26 55  1  0
 27 56  1  0
M  CHG  1  27   1
M  END
>  <UniqueID>  (20) 
17

>  <SMILES>  (20) 
COc1cccc(OC)c1-c1cc(C(=O)N2CCN(C3CCCC3)CC2)[nH+]o1

>  <Energy>  (20) 
109.40386648831114

>  <Genealogy>  (20) 
COc1cccc(OC)c1-c1cc(C(=O)N2CCN(C3CCCC3)CC2)[nH+]o1 (protonated)
COc1cccc(OC)c1-c1cc(C(=O)N2CCN(C3CCCC3)CC2)[nH+]o1 (3D coordinates assigned)
COc1cccc(OC)c1-c1cc(C(=O)N2CCN(C3CCCC3)CC2)[nH+]o1 (nonaromatic ring conformer: 109.40386648831114 kcal/mol)

>  <smiles>  (20) 
COc1cccc(OC)c1-c1cc(C(=O)N2CCN(C3CCCC3)CC2)no1

>  <score_type>  (20) 
oracle

>  <origin>  (20) 
adg

>  <m_score__min__energy>  (20) 
-8.3100000000000005

>  <m_primary>  (20) 
energy

$$$$
20:0
     RDKit          3D

 48 49  0  0  0  0  0  0  0  0999 V2000
    1.8630   21.7120  -35.2480 C   0  0  0  0  0  0  0  0  0  0  0  0
    0.4600   21.8550  -35.0340 O   0  0  0  0  0  0  0  0  0  0  0  0
   -0.2970   21.0430  -34.1780 C   0  0  0  0  0  0  0  0  0  0  0  0
   -0.7200   19.7490  -34.5410 C   0  0  0  0  0  0  0  0  0  0  0  0
   -1.4960   18.9920  -33.6600 C   0  0  0  0  0  0  0  0  0  0  0  0
   -1.8460   19.5070  -32.4090 C   0  0  0  0  0  0  0  0  0  0  0  0
   -1.4050   20.7870  -32.0180 C   0  0  0  0  0  0  0  0  0  0  0  0
   -1.7750   21.3590  -30.7500 N   0  0  0  0  0  0  0  0  0  0  0  0
   -1.4860   20.7580  -29.4790 C   0  0  0  0  0  0  0  0  0  0  0  0
   -0.4830   20.0080  -29.3400 O   0  0  0  0  0  0  0  0  0  0  0  0
   -2.4110   20.9720  -28.3180 C   0  0  0  0  0  0  0  0  0  0  0  0
   -3.0850   22.2780  -28.4600 N   0  0  0  0  0  0  0  0  0  0  0  0
   -4.2520   22.3630  -27.5700 C   0  0  0  0  0  0  0  0  0  0  0  0
   -2.1580   23.4130  -28.2250 C   0  0  0  0  0  0  0  0  0  0  0  0
   -2.4020   24.5080  -29.2190 C   0  0  0  0  0  0  0  0  0  0  0  0
   -2.0030   25.6750  -28.9570 O   0  0  0  0  0  0  0  0  0  0  0  0
   -3.0720   24.2300  -30.4560 N   0  0  0  0  0  0  0  0  0  0  0  0
   -4.4880   24.0620  -30.6040 C   0  0  0  0  0  0  0  0  0  0  0  0
   -5.3420   24.9340  -29.9110 C   0  0  0  0  0  0  0  0  0  0  0  0
   -6.7280   24.8060  -30.0220 C   0  0  0  0  0  0  0  0  0  0  0  0
   -7.5460   25.6650  -29.3580 F   0  0  0  0  0  0  0  0  0  0  0  0
   -7.2720   23.7910  -30.8110 C   0  0  0  0  0  0  0  0  0  0  0  0
   -6.4350   22.8930  -31.4790 C   0  0  0  0  0  0  0  0  0  0  0  0
   -5.0340   23.0070  -31.3710 C   0  0  0  0  0  0  0  0  0  0  0  0
   -4.1670   22.0820  -31.9800 O   0  0  0  0  0  0  0  0  0  0  0  0
   -4.5000   21.2790  -33.1100 C   0  0  0  0  0  0  0  0  0  0  0  0
   -0.6470   21.5500  -32.9190 C   0  0  0  0  0  0  0  0  0  0  0  0
    2.3784   21.6595  -34.2777 H   0  0  0  0  0  0  0  0  0  0  0  0
    2.0552   20.7896  -35.8157 H   0  0  0  0  0  0  0  0  0  0  0  0
    2.2373   22.5766  -35.8157 H   0  0  0  0  0  0  0  0  0  0  0  0
   -0.4386   19.3340  -35.5201 H   0  0  0  0  0  0  0  0  0  0  0  0
   -1.8329   17.9865  -33.9522 H   0  0  0  0  0  0  0  0  0  0  0  0
   -2.4687   18.9104  -31.7262 H   0  0  0  0  0  0  0  0  0  0  0  0
   -2.3220   22.2480  -30.7550 H   0  0  0  0  0  0  0  0  0  0  0  0
   -3.1645   20.1709  -28.2970 H   0  0  0  0  0  0  0  0  0  0  0  0
   -1.8338   20.9571  -27.3817 H   0  0  0  0  0  0  0  0  0  0  0  0
   -3.9169   22.3386  -26.5226 H   0  0  0  0  0  0  0  0  0  0  0  0
   -4.7909   23.3028  -27.7607 H   0  0  0  0  0  0  0  0  0  0  0  0
   -4.9214   21.5112  -27.7607 H   0  0  0  0  0  0  0  0  0  0  0  0
   -2.3164   23.8048  -27.2094 H   0  0  0  0  0  0  0  0  0  0  0  0
   -1.1239   23.0555  -28.3380 H   0  0  0  0  0  0  0  0  0  0  0  0
   -4.9161   25.7244  -29.2755 H   0  0  0  0  0  0  0  0  0  0  0  0
   -8.3638   23.6976  -30.9073 H   0  0  0  0  0  0  0  0  0  0  0  0
   -6.8723   22.0919  -32.0931 H   0  0  0  0  0  0  0  0  0  0  0  0
   -4.9005   20.3132  -32.7683 H   0  0  0  0  0  0  0  0  0  0  0  0
   -5.2578   21.7962  -33.7168 H   0  0  0  0  0  0  0  0  0  0  0  0
   -3.5986   21.1081  -33.7168 H   0  0  0  0  0  0  0  0  0  0  0  0
   -0.3225   22.5614  -32.6330 H   0  0  0  0  0  0  0  0  0  0  0  0
  1  2  1  0
  2  3  1  0
  3  4  2  0
  4  5  1  0
  5  6  2  0
  6  7  1  0
  7  8  1  0
  8  9  1  0
  9 10  2  0
  9 11  1  0
 11 12  1  0
 12 13  1  0
 12 14  1  0
 14 15  1  0
 15 16  2  0
 15 17  1  0
 17 18  1  0
 18 19  2  0
 19 20  1  0
 20 21  1  0
 20 22  2  0
 22 23  1  0
 23 24  2  0
 24 25  1  0
 25 26  1  0
  7 27  2  0
 27  3  1  0
 24 18  1  0
  1 28  1  0
  1 29  1  0
  1 30  1  0
  4 31  1  0
  5 32  1  0
  6 33  1  0
  8 34  1  0
 11 35  1  0
 11 36  1  0
 13 37  1  0
 13 38  1  0
 13 39  1  0
 14 40  1  0
 14 41  1  0
 19 42  1  0
 22 43  1  0
 23 44  1  0
 26 45  1  0
 26 46  1  0
 26 47  1  0
 27 48  1  0
M  CHG  1  17  -1
M  END
>  <UniqueID>  (21) 
18

>  <SMILES>  (21) 
COc1cccc(NC(=O)CN(C)CC(=O)[N-]c2cc(F)ccc2OC)c1

>  <Energy>  (21) 
53.73914242087285

>  <Genealogy>  (21) 
COc1cccc(NC(=O)CN(C)CC(=O)[N-]c2cc(F)ccc2OC)c1 (protonated)
COc1cccc(NC(=O)CN(C)CC(=O)[N-]c2cc(F)ccc2OC)c1 (3D coordinates assigned)
COc1cccc(NC(=O)CN(C)CC(=O)[N-]c2cc(F)ccc2OC)c1 (optimized conformer: 53.73914242087285 kcal/mol)

>  <smiles>  (21) 
COc1cccc(NC(=O)CN(C)CC(=O)Nc2cc(F)ccc2OC)c1

>  <score_type>  (21) 
oracle

>  <origin>  (21) 
adg

>  <m_score__min__energy>  (21) 
-9.4399999999999995

>  <m_primary>  (21) 
energy

$$$$
21:0
     RDKit          3D

 42 44  0  0  0  0  0  0  0  0999 V2000
   -6.8410   17.0000  -33.0520 C   0  0  0  0  0  0  0  0  0  0  0  0
   -7.2950   18.3860  -32.6770 C   0  0  0  0  0  0  0  0  0  0  0  0
   -8.3380   18.5300  -31.7450 C   0  0  0  0  0  0  0  0  0  0  0  0
   -8.7870   19.7950  -31.3680 C   0  0  0  0  0  0  0  0  0  0  0  0
   -8.1940   20.9360  -31.9060 C   0  0  0  0  0  0  0  0  0  0  0  0
   -7.1440   20.8140  -32.8160 C   0  0  0  0  0  0  0  0  0  0  0  0
   -6.6770   19.5470  -33.2120 C   0  0  0  0  0  0  0  0  0  0  0  0
   -5.5420   19.4800  -34.2140 C   0  0  0  0  0  0  0  0  0  0  0  0
   -4.1800   19.3270  -33.5300 C   0  0  0  0  0  0  0  0  0  0  0  0
   -3.4420   20.6020  -33.5600 N   0  0  0  0  0  0  0  0  0  0  0  0
   -2.3540   20.6110  -32.5740 C   0  0  0  0  0  0  0  0  0  0  0  0
   -2.9040   20.7760  -31.1530 C   0  0  0  0  0  0  0  0  0  0  0  0
   -3.4730   22.1540  -30.9300 C   0  0  0  0  0  0  0  0  0  0  0  0
   -4.7620   22.4810  -31.3950 C   0  0  0  0  0  0  0  0  0  0  0  0
   -5.2990   23.7640  -31.1840 C   0  0  0  0  0  0  0  0  0  0  0  0
   -4.5640   24.7420  -30.4950 C   0  0  0  0  0  0  0  0  0  0  0  0
   -5.1180   26.0050  -30.2850 O   0  0  0  0  0  0  0  0  0  0  0  0
   -3.2850   24.4160  -30.0270 C   0  0  0  0  0  0  0  0  0  0  0  0
   -2.4780   25.2680  -29.3400 N   0  0  0  0  0  0  0  0  0  0  0  0
   -1.3150   24.6610  -29.0130 C   0  0  0  0  0  0  0  0  0  0  0  0
   -0.4010   25.2410  -28.3700 O   0  0  0  0  0  0  0  0  0  0  0  0
   -1.2270   23.0640  -29.5500 S   0  0  0  0  0  0  0  0  0  0  0  0
   -2.7610   23.1460  -30.2410 C   0  0  0  0  0  0  0  0  0  0  0  0
   -6.6501   16.4171  -32.1389 H   0  0  0  0  0  0  0  0  0  0  0  0
   -7.6242   16.5057  -33.6455 H   0  0  0  0  0  0  0  0  0  0  0  0
   -5.9171   17.0648  -33.6455 H   0  0  0  0  0  0  0  0  0  0  0  0
   -8.8049   17.6347  -31.3085 H   0  0  0  0  0  0  0  0  0  0  0  0
   -9.6103   19.8927  -30.6451 H   0  0  0  0  0  0  0  0  0  0  0  0
   -8.5543   21.9331  -31.6128 H   0  0  0  0  0  0  0  0  0  0  0  0
   -6.6752   21.7193  -33.2292 H   0  0  0  0  0  0  0  0  0  0  0  0
   -5.7048   18.6180  -34.8777 H   0  0  0  0  0  0  0  0  0  0  0  0
   -5.5333   20.4228  -34.7806 H   0  0  0  0  0  0  0  0  0  0  0  0
   -4.3322   19.0212  -32.4844 H   0  0  0  0  0  0  0  0  0  0  0  0
   -3.5958   18.5648  -34.0664 H   0  0  0  0  0  0  0  0  0  0  0  0
   -3.0190   20.7180  -34.5110 H   0  0  0  0  0  0  0  0  0  0  0  0
   -1.8019   19.6617  -32.6384 H   0  0  0  0  0  0  0  0  0  0  0  0
   -1.6883   21.4587  -32.7935 H   0  0  0  0  0  0  0  0  0  0  0  0
   -3.6978   20.0322  -30.9897 H   0  0  0  0  0  0  0  0  0  0  0  0
   -2.0742   20.6299  -30.4458 H   0  0  0  0  0  0  0  0  0  0  0  0
   -5.3554   21.7244  -31.9292 H   0  0  0  0  0  0  0  0  0  0  0  0
   -6.3039   24.0032  -31.5622 H   0  0  0  0  0  0  0  0  0  0  0  0
   -5.1540   26.4260  -29.3650 H   0  0  0  0  0  0  0  0  0  0  0  0
  1  2  1  0
  2  3  2  0
  3  4  1  0
  4  5  2  0
  5  6  1  0
  6  7  2  0
  7  8  1  0
  8  9  1  0
  9 10  1  0
 10 11  1  0
 11 12  1  0
 12 13  1  0
 13 14  2  0
 14 15  1  0
 15 16  2  0
 16 17  1  0
 16 18  1  0
 18 19  1  0
 19 20  1  0
 20 21  2  0
 20 22  1  0
 22 23  1  0
  7  2  1  0
 23 13  1  0
 23 18  2  0
  1 24  1  0
  1 25  1  0
  1 26  1  0
  3 27  1  0
  4 28  1  0
  5 29  1  0
  6 30  1  0
  8 31  1  0
  8 32  1  0
  9 33  1  0
  9 34  1  0
 10 35  1  0
 11 36  1  0
 11 37  1  0
 12 38  1  0
 12 39  1  0
 14 40  1  0
 15 41  1  0
 17 42  1  0
M  CHG  1  19  -1
M  END
>  <UniqueID>  (22) 
19

>  <SMILES>  (22) 
Cc1ccccc1CCNCCc1ccc(O)c2[n-]c(=O)sc12

>  <Energy>  (22) 
69.59476990471076

>  <Genealogy>  (22) 
Cc1ccccc1CCNCCc1ccc(O)c2[n-]c(=O)sc12 (protonated)
Cc1ccccc1CCNCCc1ccc(O)c2[n-]c(=O)sc12 (3D coordinates assigned)
Cc1ccccc1CCNCCc1ccc(O)c2[n-]c(=O)sc12 (optimized conformer: 69.59476990471076 kcal/mol)

>  <smiles>  (22) 
Cc1ccccc1CCNCCc1ccc(O)c2[nH]c(=O)sc12

>  <score_type>  (22) 
oracle

>  <origin>  (22) 
adg

>  <m_score__min__energy>  (22) 
-10.25

>  <m_primary>  (22) 
energy

$$$$
22:0
     RDKit          3D

 61 66  0  0  0  0  0  0  0  0999 V2000
    2.0000   18.9550  -33.1990 C   0  0  0  0  0  0  0  0  0  0  0  0
    2.3640   18.9280  -31.8220 O   0  0  0  0  0  0  0  0  0  0  0  0
    1.4750   19.0950  -30.7490 C   0  0  0  0  0  0  0  0  0  0  0  0
    0.4770   20.0890  -30.7880 C   0  0  0  0  0  0  0  0  0  0  0  0
   -0.4150   20.2630  -29.7210 C   0  0  0  0  0  0  0  0  0  0  0  0
   -1.4990   21.3320  -29.8020 C   0  0  1  0  0  0  0  0  0  0  0  0
   -1.0950   22.6550  -29.1690 C   0  0  0  0  0  0  0  0  0  0  0  0
    0.0150   22.7730  -28.2910 C   0  0  0  0  0  0  0  0  0  0  0  0
    0.2870   24.0160  -27.7370 C   0  0  0  0  0  0  0  0  0  0  0  0
   -0.4870   25.0980  -27.9820 C   0  0  0  0  0  0  0  0  0  0  0  0
   -1.6080   25.0320  -28.8000 C   0  0  0  0  0  0  0  0  0  0  0  0
   -1.9210   23.7930  -29.4140 C   0  0  0  0  0  0  0  0  0  0  0  0
   -3.2180   23.6010  -30.1830 C   0  0  1  0  0  0  0  0  0  0  0  0
   -3.7510   24.8910  -30.6240 N   0  0  0  0  0  0  0  0  0  0  0  0
   -5.1380   25.2460  -30.6040 C   0  0  0  0  0  0  0  0  0  0  0  0
   -5.4890   26.4460  -30.4520 O   0  0  0  0  0  0  0  0  0  0  0  0
   -6.1540   24.2020  -30.7840 C   0  0  0  0  0  0  0  0  0  0  0  0
   -6.6760   23.3860  -29.7890 C   0  0  0  0  0  0  0  0  0  0  0  0
   -7.6400   22.4860  -30.2620 C   0  0  0  0  0  0  0  0  0  0  0  0
   -7.8770   22.5880  -31.6260 C   0  0  0  0  0  0  0  0  0  0  0  0
   -6.8880   23.7990  -32.2440 S   0  0  0  0  0  0  0  0  0  0  0  0
   -3.0260   22.6720  -31.4170 C   0  0  2  0  0  0  0  0  0  0  0  0
   -4.3220   21.9160  -31.8060 C   0  0  0  0  0  0  0  0  0  0  0  0
   -3.9110   20.6180  -32.1900 O   0  0  0  0  0  0  0  0  0  0  0  0
   -2.5910   20.3950  -31.8730 C   0  0  0  0  0  0  0  0  0  0  0  0
   -2.0100   19.3060  -32.1180 O   0  0  0  0  0  0  0  0  0  0  0  0
   -1.9290   21.5800  -31.2710 C   0  0  2  0  0  0  0  0  0  0  0  0
    0.0070   26.1860  -27.2890 O   0  0  0  0  0  0  0  0  0  0  0  0
    1.1650   25.7570  -26.5610 C   0  0  0  0  0  0  0  0  0  0  0  0
    1.3080   24.3650  -26.8750 O   0  0  0  0  0  0  0  0  0  0  0  0
   -0.3040   19.4310  -28.5980 C   0  0  0  0  0  0  0  0  0  0  0  0
    0.6840   18.4340  -28.5360 C   0  0  0  0  0  0  0  0  0  0  0  0
    0.8120   17.5870  -27.4230 O   0  0  0  0  0  0  0  0  0  0  0  0
    0.7810   16.1650  -27.4800 C   0  0  0  0  0  0  0  0  0  0  0  0
    1.5740   18.2580  -29.6080 C   0  0  0  0  0  0  0  0  0  0  0  0
    2.5300   17.2320  -29.4710 O   0  0  0  0  0  0  0  0  0  0  0  0
    2.8440   16.2310  -30.4330 C   0  0  0  0  0  0  0  0  0  0  0  0
    0.9066   19.0361  -33.2877 H   0  0  0  0  0  0  0  0  0  0  0  0
    2.4726   19.8206  -33.6863 H   0  0  0  0  0  0  0  0  0  0  0  0
    2.3397   18.0292  -33.6863 H   0  0  0  0  0  0  0  0  0  0  0  0
    0.3966   20.7397  -31.6712 H   0  0  0  0  0  0  0  0  0  0  0  0
   -2.3456   20.9344  -29.2231 H   0  0  0  0  0  0  0  0  0  0  0  0
    0.6433   21.9012  -28.0560 H   0  0  0  0  0  0  0  0  0  0  0  0
   -2.2370   25.9188  -28.9671 H   0  0  0  0  0  0  0  0  0  0  0  0
   -3.9323   23.1220  -29.4971 H   0  0  0  0  0  0  0  0  0  0  0  0
   -6.3641   23.4407  -28.7356 H   0  0  0  0  0  0  0  0  0  0  0  0
   -8.1603   21.7660  -29.6133 H   0  0  0  0  0  0  0  0  0  0  0  0
   -8.5896   21.9807  -32.2034 H   0  0  0  0  0  0  0  0  0  0  0  0
   -2.7177   23.3924  -32.1890 H   0  0  0  0  0  0  0  0  0  0  0  0
   -5.0067   21.8624  -30.9467 H   0  0  0  0  0  0  0  0  0  0  0  0
   -4.8603   22.4268  -32.6180 H   0  0  0  0  0  0  0  0  0  0  0  0
   -0.9817   21.8570  -31.7566 H   0  0  0  0  0  0  0  0  0  0  0  0
    2.0540   26.3190  -26.8831 H   0  0  0  0  0  0  0  0  0  0  0  0
    1.0588   25.9272  -25.4794 H   0  0  0  0  0  0  0  0  0  0  0  0
   -0.9989   19.5604  -27.7552 H   0  0  0  0  0  0  0  0  0  0  0  0
    0.7721   15.7572  -26.4584 H   0  0  0  0  0  0  0  0  0  0  0  0
   -0.1245   15.8390  -28.0128 H   0  0  0  0  0  0  0  0  0  0  0  0
    1.6714   15.7999  -28.0128 H   0  0  0  0  0  0  0  0  0  0  0  0
    3.1347   15.3044  -29.9164 H   0  0  0  0  0  0  0  0  0  0  0  0
    1.9630   16.0387  -31.0630 H   0  0  0  0  0  0  0  0  0  0  0  0
    3.6770   16.5764  -31.0630 H   0  0  0  0  0  0  0  0  0  0  0  0
  1  2  1  0
  2  3  1  0
  3  4  2  0
  4  5  1  0
  5  6  1  0
  6  7  1  0
  7  8  2  0
  8  9  1  0
  9 10  2  0
 10 11  1  0
 11 12  2  0
 12 13  1  0
 13 14  1  0
 14 15  1  0
 15 16  2  0
 15 17  1  0
 17 18  2  0
 18 19  1  0
 19 20  2  0
 20 21  1  0
 13 22  1  0
 22 23  1  0
 23 24  1  0
 24 25  1  0
 25 26  2  0
 25 27  1  0
 10 28  1  0
 28 29  1  0
 29 30  1  0
  5 31  2  0
 31 32  1  0
 32 33  1  0
 33 34  1  0
 32 35  2  0
 35 36  1  0
 36 37  1  0
 35  3  1  0
 27  6  1  0
 12  7  1  0
 21 17  1  0
 27 22  1  0
 30  9  1  0
  1 38  1  0
  1 39  1  0
  1 40  1  0
  4 41  1  0
  6 42  1  1
  8 43  1  0
 11 44  1  0
 13 45  1  1
 18 46  1  0
 19 47  1  0
 20 48  1  0
 22 49  1  6
 23 50  1  0
 23 51  1  0
 27 52  1  6
 29 53  1  0
 29 54  1  0
 31 55  1  0
 34 56  1  0
 34 57  1  0
 34 58  1  0
 37 59  1  0
 37 60  1  0
 37 61  1  0
M  CHG  1  14  -1
M  END
>  <UniqueID>  (23) 
20

>  <SMILES>  (23) 
COc1cc([C@H]2c3cc4c(cc3[C@@H]([N-]C(=O)c3cccs3)C3COC(=O)C32)OCO4)cc(OC)c1OC

>  <Energy>  (23) 
140.3687041513176

>  <Genealogy>  (23) 
COc1cc(C2c3cc4c(cc3C([N-]C(=O)c3cccs3)C3COC(=O)C23)OCO4)cc(OC)c1OC (protonated)
COc1cc([C@H]2c3cc4c(cc3[C@@H]([N-]C(=O)c3cccs3)C3COC(=O)C32)OCO4)cc(OC)c1OC (chirality)
COc1cc([C@H]2c3cc4c(cc3[C@@H]([N-]C(=O)c3cccs3)C3COC(=O)C32)OCO4)cc(OC)c1OC (3D coordinates assigned)
COc1cc([C@H]2c3cc4c(cc3[C@@H]([N-]C(=O)c3cccs3)C3COC(=O)C32)OCO4)cc(OC)c1OC (nonaromatic ring conformer: 140.3687041513176 kcal/mol)

>  <smiles>  (23) 
COc1cc(C2c3cc4c(cc3C(NC(=O)c3cccs3)C3COC(=O)C23)OCO4)cc(OC)c1OC

>  <score_type>  (23) 
oracle

>  <origin>  (23) 
adg

>  <m_score__min__energy>  (23) 
-9.9299999999999997

>  <m_primary>  (23) 
energy

$$$$
23:0
     RDKit          3D

 42 43  0  0  0  0  0  0  0  0999 V2000
   -2.9640   20.2630  -31.9440 C   0  0  0  0  0  0  0  0  0  0  0  0
   -2.2470   21.6150  -31.8190 C   0  0  0  0  0  0  0  0  0  0  0  0
   -2.4810   22.3340  -30.5340 N   0  0  0  0  0  0  0  0  0  0  0  0
   -2.9870   21.4520  -29.4490 C   0  0  0  0  0  0  0  0  0  0  0  0
   -1.8720   20.7670  -28.6510 C   0  0  0  0  0  0  0  0  0  0  0  0
   -1.2920   23.0800  -30.0440 C   0  0  0  0  0  0  0  0  0  0  0  0
   -1.6400   24.1670  -29.0040 C   0  0  0  0  0  0  0  0  0  0  0  0
   -3.1170   24.5620  -29.0630 C   0  0  0  0  0  0  0  0  0  0  0  0
   -3.5280   24.7730  -30.4460 N   0  0  0  0  0  0  0  0  0  0  0  0
   -4.8900   24.9760  -30.8290 C   0  0  0  0  0  0  0  0  0  0  0  0
   -5.3910   26.1330  -30.8060 O   0  0  0  0  0  0  0  0  0  0  0  0
   -5.7110   23.8330  -31.2490 C   0  0  0  0  0  0  0  0  0  0  0  0
   -7.0200   23.5790  -30.8360 C   0  0  0  0  0  0  0  0  0  0  0  0
   -7.5410   22.4120  -31.4040 C   0  0  0  0  0  0  0  0  0  0  0  0
   -8.8190   21.8890  -31.1910 C   0  0  0  0  0  0  0  0  0  0  0  0
   -9.1810   20.6990  -31.8460 C   0  0  0  0  0  0  0  0  0  0  0  0
   -8.2710   20.0490  -32.7020 C   0  0  0  0  0  0  0  0  0  0  0  0
   -6.9890   20.5830  -32.9100 C   0  0  0  0  0  0  0  0  0  0  0  0
   -6.6540   21.7630  -32.2510 C   0  0  0  0  0  0  0  0  0  0  0  0
   -5.2080   22.6160  -32.3140 S   0  0  0  0  0  0  0  0  0  0  0  0
   -3.1748   19.8656  -30.9402 H   0  0  0  0  0  0  0  0  0  0  0  0
   -3.9089   20.3982  -32.4907 H   0  0  0  0  0  0  0  0  0  0  0  0
   -2.3220   19.5566  -32.4907 H   0  0  0  0  0  0  0  0  0  0  0  0
   -1.1659   21.4389  -31.9199 H   0  0  0  0  0  0  0  0  0  0  0  0
   -2.6598   22.2571  -32.6110 H   0  0  0  0  0  0  0  0  0  0  0  0
   -3.2290   23.0460  -30.7180 H   0  0  0  0  0  0  0  0  0  0  0  0
   -3.5878   22.0603  -28.7569 H   0  0  0  0  0  0  0  0  0  0  0  0
   -3.5795   20.6576  -29.9263 H   0  0  0  0  0  0  0  0  0  0  0  0
   -2.0653   20.8858  -27.5747 H   0  0  0  0  0  0  0  0  0  0  0  0
   -1.8454   19.6965  -28.9028 H   0  0  0  0  0  0  0  0  0  0  0  0
   -0.9051   21.2271  -28.9028 H   0  0  0  0  0  0  0  0  0  0  0  0
   -0.5966   22.3640  -29.5816 H   0  0  0  0  0  0  0  0  0  0  0  0
   -0.8462   23.5891  -30.9112 H   0  0  0  0  0  0  0  0  0  0  0  0
   -1.4149   23.7820  -27.9985 H   0  0  0  0  0  0  0  0  0  0  0  0
   -1.0392   25.0601  -29.2307 H   0  0  0  0  0  0  0  0  0  0  0  0
   -3.7256   23.7589  -28.6218 H   0  0  0  0  0  0  0  0  0  0  0  0
   -3.2611   25.4958  -28.4997 H   0  0  0  0  0  0  0  0  0  0  0  0
   -7.5788   24.2241  -30.1420 H   0  0  0  0  0  0  0  0  0  0  0  0
   -9.5288   22.3990  -30.5231 H   0  0  0  0  0  0  0  0  0  0  0  0
  -10.1826   20.2723  -31.6887 H   0  0  0  0  0  0  0  0  0  0  0  0
   -8.5658   19.1189  -33.2099 H   0  0  0  0  0  0  0  0  0  0  0  0
   -6.2694   20.0830  -33.5750 H   0  0  0  0  0  0  0  0  0  0  0  0
  1  2  1  0
  2  3  1  0
  3  4  1  0
  4  5  1  0
  3  6  1  0
  6  7  1  0
  7  8  1  0
  8  9  1  0
  9 10  1  0
 10 11  2  0
 10 12  1  0
 12 13  2  0
 13 14  1  0
 14 15  2  0
 15 16  1  0
 16 17  2  0
 17 18  1  0
 18 19  2  0
 19 20  1  0
 20 12  1  0
 19 14  1  0
  1 21  1  0
  1 22  1  0
  1 23  1  0
  2 24  1  0
  2 25  1  0
  3 26  1  0
  4 27  1  0
  4 28  1  0
  5 29  1  0
  5 30  1  0
  5 31  1  0
  6 32  1  0
  6 33  1  0
  7 34  1  0
  7 35  1  0
  8 36  1  0
  8 37  1  0
 13 38  1  0
 15 39  1  0
 16 40  1  0
 17 41  1  0
 18 42  1  0
M  CHG  2   3   1   9  -1
M  END
>  <UniqueID>  (24) 
21

>  <SMILES>  (24) 
CC[NH+](CC)CCC[N-]C(=O)c1cc2ccccc2s1

>  <Energy>  (24) 
69.74319048096025

>  <Genealogy>  (24) 
CC[NH+](CC)CCC[N-]C(=O)c1cc2ccccc2s1 (protonated)
CC[NH+](CC)CCC[N-]C(=O)c1cc2ccccc2s1 (3D coordinates assigned)
CC[NH+](CC)CCC[N-]C(=O)c1cc2ccccc2s1 (optimized conformer: 69.74319048096025 kcal/mol)

>  <smiles>  (24) 
CCN(CC)CCCNC(=O)c1cc2ccccc2s1

>  <score_type>  (24) 
oracle

>  <origin>  (24) 
adg

>  <m_score__min__energy>  (24) 
-7.5

>  <m_primary>  (24) 
energy

$$$$
24:0
     RDKit          3D

 50 51  0  0  0  0  0  0  0  0999 V2000
   -6.4850   17.0020  -33.0820 C   0  0  0  0  0  0  0  0  0  0  0  0
   -6.7500   18.0280  -31.9790 C   0  0  0  0  0  0  0  0  0  0  0  0
   -6.6050   19.4070  -32.5000 N   0  0  0  0  0  0  0  0  0  0  0  0
   -7.9260   20.0020  -32.8090 C   0  0  0  0  0  0  0  0  0  0  0  0
   -9.0190   19.3000  -32.0110 C   0  0  0  0  0  0  0  0  0  0  0  0
   -5.7230   19.4420  -33.6880 C   0  0  0  0  0  0  0  0  0  0  0  0
   -4.3510   19.9200  -33.2940 C   0  0  0  0  0  0  0  0  0  0  0  0
   -3.2080   19.3970  -33.9150 C   0  0  0  0  0  0  0  0  0  0  0  0
   -1.9400   19.8440  -33.5400 C   0  0  0  0  0  0  0  0  0  0  0  0
   -1.8030   20.8080  -32.5400 C   0  0  0  0  0  0  0  0  0  0  0  0
   -2.9330   21.3400  -31.8960 C   0  0  0  0  0  0  0  0  0  0  0  0
   -2.7420   22.3350  -30.8700 N   0  0  0  0  0  0  0  0  0  0  0  0
   -2.7730   22.0930  -29.4250 C   0  0  0  0  0  0  0  0  0  0  0  0
   -3.1180   23.3750  -28.6640 C   0  0  0  0  0  0  0  0  0  0  0  0
   -2.9130   24.6000  -29.5010 C   0  0  0  0  0  0  0  0  0  0  0  0
   -1.8770   25.3010  -29.3370 O   0  0  0  0  0  0  0  0  0  0  0  0
   -3.8690   24.9310  -30.5180 N   0  0  0  0  0  0  0  0  0  0  0  0
   -5.1200   24.2700  -30.7600 C   0  0  0  0  0  0  0  0  0  0  0  0
   -6.0350   23.9960  -29.7240 C   0  0  0  0  0  0  0  0  0  0  0  0
   -7.2350   23.3350  -30.0030 C   0  0  0  0  0  0  0  0  0  0  0  0
   -7.5260   22.9310  -31.3080 C   0  0  0  0  0  0  0  0  0  0  0  0
   -6.6100   23.1720  -32.3340 C   0  0  0  0  0  0  0  0  0  0  0  0
   -5.4070   23.8270  -32.0580 C   0  0  0  0  0  0  0  0  0  0  0  0
   -4.2100   20.8920  -32.2890 C   0  0  0  0  0  0  0  0  0  0  0  0
   -6.2344   16.0319  -32.6279 H   0  0  0  0  0  0  0  0  0  0  0  0
   -7.3846   16.8935  -33.7057 H   0  0  0  0  0  0  0  0  0  0  0  0
   -5.6454   17.3427  -33.7057 H   0  0  0  0  0  0  0  0  0  0  0  0
   -7.7727   17.8919  -31.5976 H   0  0  0  0  0  0  0  0  0  0  0  0
   -6.0180   17.8763  -31.1720 H   0  0  0  0  0  0  0  0  0  0  0  0
   -7.9137   21.0702  -32.5467 H   0  0  0  0  0  0  0  0  0  0  0  0
   -8.1318   19.8814  -33.8828 H   0  0  0  0  0  0  0  0  0  0  0  0
   -8.8251   19.4245  -30.9354 H   0  0  0  0  0  0  0  0  0  0  0  0
   -9.9956   19.7402  -32.2609 H   0  0  0  0  0  0  0  0  0  0  0  0
   -9.0249   18.2288  -32.2609 H   0  0  0  0  0  0  0  0  0  0  0  0
   -5.6481   18.4316  -34.1165 H   0  0  0  0  0  0  0  0  0  0  0  0
   -6.1465   20.1316  -34.4331 H   0  0  0  0  0  0  0  0  0  0  0  0
   -3.3107   18.6327  -34.6995 H   0  0  0  0  0  0  0  0  0  0  0  0
   -1.0461   19.4354  -34.0340 H   0  0  0  0  0  0  0  0  0  0  0  0
   -0.7995   21.1551  -32.2529 H   0  0  0  0  0  0  0  0  0  0  0  0
   -2.5820   23.3240  -31.1680 H   0  0  0  0  0  0  0  0  0  0  0  0
   -3.5318   21.3278  -29.2042 H   0  0  0  0  0  0  0  0  0  0  0  0
   -1.7779   21.7510  -29.1045 H   0  0  0  0  0  0  0  0  0  0  0  0
   -4.1723   23.3301  -28.3533 H   0  0  0  0  0  0  0  0  0  0  0  0
   -2.4479   23.4432  -27.7943 H   0  0  0  0  0  0  0  0  0  0  0  0
   -5.8046   24.3029  -28.6931 H   0  0  0  0  0  0  0  0  0  0  0  0
   -7.9514   23.1327  -29.1931 H   0  0  0  0  0  0  0  0  0  0  0  0
   -8.4767   22.4230  -31.5275 H   0  0  0  0  0  0  0  0  0  0  0  0
   -6.8356   22.8460  -33.3601 H   0  0  0  0  0  0  0  0  0  0  0  0
   -4.6798   23.9961  -32.8658 H   0  0  0  0  0  0  0  0  0  0  0  0
   -5.1057   21.3075  -31.8041 H   0  0  0  0  0  0  0  0  0  0  0  0
  1  2  1  0
  2  3  1  0
  3  4  1  0
  4  5  1  0
  3  6  1  0
  6  7  1  0
  7  8  2  0
  8  9  1  0
  9 10  2  0
 10 11  1  0
 11 12  1  0
 12 13  1  0
 13 14  1  0
 14 15  1  0
 15 16  2  0
 15 17  1  0
 17 18  1  0
 18 19  2  0
 19 20  1  0
 20 21  2  0
 21 22  1  0
 22 23  2  0
 11 24  2  0
 24  7  1  0
 23 18  1  0
  1 25  1  0
  1 26  1  0
  1 27  1  0
  2 28  1  0
  2 29  1  0
  4 30  1  0
  4 31  1  0
  5 32  1  0
  5 33  1  0
  5 34  1  0
  6 35  1  0
  6 36  1  0
  8 37  1  0
  9 38  1  0
 10 39  1  0
 12 40  1  0
 13 41  1  0
 13 42  1  0
 14 43  1  0
 14 44  1  0
 19 45  1  0
 20 46  1  0
 21 47  1  0
 22 48  1  0
 23 49  1  0
 24 50  1  0
M  CHG  1  17  -1
M  END
>  <UniqueID>  (25) 
22

>  <SMILES>  (25) 
CCN(CC)Cc1cccc(NCCC(=O)[N-]c2ccccc2)c1

>  <Energy>  (25) 
44.64873064612588

>  <Genealogy>  (25) 
CCN(CC)Cc1cccc(NCCC(=O)[N-]c2ccccc2)c1 (protonated)
CCN(CC)Cc1cccc(NCCC(=O)[N-]c2ccccc2)c1 (3D coordinates assigned)
CCN(CC)Cc1cccc(NCCC(=O)[N-]c2ccccc2)c1 (optimized conformer: 44.64873064612588 kcal/mol)

>  <smiles>  (25) 
CCN(CC)Cc1cccc(NCCC(=O)Nc2ccccc2)c1

>  <score_type>  (25) 
oracle

>  <origin>  (25) 
adg

>  <m_score__min__energy>  (25) 
-9.6400000000000006

>  <m_primary>  (25) 
energy

$$$$
25:0
     RDKit          3D

 48 50  0  0  0  0  0  0  0  0999 V2000
   -1.9410   25.1480  -27.7950 C   0  0  0  0  0  0  0  0  0  0  0  0
   -3.0020   24.5230  -26.8930 C   0  0  0  0  0  0  0  0  0  0  0  0
   -4.2370   24.0510  -27.6720 C   0  0  0  0  0  0  0  0  0  0  0  0
   -3.8890   23.5690  -29.0160 N   0  0  0  0  0  0  0  0  0  0  0  0
   -4.2450   24.1030  -30.2020 C   0  0  0  0  0  0  0  0  0  0  0  0
   -5.3160   25.5280  -30.4140 S   0  0  0  0  0  0  0  0  0  0  0  0
   -6.8690   24.5690  -30.3540 C   0  0  0  0  0  0  0  0  0  0  0  0
   -6.8490   23.4930  -31.3940 C   0  0  0  0  0  0  0  0  0  0  0  0
   -7.4680   23.6700  -32.4770 O   0  0  0  0  0  0  0  0  0  0  0  0
   -6.0710   22.3060  -31.1800 N   0  0  0  0  0  0  0  0  0  0  0  0
   -6.1060   21.1530  -32.0380 C   0  0  0  0  0  0  0  0  0  0  0  0
   -7.2760   20.3880  -32.1920 C   0  0  0  0  0  0  0  0  0  0  0  0
   -7.2770   19.2580  -33.0150 C   0  0  0  0  0  0  0  0  0  0  0  0
   -6.1050   18.8580  -33.6730 C   0  0  0  0  0  0  0  0  0  0  0  0
   -6.1190   17.6660  -34.5830 C   0  0  0  0  0  0  0  0  0  0  0  0
   -4.9360   19.6160  -33.5150 C   0  0  0  0  0  0  0  0  0  0  0  0
   -4.9330   20.7470  -32.6930 C   0  0  0  0  0  0  0  0  0  0  0  0
   -3.6940   23.4350  -31.2330 N   0  0  0  0  0  0  0  0  0  0  0  0
   -2.9560   22.4660  -30.7150 N   0  0  0  0  0  0  0  0  0  0  0  0
   -3.0820   22.5450  -29.3760 C   0  0  0  0  0  0  0  0  0  0  0  0
   -2.3810   21.6320  -28.4550 C   0  0  0  0  0  0  0  0  0  0  0  0
   -3.0800   20.6240  -27.7720 C   0  0  0  0  0  0  0  0  0  0  0  0
   -2.4000   19.7560  -26.9120 C   0  0  0  0  0  0  0  0  0  0  0  0
   -1.0180   19.8800  -26.7400 C   0  0  0  0  0  0  0  0  0  0  0  0
   -0.3130   20.8660  -27.4360 C   0  0  0  0  0  0  0  0  0  0  0  0
   -0.9900   21.7350  -28.2980 C   0  0  0  0  0  0  0  0  0  0  0  0
   -1.1581   25.6092  -27.1750 H   0  0  0  0  0  0  0  0  0  0  0  0
   -1.4943   24.3687  -28.4300 H   0  0  0  0  0  0  0  0  0  0  0  0
   -2.4060   25.9165  -28.4300 H   0  0  0  0  0  0  0  0  0  0  0  0
   -2.5599   23.6583  -26.3764 H   0  0  0  0  0  0  0  0  0  0  0  0
   -3.3319   25.2956  -26.1829 H   0  0  0  0  0  0  0  0  0  0  0  0
   -4.7173   23.2332  -27.1147 H   0  0  0  0  0  0  0  0  0  0  0  0
   -4.9164   24.9088  -27.7840 H   0  0  0  0  0  0  0  0  0  0  0  0
   -6.9761   24.1117  -29.3593 H   0  0  0  0  0  0  0  0  0  0  0  0
   -7.7162   25.2429  -30.5491 H   0  0  0  0  0  0  0  0  0  0  0  0
   -5.3700   22.3190  -30.4040 H   0  0  0  0  0  0  0  0  0  0  0  0
   -8.1947   20.6802  -31.6623 H   0  0  0  0  0  0  0  0  0  0  0  0
   -8.2029   18.6790  -33.1473 H   0  0  0  0  0  0  0  0  0  0  0  0
   -6.1298   16.7453  -33.9811 H   0  0  0  0  0  0  0  0  0  0  0  0
   -7.0168   17.6997  -35.2177 H   0  0  0  0  0  0  0  0  0  0  0  0
   -5.2206   17.6786  -35.2177 H   0  0  0  0  0  0  0  0  0  0  0  0
   -4.0164   19.3192  -34.0406 H   0  0  0  0  0  0  0  0  0  0  0  0
   -4.0052   21.3224  -32.5588 H   0  0  0  0  0  0  0  0  0  0  0  0
   -4.1655   20.5167  -27.9138 H   0  0  0  0  0  0  0  0  0  0  0  0
   -2.9531   18.9747  -26.3701 H   0  0  0  0  0  0  0  0  0  0  0  0
   -0.4856   19.2017  -26.0570 H   0  0  0  0  0  0  0  0  0  0  0  0
    0.7753   20.9587  -27.3057 H   0  0  0  0  0  0  0  0  0  0  0  0
   -0.4306   22.5014  -28.8545 H   0  0  0  0  0  0  0  0  0  0  0  0
  1  2  1  0
  2  3  1  0
  3  4  1  0
  4  5  1  0
  5  6  1  0
  6  7  1  0
  7  8  1  0
  8  9  2  0
  8 10  1  0
 10 11  1  0
 11 12  2  0
 12 13  1  0
 13 14  2  0
 14 15  1  0
 14 16  1  0
 16 17  2  0
  5 18  2  0
 18 19  1  0
 19 20  2  0
 20 21  1  0
 21 22  2  0
 22 23  1  0
 23 24  2  0
 24 25  1  0
 25 26  2  0
 20  4  1  0
 26 21  1  0
 17 11  1  0
  1 27  1  0
  1 28  1  0
  1 29  1  0
  2 30  1  0
  2 31  1  0
  3 32  1  0
  3 33  1  0
  7 34  1  0
  7 35  1  0
 10 36  1  0
 12 37  1  0
 13 38  1  0
 15 39  1  0
 15 40  1  0
 15 41  1  0
 16 42  1  0
 17 43  1  0
 22 44  1  0
 23 45  1  0
 24 46  1  0
 25 47  1  0
 26 48  1  0
M  END
>  <UniqueID>  (26) 
23

>  <SMILES>  (26) 
CCCn1c(SCC(=O)Nc2ccc(C)cc2)nnc1-c1ccccc1

>  <Energy>  (26) 
83.1387274901752

>  <Genealogy>  (26) 
CCCn1c(SCC(=O)Nc2ccc(C)cc2)nnc1-c1ccccc1 (3D coordinates assigned)
CCCn1c(SCC(=O)Nc2ccc(C)cc2)nnc1-c1ccccc1 (optimized conformer: 83.1387274901752 kcal/mol)

>  <smiles>  (26) 
CCCn1c(SCC(=O)Nc2ccc(C)cc2)nnc1-c1ccccc1

>  <score_type>  (26) 
oracle

>  <origin>  (26) 
adg

>  <m_score__min__energy>  (26) 
-9.7699999999999996

>  <m_primary>  (26) 
energy

$$$$
26:0
     RDKit          3D

 45 48  0  0  0  0  0  0  0  0999 V2000
   -4.5990   24.9230  -26.2810 C   0  0  0  0  0  0  0  0  0  0  0  0
   -3.3260   24.4230  -26.6750 O   0  0  0  0  0  0  0  0  0  0  0  0
   -2.1310   25.1610  -26.6350 C   0  0  0  0  0  0  0  0  0  0  0  0
   -1.6290   25.6930  -25.4310 C   0  0  0  0  0  0  0  0  0  0  0  0
   -0.4100   26.3760  -25.4120 C   0  0  0  0  0  0  0  0  0  0  0  0
    0.3380   26.5210  -26.5880 C   0  0  0  0  0  0  0  0  0  0  0  0
    1.6330   27.2770  -26.5720 C   0  0  0  0  0  0  0  0  0  0  0  0
   -0.1690   26.0160  -27.7920 C   0  0  0  0  0  0  0  0  0  0  0  0
   -1.4050   25.3540  -27.8270 C   0  0  0  0  0  0  0  0  0  0  0  0
   -1.8840   24.8470  -29.0820 N   0  0  0  0  0  0  0  0  0  0  0  0
   -1.9320   23.4460  -29.3950 C   0  0  0  0  0  0  0  0  0  0  0  0
   -1.5960   22.5860  -28.5350 O   0  0  0  0  0  0  0  0  0  0  0  0
   -2.4720   22.9900  -30.7140 C   0  0  0  0  0  0  0  0  0  0  0  0
   -3.9030   23.2760  -30.7890 N   0  0  0  0  0  0  0  0  0  0  0  0
   -4.5130   24.4810  -30.7050 C   0  0  0  0  0  0  0  0  0  0  0  0
   -3.8580   25.6770  -30.4420 O   0  0  0  0  0  0  0  0  0  0  0  0
   -5.8740   24.3430  -30.9320 C   0  0  0  0  0  0  0  0  0  0  0  0
   -6.0970   23.0370  -31.1770 N   0  0  0  0  0  0  0  0  0  0  0  0
   -7.2410   22.3740  -31.4830 C   0  0  0  0  0  0  0  0  0  0  0  0
   -8.3400   22.9900  -31.5560 O   0  0  0  0  0  0  0  0  0  0  0  0
   -7.1560   20.9850  -31.7170 C   0  0  0  0  0  0  0  0  0  0  0  0
   -8.2830   20.2090  -32.0400 C   0  0  0  0  0  0  0  0  0  0  0  0
   -8.1440   18.8350  -32.2650 C   0  0  0  0  0  0  0  0  0  0  0  0
   -6.8890   18.2270  -32.1720 C   0  0  0  0  0  0  0  0  0  0  0  0
   -5.7590   18.9860  -31.8520 C   0  0  0  0  0  0  0  0  0  0  0  0
   -5.8790   20.3610  -31.6230 C   0  0  0  0  0  0  0  0  0  0  0  0
   -4.7720   21.0950  -31.3100 N   0  0  0  0  0  0  0  0  0  0  0  0
   -4.9040   22.4260  -31.0900 C   0  0  0  0  0  0  0  0  0  0  0  0
   -4.6597   24.9469  -25.1829 H   0  0  0  0  0  0  0  0  0  0  0  0
   -4.7322   25.9403  -26.6778 H   0  0  0  0  0  0  0  0  0  0  0  0
   -5.3889   24.2683  -26.6778 H   0  0  0  0  0  0  0  0  0  0  0  0
   -2.2006   25.5699  -24.4993 H   0  0  0  0  0  0  0  0  0  0  0  0
   -0.0358   26.8019  -24.4693 H   0  0  0  0  0  0  0  0  0  0  0  0
    1.9401   27.4563  -25.5311 H   0  0  0  0  0  0  0  0  0  0  0  0
    2.4072   26.6890  -27.0866 H   0  0  0  0  0  0  0  0  0  0  0  0
    1.5016   28.2403  -27.0866 H   0  0  0  0  0  0  0  0  0  0  0  0
    0.4084   26.1399  -28.7201 H   0  0  0  0  0  0  0  0  0  0  0  0
   -2.3810   25.5110  -29.7170 H   0  0  0  0  0  0  0  0  0  0  0  0
   -1.9508   23.5200  -31.5248 H   0  0  0  0  0  0  0  0  0  0  0  0
   -2.3125   21.9065  -30.8166 H   0  0  0  0  0  0  0  0  0  0  0  0
   -6.6265   25.1451  -30.9153 H   0  0  0  0  0  0  0  0  0  0  0  0
   -9.2734   20.6817  -32.1158 H   0  0  0  0  0  0  0  0  0  0  0  0
   -9.0275   18.2299  -32.5165 H   0  0  0  0  0  0  0  0  0  0  0  0
   -6.7897   17.1463  -32.3514 H   0  0  0  0  0  0  0  0  0  0  0  0
   -4.7742   18.5012  -31.7802 H   0  0  0  0  0  0  0  0  0  0  0  0
  1  2  1  0
  2  3  1  0
  3  4  2  0
  4  5  1  0
  5  6  2  0
  6  7  1  0
  6  8  1  0
  8  9  2  0
  9 10  1  0
 10 11  1  0
 11 12  2  0
 11 13  1  0
 13 14  1  0
 14 15  1  0
 15 16  1  0
 15 17  2  0
 17 18  1  0
 18 19  1  0
 19 20  2  0
 19 21  1  0
 21 22  2  0
 22 23  1  0
 23 24  2  0
 24 25  1  0
 25 26  2  0
 26 27  1  0
 27 28  2  0
  9  3  1  0
 28 14  1  0
 28 18  1  0
 26 21  1  0
  1 29  1  0
  1 30  1  0
  1 31  1  0
  4 32  1  0
  5 33  1  0
  7 34  1  0
  7 35  1  0
  7 36  1  0
  8 37  1  0
 10 38  1  0
 13 39  1  0
 13 40  1  0
 17 41  1  0
 22 42  1  0
 23 43  1  0
 24 44  1  0
 25 45  1  0
M  CHG  1  16  -1
M  END
>  <UniqueID>  (27) 
24

>  <SMILES>  (27) 
COc1ccc(C)cc1NC(=O)Cn1c([O-])cn2c(=O)c3ccccc3nc12

>  <Energy>  (27) 
93.52506452826267

>  <Genealogy>  (27) 
COc1ccc(C)cc1NC(=O)Cn1c([O-])cn2c(=O)c3ccccc3nc12 (protonated)
COc1ccc(C)cc1NC(=O)Cn1c([O-])cn2c(=O)c3ccccc3nc12 (3D coordinates assigned)
COc1ccc(C)cc1NC(=O)Cn1c([O-])cn2c(=O)c3ccccc3nc12 (optimized conformer: 93.52506452826267 kcal/mol)

>  <smiles>  (27) 
COc1ccc(C)cc1NC(=O)Cn1c(O)cn2c(=O)c3ccccc3nc12

>  <score_type>  (27) 
oracle

>  <origin>  (27) 
adg

>  <m_score__min__energy>  (27) 
-12.130000000000001

>  <m_primary>  (27) 
energy

$$$$
27:0
     RDKit          3D

 41 43  0  0  0  0  0  0  0  0999 V2000
   -6.5938   24.0328  -33.1237 H   0  0  0  0  0  0  0  0  0  0  0  0
   -6.4930   23.3630  -32.2570 C   0  0  0  0  0  0  0  0  0  0  0  0
   -5.5730   23.6740  -31.3310 C   0  0  0  0  0  0  0  0  0  0  0  0
   -4.3370   23.0180  -31.3940 O   0  0  0  0  0  0  0  0  0  0  0  0
   -3.2980   23.2760  -30.4920 C   0  0  0  0  0  0  0  0  0  0  0  0
   -2.0860   22.5870  -30.6170 C   0  0  0  0  0  0  0  0  0  0  0  0
   -1.9562   21.8463  -31.4198 H   0  0  0  0  0  0  0  0  0  0  0  0
   -1.0400   22.8380  -29.7240 C   0  0  0  0  0  0  0  0  0  0  0  0
   -0.0885   22.2956  -29.8260 H   0  0  0  0  0  0  0  0  0  0  0  0
   -1.2020   23.7780  -28.7010 C   0  0  0  0  0  0  0  0  0  0  0  0
   -0.3777   23.9738  -27.9994 H   0  0  0  0  0  0  0  0  0  0  0  0
   -2.4100   24.4690  -28.5690 C   0  0  0  0  0  0  0  0  0  0  0  0
   -2.5349   25.2076  -27.7635 H   0  0  0  0  0  0  0  0  0  0  0  0
   -3.4630   24.2220  -29.4620 C   0  0  0  0  0  0  0  0  0  0  0  0
   -4.7060   24.9240  -29.3350 N   0  0  0  0  0  0  0  0  0  0  0  0
   -4.8360   25.6250  -28.5710 H   0  0  0  0  0  0  0  0  0  0  0  0
   -5.7790   24.6680  -30.2450 C   0  0  0  0  0  0  0  0  0  0  0  0
   -6.8700   25.2840  -30.1030 O   0  0  0  0  0  0  0  0  0  0  0  0
   -7.3800   22.1830  -32.1930 C   0  0  0  0  0  0  0  0  0  0  0  0
   -8.6870   22.3710  -31.7240 C   0  0  0  0  0  0  0  0  0  0  0  0
   -9.0291   23.3748  -31.4318 H   0  0  0  0  0  0  0  0  0  0  0  0
   -9.5510   21.2840  -31.6290 C   0  0  0  0  0  0  0  0  0  0  0  0
  -10.5815   21.4261  -31.2713 H   0  0  0  0  0  0  0  0  0  0  0  0
   -9.1040   20.0170  -31.9890 C   0  0  0  0  0  0  0  0  0  0  0  0
   -9.7791   19.1514  -31.9191 H   0  0  0  0  0  0  0  0  0  0  0  0
   -7.7950   19.8510  -32.4390 C   0  0  0  0  0  0  0  0  0  0  0  0
   -7.4374   18.8469  -32.7108 H   0  0  0  0  0  0  0  0  0  0  0  0
   -6.9480   20.9230  -32.5470 N   0  0  0  0  0  0  0  0  0  0  0  0
   -5.5600   20.6740  -32.9810 C   0  0  0  0  0  0  0  0  0  0  0  0
   -4.8667   21.0743  -32.2266 H   0  0  0  0  0  0  0  0  0  0  0  0
   -5.3932   21.1710  -33.9480 H   0  0  0  0  0  0  0  0  0  0  0  0
   -5.3150   19.1700  -33.1450 C   0  0  0  0  0  0  0  0  0  0  0  0
   -5.9093   18.6255  -32.3965 H   0  0  0  0  0  0  0  0  0  0  0  0
   -4.2419   18.9735  -33.0042 H   0  0  0  0  0  0  0  0  0  0  0  0
   -5.7170   18.6950  -34.5450 C   0  0  0  0  0  0  0  0  0  0  0  0
   -4.8693   18.8410  -35.2307 H   0  0  0  0  0  0  0  0  0  0  0  0
   -6.5879   19.2805  -34.8749 H   0  0  0  0  0  0  0  0  0  0  0  0
   -6.1020   17.2190  -34.5370 C   0  0  0  0  0  0  0  0  0  0  0  0
   -6.1932   16.8695  -33.4980 H   0  0  0  0  0  0  0  0  0  0  0  0
   -7.0643   17.0883  -35.0536 H   0  0  0  0  0  0  0  0  0  0  0  0
   -5.3262   16.6349  -35.0536 H   0  0  0  0  0  0  0  0  0  0  0  0
  1  2  1  0
  2  3  2  0
  3  4  1  0
  4  5  1  0
  5  6  2  0
  6  7  1  0
  6  8  1  0
  8  9  1  0
  8 10  2  0
 10 11  1  0
 10 12  1  0
 12 13  1  0
 12 14  2  0
 14 15  1  0
 15 16  1  0
 15 17  1  0
 17 18  2  0
  2 19  1  0
 19 20  2  0
 20 21  1  0
 20 22  1  0
 22 23  1  0
 22 24  2  0
 24 25  1  0
 24 26  1  0
 26 27  1  0
 26 28  2  0
 28 29  1  0
 29 30  1  0
 29 31  1  0
 29 32  1  0
 32 33  1  0
 32 34  1  0
 32 35  1  0
 35 36  1  0
 35 37  1  0
 35 38  1  0
 38 39  1  0
 38 40  1  0
 38 41  1  0
 17  3  1  0
 28 19  1  0
 14  5  1  0
M  CHG  1  28   1
M  END
>  <UniqueID>  (28) 
25

>  <SMILES>  (28) 
CCCC[n+]1ccccc1/C=C1/Oc2ccccc2NC1=O

>  <Energy>  (28) 
47.298956267510626

>  <Genealogy>  (28) 
CCCC[n+]1ccccc1/C=C1/Oc2ccccc2NC1=O (cis-trans isomerization)
CCCC[n+]1ccccc1/C=C1/Oc2ccccc2NC1=O (3D coordinates assigned)
CCCC[n+]1ccccc1/C=C1/Oc2ccccc2NC1=O (nonaromatic ring conformer: 47.298956267510626 kcal/mol)

>  <smiles>  (28) 
CCCC[n+]1ccccc1C=C1Oc2ccccc2NC1=O

>  <score_type>  (28) 
oracle

>  <origin>  (28) 
adg

>  <m_score__min__energy>  (28) 
-7.4800000000000004

>  <m_primary>  (28) 
energy

$$$$
28:0
     RDKit          3D

 45 48  0  0  0  0  0  0  0  0999 V2000
    1.7730   28.3620  -22.6120 C   0  0  0  0  0  0  0  0  0  0  0  0
    0.5980   27.5640  -22.6960 O   0  0  0  0  0  0  0  0  0  0  0  0
    0.1120   26.9930  -23.8820 C   0  0  0  0  0  0  0  0  0  0  0  0
   -1.2620   26.7950  -24.1160 C   0  0  0  0  0  0  0  0  0  0  0  0
   -1.6990   26.2220  -25.3140 C   0  0  0  0  0  0  0  0  0  0  0  0
   -0.7730   25.8360  -26.2990 C   0  0  0  0  0  0  0  0  0  0  0  0
   -1.2330   25.2300  -27.5660 C   0  0  0  0  0  0  0  0  0  0  0  0
   -0.4140   24.9210  -28.5930 N   0  0  0  0  0  0  0  0  0  0  0  0
   -1.1920   24.4180  -29.5030 O   0  0  0  0  0  0  0  0  0  0  0  0
   -2.4280   24.4100  -29.0700 C   0  0  0  0  0  0  0  0  0  0  0  0
   -3.5960   23.9060  -29.8680 C   0  0  0  0  0  0  0  0  0  0  0  0
   -4.4430   22.9280  -29.0340 C   0  0  0  0  0  0  0  0  0  0  0  0
   -5.5720   22.3410  -29.8950 C   0  0  0  0  0  0  0  0  0  0  0  0
   -6.1930   23.3640  -30.7550 N   0  0  0  0  0  0  0  0  0  0  0  0
   -6.9560   22.9880  -31.9230 C   0  0  0  0  0  0  0  0  0  0  0  0
   -7.0640   23.8000  -32.8830 O   0  0  0  0  0  0  0  0  0  0  0  0
   -7.6210   21.6740  -32.0370 C   0  0  0  0  0  0  0  0  0  0  0  0
   -7.0290   20.5130  -32.4990 C   0  0  0  0  0  0  0  0  0  0  0  0
   -8.0100   19.5450  -32.4460 C   0  0  0  0  0  0  0  0  0  0  0  0
   -9.1390   20.1730  -31.9610 C   0  0  0  0  0  0  0  0  0  0  0  0
   -8.8760   21.4370  -31.7290 O   0  0  0  0  0  0  0  0  0  0  0  0
   -5.9490   24.7820  -30.4520 C   0  0  0  0  0  0  0  0  0  0  0  0
   -4.4410   25.0830  -30.4190 C   0  0  0  0  0  0  0  0  0  0  0  0
   -2.5220   24.9220  -27.8270 N   0  0  0  0  0  0  0  0  0  0  0  0
    0.5970   26.0360  -26.0610 C   0  0  0  0  0  0  0  0  0  0  0  0
    1.0320   26.6090  -24.8620 C   0  0  0  0  0  0  0  0  0  0  0  0
    2.0251   28.5332  -21.5551 H   0  0  0  0  0  0  0  0  0  0  0  0
    2.6057   27.8419  -23.1080 H   0  0  0  0  0  0  0  0  0  0  0  0
    1.5965   29.3278  -23.1080 H   0  0  0  0  0  0  0  0  0  0  0  0
   -1.9956   27.0927  -23.3523 H   0  0  0  0  0  0  0  0  0  0  0  0
   -2.7749   26.0721  -25.4872 H   0  0  0  0  0  0  0  0  0  0  0  0
   -3.2119   23.3502  -30.7361 H   0  0  0  0  0  0  0  0  0  0  0  0
   -3.8022   22.1120  -28.6686 H   0  0  0  0  0  0  0  0  0  0  0  0
   -4.8829   23.4681  -28.1827 H   0  0  0  0  0  0  0  0  0  0  0  0
   -5.1575   21.5450  -30.5311 H   0  0  0  0  0  0  0  0  0  0  0  0
   -6.3459   21.9457  -29.2207 H   0  0  0  0  0  0  0  0  0  0  0  0
   -5.9903   20.3874  -32.8386 H   0  0  0  0  0  0  0  0  0  0  0  0
   -7.9123   18.4874  -32.7322 H   0  0  0  0  0  0  0  0  0  0  0  0
  -10.1118   19.6874  -31.7943 H   0  0  0  0  0  0  0  0  0  0  0  0
   -6.4236   25.4028  -31.2262 H   0  0  0  0  0  0  0  0  0  0  0  0
   -6.3751   25.0093  -29.4637 H   0  0  0  0  0  0  0  0  0  0  0  0
   -4.1061   25.3046  -31.4431 H   0  0  0  0  0  0  0  0  0  0  0  0
   -4.2926   25.9373  -29.7421 H   0  0  0  0  0  0  0  0  0  0  0  0
    1.3327   25.7397  -26.8232 H   0  0  0  0  0  0  0  0  0  0  0  0
    2.1078   26.7590  -24.6883 H   0  0  0  0  0  0  0  0  0  0  0  0
  1  2  1  0
  2  3  1  0
  3  4  2  0
  4  5  1  0
  5  6  2  0
  6  7  1  0
  7  8  2  0
  8  9  1  0
  9 10  1  0
 10 11  1  0
 11 12  1  0
 12 13  1  0
 13 14  1  0
 14 15  1  0
 15 16  2  0
 15 17  1  0
 17 18  2  0
 18 19  1  0
 19 20  2  0
 20 21  1  0
 14 22  1  0
 22 23  1  0
 10 24  2  0
  6 25  1  0
 25 26  2  0
 26  3  1  0
 24  7  1  0
 23 11  1  0
 21 17  1  0
  1 27  1  0
  1 28  1  0
  1 29  1  0
  4 30  1  0
  5 31  1  0
 11 32  1  0
 12 33  1  0
 12 34  1  0
 13 35  1  0
 13 36  1  0
 18 37  1  0
 19 38  1  0
 20 39  1  0
 22 40  1  0
 22 41  1  0
 23 42  1  0
 23 43  1  0
 25 44  1  0
 26 45  1  0
M  END
>  <UniqueID>  (29) 
26

>  <SMILES>  (29) 
COc1ccc(-c2noc(C3CCN(C(=O)c4ccco4)CC3)n2)cc1

>  <Energy>  (29) 
110.34823798956279

>  <Genealogy>  (29) 
COc1ccc(-c2noc(C3CCN(C(=O)c4ccco4)CC3)n2)cc1 (3D coordinates assigned)
COc1ccc(-c2noc(C3CCN(C(=O)c4ccco4)CC3)n2)cc1 (nonaromatic ring conformer: 110.34823798956279 kcal/mol)

>  <smiles>  (29) 
COc1ccc(-c2noc(C3CCN(C(=O)c4ccco4)CC3)n2)cc1

>  <score_type>  (29) 
oracle

>  <origin>  (29) 
adg

>  <m_score__min__energy>  (29) 
-8.3800000000000008

>  <m_primary>  (29) 
energy

$$$$
29:0
     RDKit          3D

 31 32  0  0  0  0  0  0  0  0999 V2000
   -6.4510   17.3540  -31.9110 C   0  0  0  0  0  0  0  0  0  0  0  0
   -6.5380   18.8490  -31.6020 C   0  0  0  0  0  0  0  0  0  0  0  0
   -7.3090   19.6340  -32.6830 C   0  0  1  0  0  0  0  0  0  0  0  0
   -8.8270   19.6420  -32.3960 C   0  0  0  0  0  0  0  0  0  0  0  0
   -9.1750   21.0330  -31.8370 C   0  0  0  0  0  0  0  0  0  0  0  0
   -8.0340   21.8760  -32.1470 N   0  0  0  0  0  0  0  0  0  0  0  0
   -7.9360   23.2950  -31.8110 C   0  0  0  0  0  0  0  0  0  0  0  0
   -6.6610   23.5620  -31.0610 C   0  0  0  0  0  0  0  0  0  0  0  0
   -6.3370   22.8150  -29.9190 C   0  0  0  0  0  0  0  0  0  0  0  0
   -5.1320   23.0440  -29.2530 C   0  0  0  0  0  0  0  0  0  0  0  0
   -4.2570   24.0170  -29.7390 C   0  0  0  0  0  0  0  0  0  0  0  0
   -4.5790   24.7280  -30.8510 N   0  0  0  0  0  0  0  0  0  0  0  0
   -5.7460   24.5240  -31.5170 C   0  0  0  0  0  0  0  0  0  0  0  0
   -6.9780   21.0820  -32.6520 C   0  0  0  0  0  0  0  0  0  0  0  0
   -5.8910   21.5670  -33.0620 O   0  0  0  0  0  0  0  0  0  0  0  0
   -6.4180   16.7863  -30.9694 H   0  0  0  0  0  0  0  0  0  0  0  0
   -7.3329   17.0479  -32.4929 H   0  0  0  0  0  0  0  0  0  0  0  0
   -5.5396   17.1523  -32.4929 H   0  0  0  0  0  0  0  0  0  0  0  0
   -7.0512   18.9803  -30.6379 H   0  0  0  0  0  0  0  0  0  0  0  0
   -5.5116   19.2434  -31.5721 H   0  0  0  0  0  0  0  0  0  0  0  0
   -7.0379   19.1430  -33.6293 H   0  0  0  0  0  0  0  0  0  0  0  0
   -9.3874   19.4575  -33.3244 H   0  0  0  0  0  0  0  0  0  0  0  0
   -9.0935   18.8534  -31.6769 H   0  0  0  0  0  0  0  0  0  0  0  0
  -10.0833   21.4240  -32.3188 H   0  0  0  0  0  0  0  0  0  0  0  0
   -9.3734   20.9987  -30.7556 H   0  0  0  0  0  0  0  0  0  0  0  0
   -7.9448   23.8894  -32.7365 H   0  0  0  0  0  0  0  0  0  0  0  0
   -8.7910   23.5747  -31.1780 H   0  0  0  0  0  0  0  0  0  0  0  0
   -7.0330   22.0482  -29.5480 H   0  0  0  0  0  0  0  0  0  0  0  0
   -4.8745   22.4638  -28.3546 H   0  0  0  0  0  0  0  0  0  0  0  0
   -3.3056   24.2083  -29.2210 H   0  0  0  0  0  0  0  0  0  0  0  0
   -5.9743   25.1147  -32.4164 H   0  0  0  0  0  0  0  0  0  0  0  0
  1  2  1  0
  2  3  1  0
  3  4  1  0
  4  5  1  0
  5  6  1  0
  6  7  1  0
  7  8  1  0
  8  9  2  0
  9 10  1  0
 10 11  2  0
 11 12  1  0
 12 13  2  0
  6 14  1  0
 14 15  2  0
 14  3  1  0
 13  8  1  0
  1 16  1  0
  1 17  1  0
  1 18  1  0
  2 19  1  0
  2 20  1  0
  3 21  1  6
  4 22  1  0
  4 23  1  0
  5 24  1  0
  5 25  1  0
  7 26  1  0
  7 27  1  0
  9 28  1  0
 10 29  1  0
 11 30  1  0
 13 31  1  0
M  END
>  <UniqueID>  (30) 
27

>  <SMILES>  (30) 
CC[C@H]1CCN(Cc2cccnc2)C1=O

>  <Energy>  (30) 
31.96717820218214

>  <Genealogy>  (30) 
CC[C@H]1CCN(Cc2cccnc2)C1=O (chirality)
CC[C@H]1CCN(Cc2cccnc2)C1=O (3D coordinates assigned)
CC[C@H]1CCN(Cc2cccnc2)C1=O (nonaromatic ring conformer: 31.96717820218214 kcal/mol)

>  <smiles>  (30) 
CCC1CCN(Cc2cccnc2)C1=O

>  <score_type>  (30) 
oracle

>  <origin>  (30) 
adg

>  <m_score__min__energy>  (30) 
-6.4000000000000004

>  <m_primary>  (30) 
energy

$$$$
30:0
     RDKit          3D

 52 55  0  0  0  0  0  0  0  0999 V2000
    3.6950   25.1950  -23.2640 C   0  0  0  0  0  0  0  0  0  0  0  0
    2.6880   26.2190  -23.7670 C   0  0  0  0  0  0  0  0  0  0  0  0
    1.5840   25.5460  -24.4480 N   0  0  0  0  0  0  0  0  0  0  0  0
    0.4040   25.2790  -23.9000 N   0  0  0  0  0  0  0  0  0  0  0  0
   -0.4060   24.7130  -24.8300 C   0  0  0  0  0  0  0  0  0  0  0  0
    0.3060   24.6430  -26.0140 C   0  0  0  0  0  0  0  0  0  0  0  0
    0.0280   24.1610  -27.2900 C   0  0  0  0  0  0  0  0  0  0  0  0
   -1.2480   23.5980  -27.6310 N   0  0  0  0  0  0  0  0  0  0  0  0
   -1.8530   22.5830  -26.7590 C   0  0  0  0  0  0  0  0  0  0  0  0
   -2.6430   21.5730  -27.5960 C   0  0  0  0  0  0  0  0  0  0  0  0
   -3.6430   22.2920  -28.5090 C   0  0  0  0  0  0  0  0  0  0  0  0
   -2.9250   23.3150  -29.4120 C   0  0  1  0  0  0  0  0  0  0  0  0
   -3.9150   24.0460  -30.2940 C   0  0  0  0  0  0  0  0  0  0  0  0
   -3.7730   25.2880  -30.4660 O   0  0  0  0  0  0  0  0  0  0  0  0
   -5.0020   23.3600  -30.9520 N   0  0  0  0  0  0  0  0  0  0  0  0
   -6.1600   24.1390  -31.4210 C   0  0  0  0  0  0  0  0  0  0  0  0
   -7.4180   23.2670  -31.4530 C   0  0  0  0  0  0  0  0  0  0  0  0
   -7.2390   22.0160  -32.3320 C   0  0  0  0  0  0  0  0  0  0  0  0
   -5.7760   21.5470  -32.4510 C   0  0  0  0  0  0  0  0  0  0  0  0
   -4.9430   21.9120  -31.2170 C   0  0  0  0  0  0  0  0  0  0  0  0
   -2.1270   24.3170  -28.5590 C   0  0  0  0  0  0  0  0  0  0  0  0
    1.0310   24.2250  -28.2170 N   0  0  0  0  0  0  0  0  0  0  0  0
    2.2590   24.7590  -27.9130 C   0  0  0  0  0  0  0  0  0  0  0  0
    2.5170   25.2370  -26.6600 N   0  0  0  0  0  0  0  0  0  0  0  0
    1.5300   25.1650  -25.7360 C   0  0  0  0  0  0  0  0  0  0  0  0
    3.6973   25.1927  -22.1640 H   0  0  0  0  0  0  0  0  0  0  0  0
    3.4174   24.1963  -23.6322 H   0  0  0  0  0  0  0  0  0  0  0  0
    4.6982   25.4558  -23.6322 H   0  0  0  0  0  0  0  0  0  0  0  0
    2.2944   26.7914  -22.9141 H   0  0  0  0  0  0  0  0  0  0  0  0
    3.1874   26.8971  -24.4747 H   0  0  0  0  0  0  0  0  0  0  0  0
    0.1470   25.4840  -22.9090 H   0  0  0  0  0  0  0  0  0  0  0  0
   -1.4398   24.3722  -24.6714 H   0  0  0  0  0  0  0  0  0  0  0  0
   -1.0594   22.0571  -26.2079 H   0  0  0  0  0  0  0  0  0  0  0  0
   -2.5358   23.0768  -26.0519 H   0  0  0  0  0  0  0  0  0  0  0  0
   -1.9438   20.9904  -28.2139 H   0  0  0  0  0  0  0  0  0  0  0  0
   -3.1975   20.9078  -26.9178 H   0  0  0  0  0  0  0  0  0  0  0  0
   -4.1529   21.5495  -29.1404 H   0  0  0  0  0  0  0  0  0  0  0  0
   -4.3711   22.8267  -27.8813 H   0  0  0  0  0  0  0  0  0  0  0  0
   -2.2255   22.7675  -30.0607 H   0  0  0  0  0  0  0  0  0  0  0  0
   -6.3251   24.9870  -30.7401 H   0  0  0  0  0  0  0  0  0  0  0  0
   -5.9544   24.5028  -32.4385 H   0  0  0  0  0  0  0  0  0  0  0  0
   -7.6534   22.9478  -30.4270 H   0  0  0  0  0  0  0  0  0  0  0  0
   -8.2329   23.8673  -31.8837 H   0  0  0  0  0  0  0  0  0  0  0  0
   -7.8317   21.1979  -31.8967 H   0  0  0  0  0  0  0  0  0  0  0  0
   -7.5742   22.2840  -33.3448 H   0  0  0  0  0  0  0  0  0  0  0  0
   -5.7644   20.4540  -32.5744 H   0  0  0  0  0  0  0  0  0  0  0  0
   -5.3304   22.0554  -33.3187 H   0  0  0  0  0  0  0  0  0  0  0  0
   -5.3358   21.3699  -30.3442 H   0  0  0  0  0  0  0  0  0  0  0  0
   -3.8960   21.6315  -31.4044 H   0  0  0  0  0  0  0  0  0  0  0  0
   -1.5182   24.9529  -29.2185 H   0  0  0  0  0  0  0  0  0  0  0  0
   -2.8279   24.9393  -27.9833 H   0  0  0  0  0  0  0  0  0  0  0  0
    3.0413   24.8021  -28.6851 H   0  0  0  0  0  0  0  0  0  0  0  0
  1  2  1  0
  2  3  1  0
  3  4  1  0
  4  5  2  0
  5  6  1  0
  6  7  2  0
  7  8  1  0
  8  9  1  0
  9 10  1  0
 10 11  1  0
 11 12  1  0
 12 13  1  0
 13 14  2  0
 13 15  1  0
 15 16  1  0
 16 17  1  0
 17 18  1  0
 18 19  1  0
 19 20  1  0
 12 21  1  0
  7 22  1  0
 22 23  2  0
 23 24  1  0
 24 25  2  0
 25  3  1  0
 25  6  1  0
 21  8  1  0
 20 15  1  0
  1 26  1  0
  1 27  1  0
  1 28  1  0
  2 29  1  0
  2 30  1  0
  4 31  1  0
  5 32  1  0
  9 33  1  0
  9 34  1  0
 10 35  1  0
 10 36  1  0
 11 37  1  0
 11 38  1  0
 12 39  1  6
 16 40  1  0
 16 41  1  0
 17 42  1  0
 17 43  1  0
 18 44  1  0
 18 45  1  0
 19 46  1  0
 19 47  1  0
 20 48  1  0
 20 49  1  0
 21 50  1  0
 21 51  1  0
 23 52  1  0
M  CHG  1   4   1
M  END
>  <UniqueID>  (31) 
28

>  <SMILES>  (31) 
CCn1[nH+]cc2c(N3CCC[C@@H](C(=O)N4CCCCC4)C3)ncnc21

>  <Energy>  (31) 
93.90965051459696

>  <Genealogy>  (31) 
CCn1[nH+]cc2c(N3CCCC(C(=O)N4CCCCC4)C3)ncnc21 (protonated)
CCn1[nH+]cc2c(N3CCC[C@@H](C(=O)N4CCCCC4)C3)ncnc21 (chirality)
CCn1[nH+]cc2c(N3CCC[C@@H](C(=O)N4CCCCC4)C3)ncnc21 (3D coordinates assigned)
CCn1[nH+]cc2c(N3CCC[C@@H](C(=O)N4CCCCC4)C3)ncnc21 (nonaromatic ring conformer: 93.90965051459696 kcal/mol)

>  <smiles>  (31) 
CCn1ncc2c(N3CCCC(C(=O)N4CCCCC4)C3)ncnc21

>  <score_type>  (31) 
oracle

>  <origin>  (31) 
adg

>  <m_score__min__energy>  (31) 
-8.3800000000000008

>  <m_primary>  (31) 
energy

$$$$
31:0
     RDKit          3D

 37 39  0  0  0  0  0  0  0  0999 V2000
   -3.6140   20.0570  -32.8740 C   0  0  0  0  0  0  0  0  0  0  0  0
   -3.4180   21.2490  -32.0240 C   0  0  0  0  0  0  0  0  0  0  0  0
   -2.1910   21.5260  -31.4070 C   0  0  0  0  0  0  0  0  0  0  0  0
   -1.9970   22.5950  -30.6380 N   0  0  0  0  0  0  0  0  0  0  0  0
   -2.9710   23.5030  -30.3900 C   0  0  0  0  0  0  0  0  0  0  0  0
   -3.0630   24.6390  -29.6790 N   0  0  0  0  0  0  0  0  0  0  0  0
   -4.2790   25.1480  -29.7790 N   0  0  0  0  0  0  0  0  0  0  0  0
   -5.0380   24.3420  -30.5760 C   0  0  0  0  0  0  0  0  0  0  0  0
   -6.4670   24.5520  -30.9460 C   0  0  0  0  0  0  0  0  0  0  0  0
   -4.2170   23.2830  -30.9770 C   0  0  0  0  0  0  0  0  0  0  0  0
   -4.4330   22.1720  -31.7810 C   0  0  0  0  0  0  0  0  0  0  0  0
   -5.6860   21.9780  -32.3530 O   0  0  0  0  0  0  0  0  0  0  0  0
   -6.7510   21.4350  -31.5800 C   0  0  0  0  0  0  0  0  0  0  0  0
   -7.7550   20.7080  -32.4110 C   0  0  0  0  0  0  0  0  0  0  0  0
   -7.2170   19.4390  -32.9020 C   0  0  0  0  0  0  0  0  0  0  0  0
   -7.4150   18.2640  -32.2080 C   0  0  0  0  0  0  0  0  0  0  0  0
   -6.9270   17.0430  -32.6300 C   0  0  0  0  0  0  0  0  0  0  0  0
   -6.2090   17.0200  -33.8080 C   0  0  0  0  0  0  0  0  0  0  0  0
   -5.6900   15.8700  -34.3020 F   0  0  0  0  0  0  0  0  0  0  0  0
   -6.0030   18.1890  -34.5110 C   0  0  0  0  0  0  0  0  0  0  0  0
   -5.2880   18.1760  -35.6840 F   0  0  0  0  0  0  0  0  0  0  0  0
   -6.4870   19.4100  -34.0930 C   0  0  0  0  0  0  0  0  0  0  0  0
   -3.7595   19.1722  -32.2368 H   0  0  0  0  0  0  0  0  0  0  0  0
   -4.5005   20.2013  -33.5091 H   0  0  0  0  0  0  0  0  0  0  0  0
   -2.7280   19.9098  -33.5091 H   0  0  0  0  0  0  0  0  0  0  0  0
   -1.3530   20.8311  -31.5647 H   0  0  0  0  0  0  0  0  0  0  0  0
   -4.6860   26.0130  -29.3580 H   0  0  0  0  0  0  0  0  0  0  0  0
   -7.0730   24.6411  -30.0323 H   0  0  0  0  0  0  0  0  0  0  0  0
   -6.5605   25.4735  -31.5393 H   0  0  0  0  0  0  0  0  0  0  0  0
   -6.8217   23.6963  -31.5393 H   0  0  0  0  0  0  0  0  0  0  0  0
   -6.3297   20.7341  -30.8443 H   0  0  0  0  0  0  0  0  0  0  0  0
   -7.2689   22.2744  -31.0930 H   0  0  0  0  0  0  0  0  0  0  0  0
   -8.6478   20.5069  -31.8006 H   0  0  0  0  0  0  0  0  0  0  0  0
   -8.0104   21.3362  -33.2771 H   0  0  0  0  0  0  0  0  0  0  0  0
   -7.9905   18.3011  -31.2713 H   0  0  0  0  0  0  0  0  0  0  0  0
   -7.1037   16.1252  -32.0500 H   0  0  0  0  0  0  0  0  0  0  0  0
   -6.3056   20.3260  -34.6744 H   0  0  0  0  0  0  0  0  0  0  0  0
  1  2  1  0
  2  3  1  0
  3  4  2  0
  4  5  1  0
  5  6  2  0
  6  7  1  0
  7  8  1  0
  8  9  1  0
  8 10  2  0
 10 11  1  0
 11 12  1  0
 12 13  1  0
 13 14  1  0
 14 15  1  0
 15 16  2  0
 16 17  1  0
 17 18  2  0
 18 19  1  0
 18 20  1  0
 20 21  1  0
 20 22  2  0
 11  2  2  0
 22 15  1  0
 10  5  1  0
  1 23  1  0
  1 24  1  0
  1 25  1  0
  3 26  1  0
  7 27  1  0
  9 28  1  0
  9 29  1  0
  9 30  1  0
 13 31  1  0
 13 32  1  0
 14 33  1  0
 14 34  1  0
 16 35  1  0
 17 36  1  0
 22 37  1  0
M  END
>  <smiles>  (32) 
Cc1cnc2n[nH]c(C)c2c1OCCc1ccc(F)c(F)c1

>  <score_type>  (32) 
oracle

>  <origin>  (32) 
adg

>  <m_score__min__energy>  (32) 
-7.3499999999999996

>  <m_primary>  (32) 
energy

$$$$
32:0
     RDKit          3D

 53 55  0  0  0  0  0  0  0  0999 V2000
   -0.7450   24.0590  -28.9260 C   0  0  0  0  0  0  0  0  0  0  0  0
   -1.4280   22.6870  -28.9480 C   0  0  0  0  0  0  0  0  0  0  0  0
   -2.9070   22.7560  -28.7960 N   0  0  0  0  0  0  0  0  0  0  0  0
   -3.4470   21.7680  -27.8180 C   0  0  0  0  0  0  0  0  0  0  0  0
   -2.7250   20.4130  -27.8130 C   0  0  0  0  0  0  0  0  0  0  0  0
   -3.2980   24.1630  -28.5060 C   0  0  0  0  0  0  0  0  0  0  0  0
   -3.8820   24.9240  -29.7080 C   0  0  0  0  0  0  0  0  0  0  0  0
   -3.9770   24.0570  -30.8750 N   0  0  0  0  0  0  0  0  0  0  0  0
   -5.0140   23.0850  -31.0270 C   0  0  0  0  0  0  0  0  0  0  0  0
   -5.4540   22.4600  -30.0230 O   0  0  0  0  0  0  0  0  0  0  0  0
   -5.5410   22.7730  -32.3890 C   0  0  0  0  0  0  0  0  0  0  0  0
   -5.6910   21.2850  -32.5490 C   0  0  0  0  0  0  0  0  0  0  0  0
   -4.6820   20.3180  -32.6790 C   0  0  0  0  0  0  0  0  0  0  0  0
   -3.2370   20.5660  -32.8660 C   0  0  0  0  0  0  0  0  0  0  0  0
   -2.5020   21.2960  -31.9190 C   0  0  0  0  0  0  0  0  0  0  0  0
   -1.1370   21.5330  -32.1150 C   0  0  0  0  0  0  0  0  0  0  0  0
   -0.5030   21.0580  -33.2660 C   0  0  0  0  0  0  0  0  0  0  0  0
    0.8200   21.2900  -33.4560 F   0  0  0  0  0  0  0  0  0  0  0  0
   -1.2350   20.3570  -34.2280 C   0  0  0  0  0  0  0  0  0  0  0  0
   -2.5990   20.1180  -34.0340 C   0  0  0  0  0  0  0  0  0  0  0  0
   -5.2030   19.0730  -32.5740 N   0  0  0  0  0  0  0  0  0  0  0  0
   -6.5220   19.2340  -32.3820 C   0  0  0  0  0  0  0  0  0  0  0  0
   -7.4740   18.2340  -32.1900 C   0  0  0  0  0  0  0  0  0  0  0  0
   -8.8050   18.6290  -31.9600 C   0  0  0  0  0  0  0  0  0  0  0  0
   -9.1480   19.9970  -31.9200 C   0  0  0  0  0  0  0  0  0  0  0  0
   -8.1650   20.9850  -32.1130 C   0  0  0  0  0  0  0  0  0  0  0  0
   -6.8560   20.5640  -32.3540 C   0  0  0  0  0  0  0  0  0  0  0  0
   -0.5882   24.3739  -27.8838 H   0  0  0  0  0  0  0  0  0  0  0  0
    0.2257   23.9936  -29.4392 H   0  0  0  0  0  0  0  0  0  0  0  0
   -1.3823   24.7941  -29.4392 H   0  0  0  0  0  0  0  0  0  0  0  0
   -1.1992   22.1998  -29.9073 H   0  0  0  0  0  0  0  0  0  0  0  0
   -1.0412   22.1199  -28.0885 H   0  0  0  0  0  0  0  0  0  0  0  0
   -3.3150   22.5120  -29.7290 H   0  0  0  0  0  0  0  0  0  0  0  0
   -3.3667   22.2032  -26.8109 H   0  0  0  0  0  0  0  0  0  0  0  0
   -4.4855   21.5666  -28.1197 H   0  0  0  0  0  0  0  0  0  0  0  0
   -2.5542   20.0924  -26.7747 H   0  0  0  0  0  0  0  0  0  0  0  0
   -3.3444   19.6656  -28.3303 H   0  0  0  0  0  0  0  0  0  0  0  0
   -1.7591   20.5103  -28.3303 H   0  0  0  0  0  0  0  0  0  0  0  0
   -4.0536   24.1517  -27.7067 H   0  0  0  0  0  0  0  0  0  0  0  0
   -2.3763   24.6908  -28.2198 H   0  0  0  0  0  0  0  0  0  0  0  0
   -4.8862   25.2907  -29.4489 H   0  0  0  0  0  0  0  0  0  0  0  0
   -3.2162   25.7659  -29.9485 H   0  0  0  0  0  0  0  0  0  0  0  0
   -6.5210   23.2550  -32.5206 H   0  0  0  0  0  0  0  0  0  0  0  0
   -4.8375   23.1505  -33.1458 H   0  0  0  0  0  0  0  0  0  0  0  0
   -3.0013   21.6835  -31.0187 H   0  0  0  0  0  0  0  0  0  0  0  0
   -0.5628   22.0935  -31.3626 H   0  0  0  0  0  0  0  0  0  0  0  0
   -0.7376   19.9928  -35.1390 H   0  0  0  0  0  0  0  0  0  0  0  0
   -3.1746   19.5769  -34.7994 H   0  0  0  0  0  0  0  0  0  0  0  0
   -4.6850   18.1670  -32.6260 H   0  0  0  0  0  0  0  0  0  0  0  0
   -7.1939   17.1706  -32.2174 H   0  0  0  0  0  0  0  0  0  0  0  0
   -9.5832   17.8661  -31.8104 H   0  0  0  0  0  0  0  0  0  0  0  0
  -10.1914   20.2932  -31.7366 H   0  0  0  0  0  0  0  0  0  0  0  0
   -8.4197   22.0544  -32.0752 H   0  0  0  0  0  0  0  0  0  0  0  0
  1  2  1  0
  2  3  1  0
  3  4  1  0
  4  5  1  0
  3  6  1  0
  6  7  1  0
  7  8  1  0
  8  9  1  0
  9 10  2  0
  9 11  1  0
 11 12  1  0
 12 13  2  0
 13 14  1  0
 14 15  2  0
 15 16  1  0
 16 17  2  0
 17 18  1  0
 17 19  1  0
 19 20  2  0
 13 21  1  0
 21 22  1  0
 22 23  2  0
 23 24  1  0
 24 25  2  0
 25 26  1  0
 26 27  2  0
 27 12  1  0
 20 14  1  0
 27 22  1  0
  1 28  1  0
  1 29  1  0
  1 30  1  0
  2 31  1  0
  2 32  1  0
  3 33  1  0
  4 34  1  0
  4 35  1  0
  5 36  1  0
  5 37  1  0
  5 38  1  0
  6 39  1  0
  6 40  1  0
  7 41  1  0
  7 42  1  0
 11 43  1  0
 11 44  1  0
 15 45  1  0
 16 46  1  0
 19 47  1  0
 20 48  1  0
 21 49  1  0
 23 50  1  0
 24 51  1  0
 25 52  1  0
 26 53  1  0
M  CHG  2   3   1   8  -1
M  END
>  <UniqueID>  (33) 
29

>  <SMILES>  (33) 
CC[NH+](CC)CC[N-]C(=O)Cc1c(-c2ccc(F)cc2)[nH]c2ccccc12

>  <Energy>  (33) 
87.60529902549946

>  <Genealogy>  (33) 
CC[NH+](CC)CC[N-]C(=O)Cc1c(-c2ccc(F)cc2)[nH]c2ccccc12 (protonated)
CC[NH+](CC)CC[N-]C(=O)Cc1c(-c2ccc(F)cc2)[nH]c2ccccc12 (3D coordinates assigned)
CC[NH+](CC)CC[N-]C(=O)Cc1c(-c2ccc(F)cc2)[nH]c2ccccc12 (optimized conformer: 87.60529902549946 kcal/mol)

>  <smiles>  (33) 
CCN(CC)CCNC(=O)Cc1c(-c2ccc(F)cc2)[nH]c2ccccc12

>  <score_type>  (33) 
oracle

>  <origin>  (33) 
adg

>  <m_score__min__energy>  (33) 
-8.8399999999999999

>  <m_primary>  (33) 
energy

$$$$
33:0
     RDKit          3D

 30 31  0  0  0  0  0  0  0  0999 V2000
   -6.5100   25.5770  -29.4410 C   0  0  0  0  0  0  0  0  0  0  0  0
   -5.1750   24.8540  -29.6380 C   0  0  0  0  0  0  0  0  0  0  0  0
   -4.6130   24.3640  -28.3000 C   0  0  0  0  0  0  0  0  0  0  0  0
   -5.3400   23.7070  -30.5950 C   0  0  0  0  0  0  0  0  0  0  0  0
   -4.4710   23.4300  -31.5940 N   0  0  0  0  0  0  0  0  0  0  0  0
   -5.0100   22.3230  -32.1410 C   0  0  0  0  0  0  0  0  0  0  0  0
   -4.3450   21.5470  -33.2360 C   0  0  0  0  0  0  0  0  0  0  0  0
   -2.6510   20.8500  -32.6080 Br  0  0  0  0  0  0  0  0  0  0  0  0
   -6.1270   21.9470  -31.4860 N   0  0  0  0  0  0  0  0  0  0  0  0
   -6.9570   20.8050  -31.7380 C   0  0  0  0  0  0  0  0  0  0  0  0
   -6.3920   19.5200  -31.7530 C   0  0  0  0  0  0  0  0  0  0  0  0
   -7.1880   18.4010  -32.0110 C   0  0  0  0  0  0  0  0  0  0  0  0
   -8.5540   18.5570  -32.2610 C   0  0  0  0  0  0  0  0  0  0  0  0
   -9.1250   19.8330  -32.2550 C   0  0  0  0  0  0  0  0  0  0  0  0
   -8.3330   20.9590  -31.9990 C   0  0  0  0  0  0  0  0  0  0  0  0
   -9.0950   22.5440  -31.9660 Cl  0  0  0  0  0  0  0  0  0  0  0  0
   -6.3410   22.8100  -30.5090 N   0  0  0  0  0  0  0  0  0  0  0  0
   -6.7124   25.6866  -28.3653 H   0  0  0  0  0  0  0  0  0  0  0  0
   -6.4607   26.5717  -29.9081 H   0  0  0  0  0  0  0  0  0  0  0  0
   -7.3161   24.9922  -29.9081 H   0  0  0  0  0  0  0  0  0  0  0  0
   -4.4559   25.5683  -30.0654 H   0  0  0  0  0  0  0  0  0  0  0  0
   -5.1613   24.8421  -27.4749 H   0  0  0  0  0  0  0  0  0  0  0  0
   -4.7273   23.2721  -28.2321 H   0  0  0  0  0  0  0  0  0  0  0  0
   -3.5468   24.6260  -28.2321 H   0  0  0  0  0  0  0  0  0  0  0  0
   -4.9942   20.7121  -33.5384 H   0  0  0  0  0  0  0  0  0  0  0  0
   -4.1693   22.2094  -34.0964 H   0  0  0  0  0  0  0  0  0  0  0  0
   -5.3164   19.3933  -31.5605 H   0  0  0  0  0  0  0  0  0  0  0  0
   -6.7392   17.3968  -32.0173 H   0  0  0  0  0  0  0  0  0  0  0  0
   -9.1802   17.6754  -32.4626 H   0  0  0  0  0  0  0  0  0  0  0  0
  -10.2005   19.9529  -32.4521 H   0  0  0  0  0  0  0  0  0  0  0  0
  1  2  1  0
  2  3  1  0
  2  4  1  0
  4  5  1  0
  5  6  2  0
  6  7  1  0
  7  8  1  0
  6  9  1  0
  9 10  1  0
 10 11  2  0
 11 12  1  0
 12 13  2  0
 13 14  1  0
 14 15  2  0
 15 16  1  0
  9 17  1  0
 17  4  2  0
 15 10  1  0
  1 18  1  0
  1 19  1  0
  1 20  1  0
  2 21  1  0
  3 22  1  0
  3 23  1  0
  3 24  1  0
  7 25  1  0
  7 26  1  0
 11 27  1  0
 12 28  1  0
 13 29  1  0
 14 30  1  0
M  END
>  <UniqueID>  (34) 
30

>  <SMILES>  (34) 
CC(C)c1nc(CBr)n(-c2ccccc2Cl)n1

>  <Energy>  (34) 
62.561399214774454

>  <Genealogy>  (34) 
CC(C)c1nc(CBr)n(-c2ccccc2Cl)n1 (3D coordinates assigned)
CC(C)c1nc(CBr)n(-c2ccccc2Cl)n1 (optimized conformer: 62.561399214774454 kcal/mol)

>  <smiles>  (34) 
CC(C)c1nc(CBr)n(-c2ccccc2Cl)n1

>  <score_type>  (34) 
oracle

>  <origin>  (34) 
adg

>  <m_score__min__energy>  (34) 
-7.3499999999999996

>  <m_primary>  (34) 
energy

$$$$
34:0
     RDKit          3D

 45 47  0  0  0  0  0  0  0  0999 V2000
   -0.7650   25.9020  -24.3100 C   0  0  0  0  0  0  0  0  0  0  0  0
   -1.9680   26.1570  -25.0260 O   0  0  0  0  0  0  0  0  0  0  0  0
   -2.3300   25.5170  -26.2210 C   0  0  0  0  0  0  0  0  0  0  0  0
   -3.5960   24.9270  -26.3040 C   0  0  0  0  0  0  0  0  0  0  0  0
   -4.0030   24.2780  -27.4730 C   0  0  0  0  0  0  0  0  0  0  0  0
   -3.1470   24.2080  -28.5860 C   0  0  0  0  0  0  0  0  0  0  0  0
   -3.5790   23.5190  -29.8290 C   0  0  0  0  0  0  0  0  0  0  0  0
   -2.7590   22.5460  -30.4270 C   0  0  0  0  0  0  0  0  0  0  0  0
   -3.1660   21.8950  -31.5950 C   0  0  0  0  0  0  0  0  0  0  0  0
   -4.4010   22.2040  -32.1890 C   0  0  0  0  0  0  0  0  0  0  0  0
   -4.8330   21.5180  -33.3840 N   0  0  0  0  0  0  0  0  0  0  0  0
   -4.7710   20.0540  -33.2280 C   0  0  0  0  0  0  0  0  0  0  0  0
   -6.0910   19.3440  -33.6120 C   0  0  1  0  0  0  0  0  0  0  0  0
   -6.3320   18.1630  -32.6950 C   0  0  0  0  0  0  0  0  0  0  0  0
   -7.2850   18.1670  -31.7510 C   0  0  0  0  0  0  0  0  0  0  0  0
   -8.2790   19.2870  -31.6310 C   0  0  2  0  0  0  0  0  0  0  0  0
   -9.4670   18.8990  -32.2250 F   0  0  0  0  0  0  0  0  0  0  0  0
   -7.7600   20.5670  -32.2960 C   0  0  0  0  0  0  0  0  0  0  0  0
   -7.2270   20.2890  -33.6360 N   0  0  0  0  0  0  0  0  0  0  0  0
   -5.2210   23.1760  -31.5920 C   0  0  0  0  0  0  0  0  0  0  0  0
   -4.8140   23.8270  -30.4250 C   0  0  0  0  0  0  0  0  0  0  0  0
   -1.8750   24.8020  -28.5020 C   0  0  0  0  0  0  0  0  0  0  0  0
   -1.4680   25.4490  -27.3320 C   0  0  0  0  0  0  0  0  0  0  0  0
   -0.9655   25.9445  -23.2293 H   0  0  0  0  0  0  0  0  0  0  0  0
   -0.3860   24.9036  -24.5736 H   0  0  0  0  0  0  0  0  0  0  0  0
   -0.0135   26.6608  -24.5736 H   0  0  0  0  0  0  0  0  0  0  0  0
   -4.2771   24.9744  -25.4415 H   0  0  0  0  0  0  0  0  0  0  0  0
   -5.0011   23.8183  -27.5226 H   0  0  0  0  0  0  0  0  0  0  0  0
   -1.7894   22.2951  -29.9720 H   0  0  0  0  0  0  0  0  0  0  0  0
   -2.5148   21.1355  -32.0522 H   0  0  0  0  0  0  0  0  0  0  0  0
   -5.8250   21.7880  -33.5850 H   0  0  0  0  0  0  0  0  0  0  0  0
   -4.2680   21.8190  -34.2120 H   0  0  0  0  0  0  0  0  0  0  0  0
   -3.9663   19.6676  -33.8708 H   0  0  0  0  0  0  0  0  0  0  0  0
   -4.5854   19.8461  -32.1639 H   0  0  0  0  0  0  0  0  0  0  0  0
   -5.9996   18.9543  -34.6366 H   0  0  0  0  0  0  0  0  0  0  0  0
   -5.7019   17.2684  -32.8073 H   0  0  0  0  0  0  0  0  0  0  0  0
   -7.3403   17.3259  -31.0443 H   0  0  0  0  0  0  0  0  0  0  0  0
   -8.4393   19.5030  -30.5644 H   0  0  0  0  0  0  0  0  0  0  0  0
   -8.5863   21.2881  -32.3807 H   0  0  0  0  0  0  0  0  0  0  0  0
   -6.9494   20.9782  -31.6764 H   0  0  0  0  0  0  0  0  0  0  0  0
   -7.9930   19.8770  -34.2220 H   0  0  0  0  0  0  0  0  0  0  0  0
   -6.1908   23.4263  -32.0469 H   0  0  0  0  0  0  0  0  0  0  0  0
   -5.4654   24.5869  -29.9688 H   0  0  0  0  0  0  0  0  0  0  0  0
   -1.1943   24.7569  -29.3649 H   0  0  0  0  0  0  0  0  0  0  0  0
   -0.4694   25.9073  -27.2789 H   0  0  0  0  0  0  0  0  0  0  0  0
  1  2  1  0
  2  3  1  0
  3  4  2  0
  4  5  1  0
  5  6  2  0
  6  7  1  0
  7  8  2  0
  8  9  1  0
  9 10  2  0
 10 11  1  0
 11 12  1  0
 12 13  1  0
 13 14  1  0
 14 15  2  0
 15 16  1  0
 16 17  1  0
 16 18  1  0
 18 19  1  0
 10 20  1  0
 20 21  2  0
  6 22  1  0
 22 23  2  0
 23  3  1  0
 21  7  1  0
 19 13  1  0
  1 24  1  0
  1 25  1  0
  1 26  1  0
  4 27  1  0
  5 28  1  0
  8 29  1  0
  9 30  1  0
 11 31  1  0
 11 32  1  0
 12 33  1  0
 12 34  1  0
 13 35  1  6
 14 36  1  0
 15 37  1  0
 16 38  1  1
 18 39  1  0
 18 40  1  0
 19 41  1  0
 20 42  1  0
 21 43  1  0
 22 44  1  0
 23 45  1  0
M  CHG  1  11   1
M  END
>  <UniqueID>  (35) 
31

>  <SMILES>  (35) 
COc1ccc(-c2ccc([NH2+]C[C@H]3C=C[C@H](F)CN3)cc2)cc1

>  <Energy>  (35) 
52.985744215302056

>  <Genealogy>  (35) 
COc1ccc(-c2ccc([NH2+]CC3C=CC(F)CN3)cc2)cc1 (protonated)
COc1ccc(-c2ccc([NH2+]C[C@H]3C=C[C@H](F)CN3)cc2)cc1 (chirality)
COc1ccc(-c2ccc([NH2+]C[C@H]3C=C[C@H](F)CN3)cc2)cc1 (3D coordinates assigned)
COc1ccc(-c2ccc([NH2+]C[C@H]3C=C[C@H](F)CN3)cc2)cc1 (nonaromatic ring conformer: 52.985744215302056 kcal/mol)

>  <smiles>  (35) 
COc1ccc(-c2ccc(NCC3C=CC(F)CN3)cc2)cc1

>  <score_type>  (35) 
oracle

>  <origin>  (35) 
adg

>  <m_score__min__energy>  (35) 
-7.5199999999999996

>  <m_primary>  (35) 
energy

$$$$
35:0
     RDKit          3D

 40 41  0  0  0  0  0  0  0  0999 V2000
   -9.1100   18.1800  -31.6830 C   0  0  0  0  0  0  0  0  0  0  0  0
   -9.0130   19.3500  -32.6600 C   0  0  0  0  0  0  0  0  0  0  0  0
   -7.8430   20.2140  -32.3740 N   0  0  0  0  0  0  0  0  0  0  0  0
   -8.1190   21.2960  -31.3950 C   0  0  0  0  0  0  0  0  0  0  0  0
   -9.0090   22.4240  -31.9350 C   0  0  0  0  0  0  0  0  0  0  0  0
   -6.6520   19.4180  -31.9970 C   0  0  0  0  0  0  0  0  0  0  0  0
   -5.3630   19.9770  -32.6340 C   0  0  0  0  0  0  0  0  0  0  0  0
   -5.4860   21.3800  -33.0700 N   0  0  0  0  0  0  0  0  0  0  0  0
   -4.8190   22.2870  -32.1650 C   0  0  0  0  0  0  0  0  0  0  0  0
   -5.4950   23.4080  -31.6520 C   0  0  0  0  0  0  0  0  0  0  0  0
   -4.8580   24.2760  -30.7580 C   0  0  0  0  0  0  0  0  0  0  0  0
   -5.7320   25.6690  -30.1410 Cl  0  0  0  0  0  0  0  0  0  0  0  0
   -3.5340   24.0280  -30.3710 C   0  0  0  0  0  0  0  0  0  0  0  0
   -2.8520   22.9140  -30.8780 C   0  0  0  0  0  0  0  0  0  0  0  0
   -3.4870   22.0530  -31.7780 C   0  0  0  0  0  0  0  0  0  0  0  0
   -1.5240   22.6750  -30.5010 O   0  0  0  0  0  0  0  0  0  0  0  0
   -0.9130   23.2890  -29.3620 C   0  0  0  0  0  0  0  0  0  0  0  0
   -1.5180   24.6310  -29.0620 C   0  0  0  0  0  0  0  0  0  0  0  0
   -0.8860   25.4710  -28.3690 O   0  0  0  0  0  0  0  0  0  0  0  0
   -2.8470   24.9260  -29.4970 N   0  0  0  0  0  0  0  0  0  0  0  0
   -9.0785   18.5602  -30.6513 H   0  0  0  0  0  0  0  0  0  0  0  0
  -10.0558   17.6428  -31.8470 H   0  0  0  0  0  0  0  0  0  0  0  0
   -8.2656   17.4944  -31.8470 H   0  0  0  0  0  0  0  0  0  0  0  0
   -8.9207   18.9532  -33.6818 H   0  0  0  0  0  0  0  0  0  0  0  0
   -9.9217   19.9603  -32.5519 H   0  0  0  0  0  0  0  0  0  0  0  0
   -8.6183   20.8513  -30.5216 H   0  0  0  0  0  0  0  0  0  0  0  0
   -7.1489   21.7514  -31.1467 H   0  0  0  0  0  0  0  0  0  0  0  0
   -9.4476   22.9799  -31.0932 H   0  0  0  0  0  0  0  0  0  0  0  0
   -8.4035   23.1066  -32.5494 H   0  0  0  0  0  0  0  0  0  0  0  0
   -9.8137   21.9939  -32.5494 H   0  0  0  0  0  0  0  0  0  0  0  0
   -6.5444   19.4351  -30.9024 H   0  0  0  0  0  0  0  0  0  0  0  0
   -6.7971   18.3914  -32.3645 H   0  0  0  0  0  0  0  0  0  0  0  0
   -4.5517   19.9117  -31.8940 H   0  0  0  0  0  0  0  0  0  0  0  0
   -5.1568   19.3751  -33.5313 H   0  0  0  0  0  0  0  0  0  0  0  0
   -6.4950   21.6330  -33.1790 H   0  0  0  0  0  0  0  0  0  0  0  0
   -5.0480   21.4720  -34.0160 H   0  0  0  0  0  0  0  0  0  0  0  0
   -6.5337   23.6045  -31.9560 H   0  0  0  0  0  0  0  0  0  0  0  0
   -2.9424   21.1885  -32.1854 H   0  0  0  0  0  0  0  0  0  0  0  0
   -1.0481   22.6339  -28.4887 H   0  0  0  0  0  0  0  0  0  0  0  0
    0.1544   23.4361  -29.5835 H   0  0  0  0  0  0  0  0  0  0  0  0
  1  2  1  0
  2  3  1  0
  3  4  1  0
  4  5  1  0
  3  6  1  0
  6  7  1  0
  7  8  1  0
  8  9  1  0
  9 10  2  0
 10 11  1  0
 11 12  1  0
 11 13  2  0
 13 14  1  0
 14 15  2  0
 14 16  1  0
 16 17  1  0
 17 18  1  0
 18 19  2  0
 18 20  1  0
 15  9  1  0
 20 13  1  0
  1 21  1  0
  1 22  1  0
  1 23  1  0
  2 24  1  0
  2 25  1  0
  4 26  1  0
  4 27  1  0
  5 28  1  0
  5 29  1  0
  5 30  1  0
  6 31  1  0
  6 32  1  0
  7 33  1  0
  7 34  1  0
  8 35  1  0
  8 36  1  0
 10 37  1  0
 15 38  1  0
 17 39  1  0
 17 40  1  0
M  CHG  2   8   1  20  -1
M  END
>  <UniqueID>  (36) 
32

>  <SMILES>  (36) 
CCN(CC)CC[NH2+]c1cc(Cl)c2c(c1)OCC(=O)[N-]2

>  <Energy>  (36) 
42.54332412897644

>  <Genealogy>  (36) 
CCN(CC)CC[NH2+]c1cc(Cl)c2c(c1)OCC(=O)[N-]2 (protonated)
CCN(CC)CC[NH2+]c1cc(Cl)c2c(c1)OCC(=O)[N-]2 (3D coordinates assigned)
CCN(CC)CC[NH2+]c1cc(Cl)c2c(c1)OCC(=O)[N-]2 (nonaromatic ring conformer: 42.54332412897644 kcal/mol)

>  <smiles>  (36) 
CCN(CC)CCNc1cc(Cl)c2c(c1)OCC(=O)N2

>  <score_type>  (36) 
oracle

>  <origin>  (36) 
adg

>  <m_score__min__energy>  (36) 
-7.9900000000000002

>  <m_primary>  (36) 
energy

$$$$
36:0
     RDKit          3D

 48 50  0  0  0  0  0  0  0  0999 V2000
   -8.9140   20.0510  -31.7110 C   0  0  0  0  0  0  0  0  0  0  0  0
   -7.6640   19.5190  -32.3480 C   0  0  0  0  0  0  0  0  0  0  0  0
   -7.6000   18.1790  -32.7570 C   0  0  0  0  0  0  0  0  0  0  0  0
   -6.4650   17.6920  -33.4200 C   0  0  0  0  0  0  0  0  0  0  0  0
   -6.3760   16.2470  -33.8190 C   0  0  0  0  0  0  0  0  0  0  0  0
   -5.3800   18.5480  -33.6550 C   0  0  0  0  0  0  0  0  0  0  0  0
   -5.4290   19.8890  -33.2450 C   0  0  0  0  0  0  0  0  0  0  0  0
   -4.2450   20.7970  -33.4580 C   0  0  0  0  0  0  0  0  0  0  0  0
   -3.1360   20.4420  -32.5590 N   0  0  0  0  0  0  0  0  0  0  0  0
   -3.5070   20.5310  -31.1350 C   0  0  0  0  0  0  0  0  0  0  0  0
   -2.9100   21.7680  -30.4950 C   0  0  0  0  0  0  0  0  0  0  0  0
   -1.5680   21.7430  -30.0860 C   0  0  0  0  0  0  0  0  0  0  0  0
   -1.0310   22.8060  -29.3610 C   0  0  0  0  0  0  0  0  0  0  0  0
   -1.8380   23.9030  -29.0470 C   0  0  0  0  0  0  0  0  0  0  0  0
   -1.2940   25.0330  -28.2220 C   0  0  0  0  0  0  0  0  0  0  0  0
   -0.0240   24.7320  -27.7620 F   0  0  0  0  0  0  0  0  0  0  0  0
   -2.1230   25.2570  -27.1390 F   0  0  0  0  0  0  0  0  0  0  0  0
   -1.2320   26.1800  -28.9910 F   0  0  0  0  0  0  0  0  0  0  0  0
   -3.1220   23.9380  -29.4910 N   0  0  0  0  0  0  0  0  0  0  0  0
   -3.6760   22.9300  -30.2190 C   0  0  0  0  0  0  0  0  0  0  0  0
   -5.0810   23.0800  -30.6530 C   0  0  0  0  0  0  0  0  0  0  0  0
   -6.1220   22.7410  -29.7730 C   0  0  0  0  0  0  0  0  0  0  0  0
   -7.4550   22.8780  -30.1710 C   0  0  0  0  0  0  0  0  0  0  0  0
   -7.7590   23.3720  -31.4420 C   0  0  0  0  0  0  0  0  0  0  0  0
   -6.7300   23.7480  -32.3110 C   0  0  0  0  0  0  0  0  0  0  0  0
   -5.3950   23.6120  -31.9160 C   0  0  0  0  0  0  0  0  0  0  0  0
   -6.5820   20.3740  -32.6090 C   0  0  0  0  0  0  0  0  0  0  0  0
   -8.8143   20.0086  -30.6163 H   0  0  0  0  0  0  0  0  0  0  0  0
   -9.0703   21.0936  -32.0248 H   0  0  0  0  0  0  0  0  0  0  0  0
   -9.7738   19.4408  -32.0248 H   0  0  0  0  0  0  0  0  0  0  0  0
   -8.4463   17.5056  -32.5561 H   0  0  0  0  0  0  0  0  0  0  0  0
   -6.3373   15.6192  -32.9166 H   0  0  0  0  0  0  0  0  0  0  0  0
   -7.2592   15.9765  -34.4163 H   0  0  0  0  0  0  0  0  0  0  0  0
   -5.4663   16.0869  -34.4163 H   0  0  0  0  0  0  0  0  0  0  0  0
   -4.4834   18.1655  -34.1647 H   0  0  0  0  0  0  0  0  0  0  0  0
   -3.9056   20.7060  -34.5003 H   0  0  0  0  0  0  0  0  0  0  0  0
   -4.5538   21.8301  -33.2404 H   0  0  0  0  0  0  0  0  0  0  0  0
   -2.8880   19.4440  -32.7540 H   0  0  0  0  0  0  0  0  0  0  0  0
   -4.6029   20.5756  -31.0508 H   0  0  0  0  0  0  0  0  0  0  0  0
   -3.1165   19.6439  -30.6148 H   0  0  0  0  0  0  0  0  0  0  0  0
   -0.9356   20.8793  -30.3390 H   0  0  0  0  0  0  0  0  0  0  0  0
    0.0204   22.7814  -29.0384 H   0  0  0  0  0  0  0  0  0  0  0  0
   -5.8872   22.3659  -28.7659 H   0  0  0  0  0  0  0  0  0  0  0  0
   -8.2655   22.5965  -29.4827 H   0  0  0  0  0  0  0  0  0  0  0  0
   -8.8081   23.4652  -31.7592 H   0  0  0  0  0  0  0  0  0  0  0  0
   -6.9705   24.1510  -33.3059 H   0  0  0  0  0  0  0  0  0  0  0  0
   -4.5880   23.9224  -32.5960 H   0  0  0  0  0  0  0  0  0  0  0  0
   -6.6382   21.4319  -32.3129 H   0  0  0  0  0  0  0  0  0  0  0  0
  1  2  1  0
  2  3  2  0
  3  4  1  0
  4  5  1  0
  4  6  2  0
  6  7  1  0
  7  8  1  0
  8  9  1  0
  9 10  1  0
 10 11  1  0
 11 12  2  0
 12 13  1  0
 13 14  2  0
 14 15  1  0
 15 16  1  0
 15 17  1  0
 15 18  1  0
 14 19  1  0
 19 20  2  0
 20 21  1  0
 21 22  2  0
 22 23  1  0
 23 24  2  0
 24 25  1  0
 25 26  2  0
  7 27  2  0
 27  2  1  0
 20 11  1  0
 26 21  1  0
  1 28  1  0
  1 29  1  0
  1 30  1  0
  3 31  1  0
  5 32  1  0
  5 33  1  0
  5 34  1  0
  6 35  1  0
  8 36  1  0
  8 37  1  0
  9 38  1  0
 10 39  1  0
 10 40  1  0
 12 41  1  0
 13 42  1  0
 22 43  1  0
 23 44  1  0
 24 45  1  0
 25 46  1  0
 26 47  1  0
 27 48  1  0
M  END
>  <UniqueID>  (37) 
33

>  <SMILES>  (37) 
Cc1cc(C)cc(CNCc2ccc(C(F)(F)F)nc2-c2ccccc2)c1

>  <Energy>  (37) 
50.2178419487845

>  <Genealogy>  (37) 
Cc1cc(C)cc(CNCc2ccc(C(F)(F)F)nc2-c2ccccc2)c1 (3D coordinates assigned)
Cc1cc(C)cc(CNCc2ccc(C(F)(F)F)nc2-c2ccccc2)c1 (optimized conformer: 50.2178419487845 kcal/mol)

>  <smiles>  (37) 
Cc1cc(C)cc(CNCc2ccc(C(F)(F)F)nc2-c2ccccc2)c1

>  <score_type>  (37) 
oracle

>  <origin>  (37) 
adg

>  <m_score__min__energy>  (37) 
-8.2200000000000006

>  <m_primary>  (37) 
energy

$$$$
37:0
     RDKit          3D

 52 54  0  0  0  0  0  0  0  0999 V2000
   -5.3580   16.2460  -32.3370 C   0  0  0  0  0  0  0  0  0  0  0  0
   -5.7980   17.2740  -31.4580 O   0  0  0  0  0  0  0  0  0  0  0  0
   -6.7000   18.2930  -31.8100 C   0  0  0  0  0  0  0  0  0  0  0  0
   -8.0900   18.1550  -31.6200 C   0  0  0  0  0  0  0  0  0  0  0  0
   -8.9630   19.1670  -32.0260 C   0  0  0  0  0  0  0  0  0  0  0  0
   -8.4630   20.3230  -32.6270 C   0  0  0  0  0  0  0  0  0  0  0  0
   -7.0880   20.4790  -32.8100 C   0  0  0  0  0  0  0  0  0  0  0  0
   -6.2010   19.4790  -32.3860 C   0  0  0  0  0  0  0  0  0  0  0  0
   -4.7530   19.6770  -32.5930 C   0  0  0  0  0  0  0  0  0  0  0  0
   -4.0660   18.9780  -33.5350 N   0  0  0  0  0  0  0  0  0  0  0  0
   -2.8270   19.4910  -33.4540 C   0  0  0  0  0  0  0  0  0  0  0  0
   -1.7240   19.1540  -34.2360 C   0  0  0  0  0  0  0  0  0  0  0  0
   -0.5330   19.8710  -34.0310 C   0  0  0  0  0  0  0  0  0  0  0  0
   -0.4770   20.9050  -33.0700 C   0  0  0  0  0  0  0  0  0  0  0  0
   -1.6100   21.2240  -32.2980 C   0  0  0  0  0  0  0  0  0  0  0  0
   -2.7740   20.4750  -32.5080 C   0  0  0  0  0  0  0  0  0  0  0  0
   -3.9940   20.6080  -31.9430 N   0  0  0  0  0  0  0  0  0  0  0  0
   -4.4460   21.6120  -30.9600 C   0  0  1  0  0  0  0  0  0  0  0  0
   -3.5110   21.6460  -29.7430 C   0  0  0  0  0  0  0  0  0  0  0  0
   -4.6070   22.9630  -31.6070 C   0  0  0  0  0  0  0  0  0  0  0  0
   -4.8160   23.0480  -32.8490 O   0  0  0  0  0  0  0  0  0  0  0  0
   -4.4110   24.1200  -30.8480 O   0  0  0  0  0  0  0  0  0  0  0  0
   -5.3340   24.5510  -29.8500 C   0  0  0  0  0  0  0  0  0  0  0  0
   -6.7600   24.5960  -30.4300 C   0  0  0  0  0  0  0  0  0  0  0  0
   -7.2850   23.2890  -30.8910 N   0  0  0  0  0  0  0  0  0  0  0  0
   -8.3710   23.4180  -31.8750 C   0  0  0  0  0  0  0  0  0  0  0  0
   -7.6740   22.4090  -29.7780 C   0  0  0  0  0  0  0  0  0  0  0  0
   -4.9924   15.3918  -31.7483 H   0  0  0  0  0  0  0  0  0  0  0  0
   -6.1964   15.9222  -32.9713 H   0  0  0  0  0  0  0  0  0  0  0  0
   -4.5450   16.6290  -32.9713 H   0  0  0  0  0  0  0  0  0  0  0  0
   -8.4896   17.2447  -31.1491 H   0  0  0  0  0  0  0  0  0  0  0  0
  -10.0461   19.0526  -31.8718 H   0  0  0  0  0  0  0  0  0  0  0  0
   -9.1538   21.1128  -32.9572 H   0  0  0  0  0  0  0  0  0  0  0  0
   -6.6988   21.3897  -33.2886 H   0  0  0  0  0  0  0  0  0  0  0  0
   -1.7836   18.3537  -34.9884 H   0  0  0  0  0  0  0  0  0  0  0  0
    0.3614   19.6256  -34.6225 H   0  0  0  0  0  0  0  0  0  0  0  0
    0.4586   21.4648  -32.9240 H   0  0  0  0  0  0  0  0  0  0  0  0
   -1.5818   22.0345  -31.5548 H   0  0  0  0  0  0  0  0  0  0  0  0
   -5.4389   21.3189  -30.5883 H   0  0  0  0  0  0  0  0  0  0  0  0
   -4.1093   21.6242  -28.8202 H   0  0  0  0  0  0  0  0  0  0  0  0
   -2.8442   20.7715  -29.7684 H   0  0  0  0  0  0  0  0  0  0  0  0
   -2.9095   22.5666  -29.7684 H   0  0  0  0  0  0  0  0  0  0  0  0
   -5.3079   23.8493  -29.0033 H   0  0  0  0  0  0  0  0  0  0  0  0
   -5.0520   25.5587  -29.5108 H   0  0  0  0  0  0  0  0  0  0  0  0
   -7.4345   24.9800  -29.6505 H   0  0  0  0  0  0  0  0  0  0  0  0
   -6.7123   25.2416  -31.3193 H   0  0  0  0  0  0  0  0  0  0  0  0
   -9.3305   23.5320  -31.3493 H   0  0  0  0  0  0  0  0  0  0  0  0
   -8.1913   24.3011  -32.5057 H   0  0  0  0  0  0  0  0  0  0  0  0
   -8.4032   22.5174  -32.5057 H   0  0  0  0  0  0  0  0  0  0  0  0
   -7.4537   22.9073  -28.8224 H   0  0  0  0  0  0  0  0  0  0  0  0
   -8.7510   22.1940  -29.8397 H   0  0  0  0  0  0  0  0  0  0  0  0
   -7.1081   21.4678  -29.8397 H   0  0  0  0  0  0  0  0  0  0  0  0
  1  2  1  0
  2  3  1  0
  3  4  2  0
  4  5  1  0
  5  6  2  0
  6  7  1  0
  7  8  2  0
  8  9  1  0
  9 10  2  0
 10 11  1  0
 11 12  2  0
 12 13  1  0
 13 14  2  0
 14 15  1  0
 15 16  2  0
 16 17  1  0
 17 18  1  0
 18 19  1  0
 18 20  1  0
 20 21  2  0
 20 22  1  0
 22 23  1  0
 23 24  1  0
 24 25  1  0
 25 26  1  0
 25 27  1  0
  8  3  1  0
 17  9  1  0
 16 11  1  0
  1 28  1  0
  1 29  1  0
  1 30  1  0
  4 31  1  0
  5 32  1  0
  6 33  1  0
  7 34  1  0
 12 35  1  0
 13 36  1  0
 14 37  1  0
 15 38  1  0
 18 39  1  1
 19 40  1  0
 19 41  1  0
 19 42  1  0
 23 43  1  0
 23 44  1  0
 24 45  1  0
 24 46  1  0
 26 47  1  0
 26 48  1  0
 26 49  1  0
 27 50  1  0
 27 51  1  0
 27 52  1  0
M  END
>  <UniqueID>  (38) 
34

>  <SMILES>  (38) 
COc1ccccc1-c1nc2ccccc2n1[C@@H](C)C(=O)OCCN(C)C

>  <Energy>  (38) 
93.94586075054852

>  <Genealogy>  (38) 
COc1ccccc1-c1nc2ccccc2n1[C@@H](C)C(=O)OCCN(C)C (chirality)
COc1ccccc1-c1nc2ccccc2n1[C@@H](C)C(=O)OCCN(C)C (3D coordinates assigned)
COc1ccccc1-c1nc2ccccc2n1[C@@H](C)C(=O)OCCN(C)C (optimized conformer: 93.94586075054852 kcal/mol)

>  <smiles>  (38) 
COc1ccccc1-c1nc2ccccc2n1C(C)C(=O)OCCN(C)C

>  <score_type>  (38) 
oracle

>  <origin>  (38) 
adg

>  <m_score__min__energy>  (38) 
-8.2799999999999994

>  <m_primary>  (38) 
energy

$$$$
38:0
     RDKit          3D

 40 42  0  0  0  0  0  0  0  0999 V2000
   -4.7910   16.0890  -32.9940 C   0  0  0  0  0  0  0  0  0  0  0  0
   -5.8490   16.9250  -32.3570 C   0  0  0  0  0  0  0  0  0  0  0  0
   -6.6110   17.8150  -33.0270 N   0  0  0  0  0  0  0  0  0  0  0  0
   -7.3590   18.3340  -32.0280 C   0  0  0  0  0  0  0  0  0  0  0  0
   -8.3910   19.4080  -32.2210 C   0  0  0  0  0  0  0  0  0  0  0  0
   -7.8050   20.7630  -32.3440 N   0  0  0  0  0  0  0  0  0  0  0  0
   -8.6260   21.7820  -31.6490 C   0  0  0  0  0  0  0  0  0  0  0  0
   -8.3100   23.2230  -32.1130 C   0  0  0  0  0  0  0  0  0  0  0  0
   -7.1730   23.8890  -31.3180 C   0  0  0  0  0  0  0  0  0  0  0  0
   -5.8750   23.1940  -31.4540 N   0  0  0  0  0  0  0  0  0  0  0  0
   -4.7330   23.7410  -30.7790 C   0  0  0  0  0  0  0  0  0  0  0  0
   -4.4280   24.9510  -30.9580 O   0  0  0  0  0  0  0  0  0  0  0  0
   -3.9300   22.9170  -29.8560 C   0  0  0  0  0  0  0  0  0  0  0  0
   -4.1330   22.7700  -28.4870 C   0  0  0  0  0  0  0  0  0  0  0  0
   -3.1950   21.9260  -27.8720 C   0  0  0  0  0  0  0  0  0  0  0  0
   -2.2670   21.3900  -28.7540 C   0  0  0  0  0  0  0  0  0  0  0  0
   -2.6070   21.9730  -30.2960 S   0  0  0  0  0  0  0  0  0  0  0  0
   -5.6730   22.0810  -32.3960 C   0  0  0  0  0  0  0  0  0  0  0  0
   -6.3840   20.7930  -31.9330 C   0  0  0  0  0  0  0  0  0  0  0  0
   -7.0540   17.8070  -30.8640 O   0  0  0  0  0  0  0  0  0  0  0  0
   -6.1180   16.9290  -31.0400 N   0  0  0  0  0  0  0  0  0  0  0  0
   -4.1833   15.6088  -32.2129 H   0  0  0  0  0  0  0  0  0  0  0  0
   -5.2615   15.3161  -33.6195 H   0  0  0  0  0  0  0  0  0  0  0  0
   -4.1478   16.7255  -33.6195 H   0  0  0  0  0  0  0  0  0  0  0  0
   -8.9582   19.1876  -33.1373 H   0  0  0  0  0  0  0  0  0  0  0  0
   -9.0337   19.4089  -31.3283 H   0  0  0  0  0  0  0  0  0  0  0  0
   -9.6876   21.5735  -31.8477 H   0  0  0  0  0  0  0  0  0  0  0  0
   -8.3924   21.7204  -30.5758 H   0  0  0  0  0  0  0  0  0  0  0  0
   -8.0209   23.1916  -33.1739 H   0  0  0  0  0  0  0  0  0  0  0  0
   -9.2166   23.8229  -31.9449 H   0  0  0  0  0  0  0  0  0  0  0  0
   -7.0547   24.9218  -31.6777 H   0  0  0  0  0  0  0  0  0  0  0  0
   -7.4531   23.8480  -30.2551 H   0  0  0  0  0  0  0  0  0  0  0  0
   -4.9484   23.2665  -27.9406 H   0  0  0  0  0  0  0  0  0  0  0  0
   -3.1954   21.7099  -26.7934 H   0  0  0  0  0  0  0  0  0  0  0  0
   -1.4498   20.7024  -28.4906 H   0  0  0  0  0  0  0  0  0  0  0  0
   -6.0709   22.3719  -33.3794 H   0  0  0  0  0  0  0  0  0  0  0  0
   -4.5942   21.8726  -32.4478 H   0  0  0  0  0  0  0  0  0  0  0  0
   -5.8692   19.9261  -32.3728 H   0  0  0  0  0  0  0  0  0  0  0  0
   -6.3486   20.7630  -30.8340 H   0  0  0  0  0  0  0  0  0  0  0  0
   -5.6800   16.3480  -30.2930 H   0  0  0  0  0  0  0  0  0  0  0  0
  1  2  1  0
  2  3  1  0
  3  4  2  0
  4  5  1  0
  5  6  1  0
  6  7  1  0
  7  8  1  0
  8  9  1  0
  9 10  1  0
 10 11  1  0
 11 12  2  0
 11 13  1  0
 13 14  2  0
 14 15  1  0
 15 16  2  0
 16 17  1  0
 10 18  1  0
 18 19  1  0
  4 20  1  0
 20 21  1  0
 21  2  2  0
 19  6  1  0
 17 13  1  0
  1 22  1  0
  1 23  1  0
  1 24  1  0
  5 25  1  0
  5 26  1  0
  7 27  1  0
  7 28  1  0
  8 29  1  0
  8 30  1  0
  9 31  1  0
  9 32  1  0
 14 33  1  0
 15 34  1  0
 16 35  1  0
 18 36  1  0
 18 37  1  0
 19 38  1  0
 19 39  1  0
 21 40  1  0
M  CHG  1  21   1
M  END
>  <UniqueID>  (39) 
35

>  <SMILES>  (39) 
Cc1nc(CN2CCCN(C(=O)c3cccs3)CC2)o[nH+]1

>  <Energy>  (39) 
112.567984144861

>  <Genealogy>  (39) 
Cc1nc(CN2CCCN(C(=O)c3cccs3)CC2)o[nH+]1 (protonated)
Cc1nc(CN2CCCN(C(=O)c3cccs3)CC2)o[nH+]1 (3D coordinates assigned)
Cc1nc(CN2CCCN(C(=O)c3cccs3)CC2)o[nH+]1 (nonaromatic ring conformer: 112.567984144861 kcal/mol)

>  <smiles>  (39) 
Cc1noc(CN2CCCN(C(=O)c3cccs3)CC2)n1

>  <score_type>  (39) 
oracle

>  <origin>  (39) 
adg

>  <m_score__min__energy>  (39) 
-5.96

>  <m_primary>  (39) 
energy

$$$$
39:0
     RDKit          3D

 44 46  0  0  0  0  0  0  0  0999 V2000
   -1.9090   25.0740  -28.2170 C   0  0  0  0  0  0  0  0  0  0  0  0
   -2.7510   25.2910  -29.3450 O   0  0  0  0  0  0  0  0  0  0  0  0
   -3.5050   24.2900  -29.9730 C   0  0  0  0  0  0  0  0  0  0  0  0
   -4.6900   24.5670  -30.6830 C   0  0  0  0  0  0  0  0  0  0  0  0
   -5.4060   23.5310  -31.2910 C   0  0  0  0  0  0  0  0  0  0  0  0
   -4.9500   22.2070  -31.2070 C   0  0  0  0  0  0  0  0  0  0  0  0
   -5.7440   21.0890  -31.8350 C   0  0  0  0  0  0  0  0  0  0  0  0
   -7.2340   21.4790  -31.9910 C   0  0  2  0  0  0  0  0  0  0  0  0
   -7.8920   21.9070  -30.6830 C   0  0  0  0  0  0  0  0  0  0  0  0
   -9.3690   21.6410  -30.9010 C   0  0  0  0  0  0  0  0  0  0  0  0
   -9.4590   20.8890  -32.2270 C   0  0  0  0  0  0  0  0  0  0  0  0
   -8.1010   20.4410  -32.5900 N   0  0  0  0  0  0  0  0  0  0  0  0
   -7.8480   19.0700  -32.0780 C   0  0  0  0  0  0  0  0  0  0  0  0
   -6.8060   18.3690  -32.9110 C   0  0  0  0  0  0  0  0  0  0  0  0
   -6.1560   17.2320  -32.4070 C   0  0  0  0  0  0  0  0  0  0  0  0
   -5.1870   16.5950  -33.1820 C   0  0  0  0  0  0  0  0  0  0  0  0
   -4.8730   17.0920  -34.4460 C   0  0  0  0  0  0  0  0  0  0  0  0
   -5.5380   18.2240  -34.9200 C   0  0  0  0  0  0  0  0  0  0  0  0
   -6.4820   18.8360  -34.1530 N   0  0  0  0  0  0  0  0  0  0  0  0
   -3.7740   21.9310  -30.4910 C   0  0  0  0  0  0  0  0  0  0  0  0
   -3.0580   22.9650  -29.8830 C   0  0  0  0  0  0  0  0  0  0  0  0
   -2.4876   25.2231  -27.2934 H   0  0  0  0  0  0  0  0  0  0  0  0
   -1.5187   24.0459  -28.2432 H   0  0  0  0  0  0  0  0  0  0  0  0
   -1.0704   25.7854  -28.2432 H   0  0  0  0  0  0  0  0  0  0  0  0
   -5.0535   25.6024  -30.7594 H   0  0  0  0  0  0  0  0  0  0  0  0
   -6.3330   23.7558  -31.8388 H   0  0  0  0  0  0  0  0  0  0  0  0
   -5.3258   20.8656  -32.8276 H   0  0  0  0  0  0  0  0  0  0  0  0
   -5.6816   20.2073  -31.1803 H   0  0  0  0  0  0  0  0  0  0  0  0
   -7.1647   22.3271  -32.6881 H   0  0  0  0  0  0  0  0  0  0  0  0
   -7.5090   21.3114  -29.8412 H   0  0  0  0  0  0  0  0  0  0  0  0
   -7.6870   22.9587  -30.4342 H   0  0  0  0  0  0  0  0  0  0  0  0
   -9.7735   21.0268  -30.0830 H   0  0  0  0  0  0  0  0  0  0  0  0
   -9.9521   22.5735  -30.9213 H   0  0  0  0  0  0  0  0  0  0  0  0
  -10.1227   20.0185  -32.1182 H   0  0  0  0  0  0  0  0  0  0  0  0
   -9.8677   21.5438  -33.0107 H   0  0  0  0  0  0  0  0  0  0  0  0
   -7.4950   19.1333  -31.0381 H   0  0  0  0  0  0  0  0  0  0  0  0
   -8.7850   18.4963  -32.1313 H   0  0  0  0  0  0  0  0  0  0  0  0
   -6.4088   16.8461  -31.4084 H   0  0  0  0  0  0  0  0  0  0  0  0
   -4.6718   15.7027  -32.7968 H   0  0  0  0  0  0  0  0  0  0  0  0
   -4.1090   16.5971  -35.0636 H   0  0  0  0  0  0  0  0  0  0  0  0
   -5.2986   18.6231  -35.9167 H   0  0  0  0  0  0  0  0  0  0  0  0
   -6.9590   19.6850  -34.5340 H   0  0  0  0  0  0  0  0  0  0  0  0
   -3.4145   20.8947  -30.4084 H   0  0  0  0  0  0  0  0  0  0  0  0
   -2.1355   22.7371  -29.3289 H   0  0  0  0  0  0  0  0  0  0  0  0
  1  2  1  0
  2  3  1  0
  3  4  2  0
  4  5  1  0
  5  6  2  0
  6  7  1  0
  7  8  1  0
  8  9  1  0
  9 10  1  0
 10 11  1  0
 11 12  1  0
 12 13  1  0
 13 14  1  0
 14 15  2  0
 15 16  1  0
 16 17  2  0
 17 18  1  0
 18 19  2  0
  6 20  1  0
 20 21  2  0
 21  3  1  0
 12  8  1  0
 19 14  1  0
  1 22  1  0
  1 23  1  0
  1 24  1  0
  4 25  1  0
  5 26  1  0
  7 27  1  0
  7 28  1  0
  8 29  1  6
  9 30  1  0
  9 31  1  0
 10 32  1  0
 10 33  1  0
 11 34  1  0
 11 35  1  0
 13 36  1  0
 13 37  1  0
 15 38  1  0
 16 39  1  0
 17 40  1  0
 18 41  1  0
 19 42  1  0
 20 43  1  0
 21 44  1  0
M  CHG  1  19   1
M  END
>  <UniqueID>  (40) 
36

>  <SMILES>  (40) 
COc1ccc(C[C@@H]2CCCN2Cc2cccc[nH+]2)cc1

>  <Energy>  (40) 
50.78014155159546

>  <Genealogy>  (40) 
COc1ccc(CC2CCCN2Cc2cccc[nH+]2)cc1 (protonated)
COc1ccc(C[C@@H]2CCCN2Cc2cccc[nH+]2)cc1 (chirality)
COc1ccc(C[C@@H]2CCCN2Cc2cccc[nH+]2)cc1 (3D coordinates assigned)
COc1ccc(C[C@@H]2CCCN2Cc2cccc[nH+]2)cc1 (nonaromatic ring conformer: 50.78014155159546 kcal/mol)

>  <smiles>  (40) 
COc1ccc(CC2CCCN2Cc2ccccn2)cc1

>  <score_type>  (40) 
oracle

>  <origin>  (40) 
adg

>  <m_score__min__energy>  (40) 
-8

>  <m_primary>  (40) 
energy

$$$$
40:0
     RDKit          3D

 43 45  0  0  0  0  0  0  0  0999 V2000
   -1.0022   21.5967  -27.4002 H   0  0  0  0  0  0  0  0  0  0  0  0
   -1.7050   22.2860  -27.8910 C   0  0  0  0  0  0  0  0  0  0  0  0
   -3.0320   21.9010  -28.0960 C   0  0  0  0  0  0  0  0  0  0  0  0
   -3.3742   20.9100  -27.7631 H   0  0  0  0  0  0  0  0  0  0  0  0
   -3.9260   22.7740  -28.7240 C   0  0  0  0  0  0  0  0  0  0  0  0
   -4.9687   22.4647  -28.8883 H   0  0  0  0  0  0  0  0  0  0  0  0
   -3.4990   24.0440  -29.1460 C   0  0  0  0  0  0  0  0  0  0  0  0
   -4.4510   24.9540  -29.8800 C   0  0  0  0  0  0  0  0  0  0  0  0
   -4.0085   25.9579  -29.9593 H   0  0  0  0  0  0  0  0  0  0  0  0
   -5.3998   25.0097  -29.3261 H   0  0  0  0  0  0  0  0  0  0  0  0
   -4.7050   24.4280  -31.2210 N   0  0  0  0  0  0  0  0  0  0  0  0
   -5.5840   23.5090  -31.4940 C   0  0  0  0  0  0  0  0  0  0  0  0
   -6.8560   23.5300  -31.0200 N   0  0  0  0  0  0  0  0  0  0  0  0
   -7.3840   22.4060  -31.5350 C   0  0  0  0  0  0  0  0  0  0  0  0
   -8.6750   21.9220  -31.3470 C   0  0  0  0  0  0  0  0  0  0  0  0
   -9.4046   22.4744  -30.7366 H   0  0  0  0  0  0  0  0  0  0  0  0
   -9.0180   20.7040  -31.9620 C   0  0  0  0  0  0  0  0  0  0  0  0
  -10.0305   20.2932  -31.8355 H   0  0  0  0  0  0  0  0  0  0  0  0
   -8.0690   20.0060  -32.7410 C   0  0  0  0  0  0  0  0  0  0  0  0
   -8.3478   19.0541  -33.2165 H   0  0  0  0  0  0  0  0  0  0  0  0
   -6.7700   20.5180  -32.9140 C   0  0  0  0  0  0  0  0  0  0  0  0
   -5.8450   19.8260  -33.6850 O   0  0  0  0  0  0  0  0  0  0  0  0
   -6.4590   21.7360  -32.2900 C   0  0  0  0  0  0  0  0  0  0  0  0
   -5.3060   22.4350  -32.2790 N   0  0  0  0  0  0  0  0  0  0  0  0
   -3.9980   22.0600  -32.8300 C   0  0  0  0  0  0  0  0  0  0  0  0
   -3.4938   22.9611  -33.2092 H   0  0  0  0  0  0  0  0  0  0  0  0
   -4.1509   21.3376  -33.6453 H   0  0  0  0  0  0  0  0  0  0  0  0
   -3.1240   21.4100  -31.7520 C   0  0  0  0  0  0  0  0  0  0  0  0
   -3.3014   20.3244  -31.7500 H   0  0  0  0  0  0  0  0  0  0  0  0
   -3.3879   21.8427  -30.7757 H   0  0  0  0  0  0  0  0  0  0  0  0
   -1.6900   21.6670  -32.0130 N   0  0  0  0  0  0  0  0  0  0  0  0
   -0.8510   21.0020  -31.0050 C   0  0  0  0  0  0  0  0  0  0  0  0
   -1.1989   21.2778  -29.9986 H   0  0  0  0  0  0  0  0  0  0  0  0
   -0.9211   19.9115  -31.1312 H   0  0  0  0  0  0  0  0  0  0  0  0
    0.1947   21.3192  -31.1312 H   0  0  0  0  0  0  0  0  0  0  0  0
   -1.3080   21.2040  -33.3580 C   0  0  0  0  0  0  0  0  0  0  0  0
   -0.6102   20.3582  -33.2702 H   0  0  0  0  0  0  0  0  0  0  0  0
   -2.2070   20.8824  -33.9042 H   0  0  0  0  0  0  0  0  0  0  0  0
   -0.8215   22.0256  -33.9042 H   0  0  0  0  0  0  0  0  0  0  0  0
   -2.1600   24.4260  -28.9350 C   0  0  0  0  0  0  0  0  0  0  0  0
   -1.7060   25.6760  -29.3430 O   0  0  0  0  0  0  0  0  0  0  0  0
   -1.2700   23.5460  -28.3090 C   0  0  0  0  0  0  0  0  0  0  0  0
   -0.2248   23.8473  -28.1456 H   0  0  0  0  0  0  0  0  0  0  0  0
  1  2  1  0
  2  3  2  0
  3  4  1  0
  3  5  1  0
  5  6  1  0
  5  7  2  0
  7  8  1  0
  8  9  1  0
  8 10  1  0
  8 11  1  0
 11 12  2  0
 12 13  1  0
 13 14  1  0
 14 15  2  0
 15 16  1  0
 15 17  1  0
 17 18  1  0
 17 19  2  0
 19 20  1  0
 19 21  1  0
 21 22  1  0
 21 23  2  0
 23 24  1  0
 24 25  1  0
 25 26  1  0
 25 27  1  0
 25 28  1  0
 28 29  1  0
 28 30  1  0
 28 31  1  0
 31 32  1  0
 32 33  1  0
 32 34  1  0
 32 35  1  0
 31 36  1  0
 36 37  1  0
 36 38  1  0
 36 39  1  0
  7 40  1  0
 40 41  1  0
 40 42  2  0
 42 43  1  0
 42  2  1  0
 24 12  1  0
 23 14  1  0
M  CHG  3  13  -1  22  -1  41  -1
M  END
>  <UniqueID>  (41) 
37

>  <SMILES>  (41) 
CN(C)CCn1/c(=N/Cc2ccccc2[O-])[n-]c2cccc([O-])c21

>  <Energy>  (41) 
80.11258690270613

>  <Genealogy>  (41) 
CN(C)CCn1c(=NCc2ccccc2[O-])[n-]c2cccc([O-])c21 (protonated)
CN(C)CCn1/c(=N/Cc2ccccc2[O-])[n-]c2cccc([O-])c21 (cis-trans isomerization)
CN(C)CCn1/c(=N/Cc2ccccc2[O-])[n-]c2cccc([O-])c21 (3D coordinates assigned)
CN(C)CCn1/c(=N/Cc2ccccc2[O-])[n-]c2cccc([O-])c21 (optimized conformer: 80.11258690270613 kcal/mol)

>  <smiles>  (41) 
CN(C)CCn1c(=NCc2ccccc2O)[nH]c2cccc(O)c21

>  <score_type>  (41) 
oracle

>  <origin>  (41) 
adg

>  <m_score__min__energy>  (41) 
-11.06

>  <m_primary>  (41) 
energy

$$$$
41:0
     RDKit          3D

 57 61  0  0  0  0  0  0  0  0999 V2000
   -9.6500   21.6970  -30.7530 C   0  0  0  0  0  0  0  0  0  0  0  0
   -8.6780   20.7950  -31.4190 C   0  0  0  0  0  0  0  0  0  0  0  0
   -9.0770   19.6670  -32.1180 C   0  0  0  0  0  0  0  0  0  0  0  0
   -8.1190   18.8460  -32.7450 C   0  0  0  0  0  0  0  0  0  0  0  0
   -6.7810   19.1570  -32.6630 C   0  0  0  0  0  0  0  0  0  0  0  0
   -5.7350   18.3720  -33.3180 C   0  0  0  0  0  0  0  0  0  0  0  0
   -5.9610   17.0690  -33.7110 C   0  0  0  0  0  0  0  0  0  0  0  0
   -4.9620   16.3010  -34.3180 C   0  0  0  0  0  0  0  0  0  0  0  0
   -3.7160   16.9020  -34.5140 C   0  0  0  0  0  0  0  0  0  0  0  0
   -3.4550   18.2000  -34.1300 C   0  0  0  0  0  0  0  0  0  0  0  0
   -2.1310   18.8090  -34.3240 C   0  0  0  0  0  0  0  0  0  0  0  0
   -0.9270   18.2250  -34.2740 N   0  0  0  0  0  0  0  0  0  0  0  0
    0.0340   19.1480  -34.4980 C   0  0  0  0  0  0  0  0  0  0  0  0
    1.4060   19.1390  -34.5650 C   0  0  0  0  0  0  0  0  0  0  0  0
    2.1520   17.8760  -34.3620 C   0  0  0  0  0  0  0  0  0  0  0  0
    2.0650   20.3190  -34.8220 C   0  0  0  0  0  0  0  0  0  0  0  0
    1.3920   21.5000  -35.0120 C   0  0  0  0  0  0  0  0  0  0  0  0
    0.0150   21.5350  -34.9510 C   0  0  0  0  0  0  0  0  0  0  0  0
   -0.6230   20.3390  -34.6930 C   0  0  0  0  0  0  0  0  0  0  0  0
   -1.9680   20.1320  -34.5850 N   0  0  0  0  0  0  0  0  0  0  0  0
   -4.4700   18.9370  -33.5310 C   0  0  0  0  0  0  0  0  0  0  0  0
   -6.3700   20.2820  -31.9650 C   0  0  0  0  0  0  0  0  0  0  0  0
   -7.3230   21.0860  -31.3540 C   0  0  0  0  0  0  0  0  0  0  0  0
   -6.9160   22.2710  -30.6590 N   0  0  0  0  0  0  0  0  0  0  0  0
   -6.8480   23.5440  -31.3040 C   0  0  0  0  0  0  0  0  0  0  0  0
   -7.1510   23.7080  -32.5130 O   0  0  0  0  0  0  0  0  0  0  0  0
   -6.3970   24.6830  -30.4560 C   0  0  0  0  0  0  0  0  0  0  0  0
   -5.1100   24.3770  -29.7410 C   0  0  0  0  0  0  0  0  0  0  0  0
   -3.9090   24.9220  -30.0910 C   0  0  0  0  0  0  0  0  0  0  0  0
   -2.7800   24.5420  -29.3460 C   0  0  0  0  0  0  0  0  0  0  0  0
   -2.9350   23.6430  -28.3010 C   0  0  0  0  0  0  0  0  0  0  0  0
   -4.1840   23.1130  -27.9780 C   0  0  0  0  0  0  0  0  0  0  0  0
   -5.2290   23.5000  -28.7140 N   0  0  0  0  0  0  0  0  0  0  0  0
   -9.5490   21.6033  -29.6617 H   0  0  0  0  0  0  0  0  0  0  0  0
   -9.4498   22.7365  -31.0518 H   0  0  0  0  0  0  0  0  0  0  0  0
  -10.6717   21.4198  -31.0518 H   0  0  0  0  0  0  0  0  0  0  0  0
  -10.1450   19.4118  -32.1835 H   0  0  0  0  0  0  0  0  0  0  0  0
   -8.4415   17.9538  -33.3017 H   0  0  0  0  0  0  0  0  0  0  0  0
   -6.9522   16.6227  -33.5427 H   0  0  0  0  0  0  0  0  0  0  0  0
   -5.1502   15.2629  -34.6294 H   0  0  0  0  0  0  0  0  0  0  0  0
   -2.9149   16.3188  -34.9916 H   0  0  0  0  0  0  0  0  0  0  0  0
    2.2644   17.6857  -33.2844 H   0  0  0  0  0  0  0  0  0  0  0  0
    1.5995   17.0453  -34.8254 H   0  0  0  0  0  0  0  0  0  0  0  0
    3.1462   17.9588  -34.8254 H   0  0  0  0  0  0  0  0  0  0  0  0
    3.1636   20.3159  -34.8768 H   0  0  0  0  0  0  0  0  0  0  0  0
    1.9542   22.4236  -35.2140 H   0  0  0  0  0  0  0  0  0  0  0  0
   -0.5465   22.4690  -35.1004 H   0  0  0  0  0  0  0  0  0  0  0  0
   -2.6990   20.8450  -34.6810 H   0  0  0  0  0  0  0  0  0  0  0  0
   -4.2784   19.9748  -33.2208 H   0  0  0  0  0  0  0  0  0  0  0  0
   -5.3016   20.5347  -31.8960 H   0  0  0  0  0  0  0  0  0  0  0  0
   -6.6690   22.1490  -29.6360 H   0  0  0  0  0  0  0  0  0  0  0  0
   -6.2468   25.5648  -31.0961 H   0  0  0  0  0  0  0  0  0  0  0  0
   -7.1714   24.8697  -29.6974 H   0  0  0  0  0  0  0  0  0  0  0  0
   -3.8277   25.6332  -30.9262 H   0  0  0  0  0  0  0  0  0  0  0  0
   -1.7880   24.9513  -29.5878 H   0  0  0  0  0  0  0  0  0  0  0  0
   -2.0543   23.3418  -27.7148 H   0  0  0  0  0  0  0  0  0  0  0  0
   -4.3040   22.4021  -27.1472 H   0  0  0  0  0  0  0  0  0  0  0  0
  1  2  1  0
  2  3  2  0
  3  4  1  0
  4  5  2  0
  5  6  1  0
  6  7  2  0
  7  8  1  0
  8  9  2  0
  9 10  1  0
 10 11  1  0
 11 12  2  0
 12 13  1  0
 13 14  2  0
 14 15  1  0
 14 16  1  0
 16 17  2  0
 17 18  1  0
 18 19  2  0
 19 20  1  0
 10 21  2  0
  5 22  1  0
 22 23  2  0
 23 24  1  0
 24 25  1  0
 25 26  2  0
 25 27  1  0
 27 28  1  0
 28 29  2  0
 29 30  1  0
 30 31  2  0
 31 32  1  0
 32 33  2  0
 23  2  1  0
 33 28  1  0
 21  6  1  0
 20 11  1  0
 19 13  1  0
  1 34  1  0
  1 35  1  0
  1 36  1  0
  3 37  1  0
  4 38  1  0
  7 39  1  0
  8 40  1  0
  9 41  1  0
 15 42  1  0
 15 43  1  0
 15 44  1  0
 16 45  1  0
 17 46  1  0
 18 47  1  0
 20 48  1  0
 21 49  1  0
 22 50  1  0
 24 51  1  0
 27 52  1  0
 27 53  1  0
 29 54  1  0
 30 55  1  0
 31 56  1  0
 32 57  1  0
M  END
>  <smiles>  (42) 
Cc1ccc(-c2cccc(-c3nc4c(C)cccc4[nH]3)c2)cc1NC(=O)Cc1ccccn1

>  <score_type>  (42) 
oracle

>  <origin>  (42) 
adg

>  <m_score__min__energy>  (42) 
-10.59

>  <m_primary>  (42) 
energy

$$$$
42:0
     RDKit          3D

 53 55  0  0  0  0  0  0  0  0999 V2000
   -1.2240   24.9850  -25.1340 C   0  0  0  0  0  0  0  0  0  0  0  0
   -1.9370   24.8570  -26.4540 C   0  0  0  0  0  0  0  0  0  0  0  0
   -3.3130   24.5770  -26.4530 C   0  0  0  0  0  0  0  0  0  0  0  0
   -4.0060   24.4050  -27.6520 C   0  0  0  0  0  0  0  0  0  0  0  0
   -3.3370   24.5060  -28.8770 C   0  0  0  0  0  0  0  0  0  0  0  0
   -4.0680   24.3300  -30.1510 C   0  0  0  0  0  0  0  0  0  0  0  0
   -4.3480   25.3450  -30.8450 O   0  0  0  0  0  0  0  0  0  0  0  0
   -4.4600   23.0250  -30.6150 N   0  0  0  0  0  0  0  0  0  0  0  0
   -5.7320   22.8330  -31.3090 C   0  0  0  0  0  0  0  0  0  0  0  0
   -5.4690   22.1950  -32.6770 C   0  0  0  0  0  0  0  0  0  0  0  0
   -4.6310   20.9450  -32.6350 N   0  0  0  0  0  0  0  0  0  0  0  0
   -5.3850   19.7830  -33.2250 C   0  0  0  0  0  0  0  0  0  0  0  0
   -6.9390   19.9910  -33.2490 C   0  0  0  0  0  0  0  0  0  0  0  0
   -7.7610   19.1520  -32.2390 C   0  0  0  0  0  0  0  0  0  0  0  0
   -7.8940   17.6540  -32.5330 C   0  0  0  0  0  0  0  0  0  0  0  0
   -6.9010   17.1460  -33.5810 C   0  0  0  0  0  0  0  0  0  0  0  0
   -5.4360   17.1220  -33.1180 C   0  0  0  0  0  0  0  0  0  0  0  0
   -4.9560   18.4470  -32.4990 C   0  0  0  0  0  0  0  0  0  0  0  0
   -4.0770   20.6700  -31.2790 C   0  0  0  0  0  0  0  0  0  0  0  0
   -3.4900   21.9280  -30.6190 C   0  0  0  0  0  0  0  0  0  0  0  0
   -1.9690   24.8220  -28.8880 C   0  0  0  0  0  0  0  0  0  0  0  0
   -1.2580   25.0110  -27.6890 C   0  0  0  0  0  0  0  0  0  0  0  0
    0.1410   25.3410  -27.7470 N   0  0  0  0  0  0  0  0  0  0  0  0
    0.9940   24.4380  -27.8730 O   0  0  0  0  0  0  0  0  0  0  0  0
    0.5510   26.6520  -27.8160 O   0  0  0  0  0  0  0  0  0  0  0  0
   -1.9452   24.8555  -24.3136 H   0  0  0  0  0  0  0  0  0  0  0  0
   -0.4442   24.2125  -25.0620 H   0  0  0  0  0  0  0  0  0  0  0  0
   -0.7616   25.9805  -25.0620 H   0  0  0  0  0  0  0  0  0  0  0  0
   -3.8504   24.4923  -25.4969 H   0  0  0  0  0  0  0  0  0  0  0  0
   -5.0844   24.1888  -27.6341 H   0  0  0  0  0  0  0  0  0  0  0  0
   -6.3798   22.1727  -30.7137 H   0  0  0  0  0  0  0  0  0  0  0  0
   -6.2293   23.8048  -31.4442 H   0  0  0  0  0  0  0  0  0  0  0  0
   -6.4391   21.9426  -33.1301 H   0  0  0  0  0  0  0  0  0  0  0  0
   -4.8990   22.9329  -33.2607 H   0  0  0  0  0  0  0  0  0  0  0  0
   -3.7950   21.1070  -33.2480 H   0  0  0  0  0  0  0  0  0  0  0  0
   -5.1073   19.7083  -34.2867 H   0  0  0  0  0  0  0  0  0  0  0  0
   -7.1379   21.0529  -33.0423 H   0  0  0  0  0  0  0  0  0  0  0  0
   -7.2642   19.6523  -34.2438 H   0  0  0  0  0  0  0  0  0  0  0  0
   -7.2841   19.2568  -31.2533 H   0  0  0  0  0  0  0  0  0  0  0  0
   -8.7848   19.5496  -32.3000 H   0  0  0  0  0  0  0  0  0  0  0  0
   -7.7269   17.0996  -31.5977 H   0  0  0  0  0  0  0  0  0  0  0  0
   -8.9034   17.4929  -32.9394 H   0  0  0  0  0  0  0  0  0  0  0  0
   -7.1896   16.1214  -33.8584 H   0  0  0  0  0  0  0  0  0  0  0  0
   -6.9494   17.8519  -34.4232 H   0  0  0  0  0  0  0  0  0  0  0  0
   -5.3235   16.3274  -32.3657 H   0  0  0  0  0  0  0  0  0  0  0  0
   -4.8210   16.9463  -34.0130 H   0  0  0  0  0  0  0  0  0  0  0  0
   -5.3434   18.4907  -31.4704 H   0  0  0  0  0  0  0  0  0  0  0  0
   -3.8597   18.4182  -32.5850 H   0  0  0  0  0  0  0  0  0  0  0  0
   -4.8833   20.2798  -30.6406 H   0  0  0  0  0  0  0  0  0  0  0  0
   -3.2623   19.9395  -31.3916 H   0  0  0  0  0  0  0  0  0  0  0  0
   -3.2109   21.6920  -29.5815 H   0  0  0  0  0  0  0  0  0  0  0  0
   -2.6081   22.2447  -31.1952 H   0  0  0  0  0  0  0  0  0  0  0  0
   -1.4448   24.9234  -29.8497 H   0  0  0  0  0  0  0  0  0  0  0  0
  1  2  1  0
  2  3  2  0
  3  4  1  0
  4  5  2  0
  5  6  1  0
  6  7  2  0
  6  8  1  0
  8  9  1  0
  9 10  1  0
 10 11  1  0
 11 12  1  0
 12 13  1  0
 13 14  1  0
 14 15  1  0
 15 16  1  0
 16 17  1  0
 17 18  1  0
 11 19  1  0
 19 20  1  0
  5 21  1  0
 21 22  2  0
 22 23  1  0
 23 24  2  0
 23 25  1  0
 22  2  1  0
 20  8  1  0
 18 12  1  0
  1 26  1  0
  1 27  1  0
  1 28  1  0
  3 29  1  0
  4 30  1  0
  9 31  1  0
  9 32  1  0
 10 33  1  0
 10 34  1  0
 11 35  1  0
 12 36  1  0
 13 37  1  0
 13 38  1  0
 14 39  1  0
 14 40  1  0
 15 41  1  0
 15 42  1  0
 16 43  1  0
 16 44  1  0
 17 45  1  0
 17 46  1  0
 18 47  1  0
 18 48  1  0
 19 49  1  0
 19 50  1  0
 20 51  1  0
 20 52  1  0
 21 53  1  0
M  CHG  3  11   1  23   1  25  -1
M  END
>  <UniqueID>  (43) 
38

>  <SMILES>  (43) 
Cc1ccc(C(=O)N2CC[NH+](C3CCCCCC3)CC2)cc1[N+](=O)[O-]

>  <Energy>  (43) 
89.38526476463535

>  <Genealogy>  (43) 
Cc1ccc(C(=O)N2CC[NH+](C3CCCCCC3)CC2)cc1[N+](=O)[O-] (protonated)
Cc1ccc(C(=O)N2CC[NH+](C3CCCCCC3)CC2)cc1[N+](=O)[O-] (3D coordinates assigned)
Cc1ccc(C(=O)N2CC[NH+](C3CCCCCC3)CC2)cc1[N+](=O)[O-] (nonaromatic ring conformer: 89.38526476463535 kcal/mol)

>  <smiles>  (43) 
Cc1ccc(C(=O)N2CCN(C3CCCCCC3)CC2)cc1[N+](=O)[O-]

>  <score_type>  (43) 
oracle

>  <origin>  (43) 
adg

>  <m_score__min__energy>  (43) 
-6.7199999999999998

>  <m_primary>  (43) 
energy

$$$$
43:0
     RDKit          3D

 65 67  0  0  0  0  0  0  0  0999 V2000
   -9.0850   21.1600  -30.9520 C   0  0  0  0  0  0  0  0  0  0  0  0
   -9.6760   20.8200  -32.3170 C   0  0  0  0  0  0  0  0  0  0  0  0
   -8.7950   19.9280  -33.0880 N   0  0  0  0  0  0  0  0  0  0  0  0
   -8.1740   18.8470  -32.2980 C   0  0  0  0  0  0  0  0  0  0  0  0
   -6.6370   18.9620  -32.1970 C   0  0  0  0  0  0  0  0  0  0  0  0
   -6.1250   20.0630  -33.0180 N   0  0  0  0  0  0  0  0  0  0  0  0
   -4.7250   20.4050  -33.0800 C   0  0  0  0  0  0  0  0  0  0  0  0
   -3.8040   19.5380  -33.7000 C   0  0  0  0  0  0  0  0  0  0  0  0
   -2.4440   19.8540  -33.7380 C   0  0  0  0  0  0  0  0  0  0  0  0
   -1.9840   21.0380  -33.1610 C   0  0  0  0  0  0  0  0  0  0  0  0
   -2.8810   21.9100  -32.5440 C   0  0  0  0  0  0  0  0  0  0  0  0
   -4.2510   21.6090  -32.5010 C   0  0  0  0  0  0  0  0  0  0  0  0
   -5.1560   22.5340  -31.7850 C   0  0  0  0  0  0  0  0  0  0  0  0
   -6.3800   22.8950  -32.3690 C   0  0  0  0  0  0  0  0  0  0  0  0
   -7.2400   23.7810  -31.7190 C   0  0  0  0  0  0  0  0  0  0  0  0
   -6.8830   24.3220  -30.4830 C   0  0  0  0  0  0  0  0  0  0  0  0
   -5.6630   23.9810  -29.8970 C   0  0  0  0  0  0  0  0  0  0  0  0
   -4.7850   23.0920  -30.5420 C   0  0  0  0  0  0  0  0  0  0  0  0
   -3.5480   22.7170  -29.9160 N   0  0  0  0  0  0  0  0  0  0  0  0
   -2.5790   23.6790  -29.4780 C   0  0  0  0  0  0  0  0  0  0  0  0
   -2.7460   24.9070  -29.7210 O   0  0  0  0  0  0  0  0  0  0  0  0
   -1.3330   23.2330  -28.7640 C   0  0  0  0  0  0  0  0  0  0  0  0
   -0.6200   22.1100  -29.5280 C   0  0  0  0  0  0  0  0  0  0  0  0
   -1.4690   20.8920  -29.5730 N   0  0  0  0  0  0  0  0  0  0  0  0
   -1.7860   20.3680  -28.2300 C   0  0  0  0  0  0  0  0  0  0  0  0
   -0.5690   19.7020  -27.5460 C   0  0  0  0  0  0  0  0  0  0  0  0
    0.5350   19.4600  -28.4980 N   0  0  0  0  0  0  0  0  0  0  0  0
    1.5530   18.5900  -27.8920 C   0  0  0  0  0  0  0  0  0  0  0  0
    0.0210   18.8590  -29.7400 C   0  0  0  0  0  0  0  0  0  0  0  0
   -0.9400   19.8290  -30.4580 C   0  0  0  0  0  0  0  0  0  0  0  0
   -9.7472   20.7790  -30.1605 H   0  0  0  0  0  0  0  0  0  0  0  0
   -8.0930   20.6945  -30.8557 H   0  0  0  0  0  0  0  0  0  0  0  0
   -8.9887   22.2515  -30.8557 H   0  0  0  0  0  0  0  0  0  0  0  0
  -10.6462   20.3227  -32.1709 H   0  0  0  0  0  0  0  0  0  0  0  0
   -9.7925   21.7567  -32.8817 H   0  0  0  0  0  0  0  0  0  0  0  0
   -9.3580   19.4970  -33.8570 H   0  0  0  0  0  0  0  0  0  0  0  0
   -8.5927   18.8743  -31.2812 H   0  0  0  0  0  0  0  0  0  0  0  0
   -8.3942   17.9013  -32.8148 H   0  0  0  0  0  0  0  0  0  0  0  0
   -6.3602   19.1403  -31.1474 H   0  0  0  0  0  0  0  0  0  0  0  0
   -6.1961   18.0237  -32.5646 H   0  0  0  0  0  0  0  0  0  0  0  0
   -6.8130   20.6760  -33.5070 H   0  0  0  0  0  0  0  0  0  0  0  0
   -4.1592   18.6033  -34.1585 H   0  0  0  0  0  0  0  0  0  0  0  0
   -1.7344   19.1681  -34.2237 H   0  0  0  0  0  0  0  0  0  0  0  0
   -0.9124   21.2842  -33.1927 H   0  0  0  0  0  0  0  0  0  0  0  0
   -2.5118   22.8404  -32.0878 H   0  0  0  0  0  0  0  0  0  0  0  0
   -6.6634   22.4766  -33.3460 H   0  0  0  0  0  0  0  0  0  0  0  0
   -8.2003   24.0533  -32.1812 H   0  0  0  0  0  0  0  0  0  0  0  0
   -7.5636   25.0176  -29.9703 H   0  0  0  0  0  0  0  0  0  0  0  0
   -5.3862   24.4110  -28.9231 H   0  0  0  0  0  0  0  0  0  0  0  0
   -3.2770   21.7050  -29.9200 H   0  0  0  0  0  0  0  0  0  0  0  0
   -0.6499   24.0898  -28.6678 H   0  0  0  0  0  0  0  0  0  0  0  0
   -1.6206   22.8490  -27.7741 H   0  0  0  0  0  0  0  0  0  0  0  0
   -0.4131   22.4454  -30.5550 H   0  0  0  0  0  0  0  0  0  0  0  0
    0.3208   21.8694  -29.0113 H   0  0  0  0  0  0  0  0  0  0  0  0
   -2.1315   21.2008  -27.5999 H   0  0  0  0  0  0  0  0  0  0  0  0
   -2.5626   19.5981  -28.3488 H   0  0  0  0  0  0  0  0  0  0  0  0
   -0.2078   20.3613  -26.7429 H   0  0  0  0  0  0  0  0  0  0  0  0
   -0.8930   18.7299  -27.1460 H   0  0  0  0  0  0  0  0  0  0  0  0
    1.4819   18.6508  -26.7960 H   0  0  0  0  0  0  0  0  0  0  0  0
    1.3860   17.5513  -28.2133 H   0  0  0  0  0  0  0  0  0  0  0  0
    2.5530   18.9168  -28.2133 H   0  0  0  0  0  0  0  0  0  0  0  0
    0.8655   18.6284  -30.4060 H   0  0  0  0  0  0  0  0  0  0  0  0
   -0.5278   17.9398  -29.4874 H   0  0  0  0  0  0  0  0  0  0  0  0
   -0.3993   20.3042  -31.2897 H   0  0  0  0  0  0  0  0  0  0  0  0
   -1.7996   19.2375  -30.8064 H   0  0  0  0  0  0  0  0  0  0  0  0
  1  2  1  0
  2  3  1  0
  3  4  1  0
  4  5  1  0
  5  6  1  0
  6  7  1  0
  7  8  2  0
  8  9  1  0
  9 10  2  0
 10 11  1  0
 11 12  2  0
 12 13  1  0
 13 14  2  0
 14 15  1  0
 15 16  2  0
 16 17  1  0
 17 18  2  0
 18 19  1  0
 19 20  1  0
 20 21  2  0
 20 22  1  0
 22 23  1  0
 23 24  1  0
 24 25  1  0
 25 26  1  0
 26 27  1  0
 27 28  1  0
 27 29  1  0
 29 30  1  0
 12  7  1  0
 18 13  1  0
 30 24  1  0
  1 31  1  0
  1 32  1  0
  1 33  1  0
  2 34  1  0
  2 35  1  0
  3 36  1  0
  4 37  1  0
  4 38  1  0
  5 39  1  0
  5 40  1  0
  6 41  1  0
  8 42  1  0
  9 43  1  0
 10 44  1  0
 11 45  1  0
 14 46  1  0
 15 47  1  0
 16 48  1  0
 17 49  1  0
 19 50  1  0
 22 51  1  0
 22 52  1  0
 23 53  1  0
 23 54  1  0
 25 55  1  0
 25 56  1  0
 26 57  1  0
 26 58  1  0
 28 59  1  0
 28 60  1  0
 28 61  1  0
 29 62  1  0
 29 63  1  0
 30 64  1  0
 30 65  1  0
M  END
>  <UniqueID>  (44) 
39

>  <SMILES>  (44) 
CCNCCNc1ccccc1-c1ccccc1NC(=O)CCN1CCN(C)CC1

>  <Energy>  (44) 
84.09084991432826

>  <Genealogy>  (44) 
CCNCCNc1ccccc1-c1ccccc1NC(=O)CCN1CCN(C)CC1 (3D coordinates assigned)
CCNCCNc1ccccc1-c1ccccc1NC(=O)CCN1CCN(C)CC1 (nonaromatic ring conformer: 84.09084991432826 kcal/mol)

>  <smiles>  (44) 
CCNCCNc1ccccc1-c1ccccc1NC(=O)CCN1CCN(C)CC1

>  <score_type>  (44) 
oracle

>  <origin>  (44) 
adg

>  <m_score__min__energy>  (44) 
-8.5800000000000001

>  <m_primary>  (44) 
energy

$$$$
44:0
     RDKit          3D

 22 23  0  0  0  0  0  0  0  0999 V2000
   -3.8930   25.2800  -30.6480 N   0  0  0  0  0  0  0  0  0  0  0  0
   -5.3000   25.0480  -30.6130 C   0  0  0  0  0  0  0  0  0  0  0  0
   -6.0530   25.9160  -30.0970 O   0  0  0  0  0  0  0  0  0  0  0  0
   -5.8710   23.8020  -31.1760 C   0  0  0  0  0  0  0  0  0  0  0  0
   -5.0510   22.8850  -31.8760 C   0  0  0  0  0  0  0  0  0  0  0  0
   -5.5930   21.7050  -32.4100 C   0  0  0  0  0  0  0  0  0  0  0  0
   -6.9550   21.4520  -32.2380 C   0  0  0  0  0  0  0  0  0  0  0  0
   -7.7510   22.3310  -31.5650 C   0  0  0  0  0  0  0  0  0  0  0  0
   -7.2460   23.5140  -31.0220 C   0  0  0  0  0  0  0  0  0  0  0  0
   -9.1360   21.8360  -31.5230 C   0  0  0  0  0  0  0  0  0  0  0  0
   -9.0410   20.4990  -32.2900 C   0  0  0  0  0  0  0  0  0  0  0  0
   -7.6400   20.3020  -32.7220 N   0  0  0  0  0  0  0  0  0  0  0  0
   -3.4910   26.0550  -31.2200 H   0  0  0  0  0  0  0  0  0  0  0  0
   -3.9794   23.0987  -32.0028 H   0  0  0  0  0  0  0  0  0  0  0  0
   -4.9557   20.9925  -32.9542 H   0  0  0  0  0  0  0  0  0  0  0  0
   -7.9067   24.2096  -30.4838 H   0  0  0  0  0  0  0  0  0  0  0  0
   -9.4691   21.6763  -30.4869 H   0  0  0  0  0  0  0  0  0  0  0  0
   -9.8640   22.5375  -31.9564 H   0  0  0  0  0  0  0  0  0  0  0  0
   -9.3459   19.6718  -31.6322 H   0  0  0  0  0  0  0  0  0  0  0  0
   -9.7054   20.5202  -33.1665 H   0  0  0  0  0  0  0  0  0  0  0  0
   -7.2340   19.4400  -32.2870 H   0  0  0  0  0  0  0  0  0  0  0  0
   -7.5730   20.2640  -33.7650 H   0  0  0  0  0  0  0  0  0  0  0  0
  1  2  1  0
  2  3  2  0
  2  4  1  0
  4  5  2  0
  5  6  1  0
  6  7  2  0
  7  8  1  0
  8  9  2  0
  8 10  1  0
 10 11  1  0
 11 12  1  0
  9  4  1  0
 12  7  1  0
  1 13  1  0
  5 14  1  0
  6 15  1  0
  9 16  1  0
 10 17  1  0
 10 18  1  0
 11 19  1  0
 11 20  1  0
 12 21  1  0
 12 22  1  0
M  CHG  2   1  -1  12   1
M  END
>  <UniqueID>  (45) 
40

>  <SMILES>  (45) 
[NH-]C(=O)c1ccc2c(c1)CC[NH2+]2

>  <Energy>  (45) 
31.33985481464547

>  <Genealogy>  (45) 
[NH-]C(=O)c1ccc2c(c1)CC[NH2+]2 (protonated)
[NH-]C(=O)c1ccc2c(c1)CC[NH2+]2 (3D coordinates assigned)
[NH-]C(=O)c1ccc2c(c1)CC[NH2+]2 (nonaromatic ring conformer: 31.33985481464547 kcal/mol)

>  <smiles>  (45) 
NC(=O)c1ccc2c(c1)CCN2

>  <score_type>  (45) 
oracle

>  <origin>  (45) 
adg

>  <m_score__min__energy>  (45) 
-8.1799999999999997

>  <m_primary>  (45) 
energy

$$$$
45:0
     RDKit          3D

 49 51  0  0  0  0  0  0  0  0999 V2000
    0.4159   22.4149  -29.2243 H   0  0  0  0  0  0  0  0  0  0  0  0
   -0.6240   22.0630  -29.2940 C   0  0  0  0  0  0  0  0  0  0  0  0
   -1.4960   22.8060  -29.9110 N   0  0  0  0  0  0  0  0  0  0  0  0
   -2.4700   22.3170  -30.8410 C   0  0  0  0  0  0  0  0  0  0  0  0
   -2.2650   21.0840  -31.4600 C   0  0  0  0  0  0  0  0  0  0  0  0
   -1.3562   20.5057  -31.2370 H   0  0  0  0  0  0  0  0  0  0  0  0
   -3.2030   20.5790  -32.3590 C   0  0  0  0  0  0  0  0  0  0  0  0
   -3.0190   19.6093  -32.8446 H   0  0  0  0  0  0  0  0  0  0  0  0
   -4.3820   21.2890  -32.6560 C   0  0  0  0  0  0  0  0  0  0  0  0
   -5.3430   20.7030  -33.5680 N   0  0  0  0  0  0  0  0  0  0  0  0
   -4.8760   20.0100  -34.1970 H   0  0  0  0  0  0  0  0  0  0  0  0
   -5.7310   21.4420  -34.1980 H   0  0  0  0  0  0  0  0  0  0  0  0
   -6.3880   20.0140  -32.8440 C   0  0  0  0  0  0  0  0  0  0  0  0
   -6.2190   18.6730  -32.4430 C   0  0  0  0  0  0  0  0  0  0  0  0
   -5.2792   18.1493  -32.6720 H   0  0  0  0  0  0  0  0  0  0  0  0
   -7.2360   18.0040  -31.7570 C   0  0  0  0  0  0  0  0  0  0  0  0
   -7.0892   16.9616  -31.4378 H   0  0  0  0  0  0  0  0  0  0  0  0
   -8.4380   18.6560  -31.4760 C   0  0  0  0  0  0  0  0  0  0  0  0
   -9.2344   18.1302  -30.9290 H   0  0  0  0  0  0  0  0  0  0  0  0
   -8.6290   19.9770  -31.8900 C   0  0  0  0  0  0  0  0  0  0  0  0
   -9.5793   20.4876  -31.6749 H   0  0  0  0  0  0  0  0  0  0  0  0
   -7.6150   20.6510  -32.5770 C   0  0  0  0  0  0  0  0  0  0  0  0
   -7.7769   21.6864  -32.9114 H   0  0  0  0  0  0  0  0  0  0  0  0
   -4.6040   22.5400  -32.0180 C   0  0  0  0  0  0  0  0  0  0  0  0
   -5.7450   23.3310  -32.2490 C   0  0  0  0  0  0  0  0  0  0  0  0
   -6.5084   22.9934  -32.9654 H   0  0  0  0  0  0  0  0  0  0  0  0
   -5.9090   24.5080  -31.5930 N   0  0  0  0  0  0  0  0  0  0  0  0
   -4.9860   24.9510  -30.7050 C   0  0  0  0  0  0  0  0  0  0  0  0
   -5.1443   25.9030  -30.1772 H   0  0  0  0  0  0  0  0  0  0  0  0
   -3.8670   24.2220  -30.4660 N   0  0  0  0  0  0  0  0  0  0  0  0
   -3.6460   23.0400  -31.1010 C   0  0  0  0  0  0  0  0  0  0  0  0
   -0.9860   20.7320  -28.6680 C   0  0  0  0  0  0  0  0  0  0  0  0
   -0.0861   20.3160  -28.1914 H   0  0  0  0  0  0  0  0  0  0  0  0
   -1.3678   20.0899  -29.4754 H   0  0  0  0  0  0  0  0  0  0  0  0
   -2.0540   20.8260  -27.6480 N   0  0  0  0  0  0  0  0  0  0  0  0
   -2.3640   22.1960  -27.1860 C   0  0  0  0  0  0  0  0  0  0  0  0
   -1.6188   22.8939  -27.5955 H   0  0  0  0  0  0  0  0  0  0  0  0
   -2.3369   22.2164  -26.0865 H   0  0  0  0  0  0  0  0  0  0  0  0
   -3.7560   22.6140  -27.6550 C   0  0  0  0  0  0  0  0  0  0  0  0
   -4.3952   22.8060  -26.7806 H   0  0  0  0  0  0  0  0  0  0  0  0
   -3.6794   23.5288  -28.2611 H   0  0  0  0  0  0  0  0  0  0  0  0
   -4.1960   21.8084  -28.2611 H   0  0  0  0  0  0  0  0  0  0  0  0
   -1.9970   19.8000  -26.5820 C   0  0  0  0  0  0  0  0  0  0  0  0
   -1.1270   19.1542  -26.7720 H   0  0  0  0  0  0  0  0  0  0  0  0
   -1.9277   20.3421  -25.6273 H   0  0  0  0  0  0  0  0  0  0  0  0
   -3.2430   18.9120  -26.4920 C   0  0  0  0  0  0  0  0  0  0  0  0
   -3.4915   18.7349  -25.4352 H   0  0  0  0  0  0  0  0  0  0  0  0
   -4.0871   19.4133  -26.9881 H   0  0  0  0  0  0  0  0  0  0  0  0
   -3.0446   17.9505  -26.9881 H   0  0  0  0  0  0  0  0  0  0  0  0
  1  2  1  0
  2  3  2  0
  3  4  1  0
  4  5  2  0
  5  6  1  0
  5  7  1  0
  7  8  1  0
  7  9  2  0
  9 10  1  0
 10 11  1  0
 10 12  1  0
 10 13  1  0
 13 14  2  0
 14 15  1  0
 14 16  1  0
 16 17  1  0
 16 18  2  0
 18 19  1  0
 18 20  1  0
 20 21  1  0
 20 22  2  0
 22 23  1  0
  9 24  1  0
 24 25  2  0
 25 26  1  0
 25 27  1  0
 27 28  2  0
 28 29  1  0
 28 30  1  0
 30 31  2  0
  2 32  1  0
 32 33  1  0
 32 34  1  0
 32 35  1  0
 35 36  1  0
 36 37  1  0
 36 38  1  0
 36 39  1  0
 39 40  1  0
 39 41  1  0
 39 42  1  0
 35 43  1  0
 43 44  1  0
 43 45  1  0
 43 46  1  0
 46 47  1  0
 46 48  1  0
 46 49  1  0
 31  4  1  0
 22 13  1  0
 31 24  1  0
M  CHG  1  10   1
M  END
>  <UniqueID>  (46) 
41

>  <SMILES>  (46) 
CCN(CC)C/C=N\c1ccc([NH2+]c2ccccc2)c2cncnc12

>  <Energy>  (46) 
72.29215072362686

>  <Genealogy>  (46) 
CCN(CC)CC=Nc1ccc([NH2+]c2ccccc2)c2cncnc12 (protonated)
CCN(CC)C/C=N\c1ccc([NH2+]c2ccccc2)c2cncnc12 (cis-trans isomerization)
CCN(CC)C/C=N\c1ccc([NH2+]c2ccccc2)c2cncnc12 (3D coordinates assigned)
CCN(CC)C/C=N\c1ccc([NH2+]c2ccccc2)c2cncnc12 (optimized conformer: 72.29215072362686 kcal/mol)

>  <smiles>  (46) 
CCN(CC)CC=Nc1ccc(Nc2ccccc2)c2cncnc12

>  <score_type>  (46) 
oracle

>  <origin>  (46) 
adg

>  <m_score__min__energy>  (46) 
-7.2400000000000002

>  <m_primary>  (46) 
energy

$$$$
46:0
     RDKit          3D

 36 37  0  0  0  0  0  0  0  0999 V2000
   -4.0640   25.2380  -30.4740 N   0  0  0  0  0  0  0  0  0  0  0  0
   -3.7130   24.5560  -29.2320 C   0  0  0  0  0  0  0  0  0  0  0  0
   -2.3060   23.9470  -29.3150 C   0  0  0  0  0  0  0  0  0  0  0  0
   -2.1970   22.8390  -30.3880 C   0  0  0  0  0  0  0  0  0  0  0  0
   -3.5370   22.1600  -30.6960 C   0  0  0  0  0  0  0  0  0  0  0  0
   -4.3260   22.9850  -31.6230 N   0  0  0  0  0  0  0  0  0  0  0  0
   -4.9530   22.1830  -32.6810 C   0  0  0  0  0  0  0  0  0  0  0  0
   -6.4280   22.0020  -32.3980 C   0  0  0  0  0  0  0  0  0  0  0  0
   -7.2100   23.1390  -32.1350 C   0  0  0  0  0  0  0  0  0  0  0  0
   -8.5650   23.0030  -31.8410 C   0  0  0  0  0  0  0  0  0  0  0  0
   -9.1370   21.7740  -31.8040 N   0  0  0  0  0  0  0  0  0  0  0  0
   -8.4250   20.6430  -32.0520 C   0  0  0  0  0  0  0  0  0  0  0  0
   -9.0630   19.3990  -31.9940 C   0  0  0  0  0  0  0  0  0  0  0  0
   -8.3450   18.2290  -32.2410 C   0  0  0  0  0  0  0  0  0  0  0  0
   -6.9850   18.2920  -32.5520 C   0  0  0  0  0  0  0  0  0  0  0  0
   -6.0880   16.8170  -32.8590 Cl  0  0  0  0  0  0  0  0  0  0  0  0
   -6.3360   19.5300  -32.6190 C   0  0  0  0  0  0  0  0  0  0  0  0
   -7.0430   20.7230  -32.3630 C   0  0  0  0  0  0  0  0  0  0  0  0
   -3.3970   24.9280  -31.2170 H   0  0  0  0  0  0  0  0  0  0  0  0
   -5.0110   24.9050  -30.7650 H   0  0  0  0  0  0  0  0  0  0  0  0
   -3.7432   25.2794  -28.4039 H   0  0  0  0  0  0  0  0  0  0  0  0
   -4.4358   23.7443  -29.0625 H   0  0  0  0  0  0  0  0  0  0  0  0
   -1.5908   24.7459  -29.5604 H   0  0  0  0  0  0  0  0  0  0  0  0
   -2.0849   23.4879  -28.3401 H   0  0  0  0  0  0  0  0  0  0  0  0
   -1.8115   23.2876  -31.3154 H   0  0  0  0  0  0  0  0  0  0  0  0
   -1.5232   22.0656  -29.9908 H   0  0  0  0  0  0  0  0  0  0  0  0
   -3.3492   21.1778  -31.1543 H   0  0  0  0  0  0  0  0  0  0  0  0
   -4.0997   22.0372  -29.7588 H   0  0  0  0  0  0  0  0  0  0  0  0
   -5.0930   23.4430  -31.0760 H   0  0  0  0  0  0  0  0  0  0  0  0
   -4.8289   22.6953  -33.6465 H   0  0  0  0  0  0  0  0  0  0  0  0
   -4.4710   21.1948  -32.7142 H   0  0  0  0  0  0  0  0  0  0  0  0
   -6.7516   24.1386  -32.1612 H   0  0  0  0  0  0  0  0  0  0  0  0
   -9.1736   23.8965  -31.6380 H   0  0  0  0  0  0  0  0  0  0  0  0
  -10.1348   19.3436  -31.7527 H   0  0  0  0  0  0  0  0  0  0  0  0
   -8.8515   17.2538  -32.1907 H   0  0  0  0  0  0  0  0  0  0  0  0
   -5.2666   19.5729  -32.8732 H   0  0  0  0  0  0  0  0  0  0  0  0
  1  2  1  0
  2  3  1  0
  3  4  1  0
  4  5  1  0
  5  6  1  0
  6  7  1  0
  7  8  1  0
  8  9  2  0
  9 10  1  0
 10 11  2  0
 11 12  1  0
 12 13  2  0
 13 14  1  0
 14 15  2  0
 15 16  1  0
 15 17  1  0
 17 18  2  0
 18  8  1  0
 18 12  1  0
  1 19  1  0
  1 20  1  0
  2 21  1  0
  2 22  1  0
  3 23  1  0
  3 24  1  0
  4 25  1  0
  4 26  1  0
  5 27  1  0
  5 28  1  0
  6 29  1  0
  7 30  1  0
  7 31  1  0
  9 32  1  0
 10 33  1  0
 13 34  1  0
 14 35  1  0
 17 36  1  0
M  END
>  <UniqueID>  (47) 
42

>  <SMILES>  (47) 
NCCCCNCc1ccnc2ccc(Cl)cc12

>  <Energy>  (47) 
36.172633651844734

>  <Genealogy>  (47) 
NCCCCNCc1ccnc2ccc(Cl)cc12 (3D coordinates assigned)
NCCCCNCc1ccnc2ccc(Cl)cc12 (optimized conformer: 36.172633651844734 kcal/mol)

>  <smiles>  (47) 
NCCCCNCc1ccnc2ccc(Cl)cc12

>  <score_type>  (47) 
oracle

>  <origin>  (47) 
adg

>  <m_score__min__energy>  (47) 
-7.96

>  <m_primary>  (47) 
energy

$$$$
