0:0
     RDKit          3D

 51 51  0  0  0  0  0  0  0  0999 V2000
   -9.1680   21.5520  -31.6180 C   0  0  0  0  0  0  0  0  0  0  0  0
   -8.0400   21.9150  -30.6360 C   0  0  0  0  0  0  0  0  0  0  0  0
   -6.8970   22.6790  -31.2370 N   0  0  0  0  0  0  0  0  0  0  0  0
   -5.8800   21.7160  -31.7400 C   0  0  0  0  0  0  0  0  0  0  0  0
   -7.4460   23.4340  -32.3920 C   0  0  0  0  0  0  0  0  0  0  0  0
   -6.3170   23.6040  -30.2000 C   0  0  0  0  0  0  0  0  0  0  0  0
   -5.1570   23.0730  -29.3080 C   0  0  0  0  0  0  0  0  0  0  0  0
   -4.2740   24.1340  -28.6320 C   0  0  0  0  0  0  0  0  0  0  0  0
   -3.4050   24.8790  -29.6140 C   0  0  0  0  0  0  0  0  0  0  0  0
   -3.9120   25.2910  -30.6920 O   0  0  0  0  0  0  0  0  0  0  0  0
   -2.0310   25.1820  -29.3400 N   0  0  0  0  0  0  0  0  0  0  0  0
   -1.4860   25.5900  -28.0790 C   0  0  0  0  0  0  0  0  0  0  0  0
   -1.6790   24.7760  -26.9630 C   0  0  0  0  0  0  0  0  0  0  0  0
   -1.1710   25.1460  -25.7150 C   0  0  0  0  0  0  0  0  0  0  0  0
   -0.4630   26.3670  -25.5400 C   0  0  0  0  0  0  0  0  0  0  0  0
    0.0950   26.7950  -24.2410 N   0  0  0  0  0  0  0  0  0  0  0  0
   -0.7660   26.4350  -23.0840 C   0  0  0  0  0  0  0  0  0  0  0  0
    0.2590   28.2690  -24.2350 C   0  0  0  0  0  0  0  0  0  0  0  0
    1.4150   26.1500  -24.0320 C   0  0  0  0  0  0  0  0  0  0  0  0
   -0.3150   27.1930  -26.6850 C   0  0  0  0  0  0  0  0  0  0  0  0
   -0.8250   26.8140  -27.9290 C   0  0  0  0  0  0  0  0  0  0  0  0
  -10.0667   21.2628  -31.0534 H   0  0  0  0  0  0  0  0  0  0  0  0
   -9.3969   22.4218  -32.2512 H   0  0  0  0  0  0  0  0  0  0  0  0
   -8.8466   20.7119  -32.2512 H   0  0  0  0  0  0  0  0  0  0  0  0
   -8.4727   22.5262  -29.8302 H   0  0  0  0  0  0  0  0  0  0  0  0
   -7.6205   20.9611  -30.2837 H   0  0  0  0  0  0  0  0  0  0  0  0
   -5.3749   21.2377  -30.8879 H   0  0  0  0  0  0  0  0  0  0  0  0
   -6.3742   20.9471  -32.3520 H   0  0  0  0  0  0  0  0  0  0  0  0
   -5.1392   22.2514  -32.3520 H   0  0  0  0  0  0  0  0  0  0  0  0
   -8.0559   24.2728  -32.0253 H   0  0  0  0  0  0  0  0  0  0  0  0
   -6.6180   23.8224  -33.0031 H   0  0  0  0  0  0  0  0  0  0  0  0
   -8.0708   22.7660  -33.0031 H   0  0  0  0  0  0  0  0  0  0  0  0
   -5.9415   24.4925  -30.7288 H   0  0  0  0  0  0  0  0  0  0  0  0
   -7.1444   23.7782  -29.4964 H   0  0  0  0  0  0  0  0  0  0  0  0
   -5.6012   22.4529  -28.5154 H   0  0  0  0  0  0  0  0  0  0  0  0
   -4.4885   22.5288  -29.9914 H   0  0  0  0  0  0  0  0  0  0  0  0
   -4.9240   24.8573  -28.1179 H   0  0  0  0  0  0  0  0  0  0  0  0
   -3.6086   23.6131  -27.9278 H   0  0  0  0  0  0  0  0  0  0  0  0
   -2.2366   23.8335  -27.0663 H   0  0  0  0  0  0  0  0  0  0  0  0
   -1.3214   24.4807  -24.8520 H   0  0  0  0  0  0  0  0  0  0  0  0
   -0.2336   26.6576  -22.1475 H   0  0  0  0  0  0  0  0  0  0  0  0
   -1.6972   27.0191  -23.1242 H   0  0  0  0  0  0  0  0  0  0  0  0
   -1.0043   25.3619  -23.1242 H   0  0  0  0  0  0  0  0  0  0  0  0
    0.2991   28.6292  -23.1964 H   0  0  0  0  0  0  0  0  0  0  0  0
    1.1924   28.5362  -24.7521 H   0  0  0  0  0  0  0  0  0  0  0  0
   -0.5929   28.7348  -24.7521 H   0  0  0  0  0  0  0  0  0  0  0  0
    1.6099   26.0548  -22.9536 H   0  0  0  0  0  0  0  0  0  0  0  0
    1.4125   25.1516  -24.4937 H   0  0  0  0  0  0  0  0  0  0  0  0
    2.2011   26.7655  -24.4937 H   0  0  0  0  0  0  0  0  0  0  0  0
    0.2132   28.1532  -26.5905 H   0  0  0  0  0  0  0  0  0  0  0  0
   -0.7063   27.4814  -28.7953 H   0  0  0  0  0  0  0  0  0  0  0  0
  1  2  1  0
  2  3  1  0
  3  4  1  0
  3  5  1  0
  3  6  1  0
  6  7  1  0
  7  8  1  0
  8  9  1  0
  9 10  2  0
  9 11  1  0
 11 12  1  0
 12 13  2  0
 13 14  1  0
 14 15  2  0
 15 16  1  0
 16 17  1  0
 16 18  1  0
 16 19  1  0
 15 20  1  0
 20 21  2  0
 21 12  1  0
  1 22  1  0
  1 23  1  0
  1 24  1  0
  2 25  1  0
  2 26  1  0
  4 27  1  0
  4 28  1  0
  4 29  1  0
  5 30  1  0
  5 31  1  0
  5 32  1  0
  6 33  1  0
  6 34  1  0
  7 35  1  0
  7 36  1  0
  8 37  1  0
  8 38  1  0
 13 39  1  0
 14 40  1  0
 17 41  1  0
 17 42  1  0
 17 43  1  0
 18 44  1  0
 18 45  1  0
 18 46  1  0
 19 47  1  0
 19 48  1  0
 19 49  1  0
 20 50  1  0
 21 51  1  0
M  CHG  3   3   1  11  -1  16   1
M  END
>  <UniqueID>  (1) 
1

>  <SMILES>  (1) 
CC[N+](C)(C)CCCC(=O)[N-]c1ccc([N+](C)(C)C)cc1

>  <Energy>  (1) 
76.12075914074245

>  <Genealogy>  (1) 
CC[N+](C)(C)CCCC(=O)[N-]c1ccc([N+](C)(C)C)cc1 (protonated)
CC[N+](C)(C)CCCC(=O)[N-]c1ccc([N+](C)(C)C)cc1 (3D coordinates assigned)
CC[N+](C)(C)CCCC(=O)[N-]c1ccc([N+](C)(C)C)cc1 (optimized conformer: 76.12075914074245 kcal/mol)

>  <smiles>  (1) 
CC[N+](C)(C)CCCC(=O)Nc1ccc([N+](C)(C)C)cc1

>  <score_type>  (1) 
oracle

>  <origin>  (1) 
adg

>  <m_score__min__energy>  (1) 
-7.5499999999999998

>  <m_primary>  (1) 
energy

$$$$
1:0
     RDKit          3D

 75 78  0  0  0  0  0  0  0  0999 V2000
   -6.1480   24.6950  -30.1850 C   0  0  0  0  0  0  0  0  0  0  0  0
   -6.0410   23.2030  -30.4790 C   0  0  0  0  0  0  0  0  0  0  0  0
   -4.8170   22.8890  -31.2410 N   0  0  0  0  0  0  0  0  0  0  0  0
   -3.7020   23.7650  -30.8380 C   0  0  0  0  0  0  0  0  0  0  0  0
   -4.9920   22.8220  -32.7150 C   0  0  0  0  0  0  0  0  0  0  0  0
   -4.2350   21.6660  -33.4260 C   0  0  0  0  0  0  0  0  0  0  0  0
   -3.7630   20.6070  -32.5030 N   0  0  0  0  0  0  0  0  0  0  0  0
   -4.4840   19.3530  -32.6610 C   0  0  0  0  0  0  0  0  0  0  0  0
   -5.8770   19.2740  -32.3480 C   0  0  0  0  0  0  0  0  0  0  0  0
   -6.5160   20.2770  -31.5820 C   0  0  0  0  0  0  0  0  0  0  0  0
   -7.8770   20.2130  -31.3040 C   0  0  0  0  0  0  0  0  0  0  0  0
   -8.6400   19.1540  -31.7800 C   0  0  0  0  0  0  0  0  0  0  0  0
   -8.0490   18.1400  -32.5330 C   0  0  0  0  0  0  0  0  0  0  0  0
   -6.6640   18.1710  -32.8330 C   0  0  0  0  0  0  0  0  0  0  0  0
   -6.0760   17.1860  -33.6050 N   0  0  0  0  0  0  0  0  0  0  0  0
   -6.8650   16.0710  -34.1610 C   0  0  0  0  0  0  0  0  0  0  0  0
   -4.7360   17.2550  -33.8390 C   0  0  0  0  0  0  0  0  0  0  0  0
   -4.0350   16.3720  -34.5640 N   0  0  0  0  0  0  0  0  0  0  0  0
   -2.7700   16.8260  -34.4560 C   0  0  0  0  0  0  0  0  0  0  0  0
   -1.6770   16.1770  -35.1240 N   0  0  0  0  0  0  0  0  0  0  0  0
   -0.4970   15.7980  -34.3380 C   0  0  0  0  0  0  0  0  0  0  0  0
   -0.8980   15.0890  -33.0420 C   0  0  0  0  0  0  0  0  0  0  0  0
   -1.8610   15.5410  -36.4430 C   0  0  0  0  0  0  0  0  0  0  0  0
   -2.6450   14.2250  -36.3930 C   0  0  0  0  0  0  0  0  0  0  0  0
   -2.6410   17.9530  -33.7010 N   0  0  0  0  0  0  0  0  0  0  0  0
   -1.3810   18.3880  -33.0560 C   0  0  2  0  0  0  0  0  0  0  0  0
   -1.6120   18.8380  -31.7430 O   0  0  0  0  0  0  0  0  0  0  0  0
   -0.5400   19.6920  -31.4170 C   0  0  2  0  0  0  0  0  0  0  0  0
   -0.9840   20.6900  -30.3340 C   0  0  0  0  0  0  0  0  0  0  0  0
   -1.9010   21.6180  -30.8550 O   0  0  0  0  0  0  0  0  0  0  0  0
    0.0000   20.3110  -32.7240 C   0  0  2  0  0  0  0  0  0  0  0  0
   -0.1750   21.7050  -32.8280 O   0  0  0  0  0  0  0  0  0  0  0  0
   -0.7030   19.5270  -33.8270 C   0  0  2  0  0  0  0  0  0  0  0  0
   -1.6520   20.3070  -34.5130 O   0  0  0  0  0  0  0  0  0  0  0  0
   -3.9240   18.2400  -33.3410 C   0  0  0  0  0  0  0  0  0  0  0  0
   -6.1594   24.8544  -29.0967 H   0  0  0  0  0  0  0  0  0  0  0  0
   -5.2850   25.2179  -30.6231 H   0  0  0  0  0  0  0  0  0  0  0  0
   -7.0767   25.0894  -30.6231 H   0  0  0  0  0  0  0  0  0  0  0  0
   -6.0211   22.6516  -29.5274 H   0  0  0  0  0  0  0  0  0  0  0  0
   -6.9103   22.9071  -31.0846 H   0  0  0  0  0  0  0  0  0  0  0  0
   -3.6476   23.8077  -29.7402 H   0  0  0  0  0  0  0  0  0  0  0  0
   -2.7583   23.3642  -31.2365 H   0  0  0  0  0  0  0  0  0  0  0  0
   -3.8680   24.7767  -31.2365 H   0  0  0  0  0  0  0  0  0  0  0  0
   -6.0654   22.7033  -32.9239 H   0  0  0  0  0  0  0  0  0  0  0  0
   -4.5636   23.7537  -33.1130 H   0  0  0  0  0  0  0  0  0  0  0  0
   -4.9122   21.2085  -34.1623 H   0  0  0  0  0  0  0  0  0  0  0  0
   -3.3421   22.1062  -33.8939 H   0  0  0  0  0  0  0  0  0  0  0  0
   -3.8180   20.9160  -31.5120 H   0  0  0  0  0  0  0  0  0  0  0  0
   -2.7440   20.4230  -32.6280 H   0  0  0  0  0  0  0  0  0  0  0  0
   -5.9257   21.1227  -31.1994 H   0  0  0  0  0  0  0  0  0  0  0  0
   -8.3514   21.0041  -30.7048 H   0  0  0  0  0  0  0  0  0  0  0  0
   -9.7174   19.1152  -31.5614 H   0  0  0  0  0  0  0  0  0  0  0  0
   -8.6654   17.3056  -32.8988 H   0  0  0  0  0  0  0  0  0  0  0  0
   -7.2870   15.4746  -33.3387 H   0  0  0  0  0  0  0  0  0  0  0  0
   -7.6814   16.4722  -34.7795 H   0  0  0  0  0  0  0  0  0  0  0  0
   -6.2151   15.4346  -34.7795 H   0  0  0  0  0  0  0  0  0  0  0  0
    0.1309   15.1220  -34.9370 H   0  0  0  0  0  0  0  0  0  0  0  0
    0.0557   16.7126  -34.0774 H   0  0  0  0  0  0  0  0  0  0  0  0
   -0.5618   15.6835  -32.1797 H   0  0  0  0  0  0  0  0  0  0  0  0
   -1.9920   14.9792  -33.0075 H   0  0  0  0  0  0  0  0  0  0  0  0
   -0.4284   14.0949  -33.0075 H   0  0  0  0  0  0  0  0  0  0  0  0
   -2.4033   16.2429  -37.0935 H   0  0  0  0  0  0  0  0  0  0  0  0
   -0.8577   15.3011  -36.8249 H   0  0  0  0  0  0  0  0  0  0  0  0
   -2.8152   13.9392  -35.3445 H   0  0  0  0  0  0  0  0  0  0  0  0
   -3.6128   14.3553  -36.8993 H   0  0  0  0  0  0  0  0  0  0  0  0
   -2.0696   13.4360  -36.8993 H   0  0  0  0  0  0  0  0  0  0  0  0
   -0.7237   17.5060  -33.0500 H   0  0  0  0  0  0  0  0  0  0  0  0
    0.3068   19.1552  -30.9644 H   0  0  0  0  0  0  0  0  0  0  0  0
   -1.4585   20.1388  -29.5087 H   0  0  0  0  0  0  0  0  0  0  0  0
   -0.0990   21.2343  -29.9728 H   0  0  0  0  0  0  0  0  0  0  0  0
   -1.3680   22.3960  -31.1730 H   0  0  0  0  0  0  0  0  0  0  0  0
    1.0950   20.2239  -32.7820 H   0  0  0  0  0  0  0  0  0  0  0  0
   -1.1450   21.9000  -32.9220 H   0  0  0  0  0  0  0  0  0  0  0  0
   -0.0095   19.1825  -34.6082 H   0  0  0  0  0  0  0  0  0  0  0  0
   -1.2500   21.2070  -34.6420 H   0  0  0  0  0  0  0  0  0  0  0  0
  1  2  1  0
  2  3  1  0
  3  4  1  0
  3  5  1  0
  5  6  1  0
  6  7  1  0
  7  8  1  0
  8  9  2  0
  9 10  1  0
 10 11  2  0
 11 12  1  0
 12 13  2  0
 13 14  1  0
 14 15  2  0
 15 16  1  0
 15 17  1  0
 17 18  1  0
 18 19  2  0
 19 20  1  0
 20 21  1  0
 21 22  1  0
 20 23  1  0
 23 24  1  0
 19 25  1  0
 25 26  1  0
 26 27  1  0
 27 28  1  0
 28 29  1  0
 29 30  1  0
 28 31  1  0
 31 32  1  0
 31 33  1  0
 33 34  1  0
 25 35  1  0
 35  8  1  0
 14  9  1  0
 35 17  2  0
 33 26  1  0
  1 36  1  0
  1 37  1  0
  1 38  1  0
  2 39  1  0
  2 40  1  0
  4 41  1  0
  4 42  1  0
  4 43  1  0
  5 44  1  0
  5 45  1  0
  6 46  1  0
  6 47  1  0
  7 48  1  0
  7 49  1  0
 10 50  1  0
 11 51  1  0
 12 52  1  0
 13 53  1  0
 16 54  1  0
 16 55  1  0
 16 56  1  0
 21 57  1  0
 21 58  1  0
 22 59  1  0
 22 60  1  0
 22 61  1  0
 23 62  1  0
 23 63  1  0
 24 64  1  0
 24 65  1  0
 24 66  1  0
 26 67  1  1
 28 68  1  1
 29 69  1  0
 29 70  1  0
 30 71  1  0
 31 72  1  6
 32 73  1  0
 33 74  1  6
 34 75  1  0
M  CHG  2   7   1  15   1
M  END
>  <UniqueID>  (2) 
2

>  <SMILES>  (2) 
CCN(C)CC[NH2+]c1c2ccccc2[n+](C)c2nc(N(CC)CC)n([C@@H]3O[C@H](CO)C(O)C3O)c12

>  <Energy>  (2) 
151.7094768950252

>  <Genealogy>  (2) 
CCN(C)CC[NH2+]c1c2ccccc2[n+](C)c2nc(N(CC)CC)n(C3OC(CO)C(O)C3O)c12 (protonated)
CCN(C)CC[NH2+]c1c2ccccc2[n+](C)c2nc(N(CC)CC)n([C@@H]3O[C@H](CO)C(O)C3O)c12 (chirality)
CCN(C)CC[NH2+]c1c2ccccc2[n+](C)c2nc(N(CC)CC)n([C@@H]3O[C@H](CO)C(O)C3O)c12 (3D coordinates assigned)
CCN(C)CC[NH2+]c1c2ccccc2[n+](C)c2nc(N(CC)CC)n([C@@H]3O[C@H](CO)C(O)C3O)c12 (nonaromatic ring conformer: 151.7094768950252 kcal/mol)

>  <smiles>  (2) 
CCN(C)CCNc1c2ccccc2[n+](C)c2nc(N(CC)CC)n(C3OC(CO)C(O)C3O)c12

>  <score_type>  (2) 
oracle

>  <origin>  (2) 
adg

>  <m_score__min__energy>  (2) 
-7.2199999999999998

>  <m_primary>  (2) 
energy

$$$$
2:0
     RDKit          3D

 43 44  0  0  0  0  0  0  0  0999 V2000
   -8.0855   23.4572  -32.8598 H   0  0  0  0  0  0  0  0  0  0  0  0
   -7.4110   23.4470  -31.9910 C   0  0  0  0  0  0  0  0  0  0  0  0
   -7.7620   22.7130  -30.8400 C   0  0  0  0  0  0  0  0  0  0  0  0
   -8.7105   22.1565  -30.8145 H   0  0  0  0  0  0  0  0  0  0  0  0
   -6.9090   22.6880  -29.7270 C   0  0  0  0  0  0  0  0  0  0  0  0
   -7.1720   22.1149  -28.8257 H   0  0  0  0  0  0  0  0  0  0  0  0
   -5.7200   23.4090  -29.7950 C   0  0  0  0  0  0  0  0  0  0  0  0
   -4.5140   23.5500  -28.6360 S   0  0  0  0  0  0  0  0  0  0  0  0
   -3.5920   24.5560  -29.6340 C   0  0  0  0  0  0  0  0  0  0  0  0
   -2.4350   25.0350  -29.2860 N   0  0  0  0  0  0  0  0  0  0  0  0
   -1.2270   24.2370  -29.0780 C   0  0  0  0  0  0  0  0  0  0  0  0
   -0.9075   24.3307  -28.0296 H   0  0  0  0  0  0  0  0  0  0  0  0
   -0.4376   24.6053  -29.7497 H   0  0  0  0  0  0  0  0  0  0  0  0
   -1.4960   22.7660  -29.3920 C   0  0  0  0  0  0  0  0  0  0  0  0
   -2.5434   22.5275  -29.1552 H   0  0  0  0  0  0  0  0  0  0  0  0
   -0.8271   22.1367  -28.7866 H   0  0  0  0  0  0  0  0  0  0  0  0
   -1.2570   22.5190  -30.7600 O   0  0  0  0  0  0  0  0  0  0  0  0
   -2.1700   21.5540  -31.2380 C   0  0  0  0  0  0  0  0  0  0  0  0
   -2.7186   21.1145  -30.3919 H   0  0  0  0  0  0  0  0  0  0  0  0
   -1.6260   20.7584  -31.7681 H   0  0  0  0  0  0  0  0  0  0  0  0
   -3.1510   22.2270  -32.1880 C   0  0  0  0  0  0  0  0  0  0  0  0
   -2.7231   23.1732  -32.5509 H   0  0  0  0  0  0  0  0  0  0  0  0
   -4.0942   22.4362  -31.6621 H   0  0  0  0  0  0  0  0  0  0  0  0
   -3.3950   21.3640  -33.2850 O   0  0  0  0  0  0  0  0  0  0  0  0
   -3.4610   20.0110  -32.8790 C   0  0  0  0  0  0  0  0  0  0  0  0
   -2.9677   19.9040  -31.9017 H   0  0  0  0  0  0  0  0  0  0  0  0
   -2.9551   19.3926  -33.6351 H   0  0  0  0  0  0  0  0  0  0  0  0
   -4.9160   19.5450  -32.7600 C   0  0  0  0  0  0  0  0  0  0  0  0
   -5.0899   19.1569  -31.7455 H   0  0  0  0  0  0  0  0  0  0  0  0
   -5.0986   18.7562  -33.5046 H   0  0  0  0  0  0  0  0  0  0  0  0
   -5.8370   20.6610  -33.0150 N   0  0  0  0  0  0  0  0  0  0  0  0
   -5.4610   21.2110  -33.8240 H   0  0  0  0  0  0  0  0  0  0  0  0
   -7.1560   20.1530  -33.4060 C   0  0  0  0  0  0  0  0  0  0  0  0
   -7.0471   19.4919  -34.2784 H   0  0  0  0  0  0  0  0  0  0  0  0
   -7.8081   21.0022  -33.6584 H   0  0  0  0  0  0  0  0  0  0  0  0
   -7.7790   19.3710  -32.2560 C   0  0  0  0  0  0  0  0  0  0  0  0
   -7.4412   19.7950  -31.2988 H   0  0  0  0  0  0  0  0  0  0  0  0
   -8.8752   19.4364  -32.3195 H   0  0  0  0  0  0  0  0  0  0  0  0
   -7.4703   18.3171  -32.3195 H   0  0  0  0  0  0  0  0  0  0  0  0
   -4.1750   24.7890  -30.8350 N   0  0  0  0  0  0  0  0  0  0  0  0
   -5.3660   24.1410  -30.9190 C   0  0  0  0  0  0  0  0  0  0  0  0
   -6.2040   24.1660  -32.0350 C   0  0  0  0  0  0  0  0  0  0  0  0
   -5.9250   24.7378  -32.9323 H   0  0  0  0  0  0  0  0  0  0  0  0
  1  2  1  0
  2  3  2  0
  3  4  1  0
  3  5  1  0
  5  6  1  0
  5  7  2  0
  7  8  1  0
  8  9  1  0
  9 10  2  0
 10 11  1  0
 11 12  1  0
 11 13  1  0
 11 14  1  0
 14 15  1  0
 14 16  1  0
 14 17  1  0
 17 18  1  0
 18 19  1  0
 18 20  1  0
 18 21  1  0
 21 22  1  0
 21 23  1  0
 21 24  1  0
 24 25  1  0
 25 26  1  0
 25 27  1  0
 25 28  1  0
 28 29  1  0
 28 30  1  0
 28 31  1  0
 31 32  1  0
 31 33  1  0
 33 34  1  0
 33 35  1  0
 33 36  1  0
 36 37  1  0
 36 38  1  0
 36 39  1  0
  9 40  1  0
 40 41  1  0
 41 42  2  0
 42 43  1  0
 42  2  1  0
 41  7  1  0
M  CHG  1  40  -1
M  END
>  <UniqueID>  (3) 
3

>  <SMILES>  (3) 
CCNCCOCCOCC/N=c1\[n-]c2ccccc2s1

>  <Energy>  (3) 
67.16566375222021

>  <Genealogy>  (3) 
CCNCCOCCOCCN=c1[n-]c2ccccc2s1 (protonated)
CCNCCOCCOCC/N=c1\[n-]c2ccccc2s1 (cis-trans isomerization)
CCNCCOCCOCC/N=c1\[n-]c2ccccc2s1 (3D coordinates assigned)
CCNCCOCCOCC/N=c1\[n-]c2ccccc2s1 (optimized conformer: 67.16566375222021 kcal/mol)

>  <smiles>  (3) 
CCNCCOCCOCCN=c1[nH]c2ccccc2s1

>  <score_type>  (3) 
oracle

>  <origin>  (3) 
adg

>  <m_score__min__energy>  (3) 
-8.3499999999999996

>  <m_primary>  (3) 
energy

$$$$
3:0
     RDKit          3D

 57 59  0  0  0  0  0  0  0  0999 V2000
   -6.5410   25.3050  -29.7770 C   0  0  0  0  0  0  0  0  0  0  0  0
   -5.4960   25.3670  -30.8930 C   0  0  0  0  0  0  0  0  0  0  0  0
   -4.3090   24.5470  -30.6070 N   0  0  0  0  0  0  0  0  0  0  0  0
   -3.9630   24.5420  -29.1790 C   0  0  0  0  0  0  0  0  0  0  0  0
   -2.6640   23.7720  -28.9610 C   0  0  0  0  0  0  0  0  0  0  0  0
   -2.1120   23.4150  -30.2130 O   0  0  0  0  0  0  0  0  0  0  0  0
   -2.1040   22.0090  -30.3680 C   0  0  0  0  0  0  0  0  0  0  0  0
   -3.3870   21.5310  -31.0780 C   0  0  0  0  0  0  0  0  0  0  0  0
   -3.6730   22.2880  -32.3810 C   0  0  0  0  0  0  0  0  0  0  0  0
   -4.6140   21.5620  -33.2420 N   0  0  0  0  0  0  0  0  0  0  0  0
   -5.6260   20.6670  -32.7390 C   0  0  0  0  0  0  0  0  0  0  0  0
   -5.4050   19.2750  -32.7110 C   0  0  0  0  0  0  0  0  0  0  0  0
   -4.1960   18.6580  -33.3070 C   0  0  0  0  0  0  0  0  0  0  0  0
   -2.9440   19.2270  -33.0140 C   0  0  0  0  0  0  0  0  0  0  0  0
   -1.7810   18.7280  -33.6020 C   0  0  0  0  0  0  0  0  0  0  0  0
   -1.8530   17.6630  -34.4970 C   0  0  0  0  0  0  0  0  0  0  0  0
   -3.0870   17.0860  -34.8020 C   0  0  0  0  0  0  0  0  0  0  0  0
   -4.2710   17.5620  -34.2110 C   0  0  0  0  0  0  0  0  0  0  0  0
   -5.5170   16.9090  -34.5190 N   0  0  0  0  0  0  0  0  0  0  0  0
   -6.4840   17.5550  -34.9730 O   0  0  0  0  0  0  0  0  0  0  0  0
   -5.7090   15.5910  -34.1710 O   0  0  0  0  0  0  0  0  0  0  0  0
   -6.3940   18.4360  -32.1880 C   0  0  0  0  0  0  0  0  0  0  0  0
   -7.5660   18.9300  -31.7070 N   0  0  0  0  0  0  0  0  0  0  0  0
   -8.4290   18.0060  -31.1450 O   0  0  0  0  0  0  0  0  0  0  0  0
   -7.8470   20.2750  -31.7800 C   0  0  0  0  0  0  0  0  0  0  0  0
   -9.0960   20.7990  -31.3730 C   0  0  0  0  0  0  0  0  0  0  0  0
   -9.3480   22.1700  -31.4250 C   0  0  0  0  0  0  0  0  0  0  0  0
   -8.3760   23.0440  -31.8950 C   0  0  0  0  0  0  0  0  0  0  0  0
   -7.1490   22.5550  -32.3350 C   0  0  0  0  0  0  0  0  0  0  0  0
   -6.8670   21.1730  -32.2930 C   0  0  0  0  0  0  0  0  0  0  0  0
   -6.0363   25.3349  -28.8001 H   0  0  0  0  0  0  0  0  0  0  0  0
   -7.2221   26.1643  -29.8643 H   0  0  0  0  0  0  0  0  0  0  0  0
   -7.1158   24.3712  -29.8643 H   0  0  0  0  0  0  0  0  0  0  0  0
   -5.9555   25.0073  -31.8255 H   0  0  0  0  0  0  0  0  0  0  0  0
   -5.1642   26.4122  -30.9790 H   0  0  0  0  0  0  0  0  0  0  0  0
   -3.4980   24.9170  -31.1530 H   0  0  0  0  0  0  0  0  0  0  0  0
   -3.8356   25.5777  -28.8312 H   0  0  0  0  0  0  0  0  0  0  0  0
   -4.7711   24.0558  -28.6128 H   0  0  0  0  0  0  0  0  0  0  0  0
   -1.9504   24.4045  -28.4126 H   0  0  0  0  0  0  0  0  0  0  0  0
   -2.8704   22.8621  -28.3784 H   0  0  0  0  0  0  0  0  0  0  0  0
   -1.2293   21.7169  -30.9677 H   0  0  0  0  0  0  0  0  0  0  0  0
   -2.0569   21.5439  -29.3723 H   0  0  0  0  0  0  0  0  0  0  0  0
   -3.2800   20.4613  -31.3112 H   0  0  0  0  0  0  0  0  0  0  0  0
   -4.2290   21.7225  -30.3966 H   0  0  0  0  0  0  0  0  0  0  0  0
   -4.1023   23.2703  -32.1344 H   0  0  0  0  0  0  0  0  0  0  0  0
   -2.7245   22.3949  -32.9277 H   0  0  0  0  0  0  0  0  0  0  0  0
   -4.6040   21.7800  -34.2640 H   0  0  0  0  0  0  0  0  0  0  0  0
   -2.8807   20.0736  -32.3146 H   0  0  0  0  0  0  0  0  0  0  0  0
   -0.8064   19.1761  -33.3585 H   0  0  0  0  0  0  0  0  0  0  0  0
   -0.9356   17.2759  -34.9644 H   0  0  0  0  0  0  0  0  0  0  0  0
   -3.1339   16.2485  -35.5136 H   0  0  0  0  0  0  0  0  0  0  0  0
   -6.2196   17.3501  -32.1652 H   0  0  0  0  0  0  0  0  0  0  0  0
   -9.1490   18.2390  -30.4760 H   0  0  0  0  0  0  0  0  0  0  0  0
   -9.8789   20.1165  -31.0107 H   0  0  0  0  0  0  0  0  0  0  0  0
  -10.3209   22.5608  -31.0923 H   0  0  0  0  0  0  0  0  0  0  0  0
   -8.5763   24.1253  -31.9196 H   0  0  0  0  0  0  0  0  0  0  0  0
   -6.3912   23.2535  -32.7195 H   0  0  0  0  0  0  0  0  0  0  0  0
  1  2  1  0
  2  3  1  0
  3  4  1  0
  4  5  1  0
  5  6  1  0
  6  7  1  0
  7  8  1  0
  8  9  1  0
  9 10  1  0
 10 11  1  0
 11 12  2  0
 12 13  1  0
 13 14  2  0
 14 15  1  0
 15 16  2  0
 16 17  1  0
 17 18  2  0
 18 19  1  0
 19 20  2  0
 19 21  1  0
 12 22  1  0
 22 23  2  0
 23 24  1  0
 23 25  1  0
 25 26  2  0
 26 27  1  0
 27 28  2  0
 28 29  1  0
 29 30  2  0
 30 11  1  0
 18 13  1  0
 30 25  1  0
  1 31  1  0
  1 32  1  0
  1 33  1  0
  2 34  1  0
  2 35  1  0
  3 36  1  0
  4 37  1  0
  4 38  1  0
  5 39  1  0
  5 40  1  0
  7 41  1  0
  7 42  1  0
  8 43  1  0
  8 44  1  0
  9 45  1  0
  9 46  1  0
 10 47  1  0
 14 48  1  0
 15 49  1  0
 16 50  1  0
 17 51  1  0
 22 52  1  0
 24 53  1  0
 26 54  1  0
 27 55  1  0
 28 56  1  0
 29 57  1  0
M  CHG  3  19   1  21  -1  23   1
M  END
>  <UniqueID>  (4) 
4

>  <SMILES>  (4) 
CCNCCOCCCNc1c(-c2ccccc2[N+](=O)[O-])c[n+](O)c2ccccc12

>  <Energy>  (4) 
75.69987684552177

>  <Genealogy>  (4) 
CCNCCOCCCNc1c(-c2ccccc2[N+](=O)[O-])c[n+](O)c2ccccc12 (protonated)
CCNCCOCCCNc1c(-c2ccccc2[N+](=O)[O-])c[n+](O)c2ccccc12 (3D coordinates assigned)
CCNCCOCCCNc1c(-c2ccccc2[N+](=O)[O-])c[n+](O)c2ccccc12 (optimized conformer: 75.69987684552177 kcal/mol)

>  <smiles>  (4) 
CCNCCOCCCNc1c(-c2ccccc2[N+](=O)[O-])c[n+]([O-])c2ccccc12

>  <score_type>  (4) 
oracle

>  <origin>  (4) 
adg

>  <m_score__min__energy>  (4) 
-8.3000000000000007

>  <m_primary>  (4) 
energy

$$$$
4:0
     RDKit          3D

 55 58  0  0  0  0  0  0  0  0999 V2000
   -2.6880   24.8950  -27.0120 C   0  0  0  0  0  0  0  0  0  0  0  0
   -2.8960   23.8160  -28.0680 C   0  0  0  0  0  0  0  0  0  0  0  0
   -2.1090   24.1340  -29.2660 N   0  0  0  0  0  0  0  0  0  0  0  0
   -0.8960   23.3100  -29.3720 C   0  0  0  0  0  0  0  0  0  0  0  0
   -0.9740   22.2820  -30.5080 C   0  0  0  0  0  0  0  0  0  0  0  0
   -2.3180   21.8870  -30.6700 O   0  0  0  0  0  0  0  0  0  0  0  0
   -2.4080   20.4780  -30.6350 C   0  0  0  0  0  0  0  0  0  0  0  0
   -2.4950   19.9340  -32.0630 C   0  0  0  0  0  0  0  0  0  0  0  0
   -3.4010   20.7470  -32.8930 N   0  0  0  0  0  0  0  0  0  0  0  0
   -4.7770   20.3530  -32.6780 C   0  0  0  0  0  0  0  0  0  0  0  0
   -5.3060   19.1380  -33.2100 C   0  0  0  0  0  0  0  0  0  0  0  0
   -4.5530   18.3300  -34.0940 C   0  0  0  0  0  0  0  0  0  0  0  0
   -5.0880   17.1600  -34.6290 C   0  0  0  0  0  0  0  0  0  0  0  0
   -6.3820   16.7720  -34.3130 C   0  0  0  0  0  0  0  0  0  0  0  0
   -7.1540   17.5450  -33.4490 C   0  0  0  0  0  0  0  0  0  0  0  0
   -6.6390   18.7270  -32.8620 C   0  0  0  0  0  0  0  0  0  0  0  0
   -7.4020   19.4850  -31.9900 N   0  0  0  0  0  0  0  0  0  0  0  0
   -8.7100   19.0150  -31.4960 C   0  0  0  0  0  0  0  0  0  0  0  0
   -6.9290   20.7110  -31.6060 C   0  0  0  0  0  0  0  0  0  0  0  0
   -7.6140   21.6370  -30.8930 N   0  0  0  0  0  0  0  0  0  0  0  0
   -6.7770   22.6790  -30.7660 C   0  0  0  0  0  0  0  0  0  0  0  0
   -7.0580   23.8860  -30.1280 C   0  0  0  0  0  0  0  0  0  0  0  0
   -6.0700   24.8830  -30.1300 C   0  0  0  0  0  0  0  0  0  0  0  0
   -4.8380   24.6630  -30.7790 C   0  0  0  0  0  0  0  0  0  0  0  0
   -3.8770   25.6660  -30.7900 O   0  0  0  0  0  0  0  0  0  0  0  0
   -4.5790   23.4390  -31.4220 C   0  0  0  0  0  0  0  0  0  0  0  0
   -5.5660   22.4430  -31.3880 C   0  0  0  0  0  0  0  0  0  0  0  0
   -5.6600   21.1590  -31.9340 C   0  0  0  0  0  0  0  0  0  0  0  0
   -2.7740   24.4490  -26.0102 H   0  0  0  0  0  0  0  0  0  0  0  0
   -1.6880   25.3374  -27.1318 H   0  0  0  0  0  0  0  0  0  0  0  0
   -3.4519   25.6774  -27.1318 H   0  0  0  0  0  0  0  0  0  0  0  0
   -2.5727   22.8445  -27.6660 H   0  0  0  0  0  0  0  0  0  0  0  0
   -3.9620   23.7703  -28.3354 H   0  0  0  0  0  0  0  0  0  0  0  0
   -2.7040   23.9930  -30.1160 H   0  0  0  0  0  0  0  0  0  0  0  0
   -0.0364   23.9716  -29.5549 H   0  0  0  0  0  0  0  0  0  0  0  0
   -0.7893   22.7543  -28.4287 H   0  0  0  0  0  0  0  0  0  0  0  0
   -0.6059   22.7332  -31.4412 H   0  0  0  0  0  0  0  0  0  0  0  0
   -0.3534   21.4071  -30.2644 H   0  0  0  0  0  0  0  0  0  0  0  0
   -1.5161   20.0663  -30.1400 H   0  0  0  0  0  0  0  0  0  0  0  0
   -3.3083   20.1830  -30.0760 H   0  0  0  0  0  0  0  0  0  0  0  0
   -1.4910   19.9454  -32.5123 H   0  0  0  0  0  0  0  0  0  0  0  0
   -2.8912   18.9088  -32.0197 H   0  0  0  0  0  0  0  0  0  0  0  0
   -3.2710   21.7620  -32.6850 H   0  0  0  0  0  0  0  0  0  0  0  0
   -3.1650   20.6670  -33.9040 H   0  0  0  0  0  0  0  0  0  0  0  0
   -3.5295   18.6300  -34.3631 H   0  0  0  0  0  0  0  0  0  0  0  0
   -4.4811   16.5405  -35.3057 H   0  0  0  0  0  0  0  0  0  0  0  0
   -6.7995   15.8511  -34.7461 H   0  0  0  0  0  0  0  0  0  0  0  0
   -8.1829   17.2318  -33.2181 H   0  0  0  0  0  0  0  0  0  0  0  0
   -8.7083   19.0156  -30.3960 H   0  0  0  0  0  0  0  0  0  0  0  0
   -9.5023   19.6847  -31.8618 H   0  0  0  0  0  0  0  0  0  0  0  0
   -8.8949   17.9942  -31.8618 H   0  0  0  0  0  0  0  0  0  0  0  0
   -8.5990   21.6030  -30.5490 H   0  0  0  0  0  0  0  0  0  0  0  0
   -8.0278   24.0527  -29.6363 H   0  0  0  0  0  0  0  0  0  0  0  0
   -6.2579   25.8407  -29.6227 H   0  0  0  0  0  0  0  0  0  0  0  0
   -3.6239   23.2668  -31.9398 H   0  0  0  0  0  0  0  0  0  0  0  0
  1  2  1  0
  2  3  1  0
  3  4  1  0
  4  5  1  0
  5  6  1  0
  6  7  1  0
  7  8  1  0
  8  9  1  0
  9 10  1  0
 10 11  2  0
 11 12  1  0
 12 13  2  0
 13 14  1  0
 14 15  2  0
 15 16  1  0
 16 17  2  0
 17 18  1  0
 17 19  1  0
 19 20  1  0
 20 21  1  0
 21 22  2  0
 22 23  1  0
 23 24  2  0
 24 25  1  0
 24 26  1  0
 26 27  2  0
 27 28  1  0
 28 10  1  0
 16 11  1  0
 28 19  2  0
 27 21  1  0
  1 29  1  0
  1 30  1  0
  1 31  1  0
  2 32  1  0
  2 33  1  0
  3 34  1  0
  4 35  1  0
  4 36  1  0
  5 37  1  0
  5 38  1  0
  7 39  1  0
  7 40  1  0
  8 41  1  0
  8 42  1  0
  9 43  1  0
  9 44  1  0
 12 45  1  0
 13 46  1  0
 14 47  1  0
 15 48  1  0
 18 49  1  0
 18 50  1  0
 18 51  1  0
 20 52  1  0
 22 53  1  0
 23 54  1  0
 26 55  1  0
M  CHG  3   9   1  17   1  25  -1
M  END
>  <UniqueID>  (5) 
5

>  <SMILES>  (5) 
CCNCCOCC[NH2+]c1c2ccccc2[n+](C)c2[nH]c3ccc([O-])cc3c12

>  <Energy>  (5) 
110.69394286416838

>  <Genealogy>  (5) 
CCNCCOCC[NH2+]c1c2ccccc2[n+](C)c2[nH]c3ccc([O-])cc3c12 (protonated)
CCNCCOCC[NH2+]c1c2ccccc2[n+](C)c2[nH]c3ccc([O-])cc3c12 (3D coordinates assigned)
CCNCCOCC[NH2+]c1c2ccccc2[n+](C)c2[nH]c3ccc([O-])cc3c12 (optimized conformer: 110.69394286416838 kcal/mol)

>  <smiles>  (5) 
CCNCCOCCNc1c2ccccc2[n+](C)c2[nH]c3ccc(O)cc3c12

>  <score_type>  (5) 
oracle

>  <origin>  (5) 
adg

>  <m_score__min__energy>  (5) 
-10.85

>  <m_primary>  (5) 
energy

$$$$
5:0
     RDKit          3D

 59 61  0  0  0  0  0  0  0  0999 V2000
   -3.8550   22.4840  -27.8570 C   0  0  0  0  0  0  0  0  0  0  0  0
   -2.5820   21.9040  -28.4640 C   0  0  0  0  0  0  0  0  0  0  0  0
   -2.7470   20.4640  -28.6910 N   0  0  0  0  0  0  0  0  0  0  0  0
   -2.4320   19.7130  -27.4710 C   0  0  0  0  0  0  0  0  0  0  0  0
   -0.9230   19.7160  -27.2180 C   0  0  0  0  0  0  0  0  0  0  0  0
   -0.1980   20.0230  -28.4580 N   0  0  0  0  0  0  0  0  0  0  0  0
    0.0560   18.7950  -29.2210 C   0  0  0  0  0  0  0  0  0  0  0  0
   -0.1610   19.0390  -30.7190 C   0  0  0  0  0  0  0  0  0  0  0  0
   -1.3020   19.9390  -30.9610 N   0  0  0  0  0  0  0  0  0  0  0  0
   -1.3140   20.5400  -32.3070 C   0  0  0  0  0  0  0  0  0  0  0  0
   -2.6740   21.1720  -32.6160 C   0  0  0  0  0  0  0  0  0  0  0  0
   -3.6340   20.9530  -31.5310 N   0  0  0  0  0  0  0  0  0  0  0  0
   -5.0060   21.3800  -31.6470 C   0  0  0  0  0  0  0  0  0  0  0  0
   -5.3800   22.6760  -31.2400 C   0  0  0  0  0  0  0  0  0  0  0  0
   -4.4120   23.6110  -30.8130 C   0  0  0  0  0  0  0  0  0  0  0  0
   -4.7900   24.8590  -30.3270 C   0  0  0  0  0  0  0  0  0  0  0  0
   -6.1350   25.1950  -30.2470 C   0  0  0  0  0  0  0  0  0  0  0  0
   -7.1090   24.2990  -30.6850 C   0  0  0  0  0  0  0  0  0  0  0  0
   -6.7550   23.0380  -31.2310 C   0  0  0  0  0  0  0  0  0  0  0  0
   -7.7100   22.1640  -31.7160 N   0  0  0  0  0  0  0  0  0  0  0  0
   -9.0920   22.6370  -31.9530 C   0  0  0  0  0  0  0  0  0  0  0  0
   -7.3640   20.8620  -32.0280 C   0  0  0  0  0  0  0  0  0  0  0  0
   -8.3450   19.8760  -32.3080 C   0  0  0  0  0  0  0  0  0  0  0  0
   -7.9830   18.5950  -32.7240 C   0  0  0  0  0  0  0  0  0  0  0  0
   -6.6420   18.2620  -32.8710 C   0  0  0  0  0  0  0  0  0  0  0  0
   -6.1950   16.6650  -33.4430 Cl  0  0  0  0  0  0  0  0  0  0  0  0
   -5.6550   19.1900  -32.5430 C   0  0  0  0  0  0  0  0  0  0  0  0
   -5.9990   20.4740  -32.0670 C   0  0  0  0  0  0  0  0  0  0  0  0
   -3.7854   22.4523  -26.7597 H   0  0  0  0  0  0  0  0  0  0  0  0
   -3.9765   23.5264  -28.1867 H   0  0  0  0  0  0  0  0  0  0  0  0
   -4.7213   21.8917  -28.1867 H   0  0  0  0  0  0  0  0  0  0  0  0
   -2.3750   22.4028  -29.4223 H   0  0  0  0  0  0  0  0  0  0  0  0
   -1.7438   22.0672  -27.7707 H   0  0  0  0  0  0  0  0  0  0  0  0
   -2.0610   20.1790  -29.4270 H   0  0  0  0  0  0  0  0  0  0  0  0
   -2.9438   20.1790  -26.6161 H   0  0  0  0  0  0  0  0  0  0  0  0
   -2.7713   18.6739  -27.5938 H   0  0  0  0  0  0  0  0  0  0  0  0
   -0.6838   20.4766  -26.4602 H   0  0  0  0  0  0  0  0  0  0  0  0
   -0.6181   18.7206  -26.8628 H   0  0  0  0  0  0  0  0  0  0  0  0
   -0.8030   20.6460  -29.0420 H   0  0  0  0  0  0  0  0  0  0  0  0
    1.0944   18.4729  -29.0534 H   0  0  0  0  0  0  0  0  0  0  0  0
   -0.6422   18.0152  -28.8828 H   0  0  0  0  0  0  0  0  0  0  0  0
    0.7475   19.4922  -31.1424 H   0  0  0  0  0  0  0  0  0  0  0  0
   -0.3769   18.0725  -31.1978 H   0  0  0  0  0  0  0  0  0  0  0  0
   -1.2300   20.7190  -30.2650 H   0  0  0  0  0  0  0  0  0  0  0  0
   -0.5365   21.3163  -32.3609 H   0  0  0  0  0  0  0  0  0  0  0  0
   -1.1209   19.7477  -33.0453 H   0  0  0  0  0  0  0  0  0  0  0  0
   -2.5395   22.2543  -32.7596 H   0  0  0  0  0  0  0  0  0  0  0  0
   -3.0722   20.6994  -33.5260 H   0  0  0  0  0  0  0  0  0  0  0  0
   -3.3640   20.3050  -30.7580 H   0  0  0  0  0  0  0  0  0  0  0  0
   -3.3448   23.3495  -30.8652 H   0  0  0  0  0  0  0  0  0  0  0  0
   -4.0232   25.5795  -30.0061 H   0  0  0  0  0  0  0  0  0  0  0  0
   -6.4328   26.1712  -29.8367 H   0  0  0  0  0  0  0  0  0  0  0  0
   -8.1710   24.5744  -30.6059 H   0  0  0  0  0  0  0  0  0  0  0  0
   -9.5916   22.8080  -30.9880 H   0  0  0  0  0  0  0  0  0  0  0  0
   -9.0650   23.5771  -32.5236 H   0  0  0  0  0  0  0  0  0  0  0  0
   -9.6467   21.8776  -32.5236 H   0  0  0  0  0  0  0  0  0  0  0  0
   -9.4101   20.1264  -32.1950 H   0  0  0  0  0  0  0  0  0  0  0  0
   -8.7608   17.8466  -32.9362 H   0  0  0  0  0  0  0  0  0  0  0  0
   -4.5950   18.9187  -32.6564 H   0  0  0  0  0  0  0  0  0  0  0  0
  1  2  1  0
  2  3  1  0
  3  4  1  0
  4  5  1  0
  5  6  1  0
  6  7  1  0
  7  8  1  0
  8  9  1  0
  9 10  1  0
 10 11  1  0
 11 12  1  0
 12 13  1  0
 13 14  2  0
 14 15  1  0
 15 16  2  0
 16 17  1  0
 17 18  2  0
 18 19  1  0
 19 20  2  0
 20 21  1  0
 20 22  1  0
 22 23  2  0
 23 24  1  0
 24 25  2  0
 25 26  1  0
 25 27  1  0
 27 28  2  0
 28 13  1  0
 19 14  1  0
 28 22  1  0
  1 29  1  0
  1 30  1  0
  1 31  1  0
  2 32  1  0
  2 33  1  0
  3 34  1  0
  4 35  1  0
  4 36  1  0
  5 37  1  0
  5 38  1  0
  6 39  1  0
  7 40  1  0
  7 41  1  0
  8 42  1  0
  8 43  1  0
  9 44  1  0
 10 45  1  0
 10 46  1  0
 11 47  1  0
 11 48  1  0
 12 49  1  0
 15 50  1  0
 16 51  1  0
 17 52  1  0
 18 53  1  0
 21 54  1  0
 21 55  1  0
 21 56  1  0
 23 57  1  0
 24 58  1  0
 27 59  1  0
M  CHG  1  20   1
M  END
>  <UniqueID>  (6) 
6

>  <SMILES>  (6) 
CCNCCNCCNCCNc1c2ccccc2[n+](C)c2ccc(Cl)cc12

>  <Energy>  (6) 
71.56528498810623

>  <Genealogy>  (6) 
CCNCCNCCNCCNc1c2ccccc2[n+](C)c2ccc(Cl)cc12 (3D coordinates assigned)
CCNCCNCCNCCNc1c2ccccc2[n+](C)c2ccc(Cl)cc12 (optimized conformer: 71.56528498810623 kcal/mol)

>  <smiles>  (6) 
CCNCCNCCNCCNc1c2ccccc2[n+](C)c2ccc(Cl)cc12

>  <score_type>  (6) 
oracle

>  <origin>  (6) 
adg

>  <m_score__min__energy>  (6) 
-8.5500000000000007

>  <m_primary>  (6) 
energy

$$$$
6:0
     RDKit          3D

 72 75  0  0  0  0  0  0  0  0999 V2000
    0.2350   21.2170  -35.3400 C   0  0  0  0  0  0  0  0  0  0  0  0
   -0.5850   19.9930  -34.9410 C   0  0  0  0  0  0  0  0  0  0  0  0
   -1.1620   20.1770  -33.6020 N   0  0  0  0  0  0  0  0  0  0  0  0
   -0.9810   21.5550  -33.1240 C   0  0  0  0  0  0  0  0  0  0  0  0
   -0.4860   21.5460  -31.6800 C   0  0  0  0  0  0  0  0  0  0  0  0
   -1.0280   20.4250  -31.0060 O   0  0  0  0  0  0  0  0  0  0  0  0
   -1.8130   20.8380  -29.9040 C   0  0  0  0  0  0  0  0  0  0  0  0
   -3.3060   20.8000  -30.2710 C   0  0  0  0  0  0  0  0  0  0  0  0
   -3.5240   20.4000  -31.6640 N   0  0  0  0  0  0  0  0  0  0  0  0
   -4.8530   20.2670  -32.1940 C   0  0  0  0  0  0  0  0  0  0  0  0
   -5.7720   21.3120  -32.0030 C   0  0  0  0  0  0  0  0  0  0  0  0
   -5.3290   22.6190  -31.7070 C   0  0  0  0  0  0  0  0  0  0  0  0
   -6.2430   23.6610  -31.5680 C   0  0  0  0  0  0  0  0  0  0  0  0
   -7.6040   23.4220  -31.7330 C   0  0  0  0  0  0  0  0  0  0  0  0
   -8.0610   22.1310  -32.0020 C   0  0  0  0  0  0  0  0  0  0  0  0
   -7.1570   21.0450  -32.1060 C   0  0  0  0  0  0  0  0  0  0  0  0
   -7.5950   19.7470  -32.2760 N   0  0  0  0  0  0  0  0  0  0  0  0
   -9.0060   19.3990  -31.9920 C   0  0  0  0  0  0  0  0  0  0  0  0
   -6.7050   18.7700  -32.6930 C   0  0  0  0  0  0  0  0  0  0  0  0
   -7.1630   17.4980  -33.1160 C   0  0  0  0  0  0  0  0  0  0  0  0
   -6.2770   16.5130  -33.5310 C   0  0  0  0  0  0  0  0  0  0  0  0
   -4.9220   16.7850  -33.6180 C   0  0  0  0  0  0  0  0  0  0  0  0
   -4.4130   18.0490  -33.2710 C   0  0  0  0  0  0  0  0  0  0  0  0
   -3.0530   18.3480  -33.6750 N   0  0  0  0  0  0  0  0  0  0  0  0
   -2.5100   17.3030  -34.5610 C   0  0  0  0  0  0  0  0  0  0  0  0
   -1.3650   16.5310  -33.8940 C   0  0  0  0  0  0  0  0  0  0  0  0
   -0.4860   17.4650  -33.1500 N   0  0  0  0  0  0  0  0  0  0  0  0
    0.9030   17.4240  -33.6390 C   0  0  0  0  0  0  0  0  0  0  0  0
    1.7300   18.5260  -32.9370 C   0  0  0  0  0  0  0  0  0  0  0  0
    1.1050   19.0140  -31.7590 O   0  0  0  0  0  0  0  0  0  0  0  0
    0.6420   17.9320  -30.9750 C   0  0  0  0  0  0  0  0  0  0  0  0
   -0.5180   17.2080  -31.6930 C   0  0  0  0  0  0  0  0  0  0  0  0
   -5.3010   19.0320  -32.7200 C   0  0  0  0  0  0  0  0  0  0  0  0
    0.5829   21.7363  -34.4348 H   0  0  0  0  0  0  0  0  0  0  0  0
    1.1027   20.8985  -35.9364 H   0  0  0  0  0  0  0  0  0  0  0  0
   -0.3896   21.8983  -35.9364 H   0  0  0  0  0  0  0  0  0  0  0  0
   -1.3970   19.8478  -35.6687 H   0  0  0  0  0  0  0  0  0  0  0  0
    0.0730   19.1116  -34.9279 H   0  0  0  0  0  0  0  0  0  0  0  0
   -0.6530   19.5360  -32.9440 H   0  0  0  0  0  0  0  0  0  0  0  0
   -0.2428   22.0668  -33.7589 H   0  0  0  0  0  0  0  0  0  0  0  0
   -1.9446   22.0833  -33.1721 H   0  0  0  0  0  0  0  0  0  0  0  0
    0.6123   21.4859  -31.6685 H   0  0  0  0  0  0  0  0  0  0  0  0
   -0.8061   22.4694  -31.1752 H   0  0  0  0  0  0  0  0  0  0  0  0
   -1.6304   20.1632  -29.0547 H   0  0  0  0  0  0  0  0  0  0  0  0
   -1.5364   21.8674  -29.6322 H   0  0  0  0  0  0  0  0  0  0  0  0
   -3.8145   20.0806  -29.6122 H   0  0  0  0  0  0  0  0  0  0  0  0
   -3.7108   21.8149  -30.1439 H   0  0  0  0  0  0  0  0  0  0  0  0
   -2.7650   20.6540  -32.3350 H   0  0  0  0  0  0  0  0  0  0  0  0
   -4.2537   22.8163  -31.5851 H   0  0  0  0  0  0  0  0  0  0  0  0
   -5.8885   24.6741  -31.3275 H   0  0  0  0  0  0  0  0  0  0  0  0
   -8.3210   24.2522  -31.6512 H   0  0  0  0  0  0  0  0  0  0  0  0
   -9.1385   21.9541  -32.1352 H   0  0  0  0  0  0  0  0  0  0  0  0
   -9.1623   19.3605  -30.9038 H   0  0  0  0  0  0  0  0  0  0  0  0
   -9.6670   20.1610  -32.4306 H   0  0  0  0  0  0  0  0  0  0  0  0
   -9.2369   18.4170  -32.4306 H   0  0  0  0  0  0  0  0  0  0  0  0
   -8.2425   17.2864  -33.1157 H   0  0  0  0  0  0  0  0  0  0  0  0
   -6.6528   15.5126  -33.7917 H   0  0  0  0  0  0  0  0  0  0  0  0
   -4.2332   16.0002  -33.9639 H   0  0  0  0  0  0  0  0  0  0  0  0
   -3.0660   19.2570  -34.1940 H   0  0  0  0  0  0  0  0  0  0  0  0
   -2.4340   18.5110  -32.8530 H   0  0  0  0  0  0  0  0  0  0  0  0
   -3.3149   16.5976  -34.8149 H   0  0  0  0  0  0  0  0  0  0  0  0
   -2.1137   17.7912  -35.4636 H   0  0  0  0  0  0  0  0  0  0  0  0
   -1.7834   15.7910  -33.1958 H   0  0  0  0  0  0  0  0  0  0  0  0
   -0.7744   16.0217  -34.6697 H   0  0  0  0  0  0  0  0  0  0  0  0
    1.3409   16.4396  -33.4170 H   0  0  0  0  0  0  0  0  0  0  0  0
    0.9140   17.5939  -34.7257 H   0  0  0  0  0  0  0  0  0  0  0  0
    2.7125   18.1110  -32.6679 H   0  0  0  0  0  0  0  0  0  0  0  0
    1.8223   19.3690  -33.6376 H   0  0  0  0  0  0  0  0  0  0  0  0
    1.4669   17.2228  -30.8119 H   0  0  0  0  0  0  0  0  0  0  0  0
    0.2807   18.3178  -30.0103 H   0  0  0  0  0  0  0  0  0  0  0  0
   -0.4297   16.1258  -31.5171 H   0  0  0  0  0  0  0  0  0  0  0  0
   -1.4689   17.5886  -31.2919 H   0  0  0  0  0  0  0  0  0  0  0  0
  1  2  1  0
  2  3  1  0
  3  4  1  0
  4  5  1  0
  5  6  1  0
  6  7  1  0
  7  8  1  0
  8  9  1  0
  9 10  1  0
 10 11  2  0
 11 12  1  0
 12 13  2  0
 13 14  1  0
 14 15  2  0
 15 16  1  0
 16 17  2  0
 17 18  1  0
 17 19  1  0
 19 20  2  0
 20 21  1  0
 21 22  2  0
 22 23  1  0
 23 24  1  0
 24 25  1  0
 25 26  1  0
 26 27  1  0
 27 28  1  0
 28 29  1  0
 29 30  1  0
 30 31  1  0
 31 32  1  0
 23 33  2  0
 33 10  1  0
 16 11  1  0
 33 19  1  0
 32 27  1  0
  1 34  1  0
  1 35  1  0
  1 36  1  0
  2 37  1  0
  2 38  1  0
  3 39  1  0
  4 40  1  0
  4 41  1  0
  5 42  1  0
  5 43  1  0
  7 44  1  0
  7 45  1  0
  8 46  1  0
  8 47  1  0
  9 48  1  0
 12 49  1  0
 13 50  1  0
 14 51  1  0
 15 52  1  0
 18 53  1  0
 18 54  1  0
 18 55  1  0
 20 56  1  0
 21 57  1  0
 22 58  1  0
 24 59  1  0
 24 60  1  0
 25 61  1  0
 25 62  1  0
 26 63  1  0
 26 64  1  0
 28 65  1  0
 28 66  1  0
 29 67  1  0
 29 68  1  0
 31 69  1  0
 31 70  1  0
 32 71  1  0
 32 72  1  0
M  CHG  2  17   1  24   1
M  END
>  <UniqueID>  (7) 
7

>  <SMILES>  (7) 
CCNCCOCCNc1c2ccccc2[n+](C)c2cccc([NH2+]CCN3CCOCC3)c12

>  <Energy>  (7) 
117.67370564649146

>  <Genealogy>  (7) 
CCNCCOCCNc1c2ccccc2[n+](C)c2cccc([NH2+]CCN3CCOCC3)c12 (protonated)
CCNCCOCCNc1c2ccccc2[n+](C)c2cccc([NH2+]CCN3CCOCC3)c12 (3D coordinates assigned)
CCNCCOCCNc1c2ccccc2[n+](C)c2cccc([NH2+]CCN3CCOCC3)c12 (nonaromatic ring conformer: 117.67370564649146 kcal/mol)

>  <smiles>  (7) 
CCNCCOCCNc1c2ccccc2[n+](C)c2cccc(NCCN3CCOCC3)c12

>  <score_type>  (7) 
oracle

>  <origin>  (7) 
adg

>  <m_score__min__energy>  (7) 
-8.8699999999999992

>  <m_primary>  (7) 
energy

$$$$
7:0
     RDKit          3D

 51 53  0  0  0  0  0  0  0  0999 V2000
   -9.1050   23.0100  -31.9700 C   0  0  0  0  0  0  0  0  0  0  0  0
   -7.7520   22.4540  -31.7330 N   0  0  0  0  0  0  0  0  0  0  0  0
   -7.4490   21.1660  -32.1450 C   0  0  0  0  0  0  0  0  0  0  0  0
   -6.0760   20.7630  -32.2300 C   0  0  0  0  0  0  0  0  0  0  0  0
   -5.0960   21.5780  -31.6230 C   0  0  0  0  0  0  0  0  0  0  0  0
   -3.7350   21.1210  -31.5340 N   0  0  0  0  0  0  0  0  0  0  0  0
   -2.6360   21.8220  -32.2010 C   0  0  0  0  0  0  0  0  0  0  0  0
   -1.5580   20.8290  -32.6600 C   0  0  0  0  0  0  0  0  0  0  0  0
   -1.7130   20.4380  -34.0830 N   0  0  0  0  0  0  0  0  0  0  0  0
   -0.4070   20.3040  -34.7570 C   0  0  0  0  0  0  0  0  0  0  0  0
   -2.4450   19.1620  -34.1720 C   0  0  0  0  0  0  0  0  0  0  0  0
   -5.4490   22.8240  -31.0800 C   0  0  0  0  0  0  0  0  0  0  0  0
   -4.4680   23.6810  -30.5310 C   0  0  0  0  0  0  0  0  0  0  0  0
   -4.8270   24.8970  -29.9550 C   0  0  0  0  0  0  0  0  0  0  0  0
   -6.1600   25.2810  -29.9160 C   0  0  0  0  0  0  0  0  0  0  0  0
   -7.1400   24.4680  -30.4850 C   0  0  0  0  0  0  0  0  0  0  0  0
   -6.8010   23.2400  -31.1140 C   0  0  0  0  0  0  0  0  0  0  0  0
   -5.5960   19.4700  -32.8950 C   0  0  0  0  0  0  0  0  0  0  0  0
   -6.1140   18.1790  -32.2580 C   0  0  0  0  0  0  0  0  0  0  0  0
   -7.5740   17.9070  -32.6310 C   0  0  0  0  0  0  0  0  0  0  0  0
   -8.5540   18.8240  -31.8930 C   0  0  0  0  0  0  0  0  0  0  0  0
   -8.6040   20.2240  -32.5140 C   0  0  0  0  0  0  0  0  0  0  0  0
   -9.5932   23.2106  -31.0049 H   0  0  0  0  0  0  0  0  0  0  0  0
   -9.0217   23.9468  -32.5405 H   0  0  0  0  0  0  0  0  0  0  0  0
   -9.7045   22.2853  -32.5405 H   0  0  0  0  0  0  0  0  0  0  0  0
   -3.5450   20.1990  -31.0780 H   0  0  0  0  0  0  0  0  0  0  0  0
   -3.0290   22.3588  -33.0770 H   0  0  0  0  0  0  0  0  0  0  0  0
   -2.1850   22.5301  -31.4902 H   0  0  0  0  0  0  0  0  0  0  0  0
   -0.5703   21.2949  -32.5280 H   0  0  0  0  0  0  0  0  0  0  0  0
   -1.6613   19.9190  -32.0507 H   0  0  0  0  0  0  0  0  0  0  0  0
   -2.2780   21.1640  -34.5860 H   0  0  0  0  0  0  0  0  0  0  0  0
    0.3887   20.2224  -34.0018 H   0  0  0  0  0  0  0  0  0  0  0  0
   -0.4098   19.4014  -35.3858 H   0  0  0  0  0  0  0  0  0  0  0  0
   -0.2264   21.1883  -35.3858 H   0  0  0  0  0  0  0  0  0  0  0  0
   -2.6583   18.7902  -33.1589 H   0  0  0  0  0  0  0  0  0  0  0  0
   -3.3906   19.3186  -34.7117 H   0  0  0  0  0  0  0  0  0  0  0  0
   -1.8325   18.4248  -34.7117 H   0  0  0  0  0  0  0  0  0  0  0  0
   -3.4092   23.3841  -30.5591 H   0  0  0  0  0  0  0  0  0  0  0  0
   -4.0533   25.5537  -29.5306 H   0  0  0  0  0  0  0  0  0  0  0  0
   -6.4443   26.2287  -29.4353 H   0  0  0  0  0  0  0  0  0  0  0  0
   -8.1933   24.7829  -30.4461 H   0  0  0  0  0  0  0  0  0  0  0  0
   -5.9223   19.4860  -33.9454 H   0  0  0  0  0  0  0  0  0  0  0  0
   -4.5027   19.4525  -32.7749 H   0  0  0  0  0  0  0  0  0  0  0  0
   -5.4954   17.3379  -32.6043 H   0  0  0  0  0  0  0  0  0  0  0  0
   -6.0551   18.2894  -31.1651 H   0  0  0  0  0  0  0  0  0  0  0  0
   -7.6951   18.0611  -33.7134 H   0  0  0  0  0  0  0  0  0  0  0  0
   -7.8039   16.8717  -32.3389 H   0  0  0  0  0  0  0  0  0  0  0  0
   -9.5591   18.3793  -31.9369 H   0  0  0  0  0  0  0  0  0  0  0  0
   -8.2101   18.9243  -30.8530 H   0  0  0  0  0  0  0  0  0  0  0  0
   -8.6065   20.1070  -33.6078 H   0  0  0  0  0  0  0  0  0  0  0  0
   -9.5118   20.6955  -32.1095 H   0  0  0  0  0  0  0  0  0  0  0  0
  1  2  1  0
  2  3  2  0
  3  4  1  0
  4  5  2  0
  5  6  1  0
  6  7  1  0
  7  8  1  0
  8  9  1  0
  9 10  1  0
  9 11  1  0
  5 12  1  0
 12 13  2  0
 13 14  1  0
 14 15  2  0
 15 16  1  0
 16 17  2  0
  4 18  1  0
 18 19  1  0
 19 20  1  0
 20 21  1  0
 21 22  1  0
 17  2  1  0
 22  3  1  0
 17 12  1  0
  1 23  1  0
  1 24  1  0
  1 25  1  0
  6 26  1  0
  7 27  1  0
  7 28  1  0
  8 29  1  0
  8 30  1  0
  9 31  1  0
 10 32  1  0
 10 33  1  0
 10 34  1  0
 11 35  1  0
 11 36  1  0
 11 37  1  0
 13 38  1  0
 14 39  1  0
 15 40  1  0
 16 41  1  0
 18 42  1  0
 18 43  1  0
 19 44  1  0
 19 45  1  0
 20 46  1  0
 20 47  1  0
 21 48  1  0
 21 49  1  0
 22 50  1  0
 22 51  1  0
M  CHG  2   2   1   9   1
M  END
>  <UniqueID>  (8) 
8

>  <SMILES>  (8) 
C[n+]1c2c(c(NCC[NH+](C)C)c3ccccc31)CCCCC2

>  <Energy>  (8) 
81.91111009091375

>  <Genealogy>  (8) 
C[n+]1c2c(c(NCC[NH+](C)C)c3ccccc31)CCCCC2 (protonated)
C[n+]1c2c(c(NCC[NH+](C)C)c3ccccc31)CCCCC2 (3D coordinates assigned)
C[n+]1c2c(c(NCC[NH+](C)C)c3ccccc31)CCCCC2 (nonaromatic ring conformer: 81.91111009091375 kcal/mol)

>  <smiles>  (8) 
CN(C)CCNc1c2c([n+](C)c3ccccc13)CCCCC2

>  <score_type>  (8) 
oracle

>  <origin>  (8) 
adg

>  <m_score__min__energy>  (8) 
-5.6200000000000001

>  <m_primary>  (8) 
energy

$$$$
8:0
     RDKit          3D

 40 41  0  0  0  0  0  0  0  0999 V2000
   -6.4660   25.2480  -29.7100 C   0  0  0  0  0  0  0  0  0  0  0  0
   -5.3830   25.9720  -30.4920 C   0  0  0  0  0  0  0  0  0  0  0  0
   -4.1760   25.2190  -30.4380 O   0  0  0  0  0  0  0  0  0  0  0  0
   -3.8760   24.2690  -29.4480 C   0  0  0  0  0  0  0  0  0  0  0  0
   -4.0150   24.5580  -28.1180 N   0  0  0  0  0  0  0  0  0  0  0  0
   -3.7140   23.6450  -27.1540 C   0  0  0  0  0  0  0  0  0  0  0  0
   -3.2460   22.3800  -27.5050 C   0  0  0  0  0  0  0  0  0  0  0  0
   -3.0940   22.0570  -28.8510 C   0  0  0  0  0  0  0  0  0  0  0  0
   -3.4180   22.9950  -29.8410 C   0  0  0  0  0  0  0  0  0  0  0  0
   -3.2210   22.6530  -31.2980 C   0  0  0  0  0  0  0  0  0  0  0  0
   -4.4780   22.0160  -31.8990 C   0  0  0  0  0  0  0  0  0  0  0  0
   -5.6820   22.7110  -31.4210 N   0  0  0  0  0  0  0  0  0  0  0  0
   -6.8170   22.5390  -32.3400 C   0  0  0  0  0  0  0  0  0  0  0  0
   -7.3560   21.1290  -32.3190 C   0  0  0  0  0  0  0  0  0  0  0  0
   -8.5380   20.8340  -31.6200 C   0  0  0  0  0  0  0  0  0  0  0  0
   -9.0520   19.5340  -31.6200 C   0  0  0  0  0  0  0  0  0  0  0  0
   -8.3920   18.5200  -32.3200 C   0  0  0  0  0  0  0  0  0  0  0  0
   -7.2190   18.8060  -33.0230 C   0  0  0  0  0  0  0  0  0  0  0  0
   -6.7020   20.1060  -33.0260 C   0  0  0  0  0  0  0  0  0  0  0  0
   -6.2836   25.3699  -28.6321 H   0  0  0  0  0  0  0  0  0  0  0  0
   -7.4484   25.6716  -29.9659 H   0  0  0  0  0  0  0  0  0  0  0  0
   -6.4501   24.1783  -29.9659 H   0  0  0  0  0  0  0  0  0  0  0  0
   -5.6993   26.0834  -31.5396 H   0  0  0  0  0  0  0  0  0  0  0  0
   -5.2153   26.9663  -30.0524 H   0  0  0  0  0  0  0  0  0  0  0  0
   -4.3580   25.4930  -27.8070 H   0  0  0  0  0  0  0  0  0  0  0  0
   -3.8408   23.9069  -26.0932 H   0  0  0  0  0  0  0  0  0  0  0  0
   -2.9990   21.6436  -26.7261 H   0  0  0  0  0  0  0  0  0  0  0  0
   -2.7188   21.0636  -29.1380 H   0  0  0  0  0  0  0  0  0  0  0  0
   -2.9863   23.5734  -31.8528 H   0  0  0  0  0  0  0  0  0  0  0  0
   -2.3963   21.9291  -31.3746 H   0  0  0  0  0  0  0  0  0  0  0  0
   -4.4307   22.0852  -32.9958 H   0  0  0  0  0  0  0  0  0  0  0  0
   -4.5273   20.9617  -31.5892 H   0  0  0  0  0  0  0  0  0  0  0  0
   -5.4690   23.7320  -31.3220 H   0  0  0  0  0  0  0  0  0  0  0  0
   -7.6202   23.2302  -32.0449 H   0  0  0  0  0  0  0  0  0  0  0  0
   -6.4625   22.7510  -33.3595 H   0  0  0  0  0  0  0  0  0  0  0  0
   -9.0617   21.6297  -31.0699 H   0  0  0  0  0  0  0  0  0  0  0  0
   -9.9768   19.3088  -31.0686 H   0  0  0  0  0  0  0  0  0  0  0  0
   -8.7961   17.4969  -32.3174 H   0  0  0  0  0  0  0  0  0  0  0  0
   -6.7011   18.0078  -33.5750 H   0  0  0  0  0  0  0  0  0  0  0  0
   -5.7803   20.3280  -33.5838 H   0  0  0  0  0  0  0  0  0  0  0  0
  1  2  1  0
  2  3  1  0
  3  4  1  0
  4  5  2  0
  5  6  1  0
  6  7  2  0
  7  8  1  0
  8  9  2  0
  9 10  1  0
 10 11  1  0
 11 12  1  0
 12 13  1  0
 13 14  1  0
 14 15  2  0
 15 16  1  0
 16 17  2  0
 17 18  1  0
 18 19  2  0
  9  4  1  0
 19 14  1  0
  1 20  1  0
  1 21  1  0
  1 22  1  0
  2 23  1  0
  2 24  1  0
  5 25  1  0
  6 26  1  0
  7 27  1  0
  8 28  1  0
 10 29  1  0
 10 30  1  0
 11 31  1  0
 11 32  1  0
 12 33  1  0
 13 34  1  0
 13 35  1  0
 15 36  1  0
 16 37  1  0
 17 38  1  0
 18 39  1  0
 19 40  1  0
M  CHG  1   5   1
M  END
>  <UniqueID>  (9) 
9

>  <SMILES>  (9) 
CCOc1[nH+]cccc1CCNCc1ccccc1

>  <Energy>  (9) 
33.08599449778117

>  <Genealogy>  (9) 
CCOc1[nH+]cccc1CCNCc1ccccc1 (protonated)
CCOc1[nH+]cccc1CCNCc1ccccc1 (3D coordinates assigned)
CCOc1[nH+]cccc1CCNCc1ccccc1 (optimized conformer: 33.08599449778117 kcal/mol)

>  <smiles>  (9) 
CCOc1ncccc1CCNCc1ccccc1

>  <score_type>  (9) 
oracle

>  <origin>  (9) 
adg

>  <m_score__min__energy>  (9) 
-7.0499999999999998

>  <m_primary>  (9) 
energy

$$$$
9:0
     RDKit          3D

 96 99  0  0  0  0  0  0  0  0999 V2000
   -4.5880   16.8980  -34.1440 C   0  0  0  0  0  0  0  0  0  0  0  0
   -3.4860   16.6060  -33.1100 C   0  0  0  0  0  0  0  0  0  0  0  0
   -2.1020   16.9880  -33.5210 N   0  0  0  0  0  0  0  0  0  0  0  0
   -1.8840   16.8700  -34.9900 C   0  0  0  0  0  0  0  0  0  0  0  0
   -0.4450   17.1140  -35.4580 C   0  0  0  0  0  0  0  0  0  0  0  0
   -1.0440   16.3710  -32.6750 C   0  0  0  0  0  0  0  0  0  0  0  0
   -0.4320   17.3460  -31.6600 C   0  0  0  0  0  0  0  0  0  0  0  0
   -1.1970   18.5370  -31.6470 O   0  0  0  0  0  0  0  0  0  0  0  0
   -0.3620   19.6720  -31.5040 C   0  0  0  0  0  0  0  0  0  0  0  0
   -0.0350   20.3120  -32.8550 C   0  0  0  0  0  0  0  0  0  0  0  0
   -0.8750   19.7530  -33.8470 O   0  0  0  0  0  0  0  0  0  0  0  0
   -1.9660   20.6090  -34.1360 C   0  0  0  0  0  0  0  0  0  0  0  0
   -3.3200   19.9440  -33.8410 C   0  0  0  0  0  0  0  0  0  0  0  0
   -3.6150   19.9240  -32.4050 N   0  0  0  0  0  0  0  0  0  0  0  0
   -4.4990   20.8840  -31.7980 C   0  0  0  0  0  0  0  0  0  0  0  0
   -5.8920   20.7270  -31.9060 C   0  0  0  0  0  0  0  0  0  0  0  0
   -6.4490   19.5580  -32.4690 C   0  0  0  0  0  0  0  0  0  0  0  0
   -7.8310   19.3920  -32.5370 C   0  0  0  0  0  0  0  0  0  0  0  0
   -8.6770   20.3740  -32.0340 C   0  0  0  0  0  0  0  0  0  0  0  0
   -8.1480   21.5460  -31.4920 C   0  0  0  0  0  0  0  0  0  0  0  0
   -6.7470   21.7670  -31.4520 C   0  0  0  0  0  0  0  0  0  0  0  0
   -6.2100   22.9530  -30.9870 N   0  0  0  0  0  0  0  0  0  0  0  0
   -7.0750   24.1440  -30.8240 C   0  0  0  0  0  0  0  0  0  0  0  0
   -4.8600   23.0290  -30.6920 C   0  0  0  0  0  0  0  0  0  0  0  0
   -4.3140   24.1230  -29.9720 C   0  0  0  0  0  0  0  0  0  0  0  0
   -2.9380   24.2010  -29.6940 C   0  0  0  0  0  0  0  0  0  0  0  0
   -2.3630   25.2960  -29.0360 O   0  0  0  0  0  0  0  0  0  0  0  0
   -1.2830   25.2100  -28.1050 C   0  0  0  0  0  0  0  0  0  0  0  0
   -1.7570   25.6610  -26.7060 C   0  0  0  0  0  0  0  0  0  0  0  0
   -0.7180   25.6190  -25.6220 N   0  0  0  0  0  0  0  0  0  0  0  0
   -0.5590   24.2240  -25.1320 C   0  0  0  0  0  0  0  0  0  0  0  0
   -1.2360   26.4580  -24.4960 C   0  0  0  0  0  0  0  0  0  0  0  0
   -0.1660   26.7890  -23.4340 C   0  0  0  0  0  0  0  0  0  0  0  0
    1.0820   27.4020  -24.0020 N   0  0  0  0  0  0  0  0  0  0  0  0
    1.2300   28.7890  -23.4940 C   0  0  0  0  0  0  0  0  0  0  0  0
    2.2690   26.6280  -23.5560 C   0  0  0  0  0  0  0  0  0  0  0  0
    1.0520   27.4640  -25.4900 C   0  0  0  0  0  0  0  0  0  0  0  0
    0.6000   26.1360  -26.1350 C   0  0  0  0  0  0  0  0  0  0  0  0
   -2.1040   23.1560  -30.0820 C   0  0  0  0  0  0  0  0  0  0  0  0
   -2.6160   22.0570  -30.7630 C   0  0  0  0  0  0  0  0  0  0  0  0
   -3.9840   21.9890  -31.0970 C   0  0  0  0  0  0  0  0  0  0  0  0
   -5.5240   17.1460  -33.6221 H   0  0  0  0  0  0  0  0  0  0  0  0
   -4.2837   17.7465  -34.7744 H   0  0  0  0  0  0  0  0  0  0  0  0
   -4.7438   16.0102  -34.7744 H   0  0  0  0  0  0  0  0  0  0  0  0
   -3.7304   17.1564  -32.1895 H   0  0  0  0  0  0  0  0  0  0  0  0
   -3.4728   15.5135  -32.9827 H   0  0  0  0  0  0  0  0  0  0  0  0
   -2.0480   18.0180  -33.3320 H   0  0  0  0  0  0  0  0  0  0  0  0
   -2.1739   15.8541  -35.2965 H   0  0  0  0  0  0  0  0  0  0  0  0
   -2.4937   17.6596  -35.4534 H   0  0  0  0  0  0  0  0  0  0  0  0
    0.2114   17.2253  -34.5824 H   0  0  0  0  0  0  0  0  0  0  0  0
   -0.1067   16.2604  -36.0637 H   0  0  0  0  0  0  0  0  0  0  0  0
   -0.4070   18.0314  -36.0637 H   0  0  0  0  0  0  0  0  0  0  0  0
   -1.4850   15.5263  -32.1254 H   0  0  0  0  0  0  0  0  0  0  0  0
   -0.2347   16.0510  -33.3478 H   0  0  0  0  0  0  0  0  0  0  0  0
   -0.4415   16.8904  -30.6588 H   0  0  0  0  0  0  0  0  0  0  0  0
    0.6063   17.5739  -31.9426 H   0  0  0  0  0  0  0  0  0  0  0  0
   -0.8744   20.4136  -30.8736 H   0  0  0  0  0  0  0  0  0  0  0  0
    0.5820   19.3456  -31.0433 H   0  0  0  0  0  0  0  0  0  0  0  0
   -0.2032   21.3976  -32.7988 H   0  0  0  0  0  0  0  0  0  0  0  0
    1.0179   20.1216  -33.1104 H   0  0  0  0  0  0  0  0  0  0  0  0
   -1.8761   21.5171  -33.5218 H   0  0  0  0  0  0  0  0  0  0  0  0
   -1.9334   20.8468  -35.2095 H   0  0  0  0  0  0  0  0  0  0  0  0
   -4.1122   20.5039  -34.3595 H   0  0  0  0  0  0  0  0  0  0  0  0
   -3.2746   18.9036  -34.1954 H   0  0  0  0  0  0  0  0  0  0  0  0
   -3.2760   19.1160  -31.8360 H   0  0  0  0  0  0  0  0  0  0  0  0
   -5.7859   18.7710  -32.8575 H   0  0  0  0  0  0  0  0  0  0  0  0
   -8.2532   18.4825  -32.9894 H   0  0  0  0  0  0  0  0  0  0  0  0
   -9.7667   20.2266  -32.0634 H   0  0  0  0  0  0  0  0  0  0  0  0
   -8.8282   22.3110  -31.0892 H   0  0  0  0  0  0  0  0  0  0  0  0
   -7.2221   24.3465  -29.7529 H   0  0  0  0  0  0  0  0  0  0  0  0
   -6.5960   25.0128  -31.2990 H   0  0  0  0  0  0  0  0  0  0  0  0
   -8.0494   23.9573  -31.2990 H   0  0  0  0  0  0  0  0  0  0  0  0
   -4.9805   24.9261  -29.6244 H   0  0  0  0  0  0  0  0  0  0  0  0
   -0.9290   24.1699  -28.0523 H   0  0  0  0  0  0  0  0  0  0  0  0
   -0.4647   25.8651  -28.4385 H   0  0  0  0  0  0  0  0  0  0  0  0
   -2.1174   26.6970  -26.7889 H   0  0  0  0  0  0  0  0  0  0  0  0
   -2.5332   24.9417  -26.4058 H   0  0  0  0  0  0  0  0  0  0  0  0
   -0.5585   24.2196  -24.0320 H   0  0  0  0  0  0  0  0  0  0  0  0
   -1.3928   23.6086  -25.5008 H   0  0  0  0  0  0  0  0  0  0  0  0
    0.3919   23.8120  -25.5008 H   0  0  0  0  0  0  0  0  0  0  0  0
   -1.6179   27.4020  -24.9119 H   0  0  0  0  0  0  0  0  0  0  0  0
   -2.0226   25.8761  -23.9933 H   0  0  0  0  0  0  0  0  0  0  0  0
   -0.6013   27.4949  -22.7113 H   0  0  0  0  0  0  0  0  0  0  0  0
    0.1280   25.8371  -22.9677 H   0  0  0  0  0  0  0  0  0  0  0  0
    1.2289   28.7787  -22.3940 H   0  0  0  0  0  0  0  0  0  0  0  0
    2.1785   29.2127  -23.8558 H   0  0  0  0  0  0  0  0  0  0  0  0
    0.3923   29.4033  -23.8558 H   0  0  0  0  0  0  0  0  0  0  0  0
    2.3012   26.6070  -22.4567 H   0  0  0  0  0  0  0  0  0  0  0  0
    2.2018   25.5996  -23.9405 H   0  0  0  0  0  0  0  0  0  0  0  0
    3.1829   27.1043  -23.9405 H   0  0  0  0  0  0  0  0  0  0  0  0
    0.3544   28.2581  -25.7947 H   0  0  0  0  0  0  0  0  0  0  0  0
    2.0769   27.6673  -25.8338 H   0  0  0  0  0  0  0  0  0  0  0  0
    0.5107   26.2921  -27.2202 H   0  0  0  0  0  0  0  0  0  0  0  0
    1.3585   25.3832  -25.8743 H   0  0  0  0  0  0  0  0  0  0  0  0
   -1.0301   23.2001  -29.8477 H   0  0  0  0  0  0  0  0  0  0  0  0
   -1.9460   21.2312  -31.0443 H   0  0  0  0  0  0  0  0  0  0  0  0
  1  2  1  0
  2  3  1  0
  3  4  1  0
  4  5  1  0
  3  6  1  0
  6  7  1  0
  7  8  1  0
  8  9  1  0
  9 10  1  0
 10 11  1  0
 11 12  1  0
 12 13  1  0
 13 14  1  0
 14 15  1  0
 15 16  2  0
 16 17  1  0
 17 18  2  0
 18 19  1  0
 19 20  2  0
 20 21  1  0
 21 22  2  0
 22 23  1  0
 22 24  1  0
 24 25  2  0
 25 26  1  0
 26 27  1  0
 27 28  1  0
 28 29  1  0
 29 30  1  0
 30 31  1  0
 30 32  1  0
 32 33  1  0
 33 34  1  0
 34 35  1  0
 34 36  1  0
 34 37  1  0
 37 38  1  0
 26 39  2  0
 39 40  1  0
 40 41  2  0
 41 15  1  0
 21 16  1  0
 41 24  1  0
 38 30  1  0
  1 42  1  0
  1 43  1  0
  1 44  1  0
  2 45  1  0
  2 46  1  0
  3 47  1  0
  4 48  1  0
  4 49  1  0
  5 50  1  0
  5 51  1  0
  5 52  1  0
  6 53  1  0
  6 54  1  0
  7 55  1  0
  7 56  1  0
  9 57  1  0
  9 58  1  0
 10 59  1  0
 10 60  1  0
 12 61  1  0
 12 62  1  0
 13 63  1  0
 13 64  1  0
 14 65  1  0
 17 66  1  0
 18 67  1  0
 19 68  1  0
 20 69  1  0
 23 70  1  0
 23 71  1  0
 23 72  1  0
 25 73  1  0
 28 74  1  0
 28 75  1  0
 29 76  1  0
 29 77  1  0
 31 78  1  0
 31 79  1  0
 31 80  1  0
 32 81  1  0
 32 82  1  0
 33 83  1  0
 33 84  1  0
 35 85  1  0
 35 86  1  0
 35 87  1  0
 36 88  1  0
 36 89  1  0
 36 90  1  0
 37 91  1  0
 37 92  1  0
 38 93  1  0
 38 94  1  0
 39 95  1  0
 40 96  1  0
M  CHG  4   3   1  22   1  30   1  34   1
M  END
>  <UniqueID>  (10) 
10

>  <SMILES>  (10) 
CC[NH+](CC)CCOCCOCCNc1c2ccccc2[n+](C)c2cc(OCC[N+]3(C)CC[N+](C)(C)CC3)ccc12

>  <Energy>  (10) 
160.6488911445134

>  <Genealogy>  (10) 
CC[NH+](CC)CCOCCOCCNc1c2ccccc2[n+](C)c2cc(OCC[N+]3(C)CC[N+](C)(C)CC3)ccc12 (protonated)
CC[NH+](CC)CCOCCOCCNc1c2ccccc2[n+](C)c2cc(OCC[N+]3(C)CC[N+](C)(C)CC3)ccc12 (3D coordinates assigned)
CC[NH+](CC)CCOCCOCCNc1c2ccccc2[n+](C)c2cc(OCC[N+]3(C)CC[N+](C)(C)CC3)ccc12 (nonaromatic ring conformer: 160.6488911445134 kcal/mol)

>  <smiles>  (10) 
CCN(CC)CCOCCOCCNc1c2ccccc2[n+](C)c2cc(OCC[N+]3(C)CC[N+](C)(C)CC3)ccc12

>  <score_type>  (10) 
oracle

>  <origin>  (10) 
adg

>  <m_score__min__energy>  (10) 
-8.7899999999999991

>  <m_primary>  (10) 
energy

$$$$
10:0
     RDKit          3D

 41 43  0  0  0  0  0  0  0  0999 V2000
   -6.4740   17.0750  -31.8970 C   0  0  0  0  0  0  0  0  0  0  0  0
   -4.9940   17.0610  -32.2810 C   0  0  0  0  0  0  0  0  0  0  0  0
   -4.7790   17.1010  -33.8080 C   0  0  1  0  0  0  0  0  0  0  0  0
   -6.0630   16.7940  -34.5900 C   0  0  0  0  0  0  0  0  0  0  0  0
   -4.0460   18.7030  -34.3390 S   0  0  0  0  0  0  0  0  0  0  0  0
   -5.1920   19.7840  -33.4790 C   0  0  0  0  0  0  0  0  0  0  0  0
   -4.7110   20.9330  -32.8730 N   0  0  0  0  0  0  0  0  0  0  0  0
   -5.5090   21.8200  -32.1900 C   0  0  0  0  0  0  0  0  0  0  0  0
   -4.9480   22.9820  -31.5430 N   0  0  0  0  0  0  0  0  0  0  0  0
   -3.5250   23.0240  -31.1810 C   0  0  0  0  0  0  0  0  0  0  0  0
   -3.2820   24.0460  -30.0640 C   0  0  0  0  0  0  0  0  0  0  0  0
   -3.8650   25.2920  -30.3850 O   0  0  0  0  0  0  0  0  0  0  0  0
   -5.2720   25.1550  -30.4230 C   0  0  0  0  0  0  0  0  0  0  0  0
   -5.6980   24.2440  -31.5770 C   0  0  0  0  0  0  0  0  0  0  0  0
   -6.8530   21.4940  -32.1490 C   0  0  0  0  0  0  0  0  0  0  0  0
   -8.3510   21.8690  -31.6040 S   0  0  0  0  0  0  0  0  0  0  0  0
   -8.6540   20.4860  -32.4530 N   0  0  0  0  0  0  0  0  0  0  0  0
   -9.8450   19.6900  -32.6900 C   0  0  0  0  0  0  0  0  0  0  0  0
   -7.3150   20.3360  -32.7770 C   0  0  0  0  0  0  0  0  0  0  0  0
   -6.5320   19.4730  -33.4470 N   0  0  0  0  0  0  0  0  0  0  0  0
   -6.5685   17.0759  -30.8011 H   0  0  0  0  0  0  0  0  0  0  0  0
   -6.9506   17.9777  -32.3068 H   0  0  0  0  0  0  0  0  0  0  0  0
   -6.9676   16.1815  -32.3068 H   0  0  0  0  0  0  0  0  0  0  0  0
   -4.5051   17.9386  -31.8329 H   0  0  0  0  0  0  0  0  0  0  0  0
   -4.5608   16.1215  -31.9072 H   0  0  0  0  0  0  0  0  0  0  0  0
   -4.0622   16.3013  -34.0458 H   0  0  0  0  0  0  0  0  0  0  0  0
   -6.8839   16.5977  -33.8846 H   0  0  0  0  0  0  0  0  0  0  0  0
   -6.3217   17.6556  -35.2230 H   0  0  0  0  0  0  0  0  0  0  0  0
   -5.9039   15.9086  -35.2230 H   0  0  0  0  0  0  0  0  0  0  0  0
   -3.2106   22.0284  -30.8347 H   0  0  0  0  0  0  0  0  0  0  0  0
   -2.9427   23.3207  -32.0658 H   0  0  0  0  0  0  0  0  0  0  0  0
   -3.7256   23.6708  -29.1299 H   0  0  0  0  0  0  0  0  0  0  0  0
   -2.1974   24.1857  -29.9454 H   0  0  0  0  0  0  0  0  0  0  0  0
   -5.6179   24.7202  -29.4736 H   0  0  0  0  0  0  0  0  0  0  0  0
   -5.7192   26.1485  -30.5743 H   0  0  0  0  0  0  0  0  0  0  0  0
   -6.7730   24.0281  -31.4893 H   0  0  0  0  0  0  0  0  0  0  0  0
   -5.4890   24.7553  -32.5283 H   0  0  0  0  0  0  0  0  0  0  0  0
  -10.2865   19.3949  -31.7267 H   0  0  0  0  0  0  0  0  0  0  0  0
  -10.5745   20.2827  -33.2614 H   0  0  0  0  0  0  0  0  0  0  0  0
   -9.5763   18.7893  -33.2614 H   0  0  0  0  0  0  0  0  0  0  0  0
   -6.9200   18.6200  -33.9040 H   0  0  0  0  0  0  0  0  0  0  0  0
  1  2  1  0
  2  3  1  0
  3  4  1  0
  3  5  1  0
  5  6  1  0
  6  7  2  0
  7  8  1  0
  8  9  1  0
  9 10  1  0
 10 11  1  0
 11 12  1  0
 12 13  1  0
 13 14  1  0
  8 15  2  0
 15 16  1  0
 16 17  1  0
 17 18  1  0
 17 19  1  0
 19 20  2  0
 20  6  1  0
 14  9  1  0
 19 15  1  0
  1 21  1  0
  1 22  1  0
  1 23  1  0
  2 24  1  0
  2 25  1  0
  3 26  1  1
  4 27  1  0
  4 28  1  0
  4 29  1  0
 10 30  1  0
 10 31  1  0
 11 32  1  0
 11 33  1  0
 13 34  1  0
 13 35  1  0
 14 36  1  0
 14 37  1  0
 18 38  1  0
 18 39  1  0
 18 40  1  0
 20 41  1  0
M  CHG  1  20   1
M  END
>  <UniqueID>  (11) 
11

>  <SMILES>  (11) 
CC[C@@H](C)Sc1nc(N2CCOCC2)c2sn(C)c2[nH+]1

>  <Energy>  (11) 
64.74881068475587

>  <Genealogy>  (11) 
CCC(C)Sc1nc(N2CCOCC2)c2sn(C)c2[nH+]1 (protonated)
CC[C@@H](C)Sc1nc(N2CCOCC2)c2sn(C)c2[nH+]1 (chirality)
CC[C@@H](C)Sc1nc(N2CCOCC2)c2sn(C)c2[nH+]1 (3D coordinates assigned)
CC[C@@H](C)Sc1nc(N2CCOCC2)c2sn(C)c2[nH+]1 (nonaromatic ring conformer: 64.74881068475587 kcal/mol)

>  <smiles>  (11) 
CCC(C)Sc1nc(N2CCOCC2)c2sn(C)c2n1

>  <score_type>  (11) 
oracle

>  <origin>  (11) 
adg

>  <m_score__min__energy>  (11) 
-7.1900000000000004

>  <m_primary>  (11) 
energy

$$$$
12:0
     RDKit          3D

 69 71  0  0  0  0  0  0  0  0999 V2000
   -6.5200   25.3370  -29.7100 C   0  0  0  0  0  0  0  0  0  0  0  0
   -5.4710   25.3150  -30.8200 C   0  0  0  0  0  0  0  0  0  0  0  0
   -4.5800   24.1470  -30.6610 N   0  0  0  0  0  0  0  0  0  0  0  0
   -3.3050   24.5510  -30.0430 C   0  0  0  0  0  0  0  0  0  0  0  0
   -5.2220   23.0620  -29.8800 C   0  0  0  0  0  0  0  0  0  0  0  0
   -4.1970   21.9560  -29.6060 C   0  0  0  0  0  0  0  0  0  0  0  0
   -3.4140   21.5590  -30.8640 C   0  0  0  0  0  0  0  0  0  0  0  0
   -4.2000   21.7880  -32.0760 N   0  0  0  0  0  0  0  0  0  0  0  0
   -4.9070   20.7030  -32.6910 C   0  0  0  0  0  0  0  0  0  0  0  0
   -6.2980   20.6270  -32.5170 C   0  0  0  0  0  0  0  0  0  0  0  0
   -7.0210   21.7140  -31.9790 C   0  0  0  0  0  0  0  0  0  0  0  0
   -8.4070   21.6540  -31.8570 C   0  0  0  0  0  0  0  0  0  0  0  0
   -9.0950   20.5210  -32.2760 C   0  0  0  0  0  0  0  0  0  0  0  0
   -8.3970   19.4270  -32.7850 C   0  0  0  0  0  0  0  0  0  0  0  0
   -6.9800   19.4400  -32.8760 C   0  0  0  0  0  0  0  0  0  0  0  0
   -6.2650   18.3330  -33.2790 N   0  0  0  0  0  0  0  0  0  0  0  0
   -6.9160   17.0020  -33.2890 C   0  0  0  0  0  0  0  0  0  0  0  0
   -4.9360   18.4610  -33.6460 C   0  0  0  0  0  0  0  0  0  0  0  0
   -4.2550   17.3970  -34.2820 C   0  0  0  0  0  0  0  0  0  0  0  0
   -2.9070   17.4870  -34.5890 C   0  0  0  0  0  0  0  0  0  0  0  0
   -2.2140   18.6630  -34.3640 C   0  0  0  0  0  0  0  0  0  0  0  0
   -2.8620   19.8080  -33.8510 C   0  0  0  0  0  0  0  0  0  0  0  0
   -2.1700   21.0920  -33.8030 N   0  0  0  0  0  0  0  0  0  0  0  0
   -1.1180   21.2190  -32.7760 C   0  0  0  0  0  0  0  0  0  0  0  0
    0.1890   20.5550  -33.2490 C   0  0  0  0  0  0  0  0  0  0  0  0
    1.0300   21.4920  -34.1270 C   0  0  0  0  0  0  0  0  0  0  0  0
    0.2640   21.9760  -35.2990 N   0  0  0  0  0  0  0  0  0  0  0  0
    0.2670   20.9800  -36.3870 C   0  0  0  0  0  0  0  0  0  0  0  0
    0.8350   23.2390  -35.7910 C   0  0  0  0  0  0  0  0  0  0  0  0
   -4.2220   19.6750  -33.3920 C   0  0  0  0  0  0  0  0  0  0  0  0
   -6.0183   25.3265  -28.7311 H   0  0  0  0  0  0  0  0  0  0  0  0
   -7.1297   26.2481  -29.7997 H   0  0  0  0  0  0  0  0  0  0  0  0
   -7.1674   24.4522  -29.7997 H   0  0  0  0  0  0  0  0  0  0  0  0
   -5.9761   25.2559  -31.7954 H   0  0  0  0  0  0  0  0  0  0  0  0
   -4.8695   26.2342  -30.7620 H   0  0  0  0  0  0  0  0  0  0  0  0
   -3.4024   24.5201  -28.9478 H   0  0  0  0  0  0  0  0  0  0  0  0
   -2.5091   23.8611  -30.3599 H   0  0  0  0  0  0  0  0  0  0  0  0
   -3.0516   25.5734  -30.3599 H   0  0  0  0  0  0  0  0  0  0  0  0
   -5.5902   23.4656  -28.9253 H   0  0  0  0  0  0  0  0  0  0  0  0
   -6.0653   22.6475  -30.4519 H   0  0  0  0  0  0  0  0  0  0  0  0
   -3.4866   22.3133  -28.8459 H   0  0  0  0  0  0  0  0  0  0  0  0
   -4.7463   21.0684  -29.2591 H   0  0  0  0  0  0  0  0  0  0  0  0
   -2.4929   22.1581  -30.9162 H   0  0  0  0  0  0  0  0  0  0  0  0
   -3.1788   20.4863  -30.8013 H   0  0  0  0  0  0  0  0  0  0  0  0
   -4.3920   22.7590  -32.4120 H   0  0  0  0  0  0  0  0  0  0  0  0
   -6.4842   22.6171  -31.6530 H   0  0  0  0  0  0  0  0  0  0  0  0
   -8.9580   22.5042  -31.4286 H   0  0  0  0  0  0  0  0  0  0  0  0
  -10.1923   20.4877  -32.2057 H   0  0  0  0  0  0  0  0  0  0  0  0
   -8.9528   18.5394  -33.1216 H   0  0  0  0  0  0  0  0  0  0  0  0
   -7.0802   16.6663  -32.2544 H   0  0  0  0  0  0  0  0  0  0  0  0
   -7.8824   17.0704  -33.8100 H   0  0  0  0  0  0  0  0  0  0  0  0
   -6.2688   16.2812  -33.8100 H   0  0  0  0  0  0  0  0  0  0  0  0
   -4.8063   16.4802  -34.5379 H   0  0  0  0  0  0  0  0  0  0  0  0
   -2.3843   16.6176  -35.0145 H   0  0  0  0  0  0  0  0  0  0  0  0
   -1.1381   18.7070  -34.5889 H   0  0  0  0  0  0  0  0  0  0  0  0
   -1.6900   21.2260  -34.7220 H   0  0  0  0  0  0  0  0  0  0  0  0
   -2.8720   21.8470  -33.6360 H   0  0  0  0  0  0  0  0  0  0  0  0
   -0.9310   22.2853  -32.5808 H   0  0  0  0  0  0  0  0  0  0  0  0
   -1.4576   20.7164  -31.8584 H   0  0  0  0  0  0  0  0  0  0  0  0
    0.7810   20.2698  -32.3668 H   0  0  0  0  0  0  0  0  0  0  0  0
   -0.0782   19.6753  -33.8530 H   0  0  0  0  0  0  0  0  0  0  0  0
    1.3458   22.3569  -33.5252 H   0  0  0  0  0  0  0  0  0  0  0  0
    1.9009   20.9293  -34.4942 H   0  0  0  0  0  0  0  0  0  0  0  0
    0.2700   19.9675  -35.9572 H   0  0  0  0  0  0  0  0  0  0  0  0
   -0.6315   21.1122  -37.0076 H   0  0  0  0  0  0  0  0  0  0  0  0
    1.1647   21.1176  -37.0076 H   0  0  0  0  0  0  0  0  0  0  0  0
    1.1203   23.8700  -34.9363 H   0  0  0  0  0  0  0  0  0  0  0  0
    1.7243   23.0258  -36.4023 H   0  0  0  0  0  0  0  0  0  0  0  0
    0.0875   23.7658  -36.4023 H   0  0  0  0  0  0  0  0  0  0  0  0
  1  2  1  0
  2  3  1  0
  3  4  1  0
  3  5  1  0
  5  6  1  0
  6  7  1  0
  7  8  1  0
  8  9  1  0
  9 10  2  0
 10 11  1  0
 11 12  2  0
 12 13  1  0
 13 14  2  0
 14 15  1  0
 15 16  2  0
 16 17  1  0
 16 18  1  0
 18 19  2  0
 19 20  1  0
 20 21  2  0
 21 22  1  0
 22 23  1  0
 23 24  1  0
 24 25  1  0
 25 26  1  0
 26 27  1  0
 27 28  1  0
 27 29  1  0
 22 30  2  0
 30  9  1  0
 15 10  1  0
 30 18  1  0
  1 31  1  0
  1 32  1  0
  1 33  1  0
  2 34  1  0
  2 35  1  0
  4 36  1  0
  4 37  1  0
  4 38  1  0
  5 39  1  0
  5 40  1  0
  6 41  1  0
  6 42  1  0
  7 43  1  0
  7 44  1  0
  8 45  1  0
 11 46  1  0
 12 47  1  0
 13 48  1  0
 14 49  1  0
 17 50  1  0
 17 51  1  0
 17 52  1  0
 19 53  1  0
 20 54  1  0
 21 55  1  0
 23 56  1  0
 23 57  1  0
 24 58  1  0
 24 59  1  0
 25 60  1  0
 25 61  1  0
 26 62  1  0
 26 63  1  0
 28 64  1  0
 28 65  1  0
 28 66  1  0
 29 67  1  0
 29 68  1  0
 29 69  1  0
M  CHG  2  16   1  23   1
M  END
>  <UniqueID>  (12) 
12

>  <SMILES>  (12) 
CCN(C)CCCNc1c2ccccc2[n+](C)c2cccc([NH2+]CCCN(C)C)c12

>  <Energy>  (12) 
104.28665323452297

>  <Genealogy>  (12) 
CCN(C)CCCNc1c2ccccc2[n+](C)c2cccc([NH2+]CCCN(C)C)c12 (protonated)
CCN(C)CCCNc1c2ccccc2[n+](C)c2cccc([NH2+]CCCN(C)C)c12 (3D coordinates assigned)
CCN(C)CCCNc1c2ccccc2[n+](C)c2cccc([NH2+]CCCN(C)C)c12 (optimized conformer: 104.28665323452297 kcal/mol)

>  <smiles>  (12) 
CCN(C)CCCNc1c2ccccc2[n+](C)c2cccc(NCCCN(C)C)c12

>  <score_type>  (12) 
oracle

>  <origin>  (12) 
adg

>  <m_score__min__energy>  (12) 
-8.3399999999999999

>  <m_primary>  (12) 
energy

$$$$
13:0
     RDKit          3D

 67 69  0  0  0  0  0  0  0  0999 V2000
   -3.7770   18.5940  -26.3350 C   0  0  0  0  0  0  0  0  0  0  0  0
   -2.3860   19.2210  -26.3310 C   0  0  0  0  0  0  0  0  0  0  0  0
   -1.9660   19.5660  -27.7090 N   0  0  0  0  0  0  0  0  0  0  0  0
   -0.5170   19.3510  -27.8780 C   0  0  0  0  0  0  0  0  0  0  0  0
   -2.3100   20.9670  -28.0400 C   0  0  0  0  0  0  0  0  0  0  0  0
   -3.4580   21.0130  -29.0550 C   0  0  0  0  0  0  0  0  0  0  0  0
   -3.7610   22.3560  -29.3800 O   0  0  0  0  0  0  0  0  0  0  0  0
   -3.0020   23.2450  -28.5840 C   0  0  0  0  0  0  0  0  0  0  0  0
   -2.8260   24.5630  -29.3290 C   0  0  0  0  0  0  0  0  0  0  0  0
   -3.6470   24.5750  -30.4720 O   0  0  0  0  0  0  0  0  0  0  0  0
   -4.9100   24.8200  -30.0300 N   0  0  0  0  0  0  0  0  0  0  0  0
   -5.7980   24.9530  -31.1900 C   0  0  0  0  0  0  0  0  0  0  0  0
   -5.7190   23.7300  -32.1220 C   0  0  0  0  0  0  0  0  0  0  0  0
   -4.9400   22.6450  -31.4970 N   0  0  0  0  0  0  0  0  0  0  0  0
   -5.3580   21.3460  -32.0020 C   0  0  0  0  0  0  0  0  0  0  0  0
   -6.7340   20.9850  -31.9600 C   0  0  0  0  0  0  0  0  0  0  0  0
   -7.6970   21.7850  -31.2900 C   0  0  0  0  0  0  0  0  0  0  0  0
   -9.0530   21.4640  -31.3170 C   0  0  0  0  0  0  0  0  0  0  0  0
   -9.4890   20.3510  -32.0180 C   0  0  0  0  0  0  0  0  0  0  0  0
   -8.5660   19.5270  -32.6560 C   0  0  0  0  0  0  0  0  0  0  0  0
   -7.1710   19.7950  -32.6010 C   0  0  0  0  0  0  0  0  0  0  0  0
   -6.2590   18.9350  -33.1700 N   0  0  0  0  0  0  0  0  0  0  0  0
   -6.6830   17.5710  -33.5650 C   0  0  0  0  0  0  0  0  0  0  0  0
   -4.9410   19.3140  -33.3200 C   0  0  0  0  0  0  0  0  0  0  0  0
   -4.0730   18.5770  -34.1620 C   0  0  0  0  0  0  0  0  0  0  0  0
   -2.7200   18.8610  -34.2280 C   0  0  0  0  0  0  0  0  0  0  0  0
   -2.1850   19.8710  -33.4500 C   0  0  0  0  0  0  0  0  0  0  0  0
   -3.0080   20.6680  -32.6370 C   0  0  0  0  0  0  0  0  0  0  0  0
   -2.4190   21.6290  -31.7970 O   0  0  0  0  0  0  0  0  0  0  0  0
   -1.0800   21.6000  -31.3140 C   0  0  0  0  0  0  0  0  0  0  0  0
   -4.4290   20.4620  -32.6420 C   0  0  0  0  0  0  0  0  0  0  0  0
   -4.1138   18.4422  -25.2989 H   0  0  0  0  0  0  0  0  0  0  0  0
   -4.4791   19.2627  -26.8545 H   0  0  0  0  0  0  0  0  0  0  0  0
   -3.7410   17.6251  -26.8545 H   0  0  0  0  0  0  0  0  0  0  0  0
   -2.4030   20.1347  -25.7188 H   0  0  0  0  0  0  0  0  0  0  0  0
   -1.6715   18.4965  -25.9132 H   0  0  0  0  0  0  0  0  0  0  0  0
   -0.0391   19.2801  -26.8898 H   0  0  0  0  0  0  0  0  0  0  0  0
   -0.3473   18.4178  -28.4352 H   0  0  0  0  0  0  0  0  0  0  0  0
   -0.0837   20.1947  -28.4352 H   0  0  0  0  0  0  0  0  0  0  0  0
   -2.6168   21.4908  -27.1226 H   0  0  0  0  0  0  0  0  0  0  0  0
   -1.4276   21.4556  -28.4788 H   0  0  0  0  0  0  0  0  0  0  0  0
   -3.1598   20.4755  -29.9673 H   0  0  0  0  0  0  0  0  0  0  0  0
   -4.3477   20.5373  -28.6166 H   0  0  0  0  0  0  0  0  0  0  0  0
   -3.5264   23.4269  -27.6343 H   0  0  0  0  0  0  0  0  0  0  0  0
   -2.0157   22.8040  -28.3772 H   0  0  0  0  0  0  0  0  0  0  0  0
   -3.1066   25.3967  -28.6685 H   0  0  0  0  0  0  0  0  0  0  0  0
   -1.7748   24.6713  -29.6343 H   0  0  0  0  0  0  0  0  0  0  0  0
   -5.2090   23.9920  -29.4670 H   0  0  0  0  0  0  0  0  0  0  0  0
   -6.8331   25.0615  -30.8339 H   0  0  0  0  0  0  0  0  0  0  0  0
   -5.4785   25.8365  -31.7621 H   0  0  0  0  0  0  0  0  0  0  0  0
   -6.7370   23.3692  -32.3306 H   0  0  0  0  0  0  0  0  0  0  0  0
   -5.2203   24.0296  -33.0555 H   0  0  0  0  0  0  0  0  0  0  0  0
   -3.9220   22.8030  -31.6670 H   0  0  0  0  0  0  0  0  0  0  0  0
   -4.9840   22.6760  -30.4570 H   0  0  0  0  0  0  0  0  0  0  0  0
   -7.3658   22.6770  -30.7380 H   0  0  0  0  0  0  0  0  0  0  0  0
   -9.7778   22.0947  -30.7814 H   0  0  0  0  0  0  0  0  0  0  0  0
  -10.5630   20.1189  -32.0703 H   0  0  0  0  0  0  0  0  0  0  0  0
   -8.9238   18.6496  -33.2147 H   0  0  0  0  0  0  0  0  0  0  0  0
   -6.8700   16.9696  -32.6632 H   0  0  0  0  0  0  0  0  0  0  0  0
   -7.6045   17.6321  -34.1625 H   0  0  0  0  0  0  0  0  0  0  0  0
   -5.8892   17.0989  -34.1625 H   0  0  0  0  0  0  0  0  0  0  0  0
   -4.4827   17.7618  -34.7764 H   0  0  0  0  0  0  0  0  0  0  0  0
   -2.0695   18.2824  -34.9003 H   0  0  0  0  0  0  0  0  0  0  0  0
   -1.1003   20.0529  -33.4679 H   0  0  0  0  0  0  0  0  0  0  0  0
   -1.0869   21.6002  -30.2140 H   0  0  0  0  0  0  0  0  0  0  0  0
   -0.5787   20.6908  -31.6774 H   0  0  0  0  0  0  0  0  0  0  0  0
   -0.5398   22.4867  -31.6774 H   0  0  0  0  0  0  0  0  0  0  0  0
  1  2  1  0
  2  3  1  0
  3  4  1  0
  3  5  1  0
  5  6  1  0
  6  7  1  0
  7  8  1  0
  8  9  1  0
  9 10  1  0
 10 11  1  0
 11 12  1  0
 12 13  1  0
 13 14  1  0
 14 15  1  0
 15 16  2  0
 16 17  1  0
 17 18  2  0
 18 19  1  0
 19 20  2  0
 20 21  1  0
 21 22  2  0
 22 23  1  0
 22 24  1  0
 24 25  2  0
 25 26  1  0
 26 27  2  0
 27 28  1  0
 28 29  1  0
 29 30  1  0
 28 31  2  0
 31 15  1  0
 21 16  1  0
 31 24  1  0
  1 32  1  0
  1 33  1  0
  1 34  1  0
  2 35  1  0
  2 36  1  0
  4 37  1  0
  4 38  1  0
  4 39  1  0
  5 40  1  0
  5 41  1  0
  6 42  1  0
  6 43  1  0
  8 44  1  0
  8 45  1  0
  9 46  1  0
  9 47  1  0
 11 48  1  0
 12 49  1  0
 12 50  1  0
 13 51  1  0
 13 52  1  0
 14 53  1  0
 14 54  1  0
 17 55  1  0
 18 56  1  0
 19 57  1  0
 20 58  1  0
 23 59  1  0
 23 60  1  0
 23 61  1  0
 25 62  1  0
 26 63  1  0
 27 64  1  0
 30 65  1  0
 30 66  1  0
 30 67  1  0
M  CHG  2  14   1  22   1
M  END
>  <UniqueID>  (13) 
13

>  <SMILES>  (13) 
CCN(C)CCOCCONCC[NH2+]c1c2ccccc2[n+](C)c2cccc(OC)c12

>  <Energy>  (13) 
95.0145411180049

>  <Genealogy>  (13) 
CCN(C)CCOCCONCC[NH2+]c1c2ccccc2[n+](C)c2cccc(OC)c12 (protonated)
CCN(C)CCOCCONCC[NH2+]c1c2ccccc2[n+](C)c2cccc(OC)c12 (3D coordinates assigned)
CCN(C)CCOCCONCC[NH2+]c1c2ccccc2[n+](C)c2cccc(OC)c12 (optimized conformer: 95.0145411180049 kcal/mol)

>  <smiles>  (13) 
CCN(C)CCOCCONCCNc1c2ccccc2[n+](C)c2cccc(OC)c12

>  <score_type>  (13) 
oracle

>  <origin>  (13) 
adg

>  <m_score__min__energy>  (13) 
-8.7699999999999996

>  <m_primary>  (13) 
energy

$$$$
14:0
     RDKit          3D

 55 55  0  0  0  0  0  0  0  0999 V2000
   -9.4720   21.5910  -30.8300 C   0  0  0  0  0  0  0  0  0  0  0  0
   -8.5140   21.9230  -31.9680 C   0  0  0  0  0  0  0  0  0  0  0  0
   -8.1290   20.6860  -32.6680 N   0  0  0  0  0  0  0  0  0  0  0  0
   -9.1370   19.6230  -32.5560 C   0  0  0  0  0  0  0  0  0  0  0  0
   -8.5220   18.3820  -31.9150 C   0  0  0  0  0  0  0  0  0  0  0  0
   -7.1550   18.6140  -31.6340 O   0  0  0  0  0  0  0  0  0  0  0  0
   -6.3630   17.5610  -32.1490 C   0  0  0  0  0  0  0  0  0  0  0  0
   -5.5020   18.0610  -33.3130 C   0  0  0  0  0  0  0  0  0  0  0  0
   -5.5470   19.5260  -33.4010 N   0  0  0  0  0  0  0  0  0  0  0  0
   -4.2060   20.1270  -33.4680 C   0  0  0  0  0  0  0  0  0  0  0  0
   -3.6210   20.4980  -32.0830 C   0  0  0  0  0  0  0  0  0  0  0  0
   -4.0010   21.9010  -31.6390 C   0  0  0  0  0  0  0  0  0  0  0  0
   -5.2480   22.3860  -32.0550 C   0  0  0  0  0  0  0  0  0  0  0  0
   -5.6990   23.6400  -31.6590 C   0  0  0  0  0  0  0  0  0  0  0  0
   -4.9230   24.4490  -30.8310 C   0  0  0  0  0  0  0  0  0  0  0  0
   -5.5010   25.6560  -30.4010 O   0  0  0  0  0  0  0  0  0  0  0  0
   -6.4710   25.7870  -29.3610 C   0  0  0  0  0  0  0  0  0  0  0  0
   -3.6280   24.0190  -30.4550 C   0  0  0  0  0  0  0  0  0  0  0  0
   -2.8010   24.8680  -29.7130 O   0  0  0  0  0  0  0  0  0  0  0  0
   -2.5490   24.6450  -28.3280 C   0  0  0  0  0  0  0  0  0  0  0  0
   -3.1600   22.7340  -30.8420 C   0  0  0  0  0  0  0  0  0  0  0  0
   -1.8140   22.2520  -30.3350 C   0  0  0  0  0  0  0  0  0  0  0  0
   -1.9900   21.2770  -29.1730 C   0  0  0  0  0  0  0  0  0  0  0  0
   -8.9708   21.7647  -29.8663 H   0  0  0  0  0  0  0  0  0  0  0  0
  -10.3624   22.2330  -30.9012 H   0  0  0  0  0  0  0  0  0  0  0  0
   -9.7742   20.5357  -30.9012 H   0  0  0  0  0  0  0  0  0  0  0  0
   -9.0086   22.6049  -32.6754 H   0  0  0  0  0  0  0  0  0  0  0  0
   -7.6143   22.4055  -31.5584 H   0  0  0  0  0  0  0  0  0  0  0  0
   -7.2290   20.3360  -32.2680 H   0  0  0  0  0  0  0  0  0  0  0  0
   -9.9721   19.9777  -31.9341 H   0  0  0  0  0  0  0  0  0  0  0  0
   -9.5017   19.3655  -33.5613 H   0  0  0  0  0  0  0  0  0  0  0  0
   -9.0532   18.1532  -30.9794 H   0  0  0  0  0  0  0  0  0  0  0  0
   -8.6107   17.5334  -32.6093 H   0  0  0  0  0  0  0  0  0  0  0  0
   -5.7084   17.1769  -31.3528 H   0  0  0  0  0  0  0  0  0  0  0  0
   -7.0250   16.7613  -32.5125 H   0  0  0  0  0  0  0  0  0  0  0  0
   -4.4615   17.7406  -33.1559 H   0  0  0  0  0  0  0  0  0  0  0  0
   -5.8945   17.6386  -34.2497 H   0  0  0  0  0  0  0  0  0  0  0  0
   -6.1000   19.9340  -32.6150 H   0  0  0  0  0  0  0  0  0  0  0  0
   -3.5271   19.4087  -33.9508 H   0  0  0  0  0  0  0  0  0  0  0  0
   -4.3009   21.0628  -34.0384 H   0  0  0  0  0  0  0  0  0  0  0  0
   -3.9970   19.7802  -31.3391 H   0  0  0  0  0  0  0  0  0  0  0  0
   -2.5247   20.4630  -32.1667 H   0  0  0  0  0  0  0  0  0  0  0  0
   -5.8806   21.7643  -32.7056 H   0  0  0  0  0  0  0  0  0  0  0  0
   -6.6804   23.9981  -32.0034 H   0  0  0  0  0  0  0  0  0  0  0  0
   -5.9716   25.7196  -28.3832 H   0  0  0  0  0  0  0  0  0  0  0  0
   -6.9740   26.7612  -29.4494 H   0  0  0  0  0  0  0  0  0  0  0  0
   -7.2145   24.9811  -29.4494 H   0  0  0  0  0  0  0  0  0  0  0  0
   -3.2389   25.2555  -27.7269 H   0  0  0  0  0  0  0  0  0  0  0  0
   -2.7020   23.5811  -28.0941 H   0  0  0  0  0  0  0  0  0  0  0  0
   -1.5116   24.9263  -28.0941 H   0  0  0  0  0  0  0  0  0  0  0  0
   -1.2807   21.7457  -31.1531 H   0  0  0  0  0  0  0  0  0  0  0  0
   -1.2383   23.1205  -29.9825 H   0  0  0  0  0  0  0  0  0  0  0  0
   -1.8921   21.8195  -28.2211 H   0  0  0  0  0  0  0  0  0  0  0  0
   -2.9862   20.8141  -29.2304 H   0  0  0  0  0  0  0  0  0  0  0  0
   -1.2185   20.4950  -29.2304 H   0  0  0  0  0  0  0  0  0  0  0  0
  1  2  1  0
  2  3  1  0
  3  4  1  0
  4  5  1  0
  5  6  1  0
  6  7  1  0
  7  8  1  0
  8  9  1  0
  9 10  1  0
 10 11  1  0
 11 12  1  0
 12 13  2  0
 13 14  1  0
 14 15  2  0
 15 16  1  0
 16 17  1  0
 15 18  1  0
 18 19  1  0
 19 20  1  0
 18 21  2  0
 21 22  1  0
 22 23  1  0
 21 12  1  0
  1 24  1  0
  1 25  1  0
  1 26  1  0
  2 27  1  0
  2 28  1  0
  3 29  1  0
  4 30  1  0
  4 31  1  0
  5 32  1  0
  5 33  1  0
  7 34  1  0
  7 35  1  0
  8 36  1  0
  8 37  1  0
  9 38  1  0
 10 39  1  0
 10 40  1  0
 11 41  1  0
 11 42  1  0
 13 43  1  0
 14 44  1  0
 17 45  1  0
 17 46  1  0
 17 47  1  0
 20 48  1  0
 20 49  1  0
 20 50  1  0
 22 51  1  0
 22 52  1  0
 23 53  1  0
 23 54  1  0
 23 55  1  0
M  END
>  <UniqueID>  (14) 
14

>  <SMILES>  (14) 
CCNCCOCCNCCc1ccc(OC)c(OC)c1CC

>  <Energy>  (14) 
57.25458614084654

>  <Genealogy>  (14) 
CCNCCOCCNCCc1ccc(OC)c(OC)c1CC (3D coordinates assigned)
CCNCCOCCNCCc1ccc(OC)c(OC)c1CC (optimized conformer: 57.25458614084654 kcal/mol)

>  <smiles>  (14) 
CCNCCOCCNCCc1ccc(OC)c(OC)c1CC

>  <score_type>  (14) 
oracle

>  <origin>  (14) 
adg

>  <m_score__min__energy>  (14) 
-7.3899999999999997

>  <m_primary>  (14) 
energy

$$$$
15:0
     RDKit          3D

 54 56  0  0  0  0  0  0  0  0999 V2000
   -2.7360   25.2530  -26.3420 C   0  0  0  0  0  0  0  0  0  0  0  0
   -4.2210   24.9060  -26.4740 C   0  0  0  0  0  0  0  0  0  0  0  0
   -4.6120   24.6150  -27.8640 N   0  0  0  0  0  0  0  0  0  0  0  0
   -3.6990   23.6600  -28.5150 C   0  0  0  0  0  0  0  0  0  0  0  0
   -3.4800   24.0320  -29.9870 C   0  0  0  0  0  0  0  0  0  0  0  0
   -4.1570   25.2370  -30.2920 O   0  0  0  0  0  0  0  0  0  0  0  0
   -5.2160   24.9970  -31.1940 C   0  0  0  0  0  0  0  0  0  0  0  0
   -6.3180   24.2160  -30.4740 C   0  0  0  0  0  0  0  0  0  0  0  0
   -7.2350   23.4540  -31.4410 C   0  0  0  0  0  0  0  0  0  0  0  0
   -6.4830   22.8670  -32.5550 N   0  0  0  0  0  0  0  0  0  0  0  0
   -6.1720   21.4650  -32.6210 C   0  0  0  0  0  0  0  0  0  0  0  0
   -7.1840   20.5010  -32.4820 C   0  0  0  0  0  0  0  0  0  0  0  0
   -8.4920   20.8730  -32.1080 C   0  0  0  0  0  0  0  0  0  0  0  0
   -9.4850   19.9110  -31.9420 C   0  0  0  0  0  0  0  0  0  0  0  0
   -9.1880   18.5650  -32.1220 C   0  0  0  0  0  0  0  0  0  0  0  0
   -7.8990   18.1730  -32.4780 C   0  0  0  0  0  0  0  0  0  0  0  0
   -6.8740   19.1290  -32.6880 C   0  0  0  0  0  0  0  0  0  0  0  0
   -5.5950   18.7560  -33.0580 N   0  0  0  0  0  0  0  0  0  0  0  0
   -5.3380   17.3860  -33.5580 C   0  0  0  0  0  0  0  0  0  0  0  0
   -4.5600   19.6690  -32.9790 C   0  0  0  0  0  0  0  0  0  0  0  0
   -3.2030   19.2690  -33.0730 C   0  0  0  0  0  0  0  0  0  0  0  0
   -2.1720   20.2100  -33.0680 C   0  0  0  0  0  0  0  0  0  0  0  0
   -0.3570   19.6390  -33.2280 Br  0  0  0  0  0  0  0  0  0  0  0  0
   -2.4650   21.5640  -32.9470 C   0  0  0  0  0  0  0  0  0  0  0  0
   -3.7840   21.9830  -32.8000 C   0  0  0  0  0  0  0  0  0  0  0  0
   -4.8400   21.0480  -32.7930 C   0  0  0  0  0  0  0  0  0  0  0  0
   -2.4674   25.3158  -25.2772 H   0  0  0  0  0  0  0  0  0  0  0  0
   -2.1324   24.4717  -26.8270 H   0  0  0  0  0  0  0  0  0  0  0  0
   -2.5411   26.2209  -26.8270 H   0  0  0  0  0  0  0  0  0  0  0  0
   -4.4326   24.0212  -25.8556 H   0  0  0  0  0  0  0  0  0  0  0  0
   -4.7990   25.7806  -26.1409 H   0  0  0  0  0  0  0  0  0  0  0  0
   -4.6490   25.5050  -28.4180 H   0  0  0  0  0  0  0  0  0  0  0  0
   -5.5750   24.2050  -27.8440 H   0  0  0  0  0  0  0  0  0  0  0  0
   -2.7313   23.6726  -27.9921 H   0  0  0  0  0  0  0  0  0  0  0  0
   -4.1468   22.6564  -28.4680 H   0  0  0  0  0  0  0  0  0  0  0  0
   -2.4037   24.1628  -30.1726 H   0  0  0  0  0  0  0  0  0  0  0  0
   -3.8754   23.2268  -30.6236 H   0  0  0  0  0  0  0  0  0  0  0  0
   -5.6183   25.9556  -31.5536 H   0  0  0  0  0  0  0  0  0  0  0  0
   -4.8482   24.4147  -32.0517 H   0  0  0  0  0  0  0  0  0  0  0  0
   -5.8478   23.4926  -29.7917 H   0  0  0  0  0  0  0  0  0  0  0  0
   -6.9396   24.9435  -29.9315 H   0  0  0  0  0  0  0  0  0  0  0  0
   -7.7427   22.6484  -30.8903 H   0  0  0  0  0  0  0  0  0  0  0  0
   -7.9620   24.1671  -31.8569 H   0  0  0  0  0  0  0  0  0  0  0  0
   -6.2020   23.4810  -33.3520 H   0  0  0  0  0  0  0  0  0  0  0  0
   -8.7303   21.9345  -31.9457 H   0  0  0  0  0  0  0  0  0  0  0  0
  -10.5056   20.2165  -31.6681 H   0  0  0  0  0  0  0  0  0  0  0  0
   -9.9729   17.8070  -31.9830 H   0  0  0  0  0  0  0  0  0  0  0  0
   -7.6732   17.1032  -32.5981 H   0  0  0  0  0  0  0  0  0  0  0  0
   -5.2098   16.7026  -32.7056 H   0  0  0  0  0  0  0  0  0  0  0  0
   -6.1894   17.0533  -34.1699 H   0  0  0  0  0  0  0  0  0  0  0  0
   -4.4239   17.3845  -34.1699 H   0  0  0  0  0  0  0  0  0  0  0  0
   -2.9586   18.1993  -33.1512 H   0  0  0  0  0  0  0  0  0  0  0  0
   -1.6526   22.3054  -32.9675 H   0  0  0  0  0  0  0  0  0  0  0  0
   -4.0053   23.0547  -32.6881 H   0  0  0  0  0  0  0  0  0  0  0  0
  1  2  1  0
  2  3  1  0
  3  4  1  0
  4  5  1  0
  5  6  1  0
  6  7  1  0
  7  8  1  0
  8  9  1  0
  9 10  1  0
 10 11  1  0
 11 12  2  0
 12 13  1  0
 13 14  2  0
 14 15  1  0
 15 16  2  0
 16 17  1  0
 17 18  2  0
 18 19  1  0
 18 20  1  0
 20 21  2  0
 21 22  1  0
 22 23  1  0
 22 24  2  0
 24 25  1  0
 25 26  2  0
 26 11  1  0
 17 12  1  0
 26 20  1  0
  1 27  1  0
  1 28  1  0
  1 29  1  0
  2 30  1  0
  2 31  1  0
  3 32  1  0
  3 33  1  0
  4 34  1  0
  4 35  1  0
  5 36  1  0
  5 37  1  0
  7 38  1  0
  7 39  1  0
  8 40  1  0
  8 41  1  0
  9 42  1  0
  9 43  1  0
 10 44  1  0
 13 45  1  0
 14 46  1  0
 15 47  1  0
 16 48  1  0
 19 49  1  0
 19 50  1  0
 19 51  1  0
 21 52  1  0
 24 53  1  0
 25 54  1  0
M  CHG  2   3   1  18   1
M  END
>  <UniqueID>  (15) 
15

>  <SMILES>  (15) 
CC[NH2+]CCOCCCNc1c2ccccc2[n+](C)c2cc(Br)ccc12

>  <Energy>  (15) 
72.30984435382413

>  <Genealogy>  (15) 
CC[NH2+]CCOCCCNc1c2ccccc2[n+](C)c2cc(Br)ccc12 (protonated)
CC[NH2+]CCOCCCNc1c2ccccc2[n+](C)c2cc(Br)ccc12 (3D coordinates assigned)
CC[NH2+]CCOCCCNc1c2ccccc2[n+](C)c2cc(Br)ccc12 (optimized conformer: 72.30984435382413 kcal/mol)

>  <smiles>  (15) 
CCNCCOCCCNc1c2ccccc2[n+](C)c2cc(Br)ccc12

>  <score_type>  (15) 
oracle

>  <origin>  (15) 
adg

>  <m_score__min__energy>  (15) 
-9.0899999999999999

>  <m_primary>  (15) 
energy

$$$$
16:0
     RDKit          3D

 58 60  0  0  0  0  0  0  0  0999 V2000
   -1.6440   24.6700  -28.2130 C   0  0  0  0  0  0  0  0  0  0  0  0
   -2.2010   23.8030  -29.3410 C   0  0  0  0  0  0  0  0  0  0  0  0
   -1.2360   22.6990  -29.8570 C   0  0  0  0  0  0  0  0  0  0  0  0
   -1.7250   21.2870  -29.8130 N   0  0  0  0  0  0  0  0  0  0  0  0
   -2.9130   21.1170  -28.9360 C   0  0  0  0  0  0  0  0  0  0  0  0
   -2.7030   20.0570  -27.8300 C   0  0  0  0  0  0  0  0  0  0  0  0
   -1.6280   20.4670  -26.8230 C   0  0  0  0  0  0  0  0  0  0  0  0
   -1.9440   20.7280  -31.1760 C   0  0  0  0  0  0  0  0  0  0  0  0
   -2.0140   21.8280  -32.2500 C   0  0  0  0  0  0  0  0  0  0  0  0
   -3.1220   21.5880  -33.1780 N   0  0  0  0  0  0  0  0  0  0  0  0
   -4.4350   21.2230  -32.7160 C   0  0  0  0  0  0  0  0  0  0  0  0
   -5.0140   20.0040  -33.1050 C   0  0  0  0  0  0  0  0  0  0  0  0
   -4.2780   19.0600  -33.8530 C   0  0  0  0  0  0  0  0  0  0  0  0
   -4.8770   17.8870  -34.3060 C   0  0  0  0  0  0  0  0  0  0  0  0
   -6.2140   17.6370  -34.0260 C   0  0  0  0  0  0  0  0  0  0  0  0
   -6.9500   18.5340  -33.2530 C   0  0  0  0  0  0  0  0  0  0  0  0
   -6.3540   19.7120  -32.7320 C   0  0  0  0  0  0  0  0  0  0  0  0
   -7.0440   20.5690  -31.8950 N   0  0  0  0  0  0  0  0  0  0  0  0
   -8.3240   20.1370  -31.2880 C   0  0  0  0  0  0  0  0  0  0  0  0
   -6.5220   21.8130  -31.5910 C   0  0  0  0  0  0  0  0  0  0  0  0
   -7.2930   22.8090  -30.9400 C   0  0  0  0  0  0  0  0  0  0  0  0
   -6.7380   24.0400  -30.5920 C   0  0  0  0  0  0  0  0  0  0  0  0
   -5.4070   24.3240  -30.8900 C   0  0  0  0  0  0  0  0  0  0  0  0
   -4.8390   25.5830  -30.5200 N   0  0  0  0  0  0  0  0  0  0  0  0
   -4.6370   23.3770  -31.5710 C   0  0  0  0  0  0  0  0  0  0  0  0
   -5.1870   22.1340  -31.9530 C   0  0  0  0  0  0  0  0  0  0  0  0
   -1.9242   24.2339  -27.2428 H   0  0  0  0  0  0  0  0  0  0  0  0
   -0.5478   24.7147  -28.2920 H   0  0  0  0  0  0  0  0  0  0  0  0
   -2.0590   25.6856  -28.2920 H   0  0  0  0  0  0  0  0  0  0  0  0
   -3.1157   23.3134  -28.9755 H   0  0  0  0  0  0  0  0  0  0  0  0
   -2.3779   24.4791  -30.1905 H   0  0  0  0  0  0  0  0  0  0  0  0
   -0.9957   22.9332  -30.9046 H   0  0  0  0  0  0  0  0  0  0  0  0
   -0.3815   22.7241  -29.1647 H   0  0  0  0  0  0  0  0  0  0  0  0
   -0.9480   20.7430  -29.3700 H   0  0  0  0  0  0  0  0  0  0  0  0
   -3.1365   22.0822  -28.4581 H   0  0  0  0  0  0  0  0  0  0  0  0
   -3.7422   20.7700  -29.5701 H   0  0  0  0  0  0  0  0  0  0  0  0
   -3.6526   19.9138  -27.2936 H   0  0  0  0  0  0  0  0  0  0  0  0
   -2.3692   19.1283  -28.3160 H   0  0  0  0  0  0  0  0  0  0  0  0
   -2.0084   20.3219  -25.8011 H   0  0  0  0  0  0  0  0  0  0  0  0
   -0.7310   19.8478  -26.9717 H   0  0  0  0  0  0  0  0  0  0  0  0
   -1.3712   21.5262  -26.9717 H   0  0  0  0  0  0  0  0  0  0  0  0
   -1.1135   20.0486  -31.4181 H   0  0  0  0  0  0  0  0  0  0  0  0
   -2.9072   20.1967  -31.1728 H   0  0  0  0  0  0  0  0  0  0  0  0
   -2.1610   22.8012  -31.7587 H   0  0  0  0  0  0  0  0  0  0  0  0
   -1.0730   21.8212  -32.8196 H   0  0  0  0  0  0  0  0  0  0  0  0
   -2.9330   21.5870  -34.2060 H   0  0  0  0  0  0  0  0  0  0  0  0
   -3.2193   19.2529  -34.0808 H   0  0  0  0  0  0  0  0  0  0  0  0
   -4.2910   17.1586  -34.8856 H   0  0  0  0  0  0  0  0  0  0  0  0
   -6.6944   16.7274  -34.4157 H   0  0  0  0  0  0  0  0  0  0  0  0
   -8.0095   18.3254  -33.0436 H   0  0  0  0  0  0  0  0  0  0  0  0
   -8.2382   20.1660  -30.1917 H   0  0  0  0  0  0  0  0  0  0  0  0
   -9.1295   20.8131  -31.6107 H   0  0  0  0  0  0  0  0  0  0  0  0
   -8.5551   19.1111  -31.6107 H   0  0  0  0  0  0  0  0  0  0  0  0
   -8.3485   22.6069  -30.7051 H   0  0  0  0  0  0  0  0  0  0  0  0
   -7.3553   24.7920  -30.0787 H   0  0  0  0  0  0  0  0  0  0  0  0
   -4.6400   25.8080  -29.5190 H   0  0  0  0  0  0  0  0  0  0  0  0
   -4.6170   26.3030  -31.2440 H   0  0  0  0  0  0  0  0  0  0  0  0
   -3.5880   23.6032  -31.8127 H   0  0  0  0  0  0  0  0  0  0  0  0
  1  2  1  0
  2  3  1  0
  3  4  1  0
  4  5  1  0
  5  6  1  0
  6  7  1  0
  4  8  1  0
  8  9  1  0
  9 10  1  0
 10 11  1  0
 11 12  2  0
 12 13  1  0
 13 14  2  0
 14 15  1  0
 15 16  2  0
 16 17  1  0
 17 18  2  0
 18 19  1  0
 18 20  1  0
 20 21  2  0
 21 22  1  0
 22 23  2  0
 23 24  1  0
 23 25  1  0
 25 26  2  0
 26 11  1  0
 17 12  1  0
 26 20  1  0
  1 27  1  0
  1 28  1  0
  1 29  1  0
  2 30  1  0
  2 31  1  0
  3 32  1  0
  3 33  1  0
  4 34  1  0
  5 35  1  0
  5 36  1  0
  6 37  1  0
  6 38  1  0
  7 39  1  0
  7 40  1  0
  7 41  1  0
  8 42  1  0
  8 43  1  0
  9 44  1  0
  9 45  1  0
 10 46  1  0
 13 47  1  0
 14 48  1  0
 15 49  1  0
 16 50  1  0
 19 51  1  0
 19 52  1  0
 19 53  1  0
 21 54  1  0
 22 55  1  0
 24 56  1  0
 24 57  1  0
 25 58  1  0
M  CHG  2   4   1  18   1
M  END
>  <UniqueID>  (16) 
16

>  <SMILES>  (16) 
CCC[NH+](CCC)CCNc1c2ccccc2[n+](C)c2ccc(N)cc12

>  <Energy>  (16) 
87.63492401275786

>  <Genealogy>  (16) 
CCC[NH+](CCC)CCNc1c2ccccc2[n+](C)c2ccc(N)cc12 (protonated)
CCC[NH+](CCC)CCNc1c2ccccc2[n+](C)c2ccc(N)cc12 (3D coordinates assigned)
CCC[NH+](CCC)CCNc1c2ccccc2[n+](C)c2ccc(N)cc12 (optimized conformer: 87.63492401275786 kcal/mol)

>  <smiles>  (16) 
CCCN(CCC)CCNc1c2ccccc2[n+](C)c2ccc(N)cc12

>  <score_type>  (16) 
oracle

>  <origin>  (16) 
adg

>  <m_score__min__energy>  (16) 
-7.2199999999999998

>  <m_primary>  (16) 
energy

$$$$
17:0
     RDKit          3D

 32 33  0  0  0  0  0  0  0  0999 V2000
   -2.0590   22.1230  -30.4700 C   0  0  0  0  0  0  0  0  0  0  0  0
   -3.4780   22.4700  -30.7900 C   0  0  0  0  0  0  0  0  0  0  0  0
   -4.4060   21.4710  -31.0740 C   0  0  0  0  0  0  0  0  0  0  0  0
   -5.7160   21.8360  -31.3960 C   0  0  0  0  0  0  0  0  0  0  0  0
   -6.6610   20.8050  -31.7170 N   0  0  0  0  0  0  0  0  0  0  0  0
   -6.2020   19.6350  -32.4700 C   0  0  0  0  0  0  0  0  0  0  0  0
   -7.3650   18.6760  -32.7420 C   0  0  0  0  0  0  0  0  0  0  0  0
   -8.5700   19.4360  -33.0960 N   0  0  0  0  0  0  0  0  0  0  0  0
   -9.0740   20.2500  -31.9710 C   0  0  0  0  0  0  0  0  0  0  0  0
   -7.9620   20.7860  -31.0410 C   0  0  0  0  0  0  0  0  0  0  0  0
   -6.0800   23.1590  -31.4090 N   0  0  0  0  0  0  0  0  0  0  0  0
   -7.4590   23.5510  -31.7440 C   0  0  0  0  0  0  0  0  0  0  0  0
   -5.1330   24.1240  -31.1650 C   0  0  0  0  0  0  0  0  0  0  0  0
   -5.4290   25.3480  -31.2220 O   0  0  0  0  0  0  0  0  0  0  0  0
   -3.8580   23.7710  -30.8570 N   0  0  0  0  0  0  0  0  0  0  0  0
   -1.9267   22.0906  -29.3785 H   0  0  0  0  0  0  0  0  0  0  0  0
   -1.8166   21.1391  -30.8981 H   0  0  0  0  0  0  0  0  0  0  0  0
   -1.3899   22.8840  -30.8981 H   0  0  0  0  0  0  0  0  0  0  0  0
   -4.1124   20.4113  -31.0453 H   0  0  0  0  0  0  0  0  0  0  0  0
   -5.7758   19.9667  -33.4283 H   0  0  0  0  0  0  0  0  0  0  0  0
   -5.4408   19.1083  -31.8758 H   0  0  0  0  0  0  0  0  0  0  0  0
   -7.0987   18.0071  -33.5737 H   0  0  0  0  0  0  0  0  0  0  0  0
   -7.5644   18.0841  -31.8365 H   0  0  0  0  0  0  0  0  0  0  0  0
   -8.3590   20.0590  -33.9120 H   0  0  0  0  0  0  0  0  0  0  0  0
   -9.3170   18.7660  -33.3910 H   0  0  0  0  0  0  0  0  0  0  0  0
   -9.6247   21.1083  -32.3834 H   0  0  0  0  0  0  0  0  0  0  0  0
   -9.7123   19.5935  -31.3615 H   0  0  0  0  0  0  0  0  0  0  0  0
   -8.2184   21.8094  -30.7298 H   0  0  0  0  0  0  0  0  0  0  0  0
   -7.8890   20.1191  -30.1692 H   0  0  0  0  0  0  0  0  0  0  0  0
   -8.0294   23.7132  -30.8175 H   0  0  0  0  0  0  0  0  0  0  0  0
   -7.4434   24.4803  -32.3324 H   0  0  0  0  0  0  0  0  0  0  0  0
   -7.9345   22.7524  -32.3324 H   0  0  0  0  0  0  0  0  0  0  0  0
  1  2  1  0
  2  3  1  0
  3  4  2  0
  4  5  1  0
  5  6  1  0
  6  7  1  0
  7  8  1  0
  8  9  1  0
  9 10  1  0
  4 11  1  0
 11 12  1  0
 11 13  1  0
 13 14  2  0
 13 15  1  0
 15  2  2  0
 10  5  1  0
  1 16  1  0
  1 17  1  0
  1 18  1  0
  3 19  1  0
  6 20  1  0
  6 21  1  0
  7 22  1  0
  7 23  1  0
  8 24  1  0
  8 25  1  0
  9 26  1  0
  9 27  1  0
 10 28  1  0
 10 29  1  0
 12 30  1  0
 12 31  1  0
 12 32  1  0
M  CHG  1   8   1
M  END
>  <UniqueID>  (17) 
17

>  <SMILES>  (17) 
Cc1cc(N2CC[NH2+]CC2)n(C)c(=O)n1

>  <Energy>  (17) 
42.04644215286794

>  <Genealogy>  (17) 
Cc1cc(N2CC[NH2+]CC2)n(C)c(=O)n1 (protonated)
Cc1cc(N2CC[NH2+]CC2)n(C)c(=O)n1 (3D coordinates assigned)
Cc1cc(N2CC[NH2+]CC2)n(C)c(=O)n1 (nonaromatic ring conformer: 42.04644215286794 kcal/mol)

>  <smiles>  (17) 
Cc1cc(N2CCNCC2)n(C)c(=O)n1

>  <score_type>  (17) 
oracle

>  <origin>  (17) 
adg

>  <m_score__min__energy>  (17) 
-5.7000000000000002

>  <m_primary>  (17) 
energy

$$$$
18:0
     RDKit          3D

 30 30  0  0  0  0  0  0  0  0999 V2000
   -0.6460   26.7610  -27.2600 C   0  0  0  0  0  0  0  0  0  0  0  0
   -0.7670   25.6290  -28.2340 C   0  0  0  0  0  0  0  0  0  0  0  0
    0.2220   24.8760  -28.4330 O   0  0  0  0  0  0  0  0  0  0  0  0
   -1.9840   25.3820  -28.9450 N   0  0  0  0  0  0  0  0  0  0  0  0
   -3.0660   24.5450  -28.4350 C   0  0  0  0  0  0  0  0  0  0  0  0
   -3.4440   23.4810  -29.4670 C   0  0  0  0  0  0  0  0  0  0  0  0
   -3.9060   24.1040  -30.7470 C   0  0  0  0  0  0  0  0  0  0  0  0
   -3.9870   25.3590  -30.8360 O   0  0  0  0  0  0  0  0  0  0  0  0
   -4.3420   23.2630  -31.8230 N   0  0  0  0  0  0  0  0  0  0  0  0
   -5.6050   22.5890  -31.9220 C   0  0  0  0  0  0  0  0  0  0  0  0
   -5.7090   21.2570  -32.3570 C   0  0  0  0  0  0  0  0  0  0  0  0
   -6.9570   20.6290  -32.4140 C   0  0  0  0  0  0  0  0  0  0  0  0
   -8.1130   21.3130  -32.0140 C   0  0  0  0  0  0  0  0  0  0  0  0
   -9.4550   20.6500  -32.1120 C   0  0  0  0  0  0  0  0  0  0  0  0
   -8.0090   22.6420  -31.5730 C   0  0  0  0  0  0  0  0  0  0  0  0
   -6.7610   23.2680  -31.5150 C   0  0  0  0  0  0  0  0  0  0  0  0
   -0.6880   26.3676  -26.2336 H   0  0  0  0  0  0  0  0  0  0  0  0
    0.3125   27.2778  -27.4157 H   0  0  0  0  0  0  0  0  0  0  0  0
   -1.4736   27.4687  -27.4157 H   0  0  0  0  0  0  0  0  0  0  0  0
   -2.7375   24.0516  -27.5084 H   0  0  0  0  0  0  0  0  0  0  0  0
   -3.9436   25.1770  -28.2339 H   0  0  0  0  0  0  0  0  0  0  0  0
   -2.5650   22.8521  -29.6715 H   0  0  0  0  0  0  0  0  0  0  0  0
   -4.2677   22.8778  -29.0576 H   0  0  0  0  0  0  0  0  0  0  0  0
   -4.8046   20.7058  -32.6540 H   0  0  0  0  0  0  0  0  0  0  0  0
   -7.0319   19.5925  -32.7747 H   0  0  0  0  0  0  0  0  0  0  0  0
   -9.8438   20.4579  -31.1011 H   0  0  0  0  0  0  0  0  0  0  0  0
  -10.1505   21.3082  -32.6534 H   0  0  0  0  0  0  0  0  0  0  0  0
   -9.3548   19.6977  -32.6534 H   0  0  0  0  0  0  0  0  0  0  0  0
   -8.9128   23.1921  -31.2722 H   0  0  0  0  0  0  0  0  0  0  0  0
   -6.6856   24.3019  -31.1470 H   0  0  0  0  0  0  0  0  0  0  0  0
  1  2  1  0
  2  3  2  0
  2  4  1  0
  4  5  1  0
  5  6  1  0
  6  7  1  0
  7  8  2  0
  7  9  1  0
  9 10  1  0
 10 11  2  0
 11 12  1  0
 12 13  2  0
 13 14  1  0
 13 15  1  0
 15 16  2  0
 16 10  1  0
  1 17  1  0
  1 18  1  0
  1 19  1  0
  5 20  1  0
  5 21  1  0
  6 22  1  0
  6 23  1  0
 11 24  1  0
 12 25  1  0
 14 26  1  0
 14 27  1  0
 14 28  1  0
 15 29  1  0
 16 30  1  0
M  CHG  2   4  -1   9  -1
M  END
>  <UniqueID>  (18) 
18

>  <SMILES>  (18) 
CC(=O)[N-]CCC(=O)[N-]c1ccc(C)cc1

>  <Energy>  (18) 
23.573282088108414

>  <Genealogy>  (18) 
CC(=O)[N-]CCC(=O)[N-]c1ccc(C)cc1 (protonated)
CC(=O)[N-]CCC(=O)[N-]c1ccc(C)cc1 (3D coordinates assigned)
CC(=O)[N-]CCC(=O)[N-]c1ccc(C)cc1 (optimized conformer: 23.573282088108414 kcal/mol)

>  <smiles>  (18) 
CC(=O)NCCC(=O)Nc1ccc(C)cc1

>  <score_type>  (18) 
oracle

>  <origin>  (18) 
adg

>  <m_score__min__energy>  (18) 
-9.0099999999999998

>  <m_primary>  (18) 
energy

$$$$
19:0
     RDKit          3D

 55 57  0  0  0  0  0  0  0  0999 V2000
   -1.2620   25.5740  -27.7550 C   0  0  0  0  0  0  0  0  0  0  0  0
   -1.1710   24.6130  -28.9460 C   0  0  0  0  0  0  0  0  0  0  0  0
   -2.3100   23.6660  -28.9410 N   0  0  0  0  0  0  0  0  0  0  0  0
   -1.9800   22.4310  -28.1840 C   0  0  0  0  0  0  0  0  0  0  0  0
   -3.1610   21.4610  -28.2000 C   0  0  0  0  0  0  0  0  0  0  0  0
   -3.5300   24.3130  -28.3930 C   0  0  0  0  0  0  0  0  0  0  0  0
   -4.5900   24.4920  -29.4870 C   0  0  0  0  0  0  0  0  0  0  0  0
   -4.0550   24.0900  -30.7460 O   0  0  0  0  0  0  0  0  0  0  0  0
   -4.4740   22.9110  -31.3770 C   0  0  0  0  0  0  0  0  0  0  0  0
   -3.5030   21.9610  -31.7550 C   0  0  0  0  0  0  0  0  0  0  0  0
   -2.0370   22.3010  -31.5740 C   0  0  0  0  0  0  0  0  0  0  0  0
   -3.9060   20.6840  -32.2220 C   0  0  0  0  0  0  0  0  0  0  0  0
   -2.8650   19.6160  -32.5320 C   0  0  0  0  0  0  0  0  0  0  0  0
   -5.2890   20.4200  -32.4330 C   0  0  0  0  0  0  0  0  0  0  0  0
   -5.7190   19.1010  -32.9570 C   0  0  0  0  0  0  0  0  0  0  0  0
   -6.4020   18.2010  -32.1230 C   0  0  0  0  0  0  0  0  0  0  0  0
   -6.8070   16.9590  -32.6210 C   0  0  0  0  0  0  0  0  0  0  0  0
   -6.5410   16.6170  -33.9520 C   0  0  0  0  0  0  0  0  0  0  0  0
   -5.8590   17.5120  -34.7890 C   0  0  0  0  0  0  0  0  0  0  0  0
   -5.4530   18.7530  -34.2930 C   0  0  0  0  0  0  0  0  0  0  0  0
   -6.2550   21.4170  -32.1440 C   0  0  0  0  0  0  0  0  0  0  0  0
   -7.6340   21.1940  -32.3660 C   0  0  0  0  0  0  0  0  0  0  0  0
   -8.5780   22.1860  -32.0810 C   0  0  0  0  0  0  0  0  0  0  0  0
   -8.1680   23.4220  -31.5920 C   0  0  0  0  0  0  0  0  0  0  0  0
   -6.8090   23.6690  -31.3680 C   0  0  0  0  0  0  0  0  0  0  0  0
   -5.8400   22.6700  -31.6190 C   0  0  0  0  0  0  0  0  0  0  0  0
   -1.2078   25.0017  -26.8171 H   0  0  0  0  0  0  0  0  0  0  0  0
   -0.4276   26.2896  -27.7966 H   0  0  0  0  0  0  0  0  0  0  0  0
   -2.2159   26.1202  -27.7966 H   0  0  0  0  0  0  0  0  0  0  0  0
   -1.1875   25.1931  -29.8805 H   0  0  0  0  0  0  0  0  0  0  0  0
   -0.2345   24.0412  -28.8691 H   0  0  0  0  0  0  0  0  0  0  0  0
   -1.1071   21.9461  -28.6454 H   0  0  0  0  0  0  0  0  0  0  0  0
   -1.7566   22.7020  -27.1416 H   0  0  0  0  0  0  0  0  0  0  0  0
   -3.4527   21.2214  -27.1668 H   0  0  0  0  0  0  0  0  0  0  0  0
   -4.0102   21.9258  -28.7224 H   0  0  0  0  0  0  0  0  0  0  0  0
   -2.8701   20.5377  -28.7224 H   0  0  0  0  0  0  0  0  0  0  0  0
   -3.9425   23.6836  -27.5907 H   0  0  0  0  0  0  0  0  0  0  0  0
   -3.2575   25.3039  -28.0007 H   0  0  0  0  0  0  0  0  0  0  0  0
   -5.4686   23.8743  -29.2492 H   0  0  0  0  0  0  0  0  0  0  0  0
   -4.8850   25.5505  -29.5382 H   0  0  0  0  0  0  0  0  0  0  0  0
   -1.8030   22.3553  -30.5005 H   0  0  0  0  0  0  0  0  0  0  0  0
   -1.4191   21.5223  -32.0451 H   0  0  0  0  0  0  0  0  0  0  0  0
   -1.8250   23.2722  -32.0451 H   0  0  0  0  0  0  0  0  0  0  0  0
   -2.4671   19.2078  -31.5912 H   0  0  0  0  0  0  0  0  0  0  0  0
   -3.3312   18.8076  -33.1143 H   0  0  0  0  0  0  0  0  0  0  0  0
   -2.0449   20.0614  -33.1143 H   0  0  0  0  0  0  0  0  0  0  0  0
   -6.6181   18.4729  -31.0793 H   0  0  0  0  0  0  0  0  0  0  0  0
   -7.3351   16.2500  -31.9664 H   0  0  0  0  0  0  0  0  0  0  0  0
   -6.8682   15.6423  -34.3430 H   0  0  0  0  0  0  0  0  0  0  0  0
   -5.6446   17.2377  -35.8324 H   0  0  0  0  0  0  0  0  0  0  0  0
   -4.9239   19.4597  -34.9492 H   0  0  0  0  0  0  0  0  0  0  0  0
   -7.9688   20.2266  -32.7685 H   0  0  0  0  0  0  0  0  0  0  0  0
   -9.6477   21.9882  -32.2440 H   0  0  0  0  0  0  0  0  0  0  0  0
   -8.9116   24.2048  -31.3815 H   0  0  0  0  0  0  0  0  0  0  0  0
   -6.4904   24.6524  -30.9920 H   0  0  0  0  0  0  0  0  0  0  0  0
  1  2  1  0
  2  3  1  0
  3  4  1  0
  4  5  1  0
  3  6  1  0
  6  7  1  0
  7  8  1  0
  8  9  1  0
  9 10  2  0
 10 11  1  0
 10 12  1  0
 12 13  1  0
 12 14  2  0
 14 15  1  0
 15 16  2  0
 16 17  1  0
 17 18  2  0
 18 19  1  0
 19 20  2  0
 14 21  1  0
 21 22  2  0
 22 23  1  0
 23 24  2  0
 24 25  1  0
 25 26  2  0
 26  9  1  0
 20 15  1  0
 26 21  1  0
  1 27  1  0
  1 28  1  0
  1 29  1  0
  2 30  1  0
  2 31  1  0
  4 32  1  0
  4 33  1  0
  5 34  1  0
  5 35  1  0
  5 36  1  0
  6 37  1  0
  6 38  1  0
  7 39  1  0
  7 40  1  0
 11 41  1  0
 11 42  1  0
 11 43  1  0
 13 44  1  0
 13 45  1  0
 13 46  1  0
 16 47  1  0
 17 48  1  0
 18 49  1  0
 19 50  1  0
 20 51  1  0
 22 52  1  0
 23 53  1  0
 24 54  1  0
 25 55  1  0
M  END
>  <UniqueID>  (19) 
19

>  <SMILES>  (19) 
CCN(CC)CCOc1c(C)c(C)c(-c2ccccc2)c2ccccc12

>  <Energy>  (19) 
77.70492427816544

>  <Genealogy>  (19) 
CCN(CC)CCOc1c(C)c(C)c(-c2ccccc2)c2ccccc12 (3D coordinates assigned)
CCN(CC)CCOc1c(C)c(C)c(-c2ccccc2)c2ccccc12 (optimized conformer: 77.70492427816544 kcal/mol)

>  <smiles>  (19) 
CCN(CC)CCOc1c(C)c(C)c(-c2ccccc2)c2ccccc12

>  <score_type>  (19) 
oracle

>  <origin>  (19) 
adg

>  <m_score__min__energy>  (19) 
-8.8399999999999999

>  <m_primary>  (19) 
energy

$$$$
20:0
     RDKit          3D

 42 45  0  0  0  0  0  0  0  0999 V2000
   -6.0610   18.8760  -34.7370 C   0  0  0  0  0  0  0  0  0  0  0  0
   -5.8710   18.0400  -33.5530 N   0  0  0  0  0  0  0  0  0  0  0  0
   -6.2030   18.3080  -32.2580 C   0  0  0  0  0  0  0  0  0  0  0  0
   -6.8200   19.5640  -31.7900 C   0  0  0  0  0  0  0  0  0  0  0  0
   -6.0020   20.6780  -31.5580 C   0  0  0  0  0  0  0  0  0  0  0  0
   -6.5710   21.8840  -31.1100 C   0  0  0  0  0  0  0  0  0  0  0  0
   -5.7550   23.0480  -30.8500 N   0  0  0  0  0  0  0  0  0  0  0  0
   -4.5730   22.9400  -29.9860 C   0  0  0  0  0  0  0  0  0  0  0  0
   -3.4850   23.9130  -30.4660 C   0  0  0  0  0  0  0  0  0  0  0  0
   -3.9560   25.3050  -30.6440 N   0  0  0  0  0  0  0  0  0  0  0  0
   -5.4150   25.4810  -30.5640 C   0  0  0  0  0  0  0  0  0  0  0  0
   -6.1680   24.3790  -31.3180 C   0  0  0  0  0  0  0  0  0  0  0  0
   -7.9180   21.9460  -30.9170 N   0  0  0  0  0  0  0  0  0  0  0  0
   -8.7360   20.8880  -31.1500 C   0  0  0  0  0  0  0  0  0  0  0  0
   -8.2090   19.6760  -31.6000 C   0  0  0  0  0  0  0  0  0  0  0  0
   -9.3100   18.3530  -31.9700 Cl  0  0  0  0  0  0  0  0  0  0  0  0
   -5.9350   17.2700  -31.4270 N   0  0  0  0  0  0  0  0  0  0  0  0
   -5.3980   16.3350  -32.2270 C   0  0  0  0  0  0  0  0  0  0  0  0
   -4.9360   15.0670  -31.8810 C   0  0  0  0  0  0  0  0  0  0  0  0
   -4.4140   14.2600  -32.9100 C   0  0  0  0  0  0  0  0  0  0  0  0
   -4.3690   14.7360  -34.2410 C   0  0  0  0  0  0  0  0  0  0  0  0
   -4.8450   16.0220  -34.5560 C   0  0  0  0  0  0  0  0  0  0  0  0
   -5.3540   16.7980  -33.5130 C   0  0  0  0  0  0  0  0  0  0  0  0
   -6.2948   19.9048  -34.4257 H   0  0  0  0  0  0  0  0  0  0  0  0
   -5.1398   18.8752  -35.3381 H   0  0  0  0  0  0  0  0  0  0  0  0
   -6.8914   18.4771  -35.3381 H   0  0  0  0  0  0  0  0  0  0  0  0
   -4.9170   20.6095  -31.7259 H   0  0  0  0  0  0  0  0  0  0  0  0
   -4.8533   23.1875  -28.9515 H   0  0  0  0  0  0  0  0  0  0  0  0
   -4.1847   21.9117  -30.0296 H   0  0  0  0  0  0  0  0  0  0  0  0
   -2.6721   23.9153  -29.7250 H   0  0  0  0  0  0  0  0  0  0  0  0
   -3.1569   23.5599  -31.4548 H   0  0  0  0  0  0  0  0  0  0  0  0
   -3.6360   25.6470  -31.5800 H   0  0  0  0  0  0  0  0  0  0  0  0
   -5.7180   25.4589  -29.5068 H   0  0  0  0  0  0  0  0  0  0  0  0
   -5.6672   26.4450  -31.0298 H   0  0  0  0  0  0  0  0  0  0  0  0
   -7.2482   24.5009  -31.1499 H   0  0  0  0  0  0  0  0  0  0  0  0
   -5.9345   24.4632  -32.3896 H   0  0  0  0  0  0  0  0  0  0  0  0
   -9.8189   20.9860  -30.9835 H   0  0  0  0  0  0  0  0  0  0  0  0
   -6.1020   17.2130  -30.3980 H   0  0  0  0  0  0  0  0  0  0  0  0
   -4.9775   14.7093  -30.8416 H   0  0  0  0  0  0  0  0  0  0  0  0
   -4.0387   13.2526  -32.6771 H   0  0  0  0  0  0  0  0  0  0  0  0
   -3.9587   14.0960  -35.0360 H   0  0  0  0  0  0  0  0  0  0  0  0
   -4.8171   16.4026  -35.5877 H   0  0  0  0  0  0  0  0  0  0  0  0
  1  2  1  0
  2  3  1  0
  3  4  1  0
  4  5  2  0
  5  6  1  0
  6  7  1  0
  7  8  1  0
  8  9  1  0
  9 10  1  0
 10 11  1  0
 11 12  1  0
  6 13  2  0
 13 14  1  0
 14 15  2  0
 15 16  1  0
  3 17  2  0
 17 18  1  0
 18 19  2  0
 19 20  1  0
 20 21  2  0
 21 22  1  0
 22 23  2  0
 23  2  1  0
 15  4  1  0
 23 18  1  0
 12  7  1  0
  1 24  1  0
  1 25  1  0
  1 26  1  0
  5 27  1  0
  8 28  1  0
  8 29  1  0
  9 30  1  0
  9 31  1  0
 10 32  1  0
 11 33  1  0
 11 34  1  0
 12 35  1  0
 12 36  1  0
 14 37  1  0
 17 38  1  0
 19 39  1  0
 20 40  1  0
 21 41  1  0
 22 42  1  0
M  CHG  1  17   1
M  END
>  <UniqueID>  (20) 
20

>  <SMILES>  (20) 
Cn1c(-c2cc(N3CCNCC3)ncc2Cl)[nH+]c2ccccc21

>  <Energy>  (20) 
98.0479472458843

>  <Genealogy>  (20) 
Cn1c(-c2cc(N3CCNCC3)ncc2Cl)[nH+]c2ccccc21 (protonated)
Cn1c(-c2cc(N3CCNCC3)ncc2Cl)[nH+]c2ccccc21 (3D coordinates assigned)
Cn1c(-c2cc(N3CCNCC3)ncc2Cl)[nH+]c2ccccc21 (nonaromatic ring conformer: 98.0479472458843 kcal/mol)

>  <smiles>  (20) 
Cn1c(-c2cc(N3CCNCC3)ncc2Cl)nc2ccccc21

>  <score_type>  (20) 
oracle

>  <origin>  (20) 
adg

>  <m_score__min__energy>  (20) 
-8.3900000000000006

>  <m_primary>  (20) 
energy

$$$$
21:0
     RDKit          3D

 22 23  0  0  0  0  0  0  0  0999 V2000
   -9.1120   21.9210  -30.1030 O   0  0  0  0  0  0  0  0  0  0  0  0
   -8.3210   22.1890  -31.3530 S   0  0  0  0  0  0  0  0  0  0  0  0
   -9.2120   22.9080  -32.3290 O   0  0  0  0  0  0  0  0  0  0  0  0
   -7.7630   20.6740  -32.0500 C   0  0  0  0  0  0  0  0  0  0  0  0
   -8.4390   19.4790  -31.7710 C   0  0  0  0  0  0  0  0  0  0  0  0
   -7.9840   18.2710  -32.3080 C   0  0  0  0  0  0  0  0  0  0  0  0
   -6.8470   18.2510  -33.1240 C   0  0  0  0  0  0  0  0  0  0  0  0
   -6.2250   16.6010  -33.8560 Br  0  0  0  0  0  0  0  0  0  0  0  0
   -6.1640   19.4410  -33.3970 C   0  0  0  0  0  0  0  0  0  0  0  0
   -6.6190   20.6490  -32.8590 C   0  0  0  0  0  0  0  0  0  0  0  0
   -6.9550   23.1810  -30.9760 N   0  0  0  0  0  0  0  0  0  0  0  0
   -6.4790   23.4600  -29.7550 C   0  0  0  0  0  0  0  0  0  0  0  0
   -5.3620   24.2490  -29.9150 C   0  0  0  0  0  0  0  0  0  0  0  0
   -5.1380   24.4580  -31.2300 N   0  0  0  0  0  0  0  0  0  0  0  0
   -6.1330   23.7870  -31.8480 C   0  0  0  0  0  0  0  0  0  0  0  0
   -9.3308   19.4912  -31.1272 H   0  0  0  0  0  0  0  0  0  0  0  0
   -8.5199   17.3357  -32.0891 H   0  0  0  0  0  0  0  0  0  0  0  0
   -5.2683   19.4265  -34.0354 H   0  0  0  0  0  0  0  0  0  0  0  0
   -6.0772   21.5825  -33.0715 H   0  0  0  0  0  0  0  0  0  0  0  0
   -6.9034   23.1205  -28.7987 H   0  0  0  0  0  0  0  0  0  0  0  0
   -4.7458   24.6484  -29.0960 H   0  0  0  0  0  0  0  0  0  0  0  0
   -6.2563   23.7418  -32.9401 H   0  0  0  0  0  0  0  0  0  0  0  0
  1  2  2  0
  2  3  2  0
  2  4  1  0
  4  5  2  0
  5  6  1  0
  6  7  2  0
  7  8  1  0
  7  9  1  0
  9 10  2  0
  2 11  1  0
 11 12  1  0
 12 13  2  0
 13 14  1  0
 14 15  2  0
 10  4  1  0
 15 11  1  0
  5 16  1  0
  6 17  1  0
  9 18  1  0
 10 19  1  0
 12 20  1  0
 13 21  1  0
 15 22  1  0
M  END
>  <UniqueID>  (21) 
21

>  <SMILES>  (21) 
O=S(=O)(c1ccc(Br)cc1)n1ccnc1

>  <Energy>  (21) 
53.5845377413208

>  <Genealogy>  (21) 
O=S(=O)(c1ccc(Br)cc1)n1ccnc1 (3D coordinates assigned)
O=S(=O)(c1ccc(Br)cc1)n1ccnc1 (optimized conformer: 53.5845377413208 kcal/mol)

>  <smiles>  (21) 
O=S(=O)(c1ccc(Br)cc1)n1ccnc1

>  <score_type>  (21) 
oracle

>  <origin>  (21) 
adg

>  <m_score__min__energy>  (21) 
-7.1900000000000004

>  <m_primary>  (21) 
energy

$$$$
22:0
     RDKit          3D

 65 67  0  0  0  0  0  0  0  0999 V2000
    0.2800   27.2020  -23.3540 C   0  0  0  0  0  0  0  0  0  0  0  0
   -0.6760   26.1000  -23.8130 C   0  0  0  0  0  0  0  0  0  0  0  0
    0.0250   24.8330  -24.0890 N   0  0  0  0  0  0  0  0  0  0  0  0
   -0.0050   24.4480  -25.5210 C   0  0  0  0  0  0  0  0  0  0  0  0
   -1.4300   24.4510  -26.1070 C   0  0  0  0  0  0  0  0  0  0  0  0
   -1.6060   25.5030  -27.2070 C   0  0  0  0  0  0  0  0  0  0  0  0
   -1.6810   24.8490  -28.4570 O   0  0  0  0  0  0  0  0  0  0  0  0
   -2.9200   24.1760  -28.5980 C   0  0  0  0  0  0  0  0  0  0  0  0
   -2.6830   22.7400  -29.0550 C   0  0  0  0  0  0  0  0  0  0  0  0
   -2.3130   22.7350  -30.4170 O   0  0  0  0  0  0  0  0  0  0  0  0
   -3.4660   22.6290  -31.2230 C   0  0  0  0  0  0  0  0  0  0  0  0
   -3.2220   21.5730  -32.3000 C   0  0  0  0  0  0  0  0  0  0  0  0
   -4.3180   21.5390  -33.2740 N   0  0  0  0  0  0  0  0  0  0  0  0
   -5.5140   20.7650  -33.0590 C   0  0  0  0  0  0  0  0  0  0  0  0
   -6.6520   21.3830  -32.5120 C   0  0  0  0  0  0  0  0  0  0  0  0
   -7.7930   20.5940  -32.2090 C   0  0  0  0  0  0  0  0  0  0  0  0
   -7.7400   19.2200  -32.3570 N   0  0  0  0  0  0  0  0  0  0  0  0
   -8.8250   18.3730  -31.8100 C   0  0  0  0  0  0  0  0  0  0  0  0
   -6.6990   18.6360  -33.0520 C   0  0  0  0  0  0  0  0  0  0  0  0
   -6.7360   17.2730  -33.4490 C   0  0  0  0  0  0  0  0  0  0  0  0
   -5.6860   16.7020  -34.1660 C   0  0  0  0  0  0  0  0  0  0  0  0
   -4.5890   17.4720  -34.5310 C   0  0  0  0  0  0  0  0  0  0  0  0
   -4.5320   18.8160  -34.1730 C   0  0  0  0  0  0  0  0  0  0  0  0
   -5.5650   19.4070  -33.4170 C   0  0  0  0  0  0  0  0  0  0  0  0
   -9.0430   21.2640  -31.6500 C   0  0  0  0  0  0  0  0  0  0  0  0
   -9.1130   22.7610  -31.9430 C   0  0  0  0  0  0  0  0  0  0  0  0
   -7.8160   23.4240  -31.5100 C   0  0  0  0  0  0  0  0  0  0  0  0
   -6.6580   22.8960  -32.3540 C   0  0  0  0  0  0  0  0  0  0  0  0
    0.3052   27.2311  -22.2547 H   0  0  0  0  0  0  0  0  0  0  0  0
    1.2896   26.9952  -23.7386 H   0  0  0  0  0  0  0  0  0  0  0  0
   -0.0673   28.1723  -23.7386 H   0  0  0  0  0  0  0  0  0  0  0  0
   -1.4222   25.9271  -23.0235 H   0  0  0  0  0  0  0  0  0  0  0  0
   -1.1511   26.4332  -24.7475 H   0  0  0  0  0  0  0  0  0  0  0  0
    1.0000   24.8920  -23.7170 H   0  0  0  0  0  0  0  0  0  0  0  0
   -0.4590   24.0830  -23.5400 H   0  0  0  0  0  0  0  0  0  0  0  0
    0.6111   25.1598  -26.0899 H   0  0  0  0  0  0  0  0  0  0  0  0
    0.3840   23.4220  -25.5978 H   0  0  0  0  0  0  0  0  0  0  0  0
   -1.6399   23.4579  -26.5309 H   0  0  0  0  0  0  0  0  0  0  0  0
   -2.1274   24.6968  -25.2926 H   0  0  0  0  0  0  0  0  0  0  0  0
   -2.5318   26.0703  -27.0308 H   0  0  0  0  0  0  0  0  0  0  0  0
   -0.7524   26.1967  -27.1996 H   0  0  0  0  0  0  0  0  0  0  0  0
   -3.4432   24.1690  -27.6304 H   0  0  0  0  0  0  0  0  0  0  0  0
   -3.5319   24.6981  -29.3484 H   0  0  0  0  0  0  0  0  0  0  0  0
   -1.8774   22.2923  -28.4545 H   0  0  0  0  0  0  0  0  0  0  0  0
   -3.6060   22.1562  -28.9235 H   0  0  0  0  0  0  0  0  0  0  0  0
   -4.3243   22.3319  -30.6024 H   0  0  0  0  0  0  0  0  0  0  0  0
   -3.6814   23.5992  -31.6945 H   0  0  0  0  0  0  0  0  0  0  0  0
   -2.2840   21.8070  -32.8247 H   0  0  0  0  0  0  0  0  0  0  0  0
   -3.1614   20.5888  -31.8125 H   0  0  0  0  0  0  0  0  0  0  0  0
   -4.2960   22.2200  -34.0660 H   0  0  0  0  0  0  0  0  0  0  0  0
   -8.7917   18.3990  -30.7108 H   0  0  0  0  0  0  0  0  0  0  0  0
   -9.7972   18.7534  -32.1565 H   0  0  0  0  0  0  0  0  0  0  0  0
   -8.6919   17.3375  -32.1565 H   0  0  0  0  0  0  0  0  0  0  0  0
   -7.6086   16.6571  -33.1860 H   0  0  0  0  0  0  0  0  0  0  0  0
   -5.7261   15.6384  -34.4437 H   0  0  0  0  0  0  0  0  0  0  0  0
   -3.7654   17.0197  -35.1029 H   0  0  0  0  0  0  0  0  0  0  0  0
   -3.6701   19.4247  -34.4839 H   0  0  0  0  0  0  0  0  0  0  0  0
   -9.9256   20.7804  -32.0940 H   0  0  0  0  0  0  0  0  0  0  0  0
   -9.0109   21.1489  -30.5565 H   0  0  0  0  0  0  0  0  0  0  0  0
   -9.2619   22.9168  -33.0217 H   0  0  0  0  0  0  0  0  0  0  0  0
   -9.9536   23.2038  -31.3887 H   0  0  0  0  0  0  0  0  0  0  0  0
   -7.8996   24.5125  -31.6449 H   0  0  0  0  0  0  0  0  0  0  0  0
   -7.6272   23.1951  -30.4508 H   0  0  0  0  0  0  0  0  0  0  0  0
   -6.7236   23.3487  -33.3544 H   0  0  0  0  0  0  0  0  0  0  0  0
   -5.7301   23.1665  -31.8289 H   0  0  0  0  0  0  0  0  0  0  0  0
  1  2  1  0
  2  3  1  0
  3  4  1  0
  4  5  1  0
  5  6  1  0
  6  7  1  0
  7  8  1  0
  8  9  1  0
  9 10  1  0
 10 11  1  0
 11 12  1  0
 12 13  1  0
 13 14  1  0
 14 15  2  0
 15 16  1  0
 16 17  2  0
 17 18  1  0
 17 19  1  0
 19 20  2  0
 20 21  1  0
 21 22  2  0
 22 23  1  0
 23 24  2  0
 16 25  1  0
 25 26  1  0
 26 27  1  0
 27 28  1  0
 24 14  1  0
 28 15  1  0
 24 19  1  0
  1 29  1  0
  1 30  1  0
  1 31  1  0
  2 32  1  0
  2 33  1  0
  3 34  1  0
  3 35  1  0
  4 36  1  0
  4 37  1  0
  5 38  1  0
  5 39  1  0
  6 40  1  0
  6 41  1  0
  8 42  1  0
  8 43  1  0
  9 44  1  0
  9 45  1  0
 11 46  1  0
 11 47  1  0
 12 48  1  0
 12 49  1  0
 13 50  1  0
 18 51  1  0
 18 52  1  0
 18 53  1  0
 20 54  1  0
 21 55  1  0
 22 56  1  0
 23 57  1  0
 25 58  1  0
 25 59  1  0
 26 60  1  0
 26 61  1  0
 27 62  1  0
 27 63  1  0
 28 64  1  0
 28 65  1  0
M  CHG  2   3   1  17   1
M  END
>  <UniqueID>  (22) 
22

>  <SMILES>  (22) 
CC[NH2+]CCCOCCOCCNc1c2c([n+](C)c3ccccc13)CCCC2

>  <Energy>  (22) 
81.41202369194501

>  <Genealogy>  (22) 
CC[NH2+]CCCOCCOCCNc1c2c([n+](C)c3ccccc13)CCCC2 (protonated)
CC[NH2+]CCCOCCOCCNc1c2c([n+](C)c3ccccc13)CCCC2 (3D coordinates assigned)
CC[NH2+]CCCOCCOCCNc1c2c([n+](C)c3ccccc13)CCCC2 (nonaromatic ring conformer: 81.41202369194501 kcal/mol)

>  <smiles>  (22) 
CCNCCCOCCOCCNc1c2c([n+](C)c3ccccc13)CCCC2

>  <score_type>  (22) 
oracle

>  <origin>  (22) 
adg

>  <m_score__min__energy>  (22) 
-9.4700000000000006

>  <m_primary>  (22) 
energy

$$$$
23:0
     RDKit          3D

 41 42  0  0  0  0  0  0  0  0999 V2000
   -8.9270   18.9760  -32.3400 C   0  0  0  0  0  0  0  0  0  0  0  0
   -7.7320   19.1660  -33.0900 O   0  0  0  0  0  0  0  0  0  0  0  0
   -6.7010   18.2190  -33.2040 C   0  0  0  0  0  0  0  0  0  0  0  0
   -6.8750   17.0200  -33.9250 C   0  0  0  0  0  0  0  0  0  0  0  0
   -5.8350   16.0960  -34.0260 C   0  0  0  0  0  0  0  0  0  0  0  0
   -4.6080   16.3510  -33.4120 C   0  0  0  0  0  0  0  0  0  0  0  0
   -3.1850   15.0850  -33.5570 Br  0  0  0  0  0  0  0  0  0  0  0  0
   -4.4200   17.5340  -32.6940 C   0  0  0  0  0  0  0  0  0  0  0  0
   -5.4590   18.4740  -32.5810 C   0  0  0  0  0  0  0  0  0  0  0  0
   -5.2070   19.7610  -31.8180 C   0  0  0  0  0  0  0  0  0  0  0  0
   -5.7310   20.9470  -32.5390 N   0  0  0  0  0  0  0  0  0  0  0  0
   -4.6330   21.9080  -32.8430 C   0  0  0  0  0  0  0  0  0  0  0  0
   -4.5620   23.0520  -31.8200 C   0  0  0  0  0  0  0  0  0  0  0  0
   -5.8100   23.8560  -31.8080 N   0  0  0  0  0  0  0  0  0  0  0  0
   -5.9900   24.5710  -30.5230 C   0  0  0  0  0  0  0  0  0  0  0  0
   -4.6480   24.9780  -29.9010 C   0  0  0  0  0  0  0  0  0  0  0  0
   -3.8600   25.6560  -30.8400 O   0  0  0  0  0  0  0  0  0  0  0  0
   -7.0150   23.0610  -32.1600 C   0  0  0  0  0  0  0  0  0  0  0  0
   -6.8530   21.5790  -31.7920 C   0  0  0  0  0  0  0  0  0  0  0  0
   -8.6952   19.0129  -31.2653 H   0  0  0  0  0  0  0  0  0  0  0  0
   -9.6456   19.7712  -32.5876 H   0  0  0  0  0  0  0  0  0  0  0  0
   -9.3636   17.9972  -32.5876 H   0  0  0  0  0  0  0  0  0  0  0  0
   -7.8390   16.8115  -34.4120 H   0  0  0  0  0  0  0  0  0  0  0  0
   -5.9824   15.1638  -34.5911 H   0  0  0  0  0  0  0  0  0  0  0  0
   -3.4508   17.7318  -32.2129 H   0  0  0  0  0  0  0  0  0  0  0  0
   -5.7009   19.6949  -30.8374 H   0  0  0  0  0  0  0  0  0  0  0  0
   -4.1193   19.8834  -31.7086 H   0  0  0  0  0  0  0  0  0  0  0  0
   -6.1080   20.6180  -33.4600 H   0  0  0  0  0  0  0  0  0  0  0  0
   -3.6758   21.3660  -32.8351 H   0  0  0  0  0  0  0  0  0  0  0  0
   -4.8352   22.3500  -33.8298 H   0  0  0  0  0  0  0  0  0  0  0  0
   -4.4031   22.6254  -30.8186 H   0  0  0  0  0  0  0  0  0  0  0  0
   -3.7303   23.7140  -32.1030 H   0  0  0  0  0  0  0  0  0  0  0  0
   -6.5886   25.4766  -30.7009 H   0  0  0  0  0  0  0  0  0  0  0  0
   -6.4975   23.8909  -29.8230 H   0  0  0  0  0  0  0  0  0  0  0  0
   -4.8327   25.6368  -29.0397 H   0  0  0  0  0  0  0  0  0  0  0  0
   -4.1157   24.0717  -29.5765 H   0  0  0  0  0  0  0  0  0  0  0  0
   -4.3630   25.6240  -31.6950 H   0  0  0  0  0  0  0  0  0  0  0  0
   -7.8808   23.4691  -31.6179 H   0  0  0  0  0  0  0  0  0  0  0  0
   -7.1603   23.1273  -33.2483 H   0  0  0  0  0  0  0  0  0  0  0  0
   -6.6532   21.4991  -30.7133 H   0  0  0  0  0  0  0  0  0  0  0  0
   -7.7823   21.0550  -32.0599 H   0  0  0  0  0  0  0  0  0  0  0  0
  1  2  1  0
  2  3  1  0
  3  4  2  0
  4  5  1  0
  5  6  2  0
  6  7  1  0
  6  8  1  0
  8  9  2  0
  9 10  1  0
 10 11  1  0
 11 12  1  0
 12 13  1  0
 13 14  1  0
 14 15  1  0
 15 16  1  0
 16 17  1  0
 14 18  1  0
 18 19  1  0
  9  3  1  0
 19 11  1  0
  1 20  1  0
  1 21  1  0
  1 22  1  0
  4 23  1  0
  5 24  1  0
  8 25  1  0
 10 26  1  0
 10 27  1  0
 11 28  1  0
 12 29  1  0
 12 30  1  0
 13 31  1  0
 13 32  1  0
 15 33  1  0
 15 34  1  0
 16 35  1  0
 16 36  1  0
 17 37  1  0
 18 38  1  0
 18 39  1  0
 19 40  1  0
 19 41  1  0
M  CHG  1  11   1
M  END
>  <UniqueID>  (23) 
23

>  <SMILES>  (23) 
COc1ccc(Br)cc1C[NH+]1CCN(CCO)CC1

>  <Energy>  (23) 
52.75137269213863

>  <Genealogy>  (23) 
COc1ccc(Br)cc1C[NH+]1CCN(CCO)CC1 (protonated)
COc1ccc(Br)cc1C[NH+]1CCN(CCO)CC1 (3D coordinates assigned)
COc1ccc(Br)cc1C[NH+]1CCN(CCO)CC1 (nonaromatic ring conformer: 52.75137269213863 kcal/mol)

>  <smiles>  (23) 
COc1ccc(Br)cc1CN1CCN(CCO)CC1

>  <score_type>  (23) 
oracle

>  <origin>  (23) 
adg

>  <m_score__min__energy>  (23) 
-6.8200000000000003

>  <m_primary>  (23) 
energy

$$$$
