0:0
     RDKit          3D

 40 42  0  0  0  0  0  0  0  0999 V2000
   -2.2750   24.1790  -29.3100 C   0  0  0  0  0  0  0  0  0  0  0  0
   -3.1760   24.9130  -30.1330 O   0  0  0  0  0  0  0  0  0  0  0  0
   -4.5380   24.6100  -30.2820 C   0  0  0  0  0  0  0  0  0  0  0  0
   -5.5530   25.4040  -29.7180 C   0  0  0  0  0  0  0  0  0  0  0  0
   -6.8950   25.0610  -29.8970 C   0  0  0  0  0  0  0  0  0  0  0  0
   -7.2370   23.9240  -30.6340 C   0  0  0  0  0  0  0  0  0  0  0  0
   -6.2370   23.1160  -31.1980 C   0  0  0  0  0  0  0  0  0  0  0  0
   -6.5910   21.9510  -31.9700 N   0  0  0  0  0  0  0  0  0  0  0  0
   -5.5550   21.1040  -32.5760 C   0  0  0  0  0  0  0  0  0  0  0  0
   -5.8000   19.6170  -32.2430 C   0  0  0  0  0  0  0  0  0  0  0  0
   -7.2150   19.3330  -31.9060 N   0  0  0  0  0  0  0  0  0  0  0  0
   -7.5390   17.8920  -31.9640 C   0  0  0  0  0  0  0  0  0  0  0  0
   -6.4920   17.0720  -32.6680 C   0  0  0  0  0  0  0  0  0  0  0  0
   -6.4270   16.8360  -34.0270 C   0  0  0  0  0  0  0  0  0  0  0  0
   -5.3190   16.0360  -34.2110 C   0  0  0  0  0  0  0  0  0  0  0  0
   -4.7790   15.8350  -32.9560 C   0  0  0  0  0  0  0  0  0  0  0  0
   -5.4990   16.4660  -32.0580 O   0  0  0  0  0  0  0  0  0  0  0  0
   -8.1600   20.1740  -32.6640 C   0  0  0  0  0  0  0  0  0  0  0  0
   -8.0060   21.6270  -32.2080 C   0  0  0  0  0  0  0  0  0  0  0  0
   -4.8880   23.4730  -31.0210 C   0  0  0  0  0  0  0  0  0  0  0  0
   -2.5077   24.3686  -28.2517 H   0  0  0  0  0  0  0  0  0  0  0  0
   -2.3779   23.1044  -29.5213 H   0  0  0  0  0  0  0  0  0  0  0  0
   -1.2434   24.4971  -29.5213 H   0  0  0  0  0  0  0  0  0  0  0  0
   -5.2889   26.2980  -29.1340 H   0  0  0  0  0  0  0  0  0  0  0  0
   -7.6848   25.6874  -29.4567 H   0  0  0  0  0  0  0  0  0  0  0  0
   -8.2959   23.6606  -30.7730 H   0  0  0  0  0  0  0  0  0  0  0  0
   -5.5733   21.2370  -33.6678 H   0  0  0  0  0  0  0  0  0  0  0  0
   -4.5759   21.3997  -32.1711 H   0  0  0  0  0  0  0  0  0  0  0  0
   -5.5171   19.0096  -33.1153 H   0  0  0  0  0  0  0  0  0  0  0  0
   -5.1916   19.3690  -31.3607 H   0  0  0  0  0  0  0  0  0  0  0  0
   -7.6428   17.5163  -30.9354 H   0  0  0  0  0  0  0  0  0  0  0  0
   -8.4712   17.7916  -32.5393 H   0  0  0  0  0  0  0  0  0  0  0  0
   -7.1148   17.2081  -34.8006 H   0  0  0  0  0  0  0  0  0  0  0  0
   -4.9416   15.6383  -35.1646 H   0  0  0  0  0  0  0  0  0  0  0  0
   -3.8813   15.2366  -32.7413 H   0  0  0  0  0  0  0  0  0  0  0  0
   -7.9404   20.0992  -33.7393 H   0  0  0  0  0  0  0  0  0  0  0  0
   -9.1902   19.8336  -32.4827 H   0  0  0  0  0  0  0  0  0  0  0  0
   -8.4028   22.2939  -32.9876 H   0  0  0  0  0  0  0  0  0  0  0  0
   -8.5624   21.7634  -31.2690 H   0  0  0  0  0  0  0  0  0  0  0  0
   -4.0983   22.8516  -31.4685 H   0  0  0  0  0  0  0  0  0  0  0  0
  1  2  1  0
  2  3  1  0
  3  4  2  0
  4  5  1  0
  5  6  2  0
  6  7  1  0
  7  8  1  0
  8  9  1  0
  9 10  1  0
 10 11  1  0
 11 12  1  0
 12 13  1  0
 13 14  2  0
 14 15  1  0
 15 16  2  0
 16 17  1  0
 11 18  1  0
 18 19  1  0
  7 20  2  0
 20  3  1  0
 19  8  1  0
 17 13  1  0
  1 21  1  0
  1 22  1  0
  1 23  1  0
  4 24  1  0
  5 25  1  0
  6 26  1  0
  9 27  1  0
  9 28  1  0
 10 29  1  0
 10 30  1  0
 12 31  1  0
 12 32  1  0
 14 33  1  0
 15 34  1  0
 16 35  1  0
 18 36  1  0
 18 37  1  0
 19 38  1  0
 19 39  1  0
 20 40  1  0
M  END
>  <UniqueID>  (1) 
1

>  <SMILES>  (1) 
COc1cccc(N2CCN(Cc3ccco3)CC2)c1

>  <Energy>  (1) 
77.5267372099767

>  <Genealogy>  (1) 
COc1cccc(N2CCN(Cc3ccco3)CC2)c1 (3D coordinates assigned)
COc1cccc(N2CCN(Cc3ccco3)CC2)c1 (nonaromatic ring conformer: 77.5267372099767 kcal/mol)

>  <smiles>  (1) 
COc1cccc(N2CCN(Cc3ccco3)CC2)c1

>  <score_type>  (1) 
oracle

>  <origin>  (1) 
adg

>  <m_score__min__energy>  (1) 
-7.3499999999999996

>  <m_primary>  (1) 
energy

$$$$
1:0
     RDKit          3D

 34 36  0  0  0  0  0  0  0  0999 V2000
   -3.8970   19.8115  -30.5134 H   0  0  0  0  0  0  0  0  0  0  0  0
   -4.0950   20.7290  -31.0870 C   0  0  0  0  0  0  0  0  0  0  0  0
   -4.8440   20.6320  -32.1950 C   0  0  0  0  0  0  0  0  0  0  0  0
   -4.3472   20.5306  -33.1712 H   0  0  0  0  0  0  0  0  0  0  0  0
   -6.3220   20.6580  -32.1370 C   0  0  0  0  0  0  0  0  0  0  0  0
   -6.9220   21.7570  -31.4990 C   0  0  0  0  0  0  0  0  0  0  0  0
   -6.2945   22.5823  -31.1315 H   0  0  0  0  0  0  0  0  0  0  0  0
   -8.3050   21.8120  -31.3270 C   0  0  0  0  0  0  0  0  0  0  0  0
   -8.7616   22.6755  -30.8211 H   0  0  0  0  0  0  0  0  0  0  0  0
   -9.1090   20.7750  -31.7950 C   0  0  0  0  0  0  0  0  0  0  0  0
  -10.1976   20.8118  -31.6412 H   0  0  0  0  0  0  0  0  0  0  0  0
   -8.5350   19.6890  -32.4590 C   0  0  0  0  0  0  0  0  0  0  0  0
   -9.1774   18.8758  -32.8276 H   0  0  0  0  0  0  0  0  0  0  0  0
   -7.1440   19.6230  -32.6620 C   0  0  0  0  0  0  0  0  0  0  0  0
   -6.6060   18.5060  -33.4770 C   0  0  0  0  0  0  0  0  0  0  0  0
   -6.9010   17.2090  -33.2710 N   0  0  0  0  0  0  0  0  0  0  0  0
   -6.2640   16.5600  -34.2320 N   0  0  0  0  0  0  0  0  0  0  0  0
   -5.6160   17.4210  -34.9990 N   0  0  0  0  0  0  0  0  0  0  0  0
   -5.8150   18.6510  -34.5570 N   0  0  0  0  0  0  0  0  0  0  0  0
   -3.5180   22.0020  -30.5900 C   0  0  0  0  0  0  0  0  0  0  0  0
   -2.3180   22.0510  -29.8550 C   0  0  0  0  0  0  0  0  0  0  0  0
   -1.7776   21.1206  -29.6265 H   0  0  0  0  0  0  0  0  0  0  0  0
   -1.8110   23.2750  -29.4150 C   0  0  0  0  0  0  0  0  0  0  0  0
   -0.8770   23.3036  -28.8347 H   0  0  0  0  0  0  0  0  0  0  0  0
   -2.4840   24.4640  -29.7080 C   0  0  0  0  0  0  0  0  0  0  0  0
   -1.9650   25.6740  -29.2610 O   0  0  0  0  0  0  0  0  0  0  0  0
   -3.6710   24.4400  -30.4490 C   0  0  0  0  0  0  0  0  0  0  0  0
   -4.3130   25.6570  -30.7240 O   0  0  0  0  0  0  0  0  0  0  0  0
   -5.6930   25.9150  -30.4760 C   0  0  0  0  0  0  0  0  0  0  0  0
   -5.8706   25.9482  -29.3909 H   0  0  0  0  0  0  0  0  0  0  0  0
   -5.9715   26.8808  -30.9229 H   0  0  0  0  0  0  0  0  0  0  0  0
   -6.3017   25.1151  -30.9229 H   0  0  0  0  0  0  0  0  0  0  0  0
   -4.1810   23.2040  -30.8930 C   0  0  0  0  0  0  0  0  0  0  0  0
   -5.1087   23.1792  -31.4836 H   0  0  0  0  0  0  0  0  0  0  0  0
  1  2  1  0
  2  3  2  0
  3  4  1  0
  3  5  1  0
  5  6  2  0
  6  7  1  0
  6  8  1  0
  8  9  1  0
  8 10  2  0
 10 11  1  0
 10 12  1  0
 12 13  1  0
 12 14  2  0
 14 15  1  0
 15 16  1  0
 16 17  2  0
 17 18  1  0
 18 19  1  0
  2 20  1  0
 20 21  2  0
 21 22  1  0
 21 23  1  0
 23 24  1  0
 23 25  2  0
 25 26  1  0
 25 27  1  0
 27 28  1  0
 28 29  1  0
 29 30  1  0
 29 31  1  0
 29 32  1  0
 27 33  2  0
 33 34  1  0
 14  5  1  0
 19 15  2  0
 33 20  1  0
M  CHG  2  18  -1  26  -1
M  END
>  <UniqueID>  (2) 
2

>  <SMILES>  (2) 
COc1cc(/C=C/c2ccccc2-c2nn[n-]n2)ccc1[O-]

>  <Energy>  (2) 
86.12734369189438

>  <Genealogy>  (2) 
COc1cc(C=Cc2ccccc2-c2nn[n-]n2)ccc1[O-] (protonated)
COc1cc(/C=C/c2ccccc2-c2nn[n-]n2)ccc1[O-] (cis-trans isomerization)
COc1cc(/C=C/c2ccccc2-c2nn[n-]n2)ccc1[O-] (3D coordinates assigned)
COc1cc(/C=C/c2ccccc2-c2nn[n-]n2)ccc1[O-] (optimized conformer: 86.12734369189438 kcal/mol)

>  <smiles>  (2) 
COc1cc(C=Cc2ccccc2-c2nn[nH]n2)ccc1O

>  <score_type>  (2) 
oracle

>  <origin>  (2) 
adg

>  <m_score__min__energy>  (2) 
-11.5

>  <m_primary>  (2) 
energy

$$$$
2:0
     RDKit          3D

 46 48  0  0  0  0  0  0  0  0999 V2000
   -9.2830   21.5970  -30.8930 C   0  0  0  0  0  0  0  0  0  0  0  0
   -9.1070   20.5270  -31.9660 C   0  0  0  0  0  0  0  0  0  0  0  0
   -7.7830   20.6210  -32.5800 N   0  0  0  0  0  0  0  0  0  0  0  0
   -7.0850   19.4750  -33.0930 C   0  0  0  0  0  0  0  0  0  0  0  0
   -7.6260   18.3340  -33.0650 O   0  0  0  0  0  0  0  0  0  0  0  0
   -5.7150   19.6270  -33.6880 C   0  0  0  0  0  0  0  0  0  0  0  0
   -4.6980   20.0500  -32.6180 C   0  0  0  0  0  0  0  0  0  0  0  0
   -3.9030   21.2990  -33.0240 C   0  0  0  0  0  0  0  0  0  0  0  0
   -3.6520   22.1810  -31.8710 N   0  0  0  0  0  0  0  0  0  0  0  0
   -2.3350   22.2480  -31.2880 C   0  0  0  0  0  0  0  0  0  0  0  0
   -1.3810   21.5940  -31.7910 O   0  0  0  0  0  0  0  0  0  0  0  0
   -2.0840   23.0560  -30.0390 C   0  0  2  0  0  0  0  0  0  0  0  0
   -1.9860   22.1390  -28.8420 C   0  0  0  0  0  0  0  0  0  0  0  0
   -2.8130   21.0050  -28.7300 C   0  0  0  0  0  0  0  0  0  0  0  0
   -2.6990   20.1540  -27.6270 C   0  0  0  0  0  0  0  0  0  0  0  0
   -1.7520   20.4160  -26.6330 C   0  0  0  0  0  0  0  0  0  0  0  0
   -0.9230   21.5350  -26.7370 C   0  0  0  0  0  0  0  0  0  0  0  0
   -1.0350   22.3930  -27.8360 C   0  0  0  0  0  0  0  0  0  0  0  0
   -3.0940   24.0460  -29.8180 O   0  0  0  0  0  0  0  0  0  0  0  0
   -4.3810   23.9800  -30.3590 C   0  0  0  0  0  0  0  0  0  0  0  0
   -5.3730   24.8540  -29.9090 C   0  0  0  0  0  0  0  0  0  0  0  0
   -6.6590   24.7830  -30.4480 C   0  0  0  0  0  0  0  0  0  0  0  0
   -6.9330   23.8340  -31.4350 C   0  0  0  0  0  0  0  0  0  0  0  0
   -5.9510   22.9990  -31.8680 N   0  0  0  0  0  0  0  0  0  0  0  0
   -4.6860   23.0470  -31.3610 C   0  0  0  0  0  0  0  0  0  0  0  0
   -9.2069   21.1344  -29.8979 H   0  0  0  0  0  0  0  0  0  0  0  0
   -8.4983   22.3598  -31.0037 H   0  0  0  0  0  0  0  0  0  0  0  0
  -10.2707   22.0683  -31.0037 H   0  0  0  0  0  0  0  0  0  0  0  0
   -9.2223   19.5338  -31.5074 H   0  0  0  0  0  0  0  0  0  0  0  0
   -9.8687   20.6796  -32.7448 H   0  0  0  0  0  0  0  0  0  0  0  0
   -7.3500   21.5670  -32.6760 H   0  0  0  0  0  0  0  0  0  0  0  0
   -5.4022   18.6661  -34.1226 H   0  0  0  0  0  0  0  0  0  0  0  0
   -5.7529   20.4051  -34.4646 H   0  0  0  0  0  0  0  0  0  0  0  0
   -5.2374   20.2635  -31.6834 H   0  0  0  0  0  0  0  0  0  0  0  0
   -3.9822   19.2243  -32.4921 H   0  0  0  0  0  0  0  0  0  0  0  0
   -2.9386   20.9853  -33.4500 H   0  0  0  0  0  0  0  0  0  0  0  0
   -4.4955   21.8588  -33.7626 H   0  0  0  0  0  0  0  0  0  0  0  0
   -1.1315   23.5881  -30.1790 H   0  0  0  0  0  0  0  0  0  0  0  0
   -3.5527   20.7876  -29.5146 H   0  0  0  0  0  0  0  0  0  0  0  0
   -3.3561   19.2760  -27.5411 H   0  0  0  0  0  0  0  0  0  0  0  0
   -1.6597   19.7412  -25.7692 H   0  0  0  0  0  0  0  0  0  0  0  0
   -0.1801   21.7422  -25.9527 H   0  0  0  0  0  0  0  0  0  0  0  0
   -0.3765   23.2706  -27.9144 H   0  0  0  0  0  0  0  0  0  0  0  0
   -5.1416   25.5969  -29.1314 H   0  0  0  0  0  0  0  0  0  0  0  0
   -7.4471   25.4666  -30.0992 H   0  0  0  0  0  0  0  0  0  0  0  0
   -7.9439   23.7618  -31.8625 H   0  0  0  0  0  0  0  0  0  0  0  0
  1  2  1  0
  2  3  1  0
  3  4  1  0
  4  5  2  0
  4  6  1  0
  6  7  1  0
  7  8  1  0
  8  9  1  0
  9 10  1  0
 10 11  2  0
 10 12  1  0
 12 13  1  0
 13 14  2  0
 14 15  1  0
 15 16  2  0
 16 17  1  0
 17 18  2  0
 12 19  1  0
 19 20  1  0
 20 21  2  0
 21 22  1  0
 22 23  2  0
 23 24  1  0
 24 25  2  0
 25  9  1  0
 18 13  1  0
 25 20  1  0
  1 26  1  0
  1 27  1  0
  1 28  1  0
  2 29  1  0
  2 30  1  0
  3 31  1  0
  6 32  1  0
  6 33  1  0
  7 34  1  0
  7 35  1  0
  8 36  1  0
  8 37  1  0
 12 38  1  6
 14 39  1  0
 15 40  1  0
 16 41  1  0
 17 42  1  0
 18 43  1  0
 21 44  1  0
 22 45  1  0
 23 46  1  0
M  END
>  <UniqueID>  (3) 
3

>  <SMILES>  (3) 
CCNC(=O)CCCN1C(=O)[C@H](c2ccccc2)Oc2cccnc21

>  <Energy>  (3) 
41.3684363676776

>  <Genealogy>  (3) 
CCNC(=O)CCCN1C(=O)[C@H](c2ccccc2)Oc2cccnc21 (chirality)
CCNC(=O)CCCN1C(=O)[C@H](c2ccccc2)Oc2cccnc21 (3D coordinates assigned)
CCNC(=O)CCCN1C(=O)[C@H](c2ccccc2)Oc2cccnc21 (nonaromatic ring conformer: 41.3684363676776 kcal/mol)

>  <smiles>  (3) 
CCNC(=O)CCCN1C(=O)C(c2ccccc2)Oc2cccnc21

>  <score_type>  (3) 
oracle

>  <origin>  (3) 
adg

>  <m_score__min__energy>  (3) 
-7.9400000000000004

>  <m_primary>  (3) 
energy

$$$$
3:0
     RDKit          3D

 32 34  0  0  0  0  0  0  0  0999 V2000
   -8.7360   19.4580  -31.6300 C   0  0  0  0  0  0  0  0  0  0  0  0
   -8.1430   18.1950  -31.5580 C   0  0  0  0  0  0  0  0  0  0  0  0
   -7.1200   17.8490  -32.4460 C   0  0  0  0  0  0  0  0  0  0  0  0
   -6.6900   18.7660  -33.4200 C   0  0  0  0  0  0  0  0  0  0  0  0
   -5.5670   18.4090  -34.3520 C   0  0  0  0  0  0  0  0  0  0  0  0
   -3.9900   18.4350  -33.4400 S   0  0  0  0  0  0  0  0  0  0  0  0
   -4.0830   20.1930  -33.1140 C   0  0  0  0  0  0  0  0  0  0  0  0
   -3.4050   21.1290  -33.7950 N   0  0  0  0  0  0  0  0  0  0  0  0
   -3.7260   22.3030  -33.2800 N   0  0  0  0  0  0  0  0  0  0  0  0
   -4.6010   22.0330  -32.2860 C   0  0  0  0  0  0  0  0  0  0  0  0
   -5.2300   23.0570  -31.4290 C   0  0  0  0  0  0  0  0  0  0  0  0
   -4.4310   23.9160  -30.6550 C   0  0  0  0  0  0  0  0  0  0  0  0
   -5.0220   24.8870  -29.8410 C   0  0  0  0  0  0  0  0  0  0  0  0
   -6.4130   25.0100  -29.7920 C   0  0  0  0  0  0  0  0  0  0  0  0
   -7.2160   24.1600  -30.5590 C   0  0  0  0  0  0  0  0  0  0  0  0
   -6.6280   23.1860  -31.3740 C   0  0  0  0  0  0  0  0  0  0  0  0
   -4.8210   20.7400  -32.1810 O   0  0  0  0  0  0  0  0  0  0  0  0
   -7.2790   20.0390  -33.4770 C   0  0  0  0  0  0  0  0  0  0  0  0
   -8.3030   20.3810  -32.5860 C   0  0  0  0  0  0  0  0  0  0  0  0
   -9.5443   19.7261  -30.9337 H   0  0  0  0  0  0  0  0  0  0  0  0
   -8.4815   17.4717  -30.8015 H   0  0  0  0  0  0  0  0  0  0  0  0
   -6.6505   16.8563  -32.3820 H   0  0  0  0  0  0  0  0  0  0  0  0
   -5.7368   17.4026  -34.7623 H   0  0  0  0  0  0  0  0  0  0  0  0
   -5.5271   19.1382  -35.1746 H   0  0  0  0  0  0  0  0  0  0  0  0
   -2.7450   20.9830  -34.5900 H   0  0  0  0  0  0  0  0  0  0  0  0
   -3.3354   23.8239  -30.6898 H   0  0  0  0  0  0  0  0  0  0  0  0
   -4.3904   25.5557  -29.2377 H   0  0  0  0  0  0  0  0  0  0  0  0
   -6.8759   25.7746  -29.1508 H   0  0  0  0  0  0  0  0  0  0  0  0
   -8.3111   24.2571  -30.5217 H   0  0  0  0  0  0  0  0  0  0  0  0
   -7.2634   22.5183  -31.9744 H   0  0  0  0  0  0  0  0  0  0  0  0
   -6.9349   20.7697  -34.2238 H   0  0  0  0  0  0  0  0  0  0  0  0
   -8.7672   21.3769  -32.6383 H   0  0  0  0  0  0  0  0  0  0  0  0
  1  2  2  0
  2  3  1  0
  3  4  2  0
  4  5  1  0
  5  6  1  0
  6  7  1  0
  7  8  2  0
  8  9  1  0
  9 10  2  0
 10 11  1  0
 11 12  2  0
 12 13  1  0
 13 14  2  0
 14 15  1  0
 15 16  2  0
 10 17  1  0
  4 18  1  0
 18 19  2  0
 19  1  1  0
 17  7  1  0
 16 11  1  0
  1 20  1  0
  2 21  1  0
  3 22  1  0
  5 23  1  0
  5 24  1  0
  8 25  1  0
 12 26  1  0
 13 27  1  0
 14 28  1  0
 15 29  1  0
 16 30  1  0
 18 31  1  0
 19 32  1  0
M  CHG  1   8   1
M  END
>  <UniqueID>  (4) 
4

>  <SMILES>  (4) 
c1ccc(CSc2[nH+]nc(-c3ccccc3)o2)cc1

>  <Energy>  (4) 
65.75418332465333

>  <Genealogy>  (4) 
c1ccc(CSc2[nH+]nc(-c3ccccc3)o2)cc1 (protonated)
c1ccc(CSc2[nH+]nc(-c3ccccc3)o2)cc1 (3D coordinates assigned)
c1ccc(CSc2[nH+]nc(-c3ccccc3)o2)cc1 (optimized conformer: 65.75418332465333 kcal/mol)

>  <smiles>  (4) 
c1ccc(CSc2nnc(-c3ccccc3)o2)cc1

>  <score_type>  (4) 
oracle

>  <origin>  (4) 
adg

>  <m_score__min__energy>  (4) 
-7.1799999999999997

>  <m_primary>  (4) 
energy

$$$$
4:0
     RDKit          3D

 27 29  0  0  0  0  0  0  0  0999 V2000
   -8.4340   18.9490  -31.2500 C   0  0  0  0  0  0  0  0  0  0  0  0
   -7.0290   18.8730  -31.4740 O   0  0  0  0  0  0  0  0  0  0  0  0
   -6.4310   18.3100  -32.6120 C   0  0  0  0  0  0  0  0  0  0  0  0
   -6.8190   17.0480  -33.1060 C   0  0  0  0  0  0  0  0  0  0  0  0
   -6.2430   16.5380  -34.2720 C   0  0  0  0  0  0  0  0  0  0  0  0
   -5.2810   17.2770  -34.9600 C   0  0  0  0  0  0  0  0  0  0  0  0
   -4.8810   18.5240  -34.4770 C   0  0  0  0  0  0  0  0  0  0  0  0
   -5.4340   19.0410  -33.2950 C   0  0  0  0  0  0  0  0  0  0  0  0
   -4.9940   20.3230  -32.8170 N   0  0  0  0  0  0  0  0  0  0  0  0
   -3.7170   20.6410  -32.6420 N   0  0  0  0  0  0  0  0  0  0  0  0
   -3.6510   21.8990  -32.1480 C   0  0  0  0  0  0  0  0  0  0  0  0
   -4.9350   22.3860  -31.9910 C   0  0  0  0  0  0  0  0  0  0  0  0
   -5.3660   23.6090  -31.4930 C   0  0  0  0  0  0  0  0  0  0  0  0
   -4.5670   24.5090  -31.1220 O   0  0  0  0  0  0  0  0  0  0  0  0
   -7.0450   23.8170  -31.4080 S   0  0  0  0  0  0  0  0  0  0  0  0
   -7.8580   22.4250  -31.9630 C   0  0  0  0  0  0  0  0  0  0  0  0
   -9.4880   22.3670  -31.9760 S   0  0  0  0  0  0  0  0  0  0  0  0
   -7.1270   21.3610  -32.3940 N   0  0  0  0  0  0  0  0  0  0  0  0
   -5.7610   21.3580  -32.4190 C   0  0  0  0  0  0  0  0  0  0  0  0
   -8.6328   18.9598  -30.1682 H   0  0  0  0  0  0  0  0  0  0  0  0
   -8.8285   19.8698  -31.7044 H   0  0  0  0  0  0  0  0  0  0  0  0
   -8.9255   18.0761  -31.7044 H   0  0  0  0  0  0  0  0  0  0  0  0
   -7.5798   16.4614  -32.5702 H   0  0  0  0  0  0  0  0  0  0  0  0
   -6.5491   15.5508  -34.6485 H   0  0  0  0  0  0  0  0  0  0  0  0
   -4.8373   16.8770  -35.8836 H   0  0  0  0  0  0  0  0  0  0  0  0
   -4.1267   19.1060  -35.0268 H   0  0  0  0  0  0  0  0  0  0  0  0
   -2.7262   22.4451  -31.9101 H   0  0  0  0  0  0  0  0  0  0  0  0
  1  2  1  0
  2  3  1  0
  3  4  2  0
  4  5  1  0
  5  6  2  0
  6  7  1  0
  7  8  2  0
  8  9  1  0
  9 10  1  0
 10 11  2  0
 11 12  1  0
 12 13  1  0
 13 14  2  0
 13 15  1  0
 15 16  1  0
 16 17  2  0
 16 18  1  0
 18 19  1  0
  8  3  1  0
 19  9  1  0
 19 12  2  0
  1 20  1  0
  1 21  1  0
  1 22  1  0
  4 23  1  0
  5 24  1  0
  6 25  1  0
  7 26  1  0
 11 27  1  0
M  CHG  1  18  -1
M  END
>  <UniqueID>  (5) 
5

>  <SMILES>  (5) 
COc1ccccc1-n1ncc2c(=O)sc(=S)[n-]c21

>  <Energy>  (5) 
72.11628692007032

>  <Genealogy>  (5) 
COc1ccccc1-n1ncc2c(=O)sc(=S)[n-]c21 (protonated)
COc1ccccc1-n1ncc2c(=O)sc(=S)[n-]c21 (3D coordinates assigned)
COc1ccccc1-n1ncc2c(=O)sc(=S)[n-]c21 (optimized conformer: 72.11628692007032 kcal/mol)

>  <smiles>  (5) 
COc1ccccc1-n1ncc2c(=O)sc(=S)[nH]c21

>  <score_type>  (5) 
oracle

>  <origin>  (5) 
adg

>  <m_score__min__energy>  (5) 
-7.2599999999999998

>  <m_primary>  (5) 
energy

$$$$
5:0
     RDKit          3D

 33 35  0  0  0  0  0  0  0  0999 V2000
   -2.2960   17.9170  -33.7080 C   0  0  0  0  0  0  0  0  0  0  0  0
   -3.2140   19.0670  -33.4150 C   0  0  0  0  0  0  0  0  0  0  0  0
   -2.7450   20.3790  -33.5210 C   0  0  0  0  0  0  0  0  0  0  0  0
   -3.6140   21.4400  -33.2850 C   0  0  0  0  0  0  0  0  0  0  0  0
   -4.9520   21.1950  -32.9410 C   0  0  0  0  0  0  0  0  0  0  0  0
   -5.8360   22.2550  -32.6850 O   0  0  0  0  0  0  0  0  0  0  0  0
   -5.7470   23.1490  -31.6090 C   0  0  0  0  0  0  0  0  0  0  0  0
   -6.9100   23.8030  -31.1830 C   0  0  0  0  0  0  0  0  0  0  0  0
   -6.8670   24.6890  -30.1020 C   0  0  0  0  0  0  0  0  0  0  0  0
   -5.6620   24.9180  -29.4310 C   0  0  0  0  0  0  0  0  0  0  0  0
   -4.5010   24.2540  -29.8360 C   0  0  0  0  0  0  0  0  0  0  0  0
   -4.5410   23.3680  -30.9170 C   0  0  0  0  0  0  0  0  0  0  0  0
   -5.4080   19.8590  -32.8890 C   0  0  0  0  0  0  0  0  0  0  0  0
   -6.8230   19.5420  -32.5710 C   0  0  0  0  0  0  0  0  0  0  0  0
   -7.9030   20.4130  -32.7020 C   0  0  0  0  0  0  0  0  0  0  0  0
   -9.1220   19.8590  -32.2940 C   0  0  0  0  0  0  0  0  0  0  0  0
   -9.0180   18.5540  -31.8330 C   0  0  0  0  0  0  0  0  0  0  0  0
   -7.4060   18.0930  -31.9340 S   0  0  0  0  0  0  0  0  0  0  0  0
   -4.5270   18.8400  -33.1230 N   0  0  0  0  0  0  0  0  0  0  0  0
   -1.9453   17.4777  -32.7625 H   0  0  0  0  0  0  0  0  0  0  0  0
   -2.8368   17.1548  -34.2882 H   0  0  0  0  0  0  0  0  0  0  0  0
   -1.4329   18.2754  -34.2882 H   0  0  0  0  0  0  0  0  0  0  0  0
   -1.6958   20.5719  -33.7892 H   0  0  0  0  0  0  0  0  0  0  0  0
   -3.2505   22.4748  -33.3685 H   0  0  0  0  0  0  0  0  0  0  0  0
   -7.8624   23.6187  -31.7016 H   0  0  0  0  0  0  0  0  0  0  0  0
   -7.7824   25.2065  -29.7792 H   0  0  0  0  0  0  0  0  0  0  0  0
   -5.6278   25.6202  -28.5850 H   0  0  0  0  0  0  0  0  0  0  0  0
   -3.5544   24.4286  -29.3037 H   0  0  0  0  0  0  0  0  0  0  0  0
   -3.6271   22.8405  -31.2276 H   0  0  0  0  0  0  0  0  0  0  0  0
   -7.8067   21.4381  -33.0891 H   0  0  0  0  0  0  0  0  0  0  0  0
  -10.0747   20.4074  -32.3350 H   0  0  0  0  0  0  0  0  0  0  0  0
   -9.8465   17.9306  -31.4657 H   0  0  0  0  0  0  0  0  0  0  0  0
   -4.8650   17.8510  -33.1010 H   0  0  0  0  0  0  0  0  0  0  0  0
  1  2  1  0
  2  3  2  0
  3  4  1  0
  4  5  2  0
  5  6  1  0
  6  7  1  0
  7  8  2  0
  8  9  1  0
  9 10  2  0
 10 11  1  0
 11 12  2  0
  5 13  1  0
 13 14  1  0
 14 15  2  0
 15 16  1  0
 16 17  2  0
 17 18  1  0
 13 19  2  0
 19  2  1  0
 12  7  1  0
 18 14  1  0
  1 20  1  0
  1 21  1  0
  1 22  1  0
  3 23  1  0
  4 24  1  0
  8 25  1  0
  9 26  1  0
 10 27  1  0
 11 28  1  0
 12 29  1  0
 15 30  1  0
 16 31  1  0
 17 32  1  0
 19 33  1  0
M  CHG  1  19   1
M  END
>  <UniqueID>  (6) 
6

>  <SMILES>  (6) 
Cc1ccc(Oc2ccccc2)c(-c2cccs2)[nH+]1

>  <Energy>  (6) 
71.16534606517723

>  <Genealogy>  (6) 
Cc1ccc(Oc2ccccc2)c(-c2cccs2)[nH+]1 (protonated)
Cc1ccc(Oc2ccccc2)c(-c2cccs2)[nH+]1 (3D coordinates assigned)
Cc1ccc(Oc2ccccc2)c(-c2cccs2)[nH+]1 (optimized conformer: 71.16534606517723 kcal/mol)

>  <smiles>  (6) 
Cc1ccc(Oc2ccccc2)c(-c2cccs2)n1

>  <score_type>  (6) 
oracle

>  <origin>  (6) 
adg

>  <m_score__min__energy>  (6) 
-6.3600000000000003

>  <m_primary>  (6) 
energy

$$$$
6:0
     RDKit          3D

 50 52  0  0  0  0  0  0  0  0999 V2000
   -9.0780   18.5910  -31.8070 C   0  0  0  0  0  0  0  0  0  0  0  0
   -9.1960   19.8450  -32.2520 C   0  0  0  0  0  0  0  0  0  0  0  0
   -9.1250   21.0180  -31.3180 C   0  0  0  0  0  0  0  0  0  0  0  0
   -8.0490   21.9460  -31.7440 N   0  0  0  0  0  0  0  0  0  0  0  0
   -7.3400   22.5860  -30.6110 C   0  0  0  0  0  0  0  0  0  0  0  0
   -6.6760   23.9000  -31.0500 C   0  0  0  0  0  0  0  0  0  0  0  0
   -6.1200   24.7100  -29.8670 C   0  0  0  0  0  0  0  0  0  0  0  0
   -4.5990   24.5690  -29.7130 C   0  0  0  0  0  0  0  0  0  0  0  0
   -4.0050   24.1780  -30.9510 O   0  0  0  0  0  0  0  0  0  0  0  0
   -3.4630   22.9120  -31.2310 C   0  0  0  0  0  0  0  0  0  0  0  0
   -2.8350   22.2110  -30.1750 C   0  0  0  0  0  0  0  0  0  0  0  0
   -2.2740   20.9390  -30.3900 C   0  0  0  0  0  0  0  0  0  0  0  0
   -2.3610   20.3990  -31.6690 C   0  0  0  0  0  0  0  0  0  0  0  0
   -2.9630   21.0600  -32.6870 C   0  0  0  0  0  0  0  0  0  0  0  0
   -3.5310   22.3200  -32.5180 C   0  0  0  0  0  0  0  0  0  0  0  0
   -2.9050   20.2930  -33.8340 O   0  0  0  0  0  0  0  0  0  0  0  0
   -2.2220   19.0710  -33.5150 C   0  0  0  0  0  0  0  0  0  0  0  0
   -1.8930   19.1810  -32.1230 O   0  0  0  0  0  0  0  0  0  0  0  0
   -7.1150   21.3220  -32.7090 C   0  0  0  0  0  0  0  0  0  0  0  0
   -6.0560   20.4200  -32.0440 C   0  0  0  0  0  0  0  0  0  0  0  0
   -5.8870   19.1520  -32.8270 C   0  0  0  0  0  0  0  0  0  0  0  0
   -5.8380   19.1150  -34.2300 C   0  0  0  0  0  0  0  0  0  0  0  0
   -5.7270   17.8320  -34.7470 C   0  0  0  0  0  0  0  0  0  0  0  0
   -5.7050   16.7510  -33.4610 S   0  0  0  0  0  0  0  0  0  0  0  0
   -5.8330   17.8940  -32.2350 C   0  0  0  0  0  0  0  0  0  0  0  0
   -9.1338   17.7493  -32.5130 H   0  0  0  0  0  0  0  0  0  0  0  0
   -8.9251   18.4001  -30.7345 H   0  0  0  0  0  0  0  0  0  0  0  0
   -9.3486   20.0220  -33.3269 H   0  0  0  0  0  0  0  0  0  0  0  0
  -10.0882   21.5492  -31.3276 H   0  0  0  0  0  0  0  0  0  0  0  0
   -8.9065   20.6562  -30.3025 H   0  0  0  0  0  0  0  0  0  0  0  0
   -8.0617   22.7981  -29.8084 H   0  0  0  0  0  0  0  0  0  0  0  0
   -6.5579   21.8998  -30.2539 H   0  0  0  0  0  0  0  0  0  0  0  0
   -5.8480   23.6640  -31.7346 H   0  0  0  0  0  0  0  0  0  0  0  0
   -7.4468   24.5138  -31.5390 H   0  0  0  0  0  0  0  0  0  0  0  0
   -6.3606   25.7718  -30.0239 H   0  0  0  0  0  0  0  0  0  0  0  0
   -6.5838   24.3182  -28.9498 H   0  0  0  0  0  0  0  0  0  0  0  0
   -4.1761   25.5342  -29.3975 H   0  0  0  0  0  0  0  0  0  0  0  0
   -4.3880   23.7975  -28.9579 H   0  0  0  0  0  0  0  0  0  0  0  0
   -2.7848   22.6656  -29.1746 H   0  0  0  0  0  0  0  0  0  0  0  0
   -1.7827   20.3894  -29.5736 H   0  0  0  0  0  0  0  0  0  0  0  0
   -4.0173   22.8400  -33.3565 H   0  0  0  0  0  0  0  0  0  0  0  0
   -2.8773   18.2050  -33.6900 H   0  0  0  0  0  0  0  0  0  0  0  0
   -1.3290   18.9220  -34.1397 H   0  0  0  0  0  0  0  0  0  0  0  0
   -7.6988   20.7120  -33.4140 H   0  0  0  0  0  0  0  0  0  0  0  0
   -6.5755   22.1384  -33.2114 H   0  0  0  0  0  0  0  0  0  0  0  0
   -5.0954   20.9546  -32.0072 H   0  0  0  0  0  0  0  0  0  0  0  0
   -6.3873   20.1702  -31.0253 H   0  0  0  0  0  0  0  0  0  0  0  0
   -5.8833   20.0165  -34.8587 H   0  0  0  0  0  0  0  0  0  0  0  0
   -5.6643   17.5686  -35.8132 H   0  0  0  0  0  0  0  0  0  0  0  0
   -5.8679   17.6845  -31.1557 H   0  0  0  0  0  0  0  0  0  0  0  0
  1  2  2  0
  2  3  1  0
  3  4  1  0
  4  5  1  0
  5  6  1  0
  6  7  1  0
  7  8  1  0
  8  9  1  0
  9 10  1  0
 10 11  2  0
 11 12  1  0
 12 13  2  0
 13 14  1  0
 14 15  2  0
 14 16  1  0
 16 17  1  0
 17 18  1  0
  4 19  1  0
 19 20  1  0
 20 21  1  0
 21 22  1  0
 22 23  2  0
 23 24  1  0
 24 25  1  0
 15 10  1  0
 25 21  2  0
 18 13  1  0
  1 26  1  0
  1 27  1  0
  2 28  1  0
  3 29  1  0
  3 30  1  0
  5 31  1  0
  5 32  1  0
  6 33  1  0
  6 34  1  0
  7 35  1  0
  7 36  1  0
  8 37  1  0
  8 38  1  0
 11 39  1  0
 12 40  1  0
 15 41  1  0
 17 42  1  0
 17 43  1  0
 19 44  1  0
 19 45  1  0
 20 46  1  0
 20 47  1  0
 22 48  1  0
 23 49  1  0
 25 50  1  0
M  END
>  <UniqueID>  (7) 
7

>  <SMILES>  (7) 
C=CCN(CCCCOc1ccc2c(c1)OCO2)CCc1ccsc1

>  <Energy>  (7) 
99.95984597751293

>  <Genealogy>  (7) 
C=CCN(CCCCOc1ccc2c(c1)OCO2)CCc1ccsc1 (3D coordinates assigned)
C=CCN(CCCCOc1ccc2c(c1)OCO2)CCc1ccsc1 (nonaromatic ring conformer: 99.95984597751293 kcal/mol)

>  <smiles>  (7) 
C=CCN(CCCCOc1ccc2c(c1)OCO2)CCc1ccsc1

>  <score_type>  (7) 
oracle

>  <origin>  (7) 
adg

>  <m_score__min__energy>  (7) 
-7.8200000000000003

>  <m_primary>  (7) 
energy

$$$$
7:0
     RDKit          3D

 36 36  0  0  0  0  0  0  0  0999 V2000
    0.4890   24.0190  -24.8760 C   0  0  0  0  0  0  0  0  0  0  0  0
   -0.8570   24.7360  -24.8940 C   0  0  0  0  0  0  0  0  0  0  0  0
   -0.7510   26.0440  -25.5640 N   0  0  0  0  0  0  0  0  0  0  0  0
   -0.5970   27.2460  -24.7270 C   0  0  0  0  0  0  0  0  0  0  0  0
   -0.5150   26.8790  -23.2470 C   0  0  0  0  0  0  0  0  0  0  0  0
   -0.6910   26.1800  -27.0080 C   0  0  0  0  0  0  0  0  0  0  0  0
   -0.5620   27.3260  -27.5210 O   0  0  0  0  0  0  0  0  0  0  0  0
   -0.7690   25.0020  -27.9450 C   0  0  0  0  0  0  0  0  0  0  0  0
   -1.6430   25.2870  -29.0810 N   0  0  0  0  0  0  0  0  0  0  0  0
   -2.7620   24.4420  -29.3890 C   0  0  0  0  0  0  0  0  0  0  0  0
   -2.9450   23.3780  -28.7410 O   0  0  0  0  0  0  0  0  0  0  0  0
   -3.6400   24.7490  -30.4790 N   0  0  0  0  0  0  0  0  0  0  0  0
   -4.8450   24.0450  -30.8030 C   0  0  0  0  0  0  0  0  0  0  0  0
   -4.8670   23.0440  -31.7900 C   0  0  0  0  0  0  0  0  0  0  0  0
   -6.0660   22.3980  -32.1090 C   0  0  0  0  0  0  0  0  0  0  0  0
   -7.2510   22.7560  -31.4580 C   0  0  0  0  0  0  0  0  0  0  0  0
   -8.8860   21.8720  -31.8950 Br  0  0  0  0  0  0  0  0  0  0  0  0
   -7.2380   23.7710  -30.4950 C   0  0  0  0  0  0  0  0  0  0  0  0
   -6.0410   24.4190  -30.1770 C   0  0  0  0  0  0  0  0  0  0  0  0
    0.8018   23.8524  -23.8347 H   0  0  0  0  0  0  0  0  0  0  0  0
    0.3957   23.0511  -25.3902 H   0  0  0  0  0  0  0  0  0  0  0  0
    1.2403   24.6364  -25.3902 H   0  0  0  0  0  0  0  0  0  0  0  0
   -1.5881   24.1147  -25.4320 H   0  0  0  0  0  0  0  0  0  0  0  0
   -1.1800   24.9000  -23.8554 H   0  0  0  0  0  0  0  0  0  0  0  0
    0.3246   27.7710  -25.0185 H   0  0  0  0  0  0  0  0  0  0  0  0
   -1.4745   27.8918  -24.8785 H   0  0  0  0  0  0  0  0  0  0  0  0
   -0.7145   27.7718  -22.6362 H   0  0  0  0  0  0  0  0  0  0  0  0
   -1.2623   26.1045  -23.0193 H   0  0  0  0  0  0  0  0  0  0  0  0
    0.4908   26.4962  -23.0193 H   0  0  0  0  0  0  0  0  0  0  0  0
    0.2402   24.7725  -28.3175 H   0  0  0  0  0  0  0  0  0  0  0  0
   -1.1831   24.1451  -27.3934 H   0  0  0  0  0  0  0  0  0  0  0  0
   -1.4130   26.0770  -29.7260 H   0  0  0  0  0  0  0  0  0  0  0  0
   -3.9392   22.7682  -32.3126 H   0  0  0  0  0  0  0  0  0  0  0  0
   -6.0769   21.6070  -32.8733 H   0  0  0  0  0  0  0  0  0  0  0  0
   -8.1705   24.0592  -29.9878 H   0  0  0  0  0  0  0  0  0  0  0  0
   -6.0382   25.2273  -29.4309 H   0  0  0  0  0  0  0  0  0  0  0  0
  1  2  1  0
  2  3  1  0
  3  4  1  0
  4  5  1  0
  3  6  1  0
  6  7  2  0
  6  8  1  0
  8  9  1  0
  9 10  1  0
 10 11  2  0
 10 12  1  0
 12 13  1  0
 13 14  2  0
 14 15  1  0
 15 16  2  0
 16 17  1  0
 16 18  1  0
 18 19  2  0
 19 13  1  0
  1 20  1  0
  1 21  1  0
  1 22  1  0
  2 23  1  0
  2 24  1  0
  4 25  1  0
  4 26  1  0
  5 27  1  0
  5 28  1  0
  5 29  1  0
  8 30  1  0
  8 31  1  0
  9 32  1  0
 14 33  1  0
 15 34  1  0
 18 35  1  0
 19 36  1  0
M  CHG  1  12  -1
M  END
>  <UniqueID>  (8) 
8

>  <SMILES>  (8) 
CCN(CC)C(=O)CNC(=O)[N-]c1ccc(Br)cc1

>  <Energy>  (8) 
28.869350011780845

>  <Genealogy>  (8) 
CCN(CC)C(=O)CNC(=O)[N-]c1ccc(Br)cc1 (protonated)
CCN(CC)C(=O)CNC(=O)[N-]c1ccc(Br)cc1 (3D coordinates assigned)
CCN(CC)C(=O)CNC(=O)[N-]c1ccc(Br)cc1 (optimized conformer: 28.869350011780845 kcal/mol)

>  <smiles>  (8) 
CCN(CC)C(=O)CNC(=O)Nc1ccc(Br)cc1

>  <score_type>  (8) 
oracle

>  <origin>  (8) 
adg

>  <m_score__min__energy>  (8) 
-8.5999999999999996

>  <m_primary>  (8) 
energy

$$$$
8:0
     RDKit          3D

 44 48  0  0  0  0  0  0  0  0999 V2000
   -2.0590   23.4070  -30.0240 C   0  0  0  0  0  0  0  0  0  0  0  0
   -1.7460   23.9750  -28.6740 C   0  0  0  0  0  0  0  0  0  0  0  0
   -0.4450   24.0200  -28.2640 N   0  0  0  0  0  0  0  0  0  0  0  0
   -0.0980   24.4950  -27.0320 C   0  0  0  0  0  0  0  0  0  0  0  0
    1.2470   24.5240  -26.6460 C   0  0  0  0  0  0  0  0  0  0  0  0
    1.6020   25.0000  -25.3800 C   0  0  0  0  0  0  0  0  0  0  0  0
    0.6170   25.4460  -24.4930 C   0  0  0  0  0  0  0  0  0  0  0  0
   -0.7310   25.4230  -24.8640 C   0  0  0  0  0  0  0  0  0  0  0  0
   -1.0950   24.9480  -26.1350 C   0  0  0  0  0  0  0  0  0  0  0  0
   -2.4160   24.8930  -26.5910 C   0  0  0  0  0  0  0  0  0  0  0  0
   -3.5330   25.2450  -25.9240 N   0  0  0  0  0  0  0  0  0  0  0  0
   -4.5640   25.0260  -26.7290 N   0  0  0  0  0  0  0  0  0  0  0  0
   -4.0580   24.5440  -27.8850 C   0  0  0  0  0  0  0  0  0  0  0  0
   -4.9020   24.2280  -29.0460 C   0  0  0  0  0  0  0  0  0  0  0  0
   -5.5520   22.9880  -29.1300 C   0  0  0  0  0  0  0  0  0  0  0  0
   -6.3540   22.6920  -30.2340 C   0  0  0  0  0  0  0  0  0  0  0  0
   -6.5040   23.6280  -31.2650 C   0  0  0  0  0  0  0  0  0  0  0  0
   -7.5650   23.2610  -32.6640 S   0  0  0  0  0  0  0  0  0  0  0  0
   -7.5260   21.4920  -32.3510 C   0  0  0  0  0  0  0  0  0  0  0  0
   -6.3610   20.7550  -32.6160 C   0  0  0  0  0  0  0  0  0  0  0  0
   -5.2610   21.3650  -33.1210 F   0  0  0  0  0  0  0  0  0  0  0  0
   -6.3300   19.3800  -32.3580 C   0  0  0  0  0  0  0  0  0  0  0  0
   -7.4580   18.7370  -31.8410 C   0  0  0  0  0  0  0  0  0  0  0  0
   -8.6230   19.4670  -31.5850 C   0  0  0  0  0  0  0  0  0  0  0  0
   -8.6600   20.8410  -31.8400 C   0  0  0  0  0  0  0  0  0  0  0  0
   -9.7980   21.5360  -31.5910 F   0  0  0  0  0  0  0  0  0  0  0  0
   -5.8260   24.8510  -31.2000 C   0  0  0  0  0  0  0  0  0  0  0  0
   -5.0230   25.1480  -30.0960 C   0  0  0  0  0  0  0  0  0  0  0  0
   -2.7070   24.4430  -27.8220 N   0  0  0  0  0  0  0  0  0  0  0  0
   -2.5868   22.4492  -29.9054 H   0  0  0  0  0  0  0  0  0  0  0  0
   -2.6967   24.1108  -30.5791 H   0  0  0  0  0  0  0  0  0  0  0  0
   -1.1234   23.2438  -30.5791 H   0  0  0  0  0  0  0  0  0  0  0  0
    2.0254   24.1721  -27.3390 H   0  0  0  0  0  0  0  0  0  0  0  0
    2.6602   25.0237  -25.0806 H   0  0  0  0  0  0  0  0  0  0  0  0
    0.9043   25.8169  -23.4981 H   0  0  0  0  0  0  0  0  0  0  0  0
   -1.5029   25.7752  -24.1639 H   0  0  0  0  0  0  0  0  0  0  0  0
   -3.6130   25.6210  -24.9550 H   0  0  0  0  0  0  0  0  0  0  0  0
   -5.4299   22.2480  -28.3254 H   0  0  0  0  0  0  0  0  0  0  0  0
   -6.8690   21.7218  -30.2941 H   0  0  0  0  0  0  0  0  0  0  0  0
   -5.4156   18.8038  -32.5626 H   0  0  0  0  0  0  0  0  0  0  0  0
   -7.4295   17.6568  -31.6354 H   0  0  0  0  0  0  0  0  0  0  0  0
   -9.5118   18.9592  -31.1823 H   0  0  0  0  0  0  0  0  0  0  0  0
   -5.9256   25.5788  -32.0188 H   0  0  0  0  0  0  0  0  0  0  0  0
   -4.4846   26.1061  -30.0509 H   0  0  0  0  0  0  0  0  0  0  0  0
  1  2  1  0
  2  3  2  0
  3  4  1  0
  4  5  2  0
  5  6  1  0
  6  7  2  0
  7  8  1  0
  8  9  2  0
  9 10  1  0
 10 11  2  0
 11 12  1  0
 12 13  2  0
 13 14  1  0
 14 15  2  0
 15 16  1  0
 16 17  2  0
 17 18  1  0
 18 19  1  0
 19 20  2  0
 20 21  1  0
 20 22  1  0
 22 23  2  0
 23 24  1  0
 24 25  2  0
 25 26  1  0
 17 27  1  0
 27 28  2  0
 13 29  1  0
 29  2  1  0
  9  4  1  0
 29 10  1  0
 28 14  1  0
 25 19  1  0
  1 30  1  0
  1 31  1  0
  1 32  1  0
  5 33  1  0
  6 34  1  0
  7 35  1  0
  8 36  1  0
 11 37  1  0
 15 38  1  0
 16 39  1  0
 22 40  1  0
 23 41  1  0
 24 42  1  0
 27 43  1  0
 28 44  1  0
M  CHG  1  11   1
M  END
>  <UniqueID>  (9) 
9

>  <SMILES>  (9) 
Cc1nc2ccccc2c2[nH+]nc(-c3ccc(Sc4c(F)cccc4F)cc3)n12

>  <Energy>  (9) 
100.24145987347788

>  <Genealogy>  (9) 
Cc1nc2ccccc2c2[nH+]nc(-c3ccc(Sc4c(F)cccc4F)cc3)n12 (protonated)
Cc1nc2ccccc2c2[nH+]nc(-c3ccc(Sc4c(F)cccc4F)cc3)n12 (3D coordinates assigned)
Cc1nc2ccccc2c2[nH+]nc(-c3ccc(Sc4c(F)cccc4F)cc3)n12 (optimized conformer: 100.24145987347788 kcal/mol)

>  <smiles>  (9) 
Cc1nc2ccccc2c2nnc(-c3ccc(Sc4c(F)cccc4F)cc3)n12

>  <score_type>  (9) 
oracle

>  <origin>  (9) 
adg

>  <m_score__min__energy>  (9) 
-8.8399999999999999

>  <m_primary>  (9) 
energy

$$$$
9:0
     RDKit          3D

 32 35  0  0  0  0  0  0  0  0999 V2000
   -7.0230   25.6750  -29.5800 N   0  0  0  0  0  0  0  0  0  0  0  0
   -6.1680   24.8080  -29.9870 C   0  0  0  0  0  0  0  0  0  0  0  0
   -4.9030   24.8650  -29.5830 N   0  0  0  0  0  0  0  0  0  0  0  0
   -3.9420   24.0010  -29.9570 C   0  0  0  0  0  0  0  0  0  0  0  0
   -2.6070   24.1410  -29.4710 N   0  0  0  0  0  0  0  0  0  0  0  0
   -1.6880   23.1580  -29.4900 C   0  0  0  0  0  0  0  0  0  0  0  0
   -0.5010   23.6110  -28.9490 C   0  0  0  0  0  0  0  0  0  0  0  0
   -0.7440   24.9240  -28.5970 C   0  0  0  0  0  0  0  0  0  0  0  0
   -2.0260   25.1770  -28.9380 N   0  0  0  0  0  0  0  0  0  0  0  0
   -4.3040   23.0180  -30.7970 N   0  0  0  0  0  0  0  0  0  0  0  0
   -5.5740   22.9000  -31.2480 C   0  0  0  0  0  0  0  0  0  0  0  0
   -6.5580   23.8050  -30.8500 C   0  0  0  0  0  0  0  0  0  0  0  0
   -7.7600   23.4680  -31.4460 C   0  0  0  0  0  0  0  0  0  0  0  0
   -7.4920   22.3800  -32.1850 N   0  0  0  0  0  0  0  0  0  0  0  0
   -6.2170   22.0480  -32.0700 N   0  0  0  0  0  0  0  0  0  0  0  0
   -5.6340   20.9330  -32.7400 C   0  0  0  0  0  0  0  0  0  0  0  0
   -6.4940   19.9750  -33.2570 C   0  0  0  0  0  0  0  0  0  0  0  0
   -6.0260   18.8550  -33.9260 C   0  0  0  0  0  0  0  0  0  0  0  0
   -4.6510   18.7120  -34.0680 C   0  0  0  0  0  0  0  0  0  0  0  0
   -3.8030   19.6700  -33.5510 C   0  0  0  0  0  0  0  0  0  0  0  0
   -4.2700   20.7910  -32.8820 C   0  0  0  0  0  0  0  0  0  0  0  0
   -6.7190   26.4630  -28.9440 H   0  0  0  0  0  0  0  0  0  0  0  0
   -4.6480   25.6510  -28.9200 H   0  0  0  0  0  0  0  0  0  0  0  0
   -1.8574   22.1432  -29.8792 H   0  0  0  0  0  0  0  0  0  0  0  0
    0.4357   23.0477  -28.8252 H   0  0  0  0  0  0  0  0  0  0  0  0
   -0.0347   25.6243  -28.1316 H   0  0  0  0  0  0  0  0  0  0  0  0
   -8.7270   23.9810  -31.3377 H   0  0  0  0  0  0  0  0  0  0  0  0
   -7.5788   20.1082  -33.1324 H   0  0  0  0  0  0  0  0  0  0  0  0
   -6.7201   18.1040  -34.3312 H   0  0  0  0  0  0  0  0  0  0  0  0
   -4.2393   17.8366  -34.5916 H   0  0  0  0  0  0  0  0  0  0  0  0
   -2.7177   19.5396  -33.6740 H   0  0  0  0  0  0  0  0  0  0  0  0
   -3.5753   21.5421  -32.4780 H   0  0  0  0  0  0  0  0  0  0  0  0
  1  2  2  3
  2  3  1  0
  3  4  1  0
  4  5  1  0
  5  6  1  0
  6  7  2  0
  7  8  1  0
  8  9  2  0
  4 10  2  0
 10 11  1  0
 11 12  2  0
 12 13  1  0
 13 14  2  0
 14 15  1  0
 15 16  1  0
 16 17  2  0
 17 18  1  0
 18 19  2  0
 19 20  1  0
 20 21  2  0
 12  2  1  0
 21 16  1  0
  9  5  1  0
 15 11  1  0
  1 22  1  0
  3 23  1  0
  6 24  1  0
  7 25  1  0
  8 26  1  0
 13 27  1  0
 17 28  1  0
 18 29  1  0
 19 30  1  0
 20 31  1  0
 21 32  1  0
M  END
>  <smiles>  (10) 
N=c1[nH]c(-n2cccn2)nc2c1cnn2-c1ccccc1

>  <score_type>  (10) 
oracle

>  <origin>  (10) 
adg

>  <m_score__min__energy>  (10) 
-7.6600000000000001

>  <m_primary>  (10) 
energy

$$$$
10:0
     RDKit          3D

 41 43  0  0  0  0  0  0  0  0999 V2000
   -1.2390   25.3760  -28.1440 C   0  0  0  0  0  0  0  0  0  0  0  0
   -2.6710   24.9090  -28.3740 C   0  0  0  0  0  0  0  0  0  0  0  0
   -3.0830   25.1930  -29.7080 O   0  0  0  0  0  0  0  0  0  0  0  0
   -4.0700   24.4640  -30.3830 C   0  0  0  0  0  0  0  0  0  0  0  0
   -4.8340   25.0270  -31.2130 O   0  0  0  0  0  0  0  0  0  0  0  0
   -4.2510   23.0130  -30.0740 C   0  0  0  0  0  0  0  0  0  0  0  0
   -3.1810   22.1930  -30.7630 C   0  0  0  0  0  0  0  0  0  0  0  0
   -3.3710   21.6940  -32.0710 C   0  0  0  0  0  0  0  0  0  0  0  0
   -4.6020   21.9330  -32.7710 N   0  0  0  0  0  0  0  0  0  0  0  0
   -5.7540   21.0740  -32.6580 C   0  0  0  0  0  0  0  0  0  0  0  0
   -5.6410   19.6880  -32.8890 C   0  0  0  0  0  0  0  0  0  0  0  0
   -6.7600   18.8570  -32.7810 C   0  0  0  0  0  0  0  0  0  0  0  0
   -6.6390   17.5250  -33.0060 F   0  0  0  0  0  0  0  0  0  0  0  0
   -8.0020   19.3960  -32.4450 C   0  0  0  0  0  0  0  0  0  0  0  0
   -8.1290   20.7670  -32.2140 C   0  0  0  0  0  0  0  0  0  0  0  0
   -7.0160   21.6090  -32.3200 C   0  0  0  0  0  0  0  0  0  0  0  0
   -7.2350   23.3230  -31.9870 Cl  0  0  0  0  0  0  0  0  0  0  0  0
   -2.3280   20.9890  -32.6980 C   0  0  0  0  0  0  0  0  0  0  0  0
   -2.4550   20.4580  -33.9960 C   0  0  0  0  0  0  0  0  0  0  0  0
   -1.3920   19.7570  -34.5750 C   0  0  0  0  0  0  0  0  0  0  0  0
   -0.2000   19.5790  -33.8690 C   0  0  0  0  0  0  0  0  0  0  0  0
   -0.0630   20.1010  -32.5800 C   0  0  0  0  0  0  0  0  0  0  0  0
   -1.1200   20.8040  -31.9910 C   0  0  0  0  0  0  0  0  0  0  0  0
   -0.9770   21.2950  -30.7660 O   0  0  0  0  0  0  0  0  0  0  0  0
   -1.9340   21.9730  -30.1420 C   0  0  0  0  0  0  0  0  0  0  0  0
   -1.7050   22.4190  -28.9860 O   0  0  0  0  0  0  0  0  0  0  0  0
   -1.0432   25.4398  -27.0634 H   0  0  0  0  0  0  0  0  0  0  0  0
   -0.5415   24.6588  -28.6013 H   0  0  0  0  0  0  0  0  0  0  0  0
   -1.0984   26.3665  -28.6013 H   0  0  0  0  0  0  0  0  0  0  0  0
   -2.7297   23.8243  -28.2007 H   0  0  0  0  0  0  0  0  0  0  0  0
   -3.3342   25.4422  -27.6769 H   0  0  0  0  0  0  0  0  0  0  0  0
   -4.1806   22.8617  -28.9867 H   0  0  0  0  0  0  0  0  0  0  0  0
   -5.2384   22.6900  -30.4355 H   0  0  0  0  0  0  0  0  0  0  0  0
   -4.6070   22.7200  -33.4570 H   0  0  0  0  0  0  0  0  0  0  0  0
   -4.6649   19.2570  -33.1563 H   0  0  0  0  0  0  0  0  0  0  0  0
   -8.8815   18.7406  -32.3620 H   0  0  0  0  0  0  0  0  0  0  0  0
   -9.1096   21.1880  -31.9471 H   0  0  0  0  0  0  0  0  0  0  0  0
   -3.3920   20.5947  -34.5557 H   0  0  0  0  0  0  0  0  0  0  0  0
   -1.4951   19.3446  -35.5895 H   0  0  0  0  0  0  0  0  0  0  0  0
    0.6328   19.0266  -34.3287 H   0  0  0  0  0  0  0  0  0  0  0  0
    0.8774   19.9591  -32.0273 H   0  0  0  0  0  0  0  0  0  0  0  0
  1  2  1  0
  2  3  1  0
  3  4  1  0
  4  5  2  0
  4  6  1  0
  6  7  1  0
  7  8  2  0
  8  9  1  0
  9 10  1  0
 10 11  2  0
 11 12  1  0
 12 13  1  0
 12 14  2  0
 14 15  1  0
 15 16  2  0
 16 17  1  0
  8 18  1  0
 18 19  2  0
 19 20  1  0
 20 21  2  0
 21 22  1  0
 22 23  2  0
 23 24  1  0
 24 25  1  0
 25 26  2  0
 25  7  1  0
 16 10  1  0
 23 18  1  0
  1 27  1  0
  1 28  1  0
  1 29  1  0
  2 30  1  0
  2 31  1  0
  6 32  1  0
  6 33  1  0
  9 34  1  0
 11 35  1  0
 14 36  1  0
 15 37  1  0
 19 38  1  0
 20 39  1  0
 21 40  1  0
 22 41  1  0
M  END
>  <UniqueID>  (11) 
10

>  <SMILES>  (11) 
CCOC(=O)Cc1c(Nc2cc(F)ccc2Cl)c2ccccc2oc1=O

>  <Energy>  (11) 
51.86322173147372

>  <Genealogy>  (11) 
CCOC(=O)Cc1c(Nc2cc(F)ccc2Cl)c2ccccc2oc1=O (3D coordinates assigned)
CCOC(=O)Cc1c(Nc2cc(F)ccc2Cl)c2ccccc2oc1=O (optimized conformer: 51.86322173147372 kcal/mol)

>  <smiles>  (11) 
CCOC(=O)Cc1c(Nc2cc(F)ccc2Cl)c2ccccc2oc1=O

>  <score_type>  (11) 
oracle

>  <origin>  (11) 
adg

>  <m_score__min__energy>  (11) 
-8.6300000000000008

>  <m_primary>  (11) 
energy

$$$$
11:0
     RDKit          3D

 39 40  0  0  0  0  0  0  0  0999 V2000
   -9.0700   22.5520  -31.9610 C   0  0  0  0  0  0  0  0  0  0  0  0
   -8.5550   21.2450  -31.8470 O   0  0  0  0  0  0  0  0  0  0  0  0
   -9.4920   20.3250  -32.3670 C   0  0  0  0  0  0  0  0  0  0  0  0
   -9.0900   18.9050  -31.9740 C   0  0  0  0  0  0  0  0  0  0  0  0
   -7.7200   18.5740  -32.4810 C   0  0  0  0  0  0  0  0  0  0  0  0
   -6.6810   19.4370  -32.4660 N   0  0  0  0  0  0  0  0  0  0  0  0
   -5.5270   18.8720  -32.9140 C   0  0  0  0  0  0  0  0  0  0  0  0
   -4.2270   19.6210  -32.9430 C   0  0  0  0  0  0  0  0  0  0  0  0
   -4.4550   21.0590  -32.6940 N   0  0  0  0  0  0  0  0  0  0  0  0
   -3.5140   21.9030  -33.4530 C   0  0  0  0  0  0  0  0  0  0  0  0
   -4.4590   21.3870  -31.2490 C   0  0  0  0  0  0  0  0  0  0  0  0
   -4.7930   22.8340  -30.9530 C   0  0  0  0  0  0  0  0  0  0  0  0
   -6.1280   23.2530  -30.8430 C   0  0  0  0  0  0  0  0  0  0  0  0
   -6.4220   24.5900  -30.5760 C   0  0  0  0  0  0  0  0  0  0  0  0
   -5.3770   25.5020  -30.4160 C   0  0  0  0  0  0  0  0  0  0  0  0
   -4.0880   25.0840  -30.5170 N   0  0  0  0  0  0  0  0  0  0  0  0
   -3.7750   23.7860  -30.7770 C   0  0  0  0  0  0  0  0  0  0  0  0
   -5.6360   17.5310  -33.2750 C   0  0  0  0  0  0  0  0  0  0  0  0
   -7.2330   17.0590  -33.0260 S   0  0  0  0  0  0  0  0  0  0  0  0
   -9.2347   22.9701  -30.9570 H   0  0  0  0  0  0  0  0  0  0  0  0
   -8.3530   23.1823  -32.5075 H   0  0  0  0  0  0  0  0  0  0  0  0
  -10.0242   22.5237  -32.5075 H   0  0  0  0  0  0  0  0  0  0  0  0
  -10.4891   20.5488  -31.9600 H   0  0  0  0  0  0  0  0  0  0  0  0
   -9.5142   20.4075  -33.4637 H   0  0  0  0  0  0  0  0  0  0  0  0
   -9.0978   18.8196  -30.8773 H   0  0  0  0  0  0  0  0  0  0  0  0
   -9.8080   18.2016  -32.4210 H   0  0  0  0  0  0  0  0  0  0  0  0
   -6.7560   20.4240  -32.1300 H   0  0  0  0  0  0  0  0  0  0  0  0
   -3.5603   19.2199  -32.1655 H   0  0  0  0  0  0  0  0  0  0  0  0
   -3.7674   19.4993  -33.9350 H   0  0  0  0  0  0  0  0  0  0  0  0
   -2.8826   22.4694  -32.7526 H   0  0  0  0  0  0  0  0  0  0  0  0
   -2.8790   21.2660  -34.0863 H   0  0  0  0  0  0  0  0  0  0  0  0
   -4.0784   22.6033  -34.0863 H   0  0  0  0  0  0  0  0  0  0  0  0
   -5.2043   20.7498  -30.7505 H   0  0  0  0  0  0  0  0  0  0  0  0
   -3.4390   21.2105  -30.8770 H   0  0  0  0  0  0  0  0  0  0  0  0
   -6.9438   22.5257  -30.9676 H   0  0  0  0  0  0  0  0  0  0  0  0
   -7.4671   24.9227  -30.4923 H   0  0  0  0  0  0  0  0  0  0  0  0
   -5.5973   26.5595  -30.2081 H   0  0  0  0  0  0  0  0  0  0  0  0
   -2.7207   23.4806  -30.8497 H   0  0  0  0  0  0  0  0  0  0  0  0
   -4.8237   16.8940  -33.6550 H   0  0  0  0  0  0  0  0  0  0  0  0
  1  2  1  0
  2  3  1  0
  3  4  1  0
  4  5  1  0
  5  6  2  0
  6  7  1  0
  7  8  1  0
  8  9  1  0
  9 10  1  0
  9 11  1  0
 11 12  1  0
 12 13  2  0
 13 14  1  0
 14 15  2  0
 15 16  1  0
 16 17  2  0
  7 18  2  0
 18 19  1  0
 19  5  1  0
 17 12  1  0
  1 20  1  0
  1 21  1  0
  1 22  1  0
  3 23  1  0
  3 24  1  0
  4 25  1  0
  4 26  1  0
  6 27  1  0
  8 28  1  0
  8 29  1  0
 10 30  1  0
 10 31  1  0
 10 32  1  0
 11 33  1  0
 11 34  1  0
 13 35  1  0
 14 36  1  0
 15 37  1  0
 17 38  1  0
 18 39  1  0
M  CHG  1   6   1
M  END
>  <UniqueID>  (12) 
11

>  <SMILES>  (12) 
COCCc1[nH+]c(CN(C)Cc2cccnc2)cs1

>  <Energy>  (12) 
67.07707066186421

>  <Genealogy>  (12) 
COCCc1[nH+]c(CN(C)Cc2cccnc2)cs1 (protonated)
COCCc1[nH+]c(CN(C)Cc2cccnc2)cs1 (3D coordinates assigned)
COCCc1[nH+]c(CN(C)Cc2cccnc2)cs1 (optimized conformer: 67.07707066186421 kcal/mol)

>  <smiles>  (12) 
COCCc1nc(CN(C)Cc2cccnc2)cs1

>  <score_type>  (12) 
oracle

>  <origin>  (12) 
adg

>  <m_score__min__energy>  (12) 
-5.6900000000000004

>  <m_primary>  (12) 
energy

$$$$
12:0
     RDKit          3D

 37 39  0  0  1  0  0  0  0  0999 V2000
   -8.1140   20.1250  -32.6940 C   0  0  0  0  0  0  0  0  0  0  0  0
   -8.1950   21.5070  -32.0840 C   0  0  0  0  0  0  0  0  0  0  0  0
   -9.0340   21.5490  -30.8470 C   0  0  0  0  0  0  0  0  0  0  0  0
   -6.8740   22.0620  -31.8510 N   0  0  0  0  0  0  0  0  0  0  0  0
   -5.6990   21.5770  -32.3380 C   0  0  0  0  0  0  0  0  0  0  0  0
   -4.7170   22.3800  -31.8880 N   0  0  0  0  0  0  0  0  0  0  0  0
   -5.2660   23.3480  -31.1350 C   0  0  0  0  0  0  0  0  0  0  0  0
   -4.7370   24.4070  -30.4490 C   0  0  0  0  0  0  0  0  0  0  0  0
   -3.4570   24.5760  -30.4840 N   0  0  0  0  0  0  0  0  0  0  0  0
   -2.6680   23.7990  -29.5460 C   0  0  0  0  0  0  0  0  0  0  0  0
   -2.3330   24.5970  -28.3360 C   0  0  0  0  0  0  0  0  0  0  0  0
   -3.1250   24.5410  -27.2160 C   0  0  0  0  0  0  0  0  0  0  0  0
   -2.8000   25.2950  -26.0860 C   0  0  0  0  0  0  0  0  0  0  0  0
   -1.6650   26.1020  -26.1160 C   0  0  0  0  0  0  0  0  0  0  0  0
   -0.8600   26.1610  -27.2510 C   0  0  0  0  0  0  0  0  0  0  0  0
   -1.1930   25.4060  -28.3690 C   0  0  0  0  0  0  0  0  0  0  0  0
   -5.5500   25.2350  -29.7630 N   0  0  0  0  0  0  0  0  0  0  0  0
   -6.8850   25.0290  -29.7460 C   0  0  0  0  0  0  0  0  0  0  0  0
   -7.4230   23.9980  -30.4120 N   0  0  0  0  0  0  0  0  0  0  0  0
   -6.6330   23.1610  -31.1010 C   0  0  0  0  0  0  0  0  0  0  0  0
   -8.0699   19.3726  -31.8928 H   0  0  0  0  0  0  0  0  0  0  0  0
   -9.0032   19.9462  -33.3164 H   0  0  0  0  0  0  0  0  0  0  0  0
   -7.2100   20.0513  -33.3164 H   0  0  0  0  0  0  0  0  0  0  0  0
   -8.7039   22.1432  -32.8231 H   0  0  0  0  0  0  0  0  0  0  0  0
   -8.3829   21.5164  -29.9610 H   0  0  0  0  0  0  0  0  0  0  0  0
   -9.6233   22.4778  -30.8350 H   0  0  0  0  0  0  0  0  0  0  0  0
   -9.7131   20.6837  -30.8350 H   0  0  0  0  0  0  0  0  0  0  0  0
   -5.5750   20.6927  -32.9803 H   0  0  0  0  0  0  0  0  0  0  0  0
   -3.2424   22.9112  -29.2428 H   0  0  0  0  0  0  0  0  0  0  0  0
   -1.7304   23.5037  -30.0397 H   0  0  0  0  0  0  0  0  0  0  0  0
   -4.0189   23.8999  -27.2085 H   0  0  0  0  0  0  0  0  0  0  0  0
   -3.4309   25.2522  -25.1859 H   0  0  0  0  0  0  0  0  0  0  0  0
   -1.4010   26.7005  -25.2316 H   0  0  0  0  0  0  0  0  0  0  0  0
    0.0342   26.8015  -27.2623 H   0  0  0  0  0  0  0  0  0  0  0  0
   -0.5656   25.4444  -29.2717 H   0  0  0  0  0  0  0  0  0  0  0  0
   -5.1590   26.0560  -29.2290 H   0  0  0  0  0  0  0  0  0  0  0  0
   -7.5355   25.7129  -29.1811 H   0  0  0  0  0  0  0  0  0  0  0  0
  1  2  1  0
  2  3  1  0
  2  4  1  0
  4  5  1  0
  5  6  2  0
  6  7  1  0
  7  8  1  0
  8  9  2  0
  9 10  1  0
 10 11  1  0
 11 12  2  0
 12 13  1  0
 13 14  2  0
 14 15  1  0
 15 16  2  0
  8 17  1  0
 17 18  1  0
 18 19  2  0
 19 20  1  0
 20  4  1  0
 20  7  2  0
 16 11  1  0
  1 21  1  0
  1 22  1  0
  1 23  1  0
  2 24  1  0
  3 25  1  0
  3 26  1  0
  3 27  1  0
  5 28  1  0
 10 29  1  0
 10 30  1  0
 12 31  1  0
 13 32  1  0
 14 33  1  0
 15 34  1  0
 16 35  1  0
 17 36  1  0
 18 37  1  0
M  END
>  <smiles>  (13) 
CC(C)n1cnc2c(=NCc3ccccc3)[nH]cnc21

>  <score_type>  (13) 
oracle

>  <origin>  (13) 
adg

>  <m_score__min__energy>  (13) 
-7.3099999999999996

>  <m_primary>  (13) 
energy

$$$$
13:0
     RDKit          3D

 44 46  0  0  0  0  0  0  0  0999 V2000
   -5.5890   23.7980  -32.3330 O   0  0  0  0  0  0  0  0  0  0  0  0
   -4.6200   23.4610  -31.2340 S   0  0  0  0  0  0  0  0  0  0  0  0
   -3.8970   24.7150  -30.8260 O   0  0  0  0  0  0  0  0  0  0  0  0
   -3.4750   22.2830  -31.8710 C   0  0  0  0  0  0  0  0  0  0  0  0
   -2.2490   22.0880  -31.2190 C   0  0  0  0  0  0  0  0  0  0  0  0
   -1.3220   21.1710  -31.7240 C   0  0  0  0  0  0  0  0  0  0  0  0
   -1.6140   20.4460  -32.8830 C   0  0  0  0  0  0  0  0  0  0  0  0
   -0.7140   19.5580  -33.3730 F   0  0  0  0  0  0  0  0  0  0  0  0
   -2.8350   20.6380  -33.5380 C   0  0  0  0  0  0  0  0  0  0  0  0
   -3.7640   21.5550  -33.0350 C   0  0  0  0  0  0  0  0  0  0  0  0
   -5.4680   22.7900  -29.8550 N   0  0  0  0  0  0  0  0  0  0  0  0
   -4.9900   23.4570  -28.6210 C   0  0  0  0  0  0  0  0  0  0  0  0
   -3.5820   23.0390  -28.2620 C   0  0  0  0  0  0  0  0  0  0  0  0
   -2.5360   23.9770  -28.2570 C   0  0  0  0  0  0  0  0  0  0  0  0
   -1.2400   23.5850  -27.9100 C   0  0  0  0  0  0  0  0  0  0  0  0
   -0.9780   22.2560  -27.5670 C   0  0  0  0  0  0  0  0  0  0  0  0
   -2.0120   21.3160  -27.5710 C   0  0  0  0  0  0  0  0  0  0  0  0
   -3.3110   21.7040  -27.9170 C   0  0  0  0  0  0  0  0  0  0  0  0
   -6.9340   22.9590  -30.0110 C   0  0  0  0  0  0  0  0  0  0  0  0
   -7.5360   21.9300  -30.9390 C   0  0  0  0  0  0  0  0  0  0  0  0
   -6.7090   21.0040  -31.5990 C   0  0  0  0  0  0  0  0  0  0  0  0
   -7.2640   20.0490  -32.4550 C   0  0  0  0  0  0  0  0  0  0  0  0
   -8.6460   20.0050  -32.6540 C   0  0  0  0  0  0  0  0  0  0  0  0
   -9.4770   20.9130  -31.9930 C   0  0  0  0  0  0  0  0  0  0  0  0
   -8.9260   21.8710  -31.1360 C   0  0  0  0  0  0  0  0  0  0  0  0
   -2.0158   22.6581  -30.3076 H   0  0  0  0  0  0  0  0  0  0  0  0
   -0.3620   21.0200  -31.2087 H   0  0  0  0  0  0  0  0  0  0  0  0
   -3.0650   20.0672  -34.4498 H   0  0  0  0  0  0  0  0  0  0  0  0
   -4.7227   21.7055  -33.5530 H   0  0  0  0  0  0  0  0  0  0  0  0
   -5.2260   21.7730  -29.8080 H   0  0  0  0  0  0  0  0  0  0  0  0
   -5.0090   24.5459  -28.7754 H   0  0  0  0  0  0  0  0  0  0  0  0
   -5.6539   23.1613  -27.7952 H   0  0  0  0  0  0  0  0  0  0  0  0
   -2.7378   25.0240  -28.5272 H   0  0  0  0  0  0  0  0  0  0  0  0
   -0.4251   24.3238  -27.9069 H   0  0  0  0  0  0  0  0  0  0  0  0
    0.0425   21.9496  -27.2937 H   0  0  0  0  0  0  0  0  0  0  0  0
   -1.8044   20.2698  -27.3018 H   0  0  0  0  0  0  0  0  0  0  0  0
   -4.1227   20.9616  -27.9190 H   0  0  0  0  0  0  0  0  0  0  0  0
   -7.4078   22.8639  -29.0229 H   0  0  0  0  0  0  0  0  0  0  0  0
   -7.1127   23.9519  -30.4494 H   0  0  0  0  0  0  0  0  0  0  0  0
   -5.6208   21.0314  -31.4409 H   0  0  0  0  0  0  0  0  0  0  0  0
   -6.6115   19.3307  -32.9730 H   0  0  0  0  0  0  0  0  0  0  0  0
   -9.0802   19.2550  -33.3315 H   0  0  0  0  0  0  0  0  0  0  0  0
  -10.5655   20.8744  -32.1468 H   0  0  0  0  0  0  0  0  0  0  0  0
   -9.5837   22.5815  -30.6138 H   0  0  0  0  0  0  0  0  0  0  0  0
  1  2  2  0
  2  3  2  0
  2  4  1  0
  4  5  2  0
  5  6  1  0
  6  7  2  0
  7  8  1  0
  7  9  1  0
  9 10  2  0
  2 11  1  0
 11 12  1  0
 12 13  1  0
 13 14  2  0
 14 15  1  0
 15 16  2  0
 16 17  1  0
 17 18  2  0
 11 19  1  0
 19 20  1  0
 20 21  2  0
 21 22  1  0
 22 23  2  0
 23 24  1  0
 24 25  2  0
 10  4  1  0
 18 13  1  0
 25 20  1  0
  5 26  1  0
  6 27  1  0
  9 28  1  0
 10 29  1  0
 11 30  1  0
 12 31  1  0
 12 32  1  0
 14 33  1  0
 15 34  1  0
 16 35  1  0
 17 36  1  0
 18 37  1  0
 19 38  1  0
 19 39  1  0
 21 40  1  0
 22 41  1  0
 23 42  1  0
 24 43  1  0
 25 44  1  0
M  CHG  1  11   1
M  END
>  <UniqueID>  (14) 
12

>  <SMILES>  (14) 
O=S(=O)(c1ccc(F)cc1)[NH+](Cc1ccccc1)Cc1ccccc1

>  <Energy>  (14) 
46.96235570185458

>  <Genealogy>  (14) 
O=S(=O)(c1ccc(F)cc1)[NH+](Cc1ccccc1)Cc1ccccc1 (protonated)
O=S(=O)(c1ccc(F)cc1)[NH+](Cc1ccccc1)Cc1ccccc1 (3D coordinates assigned)
O=S(=O)(c1ccc(F)cc1)[NH+](Cc1ccccc1)Cc1ccccc1 (optimized conformer: 46.96235570185458 kcal/mol)

>  <smiles>  (14) 
O=S(=O)(c1ccc(F)cc1)N(Cc1ccccc1)Cc1ccccc1

>  <score_type>  (14) 
oracle

>  <origin>  (14) 
adg

>  <m_score__min__energy>  (14) 
-7.8300000000000001

>  <m_primary>  (14) 
energy

$$$$
14:0
     RDKit          3D

 28 28  0  0  0  0  0  0  0  0999 V2000
   -1.6060   26.0510  -29.7200 H   0  0  0  0  0  0  0  0  0  0  0  0
   -1.8710   25.1110  -29.3550 N   0  0  0  0  0  0  0  0  0  0  0  0
   -1.0480   24.5260  -28.4450 C   0  0  0  0  0  0  0  0  0  0  0  0
    0.1140   25.1910  -28.0400 O   0  0  0  0  0  0  0  0  0  0  0  0
    0.8810   24.7820  -26.9130 C   0  0  0  0  0  0  0  0  0  0  0  0
    0.3540   25.0630  -25.9893 H   0  0  0  0  0  0  0  0  0  0  0  0
    1.0183   23.6909  -26.9393 H   0  0  0  0  0  0  0  0  0  0  0  0
    1.8635   25.2759  -26.9393 H   0  0  0  0  0  0  0  0  0  0  0  0
   -1.3600   23.3040  -27.9380 N   0  0  0  0  0  0  0  0  0  0  0  0
   -3.0090   24.4710  -29.7620 C   0  0  0  0  0  0  0  0  0  0  0  0
   -3.8270   24.9940  -30.6310 N   0  0  0  0  0  0  0  0  0  0  0  0
   -5.2550   24.7130  -30.7830 C   0  0  0  0  0  0  0  0  0  0  0  0
   -5.4104   23.6240  -30.7814 H   0  0  0  0  0  0  0  0  0  0  0  0
   -5.6008   25.1478  -31.7324 H   0  0  0  0  0  0  0  0  0  0  0  0
   -6.0540   25.3340  -29.6410 C   0  0  0  0  0  0  0  0  0  0  0  0
   -5.6331   25.0069  -28.6788 H   0  0  0  0  0  0  0  0  0  0  0  0
   -6.0013   26.4305  -29.7105 H   0  0  0  0  0  0  0  0  0  0  0  0
   -7.1036   25.0122  -29.7105 H   0  0  0  0  0  0  0  0  0  0  0  0
   -3.3070   23.2530  -29.2430 N   0  0  0  0  0  0  0  0  0  0  0  0
   -2.4860   22.6640  -28.3340 C   0  0  0  0  0  0  0  0  0  0  0  0
   -2.7670   21.4970  -27.8320 N   0  0  0  0  0  0  0  0  0  0  0  0
   -1.9040   20.7490  -26.9180 C   0  0  0  0  0  0  0  0  0  0  0  0
   -1.2580   21.4536  -26.3738 H   0  0  0  0  0  0  0  0  0  0  0  0
   -2.5368   20.1887  -26.2140 H   0  0  0  0  0  0  0  0  0  0  0  0
   -1.0310   19.7600  -27.6860 C   0  0  0  0  0  0  0  0  0  0  0  0
   -0.4760   19.1313  -26.9742 H   0  0  0  0  0  0  0  0  0  0  0  0
   -1.6673   19.1237  -28.3186 H   0  0  0  0  0  0  0  0  0  0  0  0
   -0.3206   20.3124  -28.3186 H   0  0  0  0  0  0  0  0  0  0  0  0
  1  2  1  0
  2  3  1  0
  3  4  1  0
  4  5  1  0
  5  6  1  0
  5  7  1  0
  5  8  1  0
  3  9  2  0
  9 10  1  0
 10 11  2  0
 11 12  1  0
 12 13  1  0
 12 14  1  0
 12 15  1  0
 15 16  1  0
 15 17  1  0
 15 18  1  0
 10 19  1  0
 19 20  1  0
 20 21  2  0
 21 22  1  0
 22 23  1  0
 22 24  1  0
 22 25  1  0
 25 26  1  0
 25 27  1  0
 25 28  1  0
 20  2  1  0
M  CHG  1  19  -1
M  END
>  <UniqueID>  (15) 
13

>  <SMILES>  (15) 
CC/N=c1/[n-]/c(=N\CC)nc(OC)[nH]1

>  <Energy>  (15) 
19.94966078836161

>  <Genealogy>  (15) 
CCN=c1nc(OC)[nH]c(=NCC)[n-]1 (protonated)
CC/N=c1/[n-]/c(=N\CC)nc(OC)[nH]1 (cis-trans isomerization)
CC/N=c1/[n-]/c(=N\CC)nc(OC)[nH]1 (3D coordinates assigned)
CC/N=c1/[n-]/c(=N\CC)nc(OC)[nH]1 (optimized conformer: 19.94966078836161 kcal/mol)

>  <smiles>  (15) 
CCN=c1nc(OC)[nH]c(=NCC)[nH]1

>  <score_type>  (15) 
oracle

>  <origin>  (15) 
adg

>  <m_score__min__energy>  (15) 
-6.0300000000000002

>  <m_primary>  (15) 
energy

$$$$
15:0
     RDKit          3D

 46 48  0  0  0  0  0  0  0  0999 V2000
   -5.1980   25.6370  -30.6600 C   0  0  0  0  0  0  0  0  0  0  0  0
   -3.8490   25.2290  -30.4600 O   0  0  0  0  0  0  0  0  0  0  0  0
   -3.4650   24.0720  -29.7660 C   0  0  0  0  0  0  0  0  0  0  0  0
   -4.3470   23.5440  -28.8180 C   0  0  0  0  0  0  0  0  0  0  0  0
   -4.0210   22.3830  -28.1150 C   0  0  0  0  0  0  0  0  0  0  0  0
   -2.8130   21.7270  -28.3650 C   0  0  0  0  0  0  0  0  0  0  0  0
   -1.9180   22.2290  -29.3250 C   0  0  0  0  0  0  0  0  0  0  0  0
   -0.6230   21.5020  -29.6010 C   0  0  0  0  0  0  0  0  0  0  0  0
   -0.1790   21.5460  -31.0770 C   0  0  0  0  0  0  0  0  0  0  0  0
   -0.2550   20.1890  -31.8050 C   0  0  0  0  0  0  0  0  0  0  0  0
   -1.5680   19.9710  -32.4310 N   0  0  0  0  0  0  0  0  0  0  0  0
   -2.4820   20.9870  -32.4620 C   0  0  0  0  0  0  0  0  0  0  0  0
   -3.7690   20.7740  -32.9590 C   0  0  0  0  0  0  0  0  0  0  0  0
   -4.1180   19.5110  -33.4700 C   0  0  0  0  0  0  0  0  0  0  0  0
   -5.3240   19.2220  -33.8760 N   0  0  0  0  0  0  0  0  0  0  0  0
   -6.5350   19.2930  -33.1110 C   0  0  0  0  0  0  0  0  0  0  0  0
   -7.1880   18.1070  -32.7520 C   0  0  0  0  0  0  0  0  0  0  0  0
   -8.3880   18.1520  -32.0360 C   0  0  0  0  0  0  0  0  0  0  0  0
   -8.9530   19.3850  -31.6940 C   0  0  0  0  0  0  0  0  0  0  0  0
   -8.3240   20.5740  -32.0760 C   0  0  0  0  0  0  0  0  0  0  0  0
   -9.1070   22.2570  -31.6280 Br  0  0  0  0  0  0  0  0  0  0  0  0
   -7.1230   20.5300  -32.7930 C   0  0  0  0  0  0  0  0  0  0  0  0
   -3.1500   18.5040  -33.4850 C   0  0  0  0  0  0  0  0  0  0  0  0
   -1.8760   18.7530  -32.9700 C   0  0  0  0  0  0  0  0  0  0  0  0
   -2.2350   23.4240  -29.9970 C   0  0  0  0  0  0  0  0  0  0  0  0
   -5.6850   25.7843  -29.6847 H   0  0  0  0  0  0  0  0  0  0  0  0
   -5.2157   26.5807  -31.2249 H   0  0  0  0  0  0  0  0  0  0  0  0
   -5.7358   24.8613  -31.2249 H   0  0  0  0  0  0  0  0  0  0  0  0
   -5.3056   24.0477  -28.6247 H   0  0  0  0  0  0  0  0  0  0  0  0
   -4.7168   21.9836  -27.3624 H   0  0  0  0  0  0  0  0  0  0  0  0
   -2.5612   20.8128  -27.8074 H   0  0  0  0  0  0  0  0  0  0  0  0
    0.1677   21.9600  -28.9885 H   0  0  0  0  0  0  0  0  0  0  0  0
   -0.7937   20.4442  -29.3523 H   0  0  0  0  0  0  0  0  0  0  0  0
   -0.8254   22.2590  -31.6097 H   0  0  0  0  0  0  0  0  0  0  0  0
    0.8798   21.8442  -31.0779 H   0  0  0  0  0  0  0  0  0  0  0  0
    0.5194   20.1612  -32.5857 H   0  0  0  0  0  0  0  0  0  0  0  0
   -0.0984   19.3951  -31.0599 H   0  0  0  0  0  0  0  0  0  0  0  0
   -2.2002   21.9835  -32.0912 H   0  0  0  0  0  0  0  0  0  0  0  0
   -4.5066   21.5900  -32.9510 H   0  0  0  0  0  0  0  0  0  0  0  0
   -6.7549   17.1361  -33.0346 H   0  0  0  0  0  0  0  0  0  0  0  0
   -8.8880   17.2175  -31.7415 H   0  0  0  0  0  0  0  0  0  0  0  0
   -9.8931   19.4194  -31.1239 H   0  0  0  0  0  0  0  0  0  0  0  0
   -6.6378   21.4654  -33.1086 H   0  0  0  0  0  0  0  0  0  0  0  0
   -3.3911   17.5152  -33.9023 H   0  0  0  0  0  0  0  0  0  0  0  0
   -1.1128   17.9613  -32.9983 H   0  0  0  0  0  0  0  0  0  0  0  0
   -1.5164   23.8562  -30.7089 H   0  0  0  0  0  0  0  0  0  0  0  0
  1  2  1  0
  2  3  1  0
  3  4  2  0
  4  5  1  0
  5  6  2  0
  6  7  1  0
  7  8  1  0
  8  9  1  0
  9 10  1  0
 10 11  1  0
 11 12  1  0
 12 13  2  0
 13 14  1  0
 14 15  2  3
 15 16  1  0
 16 17  2  0
 17 18  1  0
 18 19  2  0
 19 20  1  0
 20 21  1  0
 20 22  2  0
 14 23  1  0
 23 24  2  0
  7 25  2  0
 25  3  1  0
 24 11  1  0
 22 16  1  0
  1 26  1  0
  1 27  1  0
  1 28  1  0
  4 29  1  0
  5 30  1  0
  6 31  1  0
  8 32  1  0
  8 33  1  0
  9 34  1  0
  9 35  1  0
 10 36  1  0
 10 37  1  0
 12 38  1  0
 13 39  1  0
 17 40  1  0
 18 41  1  0
 19 42  1  0
 22 43  1  0
 23 44  1  0
 24 45  1  0
 25 46  1  0
M  END
>  <UniqueID>  (16) 
14

>  <SMILES>  (16) 
COc1cccc(CCCn2ccc(=Nc3cccc(Br)c3)cc2)c1

>  <Energy>  (16) 
50.819184604293724

>  <Genealogy>  (16) 
COc1cccc(CCCn2ccc(=Nc3cccc(Br)c3)cc2)c1 (3D coordinates assigned)
COc1cccc(CCCn2ccc(=Nc3cccc(Br)c3)cc2)c1 (optimized conformer: 50.819184604293724 kcal/mol)

>  <smiles>  (16) 
COc1cccc(CCCn2ccc(=Nc3cccc(Br)c3)cc2)c1

>  <score_type>  (16) 
oracle

>  <origin>  (16) 
adg

>  <m_score__min__energy>  (16) 
-8.8399999999999999

>  <m_primary>  (16) 
energy

$$$$
16:0
     RDKit          3D

 42 44  0  0  0  0  0  0  0  0999 V2000
   -6.3844   26.5878  -29.9448 H   0  0  0  0  0  0  0  0  0  0  0  0
   -5.8950   25.6220  -30.1390 C   0  0  0  0  0  0  0  0  0  0  0  0
   -4.5690   25.6160  -30.6820 N   0  0  0  0  0  0  0  0  0  0  0  0
   -3.8870   24.5480  -30.8080 N   0  0  0  0  0  0  0  0  0  0  0  0
   -3.3100   23.8730  -29.6850 C   0  0  0  0  0  0  0  0  0  0  0  0
   -2.2400   24.4750  -29.0080 C   0  0  0  0  0  0  0  0  0  0  0  0
   -1.8585   25.4503  -29.3446 H   0  0  0  0  0  0  0  0  0  0  0  0
   -1.6550   23.8410  -27.9060 C   0  0  0  0  0  0  0  0  0  0  0  0
   -0.8159   24.3186  -27.3790 H   0  0  0  0  0  0  0  0  0  0  0  0
   -2.1360   22.6010  -27.4740 C   0  0  0  0  0  0  0  0  0  0  0  0
   -1.6750   22.1034  -26.6081 H   0  0  0  0  0  0  0  0  0  0  0  0
   -3.2030   21.9940  -28.1430 C   0  0  0  0  0  0  0  0  0  0  0  0
   -3.5810   21.0187  -27.8026 H   0  0  0  0  0  0  0  0  0  0  0  0
   -3.7910   22.6250  -29.2450 C   0  0  0  0  0  0  0  0  0  0  0  0
   -4.6308   22.1449  -29.7686 H   0  0  0  0  0  0  0  0  0  0  0  0
   -6.5610   24.4910  -29.8590 C   0  0  0  0  0  0  0  0  0  0  0  0
   -6.8645   24.3005  -28.8190 H   0  0  0  0  0  0  0  0  0  0  0  0
   -6.8940   23.5170  -30.8660 N   0  0  0  0  0  0  0  0  0  0  0  0
   -7.9150   22.5140  -30.5260 C   0  0  0  0  0  0  0  0  0  0  0  0
   -7.5093   21.8358  -29.7608 H   0  0  0  0  0  0  0  0  0  0  0  0
   -8.8047   23.0402  -30.1498 H   0  0  0  0  0  0  0  0  0  0  0  0
   -8.3230   21.6950  -31.7500 C   0  0  0  0  0  0  0  0  0  0  0  0
   -8.9416   20.8429  -31.4316 H   0  0  0  0  0  0  0  0  0  0  0  0
   -8.8995   22.3287  -32.4400 H   0  0  0  0  0  0  0  0  0  0  0  0
   -7.1210   21.2000  -32.4290 N   0  0  0  0  0  0  0  0  0  0  0  0
   -6.9790   19.8010  -32.7400 C   0  0  0  0  0  0  0  0  0  0  0  0
   -7.6800   18.8330  -31.9980 C   0  0  0  0  0  0  0  0  0  0  0  0
   -8.3468   19.1463  -31.1812 H   0  0  0  0  0  0  0  0  0  0  0  0
   -7.5330   17.4750  -32.2940 C   0  0  0  0  0  0  0  0  0  0  0  0
   -8.0853   16.7233  -31.7109 H   0  0  0  0  0  0  0  0  0  0  0  0
   -6.6860   17.0700  -33.3290 C   0  0  0  0  0  0  0  0  0  0  0  0
   -6.5723   16.0007  -33.5607 H   0  0  0  0  0  0  0  0  0  0  0  0
   -5.9830   18.0250  -34.0700 C   0  0  0  0  0  0  0  0  0  0  0  0
   -5.3164   17.7061  -34.8848 H   0  0  0  0  0  0  0  0  0  0  0  0
   -6.1260   19.3840  -33.7770 C   0  0  0  0  0  0  0  0  0  0  0  0
   -5.5684   20.1312  -34.3607 H   0  0  0  0  0  0  0  0  0  0  0  0
   -6.0130   22.1220  -32.7200 C   0  0  0  0  0  0  0  0  0  0  0  0
   -5.1014   21.7458  -32.2327 H   0  0  0  0  0  0  0  0  0  0  0  0
   -5.8913   22.1706  -33.8122 H   0  0  0  0  0  0  0  0  0  0  0  0
   -6.2950   23.5450  -32.2120 C   0  0  0  0  0  0  0  0  0  0  0  0
   -5.3501   24.1069  -32.1735 H   0  0  0  0  0  0  0  0  0  0  0  0
   -7.0036   24.0286  -32.9006 H   0  0  0  0  0  0  0  0  0  0  0  0
  1  2  1  0
  2  3  1  0
  3  4  2  0
  4  5  1  0
  5  6  2  0
  6  7  1  0
  6  8  1  0
  8  9  1  0
  8 10  2  0
 10 11  1  0
 10 12  1  0
 12 13  1  0
 12 14  2  0
 14 15  1  0
  2 16  2  0
 16 17  1  0
 16 18  1  0
 18 19  1  0
 19 20  1  0
 19 21  1  0
 19 22  1  0
 22 23  1  0
 22 24  1  0
 22 25  1  0
 25 26  1  0
 26 27  2  0
 27 28  1  0
 27 29  1  0
 29 30  1  0
 29 31  2  0
 31 32  1  0
 31 33  1  0
 33 34  1  0
 33 35  2  0
 35 36  1  0
 25 37  1  0
 37 38  1  0
 37 39  1  0
 37 40  1  0
 40 41  1  0
 40 42  1  0
 14  5  1  0
 40 18  1  0
 35 26  1  0
M  END
>  <UniqueID>  (17) 
15

>  <SMILES>  (17) 
C(=C/N1CCN(c2ccccc2)CC1)\N=N\c1ccccc1

>  <Energy>  (17) 
49.179864061319954

>  <Genealogy>  (17) 
C(=C/N1CCN(c2ccccc2)CC1)\N=N\c1ccccc1 (cis-trans isomerization)
C(=C/N1CCN(c2ccccc2)CC1)\N=N\c1ccccc1 (3D coordinates assigned)
C(=C/N1CCN(c2ccccc2)CC1)\N=N\c1ccccc1 (nonaromatic ring conformer: 49.179864061319954 kcal/mol)

>  <smiles>  (17) 
C(=CN1CCN(c2ccccc2)CC1)N=Nc1ccccc1

>  <score_type>  (17) 
oracle

>  <origin>  (17) 
adg

>  <m_score__min__energy>  (17) 
-8.2400000000000002

>  <m_primary>  (17) 
energy

$$$$
17:0
     RDKit          3D

 49 51  0  0  0  0  0  0  0  0999 V2000
   -8.2240   18.2310  -31.9440 C   0  0  0  0  0  0  0  0  0  0  0  0
   -8.1550   19.7160  -32.0570 C   0  0  0  0  0  0  0  0  0  0  0  0
   -9.2290   20.5260  -31.9200 N   0  0  0  0  0  0  0  0  0  0  0  0
   -8.6750   21.7500  -32.0380 C   0  0  0  0  0  0  0  0  0  0  0  0
   -9.4660   23.0170  -31.9720 C   0  0  0  0  0  0  0  0  0  0  0  0
   -7.3410   21.6730  -32.2230 N   0  0  0  0  0  0  0  0  0  0  0  0
   -6.3800   22.7660  -32.3740 C   0  0  0  0  0  0  0  0  0  0  0  0
   -5.9620   23.3140  -31.0000 C   0  0  2  0  0  0  0  0  0  0  0  0
   -6.8540   24.4600  -30.5420 C   0  0  0  0  0  0  0  0  0  0  0  0
   -5.9680   25.2600  -29.6110 C   0  0  0  0  0  0  0  0  0  0  0  0
   -4.5400   24.9570  -30.0560 C   0  0  0  0  0  0  0  0  0  0  0  0
   -4.6020   23.8720  -31.0460 N   0  0  0  0  0  0  0  0  0  0  0  0
   -3.4840   22.9000  -30.9670 C   0  0  0  0  0  0  0  0  0  0  0  0
   -3.6910   21.6200  -31.7530 C   0  0  0  0  0  0  0  0  0  0  0  0
   -3.2850   21.5330  -33.0920 C   0  0  0  0  0  0  0  0  0  0  0  0
   -3.4710   20.3510  -33.8110 C   0  0  0  0  0  0  0  0  0  0  0  0
   -4.0500   19.2350  -33.1780 C   0  0  0  0  0  0  0  0  0  0  0  0
   -4.2670   17.9870  -33.8790 N   0  0  0  0  0  0  0  0  0  0  0  0
   -3.2510   16.9260  -33.8800 C   0  0  0  0  0  0  0  0  0  0  0  0
   -5.5260   17.7870  -34.6040 C   0  0  0  0  0  0  0  0  0  0  0  0
   -4.4060   19.3380  -31.8660 N   0  0  0  0  0  0  0  0  0  0  0  0
   -4.2380   20.4800  -31.1480 C   0  0  0  0  0  0  0  0  0  0  0  0
   -7.0050   20.3960  -32.2300 N   0  0  0  0  0  0  0  0  0  0  0  0
   -8.2373   17.9443  -30.8821 H   0  0  0  0  0  0  0  0  0  0  0  0
   -9.1400   17.8682  -32.4333 H   0  0  0  0  0  0  0  0  0  0  0  0
   -7.3456   17.7848  -32.4333 H   0  0  0  0  0  0  0  0  0  0  0  0
   -9.6357   23.2889  -30.9197 H   0  0  0  0  0  0  0  0  0  0  0  0
   -8.9102   23.8228  -32.4739 H   0  0  0  0  0  0  0  0  0  0  0  0
  -10.4340   22.8715  -32.4739 H   0  0  0  0  0  0  0  0  0  0  0  0
   -5.4890   22.3936  -32.9007 H   0  0  0  0  0  0  0  0  0  0  0  0
   -6.8522   23.5758  -32.9496 H   0  0  0  0  0  0  0  0  0  0  0  0
   -6.0358   22.4591  -30.3117 H   0  0  0  0  0  0  0  0  0  0  0  0
   -7.1760   25.0716  -31.3977 H   0  0  0  0  0  0  0  0  0  0  0  0
   -7.7766   24.1114  -30.0549 H   0  0  0  0  0  0  0  0  0  0  0  0
   -6.1812   26.3350  -29.7052 H   0  0  0  0  0  0  0  0  0  0  0  0
   -6.1345   24.9940  -28.5567 H   0  0  0  0  0  0  0  0  0  0  0  0
   -4.0907   25.8528  -30.5094 H   0  0  0  0  0  0  0  0  0  0  0  0
   -3.9229   24.6591  -29.1955 H   0  0  0  0  0  0  0  0  0  0  0  0
   -2.5768   23.3916  -31.3482 H   0  0  0  0  0  0  0  0  0  0  0  0
   -3.4087   22.6032  -29.9105 H   0  0  0  0  0  0  0  0  0  0  0  0
   -2.8171   22.4013  -33.5790 H   0  0  0  0  0  0  0  0  0  0  0  0
   -3.1668   20.2920  -34.8664 H   0  0  0  0  0  0  0  0  0  0  0  0
   -2.9969   16.6607  -32.8432 H   0  0  0  0  0  0  0  0  0  0  0  0
   -3.6463   16.0402  -34.3988 H   0  0  0  0  0  0  0  0  0  0  0  0
   -2.3490   17.2826  -34.3988 H   0  0  0  0  0  0  0  0  0  0  0  0
   -6.3471   17.6566  -33.8838 H   0  0  0  0  0  0  0  0  0  0  0  0
   -5.7285   18.6642  -35.2360 H   0  0  0  0  0  0  0  0  0  0  0  0
   -5.4467   16.8902  -35.2360 H   0  0  0  0  0  0  0  0  0  0  0  0
   -4.5323   20.5096  -30.0885 H   0  0  0  0  0  0  0  0  0  0  0  0
  1  2  1  0
  2  3  1  0
  3  4  2  0
  4  5  1  0
  4  6  1  0
  6  7  1  0
  7  8  1  0
  8  9  1  0
  9 10  1  0
 10 11  1  0
 11 12  1  0
 12 13  1  0
 13 14  1  0
 14 15  2  0
 15 16  1  0
 16 17  2  0
 17 18  1  0
 18 19  1  0
 18 20  1  0
 17 21  1  0
 21 22  2  0
  6 23  1  0
 23  2  2  0
 12  8  1  0
 22 14  1  0
  1 24  1  0
  1 25  1  0
  1 26  1  0
  5 27  1  0
  5 28  1  0
  5 29  1  0
  7 30  1  0
  7 31  1  0
  8 32  1  1
  9 33  1  0
  9 34  1  0
 10 35  1  0
 10 36  1  0
 11 37  1  0
 11 38  1  0
 13 39  1  0
 13 40  1  0
 15 41  1  0
 16 42  1  0
 19 43  1  0
 19 44  1  0
 19 45  1  0
 20 46  1  0
 20 47  1  0
 20 48  1  0
 22 49  1  0
M  END
>  <UniqueID>  (18) 
16

>  <SMILES>  (18) 
Cc1nc(C)n(C[C@@H]2CCCN2Cc2ccc(N(C)C)nc2)n1

>  <Energy>  (18) 
83.9031338879453

>  <Genealogy>  (18) 
Cc1nc(C)n(C[C@@H]2CCCN2Cc2ccc(N(C)C)nc2)n1 (chirality)
Cc1nc(C)n(C[C@@H]2CCCN2Cc2ccc(N(C)C)nc2)n1 (3D coordinates assigned)
Cc1nc(C)n(C[C@@H]2CCCN2Cc2ccc(N(C)C)nc2)n1 (nonaromatic ring conformer: 83.9031338879453 kcal/mol)

>  <smiles>  (18) 
Cc1nc(C)n(CC2CCCN2Cc2ccc(N(C)C)nc2)n1

>  <score_type>  (18) 
oracle

>  <origin>  (18) 
adg

>  <m_score__min__energy>  (18) 
-7.46

>  <m_primary>  (18) 
energy

$$$$
18:0
     RDKit          3D

 52 55  0  0  0  0  0  0  0  0999 V2000
   -7.8570   20.1990  -31.1760 O   0  0  0  0  0  0  0  0  0  0  0  0
   -6.8870   20.1310  -31.9810 C   0  0  0  0  0  0  0  0  0  0  0  0
   -6.4970   18.8120  -32.5260 C   0  0  0  0  0  0  0  0  0  0  0  0
   -6.1540   17.7530  -31.6680 C   0  0  0  0  0  0  0  0  0  0  0  0
   -5.7790   16.5120  -32.1940 C   0  0  0  0  0  0  0  0  0  0  0  0
   -5.7330   16.3220  -33.5770 C   0  0  0  0  0  0  0  0  0  0  0  0
   -6.0540   17.3740  -34.4370 C   0  0  0  0  0  0  0  0  0  0  0  0
   -6.4300   18.6170  -33.9170 C   0  0  0  0  0  0  0  0  0  0  0  0
   -6.1720   21.3330  -32.3330 N   0  0  0  0  0  0  0  0  0  0  0  0
   -4.7030   21.3090  -32.4490 C   0  0  0  0  0  0  0  0  0  0  0  0
   -4.0950   22.6820  -32.1290 C   0  0  0  0  0  0  0  0  0  0  0  0
   -4.8420   23.3270  -30.9400 C   0  0  0  0  0  0  0  0  0  0  0  0
   -4.2180   24.6040  -30.5310 N   0  0  0  0  0  0  0  0  0  0  0  0
   -3.6610   24.5770  -29.1690 C   0  0  0  0  0  0  0  0  0  0  0  0
   -2.8910   23.3100  -28.8960 C   0  0  0  0  0  0  0  0  0  0  0  0
   -3.4290   22.3140  -28.0670 C   0  0  0  0  0  0  0  0  0  0  0  0
   -2.7330   21.1210  -27.8530 C   0  0  0  0  0  0  0  0  0  0  0  0
   -1.4870   20.9000  -28.4670 C   0  0  0  0  0  0  0  0  0  0  0  0
   -0.7500   19.6290  -28.2450 C   0  0  0  0  0  0  0  0  0  0  0  0
    0.3810   19.3090  -29.0090 C   0  0  0  0  0  0  0  0  0  0  0  0
    1.0480   18.1070  -28.7800 C   0  0  0  0  0  0  0  0  0  0  0  0
    0.5930   17.2600  -27.8200 N   0  0  0  0  0  0  0  0  0  0  0  0
   -0.4800   17.5550  -27.0870 N   0  0  0  0  0  0  0  0  0  0  0  0
   -1.1700   18.7120  -27.2680 C   0  0  0  0  0  0  0  0  0  0  0  0
   -0.9520   21.9020  -29.2960 C   0  0  0  0  0  0  0  0  0  0  0  0
   -1.6490   23.0950  -29.5090 C   0  0  0  0  0  0  0  0  0  0  0  0
   -6.3280   23.5760  -31.2910 C   0  0  0  0  0  0  0  0  0  0  0  0
   -6.8710   22.6240  -32.3740 C   0  0  0  0  0  0  0  0  0  0  0  0
   -6.1805   17.9005  -30.5783 H   0  0  0  0  0  0  0  0  0  0  0  0
   -5.5199   15.6845  -31.5172 H   0  0  0  0  0  0  0  0  0  0  0  0
   -5.4439   15.3437  -33.9885 H   0  0  0  0  0  0  0  0  0  0  0  0
   -6.0111   17.2250  -35.5260 H   0  0  0  0  0  0  0  0  0  0  0  0
   -6.6742   19.4450  -34.5988 H   0  0  0  0  0  0  0  0  0  0  0  0
   -4.3002   20.5660  -31.7450 H   0  0  0  0  0  0  0  0  0  0  0  0
   -4.4410   21.0464  -33.4846 H   0  0  0  0  0  0  0  0  0  0  0  0
   -3.0335   22.5585  -31.8684 H   0  0  0  0  0  0  0  0  0  0  0  0
   -4.1896   23.3330  -33.0106 H   0  0  0  0  0  0  0  0  0  0  0  0
   -4.7776   22.6191  -30.1005 H   0  0  0  0  0  0  0  0  0  0  0  0
   -3.4860   24.9130  -31.2130 H   0  0  0  0  0  0  0  0  0  0  0  0
   -2.9855   25.4362  -29.0450 H   0  0  0  0  0  0  0  0  0  0  0  0
   -4.5000   24.6230  -28.4591 H   0  0  0  0  0  0  0  0  0  0  0  0
   -4.4039   22.4729  -27.5829 H   0  0  0  0  0  0  0  0  0  0  0  0
   -3.1633   20.3484  -27.1989 H   0  0  0  0  0  0  0  0  0  0  0  0
    0.7396   20.0022  -29.7842 H   0  0  0  0  0  0  0  0  0  0  0  0
    1.9371   17.8457  -29.3726 H   0  0  0  0  0  0  0  0  0  0  0  0
   -2.0545   18.9293  -26.6512 H   0  0  0  0  0  0  0  0  0  0  0  0
    0.0229   21.7458  -29.7809 H   0  0  0  0  0  0  0  0  0  0  0  0
   -1.2201   23.8697  -30.1616 H   0  0  0  0  0  0  0  0  0  0  0  0
   -6.9282   23.4441  -30.3787 H   0  0  0  0  0  0  0  0  0  0  0  0
   -6.3990   24.5976  -31.6927 H   0  0  0  0  0  0  0  0  0  0  0  0
   -7.9448   22.4581  -32.2026 H   0  0  0  0  0  0  0  0  0  0  0  0
   -6.7065   23.0823  -33.3604 H   0  0  0  0  0  0  0  0  0  0  0  0
  1  2  2  0
  2  3  1  0
  3  4  2  0
  4  5  1  0
  5  6  2  0
  6  7  1  0
  7  8  2  0
  2  9  1  0
  9 10  1  0
 10 11  1  0
 11 12  1  0
 12 13  1  0
 13 14  1  0
 14 15  1  0
 15 16  2  0
 16 17  1  0
 17 18  2  0
 18 19  1  0
 19 20  2  0
 20 21  1  0
 21 22  2  0
 22 23  1  0
 23 24  2  0
 18 25  1  0
 25 26  2  0
 12 27  1  0
 27 28  1  0
  8  3  1  0
 28  9  1  0
 26 15  1  0
 24 19  1  0
  4 29  1  0
  5 30  1  0
  6 31  1  0
  7 32  1  0
  8 33  1  0
 10 34  1  0
 10 35  1  0
 11 36  1  0
 11 37  1  0
 12 38  1  0
 13 39  1  0
 14 40  1  0
 14 41  1  0
 16 42  1  0
 17 43  1  0
 20 44  1  0
 21 45  1  0
 24 46  1  0
 25 47  1  0
 26 48  1  0
 27 49  1  0
 27 50  1  0
 28 51  1  0
 28 52  1  0
M  END
>  <UniqueID>  (19) 
17

>  <SMILES>  (19) 
O=C(c1ccccc1)N1CCC(NCc2ccc(-c3ccnnc3)cc2)CC1

>  <Energy>  (19) 
71.32325708952443

>  <Genealogy>  (19) 
O=C(c1ccccc1)N1CCC(NCc2ccc(-c3ccnnc3)cc2)CC1 (3D coordinates assigned)
O=C(c1ccccc1)N1CCC(NCc2ccc(-c3ccnnc3)cc2)CC1 (nonaromatic ring conformer: 71.32325708952443 kcal/mol)

>  <smiles>  (19) 
O=C(c1ccccc1)N1CCC(NCc2ccc(-c3ccnnc3)cc2)CC1

>  <score_type>  (19) 
oracle

>  <origin>  (19) 
adg

>  <m_score__min__energy>  (19) 
-10.01

>  <m_primary>  (19) 
energy

$$$$
19:0
     RDKit          3D

 34 35  0  0  0  0  0  0  0  0999 V2000
   -3.8383   20.8317  -31.7901 H   0  0  0  0  0  0  0  0  0  0  0  0
   -4.6810   21.4880  -32.0530 C   0  0  0  0  0  0  0  0  0  0  0  0
   -5.5530   21.0600  -32.9790 C   0  0  0  0  0  0  0  0  0  0  0  0
   -5.3386   21.2723  -34.0368 H   0  0  0  0  0  0  0  0  0  0  0  0
   -6.7930   20.3140  -32.6460 C   0  0  0  0  0  0  0  0  0  0  0  0
   -7.9380   20.9780  -32.1600 C   0  0  0  0  0  0  0  0  0  0  0  0
   -7.9231   22.0710  -32.0367 H   0  0  0  0  0  0  0  0  0  0  0  0
   -9.0900   20.2610  -31.8340 C   0  0  0  0  0  0  0  0  0  0  0  0
   -9.9796   20.7904  -31.4621 H   0  0  0  0  0  0  0  0  0  0  0  0
   -9.1150   18.8750  -31.9790 C   0  0  0  0  0  0  0  0  0  0  0  0
  -10.0262   18.3131  -31.7262 H   0  0  0  0  0  0  0  0  0  0  0  0
   -7.9870   18.1990  -32.4440 C   0  0  0  0  0  0  0  0  0  0  0  0
   -8.0119   17.1044  -32.5502 H   0  0  0  0  0  0  0  0  0  0  0  0
   -6.8150   18.9080  -32.7790 C   0  0  0  0  0  0  0  0  0  0  0  0
   -5.6680   18.2500  -33.2530 O   0  0  0  0  0  0  0  0  0  0  0  0
   -5.4580   17.8600  -34.6060 C   0  0  0  0  0  0  0  0  0  0  0  0
   -4.9366   16.8917  -34.6318 H   0  0  0  0  0  0  0  0  0  0  0  0
   -6.4283   17.7676  -35.1158 H   0  0  0  0  0  0  0  0  0  0  0  0
   -4.8468   18.6193  -35.1158 H   0  0  0  0  0  0  0  0  0  0  0  0
   -4.7910   22.7980  -31.3640 C   0  0  0  0  0  0  0  0  0  0  0  0
   -6.0170   23.4810  -31.4180 C   0  0  0  0  0  0  0  0  0  0  0  0
   -6.8657   23.0368  -31.9587 H   0  0  0  0  0  0  0  0  0  0  0  0
   -6.1670   24.7190  -30.7910 C   0  0  0  0  0  0  0  0  0  0  0  0
   -7.1349   25.2401  -30.8299 H   0  0  0  0  0  0  0  0  0  0  0  0
   -5.0920   25.2970  -30.1150 C   0  0  0  0  0  0  0  0  0  0  0  0
   -5.2190   26.2706  -29.6191 H   0  0  0  0  0  0  0  0  0  0  0  0
   -3.8540   24.6480  -30.0630 C   0  0  0  0  0  0  0  0  0  0  0  0
   -2.8020   25.2780  -29.3800 O   0  0  0  0  0  0  0  0  0  0  0  0
   -2.1610   24.7500  -28.2240 C   0  0  0  0  0  0  0  0  0  0  0  0
   -2.6460   25.1495  -27.3211 H   0  0  0  0  0  0  0  0  0  0  0  0
   -2.2418   23.6530  -28.2288 H   0  0  0  0  0  0  0  0  0  0  0  0
   -1.0998   25.0395  -28.2288 H   0  0  0  0  0  0  0  0  0  0  0  0
   -3.7050   23.3970  -30.6940 C   0  0  0  0  0  0  0  0  0  0  0  0
   -2.7328   22.8833  -30.6635 H   0  0  0  0  0  0  0  0  0  0  0  0
  1  2  1  0
  2  3  2  0
  3  4  1  0
  3  5  1  0
  5  6  2  0
  6  7  1  0
  6  8  1  0
  8  9  1  0
  8 10  2  0
 10 11  1  0
 10 12  1  0
 12 13  1  0
 12 14  2  0
 14 15  1  0
 15 16  1  0
 16 17  1  0
 16 18  1  0
 16 19  1  0
  2 20  1  0
 20 21  2  0
 21 22  1  0
 21 23  1  0
 23 24  1  0
 23 25  2  0
 25 26  1  0
 25 27  1  0
 27 28  1  0
 28 29  1  0
 29 30  1  0
 29 31  1  0
 29 32  1  0
 27 33  2  0
 33 34  1  0
 14  5  1  0
 33 20  1  0
M  END
>  <UniqueID>  (20) 
18

>  <SMILES>  (20) 
COc1cccc(/C=C/c2ccccc2OC)c1

>  <Energy>  (20) 
39.22075351234523

>  <Genealogy>  (20) 
COc1cccc(/C=C/c2ccccc2OC)c1 (cis-trans isomerization)
COc1cccc(/C=C/c2ccccc2OC)c1 (3D coordinates assigned)
COc1cccc(/C=C/c2ccccc2OC)c1 (optimized conformer: 39.22075351234523 kcal/mol)

>  <smiles>  (20) 
COc1cccc(C=Cc2ccccc2OC)c1

>  <score_type>  (20) 
oracle

>  <origin>  (20) 
adg

>  <m_score__min__energy>  (20) 
-7.3499999999999996

>  <m_primary>  (20) 
energy

$$$$
20:0
     RDKit          3D

 53 55  0  0  0  0  0  0  0  0999 V2000
   -1.5140   20.3480  -31.6000 C   0  0  0  0  0  0  0  0  0  0  0  0
   -1.9490   21.6070  -32.3470 C   0  0  0  0  0  0  0  0  0  0  0  0
   -3.4220   21.5450  -32.7610 C   0  0  0  0  0  0  0  0  0  0  0  0
   -4.1170   22.7460  -32.4190 O   0  0  0  0  0  0  0  0  0  0  0  0
   -5.4140   22.7360  -31.8930 C   0  0  0  0  0  0  0  0  0  0  0  0
   -6.3300   21.7630  -32.3350 C   0  0  0  0  0  0  0  0  0  0  0  0
   -5.9200   20.8530  -33.3220 O   0  0  0  0  0  0  0  0  0  0  0  0
   -6.4800   19.5580  -33.5120 C   0  0  0  0  0  0  0  0  0  0  0  0
   -7.6280   21.7350  -31.7940 C   0  0  0  0  0  0  0  0  0  0  0  0
   -8.0150   22.6790  -30.8430 C   0  0  0  0  0  0  0  0  0  0  0  0
   -7.1230   23.6690  -30.4350 C   0  0  0  0  0  0  0  0  0  0  0  0
   -5.8230   23.7230  -30.9660 C   0  0  0  0  0  0  0  0  0  0  0  0
   -4.9230   24.8350  -30.5640 C   0  0  0  0  0  0  0  0  0  0  0  0
   -5.4010   25.9740  -30.3260 O   0  0  0  0  0  0  0  0  0  0  0  0
   -3.5010   24.6660  -30.5070 N   0  0  0  0  0  0  0  0  0  0  0  0
   -2.7980   23.8420  -29.5670 C   0  0  0  0  0  0  0  0  0  0  0  0
   -1.8610   24.2690  -28.6430 C   0  0  0  0  0  0  0  0  0  0  0  0
   -1.3770   25.6760  -28.4640 C   0  0  0  0  0  0  0  0  0  0  0  0
   -1.4860   23.2080  -27.8860 N   0  0  0  0  0  0  0  0  0  0  0  0
   -0.5260   23.2390  -26.7800 C   0  0  0  0  0  0  0  0  0  0  0  0
   -2.1400   22.1270  -28.3100 N   0  0  0  0  0  0  0  0  0  0  0  0
   -1.9960   20.7940  -27.7860 C   0  0  0  0  0  0  0  0  0  0  0  0
   -0.7740   20.1140  -27.9090 C   0  0  0  0  0  0  0  0  0  0  0  0
   -0.6300   18.8240  -27.3880 C   0  0  0  0  0  0  0  0  0  0  0  0
   -1.7030   18.2090  -26.7350 C   0  0  0  0  0  0  0  0  0  0  0  0
   -2.9190   18.8840  -26.6020 C   0  0  0  0  0  0  0  0  0  0  0  0
   -3.0650   20.1740  -27.1210 C   0  0  0  0  0  0  0  0  0  0  0  0
   -2.9590   22.4940  -29.3160 C   0  0  0  0  0  0  0  0  0  0  0  0
   -3.7540   21.7160  -29.9080 O   0  0  0  0  0  0  0  0  0  0  0  0
   -1.5752   20.5252  -30.5161 H   0  0  0  0  0  0  0  0  0  0  0  0
   -2.1756   19.5127  -31.8729 H   0  0  0  0  0  0  0  0  0  0  0  0
   -0.4778   20.0993  -31.8729 H   0  0  0  0  0  0  0  0  0  0  0  0
   -1.8000   22.4783  -31.6923 H   0  0  0  0  0  0  0  0  0  0  0  0
   -1.3413   21.6886  -33.2603 H   0  0  0  0  0  0  0  0  0  0  0  0
   -3.4807   21.3965  -33.8494 H   0  0  0  0  0  0  0  0  0  0  0  0
   -3.8949   20.7097  -32.2237 H   0  0  0  0  0  0  0  0  0  0  0  0
   -6.6792   19.0974  -32.5331 H   0  0  0  0  0  0  0  0  0  0  0  0
   -7.4211   19.6445  -34.0748 H   0  0  0  0  0  0  0  0  0  0  0  0
   -5.7724   18.9315  -34.0748 H   0  0  0  0  0  0  0  0  0  0  0  0
   -8.3414   20.9648  -32.1225 H   0  0  0  0  0  0  0  0  0  0  0  0
   -9.0271   22.6420  -30.4138 H   0  0  0  0  0  0  0  0  0  0  0  0
   -7.4393   24.4147  -29.6908 H   0  0  0  0  0  0  0  0  0  0  0  0
   -1.2989   25.9031  -27.3905 H   0  0  0  0  0  0  0  0  0  0  0  0
   -0.3891   25.7867  -28.9350 H   0  0  0  0  0  0  0  0  0  0  0  0
   -2.0877   26.3710  -28.9350 H   0  0  0  0  0  0  0  0  0  0  0  0
   -1.0683   23.2215  -25.8231 H   0  0  0  0  0  0  0  0  0  0  0  0
    0.1346   22.3617  -26.8432 H   0  0  0  0  0  0  0  0  0  0  0  0
    0.0766   24.1571  -26.8432 H   0  0  0  0  0  0  0  0  0  0  0  0
    0.0734   20.5975  -28.4170 H   0  0  0  0  0  0  0  0  0  0  0  0
    0.3277   18.2929  -27.4919 H   0  0  0  0  0  0  0  0  0  0  0  0
   -1.5896   17.1941  -26.3262 H   0  0  0  0  0  0  0  0  0  0  0  0
   -3.7626   18.3999  -26.0883 H   0  0  0  0  0  0  0  0  0  0  0  0
   -4.0216   20.7051  -27.0076 H   0  0  0  0  0  0  0  0  0  0  0  0
  1  2  1  0
  2  3  1  0
  3  4  1  0
  4  5  1  0
  5  6  2  0
  6  7  1  0
  7  8  1  0
  6  9  1  0
  9 10  2  0
 10 11  1  0
 11 12  2  0
 12 13  1  0
 13 14  2  0
 13 15  1  0
 15 16  1  0
 16 17  2  0
 17 18  1  0
 17 19  1  0
 19 20  1  0
 19 21  1  0
 21 22  1  0
 22 23  2  0
 23 24  1  0
 24 25  2  0
 25 26  1  0
 26 27  2  0
 21 28  1  0
 28 29  2  0
 12  5  1  0
 28 16  1  0
 27 22  1  0
  1 30  1  0
  1 31  1  0
  1 32  1  0
  2 33  1  0
  2 34  1  0
  3 35  1  0
  3 36  1  0
  8 37  1  0
  8 38  1  0
  8 39  1  0
  9 40  1  0
 10 41  1  0
 11 42  1  0
 18 43  1  0
 18 44  1  0
 18 45  1  0
 20 46  1  0
 20 47  1  0
 20 48  1  0
 23 49  1  0
 24 50  1  0
 25 51  1  0
 26 52  1  0
 27 53  1  0
M  CHG  1  15  -1
M  END
>  <UniqueID>  (21) 
19

>  <SMILES>  (21) 
CCCOc1c(OC)cccc1C(=O)[N-]c1c(C)n(C)n(-c2ccccc2)c1=O

>  <Energy>  (21) 
105.74609522553132

>  <Genealogy>  (21) 
CCCOc1c(OC)cccc1C(=O)[N-]c1c(C)n(C)n(-c2ccccc2)c1=O (protonated)
CCCOc1c(OC)cccc1C(=O)[N-]c1c(C)n(C)n(-c2ccccc2)c1=O (3D coordinates assigned)
CCCOc1c(OC)cccc1C(=O)[N-]c1c(C)n(C)n(-c2ccccc2)c1=O (optimized conformer: 105.74609522553132 kcal/mol)

>  <smiles>  (21) 
CCCOc1c(OC)cccc1C(=O)Nc1c(C)n(C)n(-c2ccccc2)c1=O

>  <score_type>  (21) 
oracle

>  <origin>  (21) 
adg

>  <m_score__min__energy>  (21) 
-10.16

>  <m_primary>  (21) 
energy

$$$$
21:0
     RDKit          3D

 51 54  0  0  0  0  0  0  0  0999 V2000
   -5.8080   17.2970  -31.6640 C   0  0  0  0  0  0  0  0  0  0  0  0
   -6.0160   18.6760  -31.3670 O   0  0  0  0  0  0  0  0  0  0  0  0
   -7.1660   19.3970  -31.7240 C   0  0  0  0  0  0  0  0  0  0  0  0
   -8.3780   18.7830  -31.8750 N   0  0  0  0  0  0  0  0  0  0  0  0
   -9.4950   19.4970  -32.1760 C   0  0  0  0  0  0  0  0  0  0  0  0
   -9.4080   20.8800  -32.3320 C   0  0  0  0  0  0  0  0  0  0  0  0
   -8.2050   21.4940  -32.1940 N   0  0  0  0  0  0  0  0  0  0  0  0
   -7.0780   20.7890  -31.9090 C   0  0  0  0  0  0  0  0  0  0  0  0
   -5.7990   21.5090  -31.7490 C   0  0  0  0  0  0  0  0  0  0  0  0
   -5.6210   22.6860  -31.0280 C   0  0  0  0  0  0  0  0  0  0  0  0
   -6.6820   23.4350  -30.2790 C   0  0  0  0  0  0  0  0  0  0  0  0
   -4.2670   23.0010  -31.0970 C   0  0  0  0  0  0  0  0  0  0  0  0
   -3.5970   24.1580  -30.4800 C   0  0  0  0  0  0  0  0  0  0  0  0
   -3.9300   25.3200  -30.8350 O   0  0  0  0  0  0  0  0  0  0  0  0
   -2.5830   23.9980  -29.4800 N   0  0  0  0  0  0  0  0  0  0  0  0
   -2.1240   22.7150  -28.9470 C   0  0  0  0  0  0  0  0  0  0  0  0
   -0.9630   22.9550  -27.9570 C   0  0  0  0  0  0  0  0  0  0  0  0
   -0.8390   21.8640  -26.8720 C   0  0  0  0  0  0  0  0  0  0  0  0
   -1.3630   20.5030  -27.3530 C   0  0  0  0  0  0  0  0  0  0  0  0
   -1.2190   19.5770  -26.3330 F   0  0  0  0  0  0  0  0  0  0  0  0
   -0.6050   20.0790  -28.4330 F   0  0  0  0  0  0  0  0  0  0  0  0
   -2.8520   20.5800  -27.7630 C   0  0  0  0  0  0  0  0  0  0  0  0
   -3.2860   21.9730  -28.2640 C   0  0  0  0  0  0  0  0  0  0  0  0
   -3.6860   22.0170  -31.8770 C   0  0  0  0  0  0  0  0  0  0  0  0
   -2.3570   21.9070  -32.2970 C   0  0  0  0  0  0  0  0  0  0  0  0
   -2.0180   20.8270  -33.1240 C   0  0  0  0  0  0  0  0  0  0  0  0
   -3.0010   19.9080  -33.5260 C   0  0  0  0  0  0  0  0  0  0  0  0
   -4.3230   20.0730  -33.0890 C   0  0  0  0  0  0  0  0  0  0  0  0
   -4.6120   21.1190  -32.2680 N   0  0  0  0  0  0  0  0  0  0  0  0
   -5.7223   16.7288  -30.7260 H   0  0  0  0  0  0  0  0  0  0  0  0
   -6.6587   16.9152  -32.2475 H   0  0  0  0  0  0  0  0  0  0  0  0
   -4.8825   17.1831  -32.2475 H   0  0  0  0  0  0  0  0  0  0  0  0
   -8.4770   17.7520  -31.7510 H   0  0  0  0  0  0  0  0  0  0  0  0
  -10.4620   18.9866  -32.2958 H   0  0  0  0  0  0  0  0  0  0  0  0
  -10.3073   21.4690  -32.5651 H   0  0  0  0  0  0  0  0  0  0  0  0
   -6.5182   23.3194  -29.1974 H   0  0  0  0  0  0  0  0  0  0  0  0
   -6.6352   24.5013  -30.5450 H   0  0  0  0  0  0  0  0  0  0  0  0
   -7.6711   23.0338  -30.5450 H   0  0  0  0  0  0  0  0  0  0  0  0
   -1.7606   22.0851  -29.7723 H   0  0  0  0  0  0  0  0  0  0  0  0
   -0.0222   22.9878  -28.5260 H   0  0  0  0  0  0  0  0  0  0  0  0
   -1.1723   23.9024  -27.4387 H   0  0  0  0  0  0  0  0  0  0  0  0
    0.2206   21.7579  -26.5962 H   0  0  0  0  0  0  0  0  0  0  0  0
   -1.4486   22.1745  -26.0107 H   0  0  0  0  0  0  0  0  0  0  0  0
   -3.0288   19.8510  -28.5675 H   0  0  0  0  0  0  0  0  0  0  0  0
   -3.4451   20.3632  -26.8623 H   0  0  0  0  0  0  0  0  0  0  0  0
   -4.1070   21.8531  -28.9862 H   0  0  0  0  0  0  0  0  0  0  0  0
   -3.6107   22.5657  -27.3961 H   0  0  0  0  0  0  0  0  0  0  0  0
   -1.6014   22.6444  -31.9883 H   0  0  0  0  0  0  0  0  0  0  0  0
   -0.9782   20.6989  -33.4593 H   0  0  0  0  0  0  0  0  0  0  0  0
   -2.7354   19.0640  -34.1796 H   0  0  0  0  0  0  0  0  0  0  0  0
   -5.1100   19.3716  -33.4032 H   0  0  0  0  0  0  0  0  0  0  0  0
  1  2  1  0
  2  3  1  0
  3  4  2  0
  4  5  1  0
  5  6  2  0
  6  7  1  0
  7  8  2  0
  8  9  1  0
  9 10  2  0
 10 11  1  0
 10 12  1  0
 12 13  1  0
 13 14  2  0
 13 15  1  0
 15 16  1  0
 16 17  1  0
 17 18  1  0
 18 19  1  0
 19 20  1  0
 19 21  1  0
 19 22  1  0
 22 23  1  0
 12 24  2  0
 24 25  1  0
 25 26  2  0
 26 27  1  0
 27 28  2  0
 28 29  1  0
  8  3  1  0
 29  9  1  0
 23 16  1  0
 29 24  1  0
  1 30  1  0
  1 31  1  0
  1 32  1  0
  4 33  1  0
  5 34  1  0
  6 35  1  0
 11 36  1  0
 11 37  1  0
 11 38  1  0
 16 39  1  0
 17 40  1  0
 17 41  1  0
 18 42  1  0
 18 43  1  0
 22 44  1  0
 22 45  1  0
 23 46  1  0
 23 47  1  0
 25 48  1  0
 26 49  1  0
 27 50  1  0
 28 51  1  0
M  CHG  2   4   1  15  -1
M  END
>  <UniqueID>  (22) 
20

>  <SMILES>  (22) 
COc1[nH+]ccnc1-c1c(C)c(C(=O)[N-]C2CCC(F)(F)CC2)c2ccccn12

>  <Energy>  (22) 
96.92993746571159

>  <Genealogy>  (22) 
COc1[nH+]ccnc1-c1c(C)c(C(=O)[N-]C2CCC(F)(F)CC2)c2ccccn12 (protonated)
COc1[nH+]ccnc1-c1c(C)c(C(=O)[N-]C2CCC(F)(F)CC2)c2ccccn12 (3D coordinates assigned)
COc1[nH+]ccnc1-c1c(C)c(C(=O)[N-]C2CCC(F)(F)CC2)c2ccccn12 (nonaromatic ring conformer: 96.92993746571159 kcal/mol)

>  <smiles>  (22) 
COc1nccnc1-c1c(C)c(C(=O)NC2CCC(F)(F)CC2)c2ccccn12

>  <score_type>  (22) 
oracle

>  <origin>  (22) 
adg

>  <m_score__min__energy>  (22) 
-9.5700000000000003

>  <m_primary>  (22) 
energy

$$$$
22:0
     RDKit          3D

 42 44  0  0  1  0  0  0  0  0999 V2000
   -6.8910   23.4420  -32.2500 C   0  0  0  0  0  0  0  0  0  0  0  0
   -6.3550   22.1450  -32.5070 O   0  0  0  0  0  0  0  0  0  0  0  0
   -7.1550   21.0410  -32.2770 C   0  0  0  0  0  0  0  0  0  0  0  0
   -8.2300   21.0990  -31.4030 C   0  0  0  0  0  0  0  0  0  0  0  0
   -8.9940   19.9660  -31.2130 C   0  0  0  0  0  0  0  0  0  0  0  0
   -8.7300   18.7750  -31.8580 C   0  0  0  0  0  0  0  0  0  0  0  0
   -7.6590   18.7310  -32.7240 C   0  0  0  0  0  0  0  0  0  0  0  0
   -6.8670   19.8500  -32.9410 C   0  0  0  0  0  0  0  0  0  0  0  0
   -2.2380   21.6620  -31.6250 N   0  0  0  0  0  0  0  0  0  0  0  0
   -2.6880   20.6550  -32.3280 C   0  0  0  0  0  0  0  0  0  0  0  0
   -3.8050   18.6280  -33.8160 C   0  0  0  0  0  0  0  0  0  0  0  0
   -2.4940   18.5890  -33.3870 C   0  0  0  0  0  0  0  0  0  0  0  0
   -1.9490   19.5980  -32.6500 N   0  0  0  0  0  0  0  0  0  0  0  0
   -4.5390   19.7430  -33.4610 C   0  0  0  0  0  0  0  0  0  0  0  0
   -5.7540   19.8380  -33.8270 N   0  0  0  0  0  0  0  0  0  0  0  0
   -2.8330   21.9710  -30.3480 C   0  0  0  0  0  0  0  0  0  0  0  0
   -2.4380   21.3360  -29.1880 C   0  0  0  0  0  0  0  0  0  0  0  0
   -3.0630   21.6970  -28.0140 C   0  0  0  0  0  0  0  0  0  0  0  0
   -4.0660   22.6690  -27.9740 C   0  0  0  0  0  0  0  0  0  0  0  0
   -4.4290   23.2790  -29.1610 C   0  0  0  0  0  0  0  0  0  0  0  0
   -5.4360   24.2820  -29.2400 N   0  0  0  0  0  0  0  0  0  0  0  0
   -5.3330   25.4200  -30.0900 C   0  0  0  0  0  0  0  0  0  0  0  0
   -4.3490   25.6370  -30.8410 O   0  0  0  0  0  0  0  0  0  0  0  0
   -3.8180   22.9410  -30.3740 C   0  0  0  0  0  0  0  0  0  0  0  0
   -3.9760   20.7320  -32.7300 N   0  0  0  0  0  0  0  0  0  0  0  0
   -6.9574   23.6027  -31.1638 H   0  0  0  0  0  0  0  0  0  0  0  0
   -6.2344   24.2047  -32.6940 H   0  0  0  0  0  0  0  0  0  0  0  0
   -7.8945   23.5186  -32.6940 H   0  0  0  0  0  0  0  0  0  0  0  0
   -8.4693   22.0315  -30.8708 H   0  0  0  0  0  0  0  0  0  0  0  0
   -9.8470   20.0139  -30.5202 H   0  0  0  0  0  0  0  0  0  0  0  0
   -9.3560   17.8870  -31.6860 H   0  0  0  0  0  0  0  0  0  0  0  0
   -7.4280   17.7940  -33.2518 H   0  0  0  0  0  0  0  0  0  0  0  0
   -4.2432   17.8127  -34.4104 H   0  0  0  0  0  0  0  0  0  0  0  0
   -1.8717   17.7199  -33.6469 H   0  0  0  0  0  0  0  0  0  0  0  0
   -0.9510   19.5600  -32.3270 H   0  0  0  0  0  0  0  0  0  0  0  0
   -1.6509   20.5677  -29.2001 H   0  0  0  0  0  0  0  0  0  0  0  0
   -2.7624   21.2038  -27.0778 H   0  0  0  0  0  0  0  0  0  0  0  0
   -4.5528   22.9412  -27.0259 H   0  0  0  0  0  0  0  0  0  0  0  0
   -6.2840   24.1420  -28.6260 H   0  0  0  0  0  0  0  0  0  0  0  0
   -6.1582   26.1474  -30.0891 H   0  0  0  0  0  0  0  0  0  0  0  0
   -4.1111   23.4298  -31.3148 H   0  0  0  0  0  0  0  0  0  0  0  0
   -4.5760   21.5570  -32.4870 H   0  0  0  0  0  0  0  0  0  0  0  0
  1  2  1  0
  2  3  1  0
  3  4  2  0
  4  5  1  0
  5  6  2  0
  6  7  1  0
  7  8  2  0
  8  9  1  0
  9 10  2  0
 10 11  1  0
 11 12  2  0
 12 13  1  0
 13 14  1  0
 14 15  2  0
 15 16  1  0
 16 17  2  0
 17 18  1  0
 18 19  2  0
 19 20  1  0
 20 21  1  0
 21 22  1  0
 22 23  2  0
 20 24  2  0
 14 25  1  0
  8  3  1  0
 25 10  1  0
 24 16  1  0
  1 26  1  0
  1 27  1  0
  1 28  1  0
  4 29  1  0
  5 30  1  0
  6 31  1  0
  7 32  1  0
 11 33  1  0
 12 34  1  0
 13 35  1  0
 17 36  1  0
 18 37  1  0
 19 38  1  0
 21 39  1  0
 22 40  1  0
 24 41  1  0
 25 42  1  0
M  END
>  <smiles>  (23) 
COc1ccccc1N=c1cc[nH]c(=Nc2cccc(NC=O)c2)[nH]1

>  <score_type>  (23) 
oracle

>  <origin>  (23) 
adg

>  <m_score__min__energy>  (23) 
-8.7400000000000002

>  <m_primary>  (23) 
energy

$$$$
23:0
     RDKit          3D

 24 25  0  0  0  0  0  0  0  0999 V2000
  -10.5548   20.8321  -31.7524 H   0  0  0  0  0  0  0  0  0  0  0  0
   -9.4980   21.0480  -31.9680 C   0  0  0  0  0  0  0  0  0  0  0  0
   -9.1290   22.2970  -32.0010 N   0  0  0  0  0  0  0  0  0  0  0  0
   -7.8850   22.8450  -31.5450 C   0  0  0  0  0  0  0  0  0  0  0  0
   -7.5980   22.8160  -30.2180 N   0  0  0  0  0  0  0  0  0  0  0  0
   -6.4200   23.2940  -29.7420 C   0  0  0  0  0  0  0  0  0  0  0  0
   -6.2103   23.2644  -28.6626 H   0  0  0  0  0  0  0  0  0  0  0  0
   -5.4730   23.8240  -30.6240 C   0  0  0  0  0  0  0  0  0  0  0  0
   -4.1480   24.3190  -30.1270 C   0  0  0  0  0  0  0  0  0  0  0  0
   -4.1460   24.3197  -29.0270 H   0  0  0  0  0  0  0  0  0  0  0  0
   -3.3486   23.6589  -30.4947 H   0  0  0  0  0  0  0  0  0  0  0  0
   -3.9772   25.3416  -30.4947 H   0  0  0  0  0  0  0  0  0  0  0  0
   -5.7630   23.7990  -31.9920 C   0  0  0  0  0  0  0  0  0  0  0  0
   -5.0263   24.1767  -32.7163 H   0  0  0  0  0  0  0  0  0  0  0  0
   -6.9530   23.3090  -32.4280 N   0  0  0  0  0  0  0  0  0  0  0  0
   -7.1340   23.2710  -33.4570 H   0  0  0  0  0  0  0  0  0  0  0  0
   -8.5960   19.9020  -32.2000 C   0  0  0  0  0  0  0  0  0  0  0  0
   -7.1780   19.9890  -33.0970 S   0  0  0  0  0  0  0  0  0  0  0  0
   -6.6760   18.4100  -32.8120 C   0  0  0  0  0  0  0  0  0  0  0  0
   -5.7657   17.9407  -33.2133 H   0  0  0  0  0  0  0  0  0  0  0  0
   -7.6070   17.8010  -31.9840 C   0  0  0  0  0  0  0  0  0  0  0  0
   -7.5150   16.7608  -31.6384 H   0  0  0  0  0  0  0  0  0  0  0  0
   -8.6750   18.6340  -31.6290 C   0  0  0  0  0  0  0  0  0  0  0  0
   -9.4941   18.3187  -30.9659 H   0  0  0  0  0  0  0  0  0  0  0  0
  1  2  1  0
  2  3  2  0
  3  4  1  0
  4  5  2  0
  5  6  1  0
  6  7  1  0
  6  8  2  0
  8  9  1  0
  9 10  1  0
  9 11  1  0
  9 12  1  0
  8 13  1  0
 13 14  1  0
 13 15  2  0
 15 16  1  0
  2 17  1  0
 17 18  1  0
 18 19  1  0
 19 20  1  0
 19 21  2  0
 21 22  1  0
 21 23  1  0
 23 24  1  0
 15  4  1  0
 23 17  2  0
M  CHG  1  15   1
M  END
>  <UniqueID>  (24) 
21

>  <SMILES>  (24) 
Cc1cnc(/N=C\c2cccs2)[nH+]c1

>  <Energy>  (24) 
58.99126251917625

>  <Genealogy>  (24) 
Cc1cnc(N=Cc2cccs2)[nH+]c1 (protonated)
Cc1cnc(/N=C\c2cccs2)[nH+]c1 (cis-trans isomerization)
Cc1cnc(/N=C\c2cccs2)[nH+]c1 (3D coordinates assigned)
Cc1cnc(/N=C\c2cccs2)[nH+]c1 (optimized conformer: 58.99126251917625 kcal/mol)

>  <smiles>  (24) 
Cc1cnc(N=Cc2cccs2)nc1

>  <score_type>  (24) 
oracle

>  <origin>  (24) 
adg

>  <m_score__min__energy>  (24) 
-5.6200000000000001

>  <m_primary>  (24) 
energy

$$$$
24:0
     RDKit          3D

 25 26  0  0  0  0  0  0  0  0999 V2000
   -6.2234   22.9981  -29.6607 H   0  0  0  0  0  0  0  0  0  0  0  0
   -5.9400   23.6010  -30.5360 C   0  0  0  0  0  0  0  0  0  0  0  0
   -4.8610   24.5990  -30.3890 C   0  0  0  0  0  0  0  0  0  0  0  0
   -4.8060   25.5450  -31.2180 O   0  0  0  0  0  0  0  0  0  0  0  0
   -3.8270   24.5250  -29.3370 C   0  0  0  0  0  0  0  0  0  0  0  0
   -2.7390   25.2610  -29.3450 O   0  0  0  0  0  0  0  0  0  0  0  0
   -2.0170   24.9450  -28.2960 C   0  0  0  0  0  0  0  0  0  0  0  0
   -0.6960   25.5600  -27.9730 C   0  0  0  0  0  0  0  0  0  0  0  0
   -0.5749   25.6164  -26.8811 H   0  0  0  0  0  0  0  0  0  0  0  0
    0.1093   24.9442  -28.3999 H   0  0  0  0  0  0  0  0  0  0  0  0
   -0.6488   26.5727  -28.3999 H   0  0  0  0  0  0  0  0  0  0  0  0
   -2.6410   23.9530  -27.5680 C   0  0  0  0  0  0  0  0  0  0  0  0
   -2.2795   23.4800  -26.6431 H   0  0  0  0  0  0  0  0  0  0  0  0
   -3.8130   23.6780  -28.2420 C   0  0  0  0  0  0  0  0  0  0  0  0
   -4.5787   22.9380  -27.9661 H   0  0  0  0  0  0  0  0  0  0  0  0
   -6.5870   23.4000  -31.6900 C   0  0  0  0  0  0  0  0  0  0  0  0
   -6.5244   24.1700  -32.4731 H   0  0  0  0  0  0  0  0  0  0  0  0
   -7.3800   22.1860  -31.9510 C   0  0  0  0  0  0  0  0  0  0  0  0
   -9.0130   21.9480  -31.6080 S   0  0  0  0  0  0  0  0  0  0  0  0
   -9.1040   20.3800  -32.2030 C   0  0  0  0  0  0  0  0  0  0  0  0
  -10.0021   19.7450  -32.2120 H   0  0  0  0  0  0  0  0  0  0  0  0
   -7.8490   20.0230  -32.6820 C   0  0  0  0  0  0  0  0  0  0  0  0
   -7.6323   19.0415  -33.1289 H   0  0  0  0  0  0  0  0  0  0  0  0
   -6.8860   21.0310  -32.5420 C   0  0  0  0  0  0  0  0  0  0  0  0
   -5.8415   20.9183  -32.8682 H   0  0  0  0  0  0  0  0  0  0  0  0
  1  2  1  0
  2  3  1  0
  3  4  2  0
  3  5  1  0
  5  6  1  0
  6  7  1  0
  7  8  1  0
  8  9  1  0
  8 10  1  0
  8 11  1  0
  7 12  2  0
 12 13  1  0
 12 14  1  0
 14 15  1  0
  2 16  2  0
 16 17  1  0
 16 18  1  0
 18 19  1  0
 19 20  1  0
 20 21  1  0
 20 22  2  0
 22 23  1  0
 22 24  1  0
 24 25  1  0
 14  5  2  0
 24 18  2  0
M  END
>  <UniqueID>  (25) 
22

>  <SMILES>  (25) 
Cc1ccc(C(=O)/C=C/c2cccs2)o1

>  <Energy>  (25) 
77.65173973437649

>  <Genealogy>  (25) 
Cc1ccc(C(=O)/C=C/c2cccs2)o1 (cis-trans isomerization)
Cc1ccc(C(=O)/C=C/c2cccs2)o1 (3D coordinates assigned)
Cc1ccc(C(=O)/C=C/c2cccs2)o1 (optimized conformer: 77.65173973437649 kcal/mol)

>  <smiles>  (25) 
Cc1ccc(C(=O)C=Cc2cccs2)o1

>  <score_type>  (25) 
oracle

>  <origin>  (25) 
adg

>  <m_score__min__energy>  (25) 
-7.2599999999999998

>  <m_primary>  (25) 
energy

$$$$
25:0
     RDKit          3D

 40 42  0  0  0  0  0  0  0  0999 V2000
   -5.4410   15.9280  -33.0950 C   0  0  0  0  0  0  0  0  0  0  0  0
   -6.4260   16.7340  -33.6610 O   0  0  0  0  0  0  0  0  0  0  0  0
   -6.7740   18.0000  -33.2570 C   0  0  0  0  0  0  0  0  0  0  0  0
   -7.7800   18.2870  -32.3600 C   0  0  0  0  0  0  0  0  0  0  0  0
   -8.1040   19.5630  -31.9750 C   0  0  0  0  0  0  0  0  0  0  0  0
   -9.1140   19.8500  -31.0750 C   0  0  0  0  0  0  0  0  0  0  0  0
   -9.4160   21.1110  -30.7120 N   0  0  0  0  0  0  0  0  0  0  0  0
   -8.7210   22.1390  -31.2290 C   0  0  0  0  0  0  0  0  0  0  0  0
   -7.6980   21.9140  -32.1350 C   0  0  0  0  0  0  0  0  0  0  0  0
   -6.9380   23.0340  -32.7020 C   0  0  0  0  0  0  0  0  0  0  0  0
   -5.8770   23.5380  -31.7760 C   0  0  0  0  0  0  0  0  0  0  0  0
   -6.1280   24.5070  -30.8250 C   0  0  0  0  0  0  0  0  0  0  0  0
   -5.1490   24.9510  -29.9910 N   0  0  0  0  0  0  0  0  0  0  0  0
   -3.8900   24.4450  -30.0800 C   0  0  0  0  0  0  0  0  0  0  0  0
   -3.0020   24.8900  -29.2790 N   0  0  0  0  0  0  0  0  0  0  0  0
   -3.6360   23.4940  -31.0120 N   0  0  0  0  0  0  0  0  0  0  0  0
   -4.5950   23.0450  -31.8430 C   0  0  0  0  0  0  0  0  0  0  0  0
   -4.2820   22.1410  -32.7030 N   0  0  0  0  0  0  0  0  0  0  0  0
   -7.3910   20.6050  -32.5080 C   0  0  0  0  0  0  0  0  0  0  0  0
   -6.3740   20.3360  -33.4130 C   0  0  0  0  0  0  0  0  0  0  0  0
   -6.0450   19.0580  -33.8010 C   0  0  0  0  0  0  0  0  0  0  0  0
   -5.0260   18.8080  -34.7060 O   0  0  0  0  0  0  0  0  0  0  0  0
   -3.7150   18.6630  -34.2020 C   0  0  0  0  0  0  0  0  0  0  0  0
   -5.5079   15.9827  -31.9984 H   0  0  0  0  0  0  0  0  0  0  0  0
   -5.5874   14.8873  -33.4198 H   0  0  0  0  0  0  0  0  0  0  0  0
   -4.4499   16.2775  -33.4198 H   0  0  0  0  0  0  0  0  0  0  0  0
   -8.3519   17.4509  -31.9312 H   0  0  0  0  0  0  0  0  0  0  0  0
   -9.6904   19.0198  -30.6408 H   0  0  0  0  0  0  0  0  0  0  0  0
   -8.9671   23.1685  -30.9297 H   0  0  0  0  0  0  0  0  0  0  0  0
   -6.4611   22.6993  -33.6350 H   0  0  0  0  0  0  0  0  0  0  0  0
   -7.6438   23.8588  -32.8796 H   0  0  0  0  0  0  0  0  0  0  0  0
   -7.1404   24.9287  -30.7399 H   0  0  0  0  0  0  0  0  0  0  0  0
   -5.3500   25.6970  -29.2620 H   0  0  0  0  0  0  0  0  0  0  0  0
   -3.3010   25.3830  -28.3910 H   0  0  0  0  0  0  0  0  0  0  0  0
   -2.6490   23.1400  -31.0350 H   0  0  0  0  0  0  0  0  0  0  0  0
   -4.6180   22.1520  -33.6910 H   0  0  0  0  0  0  0  0  0  0  0  0
   -5.8082   21.1786  -33.8371 H   0  0  0  0  0  0  0  0  0  0  0  0
   -3.7425   18.6660  -33.1023 H   0  0  0  0  0  0  0  0  0  0  0  0
   -3.2893   17.7123  -34.5555 H   0  0  0  0  0  0  0  0  0  0  0  0
   -3.0919   19.4977  -34.5555 H   0  0  0  0  0  0  0  0  0  0  0  0
  1  2  1  0
  2  3  1  0
  3  4  2  0
  4  5  1  0
  5  6  2  0
  6  7  1  0
  7  8  2  0
  8  9  1  0
  9 10  1  0
 10 11  1  0
 11 12  2  0
 12 13  1  0
 13 14  1  0
 14 15  2  3
 14 16  1  0
 16 17  1  0
 17 18  2  3
  9 19  2  0
 19 20  1  0
 20 21  2  0
 21 22  1  0
 22 23  1  0
 21  3  1  0
 19  5  1  0
 17 11  1  0
  1 24  1  0
  1 25  1  0
  1 26  1  0
  4 27  1  0
  6 28  1  0
  8 29  1  0
 10 30  1  0
 10 31  1  0
 12 32  1  0
 13 33  1  0
 15 34  1  0
 16 35  1  0
 18 36  1  0
 20 37  1  0
 23 38  1  0
 23 39  1  0
 23 40  1  0
M  END
>  <smiles>  (26) 
COc1cc2cncc(Cc3c[nH]c(=N)[nH]c3=N)c2cc1OC

>  <score_type>  (26) 
oracle

>  <origin>  (26) 
adg

>  <m_score__min__energy>  (26) 
-7.5599999999999996

>  <m_primary>  (26) 
energy

$$$$
26:0
     RDKit          3D

 69 73  0  0  0  0  0  0  0  0999 V2000
   -4.0630   17.3270  -34.9280 C   0  0  0  0  0  0  0  0  0  0  0  0
   -3.9240   18.6990  -34.5700 O   0  0  0  0  0  0  0  0  0  0  0  0
   -4.8880   19.4390  -33.8660 C   0  0  0  0  0  0  0  0  0  0  0  0
   -6.2200   18.9730  -33.7200 C   0  0  0  0  0  0  0  0  0  0  0  0
   -7.1150   19.7720  -33.0190 C   0  0  0  0  0  0  0  0  0  0  0  0
   -8.4470   19.6050  -32.7050 C   0  0  0  0  0  0  0  0  0  0  0  0
   -8.8560   20.6850  -31.9940 N   0  0  0  0  0  0  0  0  0  0  0  0
   -7.8250   21.5140  -31.8690 N   0  0  0  0  0  0  0  0  0  0  0  0
   -7.8770   22.7730  -31.1310 C   0  0  0  0  0  0  0  0  0  0  0  0
   -7.1730   22.6190  -29.7770 C   0  0  0  0  0  0  0  0  0  0  0  0
   -6.3930   23.8290  -29.4340 N   0  0  0  0  0  0  0  0  0  0  0  0
   -4.9680   23.5020  -29.1850 C   0  0  0  0  0  0  0  0  0  0  0  0
   -4.0930   23.7930  -30.4180 C   0  0  0  0  0  0  0  0  0  0  0  0
   -4.1210   25.1540  -30.8280 O   0  0  0  0  0  0  0  0  0  0  0  0
   -5.3340   25.8220  -30.5070 C   0  0  0  0  0  0  0  0  0  0  0  0
   -6.5570   24.8920  -30.4580 C   0  0  0  0  0  0  0  0  0  0  0  0
   -6.7550   20.9680  -32.4790 C   0  0  0  0  0  0  0  0  0  0  0  0
   -5.4570   21.4620  -32.5860 C   0  0  0  0  0  0  0  0  0  0  0  0
   -4.5080   20.6850  -33.2890 C   0  0  0  0  0  0  0  0  0  0  0  0
   -3.0910   21.1880  -33.4180 C   0  0  0  0  0  0  0  0  0  0  0  0
   -2.1290   20.0750  -33.4160 N   0  0  0  0  0  0  0  0  0  0  0  0
   -0.8110   20.4470  -32.8720 C   0  0  0  0  0  0  0  0  0  0  0  0
   -0.8370   20.6650  -31.3760 C   0  0  0  0  0  0  0  0  0  0  0  0
   -0.5090   19.6170  -30.5010 C   0  0  0  0  0  0  0  0  0  0  0  0
   -0.5220   19.8230  -29.1180 C   0  0  0  0  0  0  0  0  0  0  0  0
   -0.8700   21.0750  -28.5900 C   0  0  0  0  0  0  0  0  0  0  0  0
   -0.8790   21.2920  -27.1310 C   0  0  0  0  0  0  0  0  0  0  0  0
   -0.3000   22.3310  -26.4190 C   0  0  0  0  0  0  0  0  0  0  0  0
    0.4730   23.4870  -26.9710 C   0  0  0  0  0  0  0  0  0  0  0  0
   -0.5470   22.1430  -25.1090 N   0  0  0  0  0  0  0  0  0  0  0  0
   -1.2510   21.0550  -24.9790 O   0  0  0  0  0  0  0  0  0  0  0  0
   -1.4750   20.5070  -26.1530 C   0  0  0  0  0  0  0  0  0  0  0  0
   -2.2560   19.2500  -26.3510 C   0  0  0  0  0  0  0  0  0  0  0  0
   -1.2010   22.1200  -29.4650 C   0  0  0  0  0  0  0  0  0  0  0  0
   -1.1780   21.9190  -30.8470 C   0  0  0  0  0  0  0  0  0  0  0  0
   -4.1250   16.7146  -34.0163 H   0  0  0  0  0  0  0  0  0  0  0  0
   -4.9792   17.1941  -35.5220 H   0  0  0  0  0  0  0  0  0  0  0  0
   -3.1921   17.0130  -35.5220 H   0  0  0  0  0  0  0  0  0  0  0  0
   -6.5343   18.0097  -34.1482 H   0  0  0  0  0  0  0  0  0  0  0  0
   -9.0712   18.7432  -32.9835 H   0  0  0  0  0  0  0  0  0  0  0  0
   -7.3748   23.5582  -31.7151 H   0  0  0  0  0  0  0  0  0  0  0  0
   -8.9285   23.0479  -30.9612 H   0  0  0  0  0  0  0  0  0  0  0  0
   -7.9299   22.4480  -28.9973 H   0  0  0  0  0  0  0  0  0  0  0  0
   -6.4803   21.7670  -29.8416 H   0  0  0  0  0  0  0  0  0  0  0  0
   -4.6059   24.1064  -28.3403 H   0  0  0  0  0  0  0  0  0  0  0  0
   -4.8970   22.4276  -28.9601 H   0  0  0  0  0  0  0  0  0  0  0  0
   -3.0538   23.5234  -30.1783 H   0  0  0  0  0  0  0  0  0  0  0  0
   -4.4989   23.1976  -31.2491 H   0  0  0  0  0  0  0  0  0  0  0  0
   -5.2188   26.2966  -29.5214 H   0  0  0  0  0  0  0  0  0  0  0  0
   -5.5189   26.5546  -31.3064 H   0  0  0  0  0  0  0  0  0  0  0  0
   -7.4492   25.4877  -30.2149 H   0  0  0  0  0  0  0  0  0  0  0  0
   -6.6632   24.4101  -31.4411 H   0  0  0  0  0  0  0  0  0  0  0  0
   -5.1789   22.4271  -32.1373 H   0  0  0  0  0  0  0  0  0  0  0  0
   -2.9927   21.7455  -34.3611 H   0  0  0  0  0  0  0  0  0  0  0  0
   -2.8727   21.8385  -32.5582 H   0  0  0  0  0  0  0  0  0  0  0  0
   -2.0140   19.7340  -34.3990 H   0  0  0  0  0  0  0  0  0  0  0  0
   -0.0971   19.6412  -33.0977 H   0  0  0  0  0  0  0  0  0  0  0  0
   -0.5144   21.3969  -33.3408 H   0  0  0  0  0  0  0  0  0  0  0  0
   -0.2407   18.6298  -30.9052 H   0  0  0  0  0  0  0  0  0  0  0  0
   -0.2577   18.9981  -28.4400 H   0  0  0  0  0  0  0  0  0  0  0  0
    0.8751   24.0884  -26.1423 H   0  0  0  0  0  0  0  0  0  0  0  0
    1.3027   23.1120  -27.5882 H   0  0  0  0  0  0  0  0  0  0  0  0
   -0.1905   24.1105  -27.5882 H   0  0  0  0  0  0  0  0  0  0  0  0
   -0.2450   22.7540  -24.3190 H   0  0  0  0  0  0  0  0  0  0  0  0
   -2.5204   18.8245  -25.3717 H   0  0  0  0  0  0  0  0  0  0  0  0
   -3.1744   19.4737  -26.9136 H   0  0  0  0  0  0  0  0  0  0  0  0
   -1.6486   18.5257  -26.9136 H   0  0  0  0  0  0  0  0  0  0  0  0
   -1.4804   23.1040  -29.0603 H   0  0  0  0  0  0  0  0  0  0  0  0
   -1.4287   22.7485  -31.5245 H   0  0  0  0  0  0  0  0  0  0  0  0
  1  2  1  0
  2  3  1  0
  3  4  2  0
  4  5  1  0
  5  6  1  0
  6  7  2  0
  7  8  1  0
  8  9  1  0
  9 10  1  0
 10 11  1  0
 11 12  1  0
 12 13  1  0
 13 14  1  0
 14 15  1  0
 15 16  1  0
  8 17  1  0
 17 18  1  0
 18 19  2  0
 19 20  1  0
 20 21  1  0
 21 22  1  0
 22 23  1  0
 23 24  2  0
 24 25  1  0
 25 26  2  0
 26 27  1  0
 27 28  1  0
 28 29  1  0
 28 30  2  0
 30 31  1  0
 31 32  1  0
 32 33  1  0
 26 34  1  0
 34 35  2  0
 19  3  1  0
 35 23  1  0
 17  5  2  0
 32 27  2  0
 16 11  1  0
  1 36  1  0
  1 37  1  0
  1 38  1  0
  4 39  1  0
  6 40  1  0
  9 41  1  0
  9 42  1  0
 10 43  1  0
 10 44  1  0
 12 45  1  0
 12 46  1  0
 13 47  1  0
 13 48  1  0
 15 49  1  0
 15 50  1  0
 16 51  1  0
 16 52  1  0
 18 53  1  0
 20 54  1  0
 20 55  1  0
 21 56  1  0
 22 57  1  0
 22 58  1  0
 24 59  1  0
 25 60  1  0
 29 61  1  0
 29 62  1  0
 29 63  1  0
 30 64  1  0
 33 65  1  0
 33 66  1  0
 33 67  1  0
 34 68  1  0
 35 69  1  0
M  CHG  1  30   1
M  END
>  <UniqueID>  (27) 
23

>  <SMILES>  (27) 
COc1cc2cnn(CCN3CCOCC3)c2cc1CNCc1ccc(-c2c(C)[nH+]oc2C)cc1

>  <Energy>  (27) 
153.74799197452188

>  <Genealogy>  (27) 
COc1cc2cnn(CCN3CCOCC3)c2cc1CNCc1ccc(-c2c(C)[nH+]oc2C)cc1 (protonated)
COc1cc2cnn(CCN3CCOCC3)c2cc1CNCc1ccc(-c2c(C)[nH+]oc2C)cc1 (3D coordinates assigned)
COc1cc2cnn(CCN3CCOCC3)c2cc1CNCc1ccc(-c2c(C)[nH+]oc2C)cc1 (nonaromatic ring conformer: 153.74799197452188 kcal/mol)

>  <smiles>  (27) 
COc1cc2cnn(CCN3CCOCC3)c2cc1CNCc1ccc(-c2c(C)noc2C)cc1

>  <score_type>  (27) 
oracle

>  <origin>  (27) 
adg

>  <m_score__min__energy>  (27) 
-11.52

>  <m_primary>  (27) 
energy

$$$$
27:0
     RDKit          3D

 51 53  0  0  0  0  0  0  0  0999 V2000
   -6.8800   23.4240  -32.2900 C   0  0  0  0  0  0  0  0  0  0  0  0
   -7.1340   22.4120  -31.1800 C   0  0  0  0  0  0  0  0  0  0  0  0
   -7.8470   21.2470  -31.7050 N   0  0  0  0  0  0  0  0  0  0  0  0
   -9.1650   21.1900  -31.9830 C   0  0  0  0  0  0  0  0  0  0  0  0
   -9.4740   19.9040  -32.3720 C   0  0  0  0  0  0  0  0  0  0  0  0
   -8.3550   19.1600  -32.3240 N   0  0  0  0  0  0  0  0  0  0  0  0
   -7.3790   19.9950  -31.9120 C   0  0  0  0  0  0  0  0  0  0  0  0
   -5.9440   19.5680  -31.7510 C   0  0  0  0  0  0  0  0  0  0  0  0
   -5.1980   19.6900  -33.0170 N   0  0  0  0  0  0  0  0  0  0  0  0
   -5.7420   19.1020  -34.2450 C   0  0  0  0  0  0  0  0  0  0  0  0
   -3.9170   20.3570  -33.0870 C   0  0  0  0  0  0  0  0  0  0  0  0
   -3.2610   20.3310  -34.1630 O   0  0  0  0  0  0  0  0  0  0  0  0
   -3.3360   21.0520  -31.9200 C   0  0  0  0  0  0  0  0  0  0  0  0
   -2.4610   20.3690  -31.0630 C   0  0  0  0  0  0  0  0  0  0  0  0
   -1.9510   21.0030  -29.9270 C   0  0  0  0  0  0  0  0  0  0  0  0
   -2.2900   22.3290  -29.6520 C   0  0  0  0  0  0  0  0  0  0  0  0
   -3.1160   23.0460  -30.5320 C   0  0  0  0  0  0  0  0  0  0  0  0
   -3.4840   24.4510  -30.2550 C   0  0  0  0  0  0  0  0  0  0  0  0
   -4.4650   24.9560  -30.8640 O   0  0  0  0  0  0  0  0  0  0  0  0
   -2.7470   25.2730  -29.3420 N   0  0  0  0  0  0  0  0  0  0  0  0
   -2.4320   24.9220  -27.9620 C   0  0  0  0  0  0  0  0  0  0  0  0
   -0.9780   25.1870  -27.7020 C   0  0  0  0  0  0  0  0  0  0  0  0
   -0.5810   26.2770  -26.9130 C   0  0  0  0  0  0  0  0  0  0  0  0
    0.7760   26.4940  -26.6540 C   0  0  0  0  0  0  0  0  0  0  0  0
    1.7220   25.6120  -27.1800 C   0  0  0  0  0  0  0  0  0  0  0  0
    1.3220   24.5510  -27.9300 N   0  0  0  0  0  0  0  0  0  0  0  0
    0.0070   24.3170  -28.1950 C   0  0  0  0  0  0  0  0  0  0  0  0
   -3.6480   22.3960  -31.6580 C   0  0  0  0  0  0  0  0  0  0  0  0
   -6.6349   24.4005  -31.8469 H   0  0  0  0  0  0  0  0  0  0  0  0
   -6.0397   23.0825  -32.9123 H   0  0  0  0  0  0  0  0  0  0  0  0
   -7.7820   23.5198  -32.9123 H   0  0  0  0  0  0  0  0  0  0  0  0
   -6.1713   22.0878  -30.7579 H   0  0  0  0  0  0  0  0  0  0  0  0
   -7.7488   22.8848  -30.4000 H   0  0  0  0  0  0  0  0  0  0  0  0
   -9.8740   22.0280  -31.9115 H   0  0  0  0  0  0  0  0  0  0  0  0
  -10.4701   19.5462  -32.6717 H   0  0  0  0  0  0  0  0  0  0  0  0
   -8.2670   18.1460  -32.5580 H   0  0  0  0  0  0  0  0  0  0  0  0
   -5.4652   20.2035  -30.9914 H   0  0  0  0  0  0  0  0  0  0  0  0
   -5.9309   18.5120  -31.4434 H   0  0  0  0  0  0  0  0  0  0  0  0
   -6.4679   18.3174  -33.9855 H   0  0  0  0  0  0  0  0  0  0  0  0
   -6.2424   19.8837  -34.8354 H   0  0  0  0  0  0  0  0  0  0  0  0
   -4.9238   18.6638  -34.8354 H   0  0  0  0  0  0  0  0  0  0  0  0
   -2.1751   19.3304  -31.2858 H   0  0  0  0  0  0  0  0  0  0  0  0
   -1.2807   20.4559  -29.2477 H   0  0  0  0  0  0  0  0  0  0  0  0
   -1.9082   22.8142  -28.7416 H   0  0  0  0  0  0  0  0  0  0  0  0
   -3.0440   25.5299  -27.2794 H   0  0  0  0  0  0  0  0  0  0  0  0
   -2.6479   23.8565  -27.7945 H   0  0  0  0  0  0  0  0  0  0  0  0
   -1.3366   26.9605  -26.4984 H   0  0  0  0  0  0  0  0  0  0  0  0
    1.0948   27.3507  -26.0422 H   0  0  0  0  0  0  0  0  0  0  0  0
    2.7925   25.7759  -26.9873 H   0  0  0  0  0  0  0  0  0  0  0  0
   -0.2842   23.4437  -28.7971 H   0  0  0  0  0  0  0  0  0  0  0  0
   -4.3144   22.9442  -32.3401 H   0  0  0  0  0  0  0  0  0  0  0  0
  1  2  1  0
  2  3  1  0
  3  4  1  0
  4  5  2  0
  5  6  1  0
  6  7  2  0
  7  8  1  0
  8  9  1  0
  9 10  1  0
  9 11  1  0
 11 12  2  0
 11 13  1  0
 13 14  2  0
 14 15  1  0
 15 16  2  0
 16 17  1  0
 17 18  1  0
 18 19  2  0
 18 20  1  0
 20 21  1  0
 21 22  1  0
 22 23  2  0
 23 24  1  0
 24 25  2  0
 25 26  1  0
 26 27  2  0
 17 28  2  0
  7  3  1  0
 28 13  1  0
 27 22  1  0
  1 29  1  0
  1 30  1  0
  1 31  1  0
  2 32  1  0
  2 33  1  0
  4 34  1  0
  5 35  1  0
  6 36  1  0
  8 37  1  0
  8 38  1  0
 10 39  1  0
 10 40  1  0
 10 41  1  0
 14 42  1  0
 15 43  1  0
 16 44  1  0
 21 45  1  0
 21 46  1  0
 23 47  1  0
 24 48  1  0
 25 49  1  0
 27 50  1  0
 28 51  1  0
M  CHG  2   6   1  20  -1
M  END
>  <UniqueID>  (28) 
24

>  <SMILES>  (28) 
CCn1cc[nH+]c1CN(C)C(=O)c1cccc(C(=O)[N-]Cc2cccnc2)c1

>  <Energy>  (28) 
85.17634407694325

>  <Genealogy>  (28) 
CCn1cc[nH+]c1CN(C)C(=O)c1cccc(C(=O)[N-]Cc2cccnc2)c1 (protonated)
CCn1cc[nH+]c1CN(C)C(=O)c1cccc(C(=O)[N-]Cc2cccnc2)c1 (3D coordinates assigned)
CCn1cc[nH+]c1CN(C)C(=O)c1cccc(C(=O)[N-]Cc2cccnc2)c1 (optimized conformer: 85.17634407694325 kcal/mol)

>  <smiles>  (28) 
CCn1ccnc1CN(C)C(=O)c1cccc(C(=O)NCc2cccnc2)c1

>  <score_type>  (28) 
oracle

>  <origin>  (28) 
adg

>  <m_score__min__energy>  (28) 
-9.7400000000000002

>  <m_primary>  (28) 
energy

$$$$
28:0
     RDKit          3D

 38 40  0  0  0  0  0  0  0  0999 V2000
   -3.9840   25.2060  -30.6250 O   0  0  0  0  0  0  0  0  0  0  0  0
   -4.2290   23.9710  -30.7050 C   0  0  0  0  0  0  0  0  0  0  0  0
   -5.4930   23.5590  -31.1360 C   0  0  0  0  0  0  0  0  0  0  0  0
   -5.7970   22.1950  -31.1900 C   0  0  0  0  0  0  0  0  0  0  0  0
   -7.1570   21.7560  -31.5460 C   0  0  0  0  0  0  0  0  0  0  0  0
   -8.2930   21.9750  -30.7930 C   0  0  0  0  0  0  0  0  0  0  0  0
   -9.2940   21.3140  -31.4770 C   0  0  0  0  0  0  0  0  0  0  0  0
   -8.7790   20.7140  -32.5690 N   0  0  0  0  0  0  0  0  0  0  0  0
   -7.4830   20.9820  -32.6060 N   0  0  0  0  0  0  0  0  0  0  0  0
   -6.5790   20.4140  -33.6100 C   0  0  0  0  0  0  0  0  0  0  0  0
   -6.2560   18.9760  -33.2900 C   0  0  0  0  0  0  0  0  0  0  0  0
   -6.4060   18.4830  -31.9820 C   0  0  0  0  0  0  0  0  0  0  0  0
   -6.1570   17.1350  -31.7040 C   0  0  0  0  0  0  0  0  0  0  0  0
   -5.7450   16.2750  -32.7230 C   0  0  0  0  0  0  0  0  0  0  0  0
   -5.5750   16.7610  -34.0230 C   0  0  0  0  0  0  0  0  0  0  0  0
   -5.8270   18.1060  -34.3070 C   0  0  0  0  0  0  0  0  0  0  0  0
   -4.8140   21.2630  -30.8530 C   0  0  0  0  0  0  0  0  0  0  0  0
   -3.5580   21.7050  -30.4350 C   0  0  0  0  0  0  0  0  0  0  0  0
   -3.2760   23.0430  -30.3610 N   0  0  0  0  0  0  0  0  0  0  0  0
   -1.9650   23.4630  -29.8430 C   0  0  0  0  0  0  0  0  0  0  0  0
   -2.1430   24.3560  -28.6170 C   0  0  0  0  0  0  0  0  0  0  0  0
   -1.9380   25.6770  -28.9680 F   0  0  0  0  0  0  0  0  0  0  0  0
   -6.2458   24.3046  -31.4316 H   0  0  0  0  0  0  0  0  0  0  0  0
   -8.3811   22.5476  -29.8579 H   0  0  0  0  0  0  0  0  0  0  0  0
  -10.3516   21.2818  -31.1764 H   0  0  0  0  0  0  0  0  0  0  0  0
   -7.0605   20.4639  -34.5977 H   0  0  0  0  0  0  0  0  0  0  0  0
   -5.6438   20.9932  -33.6092 H   0  0  0  0  0  0  0  0  0  0  0  0
   -6.7204   19.1600  -31.1740 H   0  0  0  0  0  0  0  0  0  0  0  0
   -6.2861   16.7522  -30.6809 H   0  0  0  0  0  0  0  0  0  0  0  0
   -5.5539   15.2142  -32.5033 H   0  0  0  0  0  0  0  0  0  0  0  0
   -5.2424   16.0837  -34.8234 H   0  0  0  0  0  0  0  0  0  0  0  0
   -5.6891   18.4851  -35.3303 H   0  0  0  0  0  0  0  0  0  0  0  0
   -5.0282   20.1859  -30.9166 H   0  0  0  0  0  0  0  0  0  0  0  0
   -2.7860   20.9705  -30.1620 H   0  0  0  0  0  0  0  0  0  0  0  0
   -1.3831   22.5727  -29.5625 H   0  0  0  0  0  0  0  0  0  0  0  0
   -1.4349   24.0277  -30.6241 H   0  0  0  0  0  0  0  0  0  0  0  0
   -3.1630   24.2366  -28.2229 H   0  0  0  0  0  0  0  0  0  0  0  0
   -1.4127   24.0666  -27.8470 H   0  0  0  0  0  0  0  0  0  0  0  0
  1  2  2  0
  2  3  1  0
  3  4  2  0
  4  5  1  0
  5  6  2  0
  6  7  1  0
  7  8  2  0
  8  9  1  0
  9 10  1  0
 10 11  1  0
 11 12  2  0
 12 13  1  0
 13 14  2  0
 14 15  1  0
 15 16  2  0
  4 17  1  0
 17 18  2  0
 18 19  1  0
 19 20  1  0
 20 21  1  0
 21 22  1  0
 19  2  1  0
  9  5  1  0
 16 11  1  0
  3 23  1  0
  6 24  1  0
  7 25  1  0
 10 26  1  0
 10 27  1  0
 12 28  1  0
 13 29  1  0
 14 30  1  0
 15 31  1  0
 16 32  1  0
 17 33  1  0
 18 34  1  0
 20 35  1  0
 20 36  1  0
 21 37  1  0
 21 38  1  0
M  END
>  <UniqueID>  (29) 
25

>  <SMILES>  (29) 
O=c1cc(-c2ccnn2Cc2ccccc2)ccn1CCF

>  <Energy>  (29) 
72.0479448854417

>  <Genealogy>  (29) 
O=c1cc(-c2ccnn2Cc2ccccc2)ccn1CCF (3D coordinates assigned)
O=c1cc(-c2ccnn2Cc2ccccc2)ccn1CCF (optimized conformer: 72.0479448854417 kcal/mol)

>  <smiles>  (29) 
O=c1cc(-c2ccnn2Cc2ccccc2)ccn1CCF

>  <score_type>  (29) 
oracle

>  <origin>  (29) 
adg

>  <m_score__min__energy>  (29) 
-8.0600000000000005

>  <m_primary>  (29) 
energy

$$$$
29:0
     RDKit          3D

 33 35  0  0  0  0  0  0  0  0999 V2000
   -2.3210   24.3520  -28.9770 C   0  0  0  0  0  0  0  0  0  0  0  0
   -3.1280   24.9260  -30.0010 O   0  0  0  0  0  0  0  0  0  0  0  0
   -4.3780   24.4280  -30.4010 C   0  0  0  0  0  0  0  0  0  0  0  0
   -5.5080   25.2050  -30.1500 C   0  0  0  0  0  0  0  0  0  0  0  0
   -6.7770   24.7250  -30.4620 C   0  0  0  0  0  0  0  0  0  0  0  0
   -6.9300   23.4740  -31.0780 C   0  0  0  0  0  0  0  0  0  0  0  0
   -8.2110   22.9490  -31.2570 C   0  0  0  0  0  0  0  0  0  0  0  0
   -8.3790   21.6560  -31.7350 C   0  0  0  0  0  0  0  0  0  0  0  0
   -7.2730   20.8930  -32.1500 C   0  0  0  0  0  0  0  0  0  0  0  0
   -7.4360   19.5650  -32.6030 C   0  0  0  0  0  0  0  0  0  0  0  0
   -8.6830   18.8620  -32.4670 N   0  0  0  0  0  0  0  0  0  0  0  0
   -8.8010   17.9620  -31.6090 O   0  0  0  0  0  0  0  0  0  0  0  0
   -9.8120   19.3320  -33.0970 O   0  0  0  0  0  0  0  0  0  0  0  0
   -6.3420   18.9020  -33.1560 C   0  0  0  0  0  0  0  0  0  0  0  0
   -5.1350   19.5660  -33.3170 C   0  0  0  0  0  0  0  0  0  0  0  0
   -4.9760   20.8590  -32.9020 N   0  0  0  0  0  0  0  0  0  0  0  0
   -3.7930   21.5570  -33.4340 C   0  0  0  0  0  0  0  0  0  0  0  0
   -5.9750   21.4860  -32.1730 C   0  0  0  0  0  0  0  0  0  0  0  0
   -5.7900   22.7220  -31.4680 C   0  0  0  0  0  0  0  0  0  0  0  0
   -4.5250   23.1770  -31.0320 C   0  0  0  0  0  0  0  0  0  0  0  0
   -2.7208   24.6364  -27.9925 H   0  0  0  0  0  0  0  0  0  0  0  0
   -2.3301   23.2563  -29.0739 H   0  0  0  0  0  0  0  0  0  0  0  0
   -1.2890   24.7201  -29.0739 H   0  0  0  0  0  0  0  0  0  0  0  0
   -5.3962   26.2037  -29.7026 H   0  0  0  0  0  0  0  0  0  0  0  0
   -7.6644   25.3299  -30.2242 H   0  0  0  0  0  0  0  0  0  0  0  0
   -9.0921   23.5627  -31.0182 H   0  0  0  0  0  0  0  0  0  0  0  0
   -9.3890   21.2236  -31.7896 H   0  0  0  0  0  0  0  0  0  0  0  0
   -6.4359   17.8505  -33.4652 H   0  0  0  0  0  0  0  0  0  0  0  0
   -4.2897   19.0425  -33.7875 H   0  0  0  0  0  0  0  0  0  0  0  0
   -3.1759   21.9211  -32.5993 H   0  0  0  0  0  0  0  0  0  0  0  0
   -3.2034   20.8620  -34.0500 H   0  0  0  0  0  0  0  0  0  0  0  0
   -4.1162   22.4091  -34.0500 H   0  0  0  0  0  0  0  0  0  0  0  0
   -3.6396   22.5432  -31.1881 H   0  0  0  0  0  0  0  0  0  0  0  0
  1  2  1  0
  2  3  1  0
  3  4  2  0
  4  5  1  0
  5  6  2  0
  6  7  1  0
  7  8  2  0
  8  9  1  0
  9 10  2  0
 10 11  1  0
 11 12  2  0
 11 13  1  0
 10 14  1  0
 14 15  2  0
 15 16  1  0
 16 17  1  0
 16 18  2  0
 18 19  1  0
 19 20  2  0
 20  3  1  0
 19  6  1  0
 18  9  1  0
  1 21  1  0
  1 22  1  0
  1 23  1  0
  4 24  1  0
  5 25  1  0
  7 26  1  0
  8 27  1  0
 14 28  1  0
 15 29  1  0
 17 30  1  0
 17 31  1  0
 17 32  1  0
 20 33  1  0
M  CHG  3  11   1  13  -1  16   1
M  END
>  <UniqueID>  (30) 
26

>  <SMILES>  (30) 
COc1ccc2ccc3c([N+](=O)[O-])cc[n+](C)c3c2c1

>  <Energy>  (30) 
67.42788811183594

>  <Genealogy>  (30) 
COc1ccc2ccc3c([N+](=O)[O-])cc[n+](C)c3c2c1 (3D coordinates assigned)
COc1ccc2ccc3c([N+](=O)[O-])cc[n+](C)c3c2c1 (optimized conformer: 67.42788811183594 kcal/mol)

>  <smiles>  (30) 
COc1ccc2ccc3c([N+](=O)[O-])cc[n+](C)c3c2c1

>  <score_type>  (30) 
oracle

>  <origin>  (30) 
adg

>  <m_score__min__energy>  (30) 
-8.2400000000000002

>  <m_primary>  (30) 
energy

$$$$
30:0
     RDKit          3D

 33 35  0  0  0  0  0  0  0  0999 V2000
   -4.1046   25.4322  -29.0442 H   0  0  0  0  0  0  0  0  0  0  0  0
   -4.7060   24.8140  -29.7270 C   0  0  0  0  0  0  0  0  0  0  0  0
   -6.0790   25.0440  -29.8520 C   0  0  0  0  0  0  0  0  0  0  0  0
   -6.5565   25.8479  -29.2726 H   0  0  0  0  0  0  0  0  0  0  0  0
   -6.8460   24.2530  -30.7130 C   0  0  0  0  0  0  0  0  0  0  0  0
   -7.9226   24.4497  -30.8233 H   0  0  0  0  0  0  0  0  0  0  0  0
   -6.2500   23.2110  -31.4360 C   0  0  0  0  0  0  0  0  0  0  0  0
   -7.0520   22.4480  -32.3490 N   0  0  0  0  0  0  0  0  0  0  0  0
   -6.8470   21.2130  -32.7100 C   0  0  0  0  0  0  0  0  0  0  0  0
   -5.7980   20.7990  -33.4710 N   0  0  0  0  0  0  0  0  0  0  0  0
   -5.0120   21.3570  -33.8700 H   0  0  0  0  0  0  0  0  0  0  0  0
   -5.9460   19.4640  -33.5240 C   0  0  0  0  0  0  0  0  0  0  0  0
   -5.1190   18.5330  -34.1480 C   0  0  0  0  0  0  0  0  0  0  0  0
   -4.2305   18.8503  -34.7137 H   0  0  0  0  0  0  0  0  0  0  0  0
   -5.4590   17.1730  -34.0300 C   0  0  0  0  0  0  0  0  0  0  0  0
   -4.8338   16.4091  -34.5153 H   0  0  0  0  0  0  0  0  0  0  0  0
   -6.6000   16.7820  -33.2910 C   0  0  0  0  0  0  0  0  0  0  0  0
   -6.8557   15.7155  -33.2055 H   0  0  0  0  0  0  0  0  0  0  0  0
   -7.4110   17.7470  -32.6640 C   0  0  0  0  0  0  0  0  0  0  0  0
   -8.2963   17.4549  -32.0801 H   0  0  0  0  0  0  0  0  0  0  0  0
   -7.0510   19.0890  -32.8100 C   0  0  0  0  0  0  0  0  0  0  0  0
   -7.6360   20.1870  -32.2930 N   0  0  0  0  0  0  0  0  0  0  0  0
   -8.7870   20.2550  -31.3890 C   0  0  0  0  0  0  0  0  0  0  0  0
   -8.4545   20.6178  -30.4052 H   0  0  0  0  0  0  0  0  0  0  0  0
   -9.2253   19.2507  -31.2927 H   0  0  0  0  0  0  0  0  0  0  0  0
   -9.8420   21.2040  -31.9440 C   0  0  0  0  0  0  0  0  0  0  0  0
  -10.3767   21.6850  -31.1117 H   0  0  0  0  0  0  0  0  0  0  0  0
   -9.3548   21.9738  -32.5605 H   0  0  0  0  0  0  0  0  0  0  0  0
  -10.5561   20.6383  -32.5605 H   0  0  0  0  0  0  0  0  0  0  0  0
   -4.8630   23.0050  -31.3320 C   0  0  0  0  0  0  0  0  0  0  0  0
   -4.3788   22.2186  -31.9296 H   0  0  0  0  0  0  0  0  0  0  0  0
   -4.0970   23.7980  -30.4700 C   0  0  0  0  0  0  0  0  0  0  0  0
   -3.0152   23.6219  -30.3769 H   0  0  0  0  0  0  0  0  0  0  0  0
  1  2  1  0
  2  3  2  0
  3  4  1  0
  3  5  1  0
  5  6  1  0
  5  7  2  0
  7  8  1  0
  8  9  2  0
  9 10  1  0
 10 11  1  0
 10 12  1  0
 12 13  2  0
 13 14  1  0
 13 15  1  0
 15 16  1  0
 15 17  2  0
 17 18  1  0
 17 19  1  0
 19 20  1  0
 19 21  2  0
 21 22  1  0
 22 23  1  0
 23 24  1  0
 23 25  1  0
 23 26  1  0
 26 27  1  0
 26 28  1  0
 26 29  1  0
  7 30  1  0
 30 31  1  0
 30 32  2  0
 32 33  1  0
 32  2  1  0
 22  9  1  0
 21 12  1  0
M  END
>  <UniqueID>  (31) 
27

>  <SMILES>  (31) 
CCn1/c(=N/c2ccccc2)[nH]c2ccccc21

>  <Energy>  (31) 
78.68077617631621

>  <Genealogy>  (31) 
CCn1/c(=N/c2ccccc2)[nH]c2ccccc21 (cis-trans isomerization)
CCn1/c(=N/c2ccccc2)[nH]c2ccccc21 (3D coordinates assigned)
CCn1/c(=N/c2ccccc2)[nH]c2ccccc21 (optimized conformer: 78.68077617631621 kcal/mol)

>  <smiles>  (31) 
CCn1c(=Nc2ccccc2)[nH]c2ccccc21

>  <score_type>  (31) 
oracle

>  <origin>  (31) 
adg

>  <m_score__min__energy>  (31) 
-7.1399999999999997

>  <m_primary>  (31) 
energy

$$$$
31:0
     RDKit          3D

 28 29  0  0  0  0  0  0  0  0999 V2000
   -7.9850   17.8840  -32.0100 C   0  0  0  0  0  0  0  0  0  0  0  0
   -7.2560   18.6100  -33.0640 N   0  0  2  0  0  0  0  0  0  0  0  0
   -6.4890   17.7000  -33.9200 C   0  0  0  0  0  0  0  0  0  0  0  0
   -5.3600   18.5220  -34.5200 C   0  0  0  0  0  0  0  0  0  0  0  0
   -5.1210   19.6540  -33.5330 C   0  0  0  0  0  0  0  0  0  0  0  0
   -6.2640   19.5560  -32.5120 C   0  0  1  0  0  0  0  0  0  0  0  0
   -6.8820   20.9070  -32.1860 C   0  0  0  0  0  0  0  0  0  0  0  0
   -8.2720   21.1160  -32.2860 C   0  0  0  0  0  0  0  0  0  0  0  0
   -8.8260   22.3590  -31.9670 C   0  0  0  0  0  0  0  0  0  0  0  0
   -8.0040   23.4040  -31.5410 C   0  0  0  0  0  0  0  0  0  0  0  0
   -6.6240   23.2090  -31.4320 C   0  0  0  0  0  0  0  0  0  0  0  0
   -5.5020   24.6380  -30.8440 Br  0  0  0  0  0  0  0  0  0  0  0  0
   -6.0650   21.9660  -31.7500 C   0  0  0  0  0  0  0  0  0  0  0  0
   -7.6406   18.2270  -31.0232 H   0  0  0  0  0  0  0  0  0  0  0  0
   -9.0632   18.0778  -32.1098 H   0  0  0  0  0  0  0  0  0  0  0  0
   -7.7956   16.8050  -32.1098 H   0  0  0  0  0  0  0  0  0  0  0  0
   -7.9550   19.1090  -33.6640 H   0  0  0  0  0  0  0  0  0  0  0  0
   -6.0803   16.8710  -33.3235 H   0  0  0  0  0  0  0  0  0  0  0  0
   -7.1234   17.2623  -34.7048 H   0  0  0  0  0  0  0  0  0  0  0  0
   -4.4534   17.9090  -34.6304 H   0  0  0  0  0  0  0  0  0  0  0  0
   -5.6135   18.8978  -35.5223 H   0  0  0  0  0  0  0  0  0  0  0  0
   -4.1484   19.5303  -33.0343 H   0  0  0  0  0  0  0  0  0  0  0  0
   -5.1027   20.6339  -34.0324 H   0  0  0  0  0  0  0  0  0  0  0  0
   -5.8748   19.1918  -31.5498 H   0  0  0  0  0  0  0  0  0  0  0  0
   -8.9254   20.2955  -32.6173 H   0  0  0  0  0  0  0  0  0  0  0  0
   -9.9117   22.5142  -32.0518 H   0  0  0  0  0  0  0  0  0  0  0  0
   -8.4425   24.3814  -31.2910 H   0  0  0  0  0  0  0  0  0  0  0  0
   -4.9791   21.8160  -31.6584 H   0  0  0  0  0  0  0  0  0  0  0  0
  1  2  1  0
  2  3  1  0
  3  4  1  0
  4  5  1  0
  5  6  1  0
  6  7  1  0
  7  8  2  0
  8  9  1  0
  9 10  2  0
 10 11  1  0
 11 12  1  0
 11 13  2  0
  6  2  1  0
 13  7  1  0
  1 14  1  0
  1 15  1  0
  1 16  1  0
  2 17  1  6
  3 18  1  0
  3 19  1  0
  4 20  1  0
  4 21  1  0
  5 22  1  0
  5 23  1  0
  6 24  1  1
  8 25  1  0
  9 26  1  0
 10 27  1  0
 13 28  1  0
M  CHG  1   2   1
M  END
>  <UniqueID>  (32) 
28

>  <SMILES>  (32) 
C[N@@H+]1CCC[C@H]1c1cccc(Br)c1

>  <Energy>  (32) 
31.5564985947994

>  <Genealogy>  (32) 
C[NH+]1CCCC1c1cccc(Br)c1 (protonated)
C[N@@H+]1CCC[C@H]1c1cccc(Br)c1 (chirality)
C[N@@H+]1CCC[C@H]1c1cccc(Br)c1 (3D coordinates assigned)
C[N@@H+]1CCC[C@H]1c1cccc(Br)c1 (nonaromatic ring conformer: 31.5564985947994 kcal/mol)

>  <smiles>  (32) 
CN1CCCC1c1cccc(Br)c1

>  <score_type>  (32) 
oracle

>  <origin>  (32) 
adg

>  <m_score__min__energy>  (32) 
-6.1399999999999997

>  <m_primary>  (32) 
energy

$$$$
32:0
     RDKit          3D

 55 57  0  0  0  0  0  0  0  0999 V2000
   -6.1250   17.1790  -33.9670 C   0  0  0  0  0  0  0  0  0  0  0  0
   -5.5150   18.5050  -33.6220 C   0  0  0  0  0  0  0  0  0  0  0  0
   -4.1650   18.6360  -33.7070 N   0  0  0  0  0  0  0  0  0  0  0  0
   -3.5350   19.8070  -33.4210 C   0  0  0  0  0  0  0  0  0  0  0  0
   -2.0580   19.9090  -33.5280 C   0  0  0  0  0  0  0  0  0  0  0  0
   -1.3200   18.9340  -34.2290 C   0  0  0  0  0  0  0  0  0  0  0  0
    0.0710   19.0370  -34.3340 C   0  0  0  0  0  0  0  0  0  0  0  0
    0.7410   20.1080  -33.7400 C   0  0  0  0  0  0  0  0  0  0  0  0
    0.0240   21.0800  -33.0400 C   0  0  0  0  0  0  0  0  0  0  0  0
   -1.3670   20.9840  -32.9330 C   0  0  0  0  0  0  0  0  0  0  0  0
   -4.2720   20.8820  -33.0390 N   0  0  0  0  0  0  0  0  0  0  0  0
   -5.6230   20.8120  -32.9400 C   0  0  0  0  0  0  0  0  0  0  0  0
   -6.2940   19.6170  -33.2320 C   0  0  0  0  0  0  0  0  0  0  0  0
   -7.8000   19.5760  -33.1040 C   0  0  0  0  0  0  0  0  0  0  0  0
   -8.2010   19.7830  -31.6940 N   0  0  0  0  0  0  0  0  0  0  0  0
   -9.0970   18.7000  -31.2500 C   0  0  0  0  0  0  0  0  0  0  0  0
   -8.8650   21.0910  -31.5190 C   0  0  0  0  0  0  0  0  0  0  0  0
   -7.8430   22.1650  -31.2430 C   0  0  0  0  0  0  0  0  0  0  0  0
   -7.2580   22.2870  -29.9730 C   0  0  0  0  0  0  0  0  0  0  0  0
   -6.3260   23.2980  -29.7200 C   0  0  0  0  0  0  0  0  0  0  0  0
   -5.9690   24.2020  -30.7330 C   0  0  0  0  0  0  0  0  0  0  0  0
   -4.9480   25.2760  -30.4590 C   0  0  0  0  0  0  0  0  0  0  0  0
   -3.5860   24.7060  -30.4320 N   0  0  0  0  0  0  0  0  0  0  0  0
   -3.1110   24.5460  -29.0460 C   0  0  0  0  0  0  0  0  0  0  0  0
   -3.5750   23.4000  -31.1080 C   0  0  0  0  0  0  0  0  0  0  0  0
   -6.5500   24.0770  -32.0050 C   0  0  0  0  0  0  0  0  0  0  0  0
   -7.4820   23.0650  -32.2580 C   0  0  0  0  0  0  0  0  0  0  0  0
   -6.3738   16.6381  -33.0421 H   0  0  0  0  0  0  0  0  0  0  0  0
   -7.0402   17.3385  -34.5560 H   0  0  0  0  0  0  0  0  0  0  0  0
   -5.4083   16.5878  -34.5560 H   0  0  0  0  0  0  0  0  0  0  0  0
   -1.8417   18.0861  -34.6968 H   0  0  0  0  0  0  0  0  0  0  0  0
    0.6380   18.2727  -34.8856 H   0  0  0  0  0  0  0  0  0  0  0  0
    1.8350   20.1861  -33.8236 H   0  0  0  0  0  0  0  0  0  0  0  0
    0.5540   21.9226  -32.5719 H   0  0  0  0  0  0  0  0  0  0  0  0
   -1.9263   21.7532  -32.3803 H   0  0  0  0  0  0  0  0  0  0  0  0
   -6.1951   21.6984  -32.6287 H   0  0  0  0  0  0  0  0  0  0  0  0
   -8.2389   20.3696  -33.7265 H   0  0  0  0  0  0  0  0  0  0  0  0
   -8.1611   18.5922  -33.4383 H   0  0  0  0  0  0  0  0  0  0  0  0
   -9.1207   18.6713  -30.1506 H   0  0  0  0  0  0  0  0  0  0  0  0
  -10.1115   18.8828  -31.6340 H   0  0  0  0  0  0  0  0  0  0  0  0
   -8.7274   17.7377  -31.6340 H   0  0  0  0  0  0  0  0  0  0  0  0
   -9.4173   21.3430  -32.4363 H   0  0  0  0  0  0  0  0  0  0  0  0
   -9.5575   21.0291  -30.6666 H   0  0  0  0  0  0  0  0  0  0  0  0
   -7.5340   21.5841  -29.1732 H   0  0  0  0  0  0  0  0  0  0  0  0
   -5.8704   23.3855  -28.7226 H   0  0  0  0  0  0  0  0  0  0  0  0
   -5.0048   26.0385  -31.2498 H   0  0  0  0  0  0  0  0  0  0  0  0
   -5.1626   25.7264  -29.4787 H   0  0  0  0  0  0  0  0  0  0  0  0
   -3.9171   24.8175  -28.3485 H   0  0  0  0  0  0  0  0  0  0  0  0
   -2.8174   23.4994  -28.8775 H   0  0  0  0  0  0  0  0  0  0  0  0
   -2.2440   25.2017  -28.8775 H   0  0  0  0  0  0  0  0  0  0  0  0
   -3.5682   22.5977  -30.3555 H   0  0  0  0  0  0  0  0  0  0  0  0
   -4.4724   23.3052  -31.7371 H   0  0  0  0  0  0  0  0  0  0  0  0
   -2.6762   23.3203  -31.7371 H   0  0  0  0  0  0  0  0  0  0  0  0
   -6.2712   24.7777  -32.8058 H   0  0  0  0  0  0  0  0  0  0  0  0
   -7.9340   22.9741  -33.2567 H   0  0  0  0  0  0  0  0  0  0  0  0
  1  2  1  0
  2  3  2  0
  3  4  1  0
  4  5  1  0
  5  6  2  0
  6  7  1  0
  7  8  2  0
  8  9  1  0
  9 10  2  0
  4 11  2  0
 11 12  1  0
 12 13  2  0
 13 14  1  0
 14 15  1  0
 15 16  1  0
 15 17  1  0
 17 18  1  0
 18 19  2  0
 19 20  1  0
 20 21  2  0
 21 22  1  0
 22 23  1  0
 23 24  1  0
 23 25  1  0
 21 26  1  0
 26 27  2  0
 13  2  1  0
 27 18  1  0
 10  5  1  0
  1 28  1  0
  1 29  1  0
  1 30  1  0
  6 31  1  0
  7 32  1  0
  8 33  1  0
  9 34  1  0
 10 35  1  0
 12 36  1  0
 14 37  1  0
 14 38  1  0
 16 39  1  0
 16 40  1  0
 16 41  1  0
 17 42  1  0
 17 43  1  0
 19 44  1  0
 20 45  1  0
 22 46  1  0
 22 47  1  0
 24 48  1  0
 24 49  1  0
 24 50  1  0
 25 51  1  0
 25 52  1  0
 25 53  1  0
 26 54  1  0
 27 55  1  0
M  END
>  <UniqueID>  (33) 
29

>  <SMILES>  (33) 
Cc1nc(-c2ccccc2)ncc1CN(C)Cc1ccc(CN(C)C)cc1

>  <Energy>  (33) 
59.16726478514886

>  <Genealogy>  (33) 
Cc1nc(-c2ccccc2)ncc1CN(C)Cc1ccc(CN(C)C)cc1 (3D coordinates assigned)
Cc1nc(-c2ccccc2)ncc1CN(C)Cc1ccc(CN(C)C)cc1 (optimized conformer: 59.16726478514886 kcal/mol)

>  <smiles>  (33) 
Cc1nc(-c2ccccc2)ncc1CN(C)Cc1ccc(CN(C)C)cc1

>  <score_type>  (33) 
oracle

>  <origin>  (33) 
adg

>  <m_score__min__energy>  (33) 
-8.9499999999999993

>  <m_primary>  (33) 
energy

$$$$
33:0
     RDKit          3D

 40 43  0  0  0  0  0  0  0  0999 V2000
   -1.5960   25.5580  -29.1940 O   0  0  0  0  0  0  0  0  0  0  0  0
   -2.6680   24.9130  -29.3370 C   0  0  0  0  0  0  0  0  0  0  0  0
   -3.0580   23.9400  -28.4990 N   0  0  0  0  0  0  0  0  0  0  0  0
   -4.2130   23.4950  -28.9690 N   0  0  0  0  0  0  0  0  0  0  0  0
   -4.4850   24.2120  -30.0770 C   0  0  0  0  0  0  0  0  0  0  0  0
   -5.6970   23.9860  -30.9410 C   0  0  0  0  0  0  0  0  0  0  0  0
   -6.3350   22.6610  -30.7380 N   0  0  1  0  0  0  0  0  0  0  0  0
   -7.8150   22.7370  -30.8740 C   0  0  0  0  0  0  0  0  0  0  0  0
   -8.4410   21.3430  -31.0060 C   0  0  0  0  0  0  0  0  0  0  0  0
   -7.9320   20.6050  -32.2690 C   0  0  2  0  0  0  0  0  0  0  0  0
   -7.8040   19.2050  -32.0000 O   0  0  0  0  0  0  0  0  0  0  0  0
   -6.8760   18.3340  -32.5940 C   0  0  0  0  0  0  0  0  0  0  0  0
   -6.4510   18.4710  -33.9460 C   0  0  0  0  0  0  0  0  0  0  0  0
   -5.5050   17.5820  -34.4880 C   0  0  0  0  0  0  0  0  0  0  0  0
   -5.0020   16.5800  -33.6640 C   0  0  0  0  0  0  0  0  0  0  0  0
   -5.4040   16.4410  -32.3750 C   0  0  0  0  0  0  0  0  0  0  0  0
   -6.3410   17.2950  -31.8030 C   0  0  0  0  0  0  0  0  0  0  0  0
   -4.7390   15.3740  -31.7970 O   0  0  0  0  0  0  0  0  0  0  0  0
   -3.8630   14.8100  -32.7820 C   0  0  0  0  0  0  0  0  0  0  0  0
   -4.0650   15.6080  -33.9590 O   0  0  0  0  0  0  0  0  0  0  0  0
   -6.5660   21.1420  -32.7400 C   0  0  0  0  0  0  0  0  0  0  0  0
   -5.7000   21.5780  -31.5470 C   0  0  0  0  0  0  0  0  0  0  0  0
   -3.5300   25.1270  -30.3480 N   0  0  0  0  0  0  0  0  0  0  0  0
   -6.4373   24.7668  -30.7121 H   0  0  0  0  0  0  0  0  0  0  0  0
   -5.3581   24.0231  -31.9868 H   0  0  0  0  0  0  0  0  0  0  0  0
   -6.1530   22.4180  -29.7330 H   0  0  0  0  0  0  0  0  0  0  0  0
   -8.0616   23.3256  -31.7700 H   0  0  0  0  0  0  0  0  0  0  0  0
   -8.2203   23.2124  -29.9686 H   0  0  0  0  0  0  0  0  0  0  0  0
   -9.5341   21.4475  -31.0702 H   0  0  0  0  0  0  0  0  0  0  0  0
   -8.1532   20.7524  -30.1238 H   0  0  0  0  0  0  0  0  0  0  0  0
   -8.6703   20.7799  -33.0654 H   0  0  0  0  0  0  0  0  0  0  0  0
   -6.8648   19.2766  -34.5703 H   0  0  0  0  0  0  0  0  0  0  0  0
   -5.1728   17.6762  -35.5324 H   0  0  0  0  0  0  0  0  0  0  0  0
   -6.6578   17.1635  -30.7578 H   0  0  0  0  0  0  0  0  0  0  0  0
   -2.8164   14.8704  -32.4487 H   0  0  0  0  0  0  0  0  0  0  0  0
   -4.0748   13.7458  -32.9627 H   0  0  0  0  0  0  0  0  0  0  0  0
   -6.7285   22.0064  -33.4006 H   0  0  0  0  0  0  0  0  0  0  0  0
   -6.0412   20.3378  -33.2765 H   0  0  0  0  0  0  0  0  0  0  0  0
   -4.7349   21.9433  -31.9279 H   0  0  0  0  0  0  0  0  0  0  0  0
   -5.5745   20.7039  -30.8910 H   0  0  0  0  0  0  0  0  0  0  0  0
  1  2  2  0
  2  3  1  0
  3  4  1  0
  4  5  2  0
  5  6  1  0
  6  7  1  0
  7  8  1  0
  8  9  1  0
  9 10  1  0
 10 11  1  0
 11 12  1  0
 12 13  2  0
 13 14  1  0
 14 15  2  0
 15 16  1  0
 16 17  2  0
 16 18  1  0
 18 19  1  0
 19 20  1  0
 10 21  1  0
 21 22  1  0
  5 23  1  0
 23  2  1  0
 22  7  1  0
 17 12  1  0
 20 15  1  0
  6 24  1  0
  6 25  1  0
  7 26  1  1
  8 27  1  0
  8 28  1  0
  9 29  1  0
  9 30  1  0
 10 31  1  6
 13 32  1  0
 14 33  1  0
 17 34  1  0
 19 35  1  0
 19 36  1  0
 21 37  1  0
 21 38  1  0
 22 39  1  0
 22 40  1  0
M  CHG  3   3  -1   7   1  23  -1
M  END
>  <UniqueID>  (34) 
30

>  <SMILES>  (34) 
O=c1[n-]nc(C[NH+]2CCC(Oc3ccc4c(c3)OCO4)CC2)[n-]1

>  <Energy>  (34) 
113.4686787231651

>  <Genealogy>  (34) 
O=c1[n-]nc(C[NH+]2CCC(Oc3ccc4c(c3)OCO4)CC2)[n-]1 (protonated)
O=c1[n-]nc(C[NH+]2CCC(Oc3ccc4c(c3)OCO4)CC2)[n-]1 (3D coordinates assigned)
O=c1[n-]nc(C[NH+]2CCC(Oc3ccc4c(c3)OCO4)CC2)[n-]1 (nonaromatic ring conformer: 113.4686787231651 kcal/mol)

>  <smiles>  (34) 
O=c1[nH]nc(CN2CCC(Oc3ccc4c(c3)OCO4)CC2)[nH]1

>  <score_type>  (34) 
oracle

>  <origin>  (34) 
adg

>  <m_score__min__energy>  (34) 
-9.1999999999999993

>  <m_primary>  (34) 
energy

$$$$
34:0
     RDKit          3D

 28 30  0  0  1  0  0  0  0  0999 V2000
   -6.4610   16.7180  -33.5040 Br  0  0  0  0  0  0  0  0  0  0  0  0
   -7.3490   18.2510  -32.7830 C   0  0  0  0  0  0  0  0  0  0  0  0
   -8.4850   18.1400  -32.0170 C   0  0  0  0  0  0  0  0  0  0  0  0
   -9.0730   19.2920  -31.5290 C   0  0  0  0  0  0  0  0  0  0  0  0
   -8.5560   20.5550  -31.7860 C   0  0  0  0  0  0  0  0  0  0  0  0
   -7.4140   20.6670  -32.5560 C   0  0  0  0  0  0  0  0  0  0  0  0
   -6.9000   21.9690  -32.8060 N   0  0  0  0  0  0  0  0  0  0  0  0
   -5.7870   22.3810  -32.2980 C   0  0  0  0  0  0  0  0  0  0  0  0
   -4.6090   21.8770  -32.7040 N   0  0  0  0  0  0  0  0  0  0  0  0
   -3.4390   22.2920  -32.1870 C   0  0  0  0  0  0  0  0  0  0  0  0
   -3.4440   23.2480  -31.2240 N   0  0  0  0  0  0  0  0  0  0  0  0
   -4.5920   23.8030  -30.7630 C   0  0  0  0  0  0  0  0  0  0  0  0
   -4.5480   24.7660  -29.7900 C   0  0  0  0  0  0  0  0  0  0  0  0
   -5.7440   25.3030  -29.3510 C   0  0  0  0  0  0  0  0  0  0  0  0
   -6.9710   24.8900  -29.8730 C   0  0  0  0  0  0  0  0  0  0  0  0
   -6.9970   23.9090  -30.8620 C   0  0  0  0  0  0  0  0  0  0  0  0
   -5.7880   23.3640  -31.3080 C   0  0  0  0  0  0  0  0  0  0  0  0
   -6.8420   19.5140  -33.0320 C   0  0  0  0  0  0  0  0  0  0  0  0
   -8.9180   17.1531  -31.7965 H   0  0  0  0  0  0  0  0  0  0  0  0
   -9.9821   19.2052  -30.9158 H   0  0  0  0  0  0  0  0  0  0  0  0
   -9.0480   21.4525  -31.3828 H   0  0  0  0  0  0  0  0  0  0  0  0
   -4.6020   21.1540  -33.4310 H   0  0  0  0  0  0  0  0  0  0  0  0
   -2.4901   21.8620  -32.5402 H   0  0  0  0  0  0  0  0  0  0  0  0
   -3.5887   25.1025  -29.3699 H   0  0  0  0  0  0  0  0  0  0  0  0
   -5.7282   26.0767  -28.5692 H   0  0  0  0  0  0  0  0  0  0  0  0
   -7.9082   25.3347  -29.5071 H   0  0  0  0  0  0  0  0  0  0  0  0
   -7.9532   23.5682  -31.2856 H   0  0  0  0  0  0  0  0  0  0  0  0
   -5.9320   19.5984  -33.6441 H   0  0  0  0  0  0  0  0  0  0  0  0
  1  2  1  0
  2  3  2  0
  3  4  1  0
  4  5  2  0
  5  6  1  0
  6  7  1  0
  7  8  2  0
  8  9  1  0
  9 10  1  0
 10 11  2  0
 11 12  1  0
 12 13  2  0
 13 14  1  0
 14 15  2  0
 15 16  1  0
 16 17  2  0
  6 18  2  0
 18  2  1  0
 17  8  1  0
 17 12  1  0
  3 19  1  0
  4 20  1  0
  5 21  1  0
  9 22  1  0
 10 23  1  0
 13 24  1  0
 14 25  1  0
 15 26  1  0
 16 27  1  0
 18 28  1  0
M  END
>  <smiles>  (35) 
Brc1cccc(N=c2[nH]cnc3ccccc23)c1

>  <score_type>  (35) 
oracle

>  <origin>  (35) 
adg

>  <m_score__min__energy>  (35) 
-7.5899999999999999

>  <m_primary>  (35) 
energy

$$$$
35:0
     RDKit          3D

 26 28  0  0  0  0  0  0  0  0999 V2000
   -4.2630   25.9780  -30.5280 O   0  0  0  0  0  0  0  0  0  0  0  0
   -3.7290   24.7000  -30.4080 C   0  0  0  0  0  0  0  0  0  0  0  0
   -4.3380   23.6320  -31.0730 C   0  0  0  0  0  0  0  0  0  0  0  0
   -3.8200   22.3300  -30.9640 C   0  0  0  0  0  0  0  0  0  0  0  0
   -4.4740   21.2010  -31.6750 C   0  0  0  0  0  0  0  0  0  0  0  0
   -5.6890   20.5910  -31.3310 C   0  0  0  0  0  0  0  0  0  0  0  0
   -6.0400   19.5520  -32.2010 C   0  0  0  0  0  0  0  0  0  0  0  0
   -7.1910   18.7630  -32.1190 C   0  0  0  0  0  0  0  0  0  0  0  0
   -7.3920   17.7590  -33.0810 C   0  0  0  0  0  0  0  0  0  0  0  0
   -6.4500   17.5550  -34.1080 C   0  0  0  0  0  0  0  0  0  0  0  0
   -5.2980   18.3540  -34.1820 C   0  0  0  0  0  0  0  0  0  0  0  0
   -5.1220   19.3420  -33.2170 C   0  0  0  0  0  0  0  0  0  0  0  0
   -3.8610   20.4340  -33.0610 S   0  0  0  0  0  0  0  0  0  0  0  0
   -2.6720   22.1230  -30.1760 C   0  0  0  0  0  0  0  0  0  0  0  0
   -2.0590   23.1900  -29.5080 C   0  0  0  0  0  0  0  0  0  0  0  0
   -0.6250   22.8650  -28.5440 Cl  0  0  0  0  0  0  0  0  0  0  0  0
   -2.5910   24.4890  -29.6230 C   0  0  0  0  0  0  0  0  0  0  0  0
   -2.0080   25.5770  -28.9710 O   0  0  0  0  0  0  0  0  0  0  0  0
   -5.2320   23.8124  -31.6880 H   0  0  0  0  0  0  0  0  0  0  0  0
   -6.3009   20.8964  -30.4694 H   0  0  0  0  0  0  0  0  0  0  0  0
   -7.9255   18.9252  -31.3164 H   0  0  0  0  0  0  0  0  0  0  0  0
   -8.2915   17.1277  -33.0318 H   0  0  0  0  0  0  0  0  0  0  0  0
   -6.6177   16.7658  -34.8557 H   0  0  0  0  0  0  0  0  0  0  0  0
   -4.5556   18.2037  -34.9797 H   0  0  0  0  0  0  0  0  0  0  0  0
   -2.2514   21.1107  -30.0839 H   0  0  0  0  0  0  0  0  0  0  0  0
   -2.4220   26.5000  -28.9660 H   0  0  0  0  0  0  0  0  0  0  0  0
  1  2  1  0
  2  3  2  0
  3  4  1  0
  4  5  1  0
  5  6  2  0
  6  7  1  0
  7  8  2  0
  8  9  1  0
  9 10  2  0
 10 11  1  0
 11 12  2  0
 12 13  1  0
  4 14  2  0
 14 15  1  0
 15 16  1  0
 15 17  2  0
 17 18  1  0
 17  2  1  0
 13  5  1  0
 12  7  1  0
  3 19  1  0
  6 20  1  0
  8 21  1  0
  9 22  1  0
 10 23  1  0
 11 24  1  0
 14 25  1  0
 18 26  1  0
M  CHG  1   1  -1
M  END
>  <UniqueID>  (36) 
31

>  <SMILES>  (36) 
[O-]c1cc(-c2cc3ccccc3s2)cc(Cl)c1O

>  <Energy>  (36) 
63.26226252311924

>  <Genealogy>  (36) 
[O-]c1cc(-c2cc3ccccc3s2)cc(Cl)c1O (protonated)
[O-]c1cc(-c2cc3ccccc3s2)cc(Cl)c1O (3D coordinates assigned)
[O-]c1cc(-c2cc3ccccc3s2)cc(Cl)c1O (optimized conformer: 63.26226252311924 kcal/mol)

>  <smiles>  (36) 
Oc1cc(-c2cc3ccccc3s2)cc(Cl)c1O

>  <score_type>  (36) 
oracle

>  <origin>  (36) 
adg

>  <m_score__min__energy>  (36) 
-10.33

>  <m_primary>  (36) 
energy

$$$$
36:0
     RDKit          3D

 39 41  0  0  0  0  0  0  0  0999 V2000
   -2.8780   21.6050  -33.1170 C   0  0  0  0  0  0  0  0  0  0  0  0
   -4.3070   21.6620  -32.6620 C   0  0  0  0  0  0  0  0  0  0  0  0
   -5.1580   20.5730  -32.8790 C   0  0  0  0  0  0  0  0  0  0  0  0
   -6.4990   20.6430  -32.4810 C   0  0  0  0  0  0  0  0  0  0  0  0
   -7.4070   19.4630  -32.7130 C   0  0  0  0  0  0  0  0  0  0  0  0
   -6.9750   21.8210  -31.8690 C   0  0  0  0  0  0  0  0  0  0  0  0
   -8.3530   21.9260  -31.4440 C   0  0  0  0  0  0  0  0  0  0  0  0
   -9.4570   22.0080  -31.1040 N   0  0  0  0  0  0  0  0  0  0  0  0
   -6.0890   22.8980  -31.6770 C   0  0  0  0  0  0  0  0  0  0  0  0
   -6.6310   24.4280  -30.8900 S   0  0  0  0  0  0  0  0  0  0  0  0
   -5.5270   24.2650  -29.4390 C   0  0  0  0  0  0  0  0  0  0  0  0
   -4.0930   24.5570  -29.7830 C   0  0  0  0  0  0  0  0  0  0  0  0
   -3.8620   25.2670  -30.7990 O   0  0  0  0  0  0  0  0  0  0  0  0
   -2.9430   24.0970  -28.9690 C   0  0  0  0  0  0  0  0  0  0  0  0
   -1.8920   24.9210  -28.5700 C   0  0  0  0  0  0  0  0  0  0  0  0
   -1.0080   24.2400  -27.8100 N   0  0  0  0  0  0  0  0  0  0  0  0
   -1.4800   22.9870  -27.7240 C   0  0  0  0  0  0  0  0  0  0  0  0
   -0.8910   21.9210  -27.0440 C   0  0  0  0  0  0  0  0  0  0  0  0
   -1.5350   20.6750  -27.0890 C   0  0  0  0  0  0  0  0  0  0  0  0
   -2.7370   20.5190  -27.8100 C   0  0  0  0  0  0  0  0  0  0  0  0
   -3.3100   21.6100  -28.4880 C   0  0  0  0  0  0  0  0  0  0  0  0
   -2.6600   22.8480  -28.4180 C   0  0  0  0  0  0  0  0  0  0  0  0
   -4.7950   22.7990  -32.0920 N   0  0  0  0  0  0  0  0  0  0  0  0
   -2.2147   21.5785  -32.2399 H   0  0  0  0  0  0  0  0  0  0  0  0
   -2.7218   20.6999  -33.7223 H   0  0  0  0  0  0  0  0  0  0  0  0
   -2.6502   22.4948  -33.7223 H   0  0  0  0  0  0  0  0  0  0  0  0
   -4.7741   19.6623  -33.3619 H   0  0  0  0  0  0  0  0  0  0  0  0
   -7.7253   19.0493  -31.7447 H   0  0  0  0  0  0  0  0  0  0  0  0
   -8.2911   19.7869  -33.2818 H   0  0  0  0  0  0  0  0  0  0  0  0
   -6.8675   18.6914  -33.2818 H   0  0  0  0  0  0  0  0  0  0  0  0
   -5.8560   24.9708  -28.6621 H   0  0  0  0  0  0  0  0  0  0  0  0
   -5.5851   23.2253  -29.0847 H   0  0  0  0  0  0  0  0  0  0  0  0
   -1.7957   25.9834  -28.8383 H   0  0  0  0  0  0  0  0  0  0  0  0
   -0.1350   24.6180  -27.3790 H   0  0  0  0  0  0  0  0  0  0  0  0
    0.0497   22.0530  -26.4893 H   0  0  0  0  0  0  0  0  0  0  0  0
   -1.0998   19.8150  -26.5589 H   0  0  0  0  0  0  0  0  0  0  0  0
   -3.2303   19.5363  -27.8424 H   0  0  0  0  0  0  0  0  0  0  0  0
   -4.2437   21.4937  -29.0579 H   0  0  0  0  0  0  0  0  0  0  0  0
   -4.1610   23.6190  -31.9620 H   0  0  0  0  0  0  0  0  0  0  0  0
  1  2  1  0
  2  3  2  0
  3  4  1  0
  4  5  1  0
  4  6  2  0
  6  7  1  0
  7  8  3  0
  6  9  1  0
  9 10  1  0
 10 11  1  0
 11 12  1  0
 12 13  2  0
 12 14  1  0
 14 15  2  0
 15 16  1  0
 16 17  1  0
 17 18  2  0
 18 19  1  0
 19 20  2  0
 20 21  1  0
 21 22  2  0
  9 23  2  0
 23  2  1  0
 22 14  1  0
 22 17  1  0
  1 24  1  0
  1 25  1  0
  1 26  1  0
  3 27  1  0
  5 28  1  0
  5 29  1  0
  5 30  1  0
 11 31  1  0
 11 32  1  0
 15 33  1  0
 16 34  1  0
 18 35  1  0
 19 36  1  0
 20 37  1  0
 21 38  1  0
 23 39  1  0
M  CHG  1  23   1
M  END
>  <UniqueID>  (37) 
32

>  <SMILES>  (37) 
Cc1cc(C)c(C#N)c(SCC(=O)c2c[nH]c3ccccc23)[nH+]1

>  <Energy>  (37) 
72.00453070798072

>  <Genealogy>  (37) 
Cc1cc(C)c(C#N)c(SCC(=O)c2c[nH]c3ccccc23)[nH+]1 (protonated)
Cc1cc(C)c(C#N)c(SCC(=O)c2c[nH]c3ccccc23)[nH+]1 (3D coordinates assigned)
Cc1cc(C)c(C#N)c(SCC(=O)c2c[nH]c3ccccc23)[nH+]1 (optimized conformer: 72.00453070798072 kcal/mol)

>  <smiles>  (37) 
Cc1cc(C)c(C#N)c(SCC(=O)c2c[nH]c3ccccc23)n1

>  <score_type>  (37) 
oracle

>  <origin>  (37) 
adg

>  <m_score__min__energy>  (37) 
-8.0700000000000003

>  <m_primary>  (37) 
energy

$$$$
37:0
     RDKit          3D

 71 76  0  0  0  0  0  0  0  0999 V2000
    1.5040   14.6750  -26.8290 C   0  0  0  0  0  0  0  0  0  0  0  0
    1.9370   15.5280  -27.8840 O   0  0  0  0  0  0  0  0  0  0  0  0
    1.3940   15.5320  -29.1800 C   0  0  0  0  0  0  0  0  0  0  0  0
    1.3800   14.3710  -29.9800 C   0  0  0  0  0  0  0  0  0  0  0  0
    0.8630   14.4110  -31.2770 C   0  0  0  0  0  0  0  0  0  0  0  0
    0.3520   15.6020  -31.7900 C   0  0  0  0  0  0  0  0  0  0  0  0
    0.3490   16.7580  -31.0080 C   0  0  0  0  0  0  0  0  0  0  0  0
    0.8650   16.7350  -29.6980 C   0  0  0  0  0  0  0  0  0  0  0  0
    0.8490   17.9390  -28.9040 N   0  0  0  0  0  0  0  0  0  0  0  0
   -0.3100   18.2590  -28.0610 C   0  0  0  0  0  0  0  0  0  0  0  0
   -0.6350   19.7550  -28.1480 C   0  0  0  0  0  0  0  0  0  0  0  0
    0.5740   20.5840  -28.0460 N   0  0  0  0  0  0  0  0  0  0  0  0
    0.4570   22.0000  -27.8290 C   0  0  0  0  0  0  0  0  0  0  0  0
    0.9620   22.5010  -26.7890 O   0  0  0  0  0  0  0  0  0  0  0  0
   -0.2690   22.9120  -28.7950 C   0  0  0  0  0  0  0  0  0  0  0  0
   -0.4940   22.2820  -30.2010 C   0  0  0  0  0  0  0  0  0  0  0  0
   -1.9680   22.1720  -30.6480 C   0  0  0  0  0  0  0  0  0  0  0  0
   -2.7780   23.3500  -30.2880 N   0  0  0  0  0  0  0  0  0  0  0  0
   -4.1320   23.4460  -30.7710 C   0  0  0  0  0  0  0  0  0  0  0  0
   -4.7570   24.6620  -30.8400 N   0  0  0  0  0  0  0  0  0  0  0  0
   -6.0520   24.7860  -31.2750 C   0  0  0  0  0  0  0  0  0  0  0  0
   -6.7620   23.6840  -31.6570 N   0  0  0  0  0  0  0  0  0  0  0  0
   -6.1480   22.4780  -31.5940 C   0  0  0  0  0  0  0  0  0  0  0  0
   -4.8680   22.3300  -31.1740 C   0  0  0  0  0  0  0  0  0  0  0  0
   -4.4970   21.0390  -31.2540 N   0  0  0  0  0  0  0  0  0  0  0  0
   -5.6200   20.4240  -31.7170 C   0  0  0  0  0  0  0  0  0  0  0  0
   -6.6490   21.2880  -31.9440 N   0  0  0  0  0  0  0  0  0  0  0  0
   -7.9880   20.9930  -32.4480 C   0  0  0  0  0  0  0  0  0  0  0  0
   -8.7120   19.9770  -31.5480 C   0  0  0  0  0  0  0  0  0  0  0  0
   -8.2100   18.5260  -31.6890 C   0  0  0  0  0  0  0  0  0  0  0  0
   -6.9710   18.3980  -32.5940 C   0  0  0  0  0  0  0  0  0  0  0  0
   -5.6690   18.9350  -31.9580 C   0  0  0  0  0  0  0  0  0  0  0  0
   -2.3390   24.2550  -29.2170 C   0  0  0  0  0  0  0  0  0  0  0  0
   -1.5490   23.4800  -28.1670 C   0  0  0  0  0  0  0  0  0  0  0  0
    1.8860   19.9490  -27.8800 C   0  0  0  0  0  0  0  0  0  0  0  0
    2.0400   18.8030  -28.8850 C   0  0  0  0  0  0  0  0  0  0  0  0
    1.7403   15.1405  -25.8607 H   0  0  0  0  0  0  0  0  0  0  0  0
    0.4178   14.5194  -26.9057 H   0  0  0  0  0  0  0  0  0  0  0  0
    2.0195   13.7063  -26.9057 H   0  0  0  0  0  0  0  0  0  0  0  0
    1.7790   13.4272  -29.5799 H   0  0  0  0  0  0  0  0  0  0  0  0
    0.8591   13.5008  -31.8947 H   0  0  0  0  0  0  0  0  0  0  0  0
   -0.0498   15.6309  -32.8136 H   0  0  0  0  0  0  0  0  0  0  0  0
   -0.0593   17.6936  -31.4178 H   0  0  0  0  0  0  0  0  0  0  0  0
   -1.1792   17.6784  -28.4036 H   0  0  0  0  0  0  0  0  0  0  0  0
   -0.0742   18.0044  -27.0172 H   0  0  0  0  0  0  0  0  0  0  0  0
   -1.1249   19.9573  -29.1119 H   0  0  0  0  0  0  0  0  0  0  0  0
   -1.2960   20.0103  -27.3067 H   0  0  0  0  0  0  0  0  0  0  0  0
    0.3988   23.7645  -28.9881 H   0  0  0  0  0  0  0  0  0  0  0  0
    0.0395   22.8991  -30.9390 H   0  0  0  0  0  0  0  0  0  0  0  0
   -0.1190   21.2500  -30.1348 H   0  0  0  0  0  0  0  0  0  0  0  0
   -1.9929   22.0525  -31.7412 H   0  0  0  0  0  0  0  0  0  0  0  0
   -2.4023   21.3070  -30.1254 H   0  0  0  0  0  0  0  0  0  0  0  0
   -6.5216   25.7798  -31.3164 H   0  0  0  0  0  0  0  0  0  0  0  0
   -8.5724   21.9244  -32.4794 H   0  0  0  0  0  0  0  0  0  0  0  0
   -7.8927   20.5596  -33.4545 H   0  0  0  0  0  0  0  0  0  0  0  0
   -8.5763   20.2873  -30.5014 H   0  0  0  0  0  0  0  0  0  0  0  0
   -9.7659   19.9753  -31.8631 H   0  0  0  0  0  0  0  0  0  0  0  0
   -7.9533   18.1462  -30.6891 H   0  0  0  0  0  0  0  0  0  0  0  0
   -9.0181   17.9446  -32.1570 H   0  0  0  0  0  0  0  0  0  0  0  0
   -6.8258   17.3341  -32.8330 H   0  0  0  0  0  0  0  0  0  0  0  0
   -7.1648   19.0105  -33.4869 H   0  0  0  0  0  0  0  0  0  0  0  0
   -5.5345   18.4319  -30.9891 H   0  0  0  0  0  0  0  0  0  0  0  0
   -4.8723   18.7244  -32.6866 H   0  0  0  0  0  0  0  0  0  0  0  0
   -1.7008   25.0423  -29.6447 H   0  0  0  0  0  0  0  0  0  0  0  0
   -3.2226   24.7064  -28.7422 H   0  0  0  0  0  0  0  0  0  0  0  0
   -1.2820   24.1540  -27.3397 H   0  0  0  0  0  0  0  0  0  0  0  0
   -2.1653   22.6523  -27.7862 H   0  0  0  0  0  0  0  0  0  0  0  0
    2.6766   20.6942  -28.0522 H   0  0  0  0  0  0  0  0  0  0  0  0
    1.9689   19.5493  -26.8586 H   0  0  0  0  0  0  0  0  0  0  0  0
    2.1908   19.2260  -29.8892 H   0  0  0  0  0  0  0  0  0  0  0  0
    2.9042   18.1930  -28.5833 H   0  0  0  0  0  0  0  0  0  0  0  0
  1  2  1  0
  2  3  1  0
  3  4  2  0
  4  5  1  0
  5  6  2  0
  6  7  1  0
  7  8  2  0
  8  9  1  0
  9 10  1  0
 10 11  1  0
 11 12  1  0
 12 13  1  0
 13 14  2  0
 13 15  1  0
 15 16  1  0
 16 17  1  0
 17 18  1  0
 18 19  1  0
 19 20  2  0
 20 21  1  0
 21 22  2  0
 22 23  1  0
 23 24  2  0
 24 25  1  0
 25 26  2  0
 26 27  1  0
 27 28  1  0
 28 29  1  0
 29 30  1  0
 30 31  1  0
 31 32  1  0
 18 33  1  0
 33 34  1  0
 12 35  1  0
 35 36  1  0
  8  3  1  0
 36  9  1  0
 34 15  1  0
 24 19  1  0
 32 26  1  0
 27 23  1  0
  1 37  1  0
  1 38  1  0
  1 39  1  0
  4 40  1  0
  5 41  1  0
  6 42  1  0
  7 43  1  0
 10 44  1  0
 10 45  1  0
 11 46  1  0
 11 47  1  0
 15 48  1  0
 16 49  1  0
 16 50  1  0
 17 51  1  0
 17 52  1  0
 21 53  1  0
 28 54  1  0
 28 55  1  0
 29 56  1  0
 29 57  1  0
 30 58  1  0
 30 59  1  0
 31 60  1  0
 31 61  1  0
 32 62  1  0
 32 63  1  0
 33 64  1  0
 33 65  1  0
 34 66  1  0
 34 67  1  0
 35 68  1  0
 35 69  1  0
 36 70  1  0
 36 71  1  0
M  END
>  <UniqueID>  (38) 
33

>  <SMILES>  (38) 
COc1ccccc1N1CCN(C(=O)C2CCN(c3ncnc4c3nc3n4CCCCC3)CC2)CC1

>  <Energy>  (38) 
137.6062123189673

>  <Genealogy>  (38) 
COc1ccccc1N1CCN(C(=O)C2CCN(c3ncnc4c3nc3n4CCCCC3)CC2)CC1 (3D coordinates assigned)
COc1ccccc1N1CCN(C(=O)C2CCN(c3ncnc4c3nc3n4CCCCC3)CC2)CC1 (nonaromatic ring conformer: 137.6062123189673 kcal/mol)

>  <smiles>  (38) 
COc1ccccc1N1CCN(C(=O)C2CCN(c3ncnc4c3nc3n4CCCCC3)CC2)CC1

>  <score_type>  (38) 
oracle

>  <origin>  (38) 
adg

>  <m_score__min__energy>  (38) 
-8.9399999999999995

>  <m_primary>  (38) 
energy

$$$$
38:0
     RDKit          3D

 42 46  0  0  0  0  0  0  0  0999 V2000
   -0.8480   25.7330  -28.0400 C   0  0  0  0  0  0  0  0  0  0  0  0
   -1.8330   24.7550  -28.6100 C   0  0  0  0  0  0  0  0  0  0  0  0
   -2.8330   25.2350  -29.3440 O   0  0  0  0  0  0  0  0  0  0  0  0
   -3.7650   24.4650  -29.8930 C   0  0  0  0  0  0  0  0  0  0  0  0
   -4.7870   25.0600  -30.6600 C   0  0  0  0  0  0  0  0  0  0  0  0
   -5.7500   24.2250  -31.2130 C   0  0  0  0  0  0  0  0  0  0  0  0
   -6.7680   24.5460  -31.9770 O   0  0  0  0  0  0  0  0  0  0  0  0
   -7.4270   23.4680  -32.3040 N   0  0  0  0  0  0  0  0  0  0  0  0
   -6.8280   22.4030  -31.7210 C   0  0  0  0  0  0  0  0  0  0  0  0
   -7.2460   20.9980  -31.9110 C   0  0  0  0  0  0  0  0  0  0  0  0
   -8.4910   20.6080  -31.3920 C   0  0  0  0  0  0  0  0  0  0  0  0
   -8.9710   19.3140  -31.5880 C   0  0  0  0  0  0  0  0  0  0  0  0
   -8.2160   18.3830  -32.3000 C   0  0  0  0  0  0  0  0  0  0  0  0
   -6.9570   18.7350  -32.8070 C   0  0  0  0  0  0  0  0  0  0  0  0
   -6.1910   17.7860  -33.5020 C   0  0  0  0  0  0  0  0  0  0  0  0
   -4.9240   18.1200  -33.9810 C   0  0  0  0  0  0  0  0  0  0  0  0
   -4.4050   19.3960  -33.7620 C   0  0  0  0  0  0  0  0  0  0  0  0
   -5.1550   20.3530  -33.0740 C   0  0  0  0  0  0  0  0  0  0  0  0
   -6.4500   20.0480  -32.6050 C   0  0  0  0  0  0  0  0  0  0  0  0
   -5.7330   22.8720  -31.0230 C   0  0  0  0  0  0  0  0  0  0  0  0
   -4.7320   22.2380  -30.2900 C   0  0  0  0  0  0  0  0  0  0  0  0
   -3.7300   23.0520  -29.7070 C   0  0  0  0  0  0  0  0  0  0  0  0
   -2.6880   22.5090  -28.9400 C   0  0  0  0  0  0  0  0  0  0  0  0
   -2.6290   21.2640  -28.7440 O   0  0  0  0  0  0  0  0  0  0  0  0
   -1.7100   23.3620  -28.3900 C   0  0  0  0  0  0  0  0  0  0  0  0
   -0.5860   22.8090  -27.5450 C   0  0  0  0  0  0  0  0  0  0  0  0
   -0.8869   25.6944  -26.9414 H   0  0  0  0  0  0  0  0  0  0  0  0
    0.1653   25.4734  -28.3804 H   0  0  0  0  0  0  0  0  0  0  0  0
   -1.1003   26.7481  -28.3804 H   0  0  0  0  0  0  0  0  0  0  0  0
   -4.8210   26.1484  -30.8155 H   0  0  0  0  0  0  0  0  0  0  0  0
   -8.2720   23.4500  -32.9160 H   0  0  0  0  0  0  0  0  0  0  0  0
   -9.0944   21.3317  -30.8244 H   0  0  0  0  0  0  0  0  0  0  0  0
   -9.9506   19.0260  -31.1788 H   0  0  0  0  0  0  0  0  0  0  0  0
   -8.6093   17.3690  -32.4646 H   0  0  0  0  0  0  0  0  0  0  0  0
   -6.5912   16.7752  -33.6696 H   0  0  0  0  0  0  0  0  0  0  0  0
   -4.3325   17.3748  -34.5331 H   0  0  0  0  0  0  0  0  0  0  0  0
   -3.4009   19.6499  -34.1326 H   0  0  0  0  0  0  0  0  0  0  0  0
   -4.7322   21.3528  -32.8965 H   0  0  0  0  0  0  0  0  0  0  0  0
   -4.7202   21.1448  -30.1684 H   0  0  0  0  0  0  0  0  0  0  0  0
   -0.8336   22.9308  -26.4802 H   0  0  0  0  0  0  0  0  0  0  0  0
   -0.4495   21.7409  -27.7698 H   0  0  0  0  0  0  0  0  0  0  0  0
    0.3434   23.3527  -27.7698 H   0  0  0  0  0  0  0  0  0  0  0  0
  1  2  1  0
  2  3  1  0
  3  4  1  0
  4  5  2  0
  5  6  1  0
  6  7  1  0
  7  8  1  0
  8  9  2  0
  9 10  1  0
 10 11  2  0
 11 12  1  0
 12 13  2  0
 13 14  1  0
 14 15  2  0
 15 16  1  0
 16 17  2  0
 17 18  1  0
 18 19  2  0
  9 20  1  0
 20 21  1  0
 21 22  2  0
 22 23  1  0
 23 24  2  0
 23 25  1  0
 25 26  1  0
 25  2  2  0
 22  4  1  0
 20  6  2  0
 19 10  1  0
 19 14  1  0
  1 27  1  0
  1 28  1  0
  1 29  1  0
  5 30  1  0
  8 31  1  0
 11 32  1  0
 12 33  1  0
 13 34  1  0
 15 35  1  0
 16 36  1  0
 17 37  1  0
 18 38  1  0
 21 39  1  0
 26 40  1  0
 26 41  1  0
 26 42  1  0
M  CHG  1   8   1
M  END
>  <UniqueID>  (39) 
34

>  <SMILES>  (39) 
Cc1oc2cc3o[nH+]c(-c4cccc5ccccc45)c3cc2c(=O)c1C

>  <Energy>  (39) 
104.73592155284662

>  <Genealogy>  (39) 
Cc1oc2cc3o[nH+]c(-c4cccc5ccccc45)c3cc2c(=O)c1C (protonated)
Cc1oc2cc3o[nH+]c(-c4cccc5ccccc45)c3cc2c(=O)c1C (3D coordinates assigned)
Cc1oc2cc3o[nH+]c(-c4cccc5ccccc45)c3cc2c(=O)c1C (optimized conformer: 104.73592155284662 kcal/mol)

>  <smiles>  (39) 
Cc1oc2cc3onc(-c4cccc5ccccc45)c3cc2c(=O)c1C

>  <score_type>  (39) 
oracle

>  <origin>  (39) 
adg

>  <m_score__min__energy>  (39) 
-9.6899999999999995

>  <m_primary>  (39) 
energy

$$$$
39:0
     RDKit          3D

 48 51  0  0  0  0  0  0  0  0999 V2000
   -0.7850   19.4900  -30.6550 C   0  0  0  0  0  0  0  0  0  0  0  0
   -1.0590   20.6530  -29.7560 C   0  0  0  0  0  0  0  0  0  0  0  0
   -0.6910   20.6740  -28.4590 N   0  0  0  0  0  0  0  0  0  0  0  0
   -1.0320   21.8530  -27.9620 N   0  0  0  0  0  0  0  0  0  0  0  0
   -0.7840   22.2420  -26.5780 C   0  0  0  0  0  0  0  0  0  0  0  0
   -1.6270   22.6000  -28.9160 C   0  0  0  0  0  0  0  0  0  0  0  0
   -2.0650   24.0250  -28.7360 C   0  0  0  0  0  0  0  0  0  0  0  0
   -1.6460   21.8670  -30.0940 C   0  0  0  0  0  0  0  0  0  0  0  0
   -2.2170   22.2800  -31.4240 C   0  0  0  0  0  0  0  0  0  0  0  0
   -3.6580   22.0050  -31.4850 N   0  0  0  0  0  0  0  0  0  0  0  0
   -4.5190   22.2010  -30.3120 C   0  0  0  0  0  0  0  0  0  0  0  0
   -5.0910   23.5860  -30.3050 C   0  0  0  0  0  0  0  0  0  0  0  0
   -6.3040   23.9470  -29.7560 C   0  0  0  0  0  0  0  0  0  0  0  0
   -6.4300   25.2990  -29.9910 C   0  0  0  0  0  0  0  0  0  0  0  0
   -5.2910   25.6770  -30.6730 C   0  0  0  0  0  0  0  0  0  0  0  0
   -4.5140   24.6330  -30.8500 O   0  0  0  0  0  0  0  0  0  0  0  0
   -4.2420   21.5320  -32.7090 C   0  0  0  0  0  0  0  0  0  0  0  0
   -3.7940   21.9480  -33.8110 O   0  0  0  0  0  0  0  0  0  0  0  0
   -5.3820   20.5970  -32.7010 C   0  0  0  0  0  0  0  0  0  0  0  0
   -5.3130   19.2260  -32.9310 C   0  0  0  0  0  0  0  0  0  0  0  0
   -6.5140   18.6860  -32.8400 O   0  0  0  0  0  0  0  0  0  0  0  0
   -7.3620   19.6430  -32.5530 C   0  0  0  0  0  0  0  0  0  0  0  0
   -8.7360   19.5200  -32.3530 C   0  0  0  0  0  0  0  0  0  0  0  0
   -9.4590   20.6820  -32.0300 C   0  0  0  0  0  0  0  0  0  0  0  0
   -8.7990   21.9240  -31.9080 C   0  0  0  0  0  0  0  0  0  0  0  0
   -7.4120   22.0170  -32.1140 C   0  0  0  0  0  0  0  0  0  0  0  0
   -6.7200   20.8510  -32.4510 C   0  0  0  0  0  0  0  0  0  0  0  0
   -0.5748   18.5979  -30.0467 H   0  0  0  0  0  0  0  0  0  0  0  0
   -1.6635   19.3023  -31.2898 H   0  0  0  0  0  0  0  0  0  0  0  0
    0.0849   19.7142  -31.2898 H   0  0  0  0  0  0  0  0  0  0  0  0
   -1.2506   21.5102  -25.9022 H   0  0  0  0  0  0  0  0  0  0  0  0
    0.3001   22.2718  -26.3941 H   0  0  0  0  0  0  0  0  0  0  0  0
   -1.2145   23.2374  -26.3941 H   0  0  0  0  0  0  0  0  0  0  0  0
   -2.1354   24.2541  -27.6624 H   0  0  0  0  0  0  0  0  0  0  0  0
   -1.3317   24.6963  -29.2069 H   0  0  0  0  0  0  0  0  0  0  0  0
   -3.0487   24.1685  -29.2069 H   0  0  0  0  0  0  0  0  0  0  0  0
   -2.0498   23.3576  -31.5685 H   0  0  0  0  0  0  0  0  0  0  0  0
   -1.7159   21.7033  -32.2154 H   0  0  0  0  0  0  0  0  0  0  0  0
   -5.3408   21.4703  -30.3403 H   0  0  0  0  0  0  0  0  0  0  0  0
   -3.9171   22.0606  -29.4020 H   0  0  0  0  0  0  0  0  0  0  0  0
   -7.0209   23.2924  -29.2387 H   0  0  0  0  0  0  0  0  0  0  0  0
   -7.2687   25.9462  -29.6949 H   0  0  0  0  0  0  0  0  0  0  0  0
   -5.0679   26.6980  -31.0163 H   0  0  0  0  0  0  0  0  0  0  0  0
   -4.3899   18.6719  -33.1563 H   0  0  0  0  0  0  0  0  0  0  0  0
   -9.2383   18.5457  -32.4449 H   0  0  0  0  0  0  0  0  0  0  0  0
  -10.5459   20.6229  -31.8714 H   0  0  0  0  0  0  0  0  0  0  0  0
   -9.3745   22.8252  -31.6499 H   0  0  0  0  0  0  0  0  0  0  0  0
   -6.8872   22.9784  -32.0130 H   0  0  0  0  0  0  0  0  0  0  0  0
  1  2  1  0
  2  3  2  0
  3  4  1  0
  4  5  1  0
  4  6  1  0
  6  7  1  0
  6  8  2  0
  8  9  1  0
  9 10  1  0
 10 11  1  0
 11 12  1  0
 12 13  2  0
 13 14  1  0
 14 15  2  0
 15 16  1  0
 10 17  1  0
 17 18  2  0
 17 19  1  0
 19 20  2  0
 20 21  1  0
 21 22  1  0
 22 23  2  0
 23 24  1  0
 24 25  2  0
 25 26  1  0
 26 27  2  0
  8  2  1  0
 16 12  1  0
 27 19  1  0
 27 22  1  0
  1 28  1  0
  1 29  1  0
  1 30  1  0
  5 31  1  0
  5 32  1  0
  5 33  1  0
  7 34  1  0
  7 35  1  0
  7 36  1  0
  9 37  1  0
  9 38  1  0
 11 39  1  0
 11 40  1  0
 13 41  1  0
 14 42  1  0
 15 43  1  0
 20 44  1  0
 23 45  1  0
 24 46  1  0
 25 47  1  0
 26 48  1  0
M  END
>  <UniqueID>  (40) 
35

>  <SMILES>  (40) 
Cc1nn(C)c(C)c1CN(Cc1ccco1)C(=O)c1coc2ccccc12

>  <Energy>  (40) 
140.89216447093847

>  <Genealogy>  (40) 
Cc1nn(C)c(C)c1CN(Cc1ccco1)C(=O)c1coc2ccccc12 (3D coordinates assigned)
Cc1nn(C)c(C)c1CN(Cc1ccco1)C(=O)c1coc2ccccc12 (optimized conformer: 140.89216447093847 kcal/mol)

>  <smiles>  (40) 
Cc1nn(C)c(C)c1CN(Cc1ccco1)C(=O)c1coc2ccccc12

>  <score_type>  (40) 
oracle

>  <origin>  (40) 
adg

>  <m_score__min__energy>  (40) 
-8.5899999999999999

>  <m_primary>  (40) 
energy

$$$$
40:0
     RDKit          3D

 65 68  0  0  0  0  0  0  0  0999 V2000
   -1.9540   17.0170  -33.2880 C   0  0  0  0  0  0  0  0  0  0  0  0
   -3.0430   17.6530  -34.0350 N   0  0  0  0  0  0  0  0  0  0  0  0
   -3.0480   19.1030  -34.1840 C   0  0  0  0  0  0  0  0  0  0  0  0
   -4.1680   19.6740  -33.3790 C   0  0  0  0  0  0  0  0  0  0  0  0
   -3.8970   20.5040  -32.2790 C   0  0  0  0  0  0  0  0  0  0  0  0
   -4.9440   21.0960  -31.5530 C   0  0  0  0  0  0  0  0  0  0  0  0
   -4.6790   21.9610  -30.3800 C   0  0  0  0  0  0  0  0  0  0  0  0
   -3.8250   21.5960  -29.5260 O   0  0  0  0  0  0  0  0  0  0  0  0
   -5.3360   23.2310  -30.2250 N   0  0  0  0  0  0  0  0  0  0  0  0
   -4.7800   24.2660  -29.3570 C   0  0  0  0  0  0  0  0  0  0  0  0
   -3.5640   24.8940  -30.0320 C   0  0  0  0  0  0  0  0  0  0  0  0
   -2.5830   25.2920  -29.0310 N   0  0  0  0  0  0  0  0  0  0  0  0
   -1.3420   24.6220  -28.7600 C   0  0  0  0  0  0  0  0  0  0  0  0
   -0.3670   25.3100  -28.3590 O   0  0  0  0  0  0  0  0  0  0  0  0
   -1.1410   23.1730  -29.0040 C   0  0  0  0  0  0  0  0  0  0  0  0
   -1.1550   22.2860  -27.9150 C   0  0  0  0  0  0  0  0  0  0  0  0
   -0.9420   20.9200  -28.1060 C   0  0  0  0  0  0  0  0  0  0  0  0
   -0.7050   20.4150  -29.3910 C   0  0  0  0  0  0  0  0  0  0  0  0
   -0.4500   19.0510  -29.5900 C   0  0  0  0  0  0  0  0  0  0  0  0
   -0.1950   18.5640  -30.8740 C   0  0  0  0  0  0  0  0  0  0  0  0
   -0.1980   19.4350  -31.9680 C   0  0  0  0  0  0  0  0  0  0  0  0
   -0.4570   20.7940  -31.7860 C   0  0  0  0  0  0  0  0  0  0  0  0
   -0.7110   21.2960  -30.5000 C   0  0  0  0  0  0  0  0  0  0  0  0
   -0.9590   22.6630  -30.3010 C   0  0  0  0  0  0  0  0  0  0  0  0
   -6.2680   20.8680  -31.9640 C   0  0  0  0  0  0  0  0  0  0  0  0
   -6.5390   20.0360  -33.0480 C   0  0  0  0  0  0  0  0  0  0  0  0
   -5.4980   19.3950  -33.7360 C   0  0  0  0  0  0  0  0  0  0  0  0
   -5.8120   18.5460  -34.8490 N   0  0  0  0  0  0  0  0  0  0  0  0
   -5.4080   17.1380  -35.0030 C   0  0  2  0  0  0  0  0  0  0  0  0
   -6.3180   16.1640  -34.2080 C   0  0  0  0  0  0  0  0  0  0  0  0
   -5.6660   15.3350  -33.0850 C   0  0  0  0  0  0  0  0  0  0  0  0
   -5.4190   13.8680  -33.4530 C   0  0  0  0  0  0  0  0  0  0  0  0
   -4.0520   13.6930  -33.9280 N   0  0  0  0  0  0  0  0  0  0  0  0
   -3.9320   16.8380  -34.8170 C   0  0  0  0  0  0  0  0  0  0  0  0
   -3.4740   15.7930  -35.3520 O   0  0  0  0  0  0  0  0  0  0  0  0
   -2.1380   17.1245  -32.2088 H   0  0  0  0  0  0  0  0  0  0  0  0
   -1.9063   15.9491  -33.5473 H   0  0  0  0  0  0  0  0  0  0  0  0
   -1.0004   17.5002  -33.5473 H   0  0  0  0  0  0  0  0  0  0  0  0
   -2.0917   19.5131  -33.8271 H   0  0  0  0  0  0  0  0  0  0  0  0
   -3.1824   19.3657  -35.2437 H   0  0  0  0  0  0  0  0  0  0  0  0
   -2.8545   20.6925  -31.9829 H   0  0  0  0  0  0  0  0  0  0  0  0
   -6.0210   23.5490  -30.9480 H   0  0  0  0  0  0  0  0  0  0  0  0
   -5.5400   25.0404  -29.1759 H   0  0  0  0  0  0  0  0  0  0  0  0
   -4.4781   23.8186  -28.3985 H   0  0  0  0  0  0  0  0  0  0  0  0
   -3.1093   24.1619  -30.7155 H   0  0  0  0  0  0  0  0  0  0  0  0
   -3.8847   25.7835  -30.5941 H   0  0  0  0  0  0  0  0  0  0  0  0
   -1.3357   22.6720  -26.9010 H   0  0  0  0  0  0  0  0  0  0  0  0
   -0.9603   20.2370  -27.2439 H   0  0  0  0  0  0  0  0  0  0  0  0
   -0.4507   18.3622  -28.7324 H   0  0  0  0  0  0  0  0  0  0  0  0
    0.0085   17.4936  -31.0249 H   0  0  0  0  0  0  0  0  0  0  0  0
    0.0048   19.0469  -32.9771 H   0  0  0  0  0  0  0  0  0  0  0  0
   -0.4621   21.4729  -32.6515 H   0  0  0  0  0  0  0  0  0  0  0  0
   -1.0113   23.3401  -31.1663 H   0  0  0  0  0  0  0  0  0  0  0  0
   -7.0972   21.3503  -31.4256 H   0  0  0  0  0  0  0  0  0  0  0  0
   -7.5799   19.8801  -33.3677 H   0  0  0  0  0  0  0  0  0  0  0  0
   -6.6360   18.8350  -35.4230 H   0  0  0  0  0  0  0  0  0  0  0  0
   -5.5702   16.9486  -36.0744 H   0  0  0  0  0  0  0  0  0  0  0  0
   -7.1209   16.7619  -33.7520 H   0  0  0  0  0  0  0  0  0  0  0  0
   -6.6464   15.4206  -34.9493 H   0  0  0  0  0  0  0  0  0  0  0  0
   -4.6994   15.7953  -32.8325 H   0  0  0  0  0  0  0  0  0  0  0  0
   -6.3705   15.3358  -32.2402 H   0  0  0  0  0  0  0  0  0  0  0  0
   -5.5789   13.2385  -32.5652 H   0  0  0  0  0  0  0  0  0  0  0  0
   -6.1172   13.5749  -34.2509 H   0  0  0  0  0  0  0  0  0  0  0  0
   -3.4940   14.5130  -33.5970 H   0  0  0  0  0  0  0  0  0  0  0  0
   -4.0540   13.7340  -34.9740 H   0  0  0  0  0  0  0  0  0  0  0  0
  1  2  1  0
  2  3  1  0
  3  4  1  0
  4  5  2  0
  5  6  1  0
  6  7  1  0
  7  8  2  0
  7  9  1  0
  9 10  1  0
 10 11  1  0
 11 12  1  0
 12 13  1  0
 13 14  2  0
 13 15  1  0
 15 16  2  0
 16 17  1  0
 17 18  2  0
 18 19  1  0
 19 20  2  0
 20 21  1  0
 21 22  2  0
 22 23  1  0
 23 24  2  0
  6 25  2  0
 25 26  1  0
 26 27  2  0
 27 28  1  0
 28 29  1  0
 29 30  1  0
 30 31  1  0
 31 32  1  0
 32 33  1  0
 29 34  1  0
 34 35  2  0
 34  2  1  0
 27  4  1  0
 24 15  1  0
 23 18  1  0
  1 36  1  0
  1 37  1  0
  1 38  1  0
  3 39  1  0
  3 40  1  0
  5 41  1  0
  9 42  1  0
 10 43  1  0
 10 44  1  0
 11 45  1  0
 11 46  1  0
 16 47  1  0
 17 48  1  0
 19 49  1  0
 20 50  1  0
 21 51  1  0
 22 52  1  0
 24 53  1  0
 25 54  1  0
 26 55  1  0
 28 56  1  0
 29 57  1  6
 30 58  1  0
 30 59  1  0
 31 60  1  0
 31 61  1  0
 32 62  1  0
 32 63  1  0
 33 64  1  0
 33 65  1  0
M  CHG  1  12  -1
M  END
>  <UniqueID>  (41) 
36

>  <SMILES>  (41) 
CN1Cc2cc(C(=O)NCC[N-]C(=O)c3ccc4ccccc4c3)ccc2N[C@H](CCCN)C1=O

>  <Energy>  (41) 
82.60403650727069

>  <Genealogy>  (41) 
CN1Cc2cc(C(=O)NCC[N-]C(=O)c3ccc4ccccc4c3)ccc2NC(CCCN)C1=O (protonated)
CN1Cc2cc(C(=O)NCC[N-]C(=O)c3ccc4ccccc4c3)ccc2N[C@H](CCCN)C1=O (chirality)
CN1Cc2cc(C(=O)NCC[N-]C(=O)c3ccc4ccccc4c3)ccc2N[C@H](CCCN)C1=O (3D coordinates assigned)
CN1Cc2cc(C(=O)NCC[N-]C(=O)c3ccc4ccccc4c3)ccc2N[C@H](CCCN)C1=O (nonaromatic ring conformer: 82.60403650727069 kcal/mol)

>  <smiles>  (41) 
CN1Cc2cc(C(=O)NCCNC(=O)c3ccc4ccccc4c3)ccc2NC(CCCN)C1=O

>  <score_type>  (41) 
oracle

>  <origin>  (41) 
adg

>  <m_score__min__energy>  (41) 
-8.6799999999999997

>  <m_primary>  (41) 
energy

$$$$
41:0
     RDKit          3D

 22 23  0  0  0  0  0  0  0  0999 V2000
   -3.7760   25.2850  -30.4720 N   0  0  0  0  0  0  0  0  0  0  0  0
   -2.7980   24.6390  -29.6600 C   0  0  0  0  0  0  0  0  0  0  0  0
   -1.8020   25.2880  -29.2410 O   0  0  0  0  0  0  0  0  0  0  0  0
   -2.9380   23.1880  -29.3300 C   0  0  0  0  0  0  0  0  0  0  0  0
   -2.7540   22.1680  -30.8320 S   0  0  0  0  0  0  0  0  0  0  0  0
   -4.4590   22.3640  -31.3480 C   0  0  0  0  0  0  0  0  0  0  0  0
   -5.0290   23.5390  -31.6620 N   0  0  0  0  0  0  0  0  0  0  0  0
   -6.2860   23.2950  -31.9890 N   0  0  0  0  0  0  0  0  0  0  0  0
   -6.4350   21.9590  -31.8600 C   0  0  0  0  0  0  0  0  0  0  0  0
   -7.6830   21.2390  -32.1220 C   0  0  0  0  0  0  0  0  0  0  0  0
   -7.7910   19.9330  -32.5550 C   0  0  0  0  0  0  0  0  0  0  0  0
   -9.1440   19.6910  -32.6640 C   0  0  0  0  0  0  0  0  0  0  0  0
   -9.7740   20.8620  -32.2910 C   0  0  0  0  0  0  0  0  0  0  0  0
   -8.8760   21.7670  -31.9740 O   0  0  0  0  0  0  0  0  0  0  0  0
   -5.3190   21.3840  -31.4690 O   0  0  0  0  0  0  0  0  0  0  0  0
   -3.4930   25.9450  -31.2290 H   0  0  0  0  0  0  0  0  0  0  0  0
   -2.1615   22.9057  -28.6038 H   0  0  0  0  0  0  0  0  0  0  0  0
   -3.9375   23.0157  -28.9041 H   0  0  0  0  0  0  0  0  0  0  0  0
   -4.5830   24.4830  -31.6540 H   0  0  0  0  0  0  0  0  0  0  0  0
   -6.9702   19.2324  -32.7683 H   0  0  0  0  0  0  0  0  0  0  0  0
   -9.6245   18.7545  -32.9835 H   0  0  0  0  0  0  0  0  0  0  0  0
  -10.8631   21.0140  -32.2635 H   0  0  0  0  0  0  0  0  0  0  0  0
  1  2  1  0
  2  3  2  0
  2  4  1  0
  4  5  1  0
  5  6  1  0
  6  7  2  0
  7  8  1  0
  8  9  2  0
  9 10  1  0
 10 11  2  0
 11 12  1  0
 12 13  2  0
 13 14  1  0
  9 15  1  0
 15  6  1  0
 14 10  1  0
  1 16  1  0
  4 17  1  0
  4 18  1  0
  7 19  1  0
 11 20  1  0
 12 21  1  0
 13 22  1  0
M  CHG  2   1  -1   7   1
M  END
>  <UniqueID>  (42) 
37

>  <SMILES>  (42) 
[NH-]C(=O)CSc1[nH+]nc(-c2ccco2)o1

>  <Energy>  (42) 
77.02977611730535

>  <Genealogy>  (42) 
[NH-]C(=O)CSc1[nH+]nc(-c2ccco2)o1 (protonated)
[NH-]C(=O)CSc1[nH+]nc(-c2ccco2)o1 (3D coordinates assigned)
[NH-]C(=O)CSc1[nH+]nc(-c2ccco2)o1 (optimized conformer: 77.02977611730535 kcal/mol)

>  <smiles>  (42) 
NC(=O)CSc1nnc(-c2ccco2)o1

>  <score_type>  (42) 
oracle

>  <origin>  (42) 
adg

>  <m_score__min__energy>  (42) 
-7.3600000000000003

>  <m_primary>  (42) 
energy

$$$$
42:0
     RDKit          3D

 61 64  0  0  0  0  0  0  0  0999 V2000
    0.3510   17.8820  -28.0230 C   0  0  0  0  0  0  0  0  0  0  0  0
   -0.8420   18.7880  -27.8610 C   0  0  0  0  0  0  0  0  0  0  0  0
   -1.7120   18.5720  -26.7780 C   0  0  0  0  0  0  0  0  0  0  0  0
   -2.8330   19.3810  -26.5940 C   0  0  0  0  0  0  0  0  0  0  0  0
   -3.1080   20.4110  -27.4910 C   0  0  0  0  0  0  0  0  0  0  0  0
   -2.2570   20.6520  -28.5770 C   0  0  0  0  0  0  0  0  0  0  0  0
   -2.5860   21.7070  -29.4900 N   0  0  0  0  0  0  0  0  0  0  0  0
   -3.6460   21.5000  -30.4770 C   0  0  0  0  0  0  0  0  0  0  0  0
   -3.7290   22.6720  -31.4690 C   0  0  0  0  0  0  0  0  0  0  0  0
   -3.6720   24.0000  -30.8130 N   0  0  0  0  0  0  0  0  0  0  0  0
   -4.9840   24.6580  -30.6260 C   0  0  0  0  0  0  0  0  0  0  0  0
   -6.1260   23.6800  -30.5370 C   0  0  0  0  0  0  0  0  0  0  0  0
   -6.3150   23.0580  -29.4580 O   0  0  0  0  0  0  0  0  0  0  0  0
   -6.9690   23.4410  -31.6800 N   0  0  0  0  0  0  0  0  0  0  0  0
   -7.7290   22.2340  -31.8660 C   0  0  0  0  0  0  0  0  0  0  0  0
   -9.1290   22.3060  -31.8700 C   0  0  0  0  0  0  0  0  0  0  0  0
   -9.8930   21.1640  -32.1070 C   0  0  0  0  0  0  0  0  0  0  0  0
   -9.2680   19.9360  -32.3350 C   0  0  0  0  0  0  0  0  0  0  0  0
   -7.8690   19.8380  -32.3210 C   0  0  0  0  0  0  0  0  0  0  0  0
   -7.2000   18.5370  -32.5570 C   0  0  0  0  0  0  0  0  0  0  0  0
   -7.8060   17.4730  -32.2560 O   0  0  0  0  0  0  0  0  0  0  0  0
   -5.8390   18.4500  -33.1390 C   0  0  0  0  0  0  0  0  0  0  0  0
   -4.7440   19.0110  -32.4580 C   0  0  0  0  0  0  0  0  0  0  0  0
   -3.4560   18.9210  -32.9970 C   0  0  0  0  0  0  0  0  0  0  0  0
   -3.2520   18.2870  -34.2250 C   0  0  0  0  0  0  0  0  0  0  0  0
   -4.3350   17.7480  -34.9230 C   0  0  0  0  0  0  0  0  0  0  0  0
   -5.6240   17.8310  -34.3860 C   0  0  0  0  0  0  0  0  0  0  0  0
   -7.1070   20.9870  -32.0560 C   0  0  0  0  0  0  0  0  0  0  0  0
   -2.7550   24.1370  -29.6520 C   0  0  0  0  0  0  0  0  0  0  0  0
   -1.8070   22.9450  -29.4950 C   0  0  0  0  0  0  0  0  0  0  0  0
   -1.0920   19.8650  -28.7540 C   0  0  0  0  0  0  0  0  0  0  0  0
   -0.1690   20.1370  -29.9200 C   0  0  0  0  0  0  0  0  0  0  0  0
    0.7301   17.5941  -27.0313 H   0  0  0  0  0  0  0  0  0  0  0  0
    0.0537   16.9800  -28.5780 H   0  0  0  0  0  0  0  0  0  0  0  0
    1.1401   18.4105  -28.5780 H   0  0  0  0  0  0  0  0  0  0  0  0
   -1.5065   17.7568  -26.0687 H   0  0  0  0  0  0  0  0  0  0  0  0
   -3.5018   19.2054  -25.7385 H   0  0  0  0  0  0  0  0  0  0  0  0
   -3.9993   21.0390  -27.3453 H   0  0  0  0  0  0  0  0  0  0  0  0
   -3.4399   20.5741  -31.0340 H   0  0  0  0  0  0  0  0  0  0  0  0
   -4.6055   21.4307  -29.9436 H   0  0  0  0  0  0  0  0  0  0  0  0
   -2.8874   22.5939  -32.1731 H   0  0  0  0  0  0  0  0  0  0  0  0
   -4.7021   22.6008  -31.9770 H   0  0  0  0  0  0  0  0  0  0  0  0
   -4.9522   25.2452  -29.6964 H   0  0  0  0  0  0  0  0  0  0  0  0
   -5.1622   25.2924  -31.5068 H   0  0  0  0  0  0  0  0  0  0  0  0
   -6.8120   24.0420  -32.5200 H   0  0  0  0  0  0  0  0  0  0  0  0
   -9.6276   23.2689  -31.6851 H   0  0  0  0  0  0  0  0  0  0  0  0
  -10.9910   21.2304  -32.1144 H   0  0  0  0  0  0  0  0  0  0  0  0
   -9.8768   19.0401  -32.5267 H   0  0  0  0  0  0  0  0  0  0  0  0
   -4.9008   19.5229  -31.4971 H   0  0  0  0  0  0  0  0  0  0  0  0
   -2.6021   19.3504  -32.4526 H   0  0  0  0  0  0  0  0  0  0  0  0
   -2.2371   18.2122  -34.6427 H   0  0  0  0  0  0  0  0  0  0  0  0
   -4.1744   17.2583  -35.8948 H   0  0  0  0  0  0  0  0  0  0  0  0
   -6.4753   17.4101  -34.9411 H   0  0  0  0  0  0  0  0  0  0  0  0
   -6.0112   20.9111  -31.9963 H   0  0  0  0  0  0  0  0  0  0  0  0
   -2.1534   25.0481  -29.7860 H   0  0  0  0  0  0  0  0  0  0  0  0
   -3.3764   24.1850  -28.7456 H   0  0  0  0  0  0  0  0  0  0  0  0
   -1.0953   22.9282  -30.3336 H   0  0  0  0  0  0  0  0  0  0  0  0
   -1.2528   23.0362  -28.5492 H   0  0  0  0  0  0  0  0  0  0  0  0
    0.8221   20.4291  -29.5427 H   0  0  0  0  0  0  0  0  0  0  0  0
   -0.0749   19.2284  -30.5329 H   0  0  0  0  0  0  0  0  0  0  0  0
   -0.5826   20.9514  -30.5329 H   0  0  0  0  0  0  0  0  0  0  0  0
  1  2  1  0
  2  3  2  0
  3  4  1  0
  4  5  2  0
  5  6  1  0
  6  7  1  0
  7  8  1  0
  8  9  1  0
  9 10  1  0
 10 11  1  0
 11 12  1  0
 12 13  2  0
 12 14  1  0
 14 15  1  0
 15 16  2  0
 16 17  1  0
 17 18  2  0
 18 19  1  0
 19 20  1  0
 20 21  2  0
 20 22  1  0
 22 23  2  0
 23 24  1  0
 24 25  2  0
 25 26  1  0
 26 27  2  0
 19 28  2  0
 10 29  1  0
 29 30  1  0
  6 31  2  0
 31 32  1  0
 31  2  1  0
 30  7  1  0
 28 15  1  0
 27 22  1  0
  1 33  1  0
  1 34  1  0
  1 35  1  0
  3 36  1  0
  4 37  1  0
  5 38  1  0
  8 39  1  0
  8 40  1  0
  9 41  1  0
  9 42  1  0
 11 43  1  0
 11 44  1  0
 14 45  1  0
 16 46  1  0
 17 47  1  0
 18 48  1  0
 23 49  1  0
 24 50  1  0
 25 51  1  0
 26 52  1  0
 27 53  1  0
 28 54  1  0
 29 55  1  0
 29 56  1  0
 30 57  1  0
 30 58  1  0
 32 59  1  0
 32 60  1  0
 32 61  1  0
M  END
>  <UniqueID>  (43) 
38

>  <SMILES>  (43) 
Cc1cccc(N2CCN(CC(=O)Nc3cccc(C(=O)c4ccccc4)c3)CC2)c1C

>  <Energy>  (43) 
87.29766079980189

>  <Genealogy>  (43) 
Cc1cccc(N2CCN(CC(=O)Nc3cccc(C(=O)c4ccccc4)c3)CC2)c1C (3D coordinates assigned)
Cc1cccc(N2CCN(CC(=O)Nc3cccc(C(=O)c4ccccc4)c3)CC2)c1C (nonaromatic ring conformer: 87.29766079980189 kcal/mol)

>  <smiles>  (43) 
Cc1cccc(N2CCN(CC(=O)Nc3cccc(C(=O)c4ccccc4)c3)CC2)c1C

>  <score_type>  (43) 
oracle

>  <origin>  (43) 
adg

>  <m_score__min__energy>  (43) 
-11.210000000000001

>  <m_primary>  (43) 
energy

$$$$
43:0
     RDKit          3D

 51 54  0  0  0  0  0  0  0  0999 V2000
   -7.1390   13.7280  -34.5420 C   0  0  0  0  0  0  0  0  0  0  0  0
   -5.6860   14.0550  -34.1980 C   0  0  0  0  0  0  0  0  0  0  0  0
   -5.5210   15.5100  -33.9590 N   0  0  0  0  0  0  0  0  0  0  0  0
   -4.7260   15.7960  -32.7420 C   0  0  0  0  0  0  0  0  0  0  0  0
   -3.2870   16.2460  -33.0390 C   0  0  0  0  0  0  0  0  0  0  0  0
   -6.8040   16.2510  -33.9680 C   0  0  0  0  0  0  0  0  0  0  0  0
   -6.6150   17.6560  -33.4650 C   0  0  0  0  0  0  0  0  0  0  0  0
   -5.7480   18.5300  -34.1390 C   0  0  0  0  0  0  0  0  0  0  0  0
   -5.5620   19.8350  -33.6770 C   0  0  0  0  0  0  0  0  0  0  0  0
   -6.2310   20.2890  -32.5270 C   0  0  0  0  0  0  0  0  0  0  0  0
   -6.0200   21.6730  -32.0320 C   0  0  0  0  0  0  0  0  0  0  0  0
   -4.9000   21.9860  -31.2430 C   0  0  0  0  0  0  0  0  0  0  0  0
   -4.7110   23.2980  -30.7800 C   0  0  0  0  0  0  0  0  0  0  0  0
   -3.5310   23.6430  -29.9560 C   0  0  0  0  0  0  0  0  0  0  0  0
   -3.1210   24.9250  -29.7530 N   0  0  0  0  0  0  0  0  0  0  0  0
   -2.0410   24.7700  -28.9750 C   0  0  0  0  0  0  0  0  0  0  0  0
   -1.2090   25.7620  -28.4610 C   0  0  0  0  0  0  0  0  0  0  0  0
   -0.1190   25.3540  -27.6680 C   0  0  0  0  0  0  0  0  0  0  0  0
    0.1040   23.9820  -27.4110 C   0  0  0  0  0  0  0  0  0  0  0  0
   -0.7590   23.0080  -27.9480 C   0  0  0  0  0  0  0  0  0  0  0  0
   -1.8250   23.4480  -28.7300 C   0  0  0  0  0  0  0  0  0  0  0  0
   -2.7570   22.7070  -29.3420 N   0  0  0  0  0  0  0  0  0  0  0  0
   -5.6570   24.2770  -31.1140 C   0  0  0  0  0  0  0  0  0  0  0  0
   -6.7590   23.9340  -31.8970 C   0  0  0  0  0  0  0  0  0  0  0  0
   -6.9200   22.6570  -32.3370 N   0  0  0  0  0  0  0  0  0  0  0  0
   -7.0990   19.4080  -31.8520 C   0  0  0  0  0  0  0  0  0  0  0  0
   -7.2860   18.1040  -32.3170 C   0  0  0  0  0  0  0  0  0  0  0  0
   -7.7152   13.5983  -33.6140 H   0  0  0  0  0  0  0  0  0  0  0  0
   -7.5709   14.5514  -35.1298 H   0  0  0  0  0  0  0  0  0  0  0  0
   -7.1765   12.7990  -35.1298 H   0  0  0  0  0  0  0  0  0  0  0  0
   -5.3965   13.5044  -33.2908 H   0  0  0  0  0  0  0  0  0  0  0  0
   -5.0463   13.7594  -35.0426 H   0  0  0  0  0  0  0  0  0  0  0  0
   -5.2302   16.5937  -32.1767 H   0  0  0  0  0  0  0  0  0  0  0  0
   -4.6594   14.8575  -32.1722 H   0  0  0  0  0  0  0  0  0  0  0  0
   -2.7523   16.4132  -32.0923 H   0  0  0  0  0  0  0  0  0  0  0  0
   -2.7712   15.4663  -33.6186 H   0  0  0  0  0  0  0  0  0  0  0  0
   -3.3074   17.1807  -33.6186 H   0  0  0  0  0  0  0  0  0  0  0  0
   -7.1928   16.2857  -34.9964 H   0  0  0  0  0  0  0  0  0  0  0  0
   -7.5141   15.7330  -33.3065 H   0  0  0  0  0  0  0  0  0  0  0  0
   -5.2122   18.1855  -35.0358 H   0  0  0  0  0  0  0  0  0  0  0  0
   -4.8860   20.5135  -34.2179 H   0  0  0  0  0  0  0  0  0  0  0  0
   -4.1710   21.2027  -30.9880 H   0  0  0  0  0  0  0  0  0  0  0  0
   -1.3967   26.8261  -28.6672 H   0  0  0  0  0  0  0  0  0  0  0  0
    0.5627   26.1073  -27.2462 H   0  0  0  0  0  0  0  0  0  0  0  0
    0.9565   23.6737  -26.7880 H   0  0  0  0  0  0  0  0  0  0  0  0
   -0.5974   21.9368  -27.7569 H   0  0  0  0  0  0  0  0  0  0  0  0
   -5.5308   25.3109  -30.7602 H   0  0  0  0  0  0  0  0  0  0  0  0
   -7.5024   24.7008  -32.1603 H   0  0  0  0  0  0  0  0  0  0  0  0
   -7.7460   22.4470  -32.9410 H   0  0  0  0  0  0  0  0  0  0  0  0
   -7.6330   19.7492  -30.9529 H   0  0  0  0  0  0  0  0  0  0  0  0
   -7.9636   17.4241  -31.7798 H   0  0  0  0  0  0  0  0  0  0  0  0
  1  2  1  0
  2  3  1  0
  3  4  1  0
  4  5  1  0
  3  6  1  0
  6  7  1  0
  7  8  2  0
  8  9  1  0
  9 10  2  0
 10 11  1  0
 11 12  2  0
 12 13  1  0
 13 14  1  0
 14 15  2  0
 15 16  1  0
 16 17  2  0
 17 18  1  0
 18 19  2  0
 19 20  1  0
 20 21  2  0
 21 22  1  0
 13 23  2  0
 23 24  1  0
 24 25  2  0
 10 26  1  0
 26 27  2  0
 27  7  1  0
 25 11  1  0
 22 14  1  0
 21 16  1  0
  1 28  1  0
  1 29  1  0
  1 30  1  0
  2 31  1  0
  2 32  1  0
  4 33  1  0
  4 34  1  0
  5 35  1  0
  5 36  1  0
  5 37  1  0
  6 38  1  0
  6 39  1  0
  8 40  1  0
  9 41  1  0
 12 42  1  0
 17 43  1  0
 18 44  1  0
 19 45  1  0
 20 46  1  0
 23 47  1  0
 24 48  1  0
 25 49  1  0
 26 50  1  0
 27 51  1  0
M  CHG  2  22  -1  25   1
M  END
>  <UniqueID>  (44) 
39

>  <SMILES>  (44) 
CCN(CC)Cc1ccc(-c2cc(-c3nc4ccccc4[n-]3)cc[nH+]2)cc1

>  <Energy>  (44) 
96.04358003422803

>  <Genealogy>  (44) 
CCN(CC)Cc1ccc(-c2cc(-c3nc4ccccc4[n-]3)cc[nH+]2)cc1 (protonated)
CCN(CC)Cc1ccc(-c2cc(-c3nc4ccccc4[n-]3)cc[nH+]2)cc1 (3D coordinates assigned)
CCN(CC)Cc1ccc(-c2cc(-c3nc4ccccc4[n-]3)cc[nH+]2)cc1 (optimized conformer: 96.04358003422803 kcal/mol)

>  <smiles>  (44) 
CCN(CC)Cc1ccc(-c2cc(-c3nc4ccccc4[nH]3)ccn2)cc1

>  <score_type>  (44) 
oracle

>  <origin>  (44) 
adg

>  <m_score__min__energy>  (44) 
-8.4600000000000009

>  <m_primary>  (44) 
energy

$$$$
44:0
     RDKit          3D

 49 52  0  0  0  0  0  0  0  0999 V2000
    0.0280   18.3580  -33.5160 C   0  0  0  0  0  0  0  0  0  0  0  0
    0.2410   19.6130  -34.3210 C   0  0  0  0  0  0  0  0  0  0  0  0
    0.3280   19.5240  -35.7210 C   0  0  0  0  0  0  0  0  0  0  0  0
    0.5180   20.6700  -36.4900 C   0  0  0  0  0  0  0  0  0  0  0  0
    0.6180   21.9070  -35.8570 C   0  0  0  0  0  0  0  0  0  0  0  0
    0.5330   21.9870  -34.5040 N   0  0  0  0  0  0  0  0  0  0  0  0
    0.3510   20.8900  -33.7170 C   0  0  0  0  0  0  0  0  0  0  0  0
    0.2840   21.1050  -32.2230 C   0  0  0  0  0  0  0  0  0  0  0  0
   -1.0690   21.5450  -31.8250 N   0  0  0  0  0  0  0  0  0  0  0  0
   -1.9970   20.4010  -31.7770 C   0  0  0  0  0  0  0  0  0  0  0  0
   -3.4340   20.9270  -31.6820 C   0  0  0  0  0  0  0  0  0  0  0  0
   -3.4970   22.1130  -30.8150 N   0  0  0  0  0  0  0  0  0  0  0  0
   -4.5120   23.1150  -31.0230 C   0  0  0  0  0  0  0  0  0  0  0  0
   -4.2110   24.3350  -30.9180 O   0  0  0  0  0  0  0  0  0  0  0  0
   -5.9000   22.7460  -31.3780 C   0  0  0  0  0  0  0  0  0  0  0  0
   -6.8880   23.7480  -31.5320 C   0  0  0  0  0  0  0  0  0  0  0  0
   -8.2090   23.4050  -31.8590 C   0  0  0  0  0  0  0  0  0  0  0  0
   -8.5090   22.0550  -32.0130 C   0  0  0  0  0  0  0  0  0  0  0  0
   -9.7210   21.5450  -32.3180 N   0  0  0  0  0  0  0  0  0  0  0  0
   -9.5070   20.2080  -32.3430 C   0  0  0  0  0  0  0  0  0  0  0  0
   -8.1790   19.9410  -32.0530 C   0  0  0  0  0  0  0  0  0  0  0  0
   -7.5330   18.5930  -31.9730 C   0  0  0  0  0  0  0  0  0  0  0  0
   -7.5630   21.1150  -31.8480 N   0  0  0  0  0  0  0  0  0  0  0  0
   -6.2730   21.3970  -31.5300 C   0  0  0  0  0  0  0  0  0  0  0  0
   -2.4220   22.3350  -29.8440 C   0  0  0  0  0  0  0  0  0  0  0  0
   -1.0400   22.2660  -30.5270 C   0  0  0  0  0  0  0  0  0  0  0  0
    0.0689   18.5990  -32.4435 H   0  0  0  0  0  0  0  0  0  0  0  0
   -0.9557   17.9295  -33.7583 H   0  0  0  0  0  0  0  0  0  0  0  0
    0.8153   17.6289  -33.7583 H   0  0  0  0  0  0  0  0  0  0  0  0
    0.2456   18.5434  -36.2125 H   0  0  0  0  0  0  0  0  0  0  0  0
    0.5883   20.5989  -37.5854 H   0  0  0  0  0  0  0  0  0  0  0  0
    0.7659   22.8194  -36.4534 H   0  0  0  0  0  0  0  0  0  0  0  0
    0.5236   20.1618  -31.7102 H   0  0  0  0  0  0  0  0  0  0  0  0
    1.0088   21.8833  -31.9422 H   0  0  0  0  0  0  0  0  0  0  0  0
   -1.8851   19.7969  -32.6894 H   0  0  0  0  0  0  0  0  0  0  0  0
   -1.7714   19.7762  -30.9002 H   0  0  0  0  0  0  0  0  0  0  0  0
   -3.7873   21.1962  -32.6883 H   0  0  0  0  0  0  0  0  0  0  0  0
   -4.0710   20.1401  -31.2518 H   0  0  0  0  0  0  0  0  0  0  0  0
   -6.6178   24.8053  -31.3941 H   0  0  0  0  0  0  0  0  0  0  0  0
   -8.9813   24.1774  -31.9892 H   0  0  0  0  0  0  0  0  0  0  0  0
  -10.2723   19.4485  -32.5608 H   0  0  0  0  0  0  0  0  0  0  0  0
   -7.3987   18.3128  -30.9178 H   0  0  0  0  0  0  0  0  0  0  0  0
   -8.1727   17.8497  -32.4712 H   0  0  0  0  0  0  0  0  0  0  0  0
   -6.5528   18.6260  -32.4712 H   0  0  0  0  0  0  0  0  0  0  0  0
   -5.5372   20.5906  -31.3945 H   0  0  0  0  0  0  0  0  0  0  0  0
   -2.5487   23.3276  -29.3871 H   0  0  0  0  0  0  0  0  0  0  0  0
   -2.4742   21.5490  -29.0762 H   0  0  0  0  0  0  0  0  0  0  0  0
   -0.6849   23.2920  -30.7039 H   0  0  0  0  0  0  0  0  0  0  0  0
   -0.3692   21.7089  -29.8564 H   0  0  0  0  0  0  0  0  0  0  0  0
  1  2  1  0
  2  3  2  0
  3  4  1  0
  4  5  2  0
  5  6  1  0
  6  7  2  0
  7  8  1  0
  8  9  1  0
  9 10  1  0
 10 11  1  0
 11 12  1  0
 12 13  1  0
 13 14  2  0
 13 15  1  0
 15 16  1  0
 16 17  2  0
 17 18  1  0
 18 19  2  0
 19 20  1  0
 20 21  2  0
 21 22  1  0
 21 23  1  0
 23 24  1  0
 12 25  1  0
 25 26  1  0
  7  2  1  0
 26  9  1  0
 24 15  2  0
 23 18  1  0
  1 27  1  0
  1 28  1  0
  1 29  1  0
  3 30  1  0
  4 31  1  0
  5 32  1  0
  8 33  1  0
  8 34  1  0
 10 35  1  0
 10 36  1  0
 11 37  1  0
 11 38  1  0
 16 39  1  0
 17 40  1  0
 20 41  1  0
 22 42  1  0
 22 43  1  0
 22 44  1  0
 24 45  1  0
 25 46  1  0
 25 47  1  0
 26 48  1  0
 26 49  1  0
M  END
>  <UniqueID>  (45) 
40

>  <SMILES>  (45) 
Cc1cccnc1CN1CCN(C(=O)c2ccc3ncc(C)n3c2)CC1

>  <Energy>  (45) 
98.91263436777587

>  <Genealogy>  (45) 
Cc1cccnc1CN1CCN(C(=O)c2ccc3ncc(C)n3c2)CC1 (3D coordinates assigned)
Cc1cccnc1CN1CCN(C(=O)c2ccc3ncc(C)n3c2)CC1 (nonaromatic ring conformer: 98.91263436777587 kcal/mol)

>  <smiles>  (45) 
Cc1cccnc1CN1CCN(C(=O)c2ccc3ncc(C)n3c2)CC1

>  <score_type>  (45) 
oracle

>  <origin>  (45) 
adg

>  <m_score__min__energy>  (45) 
-8.75

>  <m_primary>  (45) 
energy

$$$$
45:0
     RDKit          3D

 40 43  0  0  0  0  0  0  0  0999 V2000
   -0.4820   23.1050  -26.1320 C   0  0  0  0  0  0  0  0  0  0  0  0
   -0.7370   24.5330  -25.7230 C   0  0  0  0  0  0  0  0  0  0  0  0
   -0.2940   24.9670  -24.4610 C   0  0  0  0  0  0  0  0  0  0  0  0
   -0.4940   26.2860  -24.0520 C   0  0  0  0  0  0  0  0  0  0  0  0
   -1.1450   27.1860  -24.8930 C   0  0  0  0  0  0  0  0  0  0  0  0
   -1.6050   26.7700  -26.1440 C   0  0  0  0  0  0  0  0  0  0  0  0
   -1.4140   25.4450  -26.5740 C   0  0  0  0  0  0  0  0  0  0  0  0
   -1.9430   25.0340  -27.8960 C   0  0  0  0  0  0  0  0  0  0  0  0
   -1.5980   25.6750  -28.9260 O   0  0  0  0  0  0  0  0  0  0  0  0
   -2.8050   23.8890  -28.0120 N   0  0  0  0  0  0  0  0  0  0  0  0
   -3.4900   23.5200  -29.2210 C   0  0  0  0  0  0  0  0  0  0  0  0
   -2.7510   23.0150  -30.3010 C   0  0  0  0  0  0  0  0  0  0  0  0
   -3.3930   22.6160  -31.4760 C   0  0  0  0  0  0  0  0  0  0  0  0
   -4.7870   22.7080  -31.5850 C   0  0  0  0  0  0  0  0  0  0  0  0
   -5.5310   23.2290  -30.5120 C   0  0  0  0  0  0  0  0  0  0  0  0
   -4.8890   23.6070  -29.3280 C   0  0  0  0  0  0  0  0  0  0  0  0
   -7.2890   23.5340  -30.7100 S   0  0  0  0  0  0  0  0  0  0  0  0
   -7.6150   21.9750  -31.5360 C   0  0  0  0  0  0  0  0  0  0  0  0
   -8.7860   21.2640  -31.2490 C   0  0  0  0  0  0  0  0  0  0  0  0
   -9.1190   20.1320  -31.9980 C   0  0  0  0  0  0  0  0  0  0  0  0
   -8.2840   19.7090  -33.0370 C   0  0  0  0  0  0  0  0  0  0  0  0
   -7.1010   20.4020  -33.3120 C   0  0  0  0  0  0  0  0  0  0  0  0
   -6.7510   21.5280  -32.5530 C   0  0  0  0  0  0  0  0  0  0  0  0
   -5.4590   22.1360  -32.7190 N   0  0  0  0  0  0  0  0  0  0  0  0
   -0.3705   22.4805  -25.2333 H   0  0  0  0  0  0  0  0  0  0  0  0
   -1.3289   22.7382  -26.7306 H   0  0  0  0  0  0  0  0  0  0  0  0
    0.4395   23.0540  -26.7306 H   0  0  0  0  0  0  0  0  0  0  0  0
    0.2152   24.2598  -23.7897 H   0  0  0  0  0  0  0  0  0  0  0  0
   -0.1374   26.6154  -23.0649 H   0  0  0  0  0  0  0  0  0  0  0  0
   -1.2969   28.2267  -24.5707 H   0  0  0  0  0  0  0  0  0  0  0  0
   -2.1220   27.4861  -26.7997 H   0  0  0  0  0  0  0  0  0  0  0  0
   -2.9090   23.2550  -27.1880 H   0  0  0  0  0  0  0  0  0  0  0  0
   -1.6569   22.9324  -30.2222 H   0  0  0  0  0  0  0  0  0  0  0  0
   -2.8019   22.2282  -32.3187 H   0  0  0  0  0  0  0  0  0  0  0  0
   -5.4815   23.9739  -28.4769 H   0  0  0  0  0  0  0  0  0  0  0  0
   -9.4448   21.5965  -30.4332 H   0  0  0  0  0  0  0  0  0  0  0  0
  -10.0387   19.5733  -31.7700 H   0  0  0  0  0  0  0  0  0  0  0  0
   -8.5582   18.8299  -33.6387 H   0  0  0  0  0  0  0  0  0  0  0  0
   -6.4432   20.0630  -34.1259 H   0  0  0  0  0  0  0  0  0  0  0  0
   -4.8980   21.8970  -33.5670 H   0  0  0  0  0  0  0  0  0  0  0  0
  1  2  1  0
  2  3  2  0
  3  4  1  0
  4  5  2  0
  5  6  1  0
  6  7  2  0
  7  8  1  0
  8  9  2  0
  8 10  1  0
 10 11  1  0
 11 12  2  0
 12 13  1  0
 13 14  2  0
 14 15  1  0
 15 16  2  0
 15 17  1  0
 17 18  1  0
 18 19  2  0
 19 20  1  0
 20 21  2  0
 21 22  1  0
 22 23  2  0
 23 24  1  0
  7  2  1  0
 16 11  1  0
 23 18  1  0
 24 14  1  0
  1 25  1  0
  1 26  1  0
  1 27  1  0
  3 28  1  0
  4 29  1  0
  5 30  1  0
  6 31  1  0
 10 32  1  0
 12 33  1  0
 13 34  1  0
 16 35  1  0
 19 36  1  0
 20 37  1  0
 21 38  1  0
 22 39  1  0
 24 40  1  0
M  END
>  <UniqueID>  (46) 
41

>  <SMILES>  (46) 
Cc1ccccc1C(=O)Nc1ccc2c(c1)Sc1ccccc1N2

>  <Energy>  (46) 
67.86727700327152

>  <Genealogy>  (46) 
Cc1ccccc1C(=O)Nc1ccc2c(c1)Sc1ccccc1N2 (3D coordinates assigned)
Cc1ccccc1C(=O)Nc1ccc2c(c1)Sc1ccccc1N2 (nonaromatic ring conformer: 67.86727700327152 kcal/mol)

>  <smiles>  (46) 
Cc1ccccc1C(=O)Nc1ccc2c(c1)Sc1ccccc1N2

>  <score_type>  (46) 
oracle

>  <origin>  (46) 
adg

>  <m_score__min__energy>  (46) 
-9.3200000000000003

>  <m_primary>  (46) 
energy

$$$$
46:0
     RDKit          3D

 47 51  0  0  0  0  0  0  0  0999 V2000
   -2.9200   24.9230  -27.6150 O   0  0  0  0  0  0  0  0  0  0  0  0
   -2.4350   24.7770  -29.0300 S   0  0  0  0  0  0  0  0  0  0  0  0
   -1.2090   25.6190  -29.2470 O   0  0  0  0  0  0  0  0  0  0  0  0
   -3.6820   25.2980  -30.1170 N   0  0  0  0  0  0  0  0  0  0  0  0
   -4.7060   24.4560  -30.6640 C   0  0  0  0  0  0  0  0  0  0  0  0
   -6.0380   24.8610  -30.5590 C   0  0  0  0  0  0  0  0  0  0  0  0
   -7.0350   24.0910  -31.0700 N   0  0  0  0  0  0  0  0  0  0  0  0
   -6.7760   22.9080  -31.6910 C   0  0  0  0  0  0  0  0  0  0  0  0
   -5.4560   22.4430  -31.8170 C   0  0  0  0  0  0  0  0  0  0  0  0
   -5.1400   21.1620  -32.4980 C   0  0  0  0  0  0  0  0  0  0  0  0
   -6.1180   20.4190  -33.1800 C   0  0  0  0  0  0  0  0  0  0  0  0
   -5.7780   19.2440  -33.7670 N   0  0  0  0  0  0  0  0  0  0  0  0
   -4.5080   18.7680  -33.7240 C   0  0  0  0  0  0  0  0  0  0  0  0
   -3.5140   19.5070  -33.0530 C   0  0  0  0  0  0  0  0  0  0  0  0
   -2.2780   19.1040  -32.9500 N   0  0  0  0  0  0  0  0  0  0  0  0
   -1.0980   19.7640  -33.4350 C   0  0  0  0  0  0  0  0  0  0  0  0
    0.1710   19.2870  -33.0270 C   0  0  0  0  0  0  0  0  0  0  0  0
    1.3480   19.9410  -33.4360 C   0  0  0  0  0  0  0  0  0  0  0  0
    1.2150   21.0760  -34.2300 C   0  0  0  0  0  0  0  0  0  0  0  0
    2.1900   21.8550  -34.7200 N   0  0  0  0  0  0  0  0  0  0  0  0
    1.4960   22.8100  -35.3920 C   0  0  0  0  0  0  0  0  0  0  0  0
    0.1460   22.6650  -35.3400 N   0  0  0  0  0  0  0  0  0  0  0  0
   -0.0010   21.5580  -34.6000 C   0  0  0  0  0  0  0  0  0  0  0  0
   -1.1880   20.9410  -34.2150 C   0  0  0  0  0  0  0  0  0  0  0  0
   -3.8710   20.6700  -32.4500 N   0  0  0  0  0  0  0  0  0  0  0  0
   -4.4180   23.2390  -31.3020 C   0  0  0  0  0  0  0  0  0  0  0  0
   -2.0310   23.0830  -29.3290 C   0  0  0  0  0  0  0  0  0  0  0  0
   -0.9030   22.7640  -30.1040 C   0  0  0  0  0  0  0  0  0  0  0  0
   -0.5680   21.4290  -30.3500 C   0  0  0  0  0  0  0  0  0  0  0  0
   -1.3550   20.4020  -29.8270 C   0  0  0  0  0  0  0  0  0  0  0  0
   -2.4790   20.7070  -29.0570 C   0  0  0  0  0  0  0  0  0  0  0  0
   -2.8250   22.0400  -28.8040 C   0  0  0  0  0  0  0  0  0  0  0  0
   -4.2540   22.3590  -27.8290 Cl  0  0  0  0  0  0  0  0  0  0  0  0
   -6.2825   25.8099  -30.0592 H   0  0  0  0  0  0  0  0  0  0  0  0
   -8.0240   24.4180  -30.9890 H   0  0  0  0  0  0  0  0  0  0  0  0
   -7.6061   22.3115  -32.0973 H   0  0  0  0  0  0  0  0  0  0  0  0
   -7.1528   20.7875  -33.2377 H   0  0  0  0  0  0  0  0  0  0  0  0
   -4.2568   17.8132  -34.2090 H   0  0  0  0  0  0  0  0  0  0  0  0
    0.2376   18.3968  -32.3843 H   0  0  0  0  0  0  0  0  0  0  0  0
    2.3390   19.5679  -33.1383 H   0  0  0  0  0  0  0  0  0  0  0  0
    1.9863   23.6325  -35.9334 H   0  0  0  0  0  0  0  0  0  0  0  0
   -2.1642   21.3551  -34.5077 H   0  0  0  0  0  0  0  0  0  0  0  0
   -3.3740   22.9064  -31.3995 H   0  0  0  0  0  0  0  0  0  0  0  0
   -0.2798   23.5695  -30.5197 H   0  0  0  0  0  0  0  0  0  0  0  0
    0.3173   21.1878  -30.9567 H   0  0  0  0  0  0  0  0  0  0  0  0
   -1.0898   19.3523  -30.0214 H   0  0  0  0  0  0  0  0  0  0  0  0
   -3.0968   19.8948  -28.6464 H   0  0  0  0  0  0  0  0  0  0  0  0
  1  2  2  0
  2  3  2  0
  2  4  1  0
  4  5  1  0
  5  6  2  0
  6  7  1  0
  7  8  2  0
  8  9  1  0
  9 10  1  0
 10 11  2  0
 11 12  1  0
 12 13  2  0
 13 14  1  0
 14 15  2  3
 15 16  1  0
 16 17  2  0
 17 18  1  0
 18 19  2  0
 19 20  1  0
 20 21  1  0
 21 22  2  0
 22 23  1  0
 23 24  2  0
 14 25  1  0
  9 26  2  0
  2 27  1  0
 27 28  2  0
 28 29  1  0
 29 30  2  0
 30 31  1  0
 31 32  2  0
 32 33  1  0
 26  5  1  0
 32 27  1  0
 25 10  1  0
 24 16  1  0
 23 19  1  0
  6 34  1  0
  7 35  1  0
  8 36  1  0
 11 37  1  0
 13 38  1  0
 17 39  1  0
 18 40  1  0
 21 41  1  0
 24 42  1  0
 26 43  1  0
 28 44  1  0
 29 45  1  0
 30 46  1  0
 31 47  1  0
M  CHG  4   4  -1   7   1  20  -1  25  -1
M  END
>  <UniqueID>  (47) 
42

>  <SMILES>  (47) 
O=S(=O)([N-]c1c[nH+]cc(-c2cncc(=Nc3ccc4[n-]cnc4c3)[n-]2)c1)c1ccccc1Cl

>  <Energy>  (47) 
109.63890103022207

>  <Genealogy>  (47) 
O=S(=O)([N-]c1c[nH+]cc(-c2cncc(=Nc3ccc4[n-]cnc4c3)[n-]2)c1)c1ccccc1Cl (protonated)
O=S(=O)([N-]c1c[nH+]cc(-c2cncc(=Nc3ccc4[n-]cnc4c3)[n-]2)c1)c1ccccc1Cl (3D coordinates assigned)
O=S(=O)([N-]c1c[nH+]cc(-c2cncc(=Nc3ccc4[n-]cnc4c3)[n-]2)c1)c1ccccc1Cl (optimized conformer: 109.63890103022207 kcal/mol)

>  <smiles>  (47) 
O=S(=O)(Nc1cncc(-c2cncc(=Nc3ccc4[nH]cnc4c3)[nH]2)c1)c1ccccc1Cl

>  <score_type>  (47) 
oracle

>  <origin>  (47) 
adg

>  <m_score__min__energy>  (47) 
-11.029999999999999

>  <m_primary>  (47) 
energy

$$$$
47:0
     RDKit          3D

 54 56  0  0  0  0  0  0  0  0999 V2000
   -2.8080   21.7300  -29.0640 C   0  0  0  0  0  0  0  0  0  0  0  0
   -3.3780   22.9970  -29.6260 C   0  0  0  0  0  0  0  0  0  0  0  0
   -2.7630   24.2510  -29.7040 C   0  0  0  0  0  0  0  0  0  0  0  0
   -1.4110   24.6080  -29.2450 C   0  0  0  0  0  0  0  0  0  0  0  0
   -0.5290   23.7200  -29.0990 O   0  0  0  0  0  0  0  0  0  0  0  0
   -1.1100   25.9760  -28.9590 N   0  0  0  0  0  0  0  0  0  0  0  0
   -0.8530   26.4870  -27.6150 C   0  0  0  0  0  0  0  0  0  0  0  0
   -1.3480   25.4990  -26.5400 C   0  0  0  0  0  0  0  0  0  0  0  0
   -0.2260   24.5500  -26.0970 C   0  0  0  0  0  0  0  0  0  0  0  0
   -1.9020   26.2650  -25.3330 C   0  0  0  0  0  0  0  0  0  0  0  0
   -3.5780   25.1220  -30.2700 O   0  0  0  0  0  0  0  0  0  0  0  0
   -4.6920   24.4980  -30.5640 C   0  0  0  0  0  0  0  0  0  0  0  0
   -5.8240   25.0300  -31.1750 C   0  0  0  0  0  0  0  0  0  0  0  0
   -6.9150   24.1730  -31.4020 C   0  0  0  0  0  0  0  0  0  0  0  0
   -6.8540   22.8120  -31.0180 C   0  0  0  0  0  0  0  0  0  0  0  0
   -8.2300   21.7620  -31.3410 S   0  0  0  0  0  0  0  0  0  0  0  0
   -9.1440   22.4640  -32.3060 O   0  0  0  0  0  0  0  0  0  0  0  0
   -8.9860   21.5030  -30.0690 O   0  0  0  0  0  0  0  0  0  0  0  0
   -7.6690   20.2650  -32.0490 N   0  0  0  0  0  0  0  0  0  0  0  0
   -8.6280   19.1460  -32.0580 C   0  0  0  0  0  0  0  0  0  0  0  0
   -8.0080   17.7450  -32.2170 C   0  0  0  0  0  0  0  0  0  0  0  0
   -6.5480   17.5560  -31.7520 C   0  0  0  0  0  0  0  0  0  0  0  0
   -5.5000   18.3420  -32.5250 C   0  0  0  0  0  0  0  0  0  0  0  0
   -6.1210   19.1240  -33.6900 C   0  0  0  0  0  0  0  0  0  0  0  0
   -6.8330   20.4100  -33.2520 C   0  0  0  0  0  0  0  0  0  0  0  0
   -5.6910   22.3050  -30.3990 C   0  0  0  0  0  0  0  0  0  0  0  0
   -4.6260   23.1810  -30.1890 C   0  0  0  0  0  0  0  0  0  0  0  0
   -2.8281   21.7747  -27.9651 H   0  0  0  0  0  0  0  0  0  0  0  0
   -3.4078   20.8742  -29.4072 H   0  0  0  0  0  0  0  0  0  0  0  0
   -1.7697   21.6112  -29.4072 H   0  0  0  0  0  0  0  0  0  0  0  0
    0.2290   26.6408  -27.4902 H   0  0  0  0  0  0  0  0  0  0  0  0
   -1.3957   27.4360  -27.4930 H   0  0  0  0  0  0  0  0  0  0  0  0
   -2.1520   24.8912  -26.9807 H   0  0  0  0  0  0  0  0  0  0  0  0
   -0.1865   24.5166  -24.9982 H   0  0  0  0  0  0  0  0  0  0  0  0
   -0.4237   23.5409  -26.4876 H   0  0  0  0  0  0  0  0  0  0  0  0
    0.7363   24.9124  -26.4876 H   0  0  0  0  0  0  0  0  0  0  0  0
   -1.5560   25.7866  -24.4049 H   0  0  0  0  0  0  0  0  0  0  0  0
   -1.5460   27.3053  -25.3641 H   0  0  0  0  0  0  0  0  0  0  0  0
   -3.0015   26.2526  -25.3641 H   0  0  0  0  0  0  0  0  0  0  0  0
   -5.8636   26.0886  -31.4711 H   0  0  0  0  0  0  0  0  0  0  0  0
   -7.8242   24.5636  -31.8823 H   0  0  0  0  0  0  0  0  0  0  0  0
   -9.1817   19.1661  -31.1077 H   0  0  0  0  0  0  0  0  0  0  0  0
   -9.2629   19.2984  -32.9433 H   0  0  0  0  0  0  0  0  0  0  0  0
   -8.6303   17.0421  -31.6437 H   0  0  0  0  0  0  0  0  0  0  0  0
   -7.9816   17.5712  -33.3029 H   0  0  0  0  0  0  0  0  0  0  0  0
   -6.4878   17.8605  -30.6967 H   0  0  0  0  0  0  0  0  0  0  0  0
   -6.3141   16.4953  -31.9257 H   0  0  0  0  0  0  0  0  0  0  0  0
   -5.0099   19.0507  -31.8412 H   0  0  0  0  0  0  0  0  0  0  0  0
   -4.7736   17.6280  -32.9403 H   0  0  0  0  0  0  0  0  0  0  0  0
   -5.3207   19.3919  -34.3955 H   0  0  0  0  0  0  0  0  0  0  0  0
   -6.8803   18.4735  -34.1485 H   0  0  0  0  0  0  0  0  0  0  0  0
   -6.0682   21.1741  -33.0490 H   0  0  0  0  0  0  0  0  0  0  0  0
   -7.5108   20.6876  -34.0727 H   0  0  0  0  0  0  0  0  0  0  0  0
   -5.6266   21.2508  -30.0915 H   0  0  0  0  0  0  0  0  0  0  0  0
  1  2  1  0
  2  3  2  0
  3  4  1  0
  4  5  2  0
  4  6  1  0
  6  7  1  0
  7  8  1  0
  8  9  1  0
  8 10  1  0
  3 11  1  0
 11 12  1  0
 12 13  2  0
 13 14  1  0
 14 15  2  0
 15 16  1  0
 16 17  2  0
 16 18  2  0
 16 19  1  0
 19 20  1  0
 20 21  1  0
 21 22  1  0
 22 23  1  0
 23 24  1  0
 24 25  1  0
 15 26  1  0
 26 27  2  0
 27  2  1  0
 27 12  1  0
 25 19  1  0
  1 28  1  0
  1 29  1  0
  1 30  1  0
  7 31  1  0
  7 32  1  0
  8 33  1  0
  9 34  1  0
  9 35  1  0
  9 36  1  0
 10 37  1  0
 10 38  1  0
 10 39  1  0
 13 40  1  0
 14 41  1  0
 20 42  1  0
 20 43  1  0
 21 44  1  0
 21 45  1  0
 22 46  1  0
 22 47  1  0
 23 48  1  0
 23 49  1  0
 24 50  1  0
 24 51  1  0
 25 52  1  0
 25 53  1  0
 26 54  1  0
M  CHG  1   6  -1
M  END
>  <UniqueID>  (48) 
43

>  <SMILES>  (48) 
Cc1c(C(=O)[N-]CC(C)C)oc2ccc(S(=O)(=O)N3CCCCCC3)cc12

>  <Energy>  (48) 
90.12702215641353

>  <Genealogy>  (48) 
Cc1c(C(=O)[N-]CC(C)C)oc2ccc(S(=O)(=O)N3CCCCCC3)cc12 (protonated)
Cc1c(C(=O)[N-]CC(C)C)oc2ccc(S(=O)(=O)N3CCCCCC3)cc12 (3D coordinates assigned)
Cc1c(C(=O)[N-]CC(C)C)oc2ccc(S(=O)(=O)N3CCCCCC3)cc12 (nonaromatic ring conformer: 90.12702215641353 kcal/mol)

>  <smiles>  (48) 
Cc1c(C(=O)NCC(C)C)oc2ccc(S(=O)(=O)N3CCCCCC3)cc12

>  <score_type>  (48) 
oracle

>  <origin>  (48) 
adg

>  <m_score__min__energy>  (48) 
-9.8699999999999992

>  <m_primary>  (48) 
energy

$$$$
