0:0
     RDKit          3D

 29 30  0  0  0  0  0  0  0  0999 V2000
   -5.2740   25.3350  -30.4730 C   0  0  0  0  0  0  0  0  0  0  0  0
   -3.8640   25.2750  -30.4800 O   0  0  0  0  0  0  0  0  0  0  0  0
   -3.4180   24.1540  -29.7430 C   0  0  0  0  0  0  0  0  0  0  0  0
   -3.2390   24.5110  -28.2920 C   0  0  0  0  0  0  0  0  0  0  0  0
   -4.2590   24.5120  -27.3600 C   0  0  0  0  0  0  0  0  0  0  0  0
   -3.7020   24.9250  -26.1670 C   0  0  0  0  0  0  0  0  0  0  0  0
   -2.3630   25.1640  -26.4190 C   0  0  0  0  0  0  0  0  0  0  0  0
   -1.3990   25.6360  -25.4070 C   0  0  0  0  0  0  0  0  0  0  0  0
   -0.8130   24.8310  -24.4950 N   0  0  0  0  0  0  0  0  0  0  0  0
   -0.0290   25.6190  -23.7800 N   0  0  0  0  0  0  0  0  0  0  0  0
   -0.1570   26.8640  -24.2670 C   0  0  0  0  0  0  0  0  0  0  0  0
    0.5770   28.0560  -23.7540 C   0  0  0  0  0  0  0  0  0  0  0  0
   -0.9990   26.8820  -25.2720 O   0  0  0  0  0  0  0  0  0  0  0  0
   -2.0790   24.9120  -27.7190 N   0  0  0  0  0  0  0  0  0  0  0  0
   -0.7760   25.0600  -28.3700 C   0  0  0  0  0  0  0  0  0  0  0  0
   -5.6352   25.3504  -29.4341 H   0  0  0  0  0  0  0  0  0  0  0  0
   -5.6047   26.2480  -30.9897 H   0  0  0  0  0  0  0  0  0  0  0  0
   -5.6811   24.4534  -30.9897 H   0  0  0  0  0  0  0  0  0  0  0  0
   -4.1606   23.3469  -29.8277 H   0  0  0  0  0  0  0  0  0  0  0  0
   -2.4502   23.8248  -30.1492 H   0  0  0  0  0  0  0  0  0  0  0  0
   -5.3097   24.2373  -27.5348 H   0  0  0  0  0  0  0  0  0  0  0  0
   -4.2211   25.0414  -25.2042 H   0  0  0  0  0  0  0  0  0  0  0  0
    0.5750   25.3050  -22.9880 H   0  0  0  0  0  0  0  0  0  0  0  0
    0.5704   28.0453  -22.6541 H   0  0  0  0  0  0  0  0  0  0  0  0
    1.6159   28.0302  -24.1147 H   0  0  0  0  0  0  0  0  0  0  0  0
    0.0863   28.9720  -24.1147 H   0  0  0  0  0  0  0  0  0  0  0  0
    0.0085   25.1491  -27.6041 H   0  0  0  0  0  0  0  0  0  0  0  0
   -0.5774   24.1786  -28.9975 H   0  0  0  0  0  0  0  0  0  0  0  0
   -0.7801   25.9635  -28.9975 H   0  0  0  0  0  0  0  0  0  0  0  0
  1  2  1  0
  2  3  1  0
  3  4  1  0
  4  5  2  0
  5  6  1  0
  6  7  2  0
  7  8  1  0
  8  9  2  0
  9 10  1  0
 10 11  2  0
 11 12  1  0
 11 13  1  0
  7 14  1  0
 14 15  1  0
 14  4  1  0
 13  8  1  0
  1 16  1  0
  1 17  1  0
  1 18  1  0
  3 19  1  0
  3 20  1  0
  5 21  1  0
  6 22  1  0
 10 23  1  0
 12 24  1  0
 12 25  1  0
 12 26  1  0
 15 27  1  0
 15 28  1  0
 15 29  1  0
M  CHG  1  10   1
M  END
>  <UniqueID>  (1) 
1

>  <SMILES>  (1) 
COCc1ccc(-c2n[nH+]c(C)o2)n1C

>  <Energy>  (1) 
89.66710038353652

>  <Genealogy>  (1) 
COCc1ccc(-c2n[nH+]c(C)o2)n1C (protonated)
COCc1ccc(-c2n[nH+]c(C)o2)n1C (3D coordinates assigned)
COCc1ccc(-c2n[nH+]c(C)o2)n1C (optimized conformer: 89.66710038353652 kcal/mol)

>  <smiles>  (1) 
COCc1ccc(-c2nnc(C)o2)n1C

>  <score_type>  (1) 
oracle

>  <origin>  (1) 
adg

>  <m_score__min__energy>  (1) 
-6.5499999999999998

>  <m_primary>  (1) 
energy

$$$$
1:0
     RDKit          3D

 33 35  0  0  0  0  0  0  0  0999 V2000
   -6.1750   17.6290  -31.3260 C   0  0  0  0  0  0  0  0  0  0  0  0
   -6.8620   17.3750  -32.6640 C   0  0  0  0  0  0  0  0  0  0  0  0
   -6.4850   18.4080  -33.7460 C   0  0  0  0  0  0  0  0  0  0  0  0
   -6.1350   19.7320  -33.1620 N   0  0  0  0  0  0  0  0  0  0  0  0
   -4.8080   20.1520  -33.1700 C   0  0  0  0  0  0  0  0  0  0  0  0
   -3.7480   19.3200  -33.6310 C   0  0  0  0  0  0  0  0  0  0  0  0
   -2.4260   19.7660  -33.6450 C   0  0  0  0  0  0  0  0  0  0  0  0
   -2.1130   21.0440  -33.2020 C   0  0  0  0  0  0  0  0  0  0  0  0
   -3.1190   21.8820  -32.7360 C   0  0  0  0  0  0  0  0  0  0  0  0
   -4.4630   21.4520  -32.7090 C   0  0  0  0  0  0  0  0  0  0  0  0
   -5.4610   22.3040  -32.2290 C   0  0  0  0  0  0  0  0  0  0  0  0
   -5.1610   23.4660  -31.8310 O   0  0  0  0  0  0  0  0  0  0  0  0
   -6.7890   21.8690  -32.1800 C   0  0  0  0  0  0  0  0  0  0  0  0
   -7.7910   22.7230  -31.6740 C   0  0  0  0  0  0  0  0  0  0  0  0
   -9.1130   22.3020  -31.5990 C   0  0  0  0  0  0  0  0  0  0  0  0
   -9.4560   21.0250  -32.0190 C   0  0  0  0  0  0  0  0  0  0  0  0
   -8.4840   20.1650  -32.5280 C   0  0  0  0  0  0  0  0  0  0  0  0
   -7.1220   20.5630  -32.6380 C   0  0  0  0  0  0  0  0  0  0  0  0
   -6.8631   17.3746  -30.5064 H   0  0  0  0  0  0  0  0  0  0  0  0
   -5.2718   17.0054  -31.2534 H   0  0  0  0  0  0  0  0  0  0  0  0
   -5.8947   18.6902  -31.2534 H   0  0  0  0  0  0  0  0  0  0  0  0
   -6.5747   16.3747  -33.0203 H   0  0  0  0  0  0  0  0  0  0  0  0
   -7.9459   17.4580  -32.4961 H   0  0  0  0  0  0  0  0  0  0  0  0
   -5.6199   18.0300  -34.3105 H   0  0  0  0  0  0  0  0  0  0  0  0
   -7.3592   18.5474  -34.3989 H   0  0  0  0  0  0  0  0  0  0  0  0
   -3.9765   18.3035  -33.9838 H   0  0  0  0  0  0  0  0  0  0  0  0
   -1.6280   19.1019  -34.0087 H   0  0  0  0  0  0  0  0  0  0  0  0
   -1.0699   21.3929  -33.2198 H   0  0  0  0  0  0  0  0  0  0  0  0
   -2.8647   22.8926  -32.3839 H   0  0  0  0  0  0  0  0  0  0  0  0
   -7.5227   23.7344  -31.3347 H   0  0  0  0  0  0  0  0  0  0  0  0
   -9.8859   22.9797  -31.2075 H   0  0  0  0  0  0  0  0  0  0  0  0
  -10.5012   20.6891  -31.9500 H   0  0  0  0  0  0  0  0  0  0  0  0
   -8.7765   19.1554  -32.8521 H   0  0  0  0  0  0  0  0  0  0  0  0
  1  2  1  0
  2  3  1  0
  3  4  1  0
  4  5  1  0
  5  6  2  0
  6  7  1  0
  7  8  2  0
  8  9  1  0
  9 10  2  0
 10 11  1  0
 11 12  2  0
 11 13  1  0
 13 14  2  0
 14 15  1  0
 15 16  2  0
 16 17  1  0
 17 18  2  0
 18  4  1  0
 10  5  1  0
 18 13  1  0
  1 19  1  0
  1 20  1  0
  1 21  1  0
  2 22  1  0
  2 23  1  0
  3 24  1  0
  3 25  1  0
  6 26  1  0
  7 27  1  0
  8 28  1  0
  9 29  1  0
 14 30  1  0
 15 31  1  0
 16 32  1  0
 17 33  1  0
M  END
>  <UniqueID>  (2) 
2

>  <SMILES>  (2) 
CCCn1c2ccccc2c(=O)c2ccccc21

>  <Energy>  (2) 
54.66953652430386

>  <Genealogy>  (2) 
CCCn1c2ccccc2c(=O)c2ccccc21 (3D coordinates assigned)
CCCn1c2ccccc2c(=O)c2ccccc21 (optimized conformer: 54.66953652430386 kcal/mol)

>  <smiles>  (2) 
CCCn1c2ccccc2c(=O)c2ccccc21

>  <score_type>  (2) 
oracle

>  <origin>  (2) 
adg

>  <m_score__min__energy>  (2) 
-7.4400000000000004

>  <m_primary>  (2) 
energy

$$$$
2:0
     RDKit          3D

 41 42  0  0  0  0  0  0  0  0999 V2000
   -8.5450   19.9970  -32.3360 C   0  0  0  0  0  0  0  0  0  0  0  0
   -8.8170   21.1630  -31.5650 O   0  0  0  0  0  0  0  0  0  0  0  0
   -7.8740   22.1630  -31.2840 C   0  0  0  0  0  0  0  0  0  0  0  0
   -7.2120   22.7720  -32.3560 C   0  0  0  0  0  0  0  0  0  0  0  0
   -6.2660   23.7760  -32.1280 C   0  0  0  0  0  0  0  0  0  0  0  0
   -5.9830   24.2000  -30.8220 C   0  0  0  0  0  0  0  0  0  0  0  0
   -4.9750   25.2540  -30.5910 C   0  0  0  0  0  0  0  0  0  0  0  0
   -5.3540   26.4500  -30.4910 O   0  0  0  0  0  0  0  0  0  0  0  0
   -3.5740   24.9640  -30.4710 N   0  0  0  0  0  0  0  0  0  0  0  0
   -2.9410   24.1940  -29.4010 C   0  0  0  0  0  0  0  0  0  0  0  0
   -1.8130   23.3060  -29.9440 C   0  0  0  0  0  0  0  0  0  0  0  0
   -2.3330   21.9450  -30.4670 C   0  0  0  0  0  0  0  0  0  0  0  0
   -3.5520   22.0320  -31.3110 N   0  0  0  0  0  0  0  0  0  0  0  0
   -3.2830   21.8460  -32.7510 C   0  0  0  0  0  0  0  0  0  0  0  0
   -3.8990   20.5190  -33.1860 C   0  0  0  0  0  0  0  0  0  0  0  0
   -4.5560   19.9320  -31.9520 C   0  0  0  0  0  0  0  0  0  0  0  0
   -4.5960   21.0620  -30.9390 C   0  0  0  0  0  0  0  0  0  0  0  0
   -6.6270   23.5740  -29.7430 C   0  0  0  0  0  0  0  0  0  0  0  0
   -7.5720   22.5690  -29.9700 C   0  0  0  0  0  0  0  0  0  0  0  0
   -8.3474   19.1500  -31.6626 H   0  0  0  0  0  0  0  0  0  0  0  0
   -9.4134   19.7661  -32.9705 H   0  0  0  0  0  0  0  0  0  0  0  0
   -7.6641   20.1742  -32.9705 H   0  0  0  0  0  0  0  0  0  0  0  0
   -7.4376   22.4584  -33.3859 H   0  0  0  0  0  0  0  0  0  0  0  0
   -5.7408   24.2358  -32.9781 H   0  0  0  0  0  0  0  0  0  0  0  0
   -2.5233   24.8895  -28.6582 H   0  0  0  0  0  0  0  0  0  0  0  0
   -3.7026   23.5459  -28.9428 H   0  0  0  0  0  0  0  0  0  0  0  0
   -1.3139   23.8344  -30.7697 H   0  0  0  0  0  0  0  0  0  0  0  0
   -1.1176   23.1035  -29.1161 H   0  0  0  0  0  0  0  0  0  0  0  0
   -1.5350   21.4792  -31.0638 H   0  0  0  0  0  0  0  0  0  0  0  0
   -2.6090   21.3551  -29.5805 H   0  0  0  0  0  0  0  0  0  0  0  0
   -3.9420   22.9970  -31.1730 H   0  0  0  0  0  0  0  0  0  0  0  0
   -3.7335   22.6705  -33.3231 H   0  0  0  0  0  0  0  0  0  0  0  0
   -2.1987   21.8394  -32.9363 H   0  0  0  0  0  0  0  0  0  0  0  0
   -4.6484   20.6866  -33.9736 H   0  0  0  0  0  0  0  0  0  0  0  0
   -3.1375   19.8393  -33.5960 H   0  0  0  0  0  0  0  0  0  0  0  0
   -5.5745   19.5882  -32.1852 H   0  0  0  0  0  0  0  0  0  0  0  0
   -4.0037   19.0605  -31.5704 H   0  0  0  0  0  0  0  0  0  0  0  0
   -5.5828   21.5476  -30.9578 H   0  0  0  0  0  0  0  0  0  0  0  0
   -4.4206   20.6766  -29.9238 H   0  0  0  0  0  0  0  0  0  0  0  0
   -6.3867   23.8760  -28.7129 H   0  0  0  0  0  0  0  0  0  0  0  0
   -8.0815   22.0936  -29.1189 H   0  0  0  0  0  0  0  0  0  0  0  0
  1  2  1  0
  2  3  1  0
  3  4  2  0
  4  5  1  0
  5  6  2  0
  6  7  1  0
  7  8  2  0
  7  9  1  0
  9 10  1  0
 10 11  1  0
 11 12  1  0
 12 13  1  0
 13 14  1  0
 14 15  1  0
 15 16  1  0
 16 17  1  0
  6 18  1  0
 18 19  2  0
 19  3  1  0
 17 13  1  0
  1 20  1  0
  1 21  1  0
  1 22  1  0
  4 23  1  0
  5 24  1  0
 10 25  1  0
 10 26  1  0
 11 27  1  0
 11 28  1  0
 12 29  1  0
 12 30  1  0
 13 31  1  0
 14 32  1  0
 14 33  1  0
 15 34  1  0
 15 35  1  0
 16 36  1  0
 16 37  1  0
 17 38  1  0
 17 39  1  0
 18 40  1  0
 19 41  1  0
M  CHG  2   9  -1  13   1
M  END
>  <UniqueID>  (3) 
3

>  <SMILES>  (3) 
COc1ccc(C(=O)[N-]CCC[NH+]2CCCC2)cc1

>  <Energy>  (3) 
46.760947590918285

>  <Genealogy>  (3) 
COc1ccc(C(=O)[N-]CCC[NH+]2CCCC2)cc1 (protonated)
COc1ccc(C(=O)[N-]CCC[NH+]2CCCC2)cc1 (3D coordinates assigned)
COc1ccc(C(=O)[N-]CCC[NH+]2CCCC2)cc1 (nonaromatic ring conformer: 46.760947590918285 kcal/mol)

>  <smiles>  (3) 
COc1ccc(C(=O)NCCCN2CCCC2)cc1

>  <score_type>  (3) 
oracle

>  <origin>  (3) 
adg

>  <m_score__min__energy>  (3) 
-7.0099999999999998

>  <m_primary>  (3) 
energy

$$$$
3:0
     RDKit          3D

 39 42  0  0  0  0  0  0  0  0999 V2000
   -9.6688   18.3246  -33.2088 H   0  0  0  0  0  0  0  0  0  0  0  0
   -8.8500   18.9260  -32.7870 C   0  0  0  0  0  0  0  0  0  0  0  0
   -7.5620   18.6270  -33.0940 N   0  0  0  0  0  0  0  0  0  0  0  0
   -6.5230   19.3390  -32.5870 C   0  0  0  0  0  0  0  0  0  0  0  0
   -5.4919   19.0696  -32.8596 H   0  0  0  0  0  0  0  0  0  0  0  0
   -6.7550   20.4170  -31.7170 C   0  0  0  0  0  0  0  0  0  0  0  0
   -5.5970   21.1520  -31.1610 C   0  0  0  0  0  0  0  0  0  0  0  0
   -4.4110   20.4720  -30.8380 C   0  0  0  0  0  0  0  0  0  0  0  0
   -4.3456   19.3847  -30.9912 H   0  0  0  0  0  0  0  0  0  0  0  0
   -3.3130   21.1680  -30.3230 C   0  0  0  0  0  0  0  0  0  0  0  0
   -2.3905   20.6256  -30.0683 H   0  0  0  0  0  0  0  0  0  0  0  0
   -3.3840   22.5560  -30.1300 C   0  0  0  0  0  0  0  0  0  0  0  0
   -2.2900   23.2650  -29.6150 C   0  0  0  0  0  0  0  0  0  0  0  0
   -1.3602   22.7370  -29.3566 H   0  0  0  0  0  0  0  0  0  0  0  0
   -2.3890   24.6610  -29.4300 C   0  0  0  0  0  0  0  0  0  0  0  0
   -1.4130   25.3890  -28.9640 N   0  0  0  0  0  0  0  0  0  0  0  0
   -0.4850   25.0920  -27.9040 C   0  0  0  0  0  0  0  0  0  0  0  0
    0.7020   24.7570  -28.1620 O   0  0  0  0  0  0  0  0  0  0  0  0
   -0.9320   25.0820  -26.4670 C   0  0  0  0  0  0  0  0  0  0  0  0
   -0.2208   24.3045  -26.1512 H   0  0  0  0  0  0  0  0  0  0  0  0
   -2.4100   25.3380  -26.2010 C   0  0  0  0  0  0  0  0  0  0  0  0
   -3.1122   25.4323  -27.0424 H   0  0  0  0  0  0  0  0  0  0  0  0
   -3.1908   24.8424  -25.6054 H   0  0  0  0  0  0  0  0  0  0  0  0
   -1.3870   26.4330  -25.9370 C   0  0  0  0  0  0  0  0  0  0  0  0
   -1.3503   27.3194  -26.5874 H   0  0  0  0  0  0  0  0  0  0  0  0
   -1.1226   27.0572  -25.0707 H   0  0  0  0  0  0  0  0  0  0  0  0
   -3.5420   25.2930  -29.7840 N   0  0  0  0  0  0  0  0  0  0  0  0
   -4.6180   24.6310  -30.2860 C   0  0  0  0  0  0  0  0  0  0  0  0
   -5.5301   25.1865  -30.5497 H   0  0  0  0  0  0  0  0  0  0  0  0
   -4.5680   23.2450  -30.4680 C   0  0  0  0  0  0  0  0  0  0  0  0
   -5.6670   22.5430  -30.9840 C   0  0  0  0  0  0  0  0  0  0  0  0
   -6.5868   23.0840  -31.2509 H   0  0  0  0  0  0  0  0  0  0  0  0
   -8.0930   20.7650  -31.4070 C   0  0  0  0  0  0  0  0  0  0  0  0
   -8.4260   21.9290  -30.5110 C   0  0  0  0  0  0  0  0  0  0  0  0
   -8.3374   21.6192  -29.4592 H   0  0  0  0  0  0  0  0  0  0  0  0
   -7.7284   22.7560  -30.7097 H   0  0  0  0  0  0  0  0  0  0  0  0
   -9.4554   22.2619  -30.7097 H   0  0  0  0  0  0  0  0  0  0  0  0
   -9.1370   19.9940  -31.9380 C   0  0  0  0  0  0  0  0  0  0  0  0
  -10.1809   20.2315  -31.6851 H   0  0  0  0  0  0  0  0  0  0  0  0
  1  2  1  0
  2  3  2  0
  3  4  1  0
  4  5  1  0
  4  6  2  0
  6  7  1  0
  7  8  1  0
  8  9  1  0
  8 10  2  0
 10 11  1  0
 10 12  1  0
 12 13  2  0
 13 14  1  0
 13 15  1  0
 15 16  2  0
 16 17  1  0
 17 18  2  0
 17 19  1  0
 19 20  1  0
 19 21  1  0
 21 22  1  0
 21 23  1  0
 21 24  1  0
 24 25  1  0
 24 26  1  0
 15 27  1  0
 27 28  1  0
 28 29  1  0
 28 30  2  0
 30 31  1  0
 31 32  1  0
  6 33  1  0
 33 34  1  0
 34 35  1  0
 34 36  1  0
 34 37  1  0
 33 38  2  0
 38 39  1  0
 38  2  1  0
 31  7  2  0
 30 12  1  0
 24 19  1  0
M  CHG  1  27  -1
M  END
>  <UniqueID>  (4) 
4

>  <SMILES>  (4) 
Cc1ccncc1-c1ccc2c/c(=N\C(=O)C3CC3)[n-]cc2c1

>  <Energy>  (4) 
326.3274842600376

>  <Genealogy>  (4) 
Cc1ccncc1-c1ccc2cc(=NC(=O)C3CC3)[n-]cc2c1 (protonated)
Cc1ccncc1-c1ccc2c/c(=N\C(=O)C3CC3)[n-]cc2c1 (cis-trans isomerization)
Cc1ccncc1-c1ccc2c/c(=N\C(=O)C3CC3)[n-]cc2c1 (3D coordinates assigned)
Cc1ccncc1-c1ccc2c/c(=N\C(=O)C3CC3)[n-]cc2c1 (nonaromatic ring conformer: 326.3274842600376 kcal/mol)

>  <smiles>  (4) 
Cc1ccncc1-c1ccc2cc(=NC(=O)C3CC3)[nH]cc2c1

>  <score_type>  (4) 
oracle

>  <origin>  (4) 
adg

>  <m_score__min__energy>  (4) 
-9.7899999999999991

>  <m_primary>  (4) 
energy

$$$$
4:0
     RDKit          3D

 48 51  0  0  0  0  0  0  0  0999 V2000
   -5.1490   25.0360  -30.8610 C   0  0  0  0  0  0  0  0  0  0  0  0
   -3.8790   24.4040  -30.8230 O   0  0  0  0  0  0  0  0  0  0  0  0
   -3.5520   23.3150  -29.9950 C   0  0  0  0  0  0  0  0  0  0  0  0
   -3.9190   23.2830  -28.6340 C   0  0  0  0  0  0  0  0  0  0  0  0
   -3.5480   22.2030  -27.8290 C   0  0  0  0  0  0  0  0  0  0  0  0
   -2.8140   21.1460  -28.3660 C   0  0  0  0  0  0  0  0  0  0  0  0
   -2.4420   21.1650  -29.7130 C   0  0  0  0  0  0  0  0  0  0  0  0
   -2.8050   22.2420  -30.5390 C   0  0  0  0  0  0  0  0  0  0  0  0
   -2.2860   22.2890  -31.9650 C   0  0  0  0  0  0  0  0  0  0  0  0
   -2.8870   21.1710  -32.8370 C   0  0  0  0  0  0  0  0  0  0  0  0
   -4.3450   20.9710  -32.5490 C   0  0  0  0  0  0  0  0  0  0  0  0
   -5.1810   22.0530  -32.4200 N   0  0  0  0  0  0  0  0  0  0  0  0
   -6.5320   21.8960  -32.2950 C   0  0  0  0  0  0  0  0  0  0  0  0
   -7.2860   22.8980  -32.1940 O   0  0  0  0  0  0  0  0  0  0  0  0
   -7.0410   20.6020  -32.3170 C   0  0  0  0  0  0  0  0  0  0  0  0
   -8.3080   20.0550  -32.3740 C   0  0  0  0  0  0  0  0  0  0  0  0
   -9.8710   20.9330  -32.3240 S   0  0  0  0  0  0  0  0  0  0  0  0
   -9.5560   21.6290  -30.6750 C   0  0  0  0  0  0  0  0  0  0  0  0
   -8.1860   18.7170  -32.5490 N   0  0  0  0  0  0  0  0  0  0  0  0
   -6.8930   18.4030  -32.5930 N   0  0  0  0  0  0  0  0  0  0  0  0
   -6.3670   17.0910  -32.8570 C   0  0  0  0  0  0  0  0  0  0  0  0
   -6.8410   16.3390  -33.9490 C   0  0  0  0  0  0  0  0  0  0  0  0
   -6.3230   15.0660  -34.2100 C   0  0  0  0  0  0  0  0  0  0  0  0
   -5.3310   14.5310  -33.3840 C   0  0  0  0  0  0  0  0  0  0  0  0
   -4.8510   15.2700  -32.2990 C   0  0  0  0  0  0  0  0  0  0  0  0
   -5.3650   16.5440  -32.0360 C   0  0  0  0  0  0  0  0  0  0  0  0
   -6.1960   19.5440  -32.4400 C   0  0  0  0  0  0  0  0  0  0  0  0
   -4.8590   19.7050  -32.5660 N   0  0  0  0  0  0  0  0  0  0  0  0
   -5.5020   25.2117  -29.8341 H   0  0  0  0  0  0  0  0  0  0  0  0
   -5.0646   25.9972  -31.3892 H   0  0  0  0  0  0  0  0  0  0  0  0
   -5.8649   24.3890  -31.3892 H   0  0  0  0  0  0  0  0  0  0  0  0
   -4.5001   24.1121  -28.2040 H   0  0  0  0  0  0  0  0  0  0  0  0
   -3.8360   22.1865  -26.7675 H   0  0  0  0  0  0  0  0  0  0  0  0
   -2.5275   20.2964  -27.7288 H   0  0  0  0  0  0  0  0  0  0  0  0
   -1.8602   20.3298  -30.1300 H   0  0  0  0  0  0  0  0  0  0  0  0
   -2.5477   23.2622  -32.4059 H   0  0  0  0  0  0  0  0  0  0  0  0
   -1.1959   22.1454  -31.9338 H   0  0  0  0  0  0  0  0  0  0  0  0
   -2.7659   21.4404  -33.8966 H   0  0  0  0  0  0  0  0  0  0  0  0
   -2.3589   20.2337  -32.6076 H   0  0  0  0  0  0  0  0  0  0  0  0
   -9.8804   20.9121  -29.9063 H   0  0  0  0  0  0  0  0  0  0  0  0
   -8.4802   21.8277  -30.5603 H   0  0  0  0  0  0  0  0  0  0  0  0
  -10.1167   22.5684  -30.5603 H   0  0  0  0  0  0  0  0  0  0  0  0
   -8.9740   18.0380  -32.6510 H   0  0  0  0  0  0  0  0  0  0  0  0
   -7.6233   16.7550  -34.6008 H   0  0  0  0  0  0  0  0  0  0  0  0
   -6.6970   14.4856  -35.0663 H   0  0  0  0  0  0  0  0  0  0  0  0
   -4.9277   13.5281  -33.5877 H   0  0  0  0  0  0  0  0  0  0  0  0
   -4.0680   14.8491  -31.6511 H   0  0  0  0  0  0  0  0  0  0  0  0
   -4.9829   17.1217  -31.1814 H   0  0  0  0  0  0  0  0  0  0  0  0
  1  2  1  0
  2  3  1  0
  3  4  2  0
  4  5  1  0
  5  6  2  0
  6  7  1  0
  7  8  2  0
  8  9  1  0
  9 10  1  0
 10 11  1  0
 11 12  2  0
 12 13  1  0
 13 14  2  0
 13 15  1  0
 15 16  1  0
 16 17  1  0
 17 18  1  0
 16 19  2  0
 19 20  1  0
 20 21  1  0
 21 22  2  0
 22 23  1  0
 23 24  2  0
 24 25  1  0
 25 26  2  0
 20 27  1  0
 27 28  1  0
  8  3  1  0
 28 11  1  0
 27 15  2  0
 26 21  1  0
  1 29  1  0
  1 30  1  0
  1 31  1  0
  4 32  1  0
  5 33  1  0
  6 34  1  0
  7 35  1  0
  9 36  1  0
  9 37  1  0
 10 38  1  0
 10 39  1  0
 18 40  1  0
 18 41  1  0
 18 42  1  0
 19 43  1  0
 22 44  1  0
 23 45  1  0
 24 46  1  0
 25 47  1  0
 26 48  1  0
M  CHG  2  19   1  28  -1
M  END
>  <UniqueID>  (5) 
5

>  <SMILES>  (5) 
COc1ccccc1CCc1nc(=O)c2c(SC)[nH+]n(-c3ccccc3)c2[n-]1

>  <Energy>  (5) 
87.25664283093276

>  <Genealogy>  (5) 
COc1ccccc1CCc1nc(=O)c2c(SC)[nH+]n(-c3ccccc3)c2[n-]1 (protonated)
COc1ccccc1CCc1nc(=O)c2c(SC)[nH+]n(-c3ccccc3)c2[n-]1 (3D coordinates assigned)
COc1ccccc1CCc1nc(=O)c2c(SC)[nH+]n(-c3ccccc3)c2[n-]1 (optimized conformer: 87.25664283093276 kcal/mol)

>  <smiles>  (5) 
COc1ccccc1CCc1nc(=O)c2c(SC)nn(-c3ccccc3)c2[nH]1

>  <score_type>  (5) 
oracle

>  <origin>  (5) 
adg

>  <m_score__min__energy>  (5) 
-9.0899999999999999

>  <m_primary>  (5) 
energy

$$$$
5:0
     RDKit          3D

 44 48  0  0  0  0  0  0  0  0999 V2000
   -2.6326   23.2303  -27.1726 H   0  0  0  0  0  0  0  0  0  0  0  0
   -2.4770   22.9120  -28.2140 C   0  0  0  0  0  0  0  0  0  0  0  0
   -3.2110   23.6400  -29.2660 C   0  0  0  0  0  0  0  0  0  0  0  0
   -4.3680   23.2390  -29.8210 N   0  0  0  0  0  0  0  0  0  0  0  0
   -4.7120   24.2760  -30.6160 C   0  0  0  0  0  0  0  0  0  0  0  0
   -5.7540   24.2730  -31.3220 O   0  0  0  0  0  0  0  0  0  0  0  0
   -3.8570   25.3200  -30.5870 N   0  0  0  0  0  0  0  0  0  0  0  0
   -2.9200   24.9050  -29.7190 C   0  0  0  0  0  0  0  0  0  0  0  0
   -1.8230   25.6710  -29.3420 O   0  0  0  0  0  0  0  0  0  0  0  0
   -1.6330   21.8900  -28.4310 C   0  0  0  0  0  0  0  0  0  0  0  0
   -0.6240   21.4770  -27.5740 C   0  0  0  0  0  0  0  0  0  0  0  0
   -0.3991   21.9300  -26.5972 H   0  0  0  0  0  0  0  0  0  0  0  0
    0.0420   20.4340  -28.1190 N   0  0  0  0  0  0  0  0  0  0  0  0
   -0.5010   20.1730  -29.2950 N   0  0  0  0  0  0  0  0  0  0  0  0
   -0.1480   19.2490  -30.2470 C   0  0  0  0  0  0  0  0  0  0  0  0
    0.7820   18.3310  -30.1220 N   0  0  0  0  0  0  0  0  0  0  0  0
    1.3540   17.3730  -29.1550 C   0  0  0  0  0  0  0  0  0  0  0  0
    1.7308   16.7118  -29.9492 H   0  0  0  0  0  0  0  0  0  0  0  0
    1.9330   17.9340  -27.8760 C   0  0  0  0  0  0  0  0  0  0  0  0
    2.8412   17.4915  -27.4409 H   0  0  0  0  0  0  0  0  0  0  0  0
    2.2571   18.9284  -27.5353 H   0  0  0  0  0  0  0  0  0  0  0  0
    0.6090   17.1510  -27.8590 C   0  0  0  0  0  0  0  0  0  0  0  0
    0.5677   16.1470  -27.4116 H   0  0  0  0  0  0  0  0  0  0  0  0
   -0.4118   17.3502  -27.5008 H   0  0  0  0  0  0  0  0  0  0  0  0
   -0.8270   19.2820  -31.4280 N   0  0  0  0  0  0  0  0  0  0  0  0
   -1.8120   20.1950  -31.6660 C   0  0  0  0  0  0  0  0  0  0  0  0
   -2.4250   20.1830  -32.8140 N   0  0  0  0  0  0  0  0  0  0  0  0
   -3.8480   20.1240  -33.0120 C   0  0  0  0  0  0  0  0  0  0  0  0
   -4.6390   21.1870  -32.5610 C   0  0  0  0  0  0  0  0  0  0  0  0
   -4.1653   22.0532  -32.0759 H   0  0  0  0  0  0  0  0  0  0  0  0
   -6.0270   21.1550  -32.7230 C   0  0  0  0  0  0  0  0  0  0  0  0
   -6.6362   22.0044  -32.3804 H   0  0  0  0  0  0  0  0  0  0  0  0
   -6.6480   20.0500  -33.3180 C   0  0  0  0  0  0  0  0  0  0  0  0
   -8.0410   20.0720  -33.4750 O   0  0  0  0  0  0  0  0  0  0  0  0
   -8.9720   19.9930  -32.4000 C   0  0  0  0  0  0  0  0  0  0  0  0
   -8.4317   20.0388  -31.4429 H   0  0  0  0  0  0  0  0  0  0  0  0
   -9.6776   20.8345  -32.4634 H   0  0  0  0  0  0  0  0  0  0  0  0
   -9.5257   19.0446  -32.4634 H   0  0  0  0  0  0  0  0  0  0  0  0
   -5.8590   18.9620  -33.7350 C   0  0  0  0  0  0  0  0  0  0  0  0
   -6.3369   18.0809  -34.1880 H   0  0  0  0  0  0  0  0  0  0  0  0
   -4.4700   18.9960  -33.5760 C   0  0  0  0  0  0  0  0  0  0  0  0
   -3.8613   18.1365  -33.8935 H   0  0  0  0  0  0  0  0  0  0  0  0
   -2.1560   21.0840  -30.6950 N   0  0  0  0  0  0  0  0  0  0  0  0
   -1.5020   21.0400  -29.5140 C   0  0  0  0  0  0  0  0  0  0  0  0
  1  2  1  0
  2  3  1  0
  3  4  1  0
  4  5  1  0
  5  6  2  0
  5  7  1  0
  7  8  1  0
  8  9  1  0
  2 10  2  3
 10 11  1  0
 11 12  1  0
 11 13  2  0
 13 14  1  0
 14 15  1  0
 15 16  2  3
 16 17  1  0
 17 18  1  0
 17 19  1  0
 19 20  1  0
 19 21  1  0
 19 22  1  0
 22 23  1  0
 22 24  1  0
 15 25  1  0
 25 26  1  0
 26 27  2  0
 27 28  1  0
 28 29  2  0
 29 30  1  0
 29 31  1  0
 31 32  1  0
 31 33  2  0
 33 34  1  0
 34 35  1  0
 35 36  1  0
 35 37  1  0
 35 38  1  0
 33 39  1  0
 39 40  1  0
 39 41  2  0
 41 42  1  0
 26 43  1  0
 43 44  2  0
  8  3  2  0
 44 10  1  0
 44 14  1  0
 22 17  1  0
 41 28  1  0
M  CHG  4   4  -1   7  -1   9  -1  25  -1
M  END
>  <UniqueID>  (6) 
6

>  <SMILES>  (6) 
COc1ccc(/N=c2\nc3c(=Cc4[n-]c(=O)[n-]c4[O-])cnn3c(=NC3CC3)[n-]2)cc1

>  <Energy>  (6) 
416.2612697043406

>  <Genealogy>  (6) 
COc1ccc(N=c2nc3c(=Cc4[n-]c(=O)[n-]c4[O-])cnn3c(=NC3CC3)[n-]2)cc1 (protonated)
COc1ccc(/N=c2\nc3c(=Cc4[n-]c(=O)[n-]c4[O-])cnn3c(=NC3CC3)[n-]2)cc1 (cis-trans isomerization)
COc1ccc(/N=c2\nc3c(=Cc4[n-]c(=O)[n-]c4[O-])cnn3c(=NC3CC3)[n-]2)cc1 (3D coordinates assigned)
COc1ccc(/N=c2\nc3c(=Cc4[n-]c(=O)[n-]c4[O-])cnn3c(=NC3CC3)[n-]2)cc1 (nonaromatic ring conformer: 416.2612697043406 kcal/mol)

>  <smiles>  (6) 
COc1ccc(N=c2nc3c(=Cc4[nH]c(=O)[nH]c4O)cnn3c(=NC3CC3)[nH]2)cc1

>  <score_type>  (6) 
oracle

>  <origin>  (6) 
adg

>  <m_score__min__energy>  (6) 
-13.210000000000001

>  <m_primary>  (6) 
energy

$$$$
6:0
     RDKit          3D

 42 43  0  0  0  0  0  0  0  0999 V2000
   -3.0550   19.6920  -27.0930 C   0  0  0  0  0  0  0  0  0  0  0  0
   -2.7610   20.0730  -28.4330 O   0  0  0  0  0  0  0  0  0  0  0  0
   -3.0830   21.3180  -28.9920 C   0  0  0  0  0  0  0  0  0  0  0  0
   -2.9480   22.5230  -28.2810 C   0  0  0  0  0  0  0  0  0  0  0  0
   -3.3000   23.7340  -28.8760 C   0  0  0  0  0  0  0  0  0  0  0  0
   -3.7860   23.7710  -30.1990 C   0  0  0  0  0  0  0  0  0  0  0  0
   -4.1920   24.9710  -30.8010 O   0  0  0  0  0  0  0  0  0  0  0  0
   -5.3860   25.6710  -30.4640 C   0  0  0  0  0  0  0  0  0  0  0  0
   -3.8820   22.5700  -30.9250 C   0  0  0  0  0  0  0  0  0  0  0  0
   -4.4730   22.5390  -32.6280 S   0  0  0  0  0  0  0  0  0  0  0  0
   -6.1970   22.1940  -32.2060 C   0  0  0  0  0  0  0  0  0  0  0  0
   -7.0800   23.2700  -32.0160 C   0  0  0  0  0  0  0  0  0  0  0  0
   -8.4100   23.0430  -31.6590 C   0  0  0  0  0  0  0  0  0  0  0  0
   -8.8830   21.7390  -31.5190 C   0  0  0  0  0  0  0  0  0  0  0  0
   -8.0350   20.6590  -31.7650 C   0  0  0  0  0  0  0  0  0  0  0  0
   -6.6930   20.8690  -32.1320 C   0  0  0  0  0  0  0  0  0  0  0  0
   -5.8540   19.6750  -32.5320 C   0  0  0  0  0  0  0  0  0  0  0  0
   -6.5760   18.7810  -33.4590 N   0  0  0  0  0  0  0  0  0  0  0  0
   -6.9460   17.5420  -32.7540 C   0  0  0  0  0  0  0  0  0  0  0  0
   -5.7430   18.4510  -34.6290 C   0  0  0  0  0  0  0  0  0  0  0  0
   -3.5580   21.3550  -30.3060 C   0  0  0  0  0  0  0  0  0  0  0  0
   -2.5344   20.3666  -26.3974 H   0  0  0  0  0  0  0  0  0  0  0  0
   -4.1399   19.7562  -26.9232 H   0  0  0  0  0  0  0  0  0  0  0  0
   -2.7178   18.6588  -26.9232 H   0  0  0  0  0  0  0  0  0  0  0  0
   -2.5630   22.5106  -27.2507 H   0  0  0  0  0  0  0  0  0  0  0  0
   -3.1975   24.6700  -28.3074 H   0  0  0  0  0  0  0  0  0  0  0  0
   -5.4817   25.7271  -29.3696 H   0  0  0  0  0  0  0  0  0  0  0  0
   -5.3449   26.6880  -30.8811 H   0  0  0  0  0  0  0  0  0  0  0  0
   -6.2534   25.1384  -30.8811 H   0  0  0  0  0  0  0  0  0  0  0  0
   -6.7199   24.3007  -32.1498 H   0  0  0  0  0  0  0  0  0  0  0  0
   -9.0858   23.8939  -31.4879 H   0  0  0  0  0  0  0  0  0  0  0  0
   -9.9250   21.5617  -31.2145 H   0  0  0  0  0  0  0  0  0  0  0  0
   -8.4194   19.6327  -31.6711 H   0  0  0  0  0  0  0  0  0  0  0  0
   -4.9378   20.0330  -33.0243 H   0  0  0  0  0  0  0  0  0  0  0  0
   -5.6178   19.1039  -31.6220 H   0  0  0  0  0  0  0  0  0  0  0  0
   -6.8961   17.7092  -31.6679 H   0  0  0  0  0  0  0  0  0  0  0  0
   -7.9697   17.2527  -33.0338 H   0  0  0  0  0  0  0  0  0  0  0  0
   -6.2486   16.7387  -33.0338 H   0  0  0  0  0  0  0  0  0  0  0  0
   -4.7702   18.0656  -34.2896 H   0  0  0  0  0  0  0  0  0  0  0  0
   -6.2493   17.6855  -35.2354 H   0  0  0  0  0  0  0  0  0  0  0  0
   -5.5877   19.3555  -35.2354 H   0  0  0  0  0  0  0  0  0  0  0  0
   -3.6796   20.4147  -30.8637 H   0  0  0  0  0  0  0  0  0  0  0  0
  1  2  1  0
  2  3  1  0
  3  4  2  0
  4  5  1  0
  5  6  2  0
  6  7  1  0
  7  8  1  0
  6  9  1  0
  9 10  1  0
 10 11  1  0
 11 12  2  0
 12 13  1  0
 13 14  2  0
 14 15  1  0
 15 16  2  0
 16 17  1  0
 17 18  1  0
 18 19  1  0
 18 20  1  0
  9 21  2  0
 21  3  1  0
 16 11  1  0
  1 22  1  0
  1 23  1  0
  1 24  1  0
  4 25  1  0
  5 26  1  0
  8 27  1  0
  8 28  1  0
  8 29  1  0
 12 30  1  0
 13 31  1  0
 14 32  1  0
 15 33  1  0
 17 34  1  0
 17 35  1  0
 19 36  1  0
 19 37  1  0
 19 38  1  0
 20 39  1  0
 20 40  1  0
 20 41  1  0
 21 42  1  0
M  END
>  <UniqueID>  (7) 
7

>  <SMILES>  (7) 
COc1ccc(OC)c(Sc2ccccc2CN(C)C)c1

>  <Energy>  (7) 
39.63557083617946

>  <Genealogy>  (7) 
COc1ccc(OC)c(Sc2ccccc2CN(C)C)c1 (3D coordinates assigned)
COc1ccc(OC)c(Sc2ccccc2CN(C)C)c1 (optimized conformer: 39.63557083617946 kcal/mol)

>  <smiles>  (7) 
COc1ccc(OC)c(Sc2ccccc2CN(C)C)c1

>  <score_type>  (7) 
oracle

>  <origin>  (7) 
adg

>  <m_score__min__energy>  (7) 
-7.2999999999999998

>  <m_primary>  (7) 
energy

$$$$
7:0
     RDKit          3D

 54 56  0  0  0  0  0  0  0  0999 V2000
   -2.8210   18.5630  -26.0400 C   0  0  0  0  0  0  0  0  0  0  0  0
   -1.9480   19.3820  -26.9880 C   0  0  0  0  0  0  0  0  0  0  0  0
   -2.4010   20.8460  -27.0750 C   0  0  0  0  0  0  0  0  0  0  0  0
   -1.4080   21.6690  -27.7780 N   0  0  0  0  0  0  0  0  0  0  0  0
   -1.3980   21.7500  -29.2410 C   0  0  0  0  0  0  0  0  0  0  0  0
   -1.3260   23.2280  -29.7100 C   0  0  1  0  0  0  0  0  0  0  0  0
   -2.6950   23.8910  -29.7470 C   0  0  0  0  0  0  0  0  0  0  0  0
   -2.8270   25.0740  -29.3250 O   0  0  0  0  0  0  0  0  0  0  0  0
   -3.8420   23.2160  -30.3140 N   0  0  0  0  0  0  0  0  0  0  0  0
   -4.9720   24.0100  -30.8220 C   0  0  0  0  0  0  0  0  0  0  0  0
   -5.5120   23.3920  -32.1120 C   0  0  0  0  0  0  0  0  0  0  0  0
   -5.7140   21.9540  -31.9230 N   0  0  0  0  0  0  0  0  0  0  0  0
   -7.0190   21.3700  -32.0660 C   0  0  0  0  0  0  0  0  0  0  0  0
   -8.1180   21.9420  -31.4100 C   0  0  0  0  0  0  0  0  0  0  0  0
   -9.3850   21.3740  -31.5420 C   0  0  0  0  0  0  0  0  0  0  0  0
   -9.5440   20.2370  -32.3350 C   0  0  0  0  0  0  0  0  0  0  0  0
   -8.4740   19.6970  -32.9760 N   0  0  0  0  0  0  0  0  0  0  0  0
   -7.2260   20.2280  -32.8660 C   0  0  0  0  0  0  0  0  0  0  0  0
   -5.8820   19.4710  -33.7840 S   0  0  0  0  0  0  0  0  0  0  0  0
   -6.4730   17.7770  -33.4840 C   0  0  0  0  0  0  0  0  0  0  0  0
   -4.5860   21.1590  -31.4360 C   0  0  0  0  0  0  0  0  0  0  0  0
   -4.0540   21.7700  -30.1400 C   0  0  0  0  0  0  0  0  0  0  0  0
   -0.3340   24.0920  -28.8610 C   0  0  0  0  0  0  0  0  0  0  0  0
    0.5160   23.2930  -27.8610 C   0  0  0  0  0  0  0  0  0  0  0  0
   -0.3720   22.3770  -27.0800 C   0  0  0  0  0  0  0  0  0  0  0  0
   -0.1940   22.2190  -25.8420 O   0  0  0  0  0  0  0  0  0  0  0  0
   -2.5611   18.8069  -24.9993 H   0  0  0  0  0  0  0  0  0  0  0  0
   -3.8799   18.8011  -26.2189 H   0  0  0  0  0  0  0  0  0  0  0  0
   -2.6509   17.4910  -26.2189 H   0  0  0  0  0  0  0  0  0  0  0  0
   -0.9094   19.3535  -26.6267 H   0  0  0  0  0  0  0  0  0  0  0  0
   -2.0350   18.9416  -27.9922 H   0  0  0  0  0  0  0  0  0  0  0  0
   -3.3562   20.8942  -27.6183 H   0  0  0  0  0  0  0  0  0  0  0  0
   -2.5157   21.2362  -26.0529 H   0  0  0  0  0  0  0  0  0  0  0  0
   -0.5230   21.2062  -29.6265 H   0  0  0  0  0  0  0  0  0  0  0  0
   -2.3264   21.3026  -29.6256 H   0  0  0  0  0  0  0  0  0  0  0  0
   -0.9346   23.1836  -30.7370 H   0  0  0  0  0  0  0  0  0  0  0  0
   -5.7710   24.0303  -30.0663 H   0  0  0  0  0  0  0  0  0  0  0  0
   -4.6273   25.0336  -31.0305 H   0  0  0  0  0  0  0  0  0  0  0  0
   -6.4708   23.8651  -32.3708 H   0  0  0  0  0  0  0  0  0  0  0  0
   -4.7888   23.5547  -32.9247 H   0  0  0  0  0  0  0  0  0  0  0  0
   -7.9809   22.8403  -30.7901 H   0  0  0  0  0  0  0  0  0  0  0  0
  -10.2496   21.8176  -31.0265 H   0  0  0  0  0  0  0  0  0  0  0  0
  -10.5374   19.7767  -32.4416 H   0  0  0  0  0  0  0  0  0  0  0  0
   -6.5358   17.5970  -32.4006 H   0  0  0  0  0  0  0  0  0  0  0  0
   -7.4683   17.6506  -33.9350 H   0  0  0  0  0  0  0  0  0  0  0  0
   -5.7723   17.0589  -33.9350 H   0  0  0  0  0  0  0  0  0  0  0  0
   -4.9191   20.1281  -31.2457 H   0  0  0  0  0  0  0  0  0  0  0  0
   -3.7879   21.1526  -32.1930 H   0  0  0  0  0  0  0  0  0  0  0  0
   -4.7826   21.6034  -29.3330 H   0  0  0  0  0  0  0  0  0  0  0  0
   -3.0965   21.2934  -29.8831 H   0  0  0  0  0  0  0  0  0  0  0  0
    0.3466   24.6111  -29.5519 H   0  0  0  0  0  0  0  0  0  0  0  0
   -0.9515   24.7802  -28.2651 H   0  0  0  0  0  0  0  0  0  0  0  0
    1.2660   22.7013  -28.4064 H   0  0  0  0  0  0  0  0  0  0  0  0
    1.0267   23.9851  -27.1752 H   0  0  0  0  0  0  0  0  0  0  0  0
  1  2  1  0
  2  3  1  0
  3  4  1  0
  4  5  1  0
  5  6  1  0
  6  7  1  0
  7  8  2  0
  7  9  1  0
  9 10  1  0
 10 11  1  0
 11 12  1  0
 12 13  1  0
 13 14  2  0
 14 15  1  0
 15 16  2  0
 16 17  1  0
 17 18  2  0
 18 19  1  0
 19 20  1  0
 12 21  1  0
 21 22  1  0
  6 23  1  0
 23 24  1  0
 24 25  1  0
 25 26  2  0
 25  4  1  0
 22  9  1  0
 18 13  1  0
  1 27  1  0
  1 28  1  0
  1 29  1  0
  2 30  1  0
  2 31  1  0
  3 32  1  0
  3 33  1  0
  5 34  1  0
  5 35  1  0
  6 36  1  6
 10 37  1  0
 10 38  1  0
 11 39  1  0
 11 40  1  0
 14 41  1  0
 15 42  1  0
 16 43  1  0
 20 44  1  0
 20 45  1  0
 20 46  1  0
 21 47  1  0
 21 48  1  0
 22 49  1  0
 22 50  1  0
 23 51  1  0
 23 52  1  0
 24 53  1  0
 24 54  1  0
M  END
>  <UniqueID>  (8) 
8

>  <SMILES>  (8) 
CCCN1C[C@@H](C(=O)N2CCN(c3cccnc3SC)CC2)CCC1=O

>  <Energy>  (8) 
55.55082092059621

>  <Genealogy>  (8) 
CCCN1C[C@@H](C(=O)N2CCN(c3cccnc3SC)CC2)CCC1=O (chirality)
CCCN1C[C@@H](C(=O)N2CCN(c3cccnc3SC)CC2)CCC1=O (3D coordinates assigned)
CCCN1C[C@@H](C(=O)N2CCN(c3cccnc3SC)CC2)CCC1=O (nonaromatic ring conformer: 55.55082092059621 kcal/mol)

>  <smiles>  (8) 
CCCN1CC(C(=O)N2CCN(c3cccnc3SC)CC2)CCC1=O

>  <score_type>  (8) 
oracle

>  <origin>  (8) 
adg

>  <m_score__min__energy>  (8) 
-8.3499999999999996

>  <m_primary>  (8) 
energy

$$$$
8:0
     RDKit          3D

 40 42  0  0  0  0  0  0  0  0999 V2000
   -9.4700   21.2690  -31.9600 C   0  0  0  0  0  0  0  0  0  0  0  0
   -8.5090   21.8870  -30.9480 C   0  0  0  0  0  0  0  0  0  0  0  0
   -7.6750   22.8650  -31.5710 O   0  0  0  0  0  0  0  0  0  0  0  0
   -6.4820   23.3860  -31.0400 C   0  0  0  0  0  0  0  0  0  0  0  0
   -6.4790   24.7200  -30.6240 C   0  0  0  0  0  0  0  0  0  0  0  0
   -5.3240   25.2980  -30.0980 C   0  0  0  0  0  0  0  0  0  0  0  0
   -4.1510   24.5480  -29.9770 C   0  0  0  0  0  0  0  0  0  0  0  0
   -3.0600   25.1220  -29.4820 O   0  0  0  0  0  0  0  0  0  0  0  0
   -1.9100   24.4760  -29.3430 C   0  0  0  0  0  0  0  0  0  0  0  0
   -0.9090   25.0790  -28.8730 O   0  0  0  0  0  0  0  0  0  0  0  0
   -1.8020   23.1360  -29.7170 C   0  0  0  0  0  0  0  0  0  0  0  0
   -2.9190   22.4720  -30.2470 C   0  0  0  0  0  0  0  0  0  0  0  0
   -2.7620   21.0350  -30.6960 C   0  0  0  0  0  0  0  0  0  0  0  0
   -2.6590   20.9110  -32.5190 S   0  0  0  0  0  0  0  0  0  0  0  0
   -4.2930   20.1980  -32.7130 C   0  0  0  0  0  0  0  0  0  0  0  0
   -4.5880   19.0240  -32.0950 N   0  0  0  0  0  0  0  0  0  0  0  0
   -5.8250   18.4700  -32.1910 C   0  0  0  0  0  0  0  0  0  0  0  0
   -6.1320   17.2050  -31.4580 C   0  0  0  0  0  0  0  0  0  0  0  0
   -6.8170   19.1240  -32.9290 C   0  0  0  0  0  0  0  0  0  0  0  0
   -6.4950   20.3240  -33.5620 C   0  0  0  0  0  0  0  0  0  0  0  0
   -5.2420   20.8400  -33.4460 N   0  0  0  0  0  0  0  0  0  0  0  0
   -4.1310   23.1910  -30.3840 C   0  0  0  0  0  0  0  0  0  0  0  0
   -5.3070   22.6190  -30.9090 C   0  0  0  0  0  0  0  0  0  0  0  0
  -10.2792   20.7486  -31.4268 H   0  0  0  0  0  0  0  0  0  0  0  0
   -9.8975   22.0619  -32.5913 H   0  0  0  0  0  0  0  0  0  0  0  0
   -8.9259   20.5511  -32.5913 H   0  0  0  0  0  0  0  0  0  0  0  0
   -9.0894   22.3664  -30.1459 H   0  0  0  0  0  0  0  0  0  0  0  0
   -7.8712   21.0909  -30.5363 H   0  0  0  0  0  0  0  0  0  0  0  0
   -7.3967   25.3201  -30.7123 H   0  0  0  0  0  0  0  0  0  0  0  0
   -5.3363   26.3499  -29.7766 H   0  0  0  0  0  0  0  0  0  0  0  0
   -0.8471   22.6033  -29.5971 H   0  0  0  0  0  0  0  0  0  0  0  0
   -1.8421   20.6215  -30.2568 H   0  0  0  0  0  0  0  0  0  0  0  0
   -3.6439   20.4696  -30.3603 H   0  0  0  0  0  0  0  0  0  0  0  0
   -6.0873   17.3890  -30.3744 H   0  0  0  0  0  0  0  0  0  0  0  0
   -7.1402   16.8591  -31.7299 H   0  0  0  0  0  0  0  0  0  0  0  0
   -5.3945   16.4354  -31.7299 H   0  0  0  0  0  0  0  0  0  0  0  0
   -7.8292   18.7008  -33.0083 H   0  0  0  0  0  0  0  0  0  0  0  0
   -7.2548   20.8536  -34.1555 H   0  0  0  0  0  0  0  0  0  0  0  0
   -5.0150   21.7450  -33.9150 H   0  0  0  0  0  0  0  0  0  0  0  0
   -5.3079   21.5637  -31.2195 H   0  0  0  0  0  0  0  0  0  0  0  0
  1  2  1  0
  2  3  1  0
  3  4  1  0
  4  5  2  0
  5  6  1  0
  6  7  2  0
  7  8  1  0
  8  9  1  0
  9 10  2  0
  9 11  1  0
 11 12  2  0
 12 13  1  0
 13 14  1  0
 14 15  1  0
 15 16  2  0
 16 17  1  0
 17 18  1  0
 17 19  2  0
 19 20  1  0
 20 21  2  0
 12 22  1  0
 22 23  2  0
 23  4  1  0
 22  7  1  0
 21 15  1  0
  1 24  1  0
  1 25  1  0
  1 26  1  0
  2 27  1  0
  2 28  1  0
  5 29  1  0
  6 30  1  0
 11 31  1  0
 13 32  1  0
 13 33  1  0
 18 34  1  0
 18 35  1  0
 18 36  1  0
 19 37  1  0
 20 38  1  0
 21 39  1  0
 23 40  1  0
M  CHG  1  21   1
M  END
>  <UniqueID>  (9) 
9

>  <SMILES>  (9) 
CCOc1ccc2oc(=O)cc(CSc3nc(C)cc[nH+]3)c2c1

>  <Energy>  (9) 
39.55273228160498

>  <Genealogy>  (9) 
CCOc1ccc2oc(=O)cc(CSc3nc(C)cc[nH+]3)c2c1 (protonated)
CCOc1ccc2oc(=O)cc(CSc3nc(C)cc[nH+]3)c2c1 (3D coordinates assigned)
CCOc1ccc2oc(=O)cc(CSc3nc(C)cc[nH+]3)c2c1 (optimized conformer: 39.55273228160498 kcal/mol)

>  <smiles>  (9) 
CCOc1ccc2oc(=O)cc(CSc3nccc(C)n3)c2c1

>  <score_type>  (9) 
oracle

>  <origin>  (9) 
adg

>  <m_score__min__energy>  (9) 
-7.71

>  <m_primary>  (9) 
energy

$$$$
9:0
     RDKit          3D

 40 43  0  0  0  0  0  0  0  0999 V2000
    0.1673   28.2114  -27.3211 H   0  0  0  0  0  0  0  0  0  0  0  0
   -0.4610   27.3410  -27.0810 C   0  0  0  0  0  0  0  0  0  0  0  0
   -0.8260   26.4450  -28.0900 C   0  0  0  0  0  0  0  0  0  0  0  0
   -0.4755   26.6106  -29.1194 H   0  0  0  0  0  0  0  0  0  0  0  0
   -1.6380   25.3330  -27.8000 C   0  0  0  0  0  0  0  0  0  0  0  0
   -2.0110   24.3860  -28.8830 C   0  0  0  0  0  0  0  0  0  0  0  0
   -3.1440   24.6140  -29.6050 N   0  0  0  0  0  0  0  0  0  0  0  0
   -3.5700   23.7910  -30.6000 C   0  0  0  0  0  0  0  0  0  0  0  0
   -4.6670   24.1070  -31.2290 N   0  0  0  0  0  0  0  0  0  0  0  0
   -5.8040   23.2810  -31.5260 C   0  0  0  0  0  0  0  0  0  0  0  0
   -5.6510   21.9750  -31.8820 N   0  0  0  0  0  0  0  0  0  0  0  0
   -6.7150   21.1590  -32.1070 C   0  0  0  0  0  0  0  0  0  0  0  0
   -6.5120   19.8280  -32.4910 C   0  0  0  0  0  0  0  0  0  0  0  0
   -5.4899   19.4397  -32.6116 H   0  0  0  0  0  0  0  0  0  0  0  0
   -7.6090   18.9930  -32.7210 C   0  0  0  0  0  0  0  0  0  0  0  0
   -7.4481   17.9475  -33.0226 H   0  0  0  0  0  0  0  0  0  0  0  0
   -8.9110   19.4820  -32.5690 C   0  0  0  0  0  0  0  0  0  0  0  0
   -9.7703   18.8206  -32.7535 H   0  0  0  0  0  0  0  0  0  0  0  0
   -9.1230   20.8100  -32.1830 C   0  0  0  0  0  0  0  0  0  0  0  0
  -10.1478   21.1912  -32.0623 H   0  0  0  0  0  0  0  0  0  0  0  0
   -8.0280   21.6550  -31.9500 C   0  0  0  0  0  0  0  0  0  0  0  0
   -8.2050   22.9870  -31.5560 C   0  0  0  0  0  0  0  0  0  0  0  0
   -9.2185   23.3932  -31.4226 H   0  0  0  0  0  0  0  0  0  0  0  0
   -7.0900   23.7980  -31.3330 C   0  0  0  0  0  0  0  0  0  0  0  0
   -7.2223   24.8401  -31.0066 H   0  0  0  0  0  0  0  0  0  0  0  0
   -2.7910   22.6630  -30.9290 C   0  0  0  0  0  0  0  0  0  0  0  0
   -3.1036   21.9947  -31.7449 H   0  0  0  0  0  0  0  0  0  0  0  0
   -1.6180   22.3970  -30.2130 C   0  0  0  0  0  0  0  0  0  0  0  0
   -0.8090   21.1700  -30.5180 C   0  0  0  0  0  0  0  0  0  0  0  0
   -0.4954   20.6943  -29.5770 H   0  0  0  0  0  0  0  0  0  0  0  0
   -1.4192   20.4638  -31.1002 H   0  0  0  0  0  0  0  0  0  0  0  0
    0.0805   21.4526  -31.1002 H   0  0  0  0  0  0  0  0  0  0  0  0
   -1.2390   23.2490  -29.1680 C   0  0  0  0  0  0  0  0  0  0  0  0
   -0.3404   23.0281  -28.5733 H   0  0  0  0  0  0  0  0  0  0  0  0
   -2.0570   25.1270  -26.4690 C   0  0  0  0  0  0  0  0  0  0  0  0
   -2.6785   24.2541  -26.2205 H   0  0  0  0  0  0  0  0  0  0  0  0
   -1.6870   26.0260  -25.4630 C   0  0  0  0  0  0  0  0  0  0  0  0
   -2.0226   25.8604  -24.4286 H   0  0  0  0  0  0  0  0  0  0  0  0
   -0.8920   27.1340  -25.7690 C   0  0  0  0  0  0  0  0  0  0  0  0
   -0.4300   28.2590  -24.5040 Cl  0  0  0  0  0  0  0  0  0  0  0  0
  1  2  1  0
  2  3  2  0
  3  4  1  0
  3  5  1  0
  5  6  1  0
  6  7  1  0
  7  8  1  0
  8  9  2  0
  9 10  1  0
 10 11  2  0
 11 12  1  0
 12 13  2  0
 13 14  1  0
 13 15  1  0
 15 16  1  0
 15 17  2  0
 17 18  1  0
 17 19  1  0
 19 20  1  0
 19 21  2  0
 21 22  1  0
 22 23  1  0
 22 24  2  0
 24 25  1  0
  8 26  1  0
 26 27  1  0
 26 28  2  0
 28 29  1  0
 29 30  1  0
 29 31  1  0
 29 32  1  0
 28 33  1  0
 33 34  1  0
  5 35  2  0
 35 36  1  0
 35 37  1  0
 37 38  1  0
 37 39  2  0
 39 40  1  0
 39  2  1  0
 33  6  2  0
 24 10  1  0
 21 12  1  0
M  CHG  1   7  -1
M  END
>  <UniqueID>  (10) 
10

>  <SMILES>  (10) 
Cc1cc(-c2ccc(Cl)cc2)[n-]/c(=N/c2ccc3ccccc3n2)c1

>  <Energy>  (10) 
59.539487456508844

>  <Genealogy>  (10) 
Cc1cc(-c2ccc(Cl)cc2)[n-]c(=Nc2ccc3ccccc3n2)c1 (protonated)
Cc1cc(-c2ccc(Cl)cc2)[n-]/c(=N/c2ccc3ccccc3n2)c1 (cis-trans isomerization)
Cc1cc(-c2ccc(Cl)cc2)[n-]/c(=N/c2ccc3ccccc3n2)c1 (3D coordinates assigned)
Cc1cc(-c2ccc(Cl)cc2)[n-]/c(=N/c2ccc3ccccc3n2)c1 (optimized conformer: 59.539487456508844 kcal/mol)

>  <smiles>  (10) 
Cc1cc(-c2ccc(Cl)cc2)[nH]c(=Nc2ccc3ccccc3n2)c1

>  <score_type>  (10) 
oracle

>  <origin>  (10) 
adg

>  <m_score__min__energy>  (10) 
-10.65

>  <m_primary>  (10) 
energy

$$$$
10:0
     RDKit          3D

 42 44  0  0  0  0  0  0  0  0999 V2000
   -2.7320   15.5290  -36.0670 C   0  0  0  0  0  0  0  0  0  0  0  0
   -2.4450   15.7180  -34.6870 O   0  0  0  0  0  0  0  0  0  0  0  0
   -3.1540   15.1160  -33.6360 C   0  0  0  0  0  0  0  0  0  0  0  0
   -2.8670   13.8090  -33.1920 C   0  0  0  0  0  0  0  0  0  0  0  0
   -3.6080   13.2360  -32.1560 C   0  0  0  0  0  0  0  0  0  0  0  0
   -4.6420   13.9550  -31.5530 C   0  0  0  0  0  0  0  0  0  0  0  0
   -4.9340   15.2510  -31.9810 C   0  0  0  0  0  0  0  0  0  0  0  0
   -4.1900   15.8400  -33.0150 C   0  0  0  0  0  0  0  0  0  0  0  0
   -4.5100   17.1720  -33.4460 N   0  0  0  0  0  0  0  0  0  0  0  0
   -3.6100   18.2600  -33.0520 C   0  0  0  0  0  0  0  0  0  0  0  0
   -3.8900   19.5490  -33.8380 C   0  0  0  0  0  0  0  0  0  0  0  0
   -5.3270   19.8770  -33.9050 N   0  0  2  0  0  0  0  0  0  0  0  0
   -6.0170   20.2640  -32.3400 S   0  0  0  0  0  0  0  0  0  0  0  0
   -7.5060   20.4130  -32.4780 O   0  0  0  0  0  0  0  0  0  0  0  0
   -5.7450   19.1620  -31.3530 O   0  0  0  0  0  0  0  0  0  0  0  0
   -5.3630   21.7840  -31.7330 C   0  0  0  0  0  0  0  0  0  0  0  0
   -5.9620   22.9970  -32.0770 C   0  0  0  0  0  0  0  0  0  0  0  0
   -5.4420   24.1650  -31.6180 N   0  0  0  0  0  0  0  0  0  0  0  0
   -4.3390   24.1740  -30.8210 C   0  0  0  0  0  0  0  0  0  0  0  0
   -3.8550   25.2930  -30.3910 N   0  0  0  0  0  0  0  0  0  0  0  0
   -3.7410   23.0030  -30.4770 N   0  0  0  0  0  0  0  0  0  0  0  0
   -4.2290   21.8140  -30.9160 C   0  0  0  0  0  0  0  0  0  0  0  0
   -6.0960   18.8200  -34.5880 C   0  0  0  0  0  0  0  0  0  0  0  0
   -5.7810   17.4470  -34.0640 C   0  0  0  0  0  0  0  0  0  0  0  0
   -6.6140   16.5180  -34.2460 O   0  0  0  0  0  0  0  0  0  0  0  0
   -3.6465   14.9268  -36.1722 H   0  0  0  0  0  0  0  0  0  0  0  0
   -2.8797   16.5071  -36.5481 H   0  0  0  0  0  0  0  0  0  0  0  0
   -1.8918   15.0069  -36.5481 H   0  0  0  0  0  0  0  0  0  0  0  0
   -2.0547   13.2372  -33.6643 H   0  0  0  0  0  0  0  0  0  0  0  0
   -3.3766   12.2163  -31.8144 H   0  0  0  0  0  0  0  0  0  0  0  0
   -5.2268   13.4997  -30.7401 H   0  0  0  0  0  0  0  0  0  0  0  0
   -5.7511   15.8134  -31.5056 H   0  0  0  0  0  0  0  0  0  0  0  0
   -3.7445   18.4616  -31.9790 H   0  0  0  0  0  0  0  0  0  0  0  0
   -2.5790   17.9451  -33.2706 H   0  0  0  0  0  0  0  0  0  0  0  0
   -3.3621   20.3808  -33.3486 H   0  0  0  0  0  0  0  0  0  0  0  0
   -3.5377   19.3919  -34.8682 H   0  0  0  0  0  0  0  0  0  0  0  0
   -5.4170   20.7460  -34.4820 H   0  0  0  0  0  0  0  0  0  0  0  0
   -6.8548   23.0071  -32.7195 H   0  0  0  0  0  0  0  0  0  0  0  0
   -4.1480   25.6980  -29.4730 H   0  0  0  0  0  0  0  0  0  0  0  0
   -3.7324   20.8754  -30.6289 H   0  0  0  0  0  0  0  0  0  0  0  0
   -7.1688   19.0150  -34.4430 H   0  0  0  0  0  0  0  0  0  0  0  0
   -5.8204   18.8420  -35.6527 H   0  0  0  0  0  0  0  0  0  0  0  0
  1  2  1  0
  2  3  1  0
  3  4  2  0
  4  5  1  0
  5  6  2  0
  6  7  1  0
  7  8  2  0
  8  9  1  0
  9 10  1  0
 10 11  1  0
 11 12  1  0
 12 13  1  0
 13 14  2  0
 13 15  2  0
 13 16  1  0
 16 17  1  0
 17 18  2  0
 18 19  1  0
 19 20  2  3
 19 21  1  0
 21 22  1  0
 12 23  1  0
 23 24  1  0
 24 25  2  0
  8  3  1  0
 24  9  1  0
 22 16  2  0
  1 26  1  0
  1 27  1  0
  1 28  1  0
  4 29  1  0
  5 30  1  0
  6 31  1  0
  7 32  1  0
 10 33  1  0
 10 34  1  0
 11 35  1  0
 11 36  1  0
 12 37  1  6
 17 38  1  0
 20 39  1  0
 22 40  1  0
 23 41  1  0
 23 42  1  0
M  CHG  2  12   1  21  -1
M  END
>  <UniqueID>  (11) 
11

>  <SMILES>  (11) 
COc1ccccc1N1CC[N@H+](S(=O)(=O)c2cnc(=N)[n-]c2)CC1=O

>  <Energy>  (11) 
52.599574612129274

>  <Genealogy>  (11) 
COc1ccccc1N1CC[NH+](S(=O)(=O)c2cnc(=N)[n-]c2)CC1=O (protonated)
COc1ccccc1N1CC[N@H+](S(=O)(=O)c2cnc(=N)[n-]c2)CC1=O (chirality)
COc1ccccc1N1CC[N@H+](S(=O)(=O)c2cnc(=N)[n-]c2)CC1=O (3D coordinates assigned)
COc1ccccc1N1CC[N@H+](S(=O)(=O)c2cnc(=N)[n-]c2)CC1=O (nonaromatic ring conformer: 52.599574612129274 kcal/mol)

>  <smiles>  (11) 
COc1ccccc1N1CCN(S(=O)(=O)c2cnc(=N)[nH]c2)CC1=O

>  <score_type>  (11) 
oracle

>  <origin>  (11) 
adg

>  <m_score__min__energy>  (11) 
-8.0800000000000001

>  <m_primary>  (11) 
energy

$$$$
11:0
     RDKit          3D

 29 30  0  0  0  0  0  0  0  0999 V2000
   -3.8280   24.1530  -29.5110 C   0  0  0  0  0  0  0  0  0  0  0  0
   -5.3100   24.1120  -29.1590 C   0  0  0  0  0  0  0  0  0  0  0  0
   -6.0930   23.6850  -30.3160 N   0  0  0  0  0  0  0  0  0  0  0  0
   -5.8830   24.0250  -31.6030 C   0  0  0  0  0  0  0  0  0  0  0  0
   -6.8790   23.4530  -32.3690 C   0  0  0  0  0  0  0  0  0  0  0  0
   -7.7090   22.7810  -31.5460 N   0  0  0  0  0  0  0  0  0  0  0  0
   -8.8600   21.9720  -31.9340 C   0  0  0  0  0  0  0  0  0  0  0  0
   -8.4330   20.5470  -32.1520 C   0  0  0  0  0  0  0  0  0  0  0  0
   -9.1100   19.4990  -31.5070 C   0  0  0  0  0  0  0  0  0  0  0  0
   -8.6850   18.1770  -31.6770 C   0  0  0  0  0  0  0  0  0  0  0  0
   -7.5770   17.8960  -32.4810 C   0  0  0  0  0  0  0  0  0  0  0  0
   -6.8880   18.9340  -33.1130 C   0  0  0  0  0  0  0  0  0  0  0  0
   -5.3650   18.5490  -34.1990 Br  0  0  0  0  0  0  0  0  0  0  0  0
   -7.3110   20.2580  -32.9460 C   0  0  0  0  0  0  0  0  0  0  0  0
   -7.2090   22.9310  -30.3050 C   0  0  0  0  0  0  0  0  0  0  0  0
   -3.2319   24.1695  -28.5867 H   0  0  0  0  0  0  0  0  0  0  0  0
   -3.5663   23.2618  -30.1002 H   0  0  0  0  0  0  0  0  0  0  0  0
   -3.6160   25.0574  -30.1002 H   0  0  0  0  0  0  0  0  0  0  0  0
   -5.4674   23.4034  -28.3325 H   0  0  0  0  0  0  0  0  0  0  0  0
   -5.6349   25.1190  -28.8583 H   0  0  0  0  0  0  0  0  0  0  0  0
   -5.0598   24.6505  -31.9785 H   0  0  0  0  0  0  0  0  0  0  0  0
   -6.9782   23.5319  -33.4617 H   0  0  0  0  0  0  0  0  0  0  0  0
   -9.6168   22.0082  -31.1366 H   0  0  0  0  0  0  0  0  0  0  0  0
   -9.2845   22.3700  -32.8675 H   0  0  0  0  0  0  0  0  0  0  0  0
   -9.9769   19.7183  -30.8663 H   0  0  0  0  0  0  0  0  0  0  0  0
   -9.2234   17.3581  -31.1774 H   0  0  0  0  0  0  0  0  0  0  0  0
   -7.2468   16.8555  -32.6165 H   0  0  0  0  0  0  0  0  0  0  0  0
   -6.7628   21.0748  -33.4383 H   0  0  0  0  0  0  0  0  0  0  0  0
   -7.6544   22.4942  -29.3990 H   0  0  0  0  0  0  0  0  0  0  0  0
  1  2  1  0
  2  3  1  0
  3  4  1  0
  4  5  2  0
  5  6  1  0
  6  7  1  0
  7  8  1  0
  8  9  2  0
  9 10  1  0
 10 11  2  0
 11 12  1  0
 12 13  1  0
 12 14  2  0
  6 15  1  0
 15  3  2  0
 14  8  1  0
  1 16  1  0
  1 17  1  0
  1 18  1  0
  2 19  1  0
  2 20  1  0
  4 21  1  0
  5 22  1  0
  7 23  1  0
  7 24  1  0
  9 25  1  0
 10 26  1  0
 11 27  1  0
 14 28  1  0
 15 29  1  0
M  CHG  1   3   1
M  END
>  <UniqueID>  (12) 
12

>  <SMILES>  (12) 
CC[n+]1ccn(Cc2cccc(Br)c2)c1

>  <Energy>  (12) 
53.9694998024664

>  <Genealogy>  (12) 
CC[n+]1ccn(Cc2cccc(Br)c2)c1 (3D coordinates assigned)
CC[n+]1ccn(Cc2cccc(Br)c2)c1 (optimized conformer: 53.9694998024664 kcal/mol)

>  <smiles>  (12) 
CC[n+]1ccn(Cc2cccc(Br)c2)c1

>  <score_type>  (12) 
oracle

>  <origin>  (12) 
adg

>  <m_score__min__energy>  (12) 
-5.6399999999999997

>  <m_primary>  (12) 
energy

$$$$
12:0
     RDKit          3D

 45 48  0  0  1  0  0  0  0  0999 V2000
   -6.1160   17.0510  -31.1710 C   0  0  0  0  0  0  0  0  0  0  0  0
   -6.4040   18.2160  -32.0540 C   0  0  0  0  0  0  0  0  0  0  0  0
   -7.2480   19.1870  -31.5570 C   0  0  0  0  0  0  0  0  0  0  0  0
   -7.5670   20.2970  -32.3090 C   0  0  0  0  0  0  0  0  0  0  0  0
   -7.0190   20.4200  -33.5840 C   0  0  0  0  0  0  0  0  0  0  0  0
   -6.1700   19.4300  -34.0660 C   0  0  0  0  0  0  0  0  0  0  0  0
   -5.8470   18.3160  -33.3190 C   0  0  0  0  0  0  0  0  0  0  0  0
   -4.9710   17.2960  -33.8180 N   0  0  0  0  0  0  0  0  0  0  0  0
   -5.4370   16.0970  -34.2080 C   0  0  0  0  0  0  0  0  0  0  0  0
   -4.3850   15.3210  -34.6390 C   0  0  0  0  0  0  0  0  0  0  0  0
   -3.2640   16.0990  -34.4940 C   0  0  0  0  0  0  0  0  0  0  0  0
   -3.6260   17.3560  -33.9730 C   0  0  0  0  0  0  0  0  0  0  0  0
   -2.7750   18.5120  -33.6900 C   0  0  0  0  0  0  0  0  0  0  0  0
   -3.2170   19.7700  -33.3480 N   0  0  0  0  0  0  0  0  0  0  0  0
   -2.9440   20.6850  -32.5460 C   0  0  0  0  0  0  0  0  0  0  0  0
   -3.9480   21.5210  -32.1500 N   0  0  0  0  0  0  0  0  0  0  0  0
   -3.6800   22.5310  -31.2730 C   0  0  0  0  0  0  0  0  0  0  0  0
   -4.7660   23.3940  -30.8760 C   0  0  0  0  0  0  0  0  0  0  0  0
   -6.0520   22.8430  -30.9440 C   0  0  0  0  0  0  0  0  0  0  0  0
   -7.1620   23.6020  -30.5810 C   0  0  0  0  0  0  0  0  0  0  0  0
   -7.0590   24.9050  -30.1460 C   0  0  0  0  0  0  0  0  0  0  0  0
   -5.7920   25.4430  -30.0820 C   0  0  0  0  0  0  0  0  0  0  0  0
   -4.6790   24.6750  -30.4480 C   0  0  0  0  0  0  0  0  0  0  0  0
   -3.4880   25.2820  -30.3530 F   0  0  0  0  0  0  0  0  0  0  0  0
   -2.3790   22.6190  -30.8530 C   0  0  0  0  0  0  0  0  0  0  0  0
   -1.4060   21.7630  -31.2730 N   0  0  0  0  0  0  0  0  0  0  0  0
   -1.6890   20.8070  -32.1100 N   0  0  0  0  0  0  0  0  0  0  0  0
   -6.1926   17.3610  -30.1184 H   0  0  0  0  0  0  0  0  0  0  0  0
   -6.8433   16.2504  -31.3714 H   0  0  0  0  0  0  0  0  0  0  0  0
   -5.0995   16.6815  -31.3714 H   0  0  0  0  0  0  0  0  0  0  0  0
   -7.6717   19.0741  -30.5482 H   0  0  0  0  0  0  0  0  0  0  0  0
   -8.2406   21.0701  -31.9107 H   0  0  0  0  0  0  0  0  0  0  0  0
   -7.2567   21.2956  -34.2060 H   0  0  0  0  0  0  0  0  0  0  0  0
   -5.7428   19.5383  -35.0738 H   0  0  0  0  0  0  0  0  0  0  0  0
   -6.4917   15.7854  -34.1862 H   0  0  0  0  0  0  0  0  0  0  0  0
   -4.4330   14.2905  -35.0207 H   0  0  0  0  0  0  0  0  0  0  0  0
   -2.2394   15.7882  -34.7462 H   0  0  0  0  0  0  0  0  0  0  0  0
   -2.1253   18.1974  -32.8599 H   0  0  0  0  0  0  0  0  0  0  0  0
   -2.3860   18.7141  -34.6989 H   0  0  0  0  0  0  0  0  0  0  0  0
   -6.1859   21.8060  -31.2857 H   0  0  0  0  0  0  0  0  0  0  0  0
   -8.1597   23.1431  -30.6441 H   0  0  0  0  0  0  0  0  0  0  0  0
   -7.9471   25.4890  -29.8628 H   0  0  0  0  0  0  0  0  0  0  0  0
   -5.6539   26.4800  -29.7421 H   0  0  0  0  0  0  0  0  0  0  0  0
   -2.1080   23.4162  -30.1452 H   0  0  0  0  0  0  0  0  0  0  0  0
   -0.9890   20.1440  -32.4510 H   0  0  0  0  0  0  0  0  0  0  0  0
  1  2  1  0
  2  3  2  0
  3  4  1  0
  4  5  2  0
  5  6  1  0
  6  7  2  0
  7  8  1  0
  8  9  1  0
  9 10  2  0
 10 11  1  0
 11 12  2  0
 12 13  1  0
 13 14  1  0
 14 15  2  0
 15 16  1  0
 16 17  2  0
 17 18  1  0
 18 19  2  0
 19 20  1  0
 20 21  2  0
 21 22  1  0
 22 23  2  0
 23 24  1  0
 17 25  1  0
 25 26  2  0
 26 27  1  0
  7  2  1  0
 12  8  1  0
 27 15  1  0
 23 18  1  0
  1 28  1  0
  1 29  1  0
  1 30  1  0
  3 31  1  0
  4 32  1  0
  5 33  1  0
  6 34  1  0
  9 35  1  0
 10 36  1  0
 11 37  1  0
 13 38  1  0
 13 39  1  0
 19 40  1  0
 20 41  1  0
 21 42  1  0
 22 43  1  0
 25 44  1  0
 27 45  1  0
M  END
>  <smiles>  (13) 
Cc1ccccc1-n1cccc1CN=c1nc(-c2ccccc2F)cn[nH]1

>  <score_type>  (13) 
oracle

>  <origin>  (13) 
adg

>  <m_score__min__energy>  (13) 
-9.0600000000000005

>  <m_primary>  (13) 
energy

$$$$
13:0
     RDKit          3D

 37 39  0  0  0  0  0  0  0  0999 V2000
   -7.9809   22.6911  -31.6092 H   0  0  0  0  0  0  0  0  0  0  0  0
   -6.9670   22.2650  -31.6280 C   0  0  0  0  0  0  0  0  0  0  0  0
   -6.8140   21.0400  -32.1540 C   0  0  0  0  0  0  0  0  0  0  0  0
   -5.7570   20.5700  -33.0590 C   0  0  0  0  0  0  0  0  0  0  0  0
   -4.7620   21.2250  -33.4670 O   0  0  0  0  0  0  0  0  0  0  0  0
   -6.0040   19.1740  -33.3330 C   0  0  0  0  0  0  0  0  0  0  0  0
   -5.2830   18.2930  -34.1400 C   0  0  0  0  0  0  0  0  0  0  0  0
   -4.3899   18.6302  -34.6865 H   0  0  0  0  0  0  0  0  0  0  0  0
   -5.7280   16.9640  -34.2360 C   0  0  0  0  0  0  0  0  0  0  0  0
   -5.1820   16.2478  -34.8676 H   0  0  0  0  0  0  0  0  0  0  0  0
   -6.8700   16.5450  -33.5270 C   0  0  0  0  0  0  0  0  0  0  0  0
   -7.2109   15.5022  -33.6068 H   0  0  0  0  0  0  0  0  0  0  0  0
   -7.5770   17.4510  -32.7180 C   0  0  0  0  0  0  0  0  0  0  0  0
   -8.4695   17.1281  -32.1620 H   0  0  0  0  0  0  0  0  0  0  0  0
   -7.1240   18.7690  -32.6340 C   0  0  0  0  0  0  0  0  0  0  0  0
   -7.7200   19.8810  -31.8240 C   0  0  0  0  0  0  0  0  0  0  0  0
   -7.6944   19.6488  -30.7491 H   0  0  0  0  0  0  0  0  0  0  0  0
   -8.7795   20.0718  -32.0501 H   0  0  0  0  0  0  0  0  0  0  0  0
   -5.8690   23.0800  -31.0730 C   0  0  0  0  0  0  0  0  0  0  0  0
   -6.0720   24.4220  -30.7220 C   0  0  0  0  0  0  0  0  0  0  0  0
   -7.0519   24.8908  -30.8952 H   0  0  0  0  0  0  0  0  0  0  0  0
   -5.0370   25.1660  -30.1540 C   0  0  0  0  0  0  0  0  0  0  0  0
   -5.2008   26.2229  -29.8968 H   0  0  0  0  0  0  0  0  0  0  0  0
   -3.7840   24.5720  -29.9080 C   0  0  0  0  0  0  0  0  0  0  0  0
   -2.7180   25.2880  -29.3420 O   0  0  0  0  0  0  0  0  0  0  0  0
   -2.0550   24.9270  -28.1340 C   0  0  0  0  0  0  0  0  0  0  0  0
   -2.6567   25.2546  -27.2735 H   0  0  0  0  0  0  0  0  0  0  0  0
   -1.9276   23.8350  -28.0979 H   0  0  0  0  0  0  0  0  0  0  0  0
   -1.0686   25.4126  -28.0979 H   0  0  0  0  0  0  0  0  0  0  0  0
   -3.5840   23.2200  -30.2280 C   0  0  0  0  0  0  0  0  0  0  0  0
   -2.3280   22.6510  -29.9620 O   0  0  0  0  0  0  0  0  0  0  0  0
   -1.7340   21.6100  -30.7300 C   0  0  0  0  0  0  0  0  0  0  0  0
   -1.3037   20.8559  -30.0546 H   0  0  0  0  0  0  0  0  0  0  0  0
   -2.4997   21.1397  -31.3644 H   0  0  0  0  0  0  0  0  0  0  0  0
   -0.9396   22.0300  -31.3644 H   0  0  0  0  0  0  0  0  0  0  0  0
   -4.6340   22.4760  -30.8010 C   0  0  0  0  0  0  0  0  0  0  0  0
   -4.4833   21.4122  -31.0369 H   0  0  0  0  0  0  0  0  0  0  0  0
  1  2  1  0
  2  3  2  0
  3  4  1  0
  4  5  2  0
  4  6  1  0
  6  7  2  0
  7  8  1  0
  7  9  1  0
  9 10  1  0
  9 11  2  0
 11 12  1  0
 11 13  1  0
 13 14  1  0
 13 15  2  0
 15 16  1  0
 16 17  1  0
 16 18  1  0
  2 19  1  0
 19 20  2  0
 20 21  1  0
 20 22  1  0
 22 23  1  0
 22 24  2  0
 24 25  1  0
 25 26  1  0
 26 27  1  0
 26 28  1  0
 26 29  1  0
 24 30  1  0
 30 31  1  0
 31 32  1  0
 32 33  1  0
 32 34  1  0
 32 35  1  0
 30 36  2  0
 36 37  1  0
 16  3  1  0
 36 19  1  0
 15  6  1  0
M  END
>  <UniqueID>  (14) 
13

>  <SMILES>  (14) 
COc1ccc(/C=C2/Cc3ccccc3C2=O)cc1OC

>  <Energy>  (14) 
63.72450142231518

>  <Genealogy>  (14) 
COc1ccc(/C=C2/Cc3ccccc3C2=O)cc1OC (cis-trans isomerization)
COc1ccc(/C=C2/Cc3ccccc3C2=O)cc1OC (3D coordinates assigned)
COc1ccc(/C=C2/Cc3ccccc3C2=O)cc1OC (nonaromatic ring conformer: 63.72450142231518 kcal/mol)

>  <smiles>  (14) 
COc1ccc(C=C2Cc3ccccc3C2=O)cc1OC

>  <score_type>  (14) 
oracle

>  <origin>  (14) 
adg

>  <m_score__min__energy>  (14) 
-8.4299999999999997

>  <m_primary>  (14) 
energy

$$$$
14:0
     RDKit          3D

 38 41  0  0  0  0  0  0  0  0999 V2000
    0.6220   20.4310  -34.1270 C   0  0  0  0  0  0  0  0  0  0  0  0
    0.0980   20.3980  -32.8040 O   0  0  0  0  0  0  0  0  0  0  0  0
   -1.2180   20.7460  -32.4640 C   0  0  0  0  0  0  0  0  0  0  0  0
   -2.0570   21.2380  -33.4720 C   0  0  0  0  0  0  0  0  0  0  0  0
   -3.3770   21.5980  -33.1850 C   0  0  0  0  0  0  0  0  0  0  0  0
   -3.8720   21.4690  -31.8800 C   0  0  0  0  0  0  0  0  0  0  0  0
   -5.2690   21.8510  -31.5750 C   0  0  0  0  0  0  0  0  0  0  0  0
   -6.3390   20.9440  -31.8680 C   0  0  0  0  0  0  0  0  0  0  0  0
   -6.1420   19.6560  -32.4530 C   0  0  0  0  0  0  0  0  0  0  0  0
   -4.8830   19.1730  -32.7900 O   0  0  0  0  0  0  0  0  0  0  0  0
   -7.2330   18.8200  -32.7130 C   0  0  0  0  0  0  0  0  0  0  0  0
   -8.5270   19.2260  -32.4070 C   0  0  0  0  0  0  0  0  0  0  0  0
   -8.7480   20.4740  -31.8360 C   0  0  0  0  0  0  0  0  0  0  0  0
   -7.6720   21.3340  -31.5650 C   0  0  0  0  0  0  0  0  0  0  0  0
   -7.9340   22.5780  -30.9920 C   0  0  0  0  0  0  0  0  0  0  0  0
   -6.9010   23.4680  -30.7030 C   0  0  0  0  0  0  0  0  0  0  0  0
   -7.2180   24.7090  -30.1260 C   0  0  0  0  0  0  0  0  0  0  0  0
   -6.2160   25.6230  -29.8240 C   0  0  0  0  0  0  0  0  0  0  0  0
   -4.8870   25.3130  -30.0920 C   0  0  0  0  0  0  0  0  0  0  0  0
   -4.5420   24.0860  -30.6650 C   0  0  0  0  0  0  0  0  0  0  0  0
   -3.1910   23.8560  -30.9000 O   0  0  0  0  0  0  0  0  0  0  0  0
   -5.5510   23.1270  -30.9870 C   0  0  0  0  0  0  0  0  0  0  0  0
   -3.0390   20.9780  -30.8650 C   0  0  0  0  0  0  0  0  0  0  0  0
   -1.7190   20.6180  -31.1540 C   0  0  0  0  0  0  0  0  0  0  0  0
    1.7190   20.5001  -34.0853 H   0  0  0  0  0  0  0  0  0  0  0  0
    0.3324   19.5128  -34.6591 H   0  0  0  0  0  0  0  0  0  0  0  0
    0.2195   21.3056  -34.6591 H   0  0  0  0  0  0  0  0  0  0  0  0
   -1.6741   21.3420  -34.4979 H   0  0  0  0  0  0  0  0  0  0  0  0
   -4.0277   21.9828  -33.9840 H   0  0  0  0  0  0  0  0  0  0  0  0
   -7.0653   17.8310  -33.1643 H   0  0  0  0  0  0  0  0  0  0  0  0
   -9.3764   18.5593  -32.6168 H   0  0  0  0  0  0  0  0  0  0  0  0
   -9.7736   20.7900  -31.5947 H   0  0  0  0  0  0  0  0  0  0  0  0
   -8.9722   22.8614  -30.7645 H   0  0  0  0  0  0  0  0  0  0  0  0
   -8.2675   24.9591  -29.9116 H   0  0  0  0  0  0  0  0  0  0  0  0
   -6.4741   26.5924  -29.3727 H   0  0  0  0  0  0  0  0  0  0  0  0
   -4.0990   26.0414  -29.8504 H   0  0  0  0  0  0  0  0  0  0  0  0
   -3.4242   20.8758  -29.8398 H   0  0  0  0  0  0  0  0  0  0  0  0
   -1.0690   20.2331  -30.3545 H   0  0  0  0  0  0  0  0  0  0  0  0
  1  2  1  0
  2  3  1  0
  3  4  2  0
  4  5  1  0
  5  6  2  0
  6  7  1  0
  7  8  1  0
  8  9  2  0
  9 10  1  0
  9 11  1  0
 11 12  2  0
 12 13  1  0
 13 14  2  0
 14 15  1  0
 15 16  2  0
 16 17  1  0
 17 18  2  0
 18 19  1  0
 19 20  2  0
 20 21  1  0
 20 22  1  0
  6 23  1  0
 23 24  2  0
 24  3  1  0
 22  7  2  0
 14  8  1  0
 22 16  1  0
  1 25  1  0
  1 26  1  0
  1 27  1  0
  4 28  1  0
  5 29  1  0
 11 30  1  0
 12 31  1  0
 13 32  1  0
 15 33  1  0
 17 34  1  0
 18 35  1  0
 19 36  1  0
 23 37  1  0
 24 38  1  0
M  CHG  2  10  -1  21  -1
M  END
>  <UniqueID>  (15) 
14

>  <SMILES>  (15) 
COc1ccc(-c2c3c([O-])cccc3cc3cccc([O-])c23)cc1

>  <Energy>  (15) 
67.67662599041532

>  <Genealogy>  (15) 
COc1ccc(-c2c3c([O-])cccc3cc3cccc([O-])c23)cc1 (protonated)
COc1ccc(-c2c3c([O-])cccc3cc3cccc([O-])c23)cc1 (3D coordinates assigned)
COc1ccc(-c2c3c([O-])cccc3cc3cccc([O-])c23)cc1 (optimized conformer: 67.67662599041532 kcal/mol)

>  <smiles>  (15) 
COc1ccc(-c2c3c(O)cccc3cc3cccc(O)c23)cc1

>  <score_type>  (15) 
oracle

>  <origin>  (15) 
adg

>  <m_score__min__energy>  (15) 
-9.2599999999999998

>  <m_primary>  (15) 
energy

$$$$
15:0
     RDKit          3D

 55 57  0  0  0  0  0  0  0  0999 V2000
   -6.4310   19.5169  -34.9538 H   0  0  0  0  0  0  0  0  0  0  0  0
   -6.1180   19.6740  -33.9110 C   0  0  0  0  0  0  0  0  0  0  0  0
   -7.0580   20.0780  -33.0280 C   0  0  0  0  0  0  0  0  0  0  0  0
   -6.9050   21.3780  -32.3230 C   0  0  0  0  0  0  0  0  0  0  0  0
   -6.0350   22.2050  -32.7140 O   0  0  0  0  0  0  0  0  0  0  0  0
   -7.8330   21.7290  -31.2090 C   0  0  0  0  0  0  0  0  0  0  0  0
   -7.5720   22.6920  -30.2990 C   0  0  0  0  0  0  0  0  0  0  0  0
   -8.4034   23.0151  -29.6553 H   0  0  0  0  0  0  0  0  0  0  0  0
   -6.2650   23.3480  -30.0950 C   0  0  0  0  0  0  0  0  0  0  0  0
   -5.2540   22.7320  -29.3390 C   0  0  0  0  0  0  0  0  0  0  0  0
   -5.4171   21.7272  -28.9222 H   0  0  0  0  0  0  0  0  0  0  0  0
   -4.0420   23.3900  -29.1140 C   0  0  0  0  0  0  0  0  0  0  0  0
   -3.2499   22.8920  -28.5356 H   0  0  0  0  0  0  0  0  0  0  0  0
   -3.8280   24.6780  -29.6190 C   0  0  0  0  0  0  0  0  0  0  0  0
   -2.5930   25.2950  -29.3680 O   0  0  0  0  0  0  0  0  0  0  0  0
   -1.6720   24.8720  -28.3690 C   0  0  0  0  0  0  0  0  0  0  0  0
   -2.0963   25.0669  -27.3730 H   0  0  0  0  0  0  0  0  0  0  0  0
   -1.4788   23.7949  -28.4809 H   0  0  0  0  0  0  0  0  0  0  0  0
   -0.7290   25.4273  -28.4809 H   0  0  0  0  0  0  0  0  0  0  0  0
   -4.8520   25.3070  -30.3510 C   0  0  0  0  0  0  0  0  0  0  0  0
   -4.6974   26.3209  -30.7487 H   0  0  0  0  0  0  0  0  0  0  0  0
   -6.0650   24.6490  -30.5750 C   0  0  0  0  0  0  0  0  0  0  0  0
   -6.8672   25.1558  -31.1315 H   0  0  0  0  0  0  0  0  0  0  0  0
   -9.1180   20.9460  -31.0540 C   0  0  0  0  0  0  0  0  0  0  0  0
   -9.0140   20.2646  -30.1968 H   0  0  0  0  0  0  0  0  0  0  0  0
   -9.9324   21.6694  -30.9010 H   0  0  0  0  0  0  0  0  0  0  0  0
   -9.4590   20.1200  -32.2990 C   0  0  0  0  0  0  0  0  0  0  0  0
  -10.3259   19.4797  -32.0789 H   0  0  0  0  0  0  0  0  0  0  0  0
   -9.6877   20.8104  -33.1243 H   0  0  0  0  0  0  0  0  0  0  0  0
   -8.2790   19.2380  -32.7160 C   0  0  0  0  0  0  0  0  0  0  0  0
   -8.0394   18.5458  -31.8953 H   0  0  0  0  0  0  0  0  0  0  0  0
   -8.5611   18.6796  -33.6208 H   0  0  0  0  0  0  0  0  0  0  0  0
   -4.6990   19.4280  -33.5760 C   0  0  0  0  0  0  0  0  0  0  0  0
   -3.9100   20.4900  -33.1230 C   0  0  0  0  0  0  0  0  0  0  0  0
   -4.3492   21.4953  -33.0428 H   0  0  0  0  0  0  0  0  0  0  0  0
   -2.5620   20.2920  -32.7680 C   0  0  0  0  0  0  0  0  0  0  0  0
   -1.7690   21.3650  -32.3300 O   0  0  0  0  0  0  0  0  0  0  0  0
   -1.3690   21.5900  -30.9820 C   0  0  0  0  0  0  0  0  0  0  0  0
   -2.1217   21.1666  -30.3007 H   0  0  0  0  0  0  0  0  0  0  0  0
   -0.3978   21.1058  -30.8020 H   0  0  0  0  0  0  0  0  0  0  0  0
   -1.2785   22.6714  -30.8020 H   0  0  0  0  0  0  0  0  0  0  0  0
   -2.0070   18.9880  -32.8560 C   0  0  0  0  0  0  0  0  0  0  0  0
   -0.6700   18.6850  -32.5320 O   0  0  0  0  0  0  0  0  0  0  0  0
   -0.2070   18.0490  -31.3460 C   0  0  0  0  0  0  0  0  0  0  0  0
   -0.5964   18.5839  -30.4672 H   0  0  0  0  0  0  0  0  0  0  0  0
   -0.5595   17.0072  -31.3271 H   0  0  0  0  0  0  0  0  0  0  0  0
    0.8927   18.0644  -31.3271 H   0  0  0  0  0  0  0  0  0  0  0  0
   -2.8110   17.9170  -33.2810 C   0  0  0  0  0  0  0  0  0  0  0  0
   -2.2330   16.6390  -33.3450 O   0  0  0  0  0  0  0  0  0  0  0  0
   -2.8130   15.5210  -34.0090 C   0  0  0  0  0  0  0  0  0  0  0  0
   -3.1851   14.8038  -33.2626 H   0  0  0  0  0  0  0  0  0  0  0  0
   -3.6483   15.8613  -34.6387 H   0  0  0  0  0  0  0  0  0  0  0  0
   -2.0538   15.0341  -34.6387 H   0  0  0  0  0  0  0  0  0  0  0  0
   -4.1540   18.1410  -33.6270 C   0  0  0  0  0  0  0  0  0  0  0  0
   -4.7834   17.2954  -33.9413 H   0  0  0  0  0  0  0  0  0  0  0  0
  1  2  1  0
  2  3  2  3
  3  4  1  0
  4  5  2  0
  4  6  1  0
  6  7  2  0
  7  8  1  0
  7  9  1  0
  9 10  2  0
 10 11  1  0
 10 12  1  0
 12 13  1  0
 12 14  2  0
 14 15  1  0
 15 16  1  0
 16 17  1  0
 16 18  1  0
 16 19  1  0
 14 20  1  0
 20 21  1  0
 20 22  2  0
 22 23  1  0
  6 24  1  0
 24 25  1  0
 24 26  1  0
 24 27  1  0
 27 28  1  0
 27 29  1  0
 27 30  1  0
 30 31  1  0
 30 32  1  0
  2 33  1  0
 33 34  2  0
 34 35  1  0
 34 36  1  0
 36 37  1  0
 37 38  1  0
 38 39  1  0
 38 40  1  0
 38 41  1  0
 36 42  2  0
 42 43  1  0
 43 44  1  0
 44 45  1  0
 44 46  1  0
 44 47  1  0
 42 48  1  0
 48 49  1  0
 49 50  1  0
 50 51  1  0
 50 52  1  0
 50 53  1  0
 48 54  2  0
 54 55  1  0
 30  3  1  0
 54 33  1  0
 22  9  1  0
M  END
>  <UniqueID>  (16) 
15

>  <SMILES>  (16) 
COc1ccc(/C=C2/CCCC(=Cc3cc(OC)c(OC)c(OC)c3)C2=O)cc1

>  <Energy>  (16) 
72.5136056730785

>  <Genealogy>  (16) 
COc1ccc(/C=C2/CCCC(=Cc3cc(OC)c(OC)c(OC)c3)C2=O)cc1 (cis-trans isomerization)
COc1ccc(/C=C2/CCCC(=Cc3cc(OC)c(OC)c(OC)c3)C2=O)cc1 (3D coordinates assigned)
COc1ccc(/C=C2/CCCC(=Cc3cc(OC)c(OC)c(OC)c3)C2=O)cc1 (nonaromatic ring conformer: 72.5136056730785 kcal/mol)

>  <smiles>  (16) 
COc1ccc(C=C2CCCC(=Cc3cc(OC)c(OC)c(OC)c3)C2=O)cc1

>  <score_type>  (16) 
oracle

>  <origin>  (16) 
adg

>  <m_score__min__energy>  (16) 
-8.8599999999999994

>  <m_primary>  (16) 
energy

$$$$
16:0
     RDKit          3D

 31 33  0  0  0  0  0  0  0  0999 V2000
   -4.0540   23.9360  -27.6860 C   0  0  0  0  0  0  0  0  0  0  0  0
   -4.8320   24.0340  -28.9640 C   0  0  0  0  0  0  0  0  0  0  0  0
   -4.9790   22.9090  -29.7840 C   0  0  0  0  0  0  0  0  0  0  0  0
   -5.7450   23.0230  -30.9500 C   0  0  0  0  0  0  0  0  0  0  0  0
   -5.9130   21.8730  -31.8640 C   0  0  0  0  0  0  0  0  0  0  0  0
   -4.8210   21.2880  -32.5710 C   0  0  0  0  0  0  0  0  0  0  0  0
   -3.4130   21.7950  -32.4110 C   0  0  0  0  0  0  0  0  0  0  0  0
   -5.0580   20.2060  -33.4590 C   0  0  0  0  0  0  0  0  0  0  0  0
   -6.3470   19.6790  -33.6280 C   0  0  0  0  0  0  0  0  0  0  0  0
   -7.3860   20.2510  -32.9040 C   0  0  0  0  0  0  0  0  0  0  0  0
   -8.6830   19.9000  -32.9340 N   0  0  0  0  0  0  0  0  0  0  0  0
   -9.3150   20.7480  -32.0930 C   0  0  0  0  0  0  0  0  0  0  0  0
   -8.4140   21.6410  -31.5260 C   0  0  0  0  0  0  0  0  0  0  0  0
   -7.1810   21.3050  -32.0540 C   0  0  0  0  0  0  0  0  0  0  0  0
   -6.3160   24.2160  -31.2610 N   0  0  0  0  0  0  0  0  0  0  0  0
   -6.1760   25.2960  -30.4500 C   0  0  0  0  0  0  0  0  0  0  0  0
   -5.4480   25.2010  -29.3060 N   0  0  0  0  0  0  0  0  0  0  0  0
   -4.7408   24.0225  -26.8311 H   0  0  0  0  0  0  0  0  0  0  0  0
   -3.5375   22.9657  -27.6447 H   0  0  0  0  0  0  0  0  0  0  0  0
   -3.3130   24.7479  -27.6447 H   0  0  0  0  0  0  0  0  0  0  0  0
   -4.5020   21.9543  -29.5173 H   0  0  0  0  0  0  0  0  0  0  0  0
   -3.1737   21.8812  -31.3408 H   0  0  0  0  0  0  0  0  0  0  0  0
   -2.7138   21.0922  -32.8876 H   0  0  0  0  0  0  0  0  0  0  0  0
   -3.3224   22.7822  -32.8876 H   0  0  0  0  0  0  0  0  0  0  0  0
   -4.2181   19.7743  -34.0231 H   0  0  0  0  0  0  0  0  0  0  0  0
   -6.5298   18.8381  -34.3132 H   0  0  0  0  0  0  0  0  0  0  0  0
   -9.1180   19.1370  -33.4980 H   0  0  0  0  0  0  0  0  0  0  0  0
  -10.3952   20.7334  -31.8856 H   0  0  0  0  0  0  0  0  0  0  0  0
   -8.6349   22.4452  -30.8087 H   0  0  0  0  0  0  0  0  0  0  0  0
   -6.6528   26.2500  -30.7194 H   0  0  0  0  0  0  0  0  0  0  0  0
   -5.3630   26.0410  -28.6910 H   0  0  0  0  0  0  0  0  0  0  0  0
  1  2  1  0
  2  3  2  0
  3  4  1  0
  4  5  1  0
  5  6  2  0
  6  7  1  0
  6  8  1  0
  8  9  2  0
  9 10  1  0
 10 11  1  0
 11 12  1  0
 12 13  2  0
 13 14  1  0
  4 15  2  0
 15 16  1  0
 16 17  2  0
 17  2  1  0
 14  5  1  0
 14 10  2  0
  1 18  1  0
  1 19  1  0
  1 20  1  0
  3 21  1  0
  7 22  1  0
  7 23  1  0
  7 24  1  0
  8 25  1  0
  9 26  1  0
 11 27  1  0
 12 28  1  0
 13 29  1  0
 16 30  1  0
 17 31  1  0
M  CHG  1  17   1
M  END
>  <UniqueID>  (17) 
16

>  <SMILES>  (17) 
Cc1cc(-c2c(C)ccc3[nH]ccc23)nc[nH+]1

>  <Energy>  (17) 
71.95573550158748

>  <Genealogy>  (17) 
Cc1cc(-c2c(C)ccc3[nH]ccc23)nc[nH+]1 (protonated)
Cc1cc(-c2c(C)ccc3[nH]ccc23)nc[nH+]1 (3D coordinates assigned)
Cc1cc(-c2c(C)ccc3[nH]ccc23)nc[nH+]1 (optimized conformer: 71.95573550158748 kcal/mol)

>  <smiles>  (17) 
Cc1cc(-c2c(C)ccc3[nH]ccc23)ncn1

>  <score_type>  (17) 
oracle

>  <origin>  (17) 
adg

>  <m_score__min__energy>  (17) 
-7.0700000000000003

>  <m_primary>  (17) 
energy

$$$$
17:0
     RDKit          3D

 36 38  0  0  0  0  0  0  0  0999 V2000
   -7.1677   17.2592  -32.8314 H   0  0  0  0  0  0  0  0  0  0  0  0
   -7.0560   18.3470  -32.7120 C   0  0  0  0  0  0  0  0  0  0  0  0
   -8.1480   19.1210  -32.3050 C   0  0  0  0  0  0  0  0  0  0  0  0
   -9.1198   18.6429  -32.1124 H   0  0  0  0  0  0  0  0  0  0  0  0
   -8.0040   20.5030  -32.1430 C   0  0  0  0  0  0  0  0  0  0  0  0
   -9.4890   21.5570  -31.5690 Br  0  0  0  0  0  0  0  0  0  0  0  0
   -6.7700   21.1120  -32.3980 C   0  0  0  0  0  0  0  0  0  0  0  0
   -6.6528   22.1960  -32.2524 H   0  0  0  0  0  0  0  0  0  0  0  0
   -5.6840   20.3450  -32.8380 C   0  0  0  0  0  0  0  0  0  0  0  0
   -4.4100   20.9690  -33.0360 N   0  0  0  0  0  0  0  0  0  0  0  0
   -3.3210   20.8930  -32.3100 C   0  0  0  0  0  0  0  0  0  0  0  0
   -2.4160   19.7910  -32.3550 C   0  0  0  0  0  0  0  0  0  0  0  0
   -2.5040   18.7160  -33.3160 C   0  0  0  0  0  0  0  0  0  0  0  0
   -2.5700   17.8470  -34.0770 N   0  0  0  0  0  0  0  0  0  0  0  0
   -1.3080   19.7800  -31.5030 C   0  0  0  0  0  0  0  0  0  0  0  0
   -0.6203   18.9216  -31.5196 H   0  0  0  0  0  0  0  0  0  0  0  0
   -1.0680   20.8120  -30.6560 N   0  0  0  0  0  0  0  0  0  0  0  0
   -0.2230   20.7590  -30.0430 H   0  0  0  0  0  0  0  0  0  0  0  0
   -1.8770   21.9060  -30.6140 C   0  0  0  0  0  0  0  0  0  0  0  0
   -1.5770   22.9640  -29.7420 C   0  0  0  0  0  0  0  0  0  0  0  0
   -0.6874   22.9013  -29.0981 H   0  0  0  0  0  0  0  0  0  0  0  0
   -2.3990   24.1030  -29.6810 C   0  0  0  0  0  0  0  0  0  0  0  0
   -2.1170   25.1740  -28.8160 O   0  0  0  0  0  0  0  0  0  0  0  0
   -1.9880   25.0620  -27.4030 C   0  0  0  0  0  0  0  0  0  0  0  0
   -2.7322   25.7081  -26.9145 H   0  0  0  0  0  0  0  0  0  0  0  0
   -2.1549   24.0174  -27.1012 H   0  0  0  0  0  0  0  0  0  0  0  0
   -0.9772   25.3738  -27.1012 H   0  0  0  0  0  0  0  0  0  0  0  0
   -3.5350   24.1760  -30.5040 C   0  0  0  0  0  0  0  0  0  0  0  0
   -4.3920   25.3230  -30.4620 N   0  0  0  0  0  0  0  0  0  0  0  0
   -4.7210   25.7100  -29.5500 H   0  0  0  0  0  0  0  0  0  0  0  0
   -4.7100   25.7990  -31.3360 H   0  0  0  0  0  0  0  0  0  0  0  0
   -3.8390   23.1200  -31.3750 C   0  0  0  0  0  0  0  0  0  0  0  0
   -4.7320   23.1856  -32.0140 H   0  0  0  0  0  0  0  0  0  0  0  0
   -3.0190   21.9760  -31.4450 C   0  0  0  0  0  0  0  0  0  0  0  0
   -5.8240   18.9540  -32.9670 C   0  0  0  0  0  0  0  0  0  0  0  0
   -4.9621   18.3411  -33.2694 H   0  0  0  0  0  0  0  0  0  0  0  0
  1  2  1  0
  2  3  2  0
  3  4  1  0
  3  5  1  0
  5  6  1  0
  5  7  2  0
  7  8  1  0
  7  9  1  0
  9 10  1  0
 10 11  2  0
 11 12  1  0
 12 13  1  0
 13 14  3  0
 12 15  2  0
 15 16  1  0
 15 17  1  0
 17 18  1  0
 17 19  1  0
 19 20  2  0
 20 21  1  0
 20 22  1  0
 22 23  1  0
 23 24  1  0
 24 25  1  0
 24 26  1  0
 24 27  1  0
 22 28  2  0
 28 29  1  0
 29 30  1  0
 29 31  1  0
 28 32  1  0
 32 33  1  0
 32 34  2  0
  9 35  2  0
 35 36  1  0
 35  2  1  0
 34 11  1  0
 34 19  1  0
M  END
>  <UniqueID>  (18) 
17

>  <SMILES>  (18) 
COc1cc2[nH]cc(C#N)/c(=N\c3cccc(Br)c3)c2cc1N

>  <Energy>  (18) 
58.25622891102931

>  <Genealogy>  (18) 
COc1cc2[nH]cc(C#N)/c(=N\c3cccc(Br)c3)c2cc1N (cis-trans isomerization)
COc1cc2[nH]cc(C#N)/c(=N\c3cccc(Br)c3)c2cc1N (3D coordinates assigned)
COc1cc2[nH]cc(C#N)/c(=N\c3cccc(Br)c3)c2cc1N (optimized conformer: 58.25622891102931 kcal/mol)

>  <smiles>  (18) 
COc1cc2[nH]cc(C#N)c(=Nc3cccc(Br)c3)c2cc1N

>  <score_type>  (18) 
oracle

>  <origin>  (18) 
adg

>  <m_score__min__energy>  (18) 
-7.9000000000000004

>  <m_primary>  (18) 
energy

$$$$
18:0
     RDKit          3D

 53 58  0  0  0  0  0  0  0  0999 V2000
   -3.7280   12.2580  -37.1490 C   0  0  0  0  0  0  0  0  0  0  0  0
   -2.9660   13.0680  -36.2600 O   0  0  0  0  0  0  0  0  0  0  0  0
   -3.4110   14.2810  -35.7160 C   0  0  0  0  0  0  0  0  0  0  0  0
   -4.4540   14.2500  -34.7830 C   0  0  0  0  0  0  0  0  0  0  0  0
   -4.9330   15.4320  -34.2110 C   0  0  0  0  0  0  0  0  0  0  0  0
   -4.3740   16.6730  -34.5630 C   0  0  0  0  0  0  0  0  0  0  0  0
   -4.8770   17.9290  -33.9510 C   0  0  0  0  0  0  0  0  0  0  0  0
   -6.1070   18.4770  -34.3570 C   0  0  0  0  0  0  0  0  0  0  0  0
   -6.5850   19.6570  -33.7830 C   0  0  0  0  0  0  0  0  0  0  0  0
   -5.8440   20.3090  -32.7930 C   0  0  0  0  0  0  0  0  0  0  0  0
   -6.3140   21.4290  -32.2540 O   0  0  0  0  0  0  0  0  0  0  0  0
   -5.6650   22.1010  -31.3090 C   0  0  0  0  0  0  0  0  0  0  0  0
   -6.2220   23.2720  -30.7900 C   0  0  0  0  0  0  0  0  0  0  0  0
   -5.5530   23.9910  -29.7960 C   0  0  0  0  0  0  0  0  0  0  0  0
   -4.3130   23.5470  -29.3040 C   0  0  0  0  0  0  0  0  0  0  0  0
   -3.6040   24.3150  -28.2480 C   0  0  0  0  0  0  0  0  0  0  0  0
   -4.2400   24.6000  -27.0260 C   0  0  0  0  0  0  0  0  0  0  0  0
   -3.5780   25.3170  -26.0280 C   0  0  0  0  0  0  0  0  0  0  0  0
   -2.2650   25.7650  -26.2320 C   0  0  0  0  0  0  0  0  0  0  0  0
   -1.5900   26.4840  -25.2340 C   0  0  0  0  0  0  0  0  0  0  0  0
   -0.2810   26.9220  -25.4490 C   0  0  0  0  0  0  0  0  0  0  0  0
    0.3620   26.6490  -26.6580 C   0  0  0  0  0  0  0  0  0  0  0  0
   -0.2980   25.9320  -27.6610 C   0  0  0  0  0  0  0  0  0  0  0  0
   -1.6140   25.4860  -27.4570 C   0  0  0  0  0  0  0  0  0  0  0  0
   -2.2870   24.7650  -28.4550 C   0  0  0  0  0  0  0  0  0  0  0  0
   -3.7510   22.3680  -29.8280 C   0  0  0  0  0  0  0  0  0  0  0  0
   -4.4200   21.6390  -30.8290 C   0  0  0  0  0  0  0  0  0  0  0  0
   -3.8870   20.4570  -31.3730 C   0  0  0  0  0  0  0  0  0  0  0  0
   -2.7760   20.0120  -30.9700 O   0  0  0  0  0  0  0  0  0  0  0  0
   -4.6060   19.7750  -32.3720 C   0  0  0  0  0  0  0  0  0  0  0  0
   -4.1310   18.5860  -32.9560 C   0  0  0  0  0  0  0  0  0  0  0  0
   -3.3280   16.7040  -35.5030 C   0  0  0  0  0  0  0  0  0  0  0  0
   -2.8500   15.5210  -36.0750 C   0  0  0  0  0  0  0  0  0  0  0  0
   -4.3680   11.5777  -36.5679 H   0  0  0  0  0  0  0  0  0  0  0  0
   -4.3566   12.9006  -37.7830 H   0  0  0  0  0  0  0  0  0  0  0  0
   -3.0482   11.6698  -37.7830 H   0  0  0  0  0  0  0  0  0  0  0  0
   -4.9009   13.2863  -34.4973 H   0  0  0  0  0  0  0  0  0  0  0  0
   -5.7537   15.3909  -33.4797 H   0  0  0  0  0  0  0  0  0  0  0  0
   -6.6984   17.9711  -35.1344 H   0  0  0  0  0  0  0  0  0  0  0  0
   -7.5482   20.0750  -34.1111 H   0  0  0  0  0  0  0  0  0  0  0  0
   -7.1920   23.6299  -31.1656 H   0  0  0  0  0  0  0  0  0  0  0  0
   -6.0004   24.9124  -29.3949 H   0  0  0  0  0  0  0  0  0  0  0  0
   -5.2701   24.2541  -26.8551 H   0  0  0  0  0  0  0  0  0  0  0  0
   -4.0884   25.5315  -25.0775 H   0  0  0  0  0  0  0  0  0  0  0  0
   -2.0925   26.7032  -24.2804 H   0  0  0  0  0  0  0  0  0  0  0  0
    0.2450   27.4839  -24.6631 H   0  0  0  0  0  0  0  0  0  0  0  0
    1.3917   26.9993  -26.8222 H   0  0  0  0  0  0  0  0  0  0  0  0
    0.2141   25.7172  -28.6105 H   0  0  0  0  0  0  0  0  0  0  0  0
   -1.7806   24.5497  -29.4075 H   0  0  0  0  0  0  0  0  0  0  0  0
   -2.7802   22.0130  -29.4519 H   0  0  0  0  0  0  0  0  0  0  0  0
   -3.1673   18.1666  -32.6313 H   0  0  0  0  0  0  0  0  0  0  0  0
   -2.8821   17.6675  -35.7907 H   0  0  0  0  0  0  0  0  0  0  0  0
   -2.0316   15.5596  -36.8090 H   0  0  0  0  0  0  0  0  0  0  0  0
  1  2  1  0
  2  3  1  0
  3  4  2  0
  4  5  1  0
  5  6  2  0
  6  7  1  0
  7  8  2  0
  8  9  1  0
  9 10  2  0
 10 11  1  0
 11 12  1  0
 12 13  2  0
 13 14  1  0
 14 15  2  0
 15 16  1  0
 16 17  2  0
 17 18  1  0
 18 19  2  0
 19 20  1  0
 20 21  2  0
 21 22  1  0
 22 23  2  0
 23 24  1  0
 24 25  2  0
 15 26  1  0
 26 27  2  0
 27 28  1  0
 28 29  2  0
 28 30  1  0
 30 31  2  0
  6 32  1  0
 32 33  2  0
 33  3  1  0
 31  7  1  0
 30 10  1  0
 27 12  1  0
 25 16  1  0
 24 19  1  0
  1 34  1  0
  1 35  1  0
  1 36  1  0
  4 37  1  0
  5 38  1  0
  8 39  1  0
  9 40  1  0
 13 41  1  0
 14 42  1  0
 17 43  1  0
 18 44  1  0
 20 45  1  0
 21 46  1  0
 22 47  1  0
 23 48  1  0
 25 49  1  0
 26 50  1  0
 31 51  1  0
 32 52  1  0
 33 53  1  0
M  END
>  <UniqueID>  (19) 
18

>  <SMILES>  (19) 
COc1ccc(-c2ccc3oc4ccc(-c5ccc6ccccc6c5)cc4c(=O)c3c2)cc1

>  <Energy>  (19) 
83.89541516846072

>  <Genealogy>  (19) 
COc1ccc(-c2ccc3oc4ccc(-c5ccc6ccccc6c5)cc4c(=O)c3c2)cc1 (3D coordinates assigned)
COc1ccc(-c2ccc3oc4ccc(-c5ccc6ccccc6c5)cc4c(=O)c3c2)cc1 (optimized conformer: 83.89541516846072 kcal/mol)

>  <smiles>  (19) 
COc1ccc(-c2ccc3oc4ccc(-c5ccc6ccccc6c5)cc4c(=O)c3c2)cc1

>  <score_type>  (19) 
oracle

>  <origin>  (19) 
adg

>  <m_score__min__energy>  (19) 
-8.5099999999999998

>  <m_primary>  (19) 
energy

$$$$
19:0
     RDKit          3D

 52 56  0  0  0  0  0  0  0  0999 V2000
   -4.4860   24.9230  -31.0470 O   0  0  0  0  0  0  0  0  0  0  0  0
   -4.9830   23.6040  -31.0210 C   0  0  0  0  0  0  0  0  0  0  0  0
   -3.7930   22.6150  -30.8810 C   0  0  0  0  0  0  0  0  0  0  0  0
   -4.1400   21.5690  -30.0440 F   0  0  0  0  0  0  0  0  0  0  0  0
   -3.4380   22.0960  -32.1150 F   0  0  0  0  0  0  0  0  0  0  0  0
   -2.6910   23.2570  -30.3420 F   0  0  0  0  0  0  0  0  0  0  0  0
   -5.7600   23.3190  -32.3420 C   0  0  0  0  0  0  0  0  0  0  0  0
   -7.2130   23.8040  -32.2500 C   0  0  0  0  0  0  0  0  0  0  0  0
   -7.9690   23.1220  -31.1690 N   0  0  0  0  0  0  0  0  0  0  0  0
   -8.9590   22.1390  -31.6620 C   0  0  0  0  0  0  0  0  0  0  0  0
   -8.3610   20.7880  -31.9470 C   0  0  0  0  0  0  0  0  0  0  0  0
   -8.9680   19.5670  -31.7150 C   0  0  0  0  0  0  0  0  0  0  0  0
   -8.0730   18.6140  -32.1530 C   0  0  0  0  0  0  0  0  0  0  0  0
   -6.9780   19.3150  -32.6230 C   0  0  0  0  0  0  0  0  0  0  0  0
   -5.7590   18.7390  -33.2090 C   0  0  0  0  0  0  0  0  0  0  0  0
   -4.4900   19.3160  -33.1760 C   0  0  0  0  0  0  0  0  0  0  0  0
   -3.6670   18.4260  -33.8460 C   0  0  0  0  0  0  0  0  0  0  0  0
   -2.3020   18.4590  -34.1710 C   0  0  0  0  0  0  0  0  0  0  0  0
   -1.3960   19.5460  -33.7340 C   0  0  0  0  0  0  0  0  0  0  0  0
   -0.5640   20.2970  -34.5630 C   0  0  0  0  0  0  0  0  0  0  0  0
    0.2270   21.2210  -33.8700 C   0  0  0  0  0  0  0  0  0  0  0  0
    0.0370   21.2010  -32.4950 C   0  0  0  0  0  0  0  0  0  0  0  0
   -1.1160   20.0300  -32.1460 S   0  0  0  0  0  0  0  0  0  0  0  0
   -1.8090   17.3810  -34.9400 C   0  0  0  0  0  0  0  0  0  0  0  0
   -2.6700   16.3350  -35.3360 C   0  0  0  0  0  0  0  0  0  0  0  0
   -3.9890   16.3510  -34.9860 N   0  0  0  0  0  0  0  0  0  0  0  0
   -4.4650   17.3890  -34.2530 C   0  0  0  0  0  0  0  0  0  0  0  0
   -5.7400   17.5580  -33.8700 N   0  0  0  0  0  0  0  0  0  0  0  0
   -7.1760   20.6060  -32.4830 O   0  0  0  0  0  0  0  0  0  0  0  0
   -7.1400   22.5900  -30.0620 C   0  0  0  0  0  0  0  0  0  0  0  0
   -5.9280   23.4900  -29.7870 C   0  0  0  0  0  0  0  0  0  0  0  0
   -3.5100   24.8900  -31.2260 H   0  0  0  0  0  0  0  0  0  0  0  0
   -5.2600   23.8406  -33.1714 H   0  0  0  0  0  0  0  0  0  0  0  0
   -5.7669   22.2324  -32.5132 H   0  0  0  0  0  0  0  0  0  0  0  0
   -7.2126   24.8861  -32.0525 H   0  0  0  0  0  0  0  0  0  0  0  0
   -7.7065   23.5692  -33.2046 H   0  0  0  0  0  0  0  0  0  0  0  0
   -9.7434   22.0205  -30.9000 H   0  0  0  0  0  0  0  0  0  0  0  0
   -9.3597   22.5260  -32.6105 H   0  0  0  0  0  0  0  0  0  0  0  0
   -9.9598   19.3923  -31.2725 H   0  0  0  0  0  0  0  0  0  0  0  0
   -8.2033   17.5219  -32.1327 H   0  0  0  0  0  0  0  0  0  0  0  0
   -4.2037   20.2734  -32.7161 H   0  0  0  0  0  0  0  0  0  0  0  0
   -0.5321   20.1753  -35.6558 H   0  0  0  0  0  0  0  0  0  0  0  0
    0.9339   21.9002  -34.3690 H   0  0  0  0  0  0  0  0  0  0  0  0
    0.5514   21.8401  -31.7622 H   0  0  0  0  0  0  0  0  0  0  0  0
   -0.7486   17.3568  -35.2316 H   0  0  0  0  0  0  0  0  0  0  0  0
   -2.2743   15.4994  -35.9321 H   0  0  0  0  0  0  0  0  0  0  0  0
   -4.6230   15.5780  -35.2870 H   0  0  0  0  0  0  0  0  0  0  0  0
   -6.5460   16.9210  -34.0560 H   0  0  0  0  0  0  0  0  0  0  0  0
   -7.7547   22.5296  -29.1518 H   0  0  0  0  0  0  0  0  0  0  0  0
   -6.7729   21.5945  -30.3522 H   0  0  0  0  0  0  0  0  0  0  0  0
   -6.2870   24.4955  -29.5224 H   0  0  0  0  0  0  0  0  0  0  0  0
   -5.3539   23.0387  -28.9644 H   0  0  0  0  0  0  0  0  0  0  0  0
  1  2  1  0
  2  3  1  0
  3  4  1  0
  3  5  1  0
  3  6  1  0
  2  7  1  0
  7  8  1  0
  8  9  1  0
  9 10  1  0
 10 11  1  0
 11 12  2  0
 12 13  1  0
 13 14  2  0
 14 15  1  0
 15 16  2  0
 16 17  1  0
 17 18  2  0
 18 19  1  0
 19 20  2  0
 20 21  1  0
 21 22  2  0
 22 23  1  0
 18 24  1  0
 24 25  2  0
 25 26  1  0
 26 27  2  0
 27 28  1  0
 14 29  1  0
  9 30  1  0
 30 31  1  0
 31  2  1  0
 29 11  1  0
 28 15  1  0
 27 17  1  0
 23 19  1  0
  1 32  1  0
  7 33  1  0
  7 34  1  0
  8 35  1  0
  8 36  1  0
 10 37  1  0
 10 38  1  0
 12 39  1  0
 13 40  1  0
 16 41  1  0
 20 42  1  0
 21 43  1  0
 22 44  1  0
 24 45  1  0
 25 46  1  0
 26 47  1  0
 28 48  1  0
 30 49  1  0
 30 50  1  0
 31 51  1  0
 31 52  1  0
M  CHG  1  26   1
M  END
>  <UniqueID>  (20) 
19

>  <SMILES>  (20) 
OC1(C(F)(F)F)CCN(Cc2ccc(-c3cc4c(-c5cccs5)cc[nH+]c4[nH]3)o2)CC1

>  <Energy>  (20) 
156.69409461812882

>  <Genealogy>  (20) 
OC1(C(F)(F)F)CCN(Cc2ccc(-c3cc4c(-c5cccs5)cc[nH+]c4[nH]3)o2)CC1 (protonated)
OC1(C(F)(F)F)CCN(Cc2ccc(-c3cc4c(-c5cccs5)cc[nH+]c4[nH]3)o2)CC1 (3D coordinates assigned)
OC1(C(F)(F)F)CCN(Cc2ccc(-c3cc4c(-c5cccs5)cc[nH+]c4[nH]3)o2)CC1 (nonaromatic ring conformer: 156.69409461812882 kcal/mol)

>  <smiles>  (20) 
OC1(C(F)(F)F)CCN(Cc2ccc(-c3cc4c(-c5cccs5)ccnc4[nH]3)o2)CC1

>  <score_type>  (20) 
oracle

>  <origin>  (20) 
adg

>  <m_score__min__energy>  (20) 
-8.8000000000000007

>  <m_primary>  (20) 
energy

$$$$
20:0
     RDKit          3D

 44 46  0  0  0  0  0  0  0  0999 V2000
   -6.7320   25.2330  -29.7780 C   0  0  0  0  0  0  0  0  0  0  0  0
   -5.8850   24.1960  -30.3770 N   0  0  0  0  0  0  0  0  0  0  0  0
   -4.4440   24.2820  -30.3260 C   0  0  0  0  0  0  0  0  0  0  0  0
   -3.8620   25.3010  -30.7880 O   0  0  0  0  0  0  0  0  0  0  0  0
   -3.6190   23.2050  -29.7350 C   0  0  0  0  0  0  0  0  0  0  0  0
   -3.8560   22.7540  -28.4250 C   0  0  0  0  0  0  0  0  0  0  0  0
   -3.0590   21.7480  -27.8700 C   0  0  0  0  0  0  0  0  0  0  0  0
   -2.0140   21.1920  -28.6120 C   0  0  0  0  0  0  0  0  0  0  0  0
   -1.7590   21.6480  -29.9080 C   0  0  0  0  0  0  0  0  0  0  0  0
   -2.5520   22.6550  -30.4670 C   0  0  0  0  0  0  0  0  0  0  0  0
   -6.5220   23.0950  -31.0470 C   0  0  0  0  0  0  0  0  0  0  0  0
   -7.9140   22.9410  -30.9750 C   0  0  0  0  0  0  0  0  0  0  0  0
   -8.5370   21.8700  -31.6170 C   0  0  0  0  0  0  0  0  0  0  0  0
   -7.7770   20.9390  -32.3300 C   0  0  0  0  0  0  0  0  0  0  0  0
   -6.3790   21.0680  -32.4020 C   0  0  0  0  0  0  0  0  0  0  0  0
   -5.5940   20.1050  -33.1340 N   0  0  0  0  0  0  0  0  0  0  0  0
   -4.1730   20.3640  -33.4080 C   0  0  0  0  0  0  0  0  0  0  0  0
   -3.3460   19.0610  -33.4150 C   0  0  0  0  0  0  0  0  0  0  0  0
   -4.1050   17.8590  -33.8290 N   0  0  0  0  0  0  0  0  0  0  0  0
   -5.2830   18.1730  -34.6460 C   0  0  0  0  0  0  0  0  0  0  0  0
   -6.2760   19.0050  -33.8290 C   0  0  0  0  0  0  0  0  0  0  0  0
   -5.7590   22.1530  -31.7530 C   0  0  0  0  0  0  0  0  0  0  0  0
   -6.6758   25.1642  -28.6816 H   0  0  0  0  0  0  0  0  0  0  0  0
   -6.3821   26.2244  -30.1016 H   0  0  0  0  0  0  0  0  0  0  0  0
   -7.7733   25.0881  -30.1016 H   0  0  0  0  0  0  0  0  0  0  0  0
   -4.6723   23.1945  -27.8336 H   0  0  0  0  0  0  0  0  0  0  0  0
   -3.2552   21.3937  -26.8473 H   0  0  0  0  0  0  0  0  0  0  0  0
   -1.3924   20.3959  -28.1764 H   0  0  0  0  0  0  0  0  0  0  0  0
   -0.9326   21.2138  -30.4898 H   0  0  0  0  0  0  0  0  0  0  0  0
   -2.3402   23.0183  -31.4834 H   0  0  0  0  0  0  0  0  0  0  0  0
   -8.5171   23.6672  -30.4103 H   0  0  0  0  0  0  0  0  0  0  0  0
   -9.6299   21.7583  -31.5616 H   0  0  0  0  0  0  0  0  0  0  0  0
   -8.2756   20.1003  -32.8379 H   0  0  0  0  0  0  0  0  0  0  0  0
   -4.0822   20.8491  -34.3911 H   0  0  0  0  0  0  0  0  0  0  0  0
   -3.7829   21.0133  -32.6104 H   0  0  0  0  0  0  0  0  0  0  0  0
   -2.5029   19.1920  -34.1093 H   0  0  0  0  0  0  0  0  0  0  0  0
   -3.0232   18.8876  -32.3778 H   0  0  0  0  0  0  0  0  0  0  0  0
   -4.4120   17.3310  -32.9780 H   0  0  0  0  0  0  0  0  0  0  0  0
   -3.4740   17.2300  -34.3790 H   0  0  0  0  0  0  0  0  0  0  0  0
   -4.9705   18.7446  -35.5324 H   0  0  0  0  0  0  0  0  0  0  0  0
   -5.7668   17.2363  -34.9598 H   0  0  0  0  0  0  0  0  0  0  0  0
   -7.0366   19.4231  -34.5048 H   0  0  0  0  0  0  0  0  0  0  0  0
   -6.7450   18.3528  -33.0776 H   0  0  0  0  0  0  0  0  0  0  0  0
   -4.6655   22.2630  -31.8001 H   0  0  0  0  0  0  0  0  0  0  0  0
  1  2  1  0
  2  3  1  0
  3  4  2  0
  3  5  1  0
  5  6  2  0
  6  7  1  0
  7  8  2  0
  8  9  1  0
  9 10  2  0
  2 11  1  0
 11 12  2  0
 12 13  1  0
 13 14  2  0
 14 15  1  0
 15 16  1  0
 16 17  1  0
 17 18  1  0
 18 19  1  0
 19 20  1  0
 20 21  1  0
 15 22  2  0
 10  5  1  0
 22 11  1  0
 21 16  1  0
  1 23  1  0
  1 24  1  0
  1 25  1  0
  6 26  1  0
  7 27  1  0
  8 28  1  0
  9 29  1  0
 10 30  1  0
 12 31  1  0
 13 32  1  0
 14 33  1  0
 17 34  1  0
 17 35  1  0
 18 36  1  0
 18 37  1  0
 19 38  1  0
 19 39  1  0
 20 40  1  0
 20 41  1  0
 21 42  1  0
 21 43  1  0
 22 44  1  0
M  CHG  1  19   1
M  END
>  <UniqueID>  (21) 
20

>  <SMILES>  (21) 
CN(C(=O)c1ccccc1)c1cccc(N2CC[NH2+]CC2)c1

>  <Energy>  (21) 
64.47112580135759

>  <Genealogy>  (21) 
CN(C(=O)c1ccccc1)c1cccc(N2CC[NH2+]CC2)c1 (protonated)
CN(C(=O)c1ccccc1)c1cccc(N2CC[NH2+]CC2)c1 (3D coordinates assigned)
CN(C(=O)c1ccccc1)c1cccc(N2CC[NH2+]CC2)c1 (nonaromatic ring conformer: 64.47112580135759 kcal/mol)

>  <smiles>  (21) 
CN(C(=O)c1ccccc1)c1cccc(N2CCNCC2)c1

>  <score_type>  (21) 
oracle

>  <origin>  (21) 
adg

>  <m_score__min__energy>  (21) 
-8.4600000000000009

>  <m_primary>  (21) 
energy

$$$$
21:0
     RDKit          3D

 36 38  0  0  0  0  0  0  0  0999 V2000
   -4.1870   24.5630  -26.7600 C   0  0  0  0  0  0  0  0  0  0  0  0
   -3.2250   23.9010  -27.7030 C   0  0  0  0  0  0  0  0  0  0  0  0
   -2.0860   23.2200  -27.2430 C   0  0  0  0  0  0  0  0  0  0  0  0
   -1.3390   22.6290  -28.2530 C   0  0  0  0  0  0  0  0  0  0  0  0
   -2.0850   22.9600  -29.7200 S   0  0  0  0  0  0  0  0  0  0  0  0
   -3.3550   23.8720  -29.0970 C   0  0  0  0  0  0  0  0  0  0  0  0
   -4.4160   24.4730  -29.9260 C   0  0  0  0  0  0  0  0  0  0  0  0
   -4.0990   25.2940  -30.8270 O   0  0  0  0  0  0  0  0  0  0  0  0
   -5.7980   24.1660  -29.6920 N   0  0  0  0  0  0  0  0  0  0  0  0
   -6.8470   24.5390  -30.6360 C   0  0  0  0  0  0  0  0  0  0  0  0
   -7.3060   23.3270  -31.3850 C   0  0  0  0  0  0  0  0  0  0  0  0
   -8.5870   23.0450  -31.8100 C   0  0  0  0  0  0  0  0  0  0  0  0
   -8.6130   21.8010  -32.3270 N   0  0  0  0  0  0  0  0  0  0  0  0
   -7.3910   21.2910  -32.2350 N   0  0  0  0  0  0  0  0  0  0  0  0
   -7.0490   19.9590  -32.6680 C   0  0  0  0  0  0  0  0  0  0  0  0
   -6.2140   19.7450  -33.7840 C   0  0  0  0  0  0  0  0  0  0  0  0
   -5.8960   18.4440  -34.1900 C   0  0  0  0  0  0  0  0  0  0  0  0
   -6.4040   17.3470  -33.4930 C   0  0  0  0  0  0  0  0  0  0  0  0
   -7.2360   17.5450  -32.3890 C   0  0  0  0  0  0  0  0  0  0  0  0
   -7.5590   18.8420  -31.9790 C   0  0  0  0  0  0  0  0  0  0  0  0
   -6.5710   22.1940  -31.6530 C   0  0  0  0  0  0  0  0  0  0  0  0
   -3.8853   24.3554  -25.7228 H   0  0  0  0  0  0  0  0  0  0  0  0
   -4.1812   25.6493  -26.9331 H   0  0  0  0  0  0  0  0  0  0  0  0
   -5.1995   24.1695  -26.9331 H   0  0  0  0  0  0  0  0  0  0  0  0
   -1.8109   23.1604  -26.1796 H   0  0  0  0  0  0  0  0  0  0  0  0
   -0.4172   22.0446  -28.1157 H   0  0  0  0  0  0  0  0  0  0  0  0
   -6.0800   23.8280  -28.7450 H   0  0  0  0  0  0  0  0  0  0  0  0
   -7.6958   24.9727  -30.0869 H   0  0  0  0  0  0  0  0  0  0  0  0
   -6.4507   25.2785  -31.3474 H   0  0  0  0  0  0  0  0  0  0  0  0
   -9.4483   23.7255  -31.7386 H   0  0  0  0  0  0  0  0  0  0  0  0
   -5.8105   20.6052  -34.3383 H   0  0  0  0  0  0  0  0  0  0  0  0
   -5.2435   18.2856  -35.0613 H   0  0  0  0  0  0  0  0  0  0  0  0
   -6.1490   16.3260  -33.8133 H   0  0  0  0  0  0  0  0  0  0  0  0
   -7.6376   16.6796  -31.8414 H   0  0  0  0  0  0  0  0  0  0  0  0
   -8.2174   18.9911  -31.1105 H   0  0  0  0  0  0  0  0  0  0  0  0
   -5.5032   22.0491  -31.4321 H   0  0  0  0  0  0  0  0  0  0  0  0
  1  2  1  0
  2  3  1  0
  3  4  2  0
  4  5  1  0
  5  6  1  0
  6  7  1  0
  7  8  2  0
  7  9  1  0
  9 10  1  0
 10 11  1  0
 11 12  1  0
 12 13  2  0
 13 14  1  0
 14 15  1  0
 15 16  2  0
 16 17  1  0
 17 18  2  0
 18 19  1  0
 19 20  2  0
 14 21  1  0
  6  2  2  0
 21 11  2  0
 20 15  1  0
  1 22  1  0
  1 23  1  0
  1 24  1  0
  3 25  1  0
  4 26  1  0
  9 27  1  0
 10 28  1  0
 10 29  1  0
 12 30  1  0
 16 31  1  0
 17 32  1  0
 18 33  1  0
 19 34  1  0
 20 35  1  0
 21 36  1  0
M  END
>  <UniqueID>  (22) 
21

>  <SMILES>  (22) 
Cc1ccsc1C(=O)NCc1cnn(-c2ccccc2)c1

>  <Energy>  (22) 
96.157703716522

>  <Genealogy>  (22) 
Cc1ccsc1C(=O)NCc1cnn(-c2ccccc2)c1 (3D coordinates assigned)
Cc1ccsc1C(=O)NCc1cnn(-c2ccccc2)c1 (optimized conformer: 96.157703716522 kcal/mol)

>  <smiles>  (22) 
Cc1ccsc1C(=O)NCc1cnn(-c2ccccc2)c1

>  <score_type>  (22) 
oracle

>  <origin>  (22) 
adg

>  <m_score__min__energy>  (22) 
-8.6799999999999997

>  <m_primary>  (22) 
energy

$$$$
22:0
     RDKit          3D

 44 46  0  0  0  0  0  0  0  0999 V2000
   -5.6610   15.1560  -33.8420 C   0  0  0  0  0  0  0  0  0  0  0  0
   -6.8570   16.1070  -33.9060 C   0  0  0  0  0  0  0  0  0  0  0  0
   -6.5760   17.4560  -33.2030 C   0  0  2  0  0  0  0  0  0  0  0  0
   -7.8890   18.0710  -32.6690 C   0  0  0  0  0  0  0  0  0  0  0  0
   -7.7430   19.4390  -32.0870 N   0  0  0  0  0  0  0  0  0  0  0  0
   -8.7940   20.3450  -32.5900 C   0  0  0  0  0  0  0  0  0  0  0  0
   -8.8630   21.6010  -31.7300 C   0  0  0  0  0  0  0  0  0  0  0  0
   -7.5100   22.2370  -31.5740 C   0  0  0  0  0  0  0  0  0  0  0  0
   -7.4280   23.5740  -31.1600 C   0  0  0  0  0  0  0  0  0  0  0  0
   -6.1800   24.1780  -30.9240 C   0  0  0  0  0  0  0  0  0  0  0  0
   -6.0650   25.5180  -30.5200 O   0  0  0  0  0  0  0  0  0  0  0  0
   -6.4870   26.0200  -29.2560 C   0  0  0  0  0  0  0  0  0  0  0  0
   -5.0060   23.4310  -31.0880 C   0  0  0  0  0  0  0  0  0  0  0  0
   -3.7750   24.0600  -30.8430 O   0  0  0  0  0  0  0  0  0  0  0  0
   -2.9360   23.7870  -29.7250 C   0  0  0  0  0  0  0  0  0  0  0  0
   -5.0900   22.0840  -31.4880 C   0  0  0  0  0  0  0  0  0  0  0  0
   -6.3340   21.4800  -31.7330 C   0  0  0  0  0  0  0  0  0  0  0  0
   -6.3820   20.0330  -32.1990 C   0  0  2  0  0  0  0  0  0  0  0  0
   -5.8100   19.9000  -33.6270 C   0  0  0  0  0  0  0  0  0  0  0  0
   -5.9170   18.4810  -34.1010 C   0  0  0  0  0  0  0  0  0  0  0  0
   -5.4700   18.1790  -35.1970 O   0  0  0  0  0  0  0  0  0  0  0  0
   -5.4082   14.9550  -32.7905 H   0  0  0  0  0  0  0  0  0  0  0  0
   -5.9163   14.2115  -34.3447 H   0  0  0  0  0  0  0  0  0  0  0  0
   -4.7983   15.6175  -34.3447 H   0  0  0  0  0  0  0  0  0  0  0  0
   -7.0972   16.3020  -34.9616 H   0  0  0  0  0  0  0  0  0  0  0  0
   -7.6969   15.6253  -33.3839 H   0  0  0  0  0  0  0  0  0  0  0  0
   -5.8808   17.2191  -32.3841 H   0  0  0  0  0  0  0  0  0  0  0  0
   -8.6053   18.1271  -33.5019 H   0  0  0  0  0  0  0  0  0  0  0  0
   -8.2289   17.4187  -31.8510 H   0  0  0  0  0  0  0  0  0  0  0  0
   -8.5637   20.6276  -33.6278 H   0  0  0  0  0  0  0  0  0  0  0  0
   -9.7638   19.8277  -32.5476 H   0  0  0  0  0  0  0  0  0  0  0  0
   -9.5444   22.3223  -32.2048 H   0  0  0  0  0  0  0  0  0  0  0  0
   -9.2276   21.3163  -30.7320 H   0  0  0  0  0  0  0  0  0  0  0  0
   -8.3499   24.1570  -31.0182 H   0  0  0  0  0  0  0  0  0  0  0  0
   -6.0033   25.4446  -28.4529 H   0  0  0  0  0  0  0  0  0  0  0  0
   -6.2043   27.0795  -29.1693 H   0  0  0  0  0  0  0  0  0  0  0  0
   -7.5793   25.9237  -29.1693 H   0  0  0  0  0  0  0  0  0  0  0  0
   -3.4942   23.9686  -28.7947 H   0  0  0  0  0  0  0  0  0  0  0  0
   -2.6108   22.7367  -29.7584 H   0  0  0  0  0  0  0  0  0  0  0  0
   -2.0550   24.4448  -29.7584 H   0  0  0  0  0  0  0  0  0  0  0  0
   -4.1683   21.4962  -31.6104 H   0  0  0  0  0  0  0  0  0  0  0  0
   -5.7422   19.4501  -31.5201 H   0  0  0  0  0  0  0  0  0  0  0  0
   -6.3764   20.5533  -34.3070 H   0  0  0  0  0  0  0  0  0  0  0  0
   -4.7502   20.1946  -33.6166 H   0  0  0  0  0  0  0  0  0  0  0  0
  1  2  1  0
  2  3  1  0
  3  4  1  0
  4  5  1  0
  5  6  1  0
  6  7  1  0
  7  8  1  0
  8  9  2  0
  9 10  1  0
 10 11  1  0
 11 12  1  0
 10 13  2  0
 13 14  1  0
 14 15  1  0
 13 16  1  0
 16 17  2  0
 17 18  1  0
 18 19  1  0
 19 20  1  0
 20 21  2  0
 20  3  1  0
 18  5  1  0
 17  8  1  0
  1 22  1  0
  1 23  1  0
  1 24  1  0
  2 25  1  0
  2 26  1  0
  3 27  1  1
  4 28  1  0
  4 29  1  0
  6 30  1  0
  6 31  1  0
  7 32  1  0
  7 33  1  0
  9 34  1  0
 12 35  1  0
 12 36  1  0
 12 37  1  0
 15 38  1  0
 15 39  1  0
 15 40  1  0
 16 41  1  0
 18 42  1  1
 19 43  1  0
 19 44  1  0
M  END
>  <UniqueID>  (23) 
22

>  <SMILES>  (23) 
CC[C@@H]1CN2CCc3cc(OC)c(OC)cc3[C@@H]2CC1=O

>  <Energy>  (23) 
52.853488161644364

>  <Genealogy>  (23) 
CC[C@@H]1CN2CCc3cc(OC)c(OC)cc3[C@@H]2CC1=O (chirality)
CC[C@@H]1CN2CCc3cc(OC)c(OC)cc3[C@@H]2CC1=O (3D coordinates assigned)
CC[C@@H]1CN2CCc3cc(OC)c(OC)cc3[C@@H]2CC1=O (nonaromatic ring conformer: 52.853488161644364 kcal/mol)

>  <smiles>  (23) 
CCC1CN2CCc3cc(OC)c(OC)cc3C2CC1=O

>  <score_type>  (23) 
oracle

>  <origin>  (23) 
adg

>  <m_score__min__energy>  (23) 
-8.4800000000000004

>  <m_primary>  (23) 
energy

$$$$
23:0
     RDKit          3D

 57 60  0  0  0  0  0  0  0  0999 V2000
   -9.8360   19.3470  -33.0690 C   0  0  0  0  0  0  0  0  0  0  0  0
   -8.7830   18.4190  -32.8220 O   0  0  0  0  0  0  0  0  0  0  0  0
   -7.4460   18.7780  -32.6020 C   0  0  0  0  0  0  0  0  0  0  0  0
   -7.0150   20.0360  -33.0400 C   0  0  0  0  0  0  0  0  0  0  0  0
   -5.6900   20.4390  -32.8480 C   0  0  0  0  0  0  0  0  0  0  0  0
   -4.7710   19.5860  -32.2150 C   0  0  0  0  0  0  0  0  0  0  0  0
   -3.3630   20.0090  -32.0080 C   0  0  0  0  0  0  0  0  0  0  0  0
   -3.0710   21.1010  -31.1820 C   0  0  0  0  0  0  0  0  0  0  0  0
   -1.7800   21.5140  -30.9810 N   0  0  0  0  0  0  0  0  0  0  0  0
   -1.5170   22.6870  -30.1130 C   0  0  2  0  0  0  0  0  0  0  0  0
   -0.0910   22.6410  -29.5140 C   0  0  0  0  0  0  0  0  0  0  0  0
    0.3100   23.8900  -28.9480 O   0  0  0  0  0  0  0  0  0  0  0  0
   -0.3850   24.5350  -27.9240 C   0  0  0  0  0  0  0  0  0  0  0  0
   -1.6320   25.0120  -28.0510 C   0  0  0  0  0  0  0  0  0  0  0  0
   -2.8390   24.2770  -28.5890 C   0  0  1  0  0  0  0  0  0  0  0  0
   -3.3550   25.0250  -29.6930 O   0  0  0  0  0  0  0  0  0  0  0  0
   -4.3690   24.5650  -30.5390 C   0  0  0  0  0  0  0  0  0  0  0  0
   -4.1120   23.7750  -31.4880 O   0  0  0  0  0  0  0  0  0  0  0  0
   -5.7770   25.0150  -30.3090 C   0  0  0  0  0  0  0  0  0  0  0  0
   -6.7450   23.9210  -30.6650 C   0  0  0  0  0  0  0  0  0  0  0  0
   -7.1560   22.9940  -29.6930 C   0  0  0  0  0  0  0  0  0  0  0  0
   -8.0790   21.9950  -30.0170 C   0  0  0  0  0  0  0  0  0  0  0  0
   -8.6030   21.9190  -31.3100 C   0  0  0  0  0  0  0  0  0  0  0  0
   -8.2060   22.8430  -32.2800 C   0  0  0  0  0  0  0  0  0  0  0  0
   -7.2840   23.8450  -31.9600 C   0  0  0  0  0  0  0  0  0  0  0  0
   -2.5940   22.8110  -29.0130 C   0  0  0  0  0  0  0  0  0  0  0  0
   -0.7560   20.8360  -31.5970 C   0  0  0  0  0  0  0  0  0  0  0  0
    0.4450   21.1900  -31.4290 O   0  0  0  0  0  0  0  0  0  0  0  0
   -1.0200   19.7700  -32.4010 N   0  0  0  0  0  0  0  0  0  0  0  0
   -2.2890   19.3420  -32.6150 C   0  0  0  0  0  0  0  0  0  0  0  0
   -2.4880   18.3340  -33.3460 O   0  0  0  0  0  0  0  0  0  0  0  0
   -5.2050   18.3280  -31.7660 C   0  0  0  0  0  0  0  0  0  0  0  0
   -6.5290   17.9240  -31.9610 C   0  0  0  0  0  0  0  0  0  0  0  0
  -10.2418   19.7046  -32.1112 H   0  0  0  0  0  0  0  0  0  0  0  0
   -9.4457   20.2002  -33.6432 H   0  0  0  0  0  0  0  0  0  0  0  0
  -10.6333   18.8525  -33.6432 H   0  0  0  0  0  0  0  0  0  0  0  0
   -7.7243   20.7126  -33.5391 H   0  0  0  0  0  0  0  0  0  0  0  0
   -5.3650   21.4309  -33.1951 H   0  0  0  0  0  0  0  0  0  0  0  0
   -3.8930   21.6373  -30.6853 H   0  0  0  0  0  0  0  0  0  0  0  0
   -1.5741   23.5895  -30.7393 H   0  0  0  0  0  0  0  0  0  0  0  0
   -0.0647   21.8733  -28.7267 H   0  0  0  0  0  0  0  0  0  0  0  0
    0.6058   22.4083  -30.3327 H   0  0  0  0  0  0  0  0  0  0  0  0
    0.1202   24.6596  -26.9548 H   0  0  0  0  0  0  0  0  0  0  0  0
   -1.7944   26.0511  -27.7287 H   0  0  0  0  0  0  0  0  0  0  0  0
   -3.5560   24.2040  -27.7580 H   0  0  0  0  0  0  0  0  0  0  0  0
   -5.9038   25.2795  -29.2488 H   0  0  0  0  0  0  0  0  0  0  0  0
   -5.9791   25.8894  -30.9451 H   0  0  0  0  0  0  0  0  0  0  0  0
   -6.7499   23.0543  -28.6725 H   0  0  0  0  0  0  0  0  0  0  0  0
   -8.3929   21.2682  -29.2533 H   0  0  0  0  0  0  0  0  0  0  0  0
   -9.3280   21.1318  -31.5643 H   0  0  0  0  0  0  0  0  0  0  0  0
   -8.6194   22.7823  -33.2975 H   0  0  0  0  0  0  0  0  0  0  0  0
   -6.9802   24.5754  -32.7244 H   0  0  0  0  0  0  0  0  0  0  0  0
   -2.2667   22.2388  -28.1324 H   0  0  0  0  0  0  0  0  0  0  0  0
   -3.5368   22.4187  -29.4218 H   0  0  0  0  0  0  0  0  0  0  0  0
   -0.2270   19.2660  -32.8580 H   0  0  0  0  0  0  0  0  0  0  0  0
   -4.4982   17.6559  -31.2574 H   0  0  0  0  0  0  0  0  0  0  0  0
   -6.8559   16.9335  -31.6117 H   0  0  0  0  0  0  0  0  0  0  0  0
  1  2  1  0
  2  3  1  0
  3  4  2  0
  4  5  1  0
  5  6  2  0
  6  7  1  0
  7  8  2  0
  8  9  1  0
  9 10  1  0
 10 11  1  0
 11 12  1  0
 12 13  1  0
 13 14  2  0
 14 15  1  0
 15 16  1  0
 16 17  1  0
 17 18  2  0
 17 19  1  0
 19 20  1  0
 20 21  2  0
 21 22  1  0
 22 23  2  0
 23 24  1  0
 24 25  2  0
 15 26  1  0
  9 27  1  0
 27 28  2  0
 27 29  1  0
 29 30  1  0
 30 31  2  0
  6 32  1  0
 32 33  2  0
 33  3  1  0
 30  7  1  0
 26 10  1  0
 25 20  1  0
  1 34  1  0
  1 35  1  0
  1 36  1  0
  4 37  1  0
  5 38  1  0
  8 39  1  0
 10 40  1  6
 11 41  1  0
 11 42  1  0
 13 43  1  0
 14 44  1  0
 15 45  1  1
 19 46  1  0
 19 47  1  0
 21 48  1  0
 22 49  1  0
 23 50  1  0
 24 51  1  0
 25 52  1  0
 26 53  1  0
 26 54  1  0
 29 55  1  0
 32 56  1  0
 33 57  1  0
M  END
>  <UniqueID>  (24) 
23

>  <SMILES>  (24) 
COc1ccc(-c2cn([C@@H]3COC=C[C@@H](OC(=O)Cc4ccccc4)C3)c(=O)[nH]c2=O)cc1

>  <Energy>  (24) 
81.02261557772493

>  <Genealogy>  (24) 
COc1ccc(-c2cn([C@@H]3COC=C[C@@H](OC(=O)Cc4ccccc4)C3)c(=O)[nH]c2=O)cc1 (chirality)
COc1ccc(-c2cn([C@@H]3COC=C[C@@H](OC(=O)Cc4ccccc4)C3)c(=O)[nH]c2=O)cc1 (3D coordinates assigned)
COc1ccc(-c2cn([C@@H]3COC=C[C@@H](OC(=O)Cc4ccccc4)C3)c(=O)[nH]c2=O)cc1 (nonaromatic ring conformer: 81.02261557772493 kcal/mol)

>  <smiles>  (24) 
COc1ccc(-c2cn(C3COC=CC(OC(=O)Cc4ccccc4)C3)c(=O)[nH]c2=O)cc1

>  <score_type>  (24) 
oracle

>  <origin>  (24) 
adg

>  <m_score__min__energy>  (24) 
-7.8399999999999999

>  <m_primary>  (24) 
energy

$$$$
24:0
     RDKit          3D

 47 48  0  0  0  0  0  0  0  0999 V2000
   -3.7050   24.9640  -26.3700 C   0  0  0  0  0  0  0  0  0  0  0  0
   -2.2020   24.7320  -26.2300 C   0  0  0  0  0  0  0  0  0  0  0  0
   -1.5130   25.9950  -25.8770 N   0  0  0  0  0  0  0  0  0  0  0  0
   -0.7510   25.8360  -24.6170 C   0  0  0  0  0  0  0  0  0  0  0  0
   -1.2210   26.8200  -23.5470 C   0  0  0  0  0  0  0  0  0  0  0  0
   -0.6510   26.4700  -26.9890 C   0  0  0  0  0  0  0  0  0  0  0  0
   -0.7310   25.5130  -28.1370 C   0  0  0  0  0  0  0  0  0  0  0  0
    0.1850   24.6640  -28.3070 O   0  0  0  0  0  0  0  0  0  0  0  0
   -1.8940   25.5050  -28.9720 N   0  0  0  0  0  0  0  0  0  0  0  0
   -2.5370   24.3330  -29.4910 C   0  0  0  0  0  0  0  0  0  0  0  0
   -2.0460   23.0820  -29.1030 C   0  0  0  0  0  0  0  0  0  0  0  0
   -2.6350   21.9100  -29.5790 C   0  0  0  0  0  0  0  0  0  0  0  0
   -3.7290   21.9680  -30.4490 C   0  0  0  0  0  0  0  0  0  0  0  0
   -4.3270   20.7450  -30.9140 N   0  0  0  0  0  0  0  0  0  0  0  0
   -4.8870   20.5770  -32.2270 C   0  0  0  0  0  0  0  0  0  0  0  0
   -4.6140   21.4010  -33.1430 O   0  0  0  0  0  0  0  0  0  0  0  0
   -5.7520   19.4240  -32.5310 C   0  0  0  0  0  0  0  0  0  0  0  0
   -6.9010   19.0640  -31.8360 C   0  0  0  0  0  0  0  0  0  0  0  0
   -7.5140   17.9090  -32.3380 C   0  0  0  0  0  0  0  0  0  0  0  0
   -6.8540   17.3540  -33.4250 C   0  0  0  0  0  0  0  0  0  0  0  0
   -5.5050   18.2990  -33.7610 S   0  0  0  0  0  0  0  0  0  0  0  0
   -4.2650   23.2220  -30.7940 C   0  0  0  0  0  0  0  0  0  0  0  0
   -3.6830   24.4110  -30.3110 C   0  0  0  0  0  0  0  0  0  0  0  0
   -4.2350   25.6700  -30.5960 O   0  0  0  0  0  0  0  0  0  0  0  0
   -5.5980   26.0260  -30.3860 C   0  0  0  0  0  0  0  0  0  0  0  0
   -4.1598   25.0342  -25.3709 H   0  0  0  0  0  0  0  0  0  0  0  0
   -3.8819   25.9001  -26.9200 H   0  0  0  0  0  0  0  0  0  0  0  0
   -4.1559   24.1248  -26.9200 H   0  0  0  0  0  0  0  0  0  0  0  0
   -2.0225   23.9885  -25.4394 H   0  0  0  0  0  0  0  0  0  0  0  0
   -1.8072   24.3675  -27.1899 H   0  0  0  0  0  0  0  0  0  0  0  0
   -0.8884   24.8104  -24.2438 H   0  0  0  0  0  0  0  0  0  0  0  0
    0.3093   26.0385  -24.8285 H   0  0  0  0  0  0  0  0  0  0  0  0
   -1.0207   26.4007  -22.5499 H   0  0  0  0  0  0  0  0  0  0  0  0
   -0.6799   27.7710  -23.6603 H   0  0  0  0  0  0  0  0  0  0  0  0
   -2.3008   26.9968  -23.6603 H   0  0  0  0  0  0  0  0  0  0  0  0
   -0.9922   27.4630  -27.3169 H   0  0  0  0  0  0  0  0  0  0  0  0
    0.3903   26.5324  -26.6401 H   0  0  0  0  0  0  0  0  0  0  0  0
   -1.1883   23.0216  -28.4169 H   0  0  0  0  0  0  0  0  0  0  0  0
   -2.2361   20.9332  -29.2678 H   0  0  0  0  0  0  0  0  0  0  0  0
   -4.2690   19.9080  -30.2910 H   0  0  0  0  0  0  0  0  0  0  0  0
   -7.2902   19.6302  -30.9769 H   0  0  0  0  0  0  0  0  0  0  0  0
   -8.4330   17.4817  -31.9104 H   0  0  0  0  0  0  0  0  0  0  0  0
   -7.1608   16.4508  -33.9728 H   0  0  0  0  0  0  0  0  0  0  0  0
   -5.1480   23.2750  -31.4479 H   0  0  0  0  0  0  0  0  0  0  0  0
   -5.8009   26.0790  -29.3062 H   0  0  0  0  0  0  0  0  0  0  0  0
   -5.7959   27.0060  -30.8448 H   0  0  0  0  0  0  0  0  0  0  0  0
   -6.2498   25.2680  -30.8448 H   0  0  0  0  0  0  0  0  0  0  0  0
  1  2  1  0
  2  3  1  0
  3  4  1  0
  4  5  1  0
  3  6  1  0
  6  7  1  0
  7  8  2  0
  7  9  1  0
  9 10  1  0
 10 11  2  0
 11 12  1  0
 12 13  2  0
 13 14  1  0
 14 15  1  0
 15 16  2  0
 15 17  1  0
 17 18  2  0
 18 19  1  0
 19 20  2  0
 20 21  1  0
 13 22  1  0
 22 23  2  0
 23 24  1  0
 24 25  1  0
 23 10  1  0
 21 17  1  0
  1 26  1  0
  1 27  1  0
  1 28  1  0
  2 29  1  0
  2 30  1  0
  4 31  1  0
  4 32  1  0
  5 33  1  0
  5 34  1  0
  5 35  1  0
  6 36  1  0
  6 37  1  0
 11 38  1  0
 12 39  1  0
 14 40  1  0
 18 41  1  0
 19 42  1  0
 20 43  1  0
 22 44  1  0
 25 45  1  0
 25 46  1  0
 25 47  1  0
M  CHG  1   9  -1
M  END
>  <UniqueID>  (25) 
24

>  <SMILES>  (25) 
CCN(CC)CC(=O)[N-]c1ccc(NC(=O)c2cccs2)cc1OC

>  <Energy>  (25) 
78.06246089290664

>  <Genealogy>  (25) 
CCN(CC)CC(=O)[N-]c1ccc(NC(=O)c2cccs2)cc1OC (protonated)
CCN(CC)CC(=O)[N-]c1ccc(NC(=O)c2cccs2)cc1OC (3D coordinates assigned)
CCN(CC)CC(=O)[N-]c1ccc(NC(=O)c2cccs2)cc1OC (optimized conformer: 78.06246089290664 kcal/mol)

>  <smiles>  (25) 
CCN(CC)CC(=O)Nc1ccc(NC(=O)c2cccs2)cc1OC

>  <score_type>  (25) 
oracle

>  <origin>  (25) 
adg

>  <m_score__min__energy>  (25) 
-9.5800000000000001

>  <m_primary>  (25) 
energy

$$$$
25:0
     RDKit          3D

 51 56  0  0  0  0  0  0  0  0999 V2000
    3.5240   22.2590  -35.3410 C   0  0  0  0  0  0  0  0  0  0  0  0
    3.1300   20.8900  -35.3160 O   0  0  0  0  0  0  0  0  0  0  0  0
    1.8210   20.4460  -35.0810 C   0  0  0  0  0  0  0  0  0  0  0  0
    1.2620   19.3490  -35.7630 C   0  0  0  0  0  0  0  0  0  0  0  0
   -0.0480   18.9410  -35.4940 C   0  0  0  0  0  0  0  0  0  0  0  0
   -0.8210   19.6270  -34.5400 C   0  0  0  0  0  0  0  0  0  0  0  0
   -2.1360   19.2440  -34.2280 C   0  0  0  0  0  0  0  0  0  0  0  0
   -2.6520   18.2360  -34.7860 O   0  0  0  0  0  0  0  0  0  0  0  0
   -2.8630   19.9730  -33.2640 C   0  0  0  0  0  0  0  0  0  0  0  0
   -4.2160   19.5250  -32.8520 C   0  0  0  0  0  0  0  0  0  0  0  0
   -4.4820   18.1720  -32.5890 C   0  0  0  0  0  0  0  0  0  0  0  0
   -5.7740   17.7770  -32.2360 C   0  0  0  0  0  0  0  0  0  0  0  0
   -6.7960   18.7310  -32.1520 C   0  0  0  0  0  0  0  0  0  0  0  0
   -8.1060   18.3670  -31.8090 C   0  0  0  0  0  0  0  0  0  0  0  0
   -9.1050   19.3440  -31.7400 C   0  0  0  0  0  0  0  0  0  0  0  0
   -8.8020   20.6820  -32.0140 C   0  0  0  0  0  0  0  0  0  0  0  0
   -7.4980   21.0520  -32.3560 C   0  0  0  0  0  0  0  0  0  0  0  0
   -6.4920   20.0820  -32.4260 C   0  0  0  0  0  0  0  0  0  0  0  0
   -5.2230   20.4370  -32.7630 N   0  0  0  0  0  0  0  0  0  0  0  0
   -2.2300   21.0800  -32.6450 C   0  0  0  0  0  0  0  0  0  0  0  0
   -2.9070   21.9330  -31.6470 C   0  0  0  0  0  0  0  0  0  0  0  0
   -2.4660   21.9950  -30.3140 C   0  0  0  0  0  0  0  0  0  0  0  0
   -3.1390   22.8060  -29.4010 C   0  0  0  0  0  0  0  0  0  0  0  0
   -4.2610   23.5340  -29.8100 C   0  0  0  0  0  0  0  0  0  0  0  0
   -4.9620   24.3590  -28.9180 C   0  0  0  0  0  0  0  0  0  0  0  0
   -6.0870   25.0670  -29.3570 C   0  0  0  0  0  0  0  0  0  0  0  0
   -6.5150   24.9540  -30.6840 C   0  0  0  0  0  0  0  0  0  0  0  0
   -5.8220   24.1340  -31.5800 C   0  0  0  0  0  0  0  0  0  0  0  0
   -4.6950   23.4230  -31.1510 C   0  0  0  0  0  0  0  0  0  0  0  0
   -4.0160   22.6290  -32.0200 N   0  0  0  0  0  0  0  0  0  0  0  0
   -0.9740   21.3880  -32.9560 O   0  0  0  0  0  0  0  0  0  0  0  0
   -0.2620   20.7260  -33.8590 C   0  0  0  0  0  0  0  0  0  0  0  0
    1.0500   21.1260  -34.1310 C   0  0  0  0  0  0  0  0  0  0  0  0
    3.6304   22.6288  -34.3105 H   0  0  0  0  0  0  0  0  0  0  0  0
    4.4860   22.3542  -35.8659 H   0  0  0  0  0  0  0  0  0  0  0  0
    2.7598   22.8510  -35.8659 H   0  0  0  0  0  0  0  0  0  0  0  0
    1.8595   18.8092  -36.5124 H   0  0  0  0  0  0  0  0  0  0  0  0
   -0.4754   18.0808  -36.0301 H   0  0  0  0  0  0  0  0  0  0  0  0
   -3.6764   17.4264  -32.6607 H   0  0  0  0  0  0  0  0  0  0  0  0
   -5.9886   16.7191  -32.0244 H   0  0  0  0  0  0  0  0  0  0  0  0
   -8.3477   17.3155  -31.5946 H   0  0  0  0  0  0  0  0  0  0  0  0
  -10.1324   19.0591  -31.4693 H   0  0  0  0  0  0  0  0  0  0  0  0
   -9.5923   21.4453  -31.9602 H   0  0  0  0  0  0  0  0  0  0  0  0
   -7.2629   22.1051  -32.5699 H   0  0  0  0  0  0  0  0  0  0  0  0
   -1.5940   21.4065  -29.9925 H   0  0  0  0  0  0  0  0  0  0  0  0
   -2.7880   22.8731  -28.3607 H   0  0  0  0  0  0  0  0  0  0  0  0
   -4.6278   24.4496  -27.8739 H   0  0  0  0  0  0  0  0  0  0  0  0
   -6.6358   25.7138  -28.6567 H   0  0  0  0  0  0  0  0  0  0  0  0
   -7.3998   25.5122  -31.0239 H   0  0  0  0  0  0  0  0  0  0  0  0
   -6.1626   24.0476  -32.6224 H   0  0  0  0  0  0  0  0  0  0  0  0
    1.4805   21.9835  -33.5931 H   0  0  0  0  0  0  0  0  0  0  0  0
  1  2  1  0
  2  3  1  0
  3  4  2  0
  4  5  1  0
  5  6  2  0
  6  7  1  0
  7  8  2  0
  7  9  1  0
  9 10  1  0
 10 11  2  0
 11 12  1  0
 12 13  2  0
 13 14  1  0
 14 15  2  0
 15 16  1  0
 16 17  2  0
 17 18  1  0
 18 19  2  0
  9 20  2  0
 20 21  1  0
 21 22  2  0
 22 23  1  0
 23 24  2  0
 24 25  1  0
 25 26  2  0
 26 27  1  0
 27 28  2  0
 28 29  1  0
 29 30  2  0
 20 31  1  0
 31 32  1  0
 32 33  2  0
 33  3  1  0
 32  6  1  0
 19 10  1  0
 30 21  1  0
 18 13  1  0
 29 24  1  0
  1 34  1  0
  1 35  1  0
  1 36  1  0
  4 37  1  0
  5 38  1  0
 11 39  1  0
 12 40  1  0
 14 41  1  0
 15 42  1  0
 16 43  1  0
 17 44  1  0
 22 45  1  0
 23 46  1  0
 25 47  1  0
 26 48  1  0
 27 49  1  0
 28 50  1  0
 33 51  1  0
M  END
>  <UniqueID>  (26) 
25

>  <SMILES>  (26) 
COc1ccc2c(=O)c(-c3ccc4ccccc4n3)c(-c3ccc4ccccc4n3)oc2c1

>  <Energy>  (26) 
82.64294926751143

>  <Genealogy>  (26) 
COc1ccc2c(=O)c(-c3ccc4ccccc4n3)c(-c3ccc4ccccc4n3)oc2c1 (3D coordinates assigned)
COc1ccc2c(=O)c(-c3ccc4ccccc4n3)c(-c3ccc4ccccc4n3)oc2c1 (optimized conformer: 82.64294926751143 kcal/mol)

>  <smiles>  (26) 
COc1ccc2c(=O)c(-c3ccc4ccccc4n3)c(-c3ccc4ccccc4n3)oc2c1

>  <score_type>  (26) 
oracle

>  <origin>  (26) 
adg

>  <m_score__min__energy>  (26) 
-9.6199999999999992

>  <m_primary>  (26) 
energy

$$$$
26:0
     RDKit          3D

 38 40  0  0  1  0  0  0  0  0999 V2000
   -5.2190   25.6760  -30.4740 C   0  0  0  0  0  0  0  0  0  0  0  0
   -3.8860   25.1740  -30.5270 O   0  0  0  0  0  0  0  0  0  0  0  0
   -3.6150   23.8080  -30.4120 C   0  0  0  0  0  0  0  0  0  0  0  0
   -3.3480   23.2520  -29.1800 C   0  0  0  0  0  0  0  0  0  0  0  0
   -3.0880   21.9040  -29.1190 C   0  0  0  0  0  0  0  0  0  0  0  0
   -3.0950   21.1250  -30.2760 C   0  0  0  0  0  0  0  0  0  0  0  0
   -3.3600   21.6610  -31.5200 C   0  0  0  0  0  0  0  0  0  0  0  0
   -3.3740   20.8570  -32.7690 C   0  0  0  0  0  0  0  0  0  0  0  0
   -4.6800   20.7620  -33.3560 N   0  0  0  0  0  0  0  0  0  0  0  0
   -5.4610   19.7510  -33.2820 C   0  0  0  0  0  0  0  0  0  0  0  0
   -5.0390   18.5690  -33.7060 N   0  0  0  0  0  0  0  0  0  0  0  0
   -5.7570   17.4330  -33.6830 C   0  0  0  0  0  0  0  0  0  0  0  0
   -6.9980   17.5170  -33.1910 N   0  0  0  0  0  0  0  0  0  0  0  0
   -7.4840   18.7040  -32.7410 C   0  0  0  0  0  0  0  0  0  0  0  0
   -9.0760   19.1390  -32.0370 S   0  0  0  0  0  0  0  0  0  0  0  0
   -8.6710   20.8560  -31.8100 C   0  0  0  0  0  0  0  0  0  0  0  0
   -9.5610   21.9110  -31.2360 C   0  0  0  0  0  0  0  0  0  0  0  0
   -7.3680   20.9810  -32.2800 C   0  0  0  0  0  0  0  0  0  0  0  0
   -6.7110   22.3550  -32.2220 C   0  0  0  0  0  0  0  0  0  0  0  0
   -6.7650   19.8900  -32.7520 C   0  0  0  0  0  0  0  0  0  0  0  0
   -3.6190   23.0400  -31.5270 C   0  0  0  0  0  0  0  0  0  0  0  0
   -5.5258   25.7915  -29.4240 H   0  0  0  0  0  0  0  0  0  0  0  0
   -5.2634   26.6524  -30.9786 H   0  0  0  0  0  0  0  0  0  0  0  0
   -5.8965   24.9714  -30.9786 H   0  0  0  0  0  0  0  0  0  0  0  0
   -3.3431   23.8702  -28.2701 H   0  0  0  0  0  0  0  0  0  0  0  0
   -2.8722   21.4346  -28.1479 H   0  0  0  0  0  0  0  0  0  0  0  0
   -2.8825   20.0488  -30.1944 H   0  0  0  0  0  0  0  0  0  0  0  0
   -2.6953   21.3263  -33.4964 H   0  0  0  0  0  0  0  0  0  0  0  0
   -3.0532   19.8373  -32.5094 H   0  0  0  0  0  0  0  0  0  0  0  0
   -4.0710   18.4810  -34.0950 H   0  0  0  0  0  0  0  0  0  0  0  0
   -5.3446   16.4817  -34.0504 H   0  0  0  0  0  0  0  0  0  0  0  0
   -9.5225   21.8654  -30.1376 H   0  0  0  0  0  0  0  0  0  0  0  0
   -9.2212   22.9011  -31.5740 H   0  0  0  0  0  0  0  0  0  0  0  0
  -10.5942   21.7428  -31.5740 H   0  0  0  0  0  0  0  0  0  0  0  0
   -6.5700   22.6499  -31.1717 H   0  0  0  0  0  0  0  0  0  0  0  0
   -5.7341   22.3159  -32.7262 H   0  0  0  0  0  0  0  0  0  0  0  0
   -7.3547   23.0908  -32.7262 H   0  0  0  0  0  0  0  0  0  0  0  0
   -3.8371   23.5234  -32.4907 H   0  0  0  0  0  0  0  0  0  0  0  0
  1  2  1  0
  2  3  1  0
  3  4  2  0
  4  5  1  0
  5  6  2  0
  6  7  1  0
  7  8  1  0
  8  9  1  0
  9 10  2  0
 10 11  1  0
 11 12  1  0
 12 13  2  0
 13 14  1  0
 14 15  1  0
 15 16  1  0
 16 17  1  0
 16 18  2  0
 18 19  1  0
 18 20  1  0
  7 21  2  0
 21  3  1  0
 20 10  1  0
 20 14  2  0
  1 22  1  0
  1 23  1  0
  1 24  1  0
  4 25  1  0
  5 26  1  0
  6 27  1  0
  8 28  1  0
  8 29  1  0
 11 30  1  0
 12 31  1  0
 17 32  1  0
 17 33  1  0
 17 34  1  0
 19 35  1  0
 19 36  1  0
 19 37  1  0
 21 38  1  0
M  END
>  <smiles>  (27) 
COc1cccc(CN=c2[nH]cnc3sc(C)c(C)c23)c1

>  <score_type>  (27) 
oracle

>  <origin>  (27) 
adg

>  <m_score__min__energy>  (27) 
-8.1699999999999999

>  <m_primary>  (27) 
energy

$$$$
27:0
     RDKit          3D

 30 32  0  0  0  0  0  0  0  0999 V2000
   -4.6080   13.9900  -31.5150 C   0  0  0  0  0  0  0  0  0  0  0  0
   -4.9710   15.3180  -32.1200 C   0  0  0  0  0  0  0  0  0  0  0  0
   -5.7270   16.2040  -31.4000 N   0  0  0  0  0  0  0  0  0  0  0  0
   -6.0490   17.3970  -31.9530 C   0  0  0  0  0  0  0  0  0  0  0  0
   -6.7800   18.3610  -31.3670 N   0  0  0  0  0  0  0  0  0  0  0  0
   -6.7910   19.3090  -32.3440 C   0  0  0  0  0  0  0  0  0  0  0  0
   -7.4800   20.6110  -32.2100 C   0  0  0  0  0  0  0  0  0  0  0  0
   -8.8620   20.6640  -31.9500 C   0  0  0  0  0  0  0  0  0  0  0  0
   -9.5120   21.8950  -31.8240 C   0  0  0  0  0  0  0  0  0  0  0  0
   -8.7900   23.0840  -31.9540 C   0  0  0  0  0  0  0  0  0  0  0  0
   -7.4180   23.0440  -32.2120 C   0  0  0  0  0  0  0  0  0  0  0  0
   -6.7630   21.8150  -32.3390 C   0  0  0  0  0  0  0  0  0  0  0  0
   -6.1050   18.9370  -33.4530 N   0  0  0  0  0  0  0  0  0  0  0  0
   -5.6490   17.7310  -33.1790 N   0  0  0  0  0  0  0  0  0  0  0  0
   -4.8980   16.9140  -33.9630 C   0  0  0  0  0  0  0  0  0  0  0  0
   -4.4710   17.3360  -35.3430 C   0  0  0  0  0  0  0  0  0  0  0  0
   -4.5350   15.6560  -33.4300 C   0  0  0  0  0  0  0  0  0  0  0  0
   -3.5600   14.5290  -34.3780 Cl  0  0  0  0  0  0  0  0  0  0  0  0
   -4.6295   14.0687  -30.4180 H   0  0  0  0  0  0  0  0  0  0  0  0
   -5.3308   13.2281  -31.8422 H   0  0  0  0  0  0  0  0  0  0  0  0
   -3.5981   13.7018  -31.8422 H   0  0  0  0  0  0  0  0  0  0  0  0
   -6.0580   15.9750  -30.4350 H   0  0  0  0  0  0  0  0  0  0  0  0
   -9.4345   19.7306  -31.8452 H   0  0  0  0  0  0  0  0  0  0  0  0
  -10.5929   21.9276  -31.6223 H   0  0  0  0  0  0  0  0  0  0  0  0
   -9.3024   24.0521  -31.8531 H   0  0  0  0  0  0  0  0  0  0  0  0
   -6.8514   23.9812  -32.3155 H   0  0  0  0  0  0  0  0  0  0  0  0
   -5.6820   21.7893  -32.5407 H   0  0  0  0  0  0  0  0  0  0  0  0
   -3.6906   18.1073  -35.2655 H   0  0  0  0  0  0  0  0  0  0  0  0
   -4.0738   16.4658  -35.8861 H   0  0  0  0  0  0  0  0  0  0  0  0
   -5.3365   17.7434  -35.8861 H   0  0  0  0  0  0  0  0  0  0  0  0
  1  2  1  0
  2  3  2  0
  3  4  1  0
  4  5  2  0
  5  6  1  0
  6  7  1  0
  7  8  2  0
  8  9  1  0
  9 10  2  0
 10 11  1  0
 11 12  2  0
  6 13  2  0
 13 14  1  0
 14 15  1  0
 15 16  1  0
 15 17  2  0
 17 18  1  0
 17  2  1  0
 14  4  1  0
 12  7  1  0
  1 19  1  0
  1 20  1  0
  1 21  1  0
  3 22  1  0
  8 23  1  0
  9 24  1  0
 10 25  1  0
 11 26  1  0
 12 27  1  0
 16 28  1  0
 16 29  1  0
 16 30  1  0
M  CHG  1   3   1
M  END
>  <UniqueID>  (28) 
26

>  <SMILES>  (28) 
Cc1[nH+]c2nc(-c3ccccc3)nn2c(C)c1Cl

>  <Energy>  (28) 
72.69767710107945

>  <Genealogy>  (28) 
Cc1[nH+]c2nc(-c3ccccc3)nn2c(C)c1Cl (protonated)
Cc1[nH+]c2nc(-c3ccccc3)nn2c(C)c1Cl (3D coordinates assigned)
Cc1[nH+]c2nc(-c3ccccc3)nn2c(C)c1Cl (optimized conformer: 72.69767710107945 kcal/mol)

>  <smiles>  (28) 
Cc1nc2nc(-c3ccccc3)nn2c(C)c1Cl

>  <score_type>  (28) 
oracle

>  <origin>  (28) 
adg

>  <m_score__min__energy>  (28) 
-6.8799999999999999

>  <m_primary>  (28) 
energy

$$$$
28:0
     RDKit          3D

 40 40  0  0  0  0  0  0  0  0999 V2000
   -0.5880   27.3460  -27.0860 C   0  0  0  0  0  0  0  0  0  0  0  0
   -0.8900   26.3020  -28.1590 C   0  0  0  0  0  0  0  0  0  0  0  0
   -1.9140   25.3440  -27.6810 N   0  0  0  0  0  0  0  0  0  0  0  0
   -2.1900   25.5280  -26.2380 C   0  0  0  0  0  0  0  0  0  0  0  0
   -1.2250   24.6920  -25.4000 C   0  0  0  0  0  0  0  0  0  0  0  0
   -1.5440   23.9400  -27.9980 C   0  0  0  0  0  0  0  0  0  0  0  0
   -2.5710   23.3270  -28.9570 C   0  0  0  0  0  0  0  0  0  0  0  0
   -3.9750   23.2420  -28.3320 C   0  0  0  0  0  0  0  0  0  0  0  0
   -4.6860   24.5270  -28.3620 N   0  0  0  0  0  0  0  0  0  0  0  0
   -5.2030   24.9550  -29.9710 S   0  0  0  0  0  0  0  0  0  0  0  0
   -4.0230   25.2880  -30.8410 O   0  0  0  0  0  0  0  0  0  0  0  0
   -6.1230   26.1410  -29.8940 O   0  0  0  0  0  0  0  0  0  0  0  0
   -6.0650   23.5950  -30.6800 C   0  0  0  0  0  0  0  0  0  0  0  0
   -5.5630   22.9620  -31.8270 C   0  0  0  0  0  0  0  0  0  0  0  0
   -6.2440   21.8730  -32.3820 C   0  0  0  0  0  0  0  0  0  0  0  0
   -7.4250   21.4100  -31.7930 C   0  0  0  0  0  0  0  0  0  0  0  0
   -8.3530   19.9230  -32.5530 Br  0  0  0  0  0  0  0  0  0  0  0  0
   -7.9250   22.0350  -30.6460 C   0  0  0  0  0  0  0  0  0  0  0  0
   -7.2450   23.1230  -30.0890 C   0  0  0  0  0  0  0  0  0  0  0  0
   -0.7180   26.8967  -26.0904 H   0  0  0  0  0  0  0  0  0  0  0  0
    0.4485   27.6970  -27.1974 H   0  0  0  0  0  0  0  0  0  0  0  0
   -1.2770   28.1962  -27.1974 H   0  0  0  0  0  0  0  0  0  0  0  0
   -1.2623   26.8086  -29.0616 H   0  0  0  0  0  0  0  0  0  0  0  0
    0.0337   25.7496  -28.3862 H   0  0  0  0  0  0  0  0  0  0  0  0
   -2.0688   26.5900  -25.9784 H   0  0  0  0  0  0  0  0  0  0  0  0
   -3.2194   25.2023  -26.0275 H   0  0  0  0  0  0  0  0  0  0  0  0
   -1.4234   24.8639  -24.3318 H   0  0  0  0  0  0  0  0  0  0  0  0
   -1.3663   23.6261  -25.6323 H   0  0  0  0  0  0  0  0  0  0  0  0
   -0.1902   24.9838  -25.6323 H   0  0  0  0  0  0  0  0  0  0  0  0
   -0.5506   23.9235  -28.4701 H   0  0  0  0  0  0  0  0  0  0  0  0
   -1.5266   23.3539  -27.0673 H   0  0  0  0  0  0  0  0  0  0  0  0
   -2.6241   23.9485  -29.8631 H   0  0  0  0  0  0  0  0  0  0  0  0
   -2.2440   22.3031  -29.1910 H   0  0  0  0  0  0  0  0  0  0  0  0
   -4.5647   22.5001  -28.8903 H   0  0  0  0  0  0  0  0  0  0  0  0
   -3.8531   22.9535  -27.2775 H   0  0  0  0  0  0  0  0  0  0  0  0
   -4.0600   25.2850  -28.0050 H   0  0  0  0  0  0  0  0  0  0  0  0
   -4.6328   23.3223  -32.2906 H   0  0  0  0  0  0  0  0  0  0  0  0
   -5.8499   21.3802  -33.2830 H   0  0  0  0  0  0  0  0  0  0  0  0
   -8.8534   21.6708  -30.1818 H   0  0  0  0  0  0  0  0  0  0  0  0
   -7.6376   23.6098  -29.1841 H   0  0  0  0  0  0  0  0  0  0  0  0
  1  2  1  0
  2  3  1  0
  3  4  1  0
  4  5  1  0
  3  6  1  0
  6  7  1  0
  7  8  1  0
  8  9  1  0
  9 10  1  0
 10 11  2  0
 10 12  2  0
 10 13  1  0
 13 14  2  0
 14 15  1  0
 15 16  2  0
 16 17  1  0
 16 18  1  0
 18 19  2  0
 19 13  1  0
  1 20  1  0
  1 21  1  0
  1 22  1  0
  2 23  1  0
  2 24  1  0
  4 25  1  0
  4 26  1  0
  5 27  1  0
  5 28  1  0
  5 29  1  0
  6 30  1  0
  6 31  1  0
  7 32  1  0
  7 33  1  0
  8 34  1  0
  8 35  1  0
  9 36  1  0
 14 37  1  0
 15 38  1  0
 18 39  1  0
 19 40  1  0
M  END
>  <UniqueID>  (29) 
27

>  <SMILES>  (29) 
CCN(CC)CCCNS(=O)(=O)c1ccc(Br)cc1

>  <Energy>  (29) 
34.20114083314322

>  <Genealogy>  (29) 
CCN(CC)CCCNS(=O)(=O)c1ccc(Br)cc1 (3D coordinates assigned)
CCN(CC)CCCNS(=O)(=O)c1ccc(Br)cc1 (optimized conformer: 34.20114083314322 kcal/mol)

>  <smiles>  (29) 
CCN(CC)CCCNS(=O)(=O)c1ccc(Br)cc1

>  <score_type>  (29) 
oracle

>  <origin>  (29) 
adg

>  <m_score__min__energy>  (29) 
-7.9900000000000002

>  <m_primary>  (29) 
energy

$$$$
29:0
     RDKit          3D

 32 33  0  0  0  0  0  0  0  0999 V2000
   -7.1875   20.8517  -33.5812 H   0  0  0  0  0  0  0  0  0  0  0  0
   -7.6830   20.1560  -32.8880 C   0  0  0  0  0  0  0  0  0  0  0  0
   -7.4460   18.8100  -32.7030 C   0  0  0  0  0  0  0  0  0  0  0  0
   -6.4180   17.9940  -33.4110 C   0  0  0  0  0  0  0  0  0  0  0  0
   -5.7796   17.4873  -32.6723 H   0  0  0  0  0  0  0  0  0  0  0  0
   -6.9165   17.2430  -34.0415 H   0  0  0  0  0  0  0  0  0  0  0  0
   -5.7997   18.6499  -34.0415 H   0  0  0  0  0  0  0  0  0  0  0  0
   -8.2460   18.3520  -31.7670 O   0  0  0  0  0  0  0  0  0  0  0  0
   -9.0160   19.2960  -31.3060 N   0  0  0  0  0  0  0  0  0  0  0  0
   -8.7000   20.4140  -31.9840 C   0  0  0  0  0  0  0  0  0  0  0  0
   -9.2600   21.5620  -31.7410 N   0  0  0  0  0  0  0  0  0  0  0  0
   -8.6790   22.8540  -31.9650 C   0  0  0  0  0  0  0  0  0  0  0  0
   -9.3790   23.7540  -32.4990 O   0  0  0  0  0  0  0  0  0  0  0  0
   -7.2190   23.1170  -31.7210 C   0  0  0  0  0  0  0  0  0  0  0  0
   -7.0057   24.1801  -31.9060 H   0  0  0  0  0  0  0  0  0  0  0  0
   -6.6235   22.4899  -32.4008 H   0  0  0  0  0  0  0  0  0  0  0  0
   -6.7820   22.7060  -29.9970 S   0  0  0  0  0  0  0  0  0  0  0  0
   -5.2870   23.6940  -29.9920 C   0  0  0  0  0  0  0  0  0  0  0  0
   -5.0270   24.6580  -30.9000 N   0  0  0  0  0  0  0  0  0  0  0  0
   -3.8640   25.2750  -30.6910 N   0  0  0  0  0  0  0  0  0  0  0  0
   -3.1960   24.8040  -29.6170 C   0  0  0  0  0  0  0  0  0  0  0  0
   -2.0470   25.2930  -29.2520 N   0  0  0  0  0  0  0  0  0  0  0  0
   -1.1190   24.7380  -28.3060 C   0  0  0  0  0  0  0  0  0  0  0  0
    0.0890   24.5410  -28.6070 O   0  0  0  0  0  0  0  0  0  0  0  0
   -1.6110   24.3390  -26.9510 C   0  0  0  0  0  0  0  0  0  0  0  0
   -0.7558   24.0288  -26.3327 H   0  0  0  0  0  0  0  0  0  0  0  0
   -2.3215   23.5067  -27.0624 H   0  0  0  0  0  0  0  0  0  0  0  0
   -2.3220   25.5050  -26.2740 C   0  0  0  0  0  0  0  0  0  0  0  0
   -2.2532   25.3922  -25.1820 H   0  0  0  0  0  0  0  0  0  0  0  0
   -1.8461   26.4497  -26.5757 H   0  0  0  0  0  0  0  0  0  0  0  0
   -3.3798   25.5145  -26.5757 H   0  0  0  0  0  0  0  0  0  0  0  0
   -4.0480   23.5540  -28.8610 S   0  0  0  0  0  0  0  0  0  0  0  0
  1  2  1  0
  2  3  2  0
  3  4  1  0
  4  5  1  0
  4  6  1  0
  4  7  1  0
  3  8  1  0
  8  9  1  0
  9 10  1  0
 10 11  2  3
 11 12  1  0
 12 13  2  0
 12 14  1  0
 14 15  1  0
 14 16  1  0
 14 17  1  0
 17 18  1  0
 18 19  2  0
 19 20  1  0
 20 21  1  0
 21 22  2  0
 22 23  1  0
 23 24  2  0
 23 25  1  0
 25 26  1  0
 25 27  1  0
 25 28  1  0
 28 29  1  0
 28 30  1  0
 28 31  1  0
 21 32  1  0
 10  2  1  0
 32 18  1  0
M  CHG  2   9  -1  20  -1
M  END
>  <UniqueID>  (30) 
28

>  <SMILES>  (30) 
CCC(=O)/N=c1/[n-]nc(SCC(=O)N=c2cc(C)o[n-]2)s1

>  <Energy>  (30) 
97.27014878828928

>  <Genealogy>  (30) 
CCC(=O)N=c1[n-]nc(SCC(=O)N=c2cc(C)o[n-]2)s1 (protonated)
CCC(=O)/N=c1/[n-]nc(SCC(=O)N=c2cc(C)o[n-]2)s1 (cis-trans isomerization)
CCC(=O)/N=c1/[n-]nc(SCC(=O)N=c2cc(C)o[n-]2)s1 (3D coordinates assigned)
CCC(=O)/N=c1/[n-]nc(SCC(=O)N=c2cc(C)o[n-]2)s1 (optimized conformer: 97.27014878828928 kcal/mol)

>  <smiles>  (30) 
CCC(=O)N=c1[nH]nc(SCC(=O)N=c2cc(C)o[nH]2)s1

>  <score_type>  (30) 
oracle

>  <origin>  (30) 
adg

>  <m_score__min__energy>  (30) 
-9.4700000000000006

>  <m_primary>  (30) 
energy

$$$$
30:0
     RDKit          3D

 36 37  0  0  0  0  0  0  0  0999 V2000
   -2.9690   20.8630  -30.5690 C   0  0  0  0  0  0  0  0  0  0  0  0
   -3.0440   22.3320  -30.1910 C   0  0  0  0  0  0  0  0  0  0  0  0
   -4.0150   23.1760  -30.7990 C   0  0  0  0  0  0  0  0  0  0  0  0
   -5.0670   22.6730  -31.7870 C   0  0  0  0  0  0  0  0  0  0  0  0
   -6.4480   22.9210  -31.3280 N   0  0  0  0  0  0  0  0  0  0  0  0
   -7.4680   22.5370  -32.3140 C   0  0  0  0  0  0  0  0  0  0  0  0
   -7.6470   21.0400  -32.3740 C   0  0  0  0  0  0  0  0  0  0  0  0
   -8.6760   20.4260  -31.6410 C   0  0  0  0  0  0  0  0  0  0  0  0
   -8.8240   19.0350  -31.6600 C   0  0  0  0  0  0  0  0  0  0  0  0
   -7.9340   18.2460  -32.3930 C   0  0  0  0  0  0  0  0  0  0  0  0
   -6.8890   18.8450  -33.1000 C   0  0  0  0  0  0  0  0  0  0  0  0
   -6.7380   20.2350  -33.0850 C   0  0  0  0  0  0  0  0  0  0  0  0
   -4.0260   24.5310  -30.4340 C   0  0  0  0  0  0  0  0  0  0  0  0
   -4.8900   25.3180  -30.9100 O   0  0  0  0  0  0  0  0  0  0  0  0
   -3.1040   25.0120  -29.5680 N   0  0  0  0  0  0  0  0  0  0  0  0
   -2.1980   24.2000  -28.9670 C   0  0  0  0  0  0  0  0  0  0  0  0
   -1.0900   24.9000  -27.9640 S   0  0  0  0  0  0  0  0  0  0  0  0
   -2.2120   22.8430  -29.2100 N   0  0  0  0  0  0  0  0  0  0  0  0
   -1.3150   21.9420  -28.4530 C   0  0  0  0  0  0  0  0  0  0  0  0
   -2.9377   20.2505  -29.6558 H   0  0  0  0  0  0  0  0  0  0  0  0
   -3.8545   20.5914  -31.1625 H   0  0  0  0  0  0  0  0  0  0  0  0
   -2.0605   20.6830  -31.1625 H   0  0  0  0  0  0  0  0  0  0  0  0
   -4.9191   23.1855  -32.7490 H   0  0  0  0  0  0  0  0  0  0  0  0
   -4.9396   21.5844  -31.8806 H   0  0  0  0  0  0  0  0  0  0  0  0
   -6.5710   23.9340  -31.1000 H   0  0  0  0  0  0  0  0  0  0  0  0
   -8.4260   23.0002  -32.0353 H   0  0  0  0  0  0  0  0  0  0  0  0
   -7.1371   22.8838  -33.3041 H   0  0  0  0  0  0  0  0  0  0  0  0
   -9.3689   21.0420  -31.0491 H   0  0  0  0  0  0  0  0  0  0  0  0
   -9.6421   18.5619  -31.0971 H   0  0  0  0  0  0  0  0  0  0  0  0
   -8.0563   17.1530  -32.4133 H   0  0  0  0  0  0  0  0  0  0  0  0
   -6.1835   18.2222  -33.6696 H   0  0  0  0  0  0  0  0  0  0  0  0
   -5.9049   20.7012  -33.6314 H   0  0  0  0  0  0  0  0  0  0  0  0
   -3.1100   26.0360  -29.3500 H   0  0  0  0  0  0  0  0  0  0  0  0
   -1.4671   22.0947  -27.3743 H   0  0  0  0  0  0  0  0  0  0  0  0
   -1.5420   20.8971  -28.7110 H   0  0  0  0  0  0  0  0  0  0  0  0
   -0.2691   22.1644  -28.7110 H   0  0  0  0  0  0  0  0  0  0  0  0
  1  2  1  0
  2  3  2  0
  3  4  1  0
  4  5  1  0
  5  6  1  0
  6  7  1  0
  7  8  2  0
  8  9  1  0
  9 10  2  0
 10 11  1  0
 11 12  2  0
  3 13  1  0
 13 14  2  0
 13 15  1  0
 15 16  1  0
 16 17  2  0
 16 18  1  0
 18 19  1  0
 18  2  1  0
 12  7  1  0
  1 20  1  0
  1 21  1  0
  1 22  1  0
  4 23  1  0
  4 24  1  0
  5 25  1  0
  6 26  1  0
  6 27  1  0
  8 28  1  0
  9 29  1  0
 10 30  1  0
 11 31  1  0
 12 32  1  0
 15 33  1  0
 19 34  1  0
 19 35  1  0
 19 36  1  0
M  END
>  <UniqueID>  (31) 
29

>  <SMILES>  (31) 
Cc1c(CNCc2ccccc2)c(=O)[nH]c(=S)n1C

>  <Energy>  (31) 
51.18354137350806

>  <Genealogy>  (31) 
Cc1c(CNCc2ccccc2)c(=O)[nH]c(=S)n1C (3D coordinates assigned)
Cc1c(CNCc2ccccc2)c(=O)[nH]c(=S)n1C (optimized conformer: 51.18354137350806 kcal/mol)

>  <smiles>  (31) 
Cc1c(CNCc2ccccc2)c(=O)[nH]c(=S)n1C

>  <score_type>  (31) 
oracle

>  <origin>  (31) 
adg

>  <m_score__min__energy>  (31) 
-7.3700000000000001

>  <m_primary>  (31) 
energy

$$$$
31:0
     RDKit          3D

 36 37  0  0  0  0  0  0  0  0999 V2000
   -9.0070   19.1860  -32.6850 C   0  0  0  0  0  0  0  0  0  0  0  0
   -7.9870   18.1800  -32.1510 C   0  0  0  0  0  0  0  0  0  0  0  0
   -6.9470   17.8760  -33.1470 N   0  0  0  0  0  0  0  0  0  0  0  0
   -6.8490   16.5200  -33.7060 C   0  0  0  0  0  0  0  0  0  0  0  0
   -5.3920   16.0780  -33.7680 C   0  0  0  0  0  0  0  0  0  0  0  0
   -6.2360   18.9530  -33.7920 C   0  0  0  0  0  0  0  0  0  0  0  0
   -6.1020   18.9450  -35.0470 O   0  0  0  0  0  0  0  0  0  0  0  0
   -5.6550   20.0690  -33.0150 C   0  0  0  0  0  0  0  0  0  0  0  0
   -4.3090   20.0420  -32.6230 C   0  0  0  0  0  0  0  0  0  0  0  0
   -3.7620   21.1010  -31.8930 C   0  0  0  0  0  0  0  0  0  0  0  0
   -4.5520   22.2120  -31.5510 C   0  0  0  0  0  0  0  0  0  0  0  0
   -3.9730   23.3330  -30.7780 C   0  0  0  0  0  0  0  0  0  0  0  0
   -4.2830   24.6290  -30.9870 N   0  0  0  0  0  0  0  0  0  0  0  0
   -3.5770   25.2870  -30.1200 O   0  0  0  0  0  0  0  0  0  0  0  0
   -2.8660   24.4490  -29.4050 C   0  0  0  0  0  0  0  0  0  0  0  0
   -1.9140   24.8580  -28.3300 C   0  0  0  0  0  0  0  0  0  0  0  0
   -2.5610   24.8720  -27.1070 F   0  0  0  0  0  0  0  0  0  0  0  0
   -1.4270   26.1220  -28.6030 F   0  0  0  0  0  0  0  0  0  0  0  0
   -0.8610   23.9640  -28.2740 F   0  0  0  0  0  0  0  0  0  0  0  0
   -3.0730   23.1740  -29.7830 N   0  0  0  0  0  0  0  0  0  0  0  0
   -5.8950   22.2470  -31.9610 C   0  0  0  0  0  0  0  0  0  0  0  0
   -6.4400   21.1880  -32.6920 C   0  0  0  0  0  0  0  0  0  0  0  0
   -9.5095   19.6816  -31.8413 H   0  0  0  0  0  0  0  0  0  0  0  0
   -8.4920   19.9395  -33.2990 H   0  0  0  0  0  0  0  0  0  0  0  0
   -9.7534   18.6606  -33.2990 H   0  0  0  0  0  0  0  0  0  0  0  0
   -7.5089   18.5998  -31.2536 H   0  0  0  0  0  0  0  0  0  0  0  0
   -8.5185   17.2462  -31.9153 H   0  0  0  0  0  0  0  0  0  0  0  0
   -7.4129   15.8230  -33.0686 H   0  0  0  0  0  0  0  0  0  0  0  0
   -7.2663   16.5213  -34.7238 H   0  0  0  0  0  0  0  0  0  0  0  0
   -5.0010   15.9594  -32.7467 H   0  0  0  0  0  0  0  0  0  0  0  0
   -5.3223   15.1183  -34.3010 H   0  0  0  0  0  0  0  0  0  0  0  0
   -4.8009   16.8372  -34.3010 H   0  0  0  0  0  0  0  0  0  0  0  0
   -3.6791   19.1813  -32.8919 H   0  0  0  0  0  0  0  0  0  0  0  0
   -2.7068   21.0647  -31.5843 H   0  0  0  0  0  0  0  0  0  0  0  0
   -6.5220   23.1138  -31.7050 H   0  0  0  0  0  0  0  0  0  0  0  0
   -7.4902   21.2310  -33.0164 H   0  0  0  0  0  0  0  0  0  0  0  0
  1  2  1  0
  2  3  1  0
  3  4  1  0
  4  5  1  0
  3  6  1  0
  6  7  2  0
  6  8  1  0
  8  9  2  0
  9 10  1  0
 10 11  2  0
 11 12  1  0
 12 13  2  0
 13 14  1  0
 14 15  1  0
 15 16  1  0
 16 17  1  0
 16 18  1  0
 16 19  1  0
 15 20  2  0
 11 21  1  0
 21 22  2  0
 22  8  1  0
 20 12  1  0
  1 23  1  0
  1 24  1  0
  1 25  1  0
  2 26  1  0
  2 27  1  0
  4 28  1  0
  4 29  1  0
  5 30  1  0
  5 31  1  0
  5 32  1  0
  9 33  1  0
 10 34  1  0
 21 35  1  0
 22 36  1  0
M  END
>  <UniqueID>  (32) 
30

>  <SMILES>  (32) 
CCN(CC)C(=O)c1ccc(-c2noc(C(F)(F)F)n2)cc1

>  <Energy>  (32) 
67.12523934140054

>  <Genealogy>  (32) 
CCN(CC)C(=O)c1ccc(-c2noc(C(F)(F)F)n2)cc1 (3D coordinates assigned)
CCN(CC)C(=O)c1ccc(-c2noc(C(F)(F)F)n2)cc1 (optimized conformer: 67.12523934140054 kcal/mol)

>  <smiles>  (32) 
CCN(CC)C(=O)c1ccc(-c2noc(C(F)(F)F)n2)cc1

>  <score_type>  (32) 
oracle

>  <origin>  (32) 
adg

>  <m_score__min__energy>  (32) 
-7.2400000000000002

>  <m_primary>  (32) 
energy

$$$$
32:0
     RDKit          3D

 51 53  0  0  0  0  0  0  0  0999 V2000
   -6.6820   15.0410  -34.2180 C   0  0  0  0  0  0  0  0  0  0  0  0
   -5.7520   16.2100  -34.1440 C   0  0  0  0  0  0  0  0  0  0  0  0
   -6.1190   17.4430  -34.6950 C   0  0  0  0  0  0  0  0  0  0  0  0
   -5.2420   18.5240  -34.6020 C   0  0  0  0  0  0  0  0  0  0  0  0
   -4.0040   18.3700  -33.9620 C   0  0  0  0  0  0  0  0  0  0  0  0
   -3.0540   19.5290  -33.8260 C   0  0  0  0  0  0  0  0  0  0  0  0
   -3.6500   20.5770  -33.0020 N   0  0  0  0  0  0  0  0  0  0  0  0
   -2.8610   21.5780  -32.3410 C   0  0  0  0  0  0  0  0  0  0  0  0
   -1.6010   21.5150  -32.3780 O   0  0  0  0  0  0  0  0  0  0  0  0
   -3.5330   22.6840  -31.5680 C   0  0  2  0  0  0  0  0  0  0  0  0
   -3.2580   22.5560  -30.0600 C   0  0  0  0  0  0  0  0  0  0  0  0
   -3.8730   23.7340  -29.2820 C   0  0  0  0  0  0  0  0  0  0  0  0
   -5.1340   24.2990  -29.9610 C   0  0  0  0  0  0  0  0  0  0  0  0
   -5.8340   23.2320  -30.6980 N   0  0  0  0  0  0  0  0  0  0  0  0
   -7.2400   23.5470  -31.0370 C   0  0  0  0  0  0  0  0  0  0  0  0
   -7.7980   22.8020  -32.2750 C   0  0  0  0  0  0  0  0  0  0  0  0
   -7.8700   21.3110  -32.0770 C   0  0  0  0  0  0  0  0  0  0  0  0
   -9.1070   20.6600  -31.9520 C   0  0  0  0  0  0  0  0  0  0  0  0
   -9.1390   19.2740  -31.7800 C   0  0  0  0  0  0  0  0  0  0  0  0
   -7.9450   18.5510  -31.7480 C   0  0  0  0  0  0  0  0  0  0  0  0
   -6.7330   19.2270  -31.8910 C   0  0  0  0  0  0  0  0  0  0  0  0
   -6.7220   20.5770  -32.0540 N   0  0  0  0  0  0  0  0  0  0  0  0
   -5.0570   22.7110  -31.8490 C   0  0  0  0  0  0  0  0  0  0  0  0
   -3.6800   17.1210  -33.4120 C   0  0  0  0  0  0  0  0  0  0  0  0
   -4.5510   16.0820  -33.5140 N   0  0  0  0  0  0  0  0  0  0  0  0
   -6.9419   14.7143  -33.2003 H   0  0  0  0  0  0  0  0  0  0  0  0
   -7.5969   15.3336  -34.7541 H   0  0  0  0  0  0  0  0  0  0  0  0
   -6.1912   14.2153  -34.7541 H   0  0  0  0  0  0  0  0  0  0  0  0
   -7.0908   17.5588  -35.1972 H   0  0  0  0  0  0  0  0  0  0  0  0
   -5.5219   19.4975  -35.0309 H   0  0  0  0  0  0  0  0  0  0  0  0
   -2.1228   19.1819  -33.3545 H   0  0  0  0  0  0  0  0  0  0  0  0
   -2.8404   19.9366  -34.8251 H   0  0  0  0  0  0  0  0  0  0  0  0
   -4.6890   20.5930  -32.8960 H   0  0  0  0  0  0  0  0  0  0  0  0
   -3.1050   23.6380  -31.9096 H   0  0  0  0  0  0  0  0  0  0  0  0
   -3.6959   21.6158  -29.6936 H   0  0  0  0  0  0  0  0  0  0  0  0
   -2.1695   22.5632  -29.9017 H   0  0  0  0  0  0  0  0  0  0  0  0
   -4.1415   23.3878  -28.2730 H   0  0  0  0  0  0  0  0  0  0  0  0
   -3.1237   24.5387  -29.2493 H   0  0  0  0  0  0  0  0  0  0  0  0
   -5.8057   24.7125  -29.1943 H   0  0  0  0  0  0  0  0  0  0  0  0
   -4.8392   25.0898  -30.6664 H   0  0  0  0  0  0  0  0  0  0  0  0
   -7.8663   23.2864  -30.1711 H   0  0  0  0  0  0  0  0  0  0  0  0
   -7.2633   24.6180  -31.2867 H   0  0  0  0  0  0  0  0  0  0  0  0
   -8.8104   23.1778  -32.4842 H   0  0  0  0  0  0  0  0  0  0  0  0
   -7.1105   22.9915  -33.1125 H   0  0  0  0  0  0  0  0  0  0  0  0
  -10.0433   21.2361  -31.9891 H   0  0  0  0  0  0  0  0  0  0  0  0
  -10.1020   18.7538  -31.6701 H   0  0  0  0  0  0  0  0  0  0  0  0
   -7.9598   17.4596  -31.6114 H   0  0  0  0  0  0  0  0  0  0  0  0
   -5.7860   18.6678  -31.8719 H   0  0  0  0  0  0  0  0  0  0  0  0
   -5.3941   21.6872  -32.0686 H   0  0  0  0  0  0  0  0  0  0  0  0
   -5.2293   23.3833  -32.7024 H   0  0  0  0  0  0  0  0  0  0  0  0
   -2.7183   16.9817  -32.8966 H   0  0  0  0  0  0  0  0  0  0  0  0
  1  2  1  0
  2  3  2  0
  3  4  1  0
  4  5  2  0
  5  6  1  0
  6  7  1  0
  7  8  1  0
  8  9  2  0
  8 10  1  0
 10 11  1  0
 11 12  1  0
 12 13  1  0
 13 14  1  0
 14 15  1  0
 15 16  1  0
 16 17  1  0
 17 18  2  0
 18 19  1  0
 19 20  2  0
 20 21  1  0
 21 22  2  0
 14 23  1  0
  5 24  1  0
 24 25  2  0
 25  2  1  0
 23 10  1  0
 22 17  1  0
  1 26  1  0
  1 27  1  0
  1 28  1  0
  3 29  1  0
  4 30  1  0
  6 31  1  0
  6 32  1  0
  7 33  1  0
 10 34  1  6
 11 35  1  0
 11 36  1  0
 12 37  1  0
 12 38  1  0
 13 39  1  0
 13 40  1  0
 15 41  1  0
 15 42  1  0
 16 43  1  0
 16 44  1  0
 18 45  1  0
 19 46  1  0
 20 47  1  0
 21 48  1  0
 23 49  1  0
 23 50  1  0
 24 51  1  0
M  END
>  <UniqueID>  (33) 
31

>  <SMILES>  (33) 
Cc1ccc(CNC(=O)[C@@H]2CCCN(CCc3ccccn3)C2)cn1

>  <Energy>  (33) 
57.50119779586096

>  <Genealogy>  (33) 
Cc1ccc(CNC(=O)[C@@H]2CCCN(CCc3ccccn3)C2)cn1 (chirality)
Cc1ccc(CNC(=O)[C@@H]2CCCN(CCc3ccccn3)C2)cn1 (3D coordinates assigned)
Cc1ccc(CNC(=O)[C@@H]2CCCN(CCc3ccccn3)C2)cn1 (nonaromatic ring conformer: 57.50119779586096 kcal/mol)

>  <smiles>  (33) 
Cc1ccc(CNC(=O)C2CCCN(CCc3ccccn3)C2)cn1

>  <score_type>  (33) 
oracle

>  <origin>  (33) 
adg

>  <m_score__min__energy>  (33) 
-8.6400000000000006

>  <m_primary>  (33) 
energy

$$$$
33:0
     RDKit          3D

 43 45  0  0  0  0  0  0  0  0999 V2000
   -1.6140   22.0460  -27.0550 C   0  0  0  0  0  0  0  0  0  0  0  0
   -1.2600   23.4630  -26.6080 C   0  0  0  0  0  0  0  0  0  0  0  0
   -2.2360   24.4410  -27.1350 N   0  0  0  0  0  0  0  0  0  0  0  0
   -2.7660   25.3330  -26.0730 C   0  0  0  0  0  0  0  0  0  0  0  0
   -1.6420   26.2090  -25.5340 C   0  0  0  0  0  0  0  0  0  0  0  0
   -1.6360   25.2180  -28.2400 C   0  0  0  0  0  0  0  0  0  0  0  0
   -2.5390   25.2970  -29.3440 O   0  0  0  0  0  0  0  0  0  0  0  0
   -3.1050   24.1910  -29.9990 C   0  0  0  0  0  0  0  0  0  0  0  0
   -4.4300   24.1860  -30.4700 C   0  0  0  0  0  0  0  0  0  0  0  0
   -4.9410   23.0630  -31.1280 C   0  0  0  0  0  0  0  0  0  0  0  0
   -4.1430   21.9210  -31.3240 C   0  0  0  0  0  0  0  0  0  0  0  0
   -4.6940   20.7330  -32.0260 C   0  0  0  0  0  0  0  0  0  0  0  0
   -5.8040   19.9720  -31.6300 C   0  0  0  0  0  0  0  0  0  0  0  0
   -6.0750   18.9130  -32.5040 C   0  0  0  0  0  0  0  0  0  0  0  0
   -7.1130   17.9850  -32.3780 C   0  0  0  0  0  0  0  0  0  0  0  0
   -7.2450   16.9810  -33.3510 C   0  0  0  0  0  0  0  0  0  0  0  0
   -6.3460   16.9130  -34.4340 C   0  0  0  0  0  0  0  0  0  0  0  0
   -5.3070   17.8500  -34.5510 C   0  0  0  0  0  0  0  0  0  0  0  0
   -5.1980   18.8350  -33.5740 C   0  0  0  0  0  0  0  0  0  0  0  0
   -4.0730   20.0720  -33.4620 S   0  0  0  0  0  0  0  0  0  0  0  0
   -2.8190   21.9340  -30.8490 C   0  0  0  0  0  0  0  0  0  0  0  0
   -2.3100   23.0580  -30.1920 C   0  0  0  0  0  0  0  0  0  0  0  0
   -1.7725   21.4114  -26.1706 H   0  0  0  0  0  0  0  0  0  0  0  0
   -2.5336   22.0708  -27.6581 H   0  0  0  0  0  0  0  0  0  0  0  0
   -0.7908   21.6354  -27.6581 H   0  0  0  0  0  0  0  0  0  0  0  0
   -1.2647   23.5058  -25.5088 H   0  0  0  0  0  0  0  0  0  0  0  0
   -0.2630   23.7161  -26.9977 H   0  0  0  0  0  0  0  0  0  0  0  0
   -3.5583   25.9706  -26.4921 H   0  0  0  0  0  0  0  0  0  0  0  0
   -3.1782   24.7232  -25.2555 H   0  0  0  0  0  0  0  0  0  0  0  0
   -1.6609   26.1943  -24.4343 H   0  0  0  0  0  0  0  0  0  0  0  0
   -0.6747   25.8242  -25.8893 H   0  0  0  0  0  0  0  0  0  0  0  0
   -1.7789   27.2410  -25.8893 H   0  0  0  0  0  0  0  0  0  0  0  0
   -1.4076   26.2340  -27.8857 H   0  0  0  0  0  0  0  0  0  0  0  0
   -0.7147   24.7151  -28.5692 H   0  0  0  0  0  0  0  0  0  0  0  0
   -5.0675   25.0698  -30.3201 H   0  0  0  0  0  0  0  0  0  0  0  0
   -5.9775   23.0725  -31.4962 H   0  0  0  0  0  0  0  0  0  0  0  0
   -6.3979   20.1849  -30.7289 H   0  0  0  0  0  0  0  0  0  0  0  0
   -7.8138   18.0403  -31.5319 H   0  0  0  0  0  0  0  0  0  0  0  0
   -8.0559   16.2425  -33.2671 H   0  0  0  0  0  0  0  0  0  0  0  0
   -6.4587   16.1227  -35.1907 H   0  0  0  0  0  0  0  0  0  0  0  0
   -4.5988   17.8067  -35.3916 H   0  0  0  0  0  0  0  0  0  0  0  0
   -2.1785   21.0519  -30.9959 H   0  0  0  0  0  0  0  0  0  0  0  0
   -1.2736   23.0506  -29.8233 H   0  0  0  0  0  0  0  0  0  0  0  0
  1  2  1  0
  2  3  1  0
  3  4  1  0
  4  5  1  0
  3  6  1  0
  6  7  1  0
  7  8  1  0
  8  9  2  0
  9 10  1  0
 10 11  2  0
 11 12  1  0
 12 13  2  0
 13 14  1  0
 14 15  2  0
 15 16  1  0
 16 17  2  0
 17 18  1  0
 18 19  2  0
 19 20  1  0
 11 21  1  0
 21 22  2  0
 22  8  1  0
 20 12  1  0
 19 14  1  0
  1 23  1  0
  1 24  1  0
  1 25  1  0
  2 26  1  0
  2 27  1  0
  4 28  1  0
  4 29  1  0
  5 30  1  0
  5 31  1  0
  5 32  1  0
  6 33  1  0
  6 34  1  0
  9 35  1  0
 10 36  1  0
 13 37  1  0
 15 38  1  0
 16 39  1  0
 17 40  1  0
 18 41  1  0
 21 42  1  0
 22 43  1  0
M  END
>  <UniqueID>  (34) 
32

>  <SMILES>  (34) 
CCN(CC)COc1ccc(-c2cc3ccccc3s2)cc1

>  <Energy>  (34) 
76.41859225519427

>  <Genealogy>  (34) 
CCN(CC)COc1ccc(-c2cc3ccccc3s2)cc1 (3D coordinates assigned)
CCN(CC)COc1ccc(-c2cc3ccccc3s2)cc1 (optimized conformer: 76.41859225519427 kcal/mol)

>  <smiles>  (34) 
CCN(CC)COc1ccc(-c2cc3ccccc3s2)cc1

>  <score_type>  (34) 
oracle

>  <origin>  (34) 
adg

>  <m_score__min__energy>  (34) 
-7.4000000000000004

>  <m_primary>  (34) 
energy

$$$$
34:0
     RDKit          3D

 46 49  0  0  0  0  0  0  0  0999 V2000
   -2.5750   20.1560  -27.8680 C   0  0  0  0  0  0  0  0  0  0  0  0
   -2.7060   21.5610  -28.3730 C   0  0  0  0  0  0  0  0  0  0  0  0
   -3.8140   22.0480  -29.0380 C   0  0  0  0  0  0  0  0  0  0  0  0
   -3.5150   23.3510  -29.3810 C   0  0  0  0  0  0  0  0  0  0  0  0
   -4.3720   24.2020  -30.2240 C   0  0  0  0  0  0  0  0  0  0  0  0
   -3.9030   25.2860  -30.6650 O   0  0  0  0  0  0  0  0  0  0  0  0
   -5.8400   23.8910  -30.4510 C   0  0  0  0  0  0  0  0  0  0  0  0
   -6.1300   23.3300  -31.7930 N   0  0  0  0  0  0  0  0  0  0  0  0
   -5.4210   22.0940  -32.0330 C   0  0  0  0  0  0  0  0  0  0  0  0
   -4.1620   22.0140  -32.0900 O   0  0  0  0  0  0  0  0  0  0  0  0
   -6.3230   20.9710  -32.2280 C   0  0  0  0  0  0  0  0  0  0  0  0
   -6.0650   19.6100  -32.3750 C   0  0  0  0  0  0  0  0  0  0  0  0
   -7.1630   18.7360  -32.4530 C   0  0  0  0  0  0  0  0  0  0  0  0
   -8.4810   19.2380  -32.3810 C   0  0  0  0  0  0  0  0  0  0  0  0
   -8.7100   20.6200  -32.2330 C   0  0  0  0  0  0  0  0  0  0  0  0
   -7.6000   21.4590  -32.1600 C   0  0  0  0  0  0  0  0  0  0  0  0
   -7.5010   22.8930  -31.9260 C   0  0  0  0  0  0  0  0  0  0  0  0
   -8.4870   23.6710  -31.8380 O   0  0  0  0  0  0  0  0  0  0  0  0
   -2.2530   23.6270  -28.8710 C   0  0  0  0  0  0  0  0  0  0  0  0
   -1.5230   24.9320  -28.9970 C   0  0  0  0  0  0  0  0  0  0  0  0
   -1.7590   22.5230  -28.2580 N   0  0  0  0  0  0  0  0  0  0  0  0
   -0.4240   22.3650  -27.6700 C   0  0  0  0  0  0  0  0  0  0  0  0
   -0.3740   23.0120  -26.3210 C   0  0  0  0  0  0  0  0  0  0  0  0
   -0.4980   22.3630  -25.1010 C   0  0  0  0  0  0  0  0  0  0  0  0
   -0.4820   23.2400  -24.0080 C   0  0  0  0  0  0  0  0  0  0  0  0
   -0.3560   24.5750  -24.3660 C   0  0  0  0  0  0  0  0  0  0  0  0
   -0.2620   24.6660  -26.0430 S   0  0  0  0  0  0  0  0  0  0  0  0
   -2.5754   20.1602  -26.7680 H   0  0  0  0  0  0  0  0  0  0  0  0
   -3.4210   19.5549  -28.2327 H   0  0  0  0  0  0  0  0  0  0  0  0
   -1.6325   19.7217  -28.2327 H   0  0  0  0  0  0  0  0  0  0  0  0
   -4.7473   21.5063  -29.2514 H   0  0  0  0  0  0  0  0  0  0  0  0
   -6.1618   23.1619  -29.6928 H   0  0  0  0  0  0  0  0  0  0  0  0
   -6.3857   24.8431  -30.3758 H   0  0  0  0  0  0  0  0  0  0  0  0
   -5.9010   24.0200  -32.5440 H   0  0  0  0  0  0  0  0  0  0  0  0
   -5.0337   19.2310  -32.4284 H   0  0  0  0  0  0  0  0  0  0  0  0
   -6.9948   17.6553  -32.5707 H   0  0  0  0  0  0  0  0  0  0  0  0
   -9.3338   18.5458  -32.4408 H   0  0  0  0  0  0  0  0  0  0  0  0
   -9.7317   21.0236  -32.1769 H   0  0  0  0  0  0  0  0  0  0  0  0
   -1.3021   25.3269  -27.9944 H   0  0  0  0  0  0  0  0  0  0  0  0
   -0.5820   24.7744  -29.5445 H   0  0  0  0  0  0  0  0  0  0  0  0
   -2.1497   25.6513  -29.5445 H   0  0  0  0  0  0  0  0  0  0  0  0
   -0.1963   21.2937  -27.5679 H   0  0  0  0  0  0  0  0  0  0  0  0
    0.3167   22.8452  -28.3263 H   0  0  0  0  0  0  0  0  0  0  0  0
   -0.5985   21.2721  -25.0018 H   0  0  0  0  0  0  0  0  0  0  0  0
   -0.5618   22.9020  -22.9643 H   0  0  0  0  0  0  0  0  0  0  0  0
   -0.3232   25.4277  -23.6718 H   0  0  0  0  0  0  0  0  0  0  0  0
  1  2  1  0
  2  3  2  0
  3  4  1  0
  4  5  1  0
  5  6  2  0
  5  7  1  0
  7  8  1  0
  8  9  1  0
  9 10  2  0
  9 11  1  0
 11 12  2  0
 12 13  1  0
 13 14  2  0
 14 15  1  0
 15 16  2  0
 16 17  1  0
 17 18  2  0
  4 19  2  0
 19 20  1  0
 19 21  1  0
 21 22  1  0
 22 23  1  0
 23 24  2  0
 24 25  1  0
 25 26  2  0
 26 27  1  0
 21  2  1  0
 27 23  1  0
 17  8  1  0
 16 11  1  0
  1 28  1  0
  1 29  1  0
  1 30  1  0
  3 31  1  0
  7 32  1  0
  7 33  1  0
  8 34  1  0
 12 35  1  0
 13 36  1  0
 14 37  1  0
 15 38  1  0
 20 39  1  0
 20 40  1  0
 20 41  1  0
 22 42  1  0
 22 43  1  0
 24 44  1  0
 25 45  1  0
 26 46  1  0
M  CHG  1   8   1
M  END
>  <UniqueID>  (35) 
33

>  <SMILES>  (35) 
Cc1cc(C(=O)C[NH+]2C(=O)c3ccccc3C2=O)c(C)n1Cc1cccs1

>  <Energy>  (35) 
126.27984609611812

>  <Genealogy>  (35) 
Cc1cc(C(=O)C[NH+]2C(=O)c3ccccc3C2=O)c(C)n1Cc1cccs1 (protonated)
Cc1cc(C(=O)C[NH+]2C(=O)c3ccccc3C2=O)c(C)n1Cc1cccs1 (3D coordinates assigned)
Cc1cc(C(=O)C[NH+]2C(=O)c3ccccc3C2=O)c(C)n1Cc1cccs1 (nonaromatic ring conformer: 126.27984609611812 kcal/mol)

>  <smiles>  (35) 
Cc1cc(C(=O)CN2C(=O)c3ccccc3C2=O)c(C)n1Cc1cccs1

>  <score_type>  (35) 
oracle

>  <origin>  (35) 
adg

>  <m_score__min__energy>  (35) 
-9.3300000000000001

>  <m_primary>  (35) 
energy

$$$$
35:0
     RDKit          3D

 46 48  0  0  0  0  0  0  0  0999 V2000
   -3.2260   22.4310  -30.5310 C   0  0  0  0  0  0  0  0  0  0  0  0
   -4.5550   23.0130  -30.6830 N   0  0  0  0  0  0  0  0  0  0  0  0
   -4.7830   24.4190  -30.8420 C   0  0  0  0  0  0  0  0  0  0  0  0
   -3.8470   25.2620  -30.8310 O   0  0  0  0  0  0  0  0  0  0  0  0
   -6.2260   24.8000  -31.0190 C   0  0  2  0  0  0  0  0  0  0  0  0
   -6.9700   24.2650  -29.7700 C   0  0  0  0  0  0  0  0  0  0  0  0
   -6.7140   22.7370  -29.6010 C   0  0  0  0  0  0  0  0  0  0  0  0
   -5.7970   22.2270  -30.7460 C   0  0  1  0  0  0  0  0  0  0  0  0
   -6.4300   22.5190  -32.0630 N   0  0  0  0  0  0  0  0  0  0  0  0
   -7.5920   21.6490  -32.3420 C   0  0  0  0  0  0  0  0  0  0  0  0
   -7.1500   20.2300  -32.5980 C   0  0  0  0  0  0  0  0  0  0  0  0
   -7.8250   19.1560  -31.9990 C   0  0  0  0  0  0  0  0  0  0  0  0
   -7.4710   17.8410  -32.3040 C   0  0  0  0  0  0  0  0  0  0  0  0
   -6.4640   17.5720  -33.2460 C   0  0  0  0  0  0  0  0  0  0  0  0
   -6.1780   16.1670  -33.6210 C   0  0  0  0  0  0  0  0  0  0  0  0
   -7.0400   15.5430  -34.3040 O   0  0  0  0  0  0  0  0  0  0  0  0
   -4.8650   15.5900  -33.3970 N   0  0  0  0  0  0  0  0  0  0  0  0
   -4.9400   14.1480  -33.0960 C   0  0  0  0  0  0  0  0  0  0  0  0
   -4.0310   15.8140  -34.5890 C   0  0  0  0  0  0  0  0  0  0  0  0
   -5.7860   18.6480  -33.8410 C   0  0  0  0  0  0  0  0  0  0  0  0
   -6.1290   19.9650  -33.5230 C   0  0  0  0  0  0  0  0  0  0  0  0
   -6.7390   23.9780  -32.2270 C   0  0  0  0  0  0  0  0  0  0  0  0
   -2.9909   22.3281  -29.4613 H   0  0  0  0  0  0  0  0  0  0  0  0
   -3.2027   21.4403  -31.0085 H   0  0  0  0  0  0  0  0  0  0  0  0
   -2.4822   23.0858  -31.0085 H   0  0  0  0  0  0  0  0  0  0  0  0
   -6.3683   25.8820  -31.1569 H   0  0  0  0  0  0  0  0  0  0  0  0
   -6.6070   24.7947  -28.8769 H   0  0  0  0  0  0  0  0  0  0  0  0
   -8.0494   24.4351  -29.8964 H   0  0  0  0  0  0  0  0  0  0  0  0
   -6.2253   22.5536  -28.6327 H   0  0  0  0  0  0  0  0  0  0  0  0
   -7.6742   22.2016  -29.6391 H   0  0  0  0  0  0  0  0  0  0  0  0
   -5.6224   21.1461  -30.6401 H   0  0  0  0  0  0  0  0  0  0  0  0
   -8.2703   21.6647  -31.4762 H   0  0  0  0  0  0  0  0  0  0  0  0
   -8.1065   22.0250  -33.2386 H   0  0  0  0  0  0  0  0  0  0  0  0
   -8.6382   19.3515  -31.2846 H   0  0  0  0  0  0  0  0  0  0  0  0
   -7.9850   17.0078  -31.8024 H   0  0  0  0  0  0  0  0  0  0  0  0
   -4.3990   16.0540  -32.5840 H   0  0  0  0  0  0  0  0  0  0  0  0
   -4.9477   14.0009  -32.0059 H   0  0  0  0  0  0  0  0  0  0  0  0
   -5.8611   13.7305  -33.5288 H   0  0  0  0  0  0  0  0  0  0  0  0
   -4.0672   13.6372  -33.5288 H   0  0  0  0  0  0  0  0  0  0  0  0
   -3.0121   16.0877  -34.2775 H   0  0  0  0  0  0  0  0  0  0  0  0
   -3.9958   14.8935  -35.1902 H   0  0  0  0  0  0  0  0  0  0  0  0
   -4.4618   16.6283  -35.1902 H   0  0  0  0  0  0  0  0  0  0  0  0
   -4.9790   18.4530  -34.5626 H   0  0  0  0  0  0  0  0  0  0  0  0
   -5.5949   20.7993  -34.0011 H   0  0  0  0  0  0  0  0  0  0  0  0
   -6.2542   24.3464  -33.1431 H   0  0  0  0  0  0  0  0  0  0  0  0
   -7.8307   24.0972  -32.2901 H   0  0  0  0  0  0  0  0  0  0  0  0
  1  2  1  0
  2  3  1  0
  3  4  2  0
  3  5  1  0
  5  6  1  0
  6  7  1  0
  7  8  1  0
  8  9  1  0
  9 10  1  0
 10 11  1  0
 11 12  2  0
 12 13  1  0
 13 14  2  0
 14 15  1  0
 15 16  2  0
 15 17  1  0
 17 18  1  0
 17 19  1  0
 14 20  1  0
 20 21  2  0
  9 22  1  0
  8  2  1  0
 21 11  1  0
 22  5  1  0
  1 23  1  0
  1 24  1  0
  1 25  1  0
  5 26  1  6
  6 27  1  0
  6 28  1  0
  7 29  1  0
  7 30  1  0
  8 31  1  1
 10 32  1  0
 10 33  1  0
 12 34  1  0
 13 35  1  0
 17 36  1  0
 18 37  1  0
 18 38  1  0
 18 39  1  0
 19 40  1  0
 19 41  1  0
 19 42  1  0
 20 43  1  0
 21 44  1  0
 22 45  1  0
 22 46  1  0
M  CHG  1  17   1
M  END
>  <UniqueID>  (36) 
34

>  <SMILES>  (36) 
CN1C(=O)[C@@H]2CC[C@H]1N(Cc1ccc(C(=O)[NH+](C)C)cc1)C2

>  <Energy>  (36) 
72.21804606185333

>  <Genealogy>  (36) 
CN1C(=O)C2CCC1N(Cc1ccc(C(=O)[NH+](C)C)cc1)C2 (protonated)
CN1C(=O)[C@@H]2CC[C@H]1N(Cc1ccc(C(=O)[NH+](C)C)cc1)C2 (chirality)
CN1C(=O)[C@@H]2CC[C@H]1N(Cc1ccc(C(=O)[NH+](C)C)cc1)C2 (3D coordinates assigned)
CN1C(=O)[C@@H]2CC[C@H]1N(Cc1ccc(C(=O)[NH+](C)C)cc1)C2 (nonaromatic ring conformer: 72.21804606185333 kcal/mol)

>  <smiles>  (36) 
CN(C)C(=O)c1ccc(CN2CC3CCC2N(C)C3=O)cc1

>  <score_type>  (36) 
oracle

>  <origin>  (36) 
adg

>  <m_score__min__energy>  (36) 
-7.7300000000000004

>  <m_primary>  (36) 
energy

$$$$
36:0
     RDKit          3D

 39 41  0  0  1  0  0  0  0  0999 V2000
   -3.1960   23.9390  -27.5030 C   0  0  0  0  0  0  0  0  0  0  0  0
   -4.5120   24.5110  -27.9870 C   0  0  0  0  0  0  0  0  0  0  0  0
   -5.0030   23.8040  -29.1540 N   0  0  0  0  0  0  0  0  0  0  0  0
   -4.4430   24.1360  -30.4260 C   0  0  0  0  0  0  0  0  0  0  0  0
   -3.5540   25.0310  -30.4290 O   0  0  0  0  0  0  0  0  0  0  0  0
   -5.5740   19.3110  -34.1750 N   0  0  0  0  0  0  0  0  0  0  0  0
   -4.3540   19.3580  -33.8190 C   0  0  0  0  0  0  0  0  0  0  0  0
   -4.6870   21.4310  -32.7440 C   0  0  0  0  0  0  0  0  0  0  0  0
   -3.8350   20.4090  -33.0890 C   0  0  0  0  0  0  0  0  0  0  0  0
   -4.1530   22.4750  -32.0140 C   0  0  0  0  0  0  0  0  0  0  0  0
   -4.8590   23.4970  -31.6310 N   0  0  0  0  0  0  0  0  0  0  0  0
   -6.6770   19.1310  -33.3000 C   0  0  0  0  0  0  0  0  0  0  0  0
   -7.0670   17.9180  -32.7930 C   0  0  0  0  0  0  0  0  0  0  0  0
   -8.1480   17.7920  -31.9440 C   0  0  0  0  0  0  0  0  0  0  0  0
   -8.8490   18.9410  -31.6040 C   0  0  0  0  0  0  0  0  0  0  0  0
   -8.4950   20.1900  -32.0890 C   0  0  0  0  0  0  0  0  0  0  0  0
   -9.4780   21.7700  -31.6060 Br  0  0  0  0  0  0  0  0  0  0  0  0
   -7.3920   20.2750  -32.9460 C   0  0  0  0  0  0  0  0  0  0  0  0
   -2.8570   22.4640  -31.6710 N   0  0  0  0  0  0  0  0  0  0  0  0
   -2.0130   21.4670  -32.0030 C   0  0  0  0  0  0  0  0  0  0  0  0
   -1.7120   19.3630  -33.1030 N   0  0  0  0  0  0  0  0  0  0  0  0
   -2.4960   20.3940  -32.7360 C   0  0  0  0  0  0  0  0  0  0  0  0
   -2.2440   18.3420  -33.8210 C   0  0  0  0  0  0  0  0  0  0  0  0
   -3.5450   18.3560  -34.1640 N   0  0  0  0  0  0  0  0  0  0  0  0
   -3.1814   23.9326  -26.4031 H   0  0  0  0  0  0  0  0  0  0  0  0
   -3.0834   22.9107  -27.8772 H   0  0  0  0  0  0  0  0  0  0  0  0
   -2.3673   24.5581  -27.8772 H   0  0  0  0  0  0  0  0  0  0  0  0
   -5.2555   24.4287  -27.1805 H   0  0  0  0  0  0  0  0  0  0  0  0
   -4.3493   25.5629  -28.2645 H   0  0  0  0  0  0  0  0  0  0  0  0
   -5.7410   23.0670  -29.1150 H   0  0  0  0  0  0  0  0  0  0  0  0
   -5.7474   21.4180  -33.0364 H   0  0  0  0  0  0  0  0  0  0  0  0
   -6.5006   17.0171  -33.0716 H   0  0  0  0  0  0  0  0  0  0  0  0
   -8.4454   16.8097  -31.5483 H   0  0  0  0  0  0  0  0  0  0  0  0
   -9.7129   18.8574  -30.9282 H   0  0  0  0  0  0  0  0  0  0  0  0
   -7.0859   21.2536  -33.3443 H   0  0  0  0  0  0  0  0  0  0  0  0
   -2.4620   23.2670  -31.1130 H   0  0  0  0  0  0  0  0  0  0  0  0
   -0.9571   21.5041  -31.6970 H   0  0  0  0  0  0  0  0  0  0  0  0
   -1.6078   17.4976  -34.1246 H   0  0  0  0  0  0  0  0  0  0  0  0
   -3.9010   17.5460  -34.7140 H   0  0  0  0  0  0  0  0  0  0  0  0
  1  2  1  0
  2  3  1  0
  3  4  1  0
  4  5  2  0
  4  6  1  0
  6  7  2  0
  7  8  1  0
  8  9  2  0
  9 10  1  0
 10 11  2  0
 11 12  1  0
 12 13  2  0
 13 14  1  0
 14 15  2  0
 15 16  1  0
 16 17  1  0
 16 18  2  0
 10 19  1  0
 19 20  1  0
 20 21  2  0
 21 22  1  0
 22 23  2  0
 23 24  1  0
 24  7  1  0
 22  9  1  0
 18 12  1  0
  1 25  1  0
  1 26  1  0
  1 27  1  0
  2 28  1  0
  2 29  1  0
  3 30  1  0
  8 31  1  0
 13 32  1  0
 14 33  1  0
 15 34  1  0
 18 35  1  0
 19 36  1  0
 20 37  1  0
 23 38  1  0
 24 39  1  0
M  END
>  <smiles>  (37) 
CCNC(=O)N=c1cc2c(=Nc3cccc(Br)c3)[nH]cnc2c[nH]1

>  <score_type>  (37) 
oracle

>  <origin>  (37) 
adg

>  <m_score__min__energy>  (37) 
-8.5500000000000007

>  <m_primary>  (37) 
energy

$$$$
37:0
     RDKit          3D

 70 72  0  0  0  0  0  0  0  0999 V2000
   -1.8480   21.0940  -35.3260 H   0  0  0  0  0  0  0  0  0  0  0  0
   -1.4060   20.8140  -34.4200 N   0  0  0  0  0  0  0  0  0  0  0  0
   -1.9920   20.9410  -33.2640 C   0  0  0  0  0  0  0  0  0  0  0  0
   -3.3840   20.8580  -33.2310 C   0  0  0  0  0  0  0  0  0  0  0  0
   -3.8859   20.9191  -34.2079 H   0  0  0  0  0  0  0  0  0  0  0  0
   -4.2230   20.7090  -32.1360 C   0  0  0  0  0  0  0  0  0  0  0  0
   -5.6720   20.6970  -32.4190 C   0  0  0  0  0  0  0  0  0  0  0  0
   -6.2230   21.7490  -32.8440 O   0  0  0  0  0  0  0  0  0  0  0  0
   -6.4810   19.5620  -32.0560 N   0  0  0  0  0  0  0  0  0  0  0  0
   -7.7630   19.7800  -31.3690 C   0  0  0  0  0  0  0  0  0  0  0  0
   -8.0882   18.8364  -30.9065 H   0  0  0  0  0  0  0  0  0  0  0  0
   -7.6223   20.5565  -30.6027 H   0  0  0  0  0  0  0  0  0  0  0  0
   -8.8430   20.2550  -32.3550 C   0  0  0  0  0  0  0  0  0  0  0  0
   -8.4016   20.3184  -33.3606 H   0  0  0  0  0  0  0  0  0  0  0  0
   -9.6696   19.5298  -32.3260 H   0  0  0  0  0  0  0  0  0  0  0  0
   -9.4070   21.6260  -31.9770 C   0  0  0  0  0  0  0  0  0  0  0  0
   -9.4447   21.7176  -30.8815 H   0  0  0  0  0  0  0  0  0  0  0  0
   -8.7603   22.4148  -32.3889 H   0  0  0  0  0  0  0  0  0  0  0  0
  -10.4215   21.7314  -32.3889 H   0  0  0  0  0  0  0  0  0  0  0  0
   -6.0870   18.1940  -32.4310 C   0  0  0  0  0  0  0  0  0  0  0  0
   -4.9942   18.1009  -32.3473 H   0  0  0  0  0  0  0  0  0  0  0  0
   -6.5923   17.4905  -31.7529 H   0  0  0  0  0  0  0  0  0  0  0  0
   -6.5080   17.8630  -33.8720 C   0  0  0  0  0  0  0  0  0  0  0  0
   -6.7244   16.7865  -33.9378 H   0  0  0  0  0  0  0  0  0  0  0  0
   -7.3949   18.4692  -34.1085 H   0  0  0  0  0  0  0  0  0  0  0  0
   -5.4250   18.2080  -34.8920 C   0  0  0  0  0  0  0  0  0  0  0  0
   -4.5050   18.5011  -34.3650 H   0  0  0  0  0  0  0  0  0  0  0  0
   -5.2224   17.3299  -35.5228 H   0  0  0  0  0  0  0  0  0  0  0  0
   -5.7676   19.0415  -35.5228 H   0  0  0  0  0  0  0  0  0  0  0  0
   -3.8230   20.4600  -30.8260 C   0  0  0  0  0  0  0  0  0  0  0  0
   -4.5303   19.8939  -30.2021 H   0  0  0  0  0  0  0  0  0  0  0  0
   -2.6270   20.8450  -30.2090 C   0  0  0  0  0  0  0  0  0  0  0  0
   -2.6260   20.7840  -28.7950 C   0  0  0  0  0  0  0  0  0  0  0  0
   -3.4225   20.2283  -28.2785 H   0  0  0  0  0  0  0  0  0  0  0  0
   -1.6360   21.4140  -28.0450 C   0  0  0  0  0  0  0  0  0  0  0  0
   -1.6607   21.3623  -26.9465 H   0  0  0  0  0  0  0  0  0  0  0  0
   -0.6170   22.1080  -28.6860 C   0  0  0  0  0  0  0  0  0  0  0  0
    0.2020   23.0810  -27.9420 C   0  0  0  0  0  0  0  0  0  0  0  0
    0.9800   23.8500  -28.5640 O   0  0  0  0  0  0  0  0  0  0  0  0
    0.1690   23.1120  -26.5060 N   0  0  0  0  0  0  0  0  0  0  0  0
   -0.8610   23.8490  -25.7760 C   0  0  0  0  0  0  0  0  0  0  0  0
   -1.7703   23.2325  -25.7202 H   0  0  0  0  0  0  0  0  0  0  0  0
   -0.4782   24.0728  -24.7693 H   0  0  0  0  0  0  0  0  0  0  0  0
   -1.1970   25.1670  -26.4650 C   0  0  0  0  0  0  0  0  0  0  0  0
   -1.4883   25.9138  -25.7117 H   0  0  0  0  0  0  0  0  0  0  0  0
   -0.3183   25.5349  -27.0150 H   0  0  0  0  0  0  0  0  0  0  0  0
   -2.3400   24.9400  -27.4210 C   0  0  0  0  0  0  0  0  0  0  0  0
   -3.5960   24.5510  -26.9330 C   0  0  0  0  0  0  0  0  0  0  0  0
   -3.7844   24.5488  -25.8493 H   0  0  0  0  0  0  0  0  0  0  0  0
   -4.6100   24.1660  -27.8150 C   0  0  0  0  0  0  0  0  0  0  0  0
   -5.5927   23.8736  -27.4166 H   0  0  0  0  0  0  0  0  0  0  0  0
   -4.3910   24.1470  -29.2100 C   0  0  0  0  0  0  0  0  0  0  0  0
   -5.4320   23.7040  -30.1240 N   0  0  0  0  0  0  0  0  0  0  0  0
   -5.5340   24.2710  -31.4760 C   0  0  0  0  0  0  0  0  0  0  0  0
   -5.7284   25.3515  -31.4068 H   0  0  0  0  0  0  0  0  0  0  0  0
   -4.5910   24.1020  -32.0166 H   0  0  0  0  0  0  0  0  0  0  0  0
   -6.3589   23.7839  -32.0166 H   0  0  0  0  0  0  0  0  0  0  0  0
   -6.4170   22.6980  -29.7040 C   0  0  0  0  0  0  0  0  0  0  0  0
   -6.4554   22.6588  -28.6054 H   0  0  0  0  0  0  0  0  0  0  0  0
   -7.4083   22.9694  -30.0961 H   0  0  0  0  0  0  0  0  0  0  0  0
   -6.1248   21.7127  -30.0961 H   0  0  0  0  0  0  0  0  0  0  0  0
   -3.1240   24.5470  -29.6880 C   0  0  0  0  0  0  0  0  0  0  0  0
   -2.9301   24.5544  -30.7707 H   0  0  0  0  0  0  0  0  0  0  0  0
   -2.1120   24.9340  -28.8030 C   0  0  0  0  0  0  0  0  0  0  0  0
   -1.1297   25.2359  -29.1954 H   0  0  0  0  0  0  0  0  0  0  0  0
   -0.5020   22.0230  -30.0720 C   0  0  0  0  0  0  0  0  0  0  0  0
    0.3785   22.4629  -30.5632 H   0  0  0  0  0  0  0  0  0  0  0  0
   -1.4840   21.3880  -30.8640 C   0  0  0  0  0  0  0  0  0  0  0  0
   -1.2070   21.2710  -32.2000 N   0  0  0  0  0  0  0  0  0  0  0  0
   -0.2230   21.5040  -32.4700 H   0  0  0  0  0  0  0  0  0  0  0  0
  1  2  1  0
  2  3  2  0
  3  4  1  0
  4  5  1  0
  4  6  2  0
  6  7  1  0
  7  8  2  0
  7  9  1  0
  9 10  1  0
 10 11  1  0
 10 12  1  0
 10 13  1  0
 13 14  1  0
 13 15  1  0
 13 16  1  0
 16 17  1  0
 16 18  1  0
 16 19  1  0
  9 20  1  0
 20 21  1  0
 20 22  1  0
 20 23  1  0
 23 24  1  0
 23 25  1  0
 23 26  1  0
 26 27  1  0
 26 28  1  0
 26 29  1  0
  6 30  1  0
 30 31  1  0
 30 32  2  0
 32 33  1  0
 33 34  1  0
 33 35  2  0
 35 36  1  0
 35 37  1  0
 37 38  1  0
 38 39  2  0
 38 40  1  0
 40 41  1  0
 41 42  1  0
 41 43  1  0
 41 44  1  0
 44 45  1  0
 44 46  1  0
 44 47  1  0
 47 48  2  0
 48 49  1  0
 48 50  1  0
 50 51  1  0
 50 52  2  0
 52 53  1  0
 53 54  1  0
 54 55  1  0
 54 56  1  0
 54 57  1  0
 53 58  1  0
 58 59  1  0
 58 60  1  0
 58 61  1  0
 52 62  1  0
 62 63  1  0
 62 64  2  0
 64 65  1  0
 37 66  2  0
 66 67  1  0
 66 68  1  0
 68 69  2  0
 69 70  1  0
 69  3  1  0
 68 32  1  0
 64 47  1  0
M  CHG  2  40  -1  69   1
M  END
>  <UniqueID>  (38) 
35

>  <SMILES>  (38) 
[H]/N=c1\cc(C(=O)N(CCC)CCC)cc2ccc(C(=O)[N-]CCc3ccc(N(C)C)cc3)cc2[nH+]1

>  <Energy>  (38) 
108.36703602224043

>  <Genealogy>  (38) 
CCCN(CCC)C(=O)c1cc(=N)[nH+]c2cc(C(=O)[N-]CCc3ccc(N(C)C)cc3)ccc2c1 (protonated)
[H]/N=c1\cc(C(=O)N(CCC)CCC)cc2ccc(C(=O)[N-]CCc3ccc(N(C)C)cc3)cc2[nH+]1 (cis-trans isomerization)
[H]/N=c1\cc(C(=O)N(CCC)CCC)cc2ccc(C(=O)[N-]CCc3ccc(N(C)C)cc3)cc2[nH+]1 (3D coordinates assigned)
[H]/N=c1\cc(C(=O)N(CCC)CCC)cc2ccc(C(=O)[N-]CCc3ccc(N(C)C)cc3)cc2[nH+]1 (optimized conformer: 108.36703602224043 kcal/mol)

>  <smiles>  (38) 
CCCN(CCC)C(=O)c1cc(=N)nc2cc(C(=O)NCCc3ccc(N(C)C)cc3)ccc2c1

>  <score_type>  (38) 
oracle

>  <origin>  (38) 
adg

>  <m_score__min__energy>  (38) 
-10.73

>  <m_primary>  (38) 
energy

$$$$
38:0
     RDKit          3D

 41 43  0  0  0  0  0  0  0  0999 V2000
   -3.9820   18.9630  -34.1940 C   0  0  0  0  0  0  0  0  0  0  0  0
   -5.1280   18.0430  -33.8600 C   0  0  0  0  0  0  0  0  0  0  0  0
   -5.0180   16.6860  -34.2010 C   0  0  0  0  0  0  0  0  0  0  0  0
   -6.0860   15.8030  -33.9530 C   0  0  0  0  0  0  0  0  0  0  0  0
   -6.0130   14.3990  -34.3020 N   0  0  0  0  0  0  0  0  0  0  0  0
   -7.2530   13.6780  -34.6130 C   0  0  0  0  0  0  0  0  0  0  0  0
   -4.7290   13.6870  -34.3480 C   0  0  0  0  0  0  0  0  0  0  0  0
   -7.2170   16.2900  -33.3740 N   0  0  0  0  0  0  0  0  0  0  0  0
   -7.3520   17.5910  -33.0140 C   0  0  0  0  0  0  0  0  0  0  0  0
   -6.3050   18.5010  -33.2210 C   0  0  0  0  0  0  0  0  0  0  0  0
   -6.4900   19.8990  -32.7740 C   0  0  0  0  0  0  0  0  0  0  0  0
   -7.6950   20.5000  -32.6900 N   0  0  0  0  0  0  0  0  0  0  0  0
   -7.4690   21.7110  -32.2040 N   0  0  0  0  0  0  0  0  0  0  0  0
   -8.5300   22.6720  -31.9270 C   0  0  0  0  0  0  0  0  0  0  0  0
   -6.1400   21.8390  -31.9930 C   0  0  0  0  0  0  0  0  0  0  0  0
   -5.4580   23.0240  -31.4300 C   0  0  0  0  0  0  0  0  0  0  0  0
   -6.1000   24.2720  -31.3710 C   0  0  0  0  0  0  0  0  0  0  0  0
   -5.4180   25.3740  -30.8490 C   0  0  0  0  0  0  0  0  0  0  0  0
   -4.1380   25.2400  -30.4100 N   0  0  0  0  0  0  0  0  0  0  0  0
   -3.4880   24.0480  -30.4670 C   0  0  0  0  0  0  0  0  0  0  0  0
   -4.1320   22.9220  -30.9840 C   0  0  0  0  0  0  0  0  0  0  0  0
   -5.5000   20.7030  -32.3270 N   0  0  0  0  0  0  0  0  0  0  0  0
   -3.5240   19.3307  -33.2640 H   0  0  0  0  0  0  0  0  0  0  0  0
   -3.2305   18.4145  -34.7809 H   0  0  0  0  0  0  0  0  0  0  0  0
   -4.3551   19.8153  -34.7809 H   0  0  0  0  0  0  0  0  0  0  0  0
   -4.0934   16.3108  -34.6640 H   0  0  0  0  0  0  0  0  0  0  0  0
   -7.7528   13.3874  -33.6772 H   0  0  0  0  0  0  0  0  0  0  0  0
   -7.9193   14.3295  -35.1975 H   0  0  0  0  0  0  0  0  0  0  0  0
   -7.0163   12.7767  -35.1975 H   0  0  0  0  0  0  0  0  0  0  0  0
   -4.3801   13.4935  -33.3229 H   0  0  0  0  0  0  0  0  0  0  0  0
   -4.8582   12.7317  -34.8778 H   0  0  0  0  0  0  0  0  0  0  0  0
   -3.9871   14.3026  -34.8778 H   0  0  0  0  0  0  0  0  0  0  0  0
   -8.2909   17.9352  -32.5557 H   0  0  0  0  0  0  0  0  0  0  0  0
   -8.6508   22.7814  -30.8391 H   0  0  0  0  0  0  0  0  0  0  0  0
   -8.2669   23.6455  -32.3664 H   0  0  0  0  0  0  0  0  0  0  0  0
   -9.4728   22.3141  -32.3664 H   0  0  0  0  0  0  0  0  0  0  0  0
   -7.1329   24.3809  -31.7334 H   0  0  0  0  0  0  0  0  0  0  0  0
   -5.9177   26.3524  -30.7930 H   0  0  0  0  0  0  0  0  0  0  0  0
   -2.4522   23.9699  -30.1051 H   0  0  0  0  0  0  0  0  0  0  0  0
   -3.6021   21.9598  -31.0412 H   0  0  0  0  0  0  0  0  0  0  0  0
   -4.4840   20.4890  -32.2290 H   0  0  0  0  0  0  0  0  0  0  0  0
  1  2  1  0
  2  3  2  0
  3  4  1  0
  4  5  1  0
  5  6  1  0
  5  7  1  0
  4  8  2  0
  8  9  1  0
  9 10  2  0
 10 11  1  0
 11 12  2  0
 12 13  1  0
 13 14  1  0
 13 15  1  0
 15 16  1  0
 16 17  2  0
 17 18  1  0
 18 19  2  0
 19 20  1  0
 20 21  2  0
 15 22  2  0
 10  2  1  0
 22 11  1  0
 21 16  1  0
  1 23  1  0
  1 24  1  0
  1 25  1  0
  3 26  1  0
  6 27  1  0
  6 28  1  0
  6 29  1  0
  7 30  1  0
  7 31  1  0
  7 32  1  0
  9 33  1  0
 14 34  1  0
 14 35  1  0
 14 36  1  0
 17 37  1  0
 18 38  1  0
 20 39  1  0
 21 40  1  0
 22 41  1  0
M  CHG  1  22   1
M  END
>  <UniqueID>  (39) 
36

>  <SMILES>  (39) 
Cc1cc(N(C)C)ncc1-c1nn(C)c(-c2ccncc2)[nH+]1

>  <Energy>  (39) 
87.71228701342753

>  <Genealogy>  (39) 
Cc1cc(N(C)C)ncc1-c1nn(C)c(-c2ccncc2)[nH+]1 (protonated)
Cc1cc(N(C)C)ncc1-c1nn(C)c(-c2ccncc2)[nH+]1 (3D coordinates assigned)
Cc1cc(N(C)C)ncc1-c1nn(C)c(-c2ccncc2)[nH+]1 (optimized conformer: 87.71228701342753 kcal/mol)

>  <smiles>  (39) 
Cc1cc(N(C)C)ncc1-c1nc(-c2ccncc2)n(C)n1

>  <score_type>  (39) 
oracle

>  <origin>  (39) 
adg

>  <m_score__min__energy>  (39) 
-6.9900000000000002

>  <m_primary>  (39) 
energy

$$$$
39:0
     RDKit          3D

 35 38  0  0  0  0  0  0  0  0999 V2000
   -9.6440   23.2060  -32.1660 F   0  0  0  0  0  0  0  0  0  0  0  0
   -9.5110   21.9210  -31.6700 C   0  0  0  0  0  0  0  0  0  0  0  0
   -9.8710   21.9200  -30.3330 F   0  0  0  0  0  0  0  0  0  0  0  0
  -10.3730   21.0820  -32.3520 F   0  0  0  0  0  0  0  0  0  0  0  0
   -8.0890   21.4580  -31.8580 C   0  0  0  0  0  0  0  0  0  0  0  0
   -7.7710   20.2510  -32.5170 C   0  0  0  0  0  0  0  0  0  0  0  0
   -6.4230   19.8320  -32.6430 C   0  0  0  0  0  0  0  0  0  0  0  0
   -6.0740   18.5660  -33.3370 C   0  0  0  0  0  0  0  0  0  0  0  0
   -6.8330   17.3970  -33.3870 C   0  0  0  0  0  0  0  0  0  0  0  0
   -6.2330   16.3700  -34.1280 C   0  0  0  0  0  0  0  0  0  0  0  0
   -5.0040   16.7150  -34.6690 C   0  0  0  0  0  0  0  0  0  0  0  0
   -4.6660   18.2980  -34.2250 S   0  0  0  0  0  0  0  0  0  0  0  0
   -5.4360   20.6120  -32.1000 N   0  0  0  0  0  0  0  0  0  0  0  0
   -5.7640   21.7420  -31.4760 N   0  0  0  0  0  0  0  0  0  0  0  0
   -4.9620   22.6210  -30.8650 C   0  0  0  0  0  0  0  0  0  0  0  0
   -5.7910   23.6110  -30.3580 C   0  0  0  0  0  0  0  0  0  0  0  0
   -5.3490   24.7680  -29.5210 C   0  0  0  0  0  0  0  0  0  0  0  0
   -3.9880   24.5440  -29.0490 N   0  0  0  0  0  0  0  0  0  0  0  0
   -3.6380   23.8720  -27.9360 C   0  0  0  0  0  0  0  0  0  0  0  0
   -2.2640   23.8220  -27.8890 C   0  0  0  0  0  0  0  0  0  0  0  0
   -1.1840   22.9930  -26.5530 Br  0  0  0  0  0  0  0  0  0  0  0  0
   -1.8340   24.4810  -29.0220 C   0  0  0  0  0  0  0  0  0  0  0  0
   -2.9060   24.9070  -29.7200 N   0  0  0  0  0  0  0  0  0  0  0  0
   -7.0900   23.3370  -30.6360 N   0  0  0  0  0  0  0  0  0  0  0  0
   -7.0190   22.1820  -31.3320 C   0  0  0  0  0  0  0  0  0  0  0  0
   -8.5764   19.6302  -32.9364 H   0  0  0  0  0  0  0  0  0  0  0  0
   -7.8096   17.2912  -32.8919 H   0  0  0  0  0  0  0  0  0  0  0  0
   -6.6946   15.3813  -34.2675 H   0  0  0  0  0  0  0  0  0  0  0  0
   -4.3625   16.0649  -35.2821 H   0  0  0  0  0  0  0  0  0  0  0  0
   -4.4300   20.3380  -32.1700 H   0  0  0  0  0  0  0  0  0  0  0  0
   -3.8664   22.5693  -30.7814 H   0  0  0  0  0  0  0  0  0  0  0  0
   -5.3799   25.6877  -30.1237 H   0  0  0  0  0  0  0  0  0  0  0  0
   -6.0215   24.8690  -28.6564 H   0  0  0  0  0  0  0  0  0  0  0  0
   -4.3278   23.4399  -27.1961 H   0  0  0  0  0  0  0  0  0  0  0  0
   -0.7836   24.6345  -29.3102 H   0  0  0  0  0  0  0  0  0  0  0  0
  1  2  1  0
  2  3  1  0
  2  4  1  0
  2  5  1  0
  5  6  2  0
  6  7  1  0
  7  8  1  0
  8  9  2  0
  9 10  1  0
 10 11  2  0
 11 12  1  0
  7 13  2  0
 13 14  1  0
 14 15  1  0
 15 16  2  0
 16 17  1  0
 17 18  1  0
 18 19  1  0
 19 20  2  0
 20 21  1  0
 20 22  1  0
 22 23  2  0
 16 24  1  0
 24 25  2  0
 25  5  1  0
 12  8  1  0
 25 14  1  0
 23 18  1  0
  6 26  1  0
  9 27  1  0
 10 28  1  0
 11 29  1  0
 13 30  1  0
 15 31  1  0
 17 32  1  0
 17 33  1  0
 19 34  1  0
 22 35  1  0
M  CHG  1  13   1
M  END
>  <UniqueID>  (40) 
37

>  <SMILES>  (40) 
FC(F)(F)c1cc(-c2cccs2)[nH+]n2cc(Cn3cc(Br)cn3)nc12

>  <Energy>  (40) 
130.8929118369273

>  <Genealogy>  (40) 
FC(F)(F)c1cc(-c2cccs2)[nH+]n2cc(Cn3cc(Br)cn3)nc12 (protonated)
FC(F)(F)c1cc(-c2cccs2)[nH+]n2cc(Cn3cc(Br)cn3)nc12 (3D coordinates assigned)
FC(F)(F)c1cc(-c2cccs2)[nH+]n2cc(Cn3cc(Br)cn3)nc12 (optimized conformer: 130.8929118369273 kcal/mol)

>  <smiles>  (40) 
FC(F)(F)c1cc(-c2cccs2)nn2cc(Cn3cc(Br)cn3)nc12

>  <score_type>  (40) 
oracle

>  <origin>  (40) 
adg

>  <m_score__min__energy>  (40) 
-7.3799999999999999

>  <m_primary>  (40) 
energy

$$$$
40:0
     RDKit          3D

 59 63  0  0  0  0  0  0  0  0999 V2000
   -5.7090   18.5110  -34.6620 C   0  0  0  0  0  0  0  0  0  0  0  0
   -5.7420   17.6300  -33.4150 C   0  0  0  0  0  0  0  0  0  0  0  0
   -5.3860   18.4190  -32.1470 C   0  0  0  0  0  0  0  0  0  0  0  0
   -5.7700   19.7920  -32.2520 O   0  0  0  0  0  0  0  0  0  0  0  0
   -7.0800   20.2950  -32.1720 C   0  0  0  0  0  0  0  0  0  0  0  0
   -8.1950   19.4870  -32.4730 C   0  0  0  0  0  0  0  0  0  0  0  0
   -9.4900   19.9920  -32.3640 C   0  0  0  0  0  0  0  0  0  0  0  0
   -9.6950   21.3060  -31.9540 C   0  0  0  0  0  0  0  0  0  0  0  0
   -8.6030   22.1190  -31.6440 C   0  0  0  0  0  0  0  0  0  0  0  0
   -7.2870   21.6320  -31.7540 C   0  0  0  0  0  0  0  0  0  0  0  0
   -6.1680   22.5490  -31.4110 C   0  0  0  0  0  0  0  0  0  0  0  0
   -5.6760   22.6750  -30.1590 N   0  0  0  0  0  0  0  0  0  0  0  0
   -4.7440   23.6380  -30.3180 C   0  0  0  0  0  0  0  0  0  0  0  0
   -3.9050   24.2060  -29.2100 C   0  0  1  0  0  0  0  0  0  0  0  0
   -4.6050   24.2530  -27.8880 C   0  0  0  0  0  0  0  0  0  0  0  0
   -3.4730   23.3760  -27.4630 C   0  0  0  0  0  0  0  0  0  0  0  0
   -2.8250   23.2900  -28.7870 N   0  0  0  0  0  0  0  0  0  0  0  0
   -1.4970   23.0350  -29.2410 C   0  0  0  0  0  0  0  0  0  0  0  0
   -0.8340   23.9850  -29.7270 O   0  0  0  0  0  0  0  0  0  0  0  0
   -0.9210   21.6710  -29.1680 C   0  0  0  0  0  0  0  0  0  0  0  0
   -0.2250   21.2940  -28.0080 C   0  0  0  0  0  0  0  0  0  0  0  0
    0.2880   20.0040  -27.8700 C   0  0  0  0  0  0  0  0  0  0  0  0
    0.1260   19.0630  -28.8870 C   0  0  0  0  0  0  0  0  0  0  0  0
    0.6510   17.7770  -28.6940 O   0  0  0  0  0  0  0  0  0  0  0  0
    0.5910   17.0650  -27.4600 C   0  0  0  0  0  0  0  0  0  0  0  0
   -0.5510   19.4330  -30.0630 C   0  0  0  0  0  0  0  0  0  0  0  0
   -1.0640   20.7280  -30.2150 C   0  0  0  0  0  0  0  0  0  0  0  0
   -1.7680   21.0430  -31.4230 N   0  0  0  0  0  0  0  0  0  0  0  0
   -3.0870   21.0600  -31.5150 N   0  0  0  0  0  0  0  0  0  0  0  0
   -3.3640   21.3030  -32.8100 C   0  0  0  0  0  0  0  0  0  0  0  0
   -2.1660   21.4050  -33.4840 C   0  0  0  0  0  0  0  0  0  0  0  0
   -1.1740   21.2220  -32.5940 N   0  0  0  0  0  0  0  0  0  0  0  0
   -4.6950   24.0610  -31.5550 O   0  0  0  0  0  0  0  0  0  0  0  0
   -5.5660   23.4070  -32.2590 N   0  0  0  0  0  0  0  0  0  0  0  0
   -5.6694   19.5688  -34.3627 H   0  0  0  0  0  0  0  0  0  0  0  0
   -4.8194   18.2658  -35.2607 H   0  0  0  0  0  0  0  0  0  0  0  0
   -6.6144   18.3330  -35.2607 H   0  0  0  0  0  0  0  0  0  0  0  0
   -6.7531   17.2120  -33.3016 H   0  0  0  0  0  0  0  0  0  0  0  0
   -4.9950   16.8325  -33.5412 H   0  0  0  0  0  0  0  0  0  0  0  0
   -5.9063   17.9682  -31.2890 H   0  0  0  0  0  0  0  0  0  0  0  0
   -4.2949   18.3779  -32.0132 H   0  0  0  0  0  0  0  0  0  0  0  0
   -8.0419   18.4471  -32.7973 H   0  0  0  0  0  0  0  0  0  0  0  0
  -10.3512   19.3506  -32.6025 H   0  0  0  0  0  0  0  0  0  0  0  0
  -10.7173   21.7041  -31.8742 H   0  0  0  0  0  0  0  0  0  0  0  0
   -8.7733   23.1530  -31.3096 H   0  0  0  0  0  0  0  0  0  0  0  0
   -3.6090   25.1734  -29.6419 H   0  0  0  0  0  0  0  0  0  0  0  0
   -4.6473   25.2414  -27.4071 H   0  0  0  0  0  0  0  0  0  0  0  0
   -5.6663   24.0026  -27.7435 H   0  0  0  0  0  0  0  0  0  0  0  0
   -2.8302   23.8510  -26.7072 H   0  0  0  0  0  0  0  0  0  0  0  0
   -3.7354   22.4260  -26.9744 H   0  0  0  0  0  0  0  0  0  0  0  0
   -0.0826   22.0248  -27.1983 H   0  0  0  0  0  0  0  0  0  0  0  0
    0.8250   19.7264  -26.9510 H   0  0  0  0  0  0  0  0  0  0  0  0
    0.6509   17.7762  -26.6230 H   0  0  0  0  0  0  0  0  0  0  0  0
   -0.3571   16.5102  -27.4025 H   0  0  0  0  0  0  0  0  0  0  0  0
    1.4329   16.3593  -27.4025 H   0  0  0  0  0  0  0  0  0  0  0  0
   -0.6790   18.6983  -30.8716 H   0  0  0  0  0  0  0  0  0  0  0  0
   -4.3668   21.4023  -33.2511 H   0  0  0  0  0  0  0  0  0  0  0  0
   -2.0429   21.6013  -34.5593 H   0  0  0  0  0  0  0  0  0  0  0  0
   -5.7630   23.5930  -33.2620 H   0  0  0  0  0  0  0  0  0  0  0  0
  1  2  1  0
  2  3  1  0
  3  4  1  0
  4  5  1  0
  5  6  2  0
  6  7  1  0
  7  8  2  0
  8  9  1  0
  9 10  2  0
 10 11  1  0
 11 12  1  0
 12 13  2  0
 13 14  1  0
 14 15  1  0
 15 16  1  0
 16 17  1  0
 17 18  1  0
 18 19  2  0
 18 20  1  0
 20 21  2  0
 21 22  1  0
 22 23  2  0
 23 24  1  0
 24 25  1  0
 23 26  1  0
 26 27  2  0
 27 28  1  0
 28 29  1  0
 29 30  2  0
 30 31  1  0
 31 32  2  0
 13 33  1  0
 33 34  1  0
 10  5  1  0
 34 11  2  0
 17 14  1  0
 27 20  1  0
 32 28  1  0
  1 35  1  0
  1 36  1  0
  1 37  1  0
  2 38  1  0
  2 39  1  0
  3 40  1  0
  3 41  1  0
  6 42  1  0
  7 43  1  0
  8 44  1  0
  9 45  1  0
 14 46  1  6
 15 47  1  0
 15 48  1  0
 16 49  1  0
 16 50  1  0
 21 51  1  0
 22 52  1  0
 25 53  1  0
 25 54  1  0
 25 55  1  0
 26 56  1  0
 30 57  1  0
 31 58  1  0
 34 59  1  0
M  CHG  1  34   1
M  END
>  <UniqueID>  (41) 
38

>  <SMILES>  (41) 
CCCOc1ccccc1-c1nc([C@H]2CCN2C(=O)c2ccc(OC)cc2-n2nccn2)o[nH+]1

>  <Energy>  (41) 
190.7298448484186

>  <Genealogy>  (41) 
CCCOc1ccccc1-c1nc(C2CCN2C(=O)c2ccc(OC)cc2-n2nccn2)o[nH+]1 (protonated)
CCCOc1ccccc1-c1nc([C@H]2CCN2C(=O)c2ccc(OC)cc2-n2nccn2)o[nH+]1 (chirality)
CCCOc1ccccc1-c1nc([C@H]2CCN2C(=O)c2ccc(OC)cc2-n2nccn2)o[nH+]1 (3D coordinates assigned)
CCCOc1ccccc1-c1nc([C@H]2CCN2C(=O)c2ccc(OC)cc2-n2nccn2)o[nH+]1 (nonaromatic ring conformer: 190.7298448484186 kcal/mol)

>  <smiles>  (41) 
CCCOc1ccccc1-c1noc(C2CCN2C(=O)c2ccc(OC)cc2-n2nccn2)n1

>  <score_type>  (41) 
oracle

>  <origin>  (41) 
adg

>  <m_score__min__energy>  (41) 
-9.3399999999999999

>  <m_primary>  (41) 
energy

$$$$
41:0
     RDKit          3D

 20 21  0  0  0  0  0  0  0  0999 V2000
   -6.3810   25.9800  -29.3330 C   0  0  0  0  0  0  0  0  0  0  0  0
   -5.9060   24.9210  -30.2690 C   0  0  0  0  0  0  0  0  0  0  0  0
   -6.5890   23.7710  -30.6020 C   0  0  0  0  0  0  0  0  0  0  0  0
   -5.7050   23.1000  -31.4280 C   0  0  0  0  0  0  0  0  0  0  0  0
   -5.9040   21.8000  -32.0950 C   0  0  0  0  0  0  0  0  0  0  0  0
   -4.8900   21.1910  -32.8520 C   0  0  0  0  0  0  0  0  0  0  0  0
   -5.1350   19.9580  -33.4620 C   0  0  0  0  0  0  0  0  0  0  0  0
   -6.3790   19.3440  -33.3140 C   0  0  0  0  0  0  0  0  0  0  0  0
   -7.3650   19.9750  -32.5540 C   0  0  0  0  0  0  0  0  0  0  0  0
   -9.0770   19.1630  -32.3310 Br  0  0  0  0  0  0  0  0  0  0  0  0
   -7.1090   21.1750  -31.9680 N   0  0  0  0  0  0  0  0  0  0  0  0
   -4.6100   23.8160  -31.5380 O   0  0  0  0  0  0  0  0  0  0  0  0
   -4.6910   24.9150  -30.8470 N   0  0  0  0  0  0  0  0  0  0  0  0
   -6.2314   25.6464  -28.2955 H   0  0  0  0  0  0  0  0  0  0  0  0
   -5.8115   26.9050  -29.5065 H   0  0  0  0  0  0  0  0  0  0  0  0
   -7.4505   26.1699  -29.5065 H   0  0  0  0  0  0  0  0  0  0  0  0
   -7.5961   23.4609  -30.2864 H   0  0  0  0  0  0  0  0  0  0  0  0
   -3.9113   21.6804  -32.9638 H   0  0  0  0  0  0  0  0  0  0  0  0
   -4.3483   19.4722  -34.0579 H   0  0  0  0  0  0  0  0  0  0  0  0
   -6.5805   18.3735  -33.7909 H   0  0  0  0  0  0  0  0  0  0  0  0
  1  2  1  0
  2  3  1  0
  3  4  2  0
  4  5  1  0
  5  6  2  0
  6  7  1  0
  7  8  2  0
  8  9  1  0
  9 10  1  0
  9 11  2  0
  4 12  1  0
 12 13  1  0
 13  2  2  0
 11  5  1  0
  1 14  1  0
  1 15  1  0
  1 16  1  0
  3 17  1  0
  6 18  1  0
  7 19  1  0
  8 20  1  0
M  END
>  <UniqueID>  (42) 
39

>  <SMILES>  (42) 
Cc1cc(-c2cccc(Br)n2)on1

>  <Energy>  (42) 
50.088818934803484

>  <Genealogy>  (42) 
Cc1cc(-c2cccc(Br)n2)on1 (3D coordinates assigned)
Cc1cc(-c2cccc(Br)n2)on1 (optimized conformer: 50.088818934803484 kcal/mol)

>  <smiles>  (42) 
Cc1cc(-c2cccc(Br)n2)on1

>  <score_type>  (42) 
oracle

>  <origin>  (42) 
adg

>  <m_score__min__energy>  (42) 
-7.0700000000000003

>  <m_primary>  (42) 
energy

$$$$
42:0
     RDKit          3D

 23 24  0  0  0  0  0  0  0  0999 V2000
   -2.3220   19.5990  -33.4600 C   0  0  0  0  0  0  0  0  0  0  0  0
   -3.0970   20.7150  -32.8250 C   0  0  0  0  0  0  0  0  0  0  0  0
   -4.4530   20.9020  -33.1380 C   0  0  0  0  0  0  0  0  0  0  0  0
   -5.1850   21.9190  -32.5180 C   0  0  0  0  0  0  0  0  0  0  0  0
   -4.5780   22.7460  -31.5620 C   0  0  0  0  0  0  0  0  0  0  0  0
   -5.3260   23.8060  -30.9470 N   0  0  0  0  0  0  0  0  0  0  0  0
   -4.8210   24.9420  -30.4360 C   0  0  0  0  0  0  0  0  0  0  0  0
   -3.4790   25.2990  -30.4700 O   0  0  0  0  0  0  0  0  0  0  0  0
   -5.8300   25.6740  -29.8580 C   0  0  0  0  0  0  0  0  0  0  0  0
   -6.9920   25.0020  -30.0010 N   0  0  0  0  0  0  0  0  0  0  0  0
   -6.6500   23.8760  -30.6650 C   0  0  0  0  0  0  0  0  0  0  0  0
   -7.6310   22.9200  -31.0830 N   0  0  0  0  0  0  0  0  0  0  0  0
   -8.2160   23.0040  -32.1810 O   0  0  0  0  0  0  0  0  0  0  0  0
   -3.2230   22.5580  -31.2480 C   0  0  0  0  0  0  0  0  0  0  0  0
   -2.4910   21.5410  -31.8670 C   0  0  0  0  0  0  0  0  0  0  0  0
   -1.8821   18.9655  -32.6757 H   0  0  0  0  0  0  0  0  0  0  0  0
   -2.9955   18.9942  -34.0850 H   0  0  0  0  0  0  0  0  0  0  0  0
   -1.5200   20.0188  -34.0850 H   0  0  0  0  0  0  0  0  0  0  0  0
   -4.9411   20.2459  -33.8737 H   0  0  0  0  0  0  0  0  0  0  0  0
   -6.2421   22.0712  -32.7814 H   0  0  0  0  0  0  0  0  0  0  0  0
   -5.7105   26.6477  -29.3604 H   0  0  0  0  0  0  0  0  0  0  0  0
   -2.7352   23.2137  -30.5117 H   0  0  0  0  0  0  0  0  0  0  0  0
   -1.4346   21.3876  -31.6016 H   0  0  0  0  0  0  0  0  0  0  0  0
  1  2  1  0
  2  3  2  0
  3  4  1  0
  4  5  2  0
  5  6  1  0
  6  7  1  0
  7  8  1  0
  7  9  2  0
  9 10  1  0
 10 11  2  0
 11 12  1  0
 12 13  2  0
  5 14  1  0
 14 15  2  0
 15  2  1  0
 11  6  1  0
  1 16  1  0
  1 17  1  0
  1 18  1  0
  3 19  1  0
  4 20  1  0
  9 21  1  0
 14 22  1  0
 15 23  1  0
M  CHG  1   8  -1
M  END
>  <UniqueID>  (43) 
40

>  <SMILES>  (43) 
Cc1ccc(-n2c([O-])cnc2N=O)cc1

>  <Energy>  (43) 
62.2778650271614

>  <Genealogy>  (43) 
Cc1ccc(-n2c([O-])cnc2N=O)cc1 (protonated)
Cc1ccc(-n2c([O-])cnc2N=O)cc1 (3D coordinates assigned)
Cc1ccc(-n2c([O-])cnc2N=O)cc1 (optimized conformer: 62.2778650271614 kcal/mol)

>  <smiles>  (43) 
Cc1ccc(-n2c(O)cnc2N=O)cc1

>  <score_type>  (43) 
oracle

>  <origin>  (43) 
adg

>  <m_score__min__energy>  (43) 
-8.9000000000000004

>  <m_primary>  (43) 
energy

$$$$
43:0
     RDKit          3D

 41 42  0  0  0  0  0  0  0  0999 V2000
   -2.6340   20.7090  -33.2050 C   0  0  0  0  0  0  0  0  0  0  0  0
   -3.8770   21.5740  -33.3950 C   0  0  0  0  0  0  0  0  0  0  0  0
   -5.1300   20.8130  -33.0290 C   0  0  0  0  0  0  0  0  0  0  0  0
   -5.4100   19.6280  -33.7280 C   0  0  0  0  0  0  0  0  0  0  0  0
   -6.5800   18.9160  -33.4810 C   0  0  0  0  0  0  0  0  0  0  0  0
   -7.4990   19.3850  -32.5470 C   0  0  0  0  0  0  0  0  0  0  0  0
   -7.2520   20.5640  -31.8270 C   0  0  0  0  0  0  0  0  0  0  0  0
   -8.3360   21.0680  -30.9020 C   0  0  0  0  0  0  0  0  0  0  0  0
   -9.4940   21.6650  -31.6970 C   0  0  0  0  0  0  0  0  0  0  0  0
   -6.0440   21.2790  -32.0490 C   0  0  0  0  0  0  0  0  0  0  0  0
   -5.7350   22.4560  -31.2720 N   0  0  0  0  0  0  0  0  0  0  0  0
   -6.7250   23.5380  -31.2240 C   0  0  0  0  0  0  0  0  0  0  0  0
   -6.0700   24.9230  -31.3040 C   0  0  0  0  0  0  0  0  0  0  0  0
   -5.0380   25.1310  -30.1860 C   0  0  0  0  0  0  0  0  0  0  0  0
   -3.6720   24.7060  -30.5400 N   0  0  0  0  0  0  0  0  0  0  0  0
   -3.4510   23.2580  -30.7040 C   0  0  0  0  0  0  0  0  0  0  0  0
   -4.6460   22.3880  -30.2830 C   0  0  0  0  0  0  0  0  0  0  0  0
   -2.4414   20.5749  -32.1303 H   0  0  0  0  0  0  0  0  0  0  0  0
   -2.7954   19.7271  -33.6739 H   0  0  0  0  0  0  0  0  0  0  0  0
   -1.7694   21.2015  -33.6739 H   0  0  0  0  0  0  0  0  0  0  0  0
   -3.7969   22.4640  -32.7536 H   0  0  0  0  0  0  0  0  0  0  0  0
   -3.9417   21.8653  -34.4538 H   0  0  0  0  0  0  0  0  0  0  0  0
   -4.6966   19.2582  -34.4793 H   0  0  0  0  0  0  0  0  0  0  0  0
   -6.7788   17.9808  -34.0250 H   0  0  0  0  0  0  0  0  0  0  0  0
   -8.4295   18.8253  -32.3712 H   0  0  0  0  0  0  0  0  0  0  0  0
   -8.7097   20.2305  -30.2946 H   0  0  0  0  0  0  0  0  0  0  0  0
   -7.9118   21.8508  -30.2560 H   0  0  0  0  0  0  0  0  0  0  0  0
  -10.2524   22.0560  -31.0027 H   0  0  0  0  0  0  0  0  0  0  0  0
   -9.1206   22.4830  -32.3306 H   0  0  0  0  0  0  0  0  0  0  0  0
   -9.9437   20.8864  -32.3306 H   0  0  0  0  0  0  0  0  0  0  0  0
   -7.4171   23.4234  -32.0713 H   0  0  0  0  0  0  0  0  0  0  0  0
   -7.2559   23.4692  -30.2631 H   0  0  0  0  0  0  0  0  0  0  0  0
   -5.5662   25.0230  -32.2767 H   0  0  0  0  0  0  0  0  0  0  0  0
   -6.8582   25.6813  -31.1873 H   0  0  0  0  0  0  0  0  0  0  0  0
   -5.0123   26.2016  -29.9347 H   0  0  0  0  0  0  0  0  0  0  0  0
   -5.3560   24.5031  -29.3406 H   0  0  0  0  0  0  0  0  0  0  0  0
   -3.4030   25.1730  -31.4370 H   0  0  0  0  0  0  0  0  0  0  0  0
   -3.2361   23.0595  -31.7644 H   0  0  0  0  0  0  0  0  0  0  0  0
   -2.6144   22.9884  -30.0426 H   0  0  0  0  0  0  0  0  0  0  0  0
   -4.3129   21.3439  -30.1886 H   0  0  0  0  0  0  0  0  0  0  0  0
   -5.0269   22.7646  -29.3222 H   0  0  0  0  0  0  0  0  0  0  0  0
  1  2  1  0
  2  3  1  0
  3  4  2  0
  4  5  1  0
  5  6  2  0
  6  7  1  0
  7  8  1  0
  8  9  1  0
  7 10  2  0
 10 11  1  0
 11 12  1  0
 12 13  1  0
 13 14  1  0
 14 15  1  0
 15 16  1  0
 16 17  1  0
 10  3  1  0
 17 11  1  0
  1 18  1  0
  1 19  1  0
  1 20  1  0
  2 21  1  0
  2 22  1  0
  4 23  1  0
  5 24  1  0
  6 25  1  0
  8 26  1  0
  8 27  1  0
  9 28  1  0
  9 29  1  0
  9 30  1  0
 12 31  1  0
 12 32  1  0
 13 33  1  0
 13 34  1  0
 14 35  1  0
 14 36  1  0
 15 37  1  0
 16 38  1  0
 16 39  1  0
 17 40  1  0
 17 41  1  0
M  END
>  <UniqueID>  (44) 
41

>  <SMILES>  (44) 
CCc1cccc(CC)c1N1CCCNCC1

>  <Energy>  (44) 
47.894089989247924

>  <Genealogy>  (44) 
CCc1cccc(CC)c1N1CCCNCC1 (3D coordinates assigned)
CCc1cccc(CC)c1N1CCCNCC1 (nonaromatic ring conformer: 47.894089989247924 kcal/mol)

>  <smiles>  (44) 
CCc1cccc(CC)c1N1CCCNCC1

>  <score_type>  (44) 
oracle

>  <origin>  (44) 
adg

>  <m_score__min__energy>  (44) 
-5.9500000000000002

>  <m_primary>  (44) 
energy

$$$$
44:0
     RDKit          3D

 34 34  0  0  0  0  0  0  0  0999 V2000
   -0.6440   26.6130  -23.5770 C   0  0  0  0  0  0  0  0  0  0  0  0
   -0.8960   25.8540  -24.8800 C   0  0  0  0  0  0  0  0  0  0  0  0
   -2.3280   26.0420  -25.4050 C   0  0  0  0  0  0  0  0  0  0  0  0
   -2.5270   25.3820  -26.7080 N   0  0  0  0  0  0  0  0  0  0  0  0
   -1.2540   25.0960  -27.3970 C   0  0  0  0  0  0  0  0  0  0  0  0
   -1.4350   24.8320  -28.9010 C   0  0  0  0  0  0  0  0  0  0  0  0
   -2.7550   25.2840  -29.3380 N   0  0  0  0  0  0  0  0  0  0  0  0
   -3.9810   24.1890  -28.7780 S   0  0  0  0  0  0  0  0  0  0  0  0
   -4.8370   24.8840  -27.7570 O   0  0  0  0  0  0  0  0  0  0  0  0
   -3.3470   22.9870  -28.1320 O   0  0  0  0  0  0  0  0  0  0  0  0
   -4.9840   23.6950  -30.1390 C   0  0  0  0  0  0  0  0  0  0  0  0
   -6.3220   24.1100  -30.2070 C   0  0  0  0  0  0  0  0  0  0  0  0
   -7.1140   23.7560  -31.3040 C   0  0  0  0  0  0  0  0  0  0  0  0
   -6.5720   22.9880  -32.3390 C   0  0  0  0  0  0  0  0  0  0  0  0
   -5.2390   22.5750  -32.2780 C   0  0  0  0  0  0  0  0  0  0  0  0
   -4.4450   22.9270  -31.1810 C   0  0  0  0  0  0  0  0  0  0  0  0
   -0.8621   25.9562  -22.7220 H   0  0  0  0  0  0  0  0  0  0  0  0
    0.4081   26.9315  -23.5357 H   0  0  0  0  0  0  0  0  0  0  0  0
   -1.2967   27.4975  -23.5357 H   0  0  0  0  0  0  0  0  0  0  0  0
   -0.1907   26.2177  -25.6418 H   0  0  0  0  0  0  0  0  0  0  0  0
   -0.7540   24.7827  -24.6747 H   0  0  0  0  0  0  0  0  0  0  0  0
   -3.0327   25.6126  -24.6776 H   0  0  0  0  0  0  0  0  0  0  0  0
   -2.5033   27.1197  -25.5385 H   0  0  0  0  0  0  0  0  0  0  0  0
   -3.0610   24.4910  -26.5850 H   0  0  0  0  0  0  0  0  0  0  0  0
   -3.0870   26.0150  -27.3270 H   0  0  0  0  0  0  0  0  0  0  0  0
   -0.5843   25.9594  -27.2701 H   0  0  0  0  0  0  0  0  0  0  0  0
   -0.8337   24.1833  -26.9494 H   0  0  0  0  0  0  0  0  0  0  0  0
   -0.6607   25.3766  -29.4612 H   0  0  0  0  0  0  0  0  0  0  0  0
   -1.3452   23.7519  -29.0891 H   0  0  0  0  0  0  0  0  0  0  0  0
   -6.7499   24.7160  -29.3948 H   0  0  0  0  0  0  0  0  0  0  0  0
   -8.1635   24.0819  -31.3525 H   0  0  0  0  0  0  0  0  0  0  0  0
   -7.1953   22.7090  -33.2013 H   0  0  0  0  0  0  0  0  0  0  0  0
   -4.8129   21.9722  -33.0935 H   0  0  0  0  0  0  0  0  0  0  0  0
   -3.3955   22.6005  -31.1359 H   0  0  0  0  0  0  0  0  0  0  0  0
  1  2  1  0
  2  3  1  0
  3  4  1  0
  4  5  1  0
  5  6  1  0
  6  7  1  0
  7  8  1  0
  8  9  2  0
  8 10  2  0
  8 11  1  0
 11 12  2  0
 12 13  1  0
 13 14  2  0
 14 15  1  0
 15 16  2  0
 16 11  1  0
  1 17  1  0
  1 18  1  0
  1 19  1  0
  2 20  1  0
  2 21  1  0
  3 22  1  0
  3 23  1  0
  4 24  1  0
  4 25  1  0
  5 26  1  0
  5 27  1  0
  6 28  1  0
  6 29  1  0
 12 30  1  0
 13 31  1  0
 14 32  1  0
 15 33  1  0
 16 34  1  0
M  CHG  2   4   1   7  -1
M  END
>  <UniqueID>  (45) 
42

>  <SMILES>  (45) 
CCC[NH2+]CC[N-]S(=O)(=O)c1ccccc1

>  <Energy>  (45) 
24.139810759242213

>  <Genealogy>  (45) 
CCC[NH2+]CC[N-]S(=O)(=O)c1ccccc1 (protonated)
CCC[NH2+]CC[N-]S(=O)(=O)c1ccccc1 (3D coordinates assigned)
CCC[NH2+]CC[N-]S(=O)(=O)c1ccccc1 (optimized conformer: 24.139810759242213 kcal/mol)

>  <smiles>  (45) 
CCCNCCNS(=O)(=O)c1ccccc1

>  <score_type>  (45) 
oracle

>  <origin>  (45) 
adg

>  <m_score__min__energy>  (45) 
-6.3600000000000003

>  <m_primary>  (45) 
energy

$$$$
45:0
     RDKit          3D

 38 40  0  0  0  0  0  0  0  0999 V2000
   -1.7530   20.3290  -29.9280 C   0  0  0  0  0  0  0  0  0  0  0  0
   -2.7330   21.4530  -29.6920 C   0  0  0  0  0  0  0  0  0  0  0  0
   -3.1070   21.7610  -28.3710 C   0  0  0  0  0  0  0  0  0  0  0  0
   -2.5770   21.0810  -27.3230 F   0  0  0  0  0  0  0  0  0  0  0  0
   -4.0370   22.7660  -28.1180 C   0  0  0  0  0  0  0  0  0  0  0  0
   -4.6020   23.4850  -29.1680 C   0  0  0  0  0  0  0  0  0  0  0  0
   -4.2270   23.2190  -30.4980 C   0  0  0  0  0  0  0  0  0  0  0  0
   -4.7650   23.9460  -31.5780 O   0  0  0  0  0  0  0  0  0  0  0  0
   -6.1500   24.2270  -31.7790 C   0  0  0  0  0  0  0  0  0  0  0  0
   -6.9490   22.9560  -31.8130 C   0  0  0  0  0  0  0  0  0  0  0  0
   -8.3370   22.9750  -31.6090 C   0  0  0  0  0  0  0  0  0  0  0  0
   -9.0590   21.7810  -31.6590 C   0  0  0  0  0  0  0  0  0  0  0  0
   -8.3960   20.5770  -31.9230 C   0  0  0  0  0  0  0  0  0  0  0  0
   -9.0890   19.3590  -31.9800 C   0  0  0  0  0  0  0  0  0  0  0  0
   -8.3970   18.1730  -32.2480 C   0  0  0  0  0  0  0  0  0  0  0  0
   -7.0150   18.1970  -32.4600 C   0  0  0  0  0  0  0  0  0  0  0  0
   -6.3160   19.4080  -32.4060 C   0  0  0  0  0  0  0  0  0  0  0  0
   -7.0000   20.5990  -32.1380 C   0  0  0  0  0  0  0  0  0  0  0  0
   -6.3230   21.7760  -32.0810 N   0  0  0  0  0  0  0  0  0  0  0  0
   -3.2750   22.2110  -30.7630 C   0  0  0  0  0  0  0  0  0  0  0  0
   -2.8700   21.9620  -32.1660 C   0  0  0  0  0  0  0  0  0  0  0  0
   -3.8020   22.1260  -33.2360 N   0  0  0  0  0  0  0  0  0  0  0  0
   -1.7000   21.5710  -32.4190 O   0  0  0  0  0  0  0  0  0  0  0  0
   -1.4085   19.9338  -28.9610 H   0  0  0  0  0  0  0  0  0  0  0  0
   -2.2452   19.5269  -30.4975 H   0  0  0  0  0  0  0  0  0  0  0  0
   -0.8913   20.7074  -30.4975 H   0  0  0  0  0  0  0  0  0  0  0  0
   -4.3273   22.9934  -27.0816 H   0  0  0  0  0  0  0  0  0  0  0  0
   -5.3467   24.2664  -28.9564 H   0  0  0  0  0  0  0  0  0  0  0  0
   -6.5133   24.8602  -30.9561 H   0  0  0  0  0  0  0  0  0  0  0  0
   -6.2699   24.7464  -32.7412 H   0  0  0  0  0  0  0  0  0  0  0  0
   -8.8537   23.9256  -31.4107 H   0  0  0  0  0  0  0  0  0  0  0  0
  -10.1461   21.7866  -31.4913 H   0  0  0  0  0  0  0  0  0  0  0  0
  -10.1762   19.3362  -31.8141 H   0  0  0  0  0  0  0  0  0  0  0  0
   -8.9418   17.2184  -32.2921 H   0  0  0  0  0  0  0  0  0  0  0  0
   -6.4759   17.2614  -32.6698 H   0  0  0  0  0  0  0  0  0  0  0  0
   -5.2290   19.4237  -32.5742 H   0  0  0  0  0  0  0  0  0  0  0  0
   -4.8050   22.3390  -33.0440 H   0  0  0  0  0  0  0  0  0  0  0  0
   -3.4980   21.9780  -34.2240 H   0  0  0  0  0  0  0  0  0  0  0  0
  1  2  1  0
  2  3  2  0
  3  4  1  0
  3  5  1  0
  5  6  2  0
  6  7  1  0
  7  8  1  0
  8  9  1  0
  9 10  1  0
 10 11  2  0
 11 12  1  0
 12 13  2  0
 13 14  1  0
 14 15  2  0
 15 16  1  0
 16 17  2  0
 17 18  1  0
 18 19  2  0
  7 20  2  0
 20 21  1  0
 21 22  1  0
 21 23  2  0
 20  2  1  0
 19 10  1  0
 18 13  1  0
  1 24  1  0
  1 25  1  0
  1 26  1  0
  5 27  1  0
  6 28  1  0
  9 29  1  0
  9 30  1  0
 11 31  1  0
 12 32  1  0
 14 33  1  0
 15 34  1  0
 16 35  1  0
 17 36  1  0
 22 37  1  0
 22 38  1  0
M  END
>  <UniqueID>  (46) 
43

>  <SMILES>  (46) 
Cc1c(F)ccc(OCc2ccc3ccccc3n2)c1C(N)=O

>  <Energy>  (46) 
49.4540166762278

>  <Genealogy>  (46) 
Cc1c(F)ccc(OCc2ccc3ccccc3n2)c1C(N)=O (3D coordinates assigned)
Cc1c(F)ccc(OCc2ccc3ccccc3n2)c1C(N)=O (optimized conformer: 49.4540166762278 kcal/mol)

>  <smiles>  (46) 
Cc1c(F)ccc(OCc2ccc3ccccc3n2)c1C(N)=O

>  <score_type>  (46) 
oracle

>  <origin>  (46) 
adg

>  <m_score__min__energy>  (46) 
-7.9299999999999997

>  <m_primary>  (46) 
energy

$$$$
46:0
     RDKit          3D

 52 55  0  0  0  0  0  0  0  0999 V2000
    1.9650   24.5430  -27.6380 C   0  0  0  0  0  0  0  0  0  0  0  0
    0.6970   24.8930  -28.1800 O   0  0  0  0  0  0  0  0  0  0  0  0
   -0.4470   25.1790  -27.4190 C   0  0  0  0  0  0  0  0  0  0  0  0
   -0.5030   26.2950  -26.5590 C   0  0  0  0  0  0  0  0  0  0  0  0
   -1.6420   26.5370  -25.7880 C   0  0  0  0  0  0  0  0  0  0  0  0
   -2.7330   25.6730  -25.8600 C   0  0  0  0  0  0  0  0  0  0  0  0
   -2.6930   24.5670  -26.7100 C   0  0  0  0  0  0  0  0  0  0  0  0
   -1.5600   24.3160  -27.5020 C   0  0  0  0  0  0  0  0  0  0  0  0
   -1.5540   23.1910  -28.4020 N   0  0  0  0  0  0  0  0  0  0  0  0
   -1.6020   23.4130  -29.8520 C   0  0  0  0  0  0  0  0  0  0  0  0
   -1.9610   22.1220  -30.6050 C   0  0  0  0  0  0  0  0  0  0  0  0
   -3.0520   21.3660  -29.9510 N   0  0  0  0  0  0  0  0  0  0  0  0
   -4.4150   21.7050  -30.4190 C   0  0  0  0  0  0  0  0  0  0  0  0
   -4.8320   23.1160  -30.0800 C   0  0  0  0  0  0  0  0  0  0  0  0
   -4.5480   23.7270  -28.9130 N   0  0  0  0  0  0  0  0  0  0  0  0
   -5.1140   24.9210  -29.0120 N   0  0  0  0  0  0  0  0  0  0  0  0
   -5.7350   25.0550  -30.1710 N   0  0  0  0  0  0  0  0  0  0  0  0
   -5.5790   23.9350  -30.8550 N   0  0  0  0  0  0  0  0  0  0  0  0
   -6.1400   23.6990  -32.1840 C   0  0  0  0  0  0  0  0  0  0  0  0
   -7.1040   22.5440  -32.1610 C   0  0  0  0  0  0  0  0  0  0  0  0
   -6.7360   21.2990  -32.6980 C   0  0  0  0  0  0  0  0  0  0  0  0
   -7.6360   20.2290  -32.6780 C   0  0  0  0  0  0  0  0  0  0  0  0
   -8.9040   20.3910  -32.1160 C   0  0  0  0  0  0  0  0  0  0  0  0
   -9.2720   21.6210  -31.5640 C   0  0  0  0  0  0  0  0  0  0  0  0
   -8.3750   22.6910  -31.5780 C   0  0  0  0  0  0  0  0  0  0  0  0
   -2.9280   21.1610  -28.4850 C   0  0  0  0  0  0  0  0  0  0  0  0
   -1.6810   21.8240  -27.8860 C   0  0  0  0  0  0  0  0  0  0  0  0
    1.9109   24.5579  -26.5394 H   0  0  0  0  0  0  0  0  0  0  0  0
    2.2432   23.5345  -27.9778 H   0  0  0  0  0  0  0  0  0  0  0  0
    2.7212   25.2660  -27.9778 H   0  0  0  0  0  0  0  0  0  0  0  0
    0.3559   26.9793  -26.4950 H   0  0  0  0  0  0  0  0  0  0  0  0
   -1.6781   27.4119  -25.1222 H   0  0  0  0  0  0  0  0  0  0  0  0
   -3.6261   25.8629  -25.2466 H   0  0  0  0  0  0  0  0  0  0  0  0
   -3.5555   23.8862  -26.7603 H   0  0  0  0  0  0  0  0  0  0  0  0
   -2.3607   24.1785  -30.0720 H   0  0  0  0  0  0  0  0  0  0  0  0
   -0.6069   23.7429  -30.1850 H   0  0  0  0  0  0  0  0  0  0  0  0
   -2.2774   22.3856  -31.6250 H   0  0  0  0  0  0  0  0  0  0  0  0
   -1.0677   21.4801  -30.6102 H   0  0  0  0  0  0  0  0  0  0  0  0
   -4.4484   21.5846  -31.5119 H   0  0  0  0  0  0  0  0  0  0  0  0
   -5.1127   21.0278  -29.9045 H   0  0  0  0  0  0  0  0  0  0  0  0
   -5.0760   25.6560  -28.2720 H   0  0  0  0  0  0  0  0  0  0  0  0
   -6.6694   24.6037  -32.5176 H   0  0  0  0  0  0  0  0  0  0  0  0
   -5.3188   23.4584  -32.8751 H   0  0  0  0  0  0  0  0  0  0  0  0
   -5.7358   21.1654  -33.1360 H   0  0  0  0  0  0  0  0  0  0  0  0
   -7.3447   19.2583  -33.1056 H   0  0  0  0  0  0  0  0  0  0  0  0
   -9.6133   19.5503  -32.1078 H   0  0  0  0  0  0  0  0  0  0  0  0
  -10.2696   21.7464  -31.1179 H   0  0  0  0  0  0  0  0  0  0  0  0
   -8.6641   23.6535  -31.1308 H   0  0  0  0  0  0  0  0  0  0  0  0
   -3.8180   21.5841  -27.9962 H   0  0  0  0  0  0  0  0  0  0  0  0
   -2.8377   20.0784  -28.3126 H   0  0  0  0  0  0  0  0  0  0  0  0
   -1.7728   21.8535  -26.7902 H   0  0  0  0  0  0  0  0  0  0  0  0
   -0.7892   21.2439  -28.1656 H   0  0  0  0  0  0  0  0  0  0  0  0
  1  2  1  0
  2  3  1  0
  3  4  2  0
  4  5  1  0
  5  6  2  0
  6  7  1  0
  7  8  2  0
  8  9  1  0
  9 10  1  0
 10 11  1  0
 11 12  1  0
 12 13  1  0
 13 14  1  0
 14 15  2  0
 15 16  1  0
 16 17  2  0
 17 18  1  0
 18 19  1  0
 19 20  1  0
 20 21  2  0
 21 22  1  0
 22 23  2  0
 23 24  1  0
 24 25  2  0
 12 26  1  0
 26 27  1  0
  8  3  1  0
 27  9  1  0
 18 14  1  0
 25 20  1  0
  1 28  1  0
  1 29  1  0
  1 30  1  0
  4 31  1  0
  5 32  1  0
  6 33  1  0
  7 34  1  0
 10 35  1  0
 10 36  1  0
 11 37  1  0
 11 38  1  0
 13 39  1  0
 13 40  1  0
 16 41  1  0
 19 42  1  0
 19 43  1  0
 21 44  1  0
 22 45  1  0
 23 46  1  0
 24 47  1  0
 25 48  1  0
 26 49  1  0
 26 50  1  0
 27 51  1  0
 27 52  1  0
M  CHG  1  16   1
M  END
>  <UniqueID>  (47) 
44

>  <SMILES>  (47) 
COc1ccccc1N1CCN(Cc2n[nH+]nn2Cc2ccccc2)CC1

>  <Energy>  (47) 
106.15650574420701

>  <Genealogy>  (47) 
COc1ccccc1N1CCN(Cc2n[nH+]nn2Cc2ccccc2)CC1 (protonated)
COc1ccccc1N1CCN(Cc2n[nH+]nn2Cc2ccccc2)CC1 (3D coordinates assigned)
COc1ccccc1N1CCN(Cc2n[nH+]nn2Cc2ccccc2)CC1 (nonaromatic ring conformer: 106.15650574420701 kcal/mol)

>  <smiles>  (47) 
COc1ccccc1N1CCN(Cc2nnnn2Cc2ccccc2)CC1

>  <score_type>  (47) 
oracle

>  <origin>  (47) 
adg

>  <m_score__min__energy>  (47) 
-8.8699999999999992

>  <m_primary>  (47) 
energy

$$$$
47:0
     RDKit          3D

 37 38  0  0  0  0  0  0  0  0999 V2000
   -4.3818   22.5861  -34.0848 H   0  0  0  0  0  0  0  0  0  0  0  0
   -4.0120   21.9350  -33.2790 C   0  0  0  0  0  0  0  0  0  0  0  0
   -4.7950   21.8200  -32.1780 C   0  0  0  0  0  0  0  0  0  0  0  0
   -5.3140   20.4870  -31.7850 C   0  0  0  0  0  0  0  0  0  0  0  0
   -4.5320   19.6770  -31.2170 O   0  0  0  0  0  0  0  0  0  0  0  0
   -6.7230   20.0840  -32.0200 C   0  0  0  0  0  0  0  0  0  0  0  0
   -7.7440   21.0480  -32.1230 C   0  0  0  0  0  0  0  0  0  0  0  0
   -7.4966   22.1169  -32.0433 H   0  0  0  0  0  0  0  0  0  0  0  0
   -9.0710   20.6550  -32.3260 C   0  0  0  0  0  0  0  0  0  0  0  0
   -9.8624   21.4144  -32.4101 H   0  0  0  0  0  0  0  0  0  0  0  0
   -9.3920   19.2990  -32.4220 C   0  0  0  0  0  0  0  0  0  0  0  0
  -10.4350   18.9912  -32.5874 H   0  0  0  0  0  0  0  0  0  0  0  0
   -8.3890   18.3340  -32.3080 C   0  0  0  0  0  0  0  0  0  0  0  0
   -8.6439   17.2663  -32.3797 H   0  0  0  0  0  0  0  0  0  0  0  0
   -7.0620   18.7220  -32.1030 C   0  0  0  0  0  0  0  0  0  0  0  0
   -6.2777   17.9568  -32.0060 H   0  0  0  0  0  0  0  0  0  0  0  0
   -5.1320   22.9500  -31.2920 C   0  0  0  0  0  0  0  0  0  0  0  0
   -4.2850   23.2780  -30.2230 C   0  0  0  0  0  0  0  0  0  0  0  0
   -3.4047   22.6540  -30.0090 H   0  0  0  0  0  0  0  0  0  0  0  0
   -4.5570   24.3960  -29.4290 C   0  0  0  0  0  0  0  0  0  0  0  0
   -3.9040   24.6367  -28.5771 H   0  0  0  0  0  0  0  0  0  0  0  0
   -5.6570   25.2080  -29.7160 C   0  0  0  0  0  0  0  0  0  0  0  0
   -5.8766   26.0803  -29.0829 H   0  0  0  0  0  0  0  0  0  0  0  0
   -6.4790   24.9120  -30.8080 C   0  0  0  0  0  0  0  0  0  0  0  0
   -7.3379   25.5587  -31.0407 H   0  0  0  0  0  0  0  0  0  0  0  0
   -6.2100   23.7950  -31.6040 C   0  0  0  0  0  0  0  0  0  0  0  0
   -6.8436   23.5772  -32.4764 H   0  0  0  0  0  0  0  0  0  0  0  0
   -2.7330   21.2830  -33.4990 N   0  0  0  0  0  0  0  0  0  0  0  0
   -2.3170   21.7460  -34.3410 H   0  0  0  0  0  0  0  0  0  0  0  0
   -2.8560   19.8540  -33.8330 C   0  0  0  0  0  0  0  0  0  0  0  0
   -2.9068   19.2639  -32.9061 H   0  0  0  0  0  0  0  0  0  0  0  0
   -3.7714   19.6924  -34.4212 H   0  0  0  0  0  0  0  0  0  0  0  0
   -1.9817   19.5384  -34.4212 H   0  0  0  0  0  0  0  0  0  0  0  0
   -1.7870   21.5150  -32.3950 C   0  0  0  0  0  0  0  0  0  0  0  0
   -2.3067   21.3875  -31.4339 H   0  0  0  0  0  0  0  0  0  0  0  0
   -0.9598   20.7931  -32.4631 H   0  0  0  0  0  0  0  0  0  0  0  0
   -1.3877   22.5377  -32.4631 H   0  0  0  0  0  0  0  0  0  0  0  0
  1  2  1  0
  2  3  2  0
  3  4  1  0
  4  5  2  0
  4  6  1  0
  6  7  2  0
  7  8  1  0
  7  9  1  0
  9 10  1  0
  9 11  2  0
 11 12  1  0
 11 13  1  0
 13 14  1  0
 13 15  2  0
 15 16  1  0
  3 17  1  0
 17 18  2  0
 18 19  1  0
 18 20  1  0
 20 21  1  0
 20 22  2  0
 22 23  1  0
 22 24  1  0
 24 25  1  0
 24 26  2  0
 26 27  1  0
  2 28  1  0
 28 29  1  0
 28 30  1  0
 30 31  1  0
 30 32  1  0
 30 33  1  0
 28 34  1  0
 34 35  1  0
 34 36  1  0
 34 37  1  0
 15  6  1  0
 26 17  1  0
M  CHG  1  28   1
M  END
>  <UniqueID>  (48) 
45

>  <SMILES>  (48) 
C[NH+](C)/C=C(/C(=O)c1ccccc1)c1ccccc1

>  <Energy>  (48) 
56.06038846503771

>  <Genealogy>  (48) 
C[NH+](C)C=C(C(=O)c1ccccc1)c1ccccc1 (protonated)
C[NH+](C)/C=C(/C(=O)c1ccccc1)c1ccccc1 (cis-trans isomerization)
C[NH+](C)/C=C(/C(=O)c1ccccc1)c1ccccc1 (3D coordinates assigned)
C[NH+](C)/C=C(/C(=O)c1ccccc1)c1ccccc1 (optimized conformer: 56.06038846503771 kcal/mol)

>  <smiles>  (48) 
CN(C)C=C(C(=O)c1ccccc1)c1ccccc1

>  <score_type>  (48) 
oracle

>  <origin>  (48) 
adg

>  <m_score__min__energy>  (48) 
-6.6299999999999999

>  <m_primary>  (48) 
energy

$$$$
48:0
     RDKit          3D

 51 53  0  0  0  0  0  0  0  0999 V2000
   -1.2380   24.7240  -25.6160 C   0  0  0  0  0  0  0  0  0  0  0  0
   -1.8980   24.1970  -26.8450 C   0  0  0  0  0  0  0  0  0  0  0  0
   -2.2330   24.9380  -27.9570 C   0  0  0  0  0  0  0  0  0  0  0  0
   -2.8500   24.0570  -28.8270 C   0  0  0  0  0  0  0  0  0  0  0  0
   -3.4820   24.3530  -30.1320 C   0  0  0  0  0  0  0  0  0  0  0  0
   -3.5390   23.4390  -30.9950 O   0  0  0  0  0  0  0  0  0  0  0  0
   -4.0120   25.6380  -30.4850 N   0  0  0  0  0  0  0  0  0  0  0  0
   -5.4150   26.0310  -30.5970 C   0  0  0  0  0  0  0  0  0  0  0  0
   -6.2910   25.0600  -29.7910 C   0  0  0  0  0  0  0  0  0  0  0  0
   -6.2600   23.6940  -30.3710 N   0  0  0  0  0  0  0  0  0  0  0  0
   -7.1660   22.7700  -29.6370 C   0  0  0  0  0  0  0  0  0  0  0  0
   -7.6990   21.6030  -30.4890 C   0  0  0  0  0  0  0  0  0  0  0  0
   -6.7950   21.2990  -31.6010 N   0  0  0  0  0  0  0  0  0  0  0  0
   -6.7700   19.9630  -32.1180 C   0  0  0  0  0  0  0  0  0  0  0  0
   -7.9680   19.2350  -32.1750 C   0  0  0  0  0  0  0  0  0  0  0  0
   -7.9870   17.9460  -32.7080 C   0  0  0  0  0  0  0  0  0  0  0  0
   -6.8130   17.3740  -33.1930 C   0  0  0  0  0  0  0  0  0  0  0  0
   -5.6120   18.0840  -33.1370 C   0  0  0  0  0  0  0  0  0  0  0  0
   -5.5670   19.3780  -32.5780 C   0  0  0  0  0  0  0  0  0  0  0  0
   -4.2600   20.1430  -32.5510 C   0  0  0  0  0  0  0  0  0  0  0  0
   -4.1380   20.7990  -31.3440 F   0  0  0  0  0  0  0  0  0  0  0  0
   -4.2060   21.0790  -33.5690 F   0  0  0  0  0  0  0  0  0  0  0  0
   -3.1860   19.2820  -32.7070 F   0  0  0  0  0  0  0  0  0  0  0  0
   -6.2790   22.3830  -32.4420 C   0  0  0  0  0  0  0  0  0  0  0  0
   -6.5760   23.7430  -31.8120 C   0  0  0  0  0  0  0  0  0  0  0  0
   -2.8610   22.8360  -28.1670 C   0  0  0  0  0  0  0  0  0  0  0  0
   -3.4450   21.5550  -28.6710 C   0  0  0  0  0  0  0  0  0  0  0  0
   -2.2870   22.9530  -26.9940 O   0  0  0  0  0  0  0  0  0  0  0  0
   -1.7436   24.3203  -24.7264 H   0  0  0  0  0  0  0  0  0  0  0  0
   -0.1813   24.4184  -25.6075 H   0  0  0  0  0  0  0  0  0  0  0  0
   -1.3022   25.8221  -25.6075 H   0  0  0  0  0  0  0  0  0  0  0  0
   -2.0479   26.0100  -28.1197 H   0  0  0  0  0  0  0  0  0  0  0  0
   -5.5417   27.0503  -30.2034 H   0  0  0  0  0  0  0  0  0  0  0  0
   -5.7178   26.0027  -31.6541 H   0  0  0  0  0  0  0  0  0  0  0  0
   -5.9201   25.0180  -28.7563 H   0  0  0  0  0  0  0  0  0  0  0  0
   -7.3284   25.4247  -29.8192 H   0  0  0  0  0  0  0  0  0  0  0  0
   -6.6136   22.3503  -28.7834 H   0  0  0  0  0  0  0  0  0  0  0  0
   -8.0401   23.3620  -29.3279 H   0  0  0  0  0  0  0  0  0  0  0  0
   -7.7973   20.7109  -29.8531 H   0  0  0  0  0  0  0  0  0  0  0  0
   -8.6749   21.8943  -30.9048 H   0  0  0  0  0  0  0  0  0  0  0  0
   -8.8985   19.6836  -31.7969 H   0  0  0  0  0  0  0  0  0  0  0  0
   -8.9299   17.3807  -32.7454 H   0  0  0  0  0  0  0  0  0  0  0  0
   -6.8322   16.3609  -33.6210 H   0  0  0  0  0  0  0  0  0  0  0  0
   -4.6918   17.6295  -33.5328 H   0  0  0  0  0  0  0  0  0  0  0  0
   -5.1909   22.2667  -32.5538 H   0  0  0  0  0  0  0  0  0  0  0  0
   -6.7709   22.3332  -33.4246 H   0  0  0  0  0  0  0  0  0  0  0  0
   -5.9601   24.5147  -32.2970 H   0  0  0  0  0  0  0  0  0  0  0  0
   -7.6401   23.9866  -31.9472 H   0  0  0  0  0  0  0  0  0  0  0  0
   -3.7332   20.9228  -27.8182 H   0  0  0  0  0  0  0  0  0  0  0  0
   -4.3329   21.7725  -29.2828 H   0  0  0  0  0  0  0  0  0  0  0  0
   -2.6985   21.0273  -29.2828 H   0  0  0  0  0  0  0  0  0  0  0  0
  1  2  1  0
  2  3  2  0
  3  4  1  0
  4  5  1  0
  5  6  2  0
  5  7  1  0
  7  8  1  0
  8  9  1  0
  9 10  1  0
 10 11  1  0
 11 12  1  0
 12 13  1  0
 13 14  1  0
 14 15  2  0
 15 16  1  0
 16 17  2  0
 17 18  1  0
 18 19  2  0
 19 20  1  0
 20 21  1  0
 20 22  1  0
 20 23  1  0
 13 24  1  0
 24 25  1  0
  4 26  2  0
 26 27  1  0
 26 28  1  0
 28  2  1  0
 25 10  1  0
 19 14  1  0
  1 29  1  0
  1 30  1  0
  1 31  1  0
  3 32  1  0
  8 33  1  0
  8 34  1  0
  9 35  1  0
  9 36  1  0
 11 37  1  0
 11 38  1  0
 12 39  1  0
 12 40  1  0
 15 41  1  0
 16 42  1  0
 17 43  1  0
 18 44  1  0
 24 45  1  0
 24 46  1  0
 25 47  1  0
 25 48  1  0
 27 49  1  0
 27 50  1  0
 27 51  1  0
M  CHG  1   7  -1
M  END
>  <UniqueID>  (49) 
46

>  <SMILES>  (49) 
Cc1cc(C(=O)[N-]CCN2CCN(c3ccccc3C(F)(F)F)CC2)c(C)o1

>  <Energy>  (49) 
92.02428070768732

>  <Genealogy>  (49) 
Cc1cc(C(=O)[N-]CCN2CCN(c3ccccc3C(F)(F)F)CC2)c(C)o1 (protonated)
Cc1cc(C(=O)[N-]CCN2CCN(c3ccccc3C(F)(F)F)CC2)c(C)o1 (3D coordinates assigned)
Cc1cc(C(=O)[N-]CCN2CCN(c3ccccc3C(F)(F)F)CC2)c(C)o1 (nonaromatic ring conformer: 92.02428070768732 kcal/mol)

>  <smiles>  (49) 
Cc1cc(C(=O)NCCN2CCN(c3ccccc3C(F)(F)F)CC2)c(C)o1

>  <score_type>  (49) 
oracle

>  <origin>  (49) 
adg

>  <m_score__min__energy>  (49) 
-10.01

>  <m_primary>  (49) 
energy

$$$$
49:0
     RDKit          3D

 43 45  0  0  0  0  0  0  0  0999 V2000
   -3.7953   20.3608  -30.7999 H   0  0  0  0  0  0  0  0  0  0  0  0
   -3.7720   21.1360  -31.5800 C   0  0  0  0  0  0  0  0  0  0  0  0
   -3.4600   20.7490  -32.8280 C   0  0  0  0  0  0  0  0  0  0  0  0
   -2.6218   21.2625  -33.3217 H   0  0  0  0  0  0  0  0  0  0  0  0
   -4.1530   19.6870  -33.5930 C   0  0  0  0  0  0  0  0  0  0  0  0
   -3.5510   18.4420  -33.8230 C   0  0  0  0  0  0  0  0  0  0  0  0
   -2.5345   18.2347  -33.4572 H   0  0  0  0  0  0  0  0  0  0  0  0
   -4.2650   17.4720  -34.5240 C   0  0  0  0  0  0  0  0  0  0  0  0
   -3.8070   16.4937  -34.7317 H   0  0  0  0  0  0  0  0  0  0  0  0
   -5.5260   17.7360  -34.9500 N   0  0  0  0  0  0  0  0  0  0  0  0
   -6.1100   18.9360  -34.6990 C   0  0  0  0  0  0  0  0  0  0  0  0
   -7.1349   19.1308  -35.0479 H   0  0  0  0  0  0  0  0  0  0  0  0
   -5.4320   19.8970  -34.0180 N   0  0  0  0  0  0  0  0  0  0  0  0
   -5.9020   20.8120  -33.8320 H   0  0  0  0  0  0  0  0  0  0  0  0
   -4.0870   22.5240  -31.1720 C   0  0  0  0  0  0  0  0  0  0  0  0
   -3.1610   23.2800  -30.4300 C   0  0  0  0  0  0  0  0  0  0  0  0
   -2.2018   22.8277  -30.1378 H   0  0  0  0  0  0  0  0  0  0  0  0
   -3.4430   24.5980  -30.0590 C   0  0  0  0  0  0  0  0  0  0  0  0
   -2.4880   25.2950  -29.3050 O   0  0  0  0  0  0  0  0  0  0  0  0
   -2.0490   24.9060  -28.0070 C   0  0  0  0  0  0  0  0  0  0  0  0
   -2.6433   25.4326  -27.2458 H   0  0  0  0  0  0  0  0  0  0  0  0
   -2.1780   23.8203  -27.8864 H   0  0  0  0  0  0  0  0  0  0  0  0
   -0.9867   25.1647  -27.8864 H   0  0  0  0  0  0  0  0  0  0  0  0
   -4.6620   25.1760  -30.4530 C   0  0  0  0  0  0  0  0  0  0  0  0
   -4.8975   26.2100  -30.1609 H   0  0  0  0  0  0  0  0  0  0  0  0
   -5.5760   24.4430  -31.2140 C   0  0  0  0  0  0  0  0  0  0  0  0
   -6.5224   24.9087  -31.5262 H   0  0  0  0  0  0  0  0  0  0  0  0
   -5.2970   23.1140  -31.5850 C   0  0  0  0  0  0  0  0  0  0  0  0
   -6.1960   22.3520  -32.3480 O   0  0  0  0  0  0  0  0  0  0  0  0
   -7.5850   22.2120  -32.0650 C   0  0  0  0  0  0  0  0  0  0  0  0
   -7.8131   22.6825  -31.0972 H   0  0  0  0  0  0  0  0  0  0  0  0
   -8.1753   22.7017  -32.8535 H   0  0  0  0  0  0  0  0  0  0  0  0
   -7.9290   20.7540  -32.0080 C   0  0  0  0  0  0  0  0  0  0  0  0
   -9.1860   20.3040  -32.4440 C   0  0  0  0  0  0  0  0  0  0  0  0
   -9.9348   21.0280  -32.7978 H   0  0  0  0  0  0  0  0  0  0  0  0
   -9.4890   18.9390  -32.4300 C   0  0  0  0  0  0  0  0  0  0  0  0
  -10.4781   18.5926  -32.7642 H   0  0  0  0  0  0  0  0  0  0  0  0
   -8.5370   18.0140  -31.9920 C   0  0  0  0  0  0  0  0  0  0  0  0
   -8.7792   16.9411  -31.9769 H   0  0  0  0  0  0  0  0  0  0  0  0
   -7.2770   18.4520  -31.5730 C   0  0  0  0  0  0  0  0  0  0  0  0
   -6.5266   17.7231  -31.2330 H   0  0  0  0  0  0  0  0  0  0  0  0
   -6.9700   19.8180  -31.5860 C   0  0  0  0  0  0  0  0  0  0  0  0
   -5.9749   20.1594  -31.2648 H   0  0  0  0  0  0  0  0  0  0  0  0
  1  2  1  0
  2  3  2  0
  3  4  1  0
  3  5  1  0
  5  6  2  0
  6  7  1  0
  6  8  1  0
  8  9  1  0
  8 10  2  0
 10 11  1  0
 11 12  1  0
 11 13  2  0
 13 14  1  0
  2 15  1  0
 15 16  2  0
 16 17  1  0
 16 18  1  0
 18 19  1  0
 19 20  1  0
 20 21  1  0
 20 22  1  0
 20 23  1  0
 18 24  2  0
 24 25  1  0
 24 26  1  0
 26 27  1  0
 26 28  2  0
 28 29  1  0
 29 30  1  0
 30 31  1  0
 30 32  1  0
 30 33  1  0
 33 34  2  0
 34 35  1  0
 34 36  1  0
 36 37  1  0
 36 38  2  0
 38 39  1  0
 38 40  1  0
 40 41  1  0
 40 42  2  0
 42 43  1  0
 13  5  1  0
 28 15  1  0
 42 33  1  0
M  CHG  1  13   1
M  END
>  <UniqueID>  (50) 
47

>  <SMILES>  (50) 
COc1ccc(OCc2ccccc2)c(/C=C\c2ccnc[nH+]2)c1

>  <Energy>  (50) 
54.41965958836735

>  <Genealogy>  (50) 
COc1ccc(OCc2ccccc2)c(C=Cc2ccnc[nH+]2)c1 (protonated)
COc1ccc(OCc2ccccc2)c(/C=C\c2ccnc[nH+]2)c1 (cis-trans isomerization)
COc1ccc(OCc2ccccc2)c(/C=C\c2ccnc[nH+]2)c1 (3D coordinates assigned)
COc1ccc(OCc2ccccc2)c(/C=C\c2ccnc[nH+]2)c1 (optimized conformer: 54.41965958836735 kcal/mol)

>  <smiles>  (50) 
COc1ccc(OCc2ccccc2)c(C=Cc2ccncn2)c1

>  <score_type>  (50) 
oracle

>  <origin>  (50) 
adg

>  <m_score__min__energy>  (50) 
-7.4199999999999999

>  <m_primary>  (50) 
energy

$$$$
