0:0
     RDKit          3D

 44 46  0  0  1  0  0  0  0  0999 V2000
    0.2050   24.7510  -24.9790 C   0  0  0  0  0  0  0  0  0  0  0  0
   -0.2810   25.9690  -25.7270 C   0  0  0  0  0  0  0  0  0  0  0  0
   -1.0800   25.6340  -26.8860 C   0  0  0  0  0  0  0  0  0  0  0  0
   -1.1730   25.8490  -28.0880 N   0  0  0  0  0  0  0  0  0  0  0  0
   -2.0230   25.4020  -28.9390 N   0  0  0  0  0  0  0  0  0  0  0  0
   -2.9510   24.5820  -28.4700 C   0  0  0  0  0  0  0  0  0  0  0  0
   -3.9890   23.9200  -29.0350 N   0  0  0  0  0  0  0  0  0  0  0  0
   -4.6110   24.6130  -30.1010 C   0  0  0  0  0  0  0  0  0  0  0  0
   -3.9560   25.3430  -30.8560 O   0  0  0  0  0  0  0  0  0  0  0  0
   -6.0860   24.4950  -30.3620 C   0  0  0  0  0  0  0  0  0  0  0  0
   -6.4380   23.1350  -30.7110 N   0  0  0  0  0  0  0  0  0  0  0  0
   -5.3200   22.5030  -31.3090 C   0  0  0  0  0  0  0  0  0  0  0  0
   -5.6910   22.0390  -32.7060 C   0  0  0  0  0  0  0  0  0  0  0  0
   -6.7760   21.0950  -32.5160 N   0  0  0  0  0  0  0  0  0  0  0  0
   -6.7220   19.7270  -32.8610 C   0  0  0  0  0  0  0  0  0  0  0  0
   -7.3720   18.7270  -32.1780 C   0  0  0  0  0  0  0  0  0  0  0  0
   -7.2660   17.3910  -32.5860 C   0  0  0  0  0  0  0  0  0  0  0  0
   -6.5130   17.0230  -33.6800 C   0  0  0  0  0  0  0  0  0  0  0  0
   -5.8520   18.0390  -34.3720 C   0  0  0  0  0  0  0  0  0  0  0  0
   -5.9690   19.3490  -33.9550 C   0  0  0  0  0  0  0  0  0  0  0  0
   -7.9930   21.6690  -31.9140 C   0  0  0  0  0  0  0  0  0  0  0  0
   -7.6870   23.0540  -31.3800 C   0  0  0  0  0  0  0  0  0  0  0  0
   -2.5860   24.4290  -26.6630 S   0  0  0  0  0  0  0  0  0  0  0  0
    0.1326   24.9324  -23.8965 H   0  0  0  0  0  0  0  0  0  0  0  0
   -0.4159   23.8837  -25.2478 H   0  0  0  0  0  0  0  0  0  0  0  0
    1.2524   24.5494  -25.2478 H   0  0  0  0  0  0  0  0  0  0  0  0
   -0.8903   26.5803  -25.0450 H   0  0  0  0  0  0  0  0  0  0  0  0
    0.6055   26.5146  -26.0826 H   0  0  0  0  0  0  0  0  0  0  0  0
   -2.0000   25.6680  -29.9750 H   0  0  0  0  0  0  0  0  0  0  0  0
   -6.6373   24.7895  -29.4568 H   0  0  0  0  0  0  0  0  0  0  0  0
   -6.3498   25.1546  -31.2019 H   0  0  0  0  0  0  0  0  0  0  0  0
   -4.4841   23.2155  -31.3688 H   0  0  0  0  0  0  0  0  0  0  0  0
   -5.0192   21.6366  -30.7017 H   0  0  0  0  0  0  0  0  0  0  0  0
   -6.0223   22.8895  -33.3199 H   0  0  0  0  0  0  0  0  0  0  0  0
   -4.8368   21.5846  -33.2294 H   0  0  0  0  0  0  0  0  0  0  0  0
   -7.9837   18.9791  -31.2992 H   0  0  0  0  0  0  0  0  0  0  0  0
   -7.7985   16.6143  -32.0175 H   0  0  0  0  0  0  0  0  0  0  0  0
   -6.4361   15.9718  -33.9949 H   0  0  0  0  0  0  0  0  0  0  0  0
   -5.2371   17.7951  -35.2508 H   0  0  0  0  0  0  0  0  0  0  0  0
   -5.4376   20.1287  -34.5204 H   0  0  0  0  0  0  0  0  0  0  0  0
   -8.7828   21.7362  -32.6767 H   0  0  0  0  0  0  0  0  0  0  0  0
   -8.3334   21.0250  -31.0898 H   0  0  0  0  0  0  0  0  0  0  0  0
   -7.6772   23.7592  -32.2241 H   0  0  0  0  0  0  0  0  0  0  0  0
   -8.4670   23.2988  -30.6440 H   0  0  0  0  0  0  0  0  0  0  0  0
  1  2  1  0
  2  3  1  0
  3  4  2  0
  4  5  1  0
  5  6  1  0
  6  7  2  0
  7  8  1  0
  8  9  2  0
  8 10  1  0
 10 11  1  0
 11 12  1  0
 12 13  1  0
 13 14  1  0
 14 15  1  0
 15 16  2  0
 16 17  1  0
 17 18  2  0
 18 19  1  0
 19 20  2  0
 14 21  1  0
 21 22  1  0
  6 23  1  0
 23  3  1  0
 22 11  1  0
 20 15  1  0
  1 24  1  0
  1 25  1  0
  1 26  1  0
  2 27  1  0
  2 28  1  0
  5 29  1  0
 10 30  1  0
 10 31  1  0
 12 32  1  0
 12 33  1  0
 13 34  1  0
 13 35  1  0
 16 36  1  0
 17 37  1  0
 18 38  1  0
 19 39  1  0
 20 40  1  0
 21 41  1  0
 21 42  1  0
 22 43  1  0
 22 44  1  0
M  END
>  <smiles>  (1) 
CCc1n[nH]c(=NC(=O)CN2CCN(c3ccccc3)CC2)s1

>  <score_type>  (1) 
oracle

>  <origin>  (1) 
adg

>  <m_score__min__energy>  (1) 
-9.3800000000000008

>  <m_primary>  (1) 
energy

$$$$
1:0
     RDKit          3D

 45 48  0  0  0  0  0  0  0  0999 V2000
   -1.3160   21.3000  -33.4590 C   0  0  0  0  0  0  0  0  0  0  0  0
   -1.0990   21.4190  -32.0930 C   0  0  0  0  0  0  0  0  0  0  0  0
   -2.1060   20.3290  -31.3010 S   0  0  0  0  0  0  0  0  0  0  0  0
   -2.8160   19.6940  -32.6870 C   0  0  0  0  0  0  0  0  0  0  0  0
   -3.8820   18.6300  -32.7130 C   0  0  0  0  0  0  0  0  0  0  0  0
   -5.2600   19.1620  -32.6170 N   0  0  0  0  0  0  0  0  0  0  0  0
   -5.9460   19.2450  -33.9190 C   0  0  0  0  0  0  0  0  0  0  0  0
   -7.2380   20.0850  -33.8100 C   0  0  0  0  0  0  0  0  0  0  0  0
   -7.7170   20.3040  -32.3360 C   0  0  0  0  0  0  0  0  0  0  0  0
   -9.1930   20.7240  -32.2990 C   0  0  0  0  0  0  0  0  0  0  0  0
   -9.3470   21.5100  -31.0090 C   0  0  0  0  0  0  0  0  0  0  0  0
   -7.9280   21.7260  -30.4880 C   0  0  0  0  0  0  0  0  0  0  0  0
   -6.9850   21.3510  -31.5620 N   0  0  0  0  0  0  0  0  0  0  0  0
   -6.6010   22.5620  -32.3350 C   0  0  0  0  0  0  0  0  0  0  0  0
   -5.4290   23.2490  -31.7030 C   0  0  0  0  0  0  0  0  0  0  0  0
   -5.4040   24.5380  -31.2230 C   0  0  0  0  0  0  0  0  0  0  0  0
   -4.2350   24.7230  -30.6650 O   0  0  0  0  0  0  0  0  0  0  0  0
   -3.5650   23.5980  -30.7750 C   0  0  0  0  0  0  0  0  0  0  0  0
   -4.2680   22.6350  -31.4080 N   0  0  0  0  0  0  0  0  0  0  0  0
   -7.5470   18.9350  -31.6160 C   0  0  0  0  0  0  0  0  0  0  0  0
   -6.0760   18.4670  -31.5990 C   0  0  0  0  0  0  0  0  0  0  0  0
   -2.2780   20.3390  -33.7940 C   0  0  0  0  0  0  0  0  0  0  0  0
   -0.7825   21.9038  -34.2079 H   0  0  0  0  0  0  0  0  0  0  0  0
   -0.3899   22.1081  -31.6110 H   0  0  0  0  0  0  0  0  0  0  0  0
   -3.7910   18.0710  -33.6560 H   0  0  0  0  0  0  0  0  0  0  0  0
   -3.7218   17.9945  -31.8295 H   0  0  0  0  0  0  0  0  0  0  0  0
   -5.2725   19.7139  -34.6515 H   0  0  0  0  0  0  0  0  0  0  0  0
   -6.2147   18.2277  -34.2396 H   0  0  0  0  0  0  0  0  0  0  0  0
   -7.0533   21.0688  -34.2660 H   0  0  0  0  0  0  0  0  0  0  0  0
   -8.0316   19.5274  -34.3289 H   0  0  0  0  0  0  0  0  0  0  0  0
   -9.4373   21.3541  -33.1669 H   0  0  0  0  0  0  0  0  0  0  0  0
   -9.8697   19.8576  -32.3377 H   0  0  0  0  0  0  0  0  0  0  0  0
   -9.8357   22.4760  -31.2039 H   0  0  0  0  0  0  0  0  0  0  0  0
   -9.9718   20.9752  -30.2786 H   0  0  0  0  0  0  0  0  0  0  0  0
   -7.7860   22.7831  -30.2189 H   0  0  0  0  0  0  0  0  0  0  0  0
   -7.7519   21.1111  -29.5931 H   0  0  0  0  0  0  0  0  0  0  0  0
   -6.3350   22.2656  -33.3604 H   0  0  0  0  0  0  0  0  0  0  0  0
   -7.4530   23.2576  -32.3455 H   0  0  0  0  0  0  0  0  0  0  0  0
   -6.2162   25.2763  -31.2949 H   0  0  0  0  0  0  0  0  0  0  0  0
   -2.5432   23.4564  -30.3931 H   0  0  0  0  0  0  0  0  0  0  0  0
   -7.9000   19.0334  -30.5788 H   0  0  0  0  0  0  0  0  0  0  0  0
   -8.1344   18.1865  -32.1680 H   0  0  0  0  0  0  0  0  0  0  0  0
   -5.6508   18.6693  -30.6049 H   0  0  0  0  0  0  0  0  0  0  0  0
   -6.0599   17.3913  -31.8283 H   0  0  0  0  0  0  0  0  0  0  0  0
   -2.5775   20.1172  -34.8289 H   0  0  0  0  0  0  0  0  0  0  0  0
  1  2  2  0
  2  3  1  0
  3  4  1  0
  4  5  1  0
  5  6  1  0
  6  7  1  0
  7  8  1  0
  8  9  1  0
  9 10  1  0
 10 11  1  0
 11 12  1  0
 12 13  1  0
 13 14  1  0
 14 15  1  0
 15 16  2  0
 16 17  1  0
 17 18  1  0
 18 19  2  0
  9 20  1  0
 20 21  1  0
  4 22  2  0
 22  1  1  0
 21  6  1  0
 13  9  1  0
 19 15  1  0
  1 23  1  0
  2 24  1  0
  5 25  1  0
  5 26  1  0
  7 27  1  0
  7 28  1  0
  8 29  1  0
  8 30  1  0
 10 31  1  0
 10 32  1  0
 11 33  1  0
 11 34  1  0
 12 35  1  0
 12 36  1  0
 14 37  1  0
 14 38  1  0
 16 39  1  0
 18 40  1  0
 20 41  1  0
 20 42  1  0
 21 43  1  0
 21 44  1  0
 22 45  1  0
M  END
>  <UniqueID>  (2) 
1

>  <SMILES>  (2) 
c1csc(CN2CCC3(CCCN3Cc3cocn3)CC2)c1

>  <Energy>  (2) 
121.67589442685511

>  <Genealogy>  (2) 
c1csc(CN2CCC3(CCCN3Cc3cocn3)CC2)c1 (3D coordinates assigned)
c1csc(CN2CCC3(CCCN3Cc3cocn3)CC2)c1 (nonaromatic ring conformer: 121.67589442685511 kcal/mol)

>  <smiles>  (2) 
c1csc(CN2CCC3(CCCN3Cc3cocn3)CC2)c1

>  <score_type>  (2) 
oracle

>  <origin>  (2) 
adg

>  <m_score__min__energy>  (2) 
-7.8799999999999999

>  <m_primary>  (2) 
energy

$$$$
2:0
     RDKit          3D

 39 41  0  0  0  0  0  0  0  0999 V2000
  -10.1723   19.8692  -31.7583 H   0  0  0  0  0  0  0  0  0  0  0  0
   -9.2170   20.3790  -31.9520 C   0  0  0  0  0  0  0  0  0  0  0  0
   -9.0530   21.7160  -31.5850 C   0  0  0  0  0  0  0  0  0  0  0  0
   -9.8771   22.2560  -31.0959 H   0  0  0  0  0  0  0  0  0  0  0  0
   -7.8430   22.3700  -31.8380 C   0  0  0  0  0  0  0  0  0  0  0  0
   -7.7151   23.4194  -31.5341 H   0  0  0  0  0  0  0  0  0  0  0  0
   -6.7860   21.6930  -32.4800 C   0  0  0  0  0  0  0  0  0  0  0  0
   -5.5220   22.3620  -32.7170 N   0  0  0  0  0  0  0  0  0  0  0  0
   -5.0200   21.9330  -33.5300 H   0  0  0  0  0  0  0  0  0  0  0  0
   -5.7990   23.3350  -32.9540 H   0  0  0  0  0  0  0  0  0  0  0  0
   -4.6270   22.3720  -31.5310 C   0  0  1  0  0  0  0  0  0  0  0  0
   -5.2439   21.8901  -30.7582 H   0  0  0  0  0  0  0  0  0  0  0  0
   -3.3420   21.5840  -31.7700 C   0  0  0  0  0  0  0  0  0  0  0  0
   -3.1470   20.9390  -32.8360 O   0  0  0  0  0  0  0  0  0  0  0  0
   -2.2960   21.5870  -30.7320 C   0  0  0  0  0  0  0  0  0  0  0  0
   -1.3900   20.5210  -30.6140 C   0  0  0  0  0  0  0  0  0  0  0  0
   -1.4578   19.6658  -31.3025 H   0  0  0  0  0  0  0  0  0  0  0  0
   -0.4030   20.5420  -29.6260 C   0  0  0  0  0  0  0  0  0  0  0  0
    0.2995   19.7007  -29.5324 H   0  0  0  0  0  0  0  0  0  0  0  0
   -0.3080   21.6310  -28.7570 C   0  0  0  0  0  0  0  0  0  0  0  0
    0.4668   21.6442  -27.9763 H   0  0  0  0  0  0  0  0  0  0  0  0
   -1.1950   22.7040  -28.8770 C   0  0  0  0  0  0  0  0  0  0  0  0
   -1.1112   23.5627  -28.1946 H   0  0  0  0  0  0  0  0  0  0  0  0
   -2.1950   22.6910  -29.8670 C   0  0  0  0  0  0  0  0  0  0  0  0
   -3.1040   23.8450  -30.0490 C   0  0  0  0  0  0  0  0  0  0  0  0
   -2.9080   24.9060  -29.3950 O   0  0  0  0  0  0  0  0  0  0  0  0
   -4.2390   23.7730  -31.0050 C   0  0  0  0  0  0  0  0  0  0  0  0
   -4.8890   24.8940  -31.1960 N   0  0  0  0  0  0  0  0  0  0  0  0
   -5.7330   25.7010  -30.3250 C   0  0  0  0  0  0  0  0  0  0  0  0
   -6.1700   26.5301  -30.9009 H   0  0  0  0  0  0  0  0  0  0  0  0
   -5.1302   26.1099  -29.5007 H   0  0  0  0  0  0  0  0  0  0  0  0
   -6.8460   24.8300  -29.7620 C   0  0  0  0  0  0  0  0  0  0  0  0
   -6.8120   24.8566  -28.6628 H   0  0  0  0  0  0  0  0  0  0  0  0
   -7.8189   25.2091  -30.1080 H   0  0  0  0  0  0  0  0  0  0  0  0
   -6.7119   23.7945  -30.1080 H   0  0  0  0  0  0  0  0  0  0  0  0
   -6.9570   20.3360  -32.8210 C   0  0  0  0  0  0  0  0  0  0  0  0
   -6.1309   19.7830  -33.2919 H   0  0  0  0  0  0  0  0  0  0  0  0
   -8.1690   19.6880  -32.5650 C   0  0  0  0  0  0  0  0  0  0  0  0
   -8.2976   18.6325  -32.8467 H   0  0  0  0  0  0  0  0  0  0  0  0
  1  2  1  0
  2  3  2  0
  3  4  1  0
  3  5  1  0
  5  6  1  0
  5  7  2  0
  7  8  1  0
  8  9  1  0
  8 10  1  0
  8 11  1  0
 11 12  1  1
 11 13  1  0
 13 14  2  0
 13 15  1  0
 15 16  2  0
 16 17  1  0
 16 18  1  0
 18 19  1  0
 18 20  2  0
 20 21  1  0
 20 22  1  0
 22 23  1  0
 22 24  2  0
 24 25  1  0
 25 26  2  0
 25 27  1  0
 27 28  2  0
 28 29  1  0
 29 30  1  0
 29 31  1  0
 29 32  1  0
 32 33  1  0
 32 34  1  0
 32 35  1  0
  7 36  1  0
 36 37  1  0
 36 38  2  0
 38 39  1  0
 38  2  1  0
 27 11  1  0
 24 15  1  0
M  CHG  1   8   1
M  END
>  <UniqueID>  (3) 
2

>  <SMILES>  (3) 
CC/N=C1/C(=O)c2ccccc2C(=O)[C@@H]1[NH2+]c1ccccc1

>  <Energy>  (3) 
61.66978687574236

>  <Genealogy>  (3) 
CCN=C1C(=O)c2ccccc2C(=O)C1[NH2+]c1ccccc1 (protonated)
CCN=C1C(=O)c2ccccc2C(=O)[C@@H]1[NH2+]c1ccccc1 (chirality)
CC/N=C1/C(=O)c2ccccc2C(=O)[C@@H]1[NH2+]c1ccccc1 (cis-trans isomerization)
CC/N=C1/C(=O)c2ccccc2C(=O)[C@@H]1[NH2+]c1ccccc1 (3D coordinates assigned)
CC/N=C1/C(=O)c2ccccc2C(=O)[C@@H]1[NH2+]c1ccccc1 (nonaromatic ring conformer: 61.66978687574236 kcal/mol)

>  <smiles>  (3) 
CCN=C1C(=O)c2ccccc2C(=O)C1Nc1ccccc1

>  <score_type>  (3) 
oracle

>  <origin>  (3) 
adg

>  <m_score__min__energy>  (3) 
-7.96

>  <m_primary>  (3) 
energy

$$$$
3:0
     RDKit          3D

 30 32  0  0  0  0  0  0  0  0999 V2000
   -7.5240   22.9810  -32.3830 C   0  0  0  0  0  0  0  0  0  0  0  0
   -6.2050   22.7680  -31.6990 C   0  0  0  0  0  0  0  0  0  0  0  0
   -5.5430   23.8550  -31.2200 N   0  0  0  0  0  0  0  0  0  0  0  0
   -4.3510   23.7590  -30.5760 C   0  0  0  0  0  0  0  0  0  0  0  0
   -3.7210   24.9150  -30.1030 C   0  0  0  0  0  0  0  0  0  0  0  0
   -2.4970   24.8240  -29.4350 C   0  0  0  0  0  0  0  0  0  0  0  0
   -1.8730   25.9740  -28.9670 O   0  0  0  0  0  0  0  0  0  0  0  0
   -1.8970   23.5760  -29.2400 C   0  0  0  0  0  0  0  0  0  0  0  0
   -2.5180   22.4150  -29.7090 C   0  0  0  0  0  0  0  0  0  0  0  0
   -3.7530   22.4950  -30.3820 C   0  0  0  0  0  0  0  0  0  0  0  0
   -4.4080   21.3510  -30.8750 C   0  0  0  0  0  0  0  0  0  0  0  0
   -3.8880   20.2090  -30.7260 O   0  0  0  0  0  0  0  0  0  0  0  0
   -5.6400   21.4800  -31.5460 C   0  0  0  0  0  0  0  0  0  0  0  0
   -6.3250   20.2750  -32.0710 C   0  0  0  0  0  0  0  0  0  0  0  0
   -7.5830   19.9040  -31.5690 C   0  0  0  0  0  0  0  0  0  0  0  0
   -8.2280   18.7650  -32.0610 C   0  0  0  0  0  0  0  0  0  0  0  0
   -7.6210   17.9890  -33.0520 C   0  0  0  0  0  0  0  0  0  0  0  0
   -6.3670   18.3490  -33.5510 C   0  0  0  0  0  0  0  0  0  0  0  0
   -5.7180   19.4870  -33.0620 C   0  0  0  0  0  0  0  0  0  0  0  0
   -8.3128   23.1084  -31.6269 H   0  0  0  0  0  0  0  0  0  0  0  0
   -7.4697   23.8820  -33.0117 H   0  0  0  0  0  0  0  0  0  0  0  0
   -7.7561   22.1087  -33.0117 H   0  0  0  0  0  0  0  0  0  0  0  0
   -4.1902   25.8979  -30.2573 H   0  0  0  0  0  0  0  0  0  0  0  0
   -0.9325   23.5078  -28.7155 H   0  0  0  0  0  0  0  0  0  0  0  0
   -2.0411   21.4362  -29.5522 H   0  0  0  0  0  0  0  0  0  0  0  0
   -8.0622   20.5110  -30.7867 H   0  0  0  0  0  0  0  0  0  0  0  0
   -9.2147   18.4795  -31.6673 H   0  0  0  0  0  0  0  0  0  0  0  0
   -8.1308   17.0945  -33.4392 H   0  0  0  0  0  0  0  0  0  0  0  0
   -5.8893   17.7364  -34.3298 H   0  0  0  0  0  0  0  0  0  0  0  0
   -4.7291   19.7657  -33.4548 H   0  0  0  0  0  0  0  0  0  0  0  0
  1  2  1  0
  2  3  1  0
  3  4  1  0
  4  5  2  0
  5  6  1  0
  6  7  1  0
  6  8  2  0
  8  9  1  0
  9 10  2  0
 10 11  1  0
 11 12  2  0
 11 13  1  0
 13 14  1  0
 14 15  2  0
 15 16  1  0
 16 17  2  0
 17 18  1  0
 18 19  2  0
 13  2  2  0
 19 14  1  0
 10  4  1  0
  1 20  1  0
  1 21  1  0
  1 22  1  0
  5 23  1  0
  8 24  1  0
  9 25  1  0
 15 26  1  0
 16 27  1  0
 17 28  1  0
 18 29  1  0
 19 30  1  0
M  CHG  2   3  -1   7  -1
M  END
>  <UniqueID>  (4) 
3

>  <SMILES>  (4) 
Cc1[n-]c2cc([O-])ccc2c(=O)c1-c1ccccc1

>  <Energy>  (4) 
45.29235718263102

>  <Genealogy>  (4) 
Cc1[n-]c2cc([O-])ccc2c(=O)c1-c1ccccc1 (protonated)
Cc1[n-]c2cc([O-])ccc2c(=O)c1-c1ccccc1 (3D coordinates assigned)
Cc1[n-]c2cc([O-])ccc2c(=O)c1-c1ccccc1 (optimized conformer: 45.29235718263102 kcal/mol)

>  <smiles>  (4) 
Cc1[nH]c2cc(O)ccc2c(=O)c1-c1ccccc1

>  <score_type>  (4) 
oracle

>  <origin>  (4) 
adg

>  <m_score__min__energy>  (4) 
-9.9700000000000006

>  <m_primary>  (4) 
energy

$$$$
4:0
     RDKit          3D

 31 32  0  0  0  0  0  0  0  0999 V2000
   -3.5190   24.5660  -27.1140 C   0  0  0  0  0  0  0  0  0  0  0  0
   -2.5620   23.6990  -27.8840 C   0  0  0  0  0  0  0  0  0  0  0  0
   -1.8350   22.6950  -27.2200 C   0  0  0  0  0  0  0  0  0  0  0  0
   -0.9400   21.8880  -27.9250 C   0  0  0  0  0  0  0  0  0  0  0  0
   -0.7560   22.0790  -29.2950 C   0  0  0  0  0  0  0  0  0  0  0  0
   -1.4740   23.0700  -29.9670 C   0  0  0  0  0  0  0  0  0  0  0  0
   -2.3980   23.8750  -29.2740 C   0  0  0  0  0  0  0  0  0  0  0  0
   -3.1290   24.9160  -29.9420 N   0  0  0  0  0  0  0  0  0  0  0  0
   -4.4980   24.8620  -30.3630 C   0  0  0  0  0  0  0  0  0  0  0  0
   -4.9470   25.6760  -31.2150 O   0  0  0  0  0  0  0  0  0  0  0  0
   -5.4000   23.8170  -29.7900 C   0  0  0  0  0  0  0  0  0  0  0  0
   -5.5720   22.6940  -30.7740 C   0  0  0  0  0  0  0  0  0  0  0  0
   -4.4980   22.2920  -31.5850 C   0  0  0  0  0  0  0  0  0  0  0  0
   -4.6710   21.2760  -32.5280 C   0  0  0  0  0  0  0  0  0  0  0  0
   -5.9160   20.6560  -32.6800 C   0  0  0  0  0  0  0  0  0  0  0  0
   -6.0910   19.3830  -33.8800 Cl  0  0  0  0  0  0  0  0  0  0  0  0
   -7.0000   21.0620  -31.8810 C   0  0  0  0  0  0  0  0  0  0  0  0
   -8.7310   20.2600  -32.0580 Br  0  0  0  0  0  0  0  0  0  0  0  0
   -6.8250   22.0810  -30.9370 C   0  0  0  0  0  0  0  0  0  0  0  0
   -3.3588   24.4208  -26.0355 H   0  0  0  0  0  0  0  0  0  0  0  0
   -3.3462   25.6214  -27.3716 H   0  0  0  0  0  0  0  0  0  0  0  0
   -4.5522   24.2901  -27.3716 H   0  0  0  0  0  0  0  0  0  0  0  0
   -1.9722   22.5446  -26.1390 H   0  0  0  0  0  0  0  0  0  0  0  0
   -0.3793   21.1007  -27.3999 H   0  0  0  0  0  0  0  0  0  0  0  0
   -0.0439   21.4476  -29.8465 H   0  0  0  0  0  0  0  0  0  0  0  0
   -1.3167   23.2228  -31.0449 H   0  0  0  0  0  0  0  0  0  0  0  0
   -4.9596   23.4242  -28.8617 H   0  0  0  0  0  0  0  0  0  0  0  0
   -6.3819   24.2642  -29.5757 H   0  0  0  0  0  0  0  0  0  0  0  0
   -3.5175   22.7788  -31.4772 H   0  0  0  0  0  0  0  0  0  0  0  0
   -3.8234   20.9616  -33.1547 H   0  0  0  0  0  0  0  0  0  0  0  0
   -7.6753   22.4039  -30.3183 H   0  0  0  0  0  0  0  0  0  0  0  0
  1  2  1  0
  2  3  2  0
  3  4  1  0
  4  5  2  0
  5  6  1  0
  6  7  2  0
  7  8  1  0
  8  9  1  0
  9 10  2  0
  9 11  1  0
 11 12  1  0
 12 13  2  0
 13 14  1  0
 14 15  2  0
 15 16  1  0
 15 17  1  0
 17 18  1  0
 17 19  2  0
  7  2  1  0
 19 12  1  0
  1 20  1  0
  1 21  1  0
  1 22  1  0
  3 23  1  0
  4 24  1  0
  5 25  1  0
  6 26  1  0
 11 27  1  0
 11 28  1  0
 13 29  1  0
 14 30  1  0
 19 31  1  0
M  CHG  1   8  -1
M  END
>  <UniqueID>  (5) 
4

>  <SMILES>  (5) 
Cc1ccccc1[N-]C(=O)Cc1ccc(Cl)c(Br)c1

>  <Energy>  (5) 
33.709947308066994

>  <Genealogy>  (5) 
Cc1ccccc1[N-]C(=O)Cc1ccc(Cl)c(Br)c1 (protonated)
Cc1ccccc1[N-]C(=O)Cc1ccc(Cl)c(Br)c1 (3D coordinates assigned)
Cc1ccccc1[N-]C(=O)Cc1ccc(Cl)c(Br)c1 (optimized conformer: 33.709947308066994 kcal/mol)

>  <smiles>  (5) 
Cc1ccccc1NC(=O)Cc1ccc(Cl)c(Br)c1

>  <score_type>  (5) 
oracle

>  <origin>  (5) 
adg

>  <m_score__min__energy>  (5) 
-9.5600000000000005

>  <m_primary>  (5) 
energy

$$$$
5:0
     RDKit          3D

 35 38  0  0  0  0  0  0  0  0999 V2000
   -3.8090   25.2800  -30.7670 N   0  0  0  0  0  0  0  0  0  0  0  0
   -4.9340   24.6490  -30.6870 C   0  0  0  0  0  0  0  0  0  0  0  0
   -5.9230   25.2640  -30.0120 N   0  0  0  0  0  0  0  0  0  0  0  0
   -7.1040   24.5910  -29.9330 C   0  0  0  0  0  0  0  0  0  0  0  0
   -7.2730   23.3790  -30.4970 N   0  0  0  0  0  0  0  0  0  0  0  0
   -6.2890   22.7560  -31.1750 C   0  0  0  0  0  0  0  0  0  0  0  0
   -5.0770   23.4080  -31.2760 C   0  0  0  0  0  0  0  0  0  0  0  0
   -4.2740   22.5930  -31.9870 N   0  0  0  0  0  0  0  0  0  0  0  0
   -4.9540   21.4630  -32.3250 C   0  0  0  0  0  0  0  0  0  0  0  0
   -4.4060   20.3490  -33.0980 C   0  0  0  0  0  0  0  0  0  0  0  0
   -5.1870   19.5330  -33.8920 C   0  0  0  0  0  0  0  0  0  0  0  0
   -4.5970   18.4930  -34.5980 C   0  0  0  0  0  0  0  0  0  0  0  0
   -3.2390   18.2350  -34.5400 C   0  0  0  0  0  0  0  0  0  0  0  0
   -2.4700   19.0490  -33.7510 C   0  0  0  0  0  0  0  0  0  0  0  0
   -3.0410   20.0870  -33.0430 C   0  0  0  0  0  0  0  0  0  0  0  0
   -6.1960   21.5760  -31.8170 N   0  0  0  0  0  0  0  0  0  0  0  0
   -7.2570   20.6310  -31.9220 C   0  0  0  0  0  0  0  0  0  0  0  0
   -8.5200   20.9600  -32.3650 C   0  0  0  0  0  0  0  0  0  0  0  0
   -9.4730   19.9550  -32.4240 C   0  0  0  0  0  0  0  0  0  0  0  0
   -9.1970   18.6520  -32.0580 C   0  0  0  0  0  0  0  0  0  0  0  0
   -7.9290   18.3370  -31.6170 C   0  0  0  0  0  0  0  0  0  0  0  0
   -6.9650   19.3290  -31.5510 C   0  0  0  0  0  0  0  0  0  0  0  0
   -3.1880   25.2920  -31.5930 H   0  0  0  0  0  0  0  0  0  0  0  0
   -5.8240   26.2010  -29.5650 H   0  0  0  0  0  0  0  0  0  0  0  0
   -7.9450   25.0503  -29.3928 H   0  0  0  0  0  0  0  0  0  0  0  0
   -6.2709   19.7058  -33.9649 H   0  0  0  0  0  0  0  0  0  0  0  0
   -5.2322   17.8511  -35.2260 H   0  0  0  0  0  0  0  0  0  0  0  0
   -2.7924   17.4053  -35.1076 H   0  0  0  0  0  0  0  0  0  0  0  0
   -1.3863   18.8735  -33.6810 H   0  0  0  0  0  0  0  0  0  0  0  0
   -2.3988   20.7248  -32.4179 H   0  0  0  0  0  0  0  0  0  0  0  0
   -8.7647   21.9902  -32.6631 H   0  0  0  0  0  0  0  0  0  0  0  0
  -10.4853   20.2041  -32.7749 H   0  0  0  0  0  0  0  0  0  0  0  0
   -9.9763   17.8779  -32.1174 H   0  0  0  0  0  0  0  0  0  0  0  0
   -7.6853   17.3063  -31.3201 H   0  0  0  0  0  0  0  0  0  0  0  0
   -5.9532   19.0794  -31.1990 H   0  0  0  0  0  0  0  0  0  0  0  0
  1  2  2  3
  2  3  1  0
  3  4  1  0
  4  5  2  0
  5  6  1  0
  6  7  2  0
  7  8  1  0
  8  9  2  0
  9 10  1  0
 10 11  2  0
 11 12  1  0
 12 13  2  0
 13 14  1  0
 14 15  2  0
  9 16  1  0
 16 17  1  0
 17 18  2  0
 18 19  1  0
 19 20  2  0
 20 21  1  0
 21 22  2  0
  7  2  1  0
 15 10  1  0
 22 17  1  0
 16  6  1  0
  1 23  1  0
  3 24  1  0
  4 25  1  0
 11 26  1  0
 12 27  1  0
 13 28  1  0
 14 29  1  0
 15 30  1  0
 18 31  1  0
 19 32  1  0
 20 33  1  0
 21 34  1  0
 22 35  1  0
M  END
>  <smiles>  (6) 
N=c1[nH]cnc2c1nc(-c1ccccc1)n2-c1ccccc1

>  <score_type>  (6) 
oracle

>  <origin>  (6) 
adg

>  <m_score__min__energy>  (6) 
-8.8499999999999996

>  <m_primary>  (6) 
energy

$$$$
6:0
     RDKit          3D

 27 29  0  0  0  0  0  0  0  0999 V2000
   -2.3640   21.9140  -31.0410 C   0  0  0  0  0  0  0  0  0  0  0  0
   -3.1130   22.2950  -32.3130 C   0  0  0  0  0  0  0  0  0  0  0  0
   -4.5670   22.2770  -32.0800 N   0  0  0  0  0  0  0  0  0  0  0  0
   -5.3500   21.2340  -32.5250 C   0  0  0  0  0  0  0  0  0  0  0  0
   -4.8240   20.2790  -33.1650 O   0  0  0  0  0  0  0  0  0  0  0  0
   -6.7460   21.2190  -32.2680 C   0  0  0  0  0  0  0  0  0  0  0  0
   -7.5780   20.1750  -32.7150 C   0  0  0  0  0  0  0  0  0  0  0  0
   -8.9480   20.1990  -32.4380 C   0  0  0  0  0  0  0  0  0  0  0  0
   -9.5020   21.2570  -31.7130 C   0  0  0  0  0  0  0  0  0  0  0  0
   -8.6920   22.3010  -31.2600 C   0  0  0  0  0  0  0  0  0  0  0  0
   -7.3140   22.2890  -31.5340 C   0  0  0  0  0  0  0  0  0  0  0  0
   -6.4810   23.2730  -31.1130 N   0  0  0  0  0  0  0  0  0  0  0  0
   -6.6780   24.3960  -30.3980 C   0  0  0  0  0  0  0  0  0  0  0  0
   -5.5060   25.0430  -30.2340 N   0  0  0  0  0  0  0  0  0  0  0  0
   -4.5470   24.3490  -30.8360 N   0  0  0  0  0  0  0  0  0  0  0  0
   -5.1650   23.2750  -31.3670 C   0  0  0  0  0  0  0  0  0  0  0  0
   -2.9551   22.2147  -30.1634 H   0  0  0  0  0  0  0  0  0  0  0  0
   -2.2054   20.8257  -31.0209 H   0  0  0  0  0  0  0  0  0  0  0  0
   -1.3910   22.4267  -31.0209 H   0  0  0  0  0  0  0  0  0  0  0  0
   -2.8086   23.3054  -32.6235 H   0  0  0  0  0  0  0  0  0  0  0  0
   -2.8698   21.5669  -33.1009 H   0  0  0  0  0  0  0  0  0  0  0  0
   -7.1485   19.3374  -33.2842 H   0  0  0  0  0  0  0  0  0  0  0  0
   -9.5927   19.3812  -32.7924 H   0  0  0  0  0  0  0  0  0  0  0  0
  -10.5807   21.2679  -31.4980 H   0  0  0  0  0  0  0  0  0  0  0  0
   -9.1326   23.1318  -30.6893 H   0  0  0  0  0  0  0  0  0  0  0  0
   -7.6484   24.7350  -30.0064 H   0  0  0  0  0  0  0  0  0  0  0  0
   -5.3580   25.9390  -29.7210 H   0  0  0  0  0  0  0  0  0  0  0  0
  1  2  1  0
  2  3  1  0
  3  4  1  0
  4  5  2  0
  4  6  1  0
  6  7  2  0
  7  8  1  0
  8  9  2  0
  9 10  1  0
 10 11  2  0
 11 12  1  0
 12 13  1  0
 13 14  2  0
 14 15  1  0
 15 16  2  0
 16  3  1  0
 11  6  1  0
 16 12  1  0
  1 17  1  0
  1 18  1  0
  1 19  1  0
  2 20  1  0
  2 21  1  0
  7 22  1  0
  8 23  1  0
  9 24  1  0
 10 25  1  0
 13 26  1  0
 14 27  1  0
M  CHG  1  14   1
M  END
>  <UniqueID>  (7) 
5

>  <SMILES>  (7) 
CCn1c(=O)c2ccccc2n2c[nH+]nc12

>  <Energy>  (7) 
75.63595420504194

>  <Genealogy>  (7) 
CCn1c(=O)c2ccccc2n2c[nH+]nc12 (protonated)
CCn1c(=O)c2ccccc2n2c[nH+]nc12 (3D coordinates assigned)
CCn1c(=O)c2ccccc2n2c[nH+]nc12 (optimized conformer: 75.63595420504194 kcal/mol)

>  <smiles>  (7) 
CCn1c(=O)c2ccccc2n2cnnc12

>  <score_type>  (7) 
oracle

>  <origin>  (7) 
adg

>  <m_score__min__energy>  (7) 
-6.0700000000000003

>  <m_primary>  (7) 
energy

$$$$
7:0
     RDKit          3D

 52 55  0  0  0  0  0  0  0  0999 V2000
   -3.7420   21.6830  -33.0600 C   0  0  0  0  0  0  0  0  0  0  0  0
   -2.5290   20.8570  -33.3980 C   0  0  0  0  0  0  0  0  0  0  0  0
   -1.2600   21.4580  -33.2940 C   0  0  0  0  0  0  0  0  0  0  0  0
   -0.1040   20.7440  -33.6090 C   0  0  0  0  0  0  0  0  0  0  0  0
    1.1100   21.3390  -33.5050 F   0  0  0  0  0  0  0  0  0  0  0  0
   -0.1960   19.4200  -34.0320 C   0  0  0  0  0  0  0  0  0  0  0  0
   -1.4420   18.8030  -34.1360 C   0  0  0  0  0  0  0  0  0  0  0  0
   -2.6240   19.5010  -33.8190 C   0  0  0  0  0  0  0  0  0  0  0  0
   -3.9200   18.7800  -33.9330 C   0  0  0  0  0  0  0  0  0  0  0  0
   -4.9370   18.9410  -33.0570 N   0  0  0  0  0  0  0  0  0  0  0  0
   -5.9010   18.1370  -33.5430 C   0  0  0  0  0  0  0  0  0  0  0  0
   -7.2660   17.9740  -32.9230 C   0  0  0  0  0  0  0  0  0  0  0  0
   -8.0550   19.2310  -32.8700 N   0  0  0  0  0  0  0  0  0  0  0  0
   -7.2940   20.4200  -33.3450 C   0  0  0  0  0  0  0  0  0  0  0  0
   -6.8560   21.3280  -32.1850 C   0  0  0  0  0  0  0  0  0  0  0  0
   -8.0230   21.8420  -31.4290 N   0  0  0  0  0  0  0  0  0  0  0  0
   -7.6040   22.3080  -30.0920 C   0  0  0  0  0  0  0  0  0  0  0  0
   -6.4110   23.2230  -30.2020 C   0  0  0  0  0  0  0  0  0  0  0  0
   -5.1310   22.7480  -29.8740 C   0  0  0  0  0  0  0  0  0  0  0  0
   -4.0190   23.5900  -29.9800 C   0  0  0  0  0  0  0  0  0  0  0  0
   -4.1780   24.9090  -30.4140 C   0  0  0  0  0  0  0  0  0  0  0  0
   -5.4490   25.3890  -30.7420 C   0  0  0  0  0  0  0  0  0  0  0  0
   -6.5640   24.5500  -30.6360 C   0  0  0  0  0  0  0  0  0  0  0  0
   -9.1540   20.8800  -31.3600 C   0  0  0  0  0  0  0  0  0  0  0  0
   -8.6980   19.4260  -31.5460 C   0  0  0  0  0  0  0  0  0  0  0  0
   -5.4430   17.5130  -34.6820 C   0  0  0  0  0  0  0  0  0  0  0  0
   -4.2220   17.9340  -34.8950 O   0  0  0  0  0  0  0  0  0  0  0  0
   -3.8449   21.7531  -31.9671 H   0  0  0  0  0  0  0  0  0  0  0  0
   -3.6280   22.6920  -33.4830 H   0  0  0  0  0  0  0  0  0  0  0  0
   -4.6391   21.2073  -33.4830 H   0  0  0  0  0  0  0  0  0  0  0  0
   -1.1793   22.5031  -32.9604 H   0  0  0  0  0  0  0  0  0  0  0  0
    0.7165   18.8600  -34.2846 H   0  0  0  0  0  0  0  0  0  0  0  0
   -1.5030   17.7568  -34.4702 H   0  0  0  0  0  0  0  0  0  0  0  0
   -7.8290   17.2360  -33.5132 H   0  0  0  0  0  0  0  0  0  0  0  0
   -7.1088   17.6507  -31.8834 H   0  0  0  0  0  0  0  0  0  0  0  0
   -8.8400   19.0940  -33.5530 H   0  0  0  0  0  0  0  0  0  0  0  0
   -6.3987   20.0760  -33.8836 H   0  0  0  0  0  0  0  0  0  0  0  0
   -7.9550   21.0048  -34.0016 H   0  0  0  0  0  0  0  0  0  0  0  0
   -6.2134   20.7521  -31.5029 H   0  0  0  0  0  0  0  0  0  0  0  0
   -6.3105   22.1862  -32.6045 H   0  0  0  0  0  0  0  0  0  0  0  0
   -8.4358   22.8526  -29.6213 H   0  0  0  0  0  0  0  0  0  0  0  0
   -7.3283   21.4356  -29.4813 H   0  0  0  0  0  0  0  0  0  0  0  0
   -5.0023   21.7103  -29.5326 H   0  0  0  0  0  0  0  0  0  0  0  0
   -3.0183   23.2136  -29.7215 H   0  0  0  0  0  0  0  0  0  0  0  0
   -3.3024   25.5696  -30.4975 H   0  0  0  0  0  0  0  0  0  0  0  0
   -5.5730   26.4272  -31.0838 H   0  0  0  0  0  0  0  0  0  0  0  0
   -7.5633   24.9310  -30.8934 H   0  0  0  0  0  0  0  0  0  0  0  0
   -9.6391   20.9751  -30.3773 H   0  0  0  0  0  0  0  0  0  0  0  0
   -9.8492   21.1206  -32.1778 H   0  0  0  0  0  0  0  0  0  0  0  0
   -7.9763   19.1722  -30.7556 H   0  0  0  0  0  0  0  0  0  0  0  0
   -9.5816   18.7733  -31.4880 H   0  0  0  0  0  0  0  0  0  0  0  0
   -6.0006   16.7932  -35.2992 H   0  0  0  0  0  0  0  0  0  0  0  0
  1  2  1  0
  2  3  2  0
  3  4  1  0
  4  5  1  0
  4  6  2  0
  6  7  1  0
  7  8  2  0
  8  9  1  0
  9 10  2  0
 10 11  1  0
 11 12  1  0
 12 13  1  0
 13 14  1  0
 14 15  1  0
 15 16  1  0
 16 17  1  0
 17 18  1  0
 18 19  2  0
 19 20  1  0
 20 21  2  0
 21 22  1  0
 22 23  2  0
 16 24  1  0
 24 25  1  0
 11 26  2  0
 26 27  1  0
  8  2  1  0
 27  9  1  0
 25 13  1  0
 23 18  1  0
  1 28  1  0
  1 29  1  0
  1 30  1  0
  3 31  1  0
  6 32  1  0
  7 33  1  0
 12 34  1  0
 12 35  1  0
 13 36  1  0
 14 37  1  0
 14 38  1  0
 15 39  1  0
 15 40  1  0
 17 41  1  0
 17 42  1  0
 19 43  1  0
 20 44  1  0
 21 45  1  0
 22 46  1  0
 23 47  1  0
 24 48  1  0
 24 49  1  0
 25 50  1  0
 25 51  1  0
 26 52  1  0
M  CHG  1  13   1
M  END
>  <UniqueID>  (8) 
6

>  <SMILES>  (8) 
Cc1cc(F)ccc1-c1nc(C[NH+]2CCN(Cc3ccccc3)CC2)co1

>  <Energy>  (8) 
101.79955889193477

>  <Genealogy>  (8) 
Cc1cc(F)ccc1-c1nc(C[NH+]2CCN(Cc3ccccc3)CC2)co1 (protonated)
Cc1cc(F)ccc1-c1nc(C[NH+]2CCN(Cc3ccccc3)CC2)co1 (3D coordinates assigned)
Cc1cc(F)ccc1-c1nc(C[NH+]2CCN(Cc3ccccc3)CC2)co1 (nonaromatic ring conformer: 101.79955889193477 kcal/mol)

>  <smiles>  (8) 
Cc1cc(F)ccc1-c1nc(CN2CCN(Cc3ccccc3)CC2)co1

>  <score_type>  (8) 
oracle

>  <origin>  (8) 
adg

>  <m_score__min__energy>  (8) 
-8.4000000000000004

>  <m_primary>  (8) 
energy

$$$$
8:0
     RDKit          3D

 29 31  0  0  1  0  0  0  0  0999 V2000
   -3.8740   25.6560  -30.8430 O   0  0  0  0  0  0  0  0  0  0  0  0
   -4.2340   24.6330  -30.2920 C   0  0  0  0  0  0  0  0  0  0  0  0
   -3.6620   23.2460  -30.4100 C   0  0  1  0  0  0  0  0  0  0  0  0
   -3.8430   22.7080  -28.9980 C   0  0  0  0  0  0  0  0  0  0  0  0
   -4.5730   23.7760  -28.2100 C   0  0  0  0  0  0  0  0  0  0  0  0
   -5.3760   24.4520  -29.3150 C   0  0  2  0  0  0  0  0  0  0  0  0
   -6.3310   23.3960  -29.8070 C   0  0  0  0  0  0  0  0  0  0  0  0
   -5.9900   22.7540  -31.0060 N   0  0  0  0  0  0  0  0  0  0  0  0
   -6.9600   22.7650  -32.0410 C   0  0  0  0  0  0  0  0  0  0  0  0
   -7.5070   21.3780  -32.2700 C   0  0  0  0  0  0  0  0  0  0  0  0
   -8.8700   21.1300  -31.9030 C   0  0  0  0  0  0  0  0  0  0  0  0
   -9.0950   19.3720  -32.3460 S   0  0  0  0  0  0  0  0  0  0  0  0
   -7.3040   19.2150  -32.9700 C   0  0  0  0  0  0  0  0  0  0  0  0
   -6.8790   20.3940  -32.7620 N   0  0  0  0  0  0  0  0  0  0  0  0
   -4.6450   22.5630  -31.3640 C   0  0  0  0  0  0  0  0  0  0  0  0
   -2.6245   23.1352  -30.7582 H   0  0  0  0  0  0  0  0  0  0  0  0
   -2.8627   22.5052  -28.5420 H   0  0  0  0  0  0  0  0  0  0  0  0
   -4.4118   21.7665  -29.0055 H   0  0  0  0  0  0  0  0  0  0  0  0
   -3.8719   24.4768  -27.7331 H   0  0  0  0  0  0  0  0  0  0  0  0
   -5.1804   23.3909  -27.3777 H   0  0  0  0  0  0  0  0  0  0  0  0
   -5.9515   25.3633  -29.0954 H   0  0  0  0  0  0  0  0  0  0  0  0
   -7.3117   23.8730  -29.9505 H   0  0  0  0  0  0  0  0  0  0  0  0
   -6.3142   22.6079  -29.0397 H   0  0  0  0  0  0  0  0  0  0  0  0
   -7.7839   23.4364  -31.7573 H   0  0  0  0  0  0  0  0  0  0  0  0
   -6.4851   23.1168  -32.9687 H   0  0  0  0  0  0  0  0  0  0  0  0
   -9.5998   21.8258  -31.4635 H   0  0  0  0  0  0  0  0  0  0  0  0
   -6.7815   18.3445  -33.3935 H   0  0  0  0  0  0  0  0  0  0  0  0
   -4.4913   22.9703  -32.3742 H   0  0  0  0  0  0  0  0  0  0  0  0
   -4.4459   21.4821  -31.3183 H   0  0  0  0  0  0  0  0  0  0  0  0
  1  2  2  0
  2  3  1  0
  3  4  1  0
  4  5  1  0
  5  6  1  0
  6  7  1  0
  7  8  1  0
  8  9  1  0
  9 10  1  0
 10 11  2  0
 11 12  1  0
 12 13  1  0
 13 14  2  0
  8 15  1  0
  6  2  1  0
 14 10  1  0
 15  3  1  0
  3 16  1  6
  4 17  1  0
  4 18  1  0
  5 19  1  0
  5 20  1  0
  6 21  1  1
  7 22  1  0
  7 23  1  0
  9 24  1  0
  9 25  1  0
 11 26  1  0
 13 27  1  0
 15 28  1  0
 15 29  1  0
M  END
>  <smiles>  (9) 
O=C1C2CCC1CN(Cc1cscn1)C2

>  <score_type>  (9) 
oracle

>  <origin>  (9) 
adg

>  <m_score__min__energy>  (9) 
-6.9000000000000004

>  <m_primary>  (9) 
energy

$$$$
9:0
     RDKit          3D

 56 60  0  0  0  0  0  0  0  0999 V2000
   -1.8450   24.1480  -29.1560 C   0  0  0  0  0  0  0  0  0  0  0  0
   -3.1510   24.1810  -28.3610 C   0  0  0  0  0  0  0  0  0  0  0  0
   -4.2940   23.9120  -29.2320 N   0  0  0  0  0  0  0  0  0  0  0  0
   -4.4740   24.4300  -30.4700 C   0  0  0  0  0  0  0  0  0  0  0  0
   -5.6310   23.8810  -30.9680 C   0  0  0  0  0  0  0  0  0  0  0  0
   -6.2990   24.0620  -32.1740 C   0  0  0  0  0  0  0  0  0  0  0  0
   -7.4650   23.3080  -32.3870 C   0  0  0  0  0  0  0  0  0  0  0  0
   -7.9340   22.3980  -31.4100 C   0  0  0  0  0  0  0  0  0  0  0  0
   -9.0960   21.6610  -31.7060 O   0  0  0  0  0  0  0  0  0  0  0  0
   -9.1520   20.4550  -32.4630 C   0  0  0  0  0  0  0  0  0  0  0  0
   -8.8210   19.2270  -31.6070 C   0  0  0  0  0  0  0  0  0  0  0  0
   -7.5660   18.5780  -32.0400 N   0  0  0  0  0  0  0  0  0  0  0  0
   -7.6180   17.3060  -32.7770 C   0  0  0  0  0  0  0  0  0  0  0  0
   -6.2800   16.9380  -33.3670 C   0  0  0  0  0  0  0  0  0  0  0  0
   -5.3770   16.1470  -32.6360 C   0  0  0  0  0  0  0  0  0  0  0  0
   -4.1150   15.8500  -33.1580 C   0  0  0  0  0  0  0  0  0  0  0  0
   -3.7520   16.3270  -34.4180 C   0  0  0  0  0  0  0  0  0  0  0  0
   -2.5350   16.0270  -34.9290 F   0  0  0  0  0  0  0  0  0  0  0  0
   -4.6500   17.0980  -35.1630 C   0  0  0  0  0  0  0  0  0  0  0  0
   -5.9180   17.3920  -34.6480 C   0  0  0  0  0  0  0  0  0  0  0  0
   -6.3750   19.3840  -32.1400 C   0  0  0  0  0  0  0  0  0  0  0  0
   -5.3770   19.3610  -31.2200 N   0  0  0  0  0  0  0  0  0  0  0  0
   -4.3570   20.1850  -31.5780 C   0  0  0  0  0  0  0  0  0  0  0  0
   -3.1910   20.3820  -30.8370 C   0  0  0  0  0  0  0  0  0  0  0  0
   -2.2090   21.2620  -31.3290 C   0  0  0  0  0  0  0  0  0  0  0  0
   -2.4050   21.9270  -32.5590 C   0  0  0  0  0  0  0  0  0  0  0  0
   -3.5830   21.7160  -33.3010 C   0  0  0  0  0  0  0  0  0  0  0  0
   -4.5370   20.8450  -32.7840 C   0  0  0  0  0  0  0  0  0  0  0  0
   -6.0040   20.3970  -33.4460 S   0  0  0  0  0  0  0  0  0  0  0  0
   -7.2340   22.2660  -30.1800 C   0  0  0  0  0  0  0  0  0  0  0  0
   -6.0880   23.0330  -29.9980 C   0  0  0  0  0  0  0  0  0  0  0  0
   -5.2740   23.0580  -28.9300 N   0  0  0  0  0  0  0  0  0  0  0  0
   -0.9929   24.1265  -28.4607 H   0  0  0  0  0  0  0  0  0  0  0  0
   -1.8240   23.2490  -29.7896 H   0  0  0  0  0  0  0  0  0  0  0  0
   -1.7787   25.0448  -29.7896 H   0  0  0  0  0  0  0  0  0  0  0  0
   -3.1118   23.4170  -27.5706 H   0  0  0  0  0  0  0  0  0  0  0  0
   -3.2708   25.1814  -27.9197 H   0  0  0  0  0  0  0  0  0  0  0  0
   -3.8192   25.1522  -30.9796 H   0  0  0  0  0  0  0  0  0  0  0  0
   -5.9288   24.7682  -32.9318 H   0  0  0  0  0  0  0  0  0  0  0  0
   -8.0222   23.4268  -33.3280 H   0  0  0  0  0  0  0  0  0  0  0  0
  -10.1660   20.3395  -32.8735 H   0  0  0  0  0  0  0  0  0  0  0  0
   -8.4041   20.5219  -33.2668 H   0  0  0  0  0  0  0  0  0  0  0  0
   -8.7155   19.5420  -30.5584 H   0  0  0  0  0  0  0  0  0  0  0  0
   -9.6387   18.5002  -31.7213 H   0  0  0  0  0  0  0  0  0  0  0  0
   -7.9330   16.5090  -32.0874 H   0  0  0  0  0  0  0  0  0  0  0  0
   -8.3330   17.4227  -33.6047 H   0  0  0  0  0  0  0  0  0  0  0  0
   -5.6651   15.7596  -31.6476 H   0  0  0  0  0  0  0  0  0  0  0  0
   -3.4082   15.2405  -32.5758 H   0  0  0  0  0  0  0  0  0  0  0  0
   -4.3595   17.4739  -36.1551 H   0  0  0  0  0  0  0  0  0  0  0  0
   -6.6316   17.9784  -35.2454 H   0  0  0  0  0  0  0  0  0  0  0  0
   -5.4230   18.8540  -30.3150 H   0  0  0  0  0  0  0  0  0  0  0  0
   -3.0416   19.8570  -29.8820 H   0  0  0  0  0  0  0  0  0  0  0  0
   -1.2868   21.4321  -30.7540 H   0  0  0  0  0  0  0  0  0  0  0  0
   -1.6339   22.6131  -32.9394 H   0  0  0  0  0  0  0  0  0  0  0  0
   -3.7445   22.2255  -34.2624 H   0  0  0  0  0  0  0  0  0  0  0  0
   -7.5874   21.5791  -29.3969 H   0  0  0  0  0  0  0  0  0  0  0  0
  1  2  1  0
  2  3  1  0
  3  4  1  0
  4  5  2  0
  5  6  1  0
  6  7  2  0
  7  8  1  0
  8  9  1  0
  9 10  1  0
 10 11  1  0
 11 12  1  0
 12 13  1  0
 13 14  1  0
 14 15  2  0
 15 16  1  0
 16 17  2  0
 17 18  1  0
 17 19  1  0
 19 20  2  0
 12 21  1  0
 21 22  2  0
 22 23  1  0
 23 24  2  0
 24 25  1  0
 25 26  2  0
 26 27  1  0
 27 28  2  0
 28 29  1  0
  8 30  2  0
 30 31  1  0
 31 32  2  0
 32  3  1  0
 31  5  1  0
 20 14  1  0
 29 21  1  0
 28 23  1  0
  1 33  1  0
  1 34  1  0
  1 35  1  0
  2 36  1  0
  2 37  1  0
  4 38  1  0
  6 39  1  0
  7 40  1  0
 10 41  1  0
 10 42  1  0
 11 43  1  0
 11 44  1  0
 13 45  1  0
 13 46  1  0
 15 47  1  0
 16 48  1  0
 19 49  1  0
 20 50  1  0
 22 51  1  0
 24 52  1  0
 25 53  1  0
 26 54  1  0
 27 55  1  0
 30 56  1  0
M  CHG  1  22   1
M  END
>  <UniqueID>  (10) 
7

>  <SMILES>  (10) 
CCn1cc2ccc(OCCN(Cc3ccc(F)cc3)c3[nH+]c4ccccc4s3)cc2n1

>  <Energy>  (10) 
130.3223262909757

>  <Genealogy>  (10) 
CCn1cc2ccc(OCCN(Cc3ccc(F)cc3)c3[nH+]c4ccccc4s3)cc2n1 (protonated)
CCn1cc2ccc(OCCN(Cc3ccc(F)cc3)c3[nH+]c4ccccc4s3)cc2n1 (3D coordinates assigned)
CCn1cc2ccc(OCCN(Cc3ccc(F)cc3)c3[nH+]c4ccccc4s3)cc2n1 (optimized conformer: 130.3223262909757 kcal/mol)

>  <smiles>  (10) 
CCn1cc2ccc(OCCN(Cc3ccc(F)cc3)c3nc4ccccc4s3)cc2n1

>  <score_type>  (10) 
oracle

>  <origin>  (10) 
adg

>  <m_score__min__energy>  (10) 
-8.8200000000000003

>  <m_primary>  (10) 
energy

$$$$
10:0
     RDKit          3D

 40 42  0  0  0  0  0  0  0  0999 V2000
   -9.1470   21.8140  -31.6170 C   0  0  0  0  0  0  0  0  0  0  0  0
   -8.1400   20.7950  -32.1500 C   0  0  0  0  0  0  0  0  0  0  0  0
   -6.7210   21.3070  -32.0220 C   0  0  0  0  0  0  0  0  0  0  0  0
   -6.5150   22.5040  -31.3100 C   0  0  0  0  0  0  0  0  0  0  0  0
   -5.2270   23.0030  -31.0970 C   0  0  0  0  0  0  0  0  0  0  0  0
   -5.0010   24.5130  -30.2180 S   0  0  0  0  0  0  0  0  0  0  0  0
   -4.6000   24.1530  -28.5240 C   0  0  0  0  0  0  0  0  0  0  0  0
   -6.2600   25.3320  -30.2720 O   0  0  0  0  0  0  0  0  0  0  0  0
   -3.8850   25.3020  -30.8450 O   0  0  0  0  0  0  0  0  0  0  0  0
   -4.1250   22.3070  -31.5980 C   0  0  0  0  0  0  0  0  0  0  0  0
   -4.3070   21.1190  -32.3050 C   0  0  0  0  0  0  0  0  0  0  0  0
   -5.5960   20.6110  -32.5400 C   0  0  0  0  0  0  0  0  0  0  0  0
   -5.7080   19.3510  -33.3050 C   0  0  0  0  0  0  0  0  0  0  0  0
   -6.0780   19.2980  -34.6000 N   0  0  0  0  0  0  0  0  0  0  0  0
   -6.1230   18.0310  -34.8920 O   0  0  0  0  0  0  0  0  0  0  0  0
   -5.8120   17.3150  -33.8360 C   0  0  0  0  0  0  0  0  0  0  0  0
   -5.7750   15.8350  -33.8200 C   0  0  0  0  0  0  0  0  0  0  0  0
   -6.9030   15.1080  -34.2430 C   0  0  0  0  0  0  0  0  0  0  0  0
   -6.8890   13.7100  -34.2350 C   0  0  0  0  0  0  0  0  0  0  0  0
   -5.7510   13.0230  -33.8090 C   0  0  0  0  0  0  0  0  0  0  0  0
   -4.6240   13.7340  -33.3900 C   0  0  0  0  0  0  0  0  0  0  0  0
   -4.6330   15.1320  -33.3950 C   0  0  0  0  0  0  0  0  0  0  0  0
   -5.5450   18.1170  -32.7880 N   0  0  0  0  0  0  0  0  0  0  0  0
   -9.1344   21.8012  -30.5171 H   0  0  0  0  0  0  0  0  0  0  0  0
   -8.8768   22.8184  -31.9751 H   0  0  0  0  0  0  0  0  0  0  0  0
  -10.1545   21.5557  -31.9751 H   0  0  0  0  0  0  0  0  0  0  0  0
   -8.2373   19.8612  -31.5768 H   0  0  0  0  0  0  0  0  0  0  0  0
   -8.3521   20.6210  -33.2152 H   0  0  0  0  0  0  0  0  0  0  0  0
   -7.3813   23.0551  -30.9152 H   0  0  0  0  0  0  0  0  0  0  0  0
   -5.2527   24.7390  -27.8602 H   0  0  0  0  0  0  0  0  0  0  0  0
   -4.7496   23.0803  -28.3318 H   0  0  0  0  0  0  0  0  0  0  0  0
   -3.5496   24.4170  -28.3318 H   0  0  0  0  0  0  0  0  0  0  0  0
   -3.1097   22.6973  -31.4343 H   0  0  0  0  0  0  0  0  0  0  0  0
   -3.4306   20.5726  -32.6835 H   0  0  0  0  0  0  0  0  0  0  0  0
   -7.8021   15.6433  -34.5823 H   0  0  0  0  0  0  0  0  0  0  0  0
   -7.7766   13.1503  -34.5651 H   0  0  0  0  0  0  0  0  0  0  0  0
   -5.7417   11.9231  -33.8033 H   0  0  0  0  0  0  0  0  0  0  0  0
   -3.7270   13.1925  -33.0552 H   0  0  0  0  0  0  0  0  0  0  0  0
   -3.7417   15.6856  -33.0646 H   0  0  0  0  0  0  0  0  0  0  0  0
   -5.3200   17.8590  -31.8050 H   0  0  0  0  0  0  0  0  0  0  0  0
  1  2  1  0
  2  3  1  0
  3  4  2  0
  4  5  1  0
  5  6  1  0
  6  7  1  0
  6  8  2  0
  6  9  2  0
  5 10  2  0
 10 11  1  0
 11 12  2  0
 12 13  1  0
 13 14  2  0
 14 15  1  0
 15 16  1  0
 16 17  1  0
 17 18  2  0
 18 19  1  0
 19 20  2  0
 20 21  1  0
 21 22  2  0
 16 23  2  0
 12  3  1  0
 23 13  1  0
 22 17  1  0
  1 24  1  0
  1 25  1  0
  1 26  1  0
  2 27  1  0
  2 28  1  0
  4 29  1  0
  7 30  1  0
  7 31  1  0
  7 32  1  0
 10 33  1  0
 11 34  1  0
 18 35  1  0
 19 36  1  0
 20 37  1  0
 21 38  1  0
 22 39  1  0
 23 40  1  0
M  CHG  1  23   1
M  END
>  <UniqueID>  (11) 
8

>  <SMILES>  (11) 
CCc1cc(S(C)(=O)=O)ccc1-c1noc(-c2ccccc2)[nH+]1

>  <Energy>  (11) 
79.32325270549269

>  <Genealogy>  (11) 
CCc1cc(S(C)(=O)=O)ccc1-c1noc(-c2ccccc2)[nH+]1 (protonated)
CCc1cc(S(C)(=O)=O)ccc1-c1noc(-c2ccccc2)[nH+]1 (3D coordinates assigned)
CCc1cc(S(C)(=O)=O)ccc1-c1noc(-c2ccccc2)[nH+]1 (optimized conformer: 79.32325270549269 kcal/mol)

>  <smiles>  (11) 
CCc1cc(S(C)(=O)=O)ccc1-c1noc(-c2ccccc2)n1

>  <score_type>  (11) 
oracle

>  <origin>  (11) 
adg

>  <m_score__min__energy>  (11) 
-8.5299999999999994

>  <m_primary>  (11) 
energy

$$$$
11:0
     RDKit          3D

 52 55  0  0  0  0  0  0  0  0999 V2000
   -9.4900   21.5490  -31.1940 C   0  0  0  0  0  0  0  0  0  0  0  0
   -8.6500   20.4490  -31.7580 C   0  0  0  0  0  0  0  0  0  0  0  0
   -8.7050   19.1620  -31.2190 C   0  0  0  0  0  0  0  0  0  0  0  0
   -7.9140   18.1580  -31.7710 C   0  0  0  0  0  0  0  0  0  0  0  0
   -7.0840   18.4550  -32.8610 C   0  0  0  0  0  0  0  0  0  0  0  0
   -6.2030   17.4610  -33.4300 N   0  0  0  0  0  0  0  0  0  0  0  0
   -6.0150   17.3700  -34.8900 C   0  0  0  0  0  0  0  0  0  0  0  0
   -4.5170   17.3680  -35.2850 C   0  0  0  0  0  0  0  0  0  0  0  0
   -3.5740   17.3410  -34.0610 C   0  0  0  0  0  0  0  0  0  0  0  0
   -3.5160   18.6380  -33.3470 N   0  0  0  0  0  0  0  0  0  0  0  0
   -4.2520   19.7290  -33.6520 C   0  0  0  0  0  0  0  0  0  0  0  0
   -3.8390   20.7820  -32.8580 C   0  0  0  0  0  0  0  0  0  0  0  0
   -4.1750   22.2280  -33.0670 C   0  0  0  0  0  0  0  0  0  0  0  0
   -5.1220   22.6930  -31.9930 C   0  0  0  0  0  0  0  0  0  0  0  0
   -6.3430   23.2960  -32.3420 C   0  0  0  0  0  0  0  0  0  0  0  0
   -7.2000   23.7790  -31.3480 C   0  0  0  0  0  0  0  0  0  0  0  0
   -6.8450   23.6670  -30.0030 C   0  0  0  0  0  0  0  0  0  0  0  0
   -5.6290   23.0760  -29.6460 C   0  0  0  0  0  0  0  0  0  0  0  0
   -4.7700   22.5910  -30.6370 C   0  0  0  0  0  0  0  0  0  0  0  0
   -2.8520   20.2520  -32.0460 C   0  0  0  0  0  0  0  0  0  0  0  0
   -1.9580   21.0060  -31.1130 C   0  0  0  0  0  0  0  0  0  0  0  0
   -2.6810   18.9560  -32.3630 N   0  0  0  0  0  0  0  0  0  0  0  0
   -4.0660   16.2140  -33.1280 C   0  0  0  0  0  0  0  0  0  0  0  0
   -5.4550   16.5410  -32.5520 C   0  0  0  0  0  0  0  0  0  0  0  0
   -7.0940   19.7210  -33.3630 N   0  0  0  0  0  0  0  0  0  0  0  0
   -7.8510   20.6840  -32.8320 N   0  0  0  0  0  0  0  0  0  0  0  0
   -9.4586   21.5078  -30.0952 H   0  0  0  0  0  0  0  0  0  0  0  0
   -9.1010   22.5195  -31.5358 H   0  0  0  0  0  0  0  0  0  0  0  0
  -10.5287   21.4293  -31.5358 H   0  0  0  0  0  0  0  0  0  0  0  0
   -9.3662   18.9438  -30.3674 H   0  0  0  0  0  0  0  0  0  0  0  0
   -7.9401   17.1400  -31.3552 H   0  0  0  0  0  0  0  0  0  0  0  0
   -6.4781   16.4395  -35.2501 H   0  0  0  0  0  0  0  0  0  0  0  0
   -6.4852   18.2527  -35.3480 H   0  0  0  0  0  0  0  0  0  0  0  0
   -4.3175   16.4793  -35.9018 H   0  0  0  0  0  0  0  0  0  0  0  0
   -4.3187   18.2998  -35.8349 H   0  0  0  0  0  0  0  0  0  0  0  0
   -2.5450   17.1528  -34.4013 H   0  0  0  0  0  0  0  0  0  0  0  0
   -5.0494   19.7721  -34.4085 H   0  0  0  0  0  0  0  0  0  0  0  0
   -3.2531   22.8267  -33.0250 H   0  0  0  0  0  0  0  0  0  0  0  0
   -4.6529   22.3509  -34.0501 H   0  0  0  0  0  0  0  0  0  0  0  0
   -6.6254   23.3883  -33.4011 H   0  0  0  0  0  0  0  0  0  0  0  0
   -8.1553   24.2479  -31.6267 H   0  0  0  0  0  0  0  0  0  0  0  0
   -7.5225   24.0441  -29.2228 H   0  0  0  0  0  0  0  0  0  0  0  0
   -5.3482   22.9926  -28.5857 H   0  0  0  0  0  0  0  0  0  0  0  0
   -3.8137   22.1272  -30.3533 H   0  0  0  0  0  0  0  0  0  0  0  0
   -2.2333   20.7738  -30.0736 H   0  0  0  0  0  0  0  0  0  0  0  0
   -0.9126   20.7127  -31.2897 H   0  0  0  0  0  0  0  0  0  0  0  0
   -2.0707   22.0858  -31.2897 H   0  0  0  0  0  0  0  0  0  0  0  0
   -1.9570   18.3360  -31.9430 H   0  0  0  0  0  0  0  0  0  0  0  0
   -4.1251   15.2752  -33.6982 H   0  0  0  0  0  0  0  0  0  0  0  0
   -3.3556   16.1147  -32.2940 H   0  0  0  0  0  0  0  0  0  0  0  0
   -6.0259   15.6069  -32.4442 H   0  0  0  0  0  0  0  0  0  0  0  0
   -5.3170   17.0312  -31.5770 H   0  0  0  0  0  0  0  0  0  0  0  0
  1  2  1  0
  2  3  2  0
  3  4  1  0
  4  5  2  0
  5  6  1  0
  6  7  1  0
  7  8  1  0
  8  9  1  0
  9 10  1  0
 10 11  1  0
 11 12  2  0
 12 13  1  0
 13 14  1  0
 14 15  2  0
 15 16  1  0
 16 17  2  0
 17 18  1  0
 18 19  2  0
 12 20  1  0
 20 21  1  0
 20 22  2  0
  9 23  1  0
 23 24  1  0
  5 25  1  0
 25 26  2  0
 26  2  1  0
 24  6  1  0
 22 10  1  0
 19 14  1  0
  1 27  1  0
  1 28  1  0
  1 29  1  0
  3 30  1  0
  4 31  1  0
  7 32  1  0
  7 33  1  0
  8 34  1  0
  8 35  1  0
  9 36  1  0
 11 37  1  0
 13 38  1  0
 13 39  1  0
 15 40  1  0
 16 41  1  0
 17 42  1  0
 18 43  1  0
 19 44  1  0
 21 45  1  0
 21 46  1  0
 21 47  1  0
 22 48  1  0
 23 49  1  0
 23 50  1  0
 24 51  1  0
 24 52  1  0
M  CHG  1  22   1
M  END
>  <UniqueID>  (12) 
9

>  <SMILES>  (12) 
Cc1ccc(N2CCC(n3cc(Cc4ccccc4)c(C)[nH+]3)CC2)nn1

>  <Energy>  (12) 
86.84837685790586

>  <Genealogy>  (12) 
Cc1ccc(N2CCC(n3cc(Cc4ccccc4)c(C)[nH+]3)CC2)nn1 (protonated)
Cc1ccc(N2CCC(n3cc(Cc4ccccc4)c(C)[nH+]3)CC2)nn1 (3D coordinates assigned)
Cc1ccc(N2CCC(n3cc(Cc4ccccc4)c(C)[nH+]3)CC2)nn1 (nonaromatic ring conformer: 86.84837685790586 kcal/mol)

>  <smiles>  (12) 
Cc1ccc(N2CCC(n3cc(Cc4ccccc4)c(C)n3)CC2)nn1

>  <score_type>  (12) 
oracle

>  <origin>  (12) 
adg

>  <m_score__min__energy>  (12) 
-8.1099999999999994

>  <m_primary>  (12) 
energy

$$$$
12:0
     RDKit          3D

 45 47  0  0  0  0  0  0  0  0999 V2000
   -8.7910   19.4820  -31.2490 C   0  0  0  0  0  0  0  0  0  0  0  0
   -8.9490   20.9960  -31.3290 C   0  0  0  0  0  0  0  0  0  0  0  0
   -8.1540   21.5310  -32.3860 O   0  0  0  0  0  0  0  0  0  0  0  0
   -6.9260   20.9720  -32.7500 C   0  0  0  0  0  0  0  0  0  0  0  0
   -6.9110   19.8500  -33.5230 N   0  0  0  0  0  0  0  0  0  0  0  0
   -5.7400   19.2480  -33.8710 C   0  0  0  0  0  0  0  0  0  0  0  0
   -5.7290   18.0830  -34.6540 C   0  0  0  0  0  0  0  0  0  0  0  0
   -4.5110   17.4790  -34.9910 C   0  0  0  0  0  0  0  0  0  0  0  0
   -3.3060   18.0340  -34.5490 C   0  0  0  0  0  0  0  0  0  0  0  0
   -3.3100   19.1950  -33.7700 C   0  0  0  0  0  0  0  0  0  0  0  0
   -4.5230   19.8020  -33.4310 C   0  0  0  0  0  0  0  0  0  0  0  0
   -4.5410   20.9300  -32.6780 N   0  0  0  0  0  0  0  0  0  0  0  0
   -5.7060   21.5490  -32.3390 C   0  0  0  0  0  0  0  0  0  0  0  0
   -5.6580   22.7980  -31.4940 C   0  0  0  0  0  0  0  0  0  0  0  0
   -4.4020   22.8460  -30.6530 C   0  0  0  0  0  0  0  0  0  0  0  0
   -3.8940   21.6510  -30.1230 C   0  0  0  0  0  0  0  0  0  0  0  0
   -2.7530   21.6620  -29.3260 C   0  0  0  0  0  0  0  0  0  0  0  0
   -2.1100   22.8640  -29.0400 C   0  0  0  0  0  0  0  0  0  0  0  0
   -2.6080   24.0850  -29.5390 C   0  0  0  0  0  0  0  0  0  0  0  0
   -1.9650   25.2970  -29.2440 O   0  0  0  0  0  0  0  0  0  0  0  0
   -1.3650   25.6210  -27.9940 C   0  0  0  0  0  0  0  0  0  0  0  0
   -3.7770   24.0770  -30.3500 C   0  0  0  0  0  0  0  0  0  0  0  0
   -4.3620   25.2470  -30.8750 O   0  0  0  0  0  0  0  0  0  0  0  0
   -5.5860   25.8460  -30.4650 C   0  0  0  0  0  0  0  0  0  0  0  0
   -8.7586   19.1720  -30.1941 H   0  0  0  0  0  0  0  0  0  0  0  0
   -9.6435   18.9975  -31.7476 H   0  0  0  0  0  0  0  0  0  0  0  0
   -7.8569   19.1840  -31.7476 H   0  0  0  0  0  0  0  0  0  0  0  0
  -10.0058   21.2395  -31.5132 H   0  0  0  0  0  0  0  0  0  0  0  0
   -8.6158   21.4370  -30.3779 H   0  0  0  0  0  0  0  0  0  0  0  0
   -7.8230   19.4430  -33.8340 H   0  0  0  0  0  0  0  0  0  0  0  0
   -6.6759   17.6449  -35.0025 H   0  0  0  0  0  0  0  0  0  0  0  0
   -4.5023   16.5661  -35.6047 H   0  0  0  0  0  0  0  0  0  0  0  0
   -2.3519   17.5556  -34.8151 H   0  0  0  0  0  0  0  0  0  0  0  0
   -2.3606   19.6300  -33.4245 H   0  0  0  0  0  0  0  0  0  0  0  0
   -5.6810   23.6778  -32.1538 H   0  0  0  0  0  0  0  0  0  0  0  0
   -6.5269   22.7938  -30.8195 H   0  0  0  0  0  0  0  0  0  0  0  0
   -4.4007   20.6987  -30.3386 H   0  0  0  0  0  0  0  0  0  0  0  0
   -2.3579   20.7187  -28.9208 H   0  0  0  0  0  0  0  0  0  0  0  0
   -1.2031   22.8606  -28.4175 H   0  0  0  0  0  0  0  0  0  0  0  0
   -2.0116   25.2718  -27.1755 H   0  0  0  0  0  0  0  0  0  0  0  0
   -0.3832   25.1304  -27.9204 H   0  0  0  0  0  0  0  0  0  0  0  0
   -1.2367   26.7110  -27.9204 H   0  0  0  0  0  0  0  0  0  0  0  0
   -5.6330   25.8690  -29.3662 H   0  0  0  0  0  0  0  0  0  0  0  0
   -5.6408   26.8727  -30.8559 H   0  0  0  0  0  0  0  0  0  0  0  0
   -6.4304   25.2593  -30.8559 H   0  0  0  0  0  0  0  0  0  0  0  0
  1  2  1  0
  2  3  1  0
  3  4  1  0
  4  5  2  0
  5  6  1  0
  6  7  2  0
  7  8  1  0
  8  9  2  0
  9 10  1  0
 10 11  2  0
 11 12  1  0
 12 13  2  0
 13 14  1  0
 14 15  1  0
 15 16  2  0
 16 17  1  0
 17 18  2  0
 18 19  1  0
 19 20  1  0
 20 21  1  0
 19 22  2  0
 22 23  1  0
 23 24  1  0
 13  4  1  0
 22 15  1  0
 11  6  1  0
  1 25  1  0
  1 26  1  0
  1 27  1  0
  2 28  1  0
  2 29  1  0
  5 30  1  0
  7 31  1  0
  8 32  1  0
  9 33  1  0
 10 34  1  0
 14 35  1  0
 14 36  1  0
 16 37  1  0
 17 38  1  0
 18 39  1  0
 21 40  1  0
 21 41  1  0
 21 42  1  0
 24 43  1  0
 24 44  1  0
 24 45  1  0
M  CHG  1   5   1
M  END
>  <UniqueID>  (13) 
10

>  <SMILES>  (13) 
CCOc1[nH+]c2ccccc2nc1Cc1cccc(OC)c1OC

>  <Energy>  (13) 
56.45159841943555

>  <Genealogy>  (13) 
CCOc1[nH+]c2ccccc2nc1Cc1cccc(OC)c1OC (protonated)
CCOc1[nH+]c2ccccc2nc1Cc1cccc(OC)c1OC (3D coordinates assigned)
CCOc1[nH+]c2ccccc2nc1Cc1cccc(OC)c1OC (optimized conformer: 56.45159841943555 kcal/mol)

>  <smiles>  (13) 
CCOc1nc2ccccc2nc1Cc1cccc(OC)c1OC

>  <score_type>  (13) 
oracle

>  <origin>  (13) 
adg

>  <m_score__min__energy>  (13) 
-8.4600000000000009

>  <m_primary>  (13) 
energy

$$$$
13:0
     RDKit          3D

 57 60  0  0  0  0  0  0  0  0999 V2000
   -0.0790   23.2100  -24.6770 C   0  0  0  0  0  0  0  0  0  0  0  0
    0.2620   22.6950  -25.9600 O   0  0  0  0  0  0  0  0  0  0  0  0
   -0.4470   21.6800  -26.6190 C   0  0  0  0  0  0  0  0  0  0  0  0
   -1.2600   20.8340  -25.8560 C   0  0  0  0  0  0  0  0  0  0  0  0
   -1.9950   19.8150  -26.4680 C   0  0  0  0  0  0  0  0  0  0  0  0
   -1.9230   19.6320  -27.8510 C   0  0  0  0  0  0  0  0  0  0  0  0
   -1.1050   20.4630  -28.6320 C   0  0  0  0  0  0  0  0  0  0  0  0
   -1.0580   20.3000  -30.1320 C   0  0  0  0  0  0  0  0  0  0  0  0
   -2.3740   20.6240  -30.8320 C   0  0  0  0  0  0  0  0  0  0  0  0
   -2.9870   19.6820  -31.6170 N   0  0  0  0  0  0  0  0  0  0  0  0
   -4.1910   19.8950  -32.2210 C   0  0  0  0  0  0  0  0  0  0  0  0
   -4.8340   18.8120  -33.0070 C   0  0  0  0  0  0  0  0  0  0  0  0
   -6.1780   18.4650  -32.7900 C   0  0  0  0  0  0  0  0  0  0  0  0
   -6.7750   17.4480  -33.5380 C   0  0  0  0  0  0  0  0  0  0  0  0
   -6.0400   16.7660  -34.5100 C   0  0  0  0  0  0  0  0  0  0  0  0
   -4.6930   17.0990  -34.7420 C   0  0  0  0  0  0  0  0  0  0  0  0
   -3.9100   16.4430  -35.7030 O   0  0  0  0  0  0  0  0  0  0  0  0
   -3.1740   15.2480  -35.4620 C   0  0  0  0  0  0  0  0  0  0  0  0
   -4.1000   18.1200  -33.9880 C   0  0  0  0  0  0  0  0  0  0  0  0
   -4.8230   21.1350  -32.0790 C   0  0  0  0  0  0  0  0  0  0  0  0
   -4.2090   22.1500  -31.3430 C   0  0  0  0  0  0  0  0  0  0  0  0
   -4.8290   23.4030  -31.2290 C   0  0  0  0  0  0  0  0  0  0  0  0
   -4.2160   24.4430  -30.5120 C   0  0  0  0  0  0  0  0  0  0  0  0
   -4.8110   25.7080  -30.3790 O   0  0  0  0  0  0  0  0  0  0  0  0
   -6.0750   25.9470  -29.7670 C   0  0  0  0  0  0  0  0  0  0  0  0
   -2.9700   24.2310  -29.9100 C   0  0  0  0  0  0  0  0  0  0  0  0
   -2.3810   25.2980  -29.2130 O   0  0  0  0  0  0  0  0  0  0  0  0
   -1.7520   25.1860  -27.9390 C   0  0  0  0  0  0  0  0  0  0  0  0
   -2.3460   22.9730  -30.0180 C   0  0  0  0  0  0  0  0  0  0  0  0
   -2.9620   21.9140  -30.7190 C   0  0  0  0  0  0  0  0  0  0  0  0
   -0.3690   21.4870  -28.0120 C   0  0  0  0  0  0  0  0  0  0  0  0
    0.3491   22.5635  -23.8968 H   0  0  0  0  0  0  0  0  0  0  0  0
    0.3241   24.2280  -24.5716 H   0  0  0  0  0  0  0  0  0  0  0  0
   -1.1736   23.2363  -24.5716 H   0  0  0  0  0  0  0  0  0  0  0  0
   -1.3209   20.9722  -24.7664 H   0  0  0  0  0  0  0  0  0  0  0  0
   -2.6315   19.1558  -25.8595 H   0  0  0  0  0  0  0  0  0  0  0  0
   -2.5095   18.8338  -28.3295 H   0  0  0  0  0  0  0  0  0  0  0  0
   -0.2809   20.9699  -30.5287 H   0  0  0  0  0  0  0  0  0  0  0  0
   -0.8441   19.2394  -30.3307 H   0  0  0  0  0  0  0  0  0  0  0  0
   -2.5200   18.7630  -31.7860 H   0  0  0  0  0  0  0  0  0  0  0  0
   -6.7636   18.9976  -32.0262 H   0  0  0  0  0  0  0  0  0  0  0  0
   -7.8279   17.1832  -33.3609 H   0  0  0  0  0  0  0  0  0  0  0  0
   -6.5158   15.9659  -35.0961 H   0  0  0  0  0  0  0  0  0  0  0  0
   -3.0765   15.0897  -34.3778 H   0  0  0  0  0  0  0  0  0  0  0  0
   -3.7032   14.3946  -35.9110 H   0  0  0  0  0  0  0  0  0  0  0  0
   -2.1737   15.3366  -35.9110 H   0  0  0  0  0  0  0  0  0  0  0  0
   -3.0470   18.3841  -34.1651 H   0  0  0  0  0  0  0  0  0  0  0  0
   -5.8030   21.3101  -32.5469 H   0  0  0  0  0  0  0  0  0  0  0  0
   -5.8055   23.5726  -31.7062 H   0  0  0  0  0  0  0  0  0  0  0  0
   -5.9626   25.9257  -28.6730 H   0  0  0  0  0  0  0  0  0  0  0  0
   -6.4524   26.9324  -30.0777 H   0  0  0  0  0  0  0  0  0  0  0  0
   -6.7861   25.1674  -30.0777 H   0  0  0  0  0  0  0  0  0  0  0  0
   -2.5029   25.3197  -27.1463 H   0  0  0  0  0  0  0  0  0  0  0  0
   -1.2913   24.1917  -27.8437 H   0  0  0  0  0  0  0  0  0  0  0  0
   -0.9764   25.9602  -27.8437 H   0  0  0  0  0  0  0  0  0  0  0  0
   -1.3639   22.8134  -29.5490 H   0  0  0  0  0  0  0  0  0  0  0  0
    0.2727   22.1426  -28.6190 H   0  0  0  0  0  0  0  0  0  0  0  0
  1  2  1  0
  2  3  1  0
  3  4  2  0
  4  5  1  0
  5  6  2  0
  6  7  1  0
  7  8  1  0
  8  9  1  0
  9 10  2  0
 10 11  1  0
 11 12  1  0
 12 13  2  0
 13 14  1  0
 14 15  2  0
 15 16  1  0
 16 17  1  0
 17 18  1  0
 16 19  2  0
 11 20  2  0
 20 21  1  0
 21 22  2  0
 22 23  1  0
 23 24  1  0
 24 25  1  0
 23 26  2  0
 26 27  1  0
 27 28  1  0
 26 29  1  0
 29 30  2  0
  7 31  2  0
 31  3  1  0
 30  9  1  0
 19 12  1  0
 30 21  1  0
  1 32  1  0
  1 33  1  0
  1 34  1  0
  4 35  1  0
  5 36  1  0
  6 37  1  0
  8 38  1  0
  8 39  1  0
 10 40  1  0
 13 41  1  0
 14 42  1  0
 15 43  1  0
 18 44  1  0
 18 45  1  0
 18 46  1  0
 19 47  1  0
 20 48  1  0
 22 49  1  0
 25 50  1  0
 25 51  1  0
 25 52  1  0
 28 53  1  0
 28 54  1  0
 28 55  1  0
 29 56  1  0
 31 57  1  0
M  CHG  1  10   1
M  END
>  <UniqueID>  (14) 
11

>  <SMILES>  (14) 
COc1cccc(Cc2[nH+]c(-c3cccc(OC)c3)cc3cc(OC)c(OC)cc23)c1

>  <Energy>  (14) 
71.16269854082334

>  <Genealogy>  (14) 
COc1cccc(Cc2[nH+]c(-c3cccc(OC)c3)cc3cc(OC)c(OC)cc23)c1 (protonated)
COc1cccc(Cc2[nH+]c(-c3cccc(OC)c3)cc3cc(OC)c(OC)cc23)c1 (3D coordinates assigned)
COc1cccc(Cc2[nH+]c(-c3cccc(OC)c3)cc3cc(OC)c(OC)cc23)c1 (optimized conformer: 71.16269854082334 kcal/mol)

>  <smiles>  (14) 
COc1cccc(Cc2nc(-c3cccc(OC)c3)cc3cc(OC)c(OC)cc23)c1

>  <score_type>  (14) 
oracle

>  <origin>  (14) 
adg

>  <m_score__min__energy>  (14) 
-8.2200000000000006

>  <m_primary>  (14) 
energy

$$$$
14:0
     RDKit          3D

 58 61  0  0  1  0  0  0  0  0999 V2000
   -0.1100   19.2300  -29.8810 C   0  0  0  0  0  0  0  0  0  0  0  0
   -0.6110   20.4570  -30.4290 O   0  0  0  0  0  0  0  0  0  0  0  0
   -0.8520   20.5630  -31.7920 C   0  0  0  0  0  0  0  0  0  0  0  0
   -1.8760   19.7810  -32.3270 C   0  0  0  0  0  0  0  0  0  0  0  0
   -2.1190   19.8830  -33.6800 C   0  0  0  0  0  0  0  0  0  0  0  0
   -3.0350   19.1970  -34.2300 N   0  0  0  0  0  0  0  0  0  0  0  0
   -4.6020   18.9230  -33.6370 S   0  0  0  0  0  0  0  0  0  0  0  0
   -4.7820   17.6950  -32.8100 O   0  0  0  0  0  0  0  0  0  0  0  0
   -5.4160   18.5970  -34.8920 O   0  0  0  0  0  0  0  0  0  0  0  0
   -5.3810   20.3210  -32.9600 C   0  0  0  0  0  0  0  0  0  0  0  0
   -4.7270   21.5560  -32.8450 C   0  0  0  0  0  0  0  0  0  0  0  0
   -5.3670   22.6620  -32.3060 C   0  0  0  0  0  0  0  0  0  0  0  0
   -6.6680   22.5930  -31.8610 C   0  0  0  0  0  0  0  0  0  0  0  0
   -7.3830   23.6750  -31.3010 N   0  0  0  0  0  0  0  0  0  0  0  0
   -7.2130   24.1060  -30.0910 C   0  0  0  0  0  0  0  0  0  0  0  0
   -6.2980   25.1740  -29.7200 C   0  0  0  0  0  0  0  0  0  0  0  0
   -4.8960   25.0030  -30.1190 C   0  0  0  0  0  0  0  0  0  0  0  0
   -4.5520   25.6520  -31.1790 O   0  0  0  0  0  0  0  0  0  0  0  0
   -3.8990   24.1960  -29.4490 C   0  0  0  0  0  0  0  0  0  0  0  0
   -3.9350   22.9070  -28.9850 C   0  0  0  0  0  0  0  0  0  0  0  0
   -2.7030   22.6170  -28.4170 C   0  0  0  0  0  0  0  0  0  0  0  0
   -2.2240   21.4790  -27.8160 C   0  0  0  0  0  0  0  0  0  0  0  0
   -0.9300   21.4990  -27.3390 C   0  0  0  0  0  0  0  0  0  0  0  0
   -0.1700   22.6520  -27.4820 C   0  0  0  0  0  0  0  0  0  0  0  0
   -0.6790   23.7670  -28.0860 C   0  0  0  0  0  0  0  0  0  0  0  0
    0.0630   24.9390  -28.2430 O   0  0  0  0  0  0  0  0  0  0  0  0
   -0.2080   26.0830  -27.4550 C   0  0  0  0  0  0  0  0  0  0  0  0
   -1.9710   23.7710  -28.5710 C   0  0  0  0  0  0  0  0  0  0  0  0
   -2.6860   24.6730  -29.1710 O   0  0  0  0  0  0  0  0  0  0  0  0
   -7.3270   21.3850  -31.9670 C   0  0  0  0  0  0  0  0  0  0  0  0
   -6.6820   20.2910  -32.5050 C   0  0  0  0  0  0  0  0  0  0  0  0
   -1.3950   20.7070  -34.4560 N   0  0  0  0  0  0  0  0  0  0  0  0
   -0.4110   21.4570  -33.9360 C   0  0  0  0  0  0  0  0  0  0  0  0
    0.2910   22.2800  -34.7920 O   0  0  0  0  0  0  0  0  0  0  0  0
    1.5410   21.9660  -35.3500 C   0  0  0  0  0  0  0  0  0  0  0  0
   -0.1510   21.3750  -32.6060 N   0  0  0  0  0  0  0  0  0  0  0  0
   -0.1317   19.2832  -28.7825 H   0  0  0  0  0  0  0  0  0  0  0  0
   -0.7385   18.3933  -30.2201 H   0  0  0  0  0  0  0  0  0  0  0  0
    0.9245   19.0724  -30.2201 H   0  0  0  0  0  0  0  0  0  0  0  0
   -2.4687   19.1067  -31.6914 H   0  0  0  0  0  0  0  0  0  0  0  0
   -3.6863   21.6494  -33.1889 H   0  0  0  0  0  0  0  0  0  0  0  0
   -4.8232   23.6153  -32.2324 H   0  0  0  0  0  0  0  0  0  0  0  0
   -7.8002   23.6323  -29.2905 H   0  0  0  0  0  0  0  0  0  0  0  0
   -6.6653   26.1035  -30.1795 H   0  0  0  0  0  0  0  0  0  0  0  0
   -6.2890   25.1808  -28.6201 H   0  0  0  0  0  0  0  0  0  0  0  0
   -4.7924   22.2211  -29.0514 H   0  0  0  0  0  0  0  0  0  0  0  0
   -2.8517   20.5810  -27.7182 H   0  0  0  0  0  0  0  0  0  0  0  0
   -0.5044   20.6102  -26.8501 H   0  0  0  0  0  0  0  0  0  0  0  0
    0.8620   22.6683  -27.1017 H   0  0  0  0  0  0  0  0  0  0  0  0
   -0.1451   25.8175  -26.3894 H   0  0  0  0  0  0  0  0  0  0  0  0
    0.5292   26.8673  -27.6816 H   0  0  0  0  0  0  0  0  0  0  0  0
   -1.2187   26.4533  -27.6816 H   0  0  0  0  0  0  0  0  0  0  0  0
   -8.3676   21.2946  -31.6221 H   0  0  0  0  0  0  0  0  0  0  0  0
   -7.2357   19.3431  -32.5748 H   0  0  0  0  0  0  0  0  0  0  0  0
   -1.6050   20.7630  -35.4750 H   0  0  0  0  0  0  0  0  0  0  0  0
    2.2670   21.7836  -34.5440 H   0  0  0  0  0  0  0  0  0  0  0  0
    1.4487   21.0631  -35.9715 H   0  0  0  0  0  0  0  0  0  0  0  0
    1.8863   22.8053  -35.9715 H   0  0  0  0  0  0  0  0  0  0  0  0
  1  2  1  0
  2  3  1  0
  3  4  2  0
  4  5  1  0
  5  6  2  0
  6  7  1  0
  7  8  2  0
  7  9  2  0
  7 10  1  0
 10 11  2  0
 11 12  1  0
 12 13  2  0
 13 14  1  0
 14 15  2  0
 15 16  1  0
 16 17  1  0
 17 18  2  0
 17 19  1  0
 19 20  2  0
 20 21  1  0
 21 22  2  0
 22 23  1  0
 23 24  2  0
 24 25  1  0
 25 26  1  0
 26 27  1  0
 25 28  2  0
 28 29  1  0
 13 30  1  0
 30 31  2  0
  5 32  1  0
 32 33  1  0
 33 34  1  0
 34 35  1  0
 33 36  2  0
 36  3  1  0
 31 10  1  0
 29 19  1  0
 28 21  1  0
  1 37  1  0
  1 38  1  0
  1 39  1  0
  4 40  1  0
 11 41  1  0
 12 42  1  0
 15 43  1  0
 16 44  1  0
 16 45  1  0
 20 46  1  0
 22 47  1  0
 23 48  1  0
 24 49  1  0
 27 50  1  0
 27 51  1  0
 27 52  1  0
 30 53  1  0
 31 54  1  0
 32 55  1  0
 35 56  1  0
 35 57  1  0
 35 58  1  0
M  END
>  <smiles>  (15) 
COc1cc(=NS(=O)(=O)c2ccc(N=CCC(=O)c3cc4cccc(OC)c4o3)cc2)[nH]c(OC)n1

>  <score_type>  (15) 
oracle

>  <origin>  (15) 
adg

>  <m_score__min__energy>  (15) 
-10.19

>  <m_primary>  (15) 
energy

$$$$
15:0
     RDKit          3D

 46 50  0  0  0  0  0  0  0  0999 V2000
   -2.9450   19.4000  -34.2090 C   0  0  0  0  0  0  0  0  0  0  0  0
   -3.1900   20.4490  -33.2290 N   0  0  0  0  0  0  0  0  0  0  0  0
   -4.3570   21.1440  -33.1020 C   0  0  0  0  0  0  0  0  0  0  0  0
   -4.1790   21.9790  -32.0300 C   0  0  0  0  0  0  0  0  0  0  0  0
   -2.9510   21.7380  -31.5820 C   0  0  0  0  0  0  0  0  0  0  0  0
   -2.3090   20.7980  -32.2880 N   0  0  0  0  0  0  0  0  0  0  0  0
   -2.6000   22.4620  -30.5430 O   0  0  0  0  0  0  0  0  0  0  0  0
   -3.6690   23.2130  -30.3040 C   0  0  0  0  0  0  0  0  0  0  0  0
   -3.8580   24.1880  -29.3280 C   0  0  0  0  0  0  0  0  0  0  0  0
   -2.8220   24.5380  -28.3260 C   0  0  0  0  0  0  0  0  0  0  0  0
   -3.1210   24.5970  -26.9510 C   0  0  0  0  0  0  0  0  0  0  0  0
   -2.1300   24.9380  -26.0250 C   0  0  0  0  0  0  0  0  0  0  0  0
   -0.8360   25.2320  -26.4590 C   0  0  0  0  0  0  0  0  0  0  0  0
   -0.5310   25.1910  -27.8220 C   0  0  0  0  0  0  0  0  0  0  0  0
   -1.5190   24.8520  -28.7510 C   0  0  0  0  0  0  0  0  0  0  0  0
   -5.0500   24.8540  -29.3370 N   0  0  0  0  0  0  0  0  0  0  0  0
   -6.0440   24.5880  -30.2420 C   0  0  0  0  0  0  0  0  0  0  0  0
   -7.1130   25.2540  -30.1840 O   0  0  0  0  0  0  0  0  0  0  0  0
   -5.8760   23.6150  -31.2050 N   0  0  0  0  0  0  0  0  0  0  0  0
   -6.9030   23.3430  -32.2260 C   0  0  0  0  0  0  0  0  0  0  0  0
   -8.1660   22.7370  -31.6000 C   0  0  0  0  0  0  0  0  0  0  0  0
   -8.2440   21.2510  -31.8290 C   0  0  0  0  0  0  0  0  0  0  0  0
   -9.4240   20.6700  -32.3210 C   0  0  0  0  0  0  0  0  0  0  0  0
   -9.4780   19.2960  -32.5790 C   0  0  0  0  0  0  0  0  0  0  0  0
   -8.3530   18.4960  -32.3570 C   0  0  0  0  0  0  0  0  0  0  0  0
   -7.1730   19.0690  -31.8770 C   0  0  0  0  0  0  0  0  0  0  0  0
   -7.1140   20.4400  -31.6150 C   0  0  0  0  0  0  0  0  0  0  0  0
   -4.6870   22.9520  -31.2080 C   0  0  0  0  0  0  0  0  0  0  0  0
   -2.7246   18.4563  -33.6886 H   0  0  0  0  0  0  0  0  0  0  0  0
   -3.8373   19.2714  -34.8393 H   0  0  0  0  0  0  0  0  0  0  0  0
   -2.0881   19.6800  -34.8393 H   0  0  0  0  0  0  0  0  0  0  0  0
   -5.2553   21.0530  -33.7303 H   0  0  0  0  0  0  0  0  0  0  0  0
   -4.1404   24.3735  -26.6032 H   0  0  0  0  0  0  0  0  0  0  0  0
   -2.3706   24.9747  -24.9523 H   0  0  0  0  0  0  0  0  0  0  0  0
   -0.0571   25.4957  -25.7284 H   0  0  0  0  0  0  0  0  0  0  0  0
    0.4877   25.4257  -28.1643 H   0  0  0  0  0  0  0  0  0  0  0  0
   -1.2751   24.8307  -29.8234 H   0  0  0  0  0  0  0  0  0  0  0  0
   -7.1685   24.2856  -32.7270 H   0  0  0  0  0  0  0  0  0  0  0  0
   -6.4925   22.6208  -32.9470 H   0  0  0  0  0  0  0  0  0  0  0  0
   -8.1551   22.9306  -30.5172 H   0  0  0  0  0  0  0  0  0  0  0  0
   -9.0415   23.2033  -32.0754 H   0  0  0  0  0  0  0  0  0  0  0  0
  -10.3088   21.2973  -32.5042 H   0  0  0  0  0  0  0  0  0  0  0  0
  -10.4070   18.8444  -32.9571 H   0  0  0  0  0  0  0  0  0  0  0  0
   -8.3972   17.4158  -32.5603 H   0  0  0  0  0  0  0  0  0  0  0  0
   -6.2878   18.4391  -31.7048 H   0  0  0  0  0  0  0  0  0  0  0  0
   -6.1814   20.8870  -31.2403 H   0  0  0  0  0  0  0  0  0  0  0  0
  1  2  1  0
  2  3  1  0
  3  4  2  0
  4  5  1  0
  5  6  2  0
  5  7  1  0
  7  8  1  0
  8  9  1  0
  9 10  1  0
 10 11  2  0
 11 12  1  0
 12 13  2  0
 13 14  1  0
 14 15  2  0
  9 16  2  0
 16 17  1  0
 17 18  2  0
 17 19  1  0
 19 20  1  0
 20 21  1  0
 21 22  1  0
 22 23  2  0
 23 24  1  0
 24 25  2  0
 25 26  1  0
 26 27  2  0
 19 28  1  0
  6  2  1  0
 28  8  2  0
 28  4  1  0
 15 10  1  0
 27 22  1  0
  1 29  1  0
  1 30  1  0
  1 31  1  0
  3 32  1  0
 11 33  1  0
 12 34  1  0
 13 35  1  0
 14 36  1  0
 15 37  1  0
 20 38  1  0
 20 39  1  0
 21 40  1  0
 21 41  1  0
 23 42  1  0
 24 43  1  0
 25 44  1  0
 26 45  1  0
 27 46  1  0
M  END
>  <UniqueID>  (16) 
12

>  <SMILES>  (16) 
Cn1cc2c(n1)oc1c(-c3ccccc3)nc(=O)n(CCc3ccccc3)c12

>  <Energy>  (16) 
154.61205765774537

>  <Genealogy>  (16) 
Cn1cc2c(n1)oc1c(-c3ccccc3)nc(=O)n(CCc3ccccc3)c12 (3D coordinates assigned)
Cn1cc2c(n1)oc1c(-c3ccccc3)nc(=O)n(CCc3ccccc3)c12 (optimized conformer: 154.61205765774537 kcal/mol)

>  <smiles>  (16) 
Cn1cc2c(n1)oc1c(-c3ccccc3)nc(=O)n(CCc3ccccc3)c12

>  <score_type>  (16) 
oracle

>  <origin>  (16) 
adg

>  <m_score__min__energy>  (16) 
-9.0399999999999991

>  <m_primary>  (16) 
energy

$$$$
16:0
     RDKit          3D

 25 26  0  0  0  0  0  0  0  0999 V2000
   -8.7300   18.5380  -32.3340 Cl  0  0  0  0  0  0  0  0  0  0  0  0
   -8.2170   20.1990  -32.1070 C   0  0  0  0  0  0  0  0  0  0  0  0
   -9.1490   21.1770  -31.7510 C   0  0  0  0  0  0  0  0  0  0  0  0
   -8.7440   22.5010  -31.5670 C   0  0  0  0  0  0  0  0  0  0  0  0
   -7.3900   22.8610  -31.7270 C   0  0  0  0  0  0  0  0  0  0  0  0
   -6.9260   24.1750  -31.5400 O   0  0  0  0  0  0  0  0  0  0  0  0
   -6.9460   24.9130  -30.3150 C   0  0  0  0  0  0  0  0  0  0  0  0
   -5.6490   25.7040  -30.1270 C   0  0  0  0  0  0  0  0  0  0  0  0
   -4.5480   24.8370  -29.7190 N   0  0  0  0  0  0  0  0  0  0  0  0
   -4.4330   24.1740  -28.5560 C   0  0  0  0  0  0  0  0  0  0  0  0
   -3.3020   23.4420  -28.5270 N   0  0  0  0  0  0  0  0  0  0  0  0
   -2.7530   23.7050  -29.7340 C   0  0  0  0  0  0  0  0  0  0  0  0
   -3.5010   24.5500  -30.4690 N   0  0  0  0  0  0  0  0  0  0  0  0
   -6.4630   21.8740  -32.1000 C   0  0  0  0  0  0  0  0  0  0  0  0
   -4.7680   22.2800  -32.3200 Cl  0  0  0  0  0  0  0  0  0  0  0  0
   -6.8760   20.5490  -32.2850 C   0  0  0  0  0  0  0  0  0  0  0  0
  -10.2057   20.9033  -31.6151 H   0  0  0  0  0  0  0  0  0  0  0  0
   -9.4853   23.2671  -31.2958 H   0  0  0  0  0  0  0  0  0  0  0  0
   -7.7945   25.6128  -30.3310 H   0  0  0  0  0  0  0  0  0  0  0  0
   -7.0462   24.2029  -29.4809 H   0  0  0  0  0  0  0  0  0  0  0  0
   -5.3867   26.1915  -31.0775 H   0  0  0  0  0  0  0  0  0  0  0  0
   -5.8117   26.4506  -29.3358 H   0  0  0  0  0  0  0  0  0  0  0  0
   -5.1650   24.2223  -27.7363 H   0  0  0  0  0  0  0  0  0  0  0  0
   -1.8003   23.2761  -30.0779 H   0  0  0  0  0  0  0  0  0  0  0  0
   -6.1424   19.7810  -32.5714 H   0  0  0  0  0  0  0  0  0  0  0  0
  1  2  1  0
  2  3  2  0
  3  4  1  0
  4  5  2  0
  5  6  1  0
  6  7  1  0
  7  8  1  0
  8  9  1  0
  9 10  1  0
 10 11  2  0
 11 12  1  0
 12 13  2  0
  5 14  1  0
 14 15  1  0
 14 16  2  0
 16  2  1  0
 13  9  1  0
  3 17  1  0
  4 18  1  0
  7 19  1  0
  7 20  1  0
  8 21  1  0
  8 22  1  0
 10 23  1  0
 12 24  1  0
 16 25  1  0
M  END
>  <UniqueID>  (17) 
13

>  <SMILES>  (17) 
Clc1ccc(OCCn2cncn2)c(Cl)c1

>  <Energy>  (17) 
55.98214691445957

>  <Genealogy>  (17) 
Clc1ccc(OCCn2cncn2)c(Cl)c1 (3D coordinates assigned)
Clc1ccc(OCCn2cncn2)c(Cl)c1 (optimized conformer: 55.98214691445957 kcal/mol)

>  <smiles>  (17) 
Clc1ccc(OCCn2cncn2)c(Cl)c1

>  <score_type>  (17) 
oracle

>  <origin>  (17) 
adg

>  <m_score__min__energy>  (17) 
-6.2400000000000002

>  <m_primary>  (17) 
energy

$$$$
17:0
     RDKit          3D

 52 55  0  0  0  0  0  0  0  0999 V2000
   -3.1000   15.8810  -36.0980 C   0  0  0  0  0  0  0  0  0  0  0  0
   -3.8540   16.0980  -34.8280 C   0  0  0  0  0  0  0  0  0  0  0  0
   -3.8730   15.1220  -33.8690 N   0  0  0  0  0  0  0  0  0  0  0  0
   -4.5840   15.2750  -32.7160 C   0  0  0  0  0  0  0  0  0  0  0  0
   -4.5820   14.0100  -31.5020 Cl  0  0  0  0  0  0  0  0  0  0  0  0
   -5.3070   16.4520  -32.5350 C   0  0  0  0  0  0  0  0  0  0  0  0
   -5.2890   17.4010  -33.5070 C   0  0  0  0  0  0  0  0  0  0  0  0
   -4.5760   17.2430  -34.6530 N   0  0  0  0  0  0  0  0  0  0  0  0
   -6.0810   18.5230  -33.1750 N   0  0  0  0  0  0  0  0  0  0  0  0
   -6.0100   19.8180  -33.8500 C   0  0  0  0  0  0  0  0  0  0  0  0
   -5.4930   20.8740  -32.9120 C   0  0  0  0  0  0  0  0  0  0  0  0
   -4.1250   20.9570  -32.6160 C   0  0  0  0  0  0  0  0  0  0  0  0
   -3.6550   21.9160  -31.7130 C   0  0  0  0  0  0  0  0  0  0  0  0
   -4.5460   22.8040  -31.0840 C   0  0  0  0  0  0  0  0  0  0  0  0
   -4.0380   23.8030  -30.1110 C   0  0  0  0  0  0  0  0  0  0  0  0
   -3.8320   24.9890  -30.4890 O   0  0  0  0  0  0  0  0  0  0  0  0
   -3.7940   23.4440  -28.7410 N   0  0  0  0  0  0  0  0  0  0  0  0
   -3.0610   24.2940  -27.8470 C   0  0  0  0  0  0  0  0  0  0  0  0
   -3.7150   24.7930  -26.7140 C   0  0  0  0  0  0  0  0  0  0  0  0
   -3.0590   25.6520  -25.8380 C   0  0  0  0  0  0  0  0  0  0  0  0
   -1.7410   26.0300  -26.0820 C   0  0  0  0  0  0  0  0  0  0  0  0
   -1.0500   25.5330  -27.1990 C   0  0  0  0  0  0  0  0  0  0  0  0
    0.3800   25.9590  -27.4160 C   0  0  0  0  0  0  0  0  0  0  0  0
   -1.6950   24.6150  -28.0700 C   0  0  0  0  0  0  0  0  0  0  0  0
   -0.9390   23.9910  -29.2210 C   0  0  0  0  0  0  0  0  0  0  0  0
   -5.9210   22.7010  -31.3690 C   0  0  0  0  0  0  0  0  0  0  0  0
   -6.3880   21.7450  -32.2760 C   0  0  0  0  0  0  0  0  0  0  0  0
   -6.6110   18.3130  -31.8230 C   0  0  0  0  0  0  0  0  0  0  0  0
   -6.1550   16.8930  -31.3940 C   0  0  0  0  0  0  0  0  0  0  0  0
   -2.0669   15.5837  -35.8649 H   0  0  0  0  0  0  0  0  0  0  0  0
   -3.5871   15.0866  -36.6825 H   0  0  0  0  0  0  0  0  0  0  0  0
   -3.0903   16.8128  -36.6825 H   0  0  0  0  0  0  0  0  0  0  0  0
   -5.3339   19.7391  -34.7141 H   0  0  0  0  0  0  0  0  0  0  0  0
   -7.0195   20.1013  -34.1826 H   0  0  0  0  0  0  0  0  0  0  0  0
   -3.4180   20.2645  -33.0963 H   0  0  0  0  0  0  0  0  0  0  0  0
   -2.5790   21.9763  -31.4928 H   0  0  0  0  0  0  0  0  0  0  0  0
   -4.3550   22.6690  -28.3210 H   0  0  0  0  0  0  0  0  0  0  0  0
   -4.7572   24.5031  -26.5146 H   0  0  0  0  0  0  0  0  0  0  0  0
   -3.5832   26.0339  -24.9495 H   0  0  0  0  0  0  0  0  0  0  0  0
   -1.2367   26.7241  -25.3936 H   0  0  0  0  0  0  0  0  0  0  0  0
    0.8708   26.1052  -26.4425 H   0  0  0  0  0  0  0  0  0  0  0  0
    0.9126   25.1805  -27.9819 H   0  0  0  0  0  0  0  0  0  0  0  0
    0.3998   26.9021  -27.9819 H   0  0  0  0  0  0  0  0  0  0  0  0
   -0.1467   23.3371  -28.8277 H   0  0  0  0  0  0  0  0  0  0  0  0
   -1.6318   23.3983  -29.8364 H   0  0  0  0  0  0  0  0  0  0  0  0
   -0.4884   24.7836  -29.8364 H   0  0  0  0  0  0  0  0  0  0  0  0
   -6.6332   23.3778  -30.8743 H   0  0  0  0  0  0  0  0  0  0  0  0
   -7.4644   21.6760  -32.4917 H   0  0  0  0  0  0  0  0  0  0  0  0
   -6.2059   19.0681  -31.1332 H   0  0  0  0  0  0  0  0  0  0  0  0
   -7.7070   18.4045  -31.8038 H   0  0  0  0  0  0  0  0  0  0  0  0
   -5.5736   16.9300  -30.4610 H   0  0  0  0  0  0  0  0  0  0  0  0
   -6.9947   16.2121  -31.1907 H   0  0  0  0  0  0  0  0  0  0  0  0
  1  2  1  0
  2  3  2  0
  3  4  1  0
  4  5  1  0
  4  6  2  0
  6  7  1  0
  7  8  2  0
  7  9  1  0
  9 10  1  0
 10 11  1  0
 11 12  2  0
 12 13  1  0
 13 14  2  0
 14 15  1  0
 15 16  2  0
 15 17  1  0
 17 18  1  0
 18 19  2  0
 19 20  1  0
 20 21  2  0
 21 22  1  0
 22 23  1  0
 22 24  2  0
 24 25  1  0
 14 26  1  0
 26 27  2  0
  9 28  1  0
 28 29  1  0
  8  2  1  0
 27 11  1  0
 29  6  1  0
 24 18  1  0
  1 30  1  0
  1 31  1  0
  1 32  1  0
 10 33  1  0
 10 34  1  0
 12 35  1  0
 13 36  1  0
 17 37  1  0
 19 38  1  0
 20 39  1  0
 21 40  1  0
 23 41  1  0
 23 42  1  0
 23 43  1  0
 25 44  1  0
 25 45  1  0
 25 46  1  0
 26 47  1  0
 27 48  1  0
 28 49  1  0
 28 50  1  0
 29 51  1  0
 29 52  1  0
M  END
>  <UniqueID>  (18) 
14

>  <SMILES>  (18) 
Cc1nc(Cl)c2c(n1)N(Cc1ccc(C(=O)Nc3cccc(C)c3C)cc1)CC2

>  <Energy>  (18) 
78.45842474437465

>  <Genealogy>  (18) 
Cc1nc(Cl)c2c(n1)N(Cc1ccc(C(=O)Nc3cccc(C)c3C)cc1)CC2 (3D coordinates assigned)
Cc1nc(Cl)c2c(n1)N(Cc1ccc(C(=O)Nc3cccc(C)c3C)cc1)CC2 (nonaromatic ring conformer: 78.45842474437465 kcal/mol)

>  <smiles>  (18) 
Cc1nc(Cl)c2c(n1)N(Cc1ccc(C(=O)Nc3cccc(C)c3C)cc1)CC2

>  <score_type>  (18) 
oracle

>  <origin>  (18) 
adg

>  <m_score__min__energy>  (18) 
-10.609999999999999

>  <m_primary>  (18) 
energy

$$$$
18:0
     RDKit          3D

 30 32  0  0  0  0  0  0  0  0999 V2000
   -7.5711   23.8773  -30.5727 H   0  0  0  0  0  0  0  0  0  0  0  0
   -7.0160   23.1120  -31.1350 C   0  0  0  0  0  0  0  0  0  0  0  0
   -5.6830   23.2330  -31.2810 C   0  0  0  0  0  0  0  0  0  0  0  0
   -4.9350   24.3560  -30.6710 C   0  0  0  0  0  0  0  0  0  0  0  0
   -5.1319   25.3693  -31.0510 H   0  0  0  0  0  0  0  0  0  0  0  0
   -4.0350   24.2220  -29.6880 C   0  0  0  0  0  0  0  0  0  0  0  0
   -2.7880   24.9220  -29.7160 N   0  0  0  0  0  0  0  0  0  0  0  0
   -1.9700   25.1100  -28.5550 C   0  0  0  0  0  0  0  0  0  0  0  0
   -0.8530   25.6780  -28.6810 O   0  0  0  0  0  0  0  0  0  0  0  0
   -2.3930   24.6250  -27.1920 C   0  0  0  0  0  0  0  0  0  0  0  0
   -1.8639   23.6859  -26.9727 H   0  0  0  0  0  0  0  0  0  0  0  0
   -2.1416   25.4123  -26.4661 H   0  0  0  0  0  0  0  0  0  0  0  0
   -3.9000   24.3720  -27.0970 C   0  0  0  0  0  0  0  0  0  0  0  0
   -4.1476   24.0142  -26.0867 H   0  0  0  0  0  0  0  0  0  0  0  0
   -4.4398   25.3086  -27.3002 H   0  0  0  0  0  0  0  0  0  0  0  0
   -4.3900   23.1180  -28.3190 S   0  0  0  0  0  0  0  0  0  0  0  0
   -4.9030   22.2300  -32.1060 C   0  0  0  0  0  0  0  0  0  0  0  0
   -3.9589   22.0082  -31.5869 H   0  0  0  0  0  0  0  0  0  0  0  0
   -4.7326   22.6800  -33.0952 H   0  0  0  0  0  0  0  0  0  0  0  0
   -5.6100   21.0020  -32.3110 O   0  0  0  0  0  0  0  0  0  0  0  0
   -7.0040   20.9240  -32.2820 C   0  0  0  0  0  0  0  0  0  0  0  0
   -7.6600   19.7960  -32.7870 C   0  0  0  0  0  0  0  0  0  0  0  0
   -7.0794   18.9680  -33.2198 H   0  0  0  0  0  0  0  0  0  0  0  0
   -9.0570   19.7240  -32.7400 C   0  0  0  0  0  0  0  0  0  0  0  0
   -9.5748   18.8415  -33.1439 H   0  0  0  0  0  0  0  0  0  0  0  0
   -9.7960   20.7710  -32.1810 C   0  0  0  0  0  0  0  0  0  0  0  0
  -10.8939   20.7123  -32.1482 H   0  0  0  0  0  0  0  0  0  0  0  0
   -9.1400   21.8940  -31.6630 C   0  0  0  0  0  0  0  0  0  0  0  0
   -9.7210   22.7137  -31.2152 H   0  0  0  0  0  0  0  0  0  0  0  0
   -7.7410   21.9720  -31.7160 C   0  0  0  0  0  0  0  0  0  0  0  0
  1  2  1  0
  2  3  2  0
  3  4  1  0
  4  5  1  0
  4  6  2  0
  6  7  1  0
  7  8  1  0
  8  9  2  0
  8 10  1  0
 10 11  1  0
 10 12  1  0
 10 13  1  0
 13 14  1  0
 13 15  1  0
 13 16  1  0
  3 17  1  0
 17 18  1  0
 17 19  1  0
 17 20  1  0
 20 21  1  0
 21 22  2  0
 22 23  1  0
 22 24  1  0
 24 25  1  0
 24 26  2  0
 26 27  1  0
 26 28  1  0
 28 29  1  0
 28 30  2  0
 30  2  1  0
 16  6  1  0
 30 21  1  0
M  CHG  1   7  -1
M  END
>  <UniqueID>  (19) 
15

>  <SMILES>  (19) 
O=C1CCS/C(=C/C2=Cc3ccccc3OC2)[N-]1

>  <Energy>  (19) 
39.417623917865555

>  <Genealogy>  (19) 
O=C1CCSC(=CC2=Cc3ccccc3OC2)[N-]1 (protonated)
O=C1CCS/C(=C/C2=Cc3ccccc3OC2)[N-]1 (cis-trans isomerization)
O=C1CCS/C(=C/C2=Cc3ccccc3OC2)[N-]1 (3D coordinates assigned)
O=C1CCS/C(=C/C2=Cc3ccccc3OC2)[N-]1 (nonaromatic ring conformer: 39.417623917865555 kcal/mol)

>  <smiles>  (19) 
O=C1CCSC(=CC2=Cc3ccccc3OC2)N1

>  <score_type>  (19) 
oracle

>  <origin>  (19) 
adg

>  <m_score__min__energy>  (19) 
-9.8599999999999994

>  <m_primary>  (19) 
energy

$$$$
19:0
     RDKit          3D

 47 49  0  0  0  0  0  0  0  0999 V2000
   -2.0750   23.1510  -29.7460 C   0  0  0  0  0  0  0  0  0  0  0  0
   -2.3300   23.8840  -28.4550 C   0  0  0  0  0  0  0  0  0  0  0  0
   -1.2470   24.1500  -27.5980 C   0  0  0  0  0  0  0  0  0  0  0  0
   -1.4540   24.7870  -26.3720 C   0  0  0  0  0  0  0  0  0  0  0  0
   -2.7400   25.1680  -25.9880 C   0  0  0  0  0  0  0  0  0  0  0  0
   -3.8230   24.9300  -26.8370 C   0  0  0  0  0  0  0  0  0  0  0  0
   -3.6280   24.3160  -28.0840 C   0  0  0  0  0  0  0  0  0  0  0  0
   -4.7630   24.1090  -28.9350 N   0  0  0  0  0  0  0  0  0  0  0  0
   -4.8390   24.6490  -30.2620 C   0  0  0  0  0  0  0  0  0  0  0  0
   -3.9090   25.3740  -30.7120 O   0  0  0  0  0  0  0  0  0  0  0  0
   -6.0540   24.4030  -31.1070 C   0  0  0  0  0  0  0  0  0  0  0  0
   -6.1890   22.9760  -31.4270 N   0  0  0  0  0  0  0  0  0  0  0  0
   -5.0360   22.1690  -31.7450 C   0  0  0  0  0  0  0  0  0  0  0  0
   -4.5520   21.2150  -30.8310 C   0  0  0  0  0  0  0  0  0  0  0  0
   -3.4540   20.4130  -31.1610 C   0  0  0  0  0  0  0  0  0  0  0  0
   -2.8310   20.5540  -32.4020 C   0  0  0  0  0  0  0  0  0  0  0  0
   -3.3060   21.4940  -33.3200 C   0  0  0  0  0  0  0  0  0  0  0  0
   -4.4050   22.2960  -32.9970 C   0  0  0  0  0  0  0  0  0  0  0  0
   -7.7790   22.2640  -31.4300 S   0  0  0  0  0  0  0  0  0  0  0  0
   -8.6710   23.0450  -32.3530 O   0  0  0  0  0  0  0  0  0  0  0  0
   -8.3650   22.2910  -30.0460 O   0  0  0  0  0  0  0  0  0  0  0  0
   -7.6750   20.5820  -31.9460 C   0  0  0  0  0  0  0  0  0  0  0  0
   -8.3900   19.5790  -31.2730 C   0  0  0  0  0  0  0  0  0  0  0  0
   -8.3100   18.2510  -31.7060 C   0  0  0  0  0  0  0  0  0  0  0  0
   -7.5210   17.9200  -32.8110 C   0  0  0  0  0  0  0  0  0  0  0  0
   -6.8120   18.9180  -33.4890 C   0  0  0  0  0  0  0  0  0  0  0  0
   -6.8900   20.2470  -33.0590 C   0  0  0  0  0  0  0  0  0  0  0  0
   -1.7209   22.1331  -29.5259 H   0  0  0  0  0  0  0  0  0  0  0  0
   -3.0072   23.0972  -30.3274 H   0  0  0  0  0  0  0  0  0  0  0  0
   -1.3107   23.6874  -30.3274 H   0  0  0  0  0  0  0  0  0  0  0  0
   -0.2300   23.8544  -27.8951 H   0  0  0  0  0  0  0  0  0  0  0  0
   -0.6008   24.9887  -25.7077 H   0  0  0  0  0  0  0  0  0  0  0  0
   -2.9011   25.6563  -25.0156 H   0  0  0  0  0  0  0  0  0  0  0  0
   -4.8359   25.2258  -26.5263 H   0  0  0  0  0  0  0  0  0  0  0  0
   -5.6410   23.7450  -28.5000 H   0  0  0  0  0  0  0  0  0  0  0  0
   -6.9476   24.7353  -30.5584 H   0  0  0  0  0  0  0  0  0  0  0  0
   -5.9489   24.9656  -32.0463 H   0  0  0  0  0  0  0  0  0  0  0  0
   -5.0395   21.0991  -29.8517 H   0  0  0  0  0  0  0  0  0  0  0  0
   -3.0810   19.6698  -30.4409 H   0  0  0  0  0  0  0  0  0  0  0  0
   -1.9656   19.9248  -32.6574 H   0  0  0  0  0  0  0  0  0  0  0  0
   -2.8148   21.6033  -34.2981 H   0  0  0  0  0  0  0  0  0  0  0  0
   -4.7787   23.0305  -33.7256 H   0  0  0  0  0  0  0  0  0  0  0  0
   -9.0137   19.8373  -30.4045 H   0  0  0  0  0  0  0  0  0  0  0  0
   -8.8691   17.4660  -31.1757 H   0  0  0  0  0  0  0  0  0  0  0  0
   -7.4573   16.8748  -33.1479 H   0  0  0  0  0  0  0  0  0  0  0  0
   -6.1932   18.6574  -34.3603 H   0  0  0  0  0  0  0  0  0  0  0  0
   -6.3346   21.0308  -33.5949 H   0  0  0  0  0  0  0  0  0  0  0  0
  1  2  1  0
  2  3  2  0
  3  4  1  0
  4  5  2  0
  5  6  1  0
  6  7  2  0
  7  8  1  0
  8  9  1  0
  9 10  2  0
  9 11  1  0
 11 12  1  0
 12 13  1  0
 13 14  2  0
 14 15  1  0
 15 16  2  0
 16 17  1  0
 17 18  2  0
 12 19  1  0
 19 20  2  0
 19 21  2  0
 19 22  1  0
 22 23  2  0
 23 24  1  0
 24 25  2  0
 25 26  1  0
 26 27  2  0
  7  2  1  0
 18 13  1  0
 27 22  1  0
  1 28  1  0
  1 29  1  0
  1 30  1  0
  3 31  1  0
  4 32  1  0
  5 33  1  0
  6 34  1  0
  8 35  1  0
 11 36  1  0
 11 37  1  0
 14 38  1  0
 15 39  1  0
 16 40  1  0
 17 41  1  0
 18 42  1  0
 23 43  1  0
 24 44  1  0
 25 45  1  0
 26 46  1  0
 27 47  1  0
M  END
>  <UniqueID>  (20) 
16

>  <SMILES>  (20) 
Cc1ccccc1NC(=O)CN(c1ccccc1)S(=O)(=O)c1ccccc1

>  <Energy>  (20) 
56.93997690367221

>  <Genealogy>  (20) 
Cc1ccccc1NC(=O)CN(c1ccccc1)S(=O)(=O)c1ccccc1 (3D coordinates assigned)
Cc1ccccc1NC(=O)CN(c1ccccc1)S(=O)(=O)c1ccccc1 (optimized conformer: 56.93997690367221 kcal/mol)

>  <smiles>  (20) 
Cc1ccccc1NC(=O)CN(c1ccccc1)S(=O)(=O)c1ccccc1

>  <score_type>  (20) 
oracle

>  <origin>  (20) 
adg

>  <m_score__min__energy>  (20) 
-9.8000000000000007

>  <m_primary>  (20) 
energy

$$$$
20:0
     RDKit          3D

 40 42  0  0  0  0  0  0  0  0999 V2000
   -1.6290   25.3060  -28.0370 C   0  0  0  0  0  0  0  0  0  0  0  0
   -2.3990   25.2290  -29.2320 O   0  0  0  0  0  0  0  0  0  0  0  0
   -2.9930   24.0540  -29.7170 C   0  0  0  0  0  0  0  0  0  0  0  0
   -4.3770   23.8160  -29.6290 C   0  0  0  0  0  0  0  0  0  0  0  0
   -4.9190   22.6240  -30.1150 C   0  0  0  0  0  0  0  0  0  0  0  0
   -4.0930   21.6550  -30.7100 C   0  0  0  0  0  0  0  0  0  0  0  0
   -2.7160   21.9060  -30.8280 C   0  0  0  0  0  0  0  0  0  0  0  0
   -2.1730   23.0900  -30.3140 C   0  0  0  0  0  0  0  0  0  0  0  0
   -1.8650   20.9730  -31.4960 N   0  0  0  0  0  0  0  0  0  0  0  0
   -2.1140   20.6230  -32.8910 C   0  0  0  0  0  0  0  0  0  0  0  0
   -3.5760   20.8640  -33.2960 C   0  0  0  0  0  0  0  0  0  0  0  0
   -4.5980   20.0570  -32.5810 N   0  0  2  0  0  0  0  0  0  0  0  0
   -5.9080   20.0490  -33.2090 C   0  0  0  0  0  0  0  0  0  0  0  0
   -6.0730   19.5380  -34.3490 O   0  0  0  0  0  0  0  0  0  0  0  0
   -7.0370   20.7890  -32.6080 C   0  0  0  0  0  0  0  0  0  0  0  0
   -6.9590   22.1890  -32.5300 C   0  0  0  0  0  0  0  0  0  0  0  0
   -7.9980   22.9250  -31.9530 C   0  0  0  0  0  0  0  0  0  0  0  0
   -9.1260   22.2710  -31.4560 C   0  0  0  0  0  0  0  0  0  0  0  0
   -9.2220   20.8800  -31.5420 C   0  0  0  0  0  0  0  0  0  0  0  0
   -8.1870   20.1320  -32.1180 C   0  0  0  0  0  0  0  0  0  0  0  0
   -8.4000   18.3920  -32.2680 Cl  0  0  0  0  0  0  0  0  0  0  0  0
   -4.6720   20.3210  -31.1260 C   0  0  0  0  0  0  0  0  0  0  0  0
   -2.2969   25.2392  -27.1655 H   0  0  0  0  0  0  0  0  0  0  0  0
   -0.9082   24.4755  -28.0111 H   0  0  0  0  0  0  0  0  0  0  0  0
   -1.0870   26.2628  -28.0111 H   0  0  0  0  0  0  0  0  0  0  0  0
   -5.0349   24.5720  -29.1755 H   0  0  0  0  0  0  0  0  0  0  0  0
   -6.0007   22.4422  -30.0314 H   0  0  0  0  0  0  0  0  0  0  0  0
   -1.0889   23.2644  -30.3803 H   0  0  0  0  0  0  0  0  0  0  0  0
   -0.9070   20.8070  -31.1120 H   0  0  0  0  0  0  0  0  0  0  0  0
   -1.4630   21.2357  -33.5319 H   0  0  0  0  0  0  0  0  0  0  0  0
   -1.9012   19.5508  -33.0140 H   0  0  0  0  0  0  0  0  0  0  0  0
   -3.8025   21.9256  -33.1181 H   0  0  0  0  0  0  0  0  0  0  0  0
   -3.6433   20.5560  -34.3498 H   0  0  0  0  0  0  0  0  0  0  0  0
   -4.2320   19.0770  -32.6450 H   0  0  0  0  0  0  0  0  0  0  0  0
   -6.0745   22.7099  -32.9255 H   0  0  0  0  0  0  0  0  0  0  0  0
   -7.9263   24.0209  -31.8907 H   0  0  0  0  0  0  0  0  0  0  0  0
   -9.9399   22.8509  -30.9963 H   0  0  0  0  0  0  0  0  0  0  0  0
  -10.1159   20.3688  -31.1550 H   0  0  0  0  0  0  0  0  0  0  0  0
   -5.7292   20.2938  -30.8234 H   0  0  0  0  0  0  0  0  0  0  0  0
   -4.0685   19.5454  -30.6319 H   0  0  0  0  0  0  0  0  0  0  0  0
  1  2  1  0
  2  3  1  0
  3  4  2  0
  4  5  1  0
  5  6  2  0
  6  7  1  0
  7  8  2  0
  7  9  1  0
  9 10  1  0
 10 11  1  0
 11 12  1  0
 12 13  1  0
 13 14  2  0
 13 15  1  0
 15 16  2  0
 16 17  1  0
 17 18  2  0
 18 19  1  0
 19 20  2  0
 20 21  1  0
 12 22  1  0
  8  3  1  0
 20 15  1  0
 22  6  1  0
  1 23  1  0
  1 24  1  0
  1 25  1  0
  4 26  1  0
  5 27  1  0
  8 28  1  0
  9 29  1  0
 10 30  1  0
 10 31  1  0
 11 32  1  0
 11 33  1  0
 12 34  1  1
 16 35  1  0
 17 36  1  0
 18 37  1  0
 19 38  1  0
 22 39  1  0
 22 40  1  0
M  CHG  1  12   1
M  END
>  <UniqueID>  (21) 
17

>  <SMILES>  (21) 
COc1ccc2c(c1)NCC[N@H+](C(=O)c1ccccc1Cl)C2

>  <Energy>  (21) 
63.32611613429492

>  <Genealogy>  (21) 
COc1ccc2c(c1)NCC[NH+](C(=O)c1ccccc1Cl)C2 (protonated)
COc1ccc2c(c1)NCC[N@H+](C(=O)c1ccccc1Cl)C2 (chirality)
COc1ccc2c(c1)NCC[N@H+](C(=O)c1ccccc1Cl)C2 (3D coordinates assigned)
COc1ccc2c(c1)NCC[N@H+](C(=O)c1ccccc1Cl)C2 (nonaromatic ring conformer: 63.32611613429492 kcal/mol)

>  <smiles>  (21) 
COc1ccc2c(c1)NCCN(C(=O)c1ccccc1Cl)C2

>  <score_type>  (21) 
oracle

>  <origin>  (21) 
adg

>  <m_score__min__energy>  (21) 
-6.0300000000000002

>  <m_primary>  (21) 
energy

$$$$
21:0
     RDKit          3D

 35 38  0  0  0  0  0  0  0  0999 V2000
   -3.8380   25.6950  -31.5900 H   0  0  0  0  0  0  0  0  0  0  0  0
   -4.4160   25.1980  -30.8760 N   0  0  0  0  0  0  0  0  0  0  0  0
   -4.9090   24.0210  -31.0990 C   0  0  0  0  0  0  0  0  0  0  0  0
   -6.2260   23.9050  -31.4370 N   0  0  0  0  0  0  0  0  0  0  0  0
   -6.7580   22.6840  -31.6800 C   0  0  0  0  0  0  0  0  0  0  0  0
   -6.0090   21.5290  -31.6010 C   0  0  0  0  0  0  0  0  0  0  0  0
   -4.6370   21.5820  -31.2980 C   0  0  0  0  0  0  0  0  0  0  0  0
   -4.0860   22.8630  -30.9950 C   0  0  0  0  0  0  0  0  0  0  0  0
   -2.6190   23.0160  -30.6430 C   0  0  0  0  0  0  0  0  0  0  0  0
   -2.0789   23.3729  -31.5323 H   0  0  0  0  0  0  0  0  0  0  0  0
   -2.5494   23.7320  -29.8109 H   0  0  0  0  0  0  0  0  0  0  0  0
   -1.9850   21.7050  -30.1790 C   0  0  0  0  0  0  0  0  0  0  0  0
   -0.8954   21.8344  -30.1013 H   0  0  0  0  0  0  0  0  0  0  0  0
   -2.3982   21.4309  -29.1971 H   0  0  0  0  0  0  0  0  0  0  0  0
   -2.2920   20.5970  -31.1790 C   0  0  0  0  0  0  0  0  0  0  0  0
   -1.9376   20.9017  -32.1748 H   0  0  0  0  0  0  0  0  0  0  0  0
   -1.7810   19.6784  -30.8548 H   0  0  0  0  0  0  0  0  0  0  0  0
   -3.7970   20.3240  -31.2440 C   0  0  0  0  0  0  0  0  0  0  0  0
   -4.0042   19.7281  -32.1451 H   0  0  0  0  0  0  0  0  0  0  0  0
   -4.0696   19.7923  -30.3204 H   0  0  0  0  0  0  0  0  0  0  0  0
   -6.9070   20.4940  -31.8500 C   0  0  0  0  0  0  0  0  0  0  0  0
   -6.7740   19.1000  -31.8430 C   0  0  0  0  0  0  0  0  0  0  0  0
   -5.8027   18.6260  -31.6381 H   0  0  0  0  0  0  0  0  0  0  0  0
   -7.9160   18.3230  -32.1050 C   0  0  0  0  0  0  0  0  0  0  0  0
   -7.8376   17.2259  -32.1166 H   0  0  0  0  0  0  0  0  0  0  0  0
   -9.1610   18.9370  -32.3530 C   0  0  0  0  0  0  0  0  0  0  0  0
  -10.0442   18.3153  -32.5614 H   0  0  0  0  0  0  0  0  0  0  0  0
   -9.2820   20.3350  -32.3360 C   0  0  0  0  0  0  0  0  0  0  0  0
  -10.2521   20.8206  -32.5176 H   0  0  0  0  0  0  0  0  0  0  0  0
   -8.1360   21.0930  -32.0820 C   0  0  0  0  0  0  0  0  0  0  0  0
   -8.0480   22.4390  -31.9900 N   0  0  0  0  0  0  0  0  0  0  0  0
   -9.1360   23.4100  -32.0900 C   0  0  0  0  0  0  0  0  0  0  0  0
   -9.4619   23.7008  -31.0804 H   0  0  0  0  0  0  0  0  0  0  0  0
   -8.7844   24.3000  -32.6324 H   0  0  0  0  0  0  0  0  0  0  0  0
   -9.9805   22.9599  -32.6324 H   0  0  0  0  0  0  0  0  0  0  0  0
  1  2  1  0
  2  3  2  0
  3  4  1  0
  4  5  1  0
  5  6  2  0
  6  7  1  0
  7  8  2  0
  8  9  1  0
  9 10  1  0
  9 11  1  0
  9 12  1  0
 12 13  1  0
 12 14  1  0
 12 15  1  0
 15 16  1  0
 15 17  1  0
 15 18  1  0
 18 19  1  0
 18 20  1  0
  6 21  1  0
 21 22  2  0
 22 23  1  0
 22 24  1  0
 24 25  1  0
 24 26  2  0
 26 27  1  0
 26 28  1  0
 28 29  1  0
 28 30  2  0
 30 31  1  0
 31 32  1  0
 32 33  1  0
 32 34  1  0
 32 35  1  0
  8  3  1  0
 30 21  1  0
 31  5  1  0
 18  7  1  0
M  CHG  1   4  -1
M  END
>  <UniqueID>  (22) 
18

>  <SMILES>  (22) 
[H]/N=c1\[n-]c2c(c3c1CCCC3)c1ccccc1n2C

>  <Energy>  (22) 
83.66551016255114

>  <Genealogy>  (22) 
Cn1c2ccccc2c2c3c(c(=N)[n-]c21)CCCC3 (protonated)
[H]/N=c1\[n-]c2c(c3c1CCCC3)c1ccccc1n2C (cis-trans isomerization)
[H]/N=c1\[n-]c2c(c3c1CCCC3)c1ccccc1n2C (3D coordinates assigned)
[H]/N=c1\[n-]c2c(c3c1CCCC3)c1ccccc1n2C (nonaromatic ring conformer: 83.66551016255114 kcal/mol)

>  <smiles>  (22) 
Cn1c2ccccc2c2c3c(c(=N)[nH]c21)CCCC3

>  <score_type>  (22) 
oracle

>  <origin>  (22) 
adg

>  <m_score__min__energy>  (22) 
-9.0700000000000003

>  <m_primary>  (22) 
energy

$$$$
22:0
     RDKit          3D

 38 39  0  0  0  0  0  0  0  0999 V2000
   -3.2440   24.1840  -28.2400 C   0  0  0  0  0  0  0  0  0  0  0  0
   -2.9350   24.1330  -29.7310 C   0  0  0  0  0  0  0  0  0  0  0  0
   -3.6120   25.1810  -30.4220 O   0  0  0  0  0  0  0  0  0  0  0  0
   -5.0070   25.2900  -30.4800 C   0  0  0  0  0  0  0  0  0  0  0  0
   -5.5660   26.4200  -30.4970 O   0  0  0  0  0  0  0  0  0  0  0  0
   -5.8410   24.0460  -30.4960 C   0  0  0  0  0  0  0  0  0  0  0  0
   -6.0950   23.5480  -31.9260 C   0  0  0  0  0  0  0  0  0  0  0  0
   -7.2480   22.5690  -31.9910 C   0  0  0  0  0  0  0  0  0  0  0  0
   -8.5600   23.0610  -31.9480 C   0  0  0  0  0  0  0  0  0  0  0  0
   -9.6170   22.2100  -31.9630 N   0  0  0  0  0  0  0  0  0  0  0  0
   -9.4290   20.8700  -32.0200 C   0  0  0  0  0  0  0  0  0  0  0  0
   -8.1710   20.3610  -32.0630 N   0  0  0  0  0  0  0  0  0  0  0  0
   -7.0730   21.1650  -32.0450 C   0  0  0  0  0  0  0  0  0  0  0  0
   -5.7190   20.5060  -32.1430 C   0  0  0  0  0  0  0  0  0  0  0  0
   -5.8100   19.1650  -32.8280 C   0  0  0  0  0  0  0  0  0  0  0  0
   -6.1090   18.0050  -32.0910 C   0  0  0  0  0  0  0  0  0  0  0  0
   -6.2000   16.7660  -32.7320 C   0  0  0  0  0  0  0  0  0  0  0  0
   -6.0060   16.6750  -34.1120 C   0  0  0  0  0  0  0  0  0  0  0  0
   -5.7230   17.8240  -34.8560 C   0  0  0  0  0  0  0  0  0  0  0  0
   -5.6310   19.0650  -34.2190 C   0  0  0  0  0  0  0  0  0  0  0  0
   -2.3170   24.0310  -27.6680 H   0  0  0  0  0  0  0  0  0  0  0  0
   -3.6728   25.1651  -27.9878 H   0  0  0  0  0  0  0  0  0  0  0  0
   -3.9653   23.3928  -27.9878 H   0  0  0  0  0  0  0  0  0  0  0  0
   -1.8507   24.2443  -29.8791 H   0  0  0  0  0  0  0  0  0  0  0  0
   -3.2774   23.1670  -30.1304 H   0  0  0  0  0  0  0  0  0  0  0  0
   -5.3177   23.2593  -29.9327 H   0  0  0  0  0  0  0  0  0  0  0  0
   -6.8132   24.2803  -30.0379 H   0  0  0  0  0  0  0  0  0  0  0  0
   -6.3264   24.4117  -32.5667 H   0  0  0  0  0  0  0  0  0  0  0  0
   -5.1888   23.0279  -32.2698 H   0  0  0  0  0  0  0  0  0  0  0  0
   -8.7342   24.1461  -31.9017 H   0  0  0  0  0  0  0  0  0  0  0  0
  -10.2962   20.1934  -32.0315 H   0  0  0  0  0  0  0  0  0  0  0  0
   -5.0444   21.1571  -32.7183 H   0  0  0  0  0  0  0  0  0  0  0  0
   -5.3344   20.3500  -31.1243 H   0  0  0  0  0  0  0  0  0  0  0  0
   -6.2720   18.0730  -31.0053 H   0  0  0  0  0  0  0  0  0  0  0  0
   -6.4248   15.8611  -32.1483 H   0  0  0  0  0  0  0  0  0  0  0  0
   -6.0759   15.6986  -34.6137 H   0  0  0  0  0  0  0  0  0  0  0  0
   -5.5726   17.7517  -35.9433 H   0  0  0  0  0  0  0  0  0  0  0  0
   -5.4174   19.9683  -34.8093 H   0  0  0  0  0  0  0  0  0  0  0  0
  1  2  1  0
  2  3  1  0
  3  4  1  0
  4  5  2  0
  4  6  1  0
  6  7  1  0
  7  8  1  0
  8  9  2  0
  9 10  1  0
 10 11  2  0
 11 12  1  0
 12 13  2  0
 13 14  1  0
 14 15  1  0
 15 16  2  0
 16 17  1  0
 17 18  2  0
 18 19  1  0
 19 20  2  0
 13  8  1  0
 20 15  1  0
  1 21  1  0
  1 22  1  0
  1 23  1  0
  2 24  1  0
  2 25  1  0
  6 26  1  0
  6 27  1  0
  7 28  1  0
  7 29  1  0
  9 30  1  0
 11 31  1  0
 14 32  1  0
 14 33  1  0
 16 34  1  0
 17 35  1  0
 18 36  1  0
 19 37  1  0
 20 38  1  0
M  END
>  <UniqueID>  (23) 
19

>  <SMILES>  (23) 
CCOC(=O)CCc1cncnc1Cc1ccccc1

>  <Energy>  (23) 
31.264197424018757

>  <Genealogy>  (23) 
CCOC(=O)CCc1cncnc1Cc1ccccc1 (3D coordinates assigned)
CCOC(=O)CCc1cncnc1Cc1ccccc1 (optimized conformer: 31.264197424018757 kcal/mol)

>  <smiles>  (23) 
CCOC(=O)CCc1cncnc1Cc1ccccc1

>  <score_type>  (23) 
oracle

>  <origin>  (23) 
adg

>  <m_score__min__energy>  (23) 
-7.7999999999999998

>  <m_primary>  (23) 
energy

$$$$
23:0
     RDKit          3D

 48 50  0  0  0  0  0  0  0  0999 V2000
    0.6510   24.1270  -27.0290 H   0  0  0  0  0  0  0  0  0  0  0  0
    0.5070   24.4850  -27.9660 O   0  0  0  0  0  0  0  0  0  0  0  0
   -0.5490   24.0450  -28.7610 C   0  0  0  0  0  0  0  0  0  0  0  0
   -1.6640   24.8650  -28.9360 C   0  0  0  0  0  0  0  0  0  0  0  0
   -1.7056   25.8457  -28.4395 H   0  0  0  0  0  0  0  0  0  0  0  0
   -2.7270   24.4470  -29.7380 C   0  0  0  0  0  0  0  0  0  0  0  0
   -2.6930   23.1870  -30.3680 C   0  0  0  0  0  0  0  0  0  0  0  0
   -1.5730   22.3380  -30.1710 C   0  0  0  0  0  0  0  0  0  0  0  0
   -1.4970   20.9580  -30.7700 C   0  0  0  0  0  0  0  0  0  0  0  0
   -1.4558   20.2103  -29.9642 H   0  0  0  0  0  0  0  0  0  0  0  0
   -2.3866   20.7786  -31.3916 H   0  0  0  0  0  0  0  0  0  0  0  0
   -0.5931   20.8774  -31.3916 H   0  0  0  0  0  0  0  0  0  0  0  0
   -0.5020   22.7900  -29.3780 C   0  0  0  0  0  0  0  0  0  0  0  0
    0.3819   22.1496  -29.2416 H   0  0  0  0  0  0  0  0  0  0  0  0
   -3.8700   22.8160  -31.1960 C   0  0  0  0  0  0  0  0  0  0  0  0
   -3.7490   21.9930  -32.1430 O   0  0  0  0  0  0  0  0  0  0  0  0
   -5.1930   23.5190  -30.9450 C   0  0  1  0  0  0  0  0  0  0  0  0
   -6.1760   23.3120  -32.1040 C   0  0  0  0  0  0  0  0  0  0  0  0
   -6.0276   23.9531  -32.9855 H   0  0  0  0  0  0  0  0  0  0  0  0
   -7.1990   22.4390  -32.1710 C   0  0  0  0  0  0  0  0  0  0  0  0
   -8.2146   22.8447  -32.0528 H   0  0  0  0  0  0  0  0  0  0  0  0
   -7.0750   20.9870  -32.3890 C   0  0  0  0  0  0  0  0  0  0  0  0
   -6.1560   20.4980  -33.3280 C   0  0  0  0  0  0  0  0  0  0  0  0
   -5.5300   21.2033  -33.8943 H   0  0  0  0  0  0  0  0  0  0  0  0
   -6.0260   19.1240  -33.5530 C   0  0  0  0  0  0  0  0  0  0  0  0
   -5.0660   18.6900  -34.4800 O   0  0  0  0  0  0  0  0  0  0  0  0
   -4.9460   17.3490  -34.9450 C   0  0  0  0  0  0  0  0  0  0  0  0
   -4.8849   16.6666  -34.0844 H   0  0  0  0  0  0  0  0  0  0  0  0
   -5.8248   17.0924  -35.5548 H   0  0  0  0  0  0  0  0  0  0  0  0
   -4.0356   17.2525  -35.5548 H   0  0  0  0  0  0  0  0  0  0  0  0
   -6.8560   18.2320  -32.8540 C   0  0  0  0  0  0  0  0  0  0  0  0
   -6.7519   17.1485  -33.0129 H   0  0  0  0  0  0  0  0  0  0  0  0
   -7.8140   18.7150  -31.9570 C   0  0  0  0  0  0  0  0  0  0  0  0
   -8.4735   18.0099  -31.4299 H   0  0  0  0  0  0  0  0  0  0  0  0
   -7.9400   20.0980  -31.7240 C   0  0  0  0  0  0  0  0  0  0  0  0
   -8.8990   20.6190  -30.8390 O   0  0  0  0  0  0  0  0  0  0  0  0
   -9.8710   21.5980  -31.1890 C   0  0  0  0  0  0  0  0  0  0  0  0
  -10.3011   22.0312  -30.2739 H   0  0  0  0  0  0  0  0  0  0  0  0
   -9.3942   22.3925  -31.7818 H   0  0  0  0  0  0  0  0  0  0  0  0
  -10.6689   21.1269  -31.7818 H   0  0  0  0  0  0  0  0  0  0  0  0
   -5.7890   23.0620  -29.5940 C   0  0  0  0  0  0  0  0  0  0  0  0
   -5.2111   23.5052  -28.7696 H   0  0  0  0  0  0  0  0  0  0  0  0
   -6.8365   23.3906  -29.5255 H   0  0  0  0  0  0  0  0  0  0  0  0
   -5.7435   21.9651  -29.5255 H   0  0  0  0  0  0  0  0  0  0  0  0
   -4.8690   25.0330  -30.8520 C   0  0  0  0  0  0  0  0  0  0  0  0
   -4.5360   25.3891  -31.8381 H   0  0  0  0  0  0  0  0  0  0  0  0
   -5.7785   25.5629  -30.5326 H   0  0  0  0  0  0  0  0  0  0  0  0
   -3.8380   25.2880  -29.8920 O   0  0  0  0  0  0  0  0  0  0  0  0
  1  2  1  0
  2  3  1  0
  3  4  2  0
  4  5  1  0
  4  6  1  0
  6  7  2  0
  7  8  1  0
  8  9  1  0
  9 10  1  0
  9 11  1  0
  9 12  1  0
  8 13  2  0
 13 14  1  0
  7 15  1  0
 15 16  2  0
 15 17  1  0
 17 18  1  0
 18 19  1  0
 18 20  2  0
 20 21  1  0
 20 22  1  0
 22 23  2  0
 23 24  1  0
 23 25  1  0
 25 26  1  0
 26 27  1  0
 27 28  1  0
 27 29  1  0
 27 30  1  0
 25 31  2  0
 31 32  1  0
 31 33  1  0
 33 34  1  0
 33 35  2  0
 35 36  1  0
 36 37  1  0
 37 38  1  0
 37 39  1  0
 37 40  1  0
 17 41  1  1
 41 42  1  0
 41 43  1  0
 41 44  1  0
 17 45  1  0
 45 46  1  0
 45 47  1  0
 45 48  1  0
 13  3  1  0
 35 22  1  0
 48  6  1  0
M  END
>  <UniqueID>  (24) 
20

>  <SMILES>  (24) 
COc1ccc(OC)c(/C=C\[C@]2(C)COc3cc(O)cc(C)c3C2=O)c1

>  <Energy>  (24) 
65.61381277304051

>  <Genealogy>  (24) 
COc1ccc(OC)c(C=C[C@]2(C)COc3cc(O)cc(C)c3C2=O)c1 (chirality)
COc1ccc(OC)c(/C=C\[C@]2(C)COc3cc(O)cc(C)c3C2=O)c1 (cis-trans isomerization)
COc1ccc(OC)c(/C=C\[C@]2(C)COc3cc(O)cc(C)c3C2=O)c1 (3D coordinates assigned)
COc1ccc(OC)c(/C=C\[C@]2(C)COc3cc(O)cc(C)c3C2=O)c1 (nonaromatic ring conformer: 65.61381277304051 kcal/mol)

>  <smiles>  (24) 
COc1ccc(OC)c(C=CC2(C)COc3cc(O)cc(C)c3C2=O)c1

>  <score_type>  (24) 
oracle

>  <origin>  (24) 
adg

>  <m_score__min__energy>  (24) 
-8.1600000000000001

>  <m_primary>  (24) 
energy

$$$$
24:0
     RDKit          3D

 56 59  0  0  0  0  0  0  0  0999 V2000
    0.4220   19.3520  -32.0790 C   0  0  0  0  0  0  0  0  0  0  0  0
   -0.7680   19.0860  -31.3480 O   0  0  0  0  0  0  0  0  0  0  0  0
   -2.0060   19.6330  -31.7020 C   0  0  0  0  0  0  0  0  0  0  0  0
   -2.8150   18.9760  -32.4090 O   0  0  0  0  0  0  0  0  0  0  0  0
   -2.3430   21.0060  -31.2920 C   0  0  0  0  0  0  0  0  0  0  0  0
   -1.7090   21.6370  -30.2550 C   0  0  0  0  0  0  0  0  0  0  0  0
   -0.9320   20.9470  -29.1870 C   0  0  0  0  0  0  0  0  0  0  0  0
    0.2670   21.2610  -28.9480 O   0  0  0  0  0  0  0  0  0  0  0  0
   -1.5170   19.8900  -28.4830 O   0  0  0  0  0  0  0  0  0  0  0  0
   -2.2530   20.0800  -27.2830 C   0  0  0  0  0  0  0  0  0  0  0  0
   -1.9880   23.1110  -30.2200 C   0  0  2  0  0  0  0  0  0  0  0  0
   -1.5110   24.1610  -29.2770 C   0  0  0  0  0  0  0  0  0  0  0  0
   -0.3860   24.1790  -28.7110 O   0  0  0  0  0  0  0  0  0  0  0  0
   -2.3700   25.2990  -29.3270 N   0  0  0  0  0  0  0  0  0  0  0  0
   -3.4910   24.8550  -30.0930 C   0  0  0  0  0  0  0  0  0  0  0  0
   -4.4110   25.6250  -30.4750 O   0  0  0  0  0  0  0  0  0  0  0  0
   -3.4870   23.3660  -30.2590 C   0  0  2  0  0  0  0  0  0  0  0  0
   -4.3850   22.7690  -29.1560 C   0  0  0  0  0  0  0  0  0  0  0  0
   -5.7640   22.6830  -29.8420 C   0  0  0  0  0  0  0  0  0  0  0  0
   -5.4780   22.6470  -31.2790 N   0  0  0  0  0  0  0  0  0  0  0  0
   -6.4470   22.3850  -32.3500 C   0  0  0  0  0  0  0  0  0  0  0  0
   -6.6310   20.9080  -32.5810 C   0  0  0  0  0  0  0  0  0  0  0  0
   -7.3460   20.1330  -31.6600 C   0  0  0  0  0  0  0  0  0  0  0  0
   -7.4480   18.7500  -31.8290 C   0  0  0  0  0  0  0  0  0  0  0  0
   -6.8250   18.1180  -32.9230 C   0  0  0  0  0  0  0  0  0  0  0  0
   -6.8870   16.7280  -33.1150 O   0  0  0  0  0  0  0  0  0  0  0  0
   -5.7550   15.8630  -33.1230 C   0  0  0  0  0  0  0  0  0  0  0  0
   -6.1090   18.8900  -33.8530 C   0  0  0  0  0  0  0  0  0  0  0  0
   -5.5040   18.2340  -34.9360 O   0  0  0  0  0  0  0  0  0  0  0  0
   -4.1380   17.8240  -34.9690 C   0  0  0  0  0  0  0  0  0  0  0  0
   -6.0110   20.2840  -33.6740 C   0  0  0  0  0  0  0  0  0  0  0  0
   -4.0700   22.7150  -31.4670 C   0  0  0  0  0  0  0  0  0  0  0  0
   -3.4560   21.6670  -31.9750 N   0  0  0  0  0  0  0  0  0  0  0  0
    1.2493   19.5369  -31.3780 H   0  0  0  0  0  0  0  0  0  0  0  0
    0.6646   18.4859  -32.7123 H   0  0  0  0  0  0  0  0  0  0  0  0
    0.2728   20.2390  -32.7123 H   0  0  0  0  0  0  0  0  0  0  0  0
   -1.5947   19.9101  -26.4183 H   0  0  0  0  0  0  0  0  0  0  0  0
   -2.6426   21.1082  -27.2507 H   0  0  0  0  0  0  0  0  0  0  0  0
   -3.0916   19.3689  -27.2507 H   0  0  0  0  0  0  0  0  0  0  0  0
   -1.2973   23.2692  -31.0614 H   0  0  0  0  0  0  0  0  0  0  0  0
   -4.0307   21.7725  -28.8537 H   0  0  0  0  0  0  0  0  0  0  0  0
   -4.3957   23.3681  -28.2335 H   0  0  0  0  0  0  0  0  0  0  0  0
   -6.2930   21.7700  -29.5312 H   0  0  0  0  0  0  0  0  0  0  0  0
   -6.4101   23.5316  -29.5730 H   0  0  0  0  0  0  0  0  0  0  0  0
   -7.4153   22.8262  -32.0713 H   0  0  0  0  0  0  0  0  0  0  0  0
   -6.0639   22.8337  -33.2784 H   0  0  0  0  0  0  0  0  0  0  0  0
   -7.8302   20.6158  -30.7984 H   0  0  0  0  0  0  0  0  0  0  0  0
   -8.0181   18.1511  -31.1036 H   0  0  0  0  0  0  0  0  0  0  0  0
   -5.4590   15.6368  -32.0880 H   0  0  0  0  0  0  0  0  0  0  0  0
   -6.0113   14.9285  -33.6436 H   0  0  0  0  0  0  0  0  0  0  0  0
   -4.9207   16.3558  -33.6436 H   0  0  0  0  0  0  0  0  0  0  0  0
   -3.7639   17.7117  -33.9407 H   0  0  0  0  0  0  0  0  0  0  0  0
   -4.0566   16.8618  -35.4959 H   0  0  0  0  0  0  0  0  0  0  0  0
   -3.5402   18.5823  -35.4959 H   0  0  0  0  0  0  0  0  0  0  0  0
   -5.4437   20.8882  -34.3972 H   0  0  0  0  0  0  0  0  0  0  0  0
   -3.9370   21.1310  -32.7300 H   0  0  0  0  0  0  0  0  0  0  0  0
  1  2  1  0
  2  3  1  0
  3  4  2  0
  3  5  1  0
  5  6  2  0
  6  7  1  0
  7  8  2  0
  7  9  1  0
  9 10  1  0
  6 11  1  0
 11 12  1  0
 12 13  2  0
 12 14  1  0
 14 15  1  0
 15 16  2  0
 15 17  1  0
 17 18  1  1
 18 19  1  0
 19 20  1  0
 20 21  1  0
 21 22  1  0
 22 23  2  0
 23 24  1  0
 24 25  2  0
 25 26  1  0
 26 27  1  0
 25 28  1  0
 28 29  1  0
 29 30  1  0
 28 31  2  0
 20 32  1  0
 32 33  2  0
 33  5  1  0
 17 11  1  0
 31 22  1  0
 32 17  1  0
  1 34  1  0
  1 35  1  0
  1 36  1  0
 10 37  1  0
 10 38  1  0
 10 39  1  0
 11 40  1  6
 18 41  1  0
 18 42  1  0
 19 43  1  0
 19 44  1  0
 21 45  1  0
 21 46  1  0
 23 47  1  0
 24 48  1  0
 27 49  1  0
 27 50  1  0
 27 51  1  0
 30 52  1  0
 30 53  1  0
 30 54  1  0
 31 55  1  0
 33 56  1  0
M  CHG  2  14  -1  33   1
M  END
>  <UniqueID>  (25) 
21

>  <SMILES>  (25) 
COC(=O)C1=C(C(=O)OC)[C@@H]2C(=O)[N-]C(=O)[C@]23CCN(Cc2ccc(OC)c(OC)c2)C3=[NH+]1

>  <Energy>  (25) 
142.76376645532324

>  <Genealogy>  (25) 
COC(=O)C1=C(C(=O)OC)C2C(=O)[N-]C(=O)C23CCN(Cc2ccc(OC)c(OC)c2)C3=[NH+]1 (protonated)
COC(=O)C1=C(C(=O)OC)[C@@H]2C(=O)[N-]C(=O)[C@]23CCN(Cc2ccc(OC)c(OC)c2)C3=[NH+]1 (chirality)
COC(=O)C1=C(C(=O)OC)[C@@H]2C(=O)[N-]C(=O)[C@]23CCN(Cc2ccc(OC)c(OC)c2)C3=[NH+]1 (3D coordinates assigned)
COC(=O)C1=C(C(=O)OC)[C@@H]2C(=O)[N-]C(=O)[C@]23CCN(Cc2ccc(OC)c(OC)c2)C3=[NH+]1 (nonaromatic ring conformer: 142.76376645532324 kcal/mol)

>  <smiles>  (25) 
COC(=O)C1=C(C(=O)OC)C2C(=O)NC(=O)C23CCN(Cc2ccc(OC)c(OC)c2)C3=N1

>  <score_type>  (25) 
oracle

>  <origin>  (25) 
adg

>  <m_score__min__energy>  (25) 
-8.6600000000000001

>  <m_primary>  (25) 
energy

$$$$
25:0
     RDKit          3D

 26 27  0  0  0  0  0  0  0  0999 V2000
   -6.0910   18.1370  -33.9080 C   0  0  0  0  0  0  0  0  0  0  0  0
   -7.2260   17.5380  -33.2950 O   0  0  0  0  0  0  0  0  0  0  0  0
   -7.9850   18.1840  -32.3140 C   0  0  0  0  0  0  0  0  0  0  0  0
   -7.6910   18.0510  -31.0950 O   0  0  0  0  0  0  0  0  0  0  0  0
   -9.0950   19.0810  -32.6850 C   0  0  0  0  0  0  0  0  0  0  0  0
   -9.1740   20.3850  -32.3810 C   0  0  0  0  0  0  0  0  0  0  0  0
   -8.0580   21.2130  -31.8780 C   0  0  0  0  0  0  0  0  0  0  0  0
   -8.2110   21.9320  -30.6860 C   0  0  0  0  0  0  0  0  0  0  0  0
   -7.1790   22.7510  -30.2250 C   0  0  0  0  0  0  0  0  0  0  0  0
   -6.0000   22.8650  -30.9760 C   0  0  0  0  0  0  0  0  0  0  0  0
   -4.8870   23.7160  -30.5220 C   0  0  0  0  0  0  0  0  0  0  0  0
   -4.1440   23.4670  -29.4190 N   0  0  0  0  0  0  0  0  0  0  0  0
   -3.2920   24.5050  -29.4540 C   0  0  0  0  0  0  0  0  0  0  0  0
   -2.3900   24.6940  -28.5960 O   0  0  0  0  0  0  0  0  0  0  0  0
   -3.5040   25.2950  -30.4740 O   0  0  0  0  0  0  0  0  0  0  0  0
   -4.4970   24.8340  -31.1690 N   0  0  0  0  0  0  0  0  0  0  0  0
   -5.8850   22.1850  -32.1490 N   0  0  0  0  0  0  0  0  0  0  0  0
   -6.8770   21.3800  -32.6170 C   0  0  0  0  0  0  0  0  0  0  0  0
   -5.4031   18.5001  -33.1302 H   0  0  0  0  0  0  0  0  0  0  0  0
   -5.5768   17.3928  -34.5339 H   0  0  0  0  0  0  0  0  0  0  0  0
   -6.4152   18.9814  -34.5339 H   0  0  0  0  0  0  0  0  0  0  0  0
   -9.9265   18.6449  -33.2581 H   0  0  0  0  0  0  0  0  0  0  0  0
  -10.1480   20.8778  -32.5171 H   0  0  0  0  0  0  0  0  0  0  0  0
   -9.1459   21.8512  -30.1121 H   0  0  0  0  0  0  0  0  0  0  0  0
   -7.2896   23.3028  -29.2799 H   0  0  0  0  0  0  0  0  0  0  0  0
   -6.7528   20.8585  -33.5776 H   0  0  0  0  0  0  0  0  0  0  0  0
  1  2  1  0
  2  3  1  0
  3  4  2  0
  3  5  1  0
  5  6  2  3
  6  7  1  0
  7  8  2  0
  8  9  1  0
  9 10  2  0
 10 11  1  0
 11 12  2  0
 12 13  1  0
 13 14  2  0
 13 15  1  0
 15 16  1  0
 10 17  1  0
 17 18  2  0
 18  7  1  0
 16 11  1  0
  1 19  1  0
  1 20  1  0
  1 21  1  0
  5 22  1  0
  6 23  1  0
  8 24  1  0
  9 25  1  0
 18 26  1  0
M  CHG  1  16  -1
M  END
>  <UniqueID>  (26) 
22

>  <SMILES>  (26) 
COC(=O)C=Cc1ccc(-c2nc(=O)o[n-]2)nc1

>  <Energy>  (26) 
65.4169997499064

>  <Genealogy>  (26) 
COC(=O)C=Cc1ccc(-c2nc(=O)o[n-]2)nc1 (protonated)
COC(=O)C=Cc1ccc(-c2nc(=O)o[n-]2)nc1 (3D coordinates assigned)
COC(=O)C=Cc1ccc(-c2nc(=O)o[n-]2)nc1 (optimized conformer: 65.4169997499064 kcal/mol)

>  <smiles>  (26) 
COC(=O)C=Cc1ccc(-c2nc(=O)o[nH]2)nc1

>  <score_type>  (26) 
oracle

>  <origin>  (26) 
adg

>  <m_score__min__energy>  (26) 
-8.2400000000000002

>  <m_primary>  (26) 
energy

$$$$
26:0
     RDKit          3D

 46 48  0  0  0  0  0  0  0  0999 V2000
   -4.9050   21.2460  -32.7770 C   0  0  0  0  0  0  0  0  0  0  0  0
   -3.6720   22.2530  -31.8840 S   0  0  0  0  0  0  0  0  0  0  0  0
   -4.8930   23.3250  -31.1080 C   0  0  0  0  0  0  0  0  0  0  0  0
   -6.2350   22.9130  -31.1060 C   0  0  0  0  0  0  0  0  0  0  0  0
   -7.2130   23.6850  -30.4760 C   0  0  0  0  0  0  0  0  0  0  0  0
   -6.8550   24.8590  -29.8140 C   0  0  0  0  0  0  0  0  0  0  0  0
   -5.5180   25.2620  -29.7780 C   0  0  0  0  0  0  0  0  0  0  0  0
   -4.5290   24.5170  -30.4340 C   0  0  0  0  0  0  0  0  0  0  0  0
   -3.1620   24.9190  -30.2620 N   0  0  0  0  0  0  0  0  0  0  0  0
   -2.3920   24.8850  -29.0550 C   0  0  0  0  0  0  0  0  0  0  0  0
   -1.9620   25.9760  -28.5920 O   0  0  0  0  0  0  0  0  0  0  0  0
   -2.0310   23.6130  -28.3800 C   0  0  0  0  0  0  0  0  0  0  0  0
   -2.9260   22.5290  -28.4090 C   0  0  0  0  0  0  0  0  0  0  0  0
   -2.6030   21.3240  -27.7840 C   0  0  0  0  0  0  0  0  0  0  0  0
   -1.3790   21.1830  -27.1310 C   0  0  0  0  0  0  0  0  0  0  0  0
   -0.4680   22.2400  -27.1110 C   0  0  0  0  0  0  0  0  0  0  0  0
   -0.7770   23.4620  -27.7420 C   0  0  0  0  0  0  0  0  0  0  0  0
    0.1240   24.5430  -27.7570 O   0  0  0  0  0  0  0  0  0  0  0  0
    0.8390   25.0670  -26.6330 C   0  0  0  0  0  0  0  0  0  0  0  0
    0.9170   26.6030  -26.7530 C   0  0  0  0  0  0  0  0  0  0  0  0
   -0.2560   27.3280  -26.0630 C   0  0  0  0  0  0  0  0  0  0  0  0
   -1.4580   26.4870  -26.0200 N   0  0  0  0  0  0  0  0  0  0  0  0
   -1.2620   25.2870  -25.1830 C   0  0  0  0  0  0  0  0  0  0  0  0
    0.1460   24.6620  -25.3220 C   0  0  0  0  0  0  0  0  0  0  0  0
   -5.5457   20.7228  -32.0519 H   0  0  0  0  0  0  0  0  0  0  0  0
   -5.5243   21.8998  -33.4086 H   0  0  0  0  0  0  0  0  0  0  0  0
   -4.3881   20.5086  -33.4086 H   0  0  0  0  0  0  0  0  0  0  0  0
   -6.5183   21.9744  -31.6048 H   0  0  0  0  0  0  0  0  0  0  0  0
   -8.2658   23.3672  -30.5018 H   0  0  0  0  0  0  0  0  0  0  0  0
   -7.6261   25.4682  -29.3198 H   0  0  0  0  0  0  0  0  0  0  0  0
   -5.2387   26.1734  -29.2291 H   0  0  0  0  0  0  0  0  0  0  0  0
   -3.8897   22.6318  -28.9292 H   0  0  0  0  0  0  0  0  0  0  0  0
   -3.3141   20.4851  -27.8064 H   0  0  0  0  0  0  0  0  0  0  0  0
   -1.1307   20.2357  -26.6301 H   0  0  0  0  0  0  0  0  0  0  0  0
    0.4981   22.1187  -26.5992 H   0  0  0  0  0  0  0  0  0  0  0  0
    1.8578   24.6524  -26.6215 H   0  0  0  0  0  0  0  0  0  0  0  0
    1.8567   26.9421  -26.2925 H   0  0  0  0  0  0  0  0  0  0  0  0
    0.8683   26.8495  -27.8239 H   0  0  0  0  0  0  0  0  0  0  0  0
    0.0377   27.5844  -25.0344 H   0  0  0  0  0  0  0  0  0  0  0  0
   -0.4895   28.2342  -26.6412 H   0  0  0  0  0  0  0  0  0  0  0  0
   -2.2470   27.0480  -25.6230 H   0  0  0  0  0  0  0  0  0  0  0  0
   -1.7280   26.2050  -26.9930 H   0  0  0  0  0  0  0  0  0  0  0  0
   -1.4163   25.5674  -24.1306 H   0  0  0  0  0  0  0  0  0  0  0  0
   -1.9863   24.5326  -25.5238 H   0  0  0  0  0  0  0  0  0  0  0  0
    0.7659   24.9958  -24.4768 H   0  0  0  0  0  0  0  0  0  0  0  0
    0.0288   23.5683  -25.3281 H   0  0  0  0  0  0  0  0  0  0  0  0
  1  2  1  0
  2  3  1  0
  3  4  2  0
  4  5  1  0
  5  6  2  0
  6  7  1  0
  7  8  2  0
  8  9  1  0
  9 10  1  0
 10 11  2  0
 10 12  1  0
 12 13  2  0
 13 14  1  0
 14 15  2  0
 15 16  1  0
 16 17  2  0
 17 18  1  0
 18 19  1  0
 19 20  1  0
 20 21  1  0
 21 22  1  0
 22 23  1  0
 23 24  1  0
  8  3  1  0
 17 12  1  0
 24 19  1  0
  1 25  1  0
  1 26  1  0
  1 27  1  0
  4 28  1  0
  5 29  1  0
  6 30  1  0
  7 31  1  0
 13 32  1  0
 14 33  1  0
 15 34  1  0
 16 35  1  0
 19 36  1  0
 20 37  1  0
 20 38  1  0
 21 39  1  0
 21 40  1  0
 22 41  1  0
 22 42  1  0
 23 43  1  0
 23 44  1  0
 24 45  1  0
 24 46  1  0
M  CHG  2   9  -1  22   1
M  END
>  <UniqueID>  (27) 
23

>  <SMILES>  (27) 
CSc1ccccc1[N-]C(=O)c1ccccc1OC1CC[NH2+]CC1

>  <Energy>  (27) 
58.95923420640997

>  <Genealogy>  (27) 
CSc1ccccc1[N-]C(=O)c1ccccc1OC1CC[NH2+]CC1 (protonated)
CSc1ccccc1[N-]C(=O)c1ccccc1OC1CC[NH2+]CC1 (3D coordinates assigned)
CSc1ccccc1[N-]C(=O)c1ccccc1OC1CC[NH2+]CC1 (nonaromatic ring conformer: 58.95923420640997 kcal/mol)

>  <smiles>  (27) 
CSc1ccccc1NC(=O)c1ccccc1OC1CCNCC1

>  <score_type>  (27) 
oracle

>  <origin>  (27) 
adg

>  <m_score__min__energy>  (27) 
-9.7300000000000004

>  <m_primary>  (27) 
energy

$$$$
27:0
     RDKit          3D

 45 48  0  0  1  0  0  0  0  0999 V2000
   -4.6650   20.1150  -33.0860 C   0  0  0  0  0  0  0  0  0  0  0  0
   -5.5730   21.1830  -33.0980 O   0  0  0  0  0  0  0  0  0  0  0  0
   -6.9030   21.0170  -32.7360 C   0  0  0  0  0  0  0  0  0  0  0  0
   -7.6110   19.8610  -33.0120 C   0  0  0  0  0  0  0  0  0  0  0  0
   -8.9500   19.7560  -32.6220 C   0  0  0  0  0  0  0  0  0  0  0  0
   -9.5660   20.7890  -31.9660 C   0  0  0  0  0  0  0  0  0  0  0  0
   -8.8590   21.9530  -31.6850 C   0  0  0  0  0  0  0  0  0  0  0  0
   -7.5190   22.0550  -32.0780 C   0  0  0  0  0  0  0  0  0  0  0  0
   -6.8110   23.3030  -31.7570 C   0  0  0  0  0  0  0  0  0  0  0  0
   -5.3670   23.1810  -31.8460 N   0  0  0  0  0  0  0  0  0  0  0  0
   -4.5480   23.2500  -30.6840 C   0  0  0  0  0  0  0  0  0  0  0  0
   -4.6400   22.3110  -29.6780 C   0  0  0  0  0  0  0  0  0  0  0  0
   -3.8160   22.4380  -28.5790 C   0  0  0  0  0  0  0  0  0  0  0  0
   -3.8380   21.6210  -27.5990 N   0  0  0  0  0  0  0  0  0  0  0  0
   -2.8690   20.5860  -27.4780 C   0  0  0  0  0  0  0  0  0  0  0  0
   -3.0850   19.4850  -26.6730 C   0  0  0  0  0  0  0  0  0  0  0  0
   -2.1330   18.4730  -26.5530 C   0  0  0  0  0  0  0  0  0  0  0  0
   -0.9250   18.5410  -27.2490 C   0  0  0  0  0  0  0  0  0  0  0  0
   -0.7130   19.6360  -28.0460 C   0  0  0  0  0  0  0  0  0  0  0  0
   -1.6680   20.6380  -28.1580 C   0  0  0  0  0  0  0  0  0  0  0  0
   -2.9400   23.4690  -28.5060 N   0  0  0  0  0  0  0  0  0  0  0  0
   -2.0400   23.8230  -27.5710 C   0  0  0  0  0  0  0  0  0  0  0  0
   -1.3900   24.9680  -27.9820 C   0  0  0  0  0  0  0  0  0  0  0  0
   -1.9080   25.3000  -29.1750 N   0  0  0  0  0  0  0  0  0  0  0  0
   -2.8550   24.3800  -29.4910 C   0  0  0  0  0  0  0  0  0  0  0  0
   -3.6580   24.2790  -30.5890 N   0  0  0  0  0  0  0  0  0  0  0  0
   -4.4333   19.8424  -32.0458 H   0  0  0  0  0  0  0  0  0  0  0  0
   -5.1089   19.2505  -33.6014 H   0  0  0  0  0  0  0  0  0  0  0  0
   -3.7404   20.4140  -33.6014 H   0  0  0  0  0  0  0  0  0  0  0  0
   -7.1223   19.0268  -33.5367 H   0  0  0  0  0  0  0  0  0  0  0  0
   -9.5127   18.8372  -32.8436 H   0  0  0  0  0  0  0  0  0  0  0  0
  -10.6191   20.6977  -31.6618 H   0  0  0  0  0  0  0  0  0  0  0  0
   -9.3480   22.7860  -31.1588 H   0  0  0  0  0  0  0  0  0  0  0  0
   -7.1399   24.0823  -32.4602 H   0  0  0  0  0  0  0  0  0  0  0  0
   -7.0537   23.5575  -30.7147 H   0  0  0  0  0  0  0  0  0  0  0  0
   -4.9410   23.0410  -32.7890 H   0  0  0  0  0  0  0  0  0  0  0  0
   -5.3553   21.4785  -29.7505 H   0  0  0  0  0  0  0  0  0  0  0  0
   -4.0289   19.4044  -26.1140 H   0  0  0  0  0  0  0  0  0  0  0  0
   -2.3366   17.6103  -25.9016 H   0  0  0  0  0  0  0  0  0  0  0  0
   -0.1708   17.7451  -27.1612 H   0  0  0  0  0  0  0  0  0  0  0  0
    0.2296   19.7225  -28.6064 H   0  0  0  0  0  0  0  0  0  0  0  0
   -1.4614   21.5004  -28.8089 H   0  0  0  0  0  0  0  0  0  0  0  0
   -1.8525   23.2856  -26.6297 H   0  0  0  0  0  0  0  0  0  0  0  0
   -0.5997   25.5053  -27.4373 H   0  0  0  0  0  0  0  0  0  0  0  0
   -1.6080   26.1400  -29.7470 H   0  0  0  0  0  0  0  0  0  0  0  0
  1  2  1  0
  2  3  1  0
  3  4  2  0
  4  5  1  0
  5  6  2  0
  6  7  1  0
  7  8  2  0
  8  9  1  0
  9 10  1  0
 10 11  1  0
 11 12  2  0
 12 13  1  0
 13 14  2  0
 14 15  1  0
 15 16  2  0
 16 17  1  0
 17 18  2  0
 18 19  1  0
 19 20  2  0
 13 21  1  0
 21 22  1  0
 22 23  2  0
 23 24  1  0
 24 25  1  0
 25 26  2  0
  8  3  1  0
 26 11  1  0
 20 15  1  0
 25 21  1  0
  1 27  1  0
  1 28  1  0
  1 29  1  0
  4 30  1  0
  5 31  1  0
  6 32  1  0
  7 33  1  0
  9 34  1  0
  9 35  1  0
 10 36  1  0
 12 37  1  0
 16 38  1  0
 17 39  1  0
 18 40  1  0
 19 41  1  0
 20 42  1  0
 22 43  1  0
 23 44  1  0
 24 45  1  0
M  END
>  <smiles>  (28) 
COc1ccccc1CNc1cc(=Nc2ccccc2)n2cc[nH]c2n1

>  <score_type>  (28) 
oracle

>  <origin>  (28) 
adg

>  <m_score__min__energy>  (28) 
-8.6600000000000001

>  <m_primary>  (28) 
energy

$$$$
28:0
     RDKit          3D

 52 56  0  0  0  0  0  0  0  0999 V2000
    0.2860   17.9710  -30.0300 C   0  0  0  0  0  0  0  0  0  0  0  0
    0.5270   19.2530  -29.2400 C   0  0  0  0  0  0  0  0  0  0  0  0
   -0.5070   20.2990  -29.5830 C   0  0  0  0  0  0  0  0  0  0  0  0
   -1.5720   20.5160  -28.6940 C   0  0  0  0  0  0  0  0  0  0  0  0
   -2.5720   21.4420  -28.9930 C   0  0  0  0  0  0  0  0  0  0  0  0
   -2.5090   22.1940  -30.1720 C   0  0  0  0  0  0  0  0  0  0  0  0
   -3.5730   23.1520  -30.5160 C   0  0  0  0  0  0  0  0  0  0  0  0
   -3.4310   24.4970  -30.4620 N   0  0  0  0  0  0  0  0  0  0  0  0
   -4.5580   25.0710  -30.8780 N   0  0  0  0  0  0  0  0  0  0  0  0
   -5.4090   24.0840  -31.2090 C   0  0  0  0  0  0  0  0  0  0  0  0
   -6.6930   24.2080  -31.7310 C   0  0  0  0  0  0  0  0  0  0  0  0
   -7.3780   23.0260  -32.0700 C   0  0  0  0  0  0  0  0  0  0  0  0
   -6.7590   21.7610  -31.9150 C   0  0  0  0  0  0  0  0  0  0  0  0
   -7.4870   20.5770  -32.2730 N   0  0  0  0  0  0  0  0  0  0  0  0
   -7.0200   19.3610  -32.3610 C   0  0  0  0  0  0  0  0  0  0  0  0
   -6.6330   18.6070  -31.2310 C   0  0  0  0  0  0  0  0  0  0  0  0
   -6.1260   17.3170  -31.4060 C   0  0  0  0  0  0  0  0  0  0  0  0
   -5.9980   16.7950  -32.6540 N   0  0  0  0  0  0  0  0  0  0  0  0
   -6.3490   17.5020  -33.7600 C   0  0  0  0  0  0  0  0  0  0  0  0
   -6.8560   18.7970  -33.6330 C   0  0  0  0  0  0  0  0  0  0  0  0
   -5.4690   21.6760  -31.3450 C   0  0  0  0  0  0  0  0  0  0  0  0
   -4.8300   22.8660  -31.0030 C   0  0  0  0  0  0  0  0  0  0  0  0
   -1.4240   22.0220  -31.0390 C   0  0  0  0  0  0  0  0  0  0  0  0
   -0.4340   21.0630  -30.7720 C   0  0  0  0  0  0  0  0  0  0  0  0
    0.5990   20.8310  -31.7420 N   0  0  0  0  0  0  0  0  0  0  0  0
    0.2060   20.5880  -33.4140 S   0  0  0  0  0  0  0  0  0  0  0  0
    1.1370   19.5710  -34.0110 O   0  0  0  0  0  0  0  0  0  0  0  0
    0.3480   21.8870  -34.1560 O   0  0  0  0  0  0  0  0  0  0  0  0
   -1.4420   19.9960  -33.5440 C   0  0  0  0  0  0  0  0  0  0  0  0
   -1.8240   18.6670  -33.4560 C   0  0  0  0  0  0  0  0  0  0  0  0
   -3.2130   18.4950  -33.4630 C   0  0  0  0  0  0  0  0  0  0  0  0
   -3.9210   19.6880  -33.5450 C   0  0  0  0  0  0  0  0  0  0  0  0
   -2.8180   20.9580  -33.6030 S   0  0  0  0  0  0  0  0  0  0  0  0
    0.1288   17.1348  -29.3328 H   0  0  0  0  0  0  0  0  0  0  0  0
   -0.6050   18.0927  -30.6635 H   0  0  0  0  0  0  0  0  0  0  0  0
    1.1604   17.7608  -30.6635 H   0  0  0  0  0  0  0  0  0  0  0  0
    0.4703   19.0295  -28.1644 H   0  0  0  0  0  0  0  0  0  0  0  0
    1.5221   19.6439  -29.4989 H   0  0  0  0  0  0  0  0  0  0  0  0
   -1.6184   19.9500  -27.7519 H   0  0  0  0  0  0  0  0  0  0  0  0
   -3.4139   21.5818  -28.2989 H   0  0  0  0  0  0  0  0  0  0  0  0
   -7.1565   25.1953  -31.8737 H   0  0  0  0  0  0  0  0  0  0  0  0
   -8.4050   23.0850  -32.4595 H   0  0  0  0  0  0  0  0  0  0  0  0
   -6.7301   19.0322  -30.2212 H   0  0  0  0  0  0  0  0  0  0  0  0
   -5.8292   16.7215  -30.5300 H   0  0  0  0  0  0  0  0  0  0  0  0
   -6.2335   17.0533  -34.7577 H   0  0  0  0  0  0  0  0  0  0  0  0
   -7.1262   19.3733  -34.5302 H   0  0  0  0  0  0  0  0  0  0  0  0
   -4.9851   20.7026  -31.1768 H   0  0  0  0  0  0  0  0  0  0  0  0
   -1.3458   22.6463  -31.9413 H   0  0  0  0  0  0  0  0  0  0  0  0
    1.5710   20.6080  -31.4360 H   0  0  0  0  0  0  0  0  0  0  0  0
   -1.1096   17.8334  -33.3877 H   0  0  0  0  0  0  0  0  0  0  0  0
   -3.6981   17.5092  -33.4088 H   0  0  0  0  0  0  0  0  0  0  0  0
   -5.0164   19.7857  -33.5681 H   0  0  0  0  0  0  0  0  0  0  0  0
  1  2  1  0
  2  3  1  0
  3  4  2  0
  4  5  1  0
  5  6  2  0
  6  7  1  0
  7  8  1  0
  8  9  1  0
  9 10  2  0
 10 11  1  0
 11 12  2  0
 12 13  1  0
 13 14  1  0
 14 15  2  3
 15 16  1  0
 16 17  2  0
 17 18  1  0
 18 19  1  0
 19 20  2  0
 13 21  2  0
 21 22  1  0
  6 23  1  0
 23 24  2  0
 24 25  1  0
 25 26  1  0
 26 27  2  0
 26 28  2  0
 26 29  1  0
 29 30  2  0
 30 31  1  0
 31 32  2  0
 32 33  1  0
 24  3  1  0
 33 29  1  0
 22  7  2  0
 22 10  1  0
 20 15  1  0
  1 34  1  0
  1 35  1  0
  1 36  1  0
  2 37  1  0
  2 38  1  0
  4 39  1  0
  5 40  1  0
 11 41  1  0
 12 42  1  0
 16 43  1  0
 17 44  1  0
 19 45  1  0
 20 46  1  0
 21 47  1  0
 23 48  1  0
 25 49  1  0
 30 50  1  0
 31 51  1  0
 32 52  1  0
M  CHG  2   8  -1  18  -1
M  END
>  <UniqueID>  (29) 
24

>  <SMILES>  (29) 
CCc1ccc(-c2[n-]nc3ccc(N=c4cc[n-]cc4)cc23)cc1NS(=O)(=O)c1cccs1

>  <Energy>  (29) 
136.98671348420032

>  <Genealogy>  (29) 
CCc1ccc(-c2[n-]nc3ccc(N=c4cc[n-]cc4)cc23)cc1NS(=O)(=O)c1cccs1 (protonated)
CCc1ccc(-c2[n-]nc3ccc(N=c4cc[n-]cc4)cc23)cc1NS(=O)(=O)c1cccs1 (3D coordinates assigned)
CCc1ccc(-c2[n-]nc3ccc(N=c4cc[n-]cc4)cc23)cc1NS(=O)(=O)c1cccs1 (optimized conformer: 136.98671348420032 kcal/mol)

>  <smiles>  (29) 
CCc1ccc(-c2[nH]nc3ccc(N=c4cc[nH]cc4)cc23)cc1NS(=O)(=O)c1cccs1

>  <score_type>  (29) 
oracle

>  <origin>  (29) 
adg

>  <m_score__min__energy>  (29) 
-12.23

>  <m_primary>  (29) 
energy

$$$$
29:0
     RDKit          3D

 48 51  0  0  1  0  0  0  0  0999 V2000
   -6.9880   17.4430  -32.0440 C   0  0  0  0  0  0  0  0  0  0  0  0
   -7.2570   18.7990  -31.6910 N   0  0  0  0  0  0  0  0  0  0  0  0
   -8.6490   19.1540  -31.7570 C   0  0  0  0  0  0  0  0  0  0  0  0
   -8.8130   20.6040  -31.3900 C   0  0  0  0  0  0  0  0  0  0  0  0
   -8.1320   21.4640  -32.3320 N   0  0  0  0  0  0  0  0  0  0  0  0
   -7.8220   22.7560  -31.7780 C   0  0  0  0  0  0  0  0  0  0  0  0
   -6.3600   23.0320  -31.6290 C   0  0  0  0  0  0  0  0  0  0  0  0
   -6.1080   24.4620  -31.2700 C   0  0  0  0  0  0  0  0  0  0  0  0
   -4.7760   24.8010  -30.9120 N   0  0  0  0  0  0  0  0  0  0  0  0
   -4.3710   24.6270  -29.7020 C   0  0  0  0  0  0  0  0  0  0  0  0
   -5.0340   24.3120  -28.5850 N   0  0  0  0  0  0  0  0  0  0  0  0
   -4.1520   24.2500  -27.5740 N   0  0  0  0  0  0  0  0  0  0  0  0
   -2.9330   24.5310  -28.0770 C   0  0  0  0  0  0  0  0  0  0  0  0
   -1.6380   24.5990  -27.4130 C   0  0  0  0  0  0  0  0  0  0  0  0
   -1.6470   24.5830  -26.0220 C   0  0  0  0  0  0  0  0  0  0  0  0
   -0.4260   24.6400  -25.3640 C   0  0  0  0  0  0  0  0  0  0  0  0
    0.7550   24.7100  -26.0650 C   0  0  0  0  0  0  0  0  0  0  0  0
    0.7500   24.7260  -27.4500 C   0  0  0  0  0  0  0  0  0  0  0  0
   -0.4570   24.6690  -28.1200 C   0  0  0  0  0  0  0  0  0  0  0  0
    2.0930   24.8010  -27.8610 O   0  0  0  0  0  0  0  0  0  0  0  0
    2.7950   25.3060  -26.7350 C   0  0  0  0  0  0  0  0  0  0  0  0
    2.0840   24.7770  -25.6170 O   0  0  0  0  0  0  0  0  0  0  0  0
   -3.1140   24.7470  -29.3390 O   0  0  0  0  0  0  0  0  0  0  0  0
   -7.0880   20.8290  -33.0560 C   0  0  0  0  0  0  0  0  0  0  0  0
   -6.3880   19.7060  -32.3640 C   0  0  0  0  0  0  0  0  0  0  0  0
   -6.8689   16.8428  -31.1299 H   0  0  0  0  0  0  0  0  0  0  0  0
   -7.8248   17.0456  -32.6371 H   0  0  0  0  0  0  0  0  0  0  0  0
   -6.0629   17.3951  -32.6371 H   0  0  0  0  0  0  0  0  0  0  0  0
   -9.0216   18.9897  -32.7788 H   0  0  0  0  0  0  0  0  0  0  0  0
   -9.2210   18.5302  -31.0543 H   0  0  0  0  0  0  0  0  0  0  0  0
   -9.8842   20.8538  -31.3862 H   0  0  0  0  0  0  0  0  0  0  0  0
   -8.3732   20.7623  -30.3942 H   0  0  0  0  0  0  0  0  0  0  0  0
   -8.2513   23.5246  -32.4375 H   0  0  0  0  0  0  0  0  0  0  0  0
   -8.2484   22.7722  -30.7642 H   0  0  0  0  0  0  0  0  0  0  0  0
   -5.9531   22.3870  -30.8363 H   0  0  0  0  0  0  0  0  0  0  0  0
   -5.8690   22.8251  -32.5913 H   0  0  0  0  0  0  0  0  0  0  0  0
   -6.3881   25.0784  -32.1370 H   0  0  0  0  0  0  0  0  0  0  0  0
   -6.7075   24.6449  -30.3661 H   0  0  0  0  0  0  0  0  0  0  0  0
   -6.0730   24.1470  -28.5350 H   0  0  0  0  0  0  0  0  0  0  0  0
   -2.5917   24.5270  -25.4613 H   0  0  0  0  0  0  0  0  0  0  0  0
   -0.4028   24.6290  -24.2643 H   0  0  0  0  0  0  0  0  0  0  0  0
   -0.4754   24.6795  -29.2198 H   0  0  0  0  0  0  0  0  0  0  0  0
    3.8379   24.9562  -26.7358 H   0  0  0  0  0  0  0  0  0  0  0  0
    2.8421   26.4049  -26.7244 H   0  0  0  0  0  0  0  0  0  0  0  0
   -7.5196   20.4316  -33.9865 H   0  0  0  0  0  0  0  0  0  0  0  0
   -6.3216   21.6041  -33.2041 H   0  0  0  0  0  0  0  0  0  0  0  0
   -5.8159   19.1417  -33.1152 H   0  0  0  0  0  0  0  0  0  0  0  0
   -5.7490   20.1608  -31.5928 H   0  0  0  0  0  0  0  0  0  0  0  0
  1  2  1  0
  2  3  1  0
  3  4  1  0
  4  5  1  0
  5  6  1  0
  6  7  1  0
  7  8  1  0
  8  9  1  0
  9 10  2  0
 10 11  1  0
 11 12  1  0
 12 13  2  0
 13 14  1  0
 14 15  2  0
 15 16  1  0
 16 17  2  0
 17 18  1  0
 18 19  2  0
 18 20  1  0
 20 21  1  0
 21 22  1  0
 13 23  1  0
  5 24  1  0
 24 25  1  0
 25  2  1  0
 23 10  1  0
 19 14  1  0
 22 17  1  0
  1 26  1  0
  1 27  1  0
  1 28  1  0
  3 29  1  0
  3 30  1  0
  4 31  1  0
  4 32  1  0
  6 33  1  0
  6 34  1  0
  7 35  1  0
  7 36  1  0
  8 37  1  0
  8 38  1  0
 11 39  1  0
 15 40  1  0
 16 41  1  0
 19 42  1  0
 21 43  1  0
 21 44  1  0
 24 45  1  0
 24 46  1  0
 25 47  1  0
 25 48  1  0
M  END
>  <smiles>  (30) 
CN1CCN(CCCN=c2[nH]nc(-c3ccc4c(c3)OCO4)o2)CC1

>  <score_type>  (30) 
oracle

>  <origin>  (30) 
adg

>  <m_score__min__energy>  (30) 
-8.0700000000000003

>  <m_primary>  (30) 
energy

$$$$
30:0
     RDKit          3D

 36 38  0  0  0  0  0  0  0  0999 V2000
   -2.0120   20.4820  -27.7180 C   0  0  0  0  0  0  0  0  0  0  0  0
   -2.8340   21.4700  -28.4900 C   0  0  0  0  0  0  0  0  0  0  0  0
   -2.6660   21.6000  -29.8770 C   0  0  0  0  0  0  0  0  0  0  0  0
   -3.4600   22.4940  -30.6020 C   0  0  0  0  0  0  0  0  0  0  0  0
   -4.4410   23.2540  -29.9520 C   0  0  0  0  0  0  0  0  0  0  0  0
   -5.4440   24.3730  -30.8690 S   0  0  0  0  0  0  0  0  0  0  0  0
   -4.6400   25.5950  -31.2120 O   0  0  0  0  0  0  0  0  0  0  0  0
   -6.6380   24.7880  -30.0560 O   0  0  0  0  0  0  0  0  0  0  0  0
   -5.9920   23.6200  -32.3330 N   0  0  0  0  0  0  0  0  0  0  0  0
   -6.7540   22.4000  -32.3420 C   0  0  0  0  0  0  0  0  0  0  0  0
   -8.1090   22.4270  -31.9740 C   0  0  0  0  0  0  0  0  0  0  0  0
   -8.8560   21.2540  -31.9130 C   0  0  0  0  0  0  0  0  0  0  0  0
   -8.2700   20.0290  -32.2130 C   0  0  0  0  0  0  0  0  0  0  0  0
   -6.9170   19.9580  -32.5940 C   0  0  0  0  0  0  0  0  0  0  0  0
   -6.3120   18.7180  -32.9120 C   0  0  0  0  0  0  0  0  0  0  0  0
   -7.1880   17.1910  -32.8320 Cl  0  0  0  0  0  0  0  0  0  0  0  0
   -4.9740   18.6770  -33.3100 C   0  0  0  0  0  0  0  0  0  0  0  0
   -4.2290   19.8490  -33.4070 C   0  0  0  0  0  0  0  0  0  0  0  0
   -4.8070   21.0790  -33.0940 C   0  0  0  0  0  0  0  0  0  0  0  0
   -6.1490   21.1570  -32.6680 C   0  0  0  0  0  0  0  0  0  0  0  0
   -4.6190   23.1170  -28.5690 C   0  0  0  0  0  0  0  0  0  0  0  0
   -3.8260   22.2230  -27.8430 C   0  0  0  0  0  0  0  0  0  0  0  0
   -2.1525   20.6509  -26.6402 H   0  0  0  0  0  0  0  0  0  0  0  0
   -2.3306   19.4607  -27.9737 H   0  0  0  0  0  0  0  0  0  0  0  0
   -0.9498   20.6095  -27.9737 H   0  0  0  0  0  0  0  0  0  0  0  0
   -1.9068   20.9964  -30.3959 H   0  0  0  0  0  0  0  0  0  0  0  0
   -3.3137   22.6009  -31.6870 H   0  0  0  0  0  0  0  0  0  0  0  0
   -5.7370   24.0870  -33.2310 H   0  0  0  0  0  0  0  0  0  0  0  0
   -8.5863   23.3877  -31.7308 H   0  0  0  0  0  0  0  0  0  0  0  0
   -9.9169   21.2963  -31.6256 H   0  0  0  0  0  0  0  0  0  0  0  0
   -8.8687   19.1082  -32.1520 H   0  0  0  0  0  0  0  0  0  0  0  0
   -4.5051   17.7110  -33.5487 H   0  0  0  0  0  0  0  0  0  0  0  0
   -3.1791   19.8047  -33.7322 H   0  0  0  0  0  0  0  0  0  0  0  0
   -4.2094   21.9985  -33.1804 H   0  0  0  0  0  0  0  0  0  0  0  0
   -5.3849   23.7145  -28.0528 H   0  0  0  0  0  0  0  0  0  0  0  0
   -3.9804   22.1094  -26.7598 H   0  0  0  0  0  0  0  0  0  0  0  0
  1  2  1  0
  2  3  2  0
  3  4  1  0
  4  5  2  0
  5  6  1  0
  6  7  2  0
  6  8  2  0
  6  9  1  0
  9 10  1  0
 10 11  2  0
 11 12  1  0
 12 13  2  0
 13 14  1  0
 14 15  2  0
 15 16  1  0
 15 17  1  0
 17 18  2  0
 18 19  1  0
 19 20  2  0
  5 21  1  0
 21 22  2  0
 22  2  1  0
 20 10  1  0
 20 14  1  0
  1 23  1  0
  1 24  1  0
  1 25  1  0
  3 26  1  0
  4 27  1  0
  9 28  1  0
 11 29  1  0
 12 30  1  0
 13 31  1  0
 17 32  1  0
 18 33  1  0
 19 34  1  0
 21 35  1  0
 22 36  1  0
M  END
>  <UniqueID>  (31) 
25

>  <SMILES>  (31) 
Cc1ccc(S(=O)(=O)Nc2cccc3c(Cl)cccc23)cc1

>  <Energy>  (31) 
49.64734494039323

>  <Genealogy>  (31) 
Cc1ccc(S(=O)(=O)Nc2cccc3c(Cl)cccc23)cc1 (3D coordinates assigned)
Cc1ccc(S(=O)(=O)Nc2cccc3c(Cl)cccc23)cc1 (optimized conformer: 49.64734494039323 kcal/mol)

>  <smiles>  (31) 
Cc1ccc(S(=O)(=O)Nc2cccc3c(Cl)cccc23)cc1

>  <score_type>  (31) 
oracle

>  <origin>  (31) 
adg

>  <m_score__min__energy>  (31) 
-9.2899999999999991

>  <m_primary>  (31) 
energy

$$$$
31:0
     RDKit          3D

 49 51  0  0  0  0  0  0  0  0999 V2000
    0.4980   19.0020  -31.9210 C   0  0  0  0  0  0  0  0  0  0  0  0
   -0.1700   19.9130  -32.8580 N   0  0  0  0  0  0  0  0  0  0  0  0
    0.5030   20.2540  -34.1170 C   0  0  0  0  0  0  0  0  0  0  0  0
   -1.4750   20.4690  -32.5440 C   0  0  0  0  0  0  0  0  0  0  0  0
   -2.2280   21.1440  -33.5260 C   0  0  0  0  0  0  0  0  0  0  0  0
   -3.4830   21.6780  -33.2230 C   0  0  0  0  0  0  0  0  0  0  0  0
   -4.0170   21.5660  -31.9320 C   0  0  0  0  0  0  0  0  0  0  0  0
   -5.4110   22.1190  -31.6450 C   0  0  1  0  0  0  0  0  0  0  0  0
   -5.5760   23.4860  -32.1840 N   0  0  0  0  0  0  0  0  0  0  0  0
   -6.2920   24.4050  -31.2830 C   0  0  0  0  0  0  0  0  0  0  0  0
   -5.3050   25.3480  -30.5920 C   0  0  0  0  0  0  0  0  0  0  0  0
   -4.3830   24.6020  -29.7360 N   0  0  0  0  0  0  0  0  0  0  0  0
   -3.1420   24.1980  -30.0690 C   0  0  0  0  0  0  0  0  0  0  0  0
   -2.5950   23.4750  -29.0270 C   0  0  0  0  0  0  0  0  0  0  0  0
   -3.5510   23.4370  -28.0290 C   0  0  0  0  0  0  0  0  0  0  0  0
   -4.6420   24.1380  -28.4990 C   0  0  0  0  0  0  0  0  0  0  0  0
   -6.5490   21.1800  -32.0460 C   0  0  0  0  0  0  0  0  0  0  0  0
   -6.2480   19.9200  -32.6050 C   0  0  0  0  0  0  0  0  0  0  0  0
   -7.2670   19.0210  -32.9290 C   0  0  0  0  0  0  0  0  0  0  0  0
   -8.5980   19.3500  -32.6720 C   0  0  0  0  0  0  0  0  0  0  0  0
   -8.9120   20.5720  -32.0760 C   0  0  0  0  0  0  0  0  0  0  0  0
   -7.8960   21.4760  -31.7490 C   0  0  0  0  0  0  0  0  0  0  0  0
   -3.2790   20.8770  -30.9530 C   0  0  0  0  0  0  0  0  0  0  0  0
   -2.0240   20.3430  -31.2530 C   0  0  0  0  0  0  0  0  0  0  0  0
    0.2734   19.3084  -30.8887 H   0  0  0  0  0  0  0  0  0  0  0  0
    0.1363   17.9763  -32.0860 H   0  0  0  0  0  0  0  0  0  0  0  0
    1.5849   19.0385  -32.0860 H   0  0  0  0  0  0  0  0  0  0  0  0
    1.4647   20.7413  -33.8984 H   0  0  0  0  0  0  0  0  0  0  0  0
    0.6803   19.3370  -34.6981 H   0  0  0  0  0  0  0  0  0  0  0  0
   -0.1316   20.9393  -34.6981 H   0  0  0  0  0  0  0  0  0  0  0  0
   -1.8227   21.2516  -34.5429 H   0  0  0  0  0  0  0  0  0  0  0  0
   -4.0586   22.1923  -34.0067 H   0  0  0  0  0  0  0  0  0  0  0  0
   -5.4877   22.1887  -30.5499 H   0  0  0  0  0  0  0  0  0  0  0  0
   -6.1170   23.4190  -33.0790 H   0  0  0  0  0  0  0  0  0  0  0  0
   -7.0120   24.9975  -31.8665 H   0  0  0  0  0  0  0  0  0  0  0  0
   -6.8200   23.8168  -30.5180 H   0  0  0  0  0  0  0  0  0  0  0  0
   -4.7285   25.8894  -31.3566 H   0  0  0  0  0  0  0  0  0  0  0  0
   -5.8718   26.0538  -29.9671 H   0  0  0  0  0  0  0  0  0  0  0  0
   -2.6408   24.4113  -31.0247 H   0  0  0  0  0  0  0  0  0  0  0  0
   -1.5945   23.0187  -28.9971 H   0  0  0  0  0  0  0  0  0  0  0  0
   -3.4594   22.9435  -27.0502 H   0  0  0  0  0  0  0  0  0  0  0  0
   -5.5807   24.2941  -27.9472 H   0  0  0  0  0  0  0  0  0  0  0  0
   -5.1994   19.6425  -32.7877 H   0  0  0  0  0  0  0  0  0  0  0  0
   -7.0194   18.0522  -33.3875 H   0  0  0  0  0  0  0  0  0  0  0  0
   -9.4000   18.6462  -32.9392 H   0  0  0  0  0  0  0  0  0  0  0  0
   -9.9611   20.8250  -31.8628 H   0  0  0  0  0  0  0  0  0  0  0  0
   -8.1495   22.4261  -31.2559 H   0  0  0  0  0  0  0  0  0  0  0  0
   -3.6942   20.7576  -29.9414 H   0  0  0  0  0  0  0  0  0  0  0  0
   -1.4568   19.8171  -30.4709 H   0  0  0  0  0  0  0  0  0  0  0  0
  1  2  1  0
  2  3  1  0
  2  4  1  0
  4  5  2  0
  5  6  1  0
  6  7  2  0
  7  8  1  0
  8  9  1  0
  9 10  1  0
 10 11  1  0
 11 12  1  0
 12 13  1  0
 13 14  2  0
 14 15  1  0
 15 16  2  0
  8 17  1  0
 17 18  2  0
 18 19  1  0
 19 20  2  0
 20 21  1  0
 21 22  2  0
  7 23  1  0
 23 24  2  0
 24  4  1  0
 16 12  1  0
 22 17  1  0
  1 25  1  0
  1 26  1  0
  1 27  1  0
  3 28  1  0
  3 29  1  0
  3 30  1  0
  5 31  1  0
  6 32  1  0
  8 33  1  1
  9 34  1  0
 10 35  1  0
 10 36  1  0
 11 37  1  0
 11 38  1  0
 13 39  1  0
 14 40  1  0
 15 41  1  0
 16 42  1  0
 18 43  1  0
 19 44  1  0
 20 45  1  0
 21 46  1  0
 22 47  1  0
 23 48  1  0
 24 49  1  0
M  END
>  <UniqueID>  (32) 
26

>  <SMILES>  (32) 
CN(C)c1ccc([C@@H](NCCn2cccc2)c2ccccc2)cc1

>  <Energy>  (32) 
80.76772564619424

>  <Genealogy>  (32) 
CN(C)c1ccc([C@@H](NCCn2cccc2)c2ccccc2)cc1 (chirality)
CN(C)c1ccc([C@@H](NCCn2cccc2)c2ccccc2)cc1 (3D coordinates assigned)
CN(C)c1ccc([C@@H](NCCn2cccc2)c2ccccc2)cc1 (optimized conformer: 80.76772564619424 kcal/mol)

>  <smiles>  (32) 
CN(C)c1ccc(C(NCCn2cccc2)c2ccccc2)cc1

>  <score_type>  (32) 
oracle

>  <origin>  (32) 
adg

>  <m_score__min__energy>  (32) 
-7.6299999999999999

>  <m_primary>  (32) 
energy

$$$$
32:0
     RDKit          3D

 38 40  0  0  0  0  0  0  0  0999 V2000
   -7.7890   19.8280  -32.7090 C   0  0  0  0  0  0  0  0  0  0  0  0
   -7.2620   21.0960  -32.1050 C   0  0  0  0  0  0  0  0  0  0  0  0
   -8.1000   22.2120  -31.9640 C   0  0  0  0  0  0  0  0  0  0  0  0
   -7.6190   23.3800  -31.3690 C   0  0  0  0  0  0  0  0  0  0  0  0
   -6.3060   23.4380  -30.8970 C   0  0  0  0  0  0  0  0  0  0  0  0
   -5.4630   22.3270  -31.0060 C   0  0  0  0  0  0  0  0  0  0  0  0
   -4.1610   22.4310  -30.4920 O   0  0  0  0  0  0  0  0  0  0  0  0
   -3.7780   23.2010  -29.3520 C   0  0  0  0  0  0  0  0  0  0  0  0
   -3.2300   24.5510  -29.7410 C   0  0  0  0  0  0  0  0  0  0  0  0
   -3.9280   25.2950  -30.4780 O   0  0  0  0  0  0  0  0  0  0  0  0
   -1.9310   25.0070  -29.3370 N   0  0  0  0  0  0  0  0  0  0  0  0
   -1.4670   25.1880  -27.9930 C   0  0  0  0  0  0  0  0  0  0  0  0
   -1.3190   24.0560  -27.1650 C   0  0  0  0  0  0  0  0  0  0  0  0
   -0.8780   24.1880  -25.8370 C   0  0  0  0  0  0  0  0  0  0  0  0
   -0.5720   25.4620  -25.3560 C   0  0  0  0  0  0  0  0  0  0  0  0
   -0.1310   25.7330  -24.1010 N   0  0  0  0  0  0  0  0  0  0  0  0
    0.0890   27.0600  -23.9230 C   0  0  0  0  0  0  0  0  0  0  0  0
    0.6440   27.6440  -22.6680 C   0  0  0  0  0  0  0  0  0  0  0  0
   -0.2310   27.9440  -25.3330 S   0  0  0  0  0  0  0  0  0  0  0  0
   -0.6930   26.5690  -26.1810 C   0  0  0  0  0  0  0  0  0  0  0  0
   -1.1250   26.4660  -27.5000 C   0  0  0  0  0  0  0  0  0  0  0  0
   -5.9480   21.1510  -31.6120 C   0  0  0  0  0  0  0  0  0  0  0  0
   -8.0781   19.1325  -31.9073 H   0  0  0  0  0  0  0  0  0  0  0  0
   -8.6671   20.0556  -33.3313 H   0  0  0  0  0  0  0  0  0  0  0  0
   -7.0083   19.3662  -33.3313 H   0  0  0  0  0  0  0  0  0  0  0  0
   -9.1388   22.1669  -32.3231 H   0  0  0  0  0  0  0  0  0  0  0  0
   -8.2761   24.2568  -31.2718 H   0  0  0  0  0  0  0  0  0  0  0  0
   -5.9319   24.3641  -30.4361 H   0  0  0  0  0  0  0  0  0  0  0  0
   -4.6589   23.3469  -28.7096 H   0  0  0  0  0  0  0  0  0  0  0  0
   -2.9857   22.6524  -28.8217 H   0  0  0  0  0  0  0  0  0  0  0  0
   -1.5516   23.0574  -27.5634 H   0  0  0  0  0  0  0  0  0  0  0  0
   -0.7760   23.3046  -25.1895 H   0  0  0  0  0  0  0  0  0  0  0  0
    0.0300   25.0100  -23.3650 H   0  0  0  0  0  0  0  0  0  0  0  0
    0.1792   27.1550  -21.7992 H   0  0  0  0  0  0  0  0  0  0  0  0
    1.7321   27.4852  -22.6396 H   0  0  0  0  0  0  0  0  0  0  0  0
    0.4300   28.7226  -22.6396 H   0  0  0  0  0  0  0  0  0  0  0  0
   -1.1980   27.3567  -28.1414 H   0  0  0  0  0  0  0  0  0  0  0  0
   -5.2938   20.2710  -31.6995 H   0  0  0  0  0  0  0  0  0  0  0  0
  1  2  1  0
  2  3  2  0
  3  4  1  0
  4  5  2  0
  5  6  1  0
  6  7  1  0
  7  8  1  0
  8  9  1  0
  9 10  2  0
  9 11  1  0
 11 12  1  0
 12 13  2  0
 13 14  1  0
 14 15  2  0
 15 16  1  0
 16 17  2  0
 17 18  1  0
 17 19  1  0
 19 20  1  0
 20 21  2  0
  6 22  2  0
 22  2  1  0
 21 12  1  0
 20 15  1  0
  1 23  1  0
  1 24  1  0
  1 25  1  0
  3 26  1  0
  4 27  1  0
  5 28  1  0
  8 29  1  0
  8 30  1  0
 13 31  1  0
 14 32  1  0
 16 33  1  0
 18 34  1  0
 18 35  1  0
 18 36  1  0
 21 37  1  0
 22 38  1  0
M  CHG  2  11  -1  16   1
M  END
>  <UniqueID>  (33) 
27

>  <SMILES>  (33) 
Cc1cccc(OCC(=O)[N-]c2ccc3[nH+]c(C)sc3c2)c1

>  <Energy>  (33) 
75.24818837799283

>  <Genealogy>  (33) 
Cc1cccc(OCC(=O)[N-]c2ccc3[nH+]c(C)sc3c2)c1 (protonated)
Cc1cccc(OCC(=O)[N-]c2ccc3[nH+]c(C)sc3c2)c1 (3D coordinates assigned)
Cc1cccc(OCC(=O)[N-]c2ccc3[nH+]c(C)sc3c2)c1 (optimized conformer: 75.24818837799283 kcal/mol)

>  <smiles>  (33) 
Cc1cccc(OCC(=O)Nc2ccc3nc(C)sc3c2)c1

>  <score_type>  (33) 
oracle

>  <origin>  (33) 
adg

>  <m_score__min__energy>  (33) 
-9.7300000000000004

>  <m_primary>  (33) 
energy

$$$$
33:0
     RDKit          3D

 40 43  0  0  1  0  0  0  0  0999 V2000
   -4.7990   15.8530  -34.1630 C   0  0  0  0  0  0  0  0  0  0  0  0
   -4.2970   17.0850  -34.8480 C   0  0  0  0  0  0  0  0  0  0  0  0
   -4.7040   18.2920  -34.1370 N   0  0  0  0  0  0  0  0  0  0  0  0
   -3.8690   19.2950  -33.8330 C   0  0  0  0  0  0  0  0  0  0  0  0
   -4.6410   20.2320  -33.1690 C   0  0  0  0  0  0  0  0  0  0  0  0
   -4.1100   21.4600  -32.6770 C   0  0  0  0  0  0  0  0  0  0  0  0
   -3.6690   22.4420  -32.2660 N   0  0  0  0  0  0  0  0  0  0  0  0
   -5.9430   19.8120  -33.0630 C   0  0  0  0  0  0  0  0  0  0  0  0
   -7.1120   20.4060  -32.4760 C   0  0  0  0  0  0  0  0  0  0  0  0
   -8.3590   19.8410  -32.4070 C   0  0  0  0  0  0  0  0  0  0  0  0
   -9.4520   20.4610  -31.8280 C   0  0  0  0  0  0  0  0  0  0  0  0
   -9.2690   21.6750  -31.3120 N   0  0  0  0  0  0  0  0  0  0  0  0
   -8.0510   22.2240  -31.3800 C   0  0  0  0  0  0  0  0  0  0  0  0
   -7.8650   23.4130  -30.8770 N   0  0  0  0  0  0  0  0  0  0  0  0
   -6.5520   23.8010  -30.5370 C   0  0  0  0  0  0  0  0  0  0  0  0
   -6.0620   25.0040  -31.0560 C   0  0  0  0  0  0  0  0  0  0  0  0
   -4.7840   25.4460  -30.7630 C   0  0  0  0  0  0  0  0  0  0  0  0
   -3.9970   24.6720  -29.9450 C   0  0  0  0  0  0  0  0  0  0  0  0
   -2.7290   24.8620  -29.5060 N   0  0  0  0  0  0  0  0  0  0  0  0
   -2.4240   23.8160  -28.7340 N   0  0  0  0  0  0  0  0  0  0  0  0
   -3.4440   22.9550  -28.6570 C   0  0  0  0  0  0  0  0  0  0  0  0
   -4.4680   23.4740  -29.4230 C   0  0  0  0  0  0  0  0  0  0  0  0
   -5.7530   23.0310  -29.7170 C   0  0  0  0  0  0  0  0  0  0  0  0
   -6.9810   21.6390  -31.9370 N   0  0  0  0  0  0  0  0  0  0  0  0
   -5.9500   18.5630  -33.6940 C   0  0  0  0  0  0  0  0  0  0  0  0
   -4.7429   15.9908  -33.0731 H   0  0  0  0  0  0  0  0  0  0  0  0
   -5.8433   15.6702  -34.4562 H   0  0  0  0  0  0  0  0  0  0  0  0
   -4.1798   14.9924  -34.4562 H   0  0  0  0  0  0  0  0  0  0  0  0
   -3.1985   17.0482  -34.8912 H   0  0  0  0  0  0  0  0  0  0  0  0
   -4.7263   17.1178  -35.8602 H   0  0  0  0  0  0  0  0  0  0  0  0
   -2.7953   19.3599  -34.0630 H   0  0  0  0  0  0  0  0  0  0  0  0
   -8.4986   18.8379  -32.8363 H   0  0  0  0  0  0  0  0  0  0  0  0
  -10.4355   19.9695  -31.7951 H   0  0  0  0  0  0  0  0  0  0  0  0
  -10.0440   22.2080  -30.8570 H   0  0  0  0  0  0  0  0  0  0  0  0
   -6.7055   25.6107  -31.7101 H   0  0  0  0  0  0  0  0  0  0  0  0
   -4.4073   26.3939  -31.1749 H   0  0  0  0  0  0  0  0  0  0  0  0
   -2.1110   25.6780  -29.7330 H   0  0  0  0  0  0  0  0  0  0  0  0
   -3.4633   22.0122  -28.0907 H   0  0  0  0  0  0  0  0  0  0  0  0
   -6.1261   22.0827  -29.3028 H   0  0  0  0  0  0  0  0  0  0  0  0
   -6.8270   17.9092  -33.8100 H   0  0  0  0  0  0  0  0  0  0  0  0
  1  2  1  0
  2  3  1  0
  3  4  1  0
  4  5  2  0
  5  6  1  0
  6  7  3  0
  5  8  1  0
  8  9  1  0
  9 10  1  0
 10 11  2  0
 11 12  1  0
 12 13  1  0
 13 14  2  0
 14 15  1  0
 15 16  2  0
 16 17  1  0
 17 18  2  0
 18 19  1  0
 19 20  1  0
 20 21  2  0
 21 22  1  0
 22 23  2  0
 13 24  1  0
  8 25  2  0
 25  3  1  0
 24  9  2  0
 23 15  1  0
 22 18  1  0
  1 26  1  0
  1 27  1  0
  1 28  1  0
  2 29  1  0
  2 30  1  0
  4 31  1  0
 10 32  1  0
 11 33  1  0
 12 34  1  0
 16 35  1  0
 17 36  1  0
 19 37  1  0
 21 38  1  0
 23 39  1  0
 25 40  1  0
M  END
>  <smiles>  (34) 
CCn1cc(C#N)c(-c2cc[nH]c(=Nc3ccc4[nH]ncc4c3)n2)c1

>  <score_type>  (34) 
oracle

>  <origin>  (34) 
adg

>  <m_score__min__energy>  (34) 
-8.5700000000000003

>  <m_primary>  (34) 
energy

$$$$
34:0
     RDKit          3D

 42 43  0  0  0  0  0  0  0  0999 V2000
   -1.8380   20.7140  -31.0150 C   0  0  0  0  0  0  0  0  0  0  0  0
   -1.4640   21.4870  -32.2790 C   0  0  0  0  0  0  0  0  0  0  0  0
   -2.3980   21.1700  -33.4550 C   0  0  0  0  0  0  0  0  0  0  0  0
   -3.8380   21.0930  -33.0210 C   0  0  0  0  0  0  0  0  0  0  0  0
   -4.4580   22.2090  -32.4140 C   0  0  0  0  0  0  0  0  0  0  0  0
   -5.7950   22.1060  -31.9910 C   0  0  0  0  0  0  0  0  0  0  0  0
   -6.4660   23.2250  -31.3810 N   0  0  0  0  0  0  0  0  0  0  0  0
   -7.8510   23.5260  -31.7510 C   0  0  0  0  0  0  0  0  0  0  0  0
   -5.8600   23.9300  -30.2420 C   0  0  0  0  0  0  0  0  0  0  0  0
   -5.2950   25.2880  -30.6670 C   0  0  0  0  0  0  0  0  0  0  0  0
   -3.8920   25.2840  -30.5040 O   0  0  0  0  0  0  0  0  0  0  0  0
   -3.5180   24.1900  -29.6980 C   0  0  0  0  0  0  0  0  0  0  0  0
   -6.4270   20.9190  -32.1890 N   0  0  0  0  0  0  0  0  0  0  0  0
   -7.6570   20.5930  -31.8310 N   0  0  0  0  0  0  0  0  0  0  0  0
   -7.8350   19.3020  -32.2050 C   0  0  0  0  0  0  0  0  0  0  0  0
   -9.0860   18.5310  -31.9520 C   0  0  0  0  0  0  0  0  0  0  0  0
   -6.6820   18.7950  -32.7960 C   0  0  0  0  0  0  0  0  0  0  0  0
   -5.8230   19.8690  -32.7570 C   0  0  0  0  0  0  0  0  0  0  0  0
   -4.5360   19.9260  -33.1760 N   0  0  0  0  0  0  0  0  0  0  0  0
   -1.5541   21.3007  -30.1289 H   0  0  0  0  0  0  0  0  0  0  0  0
   -2.9230   20.5336  -31.0031 H   0  0  0  0  0  0  0  0  0  0  0  0
   -1.3061   19.7512  -31.0031 H   0  0  0  0  0  0  0  0  0  0  0  0
   -1.5195   22.5643  -32.0639 H   0  0  0  0  0  0  0  0  0  0  0  0
   -0.4461   21.1863  -32.5679 H   0  0  0  0  0  0  0  0  0  0  0  0
   -2.2965   21.9604  -34.2133 H   0  0  0  0  0  0  0  0  0  0  0  0
   -2.1116   20.1900  -33.8643 H   0  0  0  0  0  0  0  0  0  0  0  0
   -3.9009   23.1472  -32.2742 H   0  0  0  0  0  0  0  0  0  0  0  0
   -8.4537   23.6570  -30.8402 H   0  0  0  0  0  0  0  0  0  0  0  0
   -7.8790   24.4512  -32.3453 H   0  0  0  0  0  0  0  0  0  0  0  0
   -8.2604   22.6959  -32.3453 H   0  0  0  0  0  0  0  0  0  0  0  0
   -6.6262   24.0866  -29.4684 H   0  0  0  0  0  0  0  0  0  0  0  0
   -5.0344   23.3163  -29.8524 H   0  0  0  0  0  0  0  0  0  0  0  0
   -5.5413   25.4738  -31.7228 H   0  0  0  0  0  0  0  0  0  0  0  0
   -5.7351   26.0805  -30.0439 H   0  0  0  0  0  0  0  0  0  0  0  0
   -3.6126   24.4666  -28.6375 H   0  0  0  0  0  0  0  0  0  0  0  0
   -4.1746   23.3342  -29.9137 H   0  0  0  0  0  0  0  0  0  0  0  0
   -2.4749   23.9153  -29.9137 H   0  0  0  0  0  0  0  0  0  0  0  0
   -9.2438   18.4337  -30.8677 H   0  0  0  0  0  0  0  0  0  0  0  0
   -9.9397   19.0598  -32.4008 H   0  0  0  0  0  0  0  0  0  0  0  0
   -8.9973   17.5307  -32.4008 H   0  0  0  0  0  0  0  0  0  0  0  0
   -6.5019   17.7860  -33.1953 H   0  0  0  0  0  0  0  0  0  0  0  0
   -4.0860   19.0850  -33.6060 H   0  0  0  0  0  0  0  0  0  0  0  0
  1  2  1  0
  2  3  1  0
  3  4  1  0
  4  5  1  0
  5  6  2  0
  6  7  1  0
  7  8  1  0
  7  9  1  0
  9 10  1  0
 10 11  1  0
 11 12  1  0
  6 13  1  0
 13 14  1  0
 14 15  2  0
 15 16  1  0
 15 17  1  0
 17 18  2  0
 18 19  1  0
 19  4  2  0
 18 13  1  0
  1 20  1  0
  1 21  1  0
  1 22  1  0
  2 23  1  0
  2 24  1  0
  3 25  1  0
  3 26  1  0
  5 27  1  0
  8 28  1  0
  8 29  1  0
  8 30  1  0
  9 31  1  0
  9 32  1  0
 10 33  1  0
 10 34  1  0
 12 35  1  0
 12 36  1  0
 12 37  1  0
 16 38  1  0
 16 39  1  0
 16 40  1  0
 17 41  1  0
 19 42  1  0
M  CHG  1  19   1
M  END
>  <UniqueID>  (35) 
28

>  <SMILES>  (35) 
CCCc1cc(N(C)CCOC)n2nc(C)cc2[nH+]1

>  <Energy>  (35) 
71.01919105442259

>  <Genealogy>  (35) 
CCCc1cc(N(C)CCOC)n2nc(C)cc2[nH+]1 (protonated)
CCCc1cc(N(C)CCOC)n2nc(C)cc2[nH+]1 (3D coordinates assigned)
CCCc1cc(N(C)CCOC)n2nc(C)cc2[nH+]1 (optimized conformer: 71.01919105442259 kcal/mol)

>  <smiles>  (35) 
CCCc1cc(N(C)CCOC)n2nc(C)cc2n1

>  <score_type>  (35) 
oracle

>  <origin>  (35) 
adg

>  <m_score__min__energy>  (35) 
-6.5899999999999999

>  <m_primary>  (35) 
energy

$$$$
35:0
     RDKit          3D

 45 47  0  0  0  0  0  0  0  0999 V2000
   -2.4690   19.9570  -33.6670 C   0  0  0  0  0  0  0  0  0  0  0  0
   -2.9220   18.8800  -33.0280 C   0  0  0  0  0  0  0  0  0  0  0  0
   -4.2990   18.3770  -33.2160 C   0  0  0  0  0  0  0  0  0  0  0  0
   -4.4440   17.0750  -33.7190 C   0  0  0  0  0  0  0  0  0  0  0  0
   -5.7070   16.5020  -33.8650 C   0  0  0  0  0  0  0  0  0  0  0  0
   -6.8470   17.2220  -33.5180 C   0  0  0  0  0  0  0  0  0  0  0  0
   -6.7360   18.5380  -33.0480 C   0  0  0  0  0  0  0  0  0  0  0  0
   -7.8810   19.2690  -32.7240 C   0  0  0  0  0  0  0  0  0  0  0  0
   -7.7700   20.5940  -32.2960 C   0  0  0  0  0  0  0  0  0  0  0  0
   -8.9170   21.3250  -31.9520 C   0  0  0  0  0  0  0  0  0  0  0  0
   -8.8020   22.6460  -31.5220 C   0  0  0  0  0  0  0  0  0  0  0  0
   -7.5500   23.2550  -31.4520 C   0  0  0  0  0  0  0  0  0  0  0  0
   -6.3910   22.5530  -31.8190 C   0  0  0  0  0  0  0  0  0  0  0  0
   -5.1000   23.2680  -31.7660 C   0  0  0  0  0  0  0  0  0  0  0  0
   -4.0640   22.6920  -32.1910 O   0  0  0  0  0  0  0  0  0  0  0  0
   -4.9870   24.5910  -31.2220 N   0  0  0  0  0  0  0  0  0  0  0  0
   -5.1460   24.9370  -29.8110 C   0  0  0  0  0  0  0  0  0  0  0  0
   -4.1500   24.1560  -28.9450 C   0  0  0  0  0  0  0  0  0  0  0  0
   -2.7640   24.3990  -29.4000 N   0  0  0  0  0  0  0  0  0  0  0  0
   -1.9610   24.9690  -28.3070 C   0  0  0  0  0  0  0  0  0  0  0  0
   -2.1350   23.1530  -29.8720 C   0  0  0  0  0  0  0  0  0  0  0  0
   -6.4920   21.1950  -32.2200 C   0  0  0  0  0  0  0  0  0  0  0  0
   -5.3800   20.4530  -32.5210 N   0  0  0  0  0  0  0  0  0  0  0  0
   -5.4610   19.1410  -32.9100 C   0  0  0  0  0  0  0  0  0  0  0  0
   -1.4376   20.3015  -33.5014 H   0  0  0  0  0  0  0  0  0  0  0  0
   -3.1263   20.5021  -34.3604 H   0  0  0  0  0  0  0  0  0  0  0  0
   -2.2501   18.3479  -32.3385 H   0  0  0  0  0  0  0  0  0  0  0  0
   -3.5504   16.4992  -34.0016 H   0  0  0  0  0  0  0  0  0  0  0  0
   -5.8028   15.4781  -34.2555 H   0  0  0  0  0  0  0  0  0  0  0  0
   -7.8390   16.7562  -33.6131 H   0  0  0  0  0  0  0  0  0  0  0  0
   -8.8727   18.8002  -32.8060 H   0  0  0  0  0  0  0  0  0  0  0  0
   -9.9090   20.8548  -32.0217 H   0  0  0  0  0  0  0  0  0  0  0  0
   -9.7024   23.2099  -31.2369 H   0  0  0  0  0  0  0  0  0  0  0  0
   -7.4694   24.2960  -31.1058 H   0  0  0  0  0  0  0  0  0  0  0  0
   -4.9691   26.0149  -29.6815 H   0  0  0  0  0  0  0  0  0  0  0  0
   -6.1675   24.6770  -29.4964 H   0  0  0  0  0  0  0  0  0  0  0  0
   -4.2491   24.4798  -27.8984 H   0  0  0  0  0  0  0  0  0  0  0  0
   -4.3693   23.0817  -29.0328 H   0  0  0  0  0  0  0  0  0  0  0  0
   -2.3892   24.6651  -27.3404 H   0  0  0  0  0  0  0  0  0  0  0  0
   -0.9268   24.6017  -28.3817 H   0  0  0  0  0  0  0  0  0  0  0  0
   -1.9666   26.0664  -28.3817 H   0  0  0  0  0  0  0  0  0  0  0  0
   -1.8288   22.5463  -29.0070 H   0  0  0  0  0  0  0  0  0  0  0  0
   -2.8551   22.5865  -30.4807 H   0  0  0  0  0  0  0  0  0  0  0  0
   -1.2516   23.3960  -30.4807 H   0  0  0  0  0  0  0  0  0  0  0  0
   -4.4460   20.9110  -32.4740 H   0  0  0  0  0  0  0  0  0  0  0  0
  1  2  2  0
  2  3  1  0
  3  4  2  0
  4  5  1  0
  5  6  2  0
  6  7  1  0
  7  8  2  0
  8  9  1  0
  9 10  2  0
 10 11  1  0
 11 12  2  0
 12 13  1  0
 13 14  1  0
 14 15  2  0
 14 16  1  0
 16 17  1  0
 17 18  1  0
 18 19  1  0
 19 20  1  0
 19 21  1  0
 13 22  2  0
 22 23  1  0
 23 24  2  0
 24  3  1  0
 24  7  1  0
 22  9  1  0
  1 25  1  0
  1 26  1  0
  2 27  1  0
  4 28  1  0
  5 29  1  0
  6 30  1  0
  8 31  1  0
 10 32  1  0
 11 33  1  0
 12 34  1  0
 17 35  1  0
 17 36  1  0
 18 37  1  0
 18 38  1  0
 20 39  1  0
 20 40  1  0
 20 41  1  0
 21 42  1  0
 21 43  1  0
 21 44  1  0
 23 45  1  0
M  CHG  2  16  -1  23   1
M  END
>  <UniqueID>  (36) 
29

>  <SMILES>  (36) 
C=Cc1cccc2cc3cccc(C(=O)[N-]CCN(C)C)c3[nH+]c12

>  <Energy>  (36) 
64.4985640854733

>  <Genealogy>  (36) 
C=Cc1cccc2cc3cccc(C(=O)[N-]CCN(C)C)c3[nH+]c12 (protonated)
C=Cc1cccc2cc3cccc(C(=O)[N-]CCN(C)C)c3[nH+]c12 (3D coordinates assigned)
C=Cc1cccc2cc3cccc(C(=O)[N-]CCN(C)C)c3[nH+]c12 (optimized conformer: 64.4985640854733 kcal/mol)

>  <smiles>  (36) 
C=Cc1cccc2cc3cccc(C(=O)NCCN(C)C)c3nc12

>  <score_type>  (36) 
oracle

>  <origin>  (36) 
adg

>  <m_score__min__energy>  (36) 
-9.3499999999999996

>  <m_primary>  (36) 
energy

$$$$
36:0
     RDKit          3D

 48 53  0  0  0  0  0  0  0  0999 V2000
   -4.4680   25.6610  -30.7700 O   0  0  0  0  0  0  0  0  0  0  0  0
   -4.1890   24.4550  -30.5410 C   0  0  0  0  0  0  0  0  0  0  0  0
   -3.3400   23.9730  -29.4850 C   0  0  0  0  0  0  0  0  0  0  0  0
   -2.6730   24.6630  -28.5720 O   0  0  0  0  0  0  0  0  0  0  0  0
   -1.9340   24.0340  -27.6550 C   0  0  0  0  0  0  0  0  0  0  0  0
   -1.2330   24.7780  -26.7000 C   0  0  0  0  0  0  0  0  0  0  0  0
   -0.4590   24.1290  -25.7350 C   0  0  0  0  0  0  0  0  0  0  0  0
   -0.3800   22.7330  -25.7150 C   0  0  0  0  0  0  0  0  0  0  0  0
   -1.0730   21.9730  -26.6610 C   0  0  0  0  0  0  0  0  0  0  0  0
   -1.8560   22.6080  -27.6410 C   0  0  0  0  0  0  0  0  0  0  0  0
   -2.5740   21.8810  -28.6150 C   0  0  0  0  0  0  0  0  0  0  0  0
   -2.5550   20.6200  -28.6470 O   0  0  0  0  0  0  0  0  0  0  0  0
   -3.3140   22.6020  -29.5520 C   0  0  0  0  0  0  0  0  0  0  0  0
   -4.1930   22.1080  -30.6750 C   0  0  2  0  0  0  0  0  0  0  0  0
   -3.4280   21.2640  -31.6720 C   0  0  0  0  0  0  0  0  0  0  0  0
   -2.3340   21.8230  -32.3560 C   0  0  0  0  0  0  0  0  0  0  0  0
   -1.6100   21.0610  -33.2770 C   0  0  0  0  0  0  0  0  0  0  0  0
   -1.9690   19.7350  -33.5260 C   0  0  0  0  0  0  0  0  0  0  0  0
   -3.0540   19.1680  -32.8530 C   0  0  0  0  0  0  0  0  0  0  0  0
   -3.7820   19.9230  -31.9280 C   0  0  0  0  0  0  0  0  0  0  0  0
   -4.8300   19.3440  -31.2880 F   0  0  0  0  0  0  0  0  0  0  0  0
   -4.6830   23.3510  -31.2960 N   0  0  0  0  0  0  0  0  0  0  0  0
   -5.7560   23.4200  -32.2850 C   0  0  0  0  0  0  0  0  0  0  0  0
   -6.7640   22.3350  -32.0310 C   0  0  0  0  0  0  0  0  0  0  0  0
   -7.9290   22.6070  -31.2700 C   0  0  0  0  0  0  0  0  0  0  0  0
   -8.8980   21.6080  -31.0650 C   0  0  0  0  0  0  0  0  0  0  0  0
   -8.6750   20.3600  -31.6390 C   0  0  0  0  0  0  0  0  0  0  0  0
   -7.5670   20.0960  -32.3760 C   0  0  0  0  0  0  0  0  0  0  0  0
   -6.5850   21.0550  -32.6030 C   0  0  0  0  0  0  0  0  0  0  0  0
   -7.6120   18.7890  -32.8220 O   0  0  0  0  0  0  0  0  0  0  0  0
   -8.8230   18.1950  -32.3330 C   0  0  0  0  0  0  0  0  0  0  0  0
   -9.4710   19.2320  -31.5830 O   0  0  0  0  0  0  0  0  0  0  0  0
   -1.2914   25.8764  -26.7089 H   0  0  0  0  0  0  0  0  0  0  0  0
    0.0911   24.7190  -24.9871 H   0  0  0  0  0  0  0  0  0  0  0  0
    0.2309   22.2305  -24.9506 H   0  0  0  0  0  0  0  0  0  0  0  0
   -1.0057   20.8753  -26.6389 H   0  0  0  0  0  0  0  0  0  0  0  0
   -5.0000   21.4525  -30.3159 H   0  0  0  0  0  0  0  0  0  0  0  0
   -2.0460   22.8673  -32.1648 H   0  0  0  0  0  0  0  0  0  0  0  0
   -0.7554   21.5070  -33.8069 H   0  0  0  0  0  0  0  0  0  0  0  0
   -1.3979   19.1371  -34.2516 H   0  0  0  0  0  0  0  0  0  0  0  0
   -3.3368   18.1237  -33.0514 H   0  0  0  0  0  0  0  0  0  0  0  0
   -6.2513   24.3998  -32.2165 H   0  0  0  0  0  0  0  0  0  0  0  0
   -5.3284   23.2857  -33.2896 H   0  0  0  0  0  0  0  0  0  0  0  0
   -8.0763   23.6072  -30.8364 H   0  0  0  0  0  0  0  0  0  0  0  0
   -9.8020   21.8067  -30.4707 H   0  0  0  0  0  0  0  0  0  0  0  0
   -5.6965   20.8241  -33.2091 H   0  0  0  0  0  0  0  0  0  0  0  0
   -9.4584   17.8687  -33.1696 H   0  0  0  0  0  0  0  0  0  0  0  0
   -8.6264   17.3035  -31.7193 H   0  0  0  0  0  0  0  0  0  0  0  0
  1  2  2  0
  2  3  1  0
  3  4  1  0
  4  5  1  0
  5  6  2  0
  6  7  1  0
  7  8  2  0
  8  9  1  0
  9 10  2  0
 10 11  1  0
 11 12  2  0
 11 13  1  0
 13 14  1  0
 14 15  1  0
 15 16  2  0
 16 17  1  0
 17 18  2  0
 18 19  1  0
 19 20  2  0
 20 21  1  0
 14 22  1  0
 22 23  1  0
 23 24  1  0
 24 25  2  0
 25 26  1  0
 26 27  2  0
 27 28  1  0
 28 29  2  0
 28 30  1  0
 30 31  1  0
 31 32  1  0
 22  2  1  0
 29 24  1  0
 13  3  2  0
 20 15  1  0
 32 27  1  0
 10  5  1  0
  6 33  1  0
  7 34  1  0
  8 35  1  0
  9 36  1  0
 14 37  1  1
 16 38  1  0
 17 39  1  0
 18 40  1  0
 19 41  1  0
 23 42  1  0
 23 43  1  0
 25 44  1  0
 26 45  1  0
 29 46  1  0
 31 47  1  0
 31 48  1  0
M  END
>  <UniqueID>  (37) 
30

>  <SMILES>  (37) 
O=C1c2oc3ccccc3c(=O)c2[C@H](c2ccccc2F)N1Cc1ccc2c(c1)OCO2

>  <Energy>  (37) 
109.27985309908863

>  <Genealogy>  (37) 
O=C1c2oc3ccccc3c(=O)c2[C@H](c2ccccc2F)N1Cc1ccc2c(c1)OCO2 (chirality)
O=C1c2oc3ccccc3c(=O)c2[C@H](c2ccccc2F)N1Cc1ccc2c(c1)OCO2 (3D coordinates assigned)
O=C1c2oc3ccccc3c(=O)c2[C@H](c2ccccc2F)N1Cc1ccc2c(c1)OCO2 (nonaromatic ring conformer: 109.27985309908863 kcal/mol)

>  <smiles>  (37) 
O=C1c2oc3ccccc3c(=O)c2C(c2ccccc2F)N1Cc1ccc2c(c1)OCO2

>  <score_type>  (37) 
oracle

>  <origin>  (37) 
adg

>  <m_score__min__energy>  (37) 
-9.3300000000000001

>  <m_primary>  (37) 
energy

$$$$
37:0
     RDKit          3D

 34 35  0  0  0  0  0  0  0  0999 V2000
   -4.8997   17.6271  -34.8716 H   0  0  0  0  0  0  0  0  0  0  0  0
   -5.6620   17.9870  -34.1650 C   0  0  0  0  0  0  0  0  0  0  0  0
   -6.2790   17.0920  -33.2880 C   0  0  0  0  0  0  0  0  0  0  0  0
   -6.0020   16.0276  -33.3054 H   0  0  0  0  0  0  0  0  0  0  0  0
   -7.2480   17.5460  -32.3880 C   0  0  0  0  0  0  0  0  0  0  0  0
   -7.7315   16.8377  -31.6992 H   0  0  0  0  0  0  0  0  0  0  0  0
   -7.6060   18.9050  -32.3610 C   0  0  0  0  0  0  0  0  0  0  0  0
   -8.6240   19.4070  -31.3730 C   0  0  0  0  0  0  0  0  0  0  0  0
   -8.1142   19.6722  -30.4350 H   0  0  0  0  0  0  0  0  0  0  0  0
   -9.3641   18.6120  -31.1989 H   0  0  0  0  0  0  0  0  0  0  0  0
   -9.4940   20.8800  -32.0170 S   0  0  0  0  0  0  0  0  0  0  0  0
   -8.3090   22.0560  -31.3700 C   0  0  0  0  0  0  0  0  0  0  0  0
   -8.1110   22.2720  -30.0510 N   0  0  0  0  0  0  0  0  0  0  0  0
   -7.1730   23.1860  -29.8140 N   0  0  0  0  0  0  0  0  0  0  0  0
   -6.8930   23.4580  -28.8450 H   0  0  0  0  0  0  0  0  0  0  0  0
   -6.6260   23.7120  -30.9310 C   0  0  0  0  0  0  0  0  0  0  0  0
   -5.6570   24.5800  -30.8920 N   0  0  0  0  0  0  0  0  0  0  0  0
   -4.3550   24.3910  -30.3180 C   0  0  0  0  0  0  0  0  0  0  0  0
   -3.4920   25.2960  -30.4710 O   0  0  0  0  0  0  0  0  0  0  0  0
   -3.9850   23.1300  -29.5760 C   0  0  0  0  0  0  0  0  0  0  0  0
   -4.7213   22.9635  -28.7759 H   0  0  0  0  0  0  0  0  0  0  0  0
   -2.9706   23.2669  -29.1731 H   0  0  0  0  0  0  0  0  0  0  0  0
   -3.9600   21.8930  -30.4860 C   0  0  0  0  0  0  0  0  0  0  0  0
   -4.9294   21.3787  -30.4107 H   0  0  0  0  0  0  0  0  0  0  0  0
   -3.1353   21.2461  -30.1523 H   0  0  0  0  0  0  0  0  0  0  0  0
   -3.7080   22.2550  -31.9490 C   0  0  0  0  0  0  0  0  0  0  0  0
   -3.0802   23.1568  -32.0007 H   0  0  0  0  0  0  0  0  0  0  0  0
   -3.1941   21.4213  -32.4497 H   0  0  0  0  0  0  0  0  0  0  0  0
   -4.6683   22.4475  -32.4497 H   0  0  0  0  0  0  0  0  0  0  0  0
   -7.3050   23.0220  -32.3190 S   0  0  0  0  0  0  0  0  0  0  0  0
   -6.9810   19.7990  -33.2450 C   0  0  0  0  0  0  0  0  0  0  0  0
   -7.2535   20.8646  -33.2300 H   0  0  0  0  0  0  0  0  0  0  0  0
   -6.0130   19.3400  -34.1450 C   0  0  0  0  0  0  0  0  0  0  0  0
   -5.5280   20.0441  -34.8371 H   0  0  0  0  0  0  0  0  0  0  0  0
  1  2  1  0
  2  3  2  0
  3  4  1  0
  3  5  1  0
  5  6  1  0
  5  7  2  0
  7  8  1  0
  8  9  1  0
  8 10  1  0
  8 11  1  0
 11 12  1  0
 12 13  2  0
 13 14  1  0
 14 15  1  0
 14 16  1  0
 16 17  2  0
 17 18  1  0
 18 19  2  0
 18 20  1  0
 20 21  1  0
 20 22  1  0
 20 23  1  0
 23 24  1  0
 23 25  1  0
 23 26  1  0
 26 27  1  0
 26 28  1  0
 26 29  1  0
 16 30  1  0
  7 31  1  0
 31 32  1  0
 31 33  2  0
 33 34  1  0
 33  2  1  0
 30 12  1  0
M  END
>  <UniqueID>  (38) 
31

>  <SMILES>  (38) 
CCCC(=O)/N=c1/[nH]nc(SCc2ccccc2)s1

>  <Energy>  (38) 
64.93960638257363

>  <Genealogy>  (38) 
CCCC(=O)/N=c1/[nH]nc(SCc2ccccc2)s1 (cis-trans isomerization)
CCCC(=O)/N=c1/[nH]nc(SCc2ccccc2)s1 (3D coordinates assigned)
CCCC(=O)/N=c1/[nH]nc(SCc2ccccc2)s1 (optimized conformer: 64.93960638257363 kcal/mol)

>  <smiles>  (38) 
CCCC(=O)N=c1[nH]nc(SCc2ccccc2)s1

>  <score_type>  (38) 
oracle

>  <origin>  (38) 
adg

>  <m_score__min__energy>  (38) 
-8.5199999999999996

>  <m_primary>  (38) 
energy

$$$$
38:0
     RDKit          3D

 31 32  0  0  0  0  0  0  0  0999 V2000
   -8.9366   17.8461  -31.9277 H   0  0  0  0  0  0  0  0  0  0  0  0
   -8.2340   18.6680  -32.1300 C   0  0  0  0  0  0  0  0  0  0  0  0
   -8.4930   19.9470  -31.6290 C   0  0  0  0  0  0  0  0  0  0  0  0
   -9.4042   20.1294  -31.0404 H   0  0  0  0  0  0  0  0  0  0  0  0
   -7.5990   20.9980  -31.8720 C   0  0  0  0  0  0  0  0  0  0  0  0
   -7.8960   22.2990  -31.3420 N   0  0  0  0  0  0  0  0  0  0  0  0
   -7.2420   23.5250  -31.7000 C   0  0  0  0  0  0  0  0  0  0  0  0
   -7.0830   23.7960  -32.9170 O   0  0  0  0  0  0  0  0  0  0  0  0
   -6.7610   24.4500  -30.7140 N   0  0  0  0  0  0  0  0  0  0  0  0
   -5.5140   24.6220  -30.3860 C   0  0  0  0  0  0  0  0  0  0  0  0
   -4.6190   25.3250  -31.1060 N   0  0  0  0  0  0  0  0  0  0  0  0
   -3.4920   25.2490  -30.4600 O   0  0  0  0  0  0  0  0  0  0  0  0
   -3.6190   24.5270  -29.3680 C   0  0  0  0  0  0  0  0  0  0  0  0
   -2.5100   24.2550  -28.3920 C   0  0  0  0  0  0  0  0  0  0  0  0
   -2.2420   23.1893  -28.4423 H   0  0  0  0  0  0  0  0  0  0  0  0
   -1.2700   25.0770  -28.7560 C   0  0  0  0  0  0  0  0  0  0  0  0
   -0.7677   25.4100  -27.8358 H   0  0  0  0  0  0  0  0  0  0  0  0
   -0.5796   24.4571  -29.3468 H   0  0  0  0  0  0  0  0  0  0  0  0
   -1.5721   25.9543  -29.3468 H   0  0  0  0  0  0  0  0  0  0  0  0
   -2.9740   24.5670  -26.9670 C   0  0  0  0  0  0  0  0  0  0  0  0
   -2.2840   24.1030  -26.2469 H   0  0  0  0  0  0  0  0  0  0  0  0
   -2.9846   25.6564  -26.8151 H   0  0  0  0  0  0  0  0  0  0  0  0
   -3.9869   24.1658  -26.8151 H   0  0  0  0  0  0  0  0  0  0  0  0
   -4.9210   24.0820  -29.2680 C   0  0  0  0  0  0  0  0  0  0  0  0
   -5.3730   23.4518  -28.4879 H   0  0  0  0  0  0  0  0  0  0  0  0
   -6.4560   20.7620  -32.6570 C   0  0  0  0  0  0  0  0  0  0  0  0
   -5.7638   21.5874  -32.8797 H   0  0  0  0  0  0  0  0  0  0  0  0
   -6.1970   19.4820  -33.1550 C   0  0  0  0  0  0  0  0  0  0  0  0
   -5.2952   19.2995  -33.7579 H   0  0  0  0  0  0  0  0  0  0  0  0
   -7.0830   18.4320  -32.8880 C   0  0  0  0  0  0  0  0  0  0  0  0
   -6.7560   16.8270  -33.5150 Cl  0  0  0  0  0  0  0  0  0  0  0  0
  1  2  1  0
  2  3  2  0
  3  4  1  0
  3  5  1  0
  5  6  1  0
  6  7  1  0
  7  8  2  0
  7  9  1  0
  9 10  2  0
 10 11  1  0
 11 12  1  0
 12 13  1  0
 13 14  1  0
 14 15  1  0
 14 16  1  0
 16 17  1  0
 16 18  1  0
 16 19  1  0
 14 20  1  0
 20 21  1  0
 20 22  1  0
 20 23  1  0
 13 24  2  0
 24 25  1  0
  5 26  2  0
 26 27  1  0
 26 28  1  0
 28 29  1  0
 28 30  2  0
 30 31  1  0
 30  2  1  0
 24 10  1  0
M  CHG  2   6  -1  11  -1
M  END
>  <UniqueID>  (39) 
32

>  <SMILES>  (39) 
CC(C)c1c/c(=N/C(=O)[N-]c2ccc(Cl)cc2)[n-]o1

>  <Energy>  (39) 
64.62725825254675

>  <Genealogy>  (39) 
CC(C)c1cc(=NC(=O)[N-]c2ccc(Cl)cc2)[n-]o1 (protonated)
CC(C)c1c/c(=N/C(=O)[N-]c2ccc(Cl)cc2)[n-]o1 (cis-trans isomerization)
CC(C)c1c/c(=N/C(=O)[N-]c2ccc(Cl)cc2)[n-]o1 (3D coordinates assigned)
CC(C)c1c/c(=N/C(=O)[N-]c2ccc(Cl)cc2)[n-]o1 (optimized conformer: 64.62725825254675 kcal/mol)

>  <smiles>  (39) 
CC(C)c1cc(=NC(=O)Nc2ccc(Cl)cc2)[nH]o1

>  <score_type>  (39) 
oracle

>  <origin>  (39) 
adg

>  <m_score__min__energy>  (39) 
-9.5399999999999991

>  <m_primary>  (39) 
energy

$$$$
39:0
     RDKit          3D

 41 43  0  0  0  0  0  0  0  0999 V2000
    0.0470   20.1270  -32.3070 C   0  0  0  0  0  0  0  0  0  0  0  0
   -0.7580   21.4150  -32.1960 C   0  0  0  0  0  0  0  0  0  0  0  0
   -2.1890   21.1320  -31.9640 N   0  0  0  0  0  0  0  0  0  0  0  0
   -2.7310   21.1750  -30.6910 C   0  0  0  0  0  0  0  0  0  0  0  0
   -1.8160   21.8380  -29.2840 S   0  0  0  0  0  0  0  0  0  0  0  0
   -3.0670   23.0850  -28.7870 C   0  0  0  0  0  0  0  0  0  0  0  0
   -3.0520   24.3010  -29.6610 C   0  0  0  0  0  0  0  0  0  0  0  0
   -2.3490   25.2940  -29.3380 O   0  0  0  0  0  0  0  0  0  0  0  0
   -3.8750   24.3200  -30.8350 N   0  0  0  0  0  0  0  0  0  0  0  0
   -5.2290   23.8730  -31.0050 C   0  0  0  0  0  0  0  0  0  0  0  0
   -5.9380   23.4830  -29.8600 C   0  0  0  0  0  0  0  0  0  0  0  0
   -7.2400   22.9870  -29.9650 C   0  0  0  0  0  0  0  0  0  0  0  0
   -7.8450   22.8730  -31.2180 C   0  0  0  0  0  0  0  0  0  0  0  0
   -9.1080   22.3880  -31.3200 F   0  0  0  0  0  0  0  0  0  0  0  0
   -7.1460   23.2500  -32.3670 C   0  0  0  0  0  0  0  0  0  0  0  0
   -5.8420   23.7450  -32.2660 C   0  0  0  0  0  0  0  0  0  0  0  0
   -4.0210   20.7840  -30.4810 N   0  0  0  0  0  0  0  0  0  0  0  0
   -4.7920   20.4070  -31.5250 C   0  0  0  0  0  0  0  0  0  0  0  0
   -4.3160   20.4280  -32.7970 C   0  0  0  0  0  0  0  0  0  0  0  0
   -2.9910   20.7870  -33.0290 C   0  0  0  0  0  0  0  0  0  0  0  0
   -2.5450   20.7910  -34.2100 O   0  0  0  0  0  0  0  0  0  0  0  0
   -5.3530   20.0530  -33.7860 C   0  0  0  0  0  0  0  0  0  0  0  0
   -6.6140   19.8180  -32.9280 C   0  0  0  0  0  0  0  0  0  0  0  0
   -6.2190   20.0300  -31.4530 C   0  0  0  0  0  0  0  0  0  0  0  0
    0.2809   19.7528  -31.2994 H   0  0  0  0  0  0  0  0  0  0  0  0
   -0.5408   19.3729  -32.8509 H   0  0  0  0  0  0  0  0  0  0  0  0
    0.9824   20.3250  -32.8509 H   0  0  0  0  0  0  0  0  0  0  0  0
   -0.3692   22.0100  -31.3564 H   0  0  0  0  0  0  0  0  0  0  0  0
   -0.6612   21.9689  -33.1414 H   0  0  0  0  0  0  0  0  0  0  0  0
   -4.0643   22.6242  -28.8428 H   0  0  0  0  0  0  0  0  0  0  0  0
   -2.8242   23.4088  -27.7642 H   0  0  0  0  0  0  0  0  0  0  0  0
   -5.4651   23.5682  -28.8705 H   0  0  0  0  0  0  0  0  0  0  0  0
   -7.7885   22.6863  -29.0602 H   0  0  0  0  0  0  0  0  0  0  0  0
   -7.6225   23.1573  -33.3541 H   0  0  0  0  0  0  0  0  0  0  0  0
   -5.2937   24.0352  -33.1744 H   0  0  0  0  0  0  0  0  0  0  0  0
   -5.5170   20.8658  -34.5088 H   0  0  0  0  0  0  0  0  0  0  0  0
   -5.0735   19.1710  -34.3810 H   0  0  0  0  0  0  0  0  0  0  0  0
   -7.4001   20.5330  -33.2125 H   0  0  0  0  0  0  0  0  0  0  0  0
   -7.0024   18.8004  -33.0820 H   0  0  0  0  0  0  0  0  0  0  0  0
   -6.8153   20.8351  -30.9988 H   0  0  0  0  0  0  0  0  0  0  0  0
   -6.3945   19.1394  -30.8317 H   0  0  0  0  0  0  0  0  0  0  0  0
  1  2  1  0
  2  3  1  0
  3  4  1  0
  4  5  1  0
  5  6  1  0
  6  7  1  0
  7  8  2  0
  7  9  1  0
  9 10  1  0
 10 11  2  0
 11 12  1  0
 12 13  2  0
 13 14  1  0
 13 15  1  0
 15 16  2  0
  4 17  2  0
 17 18  1  0
 18 19  2  0
 19 20  1  0
 20 21  2  0
 19 22  1  0
 22 23  1  0
 23 24  1  0
 20  3  1  0
 16 10  1  0
 24 18  1  0
  1 25  1  0
  1 26  1  0
  1 27  1  0
  2 28  1  0
  2 29  1  0
  6 30  1  0
  6 31  1  0
 11 32  1  0
 12 33  1  0
 15 34  1  0
 16 35  1  0
 22 36  1  0
 22 37  1  0
 23 38  1  0
 23 39  1  0
 24 40  1  0
 24 41  1  0
M  CHG  1   9  -1
M  END
>  <UniqueID>  (40) 
33

>  <SMILES>  (40) 
CCn1c(SCC(=O)[N-]c2ccc(F)cc2)nc2c(c1=O)CCC2

>  <Energy>  (40) 
50.71874984388049

>  <Genealogy>  (40) 
CCn1c(SCC(=O)[N-]c2ccc(F)cc2)nc2c(c1=O)CCC2 (protonated)
CCn1c(SCC(=O)[N-]c2ccc(F)cc2)nc2c(c1=O)CCC2 (3D coordinates assigned)
CCn1c(SCC(=O)[N-]c2ccc(F)cc2)nc2c(c1=O)CCC2 (nonaromatic ring conformer: 50.71874984388049 kcal/mol)

>  <smiles>  (40) 
CCn1c(SCC(=O)Nc2ccc(F)cc2)nc2c(c1=O)CCC2

>  <score_type>  (40) 
oracle

>  <origin>  (40) 
adg

>  <m_score__min__energy>  (40) 
-10

>  <m_primary>  (40) 
energy

$$$$
40:0
     RDKit          3D

 48 50  0  0  0  0  0  0  0  0999 V2000
   -5.1300   17.8070  -34.9630 C   0  0  0  0  0  0  0  0  0  0  0  0
   -5.7680   18.4650  -33.7800 C   0  0  0  0  0  0  0  0  0  0  0  0
   -7.1050   18.2110  -33.4570 C   0  0  0  0  0  0  0  0  0  0  0  0
   -7.6510   18.8350  -32.3310 C   0  0  0  0  0  0  0  0  0  0  0  0
   -9.0640   18.5710  -31.9270 C   0  0  0  0  0  0  0  0  0  0  0  0
   -6.8700   19.6500  -31.5720 N   0  0  0  0  0  0  0  0  0  0  0  0
   -5.5660   19.8780  -31.8850 C   0  0  0  0  0  0  0  0  0  0  0  0
   -4.7750   20.7410  -31.0500 N   0  0  0  0  0  0  0  0  0  0  0  0
   -3.5050   20.4820  -30.7730 N   0  0  0  0  0  0  0  0  0  0  0  0
   -3.0450   21.4620  -29.9730 C   0  0  0  0  0  0  0  0  0  0  0  0
   -1.6370   21.5310  -29.4760 C   0  0  0  0  0  0  0  0  0  0  0  0
   -4.0570   22.3720  -29.7200 C   0  0  0  0  0  0  0  0  0  0  0  0
   -3.9550   23.6450  -28.9270 C   0  0  0  0  0  0  0  0  0  0  0  0
   -3.3240   24.7170  -29.7570 C   0  0  0  0  0  0  0  0  0  0  0  0
   -3.8600   25.0720  -30.8410 O   0  0  0  0  0  0  0  0  0  0  0  0
   -2.0880   25.3000  -29.3360 N   0  0  0  0  0  0  0  0  0  0  0  0
   -1.0310   24.5320  -28.6920 C   0  0  0  0  0  0  0  0  0  0  0  0
   -0.9690   24.9020  -27.2330 C   0  0  0  0  0  0  0  0  0  0  0  0
   -1.9810   25.7230  -26.7020 C   0  0  0  0  0  0  0  0  0  0  0  0
   -1.9450   26.1220  -25.3640 C   0  0  0  0  0  0  0  0  0  0  0  0
   -0.8920   25.7120  -24.5410 C   0  0  0  0  0  0  0  0  0  0  0  0
   -0.8500   26.1030  -23.2430 F   0  0  0  0  0  0  0  0  0  0  0  0
    0.1230   24.9040  -25.0570 C   0  0  0  0  0  0  0  0  0  0  0  0
    0.0980   24.5000  -26.3970 C   0  0  0  0  0  0  0  0  0  0  0  0
    1.4270   23.5020  -26.9840 Cl  0  0  0  0  0  0  0  0  0  0  0  0
   -5.1460   21.8900  -30.4340 C   0  0  0  0  0  0  0  0  0  0  0  0
   -6.4970   22.5390  -30.5350 C   0  0  0  0  0  0  0  0  0  0  0  0
   -5.0300   19.2830  -32.9860 N   0  0  0  0  0  0  0  0  0  0  0  0
   -4.4030   17.0572  -34.6177 H   0  0  0  0  0  0  0  0  0  0  0  0
   -5.9038   17.3149  -35.5704 H   0  0  0  0  0  0  0  0  0  0  0  0
   -4.6142   18.5653  -35.5704 H   0  0  0  0  0  0  0  0  0  0  0  0
   -7.7138   17.5350  -34.0754 H   0  0  0  0  0  0  0  0  0  0  0  0
   -9.1351   18.5577  -30.8294 H   0  0  0  0  0  0  0  0  0  0  0  0
   -9.7139   19.3633  -32.3270 H   0  0  0  0  0  0  0  0  0  0  0  0
   -9.3840   17.5975  -32.3270 H   0  0  0  0  0  0  0  0  0  0  0  0
   -1.6360   21.5310  -28.3760 H   0  0  0  0  0  0  0  0  0  0  0  0
   -1.0754   20.6593  -29.8431 H   0  0  0  0  0  0  0  0  0  0  0  0
   -1.1634   22.4534  -29.8431 H   0  0  0  0  0  0  0  0  0  0  0  0
   -4.9621   23.9658  -28.6224 H   0  0  0  0  0  0  0  0  0  0  0  0
   -3.3344   23.4663  -28.0365 H   0  0  0  0  0  0  0  0  0  0  0  0
   -1.2447   23.4575  -28.7904 H   0  0  0  0  0  0  0  0  0  0  0  0
   -0.0667   24.7559  -29.1715 H   0  0  0  0  0  0  0  0  0  0  0  0
   -2.8084   26.0537  -27.3469 H   0  0  0  0  0  0  0  0  0  0  0  0
   -2.7449   26.7586  -24.9580 H   0  0  0  0  0  0  0  0  0  0  0  0
    0.9488   24.5824  -24.4054 H   0  0  0  0  0  0  0  0  0  0  0  0
   -6.8896   22.7276  -29.5249 H   0  0  0  0  0  0  0  0  0  0  0  0
   -6.4064   23.4919  -31.0770 H   0  0  0  0  0  0  0  0  0  0  0  0
   -7.1842   21.8727  -31.0770 H   0  0  0  0  0  0  0  0  0  0  0  0
  1  2  1  0
  2  3  2  0
  3  4  1  0
  4  5  1  0
  4  6  2  0
  6  7  1  0
  7  8  1  0
  8  9  1  0
  9 10  2  0
 10 11  1  0
 10 12  1  0
 12 13  1  0
 13 14  1  0
 14 15  2  0
 14 16  1  0
 16 17  1  0
 17 18  1  0
 18 19  2  0
 19 20  1  0
 20 21  2  0
 21 22  1  0
 21 23  1  0
 23 24  2  0
 24 25  1  0
 12 26  2  0
 26 27  1  0
  7 28  2  0
 28  2  1  0
 26  8  1  0
 24 18  1  0
  1 29  1  0
  1 30  1  0
  1 31  1  0
  3 32  1  0
  5 33  1  0
  5 34  1  0
  5 35  1  0
 11 36  1  0
 11 37  1  0
 11 38  1  0
 13 39  1  0
 13 40  1  0
 17 41  1  0
 17 42  1  0
 19 43  1  0
 20 44  1  0
 23 45  1  0
 27 46  1  0
 27 47  1  0
 27 48  1  0
M  CHG  1  16  -1
M  END
>  <UniqueID>  (41) 
34

>  <SMILES>  (41) 
Cc1cc(C)nc(-n2nc(C)c(CC(=O)[N-]Cc3ccc(F)cc3Cl)c2C)n1

>  <Energy>  (41) 
74.6525063728958

>  <Genealogy>  (41) 
Cc1cc(C)nc(-n2nc(C)c(CC(=O)[N-]Cc3ccc(F)cc3Cl)c2C)n1 (protonated)
Cc1cc(C)nc(-n2nc(C)c(CC(=O)[N-]Cc3ccc(F)cc3Cl)c2C)n1 (3D coordinates assigned)
Cc1cc(C)nc(-n2nc(C)c(CC(=O)[N-]Cc3ccc(F)cc3Cl)c2C)n1 (optimized conformer: 74.6525063728958 kcal/mol)

>  <smiles>  (41) 
Cc1cc(C)nc(-n2nc(C)c(CC(=O)NCc3ccc(F)cc3Cl)c2C)n1

>  <score_type>  (41) 
oracle

>  <origin>  (41) 
adg

>  <m_score__min__energy>  (41) 
-10.640000000000001

>  <m_primary>  (41) 
energy

$$$$
41:0
     RDKit          3D

 33 36  0  0  0  0  0  0  0  0999 V2000
   -5.1950   21.1200  -32.0370 C   0  0  0  0  0  0  0  0  0  0  0  0
   -6.2340   20.3120  -32.3340 C   0  0  0  0  0  0  0  0  0  0  0  0
   -6.0010   19.0000  -32.9770 C   0  0  0  0  0  0  0  0  0  0  0  0
   -6.0600   17.8170  -32.2200 C   0  0  0  0  0  0  0  0  0  0  0  0
   -5.8380   16.5780  -32.8310 C   0  0  0  0  0  0  0  0  0  0  0  0
   -5.5600   16.5120  -34.1980 C   0  0  0  0  0  0  0  0  0  0  0  0
   -5.5080   17.6820  -34.9590 C   0  0  0  0  0  0  0  0  0  0  0  0
   -5.7290   18.9230  -34.3520 C   0  0  0  0  0  0  0  0  0  0  0  0
   -7.5670   20.7470  -32.0070 N   0  0  0  0  0  0  0  0  0  0  0  0
   -8.8390   20.1800  -32.4170 C   0  0  0  0  0  0  0  0  0  0  0  0
   -9.8640   21.2390  -31.9620 C   0  0  0  0  0  0  0  0  0  0  0  0
   -9.0700   22.3420  -31.4260 N   0  0  0  0  0  0  0  0  0  0  0  0
   -7.8250   22.0200  -31.4650 C   0  0  0  0  0  0  0  0  0  0  0  0
   -6.7090   22.9020  -31.1020 C   0  0  0  0  0  0  0  0  0  0  0  0
   -6.9030   24.1560  -30.5050 C   0  0  0  0  0  0  0  0  0  0  0  0
   -5.8000   24.9530  -30.1890 C   0  0  0  0  0  0  0  0  0  0  0  0
   -4.5050   24.5050  -30.4680 C   0  0  0  0  0  0  0  0  0  0  0  0
   -4.3060   23.2560  -31.0670 C   0  0  0  0  0  0  0  0  0  0  0  0
   -5.4040   22.4450  -31.3880 C   0  0  0  0  0  0  0  0  0  0  0  0
   -4.1727   20.7939  -32.2789 H   0  0  0  0  0  0  0  0  0  0  0  0
   -6.2815   17.8655  -31.1436 H   0  0  0  0  0  0  0  0  0  0  0  0
   -5.8825   15.6551  -32.2341 H   0  0  0  0  0  0  0  0  0  0  0  0
   -5.3818   15.5374  -34.6759 H   0  0  0  0  0  0  0  0  0  0  0  0
   -5.2931   17.6277  -36.0364 H   0  0  0  0  0  0  0  0  0  0  0  0
   -5.6894   19.8423  -34.9548 H   0  0  0  0  0  0  0  0  0  0  0  0
   -8.8747   20.0403  -33.5075 H   0  0  0  0  0  0  0  0  0  0  0  0
   -9.0264   19.1863  -31.9840 H   0  0  0  0  0  0  0  0  0  0  0  0
  -10.4698   21.5796  -32.8147 H   0  0  0  0  0  0  0  0  0  0  0  0
  -10.5631   20.8369  -31.2140 H   0  0  0  0  0  0  0  0  0  0  0  0
   -7.9208   24.5111  -30.2861 H   0  0  0  0  0  0  0  0  0  0  0  0
   -5.9507   25.9361  -29.7192 H   0  0  0  0  0  0  0  0  0  0  0  0
   -3.6402   25.1363  -30.2159 H   0  0  0  0  0  0  0  0  0  0  0  0
   -3.2854   22.9094  -31.2866 H   0  0  0  0  0  0  0  0  0  0  0  0
  1  2  2  0
  2  3  1  0
  3  4  2  0
  4  5  1  0
  5  6  2  0
  6  7  1  0
  7  8  2  0
  2  9  1  0
  9 10  1  0
 10 11  1  0
 11 12  1  0
 12 13  2  0
 13 14  1  0
 14 15  2  0
 15 16  1  0
 16 17  2  0
 17 18  1  0
 18 19  2  0
 19  1  1  0
  8  3  1  0
 13  9  1  0
 19 14  1  0
  1 20  1  0
  4 21  1  0
  5 22  1  0
  6 23  1  0
  7 24  1  0
  8 25  1  0
 10 26  1  0
 10 27  1  0
 11 28  1  0
 11 29  1  0
 15 30  1  0
 16 31  1  0
 17 32  1  0
 18 33  1  0
M  END
>  <UniqueID>  (42) 
35

>  <SMILES>  (42) 
C1=C(c2ccccc2)N2CCN=C2c2ccccc21

>  <Energy>  (42) 
58.58017136203687

>  <Genealogy>  (42) 
C1=C(c2ccccc2)N2CCN=C2c2ccccc21 (3D coordinates assigned)
C1=C(c2ccccc2)N2CCN=C2c2ccccc21 (nonaromatic ring conformer: 58.58017136203687 kcal/mol)

>  <smiles>  (42) 
C1=C(c2ccccc2)N2CCN=C2c2ccccc21

>  <score_type>  (42) 
oracle

>  <origin>  (42) 
adg

>  <m_score__min__energy>  (42) 
-8.1699999999999999

>  <m_primary>  (42) 
energy

$$$$
42:0
     RDKit          3D

 46 47  0  0  0  0  0  0  0  0999 V2000
   -7.7330   20.0500  -32.7780 C   0  0  0  0  0  0  0  0  0  0  0  0
   -6.4540   19.9800  -33.6100 C   0  0  0  0  0  0  0  0  0  0  0  0
   -5.3470   19.1940  -32.8980 C   0  0  0  0  0  0  0  0  0  0  0  0
   -4.0610   19.3660  -33.5870 N   0  0  0  0  0  0  0  0  0  0  0  0
   -2.9530   19.2760  -32.6290 C   0  0  0  0  0  0  0  0  0  0  0  0
   -1.7210   20.0170  -33.1680 C   0  0  1  0  0  0  0  0  0  0  0  0
   -1.9250   20.3490  -34.5160 O   0  0  0  0  0  0  0  0  0  0  0  0
   -1.3890   21.2800  -32.3400 C   0  0  0  0  0  0  0  0  0  0  0  0
   -2.5630   21.8020  -31.6010 N   0  0  0  0  0  0  0  0  0  0  0  0
   -2.5890   21.8300  -30.2210 C   0  0  0  0  0  0  0  0  0  0  0  0
   -1.1670   21.3780  -29.2080 S   0  0  0  0  0  0  0  0  0  0  0  0
   -1.3810   22.7470  -28.0190 C   0  0  0  0  0  0  0  0  0  0  0  0
   -1.1290   24.0690  -28.6750 C   0  0  0  0  0  0  0  0  0  0  0  0
   -2.1800   24.7430  -29.3660 N   0  0  0  0  0  0  0  0  0  0  0  0
    0.0080   24.6040  -28.5920 O   0  0  0  0  0  0  0  0  0  0  0  0
   -3.7100   22.2260  -29.5650 N   0  0  0  0  0  0  0  0  0  0  0  0
   -4.8180   22.6320  -30.2240 C   0  0  0  0  0  0  0  0  0  0  0  0
   -5.9520   23.0320  -29.5080 C   0  0  0  0  0  0  0  0  0  0  0  0
   -7.0910   23.4680  -30.1900 C   0  0  0  0  0  0  0  0  0  0  0  0
   -7.1000   23.5070  -31.5860 C   0  0  0  0  0  0  0  0  0  0  0  0
   -5.9700   23.1090  -32.3080 C   0  0  0  0  0  0  0  0  0  0  0  0
   -4.8190   22.6650  -31.6290 C   0  0  0  0  0  0  0  0  0  0  0  0
   -3.6600   22.2480  -32.3050 C   0  0  0  0  0  0  0  0  0  0  0  0
   -3.6330   22.2880  -33.5670 O   0  0  0  0  0  0  0  0  0  0  0  0
   -7.4760   20.0359  -31.7085 H   0  0  0  0  0  0  0  0  0  0  0  0
   -8.2730   20.9790  -33.0131 H   0  0  0  0  0  0  0  0  0  0  0  0
   -8.3712   19.1854  -33.0131 H   0  0  0  0  0  0  0  0  0  0  0  0
   -6.6797   19.4873  -34.5672 H   0  0  0  0  0  0  0  0  0  0  0  0
   -6.0940   21.0076  -33.7661 H   0  0  0  0  0  0  0  0  0  0  0  0
   -5.2539   19.5578  -31.8641 H   0  0  0  0  0  0  0  0  0  0  0  0
   -5.6114   18.1263  -32.9052 H   0  0  0  0  0  0  0  0  0  0  0  0
   -4.0520   20.3280  -34.0030 H   0  0  0  0  0  0  0  0  0  0  0  0
   -3.2604   19.7292  -31.6750 H   0  0  0  0  0  0  0  0  0  0  0  0
   -2.6959   18.2172  -32.4777 H   0  0  0  0  0  0  0  0  0  0  0  0
   -0.8558   19.3433  -33.0805 H   0  0  0  0  0  0  0  0  0  0  0  0
   -2.7750   20.8600  -34.5600 H   0  0  0  0  0  0  0  0  0  0  0  0
   -0.5999   21.0291  -31.6158 H   0  0  0  0  0  0  0  0  0  0  0  0
   -1.0623   22.0618  -33.0414 H   0  0  0  0  0  0  0  0  0  0  0  0
   -2.4097   22.7284  -27.6298 H   0  0  0  0  0  0  0  0  0  0  0  0
   -0.6579   22.6175  -27.2003 H   0  0  0  0  0  0  0  0  0  0  0  0
   -3.1330   24.3220  -29.4240 H   0  0  0  0  0  0  0  0  0  0  0  0
   -2.0090   25.6730  -29.8090 H   0  0  0  0  0  0  0  0  0  0  0  0
   -5.9467   23.0032  -28.4084 H   0  0  0  0  0  0  0  0  0  0  0  0
   -7.9822   23.7811  -29.6263 H   0  0  0  0  0  0  0  0  0  0  0  0
   -7.9982   23.8517  -32.1193 H   0  0  0  0  0  0  0  0  0  0  0  0
   -5.9805   23.1429  -33.4074 H   0  0  0  0  0  0  0  0  0  0  0  0
  1  2  1  0
  2  3  1  0
  3  4  1  0
  4  5  1  0
  5  6  1  0
  6  7  1  0
  6  8  1  0
  8  9  1  0
  9 10  1  0
 10 11  1  0
 11 12  1  0
 12 13  1  0
 13 14  1  0
 13 15  2  0
 10 16  2  0
 16 17  1  0
 17 18  2  0
 18 19  1  0
 19 20  2  0
 20 21  1  0
 21 22  2  0
 22 23  1  0
 23 24  2  0
 23  9  1  0
 22 17  1  0
  1 25  1  0
  1 26  1  0
  1 27  1  0
  2 28  1  0
  2 29  1  0
  3 30  1  0
  3 31  1  0
  4 32  1  0
  5 33  1  0
  5 34  1  0
  6 35  1  6
  7 36  1  0
  8 37  1  0
  8 38  1  0
 12 39  1  0
 12 40  1  0
 14 41  1  0
 14 42  1  0
 18 43  1  0
 19 44  1  0
 20 45  1  0
 21 46  1  0
M  END
>  <UniqueID>  (43) 
36

>  <SMILES>  (43) 
CCCNC[C@@H](O)Cn1c(SCC(N)=O)nc2ccccc2c1=O

>  <Energy>  (43) 
39.77251287273017

>  <Genealogy>  (43) 
CCCNC[C@@H](O)Cn1c(SCC(N)=O)nc2ccccc2c1=O (chirality)
CCCNC[C@@H](O)Cn1c(SCC(N)=O)nc2ccccc2c1=O (3D coordinates assigned)
CCCNC[C@@H](O)Cn1c(SCC(N)=O)nc2ccccc2c1=O (optimized conformer: 39.77251287273017 kcal/mol)

>  <smiles>  (43) 
CCCNCC(O)Cn1c(SCC(N)=O)nc2ccccc2c1=O

>  <score_type>  (43) 
oracle

>  <origin>  (43) 
adg

>  <m_score__min__energy>  (43) 
-7.4299999999999997

>  <m_primary>  (43) 
energy

$$$$
43:0
     RDKit          3D

 43 44  0  0  0  0  0  0  0  0999 V2000
   -1.6040   26.3410  -25.3790 C   0  0  0  0  0  0  0  0  0  0  0  0
   -2.3480   25.3440  -26.2690 C   0  0  0  0  0  0  0  0  0  0  0  0
   -1.4030   24.5560  -27.1940 C   0  0  0  0  0  0  0  0  0  0  0  0
   -1.7810   24.6600  -28.6520 C   0  0  0  0  0  0  0  0  0  0  0  0
   -1.3370   25.6160  -29.3440 O   0  0  0  0  0  0  0  0  0  0  0  0
   -2.6530   23.6890  -29.2660 N   0  0  0  0  0  0  0  0  0  0  0  0
   -2.2750   22.2720  -29.2040 C   0  0  0  0  0  0  0  0  0  0  0  0
   -3.4760   21.3510  -29.4270 C   0  0  0  0  0  0  0  0  0  0  0  0
   -4.2870   21.7300  -30.6070 N   0  0  2  0  0  0  0  0  0  0  0  0
   -3.6890   21.3380  -31.9230 C   0  0  0  0  0  0  0  0  0  0  0  0
   -4.6450   21.0410  -33.1190 C   0  0  0  0  0  0  0  0  0  0  0  0
   -6.0640   20.6910  -32.7240 C   0  0  0  0  0  0  0  0  0  0  0  0
   -6.9410   21.7160  -32.3200 C   0  0  0  0  0  0  0  0  0  0  0  0
   -8.2570   21.4260  -31.9560 C   0  0  0  0  0  0  0  0  0  0  0  0
   -8.7090   20.1070  -31.9620 C   0  0  0  0  0  0  0  0  0  0  0  0
   -7.8390   19.0720  -32.3080 C   0  0  0  0  0  0  0  0  0  0  0  0
   -6.5160   19.3490  -32.6740 C   0  0  0  0  0  0  0  0  0  0  0  0
   -5.4480   17.9850  -32.9880 Cl  0  0  0  0  0  0  0  0  0  0  0  0
   -4.8130   23.1070  -30.4970 C   0  0  0  0  0  0  0  0  0  0  0  0
   -3.7540   24.0950  -30.1040 C   0  0  0  0  0  0  0  0  0  0  0  0
   -3.8650   25.2920  -30.4870 O   0  0  0  0  0  0  0  0  0  0  0  0
   -1.7866   26.0964  -24.3222 H   0  0  0  0  0  0  0  0  0  0  0  0
   -0.5254   26.2847  -25.5874 H   0  0  0  0  0  0  0  0  0  0  0  0
   -1.9650   27.3590  -25.5874 H   0  0  0  0  0  0  0  0  0  0  0  0
   -2.8866   24.6319  -25.6265 H   0  0  0  0  0  0  0  0  0  0  0  0
   -3.0373   25.9168  -26.9068 H   0  0  0  0  0  0  0  0  0  0  0  0
   -0.3827   24.9471  -27.0678 H   0  0  0  0  0  0  0  0  0  0  0  0
   -1.4747   23.4955  -26.9107 H   0  0  0  0  0  0  0  0  0  0  0  0
   -1.5230   22.0702  -29.9810 H   0  0  0  0  0  0  0  0  0  0  0  0
   -1.8723   22.0702  -28.2005 H   0  0  0  0  0  0  0  0  0  0  0  0
   -3.1081   20.3243  -29.5701 H   0  0  0  0  0  0  0  0  0  0  0  0
   -4.1240   21.4365  -28.5422 H   0  0  0  0  0  0  0  0  0  0  0  0
   -5.1380   21.1210  -30.5220 H   0  0  0  0  0  0  0  0  0  0  0  0
   -3.0251   22.1579  -32.2345 H   0  0  0  0  0  0  0  0  0  0  0  0
   -3.2051   20.3712  -31.7202 H   0  0  0  0  0  0  0  0  0  0  0  0
   -4.6785   21.9339  -33.7606 H   0  0  0  0  0  0  0  0  0  0  0  0
   -4.2377   20.1558  -33.6294 H   0  0  0  0  0  0  0  0  0  0  0  0
   -6.5852   22.7565  -32.2909 H   0  0  0  0  0  0  0  0  0  0  0  0
   -8.9382   22.2389  -31.6641 H   0  0  0  0  0  0  0  0  0  0  0  0
   -9.7518   19.8820  -31.6939 H   0  0  0  0  0  0  0  0  0  0  0  0
   -8.1950   18.0313  -32.2931 H   0  0  0  0  0  0  0  0  0  0  0  0
   -5.2298   23.4046  -31.4705 H   0  0  0  0  0  0  0  0  0  0  0  0
   -5.5824   23.1100  -29.7108 H   0  0  0  0  0  0  0  0  0  0  0  0
  1  2  1  0
  2  3  1  0
  3  4  1  0
  4  5  2  0
  4  6  1  0
  6  7  1  0
  7  8  1  0
  8  9  1  0
  9 10  1  0
 10 11  1  0
 11 12  1  0
 12 13  2  0
 13 14  1  0
 14 15  2  0
 15 16  1  0
 16 17  2  0
 17 18  1  0
  9 19  1  0
 19 20  1  0
 20 21  2  0
 20  6  1  0
 17 12  1  0
  1 22  1  0
  1 23  1  0
  1 24  1  0
  2 25  1  0
  2 26  1  0
  3 27  1  0
  3 28  1  0
  7 29  1  0
  7 30  1  0
  8 31  1  0
  8 32  1  0
  9 33  1  1
 10 34  1  0
 10 35  1  0
 11 36  1  0
 11 37  1  0
 13 38  1  0
 14 39  1  0
 15 40  1  0
 16 41  1  0
 19 42  1  0
 19 43  1  0
M  CHG  1   9   1
M  END
>  <UniqueID>  (44) 
37

>  <SMILES>  (44) 
CCCC(=O)N1CC[N@H+](CCc2ccccc2Cl)CC1=O

>  <Energy>  (44) 
58.48478721022571

>  <Genealogy>  (44) 
CCCC(=O)N1CC[NH+](CCc2ccccc2Cl)CC1=O (protonated)
CCCC(=O)N1CC[N@H+](CCc2ccccc2Cl)CC1=O (chirality)
CCCC(=O)N1CC[N@H+](CCc2ccccc2Cl)CC1=O (3D coordinates assigned)
CCCC(=O)N1CC[N@H+](CCc2ccccc2Cl)CC1=O (nonaromatic ring conformer: 58.48478721022571 kcal/mol)

>  <smiles>  (44) 
CCCC(=O)N1CCN(CCc2ccccc2Cl)CC1=O

>  <score_type>  (44) 
oracle

>  <origin>  (44) 
adg

>  <m_score__min__energy>  (44) 
-7.3600000000000003

>  <m_primary>  (44) 
energy

$$$$
44:0
     RDKit          3D

 48 52  0  0  0  0  0  0  0  0999 V2000
   -3.5420   24.9760  -30.7990 O   0  0  0  0  0  0  0  0  0  0  0  0
   -4.8370   24.4700  -30.6930 C   0  0  0  0  0  0  0  0  0  0  0  0
   -5.9160   25.3530  -30.5300 C   0  0  0  0  0  0  0  0  0  0  0  0
   -7.2240   24.8660  -30.4700 C   0  0  0  0  0  0  0  0  0  0  0  0
   -7.4650   23.4950  -30.5760 C   0  0  0  0  0  0  0  0  0  0  0  0
   -6.3980   22.6070  -30.7320 C   0  0  0  0  0  0  0  0  0  0  0  0
   -5.0750   23.0790  -30.7740 C   0  0  0  0  0  0  0  0  0  0  0  0
   -3.9680   22.1080  -30.9380 C   0  0  0  0  0  0  0  0  0  0  0  0
   -2.8490   22.1160  -30.0690 C   0  0  0  0  0  0  0  0  0  0  0  0
   -1.8040   21.1710  -30.2470 C   0  0  0  0  0  0  0  0  0  0  0  0
   -0.6280   21.1600  -29.3750 N   0  0  0  0  0  0  0  0  0  0  0  0
   -0.3660   22.3000  -28.4750 C   0  0  0  0  0  0  0  0  0  0  0  0
    0.9760   22.1980  -27.7540 C   0  0  0  0  0  0  0  0  0  0  0  0
    1.1790   20.8850  -27.2890 O   0  0  0  0  0  0  0  0  0  0  0  0
    1.4350   20.0590  -28.4000 C   0  0  0  0  0  0  0  0  0  0  0  0
    0.2080   19.9400  -29.3170 C   0  0  0  0  0  0  0  0  0  0  0  0
   -1.9690   20.2860  -31.2800 N   0  0  0  0  0  0  0  0  0  0  0  0
   -1.1590   19.3310  -31.7160 N   0  0  0  0  0  0  0  0  0  0  0  0
   -1.6940   18.7160  -32.7680 N   0  0  0  0  0  0  0  0  0  0  0  0
   -2.8870   19.3030  -33.0070 C   0  0  0  0  0  0  0  0  0  0  0  0
   -4.0000   18.8760  -34.3410 S   0  0  0  0  0  0  0  0  0  0  0  0
   -5.4380   18.9390  -33.2750 C   0  0  0  0  0  0  0  0  0  0  0  0
   -5.5850   18.0050  -32.2410 C   0  0  0  0  0  0  0  0  0  0  0  0
   -6.7040   18.0580  -31.4040 C   0  0  0  0  0  0  0  0  0  0  0  0
   -7.6780   19.0420  -31.6000 C   0  0  0  0  0  0  0  0  0  0  0  0
   -7.5340   19.9740  -32.6320 C   0  0  0  0  0  0  0  0  0  0  0  0
   -6.4170   19.9220  -33.4710 C   0  0  0  0  0  0  0  0  0  0  0  0
   -3.0450   20.2860  -32.0700 C   0  0  0  0  0  0  0  0  0  0  0  0
   -4.0520   21.1730  -31.9280 N   0  0  0  0  0  0  0  0  0  0  0  0
   -3.2550   25.5420  -31.5890 H   0  0  0  0  0  0  0  0  0  0  0  0
   -5.7306   26.4342  -30.4491 H   0  0  0  0  0  0  0  0  0  0  0  0
   -8.0646   25.5633  -30.3391 H   0  0  0  0  0  0  0  0  0  0  0  0
   -8.4960   23.1137  -30.5366 H   0  0  0  0  0  0  0  0  0  0  0  0
   -6.5951   21.5286  -30.8228 H   0  0  0  0  0  0  0  0  0  0  0  0
   -2.7896   22.8546  -29.2560 H   0  0  0  0  0  0  0  0  0  0  0  0
   -0.3742   23.2250  -29.0702 H   0  0  0  0  0  0  0  0  0  0  0  0
   -1.1524   22.2981  -27.7059 H   0  0  0  0  0  0  0  0  0  0  0  0
    1.7841   22.4659  -28.4506 H   0  0  0  0  0  0  0  0  0  0  0  0
    0.9761   22.8868  -26.8963 H   0  0  0  0  0  0  0  0  0  0  0  0
    2.2698   20.4851  -28.9757 H   0  0  0  0  0  0  0  0  0  0  0  0
    1.6833   19.0537  -28.0288 H   0  0  0  0  0  0  0  0  0  0  0  0
    0.5588   19.7138  -30.3347 H   0  0  0  0  0  0  0  0  0  0  0  0
   -0.4241   19.1439  -28.8967 H   0  0  0  0  0  0  0  0  0  0  0  0
   -4.8199   17.2297  -32.0876 H   0  0  0  0  0  0  0  0  0  0  0  0
   -6.8180   17.3255  -30.5913 H   0  0  0  0  0  0  0  0  0  0  0  0
   -8.5583   19.0828  -30.9416 H   0  0  0  0  0  0  0  0  0  0  0  0
   -8.3000   20.7487  -32.7839 H   0  0  0  0  0  0  0  0  0  0  0  0
   -6.3066   20.6531  -34.2854 H   0  0  0  0  0  0  0  0  0  0  0  0
  1  2  1  0
  2  3  2  0
  3  4  1  0
  4  5  2  0
  5  6  1  0
  6  7  2  0
  7  8  1  0
  8  9  1  0
  9 10  2  0
 10 11  1  0
 11 12  1  0
 12 13  1  0
 13 14  1  0
 14 15  1  0
 15 16  1  0
 10 17  1  0
 17 18  1  0
 18 19  2  0
 19 20  1  0
 20 21  1  0
 21 22  1  0
 22 23  2  0
 23 24  1  0
 24 25  2  0
 25 26  1  0
 26 27  2  0
 20 28  2  0
 28 29  1  0
  7  2  1  0
 29  8  2  0
 16 11  1  0
 28 17  1  0
 27 22  1  0
  1 30  1  0
  3 31  1  0
  4 32  1  0
  5 33  1  0
  6 34  1  0
  9 35  1  0
 12 36  1  0
 12 37  1  0
 13 38  1  0
 13 39  1  0
 15 40  1  0
 15 41  1  0
 16 42  1  0
 16 43  1  0
 23 44  1  0
 24 45  1  0
 25 46  1  0
 26 47  1  0
 27 48  1  0
M  END
>  <UniqueID>  (45) 
38

>  <SMILES>  (45) 
Oc1ccccc1-c1cc(N2CCOCC2)n2nnc(Sc3ccccc3)c2n1

>  <Energy>  (45) 
108.18423194763326

>  <Genealogy>  (45) 
Oc1ccccc1-c1cc(N2CCOCC2)n2nnc(Sc3ccccc3)c2n1 (3D coordinates assigned)
Oc1ccccc1-c1cc(N2CCOCC2)n2nnc(Sc3ccccc3)c2n1 (nonaromatic ring conformer: 108.18423194763326 kcal/mol)

>  <smiles>  (45) 
Oc1ccccc1-c1cc(N2CCOCC2)n2nnc(Sc3ccccc3)c2n1

>  <score_type>  (45) 
oracle

>  <origin>  (45) 
adg

>  <m_score__min__energy>  (45) 
-9.8599999999999994

>  <m_primary>  (45) 
energy

$$$$
45:0
     RDKit          3D

 34 36  0  0  0  0  0  0  0  0999 V2000
   -9.0750   23.0310  -31.9700 C   0  0  0  0  0  0  0  0  0  0  0  0
   -7.8030   23.4150  -32.4820 O   0  0  0  0  0  0  0  0  0  0  0  0
   -6.6570   23.6300  -31.6990 C   0  0  0  0  0  0  0  0  0  0  0  0
   -6.4220   24.8620  -31.0580 C   0  0  0  0  0  0  0  0  0  0  0  0
   -5.2930   25.0430  -30.2590 C   0  0  0  0  0  0  0  0  0  0  0  0
   -4.3740   24.0010  -30.0780 C   0  0  0  0  0  0  0  0  0  0  0  0
   -3.1840   24.2060  -29.2250 C   0  0  0  0  0  0  0  0  0  0  0  0
   -2.8270   23.3830  -28.3000 N   0  0  0  0  0  0  0  0  0  0  0  0
   -1.6210   23.8830  -27.6570 C   0  0  0  0  0  0  0  0  0  0  0  0
   -1.3090   25.1960  -28.3860 C   0  0  0  0  0  0  0  0  0  0  0  0
   -2.3470   25.2980  -29.3430 O   0  0  0  0  0  0  0  0  0  0  0  0
   -4.6000   22.7720  -30.7190 C   0  0  0  0  0  0  0  0  0  0  0  0
   -5.7290   22.5800  -31.5340 C   0  0  0  0  0  0  0  0  0  0  0  0
   -5.9280   21.2730  -32.2050 C   0  0  0  0  0  0  0  0  0  0  0  0
   -4.9650   20.7710  -33.0990 C   0  0  0  0  0  0  0  0  0  0  0  0
   -5.1550   19.5330  -33.7210 C   0  0  0  0  0  0  0  0  0  0  0  0
   -6.3020   18.7830  -33.4530 C   0  0  0  0  0  0  0  0  0  0  0  0
   -7.2620   19.2680  -32.5610 C   0  0  0  0  0  0  0  0  0  0  0  0
   -7.0760   20.5060  -31.9360 C   0  0  0  0  0  0  0  0  0  0  0  0
   -9.0455   23.0399  -30.8704 H   0  0  0  0  0  0  0  0  0  0  0  0
   -9.8406   23.7381  -32.3220 H   0  0  0  0  0  0  0  0  0  0  0  0
   -9.3215   22.0184  -32.3220 H   0  0  0  0  0  0  0  0  0  0  0  0
   -7.1354   25.6891  -31.1887 H   0  0  0  0  0  0  0  0  0  0  0  0
   -5.1228   26.0119  -29.7669 H   0  0  0  0  0  0  0  0  0  0  0  0
   -1.7988   24.0658  -26.5870 H   0  0  0  0  0  0  0  0  0  0  0  0
   -0.7892   23.1657  -27.7158 H   0  0  0  0  0  0  0  0  0  0  0  0
   -1.3314   26.0472  -27.6896 H   0  0  0  0  0  0  0  0  0  0  0  0
   -0.3066   25.2066  -28.8388 H   0  0  0  0  0  0  0  0  0  0  0  0
   -3.8838   21.9485  -30.5814 H   0  0  0  0  0  0  0  0  0  0  0  0
   -4.0574   21.3555  -33.3100 H   0  0  0  0  0  0  0  0  0  0  0  0
   -4.3996   19.1493  -34.4226 H   0  0  0  0  0  0  0  0  0  0  0  0
   -6.4499   17.8100  -33.9443 H   0  0  0  0  0  0  0  0  0  0  0  0
   -8.1648   18.6760  -32.3499 H   0  0  0  0  0  0  0  0  0  0  0  0
   -7.8317   20.8815  -31.2304 H   0  0  0  0  0  0  0  0  0  0  0  0
  1  2  1  0
  2  3  1  0
  3  4  2  0
  4  5  1  0
  5  6  2  0
  6  7  1  0
  7  8  2  0
  8  9  1  0
  9 10  1  0
 10 11  1  0
  6 12  1  0
 12 13  2  0
 13 14  1  0
 14 15  2  0
 15 16  1  0
 16 17  2  0
 17 18  1  0
 18 19  2  0
 13  3  1  0
 19 14  1  0
 11  7  1  0
  1 20  1  0
  1 21  1  0
  1 22  1  0
  4 23  1  0
  5 24  1  0
  9 25  1  0
  9 26  1  0
 10 27  1  0
 10 28  1  0
 12 29  1  0
 15 30  1  0
 16 31  1  0
 17 32  1  0
 18 33  1  0
 19 34  1  0
M  END
>  <UniqueID>  (46) 
39

>  <SMILES>  (46) 
COc1ccc(C2=NCCO2)cc1-c1ccccc1

>  <Energy>  (46) 
55.24621011445299

>  <Genealogy>  (46) 
COc1ccc(C2=NCCO2)cc1-c1ccccc1 (3D coordinates assigned)
COc1ccc(C2=NCCO2)cc1-c1ccccc1 (nonaromatic ring conformer: 55.24621011445299 kcal/mol)

>  <smiles>  (46) 
COc1ccc(C2=NCCO2)cc1-c1ccccc1

>  <score_type>  (46) 
oracle

>  <origin>  (46) 
adg

>  <m_score__min__energy>  (46) 
-7.2599999999999998

>  <m_primary>  (46) 
energy

$$$$
46:0
     RDKit          3D

 38 40  0  0  0  0  0  0  0  0999 V2000
   -1.3370   19.9640  -32.3250 C   0  0  0  0  0  0  0  0  0  0  0  0
   -1.8690   20.1630  -30.9100 C   0  0  0  0  0  0  0  0  0  0  0  0
   -2.3950   21.5300  -30.7440 N   0  0  0  0  0  0  0  0  0  0  0  0
   -1.6430   22.4440  -30.0610 C   0  0  0  0  0  0  0  0  0  0  0  0
   -2.0950   23.7590  -29.8550 C   0  0  0  0  0  0  0  0  0  0  0  0
   -1.2350   24.7230  -29.1130 C   0  0  0  0  0  0  0  0  0  0  0  0
   -0.1390   24.3490  -28.6180 O   0  0  0  0  0  0  0  0  0  0  0  0
   -1.6200   26.0490  -28.9500 O   0  0  0  0  0  0  0  0  0  0  0  0
   -3.3590   24.1230  -30.3590 C   0  0  0  0  0  0  0  0  0  0  0  0
   -3.7980   25.2950  -30.1960 O   0  0  0  0  0  0  0  0  0  0  0  0
   -4.1370   23.1750  -31.0440 C   0  0  0  0  0  0  0  0  0  0  0  0
   -5.4110   23.4840  -31.5490 C   0  0  0  0  0  0  0  0  0  0  0  0
   -6.1620   22.5140  -32.2130 C   0  0  0  0  0  0  0  0  0  0  0  0
   -7.4040   22.8290  -32.6550 F   0  0  0  0  0  0  0  0  0  0  0  0
   -5.6320   21.2210  -32.3770 C   0  0  0  0  0  0  0  0  0  0  0  0
   -6.3650   20.1820  -33.0580 N   0  0  0  0  0  0  0  0  0  0  0  0
   -7.7710   19.9440  -32.7120 C   0  0  0  0  0  0  0  0  0  0  0  0
   -7.9000   18.7090  -31.8160 C   0  0  0  0  0  0  0  0  0  0  0  0
   -6.8680   17.2780  -32.3390 S   0  0  0  0  0  0  0  0  0  0  0  0
   -6.4010   17.8740  -34.0010 C   0  0  0  0  0  0  0  0  0  0  0  0
   -5.6550   19.2080  -33.9060 C   0  0  0  0  0  0  0  0  0  0  0  0
   -4.3960   20.9470  -31.8770 N   0  0  0  0  0  0  0  0  0  0  0  0
   -3.6350   21.8690  -31.2240 C   0  0  0  0  0  0  0  0  0  0  0  0
   -0.3076   19.5790  -32.2789 H   0  0  0  0  0  0  0  0  0  0  0  0
   -1.9745   19.2435  -32.8584 H   0  0  0  0  0  0  0  0  0  0  0  0
   -1.3451   20.9260  -32.8584 H   0  0  0  0  0  0  0  0  0  0  0  0
   -2.6757   19.4393  -30.7214 H   0  0  0  0  0  0  0  0  0  0  0  0
   -1.0468   20.0089  -30.1957 H   0  0  0  0  0  0  0  0  0  0  0  0
   -0.6621   22.1440  -29.6636 H   0  0  0  0  0  0  0  0  0  0  0  0
   -5.8189   24.4974  -31.4200 H   0  0  0  0  0  0  0  0  0  0  0  0
   -8.1663   20.8212  -32.1788 H   0  0  0  0  0  0  0  0  0  0  0  0
   -8.3416   19.7742  -33.6370 H   0  0  0  0  0  0  0  0  0  0  0  0
   -7.6033   18.9922  -30.7953 H   0  0  0  0  0  0  0  0  0  0  0  0
   -8.9478   18.3810  -31.8830 H   0  0  0  0  0  0  0  0  0  0  0  0
   -5.7499   17.1293  -34.4822 H   0  0  0  0  0  0  0  0  0  0  0  0
   -7.3153   18.0208  -34.5947 H   0  0  0  0  0  0  0  0  0  0  0  0
   -4.6576   19.0268  -33.4789 H   0  0  0  0  0  0  0  0  0  0  0  0
   -5.5851   19.6295  -34.9196 H   0  0  0  0  0  0  0  0  0  0  0  0
  1  2  1  0
  2  3  1  0
  3  4  1  0
  4  5  2  0
  5  6  1  0
  6  7  2  0
  6  8  1  0
  5  9  1  0
  9 10  2  0
  9 11  1  0
 11 12  2  0
 12 13  1  0
 13 14  1  0
 13 15  2  0
 15 16  1  0
 16 17  1  0
 17 18  1  0
 18 19  1  0
 19 20  1  0
 20 21  1  0
 15 22  1  0
 22 23  2  0
 23  3  1  0
 23 11  1  0
 21 16  1  0
  1 24  1  0
  1 25  1  0
  1 26  1  0
  2 27  1  0
  2 28  1  0
  4 29  1  0
 12 30  1  0
 17 31  1  0
 17 32  1  0
 18 33  1  0
 18 34  1  0
 20 35  1  0
 20 36  1  0
 21 37  1  0
 21 38  1  0
M  CHG  1   8  -1
M  END
>  <UniqueID>  (47) 
40

>  <SMILES>  (47) 
CCn1cc(C(=O)[O-])c(=O)c2cc(F)c(N3CCSCC3)nc21

>  <Energy>  (47) 
49.78520507518464

>  <Genealogy>  (47) 
CCn1cc(C(=O)[O-])c(=O)c2cc(F)c(N3CCSCC3)nc21 (protonated)
CCn1cc(C(=O)[O-])c(=O)c2cc(F)c(N3CCSCC3)nc21 (3D coordinates assigned)
CCn1cc(C(=O)[O-])c(=O)c2cc(F)c(N3CCSCC3)nc21 (nonaromatic ring conformer: 49.78520507518464 kcal/mol)

>  <smiles>  (47) 
CCn1cc(C(=O)O)c(=O)c2cc(F)c(N3CCSCC3)nc21

>  <score_type>  (47) 
oracle

>  <origin>  (47) 
adg

>  <m_score__min__energy>  (47) 
-9.6799999999999997

>  <m_primary>  (47) 
energy

$$$$
47:0
     RDKit          3D

 49 51  0  0  1  0  0  0  0  0999 V2000
   -8.7720   19.3300  -31.9700 C   0  0  0  0  0  0  0  0  0  0  0  0
   -8.6370   20.8230  -31.9950 C   0  0  0  0  0  0  0  0  0  0  0  0
   -7.3260   21.3550  -31.5830 C   0  0  0  0  0  0  0  0  0  0  0  0
   -7.0120   22.7860  -31.6750 C   0  0  0  0  0  0  0  0  0  0  0  0
   -5.9740   23.3480  -30.8750 N   0  0  0  0  0  0  0  0  0  0  0  0
   -6.2760   24.4650  -30.0340 C   0  0  0  0  0  0  0  0  0  0  0  0
   -5.6300   25.7550  -30.4730 C   0  0  0  0  0  0  0  0  0  0  0  0
   -4.2540   25.5860  -30.6320 O   0  0  0  0  0  0  0  0  0  0  0  0
   -4.6520   22.7800  -30.9940 C   0  0  0  0  0  0  0  0  0  0  0  0
   -3.7870   22.6840  -29.9310 C   0  0  0  0  0  0  0  0  0  0  0  0
   -2.4920   22.1630  -30.0560 C   0  0  0  0  0  0  0  0  0  0  0  0
   -2.0330   21.7190  -31.2690 C   0  0  0  0  0  0  0  0  0  0  0  0
   -0.7690   21.2020  -31.4460 C   0  0  0  0  0  0  0  0  0  0  0  0
    0.0440   21.1110  -30.4480 N   0  0  0  0  0  0  0  0  0  0  0  0
    0.0010   20.0170  -29.5410 C   0  0  0  0  0  0  0  0  0  0  0  0
   -0.6680   20.0500  -28.3370 C   0  0  0  0  0  0  0  0  0  0  0  0
   -0.6900   18.9660  -27.4760 C   0  0  0  0  0  0  0  0  0  0  0  0
   -0.0100   17.8120  -27.8570 C   0  0  0  0  0  0  0  0  0  0  0  0
   -0.0100   16.7170  -27.0310 F   0  0  0  0  0  0  0  0  0  0  0  0
    0.6750   17.7580  -29.0770 C   0  0  0  0  0  0  0  0  0  0  0  0
    1.6130   16.2000  -29.6260 Br  0  0  0  0  0  0  0  0  0  0  0  0
    0.6740   18.8680  -29.9120 C   0  0  0  0  0  0  0  0  0  0  0  0
   -0.3640   20.7810  -32.6710 N   0  0  0  0  0  0  0  0  0  0  0  0
   -1.2050   20.8710  -33.7180 C   0  0  0  0  0  0  0  0  0  0  0  0
   -2.4390   21.3780  -33.5370 N   0  0  0  0  0  0  0  0  0  0  0  0
   -2.8890   21.8110  -32.3390 C   0  0  0  0  0  0  0  0  0  0  0  0
   -4.1700   22.3260  -32.2200 C   0  0  0  0  0  0  0  0  0  0  0  0
   -8.8035   18.9821  -30.9269 H   0  0  0  0  0  0  0  0  0  0  0  0
   -9.7003   19.0371  -32.4824 H   0  0  0  0  0  0  0  0  0  0  0  0
   -7.9113   18.8754  -32.4824 H   0  0  0  0  0  0  0  0  0  0  0  0
   -8.8310   21.1623  -33.0232 H   0  0  0  0  0  0  0  0  0  0  0  0
   -9.3586   21.2008  -31.2557 H   0  0  0  0  0  0  0  0  0  0  0  0
   -7.1973   21.0771  -30.5265 H   0  0  0  0  0  0  0  0  0  0  0  0
   -6.6493   20.9175  -32.3318 H   0  0  0  0  0  0  0  0  0  0  0  0
   -6.7453   22.9842  -32.7236 H   0  0  0  0  0  0  0  0  0  0  0  0
   -7.9192   23.2663  -31.2798 H   0  0  0  0  0  0  0  0  0  0  0  0
   -7.3666   24.6087  -30.0280 H   0  0  0  0  0  0  0  0  0  0  0  0
   -5.8744   24.2308  -29.0371 H   0  0  0  0  0  0  0  0  0  0  0  0
   -6.0685   26.0712  -31.4310 H   0  0  0  0  0  0  0  0  0  0  0  0
   -5.8066   26.5201  -29.7027 H   0  0  0  0  0  0  0  0  0  0  0  0
   -4.0700   25.6640  -31.6220 H   0  0  0  0  0  0  0  0  0  0  0  0
   -4.1242   23.0297  -28.9427 H   0  0  0  0  0  0  0  0  0  0  0  0
   -1.8381   22.1099  -29.1730 H   0  0  0  0  0  0  0  0  0  0  0  0
   -1.2022   20.9678  -28.0504 H   0  0  0  0  0  0  0  0  0  0  0  0
   -1.2292   19.0149  -26.5184 H   0  0  0  0  0  0  0  0  0  0  0  0
    1.2105   18.8326  -30.8716 H   0  0  0  0  0  0  0  0  0  0  0  0
   -0.8862   20.5326  -34.7149 H   0  0  0  0  0  0  0  0  0  0  0  0
   -3.0670   21.4340  -34.3710 H   0  0  0  0  0  0  0  0  0  0  0  0
   -4.8170   22.3772  -33.1081 H   0  0  0  0  0  0  0  0  0  0  0  0
  1  2  1  0
  2  3  1  0
  3  4  1  0
  4  5  1  0
  5  6  1  0
  6  7  1  0
  7  8  1  0
  5  9  1  0
  9 10  2  0
 10 11  1  0
 11 12  2  0
 12 13  1  0
 13 14  2  0
 14 15  1  0
 15 16  2  0
 16 17  1  0
 17 18  2  0
 18 19  1  0
 18 20  1  0
 20 21  1  0
 20 22  2  0
 13 23  1  0
 23 24  2  0
 24 25  1  0
 25 26  1  0
 26 27  2  0
 27  9  1  0
 26 12  1  0
 22 15  1  0
  1 28  1  0
  1 29  1  0
  1 30  1  0
  2 31  1  0
  2 32  1  0
  3 33  1  0
  3 34  1  0
  4 35  1  0
  4 36  1  0
  6 37  1  0
  6 38  1  0
  7 39  1  0
  7 40  1  0
  8 41  1  0
 10 42  1  0
 11 43  1  0
 16 44  1  0
 17 45  1  0
 22 46  1  0
 24 47  1  0
 25 48  1  0
 27 49  1  0
M  END
>  <smiles>  (48) 
CCCCN(CCO)c1ccc2c(=Nc3ccc(F)c(Br)c3)nc[nH]c2c1

>  <score_type>  (48) 
oracle

>  <origin>  (48) 
adg

>  <m_score__min__energy>  (48) 
-9.5700000000000003

>  <m_primary>  (48) 
energy

$$$$
