0:0
     RDKit          3D

 40 41  0  0  0  0  0  0  0  0999 V2000
   -0.8260   20.3950  -28.2150 C   0  0  0  0  0  0  0  0  0  0  0  0
   -1.7300   21.4270  -28.8250 C   0  0  0  0  0  0  0  0  0  0  0  0
   -1.4510   22.7920  -28.6670 C   0  0  0  0  0  0  0  0  0  0  0  0
   -2.2470   23.7530  -29.2920 C   0  0  0  0  0  0  0  0  0  0  0  0
   -3.3420   23.3620  -30.0870 C   0  0  0  0  0  0  0  0  0  0  0  0
   -3.6370   21.9900  -30.2530 C   0  0  0  0  0  0  0  0  0  0  0  0
   -2.8160   21.0320  -29.6220 C   0  0  0  0  0  0  0  0  0  0  0  0
   -4.7040   21.6190  -31.0260 N   0  0  0  0  0  0  0  0  0  0  0  0
   -4.9380   20.2710  -31.2510 O   0  0  0  0  0  0  0  0  0  0  0  0
   -5.4870   22.5800  -31.6160 C   0  0  0  0  0  0  0  0  0  0  0  0
   -6.6510   22.2290  -32.3790 N   0  0  0  0  0  0  0  0  0  0  0  0
   -8.0060   22.5410  -31.9220 C   0  0  0  0  0  0  0  0  0  0  0  0
   -8.7910   21.2470  -31.6430 C   0  0  0  0  0  0  0  0  0  0  0  0
   -8.5520   20.1800  -32.7240 C   0  0  0  0  0  0  0  0  0  0  0  0
   -7.2170   19.5560  -32.5500 N   0  0  0  0  0  0  0  0  0  0  0  0
   -7.3400   18.2260  -31.9250 C   0  0  0  0  0  0  0  0  0  0  0  0
   -6.5090   19.4430  -33.8370 C   0  0  0  0  0  0  0  0  0  0  0  0
   -5.1650   23.8910  -31.4580 N   0  0  0  0  0  0  0  0  0  0  0  0
   -4.1240   24.2800  -30.7260 N   0  0  0  0  0  0  0  0  0  0  0  0
   -3.8600   25.6260  -30.6270 O   0  0  0  0  0  0  0  0  0  0  0  0
   -0.8829   20.4599  -27.1184 H   0  0  0  0  0  0  0  0  0  0  0  0
   -1.1420   19.3927  -28.5399 H   0  0  0  0  0  0  0  0  0  0  0  0
    0.2092   20.5763  -28.5399 H   0  0  0  0  0  0  0  0  0  0  0  0
   -0.5993   23.1074  -28.0465 H   0  0  0  0  0  0  0  0  0  0  0  0
   -2.0181   24.8212  -29.1631 H   0  0  0  0  0  0  0  0  0  0  0  0
   -3.0296   19.9613  -29.7563 H   0  0  0  0  0  0  0  0  0  0  0  0
   -5.8610   19.8770  -31.3610 H   0  0  0  0  0  0  0  0  0  0  0  0
   -6.5560   21.6270  -33.2270 H   0  0  0  0  0  0  0  0  0  0  0  0
   -7.9488   23.1361  -30.9986 H   0  0  0  0  0  0  0  0  0  0  0  0
   -8.5247   23.1099  -32.7077 H   0  0  0  0  0  0  0  0  0  0  0  0
   -8.4744   20.8431  -30.6700 H   0  0  0  0  0  0  0  0  0  0  0  0
   -9.8627   21.4947  -31.6432 H   0  0  0  0  0  0  0  0  0  0  0  0
   -9.3277   19.4041  -32.6449 H   0  0  0  0  0  0  0  0  0  0  0  0
   -8.5953   20.6590  -33.7133 H   0  0  0  0  0  0  0  0  0  0  0  0
   -7.3301   18.3330  -30.8303 H   0  0  0  0  0  0  0  0  0  0  0  0
   -8.2852   17.7592  -32.2393 H   0  0  0  0  0  0  0  0  0  0  0  0
   -6.4965   17.5938  -32.2393 H   0  0  0  0  0  0  0  0  0  0  0  0
   -5.4381   19.2721  -33.6526 H   0  0  0  0  0  0  0  0  0  0  0  0
   -6.9217   18.5994  -34.4097 H   0  0  0  0  0  0  0  0  0  0  0  0
   -6.6386   20.3732  -34.4097 H   0  0  0  0  0  0  0  0  0  0  0  0
  1  2  1  0
  2  3  2  0
  3  4  1  0
  4  5  2  0
  5  6  1  0
  6  7  2  0
  6  8  1  0
  8  9  1  0
  8 10  2  0
 10 11  1  0
 11 12  1  0
 12 13  1  0
 13 14  1  0
 14 15  1  0
 15 16  1  0
 15 17  1  0
 10 18  1  0
 18 19  2  0
 19 20  1  0
  7  2  1  0
 19  5  1  0
  1 21  1  0
  1 22  1  0
  1 23  1  0
  3 24  1  0
  4 25  1  0
  7 26  1  0
  9 27  1  0
 11 28  1  0
 12 29  1  0
 12 30  1  0
 13 31  1  0
 13 32  1  0
 14 33  1  0
 14 34  1  0
 16 35  1  0
 16 36  1  0
 16 37  1  0
 17 38  1  0
 17 39  1  0
 17 40  1  0
M  CHG  3   8   1  19   1  20  -1
M  END
>  <UniqueID>  (1) 
1

>  <SMILES>  (1) 
Cc1ccc2c(c1)[n+](O)c(NCCCN(C)C)n[n+]2[O-]

>  <Energy>  (1) 
44.157518741934425

>  <Genealogy>  (1) 
Cc1ccc2c(c1)[n+](O)c(NCCCN(C)C)n[n+]2[O-] (protonated)
Cc1ccc2c(c1)[n+](O)c(NCCCN(C)C)n[n+]2[O-] (3D coordinates assigned)
Cc1ccc2c(c1)[n+](O)c(NCCCN(C)C)n[n+]2[O-] (optimized conformer: 44.157518741934425 kcal/mol)

>  <smiles>  (1) 
Cc1ccc2c(c1)[n+]([O-])c(NCCCN(C)C)n[n+]2[O-]

>  <score_type>  (1) 
oracle

>  <origin>  (1) 
adg

>  <m_score__min__energy>  (1) 
-7.2800000000000002

>  <m_primary>  (1) 
energy

$$$$
1:0
     RDKit          3D

 40 42  0  0  0  0  0  0  0  0999 V2000
   -9.2380   23.0590  -32.0530 C   0  0  0  0  0  0  0  0  0  0  0  0
   -8.7170   22.0260  -31.2230 O   0  0  0  0  0  0  0  0  0  0  0  0
   -8.1710   20.8160  -31.6900 C   0  0  0  0  0  0  0  0  0  0  0  0
   -8.8960   19.6140  -31.6030 C   0  0  0  0  0  0  0  0  0  0  0  0
   -8.3620   18.4310  -32.0980 C   0  0  0  0  0  0  0  0  0  0  0  0
   -7.1050   18.4270  -32.6890 C   0  0  0  0  0  0  0  0  0  0  0  0
   -6.3440   19.6040  -32.7830 C   0  0  0  0  0  0  0  0  0  0  0  0
   -6.8740   20.8230  -32.2620 C   0  0  0  0  0  0  0  0  0  0  0  0
   -6.1630   22.1740  -32.3500 C   0  0  0  0  0  0  0  0  0  0  0  0
   -4.6340   22.1850  -32.5170 C   0  0  0  0  0  0  0  0  0  0  0  0
   -3.9400   20.9660  -31.8510 C   0  0  2  0  0  0  0  0  0  0  0  0
   -2.5960   21.3190  -31.1430 C   0  0  0  0  0  0  0  0  0  0  0  0
   -1.3860   21.0990  -31.9660 N   0  0  0  0  0  0  0  0  0  0  0  0
   -0.6490   19.8790  -31.5900 C   0  0  0  0  0  0  0  0  0  0  0  0
   -1.6580   21.1640  -33.4060 C   0  0  0  0  0  0  0  0  0  0  0  0
   -2.7250   20.1450  -33.8530 C   0  0  0  0  0  0  0  0  0  0  0  0
   -3.7740   19.8640  -32.8280 N   0  0  2  0  0  0  0  0  0  0  0  0
   -5.0300   19.4930  -33.4680 C   0  0  0  0  0  0  0  0  0  0  0  0
   -5.0090   18.8840  -34.5750 O   0  0  0  0  0  0  0  0  0  0  0  0
   -9.6444   23.8648  -31.4241 H   0  0  0  0  0  0  0  0  0  0  0  0
   -8.4341   23.4596  -32.6881 H   0  0  0  0  0  0  0  0  0  0  0  0
  -10.0380   22.6507  -32.6881 H   0  0  0  0  0  0  0  0  0  0  0  0
   -9.8935   19.6106  -31.1394 H   0  0  0  0  0  0  0  0  0  0  0  0
   -8.9357   17.4956  -32.0218 H   0  0  0  0  0  0  0  0  0  0  0  0
   -6.6988   17.4867  -33.0900 H   0  0  0  0  0  0  0  0  0  0  0  0
   -6.5883   22.7101  -33.2112 H   0  0  0  0  0  0  0  0  0  0  0  0
   -6.3313   22.6335  -31.3648 H   0  0  0  0  0  0  0  0  0  0  0  0
   -4.3991   22.1776  -33.5916 H   0  0  0  0  0  0  0  0  0  0  0  0
   -4.2561   23.0901  -32.0191 H   0  0  0  0  0  0  0  0  0  0  0  0
   -4.6085   20.6261  -31.0463 H   0  0  0  0  0  0  0  0  0  0  0  0
   -2.6278   22.3809  -30.8578 H   0  0  0  0  0  0  0  0  0  0  0  0
   -2.5122   20.6411  -30.2808 H   0  0  0  0  0  0  0  0  0  0  0  0
   -0.6025   19.8020  -30.4937 H   0  0  0  0  0  0  0  0  0  0  0  0
   -1.1660   18.9979  -31.9979 H   0  0  0  0  0  0  0  0  0  0  0  0
    0.3715   19.9267  -31.9979 H   0  0  0  0  0  0  0  0  0  0  0  0
   -2.0117   22.1760  -33.6526 H   0  0  0  0  0  0  0  0  0  0  0  0
   -0.7236   20.9218  -33.9334 H   0  0  0  0  0  0  0  0  0  0  0  0
   -3.2198   20.5371  -34.7538 H   0  0  0  0  0  0  0  0  0  0  0  0
   -2.1985   19.1962  -34.0332 H   0  0  0  0  0  0  0  0  0  0  0  0
   -3.4770   19.0180  -32.2870 H   0  0  0  0  0  0  0  0  0  0  0  0
  1  2  1  0
  2  3  1  0
  3  4  2  0
  4  5  1  0
  5  6  2  0
  6  7  1  0
  7  8  2  0
  8  9  1  0
  9 10  1  0
 10 11  1  0
 11 12  1  0
 12 13  1  0
 13 14  1  0
 13 15  1  0
 15 16  1  0
 16 17  1  0
 17 18  1  0
 18 19  2  0
  8  3  1  0
 17 11  1  0
 18  7  1  0
  1 20  1  0
  1 21  1  0
  1 22  1  0
  4 23  1  0
  5 24  1  0
  6 25  1  0
  9 26  1  0
  9 27  1  0
 10 28  1  0
 10 29  1  0
 11 30  1  1
 12 31  1  0
 12 32  1  0
 14 33  1  0
 14 34  1  0
 14 35  1  0
 15 36  1  0
 15 37  1  0
 16 38  1  0
 16 39  1  0
 17 40  1  1
M  CHG  1  17   1
M  END
>  <UniqueID>  (2) 
2

>  <SMILES>  (2) 
COc1cccc2c1CC[C@@H]1CN(C)CC[N@@H+]1C2=O

>  <Energy>  (2) 
80.23265543809143

>  <Genealogy>  (2) 
COc1cccc2c1CCC1CN(C)CC[NH+]1C2=O (protonated)
COc1cccc2c1CC[C@@H]1CN(C)CC[N@@H+]1C2=O (chirality)
COc1cccc2c1CC[C@@H]1CN(C)CC[N@@H+]1C2=O (3D coordinates assigned)
COc1cccc2c1CC[C@@H]1CN(C)CC[N@@H+]1C2=O (nonaromatic ring conformer: 80.23265543809143 kcal/mol)

>  <smiles>  (2) 
COc1cccc2c1CCC1CN(C)CCN1C2=O

>  <score_type>  (2) 
oracle

>  <origin>  (2) 
adg

>  <m_score__min__energy>  (2) 
-4.9900000000000002

>  <m_primary>  (2) 
energy

$$$$
2:0
     RDKit          3D

 30 31  0  0  0  0  0  0  0  0999 V2000
   -2.2370   24.9370  -28.6300 C   0  0  0  0  0  0  0  0  0  0  0  0
   -3.1140   25.2990  -29.6920 O   0  0  0  0  0  0  0  0  0  0  0  0
   -4.1320   24.4740  -30.1940 C   0  0  0  0  0  0  0  0  0  0  0  0
   -3.9280   23.0900  -30.1910 C   0  0  0  0  0  0  0  0  0  0  0  0
   -4.9120   22.2250  -30.6790 C   0  0  0  0  0  0  0  0  0  0  0  0
   -6.1240   22.7350  -31.1730 C   0  0  0  0  0  0  0  0  0  0  0  0
   -7.1630   21.8150  -31.6980 C   0  0  0  0  0  0  0  0  0  0  0  0
   -8.5030   21.9960  -31.3130 C   0  0  0  0  0  0  0  0  0  0  0  0
   -9.4990   21.1370  -31.7840 C   0  0  0  0  0  0  0  0  0  0  0  0
   -9.1680   20.0920  -32.6450 C   0  0  0  0  0  0  0  0  0  0  0  0
   -7.8440   19.9030  -33.0450 C   0  0  0  0  0  0  0  0  0  0  0  0
   -6.8280   20.7650  -32.5830 C   0  0  0  0  0  0  0  0  0  0  0  0
   -5.4930   20.6170  -32.9970 O   0  0  0  0  0  0  0  0  0  0  0  0
   -4.9130   19.3950  -33.4400 C   0  0  0  0  0  0  0  0  0  0  0  0
   -6.3270   24.1240  -31.1840 C   0  0  0  0  0  0  0  0  0  0  0  0
   -5.3420   24.9880  -30.6960 C   0  0  0  0  0  0  0  0  0  0  0  0
   -2.7261   25.1389  -27.6656 H   0  0  0  0  0  0  0  0  0  0  0  0
   -1.9964   23.8660  -28.7020 H   0  0  0  0  0  0  0  0  0  0  0  0
   -1.3111   25.5265  -28.7020 H   0  0  0  0  0  0  0  0  0  0  0  0
   -2.9851   22.6787  -29.8013 H   0  0  0  0  0  0  0  0  0  0  0  0
   -4.7361   21.1392  -30.6761 H   0  0  0  0  0  0  0  0  0  0  0  0
   -8.7694   22.8206  -30.6355 H   0  0  0  0  0  0  0  0  0  0  0  0
  -10.5444   21.2853  -31.4754 H   0  0  0  0  0  0  0  0  0  0  0  0
   -9.9530   19.4137  -33.0106 H   0  0  0  0  0  0  0  0  0  0  0  0
   -7.5915   19.0762  -33.7251 H   0  0  0  0  0  0  0  0  0  0  0  0
   -4.6252   18.7886  -32.5685 H   0  0  0  0  0  0  0  0  0  0  0  0
   -5.6442   18.8409  -34.0469 H   0  0  0  0  0  0  0  0  0  0  0  0
   -4.0214   19.6111  -34.0469 H   0  0  0  0  0  0  0  0  0  0  0  0
   -7.2675   24.5355  -31.5793 H   0  0  0  0  0  0  0  0  0  0  0  0
   -5.5137   26.0745  -30.7045 H   0  0  0  0  0  0  0  0  0  0  0  0
  1  2  1  0
  2  3  1  0
  3  4  2  0
  4  5  1  0
  5  6  2  0
  6  7  1  0
  7  8  2  0
  8  9  1  0
  9 10  2  0
 10 11  1  0
 11 12  2  0
 12 13  1  0
 13 14  1  0
  6 15  1  0
 15 16  2  0
 16  3  1  0
 12  7  1  0
  1 17  1  0
  1 18  1  0
  1 19  1  0
  4 20  1  0
  5 21  1  0
  8 22  1  0
  9 23  1  0
 10 24  1  0
 11 25  1  0
 14 26  1  0
 14 27  1  0
 14 28  1  0
 15 29  1  0
 16 30  1  0
M  END
>  <UniqueID>  (3) 
3

>  <SMILES>  (3) 
COc1ccc(-c2ccccc2OC)cc1

>  <Energy>  (3) 
35.722615739688834

>  <Genealogy>  (3) 
COc1ccc(-c2ccccc2OC)cc1 (3D coordinates assigned)
COc1ccc(-c2ccccc2OC)cc1 (optimized conformer: 35.722615739688834 kcal/mol)

>  <smiles>  (3) 
COc1ccc(-c2ccccc2OC)cc1

>  <score_type>  (3) 
oracle

>  <origin>  (3) 
adg

>  <m_score__min__energy>  (3) 
-6.7300000000000004

>  <m_primary>  (3) 
energy

$$$$
3:0
     RDKit          3D

 46 47  0  0  0  0  0  0  0  0999 V2000
   -3.2500   17.4170  -34.6350 C   0  0  0  0  0  0  0  0  0  0  0  0
   -3.4270   18.7160  -33.9030 C   0  0  0  0  0  0  0  0  0  0  0  0
   -2.3100   19.4280  -33.4560 C   0  0  0  0  0  0  0  0  0  0  0  0
   -2.4570   20.6630  -32.8020 C   0  0  0  0  0  0  0  0  0  0  0  0
   -1.2200   21.3890  -32.3390 C   0  0  0  0  0  0  0  0  0  0  0  0
   -3.7570   21.1980  -32.6050 C   0  0  0  0  0  0  0  0  0  0  0  0
   -3.9470   22.3950  -31.9810 N   0  0  0  0  0  0  0  0  0  0  0  0
   -5.1870   22.9400  -31.8150 C   0  0  0  0  0  0  0  0  0  0  0  0
   -5.2630   24.3360  -31.2170 C   0  0  0  0  0  0  0  0  0  0  0  0
   -4.0440   24.6850  -30.4640 N   0  0  0  0  0  0  0  0  0  0  0  0
   -3.8530   23.8780  -29.2420 C   0  0  0  0  0  0  0  0  0  0  0  0
   -2.3640   23.6040  -28.9460 C   0  0  1  0  0  0  0  0  0  0  0  0
   -1.6740   23.4420  -30.1580 O   0  0  0  0  0  0  0  0  0  0  0  0
   -1.7510   24.7680  -28.1520 C   0  0  0  0  0  0  0  0  0  0  0  0
   -1.5840   25.8910  -28.9750 O   0  0  0  0  0  0  0  0  0  0  0  0
   -6.3050   22.2590  -32.2570 N   0  0  0  0  0  0  0  0  0  0  0  0
   -7.6770   22.7730  -32.0230 C   0  0  0  0  0  0  0  0  0  0  0  0
   -8.3650   22.0260  -30.8740 C   0  0  0  0  0  0  0  0  0  0  0  0
   -9.7380   22.1630  -30.9670 F   0  0  0  0  0  0  0  0  0  0  0  0
   -8.0440   20.6830  -30.9050 F   0  0  0  0  0  0  0  0  0  0  0  0
   -7.9470   22.5580  -29.6680 F   0  0  0  0  0  0  0  0  0  0  0  0
   -6.1550   21.0450  -32.8840 C   0  0  0  0  0  0  0  0  0  0  0  0
   -7.1700   20.4150  -33.2970 O   0  0  0  0  0  0  0  0  0  0  0  0
   -4.8780   20.4910  -33.0770 C   0  0  0  0  0  0  0  0  0  0  0  0
   -4.7050   19.2550  -33.7280 C   0  0  0  0  0  0  0  0  0  0  0  0
   -3.1385   16.5988  -33.9082 H   0  0  0  0  0  0  0  0  0  0  0  0
   -4.1308   17.2290  -35.2665 H   0  0  0  0  0  0  0  0  0  0  0  0
   -2.3510   17.4715  -35.2665 H   0  0  0  0  0  0  0  0  0  0  0  0
   -1.3030   19.0161  -33.6183 H   0  0  0  0  0  0  0  0  0  0  0  0
   -1.1938   21.4044  -31.2394 H   0  0  0  0  0  0  0  0  0  0  0  0
   -0.3271   20.8717  -32.7198 H   0  0  0  0  0  0  0  0  0  0  0  0
   -1.2363   22.4208  -32.7198 H   0  0  0  0  0  0  0  0  0  0  0  0
   -3.1250   22.9340  -31.6300 H   0  0  0  0  0  0  0  0  0  0  0  0
   -5.3974   25.0635  -32.0310 H   0  0  0  0  0  0  0  0  0  0  0  0
   -6.1112   24.3585  -30.5169 H   0  0  0  0  0  0  0  0  0  0  0  0
   -3.2040   24.6400  -31.0840 H   0  0  0  0  0  0  0  0  0  0  0  0
   -4.2891   24.4192  -28.3894 H   0  0  0  0  0  0  0  0  0  0  0  0
   -4.3480   22.9083  -29.3992 H   0  0  0  0  0  0  0  0  0  0  0  0
   -2.2803   22.6872  -28.3439 H   0  0  0  0  0  0  0  0  0  0  0  0
   -1.0740   24.2260  -30.2580 H   0  0  0  0  0  0  0  0  0  0  0  0
   -2.4184   25.0274  -27.3169 H   0  0  0  0  0  0  0  0  0  0  0  0
   -0.7672   24.4582  -27.7697 H   0  0  0  0  0  0  0  0  0  0  0  0
   -2.0170   25.6750  -29.8420 H   0  0  0  0  0  0  0  0  0  0  0  0
   -7.6207   23.8425  -31.7719 H   0  0  0  0  0  0  0  0  0  0  0  0
   -8.2660   22.6181  -32.9390 H   0  0  0  0  0  0  0  0  0  0  0  0
   -5.5831   18.7084  -34.1023 H   0  0  0  0  0  0  0  0  0  0  0  0
  1  2  1  0
  2  3  2  0
  3  4  1  0
  4  5  1  0
  4  6  2  0
  6  7  1  0
  7  8  2  0
  8  9  1  0
  9 10  1  0
 10 11  1  0
 11 12  1  0
 12 13  1  0
 12 14  1  0
 14 15  1  0
  8 16  1  0
 16 17  1  0
 17 18  1  0
 18 19  1  0
 18 20  1  0
 18 21  1  0
 16 22  1  0
 22 23  2  0
 22 24  1  0
 24 25  2  0
 25  2  1  0
 24  6  1  0
  1 26  1  0
  1 27  1  0
  1 28  1  0
  3 29  1  0
  5 30  1  0
  5 31  1  0
  5 32  1  0
  7 33  1  0
  9 34  1  0
  9 35  1  0
 10 36  1  0
 11 37  1  0
 11 38  1  0
 12 39  1  1
 13 40  1  0
 14 41  1  0
 14 42  1  0
 15 43  1  0
 17 44  1  0
 17 45  1  0
 25 46  1  0
M  CHG  1   7   1
M  END
>  <UniqueID>  (4) 
4

>  <SMILES>  (4) 
Cc1cc(C)c2[nH+]c(CNC[C@@H](O)CO)n(CC(F)(F)F)c(=O)c2c1

>  <Energy>  (4) 
53.003390444404126

>  <Genealogy>  (4) 
Cc1cc(C)c2[nH+]c(CNCC(O)CO)n(CC(F)(F)F)c(=O)c2c1 (protonated)
Cc1cc(C)c2[nH+]c(CNC[C@@H](O)CO)n(CC(F)(F)F)c(=O)c2c1 (chirality)
Cc1cc(C)c2[nH+]c(CNC[C@@H](O)CO)n(CC(F)(F)F)c(=O)c2c1 (3D coordinates assigned)
Cc1cc(C)c2[nH+]c(CNC[C@@H](O)CO)n(CC(F)(F)F)c(=O)c2c1 (optimized conformer: 53.003390444404126 kcal/mol)

>  <smiles>  (4) 
Cc1cc(C)c2nc(CNCC(O)CO)n(CC(F)(F)F)c(=O)c2c1

>  <score_type>  (4) 
oracle

>  <origin>  (4) 
adg

>  <m_score__min__energy>  (4) 
-6.75

>  <m_primary>  (4) 
energy

$$$$
4:0
     RDKit          3D

 37 38  0  0  0  0  0  0  0  0999 V2000
   -6.5930   18.0590  -32.5520 C   0  0  0  0  0  0  0  0  0  0  0  0
   -7.3970   19.2510  -32.2770 N   0  0  0  0  0  0  0  0  0  0  0  0
   -8.7170   19.2730  -32.6300 C   0  0  0  0  0  0  0  0  0  0  0  0
   -9.5080   20.3870  -32.3440 C   0  0  0  0  0  0  0  0  0  0  0  0
   -8.9460   21.4770  -31.6810 C   0  0  0  0  0  0  0  0  0  0  0  0
   -7.5990   21.4420  -31.3010 C   0  0  0  0  0  0  0  0  0  0  0  0
   -6.9670   22.6050  -30.5820 C   0  0  0  0  0  0  0  0  0  0  0  0
   -6.4330   23.5810  -31.5580 N   0  0  0  0  0  0  0  0  0  0  0  0
   -6.1510   24.9050  -30.9400 C   0  0  0  0  0  0  0  0  0  0  0  0
   -4.6510   25.2170  -30.7540 C   0  0  0  0  0  0  0  0  0  0  0  0
   -3.8810   23.9930  -30.4940 N   0  0  0  0  0  0  0  0  0  0  0  0
   -2.8310   23.9860  -29.5010 C   0  0  0  0  0  0  0  0  0  0  0  0
   -2.4920   25.0620  -28.9350 O   0  0  0  0  0  0  0  0  0  0  0  0
   -2.1500   22.7170  -29.0780 C   0  0  0  0  0  0  0  0  0  0  0  0
   -0.8800   22.2970  -30.2530 Cl  0  0  0  0  0  0  0  0  0  0  0  0
   -4.0670   22.8410  -31.3880 C   0  0  0  0  0  0  0  0  0  0  0  0
   -5.2810   23.0410  -32.3060 C   0  0  0  0  0  0  0  0  0  0  0  0
   -6.8380   20.3040  -31.6080 C   0  0  0  0  0  0  0  0  0  0  0  0
   -6.2827   17.5989  -31.6023 H   0  0  0  0  0  0  0  0  0  0  0  0
   -7.1907   17.3390  -33.1302 H   0  0  0  0  0  0  0  0  0  0  0  0
   -5.7015   18.3434  -33.1302 H   0  0  0  0  0  0  0  0  0  0  0  0
   -9.1594   18.4065  -33.1433 H   0  0  0  0  0  0  0  0  0  0  0  0
  -10.5674   20.4047  -32.6397 H   0  0  0  0  0  0  0  0  0  0  0  0
   -9.5593   22.3623  -31.4570 H   0  0  0  0  0  0  0  0  0  0  0  0
   -7.7231   23.0972  -29.9526 H   0  0  0  0  0  0  0  0  0  0  0  0
   -6.1412   22.2343  -29.9570 H   0  0  0  0  0  0  0  0  0  0  0  0
   -6.5871   25.6841  -31.5825 H   0  0  0  0  0  0  0  0  0  0  0  0
   -6.5932   24.8813  -29.9331 H   0  0  0  0  0  0  0  0  0  0  0  0
   -4.2679   25.6943  -31.6680 H   0  0  0  0  0  0  0  0  0  0  0  0
   -4.5398   25.8881  -29.8896 H   0  0  0  0  0  0  0  0  0  0  0  0
   -1.6975   22.8582  -28.0854 H   0  0  0  0  0  0  0  0  0  0  0  0
   -2.8895   21.9038  -29.0346 H   0  0  0  0  0  0  0  0  0  0  0  0
   -3.1658   22.7177  -32.0066 H   0  0  0  0  0  0  0  0  0  0  0  0
   -4.2399   21.9463  -30.7719 H   0  0  0  0  0  0  0  0  0  0  0  0
   -5.0124   23.7444  -33.1079 H   0  0  0  0  0  0  0  0  0  0  0  0
   -5.5650   22.0645  -32.7254 H   0  0  0  0  0  0  0  0  0  0  0  0
   -5.7809   20.2586  -31.3073 H   0  0  0  0  0  0  0  0  0  0  0  0
  1  2  1  0
  2  3  2  0
  3  4  1  0
  4  5  2  0
  5  6  1  0
  6  7  1  0
  7  8  1  0
  8  9  1  0
  9 10  1  0
 10 11  1  0
 11 12  1  0
 12 13  2  0
 12 14  1  0
 14 15  1  0
 11 16  1  0
 16 17  1  0
  6 18  2  0
 18  2  1  0
 17  8  1  0
  1 19  1  0
  1 20  1  0
  1 21  1  0
  3 22  1  0
  4 23  1  0
  5 24  1  0
  7 25  1  0
  7 26  1  0
  9 27  1  0
  9 28  1  0
 10 29  1  0
 10 30  1  0
 14 31  1  0
 14 32  1  0
 16 33  1  0
 16 34  1  0
 17 35  1  0
 17 36  1  0
 18 37  1  0
M  CHG  1   2   1
M  END
>  <UniqueID>  (5) 
5

>  <SMILES>  (5) 
C[n+]1cccc(CN2CCN(C(=O)CCl)CC2)c1

>  <Energy>  (5) 
42.807251936711936

>  <Genealogy>  (5) 
C[n+]1cccc(CN2CCN(C(=O)CCl)CC2)c1 (3D coordinates assigned)
C[n+]1cccc(CN2CCN(C(=O)CCl)CC2)c1 (nonaromatic ring conformer: 42.807251936711936 kcal/mol)

>  <smiles>  (5) 
C[n+]1cccc(CN2CCN(C(=O)CCl)CC2)c1

>  <score_type>  (5) 
oracle

>  <origin>  (5) 
adg

>  <m_score__min__energy>  (5) 
-6.21

>  <m_primary>  (5) 
energy

$$$$
5:0
     RDKit          3D

 35 37  0  0  0  0  0  0  0  0999 V2000
   -5.7000   15.1850  -34.0450 C   0  0  0  0  0  0  0  0  0  0  0  0
   -5.8530   16.5180  -34.5210 O   0  0  0  0  0  0  0  0  0  0  0  0
   -6.3030   17.5920  -33.7380 C   0  0  0  0  0  0  0  0  0  0  0  0
   -6.1410   18.8890  -34.2330 C   0  0  0  0  0  0  0  0  0  0  0  0
   -6.5780   19.9910  -33.4930 C   0  0  0  0  0  0  0  0  0  0  0  0
   -7.2250   19.8150  -32.2570 C   0  0  0  0  0  0  0  0  0  0  0  0
   -7.6220   21.0270  -31.4260 C   0  0  2  0  0  0  0  0  0  0  0  0
   -9.0710   21.3770  -31.4470 C   0  0  0  0  0  0  0  0  0  0  0  0
   -8.7360   22.7370  -32.0550 C   0  0  0  0  0  0  0  0  0  0  0  0
   -9.3550   23.7310  -32.4000 O   0  0  0  0  0  0  0  0  0  0  0  0
   -7.3380   22.3060  -32.0620 N   0  0  1  0  0  0  0  0  0  0  0  0
   -6.4990   23.2000  -31.2740 C   0  0  0  0  0  0  0  0  0  0  0  0
   -7.0740   24.2060  -30.4590 C   0  0  0  0  0  0  0  0  0  0  0  0
   -6.2740   25.0570  -29.6970 C   0  0  0  0  0  0  0  0  0  0  0  0
   -4.8880   24.9310  -29.7320 C   0  0  0  0  0  0  0  0  0  0  0  0
   -4.2960   23.9560  -30.5340 C   0  0  0  0  0  0  0  0  0  0  0  0
   -5.0840   23.0930  -31.3060 C   0  0  0  0  0  0  0  0  0  0  0  0
   -4.1550   21.8150  -32.3980 Br  0  0  0  0  0  0  0  0  0  0  0  0
   -7.3330   18.5110  -31.7360 C   0  0  0  0  0  0  0  0  0  0  0  0
   -6.8950   17.4090  -32.4750 C   0  0  0  0  0  0  0  0  0  0  0  0
   -5.7001   15.1862  -32.9450 H   0  0  0  0  0  0  0  0  0  0  0  0
   -6.5331   14.5670  -34.4111 H   0  0  0  0  0  0  0  0  0  0  0  0
   -4.7485   14.7719  -34.4111 H   0  0  0  0  0  0  0  0  0  0  0  0
   -5.6657   19.0436  -35.2129 H   0  0  0  0  0  0  0  0  0  0  0  0
   -6.4141   21.0069  -33.8816 H   0  0  0  0  0  0  0  0  0  0  0  0
   -7.1352   20.7282  -30.4859 H   0  0  0  0  0  0  0  0  0  0  0  0
   -9.6791   20.7319  -32.0982 H   0  0  0  0  0  0  0  0  0  0  0  0
   -9.6721   21.3117  -30.5281 H   0  0  0  0  0  0  0  0  0  0  0  0
   -7.0460   22.2200  -33.0620 H   0  0  0  0  0  0  0  0  0  0  0  0
   -8.1679   24.3176  -30.4267 H   0  0  0  0  0  0  0  0  0  0  0  0
   -6.7391   25.8295  -29.0669 H   0  0  0  0  0  0  0  0  0  0  0  0
   -4.2596   25.6009  -29.1267 H   0  0  0  0  0  0  0  0  0  0  0  0
   -3.2002   23.8638  -30.5606 H   0  0  0  0  0  0  0  0  0  0  0  0
   -7.7668   18.3585  -30.7367 H   0  0  0  0  0  0  0  0  0  0  0  0
   -7.0136   16.3942  -32.0675 H   0  0  0  0  0  0  0  0  0  0  0  0
  1  2  1  0
  2  3  1  0
  3  4  2  0
  4  5  1  0
  5  6  2  0
  6  7  1  0
  7  8  1  0
  8  9  1  0
  9 10  2  0
  9 11  1  0
 11 12  1  0
 12 13  2  0
 13 14  1  0
 14 15  2  0
 15 16  1  0
 16 17  2  0
 17 18  1  0
  6 19  1  0
 19 20  2  0
 20  3  1  0
 11  7  1  0
 17 12  1  0
  1 21  1  0
  1 22  1  0
  1 23  1  0
  4 24  1  0
  5 25  1  0
  7 26  1  1
  8 27  1  0
  8 28  1  0
 11 29  1  6
 13 30  1  0
 14 31  1  0
 15 32  1  0
 16 33  1  0
 19 34  1  0
 20 35  1  0
M  CHG  1  11   1
M  END
>  <UniqueID>  (6) 
6

>  <SMILES>  (6) 
COc1ccc([C@@H]2CC(=O)[N@H+]2c2ccccc2Br)cc1

>  <Energy>  (6) 
94.75404209277805

>  <Genealogy>  (6) 
COc1ccc(C2CC(=O)[NH+]2c2ccccc2Br)cc1 (protonated)
COc1ccc([C@@H]2CC(=O)[N@H+]2c2ccccc2Br)cc1 (chirality)
COc1ccc([C@@H]2CC(=O)[N@H+]2c2ccccc2Br)cc1 (3D coordinates assigned)
COc1ccc([C@@H]2CC(=O)[N@H+]2c2ccccc2Br)cc1 (nonaromatic ring conformer: 94.75404209277805 kcal/mol)

>  <smiles>  (6) 
COc1ccc(C2CC(=O)N2c2ccccc2Br)cc1

>  <score_type>  (6) 
oracle

>  <origin>  (6) 
adg

>  <m_score__min__energy>  (6) 
-7.5599999999999996

>  <m_primary>  (6) 
energy

$$$$
6:0
     RDKit          3D

 34 37  0  0  0  0  0  0  0  0999 V2000
   -7.6230   17.9570  -32.6450 C   0  0  0  0  0  0  0  0  0  0  0  0
   -8.7550   18.3280  -31.9140 C   0  0  0  0  0  0  0  0  0  0  0  0
   -9.0410   19.6820  -31.7050 C   0  0  0  0  0  0  0  0  0  0  0  0
   -8.1990   20.6730  -32.2350 C   0  0  0  0  0  0  0  0  0  0  0  0
   -8.4840   22.1260  -31.9780 C   0  0  0  0  0  0  0  0  0  0  0  0
   -7.2970   22.7750  -31.3440 C   0  0  0  0  0  0  0  0  0  0  0  0
   -6.9020   22.5110  -30.0650 N   0  0  0  0  0  0  0  0  0  0  0  0
   -5.7900   23.1820  -29.8090 N   0  0  0  0  0  0  0  0  0  0  0  0
   -4.9810   23.2710  -28.7560 C   0  0  0  0  0  0  0  0  0  0  0  0
   -3.9470   24.1290  -29.1700 C   0  0  0  0  0  0  0  0  0  0  0  0
   -2.7800   24.5530  -28.3590 C   0  0  0  0  0  0  0  0  0  0  0  0
   -1.5000   24.6050  -28.9430 C   0  0  0  0  0  0  0  0  0  0  0  0
   -0.3920   25.0030  -28.1910 C   0  0  0  0  0  0  0  0  0  0  0  0
   -0.5450   25.3540  -26.8490 C   0  0  0  0  0  0  0  0  0  0  0  0
   -1.8080   25.3080  -26.2560 C   0  0  0  0  0  0  0  0  0  0  0  0
   -2.9210   24.9110  -27.0030 C   0  0  0  0  0  0  0  0  0  0  0  0
   -4.1460   24.5360  -30.4630 N   0  0  0  0  0  0  0  0  0  0  0  0
   -5.2950   23.9130  -30.7740 C   0  0  0  0  0  0  0  0  0  0  0  0
   -6.2170   23.8350  -32.1700 S   0  0  0  0  0  0  0  0  0  0  0  0
   -7.0560   20.2920  -32.9580 C   0  0  0  0  0  0  0  0  0  0  0  0
   -6.7740   18.9380  -33.1650 C   0  0  0  0  0  0  0  0  0  0  0  0
   -7.4002   16.8927  -32.8111 H   0  0  0  0  0  0  0  0  0  0  0  0
   -9.4214   17.5555  -31.5028 H   0  0  0  0  0  0  0  0  0  0  0  0
   -9.9288   19.9710  -31.1233 H   0  0  0  0  0  0  0  0  0  0  0  0
   -8.7077   22.6275  -32.9311 H   0  0  0  0  0  0  0  0  0  0  0  0
   -9.3466   22.2105  -31.3007 H   0  0  0  0  0  0  0  0  0  0  0  0
   -5.0959   22.7814  -27.7777 H   0  0  0  0  0  0  0  0  0  0  0  0
   -1.3713   24.3299  -30.0003 H   0  0  0  0  0  0  0  0  0  0  0  0
    0.6034   25.0398  -28.6578 H   0  0  0  0  0  0  0  0  0  0  0  0
    0.3290   25.6667  -26.2588 H   0  0  0  0  0  0  0  0  0  0  0  0
   -1.9277   25.5849  -25.1982 H   0  0  0  0  0  0  0  0  0  0  0  0
   -3.9133   24.8778  -26.5294 H   0  0  0  0  0  0  0  0  0  0  0  0
   -6.3812   21.0609  -33.3623 H   0  0  0  0  0  0  0  0  0  0  0  0
   -5.8822   18.6444  -33.7382 H   0  0  0  0  0  0  0  0  0  0  0  0
  1  2  2  0
  2  3  1  0
  3  4  2  0
  4  5  1  0
  5  6  1  0
  6  7  2  0
  7  8  1  0
  8  9  1  0
  9 10  2  0
 10 11  1  0
 11 12  2  0
 12 13  1  0
 13 14  2  0
 14 15  1  0
 15 16  2  0
 10 17  1  0
 17 18  2  0
 18 19  1  0
  4 20  1  0
 20 21  2  0
 21  1  1  0
 19  6  1  0
 18  8  1  0
 16 11  1  0
  1 22  1  0
  2 23  1  0
  3 24  1  0
  5 25  1  0
  5 26  1  0
  9 27  1  0
 12 28  1  0
 13 29  1  0
 14 30  1  0
 15 31  1  0
 16 32  1  0
 20 33  1  0
 21 34  1  0
M  END
>  <UniqueID>  (7) 
7

>  <SMILES>  (7) 
c1ccc(Cc2nn3cc(-c4ccccc4)nc3s2)cc1

>  <Energy>  (7) 
121.80248669024498

>  <Genealogy>  (7) 
c1ccc(Cc2nn3cc(-c4ccccc4)nc3s2)cc1 (3D coordinates assigned)
c1ccc(Cc2nn3cc(-c4ccccc4)nc3s2)cc1 (optimized conformer: 121.80248669024498 kcal/mol)

>  <smiles>  (7) 
c1ccc(Cc2nn3cc(-c4ccccc4)nc3s2)cc1

>  <score_type>  (7) 
oracle

>  <origin>  (7) 
adg

>  <m_score__min__energy>  (7) 
-8.4800000000000004

>  <m_primary>  (7) 
energy

$$$$
7:0
     RDKit          3D

 58 61  0  0  0  0  0  0  0  0999 V2000
   -0.5240   27.9910  -34.5680 C   0  0  0  0  0  0  0  0  0  0  0  0
   -1.1730   27.4680  -35.7840 N   0  0  0  0  0  0  0  0  0  0  0  0
   -1.2390   28.5330  -36.7980 C   0  0  0  0  0  0  0  0  0  0  0  0
   -0.4380   26.3000  -36.3180 C   0  0  0  0  0  0  0  0  0  0  0  0
    0.8860   26.1020  -35.5640 C   0  0  0  0  0  0  0  0  0  0  0  0
    1.9660   25.4640  -36.4510 C   0  0  0  0  0  0  0  0  0  0  0  0
    2.6620   24.3710  -35.7490 N   0  0  0  0  0  0  0  0  0  0  0  0
    4.0680   24.5450  -35.3620 C   0  0  0  0  0  0  0  0  0  0  0  0
    1.9660   23.1290  -35.4770 C   0  0  0  0  0  0  0  0  0  0  0  0
    2.6360   22.0020  -34.9620 C   0  0  0  0  0  0  0  0  0  0  0  0
    1.9200   20.8330  -34.6980 C   0  0  0  0  0  0  0  0  0  0  0  0
    0.5430   20.7840  -34.9350 C   0  0  0  0  0  0  0  0  0  0  0  0
   -0.2240   19.5520  -34.6520 C   0  0  0  0  0  0  0  0  0  0  0  0
    0.4000   18.3160  -34.8630 C   0  0  0  0  0  0  0  0  0  0  0  0
   -0.2990   17.1340  -34.6330 C   0  0  0  0  0  0  0  0  0  0  0  0
   -1.5850   17.1690  -34.1980 N   0  0  0  0  0  0  0  0  0  0  0  0
   -2.2290   18.3500  -33.9610 C   0  0  0  0  0  0  0  0  0  0  0  0
   -3.5500   18.3470  -33.4890 C   0  0  0  0  0  0  0  0  0  0  0  0
   -4.2200   19.5510  -33.2090 C   0  0  0  0  0  0  0  0  0  0  0  0
   -5.6170   19.5190  -32.7050 C   0  0  0  0  0  0  0  0  0  0  0  0
   -6.4180   20.6770  -32.6650 C   0  0  0  0  0  0  0  0  0  0  0  0
   -7.7220   20.5950  -32.1720 C   0  0  0  0  0  0  0  0  0  0  0  0
   -8.2210   19.3750  -31.7180 C   0  0  0  0  0  0  0  0  0  0  0  0
   -7.4010   18.2460  -31.7620 C   0  0  0  0  0  0  0  0  0  0  0  0
   -6.1340   18.3430  -32.2440 N   0  0  0  0  0  0  0  0  0  0  0  0
   -3.5490   20.7660  -33.4290 C   0  0  0  0  0  0  0  0  0  0  0  0
   -2.2350   20.7820  -33.9010 C   0  0  0  0  0  0  0  0  0  0  0  0
   -1.5590   19.5790  -34.1810 C   0  0  0  0  0  0  0  0  0  0  0  0
   -0.0910   21.9140  -35.4640 C   0  0  0  0  0  0  0  0  0  0  0  0
    0.6260   23.0410  -35.7150 N   0  0  0  0  0  0  0  0  0  0  0  0
   -1.0287   27.5843  -33.6792 H   0  0  0  0  0  0  0  0  0  0  0  0
    0.5340   27.6901  -34.5587 H   0  0  0  0  0  0  0  0  0  0  0  0
   -0.5931   29.0888  -34.5587 H   0  0  0  0  0  0  0  0  0  0  0  0
   -1.2996   29.5113  -36.2988 H   0  0  0  0  0  0  0  0  0  0  0  0
   -0.3369   28.4973  -37.4265 H   0  0  0  0  0  0  0  0  0  0  0  0
   -2.1298   28.3862  -37.4265 H   0  0  0  0  0  0  0  0  0  0  0  0
   -1.0582   25.3989  -36.2019 H   0  0  0  0  0  0  0  0  0  0  0  0
   -0.2172   26.4763  -37.3811 H   0  0  0  0  0  0  0  0  0  0  0  0
    1.2459   27.0814  -35.2159 H   0  0  0  0  0  0  0  0  0  0  0  0
    0.6967   25.4232  -34.7193 H   0  0  0  0  0  0  0  0  0  0  0  0
    1.4921   25.0618  -37.3586 H   0  0  0  0  0  0  0  0  0  0  0  0
    2.7053   26.2374  -36.7065 H   0  0  0  0  0  0  0  0  0  0  0  0
    4.1478   24.5549  -34.2649 H   0  0  0  0  0  0  0  0  0  0  0  0
    4.6649   23.7139  -35.7656 H   0  0  0  0  0  0  0  0  0  0  0  0
    4.4443   25.4966  -35.7656 H   0  0  0  0  0  0  0  0  0  0  0  0
    3.7181   22.0428  -34.7688 H   0  0  0  0  0  0  0  0  0  0  0  0
    2.4405   19.9483  -34.3026 H   0  0  0  0  0  0  0  0  0  0  0  0
    1.4430   18.2790  -35.2106 H   0  0  0  0  0  0  0  0  0  0  0  0
    0.1936   16.1656  -34.8047 H   0  0  0  0  0  0  0  0  0  0  0  0
   -2.0780   16.2610  -34.0360 H   0  0  0  0  0  0  0  0  0  0  0  0
   -4.0690   17.3893  -33.3358 H   0  0  0  0  0  0  0  0  0  0  0  0
   -6.0193   21.6389  -33.0195 H   0  0  0  0  0  0  0  0  0  0  0  0
   -8.3558   21.4936  -32.1419 H   0  0  0  0  0  0  0  0  0  0  0  0
   -9.2478   19.3029  -31.3300 H   0  0  0  0  0  0  0  0  0  0  0  0
   -7.7808   17.2769  -31.4062 H   0  0  0  0  0  0  0  0  0  0  0  0
   -4.0653   21.7161  -33.2269 H   0  0  0  0  0  0  0  0  0  0  0  0
   -1.7232   21.7433  -34.0555 H   0  0  0  0  0  0  0  0  0  0  0  0
   -1.1700   21.8900  -35.6767 H   0  0  0  0  0  0  0  0  0  0  0  0
  1  2  1  0
  2  3  1  0
  2  4  1  0
  4  5  1  0
  5  6  1  0
  6  7  1  0
  7  8  1  0
  7  9  1  0
  9 10  2  0
 10 11  1  0
 11 12  2  0
 12 13  1  0
 13 14  2  0
 14 15  1  0
 15 16  2  0
 16 17  1  0
 17 18  2  0
 18 19  1  0
 19 20  1  0
 20 21  2  0
 21 22  1  0
 22 23  2  0
 23 24  1  0
 24 25  2  0
 19 26  2  0
 26 27  1  0
 27 28  2  0
 12 29  1  0
 29 30  2  0
 30  9  1  0
 28 13  1  0
 28 17  1  0
 25 20  1  0
  1 31  1  0
  1 32  1  0
  1 33  1  0
  3 34  1  0
  3 35  1  0
  3 36  1  0
  4 37  1  0
  4 38  1  0
  5 39  1  0
  5 40  1  0
  6 41  1  0
  6 42  1  0
  8 43  1  0
  8 44  1  0
  8 45  1  0
 10 46  1  0
 11 47  1  0
 14 48  1  0
 15 49  1  0
 16 50  1  0
 18 51  1  0
 21 52  1  0
 22 53  1  0
 23 54  1  0
 24 55  1  0
 26 56  1  0
 27 57  1  0
 29 58  1  0
M  CHG  1  16   1
M  END
>  <UniqueID>  (8) 
8

>  <SMILES>  (8) 
CN(C)CCCN(C)c1ccc(-c2cc[nH+]c3cc(-c4ccccn4)ccc23)cn1

>  <Energy>  (8) 
75.51805856594292

>  <Genealogy>  (8) 
CN(C)CCCN(C)c1ccc(-c2cc[nH+]c3cc(-c4ccccn4)ccc23)cn1 (protonated)
CN(C)CCCN(C)c1ccc(-c2cc[nH+]c3cc(-c4ccccn4)ccc23)cn1 (3D coordinates assigned)
CN(C)CCCN(C)c1ccc(-c2cc[nH+]c3cc(-c4ccccn4)ccc23)cn1 (optimized conformer: 75.51805856594292 kcal/mol)

>  <smiles>  (8) 
CN(C)CCCN(C)c1ccc(-c2ccnc3cc(-c4ccccn4)ccc23)cn1

>  <score_type>  (8) 
oracle

>  <origin>  (8) 
adg

>  <m_score__min__energy>  (8) 
-7.8700000000000001

>  <m_primary>  (8) 
energy

$$$$
8:0
     RDKit          3D

 44 45  0  0  0  0  0  0  0  0999 V2000
   -6.1680   15.5650  -33.8500 C   0  0  0  0  0  0  0  0  0  0  0  0
   -4.8670   15.7810  -33.6410 C   0  0  0  0  0  0  0  0  0  0  0  0
   -3.9660   16.2620  -34.7430 C   0  0  0  0  0  0  0  0  0  0  0  0
   -4.3270   17.5810  -35.1560 O   0  0  0  0  0  0  0  0  0  0  0  0
   -4.7460   18.6130  -34.3000 C   0  0  0  0  0  0  0  0  0  0  0  0
   -3.8500   19.3540  -33.5090 C   0  0  0  0  0  0  0  0  0  0  0  0
   -4.3210   20.3710  -32.6750 C   0  0  0  0  0  0  0  0  0  0  0  0
   -5.6930   20.6700  -32.6160 C   0  0  0  0  0  0  0  0  0  0  0  0
   -6.1750   21.7560  -31.7300 C   0  0  0  0  0  0  0  0  0  0  0  0
   -7.3860   21.6240  -31.0290 C   0  0  0  0  0  0  0  0  0  0  0  0
   -7.8370   22.6520  -30.1980 C   0  0  0  0  0  0  0  0  0  0  0  0
   -7.0940   23.8280  -30.0690 C   0  0  0  0  0  0  0  0  0  0  0  0
   -5.8970   23.9900  -30.7840 C   0  0  0  0  0  0  0  0  0  0  0  0
   -5.1150   25.2350  -30.6380 C   0  0  0  0  0  0  0  0  0  0  0  0
   -5.7260   26.3320  -30.5330 O   0  0  0  0  0  0  0  0  0  0  0  0
   -3.6830   25.2430  -30.6120 N   0  0  0  0  0  0  0  0  0  0  0  0
   -2.7010   24.5570  -29.3550 S   0  0  0  0  0  0  0  0  0  0  0  0
   -2.0500   23.3020  -29.8670 O   0  0  0  0  0  0  0  0  0  0  0  0
   -1.6400   25.5370  -28.9380 O   0  0  0  0  0  0  0  0  0  0  0  0
   -3.7130   24.1710  -27.9860 N   0  0  0  0  0  0  0  0  0  0  0  0
   -3.1110   24.7260  -26.7670 C   0  0  0  0  0  0  0  0  0  0  0  0
   -3.8380   22.7140  -27.8680 C   0  0  0  0  0  0  0  0  0  0  0  0
   -5.4330   22.9420  -31.5950 C   0  0  0  0  0  0  0  0  0  0  0  0
   -6.5880   19.9210  -33.4040 C   0  0  0  0  0  0  0  0  0  0  0  0
   -7.9250   20.1490  -33.3420 F   0  0  0  0  0  0  0  0  0  0  0  0
   -6.1120   18.9040  -34.2350 C   0  0  0  0  0  0  0  0  0  0  0  0
   -6.8063   15.2128  -33.0263 H   0  0  0  0  0  0  0  0  0  0  0  0
   -6.6014   15.7393  -34.8459 H   0  0  0  0  0  0  0  0  0  0  0  0
   -4.4458   15.6030  -32.6405 H   0  0  0  0  0  0  0  0  0  0  0  0
   -2.9270   16.2692  -34.3817 H   0  0  0  0  0  0  0  0  0  0  0  0
   -4.0685   15.5836  -35.6028 H   0  0  0  0  0  0  0  0  0  0  0  0
   -2.7733   19.1318  -33.5471 H   0  0  0  0  0  0  0  0  0  0  0  0
   -3.6116   20.9430  -32.0589 H   0  0  0  0  0  0  0  0  0  0  0  0
   -7.9821   20.7057  -31.1355 H   0  0  0  0  0  0  0  0  0  0  0  0
   -8.7799   22.5353  -29.6436 H   0  0  0  0  0  0  0  0  0  0  0  0
   -7.4483   24.6300  -29.4047 H   0  0  0  0  0  0  0  0  0  0  0  0
   -3.5936   24.2810  -25.8844 H   0  0  0  0  0  0  0  0  0  0  0  0
   -2.0354   24.4960  -26.7518 H   0  0  0  0  0  0  0  0  0  0  0  0
   -3.2530   25.8167  -26.7518 H   0  0  0  0  0  0  0  0  0  0  0  0
   -3.8621   22.4330  -26.8048 H   0  0  0  0  0  0  0  0  0  0  0  0
   -4.7677   22.3851  -28.3554 H   0  0  0  0  0  0  0  0  0  0  0  0
   -2.9779   22.2315  -28.3554 H   0  0  0  0  0  0  0  0  0  0  0  0
   -4.4783   23.0503  -32.1306 H   0  0  0  0  0  0  0  0  0  0  0  0
   -6.8205   18.3251  -34.8456 H   0  0  0  0  0  0  0  0  0  0  0  0
  1  2  2  0
  2  3  1  0
  3  4  1  0
  4  5  1  0
  5  6  2  0
  6  7  1  0
  7  8  2  0
  8  9  1  0
  9 10  2  0
 10 11  1  0
 11 12  2  0
 12 13  1  0
 13 14  1  0
 14 15  2  0
 14 16  1  0
 16 17  1  0
 17 18  2  0
 17 19  2  0
 17 20  1  0
 20 21  1  0
 20 22  1  0
 13 23  2  0
  8 24  1  0
 24 25  1  0
 24 26  2  0
 26  5  1  0
 23  9  1  0
  1 27  1  0
  1 28  1  0
  2 29  1  0
  3 30  1  0
  3 31  1  0
  6 32  1  0
  7 33  1  0
 10 34  1  0
 11 35  1  0
 12 36  1  0
 21 37  1  0
 21 38  1  0
 21 39  1  0
 22 40  1  0
 22 41  1  0
 22 42  1  0
 23 43  1  0
 26 44  1  0
M  CHG  1  16  -1
M  END
>  <UniqueID>  (9) 
9

>  <SMILES>  (9) 
C=CCOc1ccc(-c2cccc(C(=O)[N-]S(=O)(=O)N(C)C)c2)c(F)c1

>  <Energy>  (9) 
50.86485096711946

>  <Genealogy>  (9) 
C=CCOc1ccc(-c2cccc(C(=O)[N-]S(=O)(=O)N(C)C)c2)c(F)c1 (protonated)
C=CCOc1ccc(-c2cccc(C(=O)[N-]S(=O)(=O)N(C)C)c2)c(F)c1 (3D coordinates assigned)
C=CCOc1ccc(-c2cccc(C(=O)[N-]S(=O)(=O)N(C)C)c2)c(F)c1 (optimized conformer: 50.86485096711946 kcal/mol)

>  <smiles>  (9) 
C=CCOc1ccc(-c2cccc(C(=O)NS(=O)(=O)N(C)C)c2)c(F)c1

>  <score_type>  (9) 
oracle

>  <origin>  (9) 
adg

>  <m_score__min__energy>  (9) 
-9.8499999999999996

>  <m_primary>  (9) 
energy

$$$$
9:0
     RDKit          3D

 37 38  0  0  0  0  0  0  0  0999 V2000
   -6.4790   25.6690  -29.7140 C   0  0  0  0  0  0  0  0  0  0  0  0
   -5.2600   24.8920  -30.1100 C   0  0  0  0  0  0  0  0  0  0  0  0
   -4.4350   25.4140  -30.8440 O   0  0  0  0  0  0  0  0  0  0  0  0
   -5.0420   23.4770  -29.6460 C   0  0  0  0  0  0  0  0  0  0  0  0
   -4.4050   22.6700  -30.7120 N   0  0  0  0  0  0  0  0  0  0  0  0
   -2.9450   22.9090  -30.7960 C   0  0  0  0  0  0  0  0  0  0  0  0
   -2.3490   23.4170  -29.5030 C   0  0  0  0  0  0  0  0  0  0  0  0
   -2.0450   22.5360  -28.4530 C   0  0  0  0  0  0  0  0  0  0  0  0
   -1.5120   23.0430  -27.2660 C   0  0  0  0  0  0  0  0  0  0  0  0
   -1.2850   24.4140  -27.1360 C   0  0  0  0  0  0  0  0  0  0  0  0
   -1.5940   25.2620  -28.2020 C   0  0  0  0  0  0  0  0  0  0  0  0
   -2.1140   24.7500  -29.3500 N   0  0  0  0  0  0  0  0  0  0  0  0
   -5.0660   22.8360  -32.0290 C   0  0  0  0  0  0  0  0  0  0  0  0
   -6.3780   22.0900  -32.0770 C   0  0  0  0  0  0  0  0  0  0  0  0
   -7.5380   22.7420  -31.6200 C   0  0  0  0  0  0  0  0  0  0  0  0
   -8.7740   22.0930  -31.6460 C   0  0  0  0  0  0  0  0  0  0  0  0
   -8.8680   20.7840  -32.1170 C   0  0  0  0  0  0  0  0  0  0  0  0
   -7.7250   20.1180  -32.5620 C   0  0  0  0  0  0  0  0  0  0  0  0
   -6.4790   20.7590  -32.5450 C   0  0  0  0  0  0  0  0  0  0  0  0
   -5.0840   19.8570  -33.1310 Cl  0  0  0  0  0  0  0  0  0  0  0  0
   -6.5461   25.7118  -28.6169 H   0  0  0  0  0  0  0  0  0  0  0  0
   -6.4100   26.6901  -30.1172 H   0  0  0  0  0  0  0  0  0  0  0  0
   -7.3755   25.1754  -30.1172 H   0  0  0  0  0  0  0  0  0  0  0  0
   -4.3904   23.4837  -28.7598 H   0  0  0  0  0  0  0  0  0  0  0  0
   -6.0168   23.0312  -29.3990 H   0  0  0  0  0  0  0  0  0  0  0  0
   -2.4506   21.9627  -31.0608 H   0  0  0  0  0  0  0  0  0  0  0  0
   -2.7845   23.6865  -31.5574 H   0  0  0  0  0  0  0  0  0  0  0  0
   -2.2250   21.4565  -28.5643 H   0  0  0  0  0  0  0  0  0  0  0  0
   -1.2716   22.3633  -26.4352 H   0  0  0  0  0  0  0  0  0  0  0  0
   -0.8672   24.8223  -26.2040 H   0  0  0  0  0  0  0  0  0  0  0  0
   -1.4168   26.3440  -28.1132 H   0  0  0  0  0  0  0  0  0  0  0  0
   -5.2543   23.9055  -32.2041 H   0  0  0  0  0  0  0  0  0  0  0  0
   -4.4034   22.4276  -32.8063 H   0  0  0  0  0  0  0  0  0  0  0  0
   -7.4706   23.7717  -31.2390 H   0  0  0  0  0  0  0  0  0  0  0  0
   -9.6757   22.6156  -31.2941 H   0  0  0  0  0  0  0  0  0  0  0  0
   -9.8434   20.2760  -32.1379 H   0  0  0  0  0  0  0  0  0  0  0  0
   -7.8027   19.0837  -32.9283 H   0  0  0  0  0  0  0  0  0  0  0  0
  1  2  1  0
  2  3  2  0
  2  4  1  0
  4  5  1  0
  5  6  1  0
  6  7  1  0
  7  8  2  0
  8  9  1  0
  9 10  2  0
 10 11  1  0
 11 12  2  0
  5 13  1  0
 13 14  1  0
 14 15  2  0
 15 16  1  0
 16 17  2  0
 17 18  1  0
 18 19  2  0
 19 20  1  0
 12  7  1  0
 19 14  1  0
  1 21  1  0
  1 22  1  0
  1 23  1  0
  4 24  1  0
  4 25  1  0
  6 26  1  0
  6 27  1  0
  8 28  1  0
  9 29  1  0
 10 30  1  0
 11 31  1  0
 13 32  1  0
 13 33  1  0
 15 34  1  0
 16 35  1  0
 17 36  1  0
 18 37  1  0
M  END
>  <UniqueID>  (10) 
10

>  <SMILES>  (10) 
CC(=O)CN(Cc1ccccn1)Cc1ccccc1Cl

>  <Energy>  (10) 
38.32729550311806

>  <Genealogy>  (10) 
CC(=O)CN(Cc1ccccn1)Cc1ccccc1Cl (3D coordinates assigned)
CC(=O)CN(Cc1ccccn1)Cc1ccccc1Cl (optimized conformer: 38.32729550311806 kcal/mol)

>  <smiles>  (10) 
CC(=O)CN(Cc1ccccn1)Cc1ccccc1Cl

>  <score_type>  (10) 
oracle

>  <origin>  (10) 
adg

>  <m_score__min__energy>  (10) 
-8.1500000000000004

>  <m_primary>  (10) 
energy

$$$$
10:0
     RDKit          3D

 43 46  0  0  0  0  0  0  0  0999 V2000
   -0.3850   21.1710  -31.5730 C   0  0  0  0  0  0  0  0  0  0  0  0
   -1.3310   21.6930  -32.4990 O   0  0  0  0  0  0  0  0  0  0  0  0
   -2.0020   20.8920  -33.4280 C   0  0  0  0  0  0  0  0  0  0  0  0
   -1.5430   20.7750  -34.5980 O   0  0  0  0  0  0  0  0  0  0  0  0
   -3.2820   20.2190  -33.0750 C   0  0  0  0  0  0  0  0  0  0  0  0
   -3.4310   18.8720  -33.1140 C   0  0  0  0  0  0  0  0  0  0  0  0
   -2.3320   17.9360  -33.5280 C   0  0  0  0  0  0  0  0  0  0  0  0
   -4.6540   18.2830  -32.7790 O   0  0  0  0  0  0  0  0  0  0  0  0
   -5.8180   19.0140  -32.5570 C   0  0  0  0  0  0  0  0  0  0  0  0
   -7.0190   18.3250  -32.3850 C   0  0  0  0  0  0  0  0  0  0  0  0
   -8.2100   19.0180  -32.1930 C   0  0  0  0  0  0  0  0  0  0  0  0
   -8.2140   20.4180  -32.1720 C   0  0  0  0  0  0  0  0  0  0  0  0
   -9.4220   21.1080  -31.9810 C   0  0  0  0  0  0  0  0  0  0  0  0
   -9.4400   22.5010  -31.9520 C   0  0  0  0  0  0  0  0  0  0  0  0
   -8.2570   23.2190  -32.1170 C   0  0  0  0  0  0  0  0  0  0  0  0
   -7.0460   22.5490  -32.3080 C   0  0  0  0  0  0  0  0  0  0  0  0
   -6.9980   21.1380  -32.3380 C   0  0  0  0  0  0  0  0  0  0  0  0
   -5.7820   20.4180  -32.5220 C   0  0  0  0  0  0  0  0  0  0  0  0
   -4.4240   21.1090  -32.5950 C   0  0  1  0  0  0  0  0  0  0  0  0
   -4.0560   21.6850  -31.2400 C   0  0  0  0  0  0  0  0  0  0  0  0
   -4.2250   23.0570  -30.9820 C   0  0  0  0  0  0  0  0  0  0  0  0
   -3.8640   23.5950  -29.7440 C   0  0  0  0  0  0  0  0  0  0  0  0
   -3.3190   22.7730  -28.7550 C   0  0  0  0  0  0  0  0  0  0  0  0
   -3.1290   21.4120  -29.0040 C   0  0  0  0  0  0  0  0  0  0  0  0
   -3.4900   20.8690  -30.2400 C   0  0  0  0  0  0  0  0  0  0  0  0
   -0.7321   21.3625  -30.5469 H   0  0  0  0  0  0  0  0  0  0  0  0
   -0.2797   20.0871  -31.7281 H   0  0  0  0  0  0  0  0  0  0  0  0
    0.5881   21.6598  -31.7281 H   0  0  0  0  0  0  0  0  0  0  0  0
   -1.8460   17.5221  -32.6322 H   0  0  0  0  0  0  0  0  0  0  0  0
   -2.7548   17.1164  -34.1275 H   0  0  0  0  0  0  0  0  0  0  0  0
   -1.5901   18.4839  -34.1275 H   0  0  0  0  0  0  0  0  0  0  0  0
   -7.0242   17.2251  -32.4013 H   0  0  0  0  0  0  0  0  0  0  0  0
   -9.1509   18.4646  -32.0573 H   0  0  0  0  0  0  0  0  0  0  0  0
  -10.3589   20.5459  -31.8536 H   0  0  0  0  0  0  0  0  0  0  0  0
  -10.3895   23.0348  -31.7986 H   0  0  0  0  0  0  0  0  0  0  0  0
   -8.2768   24.3186  -32.0968 H   0  0  0  0  0  0  0  0  0  0  0  0
   -6.1192   23.1273  -32.4365 H   0  0  0  0  0  0  0  0  0  0  0  0
   -4.5456   21.9004  -33.3492 H   0  0  0  0  0  0  0  0  0  0  0  0
   -4.6444   23.7114  -31.7604 H   0  0  0  0  0  0  0  0  0  0  0  0
   -4.0093   24.6676  -29.5480 H   0  0  0  0  0  0  0  0  0  0  0  0
   -3.0393   23.1978  -27.7796 H   0  0  0  0  0  0  0  0  0  0  0  0
   -2.6947   20.7667  -28.2263 H   0  0  0  0  0  0  0  0  0  0  0  0
   -3.3314   19.7979  -30.4336 H   0  0  0  0  0  0  0  0  0  0  0  0
  1  2  1  0
  2  3  1  0
  3  4  2  0
  3  5  1  0
  5  6  2  0
  6  7  1  0
  6  8  1  0
  8  9  1  0
  9 10  2  0
 10 11  1  0
 11 12  2  0
 12 13  1  0
 13 14  2  0
 14 15  1  0
 15 16  2  0
 16 17  1  0
 17 18  2  0
 18 19  1  0
 19 20  1  0
 20 21  2  0
 21 22  1  0
 22 23  2  0
 23 24  1  0
 24 25  2  0
 19  5  1  0
 25 20  1  0
 18  9  1  0
 17 12  1  0
  1 26  1  0
  1 27  1  0
  1 28  1  0
  7 29  1  0
  7 30  1  0
  7 31  1  0
 10 32  1  0
 11 33  1  0
 13 34  1  0
 14 35  1  0
 15 36  1  0
 16 37  1  0
 19 38  1  6
 21 39  1  0
 22 40  1  0
 23 41  1  0
 24 42  1  0
 25 43  1  0
M  END
>  <UniqueID>  (11) 
11

>  <SMILES>  (11) 
COC(=O)C1=C(C)Oc2ccc3ccccc3c2[C@H]1c1ccccc1

>  <Energy>  (11) 
57.166006442219796

>  <Genealogy>  (11) 
COC(=O)C1=C(C)Oc2ccc3ccccc3c2[C@H]1c1ccccc1 (chirality)
COC(=O)C1=C(C)Oc2ccc3ccccc3c2[C@H]1c1ccccc1 (3D coordinates assigned)
COC(=O)C1=C(C)Oc2ccc3ccccc3c2[C@H]1c1ccccc1 (nonaromatic ring conformer: 57.166006442219796 kcal/mol)

>  <smiles>  (11) 
COC(=O)C1=C(C)Oc2ccc3ccccc3c2C1c1ccccc1

>  <score_type>  (11) 
oracle

>  <origin>  (11) 
adg

>  <m_score__min__energy>  (11) 
-8.1999999999999993

>  <m_primary>  (11) 
energy

$$$$
11:0
     RDKit          3D

 50 52  0  0  0  0  0  0  0  0999 V2000
    0.7640   23.9350  -27.4740 C   0  0  0  0  0  0  0  0  0  0  0  0
    0.3120   24.1590  -28.8060 O   0  0  0  0  0  0  0  0  0  0  0  0
   -0.9880   23.8880  -29.2570 C   0  0  0  0  0  0  0  0  0  0  0  0
   -1.2860   22.7950  -30.0860 C   0  0  0  0  0  0  0  0  0  0  0  0
   -2.5980   22.5650  -30.5120 C   0  0  0  0  0  0  0  0  0  0  0  0
   -3.6550   23.4240  -30.1260 C   0  0  0  0  0  0  0  0  0  0  0  0
   -5.0290   23.1860  -30.5720 N   0  0  0  0  0  0  0  0  0  0  0  0
   -5.2580   22.7180  -31.9550 C   0  0  0  0  0  0  0  0  0  0  0  0
   -6.7330   22.6230  -32.3500 C   0  0  0  0  0  0  0  0  0  0  0  0
   -7.5450   22.0700  -31.2530 N   0  0  0  0  0  0  0  0  0  0  0  0
   -8.9400   21.7970  -31.7090 C   0  0  0  0  0  0  0  0  0  0  0  0
   -9.1070   20.3860  -32.3050 C   0  0  0  0  0  0  0  0  0  0  0  0
   -8.2120   19.3410  -31.6290 C   0  0  0  0  0  0  0  0  0  0  0  0
   -7.2850   18.7100  -32.6330 C   0  0  0  0  0  0  0  0  0  0  0  0
   -7.1910   17.3110  -32.7280 C   0  0  0  0  0  0  0  0  0  0  0  0
   -6.3550   16.7250  -33.6830 C   0  0  0  0  0  0  0  0  0  0  0  0
   -5.6160   17.5290  -34.5550 C   0  0  0  0  0  0  0  0  0  0  0  0
   -5.7130   18.9210  -34.4740 C   0  0  0  0  0  0  0  0  0  0  0  0
   -6.5490   19.5120  -33.5210 C   0  0  0  0  0  0  0  0  0  0  0  0
   -7.5370   23.0480  -30.1520 C   0  0  0  0  0  0  0  0  0  0  0  0
   -6.1260   23.2570  -29.5800 C   0  0  0  0  0  0  0  0  0  0  0  0
   -3.3340   24.5150  -29.2830 C   0  0  0  0  0  0  0  0  0  0  0  0
   -2.0190   24.7390  -28.8620 C   0  0  0  0  0  0  0  0  0  0  0  0
    0.0114   24.3080  -26.7638 H   0  0  0  0  0  0  0  0  0  0  0  0
    0.9161   22.8573  -27.3148 H   0  0  0  0  0  0  0  0  0  0  0  0
    1.7137   24.4667  -27.3148 H   0  0  0  0  0  0  0  0  0  0  0  0
   -0.4818   22.1146  -30.4028 H   0  0  0  0  0  0  0  0  0  0  0  0
   -2.8125   21.7013  -31.1585 H   0  0  0  0  0  0  0  0  0  0  0  0
   -4.7614   23.4184  -32.6426 H   0  0  0  0  0  0  0  0  0  0  0  0
   -4.8489   21.6987  -32.0150 H   0  0  0  0  0  0  0  0  0  0  0  0
   -7.1032   23.6286  -32.5983 H   0  0  0  0  0  0  0  0  0  0  0  0
   -6.8181   21.9524  -33.2178 H   0  0  0  0  0  0  0  0  0  0  0  0
   -7.1010   21.1860  -30.9040 H   0  0  0  0  0  0  0  0  0  0  0  0
   -9.6173   21.8975  -30.8481 H   0  0  0  0  0  0  0  0  0  0  0  0
   -9.1777   22.5219  -32.5014 H   0  0  0  0  0  0  0  0  0  0  0  0
  -10.1563   20.0777  -32.1875 H   0  0  0  0  0  0  0  0  0  0  0  0
   -8.8107   20.4383  -33.3631 H   0  0  0  0  0  0  0  0  0  0  0  0
   -7.6164   19.8288  -30.8433 H   0  0  0  0  0  0  0  0  0  0  0  0
   -8.8486   18.5576  -31.1920 H   0  0  0  0  0  0  0  0  0  0  0  0
   -7.7773   16.6749  -32.0486 H   0  0  0  0  0  0  0  0  0  0  0  0
   -6.2788   15.6296  -33.7481 H   0  0  0  0  0  0  0  0  0  0  0  0
   -4.9579   17.0663  -35.3052 H   0  0  0  0  0  0  0  0  0  0  0  0
   -5.1308   19.5528  -35.1609 H   0  0  0  0  0  0  0  0  0  0  0  0
   -6.6304   20.6076  -33.4667 H   0  0  0  0  0  0  0  0  0  0  0  0
   -7.9140   24.0103  -30.5286 H   0  0  0  0  0  0  0  0  0  0  0  0
   -8.1768   22.6588  -29.3463 H   0  0  0  0  0  0  0  0  0  0  0  0
   -6.0937   24.2495  -29.1068 H   0  0  0  0  0  0  0  0  0  0  0  0
   -5.9556   22.4298  -28.8753 H   0  0  0  0  0  0  0  0  0  0  0  0
   -4.1314   25.1975  -28.9538 H   0  0  0  0  0  0  0  0  0  0  0  0
   -1.7957   25.5973  -28.2112 H   0  0  0  0  0  0  0  0  0  0  0  0
  1  2  1  0
  2  3  1  0
  3  4  2  0
  4  5  1  0
  5  6  2  0
  6  7  1  0
  7  8  1  0
  8  9  1  0
  9 10  1  0
 10 11  1  0
 11 12  1  0
 12 13  1  0
 13 14  1  0
 14 15  2  0
 15 16  1  0
 16 17  2  0
 17 18  1  0
 18 19  2  0
 10 20  1  0
 20 21  1  0
  6 22  1  0
 22 23  2  0
 23  3  1  0
 21  7  1  0
 19 14  1  0
  1 24  1  0
  1 25  1  0
  1 26  1  0
  4 27  1  0
  5 28  1  0
  8 29  1  0
  8 30  1  0
  9 31  1  0
  9 32  1  0
 10 33  1  0
 11 34  1  0
 11 35  1  0
 12 36  1  0
 12 37  1  0
 13 38  1  0
 13 39  1  0
 15 40  1  0
 16 41  1  0
 17 42  1  0
 18 43  1  0
 19 44  1  0
 20 45  1  0
 20 46  1  0
 21 47  1  0
 21 48  1  0
 22 49  1  0
 23 50  1  0
M  CHG  1  10   1
M  END
>  <UniqueID>  (12) 
12

>  <SMILES>  (12) 
COc1ccc(N2CC[NH+](CCCc3ccccc3)CC2)cc1

>  <Energy>  (12) 
59.3712612014141

>  <Genealogy>  (12) 
COc1ccc(N2CC[NH+](CCCc3ccccc3)CC2)cc1 (protonated)
COc1ccc(N2CC[NH+](CCCc3ccccc3)CC2)cc1 (3D coordinates assigned)
COc1ccc(N2CC[NH+](CCCc3ccccc3)CC2)cc1 (nonaromatic ring conformer: 59.3712612014141 kcal/mol)

>  <smiles>  (12) 
COc1ccc(N2CCN(CCCc3ccccc3)CC2)cc1

>  <score_type>  (12) 
oracle

>  <origin>  (12) 
adg

>  <m_score__min__energy>  (12) 
-7.2300000000000004

>  <m_primary>  (12) 
energy

$$$$
12:0
     RDKit          3D

 64 65  0  0  0  0  0  0  0  0999 V2000
   -4.5700   21.8890  -33.0830 C   0  0  0  0  0  0  0  0  0  0  0  0
   -4.1110   20.9880  -32.0820 O   0  0  0  0  0  0  0  0  0  0  0  0
   -2.7600   20.7150  -31.8110 C   0  0  0  0  0  0  0  0  0  0  0  0
   -2.0790   21.3480  -30.7510 C   0  0  0  0  0  0  0  0  0  0  0  0
   -0.7380   21.0510  -30.4960 C   0  0  0  0  0  0  0  0  0  0  0  0
   -0.0640   20.1210  -31.2850 C   0  0  0  0  0  0  0  0  0  0  0  0
   -0.7240   19.4880  -32.3390 C   0  0  0  0  0  0  0  0  0  0  0  0
   -2.0700   19.7850  -32.6200 C   0  0  0  0  0  0  0  0  0  0  0  0
   -2.7420   19.1130  -33.8020 C   0  0  0  0  0  0  0  0  0  0  0  0
   -3.9550   18.3750  -33.4030 N   0  0  0  0  0  0  0  0  0  0  0  0
   -4.8660   18.1620  -34.5400 C   0  0  0  0  0  0  0  0  0  0  0  0
   -6.2230   17.6250  -34.0550 C   0  0  0  0  0  0  0  0  0  0  0  0
   -6.1880   17.1900  -32.5780 C   0  0  0  0  0  0  0  0  0  0  0  0
   -6.8160   18.2160  -31.6250 C   0  0  0  0  0  0  0  0  0  0  0  0
   -6.4490   19.5890  -32.0180 N   0  0  0  0  0  0  0  0  0  0  0  0
   -7.5440   20.3000  -32.6920 C   0  0  0  0  0  0  0  0  0  0  0  0
   -8.5240   20.8770  -31.6630 C   0  0  0  0  0  0  0  0  0  0  0  0
   -8.1320   22.3000  -31.2470 C   0  0  0  0  0  0  0  0  0  0  0  0
   -6.6820   22.4040  -31.0790 N   0  0  0  0  0  0  0  0  0  0  0  0
   -6.0060   23.5570  -30.5420 C   0  0  0  0  0  0  0  0  0  0  0  0
   -6.8550   24.8950  -30.0950 S   0  0  0  0  0  0  0  0  0  0  0  0
   -4.5750   23.5110  -30.3870 N   0  0  0  0  0  0  0  0  0  0  0  0
   -3.7830   24.5460  -29.7190 C   0  0  0  0  0  0  0  0  0  0  0  0
   -2.6850   23.9220  -28.9000 C   0  0  0  0  0  0  0  0  0  0  0  0
   -1.3630   24.3900  -28.9950 C   0  0  0  0  0  0  0  0  0  0  0  0
   -0.3520   23.8080  -28.2250 C   0  0  0  0  0  0  0  0  0  0  0  0
   -0.6510   22.7550  -27.3560 C   0  0  0  0  0  0  0  0  0  0  0  0
   -1.9630   22.2840  -27.2540 C   0  0  0  0  0  0  0  0  0  0  0  0
   -2.9770   22.8630  -28.0230 C   0  0  0  0  0  0  0  0  0  0  0  0
   -5.0195   22.7713  -32.6039 H   0  0  0  0  0  0  0  0  0  0  0  0
   -3.7224   22.2038  -33.7095 H   0  0  0  0  0  0  0  0  0  0  0  0
   -5.3230   21.3884  -33.7095 H   0  0  0  0  0  0  0  0  0  0  0  0
   -2.6065   22.0797  -30.1214 H   0  0  0  0  0  0  0  0  0  0  0  0
   -0.2126   21.5527  -29.6700 H   0  0  0  0  0  0  0  0  0  0  0  0
    0.9901   19.8854  -31.0766 H   0  0  0  0  0  0  0  0  0  0  0  0
   -0.1876   18.7511  -32.9549 H   0  0  0  0  0  0  0  0  0  0  0  0
   -3.0205   19.8828  -34.5368 H   0  0  0  0  0  0  0  0  0  0  0  0
   -2.0314   18.3912  -34.2310 H   0  0  0  0  0  0  0  0  0  0  0  0
   -3.6880   17.4540  -32.9820 H   0  0  0  0  0  0  0  0  0  0  0  0
   -4.4500   18.9370  -32.6720 H   0  0  0  0  0  0  0  0  0  0  0  0
   -5.0214   19.1175  -35.0623 H   0  0  0  0  0  0  0  0  0  0  0  0
   -4.4161   17.4242  -35.2207 H   0  0  0  0  0  0  0  0  0  0  0  0
   -6.9784   18.4159  -34.1726 H   0  0  0  0  0  0  0  0  0  0  0  0
   -6.4690   16.7397  -34.6598 H   0  0  0  0  0  0  0  0  0  0  0  0
   -6.7373   16.2420  -32.4807 H   0  0  0  0  0  0  0  0  0  0  0  0
   -5.1300   17.0888  -32.2945 H   0  0  0  0  0  0  0  0  0  0  0  0
   -7.9108   18.1129  -31.6546 H   0  0  0  0  0  0  0  0  0  0  0  0
   -6.4411   18.0282  -30.6081 H   0  0  0  0  0  0  0  0  0  0  0  0
   -5.6360   19.5370  -32.6760 H   0  0  0  0  0  0  0  0  0  0  0  0
   -7.1264   21.1206  -33.2938 H   0  0  0  0  0  0  0  0  0  0  0  0
   -8.0831   19.5918  -33.3383 H   0  0  0  0  0  0  0  0  0  0  0  0
   -9.5320   20.8985  -32.1028 H   0  0  0  0  0  0  0  0  0  0  0  0
   -8.4996   20.2377  -30.7682 H   0  0  0  0  0  0  0  0  0  0  0  0
   -8.4580   23.0070  -32.0241 H   0  0  0  0  0  0  0  0  0  0  0  0
   -8.6189   22.5375  -30.2897 H   0  0  0  0  0  0  0  0  0  0  0  0
   -6.1090   21.5590  -31.2960 H   0  0  0  0  0  0  0  0  0  0  0  0
   -4.0670   22.6710  -30.7420 H   0  0  0  0  0  0  0  0  0  0  0  0
   -3.3381   25.2073  -30.4771 H   0  0  0  0  0  0  0  0  0  0  0  0
   -4.4407   25.1228  -29.0522 H   0  0  0  0  0  0  0  0  0  0  0  0
   -1.1230   25.2179  -29.6783 H   0  0  0  0  0  0  0  0  0  0  0  0
    0.6805   24.1793  -28.3031 H   0  0  0  0  0  0  0  0  0  0  0  0
    0.1463   22.2969  -26.7523 H   0  0  0  0  0  0  0  0  0  0  0  0
   -2.1980   21.4569  -26.5680 H   0  0  0  0  0  0  0  0  0  0  0  0
   -4.0079   22.4881  -27.9414 H   0  0  0  0  0  0  0  0  0  0  0  0
  1  2  1  0
  2  3  1  0
  3  4  2  0
  4  5  1  0
  5  6  2  0
  6  7  1  0
  7  8  2  0
  8  9  1  0
  9 10  1  0
 10 11  1  0
 11 12  1  0
 12 13  1  0
 13 14  1  0
 14 15  1  0
 15 16  1  0
 16 17  1  0
 17 18  1  0
 18 19  1  0
 19 20  1  0
 20 21  2  0
 20 22  1  0
 22 23  1  0
 23 24  1  0
 24 25  2  0
 25 26  1  0
 26 27  2  0
 27 28  1  0
 28 29  2  0
  8  3  1  0
 29 24  1  0
  1 30  1  0
  1 31  1  0
  1 32  1  0
  4 33  1  0
  5 34  1  0
  6 35  1  0
  7 36  1  0
  9 37  1  0
  9 38  1  0
 10 39  1  0
 10 40  1  0
 11 41  1  0
 11 42  1  0
 12 43  1  0
 12 44  1  0
 13 45  1  0
 13 46  1  0
 14 47  1  0
 14 48  1  0
 15 49  1  0
 16 50  1  0
 16 51  1  0
 17 52  1  0
 17 53  1  0
 18 54  1  0
 18 55  1  0
 19 56  1  0
 22 57  1  0
 23 58  1  0
 23 59  1  0
 25 60  1  0
 26 61  1  0
 27 62  1  0
 28 63  1  0
 29 64  1  0
M  CHG  1  10   1
M  END
>  <UniqueID>  (13) 
13

>  <SMILES>  (13) 
COc1ccccc1C[NH2+]CCCCNCCCNC(=S)NCc1ccccc1

>  <Energy>  (13) 
47.52130042955547

>  <Genealogy>  (13) 
COc1ccccc1C[NH2+]CCCCNCCCNC(=S)NCc1ccccc1 (protonated)
COc1ccccc1C[NH2+]CCCCNCCCNC(=S)NCc1ccccc1 (3D coordinates assigned)
COc1ccccc1C[NH2+]CCCCNCCCNC(=S)NCc1ccccc1 (optimized conformer: 47.52130042955547 kcal/mol)

>  <smiles>  (13) 
COc1ccccc1CNCCCCNCCCNC(=S)NCc1ccccc1

>  <score_type>  (13) 
oracle

>  <origin>  (13) 
adg

>  <m_score__min__energy>  (13) 
-7.2400000000000002

>  <m_primary>  (13) 
energy

$$$$
13:0
     RDKit          3D

 45 46  0  0  0  0  0  0  0  0999 V2000
   -9.0390   22.7660  -31.9800 C   0  0  0  0  0  0  0  0  0  0  0  0
   -8.2730   22.6760  -30.7840 O   0  0  0  0  0  0  0  0  0  0  0  0
   -6.9850   23.2080  -30.6240 C   0  0  0  0  0  0  0  0  0  0  0  0
   -6.8600   24.4910  -30.0840 C   0  0  0  0  0  0  0  0  0  0  0  0
   -5.6020   25.0730  -29.9140 C   0  0  0  0  0  0  0  0  0  0  0  0
   -4.4370   24.3690  -30.2730 C   0  0  0  0  0  0  0  0  0  0  0  0
   -3.1550   24.9230  -30.1210 O   0  0  0  0  0  0  0  0  0  0  0  0
   -2.2340   24.5530  -29.1020 C   0  0  0  0  0  0  0  0  0  0  0  0
   -4.5570   23.0700  -30.7950 C   0  0  0  0  0  0  0  0  0  0  0  0
   -3.0910   22.1350  -31.2600 S   0  0  0  0  0  0  0  0  0  0  0  0
   -3.6930   21.6430  -32.9190 C   0  0  0  0  0  0  0  0  0  0  0  0
   -3.6580   20.1210  -33.1130 C   0  0  0  0  0  0  0  0  0  0  0  0
   -5.0010   19.5660  -33.3940 N   0  0  0  0  0  0  0  0  0  0  0  0
   -6.0460   20.6230  -33.3810 C   0  0  0  0  0  0  0  0  0  0  0  0
   -7.4500   20.0320  -33.2170 C   0  0  0  0  0  0  0  0  0  0  0  0
   -7.5900   19.3170  -31.8550 C   0  0  0  0  0  0  0  0  0  0  0  0
   -8.6550   18.2150  -31.9350 C   0  0  0  0  0  0  0  0  0  0  0  0
   -6.2370   18.7570  -31.3520 C   0  0  0  0  0  0  0  0  0  0  0  0
   -5.3110   18.3990  -32.5230 C   0  0  0  0  0  0  0  0  0  0  0  0
   -5.8230   22.5010  -30.9850 C   0  0  0  0  0  0  0  0  0  0  0  0
  -10.1020   22.8909  -31.7261 H   0  0  0  0  0  0  0  0  0  0  0  0
   -8.6987   23.6303  -32.5692 H   0  0  0  0  0  0  0  0  0  0  0  0
   -8.9084   21.8463  -32.5692 H   0  0  0  0  0  0  0  0  0  0  0  0
   -7.7618   25.0481  -29.7899 H   0  0  0  0  0  0  0  0  0  0  0  0
   -5.5209   26.0877  -29.4970 H   0  0  0  0  0  0  0  0  0  0  0  0
   -2.6860   24.7346  -28.1157 H   0  0  0  0  0  0  0  0  0  0  0  0
   -1.9867   23.4857  -29.2012 H   0  0  0  0  0  0  0  0  0  0  0  0
   -1.3171   25.1526  -29.2012 H   0  0  0  0  0  0  0  0  0  0  0  0
   -4.7288   21.9930  -33.0395 H   0  0  0  0  0  0  0  0  0  0  0  0
   -3.0305   22.0975  -33.6704 H   0  0  0  0  0  0  0  0  0  0  0  0
   -2.9930   19.8860  -33.9571 H   0  0  0  0  0  0  0  0  0  0  0  0
   -3.2921   19.6682  -32.1796 H   0  0  0  0  0  0  0  0  0  0  0  0
   -5.8483   21.3090  -32.5442 H   0  0  0  0  0  0  0  0  0  0  0  0
   -6.0083   21.1534  -34.3439 H   0  0  0  0  0  0  0  0  0  0  0  0
   -8.1914   20.8425  -33.2764 H   0  0  0  0  0  0  0  0  0  0  0  0
   -7.6189   19.2981  -34.0188 H   0  0  0  0  0  0  0  0  0  0  0  0
   -7.9177   20.0643  -31.1173 H   0  0  0  0  0  0  0  0  0  0  0  0
   -8.9470   17.9128  -30.9184 H   0  0  0  0  0  0  0  0  0  0  0  0
   -9.5365   18.5953  -32.4720 H   0  0  0  0  0  0  0  0  0  0  0  0
   -8.2448   17.3470  -32.4720 H   0  0  0  0  0  0  0  0  0  0  0  0
   -5.7456   19.5162  -30.7259 H   0  0  0  0  0  0  0  0  0  0  0  0
   -6.4336   17.8426  -30.7730 H   0  0  0  0  0  0  0  0  0  0  0  0
   -4.3682   18.0039  -32.1168 H   0  0  0  0  0  0  0  0  0  0  0  0
   -5.8338   17.6548  -33.1418 H   0  0  0  0  0  0  0  0  0  0  0  0
   -5.9094   21.4942  -31.4196 H   0  0  0  0  0  0  0  0  0  0  0  0
  1  2  1  0
  2  3  1  0
  3  4  2  0
  4  5  1  0
  5  6  2  0
  6  7  1  0
  7  8  1  0
  6  9  1  0
  9 10  1  0
 10 11  1  0
 11 12  1  0
 12 13  1  0
 13 14  1  0
 14 15  1  0
 15 16  1  0
 16 17  1  0
 16 18  1  0
 18 19  1  0
  9 20  2  0
 20  3  1  0
 19 13  1  0
  1 21  1  0
  1 22  1  0
  1 23  1  0
  4 24  1  0
  5 25  1  0
  8 26  1  0
  8 27  1  0
  8 28  1  0
 11 29  1  0
 11 30  1  0
 12 31  1  0
 12 32  1  0
 14 33  1  0
 14 34  1  0
 15 35  1  0
 15 36  1  0
 16 37  1  0
 17 38  1  0
 17 39  1  0
 17 40  1  0
 18 41  1  0
 18 42  1  0
 19 43  1  0
 19 44  1  0
 20 45  1  0
M  END
>  <UniqueID>  (14) 
14

>  <SMILES>  (14) 
COc1ccc(OC)c(SCCN2CCC(C)CC2)c1

>  <Energy>  (14) 
41.96598604561445

>  <Genealogy>  (14) 
COc1ccc(OC)c(SCCN2CCC(C)CC2)c1 (3D coordinates assigned)
COc1ccc(OC)c(SCCN2CCC(C)CC2)c1 (nonaromatic ring conformer: 41.96598604561445 kcal/mol)

>  <smiles>  (14) 
COc1ccc(OC)c(SCCN2CCC(C)CC2)c1

>  <score_type>  (14) 
oracle

>  <origin>  (14) 
adg

>  <m_score__min__energy>  (14) 
-7.5999999999999996

>  <m_primary>  (14) 
energy

$$$$
14:0
     RDKit          3D

 59 59  0  0  0  0  0  0  0  0999 V2000
   -7.3720   18.2670  -31.9760 C   0  0  0  0  0  0  0  0  0  0  0  0
   -8.6870   18.9270  -31.5660 C   0  0  0  0  0  0  0  0  0  0  0  0
   -9.1520   20.0020  -32.5700 C   0  0  0  0  0  0  0  0  0  0  0  0
   -9.2100   21.4200  -31.9740 C   0  0  0  0  0  0  0  0  0  0  0  0
   -8.8210   21.5200  -30.4870 C   0  0  0  0  0  0  0  0  0  0  0  0
   -7.6580   22.4820  -30.1790 C   0  0  0  0  0  0  0  0  0  0  0  0
   -7.2860   23.3740  -31.3770 C   0  0  0  0  0  0  0  0  0  0  0  0
   -5.9370   23.0450  -31.9690 C   0  0  0  0  0  0  0  0  0  0  0  0
   -5.0250   23.8600  -31.9480 O   0  0  0  0  0  0  0  0  0  0  0  0
   -5.7230   21.7120  -32.6400 C   0  0  0  0  0  0  0  0  0  0  0  0
   -4.8090   20.7910  -31.8200 C   0  0  0  0  0  0  0  0  0  0  0  0
   -4.2230   21.5010  -30.5870 C   0  0  0  0  0  0  0  0  0  0  0  0
   -2.6980   21.3400  -30.4640 C   0  0  0  0  0  0  0  0  0  0  0  0
   -1.9540   22.5310  -29.8220 C   0  0  0  0  0  0  0  0  0  0  0  0
   -2.8360   23.4520  -28.9570 C   0  0  1  0  0  0  0  0  0  0  0  0
   -2.3370   23.3920  -27.1930 S   0  0  0  0  0  0  0  0  0  0  0  0
   -1.6340   21.7440  -27.3040 C   0  0  0  0  0  0  0  0  0  0  0  0
   -0.2660   21.5810  -27.5460 C   0  0  0  0  0  0  0  0  0  0  0  0
    0.2760   20.3010  -27.6800 C   0  0  0  0  0  0  0  0  0  0  0  0
   -0.5400   19.1690  -27.5350 C   0  0  0  0  0  0  0  0  0  0  0  0
    0.0360   17.7960  -27.7120 C   0  0  0  0  0  0  0  0  0  0  0  0
   -1.9130   19.3360  -27.2940 C   0  0  0  0  0  0  0  0  0  0  0  0
   -2.4560   20.6180  -27.1750 C   0  0  0  0  0  0  0  0  0  0  0  0
   -2.7530   24.8670  -29.4550 C   0  0  0  0  0  0  0  0  0  0  0  0
   -1.9290   25.6760  -28.9510 O   0  0  0  0  0  0  0  0  0  0  0  0
   -3.5980   25.2950  -30.4720 O   0  0  0  0  0  0  0  0  0  0  0  0
   -6.8075   17.9837  -31.0754 H   0  0  0  0  0  0  0  0  0  0  0  0
   -7.5836   17.3683  -32.5739 H   0  0  0  0  0  0  0  0  0  0  0  0
   -6.7778   18.9737  -32.5739 H   0  0  0  0  0  0  0  0  0  0  0  0
   -9.4635   18.1510  -31.4965 H   0  0  0  0  0  0  0  0  0  0  0  0
   -8.5216   19.4248  -30.5991 H   0  0  0  0  0  0  0  0  0  0  0  0
   -8.4526   20.0103  -33.4190 H   0  0  0  0  0  0  0  0  0  0  0  0
  -10.1760   19.7380  -32.8730 H   0  0  0  0  0  0  0  0  0  0  0  0
   -8.5247   22.0598  -32.5493 H   0  0  0  0  0  0  0  0  0  0  0  0
  -10.2616   21.7363  -32.0375 H   0  0  0  0  0  0  0  0  0  0  0  0
   -9.7035   21.8616  -29.9262 H   0  0  0  0  0  0  0  0  0  0  0  0
   -8.4758   20.5179  -30.1926 H   0  0  0  0  0  0  0  0  0  0  0  0
   -7.9499   23.1278  -29.3377 H   0  0  0  0  0  0  0  0  0  0  0  0
   -6.7772   21.8689  -29.9376 H   0  0  0  0  0  0  0  0  0  0  0  0
   -8.0504   23.2471  -32.1577 H   0  0  0  0  0  0  0  0  0  0  0  0
   -7.2373   24.4098  -31.0098 H   0  0  0  0  0  0  0  0  0  0  0  0
   -6.6982   21.2197  -32.7693 H   0  0  0  0  0  0  0  0  0  0  0  0
   -5.2361   21.8957  -33.6091 H   0  0  0  0  0  0  0  0  0  0  0  0
   -5.3923   19.9211  -31.4839 H   0  0  0  0  0  0  0  0  0  0  0  0
   -3.9710   20.4866  -32.4642 H   0  0  0  0  0  0  0  0  0  0  0  0
   -4.4570   22.5735  -30.6569 H   0  0  0  0  0  0  0  0  0  0  0  0
   -4.6739   21.0373  -29.6972 H   0  0  0  0  0  0  0  0  0  0  0  0
   -2.4996   20.4471  -29.8529 H   0  0  0  0  0  0  0  0  0  0  0  0
   -2.3179   21.2657  -31.4936 H   0  0  0  0  0  0  0  0  0  0  0  0
   -1.1506   22.1304  -29.1863 H   0  0  0  0  0  0  0  0  0  0  0  0
   -1.5821   23.1486  -30.6528 H   0  0  0  0  0  0  0  0  0  0  0  0
   -3.8728   23.0931  -29.0364 H   0  0  0  0  0  0  0  0  0  0  0  0
    0.3848   22.4637  -27.6310 H   0  0  0  0  0  0  0  0  0  0  0  0
    1.3469   20.1798  -27.9001 H   0  0  0  0  0  0  0  0  0  0  0  0
    0.2242   17.3474  -26.7254 H   0  0  0  0  0  0  0  0  0  0  0  0
   -0.6750   17.1692  -28.2702 H   0  0  0  0  0  0  0  0  0  0  0  0
    0.9814   17.8641  -28.2702 H   0  0  0  0  0  0  0  0  0  0  0  0
   -2.5638   18.4543  -27.1985 H   0  0  0  0  0  0  0  0  0  0  0  0
   -3.5313   20.7428  -26.9796 H   0  0  0  0  0  0  0  0  0  0  0  0
  1  2  1  0
  2  3  1  0
  3  4  1  0
  4  5  1  0
  5  6  1  0
  6  7  1  0
  7  8  1  0
  8  9  2  0
  8 10  1  0
 10 11  1  0
 11 12  1  0
 12 13  1  0
 13 14  1  0
 14 15  1  0
 15 16  1  0
 16 17  1  0
 17 18  2  0
 18 19  1  0
 19 20  2  0
 20 21  1  0
 20 22  1  0
 22 23  2  0
 15 24  1  0
 24 25  2  0
 24 26  1  0
 23 17  1  0
  1 27  1  0
  1 28  1  0
  1 29  1  0
  2 30  1  0
  2 31  1  0
  3 32  1  0
  3 33  1  0
  4 34  1  0
  4 35  1  0
  5 36  1  0
  5 37  1  0
  6 38  1  0
  6 39  1  0
  7 40  1  0
  7 41  1  0
 10 42  1  0
 10 43  1  0
 11 44  1  0
 11 45  1  0
 12 46  1  0
 12 47  1  0
 13 48  1  0
 13 49  1  0
 14 50  1  0
 14 51  1  0
 15 52  1  1
 18 53  1  0
 19 54  1  0
 21 55  1  0
 21 56  1  0
 21 57  1  0
 22 58  1  0
 23 59  1  0
M  CHG  1  26  -1
M  END
>  <UniqueID>  (15) 
15

>  <SMILES>  (15) 
CCCCCCCC(=O)CCCCC[C@@H](Sc1ccc(C)cc1)C(=O)[O-]

>  <Energy>  (15) 
31.097621895347615

>  <Genealogy>  (15) 
CCCCCCCC(=O)CCCCCC(Sc1ccc(C)cc1)C(=O)[O-] (protonated)
CCCCCCCC(=O)CCCCC[C@@H](Sc1ccc(C)cc1)C(=O)[O-] (chirality)
CCCCCCCC(=O)CCCCC[C@@H](Sc1ccc(C)cc1)C(=O)[O-] (3D coordinates assigned)
CCCCCCCC(=O)CCCCC[C@@H](Sc1ccc(C)cc1)C(=O)[O-] (optimized conformer: 31.097621895347615 kcal/mol)

>  <smiles>  (15) 
CCCCCCCC(=O)CCCCCC(Sc1ccc(C)cc1)C(=O)O

>  <score_type>  (15) 
oracle

>  <origin>  (15) 
adg

>  <m_score__min__energy>  (15) 
-10.73

>  <m_primary>  (15) 
energy

$$$$
15:0
     RDKit          3D

 43 46  0  0  0  0  0  0  0  0999 V2000
   -6.2880   25.7170  -29.3440 C   0  0  0  0  0  0  0  0  0  0  0  0
   -6.4570   25.3320  -30.7050 O   0  0  0  0  0  0  0  0  0  0  0  0
   -6.4230   24.0060  -31.1660 C   0  0  0  0  0  0  0  0  0  0  0  0
   -7.5920   23.3140  -31.5350 C   0  0  0  0  0  0  0  0  0  0  0  0
   -7.5190   21.9970  -31.9900 C   0  0  0  0  0  0  0  0  0  0  0  0
   -6.2800   21.3430  -32.0880 C   0  0  0  0  0  0  0  0  0  0  0  0
   -6.2060   19.9410  -32.5750 C   0  0  0  0  0  0  0  0  0  0  0  0
   -7.3320   19.1060  -32.5080 C   0  0  0  0  0  0  0  0  0  0  0  0
   -7.2700   17.7870  -32.9640 C   0  0  0  0  0  0  0  0  0  0  0  0
   -6.0740   17.2750  -33.4960 C   0  0  0  0  0  0  0  0  0  0  0  0
   -5.9820   15.9500  -33.9610 C   0  0  0  0  0  0  0  0  0  0  0  0
   -6.9790   15.1750  -33.9140 O   0  0  0  0  0  0  0  0  0  0  0  0
   -4.7980   15.5100  -34.4680 N   0  0  0  0  0  0  0  0  0  0  0  0
   -3.7280   16.2880  -34.5370 N   0  0  0  0  0  0  0  0  0  0  0  0
   -3.7410   17.5810  -34.1050 C   0  0  0  0  0  0  0  0  0  0  0  0
   -2.6980   18.2860  -34.1900 O   0  0  0  0  0  0  0  0  0  0  0  0
   -4.9310   18.1070  -33.5680 C   0  0  0  0  0  0  0  0  0  0  0  0
   -5.0070   19.4340  -33.1060 C   0  0  0  0  0  0  0  0  0  0  0  0
   -2.5790   15.6120  -35.1110 C   0  0  0  0  0  0  0  0  0  0  0  0
   -3.0830   14.1960  -35.4260 C   0  0  0  0  0  0  0  0  0  0  0  0
   -4.5540   14.1760  -34.9840 C   0  0  0  0  0  0  0  0  0  0  0  0
   -5.1140   22.0350  -31.7200 C   0  0  0  0  0  0  0  0  0  0  0  0
   -5.1790   23.3640  -31.2580 C   0  0  0  0  0  0  0  0  0  0  0  0
   -4.0310   24.0800  -30.8830 O   0  0  0  0  0  0  0  0  0  0  0  0
   -3.1610   23.7100  -29.8180 C   0  0  0  0  0  0  0  0  0  0  0  0
   -6.6428   24.9088  -28.6876 H   0  0  0  0  0  0  0  0  0  0  0  0
   -5.2230   25.9088  -29.1467 H   0  0  0  0  0  0  0  0  0  0  0  0
   -6.8678   26.6308  -29.1467 H   0  0  0  0  0  0  0  0  0  0  0  0
   -8.5689   23.8146  -31.4642 H   0  0  0  0  0  0  0  0  0  0  0  0
   -8.4397   21.4665  -32.2744 H   0  0  0  0  0  0  0  0  0  0  0  0
   -8.2734   19.4943  -32.0920 H   0  0  0  0  0  0  0  0  0  0  0  0
   -8.1619   17.1457  -32.9064 H   0  0  0  0  0  0  0  0  0  0  0  0
   -4.1193   20.0812  -33.1609 H   0  0  0  0  0  0  0  0  0  0  0  0
   -2.2477   16.1198  -36.0288 H   0  0  0  0  0  0  0  0  0  0  0  0
   -1.7145   15.6064  -34.4309 H   0  0  0  0  0  0  0  0  0  0  0  0
   -3.0026   13.9902  -36.5036 H   0  0  0  0  0  0  0  0  0  0  0  0
   -2.4908   13.4274  -34.9078 H   0  0  0  0  0  0  0  0  0  0  0  0
   -5.2135   13.9632  -35.8382 H   0  0  0  0  0  0  0  0  0  0  0  0
   -4.7546   13.3954  -34.2354 H   0  0  0  0  0  0  0  0  0  0  0  0
   -4.1382   21.5327  -31.7936 H   0  0  0  0  0  0  0  0  0  0  0  0
   -3.6507   23.9183  -28.8553 H   0  0  0  0  0  0  0  0  0  0  0  0
   -2.9316   22.6365  -29.8880 H   0  0  0  0  0  0  0  0  0  0  0  0
   -2.2286   24.2895  -29.8880 H   0  0  0  0  0  0  0  0  0  0  0  0
  1  2  1  0
  2  3  1  0
  3  4  2  0
  4  5  1  0
  5  6  2  0
  6  7  1  0
  7  8  2  0
  8  9  1  0
  9 10  2  0
 10 11  1  0
 11 12  2  0
 11 13  1  0
 13 14  1  0
 14 15  1  0
 15 16  2  0
 15 17  1  0
 17 18  2  0
 14 19  1  0
 19 20  1  0
 20 21  1  0
  6 22  1  0
 22 23  2  0
 23 24  1  0
 24 25  1  0
 23  3  1  0
 18  7  1  0
 17 10  1  0
 21 13  1  0
  1 26  1  0
  1 27  1  0
  1 28  1  0
  4 29  1  0
  5 30  1  0
  8 31  1  0
  9 32  1  0
 18 33  1  0
 19 34  1  0
 19 35  1  0
 20 36  1  0
 20 37  1  0
 21 38  1  0
 21 39  1  0
 22 40  1  0
 25 41  1  0
 25 42  1  0
 25 43  1  0
M  END
>  <UniqueID>  (16) 
16

>  <SMILES>  (16) 
COc1ccc(-c2ccc3c(=O)n4n(c(=O)c3c2)CCC4)cc1OC

>  <Energy>  (16) 
65.1706676397537

>  <Genealogy>  (16) 
COc1ccc(-c2ccc3c(=O)n4n(c(=O)c3c2)CCC4)cc1OC (3D coordinates assigned)
COc1ccc(-c2ccc3c(=O)n4n(c(=O)c3c2)CCC4)cc1OC (nonaromatic ring conformer: 65.1706676397537 kcal/mol)

>  <smiles>  (16) 
COc1ccc(-c2ccc3c(=O)n4n(c(=O)c3c2)CCC4)cc1OC

>  <score_type>  (16) 
oracle

>  <origin>  (16) 
adg

>  <m_score__min__energy>  (16) 
-7.8099999999999996

>  <m_primary>  (16) 
energy

$$$$
16:0
     RDKit          3D

 70 73  0  0  0  0  0  0  0  0999 V2000
   -0.8920   26.4690  -27.8430 C   0  0  0  0  0  0  0  0  0  0  0  0
   -1.5510   25.8850  -28.9610 O   0  0  0  0  0  0  0  0  0  0  0  0
   -1.9980   24.5560  -29.0140 C   0  0  0  0  0  0  0  0  0  0  0  0
   -1.1770   23.4710  -28.6560 C   0  0  0  0  0  0  0  0  0  0  0  0
   -1.6590   22.1590  -28.7260 C   0  0  0  0  0  0  0  0  0  0  0  0
   -0.7940   21.1140  -28.3660 O   0  0  0  0  0  0  0  0  0  0  0  0
   -1.1860   19.9710  -27.6100 C   0  0  0  0  0  0  0  0  0  0  0  0
   -2.9810   21.9310  -29.1510 C   0  0  0  0  0  0  0  0  0  0  0  0
   -3.8160   23.0060  -29.4920 C   0  0  0  0  0  0  0  0  0  0  0  0
   -5.2080   22.7660  -29.9340 C   0  0  0  0  0  0  0  0  0  0  0  0
   -6.1480   23.3700  -29.3470 O   0  0  0  0  0  0  0  0  0  0  0  0
   -5.5150   21.8660  -31.0170 N   0  0  0  0  0  0  0  0  0  0  0  0
   -6.6430   22.1680  -31.9010 C   0  0  0  0  0  0  0  0  0  0  0  0
   -6.7400   21.1390  -33.0320 C   0  0  0  0  0  0  0  0  0  0  0  0
   -6.7580   19.7620  -32.4880 N   0  0  0  0  0  0  0  0  0  0  0  0
   -6.8600   18.7880  -33.6040 C   0  0  0  0  0  0  0  0  0  0  0  0
   -6.7970   17.3260  -33.1100 C   0  0  0  0  0  0  0  0  0  0  0  0
   -5.7640   16.5650  -33.8490 N   0  0  0  0  0  0  0  0  0  0  0  0
   -4.9770   15.6680  -32.9470 C   0  0  0  0  0  0  0  0  0  0  0  0
   -3.4660   15.6400  -33.2340 C   0  0  0  0  0  0  0  0  0  0  0  0
   -2.9600   17.0480  -33.3290 C   0  0  0  0  0  0  0  0  0  0  0  0
   -1.7600   17.4520  -32.7310 C   0  0  0  0  0  0  0  0  0  0  0  0
   -1.3200   18.7850  -32.8580 C   0  0  0  0  0  0  0  0  0  0  0  0
   -0.1280   19.2350  -32.2660 O   0  0  0  0  0  0  0  0  0  0  0  0
   -0.0630   20.1480  -31.1770 C   0  0  0  0  0  0  0  0  0  0  0  0
   -2.0860   19.7030  -33.5980 C   0  0  0  0  0  0  0  0  0  0  0  0
   -1.6160   21.0210  -33.7120 O   0  0  0  0  0  0  0  0  0  0  0  0
   -0.4670   21.4060  -34.4620 C   0  0  0  0  0  0  0  0  0  0  0  0
   -3.2860   19.2820  -34.2030 C   0  0  0  0  0  0  0  0  0  0  0  0
   -3.7210   17.9590  -34.0600 C   0  0  0  0  0  0  0  0  0  0  0  0
   -4.9620   17.4460  -34.7390 C   0  0  0  0  0  0  0  0  0  0  0  0
   -5.5910   19.4620  -31.5970 C   0  0  0  0  0  0  0  0  0  0  0  0
   -4.6980   20.6750  -31.2750 C   0  0  0  0  0  0  0  0  0  0  0  0
   -3.3100   24.3140  -29.4380 C   0  0  0  0  0  0  0  0  0  0  0  0
   -1.3320   26.0791  -26.9133 H   0  0  0  0  0  0  0  0  0  0  0  0
    0.1784   26.2175  -27.8758 H   0  0  0  0  0  0  0  0  0  0  0  0
   -1.0130   27.5618  -27.8758 H   0  0  0  0  0  0  0  0  0  0  0  0
   -0.1467   23.6556  -28.3179 H   0  0  0  0  0  0  0  0  0  0  0  0
   -1.1084   20.1973  -26.5363 H   0  0  0  0  0  0  0  0  0  0  0  0
   -2.2256   19.7082  -27.8551 H   0  0  0  0  0  0  0  0  0  0  0  0
   -0.5265   19.1254  -27.8551 H   0  0  0  0  0  0  0  0  0  0  0  0
   -3.3630   20.9015  -29.2164 H   0  0  0  0  0  0  0  0  0  0  0  0
   -7.5744   22.1495  -31.3160 H   0  0  0  0  0  0  0  0  0  0  0  0
   -6.4874   23.1633  -32.3429 H   0  0  0  0  0  0  0  0  0  0  0  0
   -7.6649   21.3143  -33.6011 H   0  0  0  0  0  0  0  0  0  0  0  0
   -5.8623   21.2490  -33.6858 H   0  0  0  0  0  0  0  0  0  0  0  0
   -7.6350   19.6790  -31.9160 H   0  0  0  0  0  0  0  0  0  0  0  0
   -7.8160   18.9450  -34.1250 H   0  0  0  0  0  0  0  0  0  0  0  0
   -6.0056   18.9543  -34.2765 H   0  0  0  0  0  0  0  0  0  0  0  0
   -6.5525   17.3180  -32.0375 H   0  0  0  0  0  0  0  0  0  0  0  0
   -7.7748   16.8529  -33.2835 H   0  0  0  0  0  0  0  0  0  0  0  0
   -5.1236   16.0082  -31.9113 H   0  0  0  0  0  0  0  0  0  0  0  0
   -5.3471   14.6469  -33.1213 H   0  0  0  0  0  0  0  0  0  0  0  0
   -2.9457   15.1155  -32.4190 H   0  0  0  0  0  0  0  0  0  0  0  0
   -3.2778   15.1132  -34.1811 H   0  0  0  0  0  0  0  0  0  0  0  0
   -1.1596   16.7277  -32.1610 H   0  0  0  0  0  0  0  0  0  0  0  0
   -0.1026   19.5914  -30.2290 H   0  0  0  0  0  0  0  0  0  0  0  0
    0.8778   20.7155  -31.2300 H   0  0  0  0  0  0  0  0  0  0  0  0
   -0.9139   20.8431  -31.2300 H   0  0  0  0  0  0  0  0  0  0  0  0
    0.3461   21.6785  -33.7731 H   0  0  0  0  0  0  0  0  0  0  0  0
   -0.1448   20.5667  -35.0959 H   0  0  0  0  0  0  0  0  0  0  0  0
   -0.7155   22.2700  -35.0959 H   0  0  0  0  0  0  0  0  0  0  0  0
   -3.8835   19.9951  -34.7899 H   0  0  0  0  0  0  0  0  0  0  0  0
   -5.5814   18.3036  -35.0406 H   0  0  0  0  0  0  0  0  0  0  0  0
   -4.6499   16.8523  -35.6108 H   0  0  0  0  0  0  0  0  0  0  0  0
   -5.9782   19.0604  -30.6490 H   0  0  0  0  0  0  0  0  0  0  0  0
   -4.9585   18.7472  -32.1439 H   0  0  0  0  0  0  0  0  0  0  0  0
   -4.0933   20.4518  -30.3836 H   0  0  0  0  0  0  0  0  0  0  0  0
   -4.0460   20.8735  -32.1384 H   0  0  0  0  0  0  0  0  0  0  0  0
   -3.9512   25.1580  -29.7320 H   0  0  0  0  0  0  0  0  0  0  0  0
  1  2  1  0
  2  3  1  0
  3  4  2  0
  4  5  1  0
  5  6  1  0
  6  7  1  0
  5  8  2  0
  8  9  1  0
  9 10  1  0
 10 11  2  0
 10 12  1  0
 12 13  1  0
 13 14  1  0
 14 15  1  0
 15 16  1  0
 16 17  1  0
 17 18  1  0
 18 19  1  0
 19 20  1  0
 20 21  1  0
 21 22  2  0
 22 23  1  0
 23 24  1  0
 24 25  1  0
 23 26  2  0
 26 27  1  0
 27 28  1  0
 26 29  1  0
 29 30  2  0
 30 31  1  0
 15 32  1  0
 32 33  1  0
  9 34  2  0
 34  3  1  0
 33 12  1  0
 31 18  1  0
 30 21  1  0
  1 35  1  0
  1 36  1  0
  1 37  1  0
  4 38  1  0
  7 39  1  0
  7 40  1  0
  7 41  1  0
  8 42  1  0
 13 43  1  0
 13 44  1  0
 14 45  1  0
 14 46  1  0
 15 47  1  0
 16 48  1  0
 16 49  1  0
 17 50  1  0
 17 51  1  0
 19 52  1  0
 19 53  1  0
 20 54  1  0
 20 55  1  0
 22 56  1  0
 25 57  1  0
 25 58  1  0
 25 59  1  0
 28 60  1  0
 28 61  1  0
 28 62  1  0
 29 63  1  0
 31 64  1  0
 31 65  1  0
 32 66  1  0
 32 67  1  0
 33 68  1  0
 33 69  1  0
 34 70  1  0
M  CHG  1  15   1
M  END
>  <UniqueID>  (17) 
17

>  <SMILES>  (17) 
COc1cc(OC)cc(C(=O)N2CC[NH+](CCN3CCc4cc(OC)c(OC)cc4C3)CC2)c1

>  <Energy>  (17) 
93.84000003066576

>  <Genealogy>  (17) 
COc1cc(OC)cc(C(=O)N2CC[NH+](CCN3CCc4cc(OC)c(OC)cc4C3)CC2)c1 (protonated)
COc1cc(OC)cc(C(=O)N2CC[NH+](CCN3CCc4cc(OC)c(OC)cc4C3)CC2)c1 (3D coordinates assigned)
COc1cc(OC)cc(C(=O)N2CC[NH+](CCN3CCc4cc(OC)c(OC)cc4C3)CC2)c1 (nonaromatic ring conformer: 93.84000003066576 kcal/mol)

>  <smiles>  (17) 
COc1cc(OC)cc(C(=O)N2CCN(CCN3CCc4cc(OC)c(OC)cc4C3)CC2)c1

>  <score_type>  (17) 
oracle

>  <origin>  (17) 
adg

>  <m_score__min__energy>  (17) 
-8.6899999999999995

>  <m_primary>  (17) 
energy

$$$$
17:0
     RDKit          3D

 44 46  0  0  0  0  0  0  0  0999 V2000
   -7.6232   24.1840  -31.9013 H   0  0  0  0  0  0  0  0  0  0  0  0
   -6.9800   23.3230  -31.6670 C   0  0  0  0  0  0  0  0  0  0  0  0
   -7.6130   22.1550  -31.0160 C   0  0  0  0  0  0  0  0  0  0  0  0
   -8.1330   22.3160  -29.8800 O   0  0  0  0  0  0  0  0  0  0  0  0
   -7.6920   20.8250  -31.6650 C   0  0  0  0  0  0  0  0  0  0  0  0
   -8.6290   19.8680  -31.2360 C   0  0  0  0  0  0  0  0  0  0  0  0
   -9.2973   20.0969  -30.3928 H   0  0  0  0  0  0  0  0  0  0  0  0
   -8.7160   18.6290  -31.8740 C   0  0  0  0  0  0  0  0  0  0  0  0
   -9.4565   17.8890  -31.5363 H   0  0  0  0  0  0  0  0  0  0  0  0
   -7.8660   18.3270  -32.9390 C   0  0  0  0  0  0  0  0  0  0  0  0
   -7.9377   17.3482  -33.4357 H   0  0  0  0  0  0  0  0  0  0  0  0
   -6.9190   19.2670  -33.3800 C   0  0  0  0  0  0  0  0  0  0  0  0
   -6.0220   18.9450  -34.4620 N   0  0  0  0  0  0  0  0  0  0  0  0
   -6.5410   18.4270  -35.2110 H   0  0  0  0  0  0  0  0  0  0  0  0
   -5.6460   19.8280  -34.8830 H   0  0  0  0  0  0  0  0  0  0  0  0
   -4.9130   18.1190  -33.9670 C   0  0  0  0  0  0  0  0  0  0  0  0
   -5.2128   17.6373  -33.0246 H   0  0  0  0  0  0  0  0  0  0  0  0
   -4.6722   17.3565  -34.7224 H   0  0  0  0  0  0  0  0  0  0  0  0
   -3.6980   18.9630  -33.7250 C   0  0  0  0  0  0  0  0  0  0  0  0
   -3.6740   20.3010  -33.8500 N   0  0  0  0  0  0  0  0  0  0  0  0
   -2.4200   20.6320  -33.4740 C   0  0  0  0  0  0  0  0  0  0  0  0
   -2.0478   21.6671  -33.4667 H   0  0  0  0  0  0  0  0  0  0  0  0
   -1.6660   19.5740  -33.1080 N   0  0  0  0  0  0  0  0  0  0  0  0
   -2.4830   18.5190  -33.2630 C   0  0  0  0  0  0  0  0  0  0  0  0
   -2.2218   17.4711  -33.0541 H   0  0  0  0  0  0  0  0  0  0  0  0
   -6.8250   20.5070  -32.7240 C   0  0  0  0  0  0  0  0  0  0  0  0
   -6.0651   21.2355  -33.0430 H   0  0  0  0  0  0  0  0  0  0  0  0
   -5.6800   23.4130  -31.9940 C   0  0  0  0  0  0  0  0  0  0  0  0
   -5.4312   23.7687  -33.0047 H   0  0  0  0  0  0  0  0  0  0  0  0
   -4.5590   23.0680  -31.0920 C   0  0  0  0  0  0  0  0  0  0  0  0
   -4.2590   21.7220  -30.8110 C   0  0  0  0  0  0  0  0  0  0  0  0
   -4.8704   20.9220  -31.2539 H   0  0  0  0  0  0  0  0  0  0  0  0
   -3.1920   21.3960  -29.9750 C   0  0  0  0  0  0  0  0  0  0  0  0
   -2.9549   20.3411  -29.7727 H   0  0  0  0  0  0  0  0  0  0  0  0
   -2.4250   22.4060  -29.3950 C   0  0  0  0  0  0  0  0  0  0  0  0
   -1.5797   22.1462  -28.7409 H   0  0  0  0  0  0  0  0  0  0  0  0
   -2.7280   23.7470  -29.6430 C   0  0  0  0  0  0  0  0  0  0  0  0
   -2.1267   24.5393  -29.1732 H   0  0  0  0  0  0  0  0  0  0  0  0
   -3.8000   24.0910  -30.4920 C   0  0  0  0  0  0  0  0  0  0  0  0
   -4.1240   25.4290  -30.7720 O   0  0  0  0  0  0  0  0  0  0  0  0
   -5.3670   26.0440  -30.4520 C   0  0  0  0  0  0  0  0  0  0  0  0
   -5.4782   26.0990  -29.3590 H   0  0  0  0  0  0  0  0  0  0  0  0
   -5.3934   27.0591  -30.8748 H   0  0  0  0  0  0  0  0  0  0  0  0
   -6.1900   25.4491  -30.8748 H   0  0  0  0  0  0  0  0  0  0  0  0
  1  2  1  0
  2  3  1  0
  3  4  2  0
  3  5  1  0
  5  6  2  0
  6  7  1  0
  6  8  1  0
  8  9  1  0
  8 10  2  0
 10 11  1  0
 10 12  1  0
 12 13  1  0
 13 14  1  0
 13 15  1  0
 13 16  1  0
 16 17  1  0
 16 18  1  0
 16 19  1  0
 19 20  1  0
 20 21  2  0
 21 22  1  0
 21 23  1  0
 23 24  1  0
 24 25  1  0
 12 26  2  0
 26 27  1  0
  2 28  2  0
 28 29  1  0
 28 30  1  0
 30 31  2  0
 31 32  1  0
 31 33  1  0
 33 34  1  0
 33 35  2  0
 35 36  1  0
 35 37  1  0
 37 38  1  0
 37 39  2  0
 39 40  1  0
 40 41  1  0
 41 42  1  0
 41 43  1  0
 41 44  1  0
 26  5  1  0
 39 30  1  0
 24 19  2  0
M  CHG  2  13   1  23  -1
M  END
>  <UniqueID>  (18) 
18

>  <SMILES>  (18) 
COc1ccccc1/C=C\C(=O)c1cccc([NH2+]Cc2c[n-]cn2)c1

>  <Energy>  (18) 
82.78561690965422

>  <Genealogy>  (18) 
COc1ccccc1C=CC(=O)c1cccc([NH2+]Cc2c[n-]cn2)c1 (protonated)
COc1ccccc1/C=C\C(=O)c1cccc([NH2+]Cc2c[n-]cn2)c1 (cis-trans isomerization)
COc1ccccc1/C=C\C(=O)c1cccc([NH2+]Cc2c[n-]cn2)c1 (3D coordinates assigned)
COc1ccccc1/C=C\C(=O)c1cccc([NH2+]Cc2c[n-]cn2)c1 (optimized conformer: 82.78561690965422 kcal/mol)

>  <smiles>  (18) 
COc1ccccc1C=CC(=O)c1cccc(NCc2c[nH]cn2)c1

>  <score_type>  (18) 
oracle

>  <origin>  (18) 
adg

>  <m_score__min__energy>  (18) 
-9.3599999999999994

>  <m_primary>  (18) 
energy

$$$$
18:0
     RDKit          3D

 62 64  0  0  0  0  0  0  0  0999 V2000
   -4.6920   17.4580  -34.8910 C   0  0  0  0  0  0  0  0  0  0  0  0
   -5.7670   18.5340  -34.7640 C   0  0  0  0  0  0  0  0  0  0  0  0
   -5.3240   19.6880  -33.8590 C   0  0  0  0  0  0  0  0  0  0  0  0
   -5.9850   19.6290  -32.5460 N   0  0  0  0  0  0  0  0  0  0  0  0
   -5.4700   18.7440  -31.4910 C   0  0  0  0  0  0  0  0  0  0  0  0
   -6.2490   17.4240  -31.4410 C   0  0  0  0  0  0  0  0  0  0  0  0
   -5.3780   16.2530  -31.8900 C   0  0  0  0  0  0  0  0  0  0  0  0
   -6.8760   20.6960  -32.1800 C   0  0  0  0  0  0  0  0  0  0  0  0
   -8.2470   20.7380  -32.3800 C   0  0  0  0  0  0  0  0  0  0  0  0
   -9.1050   19.6550  -32.9640 C   0  0  0  0  0  0  0  0  0  0  0  0
   -9.2400   18.4890  -31.9910 C   0  0  0  0  0  0  0  0  0  0  0  0
   -8.7340   21.9220  -31.9340 N   0  0  0  0  0  0  0  0  0  0  0  0
   -7.6350   22.5660  -31.4830 C   0  0  0  0  0  0  0  0  0  0  0  0
   -7.6140   23.8380  -30.9210 C   0  0  0  0  0  0  0  0  0  0  0  0
   -6.3760   24.3500  -30.5050 C   0  0  0  0  0  0  0  0  0  0  0  0
   -5.1890   23.5910  -30.6620 C   0  0  0  0  0  0  0  0  0  0  0  0
   -3.8760   24.1100  -30.2110 C   0  0  0  0  0  0  0  0  0  0  0  0
   -3.5290   25.2780  -30.5380 O   0  0  0  0  0  0  0  0  0  0  0  0
   -3.0010   23.3110  -29.3990 N   0  0  0  0  0  0  0  0  0  0  0  0
   -1.6030   23.6720  -29.1770 C   0  0  0  0  0  0  0  0  0  0  0  0
   -1.4850   24.5570  -27.9670 C   0  0  0  0  0  0  0  0  0  0  0  0
   -0.3680   25.3930  -27.8140 C   0  0  0  0  0  0  0  0  0  0  0  0
   -0.2690   26.2440  -26.7110 C   0  0  0  0  0  0  0  0  0  0  0  0
   -1.2840   26.2810  -25.7480 C   0  0  0  0  0  0  0  0  0  0  0  0
   -1.1400   27.1560  -24.6600 O   0  0  0  0  0  0  0  0  0  0  0  0
   -0.5300   26.8060  -23.4220 C   0  0  0  0  0  0  0  0  0  0  0  0
   -2.4090   25.4480  -25.9020 C   0  0  0  0  0  0  0  0  0  0  0  0
   -2.5070   24.5950  -27.0060 C   0  0  0  0  0  0  0  0  0  0  0  0
   -5.2820   22.3070  -31.2320 C   0  0  0  0  0  0  0  0  0  0  0  0
   -6.5040   21.8540  -31.6180 N   0  0  0  0  0  0  0  0  0  0  0  0
   -4.3728   17.1385  -33.8880 H   0  0  0  0  0  0  0  0  0  0  0  0
   -5.0996   16.5952  -35.4383 H   0  0  0  0  0  0  0  0  0  0  0  0
   -3.8289   17.8648  -35.4383 H   0  0  0  0  0  0  0  0  0  0  0  0
   -5.9890   18.9332  -35.7646 H   0  0  0  0  0  0  0  0  0  0  0  0
   -6.6569   18.0717  -34.3119 H   0  0  0  0  0  0  0  0  0  0  0  0
   -4.2352   19.6304  -33.7137 H   0  0  0  0  0  0  0  0  0  0  0  0
   -5.6053   20.6342  -34.3443 H   0  0  0  0  0  0  0  0  0  0  0  0
   -4.4103   18.5272  -31.6909 H   0  0  0  0  0  0  0  0  0  0  0  0
   -5.5874   19.2531  -30.5230 H   0  0  0  0  0  0  0  0  0  0  0  0
   -6.5869   17.2454  -30.4095 H   0  0  0  0  0  0  0  0  0  0  0  0
   -7.1091   17.5005  -32.1224 H   0  0  0  0  0  0  0  0  0  0  0  0
   -4.9868   15.7271  -31.0066 H   0  0  0  0  0  0  0  0  0  0  0  0
   -5.9805   15.5581  -32.4934 H   0  0  0  0  0  0  0  0  0  0  0  0
   -4.5392   16.6302  -32.4934 H   0  0  0  0  0  0  0  0  0  0  0  0
  -10.1037   20.0626  -33.1795 H   0  0  0  0  0  0  0  0  0  0  0  0
   -8.6331   19.2906  -33.8884 H   0  0  0  0  0  0  0  0  0  0  0  0
   -9.1963   18.8661  -30.9586 H   0  0  0  0  0  0  0  0  0  0  0  0
  -10.2027   17.9831  -32.1562 H   0  0  0  0  0  0  0  0  0  0  0  0
   -8.4183   17.7766  -32.1562 H   0  0  0  0  0  0  0  0  0  0  0  0
   -8.5381   24.4235  -30.8064 H   0  0  0  0  0  0  0  0  0  0  0  0
   -6.3257   25.3512  -30.0521 H   0  0  0  0  0  0  0  0  0  0  0  0
   -3.3700   22.4620  -28.9170 H   0  0  0  0  0  0  0  0  0  0  0  0
   -1.0117   22.7580  -29.0186 H   0  0  0  0  0  0  0  0  0  0  0  0
   -1.2261   24.2130  -30.0575 H   0  0  0  0  0  0  0  0  0  0  0  0
    0.4338   25.3779  -28.5669 H   0  0  0  0  0  0  0  0  0  0  0  0
    0.6138   26.8904  -26.5982 H   0  0  0  0  0  0  0  0  0  0  0  0
   -1.1551   27.1646  -22.5909 H   0  0  0  0  0  0  0  0  0  0  0  0
   -0.4288   25.7125  -23.3593 H   0  0  0  0  0  0  0  0  0  0  0  0
    0.4651   27.2705  -23.3593 H   0  0  0  0  0  0  0  0  0  0  0  0
   -3.2131   25.4683  -25.1517 H   0  0  0  0  0  0  0  0  0  0  0  0
   -3.3905   23.9500  -27.1218 H   0  0  0  0  0  0  0  0  0  0  0  0
   -4.3850   21.6838  -31.3622 H   0  0  0  0  0  0  0  0  0  0  0  0
  1  2  1  0
  2  3  1  0
  3  4  1  0
  4  5  1  0
  5  6  1  0
  6  7  1  0
  4  8  1  0
  8  9  2  0
  9 10  1  0
 10 11  1  0
  9 12  1  0
 12 13  2  0
 13 14  1  0
 14 15  2  0
 15 16  1  0
 16 17  1  0
 17 18  2  0
 17 19  1  0
 19 20  1  0
 20 21  1  0
 21 22  2  0
 22 23  1  0
 23 24  2  0
 24 25  1  0
 25 26  1  0
 24 27  1  0
 27 28  2  0
 16 29  2  0
 29 30  1  0
 30  8  1  0
 30 13  1  0
 28 21  1  0
  1 31  1  0
  1 32  1  0
  1 33  1  0
  2 34  1  0
  2 35  1  0
  3 36  1  0
  3 37  1  0
  5 38  1  0
  5 39  1  0
  6 40  1  0
  6 41  1  0
  7 42  1  0
  7 43  1  0
  7 44  1  0
 10 45  1  0
 10 46  1  0
 11 47  1  0
 11 48  1  0
 11 49  1  0
 14 50  1  0
 15 51  1  0
 19 52  1  0
 20 53  1  0
 20 54  1  0
 22 55  1  0
 23 56  1  0
 26 57  1  0
 26 58  1  0
 26 59  1  0
 27 60  1  0
 28 61  1  0
 29 62  1  0
M  END
>  <UniqueID>  (19) 
19

>  <SMILES>  (19) 
CCCN(CCC)c1c(CC)nc2ccc(C(=O)NCc3ccc(OC)cc3)cn12

>  <Energy>  (19) 
87.6521447219214

>  <Genealogy>  (19) 
CCCN(CCC)c1c(CC)nc2ccc(C(=O)NCc3ccc(OC)cc3)cn12 (3D coordinates assigned)
CCCN(CCC)c1c(CC)nc2ccc(C(=O)NCc3ccc(OC)cc3)cn12 (optimized conformer: 87.6521447219214 kcal/mol)

>  <smiles>  (19) 
CCCN(CCC)c1c(CC)nc2ccc(C(=O)NCc3ccc(OC)cc3)cn12

>  <score_type>  (19) 
oracle

>  <origin>  (19) 
adg

>  <m_score__min__energy>  (19) 
-9.0500000000000007

>  <m_primary>  (19) 
energy

$$$$
19:0
     RDKit          3D

 47 49  0  0  0  0  0  0  0  0999 V2000
   -4.5500   22.9220  -28.5530 C   0  0  0  0  0  0  0  0  0  0  0  0
   -5.5220   23.0570  -29.7240 C   0  0  0  0  0  0  0  0  0  0  0  0
   -4.8680   23.6690  -30.9060 N   0  0  0  0  0  0  0  0  0  0  0  0
   -4.7540   25.1450  -30.7610 C   0  0  0  0  0  0  0  0  0  0  0  0
   -6.0010   25.7000  -30.0800 C   0  0  0  0  0  0  0  0  0  0  0  0
   -3.5450   23.0410  -31.1380 C   0  0  0  0  0  0  0  0  0  0  0  0
   -3.6220   21.9090  -32.1830 C   0  0  0  0  0  0  0  0  0  0  0  0
   -4.7820   22.0240  -33.0900 N   0  0  0  0  0  0  0  0  0  0  0  0
   -5.8440   21.0890  -32.7550 C   0  0  0  0  0  0  0  0  0  0  0  0
   -5.6640   19.6690  -32.7680 C   0  0  0  0  0  0  0  0  0  0  0  0
   -4.4360   19.0690  -33.1410 C   0  0  0  0  0  0  0  0  0  0  0  0
   -4.2820   17.6850  -33.1480 C   0  0  0  0  0  0  0  0  0  0  0  0
   -5.3370   16.8600  -32.7900 C   0  0  0  0  0  0  0  0  0  0  0  0
   -6.5580   17.4090  -32.4170 C   0  0  0  0  0  0  0  0  0  0  0  0
   -6.7580   18.8130  -32.3910 C   0  0  0  0  0  0  0  0  0  0  0  0
   -7.9740   19.3490  -32.0130 N   0  0  0  0  0  0  0  0  0  0  0  0
   -9.0950   18.4840  -31.5970 C   0  0  0  0  0  0  0  0  0  0  0  0
   -8.1270   20.7080  -32.0360 C   0  0  0  0  0  0  0  0  0  0  0  0
   -9.5060   21.5990  -31.6410 S   0  0  0  0  0  0  0  0  0  0  0  0
   -8.8240   23.1090  -31.9290 C   0  0  0  0  0  0  0  0  0  0  0  0
   -7.5090   22.9310  -32.3360 C   0  0  0  0  0  0  0  0  0  0  0  0
   -7.1140   21.5780  -32.3960 C   0  0  0  0  0  0  0  0  0  0  0  0
   -5.1041   22.9990  -27.6058 H   0  0  0  0  0  0  0  0  0  0  0  0
   -4.0466   21.9453  -28.6050 H   0  0  0  0  0  0  0  0  0  0  0  0
   -3.7995   23.7245  -28.6050 H   0  0  0  0  0  0  0  0  0  0  0  0
   -5.8925   22.0581  -29.9978 H   0  0  0  0  0  0  0  0  0  0  0  0
   -6.3502   23.7100  -29.4113 H   0  0  0  0  0  0  0  0  0  0  0  0
   -3.8695   25.3840  -30.1522 H   0  0  0  0  0  0  0  0  0  0  0  0
   -4.6545   25.5992  -31.7579 H   0  0  0  0  0  0  0  0  0  0  0  0
   -5.8777   25.6451  -28.9883 H   0  0  0  0  0  0  0  0  0  0  0  0
   -6.1471   26.7481  -30.3803 H   0  0  0  0  0  0  0  0  0  0  0  0
   -6.8775   25.1070  -30.3803 H   0  0  0  0  0  0  0  0  0  0  0  0
   -2.8444   23.8094  -31.4968 H   0  0  0  0  0  0  0  0  0  0  0  0
   -3.2025   22.6055  -30.1877 H   0  0  0  0  0  0  0  0  0  0  0  0
   -2.7034   21.9301  -32.7878 H   0  0  0  0  0  0  0  0  0  0  0  0
   -3.7352   20.9648  -31.6302 H   0  0  0  0  0  0  0  0  0  0  0  0
   -4.4750   21.9690  -34.0830 H   0  0  0  0  0  0  0  0  0  0  0  0
   -5.1580   22.9960  -33.0130 H   0  0  0  0  0  0  0  0  0  0  0  0
   -3.5887   19.7080  -33.4304 H   0  0  0  0  0  0  0  0  0  0  0  0
   -3.3174   17.2437  -33.4393 H   0  0  0  0  0  0  0  0  0  0  0  0
   -5.2073   15.7677  -32.8012 H   0  0  0  0  0  0  0  0  0  0  0  0
   -7.3859   16.7413  -32.1363 H   0  0  0  0  0  0  0  0  0  0  0  0
   -9.1421   18.4477  -30.4986 H   0  0  0  0  0  0  0  0  0  0  0  0
  -10.0379   18.8909  -31.9912 H   0  0  0  0  0  0  0  0  0  0  0  0
   -8.9406   17.4687  -31.9912 H   0  0  0  0  0  0  0  0  0  0  0  0
   -9.3348   24.0764  -31.8140 H   0  0  0  0  0  0  0  0  0  0  0  0
   -6.8384   23.7658  -32.5879 H   0  0  0  0  0  0  0  0  0  0  0  0
  1  2  1  0
  2  3  1  0
  3  4  1  0
  4  5  1  0
  3  6  1  0
  6  7  1  0
  7  8  1  0
  8  9  1  0
  9 10  2  0
 10 11  1  0
 11 12  2  0
 12 13  1  0
 13 14  2  0
 14 15  1  0
 15 16  2  0
 16 17  1  0
 16 18  1  0
 18 19  1  0
 19 20  1  0
 20 21  2  0
 21 22  1  0
 22  9  1  0
 15 10  1  0
 22 18  2  0
  1 23  1  0
  1 24  1  0
  1 25  1  0
  2 26  1  0
  2 27  1  0
  4 28  1  0
  4 29  1  0
  5 30  1  0
  5 31  1  0
  5 32  1  0
  6 33  1  0
  6 34  1  0
  7 35  1  0
  7 36  1  0
  8 37  1  0
  8 38  1  0
 11 39  1  0
 12 40  1  0
 13 41  1  0
 14 42  1  0
 17 43  1  0
 17 44  1  0
 17 45  1  0
 20 46  1  0
 21 47  1  0
M  CHG  2   8   1  16   1
M  END
>  <UniqueID>  (20) 
20

>  <SMILES>  (20) 
CCN(CC)CC[NH2+]c1c2ccccc2[n+](C)c2sccc12

>  <Energy>  (20) 
90.92971476686725

>  <Genealogy>  (20) 
CCN(CC)CC[NH2+]c1c2ccccc2[n+](C)c2sccc12 (protonated)
CCN(CC)CC[NH2+]c1c2ccccc2[n+](C)c2sccc12 (3D coordinates assigned)
CCN(CC)CC[NH2+]c1c2ccccc2[n+](C)c2sccc12 (optimized conformer: 90.92971476686725 kcal/mol)

>  <smiles>  (20) 
CCN(CC)CCNc1c2ccccc2[n+](C)c2sccc12

>  <score_type>  (20) 
oracle

>  <origin>  (20) 
adg

>  <m_score__min__energy>  (20) 
-7.7999999999999998

>  <m_primary>  (20) 
energy

$$$$
20:0
     RDKit          3D

 33 34  0  0  0  0  0  0  0  0999 V2000
   -3.2650   22.9330  -30.1740 C   0  0  0  0  0  0  0  0  0  0  0  0
   -4.7420   23.3140  -30.1600 C   0  0  0  0  0  0  0  0  0  0  0  0
   -5.0020   24.3990  -31.1350 N   0  0  0  0  0  0  0  0  0  0  0  0
   -5.2300   25.6930  -30.4500 C   0  0  0  0  0  0  0  0  0  0  0  0
   -6.4070   25.5790  -29.4860 C   0  0  0  0  0  0  0  0  0  0  0  0
   -6.1440   24.0590  -32.0120 C   0  0  0  0  0  0  0  0  0  0  0  0
   -6.2310   22.5750  -32.1930 C   0  0  0  0  0  0  0  0  0  0  0  0
   -5.1820   21.8880  -32.7190 N   0  0  0  0  0  0  0  0  0  0  0  0
   -5.2380   20.5430  -32.9050 C   0  0  0  0  0  0  0  0  0  0  0  0
   -4.2430   19.9470  -33.3970 O   0  0  0  0  0  0  0  0  0  0  0  0
   -6.4020   19.8400  -32.5510 C   0  0  0  0  0  0  0  0  0  0  0  0
   -6.5240   18.4480  -32.7180 C   0  0  0  0  0  0  0  0  0  0  0  0
   -7.7080   17.8020  -32.3470 C   0  0  0  0  0  0  0  0  0  0  0  0
   -8.7710   18.5340  -31.8090 C   0  0  0  0  0  0  0  0  0  0  0  0
   -8.6580   19.9160  -31.6380 C   0  0  0  0  0  0  0  0  0  0  0  0
   -7.4780   20.5740  -32.0060 C   0  0  0  0  0  0  0  0  0  0  0  0
   -7.3660   21.9170  -31.8420 N   0  0  0  0  0  0  0  0  0  0  0  0
   -2.9008   22.8390  -29.1403 H   0  0  0  0  0  0  0  0  0  0  0  0
   -3.1389   21.9729  -30.6959 H   0  0  0  0  0  0  0  0  0  0  0  0
   -2.6902   23.7123  -30.6959 H   0  0  0  0  0  0  0  0  0  0  0  0
   -5.3463   22.4343  -30.4262 H   0  0  0  0  0  0  0  0  0  0  0  0
   -5.0116   23.6653  -29.1531 H   0  0  0  0  0  0  0  0  0  0  0  0
   -4.3260   25.9710  -29.8883 H   0  0  0  0  0  0  0  0  0  0  0  0
   -5.4560   26.4625  -31.2028 H   0  0  0  0  0  0  0  0  0  0  0  0
   -6.0376   25.6148  -28.4505 H   0  0  0  0  0  0  0  0  0  0  0  0
   -7.1026   26.4140  -29.6562 H   0  0  0  0  0  0  0  0  0  0  0  0
   -6.9294   24.6261  -29.6562 H   0  0  0  0  0  0  0  0  0  0  0  0
   -7.0752   24.4248  -31.5547 H   0  0  0  0  0  0  0  0  0  0  0  0
   -5.9972   24.5331  -32.9937 H   0  0  0  0  0  0  0  0  0  0  0  0
   -5.6894   17.8687  -33.1397 H   0  0  0  0  0  0  0  0  0  0  0  0
   -7.8032   16.7141  -32.4790 H   0  0  0  0  0  0  0  0  0  0  0  0
   -9.6994   18.0200  -31.5194 H   0  0  0  0  0  0  0  0  0  0  0  0
   -9.4967   20.4877  -31.2139 H   0  0  0  0  0  0  0  0  0  0  0  0
  1  2  1  0
  2  3  1  0
  3  4  1  0
  4  5  1  0
  3  6  1  0
  6  7  1  0
  7  8  2  0
  8  9  1  0
  9 10  2  0
  9 11  1  0
 11 12  2  0
 12 13  1  0
 13 14  2  0
 14 15  1  0
 15 16  2  0
 16 17  1  0
 17  7  1  0
 16 11  1  0
  1 18  1  0
  1 19  1  0
  1 20  1  0
  2 21  1  0
  2 22  1  0
  4 23  1  0
  4 24  1  0
  5 25  1  0
  5 26  1  0
  5 27  1  0
  6 28  1  0
  6 29  1  0
 12 30  1  0
 13 31  1  0
 14 32  1  0
 15 33  1  0
M  CHG  1  17  -1
M  END
>  <UniqueID>  (21) 
21

>  <SMILES>  (21) 
CCN(CC)Cc1nc(=O)c2ccccc2[n-]1

>  <Energy>  (21) 
35.10943661830171

>  <Genealogy>  (21) 
CCN(CC)Cc1nc(=O)c2ccccc2[n-]1 (protonated)
CCN(CC)Cc1nc(=O)c2ccccc2[n-]1 (3D coordinates assigned)
CCN(CC)Cc1nc(=O)c2ccccc2[n-]1 (optimized conformer: 35.10943661830171 kcal/mol)

>  <smiles>  (21) 
CCN(CC)Cc1nc(=O)c2ccccc2[nH]1

>  <score_type>  (21) 
oracle

>  <origin>  (21) 
adg

>  <m_score__min__energy>  (21) 
-6.9400000000000004

>  <m_primary>  (21) 
energy

$$$$
21:0
     RDKit          3D

 38 39  0  0  0  0  0  0  0  0999 V2000
   -0.8980   26.4270  -27.8960 C   0  0  0  0  0  0  0  0  0  0  0  0
   -1.6210   25.8150  -28.9590 O   0  0  0  0  0  0  0  0  0  0  0  0
   -2.1660   24.5210  -28.9230 C   0  0  0  0  0  0  0  0  0  0  0  0
   -1.5940   23.5200  -28.1130 C   0  0  0  0  0  0  0  0  0  0  0  0
   -2.1330   22.2350  -28.0780 C   0  0  0  0  0  0  0  0  0  0  0  0
   -1.3300   20.8920  -26.9830 Br  0  0  0  0  0  0  0  0  0  0  0  0
   -3.2550   21.9290  -28.8430 C   0  0  0  0  0  0  0  0  0  0  0  0
   -3.8560   22.9080  -29.6450 C   0  0  0  0  0  0  0  0  0  0  0  0
   -5.0530   22.5360  -30.4900 C   0  0  0  0  0  0  0  0  0  0  0  0
   -4.9030   23.0650  -31.8560 N   0  0  0  0  0  0  0  0  0  0  0  0
   -6.1990   23.4280  -32.4530 C   0  0  0  0  0  0  0  0  0  0  0  0
   -7.2140   22.3190  -32.3070 C   0  0  0  0  0  0  0  0  0  0  0  0
   -6.9170   21.0170  -32.7370 C   0  0  0  0  0  0  0  0  0  0  0  0
   -7.8620   20.0020  -32.5630 C   0  0  0  0  0  0  0  0  0  0  0  0
   -9.0580   20.2760  -31.9780 N   0  0  0  0  0  0  0  0  0  0  0  0
   -9.3710   21.5290  -31.5500 C   0  0  0  0  0  0  0  0  0  0  0  0
   -8.4560   22.5720  -31.7060 C   0  0  0  0  0  0  0  0  0  0  0  0
   -3.3090   24.2080  -29.7080 C   0  0  0  0  0  0  0  0  0  0  0  0
   -3.9390   25.1340  -30.5640 O   0  0  0  0  0  0  0  0  0  0  0  0
   -5.2310   25.7060  -30.3980 C   0  0  0  0  0  0  0  0  0  0  0  0
   -1.3028   26.0844  -26.9323 H   0  0  0  0  0  0  0  0  0  0  0  0
    0.1640   26.1492  -27.9672 H   0  0  0  0  0  0  0  0  0  0  0  0
   -0.9966   27.5203  -27.9672 H   0  0  0  0  0  0  0  0  0  0  0  0
   -0.7111   23.7555  -27.5006 H   0  0  0  0  0  0  0  0  0  0  0  0
   -3.6726   20.9117  -28.8177 H   0  0  0  0  0  0  0  0  0  0  0  0
   -5.1393   21.4402  -30.5334 H   0  0  0  0  0  0  0  0  0  0  0  0
   -5.9571   22.9694  -30.0374 H   0  0  0  0  0  0  0  0  0  0  0  0
   -4.2690   23.8980  -31.8550 H   0  0  0  0  0  0  0  0  0  0  0  0
   -4.4650   22.3240  -32.4540 H   0  0  0  0  0  0  0  0  0  0  0  0
   -6.5819   24.3293  -31.9520 H   0  0  0  0  0  0  0  0  0  0  0  0
   -6.0422   23.6089  -33.5266 H   0  0  0  0  0  0  0  0  0  0  0  0
   -5.9475   20.7966  -33.2076 H   0  0  0  0  0  0  0  0  0  0  0  0
   -7.6374   18.9793  -32.9002 H   0  0  0  0  0  0  0  0  0  0  0  0
  -10.3469   21.7207  -31.0801 H   0  0  0  0  0  0  0  0  0  0  0  0
   -8.7074   23.5854  -31.3599 H   0  0  0  0  0  0  0  0  0  0  0  0
   -5.4533   25.8044  -29.3252 H   0  0  0  0  0  0  0  0  0  0  0  0
   -5.2557   26.6992  -30.8702 H   0  0  0  0  0  0  0  0  0  0  0  0
   -5.9829   25.0567  -30.8702 H   0  0  0  0  0  0  0  0  0  0  0  0
  1  2  1  0
  2  3  1  0
  3  4  2  0
  4  5  1  0
  5  6  1  0
  5  7  2  0
  7  8  1  0
  8  9  1  0
  9 10  1  0
 10 11  1  0
 11 12  1  0
 12 13  2  0
 13 14  1  0
 14 15  2  0
 15 16  1  0
 16 17  2  0
  8 18  2  0
 18 19  1  0
 19 20  1  0
 18  3  1  0
 17 12  1  0
  1 21  1  0
  1 22  1  0
  1 23  1  0
  4 24  1  0
  7 25  1  0
  9 26  1  0
  9 27  1  0
 10 28  1  0
 10 29  1  0
 11 30  1  0
 11 31  1  0
 13 32  1  0
 14 33  1  0
 16 34  1  0
 17 35  1  0
 20 36  1  0
 20 37  1  0
 20 38  1  0
M  CHG  1  10   1
M  END
>  <UniqueID>  (22) 
22

>  <SMILES>  (22) 
COc1cc(Br)cc(C[NH2+]Cc2ccncc2)c1OC

>  <Energy>  (22) 
39.906950125305855

>  <Genealogy>  (22) 
COc1cc(Br)cc(C[NH2+]Cc2ccncc2)c1OC (protonated)
COc1cc(Br)cc(C[NH2+]Cc2ccncc2)c1OC (3D coordinates assigned)
COc1cc(Br)cc(C[NH2+]Cc2ccncc2)c1OC (optimized conformer: 39.906950125305855 kcal/mol)

>  <smiles>  (22) 
COc1cc(Br)cc(CNCc2ccncc2)c1OC

>  <score_type>  (22) 
oracle

>  <origin>  (22) 
adg

>  <m_score__min__energy>  (22) 
-7.2199999999999998

>  <m_primary>  (22) 
energy

$$$$
22:0
     RDKit          3D

 36 38  0  0  0  0  0  0  0  0999 V2000
   -6.0030   25.2830  -31.2350 O   0  0  0  0  0  0  0  0  0  0  0  0
   -5.1030   24.4100  -31.0950 C   0  0  0  0  0  0  0  0  0  0  0  0
   -3.8940   24.7370  -30.4690 O   0  0  0  0  0  0  0  0  0  0  0  0
   -3.5040   24.2250  -29.1970 C   0  0  0  0  0  0  0  0  0  0  0  0
   -2.0000   24.3780  -28.9940 C   0  0  0  0  0  0  0  0  0  0  0  0
   -1.6140   25.6660  -29.3150 F   0  0  0  0  0  0  0  0  0  0  0  0
   -5.2820   23.0520  -31.6610 C   0  0  0  0  0  0  0  0  0  0  0  0
   -4.1450   22.3970  -32.1550 C   0  0  0  0  0  0  0  0  0  0  0  0
   -4.2570   21.1360  -32.7640 C   0  0  0  0  0  0  0  0  0  0  0  0
   -3.0730   20.4290  -33.3150 C   0  0  0  0  0  0  0  0  0  0  0  0
   -1.8620   21.1250  -33.4950 C   0  0  0  0  0  0  0  0  0  0  0  0
   -0.7410   20.4760  -34.0210 C   0  0  0  0  0  0  0  0  0  0  0  0
   -0.8150   19.1280  -34.3790 C   0  0  0  0  0  0  0  0  0  0  0  0
    0.5940   18.3170  -35.0400 Cl  0  0  0  0  0  0  0  0  0  0  0  0
   -2.0130   18.4290  -34.2180 C   0  0  0  0  0  0  0  0  0  0  0  0
   -3.1380   19.0730  -33.6930 C   0  0  0  0  0  0  0  0  0  0  0  0
   -5.4840   20.5620  -32.8760 N   0  0  0  0  0  0  0  0  0  0  0  0
   -6.6110   21.1460  -32.3930 C   0  0  0  0  0  0  0  0  0  0  0  0
   -7.8360   20.4820  -32.5220 C   0  0  0  0  0  0  0  0  0  0  0  0
   -8.9990   21.0460  -31.9970 C   0  0  0  0  0  0  0  0  0  0  0  0
   -8.9420   22.2700  -31.3290 C   0  0  0  0  0  0  0  0  0  0  0  0
   -7.7260   22.9470  -31.1980 C   0  0  0  0  0  0  0  0  0  0  0  0
   -6.5430   22.4080  -31.7500 C   0  0  0  0  0  0  0  0  0  0  0  0
   -4.0334   24.7780  -28.4071 H   0  0  0  0  0  0  0  0  0  0  0  0
   -3.7608   23.1564  -29.1513 H   0  0  0  0  0  0  0  0  0  0  0  0
   -1.7505   24.1731  -27.9424 H   0  0  0  0  0  0  0  0  0  0  0  0
   -1.4708   23.6667  -29.6452 H   0  0  0  0  0  0  0  0  0  0  0  0
   -3.1579   22.8741  -32.0650 H   0  0  0  0  0  0  0  0  0  0  0  0
   -1.7976   22.1880  -33.2195 H   0  0  0  0  0  0  0  0  0  0  0  0
    0.2012   21.0281  -34.1532 H   0  0  0  0  0  0  0  0  0  0  0  0
   -2.0721   17.3687  -34.5049 H   0  0  0  0  0  0  0  0  0  0  0  0
   -4.0799   18.5173  -33.5743 H   0  0  0  0  0  0  0  0  0  0  0  0
   -7.8821   19.5122  -33.0390 H   0  0  0  0  0  0  0  0  0  0  0  0
   -9.9615   20.5256  -32.1096 H   0  0  0  0  0  0  0  0  0  0  0  0
   -9.8587   22.7043  -30.9034 H   0  0  0  0  0  0  0  0  0  0  0  0
   -7.6903   23.9064  -30.6611 H   0  0  0  0  0  0  0  0  0  0  0  0
  1  2  2  0
  2  3  1  0
  3  4  1  0
  4  5  1  0
  5  6  1  0
  2  7  1  0
  7  8  2  0
  8  9  1  0
  9 10  1  0
 10 11  2  0
 11 12  1  0
 12 13  2  0
 13 14  1  0
 13 15  1  0
 15 16  2  0
  9 17  2  0
 17 18  1  0
 18 19  2  0
 19 20  1  0
 20 21  2  0
 21 22  1  0
 22 23  2  0
 23  7  1  0
 16 10  1  0
 23 18  1  0
  4 24  1  0
  4 25  1  0
  5 26  1  0
  5 27  1  0
  8 28  1  0
 11 29  1  0
 12 30  1  0
 15 31  1  0
 16 32  1  0
 19 33  1  0
 20 34  1  0
 21 35  1  0
 22 36  1  0
M  END
>  <UniqueID>  (23) 
23

>  <SMILES>  (23) 
O=C(OCCF)c1cc(-c2ccc(Cl)cc2)nc2ccccc12

>  <Energy>  (23) 
48.28814740807034

>  <Genealogy>  (23) 
O=C(OCCF)c1cc(-c2ccc(Cl)cc2)nc2ccccc12 (3D coordinates assigned)
O=C(OCCF)c1cc(-c2ccc(Cl)cc2)nc2ccccc12 (optimized conformer: 48.28814740807034 kcal/mol)

>  <smiles>  (23) 
O=C(OCCF)c1cc(-c2ccc(Cl)cc2)nc2ccccc12

>  <score_type>  (23) 
oracle

>  <origin>  (23) 
adg

>  <m_score__min__energy>  (23) 
-8.1799999999999997

>  <m_primary>  (23) 
energy

$$$$
23:0
     RDKit          3D

 52 54  0  0  0  0  0  0  0  0999 V2000
   -2.7260   23.8790  -29.7100 C   0  0  0  0  0  0  0  0  0  0  0  0
   -4.1660   23.9630  -30.1270 C   0  0  0  0  0  0  0  0  0  0  0  0
   -4.8340   25.1960  -30.0880 C   0  0  0  0  0  0  0  0  0  0  0  0
   -6.1610   25.2900  -30.5130 C   0  0  0  0  0  0  0  0  0  0  0  0
   -6.8260   24.1620  -30.9970 C   0  0  0  0  0  0  0  0  0  0  0  0
   -6.1700   22.9180  -31.0570 C   0  0  0  0  0  0  0  0  0  0  0  0
   -6.8540   21.7460  -31.5450 N   0  0  0  0  0  0  0  0  0  0  0  0
   -8.0850   21.2830  -30.8960 C   0  0  0  0  0  0  0  0  0  0  0  0
   -9.0570   20.7380  -31.9540 C   0  0  0  0  0  0  0  0  0  0  0  0
   -8.4140   19.7240  -32.8150 N   0  0  0  0  0  0  0  0  0  0  0  0
   -8.3780   18.3720  -32.1950 C   0  0  0  0  0  0  0  0  0  0  0  0
   -7.0070   17.7410  -32.0510 C   0  0  0  0  0  0  0  0  0  0  0  0
   -6.2960   18.0950  -31.1220 O   0  0  0  0  0  0  0  0  0  0  0  0
   -6.5790   16.6880  -32.9630 N   0  0  0  0  0  0  0  0  0  0  0  0
   -5.3210   16.0450  -32.4980 C   0  0  0  0  0  0  0  0  0  0  0  0
   -4.0490   16.6450  -33.1310 C   0  0  0  0  0  0  0  0  0  0  0  0
   -4.2900   18.0350  -33.5410 N   0  0  0  0  0  0  0  0  0  0  0  0
   -3.0350   18.6770  -33.9590 C   0  0  0  0  0  0  0  0  0  0  0  0
   -5.2820   18.0850  -34.6340 C   0  0  0  0  0  0  0  0  0  0  0  0
   -6.4880   17.1480  -34.3710 C   0  0  0  0  0  0  0  0  0  0  0  0
   -7.1920   20.2490  -33.4660 C   0  0  0  0  0  0  0  0  0  0  0  0
   -6.1820   20.8170  -32.4590 C   0  0  0  0  0  0  0  0  0  0  0  0
   -4.8360   22.8300  -30.6170 C   0  0  0  0  0  0  0  0  0  0  0  0
   -2.6619   23.8753  -28.6119 H   0  0  0  0  0  0  0  0  0  0  0  0
   -2.2829   22.9535  -30.1063 H   0  0  0  0  0  0  0  0  0  0  0  0
   -2.1783   24.7467  -30.1063 H   0  0  0  0  0  0  0  0  0  0  0  0
   -4.3109   26.0916  -29.7215 H   0  0  0  0  0  0  0  0  0  0  0  0
   -6.6842   26.2565  -30.4662 H   0  0  0  0  0  0  0  0  0  0  0  0
   -7.8698   24.2459  -31.3338 H   0  0  0  0  0  0  0  0  0  0  0  0
   -7.8419   20.4858  -30.1781 H   0  0  0  0  0  0  0  0  0  0  0  0
   -8.5567   22.1251  -30.3685 H   0  0  0  0  0  0  0  0  0  0  0  0
   -9.9178   20.2797  -31.4451 H   0  0  0  0  0  0  0  0  0  0  0  0
   -9.3765   21.5762  -32.5907 H   0  0  0  0  0  0  0  0  0  0  0  0
   -8.8189   18.4511  -31.1903 H   0  0  0  0  0  0  0  0  0  0  0  0
   -8.9343   17.7170  -32.8816 H   0  0  0  0  0  0  0  0  0  0  0  0
   -7.3250   15.9510  -32.9430 H   0  0  0  0  0  0  0  0  0  0  0  0
   -5.2541   16.1616  -31.4062 H   0  0  0  0  0  0  0  0  0  0  0  0
   -5.3663   14.9896  -32.8047 H   0  0  0  0  0  0  0  0  0  0  0  0
   -3.2314   16.6203  -32.3955 H   0  0  0  0  0  0  0  0  0  0  0  0
   -3.7770   16.0528  -34.0172 H   0  0  0  0  0  0  0  0  0  0  0  0
   -2.4596   18.9714  -33.0689 H   0  0  0  0  0  0  0  0  0  0  0  0
   -2.4442   17.9704  -34.5604 H   0  0  0  0  0  0  0  0  0  0  0  0
   -3.2623   19.5696  -34.5604 H   0  0  0  0  0  0  0  0  0  0  0  0
   -5.6497   19.1171  -34.7322 H   0  0  0  0  0  0  0  0  0  0  0  0
   -4.7865   17.7480  -35.5564 H   0  0  0  0  0  0  0  0  0  0  0  0
   -7.4120   17.6898  -34.6215 H   0  0  0  0  0  0  0  0  0  0  0  0
   -6.3483   16.2543  -34.9969 H   0  0  0  0  0  0  0  0  0  0  0  0
   -6.7114   19.4316  -34.0236 H   0  0  0  0  0  0  0  0  0  0  0  0
   -7.4965   21.0708  -34.1308 H   0  0  0  0  0  0  0  0  0  0  0  0
   -5.7409   19.9919  -31.8805 H   0  0  0  0  0  0  0  0  0  0  0  0
   -5.3919   21.3545  -33.0039 H   0  0  0  0  0  0  0  0  0  0  0  0
   -4.3125   21.8634  -30.6573 H   0  0  0  0  0  0  0  0  0  0  0  0
  1  2  1  0
  2  3  2  0
  3  4  1  0
  4  5  2  0
  5  6  1  0
  6  7  1  0
  7  8  1  0
  8  9  1  0
  9 10  1  0
 10 11  1  0
 11 12  1  0
 12 13  2  0
 12 14  1  0
 14 15  1  0
 15 16  1  0
 16 17  1  0
 17 18  1  0
 17 19  1  0
 19 20  1  0
 10 21  1  0
 21 22  1  0
  6 23  2  0
 23  2  1  0
 22  7  1  0
 20 14  1  0
  1 24  1  0
  1 25  1  0
  1 26  1  0
  3 27  1  0
  4 28  1  0
  5 29  1  0
  8 30  1  0
  8 31  1  0
  9 32  1  0
  9 33  1  0
 11 34  1  0
 11 35  1  0
 14 36  1  0
 15 37  1  0
 15 38  1  0
 16 39  1  0
 16 40  1  0
 18 41  1  0
 18 42  1  0
 18 43  1  0
 19 44  1  0
 19 45  1  0
 20 46  1  0
 20 47  1  0
 21 48  1  0
 21 49  1  0
 22 50  1  0
 22 51  1  0
 23 52  1  0
M  CHG  1  14   1
M  END
>  <UniqueID>  (24) 
24

>  <SMILES>  (24) 
Cc1cccc(N2CCN(CC(=O)[NH+]3CCN(C)CC3)CC2)c1

>  <Energy>  (24) 
78.75566415935397

>  <Genealogy>  (24) 
Cc1cccc(N2CCN(CC(=O)[NH+]3CCN(C)CC3)CC2)c1 (protonated)
Cc1cccc(N2CCN(CC(=O)[NH+]3CCN(C)CC3)CC2)c1 (3D coordinates assigned)
Cc1cccc(N2CCN(CC(=O)[NH+]3CCN(C)CC3)CC2)c1 (nonaromatic ring conformer: 78.75566415935397 kcal/mol)

>  <smiles>  (24) 
Cc1cccc(N2CCN(CC(=O)N3CCN(C)CC3)CC2)c1

>  <score_type>  (24) 
oracle

>  <origin>  (24) 
adg

>  <m_score__min__energy>  (24) 
-8.4100000000000001

>  <m_primary>  (24) 
energy

$$$$
24:0
     RDKit          3D

 55 58  0  0  0  0  0  0  0  0999 V2000
   -2.8230   24.5480  -29.5640 C   0  0  0  0  0  0  0  0  0  0  0  0
   -3.8680   24.5030  -30.5990 N   0  0  0  0  0  0  0  0  0  0  0  0
   -4.3090   23.1070  -30.8240 C   0  0  0  0  0  0  0  0  0  0  0  0
   -5.6860   23.0610  -31.4980 C   0  0  0  0  0  0  0  0  0  0  0  0
   -6.7410   23.7050  -30.6730 N   0  0  0  0  0  0  0  0  0  0  0  0
   -7.5810   22.7000  -29.9870 C   0  0  0  0  0  0  0  0  0  0  0  0
   -8.1250   21.6920  -30.9670 C   0  0  0  0  0  0  0  0  0  0  0  0
   -9.4510   21.7790  -31.4180 C   0  0  0  0  0  0  0  0  0  0  0  0
   -9.9420   20.8540  -32.3410 C   0  0  0  0  0  0  0  0  0  0  0  0
   -9.1150   19.8390  -32.8260 C   0  0  0  0  0  0  0  0  0  0  0  0
   -7.7800   19.7390  -32.3920 C   0  0  0  0  0  0  0  0  0  0  0  0
   -6.8950   18.6680  -32.9170 C   0  0  0  0  0  0  0  0  0  0  0  0
   -6.1180   18.8830  -34.0700 C   0  0  0  0  0  0  0  0  0  0  0  0
   -5.2830   17.8760  -34.5610 C   0  0  0  0  0  0  0  0  0  0  0  0
   -5.2100   16.6310  -33.9140 C   0  0  0  0  0  0  0  0  0  0  0  0
   -4.3230   15.6040  -34.4010 N   0  0  0  0  0  0  0  0  0  0  0  0
   -4.4230   14.4400  -33.5570 C   0  0  0  0  0  0  0  0  0  0  0  0
   -3.6250   14.3240  -32.4050 C   0  0  0  0  0  0  0  0  0  0  0  0
   -3.7440   13.2080  -31.5720 C   0  0  0  0  0  0  0  0  0  0  0  0
   -4.6670   12.2030  -31.8740 C   0  0  0  0  0  0  0  0  0  0  0  0
   -5.4720   12.3130  -33.0110 C   0  0  0  0  0  0  0  0  0  0  0  0
   -5.3560   13.4270  -33.8490 C   0  0  0  0  0  0  0  0  0  0  0  0
   -5.9800   16.4170  -32.7580 C   0  0  0  0  0  0  0  0  0  0  0  0
   -6.8150   17.4240  -32.2670 C   0  0  0  0  0  0  0  0  0  0  0  0
   -7.2940   20.6730  -31.4580 C   0  0  0  0  0  0  0  0  0  0  0  0
   -6.2070   24.7060  -29.7150 C   0  0  0  0  0  0  0  0  0  0  0  0
   -4.9810   25.4330  -30.2860 C   0  0  0  0  0  0  0  0  0  0  0  0
   -3.2914   24.5278  -28.5689 H   0  0  0  0  0  0  0  0  0  0  0  0
   -2.1596   23.6776  -29.6747 H   0  0  0  0  0  0  0  0  0  0  0  0
   -2.2369   25.4722  -29.6747 H   0  0  0  0  0  0  0  0  0  0  0  0
   -3.5769   22.5992  -31.4691 H   0  0  0  0  0  0  0  0  0  0  0  0
   -4.3822   22.6038  -29.8486 H   0  0  0  0  0  0  0  0  0  0  0  0
   -5.6244   23.5837  -32.4639 H   0  0  0  0  0  0  0  0  0  0  0  0
   -5.9607   22.0039  -31.6292 H   0  0  0  0  0  0  0  0  0  0  0  0
   -6.9737   22.1775  -29.2332 H   0  0  0  0  0  0  0  0  0  0  0  0
   -8.4266   23.2167  -29.5095 H   0  0  0  0  0  0  0  0  0  0  0  0
  -10.1060   22.5791  -31.0428 H   0  0  0  0  0  0  0  0  0  0  0  0
  -10.9837   20.9250  -32.6873 H   0  0  0  0  0  0  0  0  0  0  0  0
   -9.5094   19.1128  -33.5520 H   0  0  0  0  0  0  0  0  0  0  0  0
   -6.1682   19.8515  -34.5891 H   0  0  0  0  0  0  0  0  0  0  0  0
   -4.6780   18.0594  -35.4612 H   0  0  0  0  0  0  0  0  0  0  0  0
   -4.5680   15.3560  -35.3880 H   0  0  0  0  0  0  0  0  0  0  0  0
   -3.3380   15.9560  -34.4140 H   0  0  0  0  0  0  0  0  0  0  0  0
   -2.9029   15.1162  -32.1580 H   0  0  0  0  0  0  0  0  0  0  0  0
   -3.1101   13.1206  -30.6773 H   0  0  0  0  0  0  0  0  0  0  0  0
   -4.7598   11.3257  -31.2169 H   0  0  0  0  0  0  0  0  0  0  0  0
   -6.1986   11.5217  -33.2476 H   0  0  0  0  0  0  0  0  0  0  0  0
   -5.9962   13.5118  -34.7395 H   0  0  0  0  0  0  0  0  0  0  0  0
   -5.9250   15.4502  -32.2362 H   0  0  0  0  0  0  0  0  0  0  0  0
   -7.4153   17.2417  -31.3635 H   0  0  0  0  0  0  0  0  0  0  0  0
   -6.2530   20.6037  -31.1095 H   0  0  0  0  0  0  0  0  0  0  0  0
   -6.9914   25.4455  -29.4964 H   0  0  0  0  0  0  0  0  0  0  0  0
   -5.9002   24.1785  -28.7998 H   0  0  0  0  0  0  0  0  0  0  0  0
   -5.2768   25.9535  -31.2088 H   0  0  0  0  0  0  0  0  0  0  0  0
   -4.6236   26.1394  -29.5223 H   0  0  0  0  0  0  0  0  0  0  0  0
  1  2  1  0
  2  3  1  0
  3  4  1  0
  4  5  1  0
  5  6  1  0
  6  7  1  0
  7  8  2  0
  8  9  1  0
  9 10  2  0
 10 11  1  0
 11 12  1  0
 12 13  2  0
 13 14  1  0
 14 15  2  0
 15 16  1  0
 16 17  1  0
 17 18  2  0
 18 19  1  0
 19 20  2  0
 20 21  1  0
 21 22  2  0
 15 23  1  0
 23 24  2  0
 11 25  2  0
  5 26  1  0
 26 27  1  0
 27  2  1  0
 25  7  1  0
 24 12  1  0
 22 17  1  0
  1 28  1  0
  1 29  1  0
  1 30  1  0
  3 31  1  0
  3 32  1  0
  4 33  1  0
  4 34  1  0
  6 35  1  0
  6 36  1  0
  8 37  1  0
  9 38  1  0
 10 39  1  0
 13 40  1  0
 14 41  1  0
 16 42  1  0
 16 43  1  0
 18 44  1  0
 19 45  1  0
 20 46  1  0
 21 47  1  0
 22 48  1  0
 23 49  1  0
 24 50  1  0
 25 51  1  0
 26 52  1  0
 26 53  1  0
 27 54  1  0
 27 55  1  0
M  CHG  1  16   1
M  END
>  <UniqueID>  (25) 
25

>  <SMILES>  (25) 
CN1CCN(Cc2cccc(-c3ccc([NH2+]c4ccccc4)cc3)c2)CC1

>  <Energy>  (25) 
77.15889577587316

>  <Genealogy>  (25) 
CN1CCN(Cc2cccc(-c3ccc([NH2+]c4ccccc4)cc3)c2)CC1 (protonated)
CN1CCN(Cc2cccc(-c3ccc([NH2+]c4ccccc4)cc3)c2)CC1 (3D coordinates assigned)
CN1CCN(Cc2cccc(-c3ccc([NH2+]c4ccccc4)cc3)c2)CC1 (nonaromatic ring conformer: 77.15889577587316 kcal/mol)

>  <smiles>  (25) 
CN1CCN(Cc2cccc(-c3ccc(Nc4ccccc4)cc3)c2)CC1

>  <score_type>  (25) 
oracle

>  <origin>  (25) 
adg

>  <m_score__min__energy>  (25) 
-9.0199999999999996

>  <m_primary>  (25) 
energy

$$$$
25:0
     RDKit          3D

 48 50  0  0  0  0  0  0  0  0999 V2000
   -3.3090   15.5310  -35.7810 C   0  0  0  0  0  0  0  0  0  0  0  0
   -2.7710   15.9200  -34.4100 C   0  0  0  0  0  0  0  0  0  0  0  0
   -3.8740   16.2380  -33.5070 N   0  0  0  0  0  0  0  0  0  0  0  0
   -4.4110   17.4570  -33.3140 C   0  0  0  0  0  0  0  0  0  0  0  0
   -5.3820   17.3390  -32.3430 C   0  0  0  0  0  0  0  0  0  0  0  0
   -6.2580   18.4270  -31.8040 C   0  0  0  0  0  0  0  0  0  0  0  0
   -7.1920   18.8990  -32.8480 N   0  0  0  0  0  0  0  0  0  0  0  0
   -8.5760   19.0650  -32.3300 C   0  0  0  0  0  0  0  0  0  0  0  0
   -8.7740   20.2620  -31.3730 C   0  0  0  0  0  0  0  0  0  0  0  0
   -8.3800   21.6450  -31.9480 C   0  0  0  0  0  0  0  0  0  0  0  0
   -6.9340   21.9100  -31.8490 N   0  0  0  0  0  0  0  0  0  0  0  0
   -6.4690   23.0410  -31.0800 C   0  0  0  0  0  0  0  0  0  0  0  0
   -5.1010   23.3420  -30.9790 C   0  0  0  0  0  0  0  0  0  0  0  0
   -4.7040   24.4600  -30.2250 C   0  0  0  0  0  0  0  0  0  0  0  0
   -3.3560   24.8220  -30.0790 O   0  0  0  0  0  0  0  0  0  0  0  0
   -2.4200   24.1310  -29.2570 C   0  0  0  0  0  0  0  0  0  0  0  0
   -5.6510   25.2200  -29.6120 N   0  0  0  0  0  0  0  0  0  0  0  0
   -6.9710   24.9150  -29.7160 C   0  0  0  0  0  0  0  0  0  0  0  0
   -7.3670   23.8400  -30.4410 N   0  0  0  0  0  0  0  0  0  0  0  0
   -5.9700   21.0920  -32.6110 C   0  0  0  0  0  0  0  0  0  0  0  0
   -6.6370   20.0740  -33.5570 C   0  0  0  0  0  0  0  0  0  0  0  0
   -5.3780   16.0060  -31.9780 C   0  0  0  0  0  0  0  0  0  0  0  0
   -4.4420   15.3560  -32.6980 N   0  0  0  0  0  0  0  0  0  0  0  0
   -4.1949   14.8905  -35.6590 H   0  0  0  0  0  0  0  0  0  0  0  0
   -3.5866   16.4386  -36.3370 H   0  0  0  0  0  0  0  0  0  0  0  0
   -2.5341   14.9830  -36.3370 H   0  0  0  0  0  0  0  0  0  0  0  0
   -2.1923   15.0814  -33.9955 H   0  0  0  0  0  0  0  0  0  0  0  0
   -2.1266   16.8053  -34.5152 H   0  0  0  0  0  0  0  0  0  0  0  0
   -4.1260   18.3816  -33.8374 H   0  0  0  0  0  0  0  0  0  0  0  0
   -6.8337   18.0398  -30.9504 H   0  0  0  0  0  0  0  0  0  0  0  0
   -5.6264   19.2683  -31.4825 H   0  0  0  0  0  0  0  0  0  0  0  0
   -9.2486   19.2002  -33.1898 H   0  0  0  0  0  0  0  0  0  0  0  0
   -8.7958   18.1612  -31.7427 H   0  0  0  0  0  0  0  0  0  0  0  0
   -9.8373   20.3010  -31.0939 H   0  0  0  0  0  0  0  0  0  0  0  0
   -8.0997   20.0844  -30.5223 H   0  0  0  0  0  0  0  0  0  0  0  0
   -8.6730   21.6822  -33.0076 H   0  0  0  0  0  0  0  0  0  0  0  0
   -8.9001   22.4120  -31.3554 H   0  0  0  0  0  0  0  0  0  0  0  0
   -4.3519   22.7128  -31.4820 H   0  0  0  0  0  0  0  0  0  0  0  0
   -2.6605   24.3086  -28.1984 H   0  0  0  0  0  0  0  0  0  0  0  0
   -2.4718   23.0529  -29.4689 H   0  0  0  0  0  0  0  0  0  0  0  0
   -1.4049   24.4980  -29.4689 H   0  0  0  0  0  0  0  0  0  0  0  0
   -5.3630   26.0510  -29.0500 H   0  0  0  0  0  0  0  0  0  0  0  0
   -7.7203   25.5420  -29.2106 H   0  0  0  0  0  0  0  0  0  0  0  0
   -5.3413   21.7653  -33.2121 H   0  0  0  0  0  0  0  0  0  0  0  0
   -5.3851   20.5166  -31.8784 H   0  0  0  0  0  0  0  0  0  0  0  0
   -7.4548   20.5779  -34.0929 H   0  0  0  0  0  0  0  0  0  0  0  0
   -5.8599   19.7060  -34.2431 H   0  0  0  0  0  0  0  0  0  0  0  0
   -6.0332   15.5491  -31.2217 H   0  0  0  0  0  0  0  0  0  0  0  0
  1  2  1  0
  2  3  1  0
  3  4  1  0
  4  5  2  0
  5  6  1  0
  6  7  1  0
  7  8  1  0
  8  9  1  0
  9 10  1  0
 10 11  1  0
 11 12  1  0
 12 13  2  0
 13 14  1  0
 14 15  1  0
 15 16  1  0
 14 17  2  0
 17 18  1  0
 18 19  2  0
 11 20  1  0
 20 21  1  0
  5 22  1  0
 22 23  2  0
 23  3  1  0
 21  7  1  0
 19 12  1  0
  1 24  1  0
  1 25  1  0
  1 26  1  0
  2 27  1  0
  2 28  1  0
  4 29  1  0
  6 30  1  0
  6 31  1  0
  8 32  1  0
  8 33  1  0
  9 34  1  0
  9 35  1  0
 10 36  1  0
 10 37  1  0
 13 38  1  0
 16 39  1  0
 16 40  1  0
 16 41  1  0
 17 42  1  0
 18 43  1  0
 20 44  1  0
 20 45  1  0
 21 46  1  0
 21 47  1  0
 22 48  1  0
M  CHG  1  17   1
M  END
>  <UniqueID>  (26) 
26

>  <SMILES>  (26) 
CCn1cc(CN2CCCN(c3cc(OC)[nH+]cn3)CC2)cn1

>  <Energy>  (26) 
88.72015127788863

>  <Genealogy>  (26) 
CCn1cc(CN2CCCN(c3cc(OC)[nH+]cn3)CC2)cn1 (protonated)
CCn1cc(CN2CCCN(c3cc(OC)[nH+]cn3)CC2)cn1 (3D coordinates assigned)
CCn1cc(CN2CCCN(c3cc(OC)[nH+]cn3)CC2)cn1 (nonaromatic ring conformer: 88.72015127788863 kcal/mol)

>  <smiles>  (26) 
CCn1cc(CN2CCCN(c3cc(OC)ncn3)CC2)cn1

>  <score_type>  (26) 
oracle

>  <origin>  (26) 
adg

>  <m_score__min__energy>  (26) 
-5.2800000000000002

>  <m_primary>  (26) 
energy

$$$$
26:0
     RDKit          3D

 49 52  0  0  0  0  0  0  0  0999 V2000
   -5.5370   17.1110  -32.9520 C   0  0  0  0  0  0  0  0  0  0  0  0
   -6.1250   17.3110  -31.7030 C   0  0  0  0  0  0  0  0  0  0  0  0
   -7.0810   18.3160  -31.5360 C   0  0  0  0  0  0  0  0  0  0  0  0
   -7.4400   19.1120  -32.6350 C   0  0  0  0  0  0  0  0  0  0  0  0
   -8.4420   20.2230  -32.4900 C   0  0  0  0  0  0  0  0  0  0  0  0
   -7.7750   21.5430  -32.5260 N   0  0  0  0  0  0  0  0  0  0  0  0
   -8.1520   22.3730  -31.3500 C   0  0  0  0  0  0  0  0  0  0  0  0
   -7.0960   22.3200  -30.2340 C   0  0  0  0  0  0  0  0  0  0  0  0
   -5.7190   22.8860  -30.7100 C   0  0  0  0  0  0  0  0  0  0  0  0
   -5.5510   22.6510  -32.2460 C   0  0  0  0  0  0  0  0  0  0  0  0
   -6.3070   21.4010  -32.7140 C   0  0  0  0  0  0  0  0  0  0  0  0
   -4.5820   22.1370  -29.9360 C   0  0  0  0  0  0  0  0  0  0  0  0
   -3.3430   23.0090  -29.7030 C   0  0  0  0  0  0  0  0  0  0  0  0
   -3.7060   24.2170  -28.9460 N   0  0  0  0  0  0  0  0  0  0  0  0
   -2.7340   24.8600  -28.0960 C   0  0  0  0  0  0  0  0  0  0  0  0
   -1.6600   25.4980  -28.6400 N   0  0  0  0  0  0  0  0  0  0  0  0
   -0.7340   26.1100  -27.8570 C   0  0  0  0  0  0  0  0  0  0  0  0
   -0.8750   26.0930  -26.4710 C   0  0  0  0  0  0  0  0  0  0  0  0
   -1.9780   25.4380  -25.9250 C   0  0  0  0  0  0  0  0  0  0  0  0
   -2.8810   24.8370  -26.7420 N   0  0  0  0  0  0  0  0  0  0  0  0
   -5.0660   24.7650  -29.0620 C   0  0  0  0  0  0  0  0  0  0  0  0
   -5.6590   24.4260  -30.4330 C   0  0  0  0  0  0  0  0  0  0  0  0
   -6.8450   18.9000  -33.8420 N   0  0  0  0  0  0  0  0  0  0  0  0
   -5.9130   17.9260  -34.0230 C   0  0  0  0  0  0  0  0  0  0  0  0
   -4.7854   16.3202  -33.0924 H   0  0  0  0  0  0  0  0  0  0  0  0
   -5.8364   16.6783  -30.8507 H   0  0  0  0  0  0  0  0  0  0  0  0
   -7.5474   18.4817  -30.5537 H   0  0  0  0  0  0  0  0  0  0  0  0
   -9.1677   20.1635  -33.3145 H   0  0  0  0  0  0  0  0  0  0  0  0
   -8.9515   20.1128  -31.5213 H   0  0  0  0  0  0  0  0  0  0  0  0
   -8.2687   23.4168  -31.6769 H   0  0  0  0  0  0  0  0  0  0  0  0
   -9.0916   21.9713  -30.9427 H   0  0  0  0  0  0  0  0  0  0  0  0
   -7.4501   22.9164  -29.3802 H   0  0  0  0  0  0  0  0  0  0  0  0
   -6.9527   21.2673  -29.9488 H   0  0  0  0  0  0  0  0  0  0  0  0
   -5.9412   23.5266  -32.7855 H   0  0  0  0  0  0  0  0  0  0  0  0
   -4.4813   22.5037  -32.4557 H   0  0  0  0  0  0  0  0  0  0  0  0
   -6.0986   21.2373  -33.7816 H   0  0  0  0  0  0  0  0  0  0  0  0
   -5.9651   20.5476  -32.1100 H   0  0  0  0  0  0  0  0  0  0  0  0
   -4.9744   21.8170  -28.9595 H   0  0  0  0  0  0  0  0  0  0  0  0
   -4.2714   21.2812  -30.5534 H   0  0  0  0  0  0  0  0  0  0  0  0
   -2.5965   22.4349  -29.1346 H   0  0  0  0  0  0  0  0  0  0  0  0
   -2.9264   23.3075  -30.6763 H   0  0  0  0  0  0  0  0  0  0  0  0
    0.1263   26.6185  -28.3167 H   0  0  0  0  0  0  0  0  0  0  0  0
   -0.1341   26.5844  -25.8233 H   0  0  0  0  0  0  0  0  0  0  0  0
   -2.1166   25.4081  -24.8342 H   0  0  0  0  0  0  0  0  0  0  0  0
   -5.7005   24.3318  -28.2747 H   0  0  0  0  0  0  0  0  0  0  0  0
   -5.0225   25.8585  -28.9507 H   0  0  0  0  0  0  0  0  0  0  0  0
   -6.6804   24.8312  -30.4830 H   0  0  0  0  0  0  0  0  0  0  0  0
   -5.0026   24.8719  -31.1947 H   0  0  0  0  0  0  0  0  0  0  0  0
   -5.4552   17.7799  -35.0125 H   0  0  0  0  0  0  0  0  0  0  0  0
  1  2  2  0
  2  3  1  0
  3  4  2  0
  4  5  1  0
  5  6  1  0
  6  7  1  0
  7  8  1  0
  8  9  1  0
  9 10  1  0
 10 11  1  0
  9 12  1  0
 12 13  1  0
 13 14  1  0
 14 15  1  0
 15 16  2  0
 16 17  1  0
 17 18  2  0
 18 19  1  0
 19 20  2  0
 14 21  1  0
 21 22  1  0
  4 23  1  0
 23 24  2  0
 24  1  1  0
 11  6  1  0
 20 15  1  0
 22  9  1  0
  1 25  1  0
  2 26  1  0
  3 27  1  0
  5 28  1  0
  5 29  1  0
  7 30  1  0
  7 31  1  0
  8 32  1  0
  8 33  1  0
 10 34  1  0
 10 35  1  0
 11 36  1  0
 11 37  1  0
 12 38  1  0
 12 39  1  0
 13 40  1  0
 13 41  1  0
 17 42  1  0
 18 43  1  0
 19 44  1  0
 21 45  1  0
 21 46  1  0
 22 47  1  0
 22 48  1  0
 24 49  1  0
M  END
>  <UniqueID>  (27) 
27

>  <SMILES>  (27) 
c1ccc(CN2CCC3(CC2)CCN(c2ncccn2)CC3)nc1

>  <Energy>  (27) 
68.27813112142633

>  <Genealogy>  (27) 
c1ccc(CN2CCC3(CC2)CCN(c2ncccn2)CC3)nc1 (3D coordinates assigned)
c1ccc(CN2CCC3(CC2)CCN(c2ncccn2)CC3)nc1 (nonaromatic ring conformer: 68.27813112142633 kcal/mol)

>  <smiles>  (27) 
c1ccc(CN2CCC3(CC2)CCN(c2ncccn2)CC3)nc1

>  <score_type>  (27) 
oracle

>  <origin>  (27) 
adg

>  <m_score__min__energy>  (27) 
-8.3399999999999999

>  <m_primary>  (27) 
energy

$$$$
27:0
     RDKit          3D

 37 38  0  0  0  0  0  0  0  0999 V2000
   -5.3800   26.5737  -31.1542 H   0  0  0  0  0  0  0  0  0  0  0  0
   -5.0970   25.5570  -30.8440 C   0  0  0  0  0  0  0  0  0  0  0  0
   -3.8240   25.3010  -30.4540 N   0  0  0  0  0  0  0  0  0  0  0  0
   -3.4290   24.0610  -30.0650 C   0  0  0  0  0  0  0  0  0  0  0  0
   -2.1040   23.8490  -29.6720 C   0  0  0  0  0  0  0  0  0  0  0  0
   -1.3899   24.6856  -29.6813 H   0  0  0  0  0  0  0  0  0  0  0  0
   -1.6830   22.5810  -29.2680 C   0  0  0  0  0  0  0  0  0  0  0  0
   -0.6383   22.4230  -28.9621 H   0  0  0  0  0  0  0  0  0  0  0  0
   -2.5880   21.5040  -29.2500 C   0  0  0  0  0  0  0  0  0  0  0  0
   -2.2110   20.2130  -28.8500 O   0  0  0  0  0  0  0  0  0  0  0  0
   -2.3300   19.7150  -27.5210 C   0  0  0  0  0  0  0  0  0  0  0  0
   -2.1357   20.5280  -26.8060 H   0  0  0  0  0  0  0  0  0  0  0  0
   -3.3466   19.3249  -27.3653 H   0  0  0  0  0  0  0  0  0  0  0  0
   -1.5995   18.9074  -27.3653 H   0  0  0  0  0  0  0  0  0  0  0  0
   -3.9150   21.7150  -29.6430 C   0  0  0  0  0  0  0  0  0  0  0  0
   -4.6252   20.8751  -29.6292 H   0  0  0  0  0  0  0  0  0  0  0  0
   -4.3530   22.9890  -30.0560 C   0  0  0  0  0  0  0  0  0  0  0  0
   -5.6900   23.2330  -30.4560 C   0  0  0  0  0  0  0  0  0  0  0  0
   -6.5510   22.2490  -30.4490 N   0  0  0  0  0  0  0  0  0  0  0  0
   -7.9490   22.2720  -30.8850 C   0  0  0  0  0  0  0  0  0  0  0  0
   -8.5996   22.1981  -30.0011 H   0  0  0  0  0  0  0  0  0  0  0  0
   -8.1247   23.2138  -31.4255 H   0  0  0  0  0  0  0  0  0  0  0  0
   -8.2670   21.1030  -31.8390 C   0  0  0  0  0  0  0  0  0  0  0  0
   -9.1948   20.6193  -31.4994 H   0  0  0  0  0  0  0  0  0  0  0  0
   -8.3626   21.5275  -32.8493 H   0  0  0  0  0  0  0  0  0  0  0  0
   -7.1970   20.0770  -31.8970 N   0  0  0  0  0  0  0  0  0  0  0  0
   -6.5190   20.2280  -31.1120 H   0  0  0  0  0  0  0  0  0  0  0  0
   -7.7840   18.7370  -31.7180 C   0  0  0  0  0  0  0  0  0  0  0  0
   -7.8795   18.5190  -30.6441 H   0  0  0  0  0  0  0  0  0  0  0  0
   -8.7780   18.7063  -32.1882 H   0  0  0  0  0  0  0  0  0  0  0  0
   -7.1326   17.9856  -32.1882 H   0  0  0  0  0  0  0  0  0  0  0  0
   -6.4580   20.1250  -33.1730 C   0  0  0  0  0  0  0  0  0  0  0  0
   -5.3793   20.1951  -32.9695 H   0  0  0  0  0  0  0  0  0  0  0  0
   -6.6637   19.2116  -33.7504 H   0  0  0  0  0  0  0  0  0  0  0  0
   -6.7801   21.0041  -33.7504 H   0  0  0  0  0  0  0  0  0  0  0  0
   -6.0500   24.5380  -30.8540 C   0  0  0  0  0  0  0  0  0  0  0  0
   -7.0811   24.7518  -31.1719 H   0  0  0  0  0  0  0  0  0  0  0  0
  1  2  1  0
  2  3  1  0
  3  4  1  0
  4  5  2  0
  5  6  1  0
  5  7  1  0
  7  8  1  0
  7  9  2  0
  9 10  1  0
 10 11  1  0
 11 12  1  0
 11 13  1  0
 11 14  1  0
  9 15  1  0
 15 16  1  0
 15 17  2  0
 17 18  1  0
 18 19  2  0
 19 20  1  0
 20 21  1  0
 20 22  1  0
 20 23  1  0
 23 24  1  0
 23 25  1  0
 23 26  1  0
 26 27  1  0
 26 28  1  0
 28 29  1  0
 28 30  1  0
 28 31  1  0
 26 32  1  0
 32 33  1  0
 32 34  1  0
 32 35  1  0
 18 36  1  0
 36 37  1  0
 36  2  2  0
 17  4  1  0
M  CHG  2   3  -1  26   1
M  END
>  <UniqueID>  (28) 
28

>  <SMILES>  (28) 
COc1ccc2[n-]cc/c(=N\CC[NH+](C)C)c2c1

>  <Energy>  (28) 
43.374752018277526

>  <Genealogy>  (28) 
COc1ccc2[n-]ccc(=NCC[NH+](C)C)c2c1 (protonated)
COc1ccc2[n-]cc/c(=N\CC[NH+](C)C)c2c1 (cis-trans isomerization)
COc1ccc2[n-]cc/c(=N\CC[NH+](C)C)c2c1 (3D coordinates assigned)
COc1ccc2[n-]cc/c(=N\CC[NH+](C)C)c2c1 (optimized conformer: 43.374752018277526 kcal/mol)

>  <smiles>  (28) 
COc1ccc2[nH]ccc(=NCCN(C)C)c2c1

>  <score_type>  (28) 
oracle

>  <origin>  (28) 
adg

>  <m_score__min__energy>  (28) 
-6.3600000000000003

>  <m_primary>  (28) 
energy

$$$$
28:0
     RDKit          3D

 50 52  0  0  0  0  0  0  0  0999 V2000
   -2.7990   20.6910  -33.2620 C   0  0  0  0  0  0  0  0  0  0  0  0
   -4.2050   20.7600  -33.0430 O   0  0  0  0  0  0  0  0  0  0  0  0
   -5.0950   19.6890  -33.2290 C   0  0  0  0  0  0  0  0  0  0  0  0
   -4.9220   18.7510  -34.2680 C   0  0  0  0  0  0  0  0  0  0  0  0
   -5.8220   17.6950  -34.4210 C   0  0  0  0  0  0  0  0  0  0  0  0
   -6.9000   17.5580  -33.5460 C   0  0  0  0  0  0  0  0  0  0  0  0
   -7.0830   18.4790  -32.5140 C   0  0  0  0  0  0  0  0  0  0  0  0
   -6.1880   19.5510  -32.3490 C   0  0  0  0  0  0  0  0  0  0  0  0
   -6.3880   20.5290  -31.2160 C   0  0  0  0  0  0  0  0  0  0  0  0
   -7.2620   21.6500  -31.6320 N   0  0  0  0  0  0  0  0  0  0  0  0
   -6.6620   22.4950  -32.6890 C   0  0  0  0  0  0  0  0  0  0  0  0
   -5.4810   23.3440  -32.1780 C   0  0  0  0  0  0  0  0  0  0  0  0
   -5.6740   23.8190  -30.7200 C   0  0  0  0  0  0  0  0  0  0  0  0
   -5.0390   25.1670  -30.5040 C   0  0  0  0  0  0  0  0  0  0  0  0
   -5.7570   26.2020  -30.4630 O   0  0  0  0  0  0  0  0  0  0  0  0
   -3.6110   25.2670  -30.4400 N   0  0  0  0  0  0  0  0  0  0  0  0
   -2.7290   24.4030  -29.7090 C   0  0  0  0  0  0  0  0  0  0  0  0
   -2.0610   24.9160  -28.5930 C   0  0  0  0  0  0  0  0  0  0  0  0
   -1.1690   24.1180  -27.8740 C   0  0  0  0  0  0  0  0  0  0  0  0
   -0.9320   22.8000  -28.2680 C   0  0  0  0  0  0  0  0  0  0  0  0
   -1.5930   22.2630  -29.3860 C   0  0  0  0  0  0  0  0  0  0  0  0
   -1.2860   20.8630  -29.8550 C   0  0  0  0  0  0  0  0  0  0  0  0
   -2.4470   20.1940  -30.1990 F   0  0  0  0  0  0  0  0  0  0  0  0
   -0.6510   20.1710  -28.8410 F   0  0  0  0  0  0  0  0  0  0  0  0
   -0.4600   20.8930  -30.9650 F   0  0  0  0  0  0  0  0  0  0  0  0
   -2.4690   23.0820  -30.1210 C   0  0  0  0  0  0  0  0  0  0  0  0
   -7.1590   23.8410  -30.3390 C   0  0  0  0  0  0  0  0  0  0  0  0
   -7.7800   22.4350  -30.4790 C   0  0  0  0  0  0  0  0  0  0  0  0
   -2.2779   20.6654  -32.2936 H   0  0  0  0  0  0  0  0  0  0  0  0
   -2.5608   19.7801  -33.8307 H   0  0  0  0  0  0  0  0  0  0  0  0
   -2.4727   21.5742  -33.8307 H   0  0  0  0  0  0  0  0  0  0  0  0
   -4.0738   18.8521  -34.9611 H   0  0  0  0  0  0  0  0  0  0  0  0
   -5.6808   16.9682  -35.2345 H   0  0  0  0  0  0  0  0  0  0  0  0
   -7.6059   16.7235  -33.6698 H   0  0  0  0  0  0  0  0  0  0  0  0
   -7.9329   18.3658  -31.8250 H   0  0  0  0  0  0  0  0  0  0  0  0
   -6.8527   20.0062  -30.3670 H   0  0  0  0  0  0  0  0  0  0  0  0
   -5.4080   20.9366  -30.9271 H   0  0  0  0  0  0  0  0  0  0  0  0
   -6.3015   21.8425  -33.4979 H   0  0  0  0  0  0  0  0  0  0  0  0
   -7.4405   23.1885  -33.0397 H   0  0  0  0  0  0  0  0  0  0  0  0
   -4.5636   22.7395  -32.2326 H   0  0  0  0  0  0  0  0  0  0  0  0
   -5.4167   24.2397  -32.8132 H   0  0  0  0  0  0  0  0  0  0  0  0
   -5.1691   23.0982  -30.0601 H   0  0  0  0  0  0  0  0  0  0  0  0
   -2.2394   25.9551  -28.2794 H   0  0  0  0  0  0  0  0  0  0  0  0
   -0.6516   24.5291  -26.9946 H   0  0  0  0  0  0  0  0  0  0  0  0
   -0.2240   22.1783  -27.7003 H   0  0  0  0  0  0  0  0  0  0  0  0
   -2.9551   22.6871  -31.0253 H   0  0  0  0  0  0  0  0  0  0  0  0
   -7.2592   24.1776  -29.2966 H   0  0  0  0  0  0  0  0  0  0  0  0
   -7.6870   24.5293  -31.0153 H   0  0  0  0  0  0  0  0  0  0  0  0
   -7.5708   21.8724  -29.5572 H   0  0  0  0  0  0  0  0  0  0  0  0
   -8.8559   22.5814  -30.6550 H   0  0  0  0  0  0  0  0  0  0  0  0
  1  2  1  0
  2  3  1  0
  3  4  2  0
  4  5  1  0
  5  6  2  0
  6  7  1  0
  7  8  2  0
  8  9  1  0
  9 10  1  0
 10 11  1  0
 11 12  1  0
 12 13  1  0
 13 14  1  0
 14 15  2  0
 14 16  1  0
 16 17  1  0
 17 18  2  0
 18 19  1  0
 19 20  2  0
 20 21  1  0
 21 22  1  0
 22 23  1  0
 22 24  1  0
 22 25  1  0
 21 26  2  0
 13 27  1  0
 27 28  1  0
  8  3  1  0
 28 10  1  0
 26 17  1  0
  1 29  1  0
  1 30  1  0
  1 31  1  0
  4 32  1  0
  5 33  1  0
  6 34  1  0
  7 35  1  0
  9 36  1  0
  9 37  1  0
 11 38  1  0
 11 39  1  0
 12 40  1  0
 12 41  1  0
 13 42  1  0
 18 43  1  0
 19 44  1  0
 20 45  1  0
 26 46  1  0
 27 47  1  0
 27 48  1  0
 28 49  1  0
 28 50  1  0
M  CHG  1  16  -1
M  END
>  <UniqueID>  (29) 
29

>  <SMILES>  (29) 
COc1ccccc1CN1CCC(C(=O)[N-]c2cccc(C(F)(F)F)c2)CC1

>  <Energy>  (29) 
63.73739311791385

>  <Genealogy>  (29) 
COc1ccccc1CN1CCC(C(=O)[N-]c2cccc(C(F)(F)F)c2)CC1 (protonated)
COc1ccccc1CN1CCC(C(=O)[N-]c2cccc(C(F)(F)F)c2)CC1 (3D coordinates assigned)
COc1ccccc1CN1CCC(C(=O)[N-]c2cccc(C(F)(F)F)c2)CC1 (nonaromatic ring conformer: 63.73739311791385 kcal/mol)

>  <smiles>  (29) 
COc1ccccc1CN1CCC(C(=O)Nc2cccc(C(F)(F)F)c2)CC1

>  <score_type>  (29) 
oracle

>  <origin>  (29) 
adg

>  <m_score__min__energy>  (29) 
-9.6999999999999993

>  <m_primary>  (29) 
energy

$$$$
29:0
     RDKit          3D

 36 38  0  0  0  0  0  0  0  0999 V2000
   -3.0430   23.3930  -28.9740 C   0  0  0  0  0  0  0  0  0  0  0  0
   -3.9010   22.2970  -29.5970 C   0  0  0  0  0  0  0  0  0  0  0  0
   -3.4030   21.9390  -30.9730 C   0  0  0  0  0  0  0  0  0  0  0  0
   -2.0630   21.7880  -31.1550 N   0  0  0  0  0  0  0  0  0  0  0  0
   -1.5410   21.5000  -32.3750 C   0  0  0  0  0  0  0  0  0  0  0  0
   -2.3580   21.3650  -33.4500 N   0  0  0  0  0  0  0  0  0  0  0  0
   -3.7000   21.5140  -33.3280 C   0  0  0  0  0  0  0  0  0  0  0  0
   -4.2650   21.8120  -32.0830 C   0  0  0  0  0  0  0  0  0  0  0  0
   -5.7350   21.9730  -31.9720 C   0  0  0  0  0  0  0  0  0  0  0  0
   -6.2570   23.2560  -31.7120 C   0  0  0  0  0  0  0  0  0  0  0  0
   -5.3650   24.3340  -31.5790 O   0  0  0  0  0  0  0  0  0  0  0  0
   -5.4400   25.3260  -30.5600 C   0  0  0  0  0  0  0  0  0  0  0  0
   -7.6470   23.4300  -31.5930 C   0  0  0  0  0  0  0  0  0  0  0  0
   -8.5120   22.3450  -31.7210 C   0  0  0  0  0  0  0  0  0  0  0  0
   -8.0080   21.0630  -31.9690 C   0  0  0  0  0  0  0  0  0  0  0  0
   -8.8880   19.9750  -32.0950 C   0  0  0  0  0  0  0  0  0  0  0  0
   -8.3920   18.6950  -32.3460 C   0  0  0  0  0  0  0  0  0  0  0  0
   -7.0180   18.4890  -32.4760 C   0  0  0  0  0  0  0  0  0  0  0  0
   -6.1310   19.5600  -32.3530 C   0  0  0  0  0  0  0  0  0  0  0  0
   -6.6100   20.8630  -32.0950 C   0  0  0  0  0  0  0  0  0  0  0  0
   -3.0979   23.3229  -27.8776 H   0  0  0  0  0  0  0  0  0  0  0  0
   -1.9989   23.2697  -29.2975 H   0  0  0  0  0  0  0  0  0  0  0  0
   -3.4133   24.3770  -29.2975 H   0  0  0  0  0  0  0  0  0  0  0  0
   -3.8636   21.4032  -28.9569 H   0  0  0  0  0  0  0  0  0  0  0  0
   -4.9336   22.6662  -29.6828 H   0  0  0  0  0  0  0  0  0  0  0  0
   -0.4543   21.3760  -32.4920 H   0  0  0  0  0  0  0  0  0  0  0  0
   -4.3467   21.4003  -34.2105 H   0  0  0  0  0  0  0  0  0  0  0  0
   -5.4034   24.8414  -29.5732 H   0  0  0  0  0  0  0  0  0  0  0  0
   -4.5917   26.0191  -30.6599 H   0  0  0  0  0  0  0  0  0  0  0  0
   -6.3829   25.8837  -30.6599 H   0  0  0  0  0  0  0  0  0  0  0  0
   -8.0557   24.4323  -31.3970 H   0  0  0  0  0  0  0  0  0  0  0  0
   -9.5974   22.4970  -31.6266 H   0  0  0  0  0  0  0  0  0  0  0  0
   -9.9721   20.1327  -31.9954 H   0  0  0  0  0  0  0  0  0  0  0  0
   -9.0856   17.8466  -32.4416 H   0  0  0  0  0  0  0  0  0  0  0  0
   -6.6322   17.4785  -32.6762 H   0  0  0  0  0  0  0  0  0  0  0  0
   -5.0497   19.3873  -32.4580 H   0  0  0  0  0  0  0  0  0  0  0  0
  1  2  1  0
  2  3  1  0
  3  4  2  0
  4  5  1  0
  5  6  2  0
  6  7  1  0
  7  8  2  0
  8  9  1  0
  9 10  2  0
 10 11  1  0
 11 12  1  0
 10 13  1  0
 13 14  2  0
 14 15  1  0
 15 16  2  0
 16 17  1  0
 17 18  2  0
 18 19  1  0
 19 20  2  0
  8  3  1  0
 20  9  1  0
 20 15  1  0
  1 21  1  0
  1 22  1  0
  1 23  1  0
  2 24  1  0
  2 25  1  0
  5 26  1  0
  7 27  1  0
 12 28  1  0
 12 29  1  0
 12 30  1  0
 13 31  1  0
 14 32  1  0
 16 33  1  0
 17 34  1  0
 18 35  1  0
 19 36  1  0
M  END
>  <UniqueID>  (30) 
30

>  <SMILES>  (30) 
CCc1ncncc1-c1c(OC)ccc2ccccc12

>  <Energy>  (30) 
48.27083868327638

>  <Genealogy>  (30) 
CCc1ncncc1-c1c(OC)ccc2ccccc12 (3D coordinates assigned)
CCc1ncncc1-c1c(OC)ccc2ccccc12 (optimized conformer: 48.27083868327638 kcal/mol)

>  <smiles>  (30) 
CCc1ncncc1-c1c(OC)ccc2ccccc12

>  <score_type>  (30) 
oracle

>  <origin>  (30) 
adg

>  <m_score__min__energy>  (30) 
-7.5700000000000003

>  <m_primary>  (30) 
energy

$$$$
30:0
     RDKit          3D

 40 42  0  0  0  0  0  0  0  0999 V2000
   -3.8580   25.4020  -30.5840 O   0  0  0  0  0  0  0  0  0  0  0  0
   -4.4240   24.3670  -30.1400 C   0  0  0  0  0  0  0  0  0  0  0  0
   -3.7050   23.5130  -29.1330 C   0  0  0  0  0  0  0  0  0  0  0  0
   -2.8070   24.3320  -28.3250 N   0  0  0  0  0  0  0  0  0  0  0  0
   -2.6080   24.2560  -26.9970 C   0  0  0  0  0  0  0  0  0  0  0  0
   -1.7550   25.2140  -26.5740 N   0  0  0  0  0  0  0  0  0  0  0  0
   -1.4570   25.8740  -27.7170 C   0  0  0  0  0  0  0  0  0  0  0  0
   -2.0960   25.3470  -28.7760 N   0  0  0  0  0  0  0  0  0  0  0  0
   -5.7380   24.0200  -30.6140 N   0  0  0  0  0  0  0  0  0  0  0  0
   -6.7340   23.3790  -29.7510 C   0  0  0  0  0  0  0  0  0  0  0  0
   -7.2020   22.0500  -30.3740 C   0  0  0  0  0  0  0  0  0  0  0  0
   -7.1220   22.0220  -31.8610 N   0  0  0  0  0  0  0  0  0  0  0  0
   -5.9190   21.3130  -32.3480 C   0  0  0  0  0  0  0  0  0  0  0  0
   -6.2460   19.8800  -32.6530 C   0  0  0  0  0  0  0  0  0  0  0  0
   -5.7610   19.2590  -33.8150 C   0  0  0  0  0  0  0  0  0  0  0  0
   -6.0810   17.9230  -34.0610 C   0  0  0  0  0  0  0  0  0  0  0  0
   -6.8780   17.2200  -33.1550 C   0  0  0  0  0  0  0  0  0  0  0  0
   -7.3440   17.8690  -32.0100 C   0  0  0  0  0  0  0  0  0  0  0  0
   -7.0220   19.1700  -31.7850 N   0  0  0  0  0  0  0  0  0  0  0  0
   -7.2450   23.3710  -32.4570 C   0  0  0  0  0  0  0  0  0  0  0  0
   -6.1000   24.2950  -32.0080 C   0  0  0  0  0  0  0  0  0  0  0  0
   -4.4421   23.0269  -28.4769 H   0  0  0  0  0  0  0  0  0  0  0  0
   -3.1149   22.7521  -29.6647 H   0  0  0  0  0  0  0  0  0  0  0  0
   -3.0791   23.5099  -26.3402 H   0  0  0  0  0  0  0  0  0  0  0  0
   -0.7757   26.7358  -27.7729 H   0  0  0  0  0  0  0  0  0  0  0  0
   -2.0560   25.6720  -29.7680 H   0  0  0  0  0  0  0  0  0  0  0  0
   -6.2871   23.1808  -28.7656 H   0  0  0  0  0  0  0  0  0  0  0  0
   -7.5996   24.0491  -29.6431 H   0  0  0  0  0  0  0  0  0  0  0  0
   -6.5719   21.2402  -29.9775 H   0  0  0  0  0  0  0  0  0  0  0  0
   -8.2622   21.9273  -30.1079 H   0  0  0  0  0  0  0  0  0  0  0  0
   -5.5535   21.8042  -33.2619 H   0  0  0  0  0  0  0  0  0  0  0  0
   -5.1446   21.3448  -31.5674 H   0  0  0  0  0  0  0  0  0  0  0  0
   -5.1350   19.8199  -34.5245 H   0  0  0  0  0  0  0  0  0  0  0  0
   -5.7060   17.4245  -34.9671 H   0  0  0  0  0  0  0  0  0  0  0  0
   -7.1357   16.1670  -33.3413 H   0  0  0  0  0  0  0  0  0  0  0  0
   -7.9728   17.3264  -31.2888 H   0  0  0  0  0  0  0  0  0  0  0  0
   -7.2218   23.2805  -33.5530 H   0  0  0  0  0  0  0  0  0  0  0  0
   -8.1948   23.8111  -32.1192 H   0  0  0  0  0  0  0  0  0  0  0  0
   -5.2235   24.1245  -32.6505 H   0  0  0  0  0  0  0  0  0  0  0  0
   -6.4318   25.3405  -32.0909 H   0  0  0  0  0  0  0  0  0  0  0  0
  1  2  2  0
  2  3  1  0
  3  4  1  0
  4  5  1  0
  5  6  2  0
  6  7  1  0
  7  8  2  0
  2  9  1  0
  9 10  1  0
 10 11  1  0
 11 12  1  0
 12 13  1  0
 13 14  1  0
 14 15  2  0
 15 16  1  0
 16 17  2  0
 17 18  1  0
 18 19  2  0
 12 20  1  0
 20 21  1  0
  8  4  1  0
 21  9  1  0
 19 14  1  0
  3 22  1  0
  3 23  1  0
  5 24  1  0
  7 25  1  0
  8 26  1  0
 10 27  1  0
 10 28  1  0
 11 29  1  0
 11 30  1  0
 13 31  1  0
 13 32  1  0
 15 33  1  0
 16 34  1  0
 17 35  1  0
 18 36  1  0
 20 37  1  0
 20 38  1  0
 21 39  1  0
 21 40  1  0
M  CHG  1   8   1
M  END
>  <UniqueID>  (31) 
31

>  <SMILES>  (31) 
O=C(Cn1cnc[nH+]1)N1CCN(Cc2ccccn2)CC1

>  <Energy>  (31) 
83.36260262961044

>  <Genealogy>  (31) 
O=C(Cn1cnc[nH+]1)N1CCN(Cc2ccccn2)CC1 (protonated)
O=C(Cn1cnc[nH+]1)N1CCN(Cc2ccccn2)CC1 (3D coordinates assigned)
O=C(Cn1cnc[nH+]1)N1CCN(Cc2ccccn2)CC1 (nonaromatic ring conformer: 83.36260262961044 kcal/mol)

>  <smiles>  (31) 
O=C(Cn1cncn1)N1CCN(Cc2ccccn2)CC1

>  <score_type>  (31) 
oracle

>  <origin>  (31) 
adg

>  <m_score__min__energy>  (31) 
-7.4199999999999999

>  <m_primary>  (31) 
energy

$$$$
31:0
     RDKit          3D

 56 58  0  0  0  0  0  0  0  0999 V2000
   -6.4720   17.0630  -33.9850 C   0  0  0  0  0  0  0  0  0  0  0  0
   -5.8050   17.1940  -32.6800 N   0  0  0  0  0  0  0  0  0  0  0  0
   -5.0850   15.9620  -32.3240 C   0  0  0  0  0  0  0  0  0  0  0  0
   -6.7170   17.6620  -31.6110 C   0  0  0  0  0  0  0  0  0  0  0  0
   -8.0880   18.1660  -32.1140 C   0  0  0  0  0  0  0  0  0  0  0  0
   -8.1200   19.6450  -32.0800 N   0  0  0  0  0  0  0  0  0  0  0  0
   -9.4840   20.1380  -32.3520 C   0  0  0  0  0  0  0  0  0  0  0  0
   -7.1620   20.2220  -33.0490 C   0  0  0  0  0  0  0  0  0  0  0  0
   -6.1900   21.1280  -32.3440 C   0  0  0  0  0  0  0  0  0  0  0  0
   -4.9340   20.6490  -31.9290 C   0  0  0  0  0  0  0  0  0  0  0  0
   -4.0270   21.5030  -31.2940 C   0  0  0  0  0  0  0  0  0  0  0  0
   -4.3750   22.8400  -31.0570 C   0  0  0  0  0  0  0  0  0  0  0  0
   -5.6190   23.3230  -31.4680 C   0  0  0  0  0  0  0  0  0  0  0  0
   -6.5260   22.4740  -32.1170 C   0  0  0  0  0  0  0  0  0  0  0  0
   -5.9270   24.7640  -31.1960 C   0  0  0  0  0  0  0  0  0  0  0  0
   -5.4820   25.1040  -29.7620 C   0  0  0  0  0  0  0  0  0  0  0  0
   -4.0770   24.7050  -29.4400 N   0  0  0  0  0  0  0  0  0  0  0  0
   -3.9790   24.1640  -28.0660 C   0  0  0  0  0  0  0  0  0  0  0  0
   -3.0330   22.9910  -28.0110 C   0  0  0  0  0  0  0  0  0  0  0  0
   -3.5310   21.6770  -27.9590 C   0  0  0  0  0  0  0  0  0  0  0  0
   -2.6490   20.5910  -27.9150 C   0  0  0  0  0  0  0  0  0  0  0  0
   -1.2620   20.8090  -27.9230 C   0  0  0  0  0  0  0  0  0  0  0  0
   -0.0580   19.3270  -27.8630 Br  0  0  0  0  0  0  0  0  0  0  0  0
   -0.7600   22.1160  -27.9720 C   0  0  0  0  0  0  0  0  0  0  0  0
   -1.6400   23.2030  -28.0150 C   0  0  0  0  0  0  0  0  0  0  0  0
   -3.4140   23.8170  -30.4350 C   0  0  0  0  0  0  0  0  0  0  0  0
   -7.5408   16.8531  -33.8311 H   0  0  0  0  0  0  0  0  0  0  0  0
   -6.3600   18.0003  -34.5497 H   0  0  0  0  0  0  0  0  0  0  0  0
   -6.0138   16.2377  -34.5497 H   0  0  0  0  0  0  0  0  0  0  0  0
   -5.0322   15.8716  -31.2290 H   0  0  0  0  0  0  0  0  0  0  0  0
   -5.6176   15.0933  -32.7384 H   0  0  0  0  0  0  0  0  0  0  0  0
   -4.0667   15.9996  -32.7384 H   0  0  0  0  0  0  0  0  0  0  0  0
   -6.8915   16.8259  -30.9178 H   0  0  0  0  0  0  0  0  0  0  0  0
   -6.2239   18.5212  -31.1329 H   0  0  0  0  0  0  0  0  0  0  0  0
   -8.2481   17.8206  -33.1460 H   0  0  0  0  0  0  0  0  0  0  0  0
   -8.8821   17.7699  -31.4639 H   0  0  0  0  0  0  0  0  0  0  0  0
  -10.0027   20.3255  -31.4003 H   0  0  0  0  0  0  0  0  0  0  0  0
   -9.4277   21.0727  -32.9292 H   0  0  0  0  0  0  0  0  0  0  0  0
  -10.0383   19.3833  -32.9292 H   0  0  0  0  0  0  0  0  0  0  0  0
   -6.6087   19.4084  -33.5409 H   0  0  0  0  0  0  0  0  0  0  0  0
   -7.7175   20.8057  -33.7978 H   0  0  0  0  0  0  0  0  0  0  0  0
   -4.6641   19.5972  -32.1050 H   0  0  0  0  0  0  0  0  0  0  0  0
   -3.0421   21.1263  -30.9810 H   0  0  0  0  0  0  0  0  0  0  0  0
   -7.5008   22.8610  -32.4487 H   0  0  0  0  0  0  0  0  0  0  0  0
   -5.3850   25.3995  -31.9118 H   0  0  0  0  0  0  0  0  0  0  0  0
   -7.0070   24.9424  -31.3045 H   0  0  0  0  0  0  0  0  0  0  0  0
   -5.5713   26.1915  -29.6228 H   0  0  0  0  0  0  0  0  0  0  0  0
   -6.1338   24.5303  -29.0867 H   0  0  0  0  0  0  0  0  0  0  0  0
   -3.6116   24.9538  -27.3942 H   0  0  0  0  0  0  0  0  0  0  0  0
   -4.9768   23.8233  -27.7525 H   0  0  0  0  0  0  0  0  0  0  0  0
   -4.6170   21.5020  -27.9529 H   0  0  0  0  0  0  0  0  0  0  0  0
   -3.0432   19.5649  -27.8741 H   0  0  0  0  0  0  0  0  0  0  0  0
    0.3265   22.2878  -27.9767 H   0  0  0  0  0  0  0  0  0  0  0  0
   -1.2424   24.2280  -28.0521 H   0  0  0  0  0  0  0  0  0  0  0  0
   -2.9782   24.4398  -31.2302 H   0  0  0  0  0  0  0  0  0  0  0  0
   -2.6402   23.2394  -29.9082 H   0  0  0  0  0  0  0  0  0  0  0  0
  1  2  1  0
  2  3  1  0
  2  4  1  0
  4  5  1  0
  5  6  1  0
  6  7  1  0
  6  8  1  0
  8  9  1  0
  9 10  2  0
 10 11  1  0
 11 12  2  0
 12 13  1  0
 13 14  2  0
 13 15  1  0
 15 16  1  0
 16 17  1  0
 17 18  1  0
 18 19  1  0
 19 20  2  0
 20 21  1  0
 21 22  2  0
 22 23  1  0
 22 24  1  0
 24 25  2  0
 17 26  1  0
 14  9  1  0
 25 19  1  0
 26 12  1  0
  1 27  1  0
  1 28  1  0
  1 29  1  0
  3 30  1  0
  3 31  1  0
  3 32  1  0
  4 33  1  0
  4 34  1  0
  5 35  1  0
  5 36  1  0
  7 37  1  0
  7 38  1  0
  7 39  1  0
  8 40  1  0
  8 41  1  0
 10 42  1  0
 11 43  1  0
 14 44  1  0
 15 45  1  0
 15 46  1  0
 16 47  1  0
 16 48  1  0
 18 49  1  0
 18 50  1  0
 20 51  1  0
 21 52  1  0
 24 53  1  0
 25 54  1  0
 26 55  1  0
 26 56  1  0
M  END
>  <UniqueID>  (32) 
32

>  <SMILES>  (32) 
CN(C)CCN(C)Cc1ccc2c(c1)CCN(Cc1ccc(Br)cc1)C2

>  <Energy>  (32) 
71.35011634084424

>  <Genealogy>  (32) 
CN(C)CCN(C)Cc1ccc2c(c1)CCN(Cc1ccc(Br)cc1)C2 (3D coordinates assigned)
CN(C)CCN(C)Cc1ccc2c(c1)CCN(Cc1ccc(Br)cc1)C2 (nonaromatic ring conformer: 71.35011634084424 kcal/mol)

>  <smiles>  (32) 
CN(C)CCN(C)Cc1ccc2c(c1)CCN(Cc1ccc(Br)cc1)C2

>  <score_type>  (32) 
oracle

>  <origin>  (32) 
adg

>  <m_score__min__energy>  (32) 
-8.5399999999999991

>  <m_primary>  (32) 
energy

$$$$
32:0
     RDKit          3D

 36 38  0  0  0  0  0  0  0  0999 V2000
   -3.8550   24.1740  -27.1980 C   0  0  0  0  0  0  0  0  0  0  0  0
   -3.7400   23.1430  -28.3200 C   0  0  0  0  0  0  0  0  0  0  0  0
   -3.2280   23.7650  -29.6310 C   0  0  0  0  0  0  0  0  0  0  0  0
   -3.7240   23.0070  -30.8580 C   0  0  0  0  0  0  0  0  0  0  0  0
   -2.7370   22.3200  -31.5840 C   0  0  0  0  0  0  0  0  0  0  0  0
   -3.0750   21.3700  -32.5300 C   0  0  0  0  0  0  0  0  0  0  0  0
   -4.4010   21.0230  -32.7280 C   0  0  0  0  0  0  0  0  0  0  0  0
   -5.4420   21.6740  -32.0270 C   0  0  0  0  0  0  0  0  0  0  0  0
   -5.1090   22.7830  -31.1740 C   0  0  0  0  0  0  0  0  0  0  0  0
   -6.1770   23.6040  -30.6970 C   0  0  0  0  0  0  0  0  0  0  0  0
   -5.9880   25.0050  -30.1640 C   0  0  0  0  0  0  0  0  0  0  0  0
   -7.5020   23.1800  -30.8450 C   0  0  0  0  0  0  0  0  0  0  0  0
   -7.8190   22.0190  -31.5440 C   0  0  0  0  0  0  0  0  0  0  0  0
   -9.1620   21.6320  -31.6600 C   0  0  0  0  0  0  0  0  0  0  0  0
   -9.4880   20.4840  -32.3730 C   0  0  0  0  0  0  0  0  0  0  0  0
   -8.5100   19.7420  -32.9510 N   0  0  0  0  0  0  0  0  0  0  0  0
   -7.1970   20.0910  -32.8610 C   0  0  0  0  0  0  0  0  0  0  0  0
   -6.8010   21.2610  -32.1630 C   0  0  0  0  0  0  0  0  0  0  0  0
   -3.7982   23.6646  -26.2247 H   0  0  0  0  0  0  0  0  0  0  0  0
   -3.0322   24.8993  -27.2808 H   0  0  0  0  0  0  0  0  0  0  0  0
   -4.8174   24.7002  -27.2808 H   0  0  0  0  0  0  0  0  0  0  0  0
   -3.0410   22.3539  -28.0057 H   0  0  0  0  0  0  0  0  0  0  0  0
   -4.7444   22.7363  -28.5090 H   0  0  0  0  0  0  0  0  0  0  0  0
   -3.5796   24.8056  -29.6909 H   0  0  0  0  0  0  0  0  0  0  0  0
   -2.1292   23.7147  -29.6232 H   0  0  0  0  0  0  0  0  0  0  0  0
   -1.6760   22.5418  -31.3965 H   0  0  0  0  0  0  0  0  0  0  0  0
   -2.2875   20.8879  -33.1278 H   0  0  0  0  0  0  0  0  0  0  0  0
   -4.6490   20.2258  -33.4442 H   0  0  0  0  0  0  0  0  0  0  0  0
   -5.9910   24.9824  -29.0642 H   0  0  0  0  0  0  0  0  0  0  0  0
   -5.0276   25.4062  -30.5198 H   0  0  0  0  0  0  0  0  0  0  0  0
   -6.8078   25.6464  -30.5198 H   0  0  0  0  0  0  0  0  0  0  0  0
   -8.3110   23.7773  -30.3991 H   0  0  0  0  0  0  0  0  0  0  0  0
   -9.9534   22.2338  -31.1892 H   0  0  0  0  0  0  0  0  0  0  0  0
  -10.5399   20.1768  -32.4687 H   0  0  0  0  0  0  0  0  0  0  0  0
   -8.7720   18.8760  -33.4710 H   0  0  0  0  0  0  0  0  0  0  0  0
   -6.4332   19.4575  -33.3357 H   0  0  0  0  0  0  0  0  0  0  0  0
  1  2  1  0
  2  3  1  0
  3  4  1  0
  4  5  2  0
  5  6  1  0
  6  7  2  0
  7  8  1  0
  8  9  2  0
  9 10  1  0
 10 11  1  0
 10 12  2  0
 12 13  1  0
 13 14  2  0
 14 15  1  0
 15 16  2  0
 16 17  1  0
 17 18  2  0
  9  4  1  0
 18 13  1  0
 18  8  1  0
  1 19  1  0
  1 20  1  0
  1 21  1  0
  2 22  1  0
  2 23  1  0
  3 24  1  0
  3 25  1  0
  5 26  1  0
  6 27  1  0
  7 28  1  0
 11 29  1  0
 11 30  1  0
 11 31  1  0
 12 32  1  0
 14 33  1  0
 15 34  1  0
 16 35  1  0
 17 36  1  0
M  CHG  1  16   1
M  END
>  <UniqueID>  (33) 
33

>  <SMILES>  (33) 
CCCc1cccc2c1c(C)cc1cc[nH+]cc12

>  <Energy>  (33) 
62.22215795626077

>  <Genealogy>  (33) 
CCCc1cccc2c1c(C)cc1cc[nH+]cc12 (protonated)
CCCc1cccc2c1c(C)cc1cc[nH+]cc12 (3D coordinates assigned)
CCCc1cccc2c1c(C)cc1cc[nH+]cc12 (optimized conformer: 62.22215795626077 kcal/mol)

>  <smiles>  (33) 
CCCc1cccc2c1c(C)cc1ccncc12

>  <score_type>  (33) 
oracle

>  <origin>  (33) 
adg

>  <m_score__min__energy>  (33) 
-7.2400000000000002

>  <m_primary>  (33) 
energy

$$$$
33:0
     RDKit          3D

 57 59  0  0  0  0  0  0  0  0999 V2000
   -8.5340   22.6470  -31.9350 C   0  0  0  0  0  0  0  0  0  0  0  0
   -8.6070   21.2470  -31.3380 C   0  0  0  0  0  0  0  0  0  0  0  0
   -8.8380   20.0320  -32.6770 S   0  0  0  0  0  0  0  0  0  0  0  0
   -8.7540   18.5310  -31.6300 C   0  0  0  0  0  0  0  0  0  0  0  0
   -7.3540   17.8910  -31.7090 C   0  0  0  0  0  0  0  0  0  0  0  0
   -6.2930   18.8490  -32.0340 N   0  0  0  0  0  0  0  0  0  0  0  0
   -5.4690   18.8080  -33.2120 C   0  0  0  0  0  0  0  0  0  0  0  0
   -5.4920   17.8020  -33.9730 O   0  0  0  0  0  0  0  0  0  0  0  0
   -4.4760   19.9200  -33.4890 C   0  0  0  0  0  0  0  0  0  0  0  0
   -3.0840   19.6170  -32.8580 C   0  0  0  0  0  0  0  0  0  0  0  0
   -2.8630   20.2790  -31.4840 C   0  0  0  0  0  0  0  0  0  0  0  0
   -3.2870   21.6890  -31.4690 N   0  0  0  0  0  0  0  0  0  0  0  0
   -2.7890   22.5460  -30.4390 C   0  0  0  0  0  0  0  0  0  0  0  0
   -1.4570   22.7610  -30.2620 N   0  0  0  0  0  0  0  0  0  0  0  0
   -1.4270   23.5320  -29.1630 C   0  0  0  0  0  0  0  0  0  0  0  0
   -0.3030   24.0170  -28.5030 C   0  0  0  0  0  0  0  0  0  0  0  0
   -0.5000   24.7620  -27.3260 C   0  0  0  0  0  0  0  0  0  0  0  0
   -1.8050   24.9920  -26.8300 C   0  0  0  0  0  0  0  0  0  0  0  0
   -2.9260   24.4830  -27.5120 C   0  0  0  0  0  0  0  0  0  0  0  0
   -2.6950   23.7570  -28.6880 C   0  0  0  0  0  0  0  0  0  0  0  0
   -3.5740   23.1510  -29.5020 N   0  0  0  0  0  0  0  0  0  0  0  0
   -5.0260   23.0300  -29.3050 C   0  0  0  0  0  0  0  0  0  0  0  0
   -5.7900   23.7500  -30.4140 C   0  0  0  0  0  0  0  0  0  0  0  0
   -4.9930   24.8070  -30.9100 O   0  0  0  0  0  0  0  0  0  0  0  0
   -5.4850   26.0450  -30.4470 C   0  0  0  0  0  0  0  0  0  0  0  0
   -3.9760   22.2610  -32.6240 C   0  0  0  0  0  0  0  0  0  0  0  0
   -5.0640   21.2960  -33.0850 C   0  0  0  0  0  0  0  0  0  0  0  0
   -8.4953   23.3897  -31.1245 H   0  0  0  0  0  0  0  0  0  0  0  0
   -7.6301   22.7342  -32.5557 H   0  0  0  0  0  0  0  0  0  0  0  0
   -9.4239   22.8278  -32.5557 H   0  0  0  0  0  0  0  0  0  0  0  0
   -7.6728   21.0278  -30.8001 H   0  0  0  0  0  0  0  0  0  0  0  0
   -9.4533   21.1888  -30.6378 H   0  0  0  0  0  0  0  0  0  0  0  0
   -8.9673   18.8059  -30.5865 H   0  0  0  0  0  0  0  0  0  0  0  0
   -9.4965   17.8046  -31.9920 H   0  0  0  0  0  0  0  0  0  0  0  0
   -7.1244   17.4335  -30.7353 H   0  0  0  0  0  0  0  0  0  0  0  0
   -7.3815   17.1494  -32.5209 H   0  0  0  0  0  0  0  0  0  0  0  0
   -6.3300   19.7590  -31.5150 H   0  0  0  0  0  0  0  0  0  0  0  0
   -4.2961   19.9712  -34.5730 H   0  0  0  0  0  0  0  0  0  0  0  0
   -2.9884   18.5279  -32.7369 H   0  0  0  0  0  0  0  0  0  0  0  0
   -2.3275   20.0346  -33.5387 H   0  0  0  0  0  0  0  0  0  0  0  0
   -3.4416   19.7275  -30.7283 H   0  0  0  0  0  0  0  0  0  0  0  0
   -1.7854   20.2490  -31.2652 H   0  0  0  0  0  0  0  0  0  0  0  0
    0.7087   23.8241  -28.8893 H   0  0  0  0  0  0  0  0  0  0  0  0
    0.3680   25.1692  -26.7867 H   0  0  0  0  0  0  0  0  0  0  0  0
   -1.9443   25.5721  -25.9058 H   0  0  0  0  0  0  0  0  0  0  0  0
   -3.9462   24.6490  -27.1356 H   0  0  0  0  0  0  0  0  0  0  0  0
   -5.3024   21.9653  -29.3104 H   0  0  0  0  0  0  0  0  0  0  0  0
   -5.2888   23.4912  -28.3416 H   0  0  0  0  0  0  0  0  0  0  0  0
   -6.0131   23.0434  -31.2270 H   0  0  0  0  0  0  0  0  0  0  0  0
   -6.7336   24.1512  -30.0155 H   0  0  0  0  0  0  0  0  0  0  0  0
   -5.4872   26.0505  -29.3470 H   0  0  0  0  0  0  0  0  0  0  0  0
   -4.8411   26.8568  -30.8164 H   0  0  0  0  0  0  0  0  0  0  0  0
   -6.5104   26.1934  -30.8164 H   0  0  0  0  0  0  0  0  0  0  0  0
   -4.4312   23.2220  -32.3425 H   0  0  0  0  0  0  0  0  0  0  0  0
   -3.2570   22.4258  -33.4400 H   0  0  0  0  0  0  0  0  0  0  0  0
   -5.7820   21.1499  -32.2645 H   0  0  0  0  0  0  0  0  0  0  0  0
   -5.5568   21.7308  -33.9671 H   0  0  0  0  0  0  0  0  0  0  0  0
  1  2  1  0
  2  3  1  0
  3  4  1  0
  4  5  1  0
  5  6  1  0
  6  7  1  0
  7  8  2  0
  7  9  1  0
  9 10  1  0
 10 11  1  0
 11 12  1  0
 12 13  1  0
 13 14  2  0
 14 15  1  0
 15 16  2  0
 16 17  1  0
 17 18  2  0
 18 19  1  0
 19 20  2  0
 20 21  1  0
 21 22  1  0
 22 23  1  0
 23 24  1  0
 24 25  1  0
 12 26  1  0
 26 27  1  0
 27  9  1  0
 21 13  1  0
 20 15  1  0
  1 28  1  0
  1 29  1  0
  1 30  1  0
  2 31  1  0
  2 32  1  0
  4 33  1  0
  4 34  1  0
  5 35  1  0
  5 36  1  0
  6 37  1  0
  9 38  1  0
 10 39  1  0
 10 40  1  0
 11 41  1  0
 11 42  1  0
 16 43  1  0
 17 44  1  0
 18 45  1  0
 19 46  1  0
 22 47  1  0
 22 48  1  0
 23 49  1  0
 23 50  1  0
 25 51  1  0
 25 52  1  0
 25 53  1  0
 26 54  1  0
 26 55  1  0
 27 56  1  0
 27 57  1  0
M  END
>  <UniqueID>  (34) 
34

>  <SMILES>  (34) 
CCSCCNC(=O)C1CCN(c2nc3ccccc3n2CCOC)CC1

>  <Energy>  (34) 
91.91555287691094

>  <Genealogy>  (34) 
CCSCCNC(=O)C1CCN(c2nc3ccccc3n2CCOC)CC1 (3D coordinates assigned)
CCSCCNC(=O)C1CCN(c2nc3ccccc3n2CCOC)CC1 (nonaromatic ring conformer: 91.91555287691094 kcal/mol)

>  <smiles>  (34) 
CCSCCNC(=O)C1CCN(c2nc3ccccc3n2CCOC)CC1

>  <score_type>  (34) 
oracle

>  <origin>  (34) 
adg

>  <m_score__min__energy>  (34) 
-8.0299999999999994

>  <m_primary>  (34) 
energy

$$$$
34:0
     RDKit          3D

 43 45  0  0  0  0  0  0  0  0999 V2000
   -9.1880   21.5450  -30.4950 C   0  0  0  0  0  0  0  0  0  0  0  0
   -9.4190   21.4160  -31.9950 C   0  0  0  0  0  0  0  0  0  0  0  0
   -8.2040   21.0870  -32.6670 O   0  0  0  0  0  0  0  0  0  0  0  0
   -7.5390   19.8490  -32.6070 C   0  0  0  0  0  0  0  0  0  0  0  0
   -8.2230   18.6390  -32.3740 C   0  0  0  0  0  0  0  0  0  0  0  0
   -7.5290   17.4260  -32.3540 C   0  0  0  0  0  0  0  0  0  0  0  0
   -6.1520   17.4030  -32.5680 C   0  0  0  0  0  0  0  0  0  0  0  0
   -5.4600   18.5930  -32.7970 C   0  0  0  0  0  0  0  0  0  0  0  0
   -6.1410   19.8220  -32.8050 C   0  0  0  0  0  0  0  0  0  0  0  0
   -5.3800   21.0950  -33.0910 C   0  0  0  0  0  0  0  0  0  0  0  0
   -6.0630   22.2510  -32.4950 N   0  0  0  0  0  0  0  0  0  0  0  0
   -5.2170   22.8690  -31.5040 C   0  0  0  0  0  0  0  0  0  0  0  0
   -3.9210   22.3800  -31.2710 C   0  0  0  0  0  0  0  0  0  0  0  0
   -3.1120   22.9580  -30.2880 C   0  0  0  0  0  0  0  0  0  0  0  0
   -3.5820   24.0390  -29.5190 C   0  0  0  0  0  0  0  0  0  0  0  0
   -2.7220   24.6570  -28.4800 C   0  0  0  0  0  0  0  0  0  0  0  0
   -3.0490   24.5490  -27.1600 N   0  0  0  0  0  0  0  0  0  0  0  0
   -2.2770   25.1110  -26.1940 C   0  0  0  0  0  0  0  0  0  0  0  0
   -1.1260   25.8110  -26.5460 C   0  0  0  0  0  0  0  0  0  0  0  0
   -0.8010   25.9180  -27.8980 C   0  0  0  0  0  0  0  0  0  0  0  0
   -1.6000   25.3430  -28.8340 N   0  0  0  0  0  0  0  0  0  0  0  0
   -4.8840   24.5190  -29.7490 C   0  0  0  0  0  0  0  0  0  0  0  0
   -5.6950   23.9340  -30.7250 C   0  0  0  0  0  0  0  0  0  0  0  0
  -10.0241   21.0781  -29.9538 H   0  0  0  0  0  0  0  0  0  0  0  0
   -8.2486   21.0409  -30.2240 H   0  0  0  0  0  0  0  0  0  0  0  0
   -9.1244   22.6092  -30.2240 H   0  0  0  0  0  0  0  0  0  0  0  0
  -10.1593   20.6236  -32.1793 H   0  0  0  0  0  0  0  0  0  0  0  0
   -9.7859   22.3789  -32.3799 H   0  0  0  0  0  0  0  0  0  0  0  0
   -9.3102   18.6493  -32.2068 H   0  0  0  0  0  0  0  0  0  0  0  0
   -8.0711   16.4869  -32.1689 H   0  0  0  0  0  0  0  0  0  0  0  0
   -5.6101   16.4458  -32.5564 H   0  0  0  0  0  0  0  0  0  0  0  0
   -4.3743   18.5687  -32.9724 H   0  0  0  0  0  0  0  0  0  0  0  0
   -4.3684   21.0145  -32.6665 H   0  0  0  0  0  0  0  0  0  0  0  0
   -5.3255   21.2383  -34.1803 H   0  0  0  0  0  0  0  0  0  0  0  0
   -6.9630   21.9480  -32.0540 H   0  0  0  0  0  0  0  0  0  0  0  0
   -6.2900   22.9480  -33.2440 H   0  0  0  0  0  0  0  0  0  0  0  0
   -3.5400   21.5368  -31.8658 H   0  0  0  0  0  0  0  0  0  0  0  0
   -2.0996   22.5645  -30.1142 H   0  0  0  0  0  0  0  0  0  0  0  0
   -2.5606   25.0133  -25.1357 H   0  0  0  0  0  0  0  0  0  0  0  0
   -0.4880   26.2689  -25.7758 H   0  0  0  0  0  0  0  0  0  0  0  0
    0.1010   26.4672  -28.2059 H   0  0  0  0  0  0  0  0  0  0  0  0
   -5.2671   25.3622  -29.1554 H   0  0  0  0  0  0  0  0  0  0  0  0
   -6.7160   24.3112  -30.8840 H   0  0  0  0  0  0  0  0  0  0  0  0
  1  2  1  0
  2  3  1  0
  3  4  1  0
  4  5  2  0
  5  6  1  0
  6  7  2  0
  7  8  1  0
  8  9  2  0
  9 10  1  0
 10 11  1  0
 11 12  1  0
 12 13  2  0
 13 14  1  0
 14 15  2  0
 15 16  1  0
 16 17  2  0
 17 18  1  0
 18 19  2  0
 19 20  1  0
 20 21  2  0
 15 22  1  0
 22 23  2  0
  9  4  1  0
 23 12  1  0
 21 16  1  0
  1 24  1  0
  1 25  1  0
  1 26  1  0
  2 27  1  0
  2 28  1  0
  5 29  1  0
  6 30  1  0
  7 31  1  0
  8 32  1  0
 10 33  1  0
 10 34  1  0
 11 35  1  0
 11 36  1  0
 13 37  1  0
 14 38  1  0
 18 39  1  0
 19 40  1  0
 20 41  1  0
 22 42  1  0
 23 43  1  0
M  CHG  1  11   1
M  END
>  <UniqueID>  (35) 
35

>  <SMILES>  (35) 
CCOc1ccccc1C[NH2+]c1ccc(-c2ncccn2)cc1

>  <Energy>  (35) 
46.58213355379183

>  <Genealogy>  (35) 
CCOc1ccccc1C[NH2+]c1ccc(-c2ncccn2)cc1 (protonated)
CCOc1ccccc1C[NH2+]c1ccc(-c2ncccn2)cc1 (3D coordinates assigned)
CCOc1ccccc1C[NH2+]c1ccc(-c2ncccn2)cc1 (optimized conformer: 46.58213355379183 kcal/mol)

>  <smiles>  (35) 
CCOc1ccccc1CNc1ccc(-c2ncccn2)cc1

>  <score_type>  (35) 
oracle

>  <origin>  (35) 
adg

>  <m_score__min__energy>  (35) 
-6.9299999999999997

>  <m_primary>  (35) 
energy

$$$$
35:0
     RDKit          3D

 56 59  0  0  0  0  0  0  0  0999 V2000
   -5.0610   19.3890  -33.2110 C   0  0  0  0  0  0  0  0  0  0  0  0
   -6.4750   19.3990  -33.8110 C   0  0  0  0  0  0  0  0  0  0  0  0
   -7.5140   18.7920  -32.9440 N   0  0  0  0  0  0  0  0  0  0  0  0
   -7.1700   17.4310  -32.5000 C   0  0  0  0  0  0  0  0  0  0  0  0
   -7.9230   19.6620  -31.8200 C   0  0  0  0  0  0  0  0  0  0  0  0
   -8.3530   21.0310  -32.3550 C   0  0  0  0  0  0  0  0  0  0  0  0
   -7.2140   21.8510  -32.6190 O   0  0  0  0  0  0  0  0  0  0  0  0
   -6.3690   22.4170  -31.6500 C   0  0  0  0  0  0  0  0  0  0  0  0
   -6.9180   22.7330  -30.4030 C   0  0  0  0  0  0  0  0  0  0  0  0
   -6.1260   23.2980  -29.3990 C   0  0  0  0  0  0  0  0  0  0  0  0
   -4.7650   23.5660  -29.6260 C   0  0  0  0  0  0  0  0  0  0  0  0
   -3.9380   24.1610  -28.5440 C   0  0  0  0  0  0  0  0  0  0  0  0
   -4.4530   24.3960  -27.2540 C   0  0  0  0  0  0  0  0  0  0  0  0
   -3.6540   24.9380  -26.2970 N   0  0  0  0  0  0  0  0  0  0  0  0
   -2.3600   25.2580  -26.5560 C   0  0  0  0  0  0  0  0  0  0  0  0
   -1.5730   25.8040  -25.5860 N   0  0  0  0  0  0  0  0  0  0  0  0
   -0.2650   26.1320  -25.8230 C   0  0  0  0  0  0  0  0  0  0  0  0
    0.5470   26.7110  -24.7750 N   0  0  0  0  0  0  0  0  0  0  0  0
    1.7800   26.1140  -24.2830 C   0  0  0  0  0  0  0  0  0  0  0  0
    2.3800   27.1290  -23.3210 C   0  0  0  0  0  0  0  0  0  0  0  0
    1.2460   28.0800  -22.9620 C   0  0  0  0  0  0  0  0  0  0  0  0
    0.2290   27.9540  -24.0870 C   0  0  0  0  0  0  0  0  0  0  0  0
    0.2810   25.8980  -27.1020 C   0  0  0  0  0  0  0  0  0  0  0  0
   -0.5100   25.3380  -28.1060 C   0  0  0  0  0  0  0  0  0  0  0  0
   -1.8380   25.0170  -27.8370 C   0  0  0  0  0  0  0  0  0  0  0  0
   -2.6350   24.4750  -28.7930 N   0  0  0  0  0  0  0  0  0  0  0  0
   -4.2100   23.2340  -30.8770 C   0  0  0  0  0  0  0  0  0  0  0  0
   -5.0030   22.6680  -31.8790 C   0  0  0  0  0  0  0  0  0  0  0  0
   -5.1286   19.3895  -32.1131 H   0  0  0  0  0  0  0  0  0  0  0  0
   -4.5273   18.4871  -33.5451 H   0  0  0  0  0  0  0  0  0  0  0  0
   -4.5146   20.2833  -33.5451 H   0  0  0  0  0  0  0  0  0  0  0  0
   -6.7580   20.4438  -34.0068 H   0  0  0  0  0  0  0  0  0  0  0  0
   -6.4323   18.7873  -34.7242 H   0  0  0  0  0  0  0  0  0  0  0  0
   -7.1610   17.3953  -31.4006 H   0  0  0  0  0  0  0  0  0  0  0  0
   -7.9168   16.7204  -32.8838 H   0  0  0  0  0  0  0  0  0  0  0  0
   -6.1753   17.1605  -32.8838 H   0  0  0  0  0  0  0  0  0  0  0  0
   -8.7651   19.1974  -31.2860 H   0  0  0  0  0  0  0  0  0  0  0  0
   -7.0743   19.7906  -31.1321 H   0  0  0  0  0  0  0  0  0  0  0  0
   -8.9215   20.8922  -33.2864 H   0  0  0  0  0  0  0  0  0  0  0  0
   -8.9771   21.5266  -31.5967 H   0  0  0  0  0  0  0  0  0  0  0  0
   -7.9828   22.5351  -30.2105 H   0  0  0  0  0  0  0  0  0  0  0  0
   -6.5723   23.5351  -28.4219 H   0  0  0  0  0  0  0  0  0  0  0  0
   -5.4978   24.1419  -27.0220 H   0  0  0  0  0  0  0  0  0  0  0  0
   -1.9980   25.9740  -24.6480 H   0  0  0  0  0  0  0  0  0  0  0  0
    1.5660   25.1706  -23.7594 H   0  0  0  0  0  0  0  0  0  0  0  0
    2.4715   25.8795  -25.1057 H   0  0  0  0  0  0  0  0  0  0  0  0
    2.7577   26.6253  -22.4190 H   0  0  0  0  0  0  0  0  0  0  0  0
    3.2289   27.6630  -23.7730 H   0  0  0  0  0  0  0  0  0  0  0  0
    0.7932   27.7914  -22.0019 H   0  0  0  0  0  0  0  0  0  0  0  0
    1.6037   29.1145  -22.8529 H   0  0  0  0  0  0  0  0  0  0  0  0
   -0.7913   27.9146  -23.6778 H   0  0  0  0  0  0  0  0  0  0  0  0
    0.2726   28.8158  -24.7692 H   0  0  0  0  0  0  0  0  0  0  0  0
    1.3301   26.1568  -27.3081 H   0  0  0  0  0  0  0  0  0  0  0  0
   -0.0869   25.1512  -29.1041 H   0  0  0  0  0  0  0  0  0  0  0  0
   -3.1430   23.4218  -31.0672 H   0  0  0  0  0  0  0  0  0  0  0  0
   -4.5569   22.4171  -32.8527 H   0  0  0  0  0  0  0  0  0  0  0  0
  1  2  1  0
  2  3  1  0
  3  4  1  0
  3  5  1  0
  5  6  1  0
  6  7  1  0
  7  8  1  0
  8  9  2  0
  9 10  1  0
 10 11  2  0
 11 12  1  0
 12 13  2  0
 13 14  1  0
 14 15  2  0
 15 16  1  0
 16 17  2  0
 17 18  1  0
 18 19  1  0
 19 20  1  0
 20 21  1  0
 21 22  1  0
 17 23  1  0
 23 24  2  0
 24 25  1  0
 25 26  2  0
 11 27  1  0
 27 28  2  0
 28  8  1  0
 26 12  1  0
 25 15  1  0
 22 18  1  0
  1 29  1  0
  1 30  1  0
  1 31  1  0
  2 32  1  0
  2 33  1  0
  4 34  1  0
  4 35  1  0
  4 36  1  0
  5 37  1  0
  5 38  1  0
  6 39  1  0
  6 40  1  0
  9 41  1  0
 10 42  1  0
 13 43  1  0
 16 44  1  0
 19 45  1  0
 19 46  1  0
 20 47  1  0
 20 48  1  0
 21 49  1  0
 21 50  1  0
 22 51  1  0
 22 52  1  0
 23 53  1  0
 24 54  1  0
 27 55  1  0
 28 56  1  0
M  CHG  1  16   1
M  END
>  <UniqueID>  (36) 
36

>  <SMILES>  (36) 
CCN(C)CCOc1ccc(-c2cnc3[nH+]c(N4CCCC4)ccc3n2)cc1

>  <Energy>  (36) 
69.79602640120618

>  <Genealogy>  (36) 
CCN(C)CCOc1ccc(-c2cnc3[nH+]c(N4CCCC4)ccc3n2)cc1 (protonated)
CCN(C)CCOc1ccc(-c2cnc3[nH+]c(N4CCCC4)ccc3n2)cc1 (3D coordinates assigned)
CCN(C)CCOc1ccc(-c2cnc3[nH+]c(N4CCCC4)ccc3n2)cc1 (nonaromatic ring conformer: 69.79602640120618 kcal/mol)

>  <smiles>  (36) 
CCN(C)CCOc1ccc(-c2cnc3nc(N4CCCC4)ccc3n2)cc1

>  <score_type>  (36) 
oracle

>  <origin>  (36) 
adg

>  <m_score__min__energy>  (36) 
-7.7199999999999998

>  <m_primary>  (36) 
energy

$$$$
36:0
     RDKit          3D

 35 37  0  0  0  0  0  0  0  0999 V2000
   -8.9790   19.1070  -32.0320 C   0  0  0  0  0  0  0  0  0  0  0  0
   -9.2470   20.6020  -32.2350 C   0  0  0  0  0  0  0  0  0  0  0  0
   -8.5460   21.4480  -31.2550 N   0  0  0  0  0  0  0  0  0  0  0  0
   -8.4000   22.8460  -31.6880 C   0  0  0  0  0  0  0  0  0  0  0  0
   -7.0900   23.4240  -31.2170 C   0  0  0  0  0  0  0  0  0  0  0  0
   -7.0840   24.6040  -30.4390 C   0  0  0  0  0  0  0  0  0  0  0  0
   -5.8720   25.2220  -30.0790 C   0  0  0  0  0  0  0  0  0  0  0  0
   -4.6460   24.6790  -30.4930 C   0  0  0  0  0  0  0  0  0  0  0  0
   -3.4470   25.2990  -30.1680 O   0  0  0  0  0  0  0  0  0  0  0  0
   -4.6620   23.5030  -31.2390 C   0  0  0  0  0  0  0  0  0  0  0  0
   -5.8470   22.8640  -31.5600 C   0  0  0  0  0  0  0  0  0  0  0  0
   -5.4820   21.8000  -32.5390 C   0  0  2  0  0  0  0  0  0  0  0  0
   -6.1600   20.5220  -32.4830 N   0  0  0  0  0  0  0  0  0  0  0  0
   -5.5210   19.4330  -33.1760 C   0  0  0  0  0  0  0  0  0  0  0  0
   -6.1530   18.3590  -33.3480 O   0  0  0  0  0  0  0  0  0  0  0  0
   -4.0670   19.5340  -33.6600 C   0  0  0  0  0  0  0  0  0  0  0  0
   -3.3470   20.8900  -33.3660 C   0  0  0  0  0  0  0  0  0  0  0  0
   -4.0220   21.5620  -32.1790 C   0  0  1  0  0  0  0  0  0  0  0  0
   -3.5560   22.8360  -31.7550 O   0  0  0  0  0  0  0  0  0  0  0  0
   -8.9391   18.8845  -30.9555 H   0  0  0  0  0  0  0  0  0  0  0  0
   -9.7868   18.5232  -32.4974 H   0  0  0  0  0  0  0  0  0  0  0  0
   -8.0187   18.8401  -32.4974 H   0  0  0  0  0  0  0  0  0  0  0  0
   -8.9137   20.8844  -33.2445 H   0  0  0  0  0  0  0  0  0  0  0  0
  -10.3264   20.7652  -32.0997 H   0  0  0  0  0  0  0  0  0  0  0  0
   -7.5930   21.0510  -31.0760 H   0  0  0  0  0  0  0  0  0  0  0  0
   -8.4373   22.8880  -32.7866 H   0  0  0  0  0  0  0  0  0  0  0  0
   -9.2199   23.4353  -31.2515 H   0  0  0  0  0  0  0  0  0  0  0  0
   -8.0373   25.0442  -30.1112 H   0  0  0  0  0  0  0  0  0  0  0  0
   -5.8857   26.1371  -29.4688 H   0  0  0  0  0  0  0  0  0  0  0  0
   -5.7480   22.1521  -33.5466 H   0  0  0  0  0  0  0  0  0  0  0  0
   -3.4920   18.7333  -33.1719 H   0  0  0  0  0  0  0  0  0  0  0  0
   -4.1093   19.4486  -34.7559 H   0  0  0  0  0  0  0  0  0  0  0  0
   -2.2889   20.7024  -33.1310 H   0  0  0  0  0  0  0  0  0  0  0  0
   -3.4103   21.5435  -34.2486 H   0  0  0  0  0  0  0  0  0  0  0  0
   -3.8074   20.8628  -31.3574 H   0  0  0  0  0  0  0  0  0  0  0  0
  1  2  1  0
  2  3  1  0
  3  4  1  0
  4  5  1  0
  5  6  2  0
  6  7  1  0
  7  8  2  0
  8  9  1  0
  8 10  1  0
 10 11  2  0
 11 12  1  0
 12 13  1  0
 13 14  1  0
 14 15  2  0
 14 16  1  0
 16 17  1  0
 17 18  1  0
 18 19  1  0
 11  5  1  0
 18 12  1  0
 19 10  1  0
  1 20  1  0
  1 21  1  0
  1 22  1  0
  2 23  1  0
  2 24  1  0
  3 25  1  0
  4 26  1  0
  4 27  1  0
  6 28  1  0
  7 29  1  0
 12 30  1  6
 16 31  1  0
 16 32  1  0
 17 33  1  0
 17 34  1  0
 18 35  1  1
M  CHG  2   9  -1  13  -1
M  END
>  <UniqueID>  (37) 
37

>  <SMILES>  (37) 
CCNCc1ccc([O-])c2c1[C@@H]1[N-]C(=O)CC[C@H]1O2

>  <Energy>  (37) 
70.6534831366978

>  <Genealogy>  (37) 
CCNCc1ccc([O-])c2c1C1[N-]C(=O)CCC1O2 (protonated)
CCNCc1ccc([O-])c2c1[C@@H]1[N-]C(=O)CC[C@H]1O2 (chirality)
CCNCc1ccc([O-])c2c1[C@@H]1[N-]C(=O)CC[C@H]1O2 (3D coordinates assigned)
CCNCc1ccc([O-])c2c1[C@@H]1[N-]C(=O)CC[C@H]1O2 (nonaromatic ring conformer: 70.6534831366978 kcal/mol)

>  <smiles>  (37) 
CCNCc1ccc(O)c2c1C1NC(=O)CCC1O2

>  <score_type>  (37) 
oracle

>  <origin>  (37) 
adg

>  <m_score__min__energy>  (37) 
-10.460000000000001

>  <m_primary>  (37) 
energy

$$$$
37:0
     RDKit          3D

 38 41  0  0  0  0  0  0  0  0999 V2000
   -6.0860   16.9020  -31.2580 C   0  0  0  0  0  0  0  0  0  0  0  0
   -5.4410   17.0370  -32.6100 C   0  0  0  0  0  0  0  0  0  0  0  0
   -4.8920   15.8960  -33.2220 C   0  0  0  0  0  0  0  0  0  0  0  0
   -4.3070   15.9820  -34.4870 C   0  0  0  0  0  0  0  0  0  0  0  0
   -4.2560   17.2070  -35.1530 C   0  0  0  0  0  0  0  0  0  0  0  0
   -4.7810   18.3520  -34.5520 C   0  0  0  0  0  0  0  0  0  0  0  0
   -5.3630   18.2850  -33.2750 C   0  0  0  0  0  0  0  0  0  0  0  0
   -5.8650   19.4880  -32.6690 N   0  0  0  0  0  0  0  0  0  0  0  0
   -5.1370   20.5540  -32.2590 C   0  0  0  0  0  0  0  0  0  0  0  0
   -5.9760   21.5560  -31.7710 C   0  0  0  0  0  0  0  0  0  0  0  0
   -5.5370   22.8500  -31.2130 C   0  0  0  0  0  0  0  0  0  0  0  0
   -4.5480   22.8860  -30.2150 C   0  0  0  0  0  0  0  0  0  0  0  0
   -4.1440   24.1060  -29.6650 C   0  0  0  0  0  0  0  0  0  0  0  0
   -4.7330   25.2970  -30.0960 C   0  0  0  0  0  0  0  0  0  0  0  0
   -5.7310   25.2690  -31.0730 C   0  0  0  0  0  0  0  0  0  0  0  0
   -6.1380   24.0510  -31.6260 C   0  0  0  0  0  0  0  0  0  0  0  0
   -7.2680   21.0700  -31.9250 C   0  0  0  0  0  0  0  0  0  0  0  0
   -8.5380   21.6070  -31.7100 C   0  0  0  0  0  0  0  0  0  0  0  0
   -8.6910   22.7800  -31.2750 O   0  0  0  0  0  0  0  0  0  0  0  0
   -9.6250   20.8340  -32.0070 N   0  0  0  0  0  0  0  0  0  0  0  0
   -9.4780   19.5740  -32.5270 C   0  0  0  0  0  0  0  0  0  0  0  0
   -8.2360   19.0630  -32.7690 N   0  0  0  0  0  0  0  0  0  0  0  0
   -7.1530   19.8230  -32.4700 C   0  0  0  0  0  0  0  0  0  0  0  0
   -5.3308   17.0601  -30.4740 H   0  0  0  0  0  0  0  0  0  0  0  0
   -6.8835   17.6527  -31.1556 H   0  0  0  0  0  0  0  0  0  0  0  0
   -6.5155   15.8945  -31.1556 H   0  0  0  0  0  0  0  0  0  0  0  0
   -4.9237   14.9282  -32.7001 H   0  0  0  0  0  0  0  0  0  0  0  0
   -3.8856   15.0824  -34.9593 H   0  0  0  0  0  0  0  0  0  0  0  0
   -3.8016   17.2704  -36.1527 H   0  0  0  0  0  0  0  0  0  0  0  0
   -4.7388   19.3147  -35.0824 H   0  0  0  0  0  0  0  0  0  0  0  0
   -4.0399   20.6203  -32.3044 H   0  0  0  0  0  0  0  0  0  0  0  0
   -4.0895   21.9494  -29.8649 H   0  0  0  0  0  0  0  0  0  0  0  0
   -3.3616   24.1281  -28.8921 H   0  0  0  0  0  0  0  0  0  0  0  0
   -4.4110   26.2569  -29.6661 H   0  0  0  0  0  0  0  0  0  0  0  0
   -6.1976   26.2071  -31.4080 H   0  0  0  0  0  0  0  0  0  0  0  0
   -6.9318   24.0330  -32.3873 H   0  0  0  0  0  0  0  0  0  0  0  0
  -10.5870   21.2090  -31.8490 H   0  0  0  0  0  0  0  0  0  0  0  0
  -10.3692   18.9695  -32.7512 H   0  0  0  0  0  0  0  0  0  0  0  0
  1  2  1  0
  2  3  2  0
  3  4  1  0
  4  5  2  0
  5  6  1  0
  6  7  2  0
  7  8  1  0
  8  9  1  0
  9 10  2  0
 10 11  1  0
 11 12  2  0
 12 13  1  0
 13 14  2  0
 14 15  1  0
 15 16  2  0
 10 17  1  0
 17 18  1  0
 18 19  2  0
 18 20  1  0
 20 21  1  0
 21 22  2  0
 22 23  1  0
  7  2  1  0
 23  8  1  0
 16 11  1  0
 23 17  2  0
  1 24  1  0
  1 25  1  0
  1 26  1  0
  3 27  1  0
  4 28  1  0
  5 29  1  0
  6 30  1  0
  9 31  1  0
 12 32  1  0
 13 33  1  0
 14 34  1  0
 15 35  1  0
 16 36  1  0
 20 37  1  0
 21 38  1  0
M  END
>  <UniqueID>  (38) 
38

>  <SMILES>  (38) 
Cc1ccccc1-n1cc(-c2ccccc2)c2c(=O)[nH]cnc21

>  <Energy>  (38) 
91.41149573630857

>  <Genealogy>  (38) 
Cc1ccccc1-n1cc(-c2ccccc2)c2c(=O)[nH]cnc21 (3D coordinates assigned)
Cc1ccccc1-n1cc(-c2ccccc2)c2c(=O)[nH]cnc21 (optimized conformer: 91.41149573630857 kcal/mol)

>  <smiles>  (38) 
Cc1ccccc1-n1cc(-c2ccccc2)c2c(=O)[nH]cnc21

>  <score_type>  (38) 
oracle

>  <origin>  (38) 
adg

>  <m_score__min__energy>  (38) 
-7.8899999999999997

>  <m_primary>  (38) 
energy

$$$$
38:0
     RDKit          3D

 38 40  0  0  0  0  0  0  0  0999 V2000
   -3.8720   25.6600  -30.8510 F   0  0  0  0  0  0  0  0  0  0  0  0
   -3.8700   24.6370  -29.9600 C   0  0  0  0  0  0  0  0  0  0  0  0
   -2.6900   24.3410  -29.2700 C   0  0  0  0  0  0  0  0  0  0  0  0
   -2.6550   23.2840  -28.3580 C   0  0  0  0  0  0  0  0  0  0  0  0
   -3.7980   22.5120  -28.1400 C   0  0  0  0  0  0  0  0  0  0  0  0
   -4.9810   22.8020  -28.8250 C   0  0  0  0  0  0  0  0  0  0  0  0
   -5.0380   23.8800  -29.7270 C   0  0  0  0  0  0  0  0  0  0  0  0
   -6.3260   24.1970  -30.4630 C   0  0  0  0  0  0  0  0  0  0  0  0
   -6.6890   23.1960  -31.4930 N   0  0  0  0  0  0  0  0  0  0  0  0
   -7.6240   22.1550  -31.0120 C   0  0  0  0  0  0  0  0  0  0  0  0
   -7.7300   20.9910  -32.0000 C   0  0  0  0  0  0  0  0  0  0  0  0
   -6.4030   20.4000  -32.2170 N   0  0  0  0  0  0  0  0  0  0  0  0
   -6.2910   19.0160  -32.6120 C   0  0  0  0  0  0  0  0  0  0  0  0
   -5.8850   18.0870  -31.7020 N   0  0  0  0  0  0  0  0  0  0  0  0
   -5.7670   16.7760  -32.0370 C   0  0  0  0  0  0  0  0  0  0  0  0
   -6.0620   16.3620  -33.3320 C   0  0  0  0  0  0  0  0  0  0  0  0
   -6.4690   17.3190  -34.2590 C   0  0  0  0  0  0  0  0  0  0  0  0
   -6.5750   18.6240  -33.8900 N   0  0  0  0  0  0  0  0  0  0  0  0
   -5.2080   21.2400  -32.0550 C   0  0  0  0  0  0  0  0  0  0  0  0
   -5.5520   22.7130  -32.3130 C   0  0  0  0  0  0  0  0  0  0  0  0
   -1.7863   24.9429  -29.4463 H   0  0  0  0  0  0  0  0  0  0  0  0
   -1.7272   23.0596  -27.8114 H   0  0  0  0  0  0  0  0  0  0  0  0
   -3.7671   21.6742  -27.4279 H   0  0  0  0  0  0  0  0  0  0  0  0
   -5.8745   22.1826  -28.6576 H   0  0  0  0  0  0  0  0  0  0  0  0
   -7.1420   24.2488  -29.7272 H   0  0  0  0  0  0  0  0  0  0  0  0
   -6.1689   25.1518  -30.9861 H   0  0  0  0  0  0  0  0  0  0  0  0
   -7.2643   21.7713  -30.0459 H   0  0  0  0  0  0  0  0  0  0  0  0
   -8.6203   22.6095  -30.9085 H   0  0  0  0  0  0  0  0  0  0  0  0
   -8.4079   20.2266  -31.5924 H   0  0  0  0  0  0  0  0  0  0  0  0
   -8.1232   21.3624  -32.9579 H   0  0  0  0  0  0  0  0  0  0  0  0
   -5.4387   16.0428  -31.2856 H   0  0  0  0  0  0  0  0  0  0  0  0
   -5.9759   15.3032  -33.6175 H   0  0  0  0  0  0  0  0  0  0  0  0
   -6.7049   17.0190  -35.2907 H   0  0  0  0  0  0  0  0  0  0  0  0
   -6.8590   19.3200  -34.6140 H   0  0  0  0  0  0  0  0  0  0  0  0
   -4.8246   21.1313  -31.0297 H   0  0  0  0  0  0  0  0  0  0  0  0
   -4.4448   20.9191  -32.7793 H   0  0  0  0  0  0  0  0  0  0  0  0
   -4.6679   23.3250  -32.0810 H   0  0  0  0  0  0  0  0  0  0  0  0
   -5.8477   22.8011  -33.3688 H   0  0  0  0  0  0  0  0  0  0  0  0
  1  2  1  0
  2  3  2  0
  3  4  1  0
  4  5  2  0
  5  6  1  0
  6  7  2  0
  7  8  1  0
  8  9  1  0
  9 10  1  0
 10 11  1  0
 11 12  1  0
 12 13  1  0
 13 14  2  0
 14 15  1  0
 15 16  2  0
 16 17  1  0
 17 18  2  0
 12 19  1  0
 19 20  1  0
  7  2  1  0
 20  9  1  0
 18 13  1  0
  3 21  1  0
  4 22  1  0
  5 23  1  0
  6 24  1  0
  8 25  1  0
  8 26  1  0
 10 27  1  0
 10 28  1  0
 11 29  1  0
 11 30  1  0
 15 31  1  0
 16 32  1  0
 17 33  1  0
 18 34  1  0
 19 35  1  0
 19 36  1  0
 20 37  1  0
 20 38  1  0
M  CHG  1  18   1
M  END
>  <UniqueID>  (39) 
39

>  <SMILES>  (39) 
Fc1ccccc1CN1CCN(c2nccc[nH+]2)CC1

>  <Energy>  (39) 
51.760484107447596

>  <Genealogy>  (39) 
Fc1ccccc1CN1CCN(c2nccc[nH+]2)CC1 (protonated)
Fc1ccccc1CN1CCN(c2nccc[nH+]2)CC1 (3D coordinates assigned)
Fc1ccccc1CN1CCN(c2nccc[nH+]2)CC1 (nonaromatic ring conformer: 51.760484107447596 kcal/mol)

>  <smiles>  (39) 
Fc1ccccc1CN1CCN(c2ncccn2)CC1

>  <score_type>  (39) 
oracle

>  <origin>  (39) 
adg

>  <m_score__min__energy>  (39) 
-6.4800000000000004

>  <m_primary>  (39) 
energy

$$$$
39:0
     RDKit          3D

 48 50  0  0  0  0  0  0  0  0999 V2000
   -4.1250   24.3830  -27.4880 C   0  0  0  0  0  0  0  0  0  0  0  0
   -4.0400   23.8640  -28.8640 N   0  0  0  0  0  0  0  0  0  0  0  0
   -2.9690   23.0840  -29.2340 C   0  0  0  0  0  0  0  0  0  0  0  0
   -2.0470   22.8090  -28.4180 O   0  0  0  0  0  0  0  0  0  0  0  0
   -2.9280   22.5970  -30.5360 C   0  0  0  0  0  0  0  0  0  0  0  0
   -3.9380   22.8610  -31.3960 C   0  0  0  0  0  0  0  0  0  0  0  0
   -3.7250   22.2630  -32.5840 N   0  0  0  0  0  0  0  0  0  0  0  0
   -2.5390   21.6300  -32.3910 C   0  0  0  0  0  0  0  0  0  0  0  0
   -1.7810   20.6130  -33.6640 S   0  0  0  0  0  0  0  0  0  0  0  0
   -2.6520   19.0840  -33.1730 C   0  0  0  0  0  0  0  0  0  0  0  0
   -3.8150   18.7840  -34.1200 C   0  0  0  0  0  0  0  0  0  0  0  0
   -5.0840   18.7820  -33.3760 N   0  0  0  0  0  0  0  0  0  0  0  0
   -5.4620   19.9610  -32.5790 C   0  0  0  0  0  0  0  0  0  0  0  0
   -6.9490   20.2940  -32.7480 C   0  0  0  0  0  0  0  0  0  0  0  0
   -7.8590   19.4810  -31.8080 C   0  0  0  0  0  0  0  0  0  0  0  0
   -8.1260   18.0320  -32.2510 C   0  0  0  0  0  0  0  0  0  0  0  0
   -6.8530   17.1890  -32.3700 C   0  0  0  0  0  0  0  0  0  0  0  0
   -5.9650   17.6430  -33.5000 C   0  0  0  0  0  0  0  0  0  0  0  0
   -5.9430   16.9550  -34.5560 O   0  0  0  0  0  0  0  0  0  0  0  0
   -2.0180   21.8220  -31.1500 N   0  0  0  0  0  0  0  0  0  0  0  0
   -0.8000   21.2430  -30.5830 C   0  0  0  0  0  0  0  0  0  0  0  0
   -5.0280   23.5920  -31.0370 N   0  0  0  0  0  0  0  0  0  0  0  0
   -6.1100   23.8660  -31.9930 C   0  0  0  0  0  0  0  0  0  0  0  0
   -5.0720   24.1020  -29.7570 C   0  0  0  0  0  0  0  0  0  0  0  0
   -6.0710   24.7860  -29.3950 O   0  0  0  0  0  0  0  0  0  0  0  0
   -3.9896   23.5562  -26.7752 H   0  0  0  0  0  0  0  0  0  0  0  0
   -3.3381   25.1354  -27.3306 H   0  0  0  0  0  0  0  0  0  0  0  0
   -5.1108   24.8450  -27.3306 H   0  0  0  0  0  0  0  0  0  0  0  0
   -1.9431   18.2432  -33.1971 H   0  0  0  0  0  0  0  0  0  0  0  0
   -3.0543   19.2217  -32.1585 H   0  0  0  0  0  0  0  0  0  0  0  0
   -3.8540   19.5545  -34.9041 H   0  0  0  0  0  0  0  0  0  0  0  0
   -3.6628   17.7944  -34.5756 H   0  0  0  0  0  0  0  0  0  0  0  0
   -5.2591   19.7560  -31.5175 H   0  0  0  0  0  0  0  0  0  0  0  0
   -4.8717   20.8206  -32.9291 H   0  0  0  0  0  0  0  0  0  0  0  0
   -7.0946   21.3639  -32.5379 H   0  0  0  0  0  0  0  0  0  0  0  0
   -7.2284   20.0362  -33.7802 H   0  0  0  0  0  0  0  0  0  0  0  0
   -7.3852   19.4522  -30.8157 H   0  0  0  0  0  0  0  0  0  0  0  0
   -8.8353   19.9878  -31.8125 H   0  0  0  0  0  0  0  0  0  0  0  0
   -8.7903   17.5584  -31.5132 H   0  0  0  0  0  0  0  0  0  0  0  0
   -8.5812   18.0765  -33.2514 H   0  0  0  0  0  0  0  0  0  0  0  0
   -6.2908   17.2636  -31.4275 H   0  0  0  0  0  0  0  0  0  0  0  0
   -7.1563   16.1524  -32.5784 H   0  0  0  0  0  0  0  0  0  0  0  0
   -0.8577   21.2705  -29.4849 H   0  0  0  0  0  0  0  0  0  0  0  0
   -0.6988   20.2004  -30.9189 H   0  0  0  0  0  0  0  0  0  0  0  0
    0.0724   21.8228  -30.9189 H   0  0  0  0  0  0  0  0  0  0  0  0
   -7.0340   24.1000  -31.4439 H   0  0  0  0  0  0  0  0  0  0  0  0
   -5.8325   24.7222  -32.6254 H   0  0  0  0  0  0  0  0  0  0  0  0
   -6.2734   22.9809  -32.6254 H   0  0  0  0  0  0  0  0  0  0  0  0
  1  2  1  0
  2  3  1  0
  3  4  2  0
  3  5  1  0
  5  6  2  0
  6  7  1  0
  7  8  2  0
  8  9  1  0
  9 10  1  0
 10 11  1  0
 11 12  1  0
 12 13  1  0
 13 14  1  0
 14 15  1  0
 15 16  1  0
 16 17  1  0
 17 18  1  0
 18 19  2  0
  8 20  1  0
 20 21  1  0
  6 22  1  0
 22 23  1  0
 22 24  1  0
 24 25  2  0
 24  2  1  0
 20  5  1  0
 18 12  1  0
  1 26  1  0
  1 27  1  0
  1 28  1  0
 10 29  1  0
 10 30  1  0
 11 31  1  0
 11 32  1  0
 13 33  1  0
 13 34  1  0
 14 35  1  0
 14 36  1  0
 15 37  1  0
 15 38  1  0
 16 39  1  0
 16 40  1  0
 17 41  1  0
 17 42  1  0
 21 43  1  0
 21 44  1  0
 21 45  1  0
 23 46  1  0
 23 47  1  0
 23 48  1  0
M  END
>  <UniqueID>  (40) 
40

>  <SMILES>  (40) 
Cn1c(=O)c2c(nc(SCCN3CCCCCC3=O)n2C)n(C)c1=O

>  <Energy>  (40) 
90.15102458580242

>  <Genealogy>  (40) 
Cn1c(=O)c2c(nc(SCCN3CCCCCC3=O)n2C)n(C)c1=O (3D coordinates assigned)
Cn1c(=O)c2c(nc(SCCN3CCCCCC3=O)n2C)n(C)c1=O (nonaromatic ring conformer: 90.15102458580242 kcal/mol)

>  <smiles>  (40) 
Cn1c(=O)c2c(nc(SCCN3CCCCCC3=O)n2C)n(C)c1=O

>  <score_type>  (40) 
oracle

>  <origin>  (40) 
adg

>  <m_score__min__energy>  (40) 
-5.6699999999999999

>  <m_primary>  (40) 
energy

$$$$
40:0
     RDKit          3D

 48 51  0  0  0  0  0  0  0  0999 V2000
   -2.2227   19.5476  -31.6408 H   0  0  0  0  0  0  0  0  0  0  0  0
   -2.7830   20.4440  -31.9450 C   0  0  0  0  0  0  0  0  0  0  0  0
   -3.6000   20.3480  -33.0030 C   0  0  0  0  0  0  0  0  0  0  0  0
   -3.1671   20.3727  -34.0139 H   0  0  0  0  0  0  0  0  0  0  0  0
   -5.0640   20.2100  -32.8550 C   0  0  0  0  0  0  0  0  0  0  0  0
   -5.7590   21.3240  -32.5080 N   0  0  0  0  0  0  0  0  0  0  0  0
   -7.1000   21.3010  -32.3230 C   0  0  0  0  0  0  0  0  0  0  0  0
   -7.7750   22.4700  -31.9540 C   0  0  0  0  0  0  0  0  0  0  0  0
   -7.2166   23.4080  -31.8189 H   0  0  0  0  0  0  0  0  0  0  0  0
   -9.1590   22.4460  -31.7570 C   0  0  0  0  0  0  0  0  0  0  0  0
   -9.6888   23.3654  -31.4671 H   0  0  0  0  0  0  0  0  0  0  0  0
   -9.8700   21.2550  -31.9280 C   0  0  0  0  0  0  0  0  0  0  0  0
  -10.9587   21.2391  -31.7717 H   0  0  0  0  0  0  0  0  0  0  0  0
   -9.2020   20.0840  -32.2970 C   0  0  0  0  0  0  0  0  0  0  0  0
   -9.7659   19.1489  -32.4298 H   0  0  0  0  0  0  0  0  0  0  0  0
   -7.8090   20.0990  -32.4990 C   0  0  0  0  0  0  0  0  0  0  0  0
   -7.0910   18.9550  -32.8850 C   0  0  0  0  0  0  0  0  0  0  0  0
   -7.7060   17.8690  -33.0820 O   0  0  0  0  0  0  0  0  0  0  0  0
   -5.7320   19.0210  -33.0690 N   0  0  0  0  0  0  0  0  0  0  0  0
   -5.0330   17.8550  -33.5570 C   0  0  0  0  0  0  0  0  0  0  0  0
   -4.8710   16.7290  -32.7350 C   0  0  0  0  0  0  0  0  0  0  0  0
   -5.2511   16.7458  -31.7029 H   0  0  0  0  0  0  0  0  0  0  0  0
   -4.2290   15.5860  -33.2210 C   0  0  0  0  0  0  0  0  0  0  0  0
   -4.1208   14.7018  -32.5756 H   0  0  0  0  0  0  0  0  0  0  0  0
   -3.7220   15.5630  -34.5300 C   0  0  0  0  0  0  0  0  0  0  0  0
   -3.0780   14.3200  -35.0670 C   0  0  0  0  0  0  0  0  0  0  0  0
   -2.7496   13.6862  -34.2300 H   0  0  0  0  0  0  0  0  0  0  0  0
   -3.8034   13.7678  -35.6825 H   0  0  0  0  0  0  0  0  0  0  0  0
   -2.2085   14.5941  -35.6825 H   0  0  0  0  0  0  0  0  0  0  0  0
   -3.8870   16.6870  -35.3530 C   0  0  0  0  0  0  0  0  0  0  0  0
   -3.5092   16.6693  -36.3859 H   0  0  0  0  0  0  0  0  0  0  0  0
   -4.5290   17.8290  -34.8670 C   0  0  0  0  0  0  0  0  0  0  0  0
   -4.6400   18.7117  -35.5139 H   0  0  0  0  0  0  0  0  0  0  0  0
   -2.5900   21.6860  -31.1610 C   0  0  0  0  0  0  0  0  0  0  0  0
   -3.6140   22.6450  -31.1630 C   0  0  0  0  0  0  0  0  0  0  0  0
   -4.5322   22.4607  -31.7401 H   0  0  0  0  0  0  0  0  0  0  0  0
   -3.4780   23.8330  -30.4380 C   0  0  0  0  0  0  0  0  0  0  0  0
   -4.2926   24.5722  -30.4444 H   0  0  0  0  0  0  0  0  0  0  0  0
   -2.3150   24.0890  -29.7050 C   0  0  0  0  0  0  0  0  0  0  0  0
   -2.2290   25.2950  -28.9930 O   0  0  0  0  0  0  0  0  0  0  0  0
   -1.6590   25.4210  -27.6940 C   0  0  0  0  0  0  0  0  0  0  0  0
   -2.4359   25.2493  -26.9344 H   0  0  0  0  0  0  0  0  0  0  0  0
   -0.8566   24.6786  -27.5721 H   0  0  0  0  0  0  0  0  0  0  0  0
   -1.2443   26.4325  -27.5721 H   0  0  0  0  0  0  0  0  0  0  0  0
   -1.2770   23.1380  -29.7100 C   0  0  0  0  0  0  0  0  0  0  0  0
   -0.3552   23.3310  -29.1417 H   0  0  0  0  0  0  0  0  0  0  0  0
   -1.4120   21.9490  -30.4340 C   0  0  0  0  0  0  0  0  0  0  0  0
   -0.5932   21.2144  -30.4359 H   0  0  0  0  0  0  0  0  0  0  0  0
  1  2  1  0
  2  3  2  0
  3  4  1  0
  3  5  1  0
  5  6  2  0
  6  7  1  0
  7  8  2  0
  8  9  1  0
  8 10  1  0
 10 11  1  0
 10 12  2  0
 12 13  1  0
 12 14  1  0
 14 15  1  0
 14 16  2  0
 16 17  1  0
 17 18  2  0
 17 19  1  0
 19 20  1  0
 20 21  2  0
 21 22  1  0
 21 23  1  0
 23 24  1  0
 23 25  2  0
 25 26  1  0
 26 27  1  0
 26 28  1  0
 26 29  1  0
 25 30  1  0
 30 31  1  0
 30 32  2  0
 32 33  1  0
  2 34  1  0
 34 35  2  0
 35 36  1  0
 35 37  1  0
 37 38  1  0
 37 39  2  0
 39 40  1  0
 40 41  1  0
 41 42  1  0
 41 43  1  0
 41 44  1  0
 39 45  1  0
 45 46  1  0
 45 47  2  0
 47 48  1  0
 19  5  1  0
 32 20  1  0
 47 34  1  0
 16  7  1  0
M  END
>  <UniqueID>  (41) 
41

>  <SMILES>  (41) 
COc1ccc(/C=C/c2nc3ccccc3c(=O)n2-c2ccc(C)cc2)cc1

>  <Energy>  (41) 
72.1408264833979

>  <Genealogy>  (41) 
COc1ccc(/C=C/c2nc3ccccc3c(=O)n2-c2ccc(C)cc2)cc1 (cis-trans isomerization)
COc1ccc(/C=C/c2nc3ccccc3c(=O)n2-c2ccc(C)cc2)cc1 (3D coordinates assigned)
COc1ccc(/C=C/c2nc3ccccc3c(=O)n2-c2ccc(C)cc2)cc1 (optimized conformer: 72.1408264833979 kcal/mol)

>  <smiles>  (41) 
COc1ccc(C=Cc2nc3ccccc3c(=O)n2-c2ccc(C)cc2)cc1

>  <score_type>  (41) 
oracle

>  <origin>  (41) 
adg

>  <m_score__min__energy>  (41) 
-9.0399999999999991

>  <m_primary>  (41) 
energy

$$$$
41:0
     RDKit          3D

 39 40  0  0  0  0  0  0  0  0999 V2000
   -8.6737   17.3268  -31.6965 H   0  0  0  0  0  0  0  0  0  0  0  0
   -7.9210   17.8240  -32.3260 C   0  0  0  0  0  0  0  0  0  0  0  0
   -8.1250   19.1160  -32.6630 C   0  0  0  0  0  0  0  0  0  0  0  0
   -7.0510   20.0320  -33.1580 C   0  0  0  0  0  0  0  0  0  0  0  0
   -6.3870   19.7030  -34.1820 O   0  0  0  0  0  0  0  0  0  0  0  0
   -6.6620   21.2760  -32.4760 C   0  0  0  0  0  0  0  0  0  0  0  0
   -7.6480   22.1620  -32.0140 C   0  0  0  0  0  0  0  0  0  0  0  0
   -8.7118   21.9175  -32.1502 H   0  0  0  0  0  0  0  0  0  0  0  0
   -7.2830   23.3530  -31.3820 C   0  0  0  0  0  0  0  0  0  0  0  0
   -8.0588   24.0247  -30.9859 H   0  0  0  0  0  0  0  0  0  0  0  0
   -5.9310   23.6930  -31.2520 C   0  0  0  0  0  0  0  0  0  0  0  0
   -5.4340   25.3300  -30.4040 Br  0  0  0  0  0  0  0  0  0  0  0  0
   -4.9440   22.8350  -31.7510 C   0  0  0  0  0  0  0  0  0  0  0  0
   -3.8823   23.1092  -31.6642 H   0  0  0  0  0  0  0  0  0  0  0  0
   -5.3070   21.6290  -32.3600 C   0  0  0  0  0  0  0  0  0  0  0  0
   -4.5294   20.9552  -32.7491 H   0  0  0  0  0  0  0  0  0  0  0  0
   -9.4950   19.7010  -32.4020 C   0  0  0  0  0  0  0  0  0  0  0  0
   -9.6625   19.7725  -31.3172 H   0  0  0  0  0  0  0  0  0  0  0  0
   -9.5567   20.7040  -32.8495 H   0  0  0  0  0  0  0  0  0  0  0  0
  -10.2622   19.0520  -32.8495 H   0  0  0  0  0  0  0  0  0  0  0  0
   -6.7800   17.0650  -32.7420 N   0  0  0  0  0  0  0  0  0  0  0  0
   -6.7210   16.6080  -34.1350 C   0  0  0  0  0  0  0  0  0  0  0  0
   -7.3068   15.6824  -34.2361 H   0  0  0  0  0  0  0  0  0  0  0  0
   -7.1346   17.3953  -34.7824 H   0  0  0  0  0  0  0  0  0  0  0  0
   -5.2730   16.3350  -34.5570 C   0  0  0  0  0  0  0  0  0  0  0  0
   -4.9034   15.4421  -34.0315 H   0  0  0  0  0  0  0  0  0  0  0  0
   -5.2406   16.1708  -35.6442 H   0  0  0  0  0  0  0  0  0  0  0  0
   -4.4150   17.4930  -34.2170 N   0  0  0  0  0  0  0  0  0  0  0  0
   -4.7730   18.3150  -34.7610 H   0  0  0  0  0  0  0  0  0  0  0  0
   -3.0380   17.2500  -34.6880 C   0  0  0  0  0  0  0  0  0  0  0  0
   -2.3698   17.1321  -33.8222 H   0  0  0  0  0  0  0  0  0  0  0  0
   -3.0149   16.3339  -35.2965 H   0  0  0  0  0  0  0  0  0  0  0  0
   -2.7027   18.1029  -35.2965 H   0  0  0  0  0  0  0  0  0  0  0  0
   -4.4360   17.8530  -32.7650 C   0  0  0  0  0  0  0  0  0  0  0  0
   -3.4637   17.5821  -32.3276 H   0  0  0  0  0  0  0  0  0  0  0  0
   -4.6408   18.9323  -32.7082 H   0  0  0  0  0  0  0  0  0  0  0  0
   -5.5430   17.1470  -31.9590 C   0  0  0  0  0  0  0  0  0  0  0  0
   -5.2103   16.1306  -31.7015 H   0  0  0  0  0  0  0  0  0  0  0  0
   -5.7400   17.7263  -31.0449 H   0  0  0  0  0  0  0  0  0  0  0  0
  1  2  1  0
  2  3  2  0
  3  4  1  0
  4  5  2  0
  4  6  1  0
  6  7  2  0
  7  8  1  0
  7  9  1  0
  9 10  1  0
  9 11  2  0
 11 12  1  0
 11 13  1  0
 13 14  1  0
 13 15  2  0
 15 16  1  0
  3 17  1  0
 17 18  1  0
 17 19  1  0
 17 20  1  0
  2 21  1  0
 21 22  1  0
 22 23  1  0
 22 24  1  0
 22 25  1  0
 25 26  1  0
 25 27  1  0
 25 28  1  0
 28 29  1  0
 28 30  1  0
 30 31  1  0
 30 32  1  0
 30 33  1  0
 28 34  1  0
 34 35  1  0
 34 36  1  0
 34 37  1  0
 37 38  1  0
 37 39  1  0
 15  6  1  0
 37 21  1  0
M  CHG  1  28   1
M  END
>  <UniqueID>  (42) 
42

>  <SMILES>  (42) 
C/C(=C/N1CC[NH+](C)CC1)C(=O)c1ccc(Br)cc1

>  <Energy>  (42) 
59.050152292480874

>  <Genealogy>  (42) 
CC(=CN1CC[NH+](C)CC1)C(=O)c1ccc(Br)cc1 (protonated)
C/C(=C/N1CC[NH+](C)CC1)C(=O)c1ccc(Br)cc1 (cis-trans isomerization)
C/C(=C/N1CC[NH+](C)CC1)C(=O)c1ccc(Br)cc1 (3D coordinates assigned)
C/C(=C/N1CC[NH+](C)CC1)C(=O)c1ccc(Br)cc1 (nonaromatic ring conformer: 59.050152292480874 kcal/mol)

>  <smiles>  (42) 
CC(=CN1CCN(C)CC1)C(=O)c1ccc(Br)cc1

>  <score_type>  (42) 
oracle

>  <origin>  (42) 
adg

>  <m_score__min__energy>  (42) 
-7.3099999999999996

>  <m_primary>  (42) 
energy

$$$$
42:0
     RDKit          3D

 50 53  0  0  1  0  0  0  0  0999 V2000
   -8.3940   19.2800  -32.2070 C   0  0  0  0  0  0  0  0  0  0  0  0
   -8.8110   20.5640  -31.7580 O   0  0  0  0  0  0  0  0  0  0  0  0
   -7.8420   21.5460  -31.6030 C   0  0  0  0  0  0  0  0  0  0  0  0
   -6.8520   21.7790  -32.5350 C   0  0  0  0  0  0  0  0  0  0  0  0
   -5.8960   22.7720  -32.3470 C   0  0  0  0  0  0  0  0  0  0  0  0
   -5.9480   23.5440  -31.1900 C   0  0  0  0  0  0  0  0  0  0  0  0
   -4.9960   24.5820  -30.9330 N   0  0  0  0  0  0  0  0  0  0  0  0
   -3.8600   24.2450  -30.4380 C   0  0  0  0  0  0  0  0  0  0  0  0
   -3.3380   24.8920  -29.3640 N   0  0  0  0  0  0  0  0  0  0  0  0
   -2.1550   24.5570  -28.8300 C   0  0  0  0  0  0  0  0  0  0  0  0
   -1.5780   25.2110  -27.7080 N   0  0  0  0  0  0  0  0  0  0  0  0
   -1.7400   24.6810  -26.3550 C   0  0  0  0  0  0  0  0  0  0  0  0
   -2.2180   25.8580  -25.5560 C   0  0  0  0  0  0  0  0  0  0  0  0
   -1.3450   26.8990  -25.5040 O   0  0  0  0  0  0  0  0  0  0  0  0
   -0.6260   27.2010  -26.6070 C   0  0  0  0  0  0  0  0  0  0  0  0
   -0.8070   26.4250  -27.8460 C   0  0  0  0  0  0  0  0  0  0  0  0
   -1.4860   23.5410  -29.4010 N   0  0  0  0  0  0  0  0  0  0  0  0
   -1.9840   22.8800  -30.4740 C   0  0  0  0  0  0  0  0  0  0  0  0
   -1.2740   21.9190  -30.9570 N   0  0  0  0  0  0  0  0  0  0  0  0
   -1.7960   21.0600  -31.9630 C   0  0  0  0  0  0  0  0  0  0  0  0
   -2.9290   20.3120  -31.6510 C   0  0  0  0  0  0  0  0  0  0  0  0
   -3.4950   19.4560  -32.5730 C   0  0  0  0  0  0  0  0  0  0  0  0
   -2.9130   19.3580  -33.8190 C   0  0  0  0  0  0  0  0  0  0  0  0
   -3.4950   18.5060  -34.7020 F   0  0  0  0  0  0  0  0  0  0  0  0
   -1.7840   20.0840  -34.1730 C   0  0  0  0  0  0  0  0  0  0  0  0
   -1.2320   20.9420  -33.2200 C   0  0  0  0  0  0  0  0  0  0  0  0
   -3.1700   23.2170  -31.0070 N   0  0  0  0  0  0  0  0  0  0  0  0
   -6.9500   23.3100  -30.2450 C   0  0  0  0  0  0  0  0  0  0  0  0
   -7.8980   22.3160  -30.4430 C   0  0  0  0  0  0  0  0  0  0  0  0
   -8.1854   18.6378  -31.3386 H   0  0  0  0  0  0  0  0  0  0  0  0
   -9.1913   18.8273  -32.8148 H   0  0  0  0  0  0  0  0  0  0  0  0
   -7.4829   19.3822  -32.8148 H   0  0  0  0  0  0  0  0  0  0  0  0
   -6.8177   21.1657  -33.4475 H   0  0  0  0  0  0  0  0  0  0  0  0
   -5.1125   22.9441  -33.0997 H   0  0  0  0  0  0  0  0  0  0  0  0
   -3.8830   25.6650  -28.9560 H   0  0  0  0  0  0  0  0  0  0  0  0
   -2.4836   23.8705  -26.3395 H   0  0  0  0  0  0  0  0  0  0  0  0
   -0.8100   24.2495  -25.9563 H   0  0  0  0  0  0  0  0  0  0  0  0
   -3.1557   26.2187  -26.0039 H   0  0  0  0  0  0  0  0  0  0  0  0
   -2.3420   25.5033  -24.5222 H   0  0  0  0  0  0  0  0  0  0  0  0
   -0.8511   28.2489  -26.8543 H   0  0  0  0  0  0  0  0  0  0  0  0
    0.4045   26.9585  -26.3081 H   0  0  0  0  0  0  0  0  0  0  0  0
   -1.3154   27.0688  -28.5788 H   0  0  0  0  0  0  0  0  0  0  0  0
    0.2002   26.1114  -28.1580 H   0  0  0  0  0  0  0  0  0  0  0  0
   -3.3802   20.4055  -30.6522 H   0  0  0  0  0  0  0  0  0  0  0  0
   -4.3885   18.8663  -32.3203 H   0  0  0  0  0  0  0  0  0  0  0  0
   -1.3380   19.9863  -35.1737 H   0  0  0  0  0  0  0  0  0  0  0  0
   -0.3379   21.5311  -33.4720 H   0  0  0  0  0  0  0  0  0  0  0  0
   -3.5430   22.6980  -31.8330 H   0  0  0  0  0  0  0  0  0  0  0  0
   -6.9880   23.9219  -29.3317 H   0  0  0  0  0  0  0  0  0  0  0  0
   -8.6836   22.1383  -29.6938 H   0  0  0  0  0  0  0  0  0  0  0  0
  1  2  1  0
  2  3  1  0
  3  4  2  0
  4  5  1  0
  5  6  2  0
  6  7  1  0
  7  8  2  0
  8  9  1  0
  9 10  1  0
 10 11  1  0
 11 12  1  0
 12 13  1  0
 13 14  1  0
 14 15  1  0
 15 16  1  0
 10 17  2  0
 17 18  1  0
 18 19  2  0
 19 20  1  0
 20 21  2  0
 21 22  1  0
 22 23  2  0
 23 24  1  0
 23 25  1  0
 25 26  2  0
 18 27  1  0
  6 28  1  0
 28 29  2  0
 29  3  1  0
 27  8  1  0
 16 11  1  0
 26 20  1  0
  1 30  1  0
  1 31  1  0
  1 32  1  0
  4 33  1  0
  5 34  1  0
  9 35  1  0
 12 36  1  0
 12 37  1  0
 13 38  1  0
 13 39  1  0
 15 40  1  0
 15 41  1  0
 16 42  1  0
 16 43  1  0
 21 44  1  0
 22 45  1  0
 25 46  1  0
 26 47  1  0
 27 48  1  0
 28 49  1  0
 29 50  1  0
M  END
>  <smiles>  (43) 
COc1ccc(N=c2[nH]c(N3CCOCC3)nc(=Nc3ccc(F)cc3)[nH]2)cc1

>  <score_type>  (43) 
oracle

>  <origin>  (43) 
adg

>  <m_score__min__energy>  (43) 
-8.4900000000000002

>  <m_primary>  (43) 
energy

$$$$
43:0
     RDKit          3D

 28 29  0  0  0  0  0  0  0  0999 V2000
   -6.4890   17.4170  -31.3690 C   0  0  0  0  0  0  0  0  0  0  0  0
   -7.4800   17.9430  -31.8110 C   0  0  0  0  0  0  0  0  0  0  0  0
   -8.6850   18.5830  -32.3530 C   0  0  0  0  0  0  0  0  0  0  0  0
   -8.3310   19.8180  -33.0530 N   0  0  0  0  0  0  0  0  0  0  0  0
   -7.3870   20.7930  -32.5650 C   0  0  0  0  0  0  0  0  0  0  0  0
   -7.7840   21.8810  -31.7780 C   0  0  0  0  0  0  0  0  0  0  0  0
   -6.8360   22.8020  -31.3250 C   0  0  0  0  0  0  0  0  0  0  0  0
   -7.2340   23.8910  -30.5340 C   0  0  0  0  0  0  0  0  0  0  0  0
   -6.2900   24.8110  -30.0790 C   0  0  0  0  0  0  0  0  0  0  0  0
   -4.9450   24.6550  -30.4090 C   0  0  0  0  0  0  0  0  0  0  0  0
   -4.5330   23.5760  -31.1960 C   0  0  0  0  0  0  0  0  0  0  0  0
   -5.4710   22.6270  -31.6690 C   0  0  0  0  0  0  0  0  0  0  0  0
   -5.0950   21.5530  -32.4480 N   0  0  0  0  0  0  0  0  0  0  0  0
   -3.6910   21.3340  -32.8300 C   0  0  0  0  0  0  0  0  0  0  0  0
   -6.0320   20.6550  -32.8870 C   0  0  0  0  0  0  0  0  0  0  0  0
   -5.5850   16.9372  -30.9658 H   0  0  0  0  0  0  0  0  0  0  0  0
   -9.1765   17.8949  -33.0565 H   0  0  0  0  0  0  0  0  0  0  0  0
   -9.3668   18.8236  -31.5240 H   0  0  0  0  0  0  0  0  0  0  0  0
   -8.8280   20.0100  -33.9530 H   0  0  0  0  0  0  0  0  0  0  0  0
   -8.8444   22.0109  -31.5159 H   0  0  0  0  0  0  0  0  0  0  0  0
   -8.2946   24.0192  -30.2720 H   0  0  0  0  0  0  0  0  0  0  0  0
   -6.6077   25.6617  -29.4582 H   0  0  0  0  0  0  0  0  0  0  0  0
   -4.2045   25.3842  -30.0485 H   0  0  0  0  0  0  0  0  0  0  0  0
   -3.4688   23.4630  -31.4505 H   0  0  0  0  0  0  0  0  0  0  0  0
   -3.0751   21.2379  -31.9237 H   0  0  0  0  0  0  0  0  0  0  0  0
   -3.6126   20.4128  -33.4260 H   0  0  0  0  0  0  0  0  0  0  0  0
   -3.3357   22.1876  -33.4260 H   0  0  0  0  0  0  0  0  0  0  0  0
   -5.7116   19.8051  -33.5075 H   0  0  0  0  0  0  0  0  0  0  0  0
  1  2  3  0
  2  3  1  0
  3  4  1  0
  4  5  1  0
  5  6  2  0
  6  7  1  0
  7  8  2  0
  8  9  1  0
  9 10  2  0
 10 11  1  0
 11 12  2  0
 12 13  1  0
 13 14  1  0
 13 15  2  0
 15  5  1  0
 12  7  1  0
  1 16  1  0
  3 17  1  0
  3 18  1  0
  4 19  1  0
  6 20  1  0
  8 21  1  0
  9 22  1  0
 10 23  1  0
 11 24  1  0
 14 25  1  0
 14 26  1  0
 14 27  1  0
 15 28  1  0
M  CHG  1  13   1
M  END
>  <UniqueID>  (44) 
43

>  <SMILES>  (44) 
C#CCNc1cc2ccccc2[n+](C)c1

>  <Energy>  (44) 
32.17523105869823

>  <Genealogy>  (44) 
C#CCNc1cc2ccccc2[n+](C)c1 (3D coordinates assigned)
C#CCNc1cc2ccccc2[n+](C)c1 (optimized conformer: 32.17523105869823 kcal/mol)

>  <smiles>  (44) 
C#CCNc1cc2ccccc2[n+](C)c1

>  <score_type>  (44) 
oracle

>  <origin>  (44) 
adg

>  <m_score__min__energy>  (44) 
-5.6799999999999997

>  <m_primary>  (44) 
energy

$$$$
44:0
     RDKit          3D

 45 46  0  0  0  0  0  0  0  0999 V2000
   -2.6370   20.0740  -33.1460 C   0  0  0  0  0  0  0  0  0  0  0  0
   -3.5950   21.6230  -33.0950 S   0  0  0  0  0  0  0  0  0  0  0  0
   -3.7270   21.7090  -31.2710 C   0  0  0  0  0  0  0  0  0  0  0  0
   -3.9080   23.1480  -30.7790 C   0  0  0  0  0  0  0  0  0  0  0  0
   -4.9830   23.8180  -31.5270 N   0  0  0  0  0  0  0  0  0  0  0  0
   -6.2530   23.7650  -30.7920 C   0  0  0  0  0  0  0  0  0  0  0  0
   -7.0670   22.5840  -31.2380 C   0  0  0  0  0  0  0  0  0  0  0  0
   -8.3080   22.3020  -30.6570 C   0  0  0  0  0  0  0  0  0  0  0  0
   -9.0470   21.2140  -31.1180 C   0  0  0  0  0  0  0  0  0  0  0  0
   -8.5550   20.4090  -32.1550 C   0  0  0  0  0  0  0  0  0  0  0  0
   -9.3740   19.2440  -32.6440 C   0  0  0  0  0  0  0  0  0  0  0  0
   -7.2820   20.7060  -32.6980 C   0  0  0  0  0  0  0  0  0  0  0  0
   -6.6930   19.9020  -33.8340 C   0  0  0  0  0  0  0  0  0  0  0  0
   -5.7010   18.9240  -33.3380 N   0  0  0  0  0  0  0  0  0  0  0  0
   -5.7570   18.7710  -31.8610 C   0  0  0  0  0  0  0  0  0  0  0  0
   -6.4140   17.4440  -31.4400 C   0  0  0  0  0  0  0  0  0  0  0  0
   -5.7480   16.3010  -31.9560 O   0  0  0  0  0  0  0  0  0  0  0  0
   -5.1880   16.4990  -33.2490 C   0  0  0  0  0  0  0  0  0  0  0  0
   -5.8420   17.6370  -34.0500 C   0  0  0  0  0  0  0  0  0  0  0  0
   -6.5990   21.7910  -32.2370 N   0  0  0  0  0  0  0  0  0  0  0  0
   -2.4289   19.7376  -32.1196 H   0  0  0  0  0  0  0  0  0  0  0  0
   -3.2157   19.3022  -33.6746 H   0  0  0  0  0  0  0  0  0  0  0  0
   -1.6880   20.2470  -33.6746 H   0  0  0  0  0  0  0  0  0  0  0  0
   -4.5923   21.1113  -30.9484 H   0  0  0  0  0  0  0  0  0  0  0  0
   -2.7927   21.3171  -30.8426 H   0  0  0  0  0  0  0  0  0  0  0  0
   -4.1651   23.1351  -29.7096 H   0  0  0  0  0  0  0  0  0  0  0  0
   -2.9688   23.6983  -30.9371 H   0  0  0  0  0  0  0  0  0  0  0  0
   -5.1220   23.2960  -32.4230 H   0  0  0  0  0  0  0  0  0  0  0  0
   -6.0453   23.6763  -29.7154 H   0  0  0  0  0  0  0  0  0  0  0  0
   -6.8203   24.6858  -30.9928 H   0  0  0  0  0  0  0  0  0  0  0  0
   -8.6968   22.9329  -29.8441 H   0  0  0  0  0  0  0  0  0  0  0  0
  -10.0230   20.9853  -30.6651 H   0  0  0  0  0  0  0  0  0  0  0  0
   -9.7671   18.6848  -31.7822 H   0  0  0  0  0  0  0  0  0  0  0  0
  -10.2113   19.6146  -33.2535 H   0  0  0  0  0  0  0  0  0  0  0  0
   -8.7418   18.5815  -33.2535 H   0  0  0  0  0  0  0  0  0  0  0  0
   -7.5017   19.3631  -34.3493 H   0  0  0  0  0  0  0  0  0  0  0  0
   -6.1865   20.5928  -34.5241 H   0  0  0  0  0  0  0  0  0  0  0  0
   -4.7323   18.8014  -31.4623 H   0  0  0  0  0  0  0  0  0  0  0  0
   -6.3669   19.5932  -31.4585 H   0  0  0  0  0  0  0  0  0  0  0  0
   -6.4096   17.3849  -30.3416 H   0  0  0  0  0  0  0  0  0  0  0  0
   -7.4346   17.4403  -31.8502 H   0  0  0  0  0  0  0  0  0  0  0  0
   -4.1191   16.7301  -33.1306 H   0  0  0  0  0  0  0  0  0  0  0  0
   -5.3627   15.5722  -33.8151 H   0  0  0  0  0  0  0  0  0  0  0  0
   -5.3548   17.7129  -35.0333 H   0  0  0  0  0  0  0  0  0  0  0  0
   -6.9125   17.4149  -34.1710 H   0  0  0  0  0  0  0  0  0  0  0  0
  1  2  1  0
  2  3  1  0
  3  4  1  0
  4  5  1  0
  5  6  1  0
  6  7  1  0
  7  8  2  0
  8  9  1  0
  9 10  2  0
 10 11  1  0
 10 12  1  0
 12 13  1  0
 13 14  1  0
 14 15  1  0
 15 16  1  0
 16 17  1  0
 17 18  1  0
 18 19  1  0
 12 20  2  0
 20  7  1  0
 19 14  1  0
  1 21  1  0
  1 22  1  0
  1 23  1  0
  3 24  1  0
  3 25  1  0
  4 26  1  0
  4 27  1  0
  5 28  1  0
  6 29  1  0
  6 30  1  0
  8 31  1  0
  9 32  1  0
 11 33  1  0
 11 34  1  0
 11 35  1  0
 13 36  1  0
 13 37  1  0
 15 38  1  0
 15 39  1  0
 16 40  1  0
 16 41  1  0
 18 42  1  0
 18 43  1  0
 19 44  1  0
 19 45  1  0
M  END
>  <UniqueID>  (45) 
44

>  <SMILES>  (45) 
CSCCNCc1ccc(C)c(CN2CCOCC2)n1

>  <Energy>  (45) 
52.476216221058124

>  <Genealogy>  (45) 
CSCCNCc1ccc(C)c(CN2CCOCC2)n1 (3D coordinates assigned)
CSCCNCc1ccc(C)c(CN2CCOCC2)n1 (nonaromatic ring conformer: 52.476216221058124 kcal/mol)

>  <smiles>  (45) 
CSCCNCc1ccc(C)c(CN2CCOCC2)n1

>  <score_type>  (45) 
oracle

>  <origin>  (45) 
adg

>  <m_score__min__energy>  (45) 
-7.1399999999999997

>  <m_primary>  (45) 
energy

$$$$
