0:0
     RDKit          3D

 43 46  0  0  0  0  0  0  0  0999 V2000
   -0.3752   27.5691  -23.7641 H   0  0  0  0  0  0  0  0  0  0  0  0
   -0.7620   26.9980  -24.6210 C   0  0  0  0  0  0  0  0  0  0  0  0
   -1.9890   26.4470  -24.6970 N   0  0  0  0  0  0  0  0  0  0  0  0
   -2.0920   25.8430  -25.8710 N   0  0  0  0  0  0  0  0  0  0  0  0
   -3.3010   25.1440  -26.2940 C   0  0  0  0  0  0  0  0  0  0  0  0
   -3.8651   24.8179  -25.4077 H   0  0  0  0  0  0  0  0  0  0  0  0
   -3.9242   25.8211  -26.8966 H   0  0  0  0  0  0  0  0  0  0  0  0
   -3.0251   24.2660  -26.8966 H   0  0  0  0  0  0  0  0  0  0  0  0
   -0.9360   25.9960  -26.5590 C   0  0  0  0  0  0  0  0  0  0  0  0
   -0.6350   25.4820  -27.9120 C   0  0  0  0  0  0  0  0  0  0  0  0
    0.4620   24.8940  -28.1100 O   0  0  0  0  0  0  0  0  0  0  0  0
   -1.6170   25.5640  -28.9570 N   0  0  0  0  0  0  0  0  0  0  0  0
   -2.4120   24.6360  -29.4140 C   0  0  0  0  0  0  0  0  0  0  0  0
   -2.0120   23.3400  -29.2960 N   0  0  0  0  0  0  0  0  0  0  0  0
   -2.7660   22.2960  -29.7300 C   0  0  0  0  0  0  0  0  0  0  0  0
   -2.3964   21.2663  -29.6150 H   0  0  0  0  0  0  0  0  0  0  0  0
   -4.0120   22.5290  -30.3230 C   0  0  0  0  0  0  0  0  0  0  0  0
   -4.8060   21.4670  -30.7790 C   0  0  0  0  0  0  0  0  0  0  0  0
   -4.4490   20.4319  -30.6738 H   0  0  0  0  0  0  0  0  0  0  0  0
   -6.0540   21.7190  -31.3690 C   0  0  0  0  0  0  0  0  0  0  0  0
   -6.8930   20.5940  -31.8390 C   0  0  0  0  0  0  0  0  0  0  0  0
   -6.2880   19.5720  -32.5920 C   0  0  0  0  0  0  0  0  0  0  0  0
   -5.2172   19.6350  -32.8356 H   0  0  0  0  0  0  0  0  0  0  0  0
   -7.0350   18.4780  -33.0330 C   0  0  0  0  0  0  0  0  0  0  0  0
   -6.4360   17.4940  -33.7500 F   0  0  0  0  0  0  0  0  0  0  0  0
   -8.3940   18.3910  -32.7300 C   0  0  0  0  0  0  0  0  0  0  0  0
   -8.9782   17.5233  -33.0703 H   0  0  0  0  0  0  0  0  0  0  0  0
   -9.0130   19.4030  -31.9960 C   0  0  0  0  0  0  0  0  0  0  0  0
  -10.0838   19.3249  -31.7566 H   0  0  0  0  0  0  0  0  0  0  0  0
   -8.2820   20.5220  -31.5590 C   0  0  0  0  0  0  0  0  0  0  0  0
   -8.9950   21.6030  -30.7900 C   0  0  0  0  0  0  0  0  0  0  0  0
   -8.8770   21.4241  -29.7111 H   0  0  0  0  0  0  0  0  0  0  0  0
   -8.5646   22.5817  -31.0486 H   0  0  0  0  0  0  0  0  0  0  0  0
  -10.0641   21.5927  -31.0486 H   0  0  0  0  0  0  0  0  0  0  0  0
   -6.5120   23.0420  -31.4770 C   0  0  0  0  0  0  0  0  0  0  0  0
   -7.4973   23.2438  -31.9225 H   0  0  0  0  0  0  0  0  0  0  0  0
   -5.7260   24.1040  -31.0230 C   0  0  0  0  0  0  0  0  0  0  0  0
   -6.0926   25.1369  -31.1168 H   0  0  0  0  0  0  0  0  0  0  0  0
   -4.4710   23.8570  -30.4480 C   0  0  0  0  0  0  0  0  0  0  0  0
   -3.6720   24.9130  -29.9870 C   0  0  0  0  0  0  0  0  0  0  0  0
   -4.0250   25.9514  -30.0714 H   0  0  0  0  0  0  0  0  0  0  0  0
   -0.0640   26.7360  -25.7840 C   0  0  0  0  0  0  0  0  0  0  0  0
    0.9601   27.0478  -26.0371 H   0  0  0  0  0  0  0  0  0  0  0  0
  1  2  1  0
  2  3  2  0
  3  4  1  0
  4  5  1  0
  5  6  1  0
  5  7  1  0
  5  8  1  0
  4  9  1  0
  9 10  1  0
 10 11  2  0
 10 12  1  0
 12 13  2  0
 13 14  1  0
 14 15  1  0
 15 16  1  0
 15 17  2  0
 17 18  1  0
 18 19  1  0
 18 20  2  0
 20 21  1  0
 21 22  2  0
 22 23  1  0
 22 24  1  0
 24 25  1  0
 24 26  2  0
 26 27  1  0
 26 28  1  0
 28 29  1  0
 28 30  2  0
 30 31  1  0
 31 32  1  0
 31 33  1  0
 31 34  1  0
 20 35  1  0
 35 36  1  0
 35 37  2  0
 37 38  1  0
 37 39  1  0
 39 40  2  0
 40 41  1  0
  9 42  2  0
 42 43  1  0
 42  2  1  0
 40 13  1  0
 39 17  1  0
 30 21  1  0
M  CHG  1  14  -1
M  END
>  <UniqueID>  (1) 
1

>  <SMILES>  (1) 
Cc1ccc(F)cc1-c1ccc2c/c(=N\C(=O)c3ccnn3C)[n-]cc2c1

>  <Energy>  (1) 
96.01039625483084

>  <Genealogy>  (1) 
Cc1ccc(F)cc1-c1ccc2cc(=NC(=O)c3ccnn3C)[n-]cc2c1 (protonated)
Cc1ccc(F)cc1-c1ccc2c/c(=N\C(=O)c3ccnn3C)[n-]cc2c1 (cis-trans isomerization)
Cc1ccc(F)cc1-c1ccc2c/c(=N\C(=O)c3ccnn3C)[n-]cc2c1 (3D coordinates assigned)
Cc1ccc(F)cc1-c1ccc2c/c(=N\C(=O)c3ccnn3C)[n-]cc2c1 (optimized conformer: 96.01039625483084 kcal/mol)

>  <smiles>  (1) 
Cc1ccc(F)cc1-c1ccc2cc(=NC(=O)c3ccnn3C)[nH]cc2c1

>  <score_type>  (1) 
oracle

>  <origin>  (1) 
adg

>  <m_score__min__energy>  (1) 
-10.369999999999999

>  <m_primary>  (1) 
energy

$$$$
1:0
     RDKit          3D

 50 53  0  0  0  0  0  0  0  0999 V2000
   -4.2760   17.4490  -34.9110 C   0  0  0  0  0  0  0  0  0  0  0  0
   -3.3930   18.1290  -34.0680 C   0  0  0  0  0  0  0  0  0  0  0  0
   -3.8490   19.2000  -33.2930 C   0  0  0  0  0  0  0  0  0  0  0  0
   -5.1970   19.5910  -33.3480 C   0  0  0  0  0  0  0  0  0  0  0  0
   -5.6810   20.7410  -32.5560 C   0  0  0  0  0  0  0  0  0  0  0  0
   -4.8610   21.7150  -31.9980 C   0  0  0  0  0  0  0  0  0  0  0  0
   -5.6830   22.5530  -31.2590 C   0  0  0  0  0  0  0  0  0  0  0  0
   -5.2430   23.7230  -30.4310 C   0  0  0  0  0  0  0  0  0  0  0  0
   -5.1610   23.3560  -29.0080 N   0  0  0  0  0  0  0  0  0  0  0  0
   -4.2410   24.2120  -28.2390 C   0  0  0  0  0  0  0  0  0  0  0  0
   -2.8820   23.5350  -28.0060 C   0  0  0  0  0  0  0  0  0  0  0  0
   -1.7250   24.5430  -27.9890 C   0  0  0  0  0  0  0  0  0  0  0  0
   -1.1570   24.6660  -26.6000 C   0  0  0  0  0  0  0  0  0  0  0  0
   -1.3240   25.8490  -25.8680 C   0  0  0  0  0  0  0  0  0  0  0  0
   -0.8270   25.9300  -24.5660 C   0  0  0  0  0  0  0  0  0  0  0  0
   -0.1930   24.8630  -24.0080 N   0  0  0  0  0  0  0  0  0  0  0  0
   -0.0270   23.6990  -24.6940 C   0  0  0  0  0  0  0  0  0  0  0  0
   -0.5100   23.5780  -25.9990 C   0  0  0  0  0  0  0  0  0  0  0  0
   -6.9700   22.0710  -31.4160 C   0  0  0  0  0  0  0  0  0  0  0  0
   -8.1600   22.5690  -30.8800 C   0  0  0  0  0  0  0  0  0  0  0  0
   -9.3510   21.9030  -31.2020 C   0  0  0  0  0  0  0  0  0  0  0  0
   -9.3290   20.7810  -32.0480 C   0  0  0  0  0  0  0  0  0  0  0  0
   -8.1070   20.3240  -32.5600 C   0  0  0  0  0  0  0  0  0  0  0  0
   -6.9660   20.9780  -32.2050 N   0  0  0  0  0  0  0  0  0  0  0  0
   -6.0740   18.9150  -34.2130 C   0  0  0  0  0  0  0  0  0  0  0  0
   -5.6150   17.8430  -34.9860 C   0  0  0  0  0  0  0  0  0  0  0  0
   -3.9171   16.6032  -35.5159 H   0  0  0  0  0  0  0  0  0  0  0  0
   -2.3382   17.8215  -34.0140 H   0  0  0  0  0  0  0  0  0  0  0  0
   -3.1489   19.7386  -32.6374 H   0  0  0  0  0  0  0  0  0  0  0  0
   -3.7713   21.8039  -32.1191 H   0  0  0  0  0  0  0  0  0  0  0  0
   -4.2527   24.0560  -30.7750 H   0  0  0  0  0  0  0  0  0  0  0  0
   -5.9800   24.5317  -30.5443 H   0  0  0  0  0  0  0  0  0  0  0  0
   -6.1170   23.4850  -28.6010 H   0  0  0  0  0  0  0  0  0  0  0  0
   -4.0806   25.1484  -28.7934 H   0  0  0  0  0  0  0  0  0  0  0  0
   -4.6973   24.4036  -27.2566 H   0  0  0  0  0  0  0  0  0  0  0  0
   -2.9089   23.0109  -27.0393 H   0  0  0  0  0  0  0  0  0  0  0  0
   -2.7072   22.8358  -28.8370 H   0  0  0  0  0  0  0  0  0  0  0  0
   -0.9357   24.2005  -28.6744 H   0  0  0  0  0  0  0  0  0  0  0  0
   -2.1027   25.5255  -28.3085 H   0  0  0  0  0  0  0  0  0  0  0  0
   -1.8435   26.7086  -26.3165 H   0  0  0  0  0  0  0  0  0  0  0  0
   -0.9482   26.8589  -23.9895 H   0  0  0  0  0  0  0  0  0  0  0  0
    0.1720   24.9380  -23.0320 H   0  0  0  0  0  0  0  0  0  0  0  0
    0.4889   22.8514  -24.2193 H   0  0  0  0  0  0  0  0  0  0  0  0
   -0.3834   22.6351  -26.5512 H   0  0  0  0  0  0  0  0  0  0  0  0
   -8.1625   23.4542  -30.2270 H   0  0  0  0  0  0  0  0  0  0  0  0
  -10.3067   22.2602  -30.7907 H   0  0  0  0  0  0  0  0  0  0  0  0
  -10.2652   20.2646  -32.3067 H   0  0  0  0  0  0  0  0  0  0  0  0
   -8.0701   19.4556  -33.2342 H   0  0  0  0  0  0  0  0  0  0  0  0
   -7.1257   19.2299  -34.2827 H   0  0  0  0  0  0  0  0  0  0  0  0
   -6.3083   17.3099  -35.6532 H   0  0  0  0  0  0  0  0  0  0  0  0
  1  2  2  0
  2  3  1  0
  3  4  2  0
  4  5  1  0
  5  6  2  0
  6  7  1  0
  7  8  1  0
  8  9  1  0
  9 10  1  0
 10 11  1  0
 11 12  1  0
 12 13  1  0
 13 14  2  0
 14 15  1  0
 15 16  2  0
 16 17  1  0
 17 18  2  0
  7 19  2  0
 19 20  1  0
 20 21  2  0
 21 22  1  0
 22 23  2  0
 23 24  1  0
  4 25  1  0
 25 26  2  0
 26  1  1  0
 24  5  1  0
 18 13  1  0
 24 19  1  0
  1 27  1  0
  2 28  1  0
  3 29  1  0
  6 30  1  0
  8 31  1  0
  8 32  1  0
  9 33  1  0
 10 34  1  0
 10 35  1  0
 11 36  1  0
 11 37  1  0
 12 38  1  0
 12 39  1  0
 14 40  1  0
 15 41  1  0
 16 42  1  0
 17 43  1  0
 18 44  1  0
 20 45  1  0
 21 46  1  0
 22 47  1  0
 23 48  1  0
 25 49  1  0
 26 50  1  0
M  CHG  1  16   1
M  END
>  <UniqueID>  (2) 
2

>  <SMILES>  (2) 
c1ccc(-c2cc(CNCCCc3cc[nH+]cc3)c3ccccn23)cc1

>  <Energy>  (2) 
82.82666528716172

>  <Genealogy>  (2) 
c1ccc(-c2cc(CNCCCc3cc[nH+]cc3)c3ccccn23)cc1 (protonated)
c1ccc(-c2cc(CNCCCc3cc[nH+]cc3)c3ccccn23)cc1 (3D coordinates assigned)
c1ccc(-c2cc(CNCCCc3cc[nH+]cc3)c3ccccn23)cc1 (optimized conformer: 82.82666528716172 kcal/mol)

>  <smiles>  (2) 
c1ccc(-c2cc(CNCCCc3ccncc3)c3ccccn23)cc1

>  <score_type>  (2) 
oracle

>  <origin>  (2) 
adg

>  <m_score__min__energy>  (2) 
-9.3900000000000006

>  <m_primary>  (2) 
energy

$$$$
2:0
     RDKit          3D

 34 36  0  0  0  0  0  0  0  0999 V2000
   -9.4600   18.0290  -31.5950 C   0  0  0  0  0  0  0  0  0  0  0  0
   -9.3430   19.2440  -32.3270 O   0  0  0  0  0  0  0  0  0  0  0  0
   -8.4470   20.2810  -32.0190 C   0  0  0  0  0  0  0  0  0  0  0  0
   -8.8610   21.4280  -31.3190 C   0  0  0  0  0  0  0  0  0  0  0  0
   -7.9760   22.4170  -31.0330 N   0  0  0  0  0  0  0  0  0  0  0  0
   -6.6700   22.3210  -31.4110 C   0  0  0  0  0  0  0  0  0  0  0  0
   -5.7230   23.3670  -31.1040 N   0  0  0  0  0  0  0  0  0  0  0  0
   -4.2940   23.0440  -31.0220 C   0  0  0  0  0  0  0  0  0  0  0  0
   -3.5750   24.0360  -30.1030 C   0  0  0  0  0  0  0  0  0  0  0  0
   -3.8660   25.3680  -30.4790 O   0  0  0  0  0  0  0  0  0  0  0  0
   -5.2370   25.6310  -30.2620 C   0  0  0  0  0  0  0  0  0  0  0  0
   -6.1100   24.7810  -31.1910 C   0  0  0  0  0  0  0  0  0  0  0  0
   -6.2570   21.2210  -32.0930 N   0  0  0  0  0  0  0  0  0  0  0  0
   -7.0960   20.2000  -32.4100 C   0  0  0  0  0  0  0  0  0  0  0  0
   -6.5280   19.0530  -33.1570 C   0  0  0  0  0  0  0  0  0  0  0  0
   -6.0820   19.1680  -34.4290 N   0  0  0  0  0  0  0  0  0  0  0  0
   -5.6030   17.9940  -34.9210 C   0  0  0  0  0  0  0  0  0  0  0  0
   -5.6590   16.9180  -34.0440 C   0  0  0  0  0  0  0  0  0  0  0  0
   -6.3330   17.4690  -32.6090 S   0  0  0  0  0  0  0  0  0  0  0  0
   -9.4390   18.2469  -30.5170 H   0  0  0  0  0  0  0  0  0  0  0  0
  -10.4097   17.5366  -31.8511 H   0  0  0  0  0  0  0  0  0  0  0  0
   -8.6217   17.3644  -31.8511 H   0  0  0  0  0  0  0  0  0  0  0  0
   -9.9095   21.5247  -31.0008 H   0  0  0  0  0  0  0  0  0  0  0  0
   -8.3300   23.2640  -30.5350 H   0  0  0  0  0  0  0  0  0  0  0  0
   -4.1747   22.0265  -30.6213 H   0  0  0  0  0  0  0  0  0  0  0  0
   -3.8552   23.1073  -32.0287 H   0  0  0  0  0  0  0  0  0  0  0  0
   -3.9058   23.8730  -29.0667 H   0  0  0  0  0  0  0  0  0  0  0  0
   -2.4903   23.8739  -30.1877 H   0  0  0  0  0  0  0  0  0  0  0  0
   -5.4879   25.3960  -29.2171 H   0  0  0  0  0  0  0  0  0  0  0  0
   -5.4291   26.6933  -30.4734 H   0  0  0  0  0  0  0  0  0  0  0  0
   -7.1642   24.8872  -30.8955 H   0  0  0  0  0  0  0  0  0  0  0  0
   -5.9714   25.1262  -32.2262 H   0  0  0  0  0  0  0  0  0  0  0  0
   -5.2000   17.9030  -35.9405 H   0  0  0  0  0  0  0  0  0  0  0  0
   -5.3228   15.8916  -34.2522 H   0  0  0  0  0  0  0  0  0  0  0  0
  1  2  1  0
  2  3  1  0
  3  4  2  0
  4  5  1  0
  5  6  2  0
  6  7  1  0
  7  8  1  0
  8  9  1  0
  9 10  1  0
 10 11  1  0
 11 12  1  0
  6 13  1  0
 13 14  2  0
 14 15  1  0
 15 16  2  0
 16 17  1  0
 17 18  2  0
 18 19  1  0
 14  3  1  0
 19 15  1  0
 12  7  1  0
  1 20  1  0
  1 21  1  0
  1 22  1  0
  4 23  1  0
  5 24  1  0
  8 25  1  0
  8 26  1  0
  9 27  1  0
  9 28  1  0
 11 29  1  0
 11 30  1  0
 12 31  1  0
 12 32  1  0
 17 33  1  0
 18 34  1  0
M  CHG  1   5   1
M  END
>  <UniqueID>  (3) 
3

>  <SMILES>  (3) 
COc1c[nH+]c(N2CCOCC2)nc1-c1nccs1

>  <Energy>  (3) 
70.40227775859958

>  <Genealogy>  (3) 
COc1c[nH+]c(N2CCOCC2)nc1-c1nccs1 (protonated)
COc1c[nH+]c(N2CCOCC2)nc1-c1nccs1 (3D coordinates assigned)
COc1c[nH+]c(N2CCOCC2)nc1-c1nccs1 (nonaromatic ring conformer: 70.40227775859958 kcal/mol)

>  <smiles>  (3) 
COc1cnc(N2CCOCC2)nc1-c1nccs1

>  <score_type>  (3) 
oracle

>  <origin>  (3) 
adg

>  <m_score__min__energy>  (3) 
-6.3899999999999997

>  <m_primary>  (3) 
energy

$$$$
3:0
     RDKit          3D

 50 53  0  0  0  0  0  0  0  0999 V2000
   -1.9950   20.7940  -31.7890 C   0  0  0  0  0  0  0  0  0  0  0  0
   -3.2180   21.5830  -31.8670 N   0  0  0  0  0  0  0  0  0  0  0  0
   -3.9550   21.8330  -32.9720 C   0  0  0  0  0  0  0  0  0  0  0  0
   -4.9720   22.6850  -32.7220 N   0  0  0  0  0  0  0  0  0  0  0  0
   -4.8720   22.9740  -31.4090 C   0  0  0  0  0  0  0  0  0  0  0  0
   -3.7770   22.3340  -30.8990 C   0  0  0  0  0  0  0  0  0  0  0  0
   -3.3300   22.4820  -29.4780 C   0  0  0  0  0  0  0  0  0  0  0  0
   -3.8650   23.7440  -28.9120 N   0  0  0  0  0  0  0  0  0  0  0  0
   -3.5280   23.8340  -27.4780 C   0  0  0  0  0  0  0  0  0  0  0  0
   -2.5010   24.9060  -27.2470 C   0  0  0  0  0  0  0  0  0  0  0  0
   -2.2790   25.4290  -25.9640 C   0  0  0  0  0  0  0  0  0  0  0  0
   -1.3300   26.4380  -25.7920 C   0  0  0  0  0  0  0  0  0  0  0  0
   -0.6140   26.9160  -26.8920 C   0  0  0  0  0  0  0  0  0  0  0  0
   -0.8620   26.3720  -28.1540 C   0  0  0  0  0  0  0  0  0  0  0  0
   -1.7910   25.3900  -28.3030 N   0  0  0  0  0  0  0  0  0  0  0  0
   -5.3340   23.8360  -29.1210 C   0  0  0  0  0  0  0  0  0  0  0  0
   -5.6740   23.9800  -30.6260 C   0  0  2  0  0  0  0  0  0  0  0  0
   -7.1890   23.8060  -30.8500 C   0  0  0  0  0  0  0  0  0  0  0  0
   -7.4480   23.1110  -32.0570 O   0  0  0  0  0  0  0  0  0  0  0  0
   -8.6120   22.3120  -31.9510 C   0  0  0  0  0  0  0  0  0  0  0  0
   -8.2720   20.8580  -32.1490 C   0  0  0  0  0  0  0  0  0  0  0  0
   -7.0990   20.4920  -32.8230 C   0  0  0  0  0  0  0  0  0  0  0  0
   -6.7810   19.1420  -32.9890 C   0  0  0  0  0  0  0  0  0  0  0  0
   -7.6430   18.1700  -32.4780 C   0  0  0  0  0  0  0  0  0  0  0  0
   -8.7770   18.5400  -31.8240 N   0  0  0  0  0  0  0  0  0  0  0  0
   -9.1080   19.8470  -31.6500 C   0  0  0  0  0  0  0  0  0  0  0  0
   -1.7340   20.6256  -30.7338 H   0  0  0  0  0  0  0  0  0  0  0  0
   -2.1509   19.8257  -32.2872 H   0  0  0  0  0  0  0  0  0  0  0  0
   -1.1771   21.3352  -32.2872 H   0  0  0  0  0  0  0  0  0  0  0  0
   -3.7502   21.3937  -33.9595 H   0  0  0  0  0  0  0  0  0  0  0  0
   -5.6560   23.0600  -33.4140 H   0  0  0  0  0  0  0  0  0  0  0  0
   -3.7010   21.6310  -28.8880 H   0  0  0  0  0  0  0  0  0  0  0  0
   -2.2308   22.5058  -29.4436 H   0  0  0  0  0  0  0  0  0  0  0  0
   -4.4368   24.0737  -26.9066 H   0  0  0  0  0  0  0  0  0  0  0  0
   -3.1167   22.8689  -27.1471 H   0  0  0  0  0  0  0  0  0  0  0  0
   -2.8470   25.0477  -25.1026 H   0  0  0  0  0  0  0  0  0  0  0  0
   -1.1462   26.8563  -24.7914 H   0  0  0  0  0  0  0  0  0  0  0  0
    0.1358   27.7109  -26.7657 H   0  0  0  0  0  0  0  0  0  0  0  0
   -0.3051   26.7383  -29.0290 H   0  0  0  0  0  0  0  0  0  0  0  0
   -5.8105   22.9248  -28.7304 H   0  0  0  0  0  0  0  0  0  0  0  0
   -5.7079   24.7245  -28.5912 H   0  0  0  0  0  0  0  0  0  0  0  0
   -5.4077   24.9873  -30.9787 H   0  0  0  0  0  0  0  0  0  0  0  0
   -7.6138   23.2376  -30.0095 H   0  0  0  0  0  0  0  0  0  0  0  0
   -7.6502   24.8026  -30.9140 H   0  0  0  0  0  0  0  0  0  0  0  0
   -9.0550   22.4478  -30.9533 H   0  0  0  0  0  0  0  0  0  0  0  0
   -9.3274   22.6197  -32.7279 H   0  0  0  0  0  0  0  0  0  0  0  0
   -6.4287   21.2679  -33.2213 H   0  0  0  0  0  0  0  0  0  0  0  0
   -5.8616   18.8480  -33.5165 H   0  0  0  0  0  0  0  0  0  0  0  0
   -7.4049   17.1035  -32.6044 H   0  0  0  0  0  0  0  0  0  0  0  0
  -10.0329   20.1128  -31.1171 H   0  0  0  0  0  0  0  0  0  0  0  0
  1  2  1  0
  2  3  1  0
  3  4  2  0
  4  5  1  0
  5  6  2  0
  6  7  1  0
  7  8  1  0
  8  9  1  0
  9 10  1  0
 10 11  2  0
 11 12  1  0
 12 13  2  0
 13 14  1  0
 14 15  2  0
  8 16  1  0
 16 17  1  0
 17 18  1  0
 18 19  1  0
 19 20  1  0
 20 21  1  0
 21 22  2  0
 22 23  1  0
 23 24  2  0
 24 25  1  0
 25 26  2  0
  6  2  1  0
 15 10  1  0
 26 21  1  0
 17  5  1  0
  1 27  1  0
  1 28  1  0
  1 29  1  0
  3 30  1  0
  4 31  1  0
  7 32  1  0
  7 33  1  0
  9 34  1  0
  9 35  1  0
 11 36  1  0
 12 37  1  0
 13 38  1  0
 14 39  1  0
 16 40  1  0
 16 41  1  0
 17 42  1  6
 18 43  1  0
 18 44  1  0
 20 45  1  0
 20 46  1  0
 22 47  1  0
 23 48  1  0
 24 49  1  0
 26 50  1  0
M  CHG  1   4   1
M  END
>  <UniqueID>  (4) 
4

>  <SMILES>  (4) 
Cn1c[nH+]c2c1CN(Cc1ccccn1)C[C@@H]2COCc1cccnc1

>  <Energy>  (4) 
91.92464372002046

>  <Genealogy>  (4) 
Cn1c[nH+]c2c1CN(Cc1ccccn1)CC2COCc1cccnc1 (protonated)
Cn1c[nH+]c2c1CN(Cc1ccccn1)C[C@@H]2COCc1cccnc1 (chirality)
Cn1c[nH+]c2c1CN(Cc1ccccn1)C[C@@H]2COCc1cccnc1 (3D coordinates assigned)
Cn1c[nH+]c2c1CN(Cc1ccccn1)C[C@@H]2COCc1cccnc1 (nonaromatic ring conformer: 91.92464372002046 kcal/mol)

>  <smiles>  (4) 
Cn1cnc2c1CN(Cc1ccccn1)CC2COCc1cccnc1

>  <score_type>  (4) 
oracle

>  <origin>  (4) 
adg

>  <m_score__min__energy>  (4) 
-7.8399999999999999

>  <m_primary>  (4) 
energy

$$$$
4:0
     RDKit          3D

 39 41  0  0  0  0  0  0  0  0999 V2000
   -6.1790   17.7310  -33.7220 C   0  0  0  0  0  0  0  0  0  0  0  0
   -6.5880   18.3540  -32.3880 C   0  0  0  0  0  0  0  0  0  0  0  0
   -6.1170   17.4800  -31.2230 C   0  0  0  0  0  0  0  0  0  0  0  0
   -8.4100   18.5440  -32.3500 S   0  0  0  0  0  0  0  0  0  0  0  0
   -8.3940   20.3140  -32.0490 C   0  0  0  0  0  0  0  0  0  0  0  0
   -9.5260   21.0880  -32.3150 C   0  0  0  0  0  0  0  0  0  0  0  0
   -9.5030   22.4270  -32.0910 N   0  0  0  0  0  0  0  0  0  0  0  0
   -8.3960   23.0540  -31.6100 C   0  0  0  0  0  0  0  0  0  0  0  0
   -7.2270   22.3220  -31.3370 C   0  0  0  0  0  0  0  0  0  0  0  0
   -6.0110   22.9970  -30.8150 C   0  0  0  0  0  0  0  0  0  0  0  0
   -5.9700   24.3980  -30.6970 C   0  0  0  0  0  0  0  0  0  0  0  0
   -4.8280   25.0380  -30.2080 C   0  0  0  0  0  0  0  0  0  0  0  0
   -3.7110   24.2880  -29.8300 C   0  0  0  0  0  0  0  0  0  0  0  0
   -2.6050   24.9120  -29.3550 N   0  0  0  0  0  0  0  0  0  0  0  0
   -1.5060   24.2100  -28.9830 C   0  0  0  0  0  0  0  0  0  0  0  0
   -1.4860   22.8460  -29.0770 N   0  0  0  0  0  0  0  0  0  0  0  0
   -0.2860   22.1060  -28.6670 C   0  0  0  0  0  0  0  0  0  0  0  0
   -2.5820   22.1740  -29.5500 C   0  0  0  0  0  0  0  0  0  0  0  0
   -2.5630   20.9130  -29.6350 O   0  0  0  0  0  0  0  0  0  0  0  0
   -3.7310   22.8850  -29.9400 C   0  0  0  0  0  0  0  0  0  0  0  0
   -4.8840   22.2460  -30.4340 C   0  0  0  0  0  0  0  0  0  0  0  0
   -7.2400   20.9370  -31.5680 C   0  0  0  0  0  0  0  0  0  0  0  0
   -5.5840   16.8247  -33.5363 H   0  0  0  0  0  0  0  0  0  0  0  0
   -7.0801   17.4670  -34.2950 H   0  0  0  0  0  0  0  0  0  0  0  0
   -5.5785   18.4528  -34.2950 H   0  0  0  0  0  0  0  0  0  0  0  0
   -6.1150   19.3418  -32.2851 H   0  0  0  0  0  0  0  0  0  0  0  0
   -6.3786   17.9655  -30.2712 H   0  0  0  0  0  0  0  0  0  0  0  0
   -6.6076   16.4971  -31.2803 H   0  0  0  0  0  0  0  0  0  0  0  0
   -5.0263   17.3493  -31.2803 H   0  0  0  0  0  0  0  0  0  0  0  0
  -10.4372   20.6121  -32.7064 H   0  0  0  0  0  0  0  0  0  0  0  0
   -8.4154   24.1396  -31.4336 H   0  0  0  0  0  0  0  0  0  0  0  0
   -6.8451   24.9955  -30.9924 H   0  0  0  0  0  0  0  0  0  0  0  0
   -4.8082   26.1343  -30.1204 H   0  0  0  0  0  0  0  0  0  0  0  0
   -0.6223   24.7429  -28.6020 H   0  0  0  0  0  0  0  0  0  0  0  0
   -0.2328   22.0732  -27.5688 H   0  0  0  0  0  0  0  0  0  0  0  0
   -0.3345   21.0807  -29.0625 H   0  0  0  0  0  0  0  0  0  0  0  0
    0.6084   22.6097  -29.0625 H   0  0  0  0  0  0  0  0  0  0  0  0
   -4.9039   21.1498  -30.5229 H   0  0  0  0  0  0  0  0  0  0  0  0
   -6.3376   20.3401  -31.3693 H   0  0  0  0  0  0  0  0  0  0  0  0
  1  2  1  0
  2  3  1  0
  2  4  1  0
  4  5  1  0
  5  6  2  0
  6  7  1  0
  7  8  2  0
  8  9  1  0
  9 10  1  0
 10 11  2  0
 11 12  1  0
 12 13  2  0
 13 14  1  0
 14 15  2  0
 15 16  1  0
 16 17  1  0
 16 18  1  0
 18 19  2  0
 18 20  1  0
 20 21  2  0
  9 22  2  0
 22  5  1  0
 21 10  1  0
 20 13  1  0
  1 23  1  0
  1 24  1  0
  1 25  1  0
  2 26  1  0
  3 27  1  0
  3 28  1  0
  3 29  1  0
  6 30  1  0
  8 31  1  0
 11 32  1  0
 12 33  1  0
 15 34  1  0
 17 35  1  0
 17 36  1  0
 17 37  1  0
 21 38  1  0
 22 39  1  0
M  END
>  <UniqueID>  (5) 
5

>  <SMILES>  (5) 
CC(C)Sc1cncc(-c2ccc3ncn(C)c(=O)c3c2)c1

>  <Energy>  (5) 
45.17235510028303

>  <Genealogy>  (5) 
CC(C)Sc1cncc(-c2ccc3ncn(C)c(=O)c3c2)c1 (3D coordinates assigned)
CC(C)Sc1cncc(-c2ccc3ncn(C)c(=O)c3c2)c1 (optimized conformer: 45.17235510028303 kcal/mol)

>  <smiles>  (5) 
CC(C)Sc1cncc(-c2ccc3ncn(C)c(=O)c3c2)c1

>  <score_type>  (5) 
oracle

>  <origin>  (5) 
adg

>  <m_score__min__energy>  (5) 
-7.9400000000000004

>  <m_primary>  (5) 
energy

$$$$
5:0
     RDKit          3D

 25 26  0  0  0  0  0  0  0  0999 V2000
   -6.4630   24.9090  -29.9610 C   0  0  0  0  0  0  0  0  0  0  0  0
   -5.4220   25.6620  -30.4650 C   0  0  0  0  0  0  0  0  0  0  0  0
   -4.6180   24.8950  -31.1640 O   0  0  0  0  0  0  0  0  0  0  0  0
   -5.0900   23.6690  -31.1440 C   0  0  0  0  0  0  0  0  0  0  0  0
   -4.4250   22.5040  -31.8100 C   0  0  0  0  0  0  0  0  0  0  0  0
   -5.1920   22.0840  -32.9940 N   0  0  0  0  0  0  0  0  0  0  0  0
   -5.6410   20.6860  -32.8880 C   0  0  0  0  0  0  0  0  0  0  0  0
   -7.0900   20.5970  -32.5060 C   0  0  0  0  0  0  0  0  0  0  0  0
   -7.8180   19.4330  -32.3550 C   0  0  0  0  0  0  0  0  0  0  0  0
   -9.0930   19.8350  -32.0240 C   0  0  0  0  0  0  0  0  0  0  0  0
   -9.0650   21.2150  -31.9940 C   0  0  0  0  0  0  0  0  0  0  0  0
   -7.8570   21.6400  -32.2870 O   0  0  0  0  0  0  0  0  0  0  0  0
   -6.2490   23.6190  -30.3960 C   0  0  0  0  0  0  0  0  0  0  0  0
   -7.2958   25.2665  -29.3376 H   0  0  0  0  0  0  0  0  0  0  0  0
   -5.2864   26.7418  -30.3051 H   0  0  0  0  0  0  0  0  0  0  0  0
   -3.4102   22.7943  -32.1197 H   0  0  0  0  0  0  0  0  0  0  0  0
   -4.3778   21.6657  -31.0993 H   0  0  0  0  0  0  0  0  0  0  0  0
   -4.6120   22.2050  -33.8570 H   0  0  0  0  0  0  0  0  0  0  0  0
   -6.0410   22.6920  -33.0790 H   0  0  0  0  0  0  0  0  0  0  0  0
   -5.4971   20.1905  -33.8595 H   0  0  0  0  0  0  0  0  0  0  0  0
   -5.0481   20.1934  -32.1033 H   0  0  0  0  0  0  0  0  0  0  0  0
   -7.4555   18.4013  -32.4741 H   0  0  0  0  0  0  0  0  0  0  0  0
   -9.9591   19.1871  -31.8239 H   0  0  0  0  0  0  0  0  0  0  0  0
   -9.9242   21.8609  -31.7602 H   0  0  0  0  0  0  0  0  0  0  0  0
   -6.8710   22.7353  -30.1904 H   0  0  0  0  0  0  0  0  0  0  0  0
  1  2  2  0
  2  3  1  0
  3  4  1  0
  4  5  1  0
  5  6  1  0
  6  7  1  0
  7  8  1  0
  8  9  2  0
  9 10  1  0
 10 11  2  0
 11 12  1  0
  4 13  2  0
 13  1  1  0
 12  8  1  0
  1 14  1  0
  2 15  1  0
  5 16  1  0
  5 17  1  0
  6 18  1  0
  6 19  1  0
  7 20  1  0
  7 21  1  0
  9 22  1  0
 10 23  1  0
 11 24  1  0
 13 25  1  0
M  CHG  1   6   1
M  END
>  <UniqueID>  (6) 
6

>  <SMILES>  (6) 
c1coc(C[NH2+]Cc2ccco2)c1

>  <Energy>  (6) 
74.4766862920182

>  <Genealogy>  (6) 
c1coc(C[NH2+]Cc2ccco2)c1 (protonated)
c1coc(C[NH2+]Cc2ccco2)c1 (3D coordinates assigned)
c1coc(C[NH2+]Cc2ccco2)c1 (optimized conformer: 74.4766862920182 kcal/mol)

>  <smiles>  (6) 
c1coc(CNCc2ccco2)c1

>  <score_type>  (6) 
oracle

>  <origin>  (6) 
adg

>  <m_score__min__energy>  (6) 
-4.8799999999999999

>  <m_primary>  (6) 
energy

$$$$
6:0
     RDKit          3D

 46 48  0  0  0  0  0  0  0  0999 V2000
   -1.3140   24.8870  -28.9530 C   0  0  0  0  0  0  0  0  0  0  0  0
   -2.7480   24.5280  -29.1450 C   0  0  0  0  0  0  0  0  0  0  0  0
   -3.5070   23.7140  -28.3360 C   0  0  0  0  0  0  0  0  0  0  0  0
   -4.7430   23.6160  -28.8590 N   0  0  0  0  0  0  0  0  0  0  0  0
   -4.6750   24.3810  -29.9710 C   0  0  0  0  0  0  0  0  0  0  0  0
   -5.8220   24.5730  -30.9110 C   0  0  0  0  0  0  0  0  0  0  0  0
   -6.0700   23.3410  -31.6950 N   0  0  0  0  0  0  0  0  0  0  0  0
   -7.4260   23.3150  -32.2890 C   0  0  0  0  0  0  0  0  0  0  0  0
   -8.3250   22.3370  -31.5230 C   0  0  0  0  0  0  0  0  0  0  0  0
   -8.0890   20.9080  -31.9370 C   0  0  0  0  0  0  0  0  0  0  0  0
   -7.1450   20.6040  -32.9320 C   0  0  0  0  0  0  0  0  0  0  0  0
   -6.8920   19.2740  -33.2790 C   0  0  0  0  0  0  0  0  0  0  0  0
   -7.5760   18.2400  -32.6350 C   0  0  0  0  0  0  0  0  0  0  0  0
   -8.5140   18.5340  -31.6410 C   0  0  0  0  0  0  0  0  0  0  0  0
   -8.7680   19.8640  -31.2890 C   0  0  0  0  0  0  0  0  0  0  0  0
   -4.9970   23.0330  -32.6740 C   0  0  0  0  0  0  0  0  0  0  0  0
   -4.2050   21.7960  -32.3360 C   0  0  0  0  0  0  0  0  0  0  0  0
   -3.7950   21.3870  -31.0780 C   0  0  0  0  0  0  0  0  0  0  0  0
   -3.1040   20.2400  -31.2070 N   0  0  0  0  0  0  0  0  0  0  0  0
   -3.0790   19.9020  -32.4860 N   0  0  0  0  0  0  0  0  0  0  0  0
   -2.3580   18.7540  -33.0210 C   0  0  0  0  0  0  0  0  0  0  0  0
   -3.7300   20.8330  -33.2090 C   0  0  0  0  0  0  0  0  0  0  0  0
   -3.4910   24.9220  -30.1470 O   0  0  0  0  0  0  0  0  0  0  0  0
   -1.0909   24.9429  -27.8773 H   0  0  0  0  0  0  0  0  0  0  0  0
   -0.6784   24.1203  -29.4200 H   0  0  0  0  0  0  0  0  0  0  0  0
   -1.1146   25.8628  -29.4200 H   0  0  0  0  0  0  0  0  0  0  0  0
   -3.1606   23.2242  -27.4140 H   0  0  0  0  0  0  0  0  0  0  0  0
   -6.7246   24.8208  -30.3331 H   0  0  0  0  0  0  0  0  0  0  0  0
   -5.5764   25.3900  -31.6054 H   0  0  0  0  0  0  0  0  0  0  0  0
   -7.8628   24.3234  -32.2402 H   0  0  0  0  0  0  0  0  0  0  0  0
   -7.3512   22.9865  -33.3361 H   0  0  0  0  0  0  0  0  0  0  0  0
   -8.1181   22.4334  -30.4469 H   0  0  0  0  0  0  0  0  0  0  0  0
   -9.3712   22.5879  -31.7521 H   0  0  0  0  0  0  0  0  0  0  0  0
   -6.6031   21.4155  -33.4397 H   0  0  0  0  0  0  0  0  0  0  0  0
   -6.1534   19.0411  -34.0602 H   0  0  0  0  0  0  0  0  0  0  0  0
   -7.3764   17.1939  -32.9102 H   0  0  0  0  0  0  0  0  0  0  0  0
   -9.0527   17.7191  -31.1353 H   0  0  0  0  0  0  0  0  0  0  0  0
   -9.5019   20.0924  -30.5021 H   0  0  0  0  0  0  0  0  0  0  0  0
   -5.4589   22.8903  -33.6621 H   0  0  0  0  0  0  0  0  0  0  0  0
   -4.2942   23.8791  -32.6573 H   0  0  0  0  0  0  0  0  0  0  0  0
   -3.9998   21.9114  -30.1330 H   0  0  0  0  0  0  0  0  0  0  0  0
   -2.6520   19.7020  -30.4340 H   0  0  0  0  0  0  0  0  0  0  0  0
   -1.9741   18.1428  -32.1909 H   0  0  0  0  0  0  0  0  0  0  0  0
   -3.0384   18.1487  -33.6379 H   0  0  0  0  0  0  0  0  0  0  0  0
   -1.5173   19.1041  -33.6379 H   0  0  0  0  0  0  0  0  0  0  0  0
   -3.8611   20.8288  -34.3011 H   0  0  0  0  0  0  0  0  0  0  0  0
  1  2  1  0
  2  3  2  0
  3  4  1  0
  4  5  2  0
  5  6  1  0
  6  7  1  0
  7  8  1  0
  8  9  1  0
  9 10  1  0
 10 11  2  0
 11 12  1  0
 12 13  2  0
 13 14  1  0
 14 15  2  0
  7 16  1  0
 16 17  1  0
 17 18  1  0
 18 19  2  0
 19 20  1  0
 20 21  1  0
 20 22  1  0
  5 23  1  0
 23  2  1  0
 15 10  1  0
 22 17  2  0
  1 24  1  0
  1 25  1  0
  1 26  1  0
  3 27  1  0
  6 28  1  0
  6 29  1  0
  8 30  1  0
  8 31  1  0
  9 32  1  0
  9 33  1  0
 11 34  1  0
 12 35  1  0
 13 36  1  0
 14 37  1  0
 15 38  1  0
 16 39  1  0
 16 40  1  0
 18 41  1  0
 19 42  1  0
 21 43  1  0
 21 44  1  0
 21 45  1  0
 22 46  1  0
M  CHG  1  19   1
M  END
>  <UniqueID>  (7) 
7

>  <SMILES>  (7) 
Cc1cnc(CN(CCc2ccccc2)Cc2c[nH+]n(C)c2)o1

>  <Energy>  (7) 
105.39647760266534

>  <Genealogy>  (7) 
Cc1cnc(CN(CCc2ccccc2)Cc2c[nH+]n(C)c2)o1 (protonated)
Cc1cnc(CN(CCc2ccccc2)Cc2c[nH+]n(C)c2)o1 (3D coordinates assigned)
Cc1cnc(CN(CCc2ccccc2)Cc2c[nH+]n(C)c2)o1 (optimized conformer: 105.39647760266534 kcal/mol)

>  <smiles>  (7) 
Cc1cnc(CN(CCc2ccccc2)Cc2cnn(C)c2)o1

>  <score_type>  (7) 
oracle

>  <origin>  (7) 
adg

>  <m_score__min__energy>  (7) 
-7.75

>  <m_primary>  (7) 
energy

$$$$
7:0
     RDKit          3D

 54 57  0  0  0  0  0  0  0  0999 V2000
   -5.7580   18.9250  -34.9260 C   0  0  0  0  0  0  0  0  0  0  0  0
   -5.6110   18.3680  -33.5830 N   0  0  0  0  0  0  0  0  0  0  0  0
   -4.9900   17.2340  -33.2070 C   0  0  0  0  0  0  0  0  0  0  0  0
   -4.1640   16.0970  -34.3200 S   0  0  0  0  0  0  0  0  0  0  0  0
   -2.4690   16.6930  -33.9630 C   0  0  0  0  0  0  0  0  0  0  0  0
   -2.2160   18.0180  -34.6810 C   0  0  0  0  0  0  0  0  0  0  0  0
   -1.6480   19.0080  -33.7400 N   0  0  0  0  0  0  0  0  0  0  0  0
   -1.9200   20.4110  -34.1480 C   0  0  0  0  0  0  0  0  0  0  0  0
   -3.0380   21.0640  -33.3130 C   0  0  0  0  0  0  0  0  0  0  0  0
   -2.7600   21.0070  -31.8570 N   0  0  0  0  0  0  0  0  0  0  0  0
   -2.4500   22.3130  -31.2370 C   0  0  0  0  0  0  0  0  0  0  0  0
   -3.6590   23.0210  -30.6760 C   0  0  0  0  0  0  0  0  0  0  0  0
   -4.5330   22.3700  -29.7910 C   0  0  0  0  0  0  0  0  0  0  0  0
   -5.6550   23.0490  -29.3100 C   0  0  0  0  0  0  0  0  0  0  0  0
   -5.9040   24.3580  -29.7210 C   0  0  0  0  0  0  0  0  0  0  0  0
   -5.0150   24.9780  -30.6020 C   0  0  0  0  0  0  0  0  0  0  0  0
   -3.9270   24.3020  -31.0560 N   0  0  0  0  0  0  0  0  0  0  0  0
   -1.8320   19.9330  -31.4460 C   0  0  0  0  0  0  0  0  0  0  0  0
   -2.0150   18.7050  -32.3390 C   0  0  0  0  0  0  0  0  0  0  0  0
   -5.0820   17.0390  -31.8760 N   0  0  0  0  0  0  0  0  0  0  0  0
   -5.7520   18.0730  -31.3810 N   0  0  0  0  0  0  0  0  0  0  0  0
   -6.0520   18.8790  -32.4170 C   0  0  0  0  0  0  0  0  0  0  0  0
   -6.7940   20.1400  -32.2820 C   0  0  0  0  0  0  0  0  0  0  0  0
   -6.1380   21.3520  -32.5420 C   0  0  0  0  0  0  0  0  0  0  0  0
   -6.8070   22.5670  -32.3610 C   0  0  0  0  0  0  0  0  0  0  0  0
   -8.1350   22.5760  -31.9300 C   0  0  0  0  0  0  0  0  0  0  0  0
   -8.8040   21.3720  -31.6930 C   0  0  0  0  0  0  0  0  0  0  0  0
   -8.1390   20.1500  -31.8680 C   0  0  0  0  0  0  0  0  0  0  0  0
   -9.1210   18.5240  -31.6110 Br  0  0  0  0  0  0  0  0  0  0  0  0
   -6.0381   19.9863  -34.8541 H   0  0  0  0  0  0  0  0  0  0  0  0
   -4.8049   18.8332  -35.4674 H   0  0  0  0  0  0  0  0  0  0  0  0
   -6.5417   18.3748  -35.4674 H   0  0  0  0  0  0  0  0  0  0  0  0
   -2.3557   16.8394  -32.8787 H   0  0  0  0  0  0  0  0  0  0  0  0
   -1.7429   15.9469  -34.3179 H   0  0  0  0  0  0  0  0  0  0  0  0
   -1.5085   17.8544  -35.5072 H   0  0  0  0  0  0  0  0  0  0  0  0
   -3.1693   18.4015  -35.0736 H   0  0  0  0  0  0  0  0  0  0  0  0
   -0.9986   20.9989  -34.0243 H   0  0  0  0  0  0  0  0  0  0  0  0
   -2.2529   20.3948  -35.1963 H   0  0  0  0  0  0  0  0  0  0  0  0
   -3.1345   22.1177  -33.6137 H   0  0  0  0  0  0  0  0  0  0  0  0
   -3.9673   20.5060  -33.5001 H   0  0  0  0  0  0  0  0  0  0  0  0
   -1.7338   22.1476  -30.4187 H   0  0  0  0  0  0  0  0  0  0  0  0
   -2.0404   22.9560  -32.0300 H   0  0  0  0  0  0  0  0  0  0  0  0
   -4.3359   21.3338  -29.4789 H   0  0  0  0  0  0  0  0  0  0  0  0
   -6.3409   22.5519  -28.6082 H   0  0  0  0  0  0  0  0  0  0  0  0
   -6.7908   24.8964  -29.3554 H   0  0  0  0  0  0  0  0  0  0  0  0
   -5.1954   26.0129  -30.9282 H   0  0  0  0  0  0  0  0  0  0  0  0
   -0.7968   20.2945  -31.5333 H   0  0  0  0  0  0  0  0  0  0  0  0
   -2.0462   19.6535  -30.4039 H   0  0  0  0  0  0  0  0  0  0  0  0
   -1.3746   17.8915  -31.9674 H   0  0  0  0  0  0  0  0  0  0  0  0
   -3.0733   18.4062  -32.3110 H   0  0  0  0  0  0  0  0  0  0  0  0
   -5.0943   21.3471  -32.8893 H   0  0  0  0  0  0  0  0  0  0  0  0
   -6.2866   23.5158  -32.5583 H   0  0  0  0  0  0  0  0  0  0  0  0
   -8.6558   23.5327  -31.7767 H   0  0  0  0  0  0  0  0  0  0  0  0
   -9.8549   21.3831  -31.3683 H   0  0  0  0  0  0  0  0  0  0  0  0
  1  2  1  0
  2  3  1  0
  3  4  1  0
  4  5  1  0
  5  6  1  0
  6  7  1  0
  7  8  1  0
  8  9  1  0
  9 10  1  0
 10 11  1  0
 11 12  1  0
 12 13  2  0
 13 14  1  0
 14 15  2  0
 15 16  1  0
 16 17  2  0
 10 18  1  0
 18 19  1  0
  3 20  2  0
 20 21  1  0
 21 22  2  0
 22 23  1  0
 23 24  2  0
 24 25  1  0
 25 26  2  0
 26 27  1  0
 27 28  2  0
 28 29  1  0
 22  2  1  0
 28 23  1  0
 19  7  1  0
 17 12  1  0
  1 30  1  0
  1 31  1  0
  1 32  1  0
  5 33  1  0
  5 34  1  0
  6 35  1  0
  6 36  1  0
  8 37  1  0
  8 38  1  0
  9 39  1  0
  9 40  1  0
 11 41  1  0
 11 42  1  0
 13 43  1  0
 14 44  1  0
 15 45  1  0
 16 46  1  0
 18 47  1  0
 18 48  1  0
 19 49  1  0
 19 50  1  0
 24 51  1  0
 25 52  1  0
 26 53  1  0
 27 54  1  0
M  END
>  <UniqueID>  (8) 
8

>  <SMILES>  (8) 
Cn1c(SCCN2CCN(Cc3ccccn3)CC2)nnc1-c1ccccc1Br

>  <Energy>  (8) 
107.20476483375982

>  <Genealogy>  (8) 
Cn1c(SCCN2CCN(Cc3ccccn3)CC2)nnc1-c1ccccc1Br (3D coordinates assigned)
Cn1c(SCCN2CCN(Cc3ccccn3)CC2)nnc1-c1ccccc1Br (nonaromatic ring conformer: 107.20476483375982 kcal/mol)

>  <smiles>  (8) 
Cn1c(SCCN2CCN(Cc3ccccn3)CC2)nnc1-c1ccccc1Br

>  <score_type>  (8) 
oracle

>  <origin>  (8) 
adg

>  <m_score__min__energy>  (8) 
-9.7799999999999994

>  <m_primary>  (8) 
energy

$$$$
8:0
     RDKit          3D

 56 57  0  0  0  0  0  0  0  0999 V2000
   -6.1220   25.8350  -28.8720 N   0  0  0  0  0  0  0  0  0  0  0  0
   -6.6490   25.3090  -30.1310 C   0  0  0  0  0  0  0  0  0  0  0  0
   -5.5110   24.7990  -31.0320 C   0  0  0  0  0  0  0  0  0  0  0  0
   -4.1970   24.8490  -30.3650 N   0  0  0  0  0  0  0  0  0  0  0  0
   -3.9670   23.7140  -29.4410 C   0  0  2  0  0  0  0  0  0  0  0  0
   -3.8900   24.2370  -27.9810 C   0  0  0  0  0  0  0  0  0  0  0  0
   -2.4510   24.5340  -27.5170 C   0  0  0  0  0  0  0  0  0  0  0  0
   -1.5530   24.9230  -28.6970 C   0  0  0  0  0  0  0  0  0  0  0  0
   -1.4790   23.8720  -29.7330 N   0  0  0  0  0  0  0  0  0  0  0  0
   -2.6420   22.9570  -29.7710 C   0  0  2  0  0  0  0  0  0  0  0  0
   -2.6380   22.2000  -31.1230 C   0  0  0  0  0  0  0  0  0  0  0  0
   -1.3000   21.5540  -31.5260 C   0  0  0  0  0  0  0  0  0  0  0  0
   -1.2970   21.0210  -32.9660 C   0  0  0  0  0  0  0  0  0  0  0  0
   -2.6980   21.1120  -33.5880 C   0  0  0  0  0  0  0  0  0  0  0  0
   -3.3530   19.7330  -33.7550 C   0  0  0  0  0  0  0  0  0  0  0  0
   -4.7840   19.7260  -33.2830 C   0  0  0  0  0  0  0  0  0  0  0  0
   -5.5790   18.5800  -33.4380 C   0  0  0  0  0  0  0  0  0  0  0  0
   -6.9140   18.5850  -33.0270 C   0  0  0  0  0  0  0  0  0  0  0  0
   -7.4740   19.7320  -32.4380 C   0  0  0  0  0  0  0  0  0  0  0  0
   -8.9290   19.7540  -32.0420 C   0  0  0  0  0  0  0  0  0  0  0  0
   -9.7310   19.3890  -33.1100 F   0  0  0  0  0  0  0  0  0  0  0  0
   -9.1310   18.8660  -31.0020 F   0  0  0  0  0  0  0  0  0  0  0  0
   -9.3050   21.0210  -31.6330 F   0  0  0  0  0  0  0  0  0  0  0  0
   -6.6850   20.8880  -32.3140 C   0  0  0  0  0  0  0  0  0  0  0  0
   -5.3500   20.8830  -32.7270 C   0  0  0  0  0  0  0  0  0  0  0  0
   -5.1030   26.0490  -28.9710 H   0  0  0  0  0  0  0  0  0  0  0  0
   -6.6410   26.7020  -28.6000 H   0  0  0  0  0  0  0  0  0  0  0  0
   -6.2470   25.1180  -28.1220 H   0  0  0  0  0  0  0  0  0  0  0  0
   -7.3368   24.4783  -29.9145 H   0  0  0  0  0  0  0  0  0  0  0  0
   -7.1774   26.1183  -30.6563 H   0  0  0  0  0  0  0  0  0  0  0  0
   -5.7241   23.7573  -31.3138 H   0  0  0  0  0  0  0  0  0  0  0  0
   -5.4634   25.4549  -31.9137 H   0  0  0  0  0  0  0  0  0  0  0  0
   -3.4520   24.9160  -31.0920 H   0  0  0  0  0  0  0  0  0  0  0  0
   -4.8077   23.0147  -29.5600 H   0  0  0  0  0  0  0  0  0  0  0  0
   -4.4783   25.1638  -27.9103 H   0  0  0  0  0  0  0  0  0  0  0  0
   -4.2864   23.4447  -27.3290 H   0  0  0  0  0  0  0  0  0  0  0  0
   -2.4717   25.3630  -26.7943 H   0  0  0  0  0  0  0  0  0  0  0  0
   -2.0411   23.6239  -27.0547 H   0  0  0  0  0  0  0  0  0  0  0  0
   -1.9524   25.8399  -29.1549 H   0  0  0  0  0  0  0  0  0  0  0  0
   -0.5365   25.0717  -28.3038 H   0  0  0  0  0  0  0  0  0  0  0  0
   -0.6200   23.2980  -29.5580 H   0  0  0  0  0  0  0  0  0  0  0  0
   -2.5670   22.1942  -28.9820 H   0  0  0  0  0  0  0  0  0  0  0  0
   -3.3937   21.4028  -31.0655 H   0  0  0  0  0  0  0  0  0  0  0  0
   -2.8459   22.9596  -31.8910 H   0  0  0  0  0  0  0  0  0  0  0  0
   -0.5046   22.3078  -31.4302 H   0  0  0  0  0  0  0  0  0  0  0  0
   -1.1367   20.6951  -30.8584 H   0  0  0  0  0  0  0  0  0  0  0  0
   -0.5961   21.6170  -33.5689 H   0  0  0  0  0  0  0  0  0  0  0  0
   -0.9885   19.9653  -32.9489 H   0  0  0  0  0  0  0  0  0  0  0  0
   -3.3345   21.7293  -32.9370 H   0  0  0  0  0  0  0  0  0  0  0  0
   -2.5935   21.5579  -34.5881 H   0  0  0  0  0  0  0  0  0  0  0  0
   -3.3288   19.4550  -34.8190 H   0  0  0  0  0  0  0  0  0  0  0  0
   -2.7900   19.0134  -33.1424 H   0  0  0  0  0  0  0  0  0  0  0  0
   -5.1483   17.6723  -33.8858 H   0  0  0  0  0  0  0  0  0  0  0  0
   -7.5314   17.6851  -33.1652 H   0  0  0  0  0  0  0  0  0  0  0  0
   -7.1214   21.8038  -31.8887 H   0  0  0  0  0  0  0  0  0  0  0  0
   -4.7396   21.7913  -32.6155 H   0  0  0  0  0  0  0  0  0  0  0  0
  1  2  1  0
  2  3  1  0
  3  4  1  0
  4  5  1  0
  5  6  1  0
  6  7  1  0
  7  8  1  0
  8  9  1  0
  9 10  1  0
 10 11  1  0
 11 12  1  0
 12 13  1  0
 13 14  1  0
 14 15  1  0
 15 16  1  0
 16 17  2  0
 17 18  1  0
 18 19  2  0
 19 20  1  0
 20 21  1  0
 20 22  1  0
 20 23  1  0
 19 24  1  0
 24 25  2  0
 10  5  1  0
 25 16  1  0
  1 26  1  0
  1 27  1  0
  1 28  1  0
  2 29  1  0
  2 30  1  0
  3 31  1  0
  3 32  1  0
  4 33  1  0
  5 34  1  1
  6 35  1  0
  6 36  1  0
  7 37  1  0
  7 38  1  0
  8 39  1  0
  8 40  1  0
  9 41  1  0
 10 42  1  1
 11 43  1  0
 11 44  1  0
 12 45  1  0
 12 46  1  0
 13 47  1  0
 13 48  1  0
 14 49  1  0
 14 50  1  0
 15 51  1  0
 15 52  1  0
 17 53  1  0
 18 54  1  0
 24 55  1  0
 25 56  1  0
M  CHG  1   1   1
M  END
>  <UniqueID>  (9) 
9

>  <SMILES>  (9) 
[NH3+]CCN[C@@H]1CCCN[C@@H]1CCCCCc1ccc(C(F)(F)F)cc1

>  <Energy>  (9) 
54.10915267995448

>  <Genealogy>  (9) 
[NH3+]CCNC1CCCNC1CCCCCc1ccc(C(F)(F)F)cc1 (protonated)
[NH3+]CCN[C@@H]1CCCN[C@@H]1CCCCCc1ccc(C(F)(F)F)cc1 (chirality)
[NH3+]CCN[C@@H]1CCCN[C@@H]1CCCCCc1ccc(C(F)(F)F)cc1 (3D coordinates assigned)
[NH3+]CCN[C@@H]1CCCN[C@@H]1CCCCCc1ccc(C(F)(F)F)cc1 (nonaromatic ring conformer: 54.10915267995448 kcal/mol)

>  <smiles>  (9) 
NCCNC1CCCNC1CCCCCc1ccc(C(F)(F)F)cc1

>  <score_type>  (9) 
oracle

>  <origin>  (9) 
adg

>  <m_score__min__energy>  (9) 
-8.0999999999999996

>  <m_primary>  (9) 
energy

$$$$
9:0
     RDKit          3D

 32 34  0  0  0  0  0  0  0  0999 V2000
    0.0030   20.7390  -34.0440 C   0  0  0  0  0  0  0  0  0  0  0  0
   -1.2340   20.9180  -33.2300 C   0  0  0  0  0  0  0  0  0  0  0  0
   -1.2930   21.4510  -31.9500 C   0  0  0  0  0  0  0  0  0  0  0  0
   -2.6000   21.5900  -31.4660 C   0  0  0  0  0  0  0  0  0  0  0  0
   -3.5730   21.1700  -32.3710 C   0  0  0  0  0  0  0  0  0  0  0  0
   -5.0400   21.2300  -32.2050 C   0  0  0  0  0  0  0  0  0  0  0  0
   -5.8800   20.4060  -32.8870 N   0  0  0  0  0  0  0  0  0  0  0  0
   -7.1160   20.7320  -32.4820 C   0  0  0  0  0  0  0  0  0  0  0  0
   -8.2830   20.1760  -32.8900 N   0  0  0  0  0  0  0  0  0  0  0  0
   -9.4490   20.6420  -32.3470 C   0  0  0  0  0  0  0  0  0  0  0  0
   -9.4160   21.6770  -31.3820 C   0  0  0  0  0  0  0  0  0  0  0  0
   -8.2190   22.2120  -30.9930 N   0  0  0  0  0  0  0  0  0  0  0  0
   -7.0870   21.7280  -31.5570 C   0  0  0  0  0  0  0  0  0  0  0  0
   -5.7710   22.0710  -31.3420 C   0  0  0  0  0  0  0  0  0  0  0  0
   -5.2810   23.0970  -30.3600 C   0  0  0  0  0  0  0  0  0  0  0  0
   -5.4070   24.5070  -30.9410 C   0  0  0  0  0  0  0  0  0  0  0  0
   -4.2010   25.2030  -30.7890 O   0  0  0  0  0  0  0  0  0  0  0  0
   -2.8010   20.6580  -33.7790 S   0  0  0  0  0  0  0  0  0  0  0  0
    0.8672   20.6139  -33.3751 H   0  0  0  0  0  0  0  0  0  0  0  0
   -0.1016   19.8466  -34.6786 H   0  0  0  0  0  0  0  0  0  0  0  0
    0.1556   21.6244  -34.6786 H   0  0  0  0  0  0  0  0  0  0  0  0
   -0.4013   21.7362  -31.3725 H   0  0  0  0  0  0  0  0  0  0  0  0
   -2.8354   21.9913  -30.4692 H   0  0  0  0  0  0  0  0  0  0  0  0
   -5.6250   19.6760  -33.5890 H   0  0  0  0  0  0  0  0  0  0  0  0
   -8.2930   19.4100  -33.6000 H   0  0  0  0  0  0  0  0  0  0  0  0
  -10.4120   20.2124  -32.6603 H   0  0  0  0  0  0  0  0  0  0  0  0
  -10.3535   22.0512  -30.9448 H   0  0  0  0  0  0  0  0  0  0  0  0
   -5.8802   23.0310  -29.4399 H   0  0  0  0  0  0  0  0  0  0  0  0
   -4.2214   22.8986  -30.1412 H   0  0  0  0  0  0  0  0  0  0  0  0
   -5.6544   24.4384  -32.0106 H   0  0  0  0  0  0  0  0  0  0  0  0
   -6.2022   25.0460  -30.4051 H   0  0  0  0  0  0  0  0  0  0  0  0
   -4.0340   25.6730  -31.6470 H   0  0  0  0  0  0  0  0  0  0  0  0
  1  2  1  0
  2  3  2  0
  3  4  1  0
  4  5  2  0
  5  6  1  0
  6  7  1  0
  7  8  1  0
  8  9  2  0
  9 10  1  0
 10 11  2  0
 11 12  1  0
 12 13  2  0
 13 14  1  0
 14 15  1  0
 15 16  1  0
 16 17  1  0
  5 18  1  0
 18  2  1  0
 14  6  2  0
 13  8  1  0
  1 19  1  0
  1 20  1  0
  1 21  1  0
  3 22  1  0
  4 23  1  0
  7 24  1  0
  9 25  1  0
 10 26  1  0
 11 27  1  0
 15 28  1  0
 15 29  1  0
 16 30  1  0
 16 31  1  0
 17 32  1  0
M  CHG  1   9   1
M  END
>  <UniqueID>  (10) 
10

>  <SMILES>  (10) 
Cc1ccc(-c2[nH]c3[nH+]ccnc3c2CCO)s1

>  <Energy>  (10) 
95.67115700928657

>  <Genealogy>  (10) 
Cc1ccc(-c2[nH]c3[nH+]ccnc3c2CCO)s1 (protonated)
Cc1ccc(-c2[nH]c3[nH+]ccnc3c2CCO)s1 (3D coordinates assigned)
Cc1ccc(-c2[nH]c3[nH+]ccnc3c2CCO)s1 (optimized conformer: 95.67115700928657 kcal/mol)

>  <smiles>  (10) 
Cc1ccc(-c2[nH]c3nccnc3c2CCO)s1

>  <score_type>  (10) 
oracle

>  <origin>  (10) 
adg

>  <m_score__min__energy>  (10) 
-6.8600000000000003

>  <m_primary>  (10) 
energy

$$$$
10:0
     RDKit          3D

 42 44  0  0  0  0  0  0  0  0999 V2000
   -3.9660   24.1750  -28.1350 C   0  0  0  0  0  0  0  0  0  0  0  0
   -3.3300   24.6940  -29.3890 C   0  0  0  0  0  0  0  0  0  0  0  0
   -2.2230   25.2890  -29.3090 O   0  0  0  0  0  0  0  0  0  0  0  0
   -3.9190   24.4980  -30.6810 N   0  0  0  0  0  0  0  0  0  0  0  0
   -4.3860   23.2570  -31.2300 C   0  0  0  0  0  0  0  0  0  0  0  0
   -5.7630   23.0490  -31.3560 C   0  0  0  0  0  0  0  0  0  0  0  0
   -6.2540   21.8420  -31.8620 C   0  0  0  0  0  0  0  0  0  0  0  0
   -5.3730   20.8130  -32.2370 C   0  0  0  0  0  0  0  0  0  0  0  0
   -5.8780   19.5620  -32.7560 N   0  0  0  0  0  0  0  0  0  0  0  0
   -5.9870   19.3550  -34.2090 C   0  0  0  0  0  0  0  0  0  0  0  0
   -5.7290   17.8870  -34.5720 C   0  0  0  0  0  0  0  0  0  0  0  0
   -6.4530   16.9710  -33.6800 N   0  0  0  0  0  0  0  0  0  0  0  0
   -6.2860   15.5530  -33.8370 C   0  0  0  0  0  0  0  0  0  0  0  0
   -7.2580   14.8050  -34.5190 C   0  0  0  0  0  0  0  0  0  0  0  0
   -7.1090   13.4230  -34.6680 C   0  0  0  0  0  0  0  0  0  0  0  0
   -5.9860   12.7800  -34.1400 C   0  0  0  0  0  0  0  0  0  0  0  0
   -5.0110   13.5180  -33.4640 C   0  0  0  0  0  0  0  0  0  0  0  0
   -5.1570   14.9010  -33.3120 C   0  0  0  0  0  0  0  0  0  0  0  0
   -4.1840   15.6060  -32.6810 F   0  0  0  0  0  0  0  0  0  0  0  0
   -7.2440   17.4980  -32.5630 C   0  0  0  0  0  0  0  0  0  0  0  0
   -6.4370   18.5670  -31.8240 C   0  0  0  0  0  0  0  0  0  0  0  0
   -3.9900   21.0140  -32.0760 C   0  0  0  0  0  0  0  0  0  0  0  0
   -3.5020   22.2220  -31.5710 C   0  0  0  0  0  0  0  0  0  0  0  0
   -3.4493   24.5966  -27.2602 H   0  0  0  0  0  0  0  0  0  0  0  0
   -5.0256   24.4696  -28.1122 H   0  0  0  0  0  0  0  0  0  0  0  0
   -3.8899   23.0779  -28.1122 H   0  0  0  0  0  0  0  0  0  0  0  0
   -6.4648   23.8407  -31.0548 H   0  0  0  0  0  0  0  0  0  0  0  0
   -7.3392   21.6962  -31.9676 H   0  0  0  0  0  0  0  0  0  0  0  0
   -6.9985   19.6353  -34.5381 H   0  0  0  0  0  0  0  0  0  0  0  0
   -5.2336   19.9796  -34.7112 H   0  0  0  0  0  0  0  0  0  0  0  0
   -6.0593   17.7123  -35.6066 H   0  0  0  0  0  0  0  0  0  0  0  0
   -4.6520   17.6912  -34.4635 H   0  0  0  0  0  0  0  0  0  0  0  0
   -8.1415   15.3086  -34.9384 H   0  0  0  0  0  0  0  0  0  0  0  0
   -7.8758   12.8415  -35.2009 H   0  0  0  0  0  0  0  0  0  0  0  0
   -5.8697   11.6924  -34.2567 H   0  0  0  0  0  0  0  0  0  0  0  0
   -4.1269   13.0106  -33.0505 H   0  0  0  0  0  0  0  0  0  0  0  0
   -8.1731   17.9423  -32.9495 H   0  0  0  0  0  0  0  0  0  0  0  0
   -7.4886   16.6798  -31.8697 H   0  0  0  0  0  0  0  0  0  0  0  0
   -7.0950   19.0793  -31.1066 H   0  0  0  0  0  0  0  0  0  0  0  0
   -5.6023   18.0724  -31.3057 H   0  0  0  0  0  0  0  0  0  0  0  0
   -3.2869   20.2136  -32.3499 H   0  0  0  0  0  0  0  0  0  0  0  0
   -2.4189   22.3624  -31.4400 H   0  0  0  0  0  0  0  0  0  0  0  0
  1  2  1  0
  2  3  2  0
  2  4  1  0
  4  5  1  0
  5  6  2  0
  6  7  1  0
  7  8  2  0
  8  9  1  0
  9 10  1  0
 10 11  1  0
 11 12  1  0
 12 13  1  0
 13 14  2  0
 14 15  1  0
 15 16  2  0
 16 17  1  0
 17 18  2  0
 18 19  1  0
 12 20  1  0
 20 21  1  0
  8 22  1  0
 22 23  2  0
 23  5  1  0
 21  9  1  0
 18 13  1  0
  1 24  1  0
  1 25  1  0
  1 26  1  0
  6 27  1  0
  7 28  1  0
 10 29  1  0
 10 30  1  0
 11 31  1  0
 11 32  1  0
 14 33  1  0
 15 34  1  0
 16 35  1  0
 17 36  1  0
 20 37  1  0
 20 38  1  0
 21 39  1  0
 21 40  1  0
 22 41  1  0
 23 42  1  0
M  CHG  1   4  -1
M  END
>  <UniqueID>  (11) 
11

>  <SMILES>  (11) 
CC(=O)[N-]c1ccc(N2CCN(c3ccccc3F)CC2)cc1

>  <Energy>  (11) 
55.72703468543268

>  <Genealogy>  (11) 
CC(=O)[N-]c1ccc(N2CCN(c3ccccc3F)CC2)cc1 (protonated)
CC(=O)[N-]c1ccc(N2CCN(c3ccccc3F)CC2)cc1 (3D coordinates assigned)
CC(=O)[N-]c1ccc(N2CCN(c3ccccc3F)CC2)cc1 (nonaromatic ring conformer: 55.72703468543268 kcal/mol)

>  <smiles>  (11) 
CC(=O)Nc1ccc(N2CCN(c3ccccc3F)CC2)cc1

>  <score_type>  (11) 
oracle

>  <origin>  (11) 
adg

>  <m_score__min__energy>  (11) 
-8.6400000000000006

>  <m_primary>  (11) 
energy

$$$$
11:0
     RDKit          3D

 29 30  0  0  0  0  0  0  0  0999 V2000
   -1.2270   25.7000  -27.7650 C   0  0  0  0  0  0  0  0  0  0  0  0
   -1.9800   25.6700  -28.9720 O   0  0  0  0  0  0  0  0  0  0  0  0
   -2.6000   24.5110  -29.4450 C   0  0  0  0  0  0  0  0  0  0  0  0
   -2.2090   23.2670  -28.9470 C   0  0  0  0  0  0  0  0  0  0  0  0
   -2.8410   22.1220  -29.4330 C   0  0  0  0  0  0  0  0  0  0  0  0
   -2.4590   20.8670  -28.9500 O   0  0  0  0  0  0  0  0  0  0  0  0
   -2.7350   20.4370  -27.6230 C   0  0  0  0  0  0  0  0  0  0  0  0
   -3.8220   22.2410  -30.3710 N   0  0  0  0  0  0  0  0  0  0  0  0
   -4.2020   23.4570  -30.8420 C   0  0  0  0  0  0  0  0  0  0  0  0
   -5.2000   23.5300  -31.8210 O   0  0  0  0  0  0  0  0  0  0  0  0
   -6.2650   22.6280  -31.9610 C   0  0  0  0  0  0  0  0  0  0  0  0
   -7.5430   23.0320  -31.5520 C   0  0  0  0  0  0  0  0  0  0  0  0
   -8.6340   22.1670  -31.6800 C   0  0  0  0  0  0  0  0  0  0  0  0
   -8.4580   20.8940  -32.2310 C   0  0  0  0  0  0  0  0  0  0  0  0
   -9.5170   20.0570  -32.3560 F   0  0  0  0  0  0  0  0  0  0  0  0
   -7.1920   20.4890  -32.6620 C   0  0  0  0  0  0  0  0  0  0  0  0
   -6.0980   21.3520  -32.5350 C   0  0  0  0  0  0  0  0  0  0  0  0
   -3.5830   24.5790  -30.3840 N   0  0  0  0  0  0  0  0  0  0  0  0
   -1.9120   25.6727  -26.9047 H   0  0  0  0  0  0  0  0  0  0  0  0
   -0.5577   24.8278  -27.7286 H   0  0  0  0  0  0  0  0  0  0  0  0
   -0.6292   26.6227  -27.7286 H   0  0  0  0  0  0  0  0  0  0  0  0
   -1.4181   23.1909  -28.1863 H   0  0  0  0  0  0  0  0  0  0  0  0
   -2.2834   21.1406  -26.9082 H   0  0  0  0  0  0  0  0  0  0  0  0
   -3.8234   20.4040  -27.4671 H   0  0  0  0  0  0  0  0  0  0  0  0
   -2.3117   19.4337  -27.4671 H   0  0  0  0  0  0  0  0  0  0  0  0
   -7.6888   24.0362  -31.1275 H   0  0  0  0  0  0  0  0  0  0  0  0
   -9.6319   22.4883  -31.3469 H   0  0  0  0  0  0  0  0  0  0  0  0
   -7.0552   19.4901  -33.1018 H   0  0  0  0  0  0  0  0  0  0  0  0
   -5.1047   21.0335  -32.8842 H   0  0  0  0  0  0  0  0  0  0  0  0
  1  2  1  0
  2  3  1  0
  3  4  2  0
  4  5  1  0
  5  6  1  0
  6  7  1  0
  5  8  2  0
  8  9  1  0
  9 10  1  0
 10 11  1  0
 11 12  2  0
 12 13  1  0
 13 14  2  0
 14 15  1  0
 14 16  1  0
 16 17  2  0
  9 18  2  0
 18  3  1  0
 17 11  1  0
  1 19  1  0
  1 20  1  0
  1 21  1  0
  4 22  1  0
  7 23  1  0
  7 24  1  0
  7 25  1  0
 12 26  1  0
 13 27  1  0
 16 28  1  0
 17 29  1  0
M  END
>  <UniqueID>  (12) 
12

>  <SMILES>  (12) 
COc1cc(OC)nc(Oc2ccc(F)cc2)n1

>  <Energy>  (12) 
30.52935045727568

>  <Genealogy>  (12) 
COc1cc(OC)nc(Oc2ccc(F)cc2)n1 (3D coordinates assigned)
COc1cc(OC)nc(Oc2ccc(F)cc2)n1 (optimized conformer: 30.52935045727568 kcal/mol)

>  <smiles>  (12) 
COc1cc(OC)nc(Oc2ccc(F)cc2)n1

>  <score_type>  (12) 
oracle

>  <origin>  (12) 
adg

>  <m_score__min__energy>  (12) 
-5.96

>  <m_primary>  (12) 
energy

$$$$
12:0
     RDKit          3D

 37 39  0  0  1  0  0  0  0  0999 V2000
   -7.5450   18.9370  -31.9950 C   0  0  0  0  0  0  0  0  0  0  0  0
   -6.9960   20.2200  -33.1600 S   0  0  0  0  0  0  0  0  0  0  0  0
   -5.2070   20.2780  -33.0550 C   0  0  0  0  0  0  0  0  0  0  0  0
   -4.4370   19.1200  -33.2180 C   0  0  0  0  0  0  0  0  0  0  0  0
   -3.0460   19.2100  -33.1270 C   0  0  0  0  0  0  0  0  0  0  0  0
   -2.4130   20.4200  -32.8790 C   0  0  0  0  0  0  0  0  0  0  0  0
   -3.1840   21.5780  -32.7160 C   0  0  0  0  0  0  0  0  0  0  0  0
   -4.5850   21.5110  -32.8030 C   0  0  0  0  0  0  0  0  0  0  0  0
   -5.3880   22.6650  -32.7020 N   0  0  0  0  0  0  0  0  0  0  0  0
   -5.4730   23.4310  -31.7100 C   0  0  0  0  0  0  0  0  0  0  0  0
   -4.3300   23.9660  -31.2140 N   0  0  0  0  0  0  0  0  0  0  0  0
   -4.3530   24.7970  -30.1520 C   0  0  0  0  0  0  0  0  0  0  0  0
   -3.1280   25.2910  -29.7220 O   0  0  0  0  0  0  0  0  0  0  0  0
   -2.1950   24.5490  -29.0130 C   0  0  0  0  0  0  0  0  0  0  0  0
   -1.6540   23.4280  -29.6010 C   0  0  0  0  0  0  0  0  0  0  0  0
   -0.7250   22.6880  -28.8980 C   0  0  0  0  0  0  0  0  0  0  0  0
   -0.3440   23.0700  -27.6230 C   0  0  0  0  0  0  0  0  0  0  0  0
   -0.8880   24.2070  -27.0200 C   0  0  0  0  0  0  0  0  0  0  0  0
   -1.8300   24.9570  -27.7310 C   0  0  0  0  0  0  0  0  0  0  0  0
   -5.5230   25.1050  -29.5690 N   0  0  0  0  0  0  0  0  0  0  0  0
   -6.6790   24.5780  -30.0540 C   0  0  0  0  0  0  0  0  0  0  0  0
   -6.6750   23.7330  -31.1320 C   0  0  0  0  0  0  0  0  0  0  0  0
   -8.3170   23.0380  -31.7510 Br  0  0  0  0  0  0  0  0  0  0  0  0
   -7.3943   19.2893  -30.9639 H   0  0  0  0  0  0  0  0  0  0  0  0
   -8.6122   18.7260  -32.1581 H   0  0  0  0  0  0  0  0  0  0  0  0
   -6.9607   18.0194  -32.1581 H   0  0  0  0  0  0  0  0  0  0  0  0
   -4.9211   18.1521  -33.4151 H   0  0  0  0  0  0  0  0  0  0  0  0
   -2.4388   18.3017  -33.2547 H   0  0  0  0  0  0  0  0  0  0  0  0
   -1.3162   20.4691  -32.8111 H   0  0  0  0  0  0  0  0  0  0  0  0
   -2.6918   22.5419  -32.5195 H   0  0  0  0  0  0  0  0  0  0  0  0
   -1.9572   23.1269  -30.6146 H   0  0  0  0  0  0  0  0  0  0  0  0
   -0.2845   21.7889  -29.3537 H   0  0  0  0  0  0  0  0  0  0  0  0
    0.3981   22.4694  -27.0765 H   0  0  0  0  0  0  0  0  0  0  0  0
   -0.5815   24.5060  -26.0068 H   0  0  0  0  0  0  0  0  0  0  0  0
   -2.2772   25.8573  -27.2844 H   0  0  0  0  0  0  0  0  0  0  0  0
   -5.5360   25.7460  -28.7520 H   0  0  0  0  0  0  0  0  0  0  0  0
   -7.6339   24.8348  -29.5722 H   0  0  0  0  0  0  0  0  0  0  0  0
  1  2  1  0
  2  3  1  0
  3  4  2  0
  4  5  1  0
  5  6  2  0
  6  7  1  0
  7  8  2  0
  8  9  1  0
  9 10  2  0
 10 11  1  0
 11 12  2  0
 12 13  1  0
 13 14  1  0
 14 15  2  0
 15 16  1  0
 16 17  2  0
 17 18  1  0
 18 19  2  0
 12 20  1  0
 20 21  1  0
 21 22  2  0
 22 23  1  0
  8  3  1  0
 22 10  1  0
 19 14  1  0
  1 24  1  0
  1 25  1  0
  1 26  1  0
  4 27  1  0
  5 28  1  0
  6 29  1  0
  7 30  1  0
 15 31  1  0
 16 32  1  0
 17 33  1  0
 18 34  1  0
 19 35  1  0
 20 36  1  0
 21 37  1  0
M  END
>  <smiles>  (13) 
CSc1ccccc1N=c1nc(Oc2ccccc2)[nH]cc1Br

>  <score_type>  (13) 
oracle

>  <origin>  (13) 
adg

>  <m_score__min__energy>  (13) 
-8.9900000000000002

>  <m_primary>  (13) 
energy

$$$$
13:0
     RDKit          3D

 35 36  0  0  0  0  0  0  0  0999 V2000
   -9.5030   21.5660  -30.5100 C   0  0  0  0  0  0  0  0  0  0  0  0
   -9.1690   22.0040  -31.9320 C   0  0  0  0  0  0  0  0  0  0  0  0
   -7.7810   21.6530  -32.2640 N   0  0  0  0  0  0  0  0  0  0  0  0
   -6.7390   22.6910  -32.2920 C   0  0  0  0  0  0  0  0  0  0  0  0
   -6.8860   23.6270  -31.0970 C   0  0  0  0  0  0  0  0  0  0  0  0
   -7.4390   20.2870  -32.5650 C   0  0  0  0  0  0  0  0  0  0  0  0
   -8.2290   19.2350  -32.0740 C   0  0  0  0  0  0  0  0  0  0  0  0
   -7.9010   17.9070  -32.3620 C   0  0  0  0  0  0  0  0  0  0  0  0
   -6.7780   17.6150  -33.1470 C   0  0  0  0  0  0  0  0  0  0  0  0
   -6.4320   16.2900  -33.4480 C   0  0  0  0  0  0  0  0  0  0  0  0
   -5.3270   16.0160  -34.2070 N   0  0  0  0  0  0  0  0  0  0  0  0
   -5.0060   14.6270  -34.5410 C   0  0  0  0  0  0  0  0  0  0  0  0
   -4.5600   17.0280  -34.7140 C   0  0  0  0  0  0  0  0  0  0  0  0
   -4.8660   18.3620  -34.4380 C   0  0  0  0  0  0  0  0  0  0  0  0
   -5.9790   18.6640  -33.6470 C   0  0  0  0  0  0  0  0  0  0  0  0
   -6.3130   19.9950  -33.3530 C   0  0  0  0  0  0  0  0  0  0  0  0
   -8.9969   22.2297  -29.7935 H   0  0  0  0  0  0  0  0  0  0  0  0
  -10.5907   21.6208  -30.3554 H   0  0  0  0  0  0  0  0  0  0  0  0
   -9.1623   20.5316  -30.3554 H   0  0  0  0  0  0  0  0  0  0  0  0
   -9.8483   21.5002  -32.6353 H   0  0  0  0  0  0  0  0  0  0  0  0
   -9.2885   23.0949  -32.0065 H   0  0  0  0  0  0  0  0  0  0  0  0
   -5.7495   22.2118  -32.2570 H   0  0  0  0  0  0  0  0  0  0  0  0
   -6.8442   23.2761  -33.2175 H   0  0  0  0  0  0  0  0  0  0  0  0
   -6.7953   23.0492  -30.1654 H   0  0  0  0  0  0  0  0  0  0  0  0
   -6.0971   24.3928  -31.1318 H   0  0  0  0  0  0  0  0  0  0  0  0
   -7.8717   24.1141  -31.1318 H   0  0  0  0  0  0  0  0  0  0  0  0
   -9.1127   19.4576  -31.4580 H   0  0  0  0  0  0  0  0  0  0  0  0
   -8.5256   17.0900  -31.9716 H   0  0  0  0  0  0  0  0  0  0  0  0
   -7.0536   15.4645  -33.0711 H   0  0  0  0  0  0  0  0  0  0  0  0
   -4.8723   14.0487  -33.6149 H   0  0  0  0  0  0  0  0  0  0  0  0
   -5.8273   14.1922  -35.1295 H   0  0  0  0  0  0  0  0  0  0  0  0
   -4.0772   14.5966  -35.1295 H   0  0  0  0  0  0  0  0  0  0  0  0
   -3.6923   16.7885  -35.3463 H   0  0  0  0  0  0  0  0  0  0  0  0
   -4.2363   19.1695  -34.8398 H   0  0  0  0  0  0  0  0  0  0  0  0
   -5.6899   20.8140  -33.7416 H   0  0  0  0  0  0  0  0  0  0  0  0
  1  2  1  0
  2  3  1  0
  3  4  1  0
  4  5  1  0
  3  6  1  0
  6  7  2  0
  7  8  1  0
  8  9  2  0
  9 10  1  0
 10 11  2  0
 11 12  1  0
 11 13  1  0
 13 14  2  0
 14 15  1  0
 15 16  2  0
 16  6  1  0
 15  9  1  0
  1 17  1  0
  1 18  1  0
  1 19  1  0
  2 20  1  0
  2 21  1  0
  4 22  1  0
  4 23  1  0
  5 24  1  0
  5 25  1  0
  5 26  1  0
  7 27  1  0
  8 28  1  0
 10 29  1  0
 12 30  1  0
 12 31  1  0
 12 32  1  0
 13 33  1  0
 14 34  1  0
 16 35  1  0
M  CHG  1  11   1
M  END
>  <UniqueID>  (14) 
13

>  <SMILES>  (14) 
CCN(CC)c1ccc2c[n+](C)ccc2c1

>  <Energy>  (14) 
35.41111216855863

>  <Genealogy>  (14) 
CCN(CC)c1ccc2c[n+](C)ccc2c1 (3D coordinates assigned)
CCN(CC)c1ccc2c[n+](C)ccc2c1 (optimized conformer: 35.41111216855863 kcal/mol)

>  <smiles>  (14) 
CCN(CC)c1ccc2c[n+](C)ccc2c1

>  <score_type>  (14) 
oracle

>  <origin>  (14) 
adg

>  <m_score__min__energy>  (14) 
-5.5599999999999996

>  <m_primary>  (14) 
energy

$$$$
14:0
     RDKit          3D

 36 38  0  0  0  0  0  0  0  0999 V2000
    0.2260   21.6340  -25.5399 H   0  0  0  0  0  0  0  0  0  0  0  0
   -0.1040   22.6660  -25.3500 C   0  0  0  0  0  0  0  0  0  0  0  0
   -1.1370   23.2280  -26.1180 C   0  0  0  0  0  0  0  0  0  0  0  0
   -1.8230   22.3830  -27.1810 C   0  0  2  0  0  0  0  0  0  0  0  0
   -2.8810   22.6792  -27.1273 H   0  0  0  0  0  0  0  0  0  0  0  0
   -1.6040   20.6010  -26.8350 S   0  0  0  0  0  0  0  0  0  0  0  0
   -0.5790   20.3390  -28.3210 C   0  0  0  0  0  0  0  0  0  0  0  0
   -1.1537   19.7752  -29.0706 H   0  0  0  0  0  0  0  0  0  0  0  0
    0.3233   19.7692  -28.0541 H   0  0  0  0  0  0  0  0  0  0  0  0
   -0.1820   21.6910  -28.8940 C   0  0  0  0  0  0  0  0  0  0  0  0
   -0.0118   21.6071  -29.9775 H   0  0  0  0  0  0  0  0  0  0  0  0
    0.7485   22.0549  -28.4339 H   0  0  0  0  0  0  0  0  0  0  0  0
   -1.3350   22.6460  -28.6180 C   0  0  2  0  0  0  0  0  0  0  0  0
   -2.1652   22.4535  -29.3135 H   0  0  0  0  0  0  0  0  0  0  0  0
   -0.9820   24.0920  -28.9020 C   0  0  0  0  0  0  0  0  0  0  0  0
    0.1740   24.5200  -28.6430 O   0  0  0  0  0  0  0  0  0  0  0  0
   -1.9840   25.0260  -29.3250 N   0  0  0  0  0  0  0  0  0  0  0  0
   -3.2450   24.7580  -29.4930 C   0  0  0  0  0  0  0  0  0  0  0  0
   -3.8810   24.9640  -30.6610 N   0  0  0  0  0  0  0  0  0  0  0  0
   -5.1290   24.5570  -30.4960 N   0  0  0  0  0  0  0  0  0  0  0  0
   -6.1260   24.5490  -31.5570 C   0  0  0  0  0  0  0  0  0  0  0  0
   -7.1328   24.5409  -31.1140 H   0  0  0  0  0  0  0  0  0  0  0  0
   -6.0064   25.4481  -32.1793 H   0  0  0  0  0  0  0  0  0  0  0  0
   -5.9920   23.6519  -32.1793 H   0  0  0  0  0  0  0  0  0  0  0  0
   -5.2960   24.0630  -29.2530 C   0  0  0  0  0  0  0  0  0  0  0  0
   -6.2281   23.6395  -28.8507 H   0  0  0  0  0  0  0  0  0  0  0  0
   -4.1040   24.1770  -28.5700 C   0  0  0  0  0  0  0  0  0  0  0  0
   -3.8845   23.8773  -27.5346 H   0  0  0  0  0  0  0  0  0  0  0  0
   -1.5460   24.5440  -25.8370 C   0  0  0  0  0  0  0  0  0  0  0  0
   -2.3619   25.0042  -26.4136 H   0  0  0  0  0  0  0  0  0  0  0  0
   -0.9110   25.2640  -24.8220 C   0  0  0  0  0  0  0  0  0  0  0  0
   -1.2246   26.2956  -24.6040 H   0  0  0  0  0  0  0  0  0  0  0  0
    0.0920   24.6960  -24.1030 N   0  0  0  0  0  0  0  0  0  0  0  0
    0.5560   25.2480  -23.3460 H   0  0  0  0  0  0  0  0  0  0  0  0
    0.5030   23.4220  -24.3440 C   0  0  0  0  0  0  0  0  0  0  0  0
    1.3158   22.9855  -23.7450 H   0  0  0  0  0  0  0  0  0  0  0  0
  1  2  1  0
  2  3  2  0
  3  4  1  0
  4  5  1  6
  4  6  1  0
  6  7  1  0
  7  8  1  0
  7  9  1  0
  7 10  1  0
 10 11  1  0
 10 12  1  0
 10 13  1  0
 13 14  1  6
 13 15  1  0
 15 16  2  0
 15 17  1  0
 17 18  2  0
 18 19  1  0
 19 20  1  0
 20 21  1  0
 21 22  1  0
 21 23  1  0
 21 24  1  0
 20 25  1  0
 25 26  1  0
 25 27  2  0
 27 28  1  0
  3 29  1  0
 29 30  1  0
 29 31  2  0
 31 32  1  0
 31 33  1  0
 33 34  1  0
 33 35  2  0
 35 36  1  0
 35  2  1  0
 13  4  1  0
 27 18  1  0
M  CHG  2  19  -1  33   1
M  END
>  <UniqueID>  (15) 
14

>  <SMILES>  (15) 
Cn1cc/c(=N\C(=O)[C@H]2CCS[C@H]2c2cc[nH+]cc2)[n-]1

>  <Energy>  (15) 
73.29984121244064

>  <Genealogy>  (15) 
Cn1ccc(=NC(=O)C2CCSC2c2cc[nH+]cc2)[n-]1 (protonated)
Cn1ccc(=NC(=O)[C@H]2CCS[C@H]2c2cc[nH+]cc2)[n-]1 (chirality)
Cn1cc/c(=N\C(=O)[C@H]2CCS[C@H]2c2cc[nH+]cc2)[n-]1 (cis-trans isomerization)
Cn1cc/c(=N\C(=O)[C@H]2CCS[C@H]2c2cc[nH+]cc2)[n-]1 (3D coordinates assigned)
Cn1cc/c(=N\C(=O)[C@H]2CCS[C@H]2c2cc[nH+]cc2)[n-]1 (nonaromatic ring conformer: 73.29984121244064 kcal/mol)

>  <smiles>  (15) 
Cn1ccc(=NC(=O)C2CCSC2c2ccncc2)[nH]1

>  <score_type>  (15) 
oracle

>  <origin>  (15) 
adg

>  <m_score__min__energy>  (15) 
-8.6999999999999993

>  <m_primary>  (15) 
energy

$$$$
15:0
     RDKit          3D

 44 47  0  0  0  0  0  0  0  0999 V2000
   -1.6650   25.3280  -27.5970 C   0  0  0  0  0  0  0  0  0  0  0  0
   -2.0700   25.3300  -28.9620 O   0  0  0  0  0  0  0  0  0  0  0  0
   -2.3580   24.1760  -29.7030 C   0  0  0  0  0  0  0  0  0  0  0  0
   -3.6240   24.0600  -30.2900 C   0  0  0  0  0  0  0  0  0  0  0  0
   -3.9560   22.9330  -31.0450 C   0  0  0  0  0  0  0  0  0  0  0  0
   -3.0160   21.9110  -31.2420 C   0  0  0  0  0  0  0  0  0  0  0  0
   -3.3480   20.7300  -32.0600 C   0  0  0  0  0  0  0  0  0  0  0  0
   -2.5380   19.6480  -32.1560 N   0  0  0  0  0  0  0  0  0  0  0  0
   -3.2250   18.8040  -32.9540 C   0  0  0  0  0  0  0  0  0  0  0  0
   -2.7950   17.5440  -33.3650 C   0  0  0  0  0  0  0  0  0  0  0  0
   -3.6360   16.8140  -34.2210 C   0  0  0  0  0  0  0  0  0  0  0  0
   -4.8640   17.3580  -34.6460 C   0  0  0  0  0  0  0  0  0  0  0  0
   -5.2440   18.6330  -34.2020 C   0  0  0  0  0  0  0  0  0  0  0  0
   -4.4080   19.2960  -33.3630 N   0  0  0  0  0  0  0  0  0  0  0  0
   -4.4990   20.5180  -32.8180 C   0  0  0  0  0  0  0  0  0  0  0  0
   -5.5620   21.4470  -33.0930 N   0  0  0  0  0  0  0  0  0  0  0  0
   -6.8990   21.3000  -32.5890 C   0  0  0  0  0  0  0  0  0  0  0  0
   -7.5460   20.0650  -32.7560 C   0  0  0  0  0  0  0  0  0  0  0  0
   -8.8170   19.8530  -32.2190 C   0  0  0  0  0  0  0  0  0  0  0  0
   -9.4620   20.8760  -31.5250 C   0  0  0  0  0  0  0  0  0  0  0  0
   -8.8530   22.1250  -31.3920 C   0  0  0  0  0  0  0  0  0  0  0  0
   -7.5830   22.3620  -31.9440 C   0  0  0  0  0  0  0  0  0  0  0  0
   -6.9920   23.7420  -31.8340 C   0  0  0  0  0  0  0  0  0  0  0  0
   -1.7580   22.0080  -30.6320 C   0  0  0  0  0  0  0  0  0  0  0  0
   -1.4250   23.1350  -29.8750 C   0  0  0  0  0  0  0  0  0  0  0  0
   -2.5549   25.3324  -26.9505 H   0  0  0  0  0  0  0  0  0  0  0  0
   -1.0680   24.4269  -27.3930 H   0  0  0  0  0  0  0  0  0  0  0  0
   -1.0591   26.2232  -27.3930 H   0  0  0  0  0  0  0  0  0  0  0  0
   -4.3633   24.8633  -30.1553 H   0  0  0  0  0  0  0  0  0  0  0  0
   -4.9595   22.8465  -31.4872 H   0  0  0  0  0  0  0  0  0  0  0  0
   -1.8301   17.1351  -33.0306 H   0  0  0  0  0  0  0  0  0  0  0  0
   -3.3342   15.8124  -34.5612 H   0  0  0  0  0  0  0  0  0  0  0  0
   -5.5194   16.7875  -35.3205 H   0  0  0  0  0  0  0  0  0  0  0  0
   -6.1941   19.0836  -34.5250 H   0  0  0  0  0  0  0  0  0  0  0  0
   -5.3670   22.2350  -33.7500 H   0  0  0  0  0  0  0  0  0  0  0  0
   -7.0477   19.2586  -33.3141 H   0  0  0  0  0  0  0  0  0  0  0  0
   -9.3103   18.8777  -32.3435 H   0  0  0  0  0  0  0  0  0  0  0  0
  -10.4528   20.6984  -31.0814 H   0  0  0  0  0  0  0  0  0  0  0  0
   -9.3716   22.9300  -30.8507 H   0  0  0  0  0  0  0  0  0  0  0  0
   -6.8779   24.0085  -30.7729 H   0  0  0  0  0  0  0  0  0  0  0  0
   -6.0075   23.7594  -32.3244 H   0  0  0  0  0  0  0  0  0  0  0  0
   -7.6587   24.4666  -32.3244 H   0  0  0  0  0  0  0  0  0  0  0  0
   -1.0287   21.1929  -30.7495 H   0  0  0  0  0  0  0  0  0  0  0  0
   -0.4301   23.2091  -29.4117 H   0  0  0  0  0  0  0  0  0  0  0  0
  1  2  1  0
  2  3  1  0
  3  4  2  0
  4  5  1  0
  5  6  2  0
  6  7  1  0
  7  8  1  0
  8  9  2  0
  9 10  1  0
 10 11  2  0
 11 12  1  0
 12 13  2  0
 13 14  1  0
 14 15  1  0
 15 16  1  0
 16 17  1  0
 17 18  2  0
 18 19  1  0
 19 20  2  0
 20 21  1  0
 21 22  2  0
 22 23  1  0
  6 24  1  0
 24 25  2  0
 25  3  1  0
 15  7  2  0
 22 17  1  0
 14  9  1  0
  1 26  1  0
  1 27  1  0
  1 28  1  0
  4 29  1  0
  5 30  1  0
 10 31  1  0
 11 32  1  0
 12 33  1  0
 13 34  1  0
 16 35  1  0
 18 36  1  0
 19 37  1  0
 20 38  1  0
 21 39  1  0
 23 40  1  0
 23 41  1  0
 23 42  1  0
 24 43  1  0
 25 44  1  0
M  END
>  <UniqueID>  (16) 
15

>  <SMILES>  (16) 
COc1ccc(-c2nc3ccccn3c2Nc2ccccc2C)cc1

>  <Energy>  (16) 
93.27799907731516

>  <Genealogy>  (16) 
COc1ccc(-c2nc3ccccn3c2Nc2ccccc2C)cc1 (3D coordinates assigned)
COc1ccc(-c2nc3ccccn3c2Nc2ccccc2C)cc1 (optimized conformer: 93.27799907731516 kcal/mol)

>  <smiles>  (16) 
COc1ccc(-c2nc3ccccn3c2Nc2ccccc2C)cc1

>  <score_type>  (16) 
oracle

>  <origin>  (16) 
adg

>  <m_score__min__energy>  (16) 
-8.5999999999999996

>  <m_primary>  (16) 
energy

$$$$
16:0
     RDKit          3D

 38 40  0  0  0  0  0  0  0  0999 V2000
   -5.5030   16.2040  -33.8080 C   0  0  0  0  0  0  0  0  0  0  0  0
   -6.1700   17.4930  -33.4300 C   0  0  0  0  0  0  0  0  0  0  0  0
   -7.0550   17.5390  -32.3420 C   0  0  0  0  0  0  0  0  0  0  0  0
   -7.6490   18.7470  -31.9670 C   0  0  0  0  0  0  0  0  0  0  0  0
   -7.3490   19.9320  -32.6580 C   0  0  0  0  0  0  0  0  0  0  0  0
   -7.9650   21.1700  -32.2660 N   0  0  0  0  0  0  0  0  0  0  0  0
   -9.2740   21.3930  -32.0390 C   0  0  0  0  0  0  0  0  0  0  0  0
   -9.4920   22.6620  -31.6450 N   0  0  0  0  0  0  0  0  0  0  0  0
   -8.3120   23.2660  -31.6030 N   0  0  0  0  0  0  0  0  0  0  0  0
   -7.3930   22.3570  -31.9780 C   0  0  0  0  0  0  0  0  0  0  0  0
   -5.6270   22.6900  -31.9610 S   0  0  0  0  0  0  0  0  0  0  0  0
   -5.6530   23.5890  -30.3710 C   0  0  0  0  0  0  0  0  0  0  0  0
   -4.9480   24.9010  -30.4920 C   0  0  0  0  0  0  0  0  0  0  0  0
   -5.6170   25.9600  -30.6390 O   0  0  0  0  0  0  0  0  0  0  0  0
   -3.5180   24.9440  -30.4630 N   0  0  0  0  0  0  0  0  0  0  0  0
   -2.7100   24.0970  -29.5950 C   0  0  0  0  0  0  0  0  0  0  0  0
   -1.9670   24.9390  -28.6070 C   0  0  0  0  0  0  0  0  0  0  0  0
   -1.8650   24.6980  -27.2520 C   0  0  0  0  0  0  0  0  0  0  0  0
   -1.1240   25.7450  -26.7450 C   0  0  0  0  0  0  0  0  0  0  0  0
   -0.8250   26.5570  -27.8200 C   0  0  0  0  0  0  0  0  0  0  0  0
   -1.3420   26.0520  -28.9160 O   0  0  0  0  0  0  0  0  0  0  0  0
   -6.4610   19.8850  -33.7440 C   0  0  0  0  0  0  0  0  0  0  0  0
   -5.8680   18.6760  -34.1200 C   0  0  0  0  0  0  0  0  0  0  0  0
   -5.2198   15.6567  -32.8968 H   0  0  0  0  0  0  0  0  0  0  0  0
   -6.1977   15.5922  -34.4022 H   0  0  0  0  0  0  0  0  0  0  0  0
   -4.6023   16.4177  -34.4022 H   0  0  0  0  0  0  0  0  0  0  0  0
   -7.2822   16.6200  -31.7818 H   0  0  0  0  0  0  0  0  0  0  0  0
   -8.3563   18.7698  -31.1249 H   0  0  0  0  0  0  0  0  0  0  0  0
  -10.0630   20.6361  -32.1599 H   0  0  0  0  0  0  0  0  0  0  0  0
   -6.6972   23.7667  -30.0741 H   0  0  0  0  0  0  0  0  0  0  0  0
   -5.1379   22.9804  -29.6132 H   0  0  0  0  0  0  0  0  0  0  0  0
   -3.3654   23.3965  -29.0567 H   0  0  0  0  0  0  0  0  0  0  0  0
   -1.9881   23.5366  -30.2072 H   0  0  0  0  0  0  0  0  0  0  0  0
   -2.2862   23.8491  -26.6935 H   0  0  0  0  0  0  0  0  0  0  0  0
   -0.8308   25.9011  -25.6964 H   0  0  0  0  0  0  0  0  0  0  0  0
   -0.2411   27.4877  -27.7666 H   0  0  0  0  0  0  0  0  0  0  0  0
   -6.2304   20.8043  -34.3023 H   0  0  0  0  0  0  0  0  0  0  0  0
   -5.1605   18.6525  -34.9619 H   0  0  0  0  0  0  0  0  0  0  0  0
  1  2  1  0
  2  3  2  0
  3  4  1  0
  4  5  2  0
  5  6  1  0
  6  7  1  0
  7  8  2  0
  8  9  1  0
  9 10  2  0
 10 11  1  0
 11 12  1  0
 12 13  1  0
 13 14  2  0
 13 15  1  0
 15 16  1  0
 16 17  1  0
 17 18  2  0
 18 19  1  0
 19 20  2  0
 20 21  1  0
  5 22  1  0
 22 23  2  0
 23  2  1  0
 10  6  1  0
 21 17  1  0
  1 24  1  0
  1 25  1  0
  1 26  1  0
  3 27  1  0
  4 28  1  0
  7 29  1  0
 12 30  1  0
 12 31  1  0
 16 32  1  0
 16 33  1  0
 18 34  1  0
 19 35  1  0
 20 36  1  0
 22 37  1  0
 23 38  1  0
M  CHG  1  15  -1
M  END
>  <UniqueID>  (17) 
16

>  <SMILES>  (17) 
Cc1ccc(-n2cnnc2SCC(=O)[N-]Cc2ccco2)cc1

>  <Energy>  (17) 
95.47559158638164

>  <Genealogy>  (17) 
Cc1ccc(-n2cnnc2SCC(=O)[N-]Cc2ccco2)cc1 (protonated)
Cc1ccc(-n2cnnc2SCC(=O)[N-]Cc2ccco2)cc1 (3D coordinates assigned)
Cc1ccc(-n2cnnc2SCC(=O)[N-]Cc2ccco2)cc1 (optimized conformer: 95.47559158638164 kcal/mol)

>  <smiles>  (17) 
Cc1ccc(-n2cnnc2SCC(=O)NCc2ccco2)cc1

>  <score_type>  (17) 
oracle

>  <origin>  (17) 
adg

>  <m_score__min__energy>  (17) 
-11.140000000000001

>  <m_primary>  (17) 
energy

$$$$
17:0
     RDKit          3D

 27 29  0  0  0  0  0  0  0  0999 V2000
   -8.1300   17.5260  -31.9730 F   0  0  0  0  0  0  0  0  0  0  0  0
   -7.1660   17.5360  -32.9280 C   0  0  0  0  0  0  0  0  0  0  0  0
   -6.8120   16.3310  -33.5400 C   0  0  0  0  0  0  0  0  0  0  0  0
   -5.8490   16.3070  -34.5010 N   0  0  0  0  0  0  0  0  0  0  0  0
   -5.2090   17.4400  -34.8900 C   0  0  0  0  0  0  0  0  0  0  0  0
   -5.5300   18.6670  -34.3060 C   0  0  0  0  0  0  0  0  0  0  0  0
   -6.5210   18.7290  -33.3100 C   0  0  0  0  0  0  0  0  0  0  0  0
   -6.8720   20.0270  -32.6790 C   0  0  0  0  0  0  0  0  0  0  0  0
   -5.9610   20.9560  -32.3150 N   0  0  0  0  0  0  0  0  0  0  0  0
   -6.5220   22.0670  -31.7550 C   0  0  0  0  0  0  0  0  0  0  0  0
   -5.6820   23.2030  -31.2890 C   0  0  0  0  0  0  0  0  0  0  0  0
   -6.1800   24.5190  -31.2260 C   0  0  0  0  0  0  0  0  0  0  0  0
   -5.3530   25.5540  -30.7810 C   0  0  0  0  0  0  0  0  0  0  0  0
   -4.0730   25.2950  -30.4080 N   0  0  0  0  0  0  0  0  0  0  0  0
   -3.5610   24.0390  -30.4560 C   0  0  0  0  0  0  0  0  0  0  0  0
   -4.3520   22.9740  -30.8940 C   0  0  0  0  0  0  0  0  0  0  0  0
   -7.9180   22.0210  -31.6710 C   0  0  0  0  0  0  0  0  0  0  0  0
   -8.4270   20.5570  -32.3150 S   0  0  0  0  0  0  0  0  0  0  0  0
   -7.3138   15.3980  -33.2438 H   0  0  0  0  0  0  0  0  0  0  0  0
   -5.5970   15.3970  -34.9480 H   0  0  0  0  0  0  0  0  0  0  0  0
   -4.4339   17.3908  -35.6690 H   0  0  0  0  0  0  0  0  0  0  0  0
   -5.0094   19.5823  -34.6240 H   0  0  0  0  0  0  0  0  0  0  0  0
   -7.2167   24.7315  -31.5261 H   0  0  0  0  0  0  0  0  0  0  0  0
   -5.7403   26.5824  -30.7327 H   0  0  0  0  0  0  0  0  0  0  0  0
   -2.5201   23.8590  -30.1491 H   0  0  0  0  0  0  0  0  0  0  0  0
   -3.9346   21.9569  -30.9299 H   0  0  0  0  0  0  0  0  0  0  0  0
   -8.5674   22.8059  -31.2560 H   0  0  0  0  0  0  0  0  0  0  0  0
  1  2  1  0
  2  3  2  0
  3  4  1  0
  4  5  2  0
  5  6  1  0
  6  7  2  0
  7  8  1  0
  8  9  2  0
  9 10  1  0
 10 11  1  0
 11 12  2  0
 12 13  1  0
 13 14  2  0
 14 15  1  0
 15 16  2  0
 10 17  2  0
 17 18  1  0
  7  2  1  0
 18  8  1  0
 16 11  1  0
  3 19  1  0
  4 20  1  0
  5 21  1  0
  6 22  1  0
 12 23  1  0
 13 24  1  0
 15 25  1  0
 16 26  1  0
 17 27  1  0
M  CHG  1   4   1
M  END
>  <UniqueID>  (18) 
17

>  <SMILES>  (18) 
Fc1c[nH+]ccc1-c1nc(-c2ccncc2)cs1

>  <Energy>  (18) 
64.53829386117646

>  <Genealogy>  (18) 
Fc1c[nH+]ccc1-c1nc(-c2ccncc2)cs1 (protonated)
Fc1c[nH+]ccc1-c1nc(-c2ccncc2)cs1 (3D coordinates assigned)
Fc1c[nH+]ccc1-c1nc(-c2ccncc2)cs1 (optimized conformer: 64.53829386117646 kcal/mol)

>  <smiles>  (18) 
Fc1cnccc1-c1nc(-c2ccncc2)cs1

>  <score_type>  (18) 
oracle

>  <origin>  (18) 
adg

>  <m_score__min__energy>  (18) 
-6.5800000000000001

>  <m_primary>  (18) 
energy

$$$$
18:0
     RDKit          3D

 52 53  0  0  0  0  0  0  0  0999 V2000
   -4.7340   21.9914  -33.7617 H   0  0  0  0  0  0  0  0  0  0  0  0
   -5.0490   21.8380  -32.7190 C   0  0  0  0  0  0  0  0  0  0  0  0
   -5.6720   22.9660  -31.9790 C   0  0  0  0  0  0  0  0  0  0  0  0
   -5.0510   24.0640  -31.9250 O   0  0  0  0  0  0  0  0  0  0  0  0
   -6.9610   22.8560  -31.3170 N   0  0  0  0  0  0  0  0  0  0  0  0
   -8.1890   22.4130  -32.0020 C   0  0  0  0  0  0  0  0  0  0  0  0
   -7.9500   22.1854  -33.0513 H   0  0  0  0  0  0  0  0  0  0  0  0
   -8.9313   23.2220  -31.9344 H   0  0  0  0  0  0  0  0  0  0  0  0
   -8.7840   21.1590  -31.3430 C   0  0  0  0  0  0  0  0  0  0  0  0
   -9.6861   21.4509  -30.7854 H   0  0  0  0  0  0  0  0  0  0  0  0
   -8.0115   20.7366  -30.6836 H   0  0  0  0  0  0  0  0  0  0  0  0
   -9.1640   20.0780  -32.3500 C   0  0  0  0  0  0  0  0  0  0  0  0
   -9.4824   19.1723  -31.8130 H   0  0  0  0  0  0  0  0  0  0  0  0
   -9.9891   20.4390  -32.9816 H   0  0  0  0  0  0  0  0  0  0  0  0
   -8.2945   19.8432  -32.9816 H   0  0  0  0  0  0  0  0  0  0  0  0
   -7.0700   23.2400  -29.9000 C   0  0  0  0  0  0  0  0  0  0  0  0
   -8.0720   22.9775  -29.5297 H   0  0  0  0  0  0  0  0  0  0  0  0
   -6.3011   22.7029  -29.3253 H   0  0  0  0  0  0  0  0  0  0  0  0
   -6.8500   24.7480  -29.7350 C   0  0  0  0  0  0  0  0  0  0  0  0
   -7.0680   25.2491  -30.6897 H   0  0  0  0  0  0  0  0  0  0  0  0
   -7.5207   25.1137  -28.9435 H   0  0  0  0  0  0  0  0  0  0  0  0
   -5.3960   25.0570  -29.3250 C   0  0  0  0  0  0  0  0  0  0  0  0
   -4.7924   25.1787  -30.2365 H   0  0  0  0  0  0  0  0  0  0  0  0
   -5.4113   25.9751  -28.7192 H   0  0  0  0  0  0  0  0  0  0  0  0
   -4.7890   23.9820  -28.4930 N   0  0  0  0  0  0  0  0  0  0  0  0
   -5.5740   23.4270  -28.0760 H   0  0  0  0  0  0  0  0  0  0  0  0
   -4.0080   24.5500  -27.3610 C   0  0  0  0  0  0  0  0  0  0  0  0
   -4.4466   25.5196  -27.0826 H   0  0  0  0  0  0  0  0  0  0  0  0
   -4.0537   23.8290  -26.5315 H   0  0  0  0  0  0  0  0  0  0  0  0
   -2.5180   24.7640  -27.7110 C   0  0  0  0  0  0  0  0  0  0  0  0
   -2.1519   25.6628  -27.1931 H   0  0  0  0  0  0  0  0  0  0  0  0
   -1.9509   23.8777  -27.3901 H   0  0  0  0  0  0  0  0  0  0  0  0
   -2.3460   24.9300  -29.1020 O   0  0  0  0  0  0  0  0  0  0  0  0
   -2.6490   23.7230  -29.7800 C   0  0  0  0  0  0  0  0  0  0  0  0
   -2.7693   23.9442  -30.8508 H   0  0  0  0  0  0  0  0  0  0  0  0
   -1.8191   23.0257  -29.5928 H   0  0  0  0  0  0  0  0  0  0  0  0
   -3.9440   23.0450  -29.2690 C   0  0  0  0  0  0  0  0  0  0  0  0
   -4.5189   22.6798  -30.1328 H   0  0  0  0  0  0  0  0  0  0  0  0
   -3.6559   22.2164  -28.6054 H   0  0  0  0  0  0  0  0  0  0  0  0
   -4.8600   20.6370  -32.1500 C   0  0  0  0  0  0  0  0  0  0  0  0
   -4.1942   20.5760  -31.2765 H   0  0  0  0  0  0  0  0  0  0  0  0
   -5.4980   19.3870  -32.6320 C   0  0  0  0  0  0  0  0  0  0  0  0
   -6.2190   18.6020  -31.7170 C   0  0  0  0  0  0  0  0  0  0  0  0
   -6.2917   18.9189  -30.6661 H   0  0  0  0  0  0  0  0  0  0  0  0
   -6.8450   17.4220  -32.1290 C   0  0  0  0  0  0  0  0  0  0  0  0
   -7.3997   16.8114  -31.4014 H   0  0  0  0  0  0  0  0  0  0  0  0
   -6.7670   17.0180  -33.4620 C   0  0  0  0  0  0  0  0  0  0  0  0
   -7.2560   16.0867  -33.7839 H   0  0  0  0  0  0  0  0  0  0  0  0
   -6.0680   17.7960  -34.3880 C   0  0  0  0  0  0  0  0  0  0  0  0
   -6.0116   17.4784  -35.4396 H   0  0  0  0  0  0  0  0  0  0  0  0
   -5.4400   18.9770  -33.9820 C   0  0  0  0  0  0  0  0  0  0  0  0
   -4.8982   19.5898  -34.7175 H   0  0  0  0  0  0  0  0  0  0  0  0
  1  2  1  0
  2  3  1  0
  3  4  2  0
  3  5  1  0
  5  6  1  0
  6  7  1  0
  6  8  1  0
  6  9  1  0
  9 10  1  0
  9 11  1  0
  9 12  1  0
 12 13  1  0
 12 14  1  0
 12 15  1  0
  5 16  1  0
 16 17  1  0
 16 18  1  0
 16 19  1  0
 19 20  1  0
 19 21  1  0
 19 22  1  0
 22 23  1  0
 22 24  1  0
 22 25  1  0
 25 26  1  0
 25 27  1  0
 27 28  1  0
 27 29  1  0
 27 30  1  0
 30 31  1  0
 30 32  1  0
 30 33  1  0
 33 34  1  0
 34 35  1  0
 34 36  1  0
 34 37  1  0
 37 38  1  0
 37 39  1  0
  2 40  2  0
 40 41  1  0
 40 42  1  0
 42 43  2  0
 43 44  1  0
 43 45  1  0
 45 46  1  0
 45 47  2  0
 47 48  1  0
 47 49  1  0
 49 50  1  0
 49 51  2  0
 51 52  1  0
 37 25  1  0
 51 42  1  0
M  CHG  1  25   1
M  END
>  <UniqueID>  (19) 
18

>  <SMILES>  (19) 
CCCN(CCC[NH+]1CCOCC1)C(=O)/C=C/c1ccccc1

>  <Energy>  (19) 
59.87812323581974

>  <Genealogy>  (19) 
CCCN(CCC[NH+]1CCOCC1)C(=O)C=Cc1ccccc1 (protonated)
CCCN(CCC[NH+]1CCOCC1)C(=O)/C=C/c1ccccc1 (cis-trans isomerization)
CCCN(CCC[NH+]1CCOCC1)C(=O)/C=C/c1ccccc1 (3D coordinates assigned)
CCCN(CCC[NH+]1CCOCC1)C(=O)/C=C/c1ccccc1 (nonaromatic ring conformer: 59.87812323581974 kcal/mol)

>  <smiles>  (19) 
CCCN(CCCN1CCOCC1)C(=O)C=Cc1ccccc1

>  <score_type>  (19) 
oracle

>  <origin>  (19) 
adg

>  <m_score__min__energy>  (19) 
-7.4400000000000004

>  <m_primary>  (19) 
energy

$$$$
19:0
     RDKit          3D

 48 50  0  0  0  0  0  0  0  0999 V2000
   -6.4640   24.9020  -29.7930 C   0  0  0  0  0  0  0  0  0  0  0  0
   -5.2570   25.5440  -30.4670 C   0  0  0  0  0  0  0  0  0  0  0  0
   -4.0270   24.7270  -30.2340 C   0  0  0  0  0  0  0  0  0  0  0  0
   -3.1250   25.0130  -29.2710 N   0  0  0  0  0  0  0  0  0  0  0  0
   -2.1760   24.0740  -29.4330 C   0  0  0  0  0  0  0  0  0  0  0  0
   -0.9230   24.0170  -28.6190 C   0  0  0  0  0  0  0  0  0  0  0  0
   -2.5190   23.2570  -30.4930 C   0  0  0  0  0  0  0  0  0  0  0  0
   -1.7400   22.0810  -31.0290 C   0  0  0  0  0  0  0  0  0  0  0  0
   -2.5950   21.0800  -31.7030 N   0  0  0  0  0  0  0  0  0  0  0  0
   -3.1140   21.5050  -33.0290 C   0  0  0  0  0  0  0  0  0  0  0  0
   -4.6160   21.8430  -33.0270 C   0  0  0  0  0  0  0  0  0  0  0  0
   -5.3960   20.8220  -32.3230 N   0  0  0  0  0  0  0  0  0  0  0  0
   -6.8130   20.9890  -32.2060 C   0  0  0  0  0  0  0  0  0  0  0  0
   -7.3310   22.1870  -31.7020 C   0  0  0  0  0  0  0  0  0  0  0  0
   -8.7120   22.3580  -31.5860 C   0  0  0  0  0  0  0  0  0  0  0  0
   -9.5800   21.3350  -31.9710 C   0  0  0  0  0  0  0  0  0  0  0  0
   -9.0700   20.1350  -32.4730 C   0  0  0  0  0  0  0  0  0  0  0  0
   -7.6790   19.9500  -32.5930 C   0  0  0  0  0  0  0  0  0  0  0  0
   -7.1230   18.7590  -33.0850 O   0  0  0  0  0  0  0  0  0  0  0  0
   -7.0980   17.5240  -32.3760 C   0  0  0  0  0  0  0  0  0  0  0  0
   -4.7160   19.7830  -31.5530 C   0  0  0  0  0  0  0  0  0  0  0  0
   -3.5610   20.4260  -30.7910 C   0  0  0  0  0  0  0  0  0  0  0  0
   -3.6830   23.6800  -31.0150 N   0  0  0  0  0  0  0  0  0  0  0  0
   -6.3495   24.9629  -28.7007 H   0  0  0  0  0  0  0  0  0  0  0  0
   -7.3786   25.4328  -30.0960 H   0  0  0  0  0  0  0  0  0  0  0  0
   -6.5350   23.8469  -30.0960 H   0  0  0  0  0  0  0  0  0  0  0  0
   -5.4432   25.6164  -31.5487 H   0  0  0  0  0  0  0  0  0  0  0  0
   -5.1034   26.5456  -30.0391 H   0  0  0  0  0  0  0  0  0  0  0  0
   -1.1797   24.0287  -27.5494 H   0  0  0  0  0  0  0  0  0  0  0  0
   -0.3746   23.0930  -28.8544 H   0  0  0  0  0  0  0  0  0  0  0  0
   -0.2929   24.8874  -28.8544 H   0  0  0  0  0  0  0  0  0  0  0  0
   -0.9983   22.4520  -31.7517 H   0  0  0  0  0  0  0  0  0  0  0  0
   -1.2643   21.5831  -30.1712 H   0  0  0  0  0  0  0  0  0  0  0  0
   -2.5576   22.3981  -33.3496 H   0  0  0  0  0  0  0  0  0  0  0  0
   -2.9767   20.6560  -33.7148 H   0  0  0  0  0  0  0  0  0  0  0  0
   -4.7634   22.8123  -32.5282 H   0  0  0  0  0  0  0  0  0  0  0  0
   -4.9619   21.8825  -34.0705 H   0  0  0  0  0  0  0  0  0  0  0  0
   -6.6497   22.9949  -31.3968 H   0  0  0  0  0  0  0  0  0  0  0  0
   -9.1168   23.3012  -31.1903 H   0  0  0  0  0  0  0  0  0  0  0  0
  -10.6673   21.4738  -31.8790 H   0  0  0  0  0  0  0  0  0  0  0  0
   -9.7576   19.3315  -32.7757 H   0  0  0  0  0  0  0  0  0  0  0  0
   -7.1020   17.7222  -31.2940 H   0  0  0  0  0  0  0  0  0  0  0  0
   -7.9843   16.9298  -32.6432 H   0  0  0  0  0  0  0  0  0  0  0  0
   -6.1884   16.9662  -32.6432 H   0  0  0  0  0  0  0  0  0  0  0  0
   -5.4207   19.3257  -30.8428 H   0  0  0  0  0  0  0  0  0  0  0  0
   -4.3354   19.0013  -32.2269 H   0  0  0  0  0  0  0  0  0  0  0  0
   -3.9663   21.1810  -30.1013 H   0  0  0  0  0  0  0  0  0  0  0  0
   -3.0303   19.6333  -30.2432 H   0  0  0  0  0  0  0  0  0  0  0  0
  1  2  1  0
  2  3  1  0
  3  4  2  0
  4  5  1  0
  5  6  1  0
  5  7  2  0
  7  8  1  0
  8  9  1  0
  9 10  1  0
 10 11  1  0
 11 12  1  0
 12 13  1  0
 13 14  2  0
 14 15  1  0
 15 16  2  0
 16 17  1  0
 17 18  2  0
 18 19  1  0
 19 20  1  0
 12 21  1  0
 21 22  1  0
  7 23  1  0
 23  3  1  0
 22  9  1  0
 18 13  1  0
  1 24  1  0
  1 25  1  0
  1 26  1  0
  2 27  1  0
  2 28  1  0
  6 29  1  0
  6 30  1  0
  6 31  1  0
  8 32  1  0
  8 33  1  0
 10 34  1  0
 10 35  1  0
 11 36  1  0
 11 37  1  0
 14 38  1  0
 15 39  1  0
 16 40  1  0
 17 41  1  0
 20 42  1  0
 20 43  1  0
 20 44  1  0
 21 45  1  0
 21 46  1  0
 22 47  1  0
 22 48  1  0
M  CHG  1  23  -1
M  END
>  <UniqueID>  (20) 
19

>  <SMILES>  (20) 
CCc1nc(C)c(CN2CCN(c3ccccc3OC)CC2)[n-]1

>  <Energy>  (20) 
83.26922923461298

>  <Genealogy>  (20) 
CCc1nc(C)c(CN2CCN(c3ccccc3OC)CC2)[n-]1 (protonated)
CCc1nc(C)c(CN2CCN(c3ccccc3OC)CC2)[n-]1 (3D coordinates assigned)
CCc1nc(C)c(CN2CCN(c3ccccc3OC)CC2)[n-]1 (nonaromatic ring conformer: 83.26922923461298 kcal/mol)

>  <smiles>  (20) 
CCc1nc(C)c(CN2CCN(c3ccccc3OC)CC2)[nH]1

>  <score_type>  (20) 
oracle

>  <origin>  (20) 
adg

>  <m_score__min__energy>  (20) 
-8.5399999999999991

>  <m_primary>  (20) 
energy

$$$$
20:0
     RDKit          3D

 44 47  0  0  0  0  0  0  0  0999 V2000
   -9.0550   18.9050  -32.2490 C   0  0  0  0  0  0  0  0  0  0  0  0
   -9.4800   20.2080  -31.9730 C   0  0  0  0  0  0  0  0  0  0  0  0
   -8.5750   21.2710  -32.0320 C   0  0  0  0  0  0  0  0  0  0  0  0
   -7.2250   21.0340  -32.3570 C   0  0  0  0  0  0  0  0  0  0  0  0
   -6.2590   22.0570  -32.4180 C   0  0  0  0  0  0  0  0  0  0  0  0
   -6.6460   23.7750  -32.0370 S   0  0  0  0  0  0  0  0  0  0  0  0
   -5.9050   23.7550  -30.3630 C   0  0  0  0  0  0  0  0  0  0  0  0
   -4.9510   24.9350  -30.0990 C   0  0  0  0  0  0  0  0  0  0  0  0
   -3.5420   24.5620  -30.3690 N   0  0  0  0  0  0  0  0  0  0  0  0
   -2.7260   24.5740  -29.1450 C   0  0  0  0  0  0  0  0  0  0  0  0
   -2.7430   23.1720  -28.5490 C   0  0  0  0  0  0  0  0  0  0  0  0
   -3.2860   22.2730  -29.6430 C   0  0  0  0  0  0  0  0  0  0  0  0
   -3.4440   23.1770  -30.8540 C   0  0  0  0  0  0  0  0  0  0  0  0
   -4.9860   21.7530  -32.7840 N   0  0  0  0  0  0  0  0  0  0  0  0
   -4.6040   20.4800  -33.0710 C   0  0  0  0  0  0  0  0  0  0  0  0
   -3.2010   20.1890  -33.4570 C   0  0  0  0  0  0  0  0  0  0  0  0
   -2.2240   21.1990  -33.4270 C   0  0  0  0  0  0  0  0  0  0  0  0
   -0.9090   20.9030  -33.7950 C   0  0  0  0  0  0  0  0  0  0  0  0
   -0.5740   19.6430  -34.1810 N   0  0  0  0  0  0  0  0  0  0  0  0
   -1.4950   18.6440  -34.2210 C   0  0  0  0  0  0  0  0  0  0  0  0
   -2.8210   18.8970  -33.8610 C   0  0  0  0  0  0  0  0  0  0  0  0
   -5.5180   19.4760  -32.9950 N   0  0  0  0  0  0  0  0  0  0  0  0
   -6.8070   19.7160  -32.6490 C   0  0  0  0  0  0  0  0  0  0  0  0
   -7.7230   18.6590  -32.5890 C   0  0  0  0  0  0  0  0  0  0  0  0
   -9.7713   18.0718  -32.1982 H   0  0  0  0  0  0  0  0  0  0  0  0
  -10.5308   20.3971  -31.7084 H   0  0  0  0  0  0  0  0  0  0  0  0
   -8.9176   22.2954  -31.8242 H   0  0  0  0  0  0  0  0  0  0  0  0
   -6.7174   23.7917  -29.6222 H   0  0  0  0  0  0  0  0  0  0  0  0
   -5.3094   22.8336  -30.2839 H   0  0  0  0  0  0  0  0  0  0  0  0
   -5.2306   25.7744  -30.7526 H   0  0  0  0  0  0  0  0  0  0  0  0
   -5.0370   25.2196  -29.0399 H   0  0  0  0  0  0  0  0  0  0  0  0
   -1.6929   24.8627  -29.3888 H   0  0  0  0  0  0  0  0  0  0  0  0
   -3.1323   25.2987  -28.4241 H   0  0  0  0  0  0  0  0  0  0  0  0
   -1.7261   22.8622  -28.2662 H   0  0  0  0  0  0  0  0  0  0  0  0
   -3.3579   23.1233  -27.6382 H   0  0  0  0  0  0  0  0  0  0  0  0
   -2.5801   21.4575  -29.8590 H   0  0  0  0  0  0  0  0  0  0  0  0
   -4.2361   21.7996  -29.3546 H   0  0  0  0  0  0  0  0  0  0  0  0
   -2.5714   23.0727  -31.5156 H   0  0  0  0  0  0  0  0  0  0  0  0
   -4.3446   22.9038  -31.4235 H   0  0  0  0  0  0  0  0  0  0  0  0
   -2.4937   22.2188  -33.1149 H   0  0  0  0  0  0  0  0  0  0  0  0
   -0.1425   21.6916  -33.7724 H   0  0  0  0  0  0  0  0  0  0  0  0
   -1.1955   17.6340  -34.5376 H   0  0  0  0  0  0  0  0  0  0  0  0
   -3.5655   18.0879  -33.8935 H   0  0  0  0  0  0  0  0  0  0  0  0
   -7.3931   17.6332  -32.8100 H   0  0  0  0  0  0  0  0  0  0  0  0
  1  2  2  0
  2  3  1  0
  3  4  2  0
  4  5  1  0
  5  6  1  0
  6  7  1  0
  7  8  1  0
  8  9  1  0
  9 10  1  0
 10 11  1  0
 11 12  1  0
 12 13  1  0
  5 14  2  0
 14 15  1  0
 15 16  1  0
 16 17  2  0
 17 18  1  0
 18 19  2  0
 19 20  1  0
 20 21  2  0
 15 22  2  0
 22 23  1  0
 23 24  2  0
 24  1  1  0
 23  4  1  0
 13  9  1  0
 21 16  1  0
  1 25  1  0
  2 26  1  0
  3 27  1  0
  7 28  1  0
  7 29  1  0
  8 30  1  0
  8 31  1  0
 10 32  1  0
 10 33  1  0
 11 34  1  0
 11 35  1  0
 12 36  1  0
 12 37  1  0
 13 38  1  0
 13 39  1  0
 17 40  1  0
 18 41  1  0
 20 42  1  0
 21 43  1  0
 24 44  1  0
M  END
>  <UniqueID>  (21) 
20

>  <SMILES>  (21) 
c1ccc2c(SCCN3CCCC3)nc(-c3ccncc3)nc2c1

>  <Energy>  (21) 
54.41567405960186

>  <Genealogy>  (21) 
c1ccc2c(SCCN3CCCC3)nc(-c3ccncc3)nc2c1 (3D coordinates assigned)
c1ccc2c(SCCN3CCCC3)nc(-c3ccncc3)nc2c1 (nonaromatic ring conformer: 54.41567405960186 kcal/mol)

>  <smiles>  (21) 
c1ccc2c(SCCN3CCCC3)nc(-c3ccncc3)nc2c1

>  <score_type>  (21) 
oracle

>  <origin>  (21) 
adg

>  <m_score__min__energy>  (21) 
-8.5800000000000001

>  <m_primary>  (21) 
energy

$$$$
21:0
     RDKit          3D

 37 39  0  0  0  0  0  0  0  0999 V2000
   -7.3500   17.4590  -32.5840 C   0  0  0  0  0  0  0  0  0  0  0  0
   -8.2500   18.5340  -32.3360 O   0  0  0  0  0  0  0  0  0  0  0  0
   -7.8550   19.8590  -32.1010 C   0  0  0  0  0  0  0  0  0  0  0  0
   -8.6890   20.7930  -31.4550 C   0  0  0  0  0  0  0  0  0  0  0  0
   -8.2500   22.1030  -31.2440 C   0  0  0  0  0  0  0  0  0  0  0  0
   -6.9790   22.5040  -31.6840 C   0  0  0  0  0  0  0  0  0  0  0  0
   -6.4940   23.9000  -31.4240 C   0  0  0  0  0  0  0  0  0  0  0  0
   -5.0470   23.9490  -31.5930 N   0  0  0  0  0  0  0  0  0  0  0  0
   -4.1440   24.5070  -30.6340 C   0  0  0  0  0  0  0  0  0  0  0  0
   -4.2430   25.7270  -30.3390 O   0  0  0  0  0  0  0  0  0  0  0  0
   -3.1250   23.6850  -29.9580 C   0  0  0  0  0  0  0  0  0  0  0  0
   -3.2770   22.2920  -29.9200 C   0  0  0  0  0  0  0  0  0  0  0  0
   -2.3220   21.4890  -29.2900 C   0  0  0  0  0  0  0  0  0  0  0  0
   -1.2060   22.0760  -28.6800 C   0  0  0  0  0  0  0  0  0  0  0  0
   -0.2330   21.2960  -28.0440 C   0  0  0  0  0  0  0  0  0  0  0  0
    0.8640   21.9110  -27.4370 C   0  0  0  0  0  0  0  0  0  0  0  0
    0.9760   23.3030  -27.4720 C   0  0  0  0  0  0  0  0  0  0  0  0
    0.0260   24.0510  -28.0930 N   0  0  0  0  0  0  0  0  0  0  0  0
   -1.0550   23.4810  -28.6950 C   0  0  0  0  0  0  0  0  0  0  0  0
   -2.0180   24.2830  -29.3240 C   0  0  0  0  0  0  0  0  0  0  0  0
   -1.8840   25.6680  -29.3030 O   0  0  0  0  0  0  0  0  0  0  0  0
   -6.1430   21.5700  -32.3120 C   0  0  0  0  0  0  0  0  0  0  0  0
   -6.5820   20.2600  -32.5220 C   0  0  0  0  0  0  0  0  0  0  0  0
   -7.0023   17.0436  -31.6266 H   0  0  0  0  0  0  0  0  0  0  0  0
   -7.8649   16.6749  -33.1585 H   0  0  0  0  0  0  0  0  0  0  0  0
   -6.4875   17.8280  -33.1585 H   0  0  0  0  0  0  0  0  0  0  0  0
   -9.6903   20.4897  -31.1152 H   0  0  0  0  0  0  0  0  0  0  0  0
   -8.9039   22.8233  -30.7305 H   0  0  0  0  0  0  0  0  0  0  0  0
   -6.9701   24.5922  -32.1341 H   0  0  0  0  0  0  0  0  0  0  0  0
   -6.7541   24.1940  -30.3964 H   0  0  0  0  0  0  0  0  0  0  0  0
   -4.1558   21.8266  -30.3902 H   0  0  0  0  0  0  0  0  0  0  0  0
   -2.4468   20.3962  -29.2732 H   0  0  0  0  0  0  0  0  0  0  0  0
   -0.3324   20.2007  -28.0224 H   0  0  0  0  0  0  0  0  0  0  0  0
    1.6330   21.3048  -26.9358 H   0  0  0  0  0  0  0  0  0  0  0  0
    1.8362   23.7956  -26.9952 H   0  0  0  0  0  0  0  0  0  0  0  0
   -5.1370   21.8697  -32.6409 H   0  0  0  0  0  0  0  0  0  0  0  0
   -5.9209   19.5374  -33.0228 H   0  0  0  0  0  0  0  0  0  0  0  0
  1  2  1  0
  2  3  1  0
  3  4  2  0
  4  5  1  0
  5  6  2  0
  6  7  1  0
  7  8  1  0
  8  9  1  0
  9 10  2  0
  9 11  1  0
 11 12  2  0
 12 13  1  0
 13 14  2  0
 14 15  1  0
 15 16  2  0
 16 17  1  0
 17 18  2  0
 18 19  1  0
 19 20  2  0
 20 21  1  0
  6 22  1  0
 22 23  2  0
 23  3  1  0
 20 11  1  0
 19 14  1  0
  1 24  1  0
  1 25  1  0
  1 26  1  0
  4 27  1  0
  5 28  1  0
  7 29  1  0
  7 30  1  0
 12 31  1  0
 13 32  1  0
 15 33  1  0
 16 34  1  0
 17 35  1  0
 22 36  1  0
 23 37  1  0
M  CHG  2   8  -1  21  -1
M  END
>  <UniqueID>  (22) 
21

>  <SMILES>  (22) 
COc1ccc(C[N-]C(=O)c2ccc3cccnc3c2[O-])cc1

>  <Energy>  (22) 
47.24956285384415

>  <Genealogy>  (22) 
COc1ccc(C[N-]C(=O)c2ccc3cccnc3c2[O-])cc1 (protonated)
COc1ccc(C[N-]C(=O)c2ccc3cccnc3c2[O-])cc1 (3D coordinates assigned)
COc1ccc(C[N-]C(=O)c2ccc3cccnc3c2[O-])cc1 (optimized conformer: 47.24956285384415 kcal/mol)

>  <smiles>  (22) 
COc1ccc(CNC(=O)c2ccc3cccnc3c2O)cc1

>  <score_type>  (22) 
oracle

>  <origin>  (22) 
adg

>  <m_score__min__energy>  (22) 
-12.35

>  <m_primary>  (22) 
energy

$$$$
22:0
     RDKit          3D

 43 46  0  0  0  0  0  0  0  0999 V2000
   -9.1190   21.5320  -30.7630 C   0  0  0  0  0  0  0  0  0  0  0  0
   -8.1640   21.3990  -31.8650 N   0  0  0  0  0  0  0  0  0  0  0  0
   -7.9860   20.0000  -32.2850 C   0  0  0  0  0  0  0  0  0  0  0  0
   -6.5280   19.6910  -32.7010 C   0  0  0  0  0  0  0  0  0  0  0  0
   -5.5010   20.5400  -32.0520 N   0  0  0  0  0  0  0  0  0  0  0  0
   -4.1970   19.9170  -31.8710 C   0  0  1  0  0  0  0  0  0  0  0  0
   -3.2840   20.3930  -33.0030 C   0  0  0  0  0  0  0  0  0  0  0  0
   -3.9020   21.6940  -33.4750 C   0  0  0  0  0  0  0  0  0  0  0  0
   -5.2300   21.8150  -32.7090 C   0  0  2  0  0  0  0  0  0  0  0  0
   -5.1610   22.8790  -31.6740 N   0  0  0  0  0  0  0  0  0  0  0  0
   -6.0990   23.8880  -31.7320 C   0  0  0  0  0  0  0  0  0  0  0  0
   -7.1350   23.7760  -32.4460 O   0  0  0  0  0  0  0  0  0  0  0  0
   -5.9310   25.0620  -31.0120 C   0  0  0  0  0  0  0  0  0  0  0  0
   -4.7890   25.2510  -30.2580 C   0  0  0  0  0  0  0  0  0  0  0  0
   -3.8480   24.2200  -30.1290 C   0  0  0  0  0  0  0  0  0  0  0  0
   -2.6590   24.4110  -29.3830 C   0  0  0  0  0  0  0  0  0  0  0  0
   -2.2730   25.6470  -28.8530 O   0  0  0  0  0  0  0  0  0  0  0  0
   -1.8050   23.3390  -29.1650 C   0  0  0  0  0  0  0  0  0  0  0  0
   -2.1250   22.0740  -29.6260 C   0  0  0  0  0  0  0  0  0  0  0  0
   -3.2860   21.8370  -30.3840 C   0  0  0  0  0  0  0  0  0  0  0  0
   -4.1230   22.9560  -30.7460 C   0  0  0  0  0  0  0  0  0  0  0  0
   -3.6780   20.3650  -30.5060 C   0  0  0  0  0  0  0  0  0  0  0  0
   -8.5851   21.4576  -29.8041 H   0  0  0  0  0  0  0  0  0  0  0  0
   -9.6208   22.5087  -30.8285 H   0  0  0  0  0  0  0  0  0  0  0  0
   -9.8685   20.7296  -30.8285 H   0  0  0  0  0  0  0  0  0  0  0  0
   -7.2440   21.7990  -31.5660 H   0  0  0  0  0  0  0  0  0  0  0  0
   -8.2617   19.3418  -31.4479 H   0  0  0  0  0  0  0  0  0  0  0  0
   -8.6288   19.8280  -33.1609 H   0  0  0  0  0  0  0  0  0  0  0  0
   -6.3150   18.6422  -32.4466 H   0  0  0  0  0  0  0  0  0  0  0  0
   -6.4640   19.8990  -33.7793 H   0  0  0  0  0  0  0  0  0  0  0  0
   -4.2408   18.8183  -31.9025 H   0  0  0  0  0  0  0  0  0  0  0  0
   -2.2620   20.5611  -32.6324 H   0  0  0  0  0  0  0  0  0  0  0  0
   -3.2043   19.6525  -33.8125 H   0  0  0  0  0  0  0  0  0  0  0  0
   -3.2423   22.5419  -33.2384 H   0  0  0  0  0  0  0  0  0  0  0  0
   -4.0550   21.7035  -34.5643 H   0  0  0  0  0  0  0  0  0  0  0  0
   -6.0264   22.0746  -33.4220 H   0  0  0  0  0  0  0  0  0  0  0  0
   -6.7065   25.8416  -31.0415 H   0  0  0  0  0  0  0  0  0  0  0  0
   -4.6173   26.2149  -29.7566 H   0  0  0  0  0  0  0  0  0  0  0  0
   -2.6560   26.0570  -28.0130 H   0  0  0  0  0  0  0  0  0  0  0  0
   -0.8629   23.4966  -28.6195 H   0  0  0  0  0  0  0  0  0  0  0  0
   -1.4549   21.2331  -29.3939 H   0  0  0  0  0  0  0  0  0  0  0  0
   -2.7901   19.7604  -30.2694 H   0  0  0  0  0  0  0  0  0  0  0  0
   -4.5188   20.2253  -29.8106 H   0  0  0  0  0  0  0  0  0  0  0  0
  1  2  1  0
  2  3  1  0
  3  4  1  0
  4  5  1  0
  5  6  1  0
  6  7  1  0
  7  8  1  0
  8  9  1  0
  9 10  1  0
 10 11  1  0
 11 12  2  0
 11 13  1  0
 13 14  2  0
 14 15  1  0
 15 16  1  0
 16 17  1  0
 16 18  2  0
 18 19  1  0
 19 20  2  0
 20 21  1  0
 20 22  1  0
  9  5  1  0
 21 10  1  0
 22  6  1  0
 21 15  2  0
  1 23  1  0
  1 24  1  0
  1 25  1  0
  2 26  1  0
  3 27  1  0
  3 28  1  0
  4 29  1  0
  4 30  1  0
  6 31  1  1
  7 32  1  0
  7 33  1  0
  8 34  1  0
  8 35  1  0
  9 36  1  6
 13 37  1  0
 14 38  1  0
 17 39  1  0
 18 40  1  0
 19 41  1  0
 22 42  1  0
 22 43  1  0
M  END
>  <UniqueID>  (23) 
22

>  <SMILES>  (23) 
CNCCN1[C@H]2CC[C@@H]1n1c(=O)ccc3c(O)ccc(c31)C2

>  <Energy>  (23) 
84.62267331581572

>  <Genealogy>  (23) 
CNCCN1[C@H]2CC[C@@H]1n1c(=O)ccc3c(O)ccc(c31)C2 (chirality)
CNCCN1[C@H]2CC[C@@H]1n1c(=O)ccc3c(O)ccc(c31)C2 (3D coordinates assigned)
CNCCN1[C@H]2CC[C@@H]1n1c(=O)ccc3c(O)ccc(c31)C2 (nonaromatic ring conformer: 84.62267331581572 kcal/mol)

>  <smiles>  (23) 
CNCCN1C2CCC1n1c(=O)ccc3c(O)ccc(c31)C2

>  <score_type>  (23) 
oracle

>  <origin>  (23) 
adg

>  <m_score__min__energy>  (23) 
-7.4500000000000002

>  <m_primary>  (23) 
energy

$$$$
23:0
     RDKit          3D

 48 51  0  0  0  0  0  0  0  0999 V2000
   -5.7420   19.6130  -34.3680 O   0  0  0  0  0  0  0  0  0  0  0  0
   -4.9050   19.0650  -33.6030 C   0  0  0  0  0  0  0  0  0  0  0  0
   -3.4630   19.5050  -33.6200 C   0  0  0  0  0  0  0  0  0  0  0  0
   -3.2310   20.8250  -32.8710 C   0  0  0  0  0  0  0  0  0  0  0  0
   -4.3990   21.7000  -33.0040 N   0  0  0  0  0  0  0  0  0  0  0  0
   -4.7590   22.7250  -32.0530 C   0  0  0  0  0  0  0  0  0  0  0  0
   -6.0290   23.3150  -32.1340 C   0  0  0  0  0  0  0  0  0  0  0  0
   -6.4030   24.3160  -31.2360 C   0  0  0  0  0  0  0  0  0  0  0  0
   -5.5190   24.7350  -30.2410 C   0  0  0  0  0  0  0  0  0  0  0  0
   -4.2450   24.1520  -30.1320 C   0  0  0  0  0  0  0  0  0  0  0  0
   -3.3050   24.5890  -29.0760 C   0  0  0  0  0  0  0  0  0  0  0  0
   -3.5620   24.4300  -27.7490 N   0  0  0  0  0  0  0  0  0  0  0  0
   -2.4610   24.9330  -27.1740 C   0  0  0  0  0  0  0  0  0  0  0  0
   -2.1690   25.0060  -25.8140 C   0  0  0  0  0  0  0  0  0  0  0  0
   -0.9280   25.5590  -25.4430 C   0  0  0  0  0  0  0  0  0  0  0  0
   -0.0240   26.0140  -26.4310 C   0  0  0  0  0  0  0  0  0  0  0  0
   -0.3550   25.9180  -27.7960 C   0  0  0  0  0  0  0  0  0  0  0  0
   -1.5910   25.3690  -28.1240 C   0  0  0  0  0  0  0  0  0  0  0  0
   -2.1000   25.1620  -29.3460 N   0  0  0  0  0  0  0  0  0  0  0  0
   -3.8720   23.1480  -31.0430 C   0  0  0  0  0  0  0  0  0  0  0  0
   -5.3460   17.9850  -32.7680 N   0  0  0  0  0  0  0  0  0  0  0  0
   -6.1530   18.1260  -31.5600 C   0  0  0  0  0  0  0  0  0  0  0  0
   -7.3340   19.0300  -31.7980 C   0  0  0  0  0  0  0  0  0  0  0  0
   -8.4680   18.5620  -32.4870 C   0  0  0  0  0  0  0  0  0  0  0  0
   -9.5440   19.4170  -32.7390 C   0  0  0  0  0  0  0  0  0  0  0  0
   -9.4910   20.7500  -32.3230 C   0  0  0  0  0  0  0  0  0  0  0  0
   -8.3700   21.2250  -31.6390 C   0  0  0  0  0  0  0  0  0  0  0  0
   -7.2940   20.3700  -31.3740 C   0  0  0  0  0  0  0  0  0  0  0  0
   -2.8517   18.7217  -33.1480 H   0  0  0  0  0  0  0  0  0  0  0  0
   -3.1806   19.6681  -34.6705 H   0  0  0  0  0  0  0  0  0  0  0  0
   -3.0573   20.6117  -31.8059 H   0  0  0  0  0  0  0  0  0  0  0  0
   -2.3550   21.3311  -33.3029 H   0  0  0  0  0  0  0  0  0  0  0  0
   -5.0040   21.5650  -33.8450 H   0  0  0  0  0  0  0  0  0  0  0  0
   -6.7352   22.9865  -32.9107 H   0  0  0  0  0  0  0  0  0  0  0  0
   -7.3990   24.7766  -31.3130 H   0  0  0  0  0  0  0  0  0  0  0  0
   -5.8209   25.5257  -29.5384 H   0  0  0  0  0  0  0  0  0  0  0  0
   -2.8814   24.6450  -25.0576 H   0  0  0  0  0  0  0  0  0  0  0  0
   -0.6603   25.6375  -24.3790 H   0  0  0  0  0  0  0  0  0  0  0  0
    0.9426   26.4451  -26.1314 H   0  0  0  0  0  0  0  0  0  0  0  0
    0.3390   26.2648  -28.5759 H   0  0  0  0  0  0  0  0  0  0  0  0
   -2.8761   22.6873  -30.9664 H   0  0  0  0  0  0  0  0  0  0  0  0
   -6.5162   17.1341  -31.2530 H   0  0  0  0  0  0  0  0  0  0  0  0
   -5.5269   18.5700  -30.7720 H   0  0  0  0  0  0  0  0  0  0  0  0
   -8.5077   17.5173  -32.8291 H   0  0  0  0  0  0  0  0  0  0  0  0
  -10.4335   19.0405  -33.2653 H   0  0  0  0  0  0  0  0  0  0  0  0
  -10.3329   21.4256  -32.5345 H   0  0  0  0  0  0  0  0  0  0  0  0
   -8.3325   22.2733  -31.3078 H   0  0  0  0  0  0  0  0  0  0  0  0
   -6.4142   20.7476  -30.8323 H   0  0  0  0  0  0  0  0  0  0  0  0
  1  2  2  0
  2  3  1  0
  3  4  1  0
  4  5  1  0
  5  6  1  0
  6  7  2  0
  7  8  1  0
  8  9  2  0
  9 10  1  0
 10 11  1  0
 11 12  2  0
 12 13  1  0
 13 14  2  0
 14 15  1  0
 15 16  2  0
 16 17  1  0
 17 18  2  0
 18 19  1  0
 10 20  2  0
  2 21  1  0
 21 22  1  0
 22 23  1  0
 23 24  2  0
 24 25  1  0
 25 26  2  0
 26 27  1  0
 27 28  2  0
 20  6  1  0
 28 23  1  0
 19 11  1  0
 18 13  1  0
  3 29  1  0
  3 30  1  0
  4 31  1  0
  4 32  1  0
  5 33  1  0
  7 34  1  0
  8 35  1  0
  9 36  1  0
 14 37  1  0
 15 38  1  0
 16 39  1  0
 17 40  1  0
 20 41  1  0
 22 42  1  0
 22 43  1  0
 24 44  1  0
 25 45  1  0
 26 46  1  0
 27 47  1  0
 28 48  1  0
M  CHG  2  19  -1  21  -1
M  END
>  <UniqueID>  (24) 
23

>  <SMILES>  (24) 
O=C(CCNc1cccc(-c2nc3ccccc3[n-]2)c1)[N-]Cc1ccccc1

>  <Energy>  (24) 
79.44914625007554

>  <Genealogy>  (24) 
O=C(CCNc1cccc(-c2nc3ccccc3[n-]2)c1)[N-]Cc1ccccc1 (protonated)
O=C(CCNc1cccc(-c2nc3ccccc3[n-]2)c1)[N-]Cc1ccccc1 (3D coordinates assigned)
O=C(CCNc1cccc(-c2nc3ccccc3[n-]2)c1)[N-]Cc1ccccc1 (optimized conformer: 79.44914625007554 kcal/mol)

>  <smiles>  (24) 
O=C(CCNc1cccc(-c2nc3ccccc3[nH]2)c1)NCc1ccccc1

>  <score_type>  (24) 
oracle

>  <origin>  (24) 
adg

>  <m_score__min__energy>  (24) 
-10.99

>  <m_primary>  (24) 
energy

$$$$
24:0
     RDKit          3D

 51 54  0  0  0  0  0  0  0  0999 V2000
   -3.0620   21.9710  -27.7960 C   0  0  0  0  0  0  0  0  0  0  0  0
   -3.6440   23.2740  -28.1760 N   0  0  0  0  0  0  0  0  0  0  0  0
   -3.7470   24.1620  -26.9960 C   0  0  0  0  0  0  0  0  0  0  0  0
   -2.5360   25.0530  -26.8600 C   0  0  0  0  0  0  0  0  0  0  0  0
   -1.6500   25.2230  -27.9350 C   0  0  0  0  0  0  0  0  0  0  0  0
   -0.5460   26.0670  -27.7900 C   0  0  0  0  0  0  0  0  0  0  0  0
   -0.3360   26.7200  -26.6160 N   0  0  0  0  0  0  0  0  0  0  0  0
   -1.1800   26.5760  -25.5600 C   0  0  0  0  0  0  0  0  0  0  0  0
   -2.2960   25.7420  -25.6620 C   0  0  0  0  0  0  0  0  0  0  0  0
   -4.9730   23.0520  -28.8030 C   0  0  0  0  0  0  0  0  0  0  0  0
   -4.9650   23.1790  -30.3830 C   0  0  2  0  0  0  0  0  0  0  0  0
   -3.6540   23.8270  -30.8360 C   0  0  0  0  0  0  0  0  0  0  0  0
   -3.8000   25.2340  -30.6120 O   0  0  0  0  0  0  0  0  0  0  0  0
   -5.1920   25.4980  -30.4640 C   0  0  0  0  0  0  0  0  0  0  0  0
   -5.8600   24.2430  -30.9340 C   0  0  2  0  0  0  0  0  0  0  0  0
   -7.2570   23.7190  -30.7170 C   0  0  0  0  0  0  0  0  0  0  0  0
   -7.1010   22.2590  -30.9370 N   0  0  0  0  0  0  0  0  0  0  0  0
   -7.9140   21.7000  -32.0430 C   0  0  0  0  0  0  0  0  0  0  0  0
   -7.4810   20.3250  -32.5100 C   0  0  0  0  0  0  0  0  0  0  0  0
   -8.0170   19.1650  -31.9260 C   0  0  0  0  0  0  0  0  0  0  0  0
   -7.5880   17.9120  -32.3680 C   0  0  0  0  0  0  0  0  0  0  0  0
   -6.6220   17.8220  -33.3710 C   0  0  0  0  0  0  0  0  0  0  0  0
   -6.0940   18.9940  -33.9150 C   0  0  0  0  0  0  0  0  0  0  0  0
   -6.5260   20.2050  -33.4730 N   0  0  0  0  0  0  0  0  0  0  0  0
   -5.6420   21.9790  -31.0540 C   0  0  0  0  0  0  0  0  0  0  0  0
   -3.0263   21.8911  -26.6995 H   0  0  0  0  0  0  0  0  0  0  0  0
   -3.6831   21.1594  -28.2027 H   0  0  0  0  0  0  0  0  0  0  0  0
   -2.0430   21.8919  -28.2027 H   0  0  0  0  0  0  0  0  0  0  0  0
   -4.6428   24.7917  -27.1009 H   0  0  0  0  0  0  0  0  0  0  0  0
   -3.8113   23.5314  -26.0970 H   0  0  0  0  0  0  0  0  0  0  0  0
   -1.8234   24.6957  -28.8847 H   0  0  0  0  0  0  0  0  0  0  0  0
    0.1545   26.2034  -28.6271 H   0  0  0  0  0  0  0  0  0  0  0  0
   -0.9836   27.1176  -24.6229 H   0  0  0  0  0  0  0  0  0  0  0  0
   -2.9813   25.6265  -24.8094 H   0  0  0  0  0  0  0  0  0  0  0  0
   -5.3168   22.0412  -28.5382 H   0  0  0  0  0  0  0  0  0  0  0  0
   -5.6419   23.8378  -28.4221 H   0  0  0  0  0  0  0  0  0  0  0  0
   -2.8119   23.4335  -30.2477 H   0  0  0  0  0  0  0  0  0  0  0  0
   -3.4473   23.6110  -31.8946 H   0  0  0  0  0  0  0  0  0  0  0  0
   -5.4402   25.7007  -29.4117 H   0  0  0  0  0  0  0  0  0  0  0  0
   -5.5141   26.3830  -31.0323 H   0  0  0  0  0  0  0  0  0  0  0  0
   -6.0103   24.5244  -31.9867 H   0  0  0  0  0  0  0  0  0  0  0  0
   -7.6047   23.9304  -29.6950 H   0  0  0  0  0  0  0  0  0  0  0  0
   -8.0025   24.1813  -31.3807 H   0  0  0  0  0  0  0  0  0  0  0  0
   -8.9579   21.6340  -31.7024 H   0  0  0  0  0  0  0  0  0  0  0  0
   -7.7825   22.3767  -32.9002 H   0  0  0  0  0  0  0  0  0  0  0  0
   -8.7688   19.2434  -31.1268 H   0  0  0  0  0  0  0  0  0  0  0  0
   -8.0107   16.9975  -31.9264 H   0  0  0  0  0  0  0  0  0  0  0  0
   -6.2807   16.8393  -33.7286 H   0  0  0  0  0  0  0  0  0  0  0  0
   -5.3276   18.9378  -34.7021 H   0  0  0  0  0  0  0  0  0  0  0  0
   -5.3825   21.0453  -30.5336 H   0  0  0  0  0  0  0  0  0  0  0  0
   -5.3237   21.8501  -32.0990 H   0  0  0  0  0  0  0  0  0  0  0  0
  1  2  1  0
  2  3  1  0
  3  4  1  0
  4  5  2  0
  5  6  1  0
  6  7  2  0
  7  8  1  0
  8  9  2  0
  2 10  1  0
 11 10  1  1
 11 12  1  0
 12 13  1  0
 13 14  1  0
 14 15  1  0
 15 16  1  0
 16 17  1  0
 17 18  1  0
 18 19  1  0
 19 20  2  0
 20 21  1  0
 21 22  2  0
 22 23  1  0
 23 24  2  0
 17 25  1  0
  9  4  1  0
 15 11  1  0
 24 19  1  0
 25 11  1  0
  1 26  1  0
  1 27  1  0
  1 28  1  0
  3 29  1  0
  3 30  1  0
  5 31  1  0
  6 32  1  0
  8 33  1  0
  9 34  1  0
 10 35  1  0
 10 36  1  0
 12 37  1  0
 12 38  1  0
 14 39  1  0
 14 40  1  0
 15 41  1  6
 16 42  1  0
 16 43  1  0
 18 44  1  0
 18 45  1  0
 20 46  1  0
 21 47  1  0
 22 48  1  0
 23 49  1  0
 25 50  1  0
 25 51  1  0
M  END
>  <UniqueID>  (25) 
24

>  <SMILES>  (25) 
CN(Cc1ccncc1)C[C@]12COC[C@@H]1CN(Cc1ccccn1)C2

>  <Energy>  (25) 
107.90011618938021

>  <Genealogy>  (25) 
CN(Cc1ccncc1)C[C@]12COC[C@@H]1CN(Cc1ccccn1)C2 (chirality)
CN(Cc1ccncc1)C[C@]12COC[C@@H]1CN(Cc1ccccn1)C2 (3D coordinates assigned)
CN(Cc1ccncc1)C[C@]12COC[C@@H]1CN(Cc1ccccn1)C2 (nonaromatic ring conformer: 107.90011618938021 kcal/mol)

>  <smiles>  (25) 
CN(Cc1ccncc1)CC12COCC1CN(Cc1ccccn1)C2

>  <score_type>  (25) 
oracle

>  <origin>  (25) 
adg

>  <m_score__min__energy>  (25) 
-9.0299999999999994

>  <m_primary>  (25) 
energy

$$$$
25:0
     RDKit          3D

 33 33  0  0  0  0  0  0  0  0999 V2000
   -5.7376   23.7274  -32.7951 H   0  0  0  0  0  0  0  0  0  0  0  0
   -6.5020   23.7950  -32.0070 C   0  0  0  0  0  0  0  0  0  0  0  0
   -6.1570   24.3520  -30.8790 N   0  0  0  0  0  0  0  0  0  0  0  0
   -5.0960   25.2850  -30.6240 C   0  0  0  0  0  0  0  0  0  0  0  0
   -5.3880   26.5000  -30.4620 O   0  0  0  0  0  0  0  0  0  0  0  0
   -3.7640   24.8650  -30.5220 O   0  0  0  0  0  0  0  0  0  0  0  0
   -3.3600   23.6720  -29.8550 C   0  0  0  0  0  0  0  0  0  0  0  0
   -4.2340   23.2162  -29.3668 H   0  0  0  0  0  0  0  0  0  0  0  0
   -2.5961   23.9245  -29.1048 H   0  0  0  0  0  0  0  0  0  0  0  0
   -2.7640   22.6760  -30.8540 C   0  0  0  0  0  0  0  0  0  0  0  0
   -2.0477   22.0263  -30.3298 H   0  0  0  0  0  0  0  0  0  0  0  0
   -2.2606   23.2406  -31.6526 H   0  0  0  0  0  0  0  0  0  0  0  0
   -3.8580   21.8080  -31.4860 C   0  0  0  0  0  0  0  0  0  0  0  0
   -4.8415   22.1706  -31.1524 H   0  0  0  0  0  0  0  0  0  0  0  0
   -3.7021   20.7658  -31.1706 H   0  0  0  0  0  0  0  0  0  0  0  0
   -3.7960   21.8670  -33.0100 C   0  0  0  0  0  0  0  0  0  0  0  0
   -3.0310   22.5950  -33.3179 H   0  0  0  0  0  0  0  0  0  0  0  0
   -3.5370   20.8736  -33.4052 H   0  0  0  0  0  0  0  0  0  0  0  0
   -4.7753   22.1749  -33.4052 H   0  0  0  0  0  0  0  0  0  0  0  0
   -7.8660   23.2380  -32.3120 C   0  0  0  0  0  0  0  0  0  0  0  0
   -8.6044   24.0519  -32.2634 H   0  0  0  0  0  0  0  0  0  0  0  0
   -7.8424   22.7933  -33.3178 H   0  0  0  0  0  0  0  0  0  0  0  0
   -8.2590   22.1470  -31.3100 C   0  0  0  0  0  0  0  0  0  0  0  0
   -7.6414   22.2468  -30.4052 H   0  0  0  0  0  0  0  0  0  0  0  0
   -9.3232   22.2626  -31.0569 H   0  0  0  0  0  0  0  0  0  0  0  0
   -8.0470   20.7900  -31.9040 C   0  0  0  0  0  0  0  0  0  0  0  0
   -6.8160   20.3800  -32.9730 S   0  0  0  0  0  0  0  0  0  0  0  0
   -7.1980   18.7450  -33.0690 C   0  0  0  0  0  0  0  0  0  0  0  0
   -6.6718   17.9960  -33.6790 H   0  0  0  0  0  0  0  0  0  0  0  0
   -8.2910   18.5010  -32.2470 C   0  0  0  0  0  0  0  0  0  0  0  0
   -8.7429   17.5054  -32.1261 H   0  0  0  0  0  0  0  0  0  0  0  0
   -8.7630   19.6420  -31.5870 C   0  0  0  0  0  0  0  0  0  0  0  0
   -9.6133   19.6308  -30.8892 H   0  0  0  0  0  0  0  0  0  0  0  0
  1  2  1  0
  2  3  2  0
  3  4  1  0
  4  5  2  0
  4  6  1  0
  6  7  1  0
  7  8  1  0
  7  9  1  0
  7 10  1  0
 10 11  1  0
 10 12  1  0
 10 13  1  0
 13 14  1  0
 13 15  1  0
 13 16  1  0
 16 17  1  0
 16 18  1  0
 16 19  1  0
  2 20  1  0
 20 21  1  0
 20 22  1  0
 20 23  1  0
 23 24  1  0
 23 25  1  0
 23 26  1  0
 26 27  1  0
 27 28  1  0
 28 29  1  0
 28 30  2  0
 30 31  1  0
 30 32  1  0
 32 33  1  0
 32 26  2  0
M  END
>  <UniqueID>  (26) 
25

>  <SMILES>  (26) 
CCCCOC(=O)/N=C\CCc1cccs1

>  <Energy>  (26) 
45.36953040576851

>  <Genealogy>  (26) 
CCCCOC(=O)/N=C\CCc1cccs1 (cis-trans isomerization)
CCCCOC(=O)/N=C\CCc1cccs1 (3D coordinates assigned)
CCCCOC(=O)/N=C\CCc1cccs1 (optimized conformer: 45.36953040576851 kcal/mol)

>  <smiles>  (26) 
CCCCOC(=O)N=CCCc1cccs1

>  <score_type>  (26) 
oracle

>  <origin>  (26) 
adg

>  <m_score__min__energy>  (26) 
-6.6200000000000001

>  <m_primary>  (26) 
energy

$$$$
26:0
     RDKit          3D

 32 34  0  0  0  0  0  0  0  0999 V2000
   -6.4710   25.6850  -29.3430 C   0  0  0  0  0  0  0  0  0  0  0  0
   -5.7980   25.3750  -30.6750 C   0  0  0  0  0  0  0  0  0  0  0  0
   -6.0290   23.9710  -31.0540 N   0  0  0  0  0  0  0  0  0  0  0  0
   -7.3120   23.5230  -31.1950 C   0  0  0  0  0  0  0  0  0  0  0  0
   -7.5630   22.2050  -31.5730 C   0  0  0  0  0  0  0  0  0  0  0  0
   -6.4800   21.3550  -31.8100 C   0  0  0  0  0  0  0  0  0  0  0  0
   -6.6930   19.9560  -32.2410 C   0  0  0  0  0  0  0  0  0  0  0  0
   -7.9120   19.3300  -31.9300 C   0  0  0  0  0  0  0  0  0  0  0  0
   -8.1740   18.0700  -32.3610 N   0  0  0  0  0  0  0  0  0  0  0  0
   -7.2810   17.3630  -33.0980 C   0  0  0  0  0  0  0  0  0  0  0  0
   -6.0430   17.9240  -33.4270 C   0  0  0  0  0  0  0  0  0  0  0  0
   -5.1030   17.2040  -34.1730 C   0  0  0  0  0  0  0  0  0  0  0  0
   -3.8660   17.7750  -34.4650 C   0  0  0  0  0  0  0  0  0  0  0  0
   -3.5760   19.0570  -34.0000 C   0  0  0  0  0  0  0  0  0  0  0  0
   -4.4940   19.7520  -33.2750 N   0  0  0  0  0  0  0  0  0  0  0  0
   -5.7300   19.2340  -32.9900 C   0  0  0  0  0  0  0  0  0  0  0  0
   -5.2180   21.8400  -31.6860 N   0  0  0  0  0  0  0  0  0  0  0  0
   -4.9810   23.1260  -31.3150 C   0  0  0  0  0  0  0  0  0  0  0  0
   -3.7900   23.5260  -31.2200 O   0  0  0  0  0  0  0  0  0  0  0  0
   -5.8097   25.3804  -28.5184 H   0  0  0  0  0  0  0  0  0  0  0  0
   -6.6687   26.7649  -29.2747 H   0  0  0  0  0  0  0  0  0  0  0  0
   -7.4202   25.1334  -29.2747 H   0  0  0  0  0  0  0  0  0  0  0  0
   -6.2134   26.0330  -31.4525 H   0  0  0  0  0  0  0  0  0  0  0  0
   -4.7156   25.5434  -30.5749 H   0  0  0  0  0  0  0  0  0  0  0  0
   -8.1529   24.2073  -31.0089 H   0  0  0  0  0  0  0  0  0  0  0  0
   -8.5951   21.8408  -31.6827 H   0  0  0  0  0  0  0  0  0  0  0  0
   -8.6620   19.8670  -31.3307 H   0  0  0  0  0  0  0  0  0  0  0  0
   -7.5311   16.3470  -33.4373 H   0  0  0  0  0  0  0  0  0  0  0  0
   -5.3400   16.1901  -34.5278 H   0  0  0  0  0  0  0  0  0  0  0  0
   -3.1245   17.2190  -35.0574 H   0  0  0  0  0  0  0  0  0  0  0  0
   -2.5981   19.5098  -34.2208 H   0  0  0  0  0  0  0  0  0  0  0  0
   -4.2070   20.6930  -32.9260 H   0  0  0  0  0  0  0  0  0  0  0  0
  1  2  1  0
  2  3  1  0
  3  4  1  0
  4  5  2  0
  5  6  1  0
  6  7  1  0
  7  8  2  0
  8  9  1  0
  9 10  2  0
 10 11  1  0
 11 12  2  0
 12 13  1  0
 13 14  2  0
 14 15  1  0
 15 16  2  0
  6 17  2  0
 17 18  1  0
 18 19  2  0
 18  3  1  0
 16  7  1  0
 16 11  1  0
  1 20  1  0
  1 21  1  0
  1 22  1  0
  2 23  1  0
  2 24  1  0
  4 25  1  0
  5 26  1  0
  8 27  1  0
 10 28  1  0
 12 29  1  0
 13 30  1  0
 14 31  1  0
 15 32  1  0
M  CHG  1  15   1
M  END
>  <UniqueID>  (27) 
26

>  <SMILES>  (27) 
CCn1ccc(-c2cncc3ccc[nH+]c23)nc1=O

>  <Energy>  (27) 
45.8693092167576

>  <Genealogy>  (27) 
CCn1ccc(-c2cncc3ccc[nH+]c23)nc1=O (protonated)
CCn1ccc(-c2cncc3ccc[nH+]c23)nc1=O (3D coordinates assigned)
CCn1ccc(-c2cncc3ccc[nH+]c23)nc1=O (optimized conformer: 45.8693092167576 kcal/mol)

>  <smiles>  (27) 
CCn1ccc(-c2cncc3cccnc23)nc1=O

>  <score_type>  (27) 
oracle

>  <origin>  (27) 
adg

>  <m_score__min__energy>  (27) 
-6.4699999999999998

>  <m_primary>  (27) 
energy

$$$$
27:0
     RDKit          3D

 49 51  0  0  0  0  0  0  0  0999 V2000
   -6.3140   16.4180  -33.8500 C   0  0  0  0  0  0  0  0  0  0  0  0
   -7.2530   16.8840  -32.8870 O   0  0  0  0  0  0  0  0  0  0  0  0
   -7.5730   18.2340  -32.6820 C   0  0  0  0  0  0  0  0  0  0  0  0
   -8.6550   18.5420  -31.8480 C   0  0  0  0  0  0  0  0  0  0  0  0
   -9.0130   19.8720  -31.6120 C   0  0  0  0  0  0  0  0  0  0  0  0
   -8.2950   20.9180  -32.2130 C   0  0  0  0  0  0  0  0  0  0  0  0
   -8.6660   22.3520  -31.9280 C   0  0  0  0  0  0  0  0  0  0  0  0
   -7.4550   23.2850  -32.0760 C   0  0  0  0  0  0  0  0  0  0  0  0
   -6.3390   22.8790  -31.1910 N   0  0  0  0  0  0  0  0  0  0  0  0
   -5.0570   22.7800  -31.9360 C   0  0  0  0  0  0  0  0  0  0  0  0
   -3.8470   23.0390  -31.0310 C   0  0  0  0  0  0  0  0  0  0  0  0
   -3.8770   24.4160  -30.4920 N   0  0  0  0  0  0  0  0  0  0  0  0
   -2.9480   24.5540  -29.3490 C   0  0  0  0  0  0  0  0  0  0  0  0
   -3.5300   23.9060  -28.0870 C   0  0  0  0  0  0  0  0  0  0  0  0
   -2.7670   22.6730  -27.7120 C   0  0  0  0  0  0  0  0  0  0  0  0
   -3.1660   21.3640  -27.9550 C   0  0  0  0  0  0  0  0  0  0  0  0
   -2.2910   20.4130  -27.4160 C   0  0  0  0  0  0  0  0  0  0  0  0
   -1.2130   20.9680  -26.7390 C   0  0  0  0  0  0  0  0  0  0  0  0
   -1.3510   22.6430  -26.8060 S   0  0  0  0  0  0  0  0  0  0  0  0
   -5.2470   24.8970  -30.1750 C   0  0  0  0  0  0  0  0  0  0  0  0
   -6.2490   23.7460  -29.9880 C   0  0  0  0  0  0  0  0  0  0  0  0
   -7.2080   20.6120  -33.0470 C   0  0  0  0  0  0  0  0  0  0  0  0
   -6.8490   19.2820  -33.2830 C   0  0  0  0  0  0  0  0  0  0  0  0
   -5.4437   15.9861  -33.3343 H   0  0  0  0  0  0  0  0  0  0  0  0
   -6.7856   15.6494  -34.4799 H   0  0  0  0  0  0  0  0  0  0  0  0
   -5.9871   17.2584  -34.4799 H   0  0  0  0  0  0  0  0  0  0  0  0
   -9.2276   17.7306  -31.3750 H   0  0  0  0  0  0  0  0  0  0  0  0
   -9.8623   20.1007  -30.9515 H   0  0  0  0  0  0  0  0  0  0  0  0
   -9.4483   22.6663  -32.6346 H   0  0  0  0  0  0  0  0  0  0  0  0
   -9.0274   22.4162  -30.8910 H   0  0  0  0  0  0  0  0  0  0  0  0
   -7.1098   23.2581  -33.1201 H   0  0  0  0  0  0  0  0  0  0  0  0
   -7.7674   24.3002  -31.7900 H   0  0  0  0  0  0  0  0  0  0  0  0
   -4.9714   21.7701  -32.3634 H   0  0  0  0  0  0  0  0  0  0  0  0
   -5.0619   23.5462  -32.7252 H   0  0  0  0  0  0  0  0  0  0  0  0
   -3.8630   22.3244  -30.1949 H   0  0  0  0  0  0  0  0  0  0  0  0
   -2.9300   22.9139  -31.6255 H   0  0  0  0  0  0  0  0  0  0  0  0
   -1.9953   24.0639  -29.5985 H   0  0  0  0  0  0  0  0  0  0  0  0
   -2.7904   25.6248  -29.1525 H   0  0  0  0  0  0  0  0  0  0  0  0
   -3.4787   24.6263  -27.2572 H   0  0  0  0  0  0  0  0  0  0  0  0
   -4.5734   23.6226  -28.2897 H   0  0  0  0  0  0  0  0  0  0  0  0
   -4.0765   21.1018  -28.5138 H   0  0  0  0  0  0  0  0  0  0  0  0
   -2.4432   19.3285  -27.5191 H   0  0  0  0  0  0  0  0  0  0  0  0
   -0.4064   20.4078  -26.2434 H   0  0  0  0  0  0  0  0  0  0  0  0
   -5.2079   25.4846  -29.2459 H   0  0  0  0  0  0  0  0  0  0  0  0
   -5.5919   25.5043  -31.0248 H   0  0  0  0  0  0  0  0  0  0  0  0
   -5.9286   23.1329  -29.1327 H   0  0  0  0  0  0  0  0  0  0  0  0
   -7.2416   24.1873  -29.8149 H   0  0  0  0  0  0  0  0  0  0  0  0
   -6.6350   21.4244  -33.5179 H   0  0  0  0  0  0  0  0  0  0  0  0
   -5.9976   19.0528  -33.9407 H   0  0  0  0  0  0  0  0  0  0  0  0
  1  2  1  0
  2  3  1  0
  3  4  2  0
  4  5  1  0
  5  6  2  0
  6  7  1  0
  7  8  1  0
  8  9  1  0
  9 10  1  0
 10 11  1  0
 11 12  1  0
 12 13  1  0
 13 14  1  0
 14 15  1  0
 15 16  2  0
 16 17  1  0
 17 18  2  0
 18 19  1  0
 12 20  1  0
 20 21  1  0
  6 22  1  0
 22 23  2  0
 23  3  1  0
 21  9  1  0
 19 15  1  0
  1 24  1  0
  1 25  1  0
  1 26  1  0
  4 27  1  0
  5 28  1  0
  7 29  1  0
  7 30  1  0
  8 31  1  0
  8 32  1  0
 10 33  1  0
 10 34  1  0
 11 35  1  0
 11 36  1  0
 13 37  1  0
 13 38  1  0
 14 39  1  0
 14 40  1  0
 16 41  1  0
 17 42  1  0
 18 43  1  0
 20 44  1  0
 20 45  1  0
 21 46  1  0
 21 47  1  0
 22 48  1  0
 23 49  1  0
M  END
>  <UniqueID>  (28) 
27

>  <SMILES>  (28) 
COc1ccc(CCN2CCN(CCc3cccs3)CC2)cc1

>  <Energy>  (28) 
83.37885382713371

>  <Genealogy>  (28) 
COc1ccc(CCN2CCN(CCc3cccs3)CC2)cc1 (3D coordinates assigned)
COc1ccc(CCN2CCN(CCc3cccs3)CC2)cc1 (nonaromatic ring conformer: 83.37885382713371 kcal/mol)

>  <smiles>  (28) 
COc1ccc(CCN2CCN(CCc3cccs3)CC2)cc1

>  <score_type>  (28) 
oracle

>  <origin>  (28) 
adg

>  <m_score__min__energy>  (28) 
-8.3599999999999994

>  <m_primary>  (28) 
energy

$$$$
28:0
     RDKit          3D

 30 33  0  0  0  0  0  0  0  0999 V2000
   -1.8670   17.3060  -34.9690 F   0  0  0  0  0  0  0  0  0  0  0  0
   -3.0590   17.6830  -34.4440 C   0  0  0  0  0  0  0  0  0  0  0  0
   -3.1160   18.2180  -33.1530 C   0  0  0  0  0  0  0  0  0  0  0  0
   -4.3440   18.6080  -32.6120 C   0  0  0  0  0  0  0  0  0  0  0  0
   -5.5210   18.4830  -33.3670 C   0  0  0  0  0  0  0  0  0  0  0  0
   -6.8220   18.8580  -32.7840 C   0  0  0  0  0  0  0  0  0  0  0  0
   -7.8500   17.9180  -32.6660 C   0  0  0  0  0  0  0  0  0  0  0  0
   -9.1390   18.5930  -31.8110 S   0  0  0  0  0  0  0  0  0  0  0  0
   -8.4040   20.0810  -31.6050 C   0  0  0  0  0  0  0  0  0  0  0  0
   -8.9280   21.1480  -30.9620 N   0  0  0  0  0  0  0  0  0  0  0  0
   -8.2050   22.2980  -30.8960 C   0  0  0  0  0  0  0  0  0  0  0  0
   -6.9800   22.3780  -31.4930 N   0  0  0  0  0  0  0  0  0  0  0  0
   -6.4360   21.3180  -32.1630 C   0  0  0  0  0  0  0  0  0  0  0  0
   -4.8890   21.5710  -33.0450 S   0  0  0  0  0  0  0  0  0  0  0  0
   -4.2480   22.6570  -31.7770 C   0  0  0  0  0  0  0  0  0  0  0  0
   -4.6770   23.9220  -31.5890 N   0  0  0  0  0  0  0  0  0  0  0  0
   -4.0530   24.5420  -30.5900 N   0  0  0  0  0  0  0  0  0  0  0  0
   -3.1250   23.7780  -29.9730 C   0  0  0  0  0  0  0  0  0  0  0  0
   -3.0460   22.2490  -30.6750 S   0  0  0  0  0  0  0  0  0  0  0  0
   -7.1520   20.1040  -32.1960 C   0  0  0  0  0  0  0  0  0  0  0  0
   -5.4610   17.9180  -34.6500 C   0  0  0  0  0  0  0  0  0  0  0  0
   -4.2310   17.5300  -35.1900 C   0  0  0  0  0  0  0  0  0  0  0  0
   -2.1943   18.3318  -32.5636 H   0  0  0  0  0  0  0  0  0  0  0  0
   -4.3886   19.0144  -31.5908 H   0  0  0  0  0  0  0  0  0  0  0  0
   -7.8229   16.8948  -33.0689 H   0  0  0  0  0  0  0  0  0  0  0  0
   -8.6095   23.1684  -30.3586 H   0  0  0  0  0  0  0  0  0  0  0  0
   -6.4620   23.2850  -31.4540 H   0  0  0  0  0  0  0  0  0  0  0  0
   -2.5051   24.1096  -29.1269 H   0  0  0  0  0  0  0  0  0  0  0  0
   -6.3839   17.7800  -35.2324 H   0  0  0  0  0  0  0  0  0  0  0  0
   -4.1857   17.1039  -36.2031 H   0  0  0  0  0  0  0  0  0  0  0  0
  1  2  1  0
  2  3  2  0
  3  4  1  0
  4  5  2  0
  5  6  1  0
  6  7  2  0
  7  8  1  0
  8  9  1  0
  9 10  2  0
 10 11  1  0
 11 12  2  0
 12 13  1  0
 13 14  1  0
 14 15  1  0
 15 16  2  0
 16 17  1  0
 17 18  2  0
 18 19  1  0
 13 20  2  0
  5 21  1  0
 21 22  2  0
 22  2  1  0
 20  6  1  0
 20  9  1  0
 19 15  1  0
  3 23  1  0
  4 24  1  0
  7 25  1  0
 11 26  1  0
 12 27  1  0
 18 28  1  0
 21 29  1  0
 22 30  1  0
M  CHG  1  12   1
M  END
>  <UniqueID>  (29) 
28

>  <SMILES>  (29) 
Fc1ccc(-c2csc3nc[nH+]c(Sc4nncs4)c23)cc1

>  <Energy>  (29) 
106.03301319970868

>  <Genealogy>  (29) 
Fc1ccc(-c2csc3nc[nH+]c(Sc4nncs4)c23)cc1 (protonated)
Fc1ccc(-c2csc3nc[nH+]c(Sc4nncs4)c23)cc1 (3D coordinates assigned)
Fc1ccc(-c2csc3nc[nH+]c(Sc4nncs4)c23)cc1 (optimized conformer: 106.03301319970868 kcal/mol)

>  <smiles>  (29) 
Fc1ccc(-c2csc3ncnc(Sc4nncs4)c23)cc1

>  <score_type>  (29) 
oracle

>  <origin>  (29) 
adg

>  <m_score__min__energy>  (29) 
-7.6799999999999997

>  <m_primary>  (29) 
energy

$$$$
29:0
     RDKit          3D

 34 35  0  0  0  0  0  0  0  0999 V2000
   -0.5130   24.5020  -27.9280 C   0  0  0  0  0  0  0  0  0  0  0  0
   -1.9530   25.0000  -27.9630 C   0  0  0  0  0  0  0  0  0  0  0  0
   -2.3550   25.3000  -29.3310 N   0  0  0  0  0  0  0  0  0  0  0  0
   -3.5620   24.8100  -29.9290 C   0  0  0  0  0  0  0  0  0  0  0  0
   -4.1190   25.4700  -30.8500 O   0  0  0  0  0  0  0  0  0  0  0  0
   -4.1010   23.4540  -29.5300 C   0  0  0  0  0  0  0  0  0  0  0  0
   -5.2420   22.9940  -30.4210 C   0  0  0  0  0  0  0  0  0  0  0  0
   -6.5420   23.4810  -30.1930 C   0  0  0  0  0  0  0  0  0  0  0  0
   -7.6130   23.0370  -30.9760 C   0  0  0  0  0  0  0  0  0  0  0  0
   -7.4000   22.0960  -31.9850 C   0  0  0  0  0  0  0  0  0  0  0  0
   -6.1180   21.5920  -32.2110 C   0  0  0  0  0  0  0  0  0  0  0  0
   -5.0440   22.0300  -31.4320 C   0  0  0  0  0  0  0  0  0  0  0  0
   -3.0300   22.3790  -29.4810 C   0  0  0  0  0  0  0  0  0  0  0  0
   -2.0120   22.3600  -30.4530 C   0  0  0  0  0  0  0  0  0  0  0  0
   -0.9980   21.3990  -30.3990 C   0  0  0  0  0  0  0  0  0  0  0  0
   -0.9820   20.4540  -29.3710 C   0  0  0  0  0  0  0  0  0  0  0  0
   -1.9780   20.4690  -28.3920 C   0  0  0  0  0  0  0  0  0  0  0  0
   -2.9940   21.4280  -28.4410 C   0  0  0  0  0  0  0  0  0  0  0  0
   -0.1891   24.3900  -26.8828 H   0  0  0  0  0  0  0  0  0  0  0  0
   -0.4489   23.5295  -28.4380 H   0  0  0  0  0  0  0  0  0  0  0  0
    0.1382   25.2271  -28.4380 H   0  0  0  0  0  0  0  0  0  0  0  0
   -2.6150   24.2230  -27.5531 H   0  0  0  0  0  0  0  0  0  0  0  0
   -2.0274   25.9173  -27.3605 H   0  0  0  0  0  0  0  0  0  0  0  0
   -4.4881   23.5967  -28.5103 H   0  0  0  0  0  0  0  0  0  0  0  0
   -6.7176   24.2159  -29.3936 H   0  0  0  0  0  0  0  0  0  0  0  0
   -8.6246   23.4300  -30.7963 H   0  0  0  0  0  0  0  0  0  0  0  0
   -8.2428   21.7515  -32.6023 H   0  0  0  0  0  0  0  0  0  0  0  0
   -5.9529   20.8481  -33.0044 H   0  0  0  0  0  0  0  0  0  0  0  0
   -4.0382   21.6209  -31.6080 H   0  0  0  0  0  0  0  0  0  0  0  0
   -2.0143   23.1066  -31.2608 H   0  0  0  0  0  0  0  0  0  0  0  0
   -0.2113   21.3873  -31.1677 H   0  0  0  0  0  0  0  0  0  0  0  0
   -0.1845   19.6974  -29.3323 H   0  0  0  0  0  0  0  0  0  0  0  0
   -1.9630   19.7254  -27.5815 H   0  0  0  0  0  0  0  0  0  0  0  0
   -3.7710   21.4406  -27.6624 H   0  0  0  0  0  0  0  0  0  0  0  0
  1  2  1  0
  2  3  1  0
  3  4  1  0
  4  5  2  0
  4  6  1  0
  6  7  1  0
  7  8  2  0
  8  9  1  0
  9 10  2  0
 10 11  1  0
 11 12  2  0
  6 13  1  0
 13 14  2  0
 14 15  1  0
 15 16  2  0
 16 17  1  0
 17 18  2  0
 12  7  1  0
 18 13  1  0
  1 19  1  0
  1 20  1  0
  1 21  1  0
  2 22  1  0
  2 23  1  0
  6 24  1  0
  8 25  1  0
  9 26  1  0
 10 27  1  0
 11 28  1  0
 12 29  1  0
 14 30  1  0
 15 31  1  0
 16 32  1  0
 17 33  1  0
 18 34  1  0
M  CHG  1   3  -1
M  END
>  <UniqueID>  (30) 
29

>  <SMILES>  (30) 
CC[N-]C(=O)C(c1ccccc1)c1ccccc1

>  <Energy>  (30) 
32.05277986651575

>  <Genealogy>  (30) 
CC[N-]C(=O)C(c1ccccc1)c1ccccc1 (protonated)
CC[N-]C(=O)C(c1ccccc1)c1ccccc1 (3D coordinates assigned)
CC[N-]C(=O)C(c1ccccc1)c1ccccc1 (optimized conformer: 32.05277986651575 kcal/mol)

>  <smiles>  (30) 
CCNC(=O)C(c1ccccc1)c1ccccc1

>  <score_type>  (30) 
oracle

>  <origin>  (30) 
adg

>  <m_score__min__energy>  (30) 
-8.4399999999999995

>  <m_primary>  (30) 
energy

$$$$
30:0
     RDKit          3D

 26 27  0  0  0  0  0  0  0  0999 V2000
   -1.1490   25.3910  -29.3330 O   0  0  0  0  0  0  0  0  0  0  0  0
   -2.3750   24.5340  -29.1960 S   0  0  0  0  0  0  0  0  0  0  0  0
   -3.0260   24.8180  -27.8710 O   0  0  0  0  0  0  0  0  0  0  0  0
   -3.4870   24.9270  -30.4680 N   0  0  0  0  0  0  0  0  0  0  0  0
   -4.7270   24.2520  -30.7180 C   0  0  0  0  0  0  0  0  0  0  0  0
   -5.9610   24.7600  -30.2690 C   0  0  0  0  0  0  0  0  0  0  0  0
   -7.1450   24.0630  -30.5290 C   0  0  0  0  0  0  0  0  0  0  0  0
   -7.1100   22.8590  -31.2400 C   0  0  0  0  0  0  0  0  0  0  0  0
   -8.7290   21.9100  -31.5950 Br  0  0  0  0  0  0  0  0  0  0  0  0
   -5.8880   22.3530  -31.6930 C   0  0  0  0  0  0  0  0  0  0  0  0
   -4.7030   23.0470  -31.4330 C   0  0  0  0  0  0  0  0  0  0  0  0
   -1.9010   22.8420  -29.3060 C   0  0  0  0  0  0  0  0  0  0  0  0
   -2.1810   21.9650  -28.2480 C   0  0  0  0  0  0  0  0  0  0  0  0
   -1.7980   20.6220  -28.3290 C   0  0  0  0  0  0  0  0  0  0  0  0
   -1.1380   20.1490  -29.4670 C   0  0  0  0  0  0  0  0  0  0  0  0
   -0.8610   21.0190  -30.5260 C   0  0  0  0  0  0  0  0  0  0  0  0
   -1.2420   22.3620  -30.4470 C   0  0  0  0  0  0  0  0  0  0  0  0
   -5.9938   25.7080  -29.7120 H   0  0  0  0  0  0  0  0  0  0  0  0
   -8.1063   24.4625  -30.1735 H   0  0  0  0  0  0  0  0  0  0  0  0
   -5.8591   21.4076  -32.2547 H   0  0  0  0  0  0  0  0  0  0  0  0
   -3.7445   22.6444  -31.7923 H   0  0  0  0  0  0  0  0  0  0  0  0
   -2.7028   22.3339  -27.3527 H   0  0  0  0  0  0  0  0  0  0  0  0
   -2.0164   19.9373  -27.4963 H   0  0  0  0  0  0  0  0  0  0  0  0
   -0.8367   19.0929  -29.5293 H   0  0  0  0  0  0  0  0  0  0  0  0
   -0.3429   20.6466  -31.4220 H   0  0  0  0  0  0  0  0  0  0  0  0
   -1.0242   23.0439  -31.2822 H   0  0  0  0  0  0  0  0  0  0  0  0
  1  2  2  0
  2  3  2  0
  2  4  1  0
  4  5  1  0
  5  6  2  0
  6  7  1  0
  7  8  2  0
  8  9  1  0
  8 10  1  0
 10 11  2  0
  2 12  1  0
 12 13  2  0
 13 14  1  0
 14 15  2  0
 15 16  1  0
 16 17  2  0
 11  5  1  0
 17 12  1  0
  6 18  1  0
  7 19  1  0
 10 20  1  0
 11 21  1  0
 13 22  1  0
 14 23  1  0
 15 24  1  0
 16 25  1  0
 17 26  1  0
M  CHG  1   4  -1
M  END
>  <UniqueID>  (31) 
30

>  <SMILES>  (31) 
O=S(=O)([N-]c1ccc(Br)cc1)c1ccccc1

>  <Energy>  (31) 
29.617651813049207

>  <Genealogy>  (31) 
O=S(=O)([N-]c1ccc(Br)cc1)c1ccccc1 (protonated)
O=S(=O)([N-]c1ccc(Br)cc1)c1ccccc1 (3D coordinates assigned)
O=S(=O)([N-]c1ccc(Br)cc1)c1ccccc1 (optimized conformer: 29.617651813049207 kcal/mol)

>  <smiles>  (31) 
O=S(=O)(Nc1ccc(Br)cc1)c1ccccc1

>  <score_type>  (31) 
oracle

>  <origin>  (31) 
adg

>  <m_score__min__energy>  (31) 
-8.5

>  <m_primary>  (31) 
energy

$$$$
31:0
     RDKit          3D

 70 72  0  0  0  0  0  0  0  0999 V2000
   -8.7480   18.6610  -31.6340 C   0  0  0  0  0  0  0  0  0  0  0  0
   -7.8280   19.7850  -32.1160 C   0  0  0  0  0  0  0  0  0  0  0  0
   -6.9080   19.3450  -33.2650 C   0  0  0  0  0  0  0  0  0  0  0  0
   -5.7930   18.3810  -32.7900 C   0  0  0  0  0  0  0  0  0  0  0  0
   -4.3380   18.6660  -33.3400 C   0  0  2  0  0  0  0  0  0  0  0  0
   -4.4530   18.5380  -34.9090 C   0  0  0  0  0  0  0  0  0  0  0  0
   -4.2480   17.1760  -35.5690 C   0  0  0  0  0  0  0  0  0  0  0  0
   -3.4780   17.4910  -32.7250 C   0  0  0  0  0  0  0  0  0  0  0  0
   -1.6880   17.4150  -32.9620 S   0  0  0  0  0  0  0  0  0  0  0  0
   -1.3950   16.2580  -33.8750 O   0  0  0  0  0  0  0  0  0  0  0  0
   -1.0490   17.1300  -31.6310 O   0  0  0  0  0  0  0  0  0  0  0  0
   -0.9440   18.8780  -33.6080 C   0  0  0  0  0  0  0  0  0  0  0  0
    0.1050   18.7570  -34.5290 C   0  0  0  0  0  0  0  0  0  0  0  0
    0.6770   19.8860  -35.1100 C   0  0  0  0  0  0  0  0  0  0  0  0
    0.2080   21.1740  -34.7940 C   0  0  0  0  0  0  0  0  0  0  0  0
    0.7900   22.3520  -35.4110 N   0  0  0  0  0  0  0  0  0  0  0  0
    2.2410   22.5790  -35.3690 C   0  0  0  0  0  0  0  0  0  0  0  0
   -0.0620   23.3370  -36.0890 C   0  0  0  0  0  0  0  0  0  0  0  0
   -0.8380   21.2910  -33.8580 C   0  0  0  0  0  0  0  0  0  0  0  0
   -1.3960   20.1560  -33.2310 C   0  0  0  0  0  0  0  0  0  0  0  0
   -2.4990   20.3030  -32.1980 C   0  0  1  0  0  0  0  0  0  0  0  0
   -2.3010   21.5550  -31.3350 C   0  0  0  0  0  0  0  0  0  0  0  0
   -1.2750   21.6920  -30.3790 C   0  0  0  0  0  0  0  0  0  0  0  0
   -1.1690   22.8520  -29.6100 C   0  0  0  0  0  0  0  0  0  0  0  0
   -2.0890   23.9030  -29.7680 C   0  0  0  0  0  0  0  0  0  0  0  0
   -2.0120   25.0820  -29.0090 O   0  0  0  0  0  0  0  0  0  0  0  0
   -1.9550   25.1240  -27.5870 C   0  0  0  0  0  0  0  0  0  0  0  0
   -3.1210   23.7810  -30.7070 C   0  0  0  0  0  0  0  0  0  0  0  0
   -4.0320   24.8420  -30.8360 O   0  0  0  0  0  0  0  0  0  0  0  0
   -5.3640   24.8270  -30.3330 C   0  0  0  0  0  0  0  0  0  0  0  0
   -3.2180   22.6130  -31.4860 C   0  0  0  0  0  0  0  0  0  0  0  0
   -3.9210   20.1210  -32.8200 C   0  0  1  0  0  0  0  0  0  0  0  0
   -4.2170   21.1160  -33.7720 O   0  0  0  0  0  0  0  0  0  0  0  0
   -8.7615   18.6445  -30.5342 H   0  0  0  0  0  0  0  0  0  0  0  0
   -9.7669   18.8342  -32.0107 H   0  0  0  0  0  0  0  0  0  0  0  0
   -8.3769   17.6964  -32.0107 H   0  0  0  0  0  0  0  0  0  0  0  0
   -8.4491   20.6237  -32.4637 H   0  0  0  0  0  0  0  0  0  0  0  0
   -7.1879   20.0768  -31.2703 H   0  0  0  0  0  0  0  0  0  0  0  0
   -7.5145   18.8355  -34.0282 H   0  0  0  0  0  0  0  0  0  0  0  0
   -6.4236   20.2451  -33.6713 H   0  0  0  0  0  0  0  0  0  0  0  0
   -5.7519   18.4315  -31.6919 H   0  0  0  0  0  0  0  0  0  0  0  0
   -6.0691   17.3941  -33.1897 H   0  0  0  0  0  0  0  0  0  0  0  0
   -5.4619   18.8787  -35.1848 H   0  0  0  0  0  0  0  0  0  0  0  0
   -3.6068   19.1350  -35.2798 H   0  0  0  0  0  0  0  0  0  0  0  0
   -4.1321   16.4059  -34.7922 H   0  0  0  0  0  0  0  0  0  0  0  0
   -5.1203   16.9369  -36.1951 H   0  0  0  0  0  0  0  0  0  0  0  0
   -3.3440   17.2043  -36.1951 H   0  0  0  0  0  0  0  0  0  0  0  0
   -3.6474   17.5168  -31.6384 H   0  0  0  0  0  0  0  0  0  0  0  0
   -3.8311   16.6156  -33.2898 H   0  0  0  0  0  0  0  0  0  0  0  0
    0.4812   17.7585  -34.7963 H   0  0  0  0  0  0  0  0  0  0  0  0
    1.5053   19.7692  -35.8244 H   0  0  0  0  0  0  0  0  0  0  0  0
    2.5738   22.6311  -34.3219 H   0  0  0  0  0  0  0  0  0  0  0  0
    2.7566   21.7506  -35.8769 H   0  0  0  0  0  0  0  0  0  0  0  0
    2.4789   23.5253  -35.8769 H   0  0  0  0  0  0  0  0  0  0  0  0
   -0.5881   23.9452  -35.3384 H   0  0  0  0  0  0  0  0  0  0  0  0
    0.5612   23.9894  -36.7183 H   0  0  0  0  0  0  0  0  0  0  0  0
   -0.7974   22.8143  -36.7183 H   0  0  0  0  0  0  0  0  0  0  0  0
   -1.2287   22.2889  -33.6101 H   0  0  0  0  0  0  0  0  0  0  0  0
   -2.4238   19.4688  -31.4849 H   0  0  0  0  0  0  0  0  0  0  0  0
   -0.5503   20.8766  -30.2373 H   0  0  0  0  0  0  0  0  0  0  0  0
   -0.3576   22.9446  -28.8731 H   0  0  0  0  0  0  0  0  0  0  0  0
   -2.7742   24.5204  -27.1692 H   0  0  0  0  0  0  0  0  0  0  0  0
   -0.9906   24.7190  -27.2466 H   0  0  0  0  0  0  0  0  0  0  0  0
   -2.0562   26.1651  -27.2466 H   0  0  0  0  0  0  0  0  0  0  0  0
   -5.3407   24.8273  -29.2332 H   0  0  0  0  0  0  0  0  0  0  0  0
   -5.9003   25.7192  -30.6886 H   0  0  0  0  0  0  0  0  0  0  0  0
   -5.8801   23.9230  -30.6886 H   0  0  0  0  0  0  0  0  0  0  0  0
   -4.0259   22.5248  -32.2273 H   0  0  0  0  0  0  0  0  0  0  0  0
   -4.5645   20.2474  -31.9369 H   0  0  0  0  0  0  0  0  0  0  0  0
   -4.9960   21.6340  -33.4600 H   0  0  0  0  0  0  0  0  0  0  0  0
  1  2  1  0
  2  3  1  0
  3  4  1  0
  5  4  1  1
  5  6  1  0
  6  7  1  0
  5  8  1  0
  8  9  1  0
  9 10  2  0
  9 11  2  0
  9 12  1  0
 12 13  2  0
 13 14  1  0
 14 15  2  0
 15 16  1  0
 16 17  1  0
 16 18  1  0
 15 19  1  0
 19 20  2  0
 20 21  1  0
 21 22  1  0
 22 23  2  0
 23 24  1  0
 24 25  2  0
 25 26  1  0
 26 27  1  0
 25 28  1  0
 28 29  1  0
 29 30  1  0
 28 31  2  0
 21 32  1  0
 32 33  1  0
 32  5  1  0
 20 12  1  0
 31 22  1  0
  1 34  1  0
  1 35  1  0
  1 36  1  0
  2 37  1  0
  2 38  1  0
  3 39  1  0
  3 40  1  0
  4 41  1  0
  4 42  1  0
  6 43  1  0
  6 44  1  0
  7 45  1  0
  7 46  1  0
  7 47  1  0
  8 48  1  0
  8 49  1  0
 13 50  1  0
 14 51  1  0
 17 52  1  0
 17 53  1  0
 17 54  1  0
 18 55  1  0
 18 56  1  0
 18 57  1  0
 19 58  1  0
 21 59  1  1
 23 60  1  0
 24 61  1  0
 27 62  1  0
 27 63  1  0
 27 64  1  0
 30 65  1  0
 30 66  1  0
 30 67  1  0
 31 68  1  0
 32 69  1  1
 33 70  1  0
M  END
>  <UniqueID>  (32) 
31

>  <SMILES>  (32) 
CCCC[C@]1(CC)CS(=O)(=O)c2ccc(N(C)C)cc2[C@@H](c2ccc(OC)c(OC)c2)C1O

>  <Energy>  (32) 
100.66339200541778

>  <Genealogy>  (32) 
CCCC[C@]1(CC)CS(=O)(=O)c2ccc(N(C)C)cc2[C@@H](c2ccc(OC)c(OC)c2)C1O (chirality)
CCCC[C@]1(CC)CS(=O)(=O)c2ccc(N(C)C)cc2[C@@H](c2ccc(OC)c(OC)c2)C1O (3D coordinates assigned)
CCCC[C@]1(CC)CS(=O)(=O)c2ccc(N(C)C)cc2[C@@H](c2ccc(OC)c(OC)c2)C1O (nonaromatic ring conformer: 100.66339200541778 kcal/mol)

>  <smiles>  (32) 
CCCCC1(CC)CS(=O)(=O)c2ccc(N(C)C)cc2C(c2ccc(OC)c(OC)c2)C1O

>  <score_type>  (32) 
oracle

>  <origin>  (32) 
adg

>  <m_score__min__energy>  (32) 
-6.9100000000000001

>  <m_primary>  (32) 
energy

$$$$
32:0
     RDKit          3D

 45 47  0  0  0  0  0  0  0  0999 V2000
    0.0290   24.1320  -26.6280 C   0  0  0  0  0  0  0  0  0  0  0  0
   -0.1820   23.8510  -28.0080 O   0  0  0  0  0  0  0  0  0  0  0  0
   -1.4310   23.5550  -28.5740 C   0  0  0  0  0  0  0  0  0  0  0  0
   -2.0430   22.2990  -28.4330 C   0  0  0  0  0  0  0  0  0  0  0  0
   -3.2890   22.0540  -29.0130 C   0  0  0  0  0  0  0  0  0  0  0  0
   -3.9500   23.0560  -29.7410 C   0  0  0  0  0  0  0  0  0  0  0  0
   -5.2410   22.7820  -30.3220 N   0  0  0  0  0  0  0  0  0  0  0  0
   -5.3540   22.2870  -31.6980 C   0  0  0  0  0  0  0  0  0  0  0  0
   -6.6220   22.8580  -32.3470 C   0  0  0  0  0  0  0  0  0  0  0  0
   -7.8610   22.5720  -31.5650 N   0  0  0  0  0  0  0  0  0  0  0  0
   -8.7490   21.5850  -32.2330 C   0  0  0  0  0  0  0  0  0  0  0  0
   -8.1510   20.2050  -32.3570 C   0  0  0  0  0  0  0  0  0  0  0  0
   -8.5680   19.0710  -31.6690 C   0  0  0  0  0  0  0  0  0  0  0  0
   -7.8480   17.9200  -32.0090 C   0  0  0  0  0  0  0  0  0  0  0  0
   -6.8710   18.1370  -32.9720 C   0  0  0  0  0  0  0  0  0  0  0  0
   -6.9080   19.7610  -33.4010 S   0  0  0  0  0  0  0  0  0  0  0  0
   -7.6280   22.2260  -30.1380 C   0  0  0  0  0  0  0  0  0  0  0  0
   -6.4610   23.0210  -29.5420 C   0  0  0  0  0  0  0  0  0  0  0  0
   -3.3370   24.3160  -29.9020 C   0  0  0  0  0  0  0  0  0  0  0  0
   -3.9870   25.2970  -30.6680 O   0  0  0  0  0  0  0  0  0  0  0  0
   -5.3280   25.7280  -30.4640 C   0  0  0  0  0  0  0  0  0  0  0  0
   -2.0810   24.5540  -29.3070 C   0  0  0  0  0  0  0  0  0  0  0  0
   -0.5201   23.4007  -26.0168 H   0  0  0  0  0  0  0  0  0  0  0  0
    1.1033   24.0669  -26.4006 H   0  0  0  0  0  0  0  0  0  0  0  0
   -0.3331   25.1455  -26.4006 H   0  0  0  0  0  0  0  0  0  0  0  0
   -1.5385   21.5048  -27.8631 H   0  0  0  0  0  0  0  0  0  0  0  0
   -3.7578   21.0655  -28.8984 H   0  0  0  0  0  0  0  0  0  0  0  0
   -4.4727   22.6041  -32.2748 H   0  0  0  0  0  0  0  0  0  0  0  0
   -5.4112   21.1885  -31.6879 H   0  0  0  0  0  0  0  0  0  0  0  0
   -6.5086   23.9485  -32.4364 H   0  0  0  0  0  0  0  0  0  0  0  0
   -6.7346   22.3732  -33.3280 H   0  0  0  0  0  0  0  0  0  0  0  0
   -8.4100   23.4660  -31.5530 H   0  0  0  0  0  0  0  0  0  0  0  0
   -9.6793   21.5076  -31.6511 H   0  0  0  0  0  0  0  0  0  0  0  0
   -8.9180   21.9512  -33.2564 H   0  0  0  0  0  0  0  0  0  0  0  0
   -9.3832   19.0778  -30.9305 H   0  0  0  0  0  0  0  0  0  0  0  0
   -8.0381   16.9358  -31.5560 H   0  0  0  0  0  0  0  0  0  0  0  0
   -6.1904   17.3768  -33.3829 H   0  0  0  0  0  0  0  0  0  0  0  0
   -8.5399   22.4484  -29.5644 H   0  0  0  0  0  0  0  0  0  0  0  0
   -7.3765   21.1566  -30.0825 H   0  0  0  0  0  0  0  0  0  0  0  0
   -6.7026   24.0939  -29.5632 H   0  0  0  0  0  0  0  0  0  0  0  0
   -6.2955   22.6964  -28.5041 H   0  0  0  0  0  0  0  0  0  0  0  0
   -5.5320   25.7936  -29.3851 H   0  0  0  0  0  0  0  0  0  0  0  0
   -5.4694   26.7168  -30.9246 H   0  0  0  0  0  0  0  0  0  0  0  0
   -6.0191   25.0067  -30.9246 H   0  0  0  0  0  0  0  0  0  0  0  0
   -1.6053   25.5393  -29.4207 H   0  0  0  0  0  0  0  0  0  0  0  0
  1  2  1  0
  2  3  1  0
  3  4  2  0
  4  5  1  0
  5  6  2  0
  6  7  1  0
  7  8  1  0
  8  9  1  0
  9 10  1  0
 10 11  1  0
 11 12  1  0
 12 13  2  0
 13 14  1  0
 14 15  2  0
 15 16  1  0
 10 17  1  0
 17 18  1  0
  6 19  1  0
 19 20  1  0
 20 21  1  0
 19 22  2  0
 22  3  1  0
 18  7  1  0
 16 12  1  0
  1 23  1  0
  1 24  1  0
  1 25  1  0
  4 26  1  0
  5 27  1  0
  8 28  1  0
  8 29  1  0
  9 30  1  0
  9 31  1  0
 10 32  1  0
 11 33  1  0
 11 34  1  0
 13 35  1  0
 14 36  1  0
 15 37  1  0
 17 38  1  0
 17 39  1  0
 18 40  1  0
 18 41  1  0
 21 42  1  0
 21 43  1  0
 21 44  1  0
 22 45  1  0
M  CHG  1  10   1
M  END
>  <UniqueID>  (33) 
32

>  <SMILES>  (33) 
COc1ccc(N2CC[NH+](Cc3cccs3)CC2)c(OC)c1

>  <Energy>  (33) 
83.90225264157641

>  <Genealogy>  (33) 
COc1ccc(N2CC[NH+](Cc3cccs3)CC2)c(OC)c1 (protonated)
COc1ccc(N2CC[NH+](Cc3cccs3)CC2)c(OC)c1 (3D coordinates assigned)
COc1ccc(N2CC[NH+](Cc3cccs3)CC2)c(OC)c1 (nonaromatic ring conformer: 83.90225264157641 kcal/mol)

>  <smiles>  (33) 
COc1ccc(N2CCN(Cc3cccs3)CC2)c(OC)c1

>  <score_type>  (33) 
oracle

>  <origin>  (33) 
adg

>  <m_score__min__energy>  (33) 
-6.8899999999999997

>  <m_primary>  (33) 
energy

$$$$
33:0
     RDKit          3D

 38 39  0  0  0  0  0  0  0  0999 V2000
   -6.6160   16.1870  -34.1530 C   0  0  0  0  0  0  0  0  0  0  0  0
   -6.6980   16.7350  -32.7440 C   0  0  0  0  0  0  0  0  0  0  0  0
   -6.6010   18.1600  -32.6420 N   0  0  0  0  0  0  0  0  0  0  0  0
   -6.1130   18.6200  -33.9660 C   0  0  0  0  0  0  0  0  0  0  0  0
   -4.6490   18.8220  -34.0210 C   0  0  0  0  0  0  0  0  0  0  0  0
   -7.8280   18.8680  -32.4550 C   0  0  0  0  0  0  0  0  0  0  0  0
   -7.8510   20.0170  -31.5270 C   0  0  0  0  0  0  0  0  0  0  0  0
   -7.7530   21.3260  -32.3500 C   0  0  0  0  0  0  0  0  0  0  0  0
   -6.5230   22.0030  -32.0910 N   0  0  0  0  0  0  0  0  0  0  0  0
   -5.2840   21.7130  -32.5860 C   0  0  0  0  0  0  0  0  0  0  0  0
   -4.3970   22.6090  -32.0670 N   0  0  0  0  0  0  0  0  0  0  0  0
   -5.0830   23.4470  -31.2560 C   0  0  0  0  0  0  0  0  0  0  0  0
   -4.6680   24.5220  -30.4930 C   0  0  0  0  0  0  0  0  0  0  0  0
   -3.4400   24.9180  -30.4380 N   0  0  0  0  0  0  0  0  0  0  0  0
   -5.5800   25.2120  -29.7510 N   0  0  0  0  0  0  0  0  0  0  0  0
   -6.8690   24.8160  -29.7910 C   0  0  0  0  0  0  0  0  0  0  0  0
   -7.3010   23.7770  -30.5210 N   0  0  0  0  0  0  0  0  0  0  0  0
   -6.4230   23.0760  -31.2640 C   0  0  0  0  0  0  0  0  0  0  0  0
   -6.4533   15.0998  -34.1147 H   0  0  0  0  0  0  0  0  0  0  0  0
   -7.5558   16.3986  -34.6840 H   0  0  0  0  0  0  0  0  0  0  0  0
   -5.7793   16.6645  -34.6840 H   0  0  0  0  0  0  0  0  0  0  0  0
   -7.6624   16.4270  -32.3137 H   0  0  0  0  0  0  0  0  0  0  0  0
   -5.8294   16.3285  -32.2052 H   0  0  0  0  0  0  0  0  0  0  0  0
   -6.3884   17.8668  -34.7188 H   0  0  0  0  0  0  0  0  0  0  0  0
   -6.5804   19.5966  -34.1601 H   0  0  0  0  0  0  0  0  0  0  0  0
   -4.2478   18.8774  -32.9983 H   0  0  0  0  0  0  0  0  0  0  0  0
   -4.1824   17.9797  -34.5528 H   0  0  0  0  0  0  0  0  0  0  0  0
   -4.4279   19.7592  -34.5528 H   0  0  0  0  0  0  0  0  0  0  0  0
   -8.1390   19.2426  -33.4414 H   0  0  0  0  0  0  0  0  0  0  0  0
   -8.4922   18.1298  -31.9817 H   0  0  0  0  0  0  0  0  0  0  0  0
   -8.7897   20.0103  -30.9536 H   0  0  0  0  0  0  0  0  0  0  0  0
   -7.0036   19.9503  -30.8288 H   0  0  0  0  0  0  0  0  0  0  0  0
   -7.8108   21.0825  -33.4211 H   0  0  0  0  0  0  0  0  0  0  0  0
   -8.5838   21.9856  -32.0590 H   0  0  0  0  0  0  0  0  0  0  0  0
   -5.0430   20.8971  -33.2833 H   0  0  0  0  0  0  0  0  0  0  0  0
   -2.6740   24.4630  -30.9910 H   0  0  0  0  0  0  0  0  0  0  0  0
   -5.2760   26.0360  -29.1650 H   0  0  0  0  0  0  0  0  0  0  0  0
   -7.6045   25.3746  -29.1935 H   0  0  0  0  0  0  0  0  0  0  0  0
  1  2  1  0
  2  3  1  0
  3  4  1  0
  4  5  1  0
  3  6  1  0
  6  7  1  0
  7  8  1  0
  8  9  1  0
  9 10  1  0
 10 11  2  0
 11 12  1  0
 12 13  1  0
 13 14  2  3
 13 15  1  0
 15 16  1  0
 16 17  2  0
 17 18  1  0
 18  9  1  0
 18 12  2  0
  1 19  1  0
  1 20  1  0
  1 21  1  0
  2 22  1  0
  2 23  1  0
  4 24  1  0
  4 25  1  0
  5 26  1  0
  5 27  1  0
  5 28  1  0
  6 29  1  0
  6 30  1  0
  7 31  1  0
  7 32  1  0
  8 33  1  0
  8 34  1  0
 10 35  1  0
 14 36  1  0
 15 37  1  0
 16 38  1  0
M  END
>  <smiles>  (34) 
CCN(CC)CCCn1cnc2c(=N)[nH]cnc21

>  <score_type>  (34) 
oracle

>  <origin>  (34) 
adg

>  <m_score__min__energy>  (34) 
-6.4000000000000004

>  <m_primary>  (34) 
energy

$$$$
34:0
     RDKit          3D

 27 27  0  0  0  0  0  0  0  0999 V2000
   -5.3770   25.1760  -30.5520 C   0  0  0  0  0  0  0  0  0  0  0  0
   -5.3080   24.1910  -31.5780 O   0  0  0  0  0  0  0  0  0  0  0  0
   -6.2640   23.1840  -31.7730 C   0  0  0  0  0  0  0  0  0  0  0  0
   -7.6400   23.4050  -31.6080 C   0  0  0  0  0  0  0  0  0  0  0  0
   -8.5380   22.3570  -31.8140 C   0  0  0  0  0  0  0  0  0  0  0  0
   -8.0940   21.1110  -32.1630 N   0  0  0  0  0  0  0  0  0  0  0  0
   -9.0770   20.0430  -32.3780 C   0  0  0  0  0  0  0  0  0  0  0  0
   -6.7530   20.8820  -32.3550 C   0  0  0  0  0  0  0  0  0  0  0  0
   -6.2750   19.5920  -32.7630 N   0  0  0  0  0  0  0  0  0  0  0  0
   -6.2430   18.5080  -31.7830 C   0  0  0  0  0  0  0  0  0  0  0  0
   -6.1130   19.3010  -34.1860 C   0  0  0  0  0  0  0  0  0  0  0  0
   -5.8270   21.9140  -32.1490 C   0  0  0  0  0  0  0  0  0  0  0  0
   -5.3425   24.6842  -29.5687 H   0  0  0  0  0  0  0  0  0  0  0  0
   -4.5249   25.8651  -30.6474 H   0  0  0  0  0  0  0  0  0  0  0  0
   -6.3168   25.7396  -30.6474 H   0  0  0  0  0  0  0  0  0  0  0  0
   -8.0089   24.3998  -31.3176 H   0  0  0  0  0  0  0  0  0  0  0  0
   -9.6169   22.5351  -31.6942 H   0  0  0  0  0  0  0  0  0  0  0  0
   -9.4255   19.6643  -31.4058 H   0  0  0  0  0  0  0  0  0  0  0  0
   -9.9320   20.4403  -32.9447 H   0  0  0  0  0  0  0  0  0  0  0  0
   -8.6103   19.2238  -32.9447 H   0  0  0  0  0  0  0  0  0  0  0  0
   -6.2555   18.9311  -30.7677 H   0  0  0  0  0  0  0  0  0  0  0  0
   -7.1225   17.8621  -31.9219 H   0  0  0  0  0  0  0  0  0  0  0  0
   -5.3270   17.9151  -31.9219 H   0  0  0  0  0  0  0  0  0  0  0  0
   -5.5812   18.3457  -34.3067 H   0  0  0  0  0  0  0  0  0  0  0  0
   -7.1027   19.2323  -34.6612 H   0  0  0  0  0  0  0  0  0  0  0  0
   -5.5332   20.1060  -34.6612 H   0  0  0  0  0  0  0  0  0  0  0  0
   -4.7524   21.7216  -32.2843 H   0  0  0  0  0  0  0  0  0  0  0  0
  1  2  1  0
  2  3  1  0
  3  4  2  0
  4  5  1  0
  5  6  2  0
  6  7  1  0
  6  8  1  0
  8  9  1  0
  9 10  1  0
  9 11  1  0
  8 12  2  0
 12  3  1  0
  1 13  1  0
  1 14  1  0
  1 15  1  0
  4 16  1  0
  5 17  1  0
  7 18  1  0
  7 19  1  0
  7 20  1  0
 10 21  1  0
 10 22  1  0
 10 23  1  0
 11 24  1  0
 11 25  1  0
 11 26  1  0
 12 27  1  0
M  CHG  1   6   1
M  END
>  <UniqueID>  (35) 
33

>  <SMILES>  (35) 
COc1cc[n+](C)c(N(C)C)c1

>  <Energy>  (35) 
29.392406258080065

>  <Genealogy>  (35) 
COc1cc[n+](C)c(N(C)C)c1 (3D coordinates assigned)
COc1cc[n+](C)c(N(C)C)c1 (optimized conformer: 29.392406258080065 kcal/mol)

>  <smiles>  (35) 
COc1cc[n+](C)c(N(C)C)c1

>  <score_type>  (35) 
oracle

>  <origin>  (35) 
adg

>  <m_score__min__energy>  (35) 
-4.0499999999999998

>  <m_primary>  (35) 
energy

$$$$
35:0
     RDKit          3D

 46 47  0  0  0  0  0  0  0  0999 V2000
   -6.5680   14.5360  -34.2280 C   0  0  0  0  0  0  0  0  0  0  0  0
   -5.8280   15.8270  -34.0460 C   0  0  0  0  0  0  0  0  0  0  0  0
   -4.4590   15.8190  -33.7460 C   0  0  0  0  0  0  0  0  0  0  0  0
   -3.7530   17.0230  -33.6150 C   0  0  0  0  0  0  0  0  0  0  0  0
   -2.2790   17.0080  -33.3340 C   0  0  0  0  0  0  0  0  0  0  0  0
   -4.4170   18.2410  -33.8230 C   0  0  0  0  0  0  0  0  0  0  0  0
   -5.7930   18.2670  -34.1170 C   0  0  0  0  0  0  0  0  0  0  0  0
   -6.4750   19.5240  -34.3270 N   0  0  0  0  0  0  0  0  0  0  0  0
   -7.0480   20.0180  -33.0970 C   0  0  0  0  0  0  0  0  0  0  0  0
   -8.3770   19.2740  -32.4700 S   0  0  0  0  0  0  0  0  0  0  0  0
   -6.4870   21.1730  -32.4320 N   0  0  0  0  0  0  0  0  0  0  0  0
   -5.0260   21.3230  -32.3520 C   0  0  0  0  0  0  0  0  0  0  0  0
   -4.6240   22.4390  -31.3820 C   0  0  0  0  0  0  0  0  0  0  0  0
   -5.3530   23.7480  -31.7480 C   0  0  0  0  0  0  0  0  0  0  0  0
   -4.9520   24.8640  -30.8460 N   0  0  0  0  0  0  0  0  0  0  0  0
   -3.8390   24.5490  -29.9290 C   0  0  0  0  0  0  0  0  0  0  0  0
   -6.1000   25.4230  -30.1100 C   0  0  0  0  0  0  0  0  0  0  0  0
   -6.8960   23.5580  -31.8910 C   0  0  0  0  0  0  0  0  0  0  0  0
   -7.3580   22.1060  -31.6980 C   0  0  0  0  0  0  0  0  0  0  0  0
   -6.4850   17.0500  -34.2490 C   0  0  0  0  0  0  0  0  0  0  0  0
   -6.8116   14.1110  -33.2431 H   0  0  0  0  0  0  0  0  0  0  0  0
   -7.4969   14.7215  -34.7872 H   0  0  0  0  0  0  0  0  0  0  0  0
   -5.9385   13.8282  -34.7872 H   0  0  0  0  0  0  0  0  0  0  0  0
   -3.9348   14.8612  -33.6124 H   0  0  0  0  0  0  0  0  0  0  0  0
   -2.1130   17.0063  -32.2466 H   0  0  0  0  0  0  0  0  0  0  0  0
   -1.8309   16.1052  -33.7747 H   0  0  0  0  0  0  0  0  0  0  0  0
   -1.8126   17.9014  -33.7747 H   0  0  0  0  0  0  0  0  0  0  0  0
   -3.8566   19.1852  -33.7556 H   0  0  0  0  0  0  0  0  0  0  0  0
   -5.8250   20.2440  -34.7170 H   0  0  0  0  0  0  0  0  0  0  0  0
   -7.2310   19.3870  -35.0380 H   0  0  0  0  0  0  0  0  0  0  0  0
   -4.5886   20.3749  -32.0059 H   0  0  0  0  0  0  0  0  0  0  0  0
   -4.6527   21.5868  -33.3525 H   0  0  0  0  0  0  0  0  0  0  0  0
   -4.8957   22.1456  -30.3573 H   0  0  0  0  0  0  0  0  0  0  0  0
   -3.5381   22.6008  -31.4497 H   0  0  0  0  0  0  0  0  0  0  0  0
   -5.0227   24.0446  -32.7544 H   0  0  0  0  0  0  0  0  0  0  0  0
   -4.1825   24.6462  -28.8885 H   0  0  0  0  0  0  0  0  0  0  0  0
   -3.4972   23.5188  -30.1076 H   0  0  0  0  0  0  0  0  0  0  0  0
   -3.0080   25.2472  -30.1076 H   0  0  0  0  0  0  0  0  0  0  0  0
   -5.9200   25.3353  -29.0284 H   0  0  0  0  0  0  0  0  0  0  0  0
   -6.2252   26.4829  -30.3761 H   0  0  0  0  0  0  0  0  0  0  0  0
   -7.0116   24.8679  -30.3761 H   0  0  0  0  0  0  0  0  0  0  0  0
   -7.3948   24.1846  -31.1370 H   0  0  0  0  0  0  0  0  0  0  0  0
   -7.1624   23.8471  -32.9184 H   0  0  0  0  0  0  0  0  0  0  0  0
   -7.3283   21.8585  -30.6266 H   0  0  0  0  0  0  0  0  0  0  0  0
   -8.3821   22.0094  -32.0877 H   0  0  0  0  0  0  0  0  0  0  0  0
   -7.5525   17.0569  -34.5142 H   0  0  0  0  0  0  0  0  0  0  0  0
  1  2  1  0
  2  3  2  0
  3  4  1  0
  4  5  1  0
  4  6  2  0
  6  7  1  0
  7  8  1  0
  8  9  1  0
  9 10  2  0
  9 11  1  0
 11 12  1  0
 12 13  1  0
 13 14  1  0
 14 15  1  0
 15 16  1  0
 15 17  1  0
 14 18  1  0
 18 19  1  0
  7 20  2  0
 20  2  1  0
 19 11  1  0
  1 21  1  0
  1 22  1  0
  1 23  1  0
  3 24  1  0
  5 25  1  0
  5 26  1  0
  5 27  1  0
  6 28  1  0
  8 29  1  0
  8 30  1  0
 12 31  1  0
 12 32  1  0
 13 33  1  0
 13 34  1  0
 14 35  1  0
 16 36  1  0
 16 37  1  0
 16 38  1  0
 17 39  1  0
 17 40  1  0
 17 41  1  0
 18 42  1  0
 18 43  1  0
 19 44  1  0
 19 45  1  0
 20 46  1  0
M  CHG  1   8   1
M  END
>  <UniqueID>  (36) 
34

>  <SMILES>  (36) 
Cc1cc(C)cc([NH2+]C(=S)N2CCC(N(C)C)CC2)c1

>  <Energy>  (36) 
55.62658749596721

>  <Genealogy>  (36) 
Cc1cc(C)cc([NH2+]C(=S)N2CCC(N(C)C)CC2)c1 (protonated)
Cc1cc(C)cc([NH2+]C(=S)N2CCC(N(C)C)CC2)c1 (3D coordinates assigned)
Cc1cc(C)cc([NH2+]C(=S)N2CCC(N(C)C)CC2)c1 (nonaromatic ring conformer: 55.62658749596721 kcal/mol)

>  <smiles>  (36) 
Cc1cc(C)cc(NC(=S)N2CCC(N(C)C)CC2)c1

>  <score_type>  (36) 
oracle

>  <origin>  (36) 
adg

>  <m_score__min__energy>  (36) 
-7.9000000000000004

>  <m_primary>  (36) 
energy

$$$$
36:0
     RDKit          3D

 29 30  0  0  0  0  0  0  0  0999 V2000
   -2.2510   21.5460  -31.4600 C   0  0  0  0  0  0  0  0  0  0  0  0
   -3.3250   21.0240  -32.3180 N   0  0  0  0  0  0  0  0  0  0  0  0
   -2.7850   20.1010  -33.3270 C   0  0  0  0  0  0  0  0  0  0  0  0
   -4.1620   22.0970  -32.9060 C   0  0  0  0  0  0  0  0  0  0  0  0
   -5.4860   22.2210  -32.2520 N   0  0  0  0  0  0  0  0  0  0  0  0
   -5.8120   23.4480  -31.5630 C   0  0  0  0  0  0  0  0  0  0  0  0
   -4.9080   24.2570  -31.2170 O   0  0  0  0  0  0  0  0  0  0  0  0
   -7.2440   23.8010  -31.3170 C   0  0  0  0  0  0  0  0  0  0  0  0
   -8.0080   22.6330  -31.0360 O   0  0  0  0  0  0  0  0  0  0  0  0
   -7.7240   21.3910  -31.6100 C   0  0  0  0  0  0  0  0  0  0  0  0
   -8.6850   20.3780  -31.5320 C   0  0  0  0  0  0  0  0  0  0  0  0
   -8.4310   19.1230  -32.0850 C   0  0  0  0  0  0  0  0  0  0  0  0
   -7.2080   18.8710  -32.7080 C   0  0  0  0  0  0  0  0  0  0  0  0
   -6.8590   17.1480  -33.4540 Br  0  0  0  0  0  0  0  0  0  0  0  0
   -6.2340   19.8730  -32.7780 C   0  0  0  0  0  0  0  0  0  0  0  0
   -6.4790   21.1570  -32.2370 C   0  0  0  0  0  0  0  0  0  0  0  0
   -2.5275   21.4116  -30.4038 H   0  0  0  0  0  0  0  0  0  0  0  0
   -1.3184   21.0006  -31.6672 H   0  0  0  0  0  0  0  0  0  0  0  0
   -2.1037   22.6162  -31.6672 H   0  0  0  0  0  0  0  0  0  0  0  0
   -2.2909   19.2565  -32.8243 H   0  0  0  0  0  0  0  0  0  0  0  0
   -3.6053   19.7244  -33.9558 H   0  0  0  0  0  0  0  0  0  0  0  0
   -2.0548   20.6315  -33.9558 H   0  0  0  0  0  0  0  0  0  0  0  0
   -3.6290   23.0537  -32.8031 H   0  0  0  0  0  0  0  0  0  0  0  0
   -4.3382   21.8371  -33.9602 H   0  0  0  0  0  0  0  0  0  0  0  0
   -7.3048   24.4874  -30.4596 H   0  0  0  0  0  0  0  0  0  0  0  0
   -7.6504   24.2814  -32.2193 H   0  0  0  0  0  0  0  0  0  0  0  0
   -9.6456   20.5719  -31.0323 H   0  0  0  0  0  0  0  0  0  0  0  0
   -9.1940   18.3326  -32.0301 H   0  0  0  0  0  0  0  0  0  0  0  0
   -5.2677   19.6602  -33.2587 H   0  0  0  0  0  0  0  0  0  0  0  0
  1  2  1  0
  2  3  1  0
  2  4  1  0
  4  5  1  0
  5  6  1  0
  6  7  2  0
  6  8  1  0
  8  9  1  0
  9 10  1  0
 10 11  2  0
 11 12  1  0
 12 13  2  0
 13 14  1  0
 13 15  1  0
 15 16  2  0
 16  5  1  0
 16 10  1  0
  1 17  1  0
  1 18  1  0
  1 19  1  0
  3 20  1  0
  3 21  1  0
  3 22  1  0
  4 23  1  0
  4 24  1  0
  8 25  1  0
  8 26  1  0
 11 27  1  0
 12 28  1  0
 15 29  1  0
M  END
>  <UniqueID>  (37) 
35

>  <SMILES>  (37) 
CN(C)CN1C(=O)COc2ccc(Br)cc21

>  <Energy>  (37) 
37.49734703132051

>  <Genealogy>  (37) 
CN(C)CN1C(=O)COc2ccc(Br)cc21 (3D coordinates assigned)
CN(C)CN1C(=O)COc2ccc(Br)cc21 (nonaromatic ring conformer: 37.49734703132051 kcal/mol)

>  <smiles>  (37) 
CN(C)CN1C(=O)COc2ccc(Br)cc21

>  <score_type>  (37) 
oracle

>  <origin>  (37) 
adg

>  <m_score__min__energy>  (37) 
-6.2599999999999998

>  <m_primary>  (37) 
energy

$$$$
37:0
     RDKit          3D

 52 55  0  0  0  0  0  0  0  0999 V2000
   -6.4750   25.6470  -29.3370 C   0  0  0  0  0  0  0  0  0  0  0  0
   -5.7050   25.0340  -30.3630 O   0  0  0  0  0  0  0  0  0  0  0  0
   -6.0250   23.8210  -30.9920 C   0  0  0  0  0  0  0  0  0  0  0  0
   -7.3590   23.3710  -31.0620 C   0  0  0  0  0  0  0  0  0  0  0  0
   -7.6750   22.1770  -31.7140 C   0  0  0  0  0  0  0  0  0  0  0  0
   -8.9660   21.7690  -31.7820 N   0  0  0  0  0  0  0  0  0  0  0  0
   -9.2970   20.6150  -32.4190 C   0  0  0  0  0  0  0  0  0  0  0  0
   -8.3330   19.8460  -32.9910 N   0  0  0  0  0  0  0  0  0  0  0  0
   -7.0210   20.2140  -32.9540 C   0  0  0  0  0  0  0  0  0  0  0  0
   -6.0230   19.3490  -33.5110 N   0  0  0  0  0  0  0  0  0  0  0  0
   -6.1060   18.8100  -34.8550 C   0  0  0  0  0  0  0  0  0  0  0  0
   -4.9180   17.8620  -34.9900 C   0  0  0  0  0  0  0  0  0  0  0  0
   -4.4700   17.5660  -33.5500 C   0  0  1  0  0  0  0  0  0  0  0  0
   -3.0050   17.4200  -33.4070 N   0  0  0  0  0  0  0  0  0  0  0  0
   -2.4050   16.1180  -33.0830 C   0  0  0  0  0  0  0  0  0  0  0  0
   -2.1520   18.5110  -33.8140 C   0  0  0  0  0  0  0  0  0  0  0  0
   -0.9990   18.2830  -34.5890 C   0  0  0  0  0  0  0  0  0  0  0  0
   -0.2050   19.3620  -34.9810 C   0  0  0  0  0  0  0  0  0  0  0  0
   -0.5530   20.6590  -34.5970 C   0  0  0  0  0  0  0  0  0  0  0  0
    0.2610   21.7790  -34.9910 C   0  0  0  0  0  0  0  0  0  0  0  0
    0.9200   22.6800  -35.3060 N   0  0  0  0  0  0  0  0  0  0  0  0
   -1.6980   20.8540  -33.8170 C   0  0  0  0  0  0  0  0  0  0  0  0
   -2.4590   19.7890  -33.4470 N   0  0  0  0  0  0  0  0  0  0  0  0
   -5.0210   18.6990  -32.6870 C   0  0  0  0  0  0  0  0  0  0  0  0
   -6.6560   21.4150  -32.3170 C   0  0  0  0  0  0  0  0  0  0  0  0
   -5.3270   21.8720  -32.2750 C   0  0  0  0  0  0  0  0  0  0  0  0
   -4.9980   23.0490  -31.5890 C   0  0  0  0  0  0  0  0  0  0  0  0
   -3.6400   23.4210  -31.5260 O   0  0  0  0  0  0  0  0  0  0  0  0
   -2.6220   22.6700  -30.8700 C   0  0  0  0  0  0  0  0  0  0  0  0
   -6.0881   25.3389  -28.3545 H   0  0  0  0  0  0  0  0  0  0  0  0
   -6.4070   26.7408  -29.4314 H   0  0  0  0  0  0  0  0  0  0  0  0
   -7.5257   25.3355  -29.4314 H   0  0  0  0  0  0  0  0  0  0  0  0
   -8.1594   23.9664  -30.5983 H   0  0  0  0  0  0  0  0  0  0  0  0
  -10.3501   20.3017  -32.4720 H   0  0  0  0  0  0  0  0  0  0  0  0
   -8.6080   18.9460  -33.4490 H   0  0  0  0  0  0  0  0  0  0  0  0
   -7.0509   18.2637  -34.9921 H   0  0  0  0  0  0  0  0  0  0  0  0
   -6.0813   19.6049  -35.6150 H   0  0  0  0  0  0  0  0  0  0  0  0
   -5.2210   16.9344  -35.4977 H   0  0  0  0  0  0  0  0  0  0  0  0
   -4.1076   18.3026  -35.5893 H   0  0  0  0  0  0  0  0  0  0  0  0
   -4.8645   16.5907  -33.2289 H   0  0  0  0  0  0  0  0  0  0  0  0
   -2.3510   16.0008  -31.9906 H   0  0  0  0  0  0  0  0  0  0  0  0
   -3.0232   15.3135  -33.5080 H   0  0  0  0  0  0  0  0  0  0  0  0
   -1.3918   16.0653  -33.5080 H   0  0  0  0  0  0  0  0  0  0  0  0
   -0.7251   17.2594  -34.8842 H   0  0  0  0  0  0  0  0  0  0  0  0
    0.6938   19.1910  -35.5917 H   0  0  0  0  0  0  0  0  0  0  0  0
   -1.9829   21.8689  -33.5028 H   0  0  0  0  0  0  0  0  0  0  0  0
   -5.4763   18.2989  -31.7690 H   0  0  0  0  0  0  0  0  0  0  0  0
   -4.2320   19.3969  -32.3703 H   0  0  0  0  0  0  0  0  0  0  0  0
   -4.5380   21.3003  -32.7854 H   0  0  0  0  0  0  0  0  0  0  0  0
   -2.7443   22.7602  -29.7805 H   0  0  0  0  0  0  0  0  0  0  0  0
   -2.7012   21.6123  -31.1615 H   0  0  0  0  0  0  0  0  0  0  0  0
   -1.6348   23.0578  -31.1615 H   0  0  0  0  0  0  0  0  0  0  0  0
  1  2  1  0
  2  3  1  0
  3  4  2  0
  4  5  1  0
  5  6  2  0
  6  7  1  0
  7  8  2  0
  8  9  1  0
  9 10  1  0
 10 11  1  0
 11 12  1  0
 12 13  1  0
 13 14  1  0
 14 15  1  0
 14 16  1  0
 16 17  2  0
 17 18  1  0
 18 19  2  0
 19 20  1  0
 20 21  3  0
 19 22  1  0
 22 23  2  0
 13 24  1  0
  9 25  2  0
 25 26  1  0
 26 27  2  0
 27 28  1  0
 28 29  1  0
 27  3  1  0
 25  5  1  0
 24 10  1  0
 23 16  1  0
  1 30  1  0
  1 31  1  0
  1 32  1  0
  4 33  1  0
  7 34  1  0
  8 35  1  0
 11 36  1  0
 11 37  1  0
 12 38  1  0
 12 39  1  0
 13 40  1  1
 15 41  1  0
 15 42  1  0
 15 43  1  0
 17 44  1  0
 18 45  1  0
 22 46  1  0
 24 47  1  0
 24 48  1  0
 26 49  1  0
 29 50  1  0
 29 51  1  0
 29 52  1  0
M  CHG  1   8   1
M  END
>  <UniqueID>  (38) 
36

>  <SMILES>  (38) 
COc1cc2nc[nH+]c(N3CC[C@@H](N(C)c4ccc(C#N)cn4)C3)c2cc1OC

>  <Energy>  (38) 
72.11554987623444

>  <Genealogy>  (38) 
COc1cc2nc[nH+]c(N3CCC(N(C)c4ccc(C#N)cn4)C3)c2cc1OC (protonated)
COc1cc2nc[nH+]c(N3CC[C@@H](N(C)c4ccc(C#N)cn4)C3)c2cc1OC (chirality)
COc1cc2nc[nH+]c(N3CC[C@@H](N(C)c4ccc(C#N)cn4)C3)c2cc1OC (3D coordinates assigned)
COc1cc2nc[nH+]c(N3CC[C@@H](N(C)c4ccc(C#N)cn4)C3)c2cc1OC (nonaromatic ring conformer: 72.11554987623444 kcal/mol)

>  <smiles>  (38) 
COc1cc2ncnc(N3CCC(N(C)c4ccc(C#N)cn4)C3)c2cc1OC

>  <score_type>  (38) 
oracle

>  <origin>  (38) 
adg

>  <m_score__min__energy>  (38) 
-8.3399999999999999

>  <m_primary>  (38) 
energy

$$$$
38:0
     RDKit          3D

 46 47  0  0  1  0  0  0  0  0999 V2000
   -6.1160   26.0490  -29.7140 C   0  0  0  0  0  0  0  0  0  0  0  0
   -5.6550   24.7930  -30.3830 C   0  0  0  0  0  0  0  0  0  0  0  0
   -4.3560   24.5050  -30.5430 N   0  0  0  0  0  0  0  0  0  0  0  0
   -3.9890   23.3670  -31.1540 C   0  0  0  0  0  0  0  0  0  0  0  0
   -2.7220   23.0420  -31.3190 N   0  0  0  0  0  0  0  0  0  0  0  0
   -2.3510   21.6180  -31.1730 C   0  0  0  0  0  0  0  0  0  0  0  0
   -1.1650   21.5990  -30.2390 C   0  0  0  0  0  0  0  0  0  0  0  0
   -0.8130   22.9740  -29.9050 N   0  0  0  0  0  0  0  0  0  0  0  0
   -0.9680   23.1490  -28.4850 C   0  0  0  0  0  0  0  0  0  0  0  0
   -1.4620   24.5300  -28.0930 C   0  0  0  0  0  0  0  0  0  0  0  0
   -1.6840   25.2790  -29.3360 N   0  0  0  0  0  0  0  0  0  0  0  0
   -4.9420   22.4980  -31.6130 C   0  0  0  0  0  0  0  0  0  0  0  0
   -6.3030   22.8480  -31.4220 C   0  0  0  0  0  0  0  0  0  0  0  0
   -7.2420   21.8910  -31.8970 N   0  0  0  0  0  0  0  0  0  0  0  0
   -8.6480   21.9290  -31.6720 C   0  0  0  0  0  0  0  0  0  0  0  0
   -9.4350   20.7450  -32.0680 C   0  0  0  0  0  0  0  0  0  0  0  0
   -8.7100   19.5410  -32.5330 C   0  0  0  0  0  0  0  0  0  0  0  0
   -7.2540   19.5380  -32.1110 C   0  0  0  0  0  0  0  0  0  0  0  0
   -6.6700   20.8000  -32.7010 C   0  0  0  0  0  0  0  0  0  0  0  0
   -6.6540   23.9780  -30.8180 N   0  0  0  0  0  0  0  0  0  0  0  0
   -6.0692   25.9214  -28.6224 H   0  0  0  0  0  0  0  0  0  0  0  0
   -5.4658   26.8840  -30.0138 H   0  0  0  0  0  0  0  0  0  0  0  0
   -7.1521   26.2651  -30.0138 H   0  0  0  0  0  0  0  0  0  0  0  0
   -3.1867   21.0459  -30.7436 H   0  0  0  0  0  0  0  0  0  0  0  0
   -2.1111   21.1592  -32.1435 H   0  0  0  0  0  0  0  0  0  0  0  0
   -1.4245   21.0498  -29.3219 H   0  0  0  0  0  0  0  0  0  0  0  0
   -0.3129   21.1005  -30.7242 H   0  0  0  0  0  0  0  0  0  0  0  0
   -1.4370   23.6360  -30.4500 H   0  0  0  0  0  0  0  0  0  0  0  0
   -1.6907   22.4045  -28.1197 H   0  0  0  0  0  0  0  0  0  0  0  0
    0.0272   23.0224  -28.0339 H   0  0  0  0  0  0  0  0  0  0  0  0
   -2.4028   24.4480  -27.5290 H   0  0  0  0  0  0  0  0  0  0  0  0
   -0.7271   25.0415  -27.4541 H   0  0  0  0  0  0  0  0  0  0  0  0
   -2.3010   24.6420  -29.9300 H   0  0  0  0  0  0  0  0  0  0  0  0
   -0.7810   25.3000  -29.8550 H   0  0  0  0  0  0  0  0  0  0  0  0
   -4.6614   21.5594  -32.1134 H   0  0  0  0  0  0  0  0  0  0  0  0
   -8.8049   22.0831  -30.5942 H   0  0  0  0  0  0  0  0  0  0  0  0
   -9.0134   22.7378  -32.3219 H   0  0  0  0  0  0  0  0  0  0  0  0
  -10.0349   20.4467  -31.1956 H   0  0  0  0  0  0  0  0  0  0  0  0
   -9.9995   21.0786  -32.9512 H   0  0  0  0  0  0  0  0  0  0  0  0
   -9.2003   18.6504  -32.1131 H   0  0  0  0  0  0  0  0  0  0  0  0
   -8.7382   19.5391  -33.6326 H   0  0  0  0  0  0  0  0  0  0  0  0
   -7.1699   19.5497  -31.0143 H   0  0  0  0  0  0  0  0  0  0  0  0
   -6.7261   18.6379  -32.4592 H   0  0  0  0  0  0  0  0  0  0  0  0
   -5.5730   20.7936  -32.6206 H   0  0  0  0  0  0  0  0  0  0  0  0
   -6.9049   20.9054  -33.7704 H   0  0  0  0  0  0  0  0  0  0  0  0
   -7.6610   24.2170  -30.6830 H   0  0  0  0  0  0  0  0  0  0  0  0
  1  2  1  0
  2  3  2  0
  3  4  1  0
  4  5  2  0
  5  6  1  0
  6  7  1  0
  7  8  1  0
  8  9  1  0
  9 10  1  0
 10 11  1  0
  4 12  1  0
 12 13  2  0
 13 14  1  0
 14 15  1  0
 15 16  1  0
 16 17  1  0
 17 18  1  0
 18 19  1  0
 13 20  1  0
 20  2  1  0
 19 14  1  0
  1 21  1  0
  1 22  1  0
  1 23  1  0
  6 24  1  0
  6 25  1  0
  7 26  1  0
  7 27  1  0
  8 28  1  0
  9 29  1  0
  9 30  1  0
 10 31  1  0
 10 32  1  0
 11 33  1  0
 11 34  1  0
 12 35  1  0
 15 36  1  0
 15 37  1  0
 16 38  1  0
 16 39  1  0
 17 40  1  0
 17 41  1  0
 18 42  1  0
 18 43  1  0
 19 44  1  0
 19 45  1  0
 20 46  1  0
M  END
>  <smiles>  (39) 
Cc1nc(=NCCNCCN)cc(N2CCCCC2)[nH]1

>  <score_type>  (39) 
oracle

>  <origin>  (39) 
adg

>  <m_score__min__energy>  (39) 
-6.5899999999999999

>  <m_primary>  (39) 
energy

$$$$
39:0
     RDKit          3D

 53 57  0  0  0  0  0  0  0  0999 V2000
   -0.4810   23.8160  -24.6430 C   0  0  0  0  0  0  0  0  0  0  0  0
   -0.5960   25.3150  -24.7000 C   0  0  0  0  0  0  0  0  0  0  0  0
   -0.3080   26.0700  -23.5510 C   0  0  0  0  0  0  0  0  0  0  0  0
   -0.4250   27.4630  -23.5720 C   0  0  0  0  0  0  0  0  0  0  0  0
   -0.8390   28.1140  -24.7350 C   0  0  0  0  0  0  0  0  0  0  0  0
   -1.1470   27.3730  -25.8780 C   0  0  0  0  0  0  0  0  0  0  0  0
   -1.0390   25.9760  -25.8670 C   0  0  0  0  0  0  0  0  0  0  0  0
   -1.3740   25.2450  -27.0540 N   0  0  0  0  0  0  0  0  0  0  0  0
   -0.4780   25.2950  -28.2120 C   0  0  0  0  0  0  0  0  0  0  0  0
   -0.9260   24.3020  -29.2830 C   0  0  0  0  0  0  0  0  0  0  0  0
   -1.2260   23.0100  -28.6400 N   0  0  0  0  0  0  0  0  0  0  0  0
   -1.3180   21.8790  -29.5890 C   0  0  0  0  0  0  0  0  0  0  0  0
   -1.6670   22.2970  -31.0320 C   0  0  0  0  0  0  0  0  0  0  0  0
   -3.1180   22.1580  -31.2630 N   0  0  0  0  0  0  0  0  0  0  0  0
   -3.9550   23.2450  -31.0900 C   0  0  0  0  0  0  0  0  0  0  0  0
   -3.4890   24.3670  -30.7530 O   0  0  0  0  0  0  0  0  0  0  0  0
   -5.3010   23.1250  -31.2770 N   0  0  0  0  0  0  0  0  0  0  0  0
   -5.8280   21.9280  -31.6250 C   0  0  0  0  0  0  0  0  0  0  0  0
   -5.0200   20.8230  -31.7850 C   0  0  0  0  0  0  0  0  0  0  0  0
   -5.9470   19.4720  -32.2020 S   0  0  0  0  0  0  0  0  0  0  0  0
   -7.4070   20.3260  -32.1760 C   0  0  0  0  0  0  0  0  0  0  0  0
   -8.6870   19.8430  -32.4340 C   0  0  0  0  0  0  0  0  0  0  0  0
   -9.7660   20.7390  -32.3520 C   0  0  0  0  0  0  0  0  0  0  0  0
   -9.5470   22.0900  -32.0150 C   0  0  0  0  0  0  0  0  0  0  0  0
   -8.2480   22.5580  -31.7570 C   0  0  0  0  0  0  0  0  0  0  0  0
   -7.1820   21.6590  -31.8430 C   0  0  0  0  0  0  0  0  0  0  0  0
   -3.6480   20.9310  -31.5970 C   0  0  0  0  0  0  0  0  0  0  0  0
   -2.9140   19.9140  -31.7280 O   0  0  0  0  0  0  0  0  0  0  0  0
   -2.3570   23.0580  -27.6800 C   0  0  0  0  0  0  0  0  0  0  0  0
   -2.6150   24.4650  -27.1060 C   0  0  0  0  0  0  0  0  0  0  0  0
   -0.4560   23.4899  -23.5928 H   0  0  0  0  0  0  0  0  0  0  0  0
   -1.3470   23.3624  -25.1473 H   0  0  0  0  0  0  0  0  0  0  0  0
    0.4440   23.4998  -25.1473 H   0  0  0  0  0  0  0  0  0  0  0  0
    0.0115   25.5621  -22.6291 H   0  0  0  0  0  0  0  0  0  0  0  0
   -0.1903   28.0471  -22.6700 H   0  0  0  0  0  0  0  0  0  0  0  0
   -0.9227   29.2107  -24.7514 H   0  0  0  0  0  0  0  0  0  0  0  0
   -1.4762   27.8889  -26.7920 H   0  0  0  0  0  0  0  0  0  0  0  0
   -0.4891   26.3108  -28.6338 H   0  0  0  0  0  0  0  0  0  0  0  0
    0.5382   25.0292  -27.8853 H   0  0  0  0  0  0  0  0  0  0  0  0
   -1.8274   24.6826  -29.7856 H   0  0  0  0  0  0  0  0  0  0  0  0
   -0.1272   24.1712  -30.0278 H   0  0  0  0  0  0  0  0  0  0  0  0
   -0.3479   21.3606  -29.6042 H   0  0  0  0  0  0  0  0  0  0  0  0
   -2.1374   21.2348  -29.2375 H   0  0  0  0  0  0  0  0  0  0  0  0
   -1.3724   23.3452  -31.1886 H   0  0  0  0  0  0  0  0  0  0  0  0
   -1.1263   21.6473  -31.7360 H   0  0  0  0  0  0  0  0  0  0  0  0
   -8.8494   18.7869  -32.6953 H   0  0  0  0  0  0  0  0  0  0  0  0
  -10.7878   20.3841  -32.5520 H   0  0  0  0  0  0  0  0  0  0  0  0
  -10.3993   22.7827  -31.9536 H   0  0  0  0  0  0  0  0  0  0  0  0
   -8.0735   23.6114  -31.4925 H   0  0  0  0  0  0  0  0  0  0  0  0
   -3.2674   22.7202  -28.1969 H   0  0  0  0  0  0  0  0  0  0  0  0
   -2.0922   22.4064  -26.8343 H   0  0  0  0  0  0  0  0  0  0  0  0
   -3.3419   24.9871  -27.7455 H   0  0  0  0  0  0  0  0  0  0  0  0
   -3.0076   24.3608  -26.0837 H   0  0  0  0  0  0  0  0  0  0  0  0
  1  2  1  0
  2  3  2  0
  3  4  1  0
  4  5  2  0
  5  6  1  0
  6  7  2  0
  7  8  1  0
  8  9  1  0
  9 10  1  0
 10 11  1  0
 11 12  1  0
 12 13  1  0
 13 14  1  0
 14 15  1  0
 15 16  2  0
 15 17  1  0
 17 18  1  0
 18 19  2  0
 19 20  1  0
 20 21  1  0
 21 22  2  0
 22 23  1  0
 23 24  2  0
 24 25  1  0
 25 26  2  0
 19 27  1  0
 27 28  2  0
 11 29  1  0
 29 30  1  0
  7  2  1  0
 30  8  1  0
 27 14  1  0
 26 18  1  0
 26 21  1  0
  1 31  1  0
  1 32  1  0
  1 33  1  0
  3 34  1  0
  4 35  1  0
  5 36  1  0
  6 37  1  0
  9 38  1  0
  9 39  1  0
 10 40  1  0
 10 41  1  0
 12 42  1  0
 12 43  1  0
 13 44  1  0
 13 45  1  0
 22 46  1  0
 23 47  1  0
 24 48  1  0
 25 49  1  0
 29 50  1  0
 29 51  1  0
 30 52  1  0
 30 53  1  0
M  CHG  1  17  -1
M  END
>  <UniqueID>  (40) 
37

>  <SMILES>  (40) 
Cc1ccccc1N1CCN(CCn2c(=O)[n-]c3c(sc4ccccc43)c2=O)CC1

>  <Energy>  (40) 
112.48998059066341

>  <Genealogy>  (40) 
Cc1ccccc1N1CCN(CCn2c(=O)[n-]c3c(sc4ccccc43)c2=O)CC1 (protonated)
Cc1ccccc1N1CCN(CCn2c(=O)[n-]c3c(sc4ccccc43)c2=O)CC1 (3D coordinates assigned)
Cc1ccccc1N1CCN(CCn2c(=O)[n-]c3c(sc4ccccc43)c2=O)CC1 (nonaromatic ring conformer: 112.48998059066341 kcal/mol)

>  <smiles>  (40) 
Cc1ccccc1N1CCN(CCn2c(=O)[nH]c3c(sc4ccccc43)c2=O)CC1

>  <score_type>  (40) 
oracle

>  <origin>  (40) 
adg

>  <m_score__min__energy>  (40) 
-10.109999999999999

>  <m_primary>  (40) 
energy

$$$$
40:0
     RDKit          3D

 46 47  0  0  0  0  0  0  0  0999 V2000
   -0.9300   27.0100  -26.1040 C   0  0  0  0  0  0  0  0  0  0  0  0
   -1.3230   25.6870  -26.7730 C   0  0  0  0  0  0  0  0  0  0  0  0
   -2.7330   25.2700  -26.3330 C   0  0  0  0  0  0  0  0  0  0  0  0
   -1.2260   25.8120  -28.3070 C   0  0  0  0  0  0  0  0  0  0  0  0
   -2.3600   25.1690  -28.9700 N   0  0  0  0  0  0  0  0  0  0  0  0
   -2.2520   23.9220  -29.6650 C   0  0  0  0  0  0  0  0  0  0  0  0
   -1.1460   23.3180  -29.7290 O   0  0  0  0  0  0  0  0  0  0  0  0
   -3.4100   23.3660  -30.2910 N   0  0  0  0  0  0  0  0  0  0  0  0
   -4.9250   24.2000  -30.3630 S   0  0  0  0  0  0  0  0  0  0  0  0
   -5.3420   24.5960  -28.9750 O   0  0  0  0  0  0  0  0  0  0  0  0
   -4.7690   25.4370  -31.2040 O   0  0  0  0  0  0  0  0  0  0  0  0
   -6.1530   23.1550  -31.0570 C   0  0  0  0  0  0  0  0  0  0  0  0
   -7.4450   23.1640  -30.6770 N   0  0  0  0  0  0  0  0  0  0  0  0
   -8.0780   22.2680  -31.4190 N   0  0  0  0  0  0  0  0  0  0  0  0
   -9.4840   21.9280  -31.2560 C   0  0  0  0  0  0  0  0  0  0  0  0
   -7.2150   21.6640  -32.2580 C   0  0  0  0  0  0  0  0  0  0  0  0
   -5.9670   22.2280  -32.0680 C   0  0  0  0  0  0  0  0  0  0  0  0
   -4.6940   21.8520  -32.7080 C   0  0  0  0  0  0  0  0  0  0  0  0
   -4.1830   20.6120  -32.7430 C   0  0  0  0  0  0  0  0  0  0  0  0
   -4.9480   19.3710  -33.0030 C   0  0  0  0  0  0  0  0  0  0  0  0
   -5.7100   18.7470  -31.9970 C   0  0  0  0  0  0  0  0  0  0  0  0
   -6.4760   17.6160  -32.2910 C   0  0  0  0  0  0  0  0  0  0  0  0
   -6.5020   17.1050  -33.5900 C   0  0  0  0  0  0  0  0  0  0  0  0
   -7.2480   16.0100  -33.8740 F   0  0  0  0  0  0  0  0  0  0  0  0
   -5.7680   17.7330  -34.6020 C   0  0  0  0  0  0  0  0  0  0  0  0
   -5.0030   18.8670  -34.3110 C   0  0  0  0  0  0  0  0  0  0  0  0
   -0.9649   26.8926  -25.0108 H   0  0  0  0  0  0  0  0  0  0  0  0
    0.0893   27.2874  -26.4107 H   0  0  0  0  0  0  0  0  0  0  0  0
   -1.6326   27.7989  -26.4107 H   0  0  0  0  0  0  0  0  0  0  0  0
   -0.6219   24.9012  -26.4551 H   0  0  0  0  0  0  0  0  0  0  0  0
   -2.7847   25.2547  -25.2343 H   0  0  0  0  0  0  0  0  0  0  0  0
   -3.4671   25.9895  -26.7247 H   0  0  0  0  0  0  0  0  0  0  0  0
   -2.9577   24.2669  -26.7247 H   0  0  0  0  0  0  0  0  0  0  0  0
   -1.2107   26.8779  -28.5785 H   0  0  0  0  0  0  0  0  0  0  0  0
   -0.3040   25.3106  -28.6365 H   0  0  0  0  0  0  0  0  0  0  0  0
   -3.2780   25.6670  -28.9810 H   0  0  0  0  0  0  0  0  0  0  0  0
   -9.7253   21.8697  -30.1844 H   0  0  0  0  0  0  0  0  0  0  0  0
  -10.1057   22.7017  -31.7302 H   0  0  0  0  0  0  0  0  0  0  0  0
   -9.6835   20.9557  -31.7302 H   0  0  0  0  0  0  0  0  0  0  0  0
   -7.4601   20.8621  -32.9700 H   0  0  0  0  0  0  0  0  0  0  0  0
   -4.1169   22.6514  -33.1957 H   0  0  0  0  0  0  0  0  0  0  0  0
   -3.1028   20.5082  -32.5631 H   0  0  0  0  0  0  0  0  0  0  0  0
   -5.7023   19.1519  -30.9743 H   0  0  0  0  0  0  0  0  0  0  0  0
   -7.0599   17.1271  -31.4972 H   0  0  0  0  0  0  0  0  0  0  0  0
   -5.7926   17.3346  -35.6270 H   0  0  0  0  0  0  0  0  0  0  0  0
   -4.4406   19.3671  -35.1132 H   0  0  0  0  0  0  0  0  0  0  0  0
  1  2  1  0
  2  3  1  0
  2  4  1  0
  4  5  1  0
  5  6  1  0
  6  7  2  0
  6  8  1  0
  8  9  1  0
  9 10  2  0
  9 11  2  0
  9 12  1  0
 12 13  2  0
 13 14  1  0
 14 15  1  0
 14 16  1  0
 16 17  2  0
 17 18  1  0
 18 19  2  3
 19 20  1  0
 20 21  2  0
 21 22  1  0
 22 23  2  0
 23 24  1  0
 23 25  1  0
 25 26  2  0
 17 12  1  0
 26 20  1  0
  1 27  1  0
  1 28  1  0
  1 29  1  0
  2 30  1  0
  3 31  1  0
  3 32  1  0
  3 33  1  0
  4 34  1  0
  4 35  1  0
  5 36  1  0
 15 37  1  0
 15 38  1  0
 15 39  1  0
 16 40  1  0
 18 41  1  0
 19 42  1  0
 21 43  1  0
 22 44  1  0
 25 45  1  0
 26 46  1  0
M  CHG  1   8  -1
M  END
>  <UniqueID>  (41) 
38

>  <SMILES>  (41) 
CC(C)CNC(=O)[N-]S(=O)(=O)c1nn(C)cc1C=Cc1ccc(F)cc1

>  <Energy>  (41) 
72.2128667307757

>  <Genealogy>  (41) 
CC(C)CNC(=O)[N-]S(=O)(=O)c1nn(C)cc1C=Cc1ccc(F)cc1 (protonated)
CC(C)CNC(=O)[N-]S(=O)(=O)c1nn(C)cc1C=Cc1ccc(F)cc1 (3D coordinates assigned)
CC(C)CNC(=O)[N-]S(=O)(=O)c1nn(C)cc1C=Cc1ccc(F)cc1 (optimized conformer: 72.2128667307757 kcal/mol)

>  <smiles>  (41) 
CC(C)CNC(=O)NS(=O)(=O)c1nn(C)cc1C=Cc1ccc(F)cc1

>  <score_type>  (41) 
oracle

>  <origin>  (41) 
adg

>  <m_score__min__energy>  (41) 
-10.050000000000001

>  <m_primary>  (41) 
energy

$$$$
41:0
     RDKit          3D

 48 49  0  0  0  0  0  0  0  0999 V2000
   -6.1540   25.6560  -29.7600 C   0  0  0  0  0  0  0  0  0  0  0  0
   -5.2260   24.7670  -30.5810 C   0  0  0  0  0  0  0  0  0  0  0  0
   -5.8500   23.3830  -30.8140 C   0  0  0  0  0  0  0  0  0  0  0  0
   -7.3470   23.4530  -31.1680 C   0  0  0  0  0  0  0  0  0  0  0  0
   -7.8880   22.2500  -31.9670 C   0  0  0  0  0  0  0  0  0  0  0  0
   -8.6470   21.1990  -31.1410 C   0  0  0  0  0  0  0  0  0  0  0  0
   -8.6230   19.5660  -31.8910 S   0  0  0  0  0  0  0  0  0  0  0  0
   -9.1330   18.5570  -30.9000 O   0  0  0  0  0  0  0  0  0  0  0  0
   -9.5280   19.5610  -33.0920 O   0  0  0  0  0  0  0  0  0  0  0  0
   -7.0160   19.0940  -32.3910 N   0  0  2  0  0  0  0  0  0  0  0  0
   -6.7050   19.6460  -33.7330 C   0  0  0  0  0  0  0  0  0  0  0  0
   -5.5610   18.8920  -34.4480 C   0  0  0  0  0  0  0  0  0  0  0  0
   -4.5980   18.2110  -33.4540 C   0  0  1  0  0  0  0  0  0  0  0  0
   -3.8870   19.2180  -32.6380 N   0  0  0  0  0  0  0  0  0  0  0  0
   -3.4850   20.3640  -33.4740 C   0  0  0  0  0  0  0  0  0  0  0  0
   -4.0510   21.7140  -33.0520 C   0  0  0  0  0  0  0  0  0  0  0  0
   -2.5990   21.3670  -32.7490 C   0  0  0  0  0  0  0  0  0  0  0  0
   -5.3830   17.2270  -32.5470 C   0  0  0  0  0  0  0  0  0  0  0  0
   -6.8600   17.6290  -32.3520 C   0  0  0  0  0  0  0  0  0  0  0  0
   -5.9739   25.4835  -28.6886 H   0  0  0  0  0  0  0  0  0  0  0  0
   -5.9574   26.7114  -29.9996 H   0  0  0  0  0  0  0  0  0  0  0  0
   -7.2000   25.4143  -29.9996 H   0  0  0  0  0  0  0  0  0  0  0  0
   -5.0383   25.2449  -31.5538 H   0  0  0  0  0  0  0  0  0  0  0  0
   -4.2850   24.6373  -30.0262 H   0  0  0  0  0  0  0  0  0  0  0  0
   -5.3163   22.8920  -31.6411 H   0  0  0  0  0  0  0  0  0  0  0  0
   -5.7587   22.8172  -29.8751 H   0  0  0  0  0  0  0  0  0  0  0  0
   -7.9161   23.5221  -30.2292 H   0  0  0  0  0  0  0  0  0  0  0  0
   -7.4667   24.3315  -31.8190 H   0  0  0  0  0  0  0  0  0  0  0  0
   -8.5717   22.6344  -32.7382 H   0  0  0  0  0  0  0  0  0  0  0  0
   -7.0058   21.7356  -32.3759 H   0  0  0  0  0  0  0  0  0  0  0  0
   -8.1840   21.1344  -30.1453 H   0  0  0  0  0  0  0  0  0  0  0  0
   -9.6976   21.5202  -31.0850 H   0  0  0  0  0  0  0  0  0  0  0  0
   -6.3610   19.5170  -31.6930 H   0  0  0  0  0  0  0  0  0  0  0  0
   -7.6093   19.5824  -34.3560 H   0  0  0  0  0  0  0  0  0  0  0  0
   -6.3748   20.6857  -33.5917 H   0  0  0  0  0  0  0  0  0  0  0  0
   -5.9984   18.1221  -35.1007 H   0  0  0  0  0  0  0  0  0  0  0  0
   -4.9829   19.6277  -35.0264 H   0  0  0  0  0  0  0  0  0  0  0  0
   -3.8461   17.6454  -34.0239 H   0  0  0  0  0  0  0  0  0  0  0  0
   -4.5080   19.5370  -31.8560 H   0  0  0  0  0  0  0  0  0  0  0  0
   -3.4403   19.8115  -34.4241 H   0  0  0  0  0  0  0  0  0  0  0  0
   -4.2882   22.4730  -33.8120 H   0  0  0  0  0  0  0  0  0  0  0  0
   -4.9134   22.0437  -32.4540 H   0  0  0  0  0  0  0  0  0  0  0  0
   -1.7876   21.8758  -33.2900 H   0  0  0  0  0  0  0  0  0  0  0  0
   -1.9785   21.3426  -31.8411 H   0  0  0  0  0  0  0  0  0  0  0  0
   -5.3500   16.2272  -33.0046 H   0  0  0  0  0  0  0  0  0  0  0  0
   -4.9056   17.2430  -31.5561 H   0  0  0  0  0  0  0  0  0  0  0  0
   -7.4641   17.1810  -33.1547 H   0  0  0  0  0  0  0  0  0  0  0  0
   -7.1963   17.2658  -31.3696 H   0  0  0  0  0  0  0  0  0  0  0  0
  1  2  1  0
  2  3  1  0
  3  4  1  0
  4  5  1  0
  5  6  1  0
  6  7  1  0
  7  8  2  0
  7  9  2  0
  7 10  1  0
 10 11  1  0
 11 12  1  0
 12 13  1  0
 13 14  1  0
 14 15  1  0
 15 16  1  0
 16 17  1  0
 13 18  1  0
 18 19  1  0
 19 10  1  0
 17 15  1  0
  1 20  1  0
  1 21  1  0
  1 22  1  0
  2 23  1  0
  2 24  1  0
  3 25  1  0
  3 26  1  0
  4 27  1  0
  4 28  1  0
  5 29  1  0
  5 30  1  0
  6 31  1  0
  6 32  1  0
 10 33  1  1
 11 34  1  0
 11 35  1  0
 12 36  1  0
 12 37  1  0
 13 38  1  6
 14 39  1  0
 15 40  1  0
 16 41  1  0
 16 42  1  0
 17 43  1  0
 17 44  1  0
 18 45  1  0
 18 46  1  0
 19 47  1  0
 19 48  1  0
M  CHG  1  10   1
M  END
>  <UniqueID>  (42) 
39

>  <SMILES>  (42) 
CCCCCCS(=O)(=O)[NH+]1CCC(NC2CC2)CC1

>  <Energy>  (42) 
305.26973731324983

>  <Genealogy>  (42) 
CCCCCCS(=O)(=O)[NH+]1CCC(NC2CC2)CC1 (protonated)
CCCCCCS(=O)(=O)[NH+]1CCC(NC2CC2)CC1 (3D coordinates assigned)
CCCCCCS(=O)(=O)[NH+]1CCC(NC2CC2)CC1 (nonaromatic ring conformer: 305.26973731324983 kcal/mol)

>  <smiles>  (42) 
CCCCCCS(=O)(=O)N1CCC(NC2CC2)CC1

>  <score_type>  (42) 
oracle

>  <origin>  (42) 
adg

>  <m_score__min__energy>  (42) 
-6.79

>  <m_primary>  (42) 
energy

$$$$
42:0
     RDKit          3D

 43 46  0  0  0  0  0  0  0  0999 V2000
   -4.8070   17.4500  -35.3660 C   0  0  0  0  0  0  0  0  0  0  0  0
   -5.5360   17.5910  -34.0640 C   0  0  0  0  0  0  0  0  0  0  0  0
   -5.4660   16.5730  -33.1000 C   0  0  0  0  0  0  0  0  0  0  0  0
   -6.1100   16.7240  -31.8690 C   0  0  0  0  0  0  0  0  0  0  0  0
   -6.8230   17.8930  -31.5880 C   0  0  0  0  0  0  0  0  0  0  0  0
   -6.9010   18.9160  -32.5430 C   0  0  0  0  0  0  0  0  0  0  0  0
   -7.6260   20.1610  -32.2270 C   0  0  0  0  0  0  0  0  0  0  0  0
   -8.9850   20.1390  -32.2700 N   0  0  0  0  0  0  0  0  0  0  0  0
   -9.7200   21.2470  -32.0040 C   0  0  0  0  0  0  0  0  0  0  0  0
   -9.1020   22.4150  -31.7010 N   0  0  0  0  0  0  0  0  0  0  0  0
   -7.7470   22.4960  -31.6430 C   0  0  0  0  0  0  0  0  0  0  0  0
   -6.9600   21.3650  -31.9030 C   0  0  0  0  0  0  0  0  0  0  0  0
   -5.4530   21.5160  -31.9760 C   0  0  0  0  0  0  0  0  0  0  0  0
   -4.9430   22.5890  -31.0960 N   0  0  0  0  0  0  0  0  0  0  0  0
   -3.5370   22.6050  -30.7500 C   0  0  0  0  0  0  0  0  0  0  0  0
   -2.6910   21.5480  -31.1290 C   0  0  0  0  0  0  0  0  0  0  0  0
   -1.3380   21.5860  -30.7930 C   0  0  0  0  0  0  0  0  0  0  0  0
   -0.8360   22.6410  -30.1000 N   0  0  0  0  0  0  0  0  0  0  0  0
   -1.6170   23.6860  -29.7130 C   0  0  0  0  0  0  0  0  0  0  0  0
   -1.0090   24.7980  -28.9630 C   0  0  0  0  0  0  0  0  0  0  0  0
    0.0630   24.6350  -28.3210 O   0  0  0  0  0  0  0  0  0  0  0  0
   -1.6200   26.0460  -28.9590 O   0  0  0  0  0  0  0  0  0  0  0  0
   -2.9850   23.6830  -30.0340 C   0  0  0  0  0  0  0  0  0  0  0  0
   -5.8430   23.5990  -30.5100 C   0  0  0  0  0  0  0  0  0  0  0  0
   -7.0900   23.8100  -31.3680 C   0  0  0  0  0  0  0  0  0  0  0  0
   -6.2350   18.7730  -33.7710 C   0  0  0  0  0  0  0  0  0  0  0  0
   -3.7442   17.2444  -35.1707 H   0  0  0  0  0  0  0  0  0  0  0  0
   -5.2415   16.6192  -35.9414 H   0  0  0  0  0  0  0  0  0  0  0  0
   -4.9004   18.3828  -35.9414 H   0  0  0  0  0  0  0  0  0  0  0  0
   -4.9022   15.6531  -33.3143 H   0  0  0  0  0  0  0  0  0  0  0  0
   -6.0557   15.9209  -31.1193 H   0  0  0  0  0  0  0  0  0  0  0  0
   -7.3238   18.0103  -30.6157 H   0  0  0  0  0  0  0  0  0  0  0  0
  -10.8185   21.1981  -32.0341 H   0  0  0  0  0  0  0  0  0  0  0  0
   -4.9892   20.5648  -31.6759 H   0  0  0  0  0  0  0  0  0  0  0  0
   -5.1962   21.7855  -33.0111 H   0  0  0  0  0  0  0  0  0  0  0  0
   -3.0956   20.6924  -31.6896 H   0  0  0  0  0  0  0  0  0  0  0  0
   -0.6756   20.7595  -31.0899 H   0  0  0  0  0  0  0  0  0  0  0  0
   -3.6242   24.5234  -29.7255 H   0  0  0  0  0  0  0  0  0  0  0  0
   -6.1516   23.2636  -29.5088 H   0  0  0  0  0  0  0  0  0  0  0  0
   -5.2986   24.5533  -30.4554 H   0  0  0  0  0  0  0  0  0  0  0  0
   -7.7939   24.4649  -30.8335 H   0  0  0  0  0  0  0  0  0  0  0  0
   -6.7991   24.2758  -32.3211 H   0  0  0  0  0  0  0  0  0  0  0  0
   -6.2610   19.5905  -34.5065 H   0  0  0  0  0  0  0  0  0  0  0  0
  1  2  1  0
  2  3  2  0
  3  4  1  0
  4  5  2  0
  5  6  1  0
  6  7  1  0
  7  8  2  0
  8  9  1  0
  9 10  2  0
 10 11  1  0
 11 12  2  0
 12 13  1  0
 13 14  1  0
 14 15  1  0
 15 16  2  0
 16 17  1  0
 17 18  2  0
 18 19  1  0
 19 20  1  0
 20 21  2  0
 20 22  1  0
 19 23  2  0
 14 24  1  0
 24 25  1  0
  6 26  2  0
 26  2  1  0
 12  7  1  0
 23 15  1  0
 25 11  1  0
  1 27  1  0
  1 28  1  0
  1 29  1  0
  3 30  1  0
  4 31  1  0
  5 32  1  0
  9 33  1  0
 13 34  1  0
 13 35  1  0
 16 36  1  0
 17 37  1  0
 23 38  1  0
 24 39  1  0
 24 40  1  0
 25 41  1  0
 25 42  1  0
 26 43  1  0
M  CHG  1  22  -1
M  END
>  <UniqueID>  (43) 
40

>  <SMILES>  (43) 
Cc1cccc(-c2ncnc3c2CN(c2ccnc(C(=O)[O-])c2)CC3)c1

>  <Energy>  (43) 
61.36621498460359

>  <Genealogy>  (43) 
Cc1cccc(-c2ncnc3c2CN(c2ccnc(C(=O)[O-])c2)CC3)c1 (protonated)
Cc1cccc(-c2ncnc3c2CN(c2ccnc(C(=O)[O-])c2)CC3)c1 (3D coordinates assigned)
Cc1cccc(-c2ncnc3c2CN(c2ccnc(C(=O)[O-])c2)CC3)c1 (nonaromatic ring conformer: 61.36621498460359 kcal/mol)

>  <smiles>  (43) 
Cc1cccc(-c2ncnc3c2CN(c2ccnc(C(=O)O)c2)CC3)c1

>  <score_type>  (43) 
oracle

>  <origin>  (43) 
adg

>  <m_score__min__energy>  (43) 
-11.289999999999999

>  <m_primary>  (43) 
energy

$$$$
43:0
     RDKit          3D

 35 37  0  0  0  0  0  0  0  0999 V2000
   -2.1198   19.5671  -28.6889 H   0  0  0  0  0  0  0  0  0  0  0  0
   -2.2340   20.6600  -28.7400 C   0  0  0  0  0  0  0  0  0  0  0  0
   -1.5640   21.3690  -29.6850 N   0  0  0  0  0  0  0  0  0  0  0  0
   -1.6770   22.7210  -29.7800 C   0  0  0  0  0  0  0  0  0  0  0  0
   -1.1211   23.2647  -30.5580 H   0  0  0  0  0  0  0  0  0  0  0  0
   -2.5010   23.4240  -28.8880 C   0  0  0  0  0  0  0  0  0  0  0  0
   -2.6370   24.9220  -28.9750 C   0  0  0  0  0  0  0  0  0  0  0  0
   -1.6405   25.3681  -29.1087 H   0  0  0  0  0  0  0  0  0  0  0  0
   -3.0979   25.2903  -28.0466 H   0  0  0  0  0  0  0  0  0  0  0  0
   -3.4870   25.2980  -30.1040 N   0  0  0  0  0  0  0  0  0  0  0  0
   -4.5540   24.6600  -30.4830 C   0  0  0  0  0  0  0  0  0  0  0  0
   -4.4940   23.4950  -31.1570 N   0  0  0  0  0  0  0  0  0  0  0  0
   -5.7330   23.0070  -31.4530 C   0  0  0  0  0  0  0  0  0  0  0  0
   -5.9040   21.7320  -32.1990 C   0  0  0  0  0  0  0  0  0  0  0  0
   -4.7800   21.0840  -32.7430 C   0  0  0  0  0  0  0  0  0  0  0  0
   -3.7813   21.5265  -32.6130 H   0  0  0  0  0  0  0  0  0  0  0  0
   -4.9180   19.8840  -33.4470 C   0  0  0  0  0  0  0  0  0  0  0  0
   -4.0298   19.3923  -33.8705 H   0  0  0  0  0  0  0  0  0  0  0  0
   -6.1870   19.3030  -33.6160 C   0  0  0  0  0  0  0  0  0  0  0  0
   -6.3780   18.1010  -34.3130 O   0  0  0  0  0  0  0  0  0  0  0  0
   -6.4380   16.8170  -33.7010 C   0  0  0  0  0  0  0  0  0  0  0  0
   -6.4326   16.9316  -32.6070 H   0  0  0  0  0  0  0  0  0  0  0  0
   -7.3610   16.3056  -34.0116 H   0  0  0  0  0  0  0  0  0  0  0  0
   -5.5667   16.2217  -34.0116 H   0  0  0  0  0  0  0  0  0  0  0  0
   -7.3060   19.9400  -33.0700 C   0  0  0  0  0  0  0  0  0  0  0  0
   -8.3028   19.4920  -33.1952 H   0  0  0  0  0  0  0  0  0  0  0  0
   -7.1700   21.1400  -32.3670 C   0  0  0  0  0  0  0  0  0  0  0  0
   -8.0601   21.6263  -31.9412 H   0  0  0  0  0  0  0  0  0  0  0  0
   -6.7910   23.8090  -31.0060 C   0  0  0  0  0  0  0  0  0  0  0  0
   -7.8618   23.5976  -31.1429 H   0  0  0  0  0  0  0  0  0  0  0  0
   -6.1440   25.1510  -30.2240 S   0  0  0  0  0  0  0  0  0  0  0  0
   -3.2020   22.7050  -27.9090 C   0  0  0  0  0  0  0  0  0  0  0  0
   -3.8572   23.2341  -27.2013 H   0  0  0  0  0  0  0  0  0  0  0  0
   -3.0680   21.3180  -27.8330 C   0  0  0  0  0  0  0  0  0  0  0  0
   -3.6138   20.7485  -27.0664 H   0  0  0  0  0  0  0  0  0  0  0  0
  1  2  1  0
  2  3  2  0
  3  4  1  0
  4  5  1  0
  4  6  2  0
  6  7  1  0
  7  8  1  0
  7  9  1  0
  7 10  1  0
 10 11  2  0
 11 12  1  0
 12 13  1  0
 13 14  1  0
 14 15  2  0
 15 16  1  0
 15 17  1  0
 17 18  1  0
 17 19  2  0
 19 20  1  0
 20 21  1  0
 21 22  1  0
 21 23  1  0
 21 24  1  0
 19 25  1  0
 25 26  1  0
 25 27  2  0
 27 28  1  0
 13 29  2  0
 29 30  1  0
 29 31  1  0
  6 32  1  0
 32 33  1  0
 32 34  2  0
 34 35  1  0
 34  2  1  0
 31 11  1  0
 27 14  1  0
M  CHG  1  12  -1
M  END
>  <UniqueID>  (44) 
41

>  <SMILES>  (44) 
COc1ccc(-c2cs/c(=N\Cc3cccnc3)[n-]2)cc1

>  <Energy>  (44) 
69.7864004829131

>  <Genealogy>  (44) 
COc1ccc(-c2csc(=NCc3cccnc3)[n-]2)cc1 (protonated)
COc1ccc(-c2cs/c(=N\Cc3cccnc3)[n-]2)cc1 (cis-trans isomerization)
COc1ccc(-c2cs/c(=N\Cc3cccnc3)[n-]2)cc1 (3D coordinates assigned)
COc1ccc(-c2cs/c(=N\Cc3cccnc3)[n-]2)cc1 (optimized conformer: 69.7864004829131 kcal/mol)

>  <smiles>  (44) 
COc1ccc(-c2csc(=NCc3cccnc3)[nH]2)cc1

>  <score_type>  (44) 
oracle

>  <origin>  (44) 
adg

>  <m_score__min__energy>  (44) 
-7.9900000000000002

>  <m_primary>  (44) 
energy

$$$$
44:0
     RDKit          3D

 68 71  0  0  0  0  0  0  0  0999 V2000
   -2.8490   15.9870  -35.3970 C   0  0  0  0  0  0  0  0  0  0  0  0
   -3.1390   16.1760  -33.9670 N   0  0  0  0  0  0  0  0  0  0  0  0
   -3.8500   15.0510  -33.3120 C   0  0  0  0  0  0  0  0  0  0  0  0
   -4.8640   14.3260  -34.2130 C   0  0  0  0  0  0  0  0  0  0  0  0
   -6.0430   15.1190  -34.3280 O   0  0  0  0  0  0  0  0  0  0  0  0
   -6.1720   16.4220  -33.8260 C   0  0  0  0  0  0  0  0  0  0  0  0
   -6.4590   16.6850  -32.4730 C   0  0  0  0  0  0  0  0  0  0  0  0
   -6.5810   18.0020  -32.0220 C   0  0  0  0  0  0  0  0  0  0  0  0
   -6.4290   19.0830  -32.9110 C   0  0  0  0  0  0  0  0  0  0  0  0
   -6.5570   20.4710  -32.3980 C   0  0  0  0  0  0  0  0  0  0  0  0
   -7.7920   21.1470  -32.3730 C   0  0  0  0  0  0  0  0  0  0  0  0
   -7.8490   22.4520  -31.8810 C   0  0  0  0  0  0  0  0  0  0  0  0
   -8.9550   23.0590  -31.8580 O   0  0  0  0  0  0  0  0  0  0  0  0
   -6.6760   23.0650  -31.4160 C   0  0  0  0  0  0  0  0  0  0  0  0
   -6.6630   24.3770  -30.9120 C   0  0  0  0  0  0  0  0  0  0  0  0
   -5.4670   24.9400  -30.4590 C   0  0  0  0  0  0  0  0  0  0  0  0
   -4.2710   24.2110  -30.4960 C   0  0  0  0  0  0  0  0  0  0  0  0
   -3.1040   24.8340  -30.0230 O   0  0  0  0  0  0  0  0  0  0  0  0
   -1.9850   24.1660  -29.4380 C   0  0  0  0  0  0  0  0  0  0  0  0
   -1.3930   24.9980  -28.2820 C   0  0  1  0  0  0  0  0  0  0  0  0
   -1.4790   26.3720  -28.5690 O   0  0  0  0  0  0  0  0  0  0  0  0
   -2.0620   24.6530  -26.9280 C   0  0  2  0  0  0  0  0  0  0  0  0
   -3.4460   24.9020  -26.9700 O   0  0  0  0  0  0  0  0  0  0  0  0
   -1.4420   25.4420  -25.7670 C   0  0  0  0  0  0  0  0  0  0  0  0
   -1.9120   26.7630  -25.7580 O   0  0  0  0  0  0  0  0  0  0  0  0
   -4.2860   22.8930  -30.9950 C   0  0  0  0  0  0  0  0  0  0  0  0
   -5.4760   22.3250  -31.4580 C   0  0  0  0  0  0  0  0  0  0  0  0
   -5.4680   21.0840  -31.9360 O   0  0  0  0  0  0  0  0  0  0  0  0
   -6.1250   18.8130  -34.2590 C   0  0  0  0  0  0  0  0  0  0  0  0
   -6.0040   17.4940  -34.7080 C   0  0  0  0  0  0  0  0  0  0  0  0
   -2.0190   16.7530  -33.1900 C   0  0  0  0  0  0  0  0  0  0  0  0
   -2.0820   18.2580  -33.0590 C   0  0  0  0  0  0  0  0  0  0  0  0
   -2.9870   19.0010  -33.8380 C   0  0  0  0  0  0  0  0  0  0  0  0
   -3.0600   20.3900  -33.7000 C   0  0  0  0  0  0  0  0  0  0  0  0
   -2.2240   21.0500  -32.7950 C   0  0  0  0  0  0  0  0  0  0  0  0
   -1.3130   20.3200  -32.0270 C   0  0  0  0  0  0  0  0  0  0  0  0
   -1.2370   18.9300  -32.1600 C   0  0  0  0  0  0  0  0  0  0  0  0
   -1.9323   15.3895  -35.5094 H   0  0  0  0  0  0  0  0  0  0  0  0
   -3.6894   15.4626  -35.8754 H   0  0  0  0  0  0  0  0  0  0  0  0
   -2.7086   16.9675  -35.8754 H   0  0  0  0  0  0  0  0  0  0  0  0
   -3.1003   14.3179  -32.9794 H   0  0  0  0  0  0  0  0  0  0  0  0
   -4.4249   15.4858  -32.4810 H   0  0  0  0  0  0  0  0  0  0  0  0
   -4.4257   14.1725  -35.2101 H   0  0  0  0  0  0  0  0  0  0  0  0
   -5.1174   13.3506  -33.7722 H   0  0  0  0  0  0  0  0  0  0  0  0
   -6.5877   15.8504  -31.7681 H   0  0  0  0  0  0  0  0  0  0  0  0
   -6.7981   18.1961  -30.9612 H   0  0  0  0  0  0  0  0  0  0  0  0
   -8.7036   20.6511  -32.7379 H   0  0  0  0  0  0  0  0  0  0  0  0
   -7.5946   24.9608  -30.8742 H   0  0  0  0  0  0  0  0  0  0  0  0
   -5.4644   25.9683  -30.0685 H   0  0  0  0  0  0  0  0  0  0  0  0
   -2.3105   23.1897  -29.0497 H   0  0  0  0  0  0  0  0  0  0  0  0
   -1.2115   24.0331  -30.2087 H   0  0  0  0  0  0  0  0  0  0  0  0
   -0.3288   24.7371  -28.1855 H   0  0  0  0  0  0  0  0  0  0  0  0
   -2.3710   26.5440  -28.9690 H   0  0  0  0  0  0  0  0  0  0  0  0
   -1.8885   23.5806  -26.7551 H   0  0  0  0  0  0  0  0  0  0  0  0
   -3.5660   25.8880  -26.9580 H   0  0  0  0  0  0  0  0  0  0  0  0
   -1.7103   24.9569  -24.8169 H   0  0  0  0  0  0  0  0  0  0  0  0
   -0.3494   25.4565  -25.8932 H   0  0  0  0  0  0  0  0  0  0  0  0
   -2.3910   26.8870  -26.6190 H   0  0  0  0  0  0  0  0  0  0  0  0
   -3.3550   22.3076  -31.0202 H   0  0  0  0  0  0  0  0  0  0  0  0
   -5.9817   19.6452  -34.9639 H   0  0  0  0  0  0  0  0  0  0  0  0
   -5.7743   17.2979  -35.7657 H   0  0  0  0  0  0  0  0  0  0  0  0
   -2.0348   16.3156  -32.1808 H   0  0  0  0  0  0  0  0  0  0  0  0
   -1.0936   16.5162  -33.7356 H   0  0  0  0  0  0  0  0  0  0  0  0
   -3.6400   18.4870  -34.5587 H   0  0  0  0  0  0  0  0  0  0  0  0
   -3.7768   20.9648  -34.3048 H   0  0  0  0  0  0  0  0  0  0  0  0
   -2.2831   22.1431  -32.6874 H   0  0  0  0  0  0  0  0  0  0  0  0
   -0.6540   20.8400  -31.3161 H   0  0  0  0  0  0  0  0  0  0  0  0
   -0.5130   18.3607  -31.5586 H   0  0  0  0  0  0  0  0  0  0  0  0
  1  2  1  0
  2  3  1  0
  3  4  1  0
  4  5  1  0
  5  6  1  0
  6  7  2  0
  7  8  1  0
  8  9  2  0
  9 10  1  0
 10 11  2  0
 11 12  1  0
 12 13  2  0
 12 14  1  0
 14 15  2  0
 15 16  1  0
 16 17  2  0
 17 18  1  0
 18 19  1  0
 19 20  1  0
 20 21  1  0
 20 22  1  0
 22 23  1  0
 22 24  1  0
 24 25  1  0
 17 26  1  0
 26 27  2  0
 27 28  1  0
  9 29  1  0
 29 30  2  0
  2 31  1  0
 31 32  1  0
 32 33  2  0
 33 34  1  0
 34 35  2  0
 35 36  1  0
 36 37  2  0
 30  6  1  0
 37 32  1  0
 28 10  1  0
 27 14  1  0
  1 38  1  0
  1 39  1  0
  1 40  1  0
  3 41  1  0
  3 42  1  0
  4 43  1  0
  4 44  1  0
  7 45  1  0
  8 46  1  0
 11 47  1  0
 15 48  1  0
 16 49  1  0
 19 50  1  0
 19 51  1  0
 20 52  1  1
 21 53  1  0
 22 54  1  1
 23 55  1  0
 24 56  1  0
 24 57  1  0
 25 58  1  0
 26 59  1  0
 29 60  1  0
 30 61  1  0
 31 62  1  0
 31 63  1  0
 33 64  1  0
 34 65  1  0
 35 66  1  0
 36 67  1  0
 37 68  1  0
M  END
>  <UniqueID>  (45) 
42

>  <SMILES>  (45) 
CN(CCOc1ccc(-c2cc(=O)c3ccc(OC[C@@H](O)[C@H](O)CO)cc3o2)cc1)Cc1ccccc1

>  <Energy>  (45) 
83.27965390652456

>  <Genealogy>  (45) 
CN(CCOc1ccc(-c2cc(=O)c3ccc(OC[C@@H](O)[C@H](O)CO)cc3o2)cc1)Cc1ccccc1 (chirality)
CN(CCOc1ccc(-c2cc(=O)c3ccc(OC[C@@H](O)[C@H](O)CO)cc3o2)cc1)Cc1ccccc1 (3D coordinates assigned)
CN(CCOc1ccc(-c2cc(=O)c3ccc(OC[C@@H](O)[C@H](O)CO)cc3o2)cc1)Cc1ccccc1 (optimized conformer: 83.27965390652456 kcal/mol)

>  <smiles>  (45) 
CN(CCOc1ccc(-c2cc(=O)c3ccc(OCC(O)C(O)CO)cc3o2)cc1)Cc1ccccc1

>  <score_type>  (45) 
oracle

>  <origin>  (45) 
adg

>  <m_score__min__energy>  (45) 
-9.8499999999999996

>  <m_primary>  (45) 
energy

$$$$
45:0
     RDKit          3D

 42 42  0  0  0  0  0  0  0  0999 V2000
   -8.9180   21.3040  -31.5660 C   0  0  0  0  0  0  0  0  0  0  0  0
   -8.4030   20.4260  -32.7130 C   0  0  0  0  0  0  0  0  0  0  0  0
   -7.2050   19.6330  -32.3220 N   0  0  0  0  0  0  0  0  0  0  0  0
   -7.6060   18.4850  -31.4640 C   0  0  0  0  0  0  0  0  0  0  0  0
   -6.4810   17.4540  -31.3090 C   0  0  0  0  0  0  0  0  0  0  0  0
   -6.4910   19.1460  -33.5350 C   0  0  0  0  0  0  0  0  0  0  0  0
   -5.1380   19.8530  -33.7410 C   0  0  0  0  0  0  0  0  0  0  0  0
   -5.1880   21.1990  -33.1430 N   0  0  0  0  0  0  0  0  0  0  0  0
   -4.3110   21.3300  -31.9680 C   0  0  0  0  0  0  0  0  0  0  0  0
   -4.5820   22.6170  -31.2330 C   0  0  0  0  0  0  0  0  0  0  0  0
   -5.8780   23.1560  -31.1950 C   0  0  0  0  0  0  0  0  0  0  0  0
   -6.1150   24.3690  -30.5470 C   0  0  0  0  0  0  0  0  0  0  0  0
   -5.0630   25.0570  -29.9390 C   0  0  0  0  0  0  0  0  0  0  0  0
   -3.7620   24.5400  -29.9720 C   0  0  0  0  0  0  0  0  0  0  0  0
   -2.7390   25.2740  -29.3540 O   0  0  0  0  0  0  0  0  0  0  0  0
   -2.0610   24.8670  -28.1690 C   0  0  0  0  0  0  0  0  0  0  0  0
   -3.5260   23.3120  -30.6210 C   0  0  0  0  0  0  0  0  0  0  0  0
   -8.6487   20.8448  -30.6034 H   0  0  0  0  0  0  0  0  0  0  0  0
   -8.4627   22.3029  -31.6359 H   0  0  0  0  0  0  0  0  0  0  0  0
  -10.0121   21.3941  -31.6359 H   0  0  0  0  0  0  0  0  0  0  0  0
   -9.2026   19.7337  -33.0153 H   0  0  0  0  0  0  0  0  0  0  0  0
   -8.1125   21.0894  -33.5410 H   0  0  0  0  0  0  0  0  0  0  0  0
   -6.5600   20.2520  -31.7750 H   0  0  0  0  0  0  0  0  0  0  0  0
   -7.8771   18.8653  -30.4681 H   0  0  0  0  0  0  0  0  0  0  0  0
   -8.4575   17.9842  -31.9479 H   0  0  0  0  0  0  0  0  0  0  0  0
   -6.2893   17.2783  -30.2402 H   0  0  0  0  0  0  0  0  0  0  0  0
   -6.7802   16.5100  -31.7878 H   0  0  0  0  0  0  0  0  0  0  0  0
   -5.5666   17.8343  -31.7878 H   0  0  0  0  0  0  0  0  0  0  0  0
   -6.3131   18.0655  -33.4307 H   0  0  0  0  0  0  0  0  0  0  0  0
   -7.1223   19.3671  -34.4082 H   0  0  0  0  0  0  0  0  0  0  0  0
   -4.3416   19.2673  -33.2586 H   0  0  0  0  0  0  0  0  0  0  0  0
   -4.9307   19.9389  -34.8179 H   0  0  0  0  0  0  0  0  0  0  0  0
   -4.8540   21.8890  -33.8560 H   0  0  0  0  0  0  0  0  0  0  0  0
   -4.4904   20.4833  -31.2890 H   0  0  0  0  0  0  0  0  0  0  0  0
   -3.2655   21.3350  -32.3098 H   0  0  0  0  0  0  0  0  0  0  0  0
   -6.7090   22.6205  -31.6775 H   0  0  0  0  0  0  0  0  0  0  0  0
   -7.1331   24.7842  -30.5151 H   0  0  0  0  0  0  0  0  0  0  0  0
   -5.2577   26.0126  -29.4301 H   0  0  0  0  0  0  0  0  0  0  0  0
   -2.6261   25.2062  -27.2883 H   0  0  0  0  0  0  0  0  0  0  0  0
   -1.9789   23.7702  -28.1518 H   0  0  0  0  0  0  0  0  0  0  0  0
   -1.0544   25.3103  -28.1518 H   0  0  0  0  0  0  0  0  0  0  0  0
   -2.5085   22.8950  -30.6486 H   0  0  0  0  0  0  0  0  0  0  0  0
  1  2  1  0
  2  3  1  0
  3  4  1  0
  4  5  1  0
  3  6  1  0
  6  7  1  0
  7  8  1  0
  8  9  1  0
  9 10  1  0
 10 11  2  0
 11 12  1  0
 12 13  2  0
 13 14  1  0
 14 15  1  0
 15 16  1  0
 14 17  2  0
 17 10  1  0
  1 18  1  0
  1 19  1  0
  1 20  1  0
  2 21  1  0
  2 22  1  0
  3 23  1  0
  4 24  1  0
  4 25  1  0
  5 26  1  0
  5 27  1  0
  5 28  1  0
  6 29  1  0
  6 30  1  0
  7 31  1  0
  7 32  1  0
  8 33  1  0
  9 34  1  0
  9 35  1  0
 11 36  1  0
 12 37  1  0
 13 38  1  0
 16 39  1  0
 16 40  1  0
 16 41  1  0
 17 42  1  0
M  CHG  1   3   1
M  END
>  <UniqueID>  (46) 
43

>  <SMILES>  (46) 
CC[NH+](CC)CCNCc1cccc(OC)c1

>  <Energy>  (46) 
38.12043538941801

>  <Genealogy>  (46) 
CC[NH+](CC)CCNCc1cccc(OC)c1 (protonated)
CC[NH+](CC)CCNCc1cccc(OC)c1 (3D coordinates assigned)
CC[NH+](CC)CCNCc1cccc(OC)c1 (optimized conformer: 38.12043538941801 kcal/mol)

>  <smiles>  (46) 
CCN(CC)CCNCc1cccc(OC)c1

>  <score_type>  (46) 
oracle

>  <origin>  (46) 
adg

>  <m_score__min__energy>  (46) 
-5.46

>  <m_primary>  (46) 
energy

$$$$
46:0
     RDKit          3D

 44 45  0  0  0  0  0  0  0  0999 V2000
   -1.5620   25.5200  -27.6260 C   0  0  0  0  0  0  0  0  0  0  0  0
   -2.0070   25.4040  -28.9730 O   0  0  0  0  0  0  0  0  0  0  0  0
   -2.3980   24.1990  -29.5800 C   0  0  0  0  0  0  0  0  0  0  0  0
   -1.7290   22.9860  -29.3300 C   0  0  0  0  0  0  0  0  0  0  0  0
   -2.1470   21.8080  -29.9530 C   0  0  0  0  0  0  0  0  0  0  0  0
   -3.2310   21.8220  -30.8410 C   0  0  0  0  0  0  0  0  0  0  0  0
   -3.7030   20.5450  -31.4850 C   0  0  0  0  0  0  0  0  0  0  0  0
   -3.7300   20.6680  -33.0120 C   0  0  0  0  0  0  0  0  0  0  0  0
   -4.8580   19.9040  -33.5650 N   0  0  0  0  0  0  0  0  0  0  0  0
   -5.2240   18.7560  -32.7210 C   0  0  0  0  0  0  0  0  0  0  0  0
   -6.4310   19.0500  -31.8220 C   0  0  0  0  0  0  0  0  0  0  0  0
   -7.8170   19.6660  -32.8340 S   0  0  0  0  0  0  0  0  0  0  0  0
   -7.5760   21.3690  -32.3260 C   0  0  0  0  0  0  0  0  0  0  0  0
   -6.5570   22.1500  -32.7170 N   0  0  0  0  0  0  0  0  0  0  0  0
   -6.7310   23.3150  -32.1120 N   0  0  0  0  0  0  0  0  0  0  0  0
   -7.8250   23.2600  -31.3630 N   0  0  0  0  0  0  0  0  0  0  0  0
   -8.3680   22.0600  -31.4900 N   0  0  0  0  0  0  0  0  0  0  0  0
   -9.5530   21.5960  -30.7810 C   0  0  0  0  0  0  0  0  0  0  0  0
   -3.9060   23.0270  -31.0830 C   0  0  0  0  0  0  0  0  0  0  0  0
   -3.4920   24.2200  -30.4580 C   0  0  0  0  0  0  0  0  0  0  0  0
   -4.1430   25.4430  -30.6830 O   0  0  0  0  0  0  0  0  0  0  0  0
   -5.5180   25.6890  -30.4080 C   0  0  0  0  0  0  0  0  0  0  0  0
   -2.3971   25.3023  -26.9439 H   0  0  0  0  0  0  0  0  0  0  0  0
   -0.7459   24.8046  -27.4465 H   0  0  0  0  0  0  0  0  0  0  0  0
   -1.1991   26.5428  -27.4465 H   0  0  0  0  0  0  0  0  0  0  0  0
   -0.8724   22.9658  -28.6402 H   0  0  0  0  0  0  0  0  0  0  0  0
   -1.6223   20.8637  -29.7454 H   0  0  0  0  0  0  0  0  0  0  0  0
   -3.0217   19.7286  -31.2033 H   0  0  0  0  0  0  0  0  0  0  0  0
   -4.7251   20.3372  -31.1355 H   0  0  0  0  0  0  0  0  0  0  0  0
   -3.8383   21.7270  -33.2890 H   0  0  0  0  0  0  0  0  0  0  0  0
   -2.7909   20.2662  -33.4203 H   0  0  0  0  0  0  0  0  0  0  0  0
   -5.6850   20.5380  -33.6680 H   0  0  0  0  0  0  0  0  0  0  0  0
   -5.4680   17.9033  -33.3716 H   0  0  0  0  0  0  0  0  0  0  0  0
   -4.3669   18.5340  -32.0682 H   0  0  0  0  0  0  0  0  0  0  0  0
   -6.7364   18.1273  -31.3069 H   0  0  0  0  0  0  0  0  0  0  0  0
   -6.1547   19.8137  -31.0801 H   0  0  0  0  0  0  0  0  0  0  0  0
   -5.7740   21.9100  -33.3640 H   0  0  0  0  0  0  0  0  0  0  0  0
   -9.3813   21.6632  -29.6966 H   0  0  0  0  0  0  0  0  0  0  0  0
  -10.4137   22.2235  -31.0555 H   0  0  0  0  0  0  0  0  0  0  0  0
   -9.7588   20.5509  -31.0555 H   0  0  0  0  0  0  0  0  0  0  0  0
   -4.7670   23.0411  -31.7674 H   0  0  0  0  0  0  0  0  0  0  0  0
   -5.6749   25.7171  -29.3196 H   0  0  0  0  0  0  0  0  0  0  0  0
   -5.8126   26.6541  -30.8460 H   0  0  0  0  0  0  0  0  0  0  0  0
   -6.1289   24.8859  -30.8460 H   0  0  0  0  0  0  0  0  0  0  0  0
  1  2  1  0
  2  3  1  0
  3  4  2  0
  4  5  1  0
  5  6  2  0
  6  7  1  0
  7  8  1  0
  8  9  1  0
  9 10  1  0
 10 11  1  0
 11 12  1  0
 12 13  1  0
 13 14  2  0
 14 15  1  0
 15 16  2  0
 16 17  1  0
 17 18  1  0
  6 19  1  0
 19 20  2  0
 20 21  1  0
 21 22  1  0
 20  3  1  0
 17 13  1  0
  1 23  1  0
  1 24  1  0
  1 25  1  0
  4 26  1  0
  5 27  1  0
  7 28  1  0
  7 29  1  0
  8 30  1  0
  8 31  1  0
  9 32  1  0
 10 33  1  0
 10 34  1  0
 11 35  1  0
 11 36  1  0
 14 37  1  0
 18 38  1  0
 18 39  1  0
 18 40  1  0
 19 41  1  0
 22 42  1  0
 22 43  1  0
 22 44  1  0
M  CHG  1  14   1
M  END
>  <UniqueID>  (47) 
44

>  <SMILES>  (47) 
COc1ccc(CCNCCSc2[nH+]nnn2C)cc1OC

>  <Energy>  (47) 
74.46255610342538

>  <Genealogy>  (47) 
COc1ccc(CCNCCSc2[nH+]nnn2C)cc1OC (protonated)
COc1ccc(CCNCCSc2[nH+]nnn2C)cc1OC (3D coordinates assigned)
COc1ccc(CCNCCSc2[nH+]nnn2C)cc1OC (optimized conformer: 74.46255610342538 kcal/mol)

>  <smiles>  (47) 
COc1ccc(CCNCCSc2nnnn2C)cc1OC

>  <score_type>  (47) 
oracle

>  <origin>  (47) 
adg

>  <m_score__min__energy>  (47) 
-7.5800000000000001

>  <m_primary>  (47) 
energy

$$$$
47:0
     RDKit          3D

 44 46  0  0  0  0  0  0  0  0999 V2000
   -8.0170   21.7990  -30.8960 C   0  0  0  0  0  0  0  0  0  0  0  0
   -7.6160   22.7250  -29.7430 C   0  0  0  0  0  0  0  0  0  0  0  0
   -6.2430   23.3200  -29.7840 N   0  0  1  0  0  0  0  0  0  0  0  0
   -5.0820   22.3930  -29.7680 C   0  0  1  0  0  0  0  0  0  0  0  0
   -4.7820   21.7350  -31.1510 C   0  0  0  0  0  0  0  0  0  0  0  0
   -4.9090   22.6630  -32.3750 C   0  0  0  0  0  0  0  0  0  0  0  0
   -5.9570   23.7740  -32.2300 C   0  0  0  0  0  0  0  0  0  0  0  0
   -6.0450   24.3680  -30.8100 C   0  0  2  0  0  0  0  0  0  0  0  0
   -4.8160   25.2490  -30.4450 C   0  0  0  0  0  0  0  0  0  0  0  0
   -3.5490   24.4470  -30.0450 C   0  0  1  0  0  0  0  0  0  0  0  0
   -2.5910   25.2990  -29.3350 N   0  0  0  0  0  0  0  0  0  0  0  0
   -1.3770   24.8770  -28.6930 C   0  0  0  0  0  0  0  0  0  0  0  0
   -0.4930   24.2700  -29.3530 O   0  0  0  0  0  0  0  0  0  0  0  0
   -1.1860   25.1380  -27.2430 C   0  0  0  0  0  0  0  0  0  0  0  0
   -1.2030   26.4690  -26.7850 C   0  0  0  0  0  0  0  0  0  0  0  0
   -1.0420   26.7610  -25.4290 C   0  0  0  0  0  0  0  0  0  0  0  0
   -0.8590   25.7300  -24.5090 C   0  0  0  0  0  0  0  0  0  0  0  0
   -0.8300   24.4050  -24.9420 C   0  0  0  0  0  0  0  0  0  0  0  0
   -0.9900   24.0960  -26.3000 C   0  0  0  0  0  0  0  0  0  0  0  0
   -0.8760   22.3990  -26.7590 Cl  0  0  0  0  0  0  0  0  0  0  0  0
   -3.8390   23.1550  -29.2420 C   0  0  0  0  0  0  0  0  0  0  0  0
   -8.4231   20.8613  -30.4889 H   0  0  0  0  0  0  0  0  0  0  0  0
   -8.7821   22.2924  -31.5134 H   0  0  0  0  0  0  0  0  0  0  0  0
   -7.1337   21.5786  -31.5134 H   0  0  0  0  0  0  0  0  0  0  0  0
   -8.3357   23.5566  -29.7219 H   0  0  0  0  0  0  0  0  0  0  0  0
   -7.6175   22.0812  -28.8511 H   0  0  0  0  0  0  0  0  0  0  0  0
   -6.2090   23.8370  -28.8700 H   0  0  0  0  0  0  0  0  0  0  0  0
   -5.3377   21.5590  -29.0979 H   0  0  0  0  0  0  0  0  0  0  0  0
   -5.4838   20.8989  -31.2867 H   0  0  0  0  0  0  0  0  0  0  0  0
   -3.7258   21.4299  -31.1147 H   0  0  0  0  0  0  0  0  0  0  0  0
   -5.1802   22.0474  -33.2453 H   0  0  0  0  0  0  0  0  0  0  0  0
   -3.9367   23.1652  -32.4869 H   0  0  0  0  0  0  0  0  0  0  0  0
   -6.9409   23.3586  -32.4933 H   0  0  0  0  0  0  0  0  0  0  0  0
   -5.6509   24.5912  -32.8997 H   0  0  0  0  0  0  0  0  0  0  0  0
   -6.9297   25.0217  -30.8185 H   0  0  0  0  0  0  0  0  0  0  0  0
   -5.0949   25.8957  -29.6000 H   0  0  0  0  0  0  0  0  0  0  0  0
   -4.5558   25.8160  -31.3510 H   0  0  0  0  0  0  0  0  0  0  0  0
   -3.1037   24.1113  -30.9932 H   0  0  0  0  0  0  0  0  0  0  0  0
   -1.3449   27.2892  -27.5042 H   0  0  0  0  0  0  0  0  0  0  0  0
   -1.0596   27.8061  -25.0864 H   0  0  0  0  0  0  0  0  0  0  0  0
   -0.7374   25.9619  -23.4406 H   0  0  0  0  0  0  0  0  0  0  0  0
   -0.6804   23.5957  -24.2122 H   0  0  0  0  0  0  0  0  0  0  0  0
   -4.0106   23.4253  -28.1896 H   0  0  0  0  0  0  0  0  0  0  0  0
   -2.9692   22.4910  -29.3535 H   0  0  0  0  0  0  0  0  0  0  0  0
  1  2  1  0
  2  3  1  0
  3  4  1  0
  4  5  1  0
  5  6  1  0
  6  7  1  0
  7  8  1  0
  8  9  1  0
  9 10  1  0
 10 11  1  0
 11 12  1  0
 12 13  2  0
 12 14  1  0
 14 15  2  0
 15 16  1  0
 16 17  2  0
 17 18  1  0
 18 19  2  0
 19 20  1  0
 10 21  1  0
  8  3  1  0
 19 14  1  0
 21  4  1  0
  1 22  1  0
  1 23  1  0
  1 24  1  0
  2 25  1  0
  2 26  1  0
  3 27  1  1
  4 28  1  1
  5 29  1  0
  5 30  1  0
  6 31  1  0
  6 32  1  0
  7 33  1  0
  7 34  1  0
  8 35  1  6
  9 36  1  0
  9 37  1  0
 10 38  1  6
 15 39  1  0
 16 40  1  0
 17 41  1  0
 18 42  1  0
 21 43  1  0
 21 44  1  0
M  CHG  2   3   1  11  -1
M  END
>  <UniqueID>  (48) 
45

>  <SMILES>  (48) 
CC[NH+]1[C@@H]2CCC[C@H]1CC([N-]C(=O)c1ccccc1Cl)C2

>  <Energy>  (48) 
69.24505229025598

>  <Genealogy>  (48) 
CC[NH+]1C2CCCC1CC([N-]C(=O)c1ccccc1Cl)C2 (protonated)
CC[NH+]1[C@@H]2CCC[C@H]1CC([N-]C(=O)c1ccccc1Cl)C2 (chirality)
CC[NH+]1[C@@H]2CCC[C@H]1CC([N-]C(=O)c1ccccc1Cl)C2 (3D coordinates assigned)
CC[NH+]1[C@@H]2CCC[C@H]1CC([N-]C(=O)c1ccccc1Cl)C2 (nonaromatic ring conformer: 69.24505229025598 kcal/mol)

>  <smiles>  (48) 
CCN1C2CCCC1CC(NC(=O)c1ccccc1Cl)C2

>  <score_type>  (48) 
oracle

>  <origin>  (48) 
adg

>  <m_score__min__energy>  (48) 
-8.8699999999999992

>  <m_primary>  (48) 
energy

$$$$
