0:0
     RDKit          3D

 62 63  0  0  0  0  0  0  0  0999 V2000
   -5.9510   18.9360  -34.6090 C   0  0  0  0  0  0  0  0  0  0  0  0
   -5.5000   17.6750  -33.8740 C   0  0  0  0  0  0  0  0  0  0  0  0
   -5.4120   17.8680  -32.3480 C   0  0  0  0  0  0  0  0  0  0  0  0
   -6.7020   18.3760  -31.6740 C   0  0  0  0  0  0  0  0  0  0  0  0
   -7.9930   17.8210  -32.2990 C   0  0  0  0  0  0  0  0  0  0  0  0
   -8.9240   18.9050  -32.6450 N   0  0  0  0  0  0  0  0  0  0  0  0
   -8.9010   19.9860  -31.6470 C   0  0  0  0  0  0  0  0  0  0  0  0
   -8.8430   21.3570  -32.3350 C   0  0  0  0  0  0  0  0  0  0  0  0
   -7.6480   22.1560  -31.8840 C   0  0  0  0  0  0  0  0  0  0  0  0
   -7.8210   23.3610  -31.1890 C   0  0  0  0  0  0  0  0  0  0  0  0
   -6.7150   24.1410  -30.8400 C   0  0  0  0  0  0  0  0  0  0  0  0
   -5.4160   23.7390  -31.2040 C   0  0  0  0  0  0  0  0  0  0  0  0
   -4.2840   24.4970  -30.8630 O   0  0  0  0  0  0  0  0  0  0  0  0
   -3.4290   24.2190  -29.7550 C   0  0  0  0  0  0  0  0  0  0  0  0
   -5.2450   22.5440  -31.9290 C   0  0  0  0  0  0  0  0  0  0  0  0
   -3.9580   22.1620  -32.4390 N   0  0  0  0  0  0  0  0  0  0  0  0
   -3.6470   20.7670  -32.7620 C   0  0  0  0  0  0  0  0  0  0  0  0
   -2.1710   20.6190  -33.0650 C   0  0  0  0  0  0  0  0  0  0  0  0
   -1.7860   19.9540  -34.2400 C   0  0  0  0  0  0  0  0  0  0  0  0
   -0.4430   19.8980  -34.6190 C   0  0  0  0  0  0  0  0  0  0  0  0
    0.5410   20.5160  -33.8310 C   0  0  0  0  0  0  0  0  0  0  0  0
    1.9010   20.5080  -34.1800 O   0  0  0  0  0  0  0  0  0  0  0  0
    2.4960   21.3960  -35.1230 C   0  0  0  0  0  0  0  0  0  0  0  0
    0.1630   21.1720  -32.6540 C   0  0  0  0  0  0  0  0  0  0  0  0
   -1.1890   21.2300  -32.2580 C   0  0  0  0  0  0  0  0  0  0  0  0
   -1.5840   21.8840  -31.0790 O   0  0  0  0  0  0  0  0  0  0  0  0
   -1.6940   21.2580  -29.8040 C   0  0  0  0  0  0  0  0  0  0  0  0
   -6.3550   21.7490  -32.2420 C   0  0  0  0  0  0  0  0  0  0  0  0
   -6.2273   19.7085  -33.8762 H   0  0  0  0  0  0  0  0  0  0  0  0
   -5.1295   19.3062  -35.2400 H   0  0  0  0  0  0  0  0  0  0  0  0
   -6.8209   18.7013  -35.2400 H   0  0  0  0  0  0  0  0  0  0  0  0
   -6.2193   16.8699  -34.0848 H   0  0  0  0  0  0  0  0  0  0  0  0
   -4.4904   17.4273  -34.2336 H   0  0  0  0  0  0  0  0  0  0  0  0
   -5.1516   16.8990  -31.8971 H   0  0  0  0  0  0  0  0  0  0  0  0
   -4.6543   18.6481  -32.1827 H   0  0  0  0  0  0  0  0  0  0  0  0
   -6.6770   18.0834  -30.6139 H   0  0  0  0  0  0  0  0  0  0  0  0
   -6.7249   19.4672  -31.8110 H   0  0  0  0  0  0  0  0  0  0  0  0
   -7.7385   17.2616  -33.2113 H   0  0  0  0  0  0  0  0  0  0  0  0
   -8.4811   17.1633  -31.5647 H   0  0  0  0  0  0  0  0  0  0  0  0
   -8.6060   19.3100  -33.5580 H   0  0  0  0  0  0  0  0  0  0  0  0
   -9.8109   19.9289  -31.0315 H   0  0  0  0  0  0  0  0  0  0  0  0
   -8.0068   19.8677  -31.0173 H   0  0  0  0  0  0  0  0  0  0  0  0
   -8.7821   21.2076  -33.4231 H   0  0  0  0  0  0  0  0  0  0  0  0
   -9.7512   21.9155  -32.0643 H   0  0  0  0  0  0  0  0  0  0  0  0
   -8.8332   23.6947  -30.9167 H   0  0  0  0  0  0  0  0  0  0  0  0
   -6.8606   25.0749  -30.2773 H   0  0  0  0  0  0  0  0  0  0  0  0
   -3.9751   24.3966  -28.8168 H   0  0  0  0  0  0  0  0  0  0  0  0
   -3.1041   23.1689  -29.7970 H   0  0  0  0  0  0  0  0  0  0  0  0
   -2.5486   24.8772  -29.7970 H   0  0  0  0  0  0  0  0  0  0  0  0
   -3.1490   22.7950  -32.2370 H   0  0  0  0  0  0  0  0  0  0  0  0
   -3.9082   20.1284  -31.9053 H   0  0  0  0  0  0  0  0  0  0  0  0
   -4.2278   20.4643  -33.6458 H   0  0  0  0  0  0  0  0  0  0  0  0
   -2.5497   19.4723  -34.8683 H   0  0  0  0  0  0  0  0  0  0  0  0
   -0.1550   19.3676  -35.5386 H   0  0  0  0  0  0  0  0  0  0  0  0
    3.0310   22.1944  -34.5879 H   0  0  0  0  0  0  0  0  0  0  0  0
    3.2042   20.8395  -35.7544 H   0  0  0  0  0  0  0  0  0  0  0  0
    1.7120   21.8394  -35.7544 H   0  0  0  0  0  0  0  0  0  0  0  0
    0.9319   21.6493  -32.0287 H   0  0  0  0  0  0  0  0  0  0  0  0
   -1.5617   22.0110  -29.0132 H   0  0  0  0  0  0  0  0  0  0  0  0
   -2.6872   20.7952  -29.7072 H   0  0  0  0  0  0  0  0  0  0  0  0
   -0.9180   20.4844  -29.7072 H   0  0  0  0  0  0  0  0  0  0  0  0
   -6.2109   20.7968  -32.7735 H   0  0  0  0  0  0  0  0  0  0  0  0
  1  2  1  0
  2  3  1  0
  3  4  1  0
  4  5  1  0
  5  6  1  0
  6  7  1  0
  7  8  1  0
  8  9  1  0
  9 10  2  0
 10 11  1  0
 11 12  2  0
 12 13  1  0
 13 14  1  0
 12 15  1  0
 15 16  1  0
 16 17  1  0
 17 18  1  0
 18 19  2  0
 19 20  1  0
 20 21  2  0
 21 22  1  0
 22 23  1  0
 21 24  1  0
 24 25  2  0
 25 26  1  0
 26 27  1  0
 15 28  2  0
 28  9  1  0
 25 18  1  0
  1 29  1  0
  1 30  1  0
  1 31  1  0
  2 32  1  0
  2 33  1  0
  3 34  1  0
  3 35  1  0
  4 36  1  0
  4 37  1  0
  5 38  1  0
  5 39  1  0
  6 40  1  0
  7 41  1  0
  7 42  1  0
  8 43  1  0
  8 44  1  0
 10 45  1  0
 11 46  1  0
 14 47  1  0
 14 48  1  0
 14 49  1  0
 16 50  1  0
 17 51  1  0
 17 52  1  0
 19 53  1  0
 20 54  1  0
 23 55  1  0
 23 56  1  0
 23 57  1  0
 24 58  1  0
 27 59  1  0
 27 60  1  0
 27 61  1  0
 28 62  1  0
M  END
>  <UniqueID>  (1) 
1

>  <SMILES>  (1) 
CCCCCNCCc1ccc(OC)c(NCc2ccc(OC)cc2OC)c1

>  <Energy>  (1) 
49.69968475371427

>  <Genealogy>  (1) 
CCCCCNCCc1ccc(OC)c(NCc2ccc(OC)cc2OC)c1 (3D coordinates assigned)
CCCCCNCCc1ccc(OC)c(NCc2ccc(OC)cc2OC)c1 (optimized conformer: 49.69968475371427 kcal/mol)

>  <smiles>  (1) 
CCCCCNCCc1ccc(OC)c(NCc2ccc(OC)cc2OC)c1

>  <score_type>  (1) 
oracle

>  <origin>  (1) 
adg

>  <m_score__min__energy>  (1) 
-7.7300000000000004

>  <m_primary>  (1) 
energy

$$$$
1:0
     RDKit          3D

 75 80  0  0  0  0  0  0  0  0999 V2000
    2.7540   21.3250  -36.4220 O   0  0  0  0  0  0  0  0  0  0  0  0
    2.1210   21.9270  -35.5120 C   0  0  0  0  0  0  0  0  0  0  0  0
    1.6820   23.3170  -35.7560 C   0  0  0  0  0  0  0  0  0  0  0  0
    0.3480   23.5820  -36.0960 C   0  0  0  0  0  0  0  0  0  0  0  0
   -0.0810   24.8960  -36.3040 C   0  0  0  0  0  0  0  0  0  0  0  0
    0.8220   25.9690  -36.1910 C   0  0  0  0  0  0  0  0  0  0  0  0
    0.3620   27.3680  -36.3910 C   0  0  0  0  0  0  0  0  0  0  0  0
    0.6150   28.3540  -35.4180 C   0  0  0  0  0  0  0  0  0  0  0  0
    0.1890   29.6700  -35.6140 C   0  0  0  0  0  0  0  0  0  0  0  0
   -0.4930   30.0200  -36.7810 C   0  0  0  0  0  0  0  0  0  0  0  0
   -0.7510   29.0520  -37.7540 C   0  0  0  0  0  0  0  0  0  0  0  0
   -0.3280   27.7340  -37.5630 C   0  0  0  0  0  0  0  0  0  0  0  0
    2.1650   25.6950  -35.8800 C   0  0  0  0  0  0  0  0  0  0  0  0
    2.5920   24.3810  -35.6680 C   0  0  0  0  0  0  0  0  0  0  0  0
    1.7950   21.2380  -34.2860 N   0  0  0  0  0  0  0  0  0  0  0  0
    2.5480   20.0390  -33.8880 C   0  0  0  0  0  0  0  0  0  0  0  0
    1.6140   18.8290  -33.9360 C   0  0  0  0  0  0  0  0  0  0  0  0
    0.3320   19.0400  -33.0700 C   0  0  0  0  0  0  0  0  0  0  0  0
    0.1800   20.4930  -32.5340 C   0  0  0  0  0  0  0  0  0  0  0  0
    0.5310   21.5490  -33.5940 C   0  0  0  0  0  0  0  0  0  0  0  0
   -0.8830   18.6520  -33.8490 C   0  0  0  0  0  0  0  0  0  0  0  0
   -1.2490   19.1970  -34.9260 O   0  0  0  0  0  0  0  0  0  0  0  0
   -1.5900   17.5840  -33.2420 N   0  0  0  0  0  0  0  0  0  0  0  0
   -2.6700   16.8190  -33.8610 C   0  0  0  0  0  0  0  0  0  0  0  0
   -3.8520   17.7120  -34.1300 C   0  0  0  0  0  0  0  0  0  0  0  0
   -4.3780   17.6850  -35.2350 O   0  0  0  0  0  0  0  0  0  0  0  0
   -4.3530   18.6070  -33.1030 N   0  0  0  0  0  0  0  0  0  0  0  0
   -3.9720   20.0040  -33.4200 C   0  0  0  0  0  0  0  0  0  0  0  0
   -4.9330   20.9960  -32.7440 C   0  0  0  0  0  0  0  0  0  0  0  0
   -6.2840   20.8590  -33.1690 O   0  0  0  0  0  0  0  0  0  0  0  0
   -6.6170   19.5490  -33.6130 C   0  0  0  0  0  0  0  0  0  0  0  0
   -5.8160   18.4380  -32.9090 C   0  0  0  0  0  0  0  0  0  0  0  0
   -0.8800   17.1860  -32.0380 C   0  0  0  0  0  0  0  0  0  0  0  0
    0.2820   18.0730  -31.9570 N   0  0  0  0  0  0  0  0  0  0  0  0
    1.0750   18.1590  -30.7620 C   0  0  0  0  0  0  0  0  0  0  0  0
    2.4560   18.3880  -30.8360 C   0  0  0  0  0  0  0  0  0  0  0  0
    3.2200   18.4560  -29.6650 C   0  0  0  0  0  0  0  0  0  0  0  0
    2.6110   18.2830  -28.4190 C   0  0  0  0  0  0  0  0  0  0  0  0
    1.2370   18.0410  -28.3420 C   0  0  0  0  0  0  0  0  0  0  0  0
    0.4710   17.9720  -29.5080 C   0  0  0  0  0  0  0  0  0  0  0  0
   -0.3653   22.7510  -36.1997 H   0  0  0  0  0  0  0  0  0  0  0  0
   -1.1330   25.0927  -36.5581 H   0  0  0  0  0  0  0  0  0  0  0  0
    1.1523   28.0859  -34.4963 H   0  0  0  0  0  0  0  0  0  0  0  0
    0.3913   30.4322  -34.8471 H   0  0  0  0  0  0  0  0  0  0  0  0
   -0.8267   31.0570  -36.9338 H   0  0  0  0  0  0  0  0  0  0  0  0
   -1.2886   29.3278  -38.6732 H   0  0  0  0  0  0  0  0  0  0  0  0
   -0.5354   26.9769  -38.3335 H   0  0  0  0  0  0  0  0  0  0  0  0
    2.8864   26.5218  -35.8028 H   0  0  0  0  0  0  0  0  0  0  0  0
    3.6472   24.1802  -35.4309 H   0  0  0  0  0  0  0  0  0  0  0  0
    3.3887   19.8842  -34.5803 H   0  0  0  0  0  0  0  0  0  0  0  0
    2.9404   20.1667  -32.8684 H   0  0  0  0  0  0  0  0  0  0  0  0
    1.3122   18.6554  -34.9795 H   0  0  0  0  0  0  0  0  0  0  0  0
    2.1590   17.9648  -33.5283 H   0  0  0  0  0  0  0  0  0  0  0  0
   -0.8620   20.6448  -32.2158 H   0  0  0  0  0  0  0  0  0  0  0  0
    0.8801   20.6154  -31.6944 H   0  0  0  0  0  0  0  0  0  0  0  0
   -0.2796   21.5900  -34.3365 H   0  0  0  0  0  0  0  0  0  0  0  0
    0.6521   22.5157  -33.0834 H   0  0  0  0  0  0  0  0  0  0  0  0
   -2.3145   16.3911  -34.8100 H   0  0  0  0  0  0  0  0  0  0  0  0
   -2.9769   16.0137  -33.1774 H   0  0  0  0  0  0  0  0  0  0  0  0
   -3.8930   18.3560  -32.1960 H   0  0  0  0  0  0  0  0  0  0  0  0
   -2.9492   20.1899  -33.0603 H   0  0  0  0  0  0  0  0  0  0  0  0
   -4.0251   20.1466  -34.5094 H   0  0  0  0  0  0  0  0  0  0  0  0
   -4.8922   20.8339  -31.6568 H   0  0  0  0  0  0  0  0  0  0  0  0
   -4.6060   22.0070  -33.0285 H   0  0  0  0  0  0  0  0  0  0  0  0
   -7.6873   19.3792  -33.4241 H   0  0  0  0  0  0  0  0  0  0  0  0
   -6.3681   19.4978  -34.6833 H   0  0  0  0  0  0  0  0  0  0  0  0
   -6.0382   18.4663  -31.8321 H   0  0  0  0  0  0  0  0  0  0  0  0
   -6.1104   17.4731  -33.3475 H   0  0  0  0  0  0  0  0  0  0  0  0
   -1.5221   17.3121  -31.1538 H   0  0  0  0  0  0  0  0  0  0  0  0
   -0.5834   16.1273  -32.0707 H   0  0  0  0  0  0  0  0  0  0  0  0
    2.9400   18.5144  -31.8157 H   0  0  0  0  0  0  0  0  0  0  0  0
    4.3018   18.6460  -29.7256 H   0  0  0  0  0  0  0  0  0  0  0  0
    3.2128   18.3373  -27.4998 H   0  0  0  0  0  0  0  0  0  0  0  0
    0.7577   17.9046  -27.3614 H   0  0  0  0  0  0  0  0  0  0  0  0
   -0.6085   17.7706  -29.4438 H   0  0  0  0  0  0  0  0  0  0  0  0
  1  2  2  0
  2  3  1  0
  3  4  2  0
  4  5  1  0
  5  6  2  0
  6  7  1  0
  7  8  2  0
  8  9  1  0
  9 10  2  0
 10 11  1  0
 11 12  2  0
  6 13  1  0
 13 14  2  0
  2 15  1  0
 15 16  1  0
 16 17  1  0
 17 18  1  0
 18 19  1  0
 19 20  1  0
 18 21  1  0
 21 22  2  0
 21 23  1  0
 23 24  1  0
 24 25  1  0
 25 26  2  0
 25 27  1  0
 27 28  1  0
 28 29  1  0
 29 30  1  0
 30 31  1  0
 31 32  1  0
 23 33  1  0
 33 34  1  0
 34 35  1  0
 35 36  2  0
 36 37  1  0
 37 38  2  0
 38 39  1  0
 39 40  2  0
 14  3  1  0
 20 15  1  0
 32 27  1  0
 40 35  1  0
 12  7  1  0
 34 18  1  0
  4 41  1  0
  5 42  1  0
  8 43  1  0
  9 44  1  0
 10 45  1  0
 11 46  1  0
 12 47  1  0
 13 48  1  0
 14 49  1  0
 16 50  1  0
 16 51  1  0
 17 52  1  0
 17 53  1  0
 19 54  1  0
 19 55  1  0
 20 56  1  0
 20 57  1  0
 24 58  1  0
 24 59  1  0
 27 60  1  0
 28 61  1  0
 28 62  1  0
 29 63  1  0
 29 64  1  0
 31 65  1  0
 31 66  1  0
 32 67  1  0
 32 68  1  0
 33 69  1  0
 33 70  1  0
 36 71  1  0
 37 72  1  0
 38 73  1  0
 39 74  1  0
 40 75  1  0
M  CHG  1  27   1
M  END
>  <UniqueID>  (2) 
2

>  <SMILES>  (2) 
O=C(c1ccc(-c2ccccc2)cc1)N1CCC2(CC1)C(=O)N(CC(=O)[NH+]1CCOCC1)CN2c1ccccc1

>  <Energy>  (2) 
122.32904890592941

>  <Genealogy>  (2) 
O=C(c1ccc(-c2ccccc2)cc1)N1CCC2(CC1)C(=O)N(CC(=O)[NH+]1CCOCC1)CN2c1ccccc1 (protonated)
O=C(c1ccc(-c2ccccc2)cc1)N1CCC2(CC1)C(=O)N(CC(=O)[NH+]1CCOCC1)CN2c1ccccc1 (3D coordinates assigned)
O=C(c1ccc(-c2ccccc2)cc1)N1CCC2(CC1)C(=O)N(CC(=O)[NH+]1CCOCC1)CN2c1ccccc1 (nonaromatic ring conformer: 122.32904890592941 kcal/mol)

>  <smiles>  (2) 
O=C(CN1CN(c2ccccc2)C2(CCN(C(=O)c3ccc(-c4ccccc4)cc3)CC2)C1=O)N1CCOCC1

>  <score_type>  (2) 
oracle

>  <origin>  (2) 
adg

>  <m_score__min__energy>  (2) 
-8.5800000000000001

>  <m_primary>  (2) 
energy

$$$$
2:0
     RDKit          3D

 46 48  0  0  0  0  0  0  0  0999 V2000
   -3.8520   22.6440  -28.0180 C   0  0  0  0  0  0  0  0  0  0  0  0
   -3.7850   24.1560  -28.2250 C   0  0  0  0  0  0  0  0  0  0  0  0
   -2.8120   24.5400  -29.3460 C   0  0  0  0  0  0  0  0  0  0  0  0
   -3.4880   25.2970  -30.3960 N   0  0  0  0  0  0  0  0  0  0  0  0
   -4.8990   25.2420  -30.6360 C   0  0  0  0  0  0  0  0  0  0  0  0
   -5.6160   26.2500  -30.3890 O   0  0  0  0  0  0  0  0  0  0  0  0
   -5.5160   24.0040  -31.1660 C   0  0  0  0  0  0  0  0  0  0  0  0
   -6.9250   23.9170  -31.3350 C   0  0  0  0  0  0  0  0  0  0  0  0
   -7.5190   22.7470  -31.8400 C   0  0  0  0  0  0  0  0  0  0  0  0
   -6.6830   21.6750  -32.1540 C   0  0  0  0  0  0  0  0  0  0  0  0
   -5.3310   21.7540  -32.0060 C   0  0  0  0  0  0  0  0  0  0  0  0
   -4.7060   22.8970  -31.5160 C   0  0  0  0  0  0  0  0  0  0  0  0
   -4.7420   20.6250  -32.4370 N   0  0  0  0  0  0  0  0  0  0  0  0
   -5.7930   19.8610  -32.8350 C   0  0  0  0  0  0  0  0  0  0  0  0
   -5.6020   18.5290  -33.4380 C   0  0  0  0  0  0  0  0  0  0  0  0
   -6.2790   17.4080  -32.9330 C   0  0  0  0  0  0  0  0  0  0  0  0
   -6.0740   16.1470  -33.5020 C   0  0  0  0  0  0  0  0  0  0  0  0
   -5.1810   15.9950  -34.5660 C   0  0  0  0  0  0  0  0  0  0  0  0
   -4.4860   17.1040  -35.0580 C   0  0  0  0  0  0  0  0  0  0  0  0
   -4.6890   18.3660  -34.4920 C   0  0  0  0  0  0  0  0  0  0  0  0
   -7.0010   20.4730  -32.6690 N   0  0  0  0  0  0  0  0  0  0  0  0
   -8.3100   20.0510  -33.1800 C   0  0  0  0  0  0  0  0  0  0  0  0
   -9.2500   19.7280  -32.0150 C   0  0  0  0  0  0  0  0  0  0  0  0
   -8.7460   18.5350  -31.2110 C   0  0  0  0  0  0  0  0  0  0  0  0
   -3.8619   22.4215  -26.9408 H   0  0  0  0  0  0  0  0  0  0  0  0
   -4.7685   22.2506  -28.4821 H   0  0  0  0  0  0  0  0  0  0  0  0
   -2.9739   22.1711  -28.4821 H   0  0  0  0  0  0  0  0  0  0  0  0
   -4.7887   24.5237  -28.4846 H   0  0  0  0  0  0  0  0  0  0  0  0
   -3.4237   24.6110  -27.2910 H   0  0  0  0  0  0  0  0  0  0  0  0
   -2.0034   25.1550  -28.9242 H   0  0  0  0  0  0  0  0  0  0  0  0
   -2.4076   23.6172  -29.7874 H   0  0  0  0  0  0  0  0  0  0  0  0
   -7.5582   24.7757  -31.0673 H   0  0  0  0  0  0  0  0  0  0  0  0
   -8.6076   22.6790  -31.9829 H   0  0  0  0  0  0  0  0  0  0  0  0
   -3.6125   22.9390  -31.4038 H   0  0  0  0  0  0  0  0  0  0  0  0
   -6.9729   17.5216  -32.0871 H   0  0  0  0  0  0  0  0  0  0  0  0
   -6.6166   15.2735  -33.1114 H   0  0  0  0  0  0  0  0  0  0  0  0
   -5.0249   15.0036  -35.0162 H   0  0  0  0  0  0  0  0  0  0  0  0
   -3.7785   16.9833  -35.8916 H   0  0  0  0  0  0  0  0  0  0  0  0
   -4.1316   19.2341  -34.8737 H   0  0  0  0  0  0  0  0  0  0  0  0
   -8.7437   20.8620  -33.7835 H   0  0  0  0  0  0  0  0  0  0  0  0
   -8.1818   19.1512  -33.7996 H   0  0  0  0  0  0  0  0  0  0  0  0
   -9.3148   20.6044  -31.3533 H   0  0  0  0  0  0  0  0  0  0  0  0
  -10.2388   19.4768  -32.4262 H   0  0  0  0  0  0  0  0  0  0  0  0
   -8.8376   18.7519  -30.1365 H   0  0  0  0  0  0  0  0  0  0  0  0
   -9.3457   17.6466  -31.4582 H   0  0  0  0  0  0  0  0  0  0  0  0
   -7.6910   18.3456  -31.4582 H   0  0  0  0  0  0  0  0  0  0  0  0
  1  2  1  0
  2  3  1  0
  3  4  1  0
  4  5  1  0
  5  6  2  0
  5  7  1  0
  7  8  2  0
  8  9  1  0
  9 10  2  0
 10 11  1  0
 11 12  2  0
 11 13  1  0
 13 14  2  0
 14 15  1  0
 15 16  2  0
 16 17  1  0
 17 18  2  0
 18 19  1  0
 19 20  2  0
 14 21  1  0
 21 22  1  0
 22 23  1  0
 23 24  1  0
 12  7  1  0
 20 15  1  0
 21 10  1  0
  1 25  1  0
  1 26  1  0
  1 27  1  0
  2 28  1  0
  2 29  1  0
  3 30  1  0
  3 31  1  0
  8 32  1  0
  9 33  1  0
 12 34  1  0
 16 35  1  0
 17 36  1  0
 18 37  1  0
 19 38  1  0
 20 39  1  0
 22 40  1  0
 22 41  1  0
 23 42  1  0
 23 43  1  0
 24 44  1  0
 24 45  1  0
 24 46  1  0
M  CHG  1   4  -1
M  END
>  <UniqueID>  (3) 
3

>  <SMILES>  (3) 
CCC[N-]C(=O)c1ccc2c(c1)nc(-c1ccccc1)n2CCC

>  <Energy>  (3) 
79.66904988445475

>  <Genealogy>  (3) 
CCC[N-]C(=O)c1ccc2c(c1)nc(-c1ccccc1)n2CCC (protonated)
CCC[N-]C(=O)c1ccc2c(c1)nc(-c1ccccc1)n2CCC (3D coordinates assigned)
CCC[N-]C(=O)c1ccc2c(c1)nc(-c1ccccc1)n2CCC (optimized conformer: 79.66904988445475 kcal/mol)

>  <smiles>  (3) 
CCCNC(=O)c1ccc2c(c1)nc(-c1ccccc1)n2CCC

>  <score_type>  (3) 
oracle

>  <origin>  (3) 
adg

>  <m_score__min__energy>  (3) 
-10.619999999999999

>  <m_primary>  (3) 
energy

$$$$
3:0
     RDKit          3D

 43 45  0  0  0  0  0  0  0  0999 V2000
   -4.7240   25.8286  -30.3235 H   0  0  0  0  0  0  0  0  0  0  0  0
   -4.4170   24.7900  -30.5160 C   0  0  0  0  0  0  0  0  0  0  0  0
   -5.2050   23.9780  -31.2680 N   0  0  0  0  0  0  0  0  0  0  0  0
   -4.8620   22.6900  -31.5590 C   0  0  0  0  0  0  0  0  0  0  0  0
   -5.7560   21.8680  -32.3460 N   0  0  0  0  0  0  0  0  0  0  0  0
   -5.2350   20.8180  -33.2330 C   0  0  0  0  0  0  0  0  0  0  0  0
   -4.7880   21.2880  -34.1214 H   0  0  0  0  0  0  0  0  0  0  0  0
   -4.4813   20.2377  -32.6806 H   0  0  0  0  0  0  0  0  0  0  0  0
   -6.3530   19.8630  -33.6800 C   0  0  0  0  0  0  0  0  0  0  0  0
   -6.9219   20.3368  -34.4936 H   0  0  0  0  0  0  0  0  0  0  0  0
   -5.8872   18.9253  -34.0173 H   0  0  0  0  0  0  0  0  0  0  0  0
   -7.2780   19.5440  -32.5720 N   0  0  0  0  0  0  0  0  0  0  0  0
   -6.6340   18.7000  -31.5490 C   0  0  0  0  0  0  0  0  0  0  0  0
   -6.9104   19.0622  -30.5478 H   0  0  0  0  0  0  0  0  0  0  0  0
   -6.9696   17.6592  -31.6680 H   0  0  0  0  0  0  0  0  0  0  0  0
   -5.5415   18.7489  -31.6680 H   0  0  0  0  0  0  0  0  0  0  0  0
   -7.9240   20.7410  -31.9730 C   0  0  0  0  0  0  0  0  0  0  0  0
   -8.9549   20.8032  -32.3517 H   0  0  0  0  0  0  0  0  0  0  0  0
   -7.8796   20.6128  -30.8814 H   0  0  0  0  0  0  0  0  0  0  0  0
   -7.2100   22.0670  -32.2940 C   0  0  0  0  0  0  0  0  0  0  0  0
   -7.5595   22.4399  -33.2681 H   0  0  0  0  0  0  0  0  0  0  0  0
   -7.4415   22.7964  -31.5038 H   0  0  0  0  0  0  0  0  0  0  0  0
   -3.6360   22.1900  -31.0800 C   0  0  0  0  0  0  0  0  0  0  0  0
   -3.3300   21.1597  -31.3140 H   0  0  0  0  0  0  0  0  0  0  0  0
   -2.8100   23.0090  -30.3060 C   0  0  0  0  0  0  0  0  0  0  0  0
   -1.8406   22.6309  -29.9491 H   0  0  0  0  0  0  0  0  0  0  0  0
   -3.2130   24.3060  -29.9850 C   0  0  0  0  0  0  0  0  0  0  0  0
   -2.3400   25.1570  -29.2310 N   0  0  0  0  0  0  0  0  0  0  0  0
   -1.4460   24.8410  -28.3310 C   0  0  0  0  0  0  0  0  0  0  0  0
   -0.2330   24.4240  -28.7820 N   0  0  0  0  0  0  0  0  0  0  0  0
    0.8040   24.1690  -27.9470 C   0  0  0  0  0  0  0  0  0  0  0  0
    1.7686   23.8248  -28.3482 H   0  0  0  0  0  0  0  0  0  0  0  0
    0.6360   24.3470  -26.5780 C   0  0  0  0  0  0  0  0  0  0  0  0
    1.4811   24.1904  -25.8915 H   0  0  0  0  0  0  0  0  0  0  0  0
   -0.5770   24.7150  -26.0950 N   0  0  0  0  0  0  0  0  0  0  0  0
   -0.6930   24.7760  -25.0580 H   0  0  0  0  0  0  0  0  0  0  0  0
   -1.6460   24.9320  -26.9190 C   0  0  0  0  0  0  0  0  0  0  0  0
   -2.9800   25.0720  -26.2930 C   0  0  0  0  0  0  0  0  0  0  0  0
   -3.1060   25.7380  -25.2300 O   0  0  0  0  0  0  0  0  0  0  0  0
   -4.2020   24.5300  -26.9630 C   0  0  0  0  0  0  0  0  0  0  0  0
   -4.9264   24.2087  -26.2001 H   0  0  0  0  0  0  0  0  0  0  0  0
   -4.6534   25.3123  -27.5909 H   0  0  0  0  0  0  0  0  0  0  0  0
   -3.9251   23.6703  -27.5909 H   0  0  0  0  0  0  0  0  0  0  0  0
  1  2  1  0
  2  3  2  0
  3  4  1  0
  4  5  1  0
  5  6  1  0
  6  7  1  0
  6  8  1  0
  6  9  1  0
  9 10  1  0
  9 11  1  0
  9 12  1  0
 12 13  1  0
 13 14  1  0
 13 15  1  0
 13 16  1  0
 12 17  1  0
 17 18  1  0
 17 19  1  0
 17 20  1  0
 20 21  1  0
 20 22  1  0
  4 23  2  0
 23 24  1  0
 23 25  1  0
 25 26  1  0
 25 27  2  0
 27 28  1  0
 28 29  2  0
 29 30  1  0
 30 31  1  0
 31 32  1  0
 31 33  2  0
 33 34  1  0
 33 35  1  0
 35 36  1  0
 35 37  2  0
 37 38  1  0
 38 39  2  0
 38 40  1  0
 40 41  1  0
 40 42  1  0
 40 43  1  0
 27  2  1  0
 37 29  1  0
 20  5  1  0
M  CHG  2  30  -1  35   1
M  END
>  <UniqueID>  (4) 
4

>  <SMILES>  (4) 
CC(=O)c1[nH+]cc[n-]/c1=N/c1ccc(N2CCN(C)CC2)nc1

>  <Energy>  (4) 
75.00090579707856

>  <Genealogy>  (4) 
CC(=O)c1[nH+]cc[n-]c1=Nc1ccc(N2CCN(C)CC2)nc1 (protonated)
CC(=O)c1[nH+]cc[n-]/c1=N/c1ccc(N2CCN(C)CC2)nc1 (cis-trans isomerization)
CC(=O)c1[nH+]cc[n-]/c1=N/c1ccc(N2CCN(C)CC2)nc1 (3D coordinates assigned)
CC(=O)c1[nH+]cc[n-]/c1=N/c1ccc(N2CCN(C)CC2)nc1 (nonaromatic ring conformer: 75.00090579707856 kcal/mol)

>  <smiles>  (4) 
CC(=O)c1ncc[nH]c1=Nc1ccc(N2CCN(C)CC2)nc1

>  <score_type>  (4) 
oracle

>  <origin>  (4) 
adg

>  <m_score__min__energy>  (4) 
-8.0600000000000005

>  <m_primary>  (4) 
energy

$$$$
4:0
     RDKit          3D

 47 49  0  0  0  0  0  0  0  0999 V2000
   -2.1170   24.7790  -28.6470 C   0  0  0  0  0  0  0  0  0  0  0  0
   -3.0090   25.0820  -29.7150 O   0  0  0  0  0  0  0  0  0  0  0  0
   -4.1030   24.2840  -30.0890 C   0  0  0  0  0  0  0  0  0  0  0  0
   -4.0280   22.8770  -30.1030 C   0  0  0  0  0  0  0  0  0  0  0  0
   -5.1320   22.1120  -30.4820 C   0  0  0  0  0  0  0  0  0  0  0  0
   -6.3290   22.7340  -30.8510 C   0  0  0  0  0  0  0  0  0  0  0  0
   -7.7030   21.7540  -31.3550 S   0  0  0  0  0  0  0  0  0  0  0  0
   -8.5740   21.4930  -30.1560 O   0  0  0  0  0  0  0  0  0  0  0  0
   -8.5140   22.4950  -32.3830 O   0  0  0  0  0  0  0  0  0  0  0  0
   -7.1390   20.2410  -32.0160 N   0  0  0  0  0  0  0  0  0  0  0  0
   -8.1280   19.1690  -31.7480 C   0  0  0  0  0  0  0  0  0  0  0  0
   -7.9980   17.9680  -32.7100 C   0  0  0  0  0  0  0  0  0  0  0  0
   -6.6640   17.9280  -33.3220 N   0  0  0  0  0  0  0  0  0  0  0  0
   -5.8910   16.7110  -33.3390 C   0  0  0  0  0  0  0  0  0  0  0  0
   -4.5940   16.6810  -32.7960 C   0  0  0  0  0  0  0  0  0  0  0  0
   -3.8530   15.4950  -32.8040 C   0  0  0  0  0  0  0  0  0  0  0  0
   -4.4010   14.3290  -33.3440 C   0  0  0  0  0  0  0  0  0  0  0  0
   -5.6920   14.3460  -33.8760 C   0  0  0  0  0  0  0  0  0  0  0  0
   -6.4370   15.5300  -33.8720 C   0  0  0  0  0  0  0  0  0  0  0  0
   -6.1580   19.1340  -33.9910 C   0  0  0  0  0  0  0  0  0  0  0  0
   -6.8660   20.3880  -33.4590 C   0  0  0  0  0  0  0  0  0  0  0  0
   -6.4120   24.1320  -30.8460 C   0  0  0  0  0  0  0  0  0  0  0  0
   -5.3080   24.9120  -30.4630 C   0  0  0  0  0  0  0  0  0  0  0  0
   -5.4070   26.4110  -30.4680 C   0  0  0  0  0  0  0  0  0  0  0  0
   -2.6238   24.9511  -27.6860 H   0  0  0  0  0  0  0  0  0  0  0  0
   -1.8080   23.7255  -28.7150 H   0  0  0  0  0  0  0  0  0  0  0  0
   -1.2302   25.4263  -28.7150 H   0  0  0  0  0  0  0  0  0  0  0  0
   -3.0918   22.3776  -29.8129 H   0  0  0  0  0  0  0  0  0  0  0  0
   -5.0603   21.0144  -30.4905 H   0  0  0  0  0  0  0  0  0  0  0  0
   -6.2420   20.0060  -31.5240 H   0  0  0  0  0  0  0  0  0  0  0  0
   -7.9839   18.8096  -30.7184 H   0  0  0  0  0  0  0  0  0  0  0  0
   -9.1282   19.6016  -31.8980 H   0  0  0  0  0  0  0  0  0  0  0  0
   -8.1644   17.0371  -32.1482 H   0  0  0  0  0  0  0  0  0  0  0  0
   -8.7474   18.0747  -33.5081 H   0  0  0  0  0  0  0  0  0  0  0  0
   -4.1604   17.5946  -32.3630 H   0  0  0  0  0  0  0  0  0  0  0  0
   -2.8364   15.4802  -32.3841 H   0  0  0  0  0  0  0  0  0  0  0  0
   -3.8157   13.3977  -33.3501 H   0  0  0  0  0  0  0  0  0  0  0  0
   -6.1238   13.4269  -34.2989 H   0  0  0  0  0  0  0  0  0  0  0  0
   -7.4553   15.5371  -34.2880 H   0  0  0  0  0  0  0  0  0  0  0  0
   -5.0775   19.2234  -33.8053 H   0  0  0  0  0  0  0  0  0  0  0  0
   -6.3543   19.0483  -35.0699 H   0  0  0  0  0  0  0  0  0  0  0  0
   -6.2225   21.2654  -33.6202 H   0  0  0  0  0  0  0  0  0  0  0  0
   -7.8178   20.5193  -33.9945 H   0  0  0  0  0  0  0  0  0  0  0  0
   -7.3497   24.6236  -31.1445 H   0  0  0  0  0  0  0  0  0  0  0  0
   -5.4314   26.7803  -29.4321 H   0  0  0  0  0  0  0  0  0  0  0  0
   -4.5349   26.8343  -30.9878 H   0  0  0  0  0  0  0  0  0  0  0  0
   -6.3272   26.7160  -30.9878 H   0  0  0  0  0  0  0  0  0  0  0  0
  1  2  1  0
  2  3  1  0
  3  4  2  0
  4  5  1  0
  5  6  2  0
  6  7  1  0
  7  8  2  0
  7  9  2  0
  7 10  1  0
 10 11  1  0
 11 12  1  0
 12 13  1  0
 13 14  1  0
 14 15  2  0
 15 16  1  0
 16 17  2  0
 17 18  1  0
 18 19  2  0
 13 20  1  0
 20 21  1  0
  6 22  1  0
 22 23  2  0
 23 24  1  0
 23  3  1  0
 21 10  1  0
 19 14  1  0
  1 25  1  0
  1 26  1  0
  1 27  1  0
  4 28  1  0
  5 29  1  0
 10 30  1  0
 11 31  1  0
 11 32  1  0
 12 33  1  0
 12 34  1  0
 15 35  1  0
 16 36  1  0
 17 37  1  0
 18 38  1  0
 19 39  1  0
 20 40  1  0
 20 41  1  0
 21 42  1  0
 21 43  1  0
 22 44  1  0
 24 45  1  0
 24 46  1  0
 24 47  1  0
M  CHG  1  10   1
M  END
>  <UniqueID>  (5) 
5

>  <SMILES>  (5) 
COc1ccc(S(=O)(=O)[NH+]2CCN(c3ccccc3)CC2)cc1C

>  <Energy>  (5) 
55.365956126706116

>  <Genealogy>  (5) 
COc1ccc(S(=O)(=O)[NH+]2CCN(c3ccccc3)CC2)cc1C (protonated)
COc1ccc(S(=O)(=O)[NH+]2CCN(c3ccccc3)CC2)cc1C (3D coordinates assigned)
COc1ccc(S(=O)(=O)[NH+]2CCN(c3ccccc3)CC2)cc1C (nonaromatic ring conformer: 55.365956126706116 kcal/mol)

>  <smiles>  (5) 
COc1ccc(S(=O)(=O)N2CCN(c3ccccc3)CC2)cc1C

>  <score_type>  (5) 
oracle

>  <origin>  (5) 
adg

>  <m_score__min__energy>  (5) 
-8.3599999999999994

>  <m_primary>  (5) 
energy

$$$$
5:0
     RDKit          3D

 49 50  0  0  0  0  0  0  0  0999 V2000
   -6.8420   17.2460  -32.7540 C   0  0  0  0  0  0  0  0  0  0  0  0
   -5.5920   17.9610  -32.2170 C   0  0  0  0  0  0  0  0  0  0  0  0
   -4.8080   18.7220  -33.2320 N   0  0  0  0  0  0  0  0  0  0  0  0
   -5.0670   18.2810  -34.6290 C   0  0  0  0  0  0  0  0  0  0  0  0
   -4.2260   17.0680  -35.0450 C   0  0  0  0  0  0  0  0  0  0  0  0
   -3.3430   18.7100  -32.9700 C   0  0  0  0  0  0  0  0  0  0  0  0
   -2.8480   19.8800  -32.0980 C   0  0  0  0  0  0  0  0  0  0  0  0
   -3.9450   20.6100  -31.5510 O   0  0  0  0  0  0  0  0  0  0  0  0
   -4.6380   21.6150  -32.2380 C   0  0  0  0  0  0  0  0  0  0  0  0
   -4.4420   21.7970  -33.4720 O   0  0  0  0  0  0  0  0  0  0  0  0
   -5.6710   22.4380  -31.4900 C   0  0  0  0  0  0  0  0  0  0  0  0
   -7.0520   21.7640  -31.6190 C   0  0  0  0  0  0  0  0  0  0  0  0
   -7.2380   20.7470  -32.5850 C   0  0  0  0  0  0  0  0  0  0  0  0
   -8.4850   20.1410  -32.7620 C   0  0  0  0  0  0  0  0  0  0  0  0
   -9.5770   20.5510  -32.0000 C   0  0  0  0  0  0  0  0  0  0  0  0
   -9.4280   21.5750  -31.0670 C   0  0  0  0  0  0  0  0  0  0  0  0
   -8.1840   22.1860  -30.8830 C   0  0  0  0  0  0  0  0  0  0  0  0
   -5.7590   23.8830  -32.0090 C   0  0  0  0  0  0  0  0  0  0  0  0
   -6.2160   24.7140  -30.8210 C   0  0  0  0  0  0  0  0  0  0  0  0
   -5.6810   24.0080  -29.5800 C   0  0  0  0  0  0  0  0  0  0  0  0
   -5.1880   22.6320  -30.0340 C   0  0  0  0  0  0  0  0  0  0  0  0
   -7.4548   16.8955  -31.9104 H   0  0  0  0  0  0  0  0  0  0  0  0
   -7.4289   17.9450  -33.3680 H   0  0  0  0  0  0  0  0  0  0  0  0
   -6.5370   16.3858  -33.3680 H   0  0  0  0  0  0  0  0  0  0  0  0
   -5.9130   18.6666  -31.4365 H   0  0  0  0  0  0  0  0  0  0  0  0
   -4.9238   17.1693  -31.8474 H   0  0  0  0  0  0  0  0  0  0  0  0
   -5.1280   19.7170  -33.1800 H   0  0  0  0  0  0  0  0  0  0  0  0
   -6.1309   18.0169  -34.7208 H   0  0  0  0  0  0  0  0  0  0  0  0
   -4.7896   19.1140  -35.2916 H   0  0  0  0  0  0  0  0  0  0  0  0
   -3.8646   16.5468  -34.1463 H   0  0  0  0  0  0  0  0  0  0  0  0
   -4.8432   16.3818  -35.6436 H   0  0  0  0  0  0  0  0  0  0  0  0
   -3.3670   17.4053  -35.6436 H   0  0  0  0  0  0  0  0  0  0  0  0
   -3.0915   17.7687  -32.4594 H   0  0  0  0  0  0  0  0  0  0  0  0
   -2.8463   18.8110  -33.9463 H   0  0  0  0  0  0  0  0  0  0  0  0
   -2.2353   19.4817  -31.2758 H   0  0  0  0  0  0  0  0  0  0  0  0
   -2.2541   20.5592  -32.7273 H   0  0  0  0  0  0  0  0  0  0  0  0
   -6.3880   20.4284  -33.2063 H   0  0  0  0  0  0  0  0  0  0  0  0
   -8.6045   19.3384  -33.5047 H   0  0  0  0  0  0  0  0  0  0  0  0
  -10.5555   20.0669  -32.1348 H   0  0  0  0  0  0  0  0  0  0  0  0
  -10.2930   21.9042  -30.4725 H   0  0  0  0  0  0  0  0  0  0  0  0
   -8.0842   23.0057  -30.1563 H   0  0  0  0  0  0  0  0  0  0  0  0
   -4.7750   24.2254  -32.3619 H   0  0  0  0  0  0  0  0  0  0  0  0
   -6.4521   23.9700  -32.8587 H   0  0  0  0  0  0  0  0  0  0  0  0
   -5.8059   25.7326  -30.8873 H   0  0  0  0  0  0  0  0  0  0  0  0
   -7.3119   24.8036  -30.7912 H   0  0  0  0  0  0  0  0  0  0  0  0
   -4.8506   24.5835  -29.1450 H   0  0  0  0  0  0  0  0  0  0  0  0
   -6.4619   23.9142  -28.8110 H   0  0  0  0  0  0  0  0  0  0  0  0
   -4.0896   22.5911  -29.9915 H   0  0  0  0  0  0  0  0  0  0  0  0
   -5.5802   21.8387  -29.3807 H   0  0  0  0  0  0  0  0  0  0  0  0
  1  2  1  0
  2  3  1  0
  3  4  1  0
  4  5  1  0
  3  6  1  0
  6  7  1  0
  7  8  1  0
  8  9  1  0
  9 10  2  0
  9 11  1  0
 11 12  1  0
 12 13  2  0
 13 14  1  0
 14 15  2  0
 15 16  1  0
 16 17  2  0
 11 18  1  0
 18 19  1  0
 19 20  1  0
 20 21  1  0
 21 11  1  0
 17 12  1  0
  1 22  1  0
  1 23  1  0
  1 24  1  0
  2 25  1  0
  2 26  1  0
  3 27  1  0
  4 28  1  0
  4 29  1  0
  5 30  1  0
  5 31  1  0
  5 32  1  0
  6 33  1  0
  6 34  1  0
  7 35  1  0
  7 36  1  0
 13 37  1  0
 14 38  1  0
 15 39  1  0
 16 40  1  0
 17 41  1  0
 18 42  1  0
 18 43  1  0
 19 44  1  0
 19 45  1  0
 20 46  1  0
 20 47  1  0
 21 48  1  0
 21 49  1  0
M  CHG  1   3   1
M  END
>  <UniqueID>  (6) 
6

>  <SMILES>  (6) 
CC[NH+](CC)CCOC(=O)C1(c2ccccc2)CCCC1

>  <Energy>  (6) 
58.168674618523674

>  <Genealogy>  (6) 
CC[NH+](CC)CCOC(=O)C1(c2ccccc2)CCCC1 (protonated)
CC[NH+](CC)CCOC(=O)C1(c2ccccc2)CCCC1 (3D coordinates assigned)
CC[NH+](CC)CCOC(=O)C1(c2ccccc2)CCCC1 (nonaromatic ring conformer: 58.168674618523674 kcal/mol)

>  <smiles>  (6) 
CCN(CC)CCOC(=O)C1(c2ccccc2)CCCC1

>  <score_type>  (6) 
oracle

>  <origin>  (6) 
adg

>  <m_score__min__energy>  (6) 
-5.7999999999999998

>  <m_primary>  (6) 
energy

$$$$
6:0
     RDKit          3D

 42 44  0  0  0  0  0  0  0  0999 V2000
   -1.8010   24.8990  -28.1360 C   0  0  0  0  0  0  0  0  0  0  0  0
   -2.4620   25.2540  -29.3470 O   0  0  0  0  0  0  0  0  0  0  0  0
   -3.6460   24.6580  -29.8070 C   0  0  0  0  0  0  0  0  0  0  0  0
   -4.6560   25.3900  -30.4580 C   0  0  0  0  0  0  0  0  0  0  0  0
   -5.8180   24.7510  -30.9000 C   0  0  0  0  0  0  0  0  0  0  0  0
   -5.9960   23.3710  -30.7000 C   0  0  0  0  0  0  0  0  0  0  0  0
   -7.2270   22.6900  -31.1710 C   0  0  0  0  0  0  0  0  0  0  0  0
   -7.4740   21.3270  -31.1540 C   0  0  0  0  0  0  0  0  0  0  0  0
   -8.7290   21.2100  -31.7200 C   0  0  0  0  0  0  0  0  0  0  0  0
   -9.4780   19.9370  -31.9650 C   0  0  0  0  0  0  0  0  0  0  0  0
   -8.8660   19.1910  -33.0650 N   0  0  0  0  0  0  0  0  0  0  0  0
   -7.5010   18.7250  -33.0760 C   0  0  0  0  0  0  0  0  0  0  0  0
   -7.2290   17.3980  -32.7110 C   0  0  0  0  0  0  0  0  0  0  0  0
   -5.9210   16.9110  -32.7290 C   0  0  0  0  0  0  0  0  0  0  0  0
   -4.8680   17.7440  -33.1140 C   0  0  0  0  0  0  0  0  0  0  0  0
   -5.1120   19.0710  -33.4790 C   0  0  0  0  0  0  0  0  0  0  0  0
   -4.0230   19.8650  -33.8700 O   0  0  0  0  0  0  0  0  0  0  0  0
   -3.5640   21.0090  -33.1570 C   0  0  0  0  0  0  0  0  0  0  0  0
   -6.4310   19.5630  -33.4480 C   0  0  0  0  0  0  0  0  0  0  0  0
   -9.1720   22.4040  -32.0330 O   0  0  0  0  0  0  0  0  0  0  0  0
   -8.2970   23.3090  -31.7130 N   0  0  0  0  0  0  0  0  0  0  0  0
   -4.9830   22.6450  -30.0470 C   0  0  0  0  0  0  0  0  0  0  0  0
   -3.8220   23.2860  -29.6080 C   0  0  0  0  0  0  0  0  0  0  0  0
   -2.4075   25.2248  -27.2781 H   0  0  0  0  0  0  0  0  0  0  0  0
   -1.6675   23.8078  -28.0974 H   0  0  0  0  0  0  0  0  0  0  0  0
   -0.8176   25.3903  -28.0974 H   0  0  0  0  0  0  0  0  0  0  0  0
   -4.5305   26.4708  -30.6200 H   0  0  0  0  0  0  0  0  0  0  0  0
   -6.6002   25.3333  -31.4089 H   0  0  0  0  0  0  0  0  0  0  0  0
   -6.8226   20.5246  -30.7775 H   0  0  0  0  0  0  0  0  0  0  0  0
   -9.4563   19.3220  -31.0532 H   0  0  0  0  0  0  0  0  0  0  0  0
  -10.5173   20.1792  -32.2317 H   0  0  0  0  0  0  0  0  0  0  0  0
   -9.4590   19.0160  -33.9080 H   0  0  0  0  0  0  0  0  0  0  0  0
   -8.0534   16.7358  -32.4081 H   0  0  0  0  0  0  0  0  0  0  0  0
   -5.7191   15.8692  -32.4394 H   0  0  0  0  0  0  0  0  0  0  0  0
   -3.8399   17.3531  -33.1301 H   0  0  0  0  0  0  0  0  0  0  0  0
   -3.6392   20.8216  -32.0757 H   0  0  0  0  0  0  0  0  0  0  0  0
   -2.5156   21.2101  -33.4223 H   0  0  0  0  0  0  0  0  0  0  0  0
   -4.1827   21.8790  -33.4223 H   0  0  0  0  0  0  0  0  0  0  0  0
   -6.6279   20.6113  -33.7167 H   0  0  0  0  0  0  0  0  0  0  0  0
   -8.4190   24.3310  -31.8890 H   0  0  0  0  0  0  0  0  0  0  0  0
   -5.1061   21.5646  -29.8809 H   0  0  0  0  0  0  0  0  0  0  0  0
   -3.0381   22.7047  -29.1004 H   0  0  0  0  0  0  0  0  0  0  0  0
  1  2  1  0
  2  3  1  0
  3  4  2  0
  4  5  1  0
  5  6  2  0
  6  7  1  0
  7  8  1  0
  8  9  2  0
  9 10  1  0
 10 11  1  0
 11 12  1  0
 12 13  2  0
 13 14  1  0
 14 15  2  0
 15 16  1  0
 16 17  1  0
 17 18  1  0
 16 19  2  0
  9 20  1  0
 20 21  1  0
  6 22  1  0
 22 23  2  0
 23  3  1  0
 21  7  2  0
 19 12  1  0
  1 24  1  0
  1 25  1  0
  1 26  1  0
  4 27  1  0
  5 28  1  0
  8 29  1  0
 10 30  1  0
 10 31  1  0
 11 32  1  0
 13 33  1  0
 14 34  1  0
 15 35  1  0
 18 36  1  0
 18 37  1  0
 18 38  1  0
 19 39  1  0
 21 40  1  0
 22 41  1  0
 23 42  1  0
M  CHG  1  21   1
M  END
>  <UniqueID>  (7) 
7

>  <SMILES>  (7) 
COc1ccc(-c2cc(CNc3cccc(OC)c3)o[nH+]2)cc1

>  <Energy>  (7) 
73.86897482597018

>  <Genealogy>  (7) 
COc1ccc(-c2cc(CNc3cccc(OC)c3)o[nH+]2)cc1 (protonated)
COc1ccc(-c2cc(CNc3cccc(OC)c3)o[nH+]2)cc1 (3D coordinates assigned)
COc1ccc(-c2cc(CNc3cccc(OC)c3)o[nH+]2)cc1 (optimized conformer: 73.86897482597018 kcal/mol)

>  <smiles>  (7) 
COc1ccc(-c2cc(CNc3cccc(OC)c3)on2)cc1

>  <score_type>  (7) 
oracle

>  <origin>  (7) 
adg

>  <m_score__min__energy>  (7) 
-7.7400000000000002

>  <m_primary>  (7) 
energy

$$$$
7:0
     RDKit          3D

 44 47  0  0  0  0  0  0  0  0999 V2000
   -0.9200   20.9470  -32.0080 C   0  0  0  0  0  0  0  0  0  0  0  0
   -2.6830   20.8710  -32.2170 S   0  0  0  0  0  0  0  0  0  0  0  0
   -3.1610   21.9160  -33.4440 O   0  0  0  0  0  0  0  0  0  0  0  0
   -3.5130   21.2730  -30.6920 C   0  0  0  0  0  0  0  0  0  0  0  0
   -4.7060   22.1560  -30.9670 C   0  0  0  0  0  0  0  0  0  0  0  0
   -5.6000   21.7680  -31.9830 C   0  0  0  0  0  0  0  0  0  0  0  0
   -6.6780   22.5830  -32.3340 C   0  0  0  0  0  0  0  0  0  0  0  0
   -6.8710   23.8020  -31.6860 C   0  0  0  0  0  0  0  0  0  0  0  0
   -5.9920   24.2090  -30.6840 C   0  0  0  0  0  0  0  0  0  0  0  0
   -4.9090   23.3970  -30.3090 C   0  0  0  0  0  0  0  0  0  0  0  0
   -4.0150   23.8770  -29.2340 C   0  0  0  0  0  0  0  0  0  0  0  0
   -4.5070   24.0790  -27.9380 C   0  0  0  0  0  0  0  0  0  0  0  0
   -3.6640   24.5500  -26.9290 C   0  0  0  0  0  0  0  0  0  0  0  0
   -2.3140   24.8320  -27.1990 C   0  0  0  0  0  0  0  0  0  0  0  0
   -1.4420   25.3250  -26.1080 C   0  0  0  0  0  0  0  0  0  0  0  0
   -0.9040   24.4390  -25.1290 C   0  0  0  0  0  0  0  0  0  0  0  0
   -0.1150   24.9240  -24.1230 N   0  0  0  0  0  0  0  0  0  0  0  0
    0.1290   26.2560  -24.0810 C   0  0  0  0  0  0  0  0  0  0  0  0
    0.8640   26.9170  -23.1740 N   0  0  0  0  0  0  0  0  0  0  0  0
    0.7980   28.2210  -23.5450 C   0  0  0  0  0  0  0  0  0  0  0  0
    0.0160   28.3790  -24.6910 C   0  0  0  0  0  0  0  0  0  0  0  0
   -0.3920   27.1040  -25.0030 C   0  0  0  0  0  0  0  0  0  0  0  0
   -1.1780   26.6670  -26.0140 N   0  0  0  0  0  0  0  0  0  0  0  0
   -1.8320   24.6670  -28.5140 C   0  0  0  0  0  0  0  0  0  0  0  0
   -0.5580   25.0040  -28.8390 F   0  0  0  0  0  0  0  0  0  0  0  0
   -2.6800   24.1970  -29.5200 C   0  0  0  0  0  0  0  0  0  0  0  0
   -0.6781   20.9574  -30.9350 H   0  0  0  0  0  0  0  0  0  0  0  0
   -0.4566   20.0680  -32.4798 H   0  0  0  0  0  0  0  0  0  0  0  0
   -0.5340   21.8626  -32.4798 H   0  0  0  0  0  0  0  0  0  0  0  0
   -2.7180   21.5690  -34.2600 H   0  0  0  0  0  0  0  0  0  0  0  0
   -3.8511   20.3456  -30.2066 H   0  0  0  0  0  0  0  0  0  0  0  0
   -2.8140   21.8079  -30.0322 H   0  0  0  0  0  0  0  0  0  0  0  0
   -5.4476   20.8124  -32.5060 H   0  0  0  0  0  0  0  0  0  0  0  0
   -7.3753   22.2630  -33.1223 H   0  0  0  0  0  0  0  0  0  0  0  0
   -7.7190   24.4442  -31.9662 H   0  0  0  0  0  0  0  0  0  0  0  0
   -6.1478   25.1753  -30.1821 H   0  0  0  0  0  0  0  0  0  0  0  0
   -5.5626   23.8656  -27.7139 H   0  0  0  0  0  0  0  0  0  0  0  0
   -4.0602   24.7016  -25.9141 H   0  0  0  0  0  0  0  0  0  0  0  0
   -1.1242   23.3626  -25.1831 H   0  0  0  0  0  0  0  0  0  0  0  0
    0.2810   24.2840  -23.3990 H   0  0  0  0  0  0  0  0  0  0  0  0
    1.3740   26.5170  -22.3560 H   0  0  0  0  0  0  0  0  0  0  0  0
    1.2953   29.0452  -23.0127 H   0  0  0  0  0  0  0  0  0  0  0  0
   -0.2200   29.3122  -25.2234 H   0  0  0  0  0  0  0  0  0  0  0  0
   -2.2975   24.0770  -30.5443 H   0  0  0  0  0  0  0  0  0  0  0  0
  1  2  1  0
  2  3  1  6
  2  4  1  0
  4  5  1  0
  5  6  2  0
  6  7  1  0
  7  8  2  0
  8  9  1  0
  9 10  2  0
 10 11  1  0
 11 12  2  0
 12 13  1  0
 13 14  2  0
 14 15  1  0
 15 16  2  0
 16 17  1  0
 17 18  2  0
 18 19  1  0
 19 20  1  0
 20 21  2  0
 21 22  1  0
 22 23  2  0
 14 24  1  0
 24 25  1  0
 24 26  2  0
 10  5  1  0
 26 11  1  0
 23 15  1  0
 22 18  1  0
  1 27  1  0
  1 28  1  0
  1 29  1  0
  3 30  1  0
  4 31  1  0
  4 32  1  0
  6 33  1  0
  7 34  1  0
  8 35  1  0
  9 36  1  0
 12 37  1  0
 13 38  1  0
 16 39  1  0
 17 40  1  0
 19 41  1  0
 20 42  1  0
 21 43  1  0
 26 44  1  0
M  CHG  2   2   1  17   1
M  END
>  <UniqueID>  (8) 
8

>  <SMILES>  (8) 
C[S@+](O)Cc1ccccc1-c1ccc(-c2c[nH+]c3[nH]ccc3n2)c(F)c1

>  <Energy>  (8) 
91.15670294671622

>  <Genealogy>  (8) 
C[S+](O)Cc1ccccc1-c1ccc(-c2c[nH+]c3[nH]ccc3n2)c(F)c1 (protonated)
C[S@+](O)Cc1ccccc1-c1ccc(-c2c[nH+]c3[nH]ccc3n2)c(F)c1 (chirality)
C[S@+](O)Cc1ccccc1-c1ccc(-c2c[nH+]c3[nH]ccc3n2)c(F)c1 (3D coordinates assigned)
C[S@+](O)Cc1ccccc1-c1ccc(-c2c[nH+]c3[nH]ccc3n2)c(F)c1 (optimized conformer: 91.15670294671622 kcal/mol)

>  <smiles>  (8) 
C[S+]([O-])Cc1ccccc1-c1ccc(-c2cnc3[nH]ccc3n2)c(F)c1

>  <score_type>  (8) 
oracle

>  <origin>  (8) 
adg

>  <m_score__min__energy>  (8) 
-8.8100000000000005

>  <m_primary>  (8) 
energy

$$$$
8:0
     RDKit          3D

 55 57  0  0  0  0  0  0  0  0999 V2000
   -2.7060   19.6940  -26.7570 C   0  0  0  0  0  0  0  0  0  0  0  0
   -2.6210   20.2390  -28.1800 C   0  0  0  0  0  0  0  0  0  0  0  0
   -2.4290   21.7060  -28.1740 N   0  0  0  0  0  0  0  0  0  0  0  0
   -1.0790   22.2130  -27.8240 C   0  0  0  0  0  0  0  0  0  0  0  0
   -0.8660   22.5030  -26.3310 C   0  0  0  0  0  0  0  0  0  0  0  0
   -3.5630   22.4820  -27.6210 C   0  0  0  0  0  0  0  0  0  0  0  0
   -3.6510   23.9320  -28.1260 C   0  0  0  0  0  0  0  0  0  0  0  0
   -3.2760   24.0420  -29.4980 O   0  0  0  0  0  0  0  0  0  0  0  0
   -4.1530   24.4470  -30.5120 C   0  0  0  0  0  0  0  0  0  0  0  0
   -4.2370   25.6690  -30.8190 O   0  0  0  0  0  0  0  0  0  0  0  0
   -4.9760   23.4230  -31.2820 C   0  0  2  0  0  0  0  0  0  0  0  0
   -6.2260   24.0310  -31.9430 C   0  0  0  0  0  0  0  0  0  0  0  0
   -7.3250   23.8030  -31.1010 O   0  0  0  0  0  0  0  0  0  0  0  0
   -7.0720   22.5750  -30.4660 C   0  0  0  0  0  0  0  0  0  0  0  0
   -5.5580   22.3880  -30.3490 C   0  0  1  0  0  0  0  0  0  0  0  0
   -5.0550   21.0310  -30.8500 C   0  0  0  0  0  0  0  0  0  0  0  0
   -4.4770   21.2100  -32.1920 N   0  0  0  0  0  0  0  0  0  0  0  0
   -5.4100   20.7990  -33.2630 C   0  0  0  0  0  0  0  0  0  0  0  0
   -6.4800   19.8970  -32.7070 C   0  0  0  0  0  0  0  0  0  0  0  0
   -7.8020   20.3500  -32.6010 C   0  0  0  0  0  0  0  0  0  0  0  0
   -8.7910   19.5060  -32.0960 C   0  0  0  0  0  0  0  0  0  0  0  0
   -8.4480   18.2120  -31.7000 C   0  0  0  0  0  0  0  0  0  0  0  0
   -7.1630   17.7810  -31.8090 N   0  0  0  0  0  0  0  0  0  0  0  0
   -6.1820   18.5880  -32.2990 C   0  0  0  0  0  0  0  0  0  0  0  0
   -4.1150   22.6330  -32.2880 C   0  0  0  0  0  0  0  0  0  0  0  0
   -2.5774   20.5185  -26.0403 H   0  0  0  0  0  0  0  0  0  0  0  0
   -3.6883   19.2237  -26.6025 H   0  0  0  0  0  0  0  0  0  0  0  0
   -1.9135   18.9469  -26.6025 H   0  0  0  0  0  0  0  0  0  0  0  0
   -1.7720   19.7670  -28.6961 H   0  0  0  0  0  0  0  0  0  0  0  0
   -3.5628   20.0104  -28.7003 H   0  0  0  0  0  0  0  0  0  0  0  0
   -0.3397   21.4602  -28.1350 H   0  0  0  0  0  0  0  0  0  0  0  0
   -0.9653   23.1750  -28.3452 H   0  0  0  0  0  0  0  0  0  0  0  0
   -1.4120   21.7596  -25.7316 H   0  0  0  0  0  0  0  0  0  0  0  0
    0.2071   22.4469  -26.0960 H   0  0  0  0  0  0  0  0  0  0  0  0
   -1.2406   23.5102  -26.0960 H   0  0  0  0  0  0  0  0  0  0  0  0
   -4.4963   21.9667  -27.8920 H   0  0  0  0  0  0  0  0  0  0  0  0
   -3.4024   22.5388  -26.5343 H   0  0  0  0  0  0  0  0  0  0  0  0
   -4.6860   24.2863  -28.0109 H   0  0  0  0  0  0  0  0  0  0  0  0
   -2.9542   24.5422  -27.5326 H   0  0  0  0  0  0  0  0  0  0  0  0
   -6.0834   25.1126  -32.0837 H   0  0  0  0  0  0  0  0  0  0  0  0
   -6.3987   23.5671  -32.9253 H   0  0  0  0  0  0  0  0  0  0  0  0
   -7.5237   22.5766  -29.4630 H   0  0  0  0  0  0  0  0  0  0  0  0
   -7.5078   21.7524  -31.0520 H   0  0  0  0  0  0  0  0  0  0  0  0
   -5.2721   22.4694  -29.2899 H   0  0  0  0  0  0  0  0  0  0  0  0
   -4.2867   20.6445  -30.1642 H   0  0  0  0  0  0  0  0  0  0  0  0
   -5.8882   20.3140  -30.8925 H   0  0  0  0  0  0  0  0  0  0  0  0
   -5.8796   21.6935  -33.6981 H   0  0  0  0  0  0  0  0  0  0  0  0
   -4.8489   20.2538  -34.0363 H   0  0  0  0  0  0  0  0  0  0  0  0
   -8.0598   21.3718  -32.9163 H   0  0  0  0  0  0  0  0  0  0  0  0
   -9.8302   19.8563  -32.0107 H   0  0  0  0  0  0  0  0  0  0  0  0
   -9.2198   17.5389  -31.2985 H   0  0  0  0  0  0  0  0  0  0  0  0
   -6.9230   16.8090  -31.5100 H   0  0  0  0  0  0  0  0  0  0  0  0
   -5.1511   18.2121  -32.3754 H   0  0  0  0  0  0  0  0  0  0  0  0
   -3.0495   22.7624  -32.0471 H   0  0  0  0  0  0  0  0  0  0  0  0
   -4.2940   23.0005  -33.3092 H   0  0  0  0  0  0  0  0  0  0  0  0
  1  2  1  0
  2  3  1  0
  3  4  1  0
  4  5  1  0
  3  6  1  0
  6  7  1  0
  7  8  1  0
  8  9  1  0
  9 10  2  0
 11  9  1  1
 11 12  1  0
 12 13  1  0
 13 14  1  0
 14 15  1  0
 15 16  1  0
 16 17  1  0
 17 18  1  0
 18 19  1  0
 19 20  2  0
 20 21  1  0
 21 22  2  0
 22 23  1  0
 23 24  2  0
 17 25  1  0
 15 11  1  0
 24 19  1  0
 25 11  1  0
  1 26  1  0
  1 27  1  0
  1 28  1  0
  2 29  1  0
  2 30  1  0
  4 31  1  0
  4 32  1  0
  5 33  1  0
  5 34  1  0
  5 35  1  0
  6 36  1  0
  6 37  1  0
  7 38  1  0
  7 39  1  0
 12 40  1  0
 12 41  1  0
 14 42  1  0
 14 43  1  0
 15 44  1  1
 16 45  1  0
 16 46  1  0
 18 47  1  0
 18 48  1  0
 20 49  1  0
 21 50  1  0
 22 51  1  0
 23 52  1  0
 24 53  1  0
 25 54  1  0
 25 55  1  0
M  CHG  1  23   1
M  END
>  <UniqueID>  (9) 
9

>  <SMILES>  (9) 
CCN(CC)CCOC(=O)[C@]12COC[C@H]1CN(Cc1ccc[nH+]c1)C2

>  <Energy>  (9) 
66.24953941799927

>  <Genealogy>  (9) 
CCN(CC)CCOC(=O)C12COCC1CN(Cc1ccc[nH+]c1)C2 (protonated)
CCN(CC)CCOC(=O)[C@]12COC[C@H]1CN(Cc1ccc[nH+]c1)C2 (chirality)
CCN(CC)CCOC(=O)[C@]12COC[C@H]1CN(Cc1ccc[nH+]c1)C2 (3D coordinates assigned)
CCN(CC)CCOC(=O)[C@]12COC[C@H]1CN(Cc1ccc[nH+]c1)C2 (nonaromatic ring conformer: 66.24953941799927 kcal/mol)

>  <smiles>  (9) 
CCN(CC)CCOC(=O)C12COCC1CN(Cc1cccnc1)C2

>  <score_type>  (9) 
oracle

>  <origin>  (9) 
adg

>  <m_score__min__energy>  (9) 
-8.1099999999999994

>  <m_primary>  (9) 
energy

$$$$
9:0
     RDKit          3D

 30 31  0  0  0  0  0  0  0  0999 V2000
   -0.1710   24.5360  -28.2540 C   0  0  0  0  0  0  0  0  0  0  0  0
   -1.4360   24.9140  -27.6140 N   0  0  0  0  0  0  0  0  0  0  0  0
   -1.4100   25.6660  -26.3540 C   0  0  0  0  0  0  0  0  0  0  0  0
   -2.7220   24.5380  -28.1650 C   0  0  0  0  0  0  0  0  0  0  0  0
   -3.7610   24.7080  -27.4680 O   0  0  0  0  0  0  0  0  0  0  0  0
   -2.9060   23.9950  -29.5640 C   0  0  1  0  0  0  0  0  0  0  0  0
   -3.8390   22.7750  -29.6360 C   0  0  0  0  0  0  0  0  0  0  0  0
   -4.8270   23.2090  -30.6760 C   0  0  0  0  0  0  0  0  0  0  0  0
   -5.9530   22.3880  -31.1790 C   0  0  0  0  0  0  0  0  0  0  0  0
   -5.7220   21.3150  -32.0600 C   0  0  0  0  0  0  0  0  0  0  0  0
   -6.7880   20.5420  -32.5310 C   0  0  0  0  0  0  0  0  0  0  0  0
   -8.0950   20.8290  -32.1280 C   0  0  0  0  0  0  0  0  0  0  0  0
   -9.4300   19.8560  -32.7190 Cl  0  0  0  0  0  0  0  0  0  0  0  0
   -8.3370   21.8920  -31.2530 C   0  0  0  0  0  0  0  0  0  0  0  0
   -7.2750   22.6680  -30.7800 C   0  0  0  0  0  0  0  0  0  0  0  0
   -4.6090   24.4150  -31.0780 N   0  0  0  0  0  0  0  0  0  0  0  0
   -3.5170   24.9330  -30.4320 O   0  0  0  0  0  0  0  0  0  0  0  0
    0.5786   24.3120  -27.4807 H   0  0  0  0  0  0  0  0  0  0  0  0
   -0.3287   23.6457  -28.8806 H   0  0  0  0  0  0  0  0  0  0  0  0
    0.1856   25.3668  -28.8806 H   0  0  0  0  0  0  0  0  0  0  0  0
   -1.4343   24.9640  -25.5075 H   0  0  0  0  0  0  0  0  0  0  0  0
   -0.4905   26.2678  -26.3051 H   0  0  0  0  0  0  0  0  0  0  0  0
   -2.2857   26.3299  -26.3051 H   0  0  0  0  0  0  0  0  0  0  0  0
   -1.8784   23.7395  -29.8620 H   0  0  0  0  0  0  0  0  0  0  0  0
   -3.2952   21.8724  -29.9515 H   0  0  0  0  0  0  0  0  0  0  0  0
   -4.2950   22.5041  -28.6723 H   0  0  0  0  0  0  0  0  0  0  0  0
   -4.6956   21.0827  -32.3804 H   0  0  0  0  0  0  0  0  0  0  0  0
   -6.5973   19.7062  -33.2202 H   0  0  0  0  0  0  0  0  0  0  0  0
   -9.3657   22.1183  -30.9359 H   0  0  0  0  0  0  0  0  0  0  0  0
   -7.4726   23.5029  -30.0916 H   0  0  0  0  0  0  0  0  0  0  0  0
  1  2  1  0
  2  3  1  0
  2  4  1  0
  4  5  2  0
  4  6  1  0
  6  7  1  0
  7  8  1  0
  8  9  1  0
  9 10  2  0
 10 11  1  0
 11 12  2  0
 12 13  1  0
 12 14  1  0
 14 15  2  0
  8 16  2  0
 16 17  1  0
 17  6  1  0
 15  9  1  0
  1 18  1  0
  1 19  1  0
  1 20  1  0
  3 21  1  0
  3 22  1  0
  3 23  1  0
  6 24  1  6
  7 25  1  0
  7 26  1  0
 10 27  1  0
 11 28  1  0
 14 29  1  0
 15 30  1  0
M  END
>  <UniqueID>  (10) 
10

>  <SMILES>  (10) 
CN(C)C(=O)[C@H]1CC(c2ccc(Cl)cc2)=NO1

>  <Energy>  (10) 
42.63628896139306

>  <Genealogy>  (10) 
CN(C)C(=O)[C@H]1CC(c2ccc(Cl)cc2)=NO1 (chirality)
CN(C)C(=O)[C@H]1CC(c2ccc(Cl)cc2)=NO1 (3D coordinates assigned)
CN(C)C(=O)[C@H]1CC(c2ccc(Cl)cc2)=NO1 (nonaromatic ring conformer: 42.63628896139306 kcal/mol)

>  <smiles>  (10) 
CN(C)C(=O)C1CC(c2ccc(Cl)cc2)=NO1

>  <score_type>  (10) 
oracle

>  <origin>  (10) 
adg

>  <m_score__min__energy>  (10) 
-7.5499999999999998

>  <m_primary>  (10) 
energy

$$$$
10:0
     RDKit          3D

 53 56  0  0  0  0  0  0  0  0999 V2000
   -0.6070   26.3140  -23.7160 C   0  0  0  0  0  0  0  0  0  0  0  0
   -1.6070   26.4300  -24.8650 C   0  0  0  0  0  0  0  0  0  0  0  0
   -1.5810   25.2250  -25.8210 C   0  0  0  0  0  0  0  0  0  0  0  0
   -0.8820   25.5070  -27.1620 C   0  0  0  0  0  0  0  0  0  0  0  0
   -1.3800   24.6430  -28.2340 N   0  0  0  0  0  0  0  0  0  0  0  0
   -2.4730   24.9180  -28.9430 N   0  0  0  0  0  0  0  0  0  0  0  0
   -2.6760   23.8680  -29.7590 C   0  0  0  0  0  0  0  0  0  0  0  0
   -3.6940   23.6730  -30.6820 C   0  0  0  0  0  0  0  0  0  0  0  0
   -4.5740   24.5580  -30.8620 O   0  0  0  0  0  0  0  0  0  0  0  0
   -3.7110   22.4870  -31.3810 N   0  0  0  0  0  0  0  0  0  0  0  0
   -4.7820   22.1830  -32.3360 C   0  0  0  0  0  0  0  0  0  0  0  0
   -6.1420   22.0970  -31.6240 C   0  0  1  0  0  0  0  0  0  0  0  0
   -7.1930   23.4430  -32.1500 Cl  0  0  0  0  0  0  0  0  0  0  0  0
   -6.8160   20.7660  -31.8770 C   0  0  0  0  0  0  0  0  0  0  0  0
   -6.2200   19.8290  -32.7410 C   0  0  0  0  0  0  0  0  0  0  0  0
   -6.8610   18.6190  -33.0220 C   0  0  0  0  0  0  0  0  0  0  0  0
   -8.1040   18.3350  -32.4520 C   0  0  0  0  0  0  0  0  0  0  0  0
   -8.7120   19.2640  -31.6030 C   0  0  0  0  0  0  0  0  0  0  0  0
   -8.0750   20.4760  -31.3200 C   0  0  0  0  0  0  0  0  0  0  0  0
   -2.7750   21.5460  -31.1560 N   0  0  0  0  0  0  0  0  0  0  0  0
   -1.7680   21.7160  -30.2510 C   0  0  0  0  0  0  0  0  0  0  0  0
   -1.7320   22.9120  -29.5540 C   0  0  0  0  0  0  0  0  0  0  0  0
   -0.9090   23.4150  -28.5750 C   0  0  0  0  0  0  0  0  0  0  0  0
    0.4910   22.5640  -27.8320 S   0  0  0  0  0  0  0  0  0  0  0  0
   -0.4490   21.0720  -27.5020 C   0  0  0  0  0  0  0  0  0  0  0  0
   -0.0310   19.8420  -28.0260 C   0  0  0  0  0  0  0  0  0  0  0  0
   -0.7560   18.6790  -27.7490 C   0  0  0  0  0  0  0  0  0  0  0  0
   -1.9090   18.7440  -26.9600 C   0  0  0  0  0  0  0  0  0  0  0  0
   -2.3420   19.9740  -26.4550 C   0  0  0  0  0  0  0  0  0  0  0  0
   -1.6170   21.1380  -26.7330 C   0  0  0  0  0  0  0  0  0  0  0  0
   -1.1418   26.3760  -22.7568 H   0  0  0  0  0  0  0  0  0  0  0  0
   -0.0830   25.3491  -23.7819 H   0  0  0  0  0  0  0  0  0  0  0  0
    0.1239   27.1334  -23.7819 H   0  0  0  0  0  0  0  0  0  0  0  0
   -2.6179   26.5164  -24.4401 H   0  0  0  0  0  0  0  0  0  0  0  0
   -1.3259   27.3167  -25.4521 H   0  0  0  0  0  0  0  0  0  0  0  0
   -1.0529   24.3989  -25.3224 H   0  0  0  0  0  0  0  0  0  0  0  0
   -2.6278   24.9791  -26.0526 H   0  0  0  0  0  0  0  0  0  0  0  0
   -1.0591   26.5563  -27.4407 H   0  0  0  0  0  0  0  0  0  0  0  0
    0.1916   25.3043  -27.0341 H   0  0  0  0  0  0  0  0  0  0  0  0
   -4.8229   22.9768  -33.0964 H   0  0  0  0  0  0  0  0  0  0  0  0
   -4.5689   21.2118  -32.8065 H   0  0  0  0  0  0  0  0  0  0  0  0
   -5.9675   22.1794  -30.5411 H   0  0  0  0  0  0  0  0  0  0  0  0
   -5.2441   20.0499  -33.1979 H   0  0  0  0  0  0  0  0  0  0  0  0
   -6.3854   17.8890  -33.6935 H   0  0  0  0  0  0  0  0  0  0  0  0
   -8.6044   17.3803  -32.6712 H   0  0  0  0  0  0  0  0  0  0  0  0
   -9.6926   19.0414  -31.1571 H   0  0  0  0  0  0  0  0  0  0  0  0
   -8.5612   21.2074  -30.6577 H   0  0  0  0  0  0  0  0  0  0  0  0
   -1.0140   20.9332  -30.0817 H   0  0  0  0  0  0  0  0  0  0  0  0
    0.8690   19.7910  -28.6564 H   0  0  0  0  0  0  0  0  0  0  0  0
   -0.4194   17.7124  -28.1518 H   0  0  0  0  0  0  0  0  0  0  0  0
   -2.4751   17.8277  -26.7367 H   0  0  0  0  0  0  0  0  0  0  0  0
   -3.2522   20.0265  -25.8395 H   0  0  0  0  0  0  0  0  0  0  0  0
   -1.9655   22.1071  -26.3465 H   0  0  0  0  0  0  0  0  0  0  0  0
  1  2  1  0
  2  3  1  0
  3  4  1  0
  4  5  1  0
  5  6  1  0
  6  7  2  0
  7  8  1  0
  8  9  2  0
  8 10  1  0
 10 11  1  0
 11 12  1  0
 12 13  1  0
 12 14  1  0
 14 15  2  0
 15 16  1  0
 16 17  2  0
 17 18  1  0
 18 19  2  0
 10 20  1  0
 20 21  2  0
 21 22  1  0
 22 23  2  0
 23 24  1  0
 24 25  1  0
 25 26  2  0
 26 27  1  0
 27 28  2  0
 28 29  1  0
 29 30  2  0
 23  5  1  0
 30 25  1  0
 22  7  1  0
 19 14  1  0
  1 31  1  0
  1 32  1  0
  1 33  1  0
  2 34  1  0
  2 35  1  0
  3 36  1  0
  3 37  1  0
  4 38  1  0
  4 39  1  0
 11 40  1  0
 11 41  1  0
 12 42  1  1
 15 43  1  0
 16 44  1  0
 17 45  1  0
 18 46  1  0
 19 47  1  0
 21 48  1  0
 26 49  1  0
 27 50  1  0
 28 51  1  0
 29 52  1  0
 30 53  1  0
M  END
>  <UniqueID>  (11) 
11

>  <SMILES>  (11) 
CCCCn1nc2c(=O)n(C[C@@H](Cl)c3ccccc3)ncc2c1Sc1ccccc1

>  <Energy>  (11) 
84.4843379857394

>  <Genealogy>  (11) 
CCCCn1nc2c(=O)n(C[C@@H](Cl)c3ccccc3)ncc2c1Sc1ccccc1 (chirality)
CCCCn1nc2c(=O)n(C[C@@H](Cl)c3ccccc3)ncc2c1Sc1ccccc1 (3D coordinates assigned)
CCCCn1nc2c(=O)n(C[C@@H](Cl)c3ccccc3)ncc2c1Sc1ccccc1 (optimized conformer: 84.4843379857394 kcal/mol)

>  <smiles>  (11) 
CCCCn1nc2c(=O)n(CC(Cl)c3ccccc3)ncc2c1Sc1ccccc1

>  <score_type>  (11) 
oracle

>  <origin>  (11) 
adg

>  <m_score__min__energy>  (11) 
-10.029999999999999

>  <m_primary>  (11) 
energy

$$$$
11:0
     RDKit          2D

 47 50  0  0  0  0  0  0  0  0999 V2000
    6.2476   -6.5911    0.0000 C   0  0  0  0  0  0  0  0  0  0  0  0
    5.2420   -5.4781    0.0000 C   0  0  0  0  0  0  0  0  0  0  0  0
    4.2364   -4.3650    0.0000 C   0  0  0  0  0  0  0  0  0  0  0  0
    3.2308   -3.2520    0.0000 C   0  0  0  0  0  0  0  0  0  0  0  0
    2.2253   -2.1390    0.0000 C   0  0  0  0  0  0  0  0  0  0  0  0
    1.2197   -1.0260    0.0000 C   0  0  0  0  0  0  0  0  0  0  0  0
    0.2141    0.0870    0.0000 N   0  0  0  0  0  0  0  0  0  0  0  0
   -1.2526   -0.2274    0.0000 C   0  0  0  0  0  0  0  0  0  0  0  0
   -1.6058   -1.6852    0.0000 C   0  0  0  0  0  0  0  0  0  0  0  0
   -0.4330   -0.7500    0.0000 C   0  0  0  0  0  0  0  0  0  0  0  0
   -0.4330    0.7500    0.0000 C   0  0  0  0  0  0  0  0  0  0  0  0
    0.8660    0.0000    0.0000 C   0  0  0  0  0  0  0  0  0  0  0  0
    2.3548    0.1828    0.0000 O   0  0  0  0  0  0  0  0  0  0  0  0
   -1.6058    1.6852    0.0000 C   0  0  0  0  0  0  0  0  0  0  0  0
   -3.0682    1.3515    0.0000 C   0  0  0  0  0  0  0  0  0  0  0  0
   -3.7190   -0.0000    0.0000 C   0  0  0  0  0  0  0  0  0  0  0  0
   -5.2148    0.1121    0.0000 C   0  0  0  0  0  0  0  0  0  0  0  0
   -6.0598   -1.1273    0.0000 C   0  0  0  0  0  0  0  0  0  0  0  0
   -5.4089   -2.4787    0.0000 C   0  0  0  0  0  0  0  0  0  0  0  0
   -3.9131   -2.5908    0.0000 N   0  0  0  0  0  0  0  0  0  0  0  0
   -3.2623   -3.9423    0.0000 C   0  0  0  0  0  0  0  0  0  0  0  0
   -3.0682   -1.3515    0.0000 C   0  0  0  0  0  0  0  0  0  0  0  0
   -3.6721    0.9775    0.0000 C   0  0  0  0  0  0  0  0  0  0  0  0
   -2.1722    0.9576    0.0000 C   0  0  0  0  0  0  0  0  0  0  0  0
    7.2532   -7.7041    0.0000 H   0  0  0  0  0  0  0  0  0  0  0  0
    5.1346   -7.5967    0.0000 H   0  0  0  0  0  0  0  0  0  0  0  0
    7.3606   -5.5855    0.0000 H   0  0  0  0  0  0  0  0  0  0  0  0
    4.1290   -6.4836    0.0000 H   0  0  0  0  0  0  0  0  0  0  0  0
    6.3550   -4.4725    0.0000 H   0  0  0  0  0  0  0  0  0  0  0  0
    5.3494   -3.3595    0.0000 H   0  0  0  0  0  0  0  0  0  0  0  0
    3.1234   -5.3706    0.0000 H   0  0  0  0  0  0  0  0  0  0  0  0
    2.1178   -4.2576    0.0000 H   0  0  0  0  0  0  0  0  0  0  0  0
    4.3439   -2.2464    0.0000 H   0  0  0  0  0  0  0  0  0  0  0  0
    3.3383   -1.1334    0.0000 H   0  0  0  0  0  0  0  0  0  0  0  0
    1.1122   -3.1446    0.0000 H   0  0  0  0  0  0  0  0  0  0  0  0
    0.1067   -2.0316    0.0000 H   0  0  0  0  0  0  0  0  0  0  0  0
    2.4469   -0.1636    0.0000 H   0  0  0  0  0  0  0  0  0  0  0  0
    0.6752    1.5143    0.0000 H   0  0  0  0  0  0  0  0  0  0  0  0
   -1.0962    3.0960    0.0000 H   0  0  0  0  0  0  0  0  0  0  0  0
   -3.8535    2.6295    0.0000 H   0  0  0  0  0  0  0  0  0  0  0  0
   -7.5556   -1.0152    0.0000 H   0  0  0  0  0  0  0  0  0  0  0  0
   -6.2539   -3.7181    0.0000 H   0  0  0  0  0  0  0  0  0  0  0  0
   -2.6115   -5.2937    0.0000 H   0  0  0  0  0  0  0  0  0  0  0  0
   -4.6138   -4.5931    0.0000 H   0  0  0  0  0  0  0  0  0  0  0  0
   -1.9109   -3.2914    0.0000 H   0  0  0  0  0  0  0  0  0  0  0  0
   -4.4660    2.2502    0.0000 H   0  0  0  0  0  0  0  0  0  0  0  0
   -2.0293    2.4508    0.0000 H   0  0  0  0  0  0  0  0  0  0  0  0
  1  2  1  0
  2  3  1  0
  3  4  1  0
  4  5  1  0
  5  6  1  0
  6  7  1  0
  7  8  1  0
  8  9  2  0
  9 10  1  0
 10 11  2  0
 11 12  1  0
 12 13  2  0
 11 14  1  0
 14 15  2  0
 15 16  1  0
 16 17  2  0
 17 18  1  0
 18 19  2  0
 19 20  1  0
 20 21  1  0
 20 22  2  0
 17 23  1  0
 23 24  2  0
 24  8  1  0
 22  9  1  0
 12 10  1  0
 22 16  1  0
  1 25  1  0
  1 26  1  0
  1 27  1  0
  2 28  1  0
  2 29  1  0
  3 30  1  0
  3 31  1  0
  4 32  1  0
  4 33  1  0
  5 34  1  0
  5 35  1  0
  6 36  1  0
  6 37  1  0
  7 38  1  0
 14 39  1  0
 15 40  1  0
 18 41  1  0
 19 42  1  0
 21 43  1  0
 21 44  1  0
 21 45  1  0
 23 46  1  0
 24 47  1  0
M  CHG  1  20   1
M  END
>  <smiles>  (12) 
CCCCCCNC1=C2c3c(c3=O)C=Cc3c(cc[n+](C)c32)C=C1

>  <m_score__min__energy>  (12) 
nan

>  <m_primary>  (12) 
energy

$$$$
12:0
     RDKit          3D

 48 49  0  0  0  0  0  0  0  0999 V2000
   -1.0620   23.0450  -29.9980 C   0  0  0  0  0  0  0  0  0  0  0  0
   -1.7910   22.0470  -30.8010 N   0  0  0  0  0  0  0  0  0  0  0  0
   -3.2440   22.1700  -30.5350 C   0  0  0  0  0  0  0  0  0  0  0  0
   -3.9290   20.8020  -30.5400 C   0  0  0  0  0  0  0  0  0  0  0  0
   -3.9400   20.2760  -31.8610 O   0  0  0  0  0  0  0  0  0  0  0  0
   -4.5760   20.9220  -32.9290 C   0  0  0  0  0  0  0  0  0  0  0  0
   -4.0370   21.9230  -33.4770 O   0  0  0  0  0  0  0  0  0  0  0  0
   -5.8880   20.4090  -33.4630 C   0  0  1  0  0  0  0  0  0  0  0  0
   -5.9130   18.9000  -33.4890 C   0  0  0  0  0  0  0  0  0  0  0  0
   -6.0510   18.1260  -32.3250 C   0  0  0  0  0  0  0  0  0  0  0  0
   -5.9950   16.7590  -32.5560 C   0  0  0  0  0  0  0  0  0  0  0  0
   -5.7600   16.5150  -34.2010 S   0  0  0  0  0  0  0  0  0  0  0  0
   -5.7310   18.1360  -34.6400 C   0  0  0  0  0  0  0  0  0  0  0  0
   -7.0760   20.9360  -32.7000 C   0  0  0  0  0  0  0  0  0  0  0  0
   -8.3450   20.3620  -32.6210 C   0  0  0  0  0  0  0  0  0  0  0  0
   -9.2510   21.1210  -31.8710 C   0  0  0  0  0  0  0  0  0  0  0  0
   -8.7120   22.2990  -31.3690 C   0  0  0  0  0  0  0  0  0  0  0  0
   -7.1070   22.3950  -31.8610 S   0  0  0  0  0  0  0  0  0  0  0  0
   -1.3090   20.6800  -30.4970 C   0  0  0  0  0  0  0  0  0  0  0  0
   -0.8600   19.8920  -31.7540 C   0  0  0  0  0  0  0  0  0  0  0  0
   -1.3840   20.3840  -33.0560 N   0  0  0  0  0  0  0  0  0  0  0  0
   -0.3960   21.1640  -33.8220 C   0  0  0  0  0  0  0  0  0  0  0  0
   -1.9670   19.3130  -33.8830 C   0  0  0  0  0  0  0  0  0  0  0  0
   -1.2139   22.8370  -28.9286 H   0  0  0  0  0  0  0  0  0  0  0  0
    0.0113   22.9916  -30.2331 H   0  0  0  0  0  0  0  0  0  0  0  0
   -1.4393   24.0512  -30.2331 H   0  0  0  0  0  0  0  0  0  0  0  0
   -3.3894   22.6397  -29.5510 H   0  0  0  0  0  0  0  0  0  0  0  0
   -3.6912   22.7846  -31.3302 H   0  0  0  0  0  0  0  0  0  0  0  0
   -3.3803   20.1160  -29.8779 H   0  0  0  0  0  0  0  0  0  0  0  0
   -4.9637   20.9116  -30.1831 H   0  0  0  0  0  0  0  0  0  0  0  0
   -5.9686   20.7869  -34.4929 H   0  0  0  0  0  0  0  0  0  0  0  0
   -6.1903   18.5623  -31.3249 H   0  0  0  0  0  0  0  0  0  0  0  0
   -6.0884   15.9714  -31.7937 H   0  0  0  0  0  0  0  0  0  0  0  0
   -5.5924   18.5266  -35.6589 H   0  0  0  0  0  0  0  0  0  0  0  0
   -8.6076   19.4075  -33.1006 H   0  0  0  0  0  0  0  0  0  0  0  0
  -10.2925   20.8135  -31.6955 H   0  0  0  0  0  0  0  0  0  0  0  0
   -9.2437   23.0411  -30.7553 H   0  0  0  0  0  0  0  0  0  0  0  0
   -0.4537   20.7567  -29.8096 H   0  0  0  0  0  0  0  0  0  0  0  0
   -2.1515   20.1299  -30.0526 H   0  0  0  0  0  0  0  0  0  0  0  0
    0.2385   19.9279  -31.7986 H   0  0  0  0  0  0  0  0  0  0  0  0
   -1.2739   18.8802  -31.6321 H   0  0  0  0  0  0  0  0  0  0  0  0
   -2.1680   21.0390  -32.8260 H   0  0  0  0  0  0  0  0  0  0  0  0
    0.2730   21.6922  -33.1267 H   0  0  0  0  0  0  0  0  0  0  0  0
    0.1948   20.4861  -34.4556 H   0  0  0  0  0  0  0  0  0  0  0  0
   -0.9183   21.8960  -34.4556 H   0  0  0  0  0  0  0  0  0  0  0  0
   -2.3904   18.5352  -33.2305 H   0  0  0  0  0  0  0  0  0  0  0  0
   -2.7618   19.7315  -34.5180 H   0  0  0  0  0  0  0  0  0  0  0  0
   -1.1841   18.8727  -34.5180 H   0  0  0  0  0  0  0  0  0  0  0  0
  1  2  1  0
  2  3  1  0
  3  4  1  0
  4  5  1  0
  5  6  1  0
  6  7  2  0
  6  8  1  0
  8  9  1  0
  9 10  1  0
 10 11  2  0
 11 12  1  0
 12 13  1  0
  8 14  1  0
 14 15  2  0
 15 16  1  0
 16 17  2  0
 17 18  1  0
  2 19  1  0
 19 20  1  0
 20 21  1  0
 21 22  1  0
 21 23  1  0
 13  9  2  0
 18 14  1  0
  1 24  1  0
  1 25  1  0
  1 26  1  0
  3 27  1  0
  3 28  1  0
  4 29  1  0
  4 30  1  0
  8 31  1  6
 10 32  1  0
 11 33  1  0
 13 34  1  0
 15 35  1  0
 16 36  1  0
 17 37  1  0
 19 38  1  0
 19 39  1  0
 20 40  1  0
 20 41  1  0
 21 42  1  0
 22 43  1  0
 22 44  1  0
 22 45  1  0
 23 46  1  0
 23 47  1  0
 23 48  1  0
M  CHG  1  21   1
M  END
>  <UniqueID>  (13) 
12

>  <SMILES>  (13) 
CN(CCOC(=O)[C@@H](c1ccsc1)c1cccs1)CC[NH+](C)C

>  <Energy>  (13) 
95.48447438329453

>  <Genealogy>  (13) 
CN(CCOC(=O)C(c1ccsc1)c1cccs1)CC[NH+](C)C (protonated)
CN(CCOC(=O)[C@@H](c1ccsc1)c1cccs1)CC[NH+](C)C (chirality)
CN(CCOC(=O)[C@@H](c1ccsc1)c1cccs1)CC[NH+](C)C (3D coordinates assigned)
CN(CCOC(=O)[C@@H](c1ccsc1)c1cccs1)CC[NH+](C)C (optimized conformer: 95.48447438329453 kcal/mol)

>  <smiles>  (13) 
CN(C)CCN(C)CCOC(=O)C(c1ccsc1)c1cccs1

>  <score_type>  (13) 
oracle

>  <origin>  (13) 
adg

>  <m_score__min__energy>  (13) 
-7.3099999999999996

>  <m_primary>  (13) 
energy

$$$$
13:0
     RDKit          3D

 41 43  0  0  0  0  0  0  0  0999 V2000
   -1.2320   25.8030  -27.7460 C   0  0  0  0  0  0  0  0  0  0  0  0
   -1.9300   25.6150  -28.9720 O   0  0  0  0  0  0  0  0  0  0  0  0
   -2.5140   24.4080  -29.3900 C   0  0  0  0  0  0  0  0  0  0  0  0
   -1.9720   23.1710  -28.9920 C   0  0  0  0  0  0  0  0  0  0  0  0
   -2.5430   21.9740  -29.4150 C   0  0  0  0  0  0  0  0  0  0  0  0
   -3.6680   21.9870  -30.2330 C   0  0  0  0  0  0  0  0  0  0  0  0
   -4.2450   23.2010  -30.6330 C   0  0  0  0  0  0  0  0  0  0  0  0
   -5.4750   23.1590  -31.5140 C   0  0  0  0  0  0  0  0  0  0  0  0
   -5.2310   22.3430  -32.7050 N   0  0  0  0  0  0  0  0  0  0  0  0
   -5.6500   20.9730  -32.8540 C   0  0  0  0  0  0  0  0  0  0  0  0
   -6.9320   20.5990  -32.4220 C   0  0  0  0  0  0  0  0  0  0  0  0
   -7.3790   19.2820  -32.5620 C   0  0  0  0  0  0  0  0  0  0  0  0
   -6.5420   18.3140  -33.1310 C   0  0  0  0  0  0  0  0  0  0  0  0
   -6.9690   16.9890  -33.2830 C   0  0  0  0  0  0  0  0  0  0  0  0
   -6.1130   16.0460  -33.8540 C   0  0  0  0  0  0  0  0  0  0  0  0
   -4.8380   16.4360  -34.2680 C   0  0  0  0  0  0  0  0  0  0  0  0
   -4.4300   17.7260  -34.1160 N   0  0  0  0  0  0  0  0  0  0  0  0
   -5.2450   18.6710  -33.5630 C   0  0  0  0  0  0  0  0  0  0  0  0
   -4.8050   19.9950  -33.4150 C   0  0  0  0  0  0  0  0  0  0  0  0
   -3.6650   24.4260  -30.2270 C   0  0  0  0  0  0  0  0  0  0  0  0
   -4.2650   25.6160  -30.6840 O   0  0  0  0  0  0  0  0  0  0  0  0
   -5.5970   26.0530  -30.4350 C   0  0  0  0  0  0  0  0  0  0  0  0
   -1.9148   25.6191  -26.9034 H   0  0  0  0  0  0  0  0  0  0  0  0
   -0.3873   25.1004  -27.6935 H   0  0  0  0  0  0  0  0  0  0  0  0
   -0.8544   26.8348  -27.6935 H   0  0  0  0  0  0  0  0  0  0  0  0
   -1.0869   23.1502  -28.3391 H   0  0  0  0  0  0  0  0  0  0  0  0
   -2.1035   21.0155  -29.1016 H   0  0  0  0  0  0  0  0  0  0  0  0
   -4.1089   21.0369  -30.5690 H   0  0  0  0  0  0  0  0  0  0  0  0
   -6.3117   22.7269  -30.9455 H   0  0  0  0  0  0  0  0  0  0  0  0
   -5.7179   24.1839  -31.8312 H   0  0  0  0  0  0  0  0  0  0  0  0
   -4.6630   22.7750  -33.4690 H   0  0  0  0  0  0  0  0  0  0  0  0
   -7.5932   21.3516  -31.9676 H   0  0  0  0  0  0  0  0  0  0  0  0
   -8.3890   19.0057  -32.2250 H   0  0  0  0  0  0  0  0  0  0  0  0
   -7.9757   16.6924  -32.9535 H   0  0  0  0  0  0  0  0  0  0  0  0
   -6.4406   15.0031  -33.9769 H   0  0  0  0  0  0  0  0  0  0  0  0
   -4.1595   15.6972  -34.7194 H   0  0  0  0  0  0  0  0  0  0  0  0
   -3.4680   17.9830  -34.4370 H   0  0  0  0  0  0  0  0  0  0  0  0
   -3.7912   20.2720  -33.7399 H   0  0  0  0  0  0  0  0  0  0  0  0
   -5.7677   26.1090  -29.3498 H   0  0  0  0  0  0  0  0  0  0  0  0
   -5.7462   27.0472  -30.8814 H   0  0  0  0  0  0  0  0  0  0  0  0
   -6.3062   25.3404  -30.8814 H   0  0  0  0  0  0  0  0  0  0  0  0
  1  2  1  0
  2  3  1  0
  3  4  2  0
  4  5  1  0
  5  6  2  0
  6  7  1  0
  7  8  1  0
  8  9  1  0
  9 10  1  0
 10 11  2  0
 11 12  1  0
 12 13  2  0
 13 14  1  0
 14 15  2  0
 15 16  1  0
 16 17  2  0
 17 18  1  0
 18 19  2  0
  7 20  2  0
 20 21  1  0
 21 22  1  0
 20  3  1  0
 19 10  1  0
 18 13  1  0
  1 23  1  0
  1 24  1  0
  1 25  1  0
  4 26  1  0
  5 27  1  0
  6 28  1  0
  8 29  1  0
  8 30  1  0
  9 31  1  0
 11 32  1  0
 12 33  1  0
 14 34  1  0
 15 35  1  0
 16 36  1  0
 17 37  1  0
 19 38  1  0
 22 39  1  0
 22 40  1  0
 22 41  1  0
M  CHG  1  17   1
M  END
>  <UniqueID>  (14) 
13

>  <SMILES>  (14) 
COc1cccc(CNc2ccc3ccc[nH+]c3c2)c1OC

>  <Energy>  (14) 
48.28685343377047

>  <Genealogy>  (14) 
COc1cccc(CNc2ccc3ccc[nH+]c3c2)c1OC (protonated)
COc1cccc(CNc2ccc3ccc[nH+]c3c2)c1OC (3D coordinates assigned)
COc1cccc(CNc2ccc3ccc[nH+]c3c2)c1OC (optimized conformer: 48.28685343377047 kcal/mol)

>  <smiles>  (14) 
COc1cccc(CNc2ccc3cccnc3c2)c1OC

>  <score_type>  (14) 
oracle

>  <origin>  (14) 
adg

>  <m_score__min__energy>  (14) 
-8.1699999999999999

>  <m_primary>  (14) 
energy

$$$$
14:0
     RDKit          3D

 31 31  0  0  0  0  0  0  0  0999 V2000
   -0.9070   21.4618  -26.5785 H   0  0  0  0  0  0  0  0  0  0  0  0
   -1.6500   21.1640  -27.3330 C   0  0  0  0  0  0  0  0  0  0  0  0
   -1.9570   19.8660  -27.4370 C   0  0  0  0  0  0  0  0  0  0  0  0
   -1.6376   19.3014  -28.3254 H   0  0  0  0  0  0  0  0  0  0  0  0
   -2.7290   19.1740  -26.3600 C   0  0  0  0  0  0  0  0  0  0  0  0
   -2.3620   19.5030  -25.3766 H   0  0  0  0  0  0  0  0  0  0  0  0
   -3.7960   19.4237  -26.4555 H   0  0  0  0  0  0  0  0  0  0  0  0
   -2.5971   18.0861  -26.4555 H   0  0  0  0  0  0  0  0  0  0  0  0
   -2.2540   22.2260  -28.1770 C   0  0  0  0  0  0  0  0  0  0  0  0
   -1.6710   23.4990  -28.1680 C   0  0  0  0  0  0  0  0  0  0  0  0
   -0.7836   23.6819  -27.5443 H   0  0  0  0  0  0  0  0  0  0  0  0
   -2.2000   24.5500  -28.9430 C   0  0  0  0  0  0  0  0  0  0  0  0
   -1.6020   25.8210  -28.9350 O   0  0  0  0  0  0  0  0  0  0  0  0
   -0.8580   26.3700  -27.8510 C   0  0  0  0  0  0  0  0  0  0  0  0
   -1.3014   26.0428  -26.8990 H   0  0  0  0  0  0  0  0  0  0  0  0
    0.1842   26.0228  -27.9085 H   0  0  0  0  0  0  0  0  0  0  0  0
   -0.8824   27.4682  -27.9085 H   0  0  0  0  0  0  0  0  0  0  0  0
   -3.3520   24.3140  -29.7350 C   0  0  0  0  0  0  0  0  0  0  0  0
   -3.9570   25.2940  -30.5460 O   0  0  0  0  0  0  0  0  0  0  0  0
   -5.3210   25.6990  -30.5150 C   0  0  0  0  0  0  0  0  0  0  0  0
   -5.6508   25.7969  -29.4702 H   0  0  0  0  0  0  0  0  0  0  0  0
   -5.4276   26.6676  -31.0254 H   0  0  0  0  0  0  0  0  0  0  0  0
   -5.9389   24.9456  -31.0254 H   0  0  0  0  0  0  0  0  0  0  0  0
   -3.9510   23.0440  -29.7300 C   0  0  0  0  0  0  0  0  0  0  0  0
   -5.0980   22.8510  -30.5180 O   0  0  0  0  0  0  0  0  0  0  0  0
   -5.0840   22.4830  -31.8940 C   0  0  0  0  0  0  0  0  0  0  0  0
   -5.0423   21.3872  -31.9801 H   0  0  0  0  0  0  0  0  0  0  0  0
   -5.9969   22.8547  -32.3823 H   0  0  0  0  0  0  0  0  0  0  0  0
   -4.2019   22.9230  -32.3823 H   0  0  0  0  0  0  0  0  0  0  0  0
   -3.4050   22.0100  -28.9500 C   0  0  0  0  0  0  0  0  0  0  0  0
   -3.8854   21.0204  -28.9455 H   0  0  0  0  0  0  0  0  0  0  0  0
  1  2  1  0
  2  3  2  0
  3  4  1  0
  3  5  1  0
  5  6  1  0
  5  7  1  0
  5  8  1  0
  2  9  1  0
  9 10  2  0
 10 11  1  0
 10 12  1  0
 12 13  1  0
 13 14  1  0
 14 15  1  0
 14 16  1  0
 14 17  1  0
 12 18  2  0
 18 19  1  0
 19 20  1  0
 20 21  1  0
 20 22  1  0
 20 23  1  0
 18 24  1  0
 24 25  1  0
 25 26  1  0
 26 27  1  0
 26 28  1  0
 26 29  1  0
 24 30  2  0
 30 31  1  0
 30  9  1  0
M  END
>  <UniqueID>  (15) 
14

>  <SMILES>  (15) 
C/C=C/c1cc(OC)c(OC)c(OC)c1

>  <Energy>  (15) 
29.718381549535994

>  <Genealogy>  (15) 
C/C=C/c1cc(OC)c(OC)c(OC)c1 (cis-trans isomerization)
C/C=C/c1cc(OC)c(OC)c(OC)c1 (3D coordinates assigned)
C/C=C/c1cc(OC)c(OC)c(OC)c1 (optimized conformer: 29.718381549535994 kcal/mol)

>  <smiles>  (15) 
CC=Cc1cc(OC)c(OC)c(OC)c1

>  <score_type>  (15) 
oracle

>  <origin>  (15) 
adg

>  <m_score__min__energy>  (15) 
-5.6799999999999997

>  <m_primary>  (15) 
energy

$$$$
15:0
     RDKit          3D

 58 60  0  0  0  0  0  0  0  0999 V2000
   -6.6520   25.7380  -29.3500 C   0  0  0  0  0  0  0  0  0  0  0  0
   -5.7690   24.7270  -30.0190 C   0  0  0  0  0  0  0  0  0  0  0  0
   -6.1760   24.1250  -31.2190 C   0  0  0  0  0  0  0  0  0  0  0  0
   -5.3400   23.2110  -31.8700 C   0  0  0  0  0  0  0  0  0  0  0  0
   -4.0810   22.8950  -31.3340 C   0  0  0  0  0  0  0  0  0  0  0  0
   -3.2190   21.9550  -32.0030 N   0  0  0  0  0  0  0  0  0  0  0  0
   -3.2490   21.8540  -33.4700 C   0  0  0  0  0  0  0  0  0  0  0  0
   -2.2640   20.7960  -33.9890 C   0  0  0  0  0  0  0  0  0  0  0  0
   -2.3510   19.5590  -33.1930 N   0  0  0  0  0  0  0  0  0  0  0  0
   -2.0940   18.2890  -33.8360 C   0  0  0  0  0  0  0  0  0  0  0  0
   -1.5070   18.2630  -34.9540 O   0  0  0  0  0  0  0  0  0  0  0  0
   -2.5130   16.9770  -33.2210 C   0  0  0  0  0  0  0  0  0  0  0  0
   -3.4860   16.2310  -34.1450 C   0  0  0  0  0  0  0  0  0  0  0  0
   -4.8950   16.5350  -33.8050 N   0  0  0  0  0  0  0  0  0  0  0  0
   -5.7340   15.3250  -33.8620 C   0  0  0  0  0  0  0  0  0  0  0  0
   -5.4930   17.7010  -34.5090 C   0  0  0  0  0  0  0  0  0  0  0  0
   -5.4350   19.0570  -33.7600 C   0  0  0  0  0  0  0  0  0  0  0  0
   -6.7060   19.3860  -33.0190 C   0  0  0  0  0  0  0  0  0  0  0  0
   -7.0860   20.7240  -32.8060 C   0  0  0  0  0  0  0  0  0  0  0  0
   -8.2770   21.0200  -32.1340 C   0  0  0  0  0  0  0  0  0  0  0  0
   -9.0880   19.9870  -31.6550 C   0  0  0  0  0  0  0  0  0  0  0  0
   -8.7090   18.6570  -31.8450 C   0  0  0  0  0  0  0  0  0  0  0  0
   -7.5230   18.3540  -32.5220 C   0  0  0  0  0  0  0  0  0  0  0  0
   -2.4790   19.6390  -31.7270 C   0  0  0  0  0  0  0  0  0  0  0  0
   -2.3380   21.0770  -31.2260 C   0  0  0  0  0  0  0  0  0  0  0  0
   -3.6740   23.5020  -30.1330 C   0  0  0  0  0  0  0  0  0  0  0  0
   -4.5070   24.4190  -29.4860 C   0  0  0  0  0  0  0  0  0  0  0  0
   -6.5636   25.6367  -28.2582 H   0  0  0  0  0  0  0  0  0  0  0  0
   -6.3436   26.7502  -29.6505 H   0  0  0  0  0  0  0  0  0  0  0  0
   -7.6965   25.5686  -29.6505 H   0  0  0  0  0  0  0  0  0  0  0  0
   -7.1571   24.3727  -31.6503 H   0  0  0  0  0  0  0  0  0  0  0  0
   -5.6706   22.7376  -32.8063 H   0  0  0  0  0  0  0  0  0  0  0  0
   -4.2659   21.5798  -33.7873 H   0  0  0  0  0  0  0  0  0  0  0  0
   -2.9544   22.8288  -33.8860 H   0  0  0  0  0  0  0  0  0  0  0  0
   -2.5023   20.5664  -35.0380 H   0  0  0  0  0  0  0  0  0  0  0  0
   -1.2428   21.1962  -33.9048 H   0  0  0  0  0  0  0  0  0  0  0  0
   -1.6214   16.3540  -33.0569 H   0  0  0  0  0  0  0  0  0  0  0  0
   -3.0181   17.1797  -32.2651 H   0  0  0  0  0  0  0  0  0  0  0  0
   -3.2954   16.5342  -35.1851 H   0  0  0  0  0  0  0  0  0  0  0  0
   -3.3246   15.1504  -34.0175 H   0  0  0  0  0  0  0  0  0  0  0  0
   -5.9656   14.9909  -32.8399 H   0  0  0  0  0  0  0  0  0  0  0  0
   -6.6694   15.5522  -34.3943 H   0  0  0  0  0  0  0  0  0  0  0  0
   -5.1933   14.5286  -34.3943 H   0  0  0  0  0  0  0  0  0  0  0  0
   -4.9635   17.8231  -35.4654 H   0  0  0  0  0  0  0  0  0  0  0  0
   -6.5629   17.4664  -34.6101 H   0  0  0  0  0  0  0  0  0  0  0  0
   -4.6083   19.0200  -33.0352 H   0  0  0  0  0  0  0  0  0  0  0  0
   -5.2885   19.8408  -34.5178 H   0  0  0  0  0  0  0  0  0  0  0  0
   -6.4443   21.5403  -33.1692 H   0  0  0  0  0  0  0  0  0  0  0  0
   -8.5758   22.0677  -31.9823 H   0  0  0  0  0  0  0  0  0  0  0  0
  -10.0247   20.2222  -31.1284 H   0  0  0  0  0  0  0  0  0  0  0  0
   -9.3445   17.8452  -31.4614 H   0  0  0  0  0  0  0  0  0  0  0  0
   -7.2278   17.3042  -32.6664 H   0  0  0  0  0  0  0  0  0  0  0  0
   -3.4669   19.2543  -31.4336 H   0  0  0  0  0  0  0  0  0  0  0  0
   -1.6738   19.0385  -31.2786 H   0  0  0  0  0  0  0  0  0  0  0  0
   -2.6183   21.1240  -30.1633 H   0  0  0  0  0  0  0  0  0  0  0  0
   -1.2951   21.4059  -31.3455 H   0  0  0  0  0  0  0  0  0  0  0  0
   -2.6939   23.2537  -29.6998 H   0  0  0  0  0  0  0  0  0  0  0  0
   -4.1727   24.9013  -28.5556 H   0  0  0  0  0  0  0  0  0  0  0  0
  1  2  1  0
  2  3  2  0
  3  4  1  0
  4  5  2  0
  5  6  1  0
  6  7  1  0
  7  8  1  0
  8  9  1  0
  9 10  1  0
 10 11  2  0
 10 12  1  0
 12 13  1  0
 13 14  1  0
 14 15  1  0
 14 16  1  0
 16 17  1  0
 17 18  1  0
 18 19  2  0
 19 20  1  0
 20 21  2  0
 21 22  1  0
 22 23  2  0
  9 24  1  0
 24 25  1  0
  5 26  1  0
 26 27  2  0
 27  2  1  0
 25  6  1  0
 23 18  1  0
  1 28  1  0
  1 29  1  0
  1 30  1  0
  3 31  1  0
  4 32  1  0
  7 33  1  0
  7 34  1  0
  8 35  1  0
  8 36  1  0
 12 37  1  0
 12 38  1  0
 13 39  1  0
 13 40  1  0
 15 41  1  0
 15 42  1  0
 15 43  1  0
 16 44  1  0
 16 45  1  0
 17 46  1  0
 17 47  1  0
 19 48  1  0
 20 49  1  0
 21 50  1  0
 22 51  1  0
 23 52  1  0
 24 53  1  0
 24 54  1  0
 25 55  1  0
 25 56  1  0
 26 57  1  0
 27 58  1  0
M  END
>  <UniqueID>  (16) 
15

>  <SMILES>  (16) 
Cc1ccc(N2CCN(C(=O)CCN(C)CCc3ccccc3)CC2)cc1

>  <Energy>  (16) 
66.44153240432006

>  <Genealogy>  (16) 
Cc1ccc(N2CCN(C(=O)CCN(C)CCc3ccccc3)CC2)cc1 (3D coordinates assigned)
Cc1ccc(N2CCN(C(=O)CCN(C)CCc3ccccc3)CC2)cc1 (nonaromatic ring conformer: 66.44153240432006 kcal/mol)

>  <smiles>  (16) 
Cc1ccc(N2CCN(C(=O)CCN(C)CCc3ccccc3)CC2)cc1

>  <score_type>  (16) 
oracle

>  <origin>  (16) 
adg

>  <m_score__min__energy>  (16) 
-8.8399999999999999

>  <m_primary>  (16) 
energy

$$$$
16:0
     RDKit          3D

 47 48  0  0  0  0  0  0  0  0999 V2000
   -6.8110   24.8990  -29.9200 C   0  0  0  0  0  0  0  0  0  0  0  0
   -6.9520   23.3760  -29.9430 C   0  0  0  0  0  0  0  0  0  0  0  0
   -6.7920   22.8230  -31.3090 N   0  0  0  0  0  0  0  0  0  0  0  0
   -7.8060   23.3720  -32.2410 C   0  0  0  0  0  0  0  0  0  0  0  0
   -9.1530   22.7010  -31.9910 C   0  0  0  0  0  0  0  0  0  0  0  0
   -6.7090   21.3430  -31.3710 C   0  0  0  0  0  0  0  0  0  0  0  0
   -6.6310   20.7760  -32.8040 C   0  0  0  0  0  0  0  0  0  0  0  0
   -5.1690   20.6580  -33.2570 C   0  0  0  0  0  0  0  0  0  0  0  0
   -4.4630   21.9420  -33.0930 N   0  0  0  0  0  0  0  0  0  0  0  0
   -3.2080   21.7220  -32.4180 C   0  0  0  0  0  0  0  0  0  0  0  0
   -2.3380   20.6720  -32.7780 C   0  0  0  0  0  0  0  0  0  0  0  0
   -1.2780   20.5000  -31.9000 C   0  0  0  0  0  0  0  0  0  0  0  0
   -1.4270   21.6380  -30.6630 S   0  0  0  0  0  0  0  0  0  0  0  0
   -2.8360   22.3670  -31.2280 C   0  0  0  0  0  0  0  0  0  0  0  0
   -3.4830   23.5340  -30.5930 C   0  0  0  0  0  0  0  0  0  0  0  0
   -4.3900   24.1500  -31.2200 O   0  0  0  0  0  0  0  0  0  0  0  0
   -3.0550   24.0330  -29.2680 C   0  0  0  0  0  0  0  0  0  0  0  0
   -3.9460   24.0540  -28.1790 C   0  0  0  0  0  0  0  0  0  0  0  0
   -3.5260   24.5380  -26.9340 C   0  0  0  0  0  0  0  0  0  0  0  0
   -2.2230   25.0130  -26.7660 C   0  0  0  0  0  0  0  0  0  0  0  0
   -1.7290   25.6740  -25.2200 Cl  0  0  0  0  0  0  0  0  0  0  0  0
   -1.3290   25.0010  -27.8410 C   0  0  0  0  0  0  0  0  0  0  0  0
   -1.7430   24.5210  -29.0870 C   0  0  0  0  0  0  0  0  0  0  0  0
   -6.7786   25.2485  -28.8775 H   0  0  0  0  0  0  0  0  0  0  0  0
   -5.8822   25.1890  -30.4330 H   0  0  0  0  0  0  0  0  0  0  0  0
   -7.6708   25.3546  -30.4330 H   0  0  0  0  0  0  0  0  0  0  0  0
   -6.1821   22.9384  -29.2905 H   0  0  0  0  0  0  0  0  0  0  0  0
   -7.9631   23.1235  -29.5910 H   0  0  0  0  0  0  0  0  0  0  0  0
   -7.9021   24.4558  -32.0793 H   0  0  0  0  0  0  0  0  0  0  0  0
   -7.4902   23.1789  -33.2769 H   0  0  0  0  0  0  0  0  0  0  0  0
   -9.3246   22.6155  -30.9078 H   0  0  0  0  0  0  0  0  0  0  0  0
   -9.9533   23.3057  -32.4424 H   0  0  0  0  0  0  0  0  0  0  0  0
   -9.1524   21.6979  -32.4424 H   0  0  0  0  0  0  0  0  0  0  0  0
   -5.8095   21.0242  -30.8239 H   0  0  0  0  0  0  0  0  0  0  0  0
   -7.6369   20.9543  -30.9261 H   0  0  0  0  0  0  0  0  0  0  0  0
   -7.0980   19.7803  -32.8252 H   0  0  0  0  0  0  0  0  0  0  0  0
   -7.1606   21.4579  -33.4856 H   0  0  0  0  0  0  0  0  0  0  0  0
   -4.6652   19.8899  -32.6519 H   0  0  0  0  0  0  0  0  0  0  0  0
   -5.1517   20.3804  -34.3213 H   0  0  0  0  0  0  0  0  0  0  0  0
   -5.0540   22.6140  -32.5610 H   0  0  0  0  0  0  0  0  0  0  0  0
   -4.2710   22.3580  -34.0410 H   0  0  0  0  0  0  0  0  0  0  0  0
   -2.4862   20.0478  -33.6715 H   0  0  0  0  0  0  0  0  0  0  0  0
   -0.4781   19.7508  -31.9939 H   0  0  0  0  0  0  0  0  0  0  0  0
   -4.9758   23.6890  -28.3062 H   0  0  0  0  0  0  0  0  0  0  0  0
   -4.2250   24.5442  -26.0847 H   0  0  0  0  0  0  0  0  0  0  0  0
   -0.3011   25.3688  -27.7065 H   0  0  0  0  0  0  0  0  0  0  0  0
   -1.0404   24.5236  -29.9334 H   0  0  0  0  0  0  0  0  0  0  0  0
  1  2  1  0
  2  3  1  0
  3  4  1  0
  4  5  1  0
  3  6  1  0
  6  7  1  0
  7  8  1  0
  8  9  1  0
  9 10  1  0
 10 11  1  0
 11 12  2  0
 12 13  1  0
 13 14  1  0
 14 15  1  0
 15 16  2  0
 15 17  1  0
 17 18  2  0
 18 19  1  0
 19 20  2  0
 20 21  1  0
 20 22  1  0
 22 23  2  0
 14 10  2  0
 23 17  1  0
  1 24  1  0
  1 25  1  0
  1 26  1  0
  2 27  1  0
  2 28  1  0
  4 29  1  0
  4 30  1  0
  5 31  1  0
  5 32  1  0
  5 33  1  0
  6 34  1  0
  6 35  1  0
  7 36  1  0
  7 37  1  0
  8 38  1  0
  8 39  1  0
  9 40  1  0
  9 41  1  0
 11 42  1  0
 12 43  1  0
 18 44  1  0
 19 45  1  0
 22 46  1  0
 23 47  1  0
M  CHG  1   9   1
M  END
>  <UniqueID>  (17) 
16

>  <SMILES>  (17) 
CCN(CC)CCC[NH2+]c1ccsc1C(=O)c1ccc(Cl)cc1

>  <Energy>  (17) 
78.4157847903196

>  <Genealogy>  (17) 
CCN(CC)CCC[NH2+]c1ccsc1C(=O)c1ccc(Cl)cc1 (protonated)
CCN(CC)CCC[NH2+]c1ccsc1C(=O)c1ccc(Cl)cc1 (3D coordinates assigned)
CCN(CC)CCC[NH2+]c1ccsc1C(=O)c1ccc(Cl)cc1 (optimized conformer: 78.4157847903196 kcal/mol)

>  <smiles>  (17) 
CCN(CC)CCCNc1ccsc1C(=O)c1ccc(Cl)cc1

>  <score_type>  (17) 
oracle

>  <origin>  (17) 
adg

>  <m_score__min__energy>  (17) 
-7.2699999999999996

>  <m_primary>  (17) 
energy

$$$$
17:0
     RDKit          3D

 49 52  0  0  0  0  0  0  0  0999 V2000
   -1.3340   20.2370  -34.1410 C   0  0  0  0  0  0  0  0  0  0  0  0
   -2.2470   19.8320  -32.9880 C   0  0  0  0  0  0  0  0  0  0  0  0
   -3.1410   20.9520  -32.6130 N   0  0  0  0  0  0  0  0  0  0  0  0
   -4.3680   21.0460  -33.4460 C   0  0  0  0  0  0  0  0  0  0  0  0
   -5.4410   20.0200  -33.0990 C   0  0  0  0  0  0  0  0  0  0  0  0
   -5.2610   18.6870  -33.5120 C   0  0  0  0  0  0  0  0  0  0  0  0
   -6.2600   17.7220  -33.3170 C   0  0  0  0  0  0  0  0  0  0  0  0
   -6.0300   16.2930  -33.7450 C   0  0  0  0  0  0  0  0  0  0  0  0
   -7.2180   15.7610  -34.2090 F   0  0  0  0  0  0  0  0  0  0  0  0
   -5.0820   16.2250  -34.7510 F   0  0  0  0  0  0  0  0  0  0  0  0
   -5.5810   15.5350  -32.6780 F   0  0  0  0  0  0  0  0  0  0  0  0
   -7.4350   18.0840  -32.6440 C   0  0  0  0  0  0  0  0  0  0  0  0
   -7.6170   19.3920  -32.1970 C   0  0  0  0  0  0  0  0  0  0  0  0
   -6.6250   20.3630  -32.3970 C   0  0  0  0  0  0  0  0  0  0  0  0
   -6.8420   21.6760  -31.8640 N   0  0  0  0  0  0  0  0  0  0  0  0
   -7.2530   22.0070  -30.6280 C   0  0  0  0  0  0  0  0  0  0  0  0
   -7.4890   23.3300  -30.5700 N   0  0  0  0  0  0  0  0  0  0  0  0
   -7.2360   23.7850  -31.7920 N   0  0  0  0  0  0  0  0  0  0  0  0
   -6.8630   22.7860  -32.5770 N   0  0  0  0  0  0  0  0  0  0  0  0
   -3.4310   20.9820  -31.1630 C   0  0  0  0  0  0  0  0  0  0  0  0
   -3.1860   22.3660  -30.5970 C   0  0  0  0  0  0  0  0  0  0  0  0
   -4.0390   23.4140  -30.9840 C   0  0  0  0  0  0  0  0  0  0  0  0
   -3.8530   24.6960  -30.4660 C   0  0  0  0  0  0  0  0  0  0  0  0
   -4.6190   25.6330  -30.8110 O   0  0  0  0  0  0  0  0  0  0  0  0
   -2.8480   24.9370  -29.5870 N   0  0  0  0  0  0  0  0  0  0  0  0
   -1.9950   23.9590  -29.1850 C   0  0  0  0  0  0  0  0  0  0  0  0
   -0.9760   24.2650  -28.2760 C   0  0  0  0  0  0  0  0  0  0  0  0
   -0.0910   23.2720  -27.8530 C   0  0  0  0  0  0  0  0  0  0  0  0
   -0.2160   21.9690  -28.3370 C   0  0  0  0  0  0  0  0  0  0  0  0
    0.6480   21.0090  -27.9260 F   0  0  0  0  0  0  0  0  0  0  0  0
   -1.2300   21.6490  -29.2460 C   0  0  0  0  0  0  0  0  0  0  0  0
   -2.1370   22.6380  -29.6820 C   0  0  0  0  0  0  0  0  0  0  0  0
   -0.3980   20.6522  -33.7391 H   0  0  0  0  0  0  0  0  0  0  0  0
   -1.1086   19.3544  -34.7577 H   0  0  0  0  0  0  0  0  0  0  0  0
   -1.8370   20.9964  -34.7577 H   0  0  0  0  0  0  0  0  0  0  0  0
   -2.8570   18.9699  -33.2955 H   0  0  0  0  0  0  0  0  0  0  0  0
   -1.6257   19.5680  -32.1195 H   0  0  0  0  0  0  0  0  0  0  0  0
   -4.7968   22.0506  -33.3159 H   0  0  0  0  0  0  0  0  0  0  0  0
   -4.0616   20.8435  -34.4829 H   0  0  0  0  0  0  0  0  0  0  0  0
   -4.3179   18.3959  -33.9975 H   0  0  0  0  0  0  0  0  0  0  0  0
   -8.2180   17.3318  -32.4675 H   0  0  0  0  0  0  0  0  0  0  0  0
   -8.5494   19.6656  -31.6815 H   0  0  0  0  0  0  0  0  0  0  0  0
   -7.3774   21.3035  -29.7916 H   0  0  0  0  0  0  0  0  0  0  0  0
   -4.4831   20.7058  -30.9993 H   0  0  0  0  0  0  0  0  0  0  0  0
   -2.7659   20.2687  -30.6542 H   0  0  0  0  0  0  0  0  0  0  0  0
   -4.8548   23.2230  -31.6967 H   0  0  0  0  0  0  0  0  0  0  0  0
   -0.8722   25.2912  -27.8937 H   0  0  0  0  0  0  0  0  0  0  0  0
    0.7068   23.5170  -27.1365 H   0  0  0  0  0  0  0  0  0  0  0  0
   -1.3208   20.6197  -29.6233 H   0  0  0  0  0  0  0  0  0  0  0  0
  1  2  1  0
  2  3  1  0
  3  4  1  0
  4  5  1  0
  5  6  2  0
  6  7  1  0
  7  8  1  0
  8  9  1  0
  8 10  1  0
  8 11  1  0
  7 12  2  0
 12 13  1  0
 13 14  2  0
 14 15  1  0
 15 16  1  0
 16 17  2  0
 17 18  1  0
 18 19  2  0
  3 20  1  0
 20 21  1  0
 21 22  2  0
 22 23  1  0
 23 24  2  0
 23 25  1  0
 25 26  1  0
 26 27  2  0
 27 28  1  0
 28 29  2  0
 29 30  1  0
 29 31  1  0
 31 32  2  0
 14  5  1  0
 19 15  1  0
 32 21  1  0
 32 26  1  0
  1 33  1  0
  1 34  1  0
  1 35  1  0
  2 36  1  0
  2 37  1  0
  4 38  1  0
  4 39  1  0
  6 40  1  0
 12 41  1  0
 13 42  1  0
 16 43  1  0
 20 44  1  0
 20 45  1  0
 22 46  1  0
 27 47  1  0
 28 48  1  0
 31 49  1  0
M  CHG  1  25  -1
M  END
>  <UniqueID>  (18) 
17

>  <SMILES>  (18) 
CCN(Cc1cc(C(F)(F)F)ccc1-n1cnnn1)Cc1cc(=O)[n-]c2ccc(F)cc12

>  <Energy>  (18) 
108.97053594736272

>  <Genealogy>  (18) 
CCN(Cc1cc(C(F)(F)F)ccc1-n1cnnn1)Cc1cc(=O)[n-]c2ccc(F)cc12 (protonated)
CCN(Cc1cc(C(F)(F)F)ccc1-n1cnnn1)Cc1cc(=O)[n-]c2ccc(F)cc12 (3D coordinates assigned)
CCN(Cc1cc(C(F)(F)F)ccc1-n1cnnn1)Cc1cc(=O)[n-]c2ccc(F)cc12 (optimized conformer: 108.97053594736272 kcal/mol)

>  <smiles>  (18) 
CCN(Cc1cc(C(F)(F)F)ccc1-n1cnnn1)Cc1cc(=O)[nH]c2ccc(F)cc12

>  <score_type>  (18) 
oracle

>  <origin>  (18) 
adg

>  <m_score__min__energy>  (18) 
-10.960000000000001

>  <m_primary>  (18) 
energy

$$$$
18:0
     RDKit          3D

 50 52  0  0  1  0  0  0  0  0999 V2000
   -5.7450   16.7200  -31.6420 C   0  0  0  0  0  0  0  0  0  0  0  0
   -4.7720   16.8320  -32.7430 C   0  0  0  0  0  0  0  0  0  0  0  0
   -5.4750   16.8580  -34.1820 C   0  0  0  0  0  0  0  0  0  0  0  0
   -6.7710   16.1190  -34.0070 C   0  0  0  0  0  0  0  0  0  0  0  0
   -6.8440   14.6690  -34.2280 C   0  0  0  0  0  0  0  0  0  0  0  0
   -5.6820   18.1840  -34.2800 N   0  0  0  0  0  0  0  0  0  0  0  0
   -6.1370   19.1460  -33.6700 C   0  0  0  0  0  0  0  0  0  0  0  0
   -7.4280   19.2270  -33.3720 N   0  0  0  0  0  0  0  0  0  0  0  0
   -7.9830   20.2000  -32.6290 C   0  0  0  0  0  0  0  0  0  0  0  0
   -9.4390   20.2050  -32.3490 C   0  0  0  0  0  0  0  0  0  0  0  0
   -7.1380   21.1500  -32.1680 N   0  0  0  0  0  0  0  0  0  0  0  0
   -5.8330   21.1010  -32.4520 C   0  0  0  0  0  0  0  0  0  0  0  0
   -5.2630   20.0860  -33.2280 C   0  0  0  0  0  0  0  0  0  0  0  0
   -3.9620   20.2900  -33.3860 C   0  0  0  0  0  0  0  0  0  0  0  0
   -2.7800   19.7780  -34.0750 C   0  0  0  0  0  0  0  0  0  0  0  0
   -3.7570   21.4710  -32.6630 N   0  0  0  0  0  0  0  0  0  0  0  0
   -4.8490   21.9200  -32.1320 N   0  0  0  0  0  0  0  0  0  0  0  0
   -4.9760   23.0850  -31.3430 C   0  0  0  0  0  0  0  0  0  0  0  0
   -6.2320   23.6420  -31.2280 C   0  0  0  0  0  0  0  0  0  0  0  0
   -6.4000   24.7820  -30.4670 C   0  0  0  0  0  0  0  0  0  0  0  0
   -5.2890   25.3020  -29.8590 C   0  0  0  0  0  0  0  0  0  0  0  0
   -4.0330   24.7590  -29.9640 C   0  0  0  0  0  0  0  0  0  0  0  0
   -2.9110   25.2920  -29.3450 O   0  0  0  0  0  0  0  0  0  0  0  0
   -2.2200   24.6420  -28.3130 C   0  0  0  0  0  0  0  0  0  0  0  0
   -3.8620   23.6200  -30.7240 C   0  0  0  0  0  0  0  0  0  0  0  0
   -5.2173   16.7807  -30.6787 H   0  0  0  0  0  0  0  0  0  0  0  0
   -6.4747   17.5401  -31.7127 H   0  0  0  0  0  0  0  0  0  0  0  0
   -6.2693   15.7556  -31.7127 H   0  0  0  0  0  0  0  0  0  0  0  0
   -4.1983   17.7616  -32.6137 H   0  0  0  0  0  0  0  0  0  0  0  0
   -4.1206   15.9464  -32.7050 H   0  0  0  0  0  0  0  0  0  0  0  0
   -4.9471   16.4219  -35.0429 H   0  0  0  0  0  0  0  0  0  0  0  0
   -7.0956   16.2954  -32.9709 H   0  0  0  0  0  0  0  0  0  0  0  0
   -7.3941   16.5220  -34.8190 H   0  0  0  0  0  0  0  0  0  0  0  0
   -6.8701   14.1511  -33.2579 H   0  0  0  0  0  0  0  0  0  0  0  0
   -7.7553   14.4301  -34.7958 H   0  0  0  0  0  0  0  0  0  0  0  0
   -5.9613   14.3397  -34.7958 H   0  0  0  0  0  0  0  0  0  0  0  0
   -8.0720   18.4960  -33.7310 H   0  0  0  0  0  0  0  0  0  0  0  0
   -9.6032   20.2056  -31.2613 H   0  0  0  0  0  0  0  0  0  0  0  0
   -9.8939   21.1047  -32.7890 H   0  0  0  0  0  0  0  0  0  0  0  0
   -9.9001   19.3084  -32.7890 H   0  0  0  0  0  0  0  0  0  0  0  0
   -2.0345   19.4551  -33.3334 H   0  0  0  0  0  0  0  0  0  0  0  0
   -3.0647   18.9226  -34.7052 H   0  0  0  0  0  0  0  0  0  0  0  0
   -2.3507   20.5708  -34.7052 H   0  0  0  0  0  0  0  0  0  0  0  0
   -7.0919   23.1827  -31.7375 H   0  0  0  0  0  0  0  0  0  0  0  0
   -7.3873   25.2536  -30.3538 H   0  0  0  0  0  0  0  0  0  0  0  0
   -5.4104   26.2097  -29.2496 H   0  0  0  0  0  0  0  0  0  0  0  0
   -2.5954   24.9951  -27.3412 H   0  0  0  0  0  0  0  0  0  0  0  0
   -2.3766   23.5562  -28.3940 H   0  0  0  0  0  0  0  0  0  0  0  0
   -1.1458   24.8646  -28.3940 H   0  0  0  0  0  0  0  0  0  0  0  0
   -2.8720   23.1533  -30.8336 H   0  0  0  0  0  0  0  0  0  0  0  0
  1  2  1  0
  2  3  1  0
  3  4  1  0
  4  5  1  0
  3  6  1  0
  6  7  2  0
  7  8  1  0
  8  9  1  0
  9 10  1  0
  9 11  2  0
 11 12  1  0
 12 13  2  0
 13 14  1  0
 14 15  1  0
 14 16  2  0
 16 17  1  0
 17 18  1  0
 18 19  2  0
 19 20  1  0
 20 21  2  0
 21 22  1  0
 22 23  1  0
 23 24  1  0
 22 25  2  0
 13  7  1  0
 25 18  1  0
 17 12  1  0
  1 26  1  0
  1 27  1  0
  1 28  1  0
  2 29  1  0
  2 30  1  0
  3 31  1  0
  4 32  1  0
  4 33  1  0
  5 34  1  0
  5 35  1  0
  5 36  1  0
  8 37  1  0
 10 38  1  0
 10 39  1  0
 10 40  1  0
 15 41  1  0
 15 42  1  0
 15 43  1  0
 19 44  1  0
 20 45  1  0
 21 46  1  0
 24 47  1  0
 24 48  1  0
 24 49  1  0
 25 50  1  0
M  END
>  <smiles>  (19) 
CCC(CC)N=c1[nH]c(C)nc2c1c(C)nn2-c1cccc(OC)c1

>  <score_type>  (19) 
oracle

>  <origin>  (19) 
adg

>  <m_score__min__energy>  (19) 
-8.7200000000000006

>  <m_primary>  (19) 
energy

$$$$
19:0
     RDKit          3D

 45 48  0  0  0  0  0  0  0  0999 V2000
   -4.0540   19.2700  -33.4580 C   0  0  0  0  0  0  0  0  0  0  0  0
   -2.8790   19.7240  -32.7940 O   0  0  0  0  0  0  0  0  0  0  0  0
   -2.8610   20.7130  -31.8000 C   0  0  0  0  0  0  0  0  0  0  0  0
   -3.1190   22.0270  -32.1710 C   0  0  0  0  0  0  0  0  0  0  0  0
   -3.1360   23.0390  -31.2170 C   0  0  0  0  0  0  0  0  0  0  0  0
   -2.8760   22.7750  -29.8520 C   0  0  0  0  0  0  0  0  0  0  0  0
   -2.6110   21.4360  -29.4670 C   0  0  0  0  0  0  0  0  0  0  0  0
   -2.6070   20.4250  -30.4510 C   0  0  0  0  0  0  0  0  0  0  0  0
   -2.4690   20.9680  -28.0770 C   0  0  0  0  0  0  0  0  0  0  0  0
   -1.9920   21.6280  -27.0270 C   0  0  0  0  0  0  0  0  0  0  0  0
   -1.5000   23.0160  -26.9580 C   0  0  0  0  0  0  0  0  0  0  0  0
   -0.5930   23.2840  -25.9670 N   0  0  0  0  0  0  0  0  0  0  0  0
   -0.1550   24.5390  -25.6920 C   0  0  0  0  0  0  0  0  0  0  0  0
   -0.6470   25.6170  -26.4090 C   0  0  0  0  0  0  0  0  0  0  0  0
   -1.5690   25.3910  -27.4230 C   0  0  0  0  0  0  0  0  0  0  0  0
   -2.0000   24.0840  -27.7450 C   0  0  0  0  0  0  0  0  0  0  0  0
   -2.9800   23.9570  -28.9000 C   0  0  2  0  0  0  0  0  0  0  0  0
   -4.3610   24.3330  -28.5510 N   0  0  0  0  0  0  0  0  0  0  0  0
   -5.3430   24.9870  -29.8320 S   0  0  0  0  0  0  0  0  0  0  0  0
   -4.4300   25.5880  -30.8620 O   0  0  0  0  0  0  0  0  0  0  0  0
   -6.2300   26.0770  -29.3030 O   0  0  0  0  0  0  0  0  0  0  0  0
   -6.2870   23.7300  -30.6260 C   0  0  0  0  0  0  0  0  0  0  0  0
   -7.1750   22.9300  -29.8900 C   0  0  0  0  0  0  0  0  0  0  0  0
   -7.8930   21.9110  -30.5230 C   0  0  0  0  0  0  0  0  0  0  0  0
   -7.7410   21.6970  -31.8960 C   0  0  0  0  0  0  0  0  0  0  0  0
   -6.8800   22.5100  -32.6400 C   0  0  0  0  0  0  0  0  0  0  0  0
   -6.1620   23.5300  -32.0080 C   0  0  0  0  0  0  0  0  0  0  0  0
   -4.8077   18.9788  -32.7115 H   0  0  0  0  0  0  0  0  0  0  0  0
   -4.4547   20.0780  -34.0877 H   0  0  0  0  0  0  0  0  0  0  0  0
   -3.8073   18.4025  -34.0877 H   0  0  0  0  0  0  0  0  0  0  0  0
   -3.3112   22.2686  -33.2268 H   0  0  0  0  0  0  0  0  0  0  0  0
   -3.3570   24.0696  -31.5317 H   0  0  0  0  0  0  0  0  0  0  0  0
   -2.3998   19.3865  -30.1533 H   0  0  0  0  0  0  0  0  0  0  0  0
   -2.8013   19.9375  -27.8832 H   0  0  0  0  0  0  0  0  0  0  0  0
   -1.9600   21.0634  -26.0835 H   0  0  0  0  0  0  0  0  0  0  0  0
   -0.2170   22.5060  -25.3770 H   0  0  0  0  0  0  0  0  0  0  0  0
    0.5908   24.6999  -24.8996 H   0  0  0  0  0  0  0  0  0  0  0  0
   -0.3119   26.6390  -26.1784 H   0  0  0  0  0  0  0  0  0  0  0  0
   -1.9715   26.2458  -27.9863 H   0  0  0  0  0  0  0  0  0  0  0  0
   -2.5797   24.7390  -29.5620 H   0  0  0  0  0  0  0  0  0  0  0  0
   -7.3064   23.1053  -28.8120 H   0  0  0  0  0  0  0  0  0  0  0  0
   -8.5778   21.2774  -29.9404 H   0  0  0  0  0  0  0  0  0  0  0  0
   -8.2989   20.8887  -32.3915 H   0  0  0  0  0  0  0  0  0  0  0  0
   -6.7676   22.3471  -33.7221 H   0  0  0  0  0  0  0  0  0  0  0  0
   -5.4966   24.1779  -32.5974 H   0  0  0  0  0  0  0  0  0  0  0  0
  1  2  1  0
  2  3  1  0
  3  4  2  0
  4  5  1  0
  5  6  2  0
  6  7  1  0
  7  8  2  0
  7  9  1  0
  9 10  2  0
 10 11  1  0
 11 12  2  0
 12 13  1  0
 13 14  2  0
 14 15  1  0
 15 16  2  0
 16 17  1  0
 17 18  1  0
 18 19  1  0
 19 20  2  0
 19 21  2  0
 19 22  1  0
 22 23  2  0
 23 24  1  0
 24 25  2  0
 25 26  1  0
 26 27  2  0
  8  3  1  0
 16 11  1  0
 27 22  1  0
 17  6  1  0
  1 28  1  0
  1 29  1  0
  1 30  1  0
  4 31  1  0
  5 32  1  0
  8 33  1  0
  9 34  1  0
 10 35  1  0
 12 36  1  0
 13 37  1  0
 14 38  1  0
 15 39  1  0
 17 40  1  6
 23 41  1  0
 24 42  1  0
 25 43  1  0
 26 44  1  0
 27 45  1  0
M  CHG  2  12   1  18  -1
M  END
>  <UniqueID>  (20) 
18

>  <SMILES>  (20) 
COc1ccc2c(c1)C=Cc1[nH+]cccc1[C@@H]2[N-]S(=O)(=O)c1ccccc1

>  <Energy>  (20) 
75.88971990364197

>  <Genealogy>  (20) 
COc1ccc2c(c1)C=Cc1[nH+]cccc1C2[N-]S(=O)(=O)c1ccccc1 (protonated)
COc1ccc2c(c1)C=Cc1[nH+]cccc1[C@@H]2[N-]S(=O)(=O)c1ccccc1 (chirality)
COc1ccc2c(c1)C=Cc1[nH+]cccc1[C@@H]2[N-]S(=O)(=O)c1ccccc1 (3D coordinates assigned)
COc1ccc2c(c1)C=Cc1[nH+]cccc1[C@@H]2[N-]S(=O)(=O)c1ccccc1 (nonaromatic ring conformer: 75.88971990364197 kcal/mol)

>  <smiles>  (20) 
COc1ccc2c(c1)C=Cc1ncccc1C2NS(=O)(=O)c1ccccc1

>  <score_type>  (20) 
oracle

>  <origin>  (20) 
adg

>  <m_score__min__energy>  (20) 
-7.2999999999999998

>  <m_primary>  (20) 
energy

$$$$
20:0
     RDKit          3D

 63 66  0  0  0  0  0  0  0  0999 V2000
   -7.2290   23.4960  -30.1080 Cl  0  0  0  0  0  0  0  0  0  0  0  0
   -7.3620   22.0370  -31.0820 C   0  0  0  0  0  0  0  0  0  0  0  0
   -8.4420   21.1740  -30.8680 C   0  0  0  0  0  0  0  0  0  0  0  0
   -8.5770   20.0100  -31.6270 C   0  0  0  0  0  0  0  0  0  0  0  0
   -7.6270   19.6950  -32.6170 C   0  0  0  0  0  0  0  0  0  0  0  0
   -7.7090   18.5410  -33.4130 O   0  0  0  0  0  0  0  0  0  0  0  0
   -7.3480   17.2150  -33.0090 C   0  0  2  0  0  0  0  0  0  0  0  0
   -6.3640   17.2960  -31.8240 C   0  0  0  0  0  0  0  0  0  0  0  0
   -4.8850   17.3550  -32.2650 C   0  0  0  0  0  0  0  0  0  0  0  0
   -4.7410   17.9710  -33.6020 N   0  0  1  0  0  0  0  0  0  0  0  0
   -3.3070   18.1910  -33.9090 C   0  0  0  0  0  0  0  0  0  0  0  0
   -2.7300   19.3310  -33.1000 C   0  0  0  0  0  0  0  0  0  0  0  0
   -2.6280   20.6130  -33.6630 C   0  0  0  0  0  0  0  0  0  0  0  0
   -2.0550   21.6590  -32.9360 C   0  0  0  0  0  0  0  0  0  0  0  0
   -1.5720   21.4370  -31.6370 C   0  0  0  0  0  0  0  0  0  0  0  0
   -0.9600   22.5590  -30.8400 C   0  0  0  0  0  0  0  0  0  0  0  0
   -1.6890   22.7340  -29.5670 N   0  0  0  0  0  0  0  0  0  0  0  0
   -1.2280   23.9580  -28.8750 C   0  0  0  0  0  0  0  0  0  0  0  0
   -1.5740   23.9860  -27.3740 C   0  0  0  0  0  0  0  0  0  0  0  0
   -2.9100   24.6770  -27.0460 C   0  0  0  0  0  0  0  0  0  0  0  0
   -4.1170   24.2460  -27.9110 C   0  0  0  0  0  0  0  0  0  0  0  0
   -3.8020   24.0820  -29.4100 C   0  0  0  0  0  0  0  0  0  0  0  0
   -3.1570   22.7220  -29.7770 C   0  0  0  0  0  0  0  0  0  0  0  0
   -1.6730   20.1550  -31.0740 C   0  0  0  0  0  0  0  0  0  0  0  0
   -2.2460   19.1080  -31.8020 C   0  0  0  0  0  0  0  0  0  0  0  0
   -5.3930   17.1370  -34.6510 C   0  0  0  0  0  0  0  0  0  0  0  0
   -6.6980   16.4570  -34.1770 C   0  0  0  0  0  0  0  0  0  0  0  0
   -6.5450   20.5590  -32.8230 C   0  0  0  0  0  0  0  0  0  0  0  0
   -6.4080   21.7270  -32.0640 C   0  0  0  0  0  0  0  0  0  0  0  0
   -5.0350   22.7840  -32.3690 Cl  0  0  0  0  0  0  0  0  0  0  0  0
   -9.1892   21.4139  -30.0972 H   0  0  0  0  0  0  0  0  0  0  0  0
   -9.4288   19.3366  -31.4508 H   0  0  0  0  0  0  0  0  0  0  0  0
   -8.2540   16.6718  -32.7023 H   0  0  0  0  0  0  0  0  0  0  0  0
   -6.5917   18.2010  -31.2416 H   0  0  0  0  0  0  0  0  0  0  0  0
   -6.4918   16.3794  -31.2294 H   0  0  0  0  0  0  0  0  0  0  0  0
   -4.3179   17.9504  -31.5344 H   0  0  0  0  0  0  0  0  0  0  0  0
   -4.4993   16.3261  -32.3163 H   0  0  0  0  0  0  0  0  0  0  0  0
   -5.2040   18.9120  -33.5750 H   0  0  0  0  0  0  0  0  0  0  0  0
   -2.7481   17.2719  -33.6788 H   0  0  0  0  0  0  0  0  0  0  0  0
   -3.2203   18.4488  -34.9749 H   0  0  0  0  0  0  0  0  0  0  0  0
   -3.0012   20.7946  -34.6817 H   0  0  0  0  0  0  0  0  0  0  0  0
   -1.9820   22.6612  -33.3835 H   0  0  0  0  0  0  0  0  0  0  0  0
    0.0927   22.3217  -30.6267 H   0  0  0  0  0  0  0  0  0  0  0  0
   -1.0233   23.4902  -31.4221 H   0  0  0  0  0  0  0  0  0  0  0  0
   -0.1353   24.0268  -28.9812 H   0  0  0  0  0  0  0  0  0  0  0  0
   -1.7483   24.8074  -29.3416 H   0  0  0  0  0  0  0  0  0  0  0  0
   -1.6247   22.9483  -27.0125 H   0  0  0  0  0  0  0  0  0  0  0  0
   -0.7856   24.5723  -26.8793 H   0  0  0  0  0  0  0  0  0  0  0  0
   -3.1531   24.4615  -25.9951 H   0  0  0  0  0  0  0  0  0  0  0  0
   -2.7553   25.7453  -27.2576 H   0  0  0  0  0  0  0  0  0  0  0  0
   -4.4862   23.2824  -27.5300 H   0  0  0  0  0  0  0  0  0  0  0  0
   -4.8612   25.0524  -27.8339 H   0  0  0  0  0  0  0  0  0  0  0  0
   -4.7417   24.1816  -29.9731 H   0  0  0  0  0  0  0  0  0  0  0  0
   -3.0679   24.8601  -29.6663 H   0  0  0  0  0  0  0  0  0  0  0  0
   -3.6003   21.9363  -29.1475 H   0  0  0  0  0  0  0  0  0  0  0  0
   -3.3483   22.5295  -30.8430 H   0  0  0  0  0  0  0  0  0  0  0  0
   -1.2996   19.9734  -30.0554 H   0  0  0  0  0  0  0  0  0  0  0  0
   -2.3177   18.1053  -31.3554 H   0  0  0  0  0  0  0  0  0  0  0  0
   -5.6288   17.7811  -35.5109 H   0  0  0  0  0  0  0  0  0  0  0  0
   -4.6868   16.3348  -34.9111 H   0  0  0  0  0  0  0  0  0  0  0  0
   -7.4069   16.4233  -35.0174 H   0  0  0  0  0  0  0  0  0  0  0  0
   -6.4474   15.4442  -33.8285 H   0  0  0  0  0  0  0  0  0  0  0  0
   -5.7942   20.3173  -33.5898 H   0  0  0  0  0  0  0  0  0  0  0  0
  1  2  1  0
  2  3  2  0
  3  4  1  0
  4  5  2  0
  5  6  1  0
  6  7  1  0
  7  8  1  0
  8  9  1  0
  9 10  1  0
 10 11  1  0
 11 12  1  0
 12 13  2  0
 13 14  1  0
 14 15  2  0
 15 16  1  0
 16 17  1  0
 17 18  1  0
 18 19  1  0
 19 20  1  0
 20 21  1  0
 21 22  1  0
 22 23  1  0
 15 24  1  0
 24 25  2  0
 10 26  1  0
 26 27  1  0
  5 28  1  0
 28 29  2  0
 29 30  1  0
 29  2  1  0
 27  7  1  0
 25 12  1  0
 23 17  1  0
  3 31  1  0
  4 32  1  0
  7 33  1  1
  8 34  1  0
  8 35  1  0
  9 36  1  0
  9 37  1  0
 10 38  1  1
 11 39  1  0
 11 40  1  0
 13 41  1  0
 14 42  1  0
 16 43  1  0
 16 44  1  0
 18 45  1  0
 18 46  1  0
 19 47  1  0
 19 48  1  0
 20 49  1  0
 20 50  1  0
 21 51  1  0
 21 52  1  0
 22 53  1  0
 22 54  1  0
 23 55  1  0
 23 56  1  0
 24 57  1  0
 25 58  1  0
 26 59  1  0
 26 60  1  0
 27 61  1  0
 27 62  1  0
 28 63  1  0
M  CHG  1  10   1
M  END
>  <UniqueID>  (21) 
19

>  <SMILES>  (21) 
Clc1ccc(OC2CC[NH+](Cc3ccc(CN4CCCCCC4)cc3)CC2)cc1Cl

>  <Energy>  (21) 
81.41657485231092

>  <Genealogy>  (21) 
Clc1ccc(OC2CC[NH+](Cc3ccc(CN4CCCCCC4)cc3)CC2)cc1Cl (protonated)
Clc1ccc(OC2CC[NH+](Cc3ccc(CN4CCCCCC4)cc3)CC2)cc1Cl (3D coordinates assigned)
Clc1ccc(OC2CC[NH+](Cc3ccc(CN4CCCCCC4)cc3)CC2)cc1Cl (nonaromatic ring conformer: 81.41657485231092 kcal/mol)

>  <smiles>  (21) 
Clc1ccc(OC2CCN(Cc3ccc(CN4CCCCCC4)cc3)CC2)cc1Cl

>  <score_type>  (21) 
oracle

>  <origin>  (21) 
adg

>  <m_score__min__energy>  (21) 
-6.5899999999999999

>  <m_primary>  (21) 
energy

$$$$
21:0
     RDKit          3D

 49 51  0  0  0  0  0  0  0  0999 V2000
   -3.9270   13.5940  -34.5690 C   0  0  0  0  0  0  0  0  0  0  0  0
   -5.2670   14.1700  -34.3950 N   0  0  0  0  0  0  0  0  0  0  0  0
   -6.4360   13.2850  -34.4750 C   0  0  0  0  0  0  0  0  0  0  0  0
   -5.4330   15.5920  -34.1500 C   0  0  0  0  0  0  0  0  0  0  0  0
   -4.3660   16.4920  -34.3490 C   0  0  0  0  0  0  0  0  0  0  0  0
   -4.5260   17.8590  -34.1150 C   0  0  0  0  0  0  0  0  0  0  0  0
   -5.7600   18.3700  -33.6770 C   0  0  0  0  0  0  0  0  0  0  0  0
   -5.9370   19.8210  -33.4180 C   0  0  0  0  0  0  0  0  0  0  0  0
   -6.9760   20.4010  -33.8360 O   0  0  0  0  0  0  0  0  0  0  0  0
   -4.9210   20.5770  -32.7400 N   0  0  0  0  0  0  0  0  0  0  0  0
   -5.1610   21.8280  -32.0820 C   0  0  0  0  0  0  0  0  0  0  0  0
   -4.1790   22.7090  -31.6770 C   0  0  0  0  0  0  0  0  0  0  0  0
   -4.8400   23.7470  -31.0380 C   0  0  0  0  0  0  0  0  0  0  0  0
   -4.1830   24.9370  -30.4470 C   0  0  0  0  0  0  0  0  0  0  0  0
   -4.7620   26.0530  -30.4960 O   0  0  0  0  0  0  0  0  0  0  0  0
   -2.8730   24.8690  -29.8660 N   0  0  0  0  0  0  0  0  0  0  0  0
   -2.3310   23.7620  -29.1310 C   0  0  0  0  0  0  0  0  0  0  0  0
   -1.3180   23.0010  -29.7290 C   0  0  0  0  0  0  0  0  0  0  0  0
   -0.7660   21.9040  -29.0620 C   0  0  0  0  0  0  0  0  0  0  0  0
   -1.2080   21.5700  -27.7810 C   0  0  0  0  0  0  0  0  0  0  0  0
   -2.1910   22.3410  -27.1570 C   0  0  0  0  0  0  0  0  0  0  0  0
   -2.7520   23.4450  -27.8170 C   0  0  0  0  0  0  0  0  0  0  0  0
   -3.7020   24.2630  -27.1050 C   0  0  0  0  0  0  0  0  0  0  0  0
   -4.4630   24.9220  -26.5350 N   0  0  0  0  0  0  0  0  0  0  0  0
   -6.1750   23.5140  -31.0420 N   0  0  0  0  0  0  0  0  0  0  0  0
   -7.2230   24.3500  -30.4610 C   0  0  0  0  0  0  0  0  0  0  0  0
   -6.3780   22.3410  -31.6730 C   0  0  0  0  0  0  0  0  0  0  0  0
   -6.8230   17.4790  -33.4650 C   0  0  0  0  0  0  0  0  0  0  0  0
   -6.6650   16.1110  -33.7020 C   0  0  0  0  0  0  0  0  0  0  0  0
   -3.4796   13.4017  -33.5826 H   0  0  0  0  0  0  0  0  0  0  0  0
   -4.0036   12.6493  -35.1273 H   0  0  0  0  0  0  0  0  0  0  0  0
   -3.2943   14.2996  -35.1273 H   0  0  0  0  0  0  0  0  0  0  0  0
   -6.7729   13.0299  -33.4594 H   0  0  0  0  0  0  0  0  0  0  0  0
   -7.2475   13.7971  -35.0128 H   0  0  0  0  0  0  0  0  0  0  0  0
   -6.1633   12.3650  -35.0128 H   0  0  0  0  0  0  0  0  0  0  0  0
   -3.3932   16.1114  -34.6937 H   0  0  0  0  0  0  0  0  0  0  0  0
   -3.6789   18.5422  -34.2748 H   0  0  0  0  0  0  0  0  0  0  0  0
   -3.9350   20.2330  -32.7750 H   0  0  0  0  0  0  0  0  0  0  0  0
   -3.0943   22.6084  -31.8298 H   0  0  0  0  0  0  0  0  0  0  0  0
   -0.9541   23.2692  -30.7318 H   0  0  0  0  0  0  0  0  0  0  0  0
    0.0175   21.3033  -29.5470 H   0  0  0  0  0  0  0  0  0  0  0  0
   -0.7817   20.6986  -27.2624 H   0  0  0  0  0  0  0  0  0  0  0  0
   -2.5274   22.0814  -26.1424 H   0  0  0  0  0  0  0  0  0  0  0  0
   -7.1636   24.3026  -29.3636 H   0  0  0  0  0  0  0  0  0  0  0  0
   -7.0871   25.3905  -30.7910 H   0  0  0  0  0  0  0  0  0  0  0  0
   -8.2073   23.9863  -30.7910 H   0  0  0  0  0  0  0  0  0  0  0  0
   -7.3569   21.8667  -31.8368 H   0  0  0  0  0  0  0  0  0  0  0  0
   -7.7908   17.8614  -33.1085 H   0  0  0  0  0  0  0  0  0  0  0  0
   -7.5130   15.4301  -33.5369 H   0  0  0  0  0  0  0  0  0  0  0  0
  1  2  1  0
  2  3  1  0
  2  4  1  0
  4  5  2  0
  5  6  1  0
  6  7  2  0
  7  8  1  0
  8  9  2  0
  8 10  1  0
 10 11  1  0
 11 12  1  0
 12 13  2  0
 13 14  1  0
 14 15  2  0
 14 16  1  0
 16 17  1  0
 17 18  2  0
 18 19  1  0
 19 20  2  0
 20 21  1  0
 21 22  2  0
 22 23  1  0
 23 24  3  0
 13 25  1  0
 25 26  1  0
 25 27  1  0
  7 28  1  0
 28 29  2  0
 29  4  1  0
 27 11  2  0
 22 17  1  0
  1 30  1  0
  1 31  1  0
  1 32  1  0
  3 33  1  0
  3 34  1  0
  3 35  1  0
  5 36  1  0
  6 37  1  0
 10 38  1  0
 12 39  1  0
 18 40  1  0
 19 41  1  0
 20 42  1  0
 21 43  1  0
 26 44  1  0
 26 45  1  0
 26 46  1  0
 27 47  1  0
 28 48  1  0
 29 49  1  0
M  CHG  1  16  -1
M  END
>  <UniqueID>  (22) 
20

>  <SMILES>  (22) 
CN(C)c1ccc(C(=O)Nc2cc(C(=O)[N-]c3ccccc3C#N)n(C)c2)cc1

>  <Energy>  (22) 
90.61757546676982

>  <Genealogy>  (22) 
CN(C)c1ccc(C(=O)Nc2cc(C(=O)[N-]c3ccccc3C#N)n(C)c2)cc1 (protonated)
CN(C)c1ccc(C(=O)Nc2cc(C(=O)[N-]c3ccccc3C#N)n(C)c2)cc1 (3D coordinates assigned)
CN(C)c1ccc(C(=O)Nc2cc(C(=O)[N-]c3ccccc3C#N)n(C)c2)cc1 (optimized conformer: 90.61757546676982 kcal/mol)

>  <smiles>  (22) 
CN(C)c1ccc(C(=O)Nc2cc(C(=O)Nc3ccccc3C#N)n(C)c2)cc1

>  <score_type>  (22) 
oracle

>  <origin>  (22) 
adg

>  <m_score__min__energy>  (22) 
-9.2300000000000004

>  <m_primary>  (22) 
energy

$$$$
22:0
     RDKit          3D

 55 56  0  0  0  0  0  0  0  0999 V2000
   -0.8160   26.7620  -23.7920 C   0  0  0  0  0  0  0  0  0  0  0  0
   -0.4220   25.7560  -24.8820 C   0  0  0  0  0  0  0  0  0  0  0  0
   -1.5450   24.9500  -25.4300 N   0  0  0  0  0  0  0  0  0  0  0  0
   -2.7870   25.6770  -25.7710 C   0  0  0  0  0  0  0  0  0  0  0  0
   -3.7190   24.8020  -26.6050 C   0  0  0  0  0  0  0  0  0  0  0  0
   -1.1490   23.9270  -26.4220 C   0  0  0  0  0  0  0  0  0  0  0  0
    0.1900   24.2170  -27.1070 C   0  0  0  0  0  0  0  0  0  0  0  0
   -0.0400   24.4740  -28.4880 O   0  0  0  0  0  0  0  0  0  0  0  0
   -1.3220   24.5760  -29.0350 C   0  0  0  0  0  0  0  0  0  0  0  0
   -1.9750   25.6520  -28.9470 O   0  0  0  0  0  0  0  0  0  0  0  0
   -1.9130   23.4020  -29.7640 C   0  0  1  0  0  0  0  0  0  0  0  0
   -1.3540   22.0850  -29.2290 C   0  0  0  0  0  0  0  0  0  0  0  0
   -2.4170   21.5390  -28.2780 C   0  0  0  0  0  0  0  0  0  0  0  0
   -3.7250   22.2000  -28.6950 C   0  0  0  0  0  0  0  0  0  0  0  0
   -3.3480   23.3360  -29.5220 N   0  0  0  0  0  0  0  0  0  0  0  0
   -4.2870   24.2750  -30.0750 C   0  0  0  0  0  0  0  0  0  0  0  0
   -3.8610   25.2630  -30.7350 O   0  0  0  0  0  0  0  0  0  0  0  0
   -5.7700   24.0840  -29.8700 C   0  0  0  0  0  0  0  0  0  0  0  0
   -6.5750   24.1790  -31.1720 C   0  0  0  0  0  0  0  0  0  0  0  0
   -7.0330   22.8150  -31.6130 C   0  0  0  0  0  0  0  0  0  0  0  0
   -6.1400   21.9400  -32.2540 C   0  0  0  0  0  0  0  0  0  0  0  0
   -6.5570   20.6600  -32.6310 C   0  0  0  0  0  0  0  0  0  0  0  0
   -7.8630   20.2410  -32.3630 C   0  0  0  0  0  0  0  0  0  0  0  0
   -8.7530   21.1010  -31.7130 C   0  0  0  0  0  0  0  0  0  0  0  0
   -8.3400   22.3820  -31.3340 C   0  0  0  0  0  0  0  0  0  0  0  0
   -0.6415   26.3165  -22.8015 H   0  0  0  0  0  0  0  0  0  0  0  0
   -0.2081   27.6728  -23.8966 H   0  0  0  0  0  0  0  0  0  0  0  0
   -1.8807   27.0177  -23.8966 H   0  0  0  0  0  0  0  0  0  0  0  0
    0.0342   26.3144  -25.7127 H   0  0  0  0  0  0  0  0  0  0  0  0
    0.2654   25.0411  -24.4061 H   0  0  0  0  0  0  0  0  0  0  0  0
   -3.3007   25.9675  -24.8427 H   0  0  0  0  0  0  0  0  0  0  0  0
   -2.5223   26.5683  -26.3588 H   0  0  0  0  0  0  0  0  0  0  0  0
   -4.3560   24.2040  -25.9367 H   0  0  0  0  0  0  0  0  0  0  0  0
   -4.3511   25.4405  -27.2396 H   0  0  0  0  0  0  0  0  0  0  0  0
   -3.1216   24.1309  -27.2396 H   0  0  0  0  0  0  0  0  0  0  0  0
   -1.0733   22.9570  -25.9088 H   0  0  0  0  0  0  0  0  0  0  0  0
   -1.9183   23.9279  -27.2082 H   0  0  0  0  0  0  0  0  0  0  0  0
    0.6591   25.0965  -26.6417 H   0  0  0  0  0  0  0  0  0  0  0  0
    0.8581   23.3500  -26.9974 H   0  0  0  0  0  0  0  0  0  0  0  0
   -1.6728   23.5364  -30.8290 H   0  0  0  0  0  0  0  0  0  0  0  0
   -1.1794   21.3793  -30.0545 H   0  0  0  0  0  0  0  0  0  0  0  0
   -0.3904   22.2310  -28.7190 H   0  0  0  0  0  0  0  0  0  0  0  0
   -2.4923   20.4458  -28.3745 H   0  0  0  0  0  0  0  0  0  0  0  0
   -2.1706   21.7551  -27.2279 H   0  0  0  0  0  0  0  0  0  0  0  0
   -4.3439   21.4958  -29.2704 H   0  0  0  0  0  0  0  0  0  0  0  0
   -4.3172   22.5128  -27.8224 H   0  0  0  0  0  0  0  0  0  0  0  0
   -5.9371   23.0912  -29.4269 H   0  0  0  0  0  0  0  0  0  0  0  0
   -6.1166   24.8933  -29.2105 H   0  0  0  0  0  0  0  0  0  0  0  0
   -7.4539   24.8197  -31.0076 H   0  0  0  0  0  0  0  0  0  0  0  0
   -5.9326   24.6075  -31.9554 H   0  0  0  0  0  0  0  0  0  0  0  0
   -5.1089   22.2633  -32.4600 H   0  0  0  0  0  0  0  0  0  0  0  0
   -5.8560   19.9816  -33.1394 H   0  0  0  0  0  0  0  0  0  0  0  0
   -8.1905   19.2348  -32.6634 H   0  0  0  0  0  0  0  0  0  0  0  0
   -9.7799   20.7694  -31.4993 H   0  0  0  0  0  0  0  0  0  0  0  0
   -9.0408   23.0529  -30.8157 H   0  0  0  0  0  0  0  0  0  0  0  0
  1  2  1  0
  2  3  1  0
  3  4  1  0
  4  5  1  0
  3  6  1  0
  6  7  1  0
  7  8  1  0
  8  9  1  0
  9 10  2  0
  9 11  1  0
 11 12  1  0
 12 13  1  0
 13 14  1  0
 14 15  1  0
 15 16  1  0
 16 17  2  0
 16 18  1  0
 18 19  1  0
 19 20  1  0
 20 21  2  0
 21 22  1  0
 22 23  2  0
 23 24  1  0
 24 25  2  0
 15 11  1  0
 25 20  1  0
  1 26  1  0
  1 27  1  0
  1 28  1  0
  2 29  1  0
  2 30  1  0
  4 31  1  0
  4 32  1  0
  5 33  1  0
  5 34  1  0
  5 35  1  0
  6 36  1  0
  6 37  1  0
  7 38  1  0
  7 39  1  0
 11 40  1  6
 12 41  1  0
 12 42  1  0
 13 43  1  0
 13 44  1  0
 14 45  1  0
 14 46  1  0
 18 47  1  0
 18 48  1  0
 19 49  1  0
 19 50  1  0
 21 51  1  0
 22 52  1  0
 23 53  1  0
 24 54  1  0
 25 55  1  0
M  END
>  <UniqueID>  (23) 
21

>  <SMILES>  (23) 
CCN(CC)CCOC(=O)[C@H]1CCCN1C(=O)CCc1ccccc1

>  <Energy>  (23) 
51.4106188082543

>  <Genealogy>  (23) 
CCN(CC)CCOC(=O)[C@H]1CCCN1C(=O)CCc1ccccc1 (chirality)
CCN(CC)CCOC(=O)[C@H]1CCCN1C(=O)CCc1ccccc1 (3D coordinates assigned)
CCN(CC)CCOC(=O)[C@H]1CCCN1C(=O)CCc1ccccc1 (nonaromatic ring conformer: 51.4106188082543 kcal/mol)

>  <smiles>  (23) 
CCN(CC)CCOC(=O)C1CCCN1C(=O)CCc1ccccc1

>  <score_type>  (23) 
oracle

>  <origin>  (23) 
adg

>  <m_score__min__energy>  (23) 
-8.3399999999999999

>  <m_primary>  (23) 
energy

$$$$
23:0
     RDKit          3D

 60 63  0  0  0  0  0  0  0  0999 V2000
    0.6390   24.3890  -36.0870 C   0  0  0  0  0  0  0  0  0  0  0  0
    0.3870   23.1500  -35.3490 N   0  0  0  0  0  0  0  0  0  0  0  0
    1.5600   22.2600  -35.3470 C   0  0  0  0  0  0  0  0  0  0  0  0
    1.5060   21.1940  -36.4580 C   0  0  0  0  0  0  0  0  0  0  0  0
    1.5510   19.8360  -35.9070 N   0  0  0  0  0  0  0  0  0  0  0  0
    0.4270   19.2070  -35.2600 C   0  0  0  0  0  0  0  0  0  0  0  0
    0.2440   17.8250  -35.4000 C   0  0  0  0  0  0  0  0  0  0  0  0
   -0.8310   17.1840  -34.7830 C   0  0  0  0  0  0  0  0  0  0  0  0
   -1.7870   17.9210  -34.0650 C   0  0  0  0  0  0  0  0  0  0  0  0
   -1.5650   19.3020  -33.8480 C   0  0  0  0  0  0  0  0  0  0  0  0
   -0.4720   19.9360  -34.4600 C   0  0  0  0  0  0  0  0  0  0  0  0
   -2.3720   20.0600  -32.8130 C   0  0  0  0  0  0  0  0  0  0  0  0
   -3.6780   19.5140  -32.6350 O   0  0  0  0  0  0  0  0  0  0  0  0
   -3.9380   18.1620  -32.8510 C   0  0  0  0  0  0  0  0  0  0  0  0
   -5.1240   17.5860  -32.7610 C   0  0  0  0  0  0  0  0  0  0  0  0
   -6.3610   18.2940  -32.3480 C   0  0  0  0  0  0  0  0  0  0  0  0
   -6.9470   17.9560  -31.2830 O   0  0  0  0  0  0  0  0  0  0  0  0
   -6.9270   19.3290  -33.1650 N   0  0  0  0  0  0  0  0  0  0  0  0
   -7.7470   20.3930  -32.6510 C   0  0  0  0  0  0  0  0  0  0  0  0
   -7.1640   21.6370  -32.3660 C   0  0  0  0  0  0  0  0  0  0  0  0
   -7.9370   22.6790  -31.8440 C   0  0  0  0  0  0  0  0  0  0  0  0
   -9.2960   22.4810  -31.5880 C   0  0  0  0  0  0  0  0  0  0  0  0
   -9.8830   21.2400  -31.8490 C   0  0  0  0  0  0  0  0  0  0  0  0
   -9.1130   20.1960  -32.3730 C   0  0  0  0  0  0  0  0  0  0  0  0
   -5.0110   16.1850  -33.3300 C   0  0  0  0  0  0  0  0  0  0  0  0
   -4.8830   15.1520  -32.1870 C   0  0  0  0  0  0  0  0  0  0  0  0
   -6.2540   15.8000  -34.1810 C   0  0  0  0  0  0  0  0  0  0  0  0
   -3.7140   16.1980  -34.0930 N   0  0  0  0  0  0  0  0  0  0  0  0
   -3.8950   16.5850  -35.5180 C   0  0  0  0  0  0  0  0  0  0  0  0
   -2.9190   17.2110  -33.3430 C   0  0  1  0  0  0  0  0  0  0  0  0
    0.8063   25.2116  -35.3762 H   0  0  0  0  0  0  0  0  0  0  0  0
    1.5301   24.2642  -36.7197 H   0  0  0  0  0  0  0  0  0  0  0  0
   -0.2301   24.6222  -36.7197 H   0  0  0  0  0  0  0  0  0  0  0  0
   -0.4380   22.6700  -35.7770 H   0  0  0  0  0  0  0  0  0  0  0  0
    2.4639   22.8704  -35.4899 H   0  0  0  0  0  0  0  0  0  0  0  0
    1.5713   21.7311  -34.3825 H   0  0  0  0  0  0  0  0  0  0  0  0
    0.5722   21.3178  -37.0261 H   0  0  0  0  0  0  0  0  0  0  0  0
    2.3829   21.3303  -37.1079 H   0  0  0  0  0  0  0  0  0  0  0  0
    2.4340   19.2830  -35.9990 H   0  0  0  0  0  0  0  0  0  0  0  0
    0.9546   17.2397  -36.0021 H   0  0  0  0  0  0  0  0  0  0  0  0
   -0.9306   16.0912  -34.8597 H   0  0  0  0  0  0  0  0  0  0  0  0
   -0.3167   21.0149  -34.3124 H   0  0  0  0  0  0  0  0  0  0  0  0
   -1.8389   20.0212  -31.8516 H   0  0  0  0  0  0  0  0  0  0  0  0
   -2.4866   21.0945  -33.1689 H   0  0  0  0  0  0  0  0  0  0  0  0
   -6.8150   19.2530  -34.1990 H   0  0  0  0  0  0  0  0  0  0  0  0
   -6.0917   21.7937  -32.5544 H   0  0  0  0  0  0  0  0  0  0  0  0
   -7.4747   23.6550  -31.6349 H   0  0  0  0  0  0  0  0  0  0  0  0
   -9.9042   23.3022  -31.1809 H   0  0  0  0  0  0  0  0  0  0  0  0
  -10.9520   21.0837  -31.6422 H   0  0  0  0  0  0  0  0  0  0  0  0
   -9.5765   19.2178  -32.5685 H   0  0  0  0  0  0  0  0  0  0  0  0
   -4.9469   15.6680  -31.2176 H   0  0  0  0  0  0  0  0  0  0  0  0
   -5.6968   14.4161  -32.2650 H   0  0  0  0  0  0  0  0  0  0  0  0
   -3.9142   14.6370  -32.2650 H   0  0  0  0  0  0  0  0  0  0  0  0
   -7.0893   15.5413  -33.5137 H   0  0  0  0  0  0  0  0  0  0  0  0
   -6.5418   16.6511  -34.8157 H   0  0  0  0  0  0  0  0  0  0  0  0
   -6.0103   14.9352  -34.8157 H   0  0  0  0  0  0  0  0  0  0  0  0
   -4.3605   17.5802  -35.5714 H   0  0  0  0  0  0  0  0  0  0  0  0
   -2.9156   16.6110  -36.0181 H   0  0  0  0  0  0  0  0  0  0  0  0
   -4.5427   15.8500  -36.0181 H   0  0  0  0  0  0  0  0  0  0  0  0
   -2.3427   16.6908  -32.5637 H   0  0  0  0  0  0  0  0  0  0  0  0
  1  2  1  0
  2  3  1  0
  3  4  1  0
  4  5  1  0
  5  6  1  0
  6  7  2  0
  7  8  1  0
  8  9  2  0
  9 10  1  0
 10 11  2  0
 10 12  1  0
 12 13  1  0
 13 14  1  0
 14 15  2  0
 15 16  1  0
 16 17  2  0
 16 18  1  0
 18 19  1  0
 19 20  2  0
 20 21  1  0
 21 22  2  0
 22 23  1  0
 23 24  2  0
 15 25  1  0
 25 26  1  0
 25 27  1  0
 25 28  1  0
 28 29  1  0
 28 30  1  0
 11  6  1  0
 30 14  1  0
 30  9  1  0
 24 19  1  0
  1 31  1  0
  1 32  1  0
  1 33  1  0
  2 34  1  0
  3 35  1  0
  3 36  1  0
  4 37  1  0
  4 38  1  0
  5 39  1  0
  7 40  1  0
  8 41  1  0
 11 42  1  0
 12 43  1  0
 12 44  1  0
 18 45  1  0
 20 46  1  0
 21 47  1  0
 22 48  1  0
 23 49  1  0
 24 50  1  0
 26 51  1  0
 26 52  1  0
 26 53  1  0
 27 54  1  0
 27 55  1  0
 27 56  1  0
 29 57  1  0
 29 58  1  0
 29 59  1  0
 30 60  1  1
M  END
>  <UniqueID>  (24) 
22

>  <SMILES>  (24) 
CNCCNc1ccc2c(c1)COC1=C(C(=O)Nc3ccccc3)C(C)(C)N(C)[C@H]12

>  <Energy>  (24) 
95.41290945255318

>  <Genealogy>  (24) 
CNCCNc1ccc2c(c1)COC1=C(C(=O)Nc3ccccc3)C(C)(C)N(C)[C@H]12 (chirality)
CNCCNc1ccc2c(c1)COC1=C(C(=O)Nc3ccccc3)C(C)(C)N(C)[C@H]12 (3D coordinates assigned)
CNCCNc1ccc2c(c1)COC1=C(C(=O)Nc3ccccc3)C(C)(C)N(C)[C@H]12 (nonaromatic ring conformer: 95.41290945255318 kcal/mol)

>  <smiles>  (24) 
CNCCNc1ccc2c(c1)COC1=C(C(=O)Nc3ccccc3)C(C)(C)N(C)C12

>  <score_type>  (24) 
oracle

>  <origin>  (24) 
adg

>  <m_score__min__energy>  (24) 
-9.2400000000000002

>  <m_primary>  (24) 
energy

$$$$
24:0
     RDKit          3D

 51 54  0  0  0  0  0  0  0  0999 V2000
   -4.2030   25.7330  -31.8160 H   0  0  0  0  0  0  0  0  0  0  0  0
   -3.9740   25.6780  -30.8310 O   0  0  0  0  0  0  0  0  0  0  0  0
   -3.4530   24.5280  -30.2390 C   0  0  0  0  0  0  0  0  0  0  0  0
   -2.3810   24.6480  -29.4190 N   0  0  0  0  0  0  0  0  0  0  0  0
   -1.8190   23.5730  -28.8110 C   0  0  0  0  0  0  0  0  0  0  0  0
   -0.8260   23.7480  -28.0550 O   0  0  0  0  0  0  0  0  0  0  0  0
   -2.3380   22.3200  -29.0080 N   0  0  0  0  0  0  0  0  0  0  0  0
   -1.7360   21.1800  -28.3600 C   0  0  0  0  0  0  0  0  0  0  0  0
   -0.4570   20.7410  -28.7400 C   0  0  0  0  0  0  0  0  0  0  0  0
    0.0885   21.2668  -29.5375 H   0  0  0  0  0  0  0  0  0  0  0  0
    0.1250   19.6380  -28.1080 C   0  0  0  0  0  0  0  0  0  0  0  0
    1.1263   19.2969  -28.4096 H   0  0  0  0  0  0  0  0  0  0  0  0
   -0.5640   18.9690  -27.0940 C   0  0  0  0  0  0  0  0  0  0  0  0
   -0.1039   18.1023  -26.5969 H   0  0  0  0  0  0  0  0  0  0  0  0
   -1.8370   19.3990  -26.7100 C   0  0  0  0  0  0  0  0  0  0  0  0
   -2.3783   18.8702  -25.9116 H   0  0  0  0  0  0  0  0  0  0  0  0
   -2.4230   20.5010  -27.3400 C   0  0  0  0  0  0  0  0  0  0  0  0
   -3.4252   20.8374  -27.0360 H   0  0  0  0  0  0  0  0  0  0  0  0
   -3.4270   22.1520  -29.8230 C   0  0  0  0  0  0  0  0  0  0  0  0
   -3.9190   21.0000  -29.9970 O   0  0  0  0  0  0  0  0  0  0  0  0
   -4.0000   23.2580  -30.4790 C   0  0  0  0  0  0  0  0  0  0  0  0
   -5.1890   23.0960  -31.3410 C   0  0  0  0  0  0  0  0  0  0  0  0
   -5.6804   24.0121  -31.7006 H   0  0  0  0  0  0  0  0  0  0  0  0
   -5.7210   21.9180  -31.7230 C   0  0  0  0  0  0  0  0  0  0  0  0
   -7.0480   21.5900  -31.4960 C   0  0  0  0  0  0  0  0  0  0  0  0
   -7.8149   22.2375  -31.0459 H   0  0  0  0  0  0  0  0  0  0  0  0
   -7.2240   20.2970  -31.9420 C   0  0  0  0  0  0  0  0  0  0  0  0
   -8.5150   19.5400  -31.8670 C   0  0  0  0  0  0  0  0  0  0  0  0
   -8.7861   19.3810  -30.8129 H   0  0  0  0  0  0  0  0  0  0  0  0
   -9.3076   20.1164  -32.3665 H   0  0  0  0  0  0  0  0  0  0  0  0
   -8.3990   18.5669  -32.3665 H   0  0  0  0  0  0  0  0  0  0  0  0
   -6.0740   19.8210  -32.4700 N   0  0  0  0  0  0  0  0  0  0  0  0
   -5.8880   18.5100  -33.0340 C   0  0  0  0  0  0  0  0  0  0  0  0
   -6.0740   18.2970  -34.4080 C   0  0  0  0  0  0  0  0  0  0  0  0
   -6.3586   19.1364  -35.0595 H   0  0  0  0  0  0  0  0  0  0  0  0
   -5.8990   17.0230  -34.9510 C   0  0  0  0  0  0  0  0  0  0  0  0
   -6.0457   16.8608  -36.0290 H   0  0  0  0  0  0  0  0  0  0  0  0
   -5.5380   15.9540  -34.1280 C   0  0  0  0  0  0  0  0  0  0  0  0
   -5.4018   14.9526  -34.5624 H   0  0  0  0  0  0  0  0  0  0  0  0
   -5.3480   16.1470  -32.7540 C   0  0  0  0  0  0  0  0  0  0  0  0
   -4.9830   15.0430  -31.9700 O   0  0  0  0  0  0  0  0  0  0  0  0
   -4.4820   13.8160  -32.4940 C   0  0  0  0  0  0  0  0  0  0  0  0
   -4.2090   13.1473  -31.6644 H   0  0  0  0  0  0  0  0  0  0  0  0
   -5.2567   13.3373  -33.1110 H   0  0  0  0  0  0  0  0  0  0  0  0
   -3.5937   14.0163  -33.1110 H   0  0  0  0  0  0  0  0  0  0  0  0
   -5.5280   17.4340  -32.2090 C   0  0  0  0  0  0  0  0  0  0  0  0
   -5.3854   17.5959  -31.1304 H   0  0  0  0  0  0  0  0  0  0  0  0
   -5.1460   20.8070  -32.3640 C   0  0  0  0  0  0  0  0  0  0  0  0
   -3.9220   20.7270  -32.9150 C   0  0  0  0  0  0  0  0  0  0  0  0
   -3.5924   19.7907  -33.3891 H   0  0  0  0  0  0  0  0  0  0  0  0
   -3.2504   21.5978  -32.8917 H   0  0  0  0  0  0  0  0  0  0  0  0
  1  2  1  0
  2  3  1  0
  3  4  1  0
  4  5  1  0
  5  6  2  0
  5  7  1  0
  7  8  1  0
  8  9  2  0
  9 10  1  0
  9 11  1  0
 11 12  1  0
 11 13  2  0
 13 14  1  0
 13 15  1  0
 15 16  1  0
 15 17  2  0
 17 18  1  0
  7 19  1  0
 19 20  2  0
 19 21  1  0
 21 22  1  0
 22 23  1  0
 22 24  2  0
 24 25  1  0
 25 26  1  0
 25 27  2  0
 27 28  1  0
 28 29  1  0
 28 30  1  0
 28 31  1  0
 27 32  1  0
 32 33  1  0
 33 34  2  0
 34 35  1  0
 34 36  1  0
 36 37  1  0
 36 38  2  0
 38 39  1  0
 38 40  1  0
 40 41  1  0
 41 42  1  0
 42 43  1  0
 42 44  1  0
 42 45  1  0
 40 46  2  0
 46 47  1  0
 32 48  1  0
 48 49  2  0
 49 50  1  0
 49 51  1  0
 21  3  2  0
 48 24  1  0
 17  8  1  0
 46 33  1  0
M  CHG  1   4  -1
M  END
>  <UniqueID>  (25) 
23

>  <SMILES>  (25) 
C=c1/c(=C\c2c(O)[n-]c(=O)n(-c3ccccc3)c2=O)cc(C)n1-c1cccc(OC)c1

>  <Energy>  (25) 
113.31092241636262

>  <Genealogy>  (25) 
C=c1c(=Cc2c(O)[n-]c(=O)n(-c3ccccc3)c2=O)cc(C)n1-c1cccc(OC)c1 (protonated)
C=c1/c(=C\c2c(O)[n-]c(=O)n(-c3ccccc3)c2=O)cc(C)n1-c1cccc(OC)c1 (cis-trans isomerization)
C=c1/c(=C\c2c(O)[n-]c(=O)n(-c3ccccc3)c2=O)cc(C)n1-c1cccc(OC)c1 (3D coordinates assigned)
C=c1/c(=C\c2c(O)[n-]c(=O)n(-c3ccccc3)c2=O)cc(C)n1-c1cccc(OC)c1 (optimized conformer: 113.31092241636262 kcal/mol)

>  <smiles>  (25) 
C=c1c(=Cc2c(O)[nH]c(=O)n(-c3ccccc3)c2=O)cc(C)n1-c1cccc(OC)c1

>  <score_type>  (25) 
oracle

>  <origin>  (25) 
adg

>  <m_score__min__energy>  (25) 
-10.85

>  <m_primary>  (25) 
energy

$$$$
25:0
     RDKit          3D

 76 80  0  0  0  0  0  0  0  0999 V2000
    0.5240   21.5720  -35.6020 C   0  0  0  0  0  0  0  0  0  0  0  0
    0.8940   20.3910  -36.4910 C   0  0  0  0  0  0  0  0  0  0  0  0
    1.4940   19.3190  -35.6850 N   0  0  0  0  0  0  0  0  0  0  0  0
    0.6580   19.0060  -34.5080 C   0  0  2  0  0  0  0  0  0  0  0  0
    1.4070   18.0320  -33.5490 C   0  0  0  0  0  0  0  0  0  0  0  0
    0.6940   16.6870  -33.3380 C   0  0  0  0  0  0  0  0  0  0  0  0
   -0.7730   16.8930  -32.9420 C   0  0  0  0  0  0  0  0  0  0  0  0
   -1.4240   17.8800  -33.8090 N   0  0  0  0  0  0  0  0  0  0  0  0
   -2.8290   18.1220  -33.6690 C   0  0  0  0  0  0  0  0  0  0  0  0
   -3.2560   19.3070  -33.1570 N   0  0  0  0  0  0  0  0  0  0  0  0
   -4.5730   19.5460  -32.9300 C   0  0  0  0  0  0  0  0  0  0  0  0
   -4.9900   20.7760  -32.4120 C   0  0  0  0  0  0  0  0  0  0  0  0
   -6.3530   21.0190  -32.1780 C   0  0  0  0  0  0  0  0  0  0  0  0
   -6.7670   22.3420  -31.6680 C   0  0  0  0  0  0  0  0  0  0  0  0
   -7.9970   22.5790  -31.5260 O   0  0  0  0  0  0  0  0  0  0  0  0
   -5.7970   23.3430  -31.3020 N   0  0  0  0  0  0  0  0  0  0  0  0
   -6.0790   24.7580  -31.5580 C   0  0  0  0  0  0  0  0  0  0  0  0
   -5.3610   25.6310  -30.5240 C   0  0  0  0  0  0  0  0  0  0  0  0
   -3.9870   25.2980  -30.4560 O   0  0  0  0  0  0  0  0  0  0  0  0
   -3.8410   23.9820  -29.9570 C   0  0  0  0  0  0  0  0  0  0  0  0
   -4.4290   22.9590  -30.9340 C   0  0  0  0  0  0  0  0  0  0  0  0
   -7.2950   19.9980  -32.4270 C   0  0  0  0  0  0  0  0  0  0  0  0
   -8.9970   20.1930  -32.0230 Cl  0  0  0  0  0  0  0  0  0  0  0  0
   -6.8740   18.7710  -32.9520 C   0  0  0  0  0  0  0  0  0  0  0  0
   -5.5160   18.5400  -33.2120 C   0  0  0  0  0  0  0  0  0  0  0  0
   -5.0940   17.3550  -33.7330 N   0  0  0  0  0  0  0  0  0  0  0  0
   -3.7740   17.1250  -33.9850 C   0  0  0  0  0  0  0  0  0  0  0  0
   -3.3750   15.9020  -34.6230 N   0  0  0  0  0  0  0  0  0  0  0  0
   -3.0270   14.7330  -33.8130 C   0  0  0  0  0  0  0  0  0  0  0  0
   -1.7590   14.0220  -34.3370 C   0  0  0  0  0  0  0  0  0  0  0  0
   -1.4940   14.2040  -35.8040 N   0  0  0  0  0  0  0  0  0  0  0  0
   -0.9210   12.9500  -36.3530 C   0  0  0  0  0  0  0  0  0  0  0  0
   -0.4920   15.2820  -36.0110 C   0  0  0  0  0  0  0  0  0  0  0  0
   -2.7440   14.5060  -36.5570 C   0  0  0  0  0  0  0  0  0  0  0  0
   -3.4060   15.8080  -36.0820 C   0  0  0  0  0  0  0  0  0  0  0  0
   -0.7070   18.4420  -34.9570 C   0  0  0  0  0  0  0  0  0  0  0  0
    0.6159   21.2788  -34.5458 H   0  0  0  0  0  0  0  0  0  0  0  0
    1.2016   22.4134  -35.8092 H   0  0  0  0  0  0  0  0  0  0  0  0
   -0.5125   21.8764  -35.8092 H   0  0  0  0  0  0  0  0  0  0  0  0
   -0.0118   20.0104  -36.9856 H   0  0  0  0  0  0  0  0  0  0  0  0
    1.6218   20.7235  -37.2458 H   0  0  0  0  0  0  0  0  0  0  0  0
    1.5450   18.4720  -36.3020 H   0  0  0  0  0  0  0  0  0  0  0  0
    0.4651   19.9318  -33.9462 H   0  0  0  0  0  0  0  0  0  0  0  0
    2.4039   17.8323  -33.9690 H   0  0  0  0  0  0  0  0  0  0  0  0
    1.4507   18.5253  -32.5668 H   0  0  0  0  0  0  0  0  0  0  0  0
    0.7355   16.1084  -34.2726 H   0  0  0  0  0  0  0  0  0  0  0  0
    1.2017   16.1475  -32.5249 H   0  0  0  0  0  0  0  0  0  0  0  0
   -1.3054   15.9342  -33.0273 H   0  0  0  0  0  0  0  0  0  0  0  0
   -0.8050   17.2644  -31.9071 H   0  0  0  0  0  0  0  0  0  0  0  0
   -4.2477   21.5560  -32.1870 H   0  0  0  0  0  0  0  0  0  0  0  0
   -5.7269   25.0230  -32.5659 H   0  0  0  0  0  0  0  0  0  0  0  0
   -7.1631   24.9291  -31.4844 H   0  0  0  0  0  0  0  0  0  0  0  0
   -5.4626   26.6881  -30.8109 H   0  0  0  0  0  0  0  0  0  0  0  0
   -5.8162   25.4579  -29.5377 H   0  0  0  0  0  0  0  0  0  0  0  0
   -2.7718   23.7683  -29.8119 H   0  0  0  0  0  0  0  0  0  0  0  0
   -4.3808   23.9063  -29.0015 H   0  0  0  0  0  0  0  0  0  0  0  0
   -3.8057   22.9204  -31.8395 H   0  0  0  0  0  0  0  0  0  0  0  0
   -4.4494   21.9705  -30.4519 H   0  0  0  0  0  0  0  0  0  0  0  0
   -7.6128   17.9835  -33.1618 H   0  0  0  0  0  0  0  0  0  0  0  0
   -5.7920   16.6140  -33.9680 H   0  0  0  0  0  0  0  0  0  0  0  0
   -2.8492   15.0587  -32.7775 H   0  0  0  0  0  0  0  0  0  0  0  0
   -3.8632   14.0205  -33.8681 H   0  0  0  0  0  0  0  0  0  0  0  0
   -0.8936   14.4133  -33.7821 H   0  0  0  0  0  0  0  0  0  0  0  0
   -1.9229   12.9451  -34.1839 H   0  0  0  0  0  0  0  0  0  0  0  0
   -0.6200   12.2912  -35.5251 H   0  0  0  0  0  0  0  0  0  0  0  0
   -1.6761   12.4414  -36.9704 H   0  0  0  0  0  0  0  0  0  0  0  0
   -0.0422   13.1879  -36.9704 H   0  0  0  0  0  0  0  0  0  0  0  0
   -0.1465   15.6537  -35.0351 H   0  0  0  0  0  0  0  0  0  0  0  0
    0.3639   14.8836  -36.5756 H   0  0  0  0  0  0  0  0  0  0  0  0
   -0.9518   16.1065  -36.5756 H   0  0  0  0  0  0  0  0  0  0  0  0
   -2.4999   14.6017  -37.6253 H   0  0  0  0  0  0  0  0  0  0  0  0
   -3.4521   13.6828  -36.3809 H   0  0  0  0  0  0  0  0  0  0  0  0
   -2.8656   16.6649  -36.5105 H   0  0  0  0  0  0  0  0  0  0  0  0
   -4.4546   15.8129  -36.4142 H   0  0  0  0  0  0  0  0  0  0  0  0
   -0.5456   17.6531  -35.7064 H   0  0  0  0  0  0  0  0  0  0  0  0
   -1.3064   19.2555  -35.3917 H   0  0  0  0  0  0  0  0  0  0  0  0
  1  2  1  0
  2  3  1  0
  3  4  1  0
  4  5  1  0
  5  6  1  0
  6  7  1  0
  7  8  1  0
  8  9  1  0
  9 10  2  0
 10 11  1  0
 11 12  2  0
 12 13  1  0
 13 14  1  0
 14 15  2  0
 14 16  1  0
 16 17  1  0
 17 18  1  0
 18 19  1  0
 19 20  1  0
 20 21  1  0
 13 22  2  0
 22 23  1  0
 22 24  1  0
 24 25  2  0
 25 26  1  0
 26 27  2  0
 27 28  1  0
 28 29  1  0
 29 30  1  0
 30 31  1  0
 31 32  1  0
 31 33  1  0
 31 34  1  0
 34 35  1  0
  8 36  1  0
 36  4  1  0
 27  9  1  0
 35 28  1  0
 25 11  1  0
 21 16  1  0
  1 37  1  0
  1 38  1  0
  1 39  1  0
  2 40  1  0
  2 41  1  0
  3 42  1  0
  4 43  1  1
  5 44  1  0
  5 45  1  0
  6 46  1  0
  6 47  1  0
  7 48  1  0
  7 49  1  0
 12 50  1  0
 17 51  1  0
 17 52  1  0
 18 53  1  0
 18 54  1  0
 20 55  1  0
 20 56  1  0
 21 57  1  0
 21 58  1  0
 24 59  1  0
 26 60  1  0
 29 61  1  0
 29 62  1  0
 30 63  1  0
 30 64  1  0
 32 65  1  0
 32 66  1  0
 32 67  1  0
 33 68  1  0
 33 69  1  0
 33 70  1  0
 34 71  1  0
 34 72  1  0
 35 73  1  0
 35 74  1  0
 36 75  1  0
 36 76  1  0
M  CHG  2  26   1  31   1
M  END
>  <UniqueID>  (26) 
24

>  <SMILES>  (26) 
CCN[C@@H]1CCCN(c2nc3cc(C(=O)N4CCOCC4)c(Cl)cc3[nH+]c2N2CC[N+](C)(C)CC2)C1

>  <Energy>  (26) 
110.1181667917215

>  <Genealogy>  (26) 
CCNC1CCCN(c2nc3cc(C(=O)N4CCOCC4)c(Cl)cc3[nH+]c2N2CC[N+](C)(C)CC2)C1 (protonated)
CCN[C@@H]1CCCN(c2nc3cc(C(=O)N4CCOCC4)c(Cl)cc3[nH+]c2N2CC[N+](C)(C)CC2)C1 (chirality)
CCN[C@@H]1CCCN(c2nc3cc(C(=O)N4CCOCC4)c(Cl)cc3[nH+]c2N2CC[N+](C)(C)CC2)C1 (3D coordinates assigned)
CCN[C@@H]1CCCN(c2nc3cc(C(=O)N4CCOCC4)c(Cl)cc3[nH+]c2N2CC[N+](C)(C)CC2)C1 (nonaromatic ring conformer: 110.1181667917215 kcal/mol)

>  <smiles>  (26) 
CCNC1CCCN(c2nc3cc(C(=O)N4CCOCC4)c(Cl)cc3nc2N2CC[N+](C)(C)CC2)C1

>  <score_type>  (26) 
oracle

>  <origin>  (26) 
adg

>  <m_score__min__energy>  (26) 
-7.9800000000000004

>  <m_primary>  (26) 
energy

$$$$
26:0
     RDKit          3D

 47 49  0  0  0  0  0  0  0  0999 V2000
   -9.8330   21.3410  -31.9650 C   0  0  0  0  0  0  0  0  0  0  0  0
   -8.8760   22.5330  -31.9530 C   0  0  0  0  0  0  0  0  0  0  0  0
   -7.4650   22.1300  -31.7250 N   0  0  0  0  0  0  0  0  0  0  0  0
   -7.0150   22.6730  -30.4180 C   0  0  0  0  0  0  0  0  0  0  0  0
   -6.7490   24.1740  -30.5000 C   0  0  0  0  0  0  0  0  0  0  0  0
   -7.2980   20.6500  -31.7770 C   0  0  0  0  0  0  0  0  0  0  0  0
   -6.2690   20.2420  -32.8530 C   0  0  0  0  0  0  0  0  0  0  0  0
   -5.3990   21.3570  -33.2630 N   0  0  0  0  0  0  0  0  0  0  0  0
   -4.2860   21.5050  -32.3630 C   0  0  0  0  0  0  0  0  0  0  0  0
   -4.1370   22.4970  -31.5240 O   0  0  0  0  0  0  0  0  0  0  0  0
   -3.0220   22.2680  -30.8600 C   0  0  0  0  0  0  0  0  0  0  0  0
   -2.5070   23.1710  -29.8040 C   0  0  0  0  0  0  0  0  0  0  0  0
   -1.6150   22.6700  -28.8440 C   0  0  0  0  0  0  0  0  0  0  0  0
   -1.1170   23.5150  -27.8490 C   0  0  0  0  0  0  0  0  0  0  0  0
   -0.2210   23.0520  -26.8730 C   0  0  0  0  0  0  0  0  0  0  0  0
    0.2550   23.9280  -25.8920 C   0  0  0  0  0  0  0  0  0  0  0  0
   -0.1570   25.2650  -25.8830 C   0  0  0  0  0  0  0  0  0  0  0  0
   -1.0480   25.7310  -26.8550 C   0  0  0  0  0  0  0  0  0  0  0  0
   -1.5320   24.8620  -27.8390 C   0  0  0  0  0  0  0  0  0  0  0  0
   -2.3820   25.3070  -28.7590 O   0  0  0  0  0  0  0  0  0  0  0  0
   -2.8760   24.5320  -29.7210 C   0  0  0  0  0  0  0  0  0  0  0  0
   -3.6800   25.0340  -30.5500 O   0  0  0  0  0  0  0  0  0  0  0  0
   -2.4130   21.1200  -31.2450 N   0  0  0  0  0  0  0  0  0  0  0  0
   -3.2280   20.6410  -32.2010 C   0  0  0  0  0  0  0  0  0  0  0  0
   -3.0110   19.4050  -32.9010 C   0  0  0  0  0  0  0  0  0  0  0  0
   -2.8340   18.4090  -33.4620 N   0  0  0  0  0  0  0  0  0  0  0  0
  -10.0676   21.0487  -30.9308 H   0  0  0  0  0  0  0  0  0  0  0  0
  -10.7604   21.6205  -32.4864 H   0  0  0  0  0  0  0  0  0  0  0  0
   -9.3596   20.4960  -32.4864 H   0  0  0  0  0  0  0  0  0  0  0  0
   -8.9430   23.0484  -32.9225 H   0  0  0  0  0  0  0  0  0  0  0  0
   -9.1731   23.1905  -31.1227 H   0  0  0  0  0  0  0  0  0  0  0  0
   -7.7962   22.4886  -29.6658 H   0  0  0  0  0  0  0  0  0  0  0  0
   -6.0774   22.1701  -30.1386 H   0  0  0  0  0  0  0  0  0  0  0  0
   -6.6754   24.5894  -29.4841 H   0  0  0  0  0  0  0  0  0  0  0  0
   -5.8056   24.3504  -31.0375 H   0  0  0  0  0  0  0  0  0  0  0  0
   -7.5743   24.6638  -31.0375 H   0  0  0  0  0  0  0  0  0  0  0  0
   -6.9517   20.2933  -30.7958 H   0  0  0  0  0  0  0  0  0  0  0  0
   -8.2678   20.1987  -32.0335 H   0  0  0  0  0  0  0  0  0  0  0  0
   -5.6395   19.4353  -32.4493 H   0  0  0  0  0  0  0  0  0  0  0  0
   -6.8303   19.9162  -33.7412 H   0  0  0  0  0  0  0  0  0  0  0  0
   -5.0300   21.1690  -34.2230 H   0  0  0  0  0  0  0  0  0  0  0  0
   -5.9350   22.2520  -33.3040 H   0  0  0  0  0  0  0  0  0  0  0  0
   -1.3083   21.6141  -28.8746 H   0  0  0  0  0  0  0  0  0  0  0  0
    0.1064   22.0019  -26.8795 H   0  0  0  0  0  0  0  0  0  0  0  0
    0.9553   23.5647  -25.1254 H   0  0  0  0  0  0  0  0  0  0  0  0
    0.2205   25.9507  -25.1102 H   0  0  0  0  0  0  0  0  0  0  0  0
   -1.3690   26.7831  -26.8459 H   0  0  0  0  0  0  0  0  0  0  0  0
  1  2  1  0
  2  3  1  0
  3  4  1  0
  4  5  1  0
  3  6  1  0
  6  7  1  0
  7  8  1  0
  8  9  1  0
  9 10  1  0
 10 11  1  0
 11 12  1  0
 12 13  2  0
 13 14  1  0
 14 15  2  0
 15 16  1  0
 16 17  2  0
 17 18  1  0
 18 19  2  0
 19 20  1  0
 20 21  1  0
 21 22  2  0
 11 23  2  0
 23 24  1  0
 24 25  1  0
 25 26  3  0
 24  9  2  0
 21 12  1  0
 19 14  1  0
  1 27  1  0
  1 28  1  0
  1 29  1  0
  2 30  1  0
  2 31  1  0
  4 32  1  0
  4 33  1  0
  5 34  1  0
  5 35  1  0
  5 36  1  0
  6 37  1  0
  6 38  1  0
  7 39  1  0
  7 40  1  0
  8 41  1  0
  8 42  1  0
 13 43  1  0
 15 44  1  0
 16 45  1  0
 17 46  1  0
 18 47  1  0
M  CHG  1   8   1
M  END
>  <UniqueID>  (27) 
25

>  <SMILES>  (27) 
CCN(CC)CC[NH2+]c1oc(-c2cc3ccccc3oc2=O)nc1C#N

>  <Energy>  (27) 
84.61856779372903

>  <Genealogy>  (27) 
CCN(CC)CC[NH2+]c1oc(-c2cc3ccccc3oc2=O)nc1C#N (protonated)
CCN(CC)CC[NH2+]c1oc(-c2cc3ccccc3oc2=O)nc1C#N (3D coordinates assigned)
CCN(CC)CC[NH2+]c1oc(-c2cc3ccccc3oc2=O)nc1C#N (optimized conformer: 84.61856779372903 kcal/mol)

>  <smiles>  (27) 
CCN(CC)CCNc1oc(-c2cc3ccccc3oc2=O)nc1C#N

>  <score_type>  (27) 
oracle

>  <origin>  (27) 
adg

>  <m_score__min__energy>  (27) 
-7.0999999999999996

>  <m_primary>  (27) 
energy

$$$$
27:0
     RDKit          3D

 29 31  0  0  0  0  0  0  0  0999 V2000
   -5.2430   25.6860  -30.4940 C   0  0  0  0  0  0  0  0  0  0  0  0
   -3.8940   25.2310  -30.5300 O   0  0  0  0  0  0  0  0  0  0  0  0
   -3.2900   24.4460  -29.5350 C   0  0  0  0  0  0  0  0  0  0  0  0
   -2.2020   24.9220  -28.7750 C   0  0  0  0  0  0  0  0  0  0  0  0
   -1.6030   24.1090  -27.8100 C   0  0  0  0  0  0  0  0  0  0  0  0
   -2.0810   22.8180  -27.5890 C   0  0  0  0  0  0  0  0  0  0  0  0
   -3.1610   22.3360  -28.3300 C   0  0  0  0  0  0  0  0  0  0  0  0
   -3.7750   23.1410  -29.3050 C   0  0  0  0  0  0  0  0  0  0  0  0
   -4.8990   22.6340  -30.0460 N   0  0  0  0  0  0  0  0  0  0  0  0
   -6.5060   22.9570  -29.7240 S   0  0  0  0  0  0  0  0  0  0  0  0
   -7.1870   22.0130  -30.9180 C   0  0  0  0  0  0  0  0  0  0  0  0
   -8.5210   21.8020  -31.2440 C   0  0  0  0  0  0  0  0  0  0  0  0
   -8.8040   20.9410  -32.3160 C   0  0  0  0  0  0  0  0  0  0  0  0
   -7.7570   20.3180  -33.0270 C   0  0  0  0  0  0  0  0  0  0  0  0
   -6.4160   20.5510  -32.6740 C   0  0  0  0  0  0  0  0  0  0  0  0
   -6.1410   21.4090  -31.6040 C   0  0  0  0  0  0  0  0  0  0  0  0
   -4.8740   21.7690  -31.1010 C   0  0  0  0  0  0  0  0  0  0  0  0
   -3.7960   21.3390  -31.5970 O   0  0  0  0  0  0  0  0  0  0  0  0
   -5.5655   25.7948  -29.4480 H   0  0  0  0  0  0  0  0  0  0  0  0
   -5.3157   26.6584  -31.0031 H   0  0  0  0  0  0  0  0  0  0  0  0
   -5.8898   24.9563  -31.0031 H   0  0  0  0  0  0  0  0  0  0  0  0
   -1.8223   25.9406  -28.9432 H   0  0  0  0  0  0  0  0  0  0  0  0
   -0.7529   24.4878  -27.2236 H   0  0  0  0  0  0  0  0  0  0  0  0
   -1.6065   22.1788  -26.8299 H   0  0  0  0  0  0  0  0  0  0  0  0
   -3.5349   21.3174  -28.1495 H   0  0  0  0  0  0  0  0  0  0  0  0
   -9.3283   22.2931  -30.6810 H   0  0  0  0  0  0  0  0  0  0  0  0
   -9.8487   20.7510  -32.6034 H   0  0  0  0  0  0  0  0  0  0  0  0
   -7.9915   19.6444  -33.8644 H   0  0  0  0  0  0  0  0  0  0  0  0
   -5.5985   20.0676  -33.2289 H   0  0  0  0  0  0  0  0  0  0  0  0
  1  2  1  0
  2  3  1  0
  3  4  2  0
  4  5  1  0
  5  6  2  0
  6  7  1  0
  7  8  2  0
  8  9  1  0
  9 10  1  0
 10 11  1  0
 11 12  2  0
 12 13  1  0
 13 14  2  0
 14 15  1  0
 15 16  2  0
 16 17  1  0
 17 18  2  0
  8  3  1  0
 17  9  1  0
 16 11  1  0
  1 19  1  0
  1 20  1  0
  1 21  1  0
  4 22  1  0
  5 23  1  0
  6 24  1  0
  7 25  1  0
 12 26  1  0
 13 27  1  0
 14 28  1  0
 15 29  1  0
M  END
>  <UniqueID>  (28) 
26

>  <SMILES>  (28) 
COc1ccccc1-n1sc2ccccc2c1=O

>  <Energy>  (28) 
77.00485945004348

>  <Genealogy>  (28) 
COc1ccccc1-n1sc2ccccc2c1=O (3D coordinates assigned)
COc1ccccc1-n1sc2ccccc2c1=O (optimized conformer: 77.00485945004348 kcal/mol)

>  <smiles>  (28) 
COc1ccccc1-n1sc2ccccc2c1=O

>  <score_type>  (28) 
oracle

>  <origin>  (28) 
adg

>  <m_score__min__energy>  (28) 
-7.1200000000000001

>  <m_primary>  (28) 
energy

$$$$
28:0
     RDKit          3D

 57 60  0  0  0  0  0  0  0  0999 V2000
   -6.1200   25.8700  -29.7210 C   0  0  0  0  0  0  0  0  0  0  0  0
   -4.8450   25.4800  -30.4840 C   0  0  0  0  0  0  0  0  0  0  0  0
   -4.7280   24.0350  -30.7800 N   0  0  0  0  0  0  0  0  0  0  0  0
   -3.3610   23.4760  -30.6730 C   0  0  0  0  0  0  0  0  0  0  0  0
   -3.3730   22.0450  -30.1400 C   0  0  0  0  0  0  0  0  0  0  0  0
   -5.8370   23.1900  -30.2730 C   0  0  0  0  0  0  0  0  0  0  0  0
   -7.0700   23.1040  -31.1970 C   0  0  0  0  0  0  0  0  0  0  0  0
   -6.7400   22.4920  -32.4880 N   0  0  0  0  0  0  0  0  0  0  0  0
   -6.7830   21.0670  -32.7050 C   0  0  0  0  0  0  0  0  0  0  0  0
   -8.0040   20.3840  -32.5500 C   0  0  0  0  0  0  0  0  0  0  0  0
   -8.0750   19.0040  -32.6910 C   0  0  0  0  0  0  0  0  0  0  0  0
   -6.9300   18.2710  -32.9750 C   0  0  0  0  0  0  0  0  0  0  0  0
   -5.6920   18.9120  -33.1370 C   0  0  0  0  0  0  0  0  0  0  0  0
   -5.6060   20.3240  -33.0210 C   0  0  0  0  0  0  0  0  0  0  0  0
   -4.2840   20.9760  -33.2720 C   0  0  0  0  0  0  0  0  0  0  0  0
   -4.1900   22.2300  -33.3380 O   0  0  0  0  0  0  0  0  0  0  0  0
   -3.0670   20.1580  -33.4880 C   0  0  0  0  0  0  0  0  0  0  0  0
   -1.8080   20.7730  -33.6310 C   0  0  0  0  0  0  0  0  0  0  0  0
   -0.6510   20.0030  -33.8350 C   0  0  0  0  0  0  0  0  0  0  0  0
    0.6390   20.6170  -33.9980 N   0  0  0  0  0  0  0  0  0  0  0  0
    0.8900   21.7580  -34.8290 C   0  0  0  0  0  0  0  0  0  0  0  0
   -0.0460   22.4810  -35.3380 N   0  0  0  0  0  0  0  0  0  0  0  0
    0.5450   23.5900  -36.0790 C   0  0  0  0  0  0  0  0  0  0  0  0
    2.0630   23.4310  -35.8980 C   0  0  0  0  0  0  0  0  0  0  0  0
    2.1930   22.2360  -35.0880 N   0  0  0  0  0  0  0  0  0  0  0  0
   -0.7660   18.6130  -33.9370 C   0  0  0  0  0  0  0  0  0  0  0  0
   -2.0080   17.9920  -33.7990 C   0  0  0  0  0  0  0  0  0  0  0  0
   -3.1650   18.7570  -33.5690 C   0  0  0  0  0  0  0  0  0  0  0  0
   -4.4830   18.1030  -33.4260 C   0  0  0  0  0  0  0  0  0  0  0  0
   -4.5770   16.8510  -33.5450 O   0  0  0  0  0  0  0  0  0  0  0  0
   -5.9317   25.8124  -28.6388 H   0  0  0  0  0  0  0  0  0  0  0  0
   -6.4079   26.8973  -29.9889 H   0  0  0  0  0  0  0  0  0  0  0  0
   -6.9333   25.1796  -29.9889 H   0  0  0  0  0  0  0  0  0  0  0  0
   -4.8331   26.0286  -31.4374 H   0  0  0  0  0  0  0  0  0  0  0  0
   -3.9976   25.7365  -29.8313 H   0  0  0  0  0  0  0  0  0  0  0  0
   -2.8955   23.4807  -31.6696 H   0  0  0  0  0  0  0  0  0  0  0  0
   -2.7915   24.0987  -29.9673 H   0  0  0  0  0  0  0  0  0  0  0  0
   -3.3728   22.0634  -29.0402 H   0  0  0  0  0  0  0  0  0  0  0  0
   -4.2755   21.5280  -30.4980 H   0  0  0  0  0  0  0  0  0  0  0  0
   -2.4793   21.5129  -30.4980 H   0  0  0  0  0  0  0  0  0  0  0  0
   -5.4494   22.1711  -30.1264 H   0  0  0  0  0  0  0  0  0  0  0  0
   -6.1836   23.6650  -29.3434 H   0  0  0  0  0  0  0  0  0  0  0  0
   -7.8439   22.4982  -30.7030 H   0  0  0  0  0  0  0  0  0  0  0  0
   -7.4292   24.1266  -31.3847 H   0  0  0  0  0  0  0  0  0  0  0  0
   -6.1790   23.0640  -33.1570 H   0  0  0  0  0  0  0  0  0  0  0  0
   -8.9159   20.9518  -32.3136 H   0  0  0  0  0  0  0  0  0  0  0  0
   -9.0409   18.4901  -32.5774 H   0  0  0  0  0  0  0  0  0  0  0  0
   -6.9941   17.1773  -33.0739 H   0  0  0  0  0  0  0  0  0  0  0  0
   -1.7298   21.8691  -33.5824 H   0  0  0  0  0  0  0  0  0  0  0  0
    1.4290   20.2710  -33.4060 H   0  0  0  0  0  0  0  0  0  0  0  0
    0.2750   23.5301  -37.1437 H   0  0  0  0  0  0  0  0  0  0  0  0
    0.1872   24.5647  -35.7157 H   0  0  0  0  0  0  0  0  0  0  0  0
    2.5618   23.3015  -36.8698 H   0  0  0  0  0  0  0  0  0  0  0  0
    2.5299   24.3119  -35.4333 H   0  0  0  0  0  0  0  0  0  0  0  0
    3.0860   21.8130  -34.7500 H   0  0  0  0  0  0  0  0  0  0  0  0
    0.1301   18.0041  -34.1276 H   0  0  0  0  0  0  0  0  0  0  0  0
   -2.0823   16.8969  -33.8706 H   0  0  0  0  0  0  0  0  0  0  0  0
  1  2  1  0
  2  3  1  0
  3  4  1  0
  4  5  1  0
  3  6  1  0
  6  7  1  0
  7  8  1  0
  8  9  1  0
  9 10  2  0
 10 11  1  0
 11 12  2  0
 12 13  1  0
 13 14  2  0
 14 15  1  0
 15 16  2  0
 15 17  1  0
 17 18  2  0
 18 19  1  0
 19 20  1  0
 20 21  1  0
 21 22  2  0
 22 23  1  0
 23 24  1  0
 24 25  1  0
 19 26  2  0
 26 27  1  0
 27 28  2  0
 28 29  1  0
 29 30  2  0
 14  9  1  0
 28 17  1  0
 29 13  1  0
 25 21  1  0
  1 31  1  0
  1 32  1  0
  1 33  1  0
  2 34  1  0
  2 35  1  0
  4 36  1  0
  4 37  1  0
  5 38  1  0
  5 39  1  0
  5 40  1  0
  6 41  1  0
  6 42  1  0
  7 43  1  0
  7 44  1  0
  8 45  1  0
 10 46  1  0
 11 47  1  0
 12 48  1  0
 18 49  1  0
 20 50  1  0
 23 51  1  0
 23 52  1  0
 24 53  1  0
 24 54  1  0
 25 55  1  0
 26 56  1  0
 27 57  1  0
M  END
>  <UniqueID>  (29) 
27

>  <SMILES>  (29) 
CCN(CC)CCNc1cccc2c1C(=O)c1cc(NC3=NCCN3)ccc1C2=O

>  <Energy>  (29) 
91.73575864418983

>  <Genealogy>  (29) 
CCN(CC)CCNc1cccc2c1C(=O)c1cc(NC3=NCCN3)ccc1C2=O (3D coordinates assigned)
CCN(CC)CCNc1cccc2c1C(=O)c1cc(NC3=NCCN3)ccc1C2=O (nonaromatic ring conformer: 91.73575864418983 kcal/mol)

>  <smiles>  (29) 
CCN(CC)CCNc1cccc2c1C(=O)c1cc(NC3=NCCN3)ccc1C2=O

>  <score_type>  (29) 
oracle

>  <origin>  (29) 
adg

>  <m_score__min__energy>  (29) 
-9.3100000000000005

>  <m_primary>  (29) 
energy

$$$$
29:0
     RDKit          3D

 44 48  0  0  0  0  0  0  0  0999 V2000
   -4.7692   13.3033  -34.1900 H   0  0  0  0  0  0  0  0  0  0  0  0
   -5.0670   14.3610  -34.1400 C   0  0  0  0  0  0  0  0  0  0  0  0
   -6.4200   14.7040  -34.1910 C   0  0  0  0  0  0  0  0  0  0  0  0
   -7.1801   13.9153  -34.2916 H   0  0  0  0  0  0  0  0  0  0  0  0
   -6.8150   16.0440  -34.1150 C   0  0  0  0  0  0  0  0  0  0  0  0
   -7.8828   16.3047  -34.1580 H   0  0  0  0  0  0  0  0  0  0  0  0
   -5.8520   17.0560  -33.9840 C   0  0  0  0  0  0  0  0  0  0  0  0
   -4.4580   16.7010  -33.9650 C   0  0  0  0  0  0  0  0  0  0  0  0
   -3.4870   17.6570  -33.7950 N   0  0  0  0  0  0  0  0  0  0  0  0
   -3.8320   18.9690  -33.8170 C   0  0  0  0  0  0  0  0  0  0  0  0
   -3.2350   19.9990  -33.1170 C   0  0  0  0  0  0  0  0  0  0  0  0
   -2.1824   20.0644  -32.8044 H   0  0  0  0  0  0  0  0  0  0  0  0
   -4.2450   20.9450  -32.8860 C   0  0  0  0  0  0  0  0  0  0  0  0
   -3.9670   22.1560  -32.4950 N   0  0  0  0  0  0  0  0  0  0  0  0
   -3.3660   22.5640  -31.2280 C   0  0  0  0  0  0  0  0  0  0  0  0
   -2.4607   23.1556  -31.4291 H   0  0  0  0  0  0  0  0  0  0  0  0
   -3.1067   21.6659  -30.6482 H   0  0  0  0  0  0  0  0  0  0  0  0
   -4.3620   23.4170  -30.4160 C   0  0  0  0  0  0  0  0  0  0  0  0
   -3.8188   23.8615  -29.5690 H   0  0  0  0  0  0  0  0  0  0  0  0
   -5.1697   22.7363  -30.1091 H   0  0  0  0  0  0  0  0  0  0  0  0
   -5.0110   24.5140  -31.1720 N   0  0  0  0  0  0  0  0  0  0  0  0
   -5.3670   25.6680  -30.3310 C   0  0  0  0  0  0  0  0  0  0  0  0
   -5.2810   25.3892  -29.2704 H   0  0  0  0  0  0  0  0  0  0  0  0
   -4.6848   26.5034  -30.5470 H   0  0  0  0  0  0  0  0  0  0  0  0
   -6.4013   25.9739  -30.5470 H   0  0  0  0  0  0  0  0  0  0  0  0
   -6.1550   24.0740  -31.9840 C   0  0  0  0  0  0  0  0  0  0  0  0
   -6.9749   23.7587  -31.3219 H   0  0  0  0  0  0  0  0  0  0  0  0
   -6.4954   24.9054  -32.6188 H   0  0  0  0  0  0  0  0  0  0  0  0
   -5.8506   23.2288  -32.6188 H   0  0  0  0  0  0  0  0  0  0  0  0
   -5.4450   20.5230  -33.3850 N   0  0  0  0  0  0  0  0  0  0  0  0
   -5.1930   19.3610  -33.9830 C   0  0  0  0  0  0  0  0  0  0  0  0
   -6.1860   18.4260  -33.8810 C   0  0  0  0  0  0  0  0  0  0  0  0
   -7.1740   19.0750  -33.1380 C   0  0  0  0  0  0  0  0  0  0  0  0
   -8.3190   18.5710  -32.5120 C   0  0  0  0  0  0  0  0  0  0  0  0
   -8.6839   17.5582  -32.7380 H   0  0  0  0  0  0  0  0  0  0  0  0
   -8.9910   19.3860  -31.5900 C   0  0  0  0  0  0  0  0  0  0  0  0
   -9.9261   19.0342  -31.1298 H   0  0  0  0  0  0  0  0  0  0  0  0
   -8.4780   20.6490  -31.2500 C   0  0  0  0  0  0  0  0  0  0  0  0
   -9.0125   21.2750  -30.5203 H   0  0  0  0  0  0  0  0  0  0  0  0
   -7.2920   21.1200  -31.8310 C   0  0  0  0  0  0  0  0  0  0  0  0
   -6.8624   22.0851  -31.5245 H   0  0  0  0  0  0  0  0  0  0  0  0
   -6.6650   20.3380  -32.8090 C   0  0  0  0  0  0  0  0  0  0  0  0
   -4.0900   15.3520  -34.0260 C   0  0  0  0  0  0  0  0  0  0  0  0
   -3.0272   15.0715  -33.9840 H   0  0  0  0  0  0  0  0  0  0  0  0
  1  2  1  0
  2  3  2  0
  3  4  1  0
  3  5  1  0
  5  6  1  0
  5  7  2  0
  7  8  1  0
  8  9  1  0
  9 10  1  0
 10 11  2  0
 11 12  1  0
 11 13  1  0
 13 14  2  0
 14 15  1  0
 15 16  1  0
 15 17  1  0
 15 18  1  0
 18 19  1  0
 18 20  1  0
 18 21  1  0
 21 22  1  0
 22 23  1  0
 22 24  1  0
 22 25  1  0
 21 26  1  0
 26 27  1  0
 26 28  1  0
 26 29  1  0
 13 30  1  0
 30 31  1  0
 31 32  2  0
 32 33  1  0
 33 34  2  0
 34 35  1  0
 34 36  1  0
 36 37  1  0
 36 38  2  0
 38 39  1  0
 38 40  1  0
 40 41  1  0
 40 42  2  0
  8 43  2  0
 43 44  1  0
 43  2  1  0
 32  7  1  0
 42 33  1  0
 31 10  1  0
 42 30  1  0
M  CHG  1   9  -1
M  END
>  <UniqueID>  (30) 
28

>  <SMILES>  (30) 
CN(C)CC/N=c1/cc2[n-]c3ccccc3c3c-2n1c1ccccc31

>  <Energy>  (30) 
183.8952301125588

>  <Genealogy>  (30) 
CN(C)CCN=c1cc2[n-]c3ccccc3c3c-2n1c1ccccc31 (protonated)
CN(C)CC/N=c1/cc2[n-]c3ccccc3c3c-2n1c1ccccc31 (cis-trans isomerization)
CN(C)CC/N=c1/cc2[n-]c3ccccc3c3c-2n1c1ccccc31 (3D coordinates assigned)
CN(C)CC/N=c1/cc2[n-]c3ccccc3c3c-2n1c1ccccc31 (optimized conformer: 183.8952301125588 kcal/mol)

>  <smiles>  (30) 
CN(C)CCN=c1cc2[nH]c3ccccc3c3c-2n1c1ccccc31

>  <score_type>  (30) 
oracle

>  <origin>  (30) 
adg

>  <m_score__min__energy>  (30) 
-8.9800000000000004

>  <m_primary>  (30) 
energy

$$$$
30:0
     RDKit          3D

 59 63  0  0  1  0  0  0  0  0999 V2000
   -0.8440   21.1530  -34.0500 C   0  0  0  0  0  0  0  0  0  0  0  0
   -2.1750   21.1320  -33.7930 O   0  0  0  0  0  0  0  0  0  0  0  0
   -2.7830   19.9360  -33.5080 C   0  0  0  0  0  0  0  0  0  0  0  0
   -1.8670   19.0670  -32.6780 C   0  0  0  0  0  0  0  0  0  0  0  0
   -1.5250   19.5140  -31.4580 O   0  0  0  0  0  0  0  0  0  0  0  0
   -1.5390   20.6010  -30.6950 C   0  0  0  0  0  0  0  0  0  0  0  0
   -2.3400   21.7420  -30.8330 C   0  0  0  0  0  0  0  0  0  0  0  0
   -2.1930   22.7610  -29.9310 C   0  0  0  0  0  0  0  0  0  0  0  0
   -2.9550   23.9110  -30.0230 C   0  0  0  0  0  0  0  0  0  0  0  0
   -3.8340   24.0030  -30.8590 N   0  0  0  0  0  0  0  0  0  0  0  0
   -4.9300   23.3360  -31.2370 C   0  0  0  0  0  0  0  0  0  0  0  0
   -4.8760   22.4750  -32.3600 C   0  0  0  0  0  0  0  0  0  0  0  0
   -5.9070   21.6380  -32.6730 C   0  0  0  0  0  0  0  0  0  0  0  0
   -7.0490   21.6190  -31.8750 C   0  0  0  0  0  0  0  0  0  0  0  0
   -7.1340   22.4550  -30.7670 C   0  0  0  0  0  0  0  0  0  0  0  0
   -8.3700   22.1800  -30.1980 C   0  0  0  0  0  0  0  0  0  0  0  0
   -9.0030   21.2040  -30.9510 C   0  0  0  0  0  0  0  0  0  0  0  0
   -8.1750   20.8740  -31.9740 N   0  0  0  0  0  0  0  0  0  0  0  0
   -8.4530   19.8770  -33.0140 C   0  0  0  0  0  0  0  0  0  0  0  0
   -7.3310   18.8690  -33.0060 C   0  0  0  0  0  0  0  0  0  0  0  0
   -7.1640   18.0390  -31.8990 C   0  0  0  0  0  0  0  0  0  0  0  0
   -6.1280   17.1340  -31.9310 C   0  0  0  0  0  0  0  0  0  0  0  0
   -5.2570   17.0140  -33.0010 C   0  0  0  0  0  0  0  0  0  0  0  0
   -5.4750   17.8700  -34.0740 C   0  0  0  0  0  0  0  0  0  0  0  0
   -6.4830   18.7500  -34.0430 N   0  0  0  0  0  0  0  0  0  0  0  0
   -6.0900   23.3200  -30.4290 C   0  0  0  0  0  0  0  0  0  0  0  0
   -2.7910   24.9180  -29.1320 N   0  0  0  0  0  0  0  0  0  0  0  0
   -1.9080   24.8510  -28.1380 C   0  0  0  0  0  0  0  0  0  0  0  0
   -1.1530   23.7550  -28.0080 N   0  0  0  0  0  0  0  0  0  0  0  0
   -1.2980   22.7480  -28.8810 C   0  0  0  0  0  0  0  0  0  0  0  0
   -0.5160   21.6470  -28.7350 C   0  0  0  0  0  0  0  0  0  0  0  0
   -0.6610   20.6380  -29.6250 C   0  0  0  0  0  0  0  0  0  0  0  0
    0.1400   19.5140  -29.4660 O   0  0  0  0  0  0  0  0  0  0  0  0
   -0.1320   18.5810  -28.4660 C   0  0  0  0  0  0  0  0  0  0  0  0
   -0.2875   21.1618  -33.1012 H   0  0  0  0  0  0  0  0  0  0  0  0
   -0.5681   20.2591  -34.6286 H   0  0  0  0  0  0  0  0  0  0  0  0
   -0.5965   22.0552  -34.6286 H   0  0  0  0  0  0  0  0  0  0  0  0
   -3.7104   20.1248  -32.9474 H   0  0  0  0  0  0  0  0  0  0  0  0
   -3.0116   19.4171  -34.4506 H   0  0  0  0  0  0  0  0  0  0  0  0
   -2.3656   18.0955  -32.5451 H   0  0  0  0  0  0  0  0  0  0  0  0
   -0.9223   19.0381  -33.2408 H   0  0  0  0  0  0  0  0  0  0  0  0
   -3.0726   21.8175  -31.6501 H   0  0  0  0  0  0  0  0  0  0  0  0
   -3.9791   22.4812  -32.9968 H   0  0  0  0  0  0  0  0  0  0  0  0
   -5.8369   20.9806  -33.5521 H   0  0  0  0  0  0  0  0  0  0  0  0
   -8.7800   22.6587  -29.2965 H   0  0  0  0  0  0  0  0  0  0  0  0
   -9.9966   20.7746  -30.7549 H   0  0  0  0  0  0  0  0  0  0  0  0
   -9.4082   19.3739  -32.8029 H   0  0  0  0  0  0  0  0  0  0  0  0
   -8.5237   20.3620  -33.9988 H   0  0  0  0  0  0  0  0  0  0  0  0
   -7.8363   18.1050  -31.0308 H   0  0  0  0  0  0  0  0  0  0  0  0
   -5.9845   16.4730  -31.0636 H   0  0  0  0  0  0  0  0  0  0  0  0
   -4.4370   16.2808  -33.0016 H   0  0  0  0  0  0  0  0  0  0  0  0
   -4.8157   17.8240  -34.9533 H   0  0  0  0  0  0  0  0  0  0  0  0
   -6.1692   23.9767  -29.5501 H   0  0  0  0  0  0  0  0  0  0  0  0
   -1.8007   25.6875  -27.4318 H   0  0  0  0  0  0  0  0  0  0  0  0
   -0.4670   23.7200  -27.2210 H   0  0  0  0  0  0  0  0  0  0  0  0
    0.2150   21.5775  -27.9159 H   0  0  0  0  0  0  0  0  0  0  0  0
    0.0046   19.0497  -27.4803 H   0  0  0  0  0  0  0  0  0  0  0  0
   -1.1699   18.2300  -28.5644 H   0  0  0  0  0  0  0  0  0  0  0  0
    0.5546   17.7273  -28.5644 H   0  0  0  0  0  0  0  0  0  0  0  0
  1  2  1  0
  2  3  1  0
  3  4  1  0
  4  5  1  0
  5  6  1  0
  6  7  2  0
  7  8  1  0
  8  9  1  0
  9 10  2  0
 10 11  1  0
 11 12  2  0
 12 13  1  0
 13 14  2  0
 14 15  1  0
 15 16  1  0
 16 17  2  0
 17 18  1  0
 18 19  1  0
 19 20  1  0
 20 21  2  0
 21 22  1  0
 22 23  2  0
 23 24  1  0
 24 25  2  0
 15 26  2  0
  9 27  1  0
 27 28  2  0
 28 29  1  0
 29 30  1  0
 30 31  1  0
 31 32  2  0
 32 33  1  0
 33 34  1  0
 32  6  1  0
 30  8  2  0
 26 11  1  0
 18 14  1  0
 25 20  1  0
  1 35  1  0
  1 36  1  0
  1 37  1  0
  3 38  1  0
  3 39  1  0
  4 40  1  0
  4 41  1  0
  7 42  1  0
 12 43  1  0
 13 44  1  0
 16 45  1  0
 17 46  1  0
 19 47  1  0
 19 48  1  0
 21 49  1  0
 22 50  1  0
 23 51  1  0
 24 52  1  0
 26 53  1  0
 28 54  1  0
 29 55  1  0
 31 56  1  0
 34 57  1  0
 34 58  1  0
 34 59  1  0
M  END
>  <smiles>  (31) 
COCCOc1cc2c(=Nc3ccc4c(ccn4Cc4ccccn4)c3)nc[nH]c2cc1OC

>  <score_type>  (31) 
oracle

>  <origin>  (31) 
adg

>  <m_score__min__energy>  (31) 
-8.9000000000000004

>  <m_primary>  (31) 
energy

$$$$
31:0
     RDKit          3D

 31 30  0  0  0  0  0  0  0  0999 V2000
   -6.7440   17.4890  -32.6180 C   0  0  0  0  0  0  0  0  0  0  0  0
   -6.5050   18.8330  -33.1640 N   0  0  0  0  0  0  0  0  0  0  0  0
   -6.0680   18.7890  -34.5680 C   0  0  0  0  0  0  0  0  0  0  0  0
   -5.6850   19.7130  -32.2970 C   0  0  0  0  0  0  0  0  0  0  0  0
   -5.5320   21.1840  -32.7530 C   0  0  0  0  0  0  0  0  0  0  0  0
   -6.0960   22.2070  -31.7570 C   0  0  0  0  0  0  0  0  0  0  0  0
   -7.6000   22.4280  -31.9820 C   0  0  0  0  0  0  0  0  0  0  0  0
   -8.4640   21.2970  -31.3930 C   0  0  0  0  0  0  0  0  0  0  0  0
   -9.5270   20.7290  -32.3520 C   0  0  0  0  0  0  0  0  0  0  0  0
   -8.9950   19.6620  -33.2040 N   0  0  0  0  0  0  0  0  0  0  0  0
   -6.7362   17.5330  -31.5189 H   0  0  0  0  0  0  0  0  0  0  0  0
   -7.7216   17.1215  -32.9633 H   0  0  0  0  0  0  0  0  0  0  0  0
   -5.9530   16.8070  -32.9633 H   0  0  0  0  0  0  0  0  0  0  0  0
   -4.9743   18.6789  -34.6083 H   0  0  0  0  0  0  0  0  0  0  0  0
   -6.5415   17.9340  -35.0728 H   0  0  0  0  0  0  0  0  0  0  0  0
   -6.3615   19.7212  -35.0728 H   0  0  0  0  0  0  0  0  0  0  0  0
   -6.1442   19.7191  -31.2975 H   0  0  0  0  0  0  0  0  0  0  0  0
   -4.6698   19.2908  -32.3311 H   0  0  0  0  0  0  0  0  0  0  0  0
   -4.4614   21.3929  -32.8948 H   0  0  0  0  0  0  0  0  0  0  0  0
   -6.1105   21.2915  -33.6824 H   0  0  0  0  0  0  0  0  0  0  0  0
   -5.9365   21.8372  -30.7334 H   0  0  0  0  0  0  0  0  0  0  0  0
   -5.5760   23.1645  -31.9079 H   0  0  0  0  0  0  0  0  0  0  0  0
   -7.8909   23.3764  -31.5067 H   0  0  0  0  0  0  0  0  0  0  0  0
   -7.7733   22.4459  -33.0681 H   0  0  0  0  0  0  0  0  0  0  0  0
   -7.7958   20.4748  -31.0972 H   0  0  0  0  0  0  0  0  0  0  0  0
   -9.0134   21.7359  -30.5471 H   0  0  0  0  0  0  0  0  0  0  0  0
  -10.3597   20.3248  -31.7576 H   0  0  0  0  0  0  0  0  0  0  0  0
   -9.8606   21.5474  -33.0069 H   0  0  0  0  0  0  0  0  0  0  0  0
   -8.6120   18.8850  -32.6180 H   0  0  0  0  0  0  0  0  0  0  0  0
   -9.7440   19.2980  -33.8370 H   0  0  0  0  0  0  0  0  0  0  0  0
   -8.2250   20.0500  -33.7940 H   0  0  0  0  0  0  0  0  0  0  0  0
  1  2  1  0
  2  3  1  0
  2  4  1  0
  4  5  1  0
  5  6  1  0
  6  7  1  0
  7  8  1  0
  8  9  1  0
  9 10  1  0
  1 11  1  0
  1 12  1  0
  1 13  1  0
  3 14  1  0
  3 15  1  0
  3 16  1  0
  4 17  1  0
  4 18  1  0
  5 19  1  0
  5 20  1  0
  6 21  1  0
  6 22  1  0
  7 23  1  0
  7 24  1  0
  8 25  1  0
  8 26  1  0
  9 27  1  0
  9 28  1  0
 10 29  1  0
 10 30  1  0
 10 31  1  0
M  CHG  1  10   1
M  END
>  <UniqueID>  (32) 
29

>  <SMILES>  (32) 
CN(C)CCCCCC[NH3+]

>  <Energy>  (32) 
24.05977107195634

>  <Genealogy>  (32) 
CN(C)CCCCCC[NH3+] (protonated)
CN(C)CCCCCC[NH3+] (3D coordinates assigned)
CN(C)CCCCCC[NH3+] (optimized conformer: 24.05977107195634 kcal/mol)

>  <smiles>  (32) 
CN(C)CCCCCCN

>  <score_type>  (32) 
oracle

>  <origin>  (32) 
adg

>  <m_score__min__energy>  (32) 
-4.2199999999999998

>  <m_primary>  (32) 
energy

$$$$
32:0
     RDKit          3D

 42 44  0  0  0  0  0  0  0  0999 V2000
   -8.7390   18.8670  -31.8070 C   0  0  0  0  0  0  0  0  0  0  0  0
   -7.5880   19.5470  -32.5370 C   0  0  0  0  0  0  0  0  0  0  0  0
   -7.6180   20.9920  -32.3060 N   0  0  0  0  0  0  0  0  0  0  0  0
   -8.6980   21.7070  -31.9490 C   0  0  0  0  0  0  0  0  0  0  0  0
   -8.3110   23.0190  -31.7910 C   0  0  0  0  0  0  0  0  0  0  0  0
   -6.9900   23.1320  -32.0340 N   0  0  0  0  0  0  0  0  0  0  0  0
   -6.5940   21.8760  -32.3320 C   0  0  0  0  0  0  0  0  0  0  0  0
   -5.1710   21.5440  -32.6940 C   0  0  0  0  0  0  0  0  0  0  0  0
   -4.2470   21.9500  -31.6150 N   0  0  0  0  0  0  0  0  0  0  0  0
   -2.9010   22.2070  -32.1700 C   0  0  0  0  0  0  0  0  0  0  0  0
   -1.7900   22.2020  -31.0930 C   0  0  0  0  0  0  0  0  0  0  0  0
   -2.3020   22.3760  -29.7170 N   0  0  0  0  0  0  0  0  0  0  0  0
   -2.4170   23.7810  -29.2710 C   0  0  0  0  0  0  0  0  0  0  0  0
   -3.7230   24.4180  -29.6480 C   0  0  0  0  0  0  0  0  0  0  0  0
   -4.9440   24.1690  -29.0520 C   0  0  0  0  0  0  0  0  0  0  0  0
   -5.8500   24.9650  -29.7190 C   0  0  0  0  0  0  0  0  0  0  0  0
   -5.1290   25.6440  -30.6810 C   0  0  0  0  0  0  0  0  0  0  0  0
   -3.8630   25.2990  -30.6110 O   0  0  0  0  0  0  0  0  0  0  0  0
   -3.4400   21.5040  -29.3450 C   0  0  0  0  0  0  0  0  0  0  0  0
   -4.1760   20.9270  -30.5610 C   0  0  0  0  0  0  0  0  0  0  0  0
   -8.5881   18.9561  -30.7210 H   0  0  0  0  0  0  0  0  0  0  0  0
   -9.6869   19.3502  -32.0864 H   0  0  0  0  0  0  0  0  0  0  0  0
   -8.7732   17.8036  -32.0864 H   0  0  0  0  0  0  0  0  0  0  0  0
   -6.6347   19.1409  -32.1678 H   0  0  0  0  0  0  0  0  0  0  0  0
   -7.6884   19.3566  -33.6157 H   0  0  0  0  0  0  0  0  0  0  0  0
   -9.7151   21.3127  -31.8075 H   0  0  0  0  0  0  0  0  0  0  0  0
   -8.9775   23.8476  -31.5097 H   0  0  0  0  0  0  0  0  0  0  0  0
   -5.0834   20.4593  -32.8547 H   0  0  0  0  0  0  0  0  0  0  0  0
   -4.9039   22.0897  -33.6110 H   0  0  0  0  0  0  0  0  0  0  0  0
   -2.6733   21.4272  -32.9117 H   0  0  0  0  0  0  0  0  0  0  0  0
   -2.9176   23.2106  -32.6199 H   0  0  0  0  0  0  0  0  0  0  0  0
   -1.2568   21.2414  -31.1473 H   0  0  0  0  0  0  0  0  0  0  0  0
   -1.1311   23.0573  -31.3037 H   0  0  0  0  0  0  0  0  0  0  0  0
   -2.3180   23.8090  -28.1758 H   0  0  0  0  0  0  0  0  0  0  0  0
   -1.6201   24.3489  -29.7735 H   0  0  0  0  0  0  0  0  0  0  0  0
   -5.1500   23.4800  -28.2197 H   0  0  0  0  0  0  0  0  0  0  0  0
   -6.9298   25.0435  -29.5242 H   0  0  0  0  0  0  0  0  0  0  0  0
   -5.5505   26.3645  -31.3974 H   0  0  0  0  0  0  0  0  0  0  0  0
   -3.0585   20.6698  -28.7380 H   0  0  0  0  0  0  0  0  0  0  0  0
   -4.1595   22.1220  -28.7879 H   0  0  0  0  0  0  0  0  0  0  0  0
   -3.6316   20.0484  -30.9374 H   0  0  0  0  0  0  0  0  0  0  0  0
   -5.1932   20.6272  -30.2686 H   0  0  0  0  0  0  0  0  0  0  0  0
  1  2  1  0
  2  3  1  0
  3  4  1  0
  4  5  2  0
  5  6  1  0
  6  7  2  0
  7  8  1  0
  8  9  1  0
  9 10  1  0
 10 11  1  0
 11 12  1  0
 12 13  1  0
 13 14  1  0
 14 15  2  0
 15 16  1  0
 16 17  2  0
 17 18  1  0
 12 19  1  0
 19 20  1  0
  7  3  1  0
 20  9  1  0
 18 14  1  0
  1 21  1  0
  1 22  1  0
  1 23  1  0
  2 24  1  0
  2 25  1  0
  4 26  1  0
  5 27  1  0
  8 28  1  0
  8 29  1  0
 10 30  1  0
 10 31  1  0
 11 32  1  0
 11 33  1  0
 13 34  1  0
 13 35  1  0
 15 36  1  0
 16 37  1  0
 17 38  1  0
 19 39  1  0
 19 40  1  0
 20 41  1  0
 20 42  1  0
M  END
>  <UniqueID>  (33) 
30

>  <SMILES>  (33) 
CCn1ccnc1CN1CCN(Cc2ccco2)CC1

>  <Energy>  (33) 
105.88132816505218

>  <Genealogy>  (33) 
CCn1ccnc1CN1CCN(Cc2ccco2)CC1 (3D coordinates assigned)
CCn1ccnc1CN1CCN(Cc2ccco2)CC1 (nonaromatic ring conformer: 105.88132816505218 kcal/mol)

>  <smiles>  (33) 
CCn1ccnc1CN1CCN(Cc2ccco2)CC1

>  <score_type>  (33) 
oracle

>  <origin>  (33) 
adg

>  <m_score__min__energy>  (33) 
-7.4900000000000002

>  <m_primary>  (33) 
energy

$$$$
33:0
     RDKit          3D

 33 34  0  0  0  0  0  0  0  0999 V2000
   -9.4610   22.8490  -31.9800 C   0  0  0  0  0  0  0  0  0  0  0  0
   -8.1230   22.2650  -31.8380 N   0  0  0  0  0  0  0  0  0  0  0  0
   -6.9890   23.0990  -31.5110 C   0  0  0  0  0  0  0  0  0  0  0  0
   -5.8930   22.9300  -32.1130 O   0  0  0  0  0  0  0  0  0  0  0  0
   -7.0650   24.1600  -30.4480 C   0  0  0  0  0  0  0  0  0  0  0  0
   -5.8660   24.1290  -29.6120 N   0  0  0  0  0  0  0  0  0  0  0  0
   -4.6080   24.6620  -30.0510 C   0  0  0  0  0  0  0  0  0  0  0  0
   -4.5120   25.2200  -31.1770 O   0  0  0  0  0  0  0  0  0  0  0  0
   -3.4200   24.5540  -29.1920 C   0  0  0  0  0  0  0  0  0  0  0  0
   -3.2640   23.6860  -28.1290 C   0  0  0  0  0  0  0  0  0  0  0  0
   -2.0070   23.9390  -27.6240 C   0  0  0  0  0  0  0  0  0  0  0  0
   -1.4750   24.9430  -28.4070 C   0  0  0  0  0  0  0  0  0  0  0  0
   -2.3390   25.2880  -29.3330 O   0  0  0  0  0  0  0  0  0  0  0  0
   -7.9210   20.8700  -32.1350 C   0  0  0  0  0  0  0  0  0  0  0  0
   -8.6850   19.8820  -31.4880 C   0  0  0  0  0  0  0  0  0  0  0  0
   -8.4830   18.5300  -31.7790 C   0  0  0  0  0  0  0  0  0  0  0  0
   -7.5150   18.1520  -32.7130 C   0  0  0  0  0  0  0  0  0  0  0  0
   -6.7480   19.1250  -33.3590 C   0  0  0  0  0  0  0  0  0  0  0  0
   -5.8020   18.7570  -34.2580 F   0  0  0  0  0  0  0  0  0  0  0  0
   -6.9510   20.4790  -33.0730 C   0  0  0  0  0  0  0  0  0  0  0  0
   -9.8875   23.0352  -30.9833 H   0  0  0  0  0  0  0  0  0  0  0  0
   -9.3902   23.7981  -32.5316 H   0  0  0  0  0  0  0  0  0  0  0  0
  -10.1087   22.1518  -32.5316 H   0  0  0  0  0  0  0  0  0  0  0  0
   -7.1483   25.1471  -30.9262 H   0  0  0  0  0  0  0  0  0  0  0  0
   -7.9458   23.9709  -29.8167 H   0  0  0  0  0  0  0  0  0  0  0  0
   -5.9430   23.7280  -28.6510 H   0  0  0  0  0  0  0  0  0  0  0  0
   -3.9914   22.9469  -27.7621 H   0  0  0  0  0  0  0  0  0  0  0  0
   -1.5252   23.4413  -26.7695 H   0  0  0  0  0  0  0  0  0  0  0  0
   -0.4774   25.3872  -28.2751 H   0  0  0  0  0  0  0  0  0  0  0  0
   -9.4454   20.1750  -30.7491 H   0  0  0  0  0  0  0  0  0  0  0  0
   -9.0867   17.7627  -31.2722 H   0  0  0  0  0  0  0  0  0  0  0  0
   -7.3566   17.0874  -32.9400 H   0  0  0  0  0  0  0  0  0  0  0  0
   -6.3474   21.2424  -33.5857 H   0  0  0  0  0  0  0  0  0  0  0  0
  1  2  1  0
  2  3  1  0
  3  4  2  0
  3  5  1  0
  5  6  1  0
  6  7  1  0
  7  8  2  0
  7  9  1  0
  9 10  2  0
 10 11  1  0
 11 12  2  0
 12 13  1  0
  2 14  1  0
 14 15  2  0
 15 16  1  0
 16 17  2  0
 17 18  1  0
 18 19  1  0
 18 20  2  0
 13  9  1  0
 20 14  1  0
  1 21  1  0
  1 22  1  0
  1 23  1  0
  5 24  1  0
  5 25  1  0
  6 26  1  0
 10 27  1  0
 11 28  1  0
 12 29  1  0
 15 30  1  0
 16 31  1  0
 17 32  1  0
 20 33  1  0
M  END
>  <UniqueID>  (34) 
31

>  <SMILES>  (34) 
CN(C(=O)CNC(=O)c1ccco1)c1cccc(F)c1

>  <Energy>  (34) 
60.81709145981382

>  <Genealogy>  (34) 
CN(C(=O)CNC(=O)c1ccco1)c1cccc(F)c1 (3D coordinates assigned)
CN(C(=O)CNC(=O)c1ccco1)c1cccc(F)c1 (optimized conformer: 60.81709145981382 kcal/mol)

>  <smiles>  (34) 
CN(C(=O)CNC(=O)c1ccco1)c1cccc(F)c1

>  <score_type>  (34) 
oracle

>  <origin>  (34) 
adg

>  <m_score__min__energy>  (34) 
-8.2100000000000009

>  <m_primary>  (34) 
energy

$$$$
34:0
     RDKit          3D

 41 41  0  0  0  0  0  0  0  0999 V2000
   -5.7560   17.0510  -34.5280 C   0  0  0  0  0  0  0  0  0  0  0  0
   -5.7000   18.5530  -34.7790 C   0  0  0  0  0  0  0  0  0  0  0  0
   -5.9910   19.2800  -33.5230 N   0  0  0  0  0  0  0  0  0  0  0  0
   -7.3810   19.0710  -33.0580 C   0  0  0  0  0  0  0  0  0  0  0  0
   -7.4230   18.4030  -31.6850 C   0  0  0  0  0  0  0  0  0  0  0  0
   -4.9370   19.1430  -32.4840 C   0  0  0  0  0  0  0  0  0  0  0  0
   -3.5450   19.7080  -32.8500 C   0  0  0  0  0  0  0  0  0  0  0  0
   -3.4330   21.2320  -32.6970 C   0  0  0  0  0  0  0  0  0  0  0  0
   -4.5860   21.9030  -33.3140 N   0  0  0  0  0  0  0  0  0  0  0  0
   -5.4780   22.3950  -32.2910 C   0  0  0  0  0  0  0  0  0  0  0  0
   -6.8470   22.0760  -32.3340 C   0  0  0  0  0  0  0  0  0  0  0  0
   -7.7300   22.5810  -31.3670 C   0  0  0  0  0  0  0  0  0  0  0  0
   -9.1800   22.1980  -31.3950 C   0  0  0  0  0  0  0  0  0  0  0  0
   -7.2330   23.3960  -30.3380 C   0  0  0  0  0  0  0  0  0  0  0  0
   -5.8780   23.7290  -30.2960 C   0  0  0  0  0  0  0  0  0  0  0  0
   -5.0020   23.2400  -31.2700 C   0  0  0  0  0  0  0  0  0  0  0  0
   -3.6920   23.5900  -31.2190 F   0  0  0  0  0  0  0  0  0  0  0  0
   -5.7631   16.8603  -33.4447 H   0  0  0  0  0  0  0  0  0  0  0  0
   -6.6702   16.6377  -34.9791 H   0  0  0  0  0  0  0  0  0  0  0  0
   -4.8751   16.5708  -34.9791 H   0  0  0  0  0  0  0  0  0  0  0  0
   -4.6962   18.8269  -35.1358 H   0  0  0  0  0  0  0  0  0  0  0  0
   -6.4486   18.8236  -35.5382 H   0  0  0  0  0  0  0  0  0  0  0  0
   -7.8865   20.0460  -32.9957 H   0  0  0  0  0  0  0  0  0  0  0  0
   -7.8872   18.4098  -33.7767 H   0  0  0  0  0  0  0  0  0  0  0  0
   -7.3746   19.1730  -30.9010 H   0  0  0  0  0  0  0  0  0  0  0  0
   -8.3587   17.8338  -31.5826 H   0  0  0  0  0  0  0  0  0  0  0  0
   -6.5660   17.7211  -31.5826 H   0  0  0  0  0  0  0  0  0  0  0  0
   -5.2852   19.6656  -31.5808 H   0  0  0  0  0  0  0  0  0  0  0  0
   -4.7915   18.0608  -32.3509 H   0  0  0  0  0  0  0  0  0  0  0  0
   -2.7970   19.2381  -32.1945 H   0  0  0  0  0  0  0  0  0  0  0  0
   -3.3770   19.4803  -33.9130 H   0  0  0  0  0  0  0  0  0  0  0  0
   -3.3977   21.4857  -31.6272 H   0  0  0  0  0  0  0  0  0  0  0  0
   -2.5157   21.5712  -33.2006 H   0  0  0  0  0  0  0  0  0  0  0  0
   -5.0950   21.2340  -33.9400 H   0  0  0  0  0  0  0  0  0  0  0  0
   -4.2540   22.7020  -33.9060 H   0  0  0  0  0  0  0  0  0  0  0  0
   -7.2295   21.4243  -33.1334 H   0  0  0  0  0  0  0  0  0  0  0  0
   -9.5532   22.0994  -30.3649 H   0  0  0  0  0  0  0  0  0  0  0  0
   -9.7545   22.9752  -31.9203 H   0  0  0  0  0  0  0  0  0  0  0  0
   -9.2957   21.2385  -31.9203 H   0  0  0  0  0  0  0  0  0  0  0  0
   -7.9141   23.7739  -29.5613 H   0  0  0  0  0  0  0  0  0  0  0  0
   -5.4980   24.3785  -29.4937 H   0  0  0  0  0  0  0  0  0  0  0  0
  1  2  1  0
  2  3  1  0
  3  4  1  0
  4  5  1  0
  3  6  1  0
  6  7  1  0
  7  8  1  0
  8  9  1  0
  9 10  1  0
 10 11  2  0
 11 12  1  0
 12 13  1  0
 12 14  2  0
 14 15  1  0
 15 16  2  0
 16 17  1  0
 16 10  1  0
  1 18  1  0
  1 19  1  0
  1 20  1  0
  2 21  1  0
  2 22  1  0
  4 23  1  0
  4 24  1  0
  5 25  1  0
  5 26  1  0
  5 27  1  0
  6 28  1  0
  6 29  1  0
  7 30  1  0
  7 31  1  0
  8 32  1  0
  8 33  1  0
  9 34  1  0
  9 35  1  0
 11 36  1  0
 13 37  1  0
 13 38  1  0
 13 39  1  0
 14 40  1  0
 15 41  1  0
M  CHG  1   9   1
M  END
>  <UniqueID>  (35) 
32

>  <SMILES>  (35) 
CCN(CC)CCC[NH2+]c1cc(C)ccc1F

>  <Energy>  (35) 
39.1542463118779

>  <Genealogy>  (35) 
CCN(CC)CCC[NH2+]c1cc(C)ccc1F (protonated)
CCN(CC)CCC[NH2+]c1cc(C)ccc1F (3D coordinates assigned)
CCN(CC)CCC[NH2+]c1cc(C)ccc1F (optimized conformer: 39.1542463118779 kcal/mol)

>  <smiles>  (35) 
CCN(CC)CCCNc1cc(C)ccc1F

>  <score_type>  (35) 
oracle

>  <origin>  (35) 
adg

>  <m_score__min__energy>  (35) 
-5.5499999999999998

>  <m_primary>  (35) 
energy

$$$$
35:0
     RDKit          3D

 44 47  0  0  0  0  0  0  0  0999 V2000
   -5.4850   24.0560  -30.8600 C   0  0  0  0  0  0  0  0  0  0  0  0
   -4.0620   24.1040  -30.8370 O   0  0  0  0  0  0  0  0  0  0  0  0
   -3.2350   22.9750  -30.7430 C   0  0  0  0  0  0  0  0  0  0  0  0
   -2.9220   22.4810  -29.4600 C   0  0  0  0  0  0  0  0  0  0  0  0
   -2.1050   21.3500  -29.3090 C   0  0  0  0  0  0  0  0  0  0  0  0
   -1.6090   20.7340  -30.4550 C   0  0  0  0  0  0  0  0  0  0  0  0
   -1.8900   21.2070  -31.7080 C   0  0  0  0  0  0  0  0  0  0  0  0
   -2.7130   22.3240  -31.8850 C   0  0  0  0  0  0  0  0  0  0  0  0
   -1.2700   20.3240  -32.7530 C   0  0  2  0  0  0  0  0  0  0  0  0
   -0.3580   21.1380  -33.6920 C   0  0  0  0  0  0  0  0  0  0  0  0
   -2.3850   19.6100  -33.5080 C   0  0  0  0  0  0  0  0  0  0  0  0
   -2.7620   20.0480  -34.5900 O   0  0  0  0  0  0  0  0  0  0  0  0
   -3.0150   18.4450  -32.9080 N   0  0  1  0  0  0  0  0  0  0  0  0
   -4.1310   17.9150  -33.7350 C   0  0  0  0  0  0  0  0  0  0  0  0
   -5.4730   18.4780  -33.3160 C   0  0  0  0  0  0  0  0  0  0  0  0
   -6.4460   17.6370  -32.7480 C   0  0  0  0  0  0  0  0  0  0  0  0
   -7.6830   18.1550  -32.3520 C   0  0  0  0  0  0  0  0  0  0  0  0
   -7.9550   19.5160  -32.5100 C   0  0  0  0  0  0  0  0  0  0  0  0
   -6.9900   20.3620  -33.0620 C   0  0  0  0  0  0  0  0  0  0  0  0
   -5.7520   19.8480  -33.4600 C   0  0  0  0  0  0  0  0  0  0  0  0
   -1.9690   17.4760  -32.6660 C   0  0  0  0  0  0  0  0  0  0  0  0
   -2.1660   16.2390  -32.8130 O   0  0  0  0  0  0  0  0  0  0  0  0
   -0.6880   17.9190  -32.2100 N   0  0  0  0  0  0  0  0  0  0  0  0
   -0.4230   19.3190  -31.8830 C   0  0  2  0  0  0  0  0  0  0  0  0
   -0.7900   19.5860  -30.4950 N   0  0  0  0  0  0  0  0  0  0  0  0
   -5.8681   24.0431  -29.8290 H   0  0  0  0  0  0  0  0  0  0  0  0
   -5.8733   24.9416  -31.3844 H   0  0  0  0  0  0  0  0  0  0  0  0
   -5.8128   23.1463  -31.3844 H   0  0  0  0  0  0  0  0  0  0  0  0
   -3.3220   22.9869  -28.5689 H   0  0  0  0  0  0  0  0  0  0  0  0
   -1.8624   20.9596  -28.3096 H   0  0  0  0  0  0  0  0  0  0  0  0
   -2.9502   22.6898  -32.8949 H   0  0  0  0  0  0  0  0  0  0  0  0
    0.3303   21.7523  -33.0929 H   0  0  0  0  0  0  0  0  0  0  0  0
    0.2213   20.4512  -34.3266 H   0  0  0  0  0  0  0  0  0  0  0  0
   -0.9748   21.7914  -34.3266 H   0  0  0  0  0  0  0  0  0  0  0  0
   -3.3910   18.7450  -31.9790 H   0  0  0  0  0  0  0  0  0  0  0  0
   -3.9488   18.1800  -34.7870 H   0  0  0  0  0  0  0  0  0  0  0  0
   -4.1649   16.8243  -33.5961 H   0  0  0  0  0  0  0  0  0  0  0  0
   -6.2331   16.5661  -32.6144 H   0  0  0  0  0  0  0  0  0  0  0  0
   -8.4428   17.4900  -31.9156 H   0  0  0  0  0  0  0  0  0  0  0  0
   -8.9292   19.9217  -32.1997 H   0  0  0  0  0  0  0  0  0  0  0  0
   -7.2044   21.4340  -33.1837 H   0  0  0  0  0  0  0  0  0  0  0  0
   -4.9927   20.5191  -33.8879 H   0  0  0  0  0  0  0  0  0  0  0  0
    0.6492   19.4707  -32.0763 H   0  0  0  0  0  0  0  0  0  0  0  0
   -0.4030   19.0900  -29.6610 H   0  0  0  0  0  0  0  0  0  0  0  0
  1  2  1  0
  2  3  1  0
  3  4  2  0
  4  5  1  0
  5  6  2  0
  6  7  1  0
  7  8  2  0
  7  9  1  0
  9 10  1  6
  9 11  1  0
 11 12  2  0
 11 13  1  0
 13 14  1  0
 14 15  1  0
 15 16  2  0
 16 17  1  0
 17 18  2  0
 18 19  1  0
 19 20  2  0
 13 21  1  0
 21 22  2  0
 21 23  1  0
 23 24  1  0
 24 25  1  0
  8  3  1  0
 24  9  1  0
 25  6  1  0
 20 15  1  0
  1 26  1  0
  1 27  1  0
  1 28  1  0
  4 29  1  0
  5 30  1  0
  8 31  1  0
 10 32  1  0
 10 33  1  0
 10 34  1  0
 13 35  1  1
 14 36  1  0
 14 37  1  0
 16 38  1  0
 17 39  1  0
 18 40  1  0
 19 41  1  0
 20 42  1  0
 24 43  1  1
 25 44  1  0
M  CHG  2  13   1  23  -1
M  END
>  <UniqueID>  (36) 
33

>  <SMILES>  (36) 
COc1ccc2c(c1)[C@]1(C)C(=O)[N@@H+](Cc3ccccc3)C(=O)[N-]C1N2

>  <Energy>  (36) 
72.23755096479339

>  <Genealogy>  (36) 
COc1ccc2c(c1)C1(C)C(=O)[NH+](Cc3ccccc3)C(=O)[N-]C1N2 (protonated)
COc1ccc2c(c1)[C@]1(C)C(=O)[N@@H+](Cc3ccccc3)C(=O)[N-]C1N2 (chirality)
COc1ccc2c(c1)[C@]1(C)C(=O)[N@@H+](Cc3ccccc3)C(=O)[N-]C1N2 (3D coordinates assigned)
COc1ccc2c(c1)[C@]1(C)C(=O)[N@@H+](Cc3ccccc3)C(=O)[N-]C1N2 (nonaromatic ring conformer: 72.23755096479339 kcal/mol)

>  <smiles>  (36) 
COc1ccc2c(c1)C1(C)C(=O)N(Cc3ccccc3)C(=O)NC1N2

>  <score_type>  (36) 
oracle

>  <origin>  (36) 
adg

>  <m_score__min__energy>  (36) 
-8.6500000000000004

>  <m_primary>  (36) 
energy

$$$$
36:0
     RDKit          3D

 45 45  0  0  0  0  0  0  0  0999 V2000
   -6.4820   25.0900  -29.9910 C   0  0  0  0  0  0  0  0  0  0  0  0
   -5.6900   24.5520  -31.1840 C   0  0  0  0  0  0  0  0  0  0  0  0
   -4.2900   24.2550  -30.8430 N   0  0  0  0  0  0  0  0  0  0  0  0
   -3.9570   24.5380  -29.4330 C   0  0  0  0  0  0  0  0  0  0  0  0
   -3.9470   23.2680  -28.5770 C   0  0  0  0  0  0  0  0  0  0  0  0
   -3.8880   22.1410  -29.4270 O   0  0  0  0  0  0  0  0  0  0  0  0
   -2.6640   21.4510  -29.2550 C   0  0  0  0  0  0  0  0  0  0  0  0
   -1.5930   22.0140  -30.1880 C   0  0  0  0  0  0  0  0  0  0  0  0
   -2.1840   22.3610  -31.4230 O   0  0  0  0  0  0  0  0  0  0  0  0
   -2.0180   21.3000  -32.3400 C   0  0  0  0  0  0  0  0  0  0  0  0
   -3.3810   20.8840  -32.8870 C   0  0  0  0  0  0  0  0  0  0  0  0
   -4.4480   21.2980  -31.9670 N   0  0  0  0  0  0  0  0  0  0  0  0
   -5.6600   21.7180  -32.6870 C   0  0  0  0  0  0  0  0  0  0  0  0
   -6.8160   20.7760  -32.4540 C   0  0  0  0  0  0  0  0  0  0  0  0
   -6.6930   19.4090  -32.7540 C   0  0  0  0  0  0  0  0  0  0  0  0
   -7.7760   18.5440  -32.5610 C   0  0  0  0  0  0  0  0  0  0  0  0
   -8.9880   19.0380  -32.0710 C   0  0  0  0  0  0  0  0  0  0  0  0
   -9.1210   20.3980  -31.7750 C   0  0  0  0  0  0  0  0  0  0  0  0
   -8.0410   21.2650  -31.9680 C   0  0  0  0  0  0  0  0  0  0  0  0
   -6.0028   24.7645  -29.0559 H   0  0  0  0  0  0  0  0  0  0  0  0
   -6.5017   26.1891  -30.0296 H   0  0  0  0  0  0  0  0  0  0  0  0
   -7.5110   24.7033  -30.0296 H   0  0  0  0  0  0  0  0  0  0  0  0
   -6.1703   23.6281  -31.5386 H   0  0  0  0  0  0  0  0  0  0  0  0
   -5.6868   25.3302  -31.9614 H   0  0  0  0  0  0  0  0  0  0  0  0
   -4.0600   23.2690  -31.1110 H   0  0  0  0  0  0  0  0  0  0  0  0
   -2.9607   25.0024  -29.3902 H   0  0  0  0  0  0  0  0  0  0  0  0
   -4.7288   25.2110  -29.0313 H   0  0  0  0  0  0  0  0  0  0  0  0
   -3.0689   23.2767  -27.9145 H   0  0  0  0  0  0  0  0  0  0  0  0
   -4.8602   23.2248  -27.9653 H   0  0  0  0  0  0  0  0  0  0  0  0
   -2.3300   21.5618  -28.2128 H   0  0  0  0  0  0  0  0  0  0  0  0
   -2.8194   20.3886  -29.4941 H   0  0  0  0  0  0  0  0  0  0  0  0
   -1.1422   22.9080  -29.7325 H   0  0  0  0  0  0  0  0  0  0  0  0
   -0.8133   21.2559  -30.3532 H   0  0  0  0  0  0  0  0  0  0  0  0
   -1.3747   21.6291  -33.1694 H   0  0  0  0  0  0  0  0  0  0  0  0
   -1.5500   20.4445  -31.8310 H   0  0  0  0  0  0  0  0  0  0  0  0
   -3.5402   21.3610  -33.8653 H   0  0  0  0  0  0  0  0  0  0  0  0
   -3.4049   19.7894  -32.9928 H   0  0  0  0  0  0  0  0  0  0  0  0
   -4.1070   22.0950  -31.3800 H   0  0  0  0  0  0  0  0  0  0  0  0
   -5.9466   22.7226  -32.3426 H   0  0  0  0  0  0  0  0  0  0  0  0
   -5.4323   21.7139  -33.7632 H   0  0  0  0  0  0  0  0  0  0  0  0
   -5.7414   19.0170  -33.1422 H   0  0  0  0  0  0  0  0  0  0  0  0
   -7.6732   17.4742  -32.7952 H   0  0  0  0  0  0  0  0  0  0  0  0
   -9.8378   18.3565  -31.9181 H   0  0  0  0  0  0  0  0  0  0  0  0
  -10.0756   20.7861  -31.3901 H   0  0  0  0  0  0  0  0  0  0  0  0
   -8.1506   22.3352  -31.7383 H   0  0  0  0  0  0  0  0  0  0  0  0
  1  2  1  0
  2  3  1  0
  3  4  1  0
  4  5  1  0
  5  6  1  0
  6  7  1  0
  7  8  1  0
  8  9  1  0
  9 10  1  0
 10 11  1  0
 11 12  1  0
 12 13  1  0
 13 14  1  0
 14 15  2  0
 15 16  1  0
 16 17  2  0
 17 18  1  0
 18 19  2  0
 19 14  1  0
  1 20  1  0
  1 21  1  0
  1 22  1  0
  2 23  1  0
  2 24  1  0
  3 25  1  0
  4 26  1  0
  4 27  1  0
  5 28  1  0
  5 29  1  0
  7 30  1  0
  7 31  1  0
  8 32  1  0
  8 33  1  0
 10 34  1  0
 10 35  1  0
 11 36  1  0
 11 37  1  0
 12 38  1  0
 13 39  1  0
 13 40  1  0
 15 41  1  0
 16 42  1  0
 17 43  1  0
 18 44  1  0
 19 45  1  0
M  END
>  <UniqueID>  (37) 
34

>  <SMILES>  (37) 
CCNCCOCCOCCNCc1ccccc1

>  <Energy>  (37) 
38.66274322376848

>  <Genealogy>  (37) 
CCNCCOCCOCCNCc1ccccc1 (3D coordinates assigned)
CCNCCOCCOCCNCc1ccccc1 (optimized conformer: 38.66274322376848 kcal/mol)

>  <smiles>  (37) 
CCNCCOCCOCCNCc1ccccc1

>  <score_type>  (37) 
oracle

>  <origin>  (37) 
adg

>  <m_score__min__energy>  (37) 
-5.2599999999999998

>  <m_primary>  (37) 
energy

$$$$
37:0
     RDKit          3D

 33 35  0  0  0  0  0  0  0  0999 V2000
   -2.3630   24.8660  -27.7490 C   0  0  0  0  0  0  0  0  0  0  0  0
   -2.6730   25.2900  -29.0730 O   0  0  0  0  0  0  0  0  0  0  0  0
   -3.4580   24.5570  -29.9740 C   0  0  0  0  0  0  0  0  0  0  0  0
   -2.9520   23.3500  -30.4680 C   0  0  0  0  0  0  0  0  0  0  0  0
   -3.6940   22.5830  -31.3710 C   0  0  0  0  0  0  0  0  0  0  0  0
   -4.9580   23.0220  -31.8040 C   0  0  0  0  0  0  0  0  0  0  0  0
   -5.7500   22.2400  -32.7160 N   0  0  0  0  0  0  0  0  0  0  0  0
   -6.9070   21.4800  -32.3240 C   0  0  0  0  0  0  0  0  0  0  0  0
   -7.9640   22.1110  -31.6530 C   0  0  0  0  0  0  0  0  0  0  0  0
   -9.0580   21.3550  -31.2300 C   0  0  0  0  0  0  0  0  0  0  0  0
  -10.0140   21.9120  -30.6290 O   0  0  0  0  0  0  0  0  0  0  0  0
   -9.0980   20.0450  -31.4530 O   0  0  0  0  0  0  0  0  0  0  0  0
   -8.1220   19.3940  -32.0770 C   0  0  0  0  0  0  0  0  0  0  0  0
   -8.2320   18.0130  -32.2780 C   0  0  0  0  0  0  0  0  0  0  0  0
   -7.2200   17.3170  -32.9410 C   0  0  0  0  0  0  0  0  0  0  0  0
   -6.0930   17.9960  -33.4120 C   0  0  0  0  0  0  0  0  0  0  0  0
   -5.9700   19.3750  -33.2180 C   0  0  0  0  0  0  0  0  0  0  0  0
   -6.9770   20.0890  -32.5400 C   0  0  0  0  0  0  0  0  0  0  0  0
   -5.4740   24.2220  -31.2960 C   0  0  0  0  0  0  0  0  0  0  0  0
   -4.7310   24.9900  -30.3940 C   0  0  0  0  0  0  0  0  0  0  0  0
   -2.8522   25.5350  -27.0257 H   0  0  0  0  0  0  0  0  0  0  0  0
   -2.7237   23.8377  -27.5994 H   0  0  0  0  0  0  0  0  0  0  0  0
   -1.2737   24.8978  -27.5994 H   0  0  0  0  0  0  0  0  0  0  0  0
   -1.9608   23.0011  -30.1428 H   0  0  0  0  0  0  0  0  0  0  0  0
   -3.2873   21.6317  -31.7446 H   0  0  0  0  0  0  0  0  0  0  0  0
   -5.4340   22.1710  -33.7100 H   0  0  0  0  0  0  0  0  0  0  0  0
   -7.9312   23.1937  -31.4615 H   0  0  0  0  0  0  0  0  0  0  0  0
   -9.1188   17.4747  -31.9123 H   0  0  0  0  0  0  0  0  0  0  0  0
   -7.3097   16.2313  -33.0932 H   0  0  0  0  0  0  0  0  0  0  0  0
   -5.3000   17.4435  -33.9372 H   0  0  0  0  0  0  0  0  0  0  0  0
   -5.0832   19.9045  -33.5964 H   0  0  0  0  0  0  0  0  0  0  0  0
   -6.4719   24.5626  -31.6095 H   0  0  0  0  0  0  0  0  0  0  0  0
   -5.1421   25.9357  -30.0110 H   0  0  0  0  0  0  0  0  0  0  0  0
  1  2  1  0
  2  3  1  0
  3  4  2  0
  4  5  1  0
  5  6  2  0
  6  7  1  0
  7  8  1  0
  8  9  2  0
  9 10  1  0
 10 11  2  0
 10 12  1  0
 12 13  1  0
 13 14  2  0
 14 15  1  0
 15 16  2  0
 16 17  1  0
 17 18  2  0
  6 19  1  0
 19 20  2  0
 20  3  1  0
 18  8  1  0
 18 13  1  0
  1 21  1  0
  1 22  1  0
  1 23  1  0
  4 24  1  0
  5 25  1  0
  7 26  1  0
  9 27  1  0
 14 28  1  0
 15 29  1  0
 16 30  1  0
 17 31  1  0
 19 32  1  0
 20 33  1  0
M  END
>  <UniqueID>  (38) 
35

>  <SMILES>  (38) 
COc1ccc(Nc2cc(=O)oc3ccccc23)cc1

>  <Energy>  (38) 
46.322999233758935

>  <Genealogy>  (38) 
COc1ccc(Nc2cc(=O)oc3ccccc23)cc1 (3D coordinates assigned)
COc1ccc(Nc2cc(=O)oc3ccccc23)cc1 (optimized conformer: 46.322999233758935 kcal/mol)

>  <smiles>  (38) 
COc1ccc(Nc2cc(=O)oc3ccccc23)cc1

>  <score_type>  (38) 
oracle

>  <origin>  (38) 
adg

>  <m_score__min__energy>  (38) 
-7.79

>  <m_primary>  (38) 
energy

$$$$
38:0
     RDKit          3D

 30 32  0  0  0  0  0  0  0  0999 V2000
   -2.4220   24.7020  -28.5510 C   0  0  0  0  0  0  0  0  0  0  0  0
   -3.1300   24.9620  -29.7580 O   0  0  0  0  0  0  0  0  0  0  0  0
   -3.7220   23.9510  -30.5230 C   0  0  0  0  0  0  0  0  0  0  0  0
   -2.9470   23.0680  -31.2100 N   0  0  0  0  0  0  0  0  0  0  0  0
   -3.4690   22.0740  -31.9760 C   0  0  0  0  0  0  0  0  0  0  0  0
   -2.5460   21.1650  -32.6880 C   0  0  0  0  0  0  0  0  0  0  0  0
   -1.1530   21.2280  -32.7320 C   0  0  0  0  0  0  0  0  0  0  0  0
   -0.5730   20.2100  -33.4990 C   0  0  0  0  0  0  0  0  0  0  0  0
   -1.4960   19.3400  -34.0630 C   0  0  0  0  0  0  0  0  0  0  0  0
   -3.0330   19.8390  -33.6060 S   0  0  0  0  0  0  0  0  0  0  0  0
   -4.8620   21.9400  -32.0660 C   0  0  0  0  0  0  0  0  0  0  0  0
   -5.7010   22.8210  -31.3640 C   0  0  0  0  0  0  0  0  0  0  0  0
   -7.1710   22.6430  -31.4680 C   0  0  0  0  0  0  0  0  0  0  0  0
   -7.9800   23.4180  -32.3180 C   0  0  0  0  0  0  0  0  0  0  0  0
   -9.3220   23.0660  -32.2850 C   0  0  0  0  0  0  0  0  0  0  0  0
   -9.4990   21.7850  -31.2130 S   0  0  0  0  0  0  0  0  0  0  0  0
   -7.8820   21.6640  -30.7760 C   0  0  0  0  0  0  0  0  0  0  0  0
   -5.1200   23.8490  -30.5880 C   0  0  0  0  0  0  0  0  0  0  0  0
   -5.9300   24.8330  -29.9040 C   0  0  0  0  0  0  0  0  0  0  0  0
   -6.5770   25.6220  -29.3580 N   0  0  0  0  0  0  0  0  0  0  0  0
   -3.0652   24.9382  -27.6905 H   0  0  0  0  0  0  0  0  0  0  0  0
   -2.1364   23.6403  -28.5148 H   0  0  0  0  0  0  0  0  0  0  0  0
   -1.5172   25.3265  -28.5148 H   0  0  0  0  0  0  0  0  0  0  0  0
   -0.5672   22.0020  -32.2145 H   0  0  0  0  0  0  0  0  0  0  0  0
    0.5131   20.1091  -33.6413 H   0  0  0  0  0  0  0  0  0  0  0  0
   -1.2613   18.4738  -34.6991 H   0  0  0  0  0  0  0  0  0  0  0  0
   -5.2982   21.1439  -32.6872 H   0  0  0  0  0  0  0  0  0  0  0  0
   -7.5859   24.2275  -32.9500 H   0  0  0  0  0  0  0  0  0  0  0  0
  -10.1291   23.5428  -32.8605 H   0  0  0  0  0  0  0  0  0  0  0  0
   -7.4576   20.9381  -30.0668 H   0  0  0  0  0  0  0  0  0  0  0  0
  1  2  1  0
  2  3  1  0
  3  4  2  0
  4  5  1  0
  5  6  1  0
  6  7  2  0
  7  8  1  0
  8  9  2  0
  9 10  1  0
  5 11  2  0
 11 12  1  0
 12 13  1  0
 13 14  1  0
 14 15  2  0
 15 16  1  0
 16 17  1  0
 12 18  2  0
 18 19  1  0
 19 20  3  0
 18  3  1  0
 10  6  1  0
 17 13  2  0
  1 21  1  0
  1 22  1  0
  1 23  1  0
  7 24  1  0
  8 25  1  0
  9 26  1  0
 11 27  1  0
 14 28  1  0
 15 29  1  0
 17 30  1  0
M  END
>  <UniqueID>  (39) 
36

>  <SMILES>  (39) 
COc1nc(-c2cccs2)cc(-c2ccsc2)c1C#N

>  <Energy>  (39) 
89.6479404476893

>  <Genealogy>  (39) 
COc1nc(-c2cccs2)cc(-c2ccsc2)c1C#N (3D coordinates assigned)
COc1nc(-c2cccs2)cc(-c2ccsc2)c1C#N (optimized conformer: 89.6479404476893 kcal/mol)

>  <smiles>  (39) 
COc1nc(-c2cccs2)cc(-c2ccsc2)c1C#N

>  <score_type>  (39) 
oracle

>  <origin>  (39) 
adg

>  <m_score__min__energy>  (39) 
-7.0899999999999999

>  <m_primary>  (39) 
energy

$$$$
39:0
     RDKit          3D

 48 51  0  0  0  0  0  0  0  0999 V2000
   -0.9410   26.2460  -27.7620 C   0  0  0  0  0  0  0  0  0  0  0  0
   -1.6150   25.8630  -28.9570 O   0  0  0  0  0  0  0  0  0  0  0  0
   -1.8570   24.5360  -29.3440 C   0  0  0  0  0  0  0  0  0  0  0  0
   -0.9430   23.5010  -29.0740 C   0  0  0  0  0  0  0  0  0  0  0  0
   -1.2140   22.1830  -29.4700 C   0  0  0  0  0  0  0  0  0  0  0  0
   -2.4010   21.8990  -30.1700 C   0  0  0  0  0  0  0  0  0  0  0  0
   -3.3200   22.9270  -30.4240 C   0  0  0  0  0  0  0  0  0  0  0  0
   -3.0510   24.2470  -30.0200 C   0  0  0  0  0  0  0  0  0  0  0  0
   -3.9460   25.3000  -30.2700 O   0  0  0  0  0  0  0  0  0  0  0  0
   -5.3640   25.1880  -30.2020 C   0  0  0  0  0  0  0  0  0  0  0  0
   -2.7420   20.4810  -30.5510 C   0  0  0  0  0  0  0  0  0  0  0  0
   -1.5400   19.6500  -30.7420 N   0  0  0  0  0  0  0  0  0  0  0  0
   -0.8230   19.9500  -32.0020 C   0  0  0  0  0  0  0  0  0  0  0  0
   -1.5170   19.2790  -33.1940 C   0  0  0  0  0  0  0  0  0  0  0  0
   -2.9600   19.5960  -33.2110 N   0  0  0  0  0  0  0  0  0  0  0  0
   -3.3780   20.8980  -33.4120 C   0  0  0  0  0  0  0  0  0  0  0  0
   -2.5350   21.8160  -33.6120 O   0  0  0  0  0  0  0  0  0  0  0  0
   -4.7090   21.2130  -33.3980 N   0  0  0  0  0  0  0  0  0  0  0  0
   -5.6290   20.2440  -33.1760 C   0  0  0  0  0  0  0  0  0  0  0  0
   -7.0140   20.4320  -33.1320 C   0  0  0  0  0  0  0  0  0  0  0  0
   -7.7030   19.2460  -32.8800 C   0  0  0  0  0  0  0  0  0  0  0  0
   -6.5890   17.9820  -32.7160 S   0  0  0  0  0  0  0  0  0  0  0  0
   -5.2350   18.9450  -32.9670 C   0  0  0  0  0  0  0  0  0  0  0  0
   -3.8900   18.6070  -32.9790 C   0  0  0  0  0  0  0  0  0  0  0  0
   -3.5410   17.4120  -32.7790 O   0  0  0  0  0  0  0  0  0  0  0  0
   -0.6740   19.6930  -29.5430 C   0  0  0  0  0  0  0  0  0  0  0  0
   -0.1850   21.1140  -29.2020 C   0  0  0  0  0  0  0  0  0  0  0  0
   -1.5240   25.9147  -26.8900 H   0  0  0  0  0  0  0  0  0  0  0  0
    0.0545   25.7786  -27.7366 H   0  0  0  0  0  0  0  0  0  0  0  0
   -0.8330   27.3404  -27.7366 H   0  0  0  0  0  0  0  0  0  0  0  0
   -0.0050   23.7281  -28.5462 H   0  0  0  0  0  0  0  0  0  0  0  0
   -4.2616   22.6986  -30.9449 H   0  0  0  0  0  0  0  0  0  0  0  0
   -5.6797   25.1631  -29.1486 H   0  0  0  0  0  0  0  0  0  0  0  0
   -5.8245   26.0526  -30.7024 H   0  0  0  0  0  0  0  0  0  0  0  0
   -5.6831   24.2619  -30.7024 H   0  0  0  0  0  0  0  0  0  0  0  0
   -3.3556   20.0378  -29.7528 H   0  0  0  0  0  0  0  0  0  0  0  0
   -3.2867   20.5103  -31.5062 H   0  0  0  0  0  0  0  0  0  0  0  0
   -0.8085   21.0387  -32.1587 H   0  0  0  0  0  0  0  0  0  0  0  0
    0.2033   19.5615  -31.9259 H   0  0  0  0  0  0  0  0  0  0  0  0
   -1.0583   19.6386  -34.1269 H   0  0  0  0  0  0  0  0  0  0  0  0
   -1.3977   18.1893  -33.1022 H   0  0  0  0  0  0  0  0  0  0  0  0
   -5.0160   22.2010  -33.5530 H   0  0  0  0  0  0  0  0  0  0  0  0
   -7.5046   21.4054  -33.2795 H   0  0  0  0  0  0  0  0  0  0  0  0
   -8.7957   19.1476  -32.8005 H   0  0  0  0  0  0  0  0  0  0  0  0
   -1.2429   19.3033  -28.6860 H   0  0  0  0  0  0  0  0  0  0  0  0
    0.2154   19.0826  -29.7584 H   0  0  0  0  0  0  0  0  0  0  0  0
    0.0796   21.1447  -28.1347 H   0  0  0  0  0  0  0  0  0  0  0  0
    0.6778   21.3245  -29.8511 H   0  0  0  0  0  0  0  0  0  0  0  0
  1  2  1  0
  2  3  1  0
  3  4  2  0
  4  5  1  0
  5  6  2  0
  6  7  1  0
  7  8  2  0
  8  9  1  0
  9 10  1  0
  6 11  1  0
 11 12  1  0
 12 13  1  0
 13 14  1  0
 14 15  1  0
 15 16  1  0
 16 17  2  0
 16 18  1  0
 18 19  1  0
 19 20  1  0
 20 21  2  0
 21 22  1  0
 22 23  1  0
 23 24  1  0
 24 25  2  0
 12 26  1  0
 26 27  1  0
  8  3  1  0
 24 15  1  0
 27  5  1  0
 23 19  2  0
  1 28  1  0
  1 29  1  0
  1 30  1  0
  4 31  1  0
  7 32  1  0
 10 33  1  0
 10 34  1  0
 10 35  1  0
 11 36  1  0
 11 37  1  0
 13 38  1  0
 13 39  1  0
 14 40  1  0
 14 41  1  0
 18 42  1  0
 20 43  1  0
 21 44  1  0
 26 45  1  0
 26 46  1  0
 27 47  1  0
 27 48  1  0
M  END
>  <UniqueID>  (40) 
37

>  <SMILES>  (40) 
COc1cc2c(cc1OC)CN(CCn1c(=O)[nH]c3ccsc3c1=O)CC2

>  <Energy>  (40) 
91.52478244871149

>  <Genealogy>  (40) 
COc1cc2c(cc1OC)CN(CCn1c(=O)[nH]c3ccsc3c1=O)CC2 (3D coordinates assigned)
COc1cc2c(cc1OC)CN(CCn1c(=O)[nH]c3ccsc3c1=O)CC2 (nonaromatic ring conformer: 91.52478244871149 kcal/mol)

>  <smiles>  (40) 
COc1cc2c(cc1OC)CN(CCn1c(=O)[nH]c3ccsc3c1=O)CC2

>  <score_type>  (40) 
oracle

>  <origin>  (40) 
adg

>  <m_score__min__energy>  (40) 
-8.3699999999999992

>  <m_primary>  (40) 
energy

$$$$
40:0
     RDKit          3D

 39 40  0  0  0  0  0  0  0  0999 V2000
   -6.4612   16.3081  -33.8043 H   0  0  0  0  0  0  0  0  0  0  0  0
   -6.5700   17.3780  -33.5730 C   0  0  0  0  0  0  0  0  0  0  0  0
   -5.7020   18.3070  -34.1520 C   0  0  0  0  0  0  0  0  0  0  0  0
   -4.9134   17.9667  -34.8393 H   0  0  0  0  0  0  0  0  0  0  0  0
   -5.8330   19.6690  -33.8600 C   0  0  0  0  0  0  0  0  0  0  0  0
   -5.1459   20.3966  -34.3165 H   0  0  0  0  0  0  0  0  0  0  0  0
   -6.8390   20.1090  -32.9860 C   0  0  0  0  0  0  0  0  0  0  0  0
   -7.7160   19.1670  -32.4020 C   0  0  0  0  0  0  0  0  0  0  0  0
   -7.5760   17.8030  -32.7010 C   0  0  0  0  0  0  0  0  0  0  0  0
   -8.2583   17.0682  -32.2489 H   0  0  0  0  0  0  0  0  0  0  0  0
   -8.7130   19.6170  -31.5350 C   0  0  0  0  0  0  0  0  0  0  0  0
   -9.4049   18.8975  -31.0728 H   0  0  0  0  0  0  0  0  0  0  0  0
   -8.8330   20.9780  -31.2540 C   0  0  0  0  0  0  0  0  0  0  0  0
   -9.6199   21.3340  -30.5728 H   0  0  0  0  0  0  0  0  0  0  0  0
   -7.9410   21.8960  -31.8470 C   0  0  0  0  0  0  0  0  0  0  0  0
   -8.0100   23.1800  -31.6170 N   0  0  0  0  0  0  0  0  0  0  0  0
   -7.0370   24.0130  -30.9080 C   0  0  0  0  0  0  0  0  0  0  0  0
   -6.7836   23.5361  -29.9497 H   0  0  0  0  0  0  0  0  0  0  0  0
   -7.4798   25.0050  -30.7351 H   0  0  0  0  0  0  0  0  0  0  0  0
   -5.7600   24.1810  -31.7400 C   0  0  0  0  0  0  0  0  0  0  0  0
   -5.8968   25.0063  -32.4542 H   0  0  0  0  0  0  0  0  0  0  0  0
   -5.5581   23.2462  -32.2835 H   0  0  0  0  0  0  0  0  0  0  0  0
   -4.6120   24.4850  -30.8530 N   0  0  0  0  0  0  0  0  0  0  0  0
   -3.6810   23.3350  -30.7710 C   0  0  0  0  0  0  0  0  0  0  0  0
   -3.7845   22.8535  -29.7874 H   0  0  0  0  0  0  0  0  0  0  0  0
   -2.6513   23.6974  -30.9062 H   0  0  0  0  0  0  0  0  0  0  0  0
   -3.9980   22.3190  -31.8650 C   0  0  0  0  0  0  0  0  0  0  0  0
   -4.2956   21.3653  -31.4046 H   0  0  0  0  0  0  0  0  0  0  0  0
   -4.8208   22.6972  -32.4894 H   0  0  0  0  0  0  0  0  0  0  0  0
   -3.1061   22.1622  -32.4894 H   0  0  0  0  0  0  0  0  0  0  0  0
   -5.0750   24.8940  -29.5070 C   0  0  0  0  0  0  0  0  0  0  0  0
   -4.9311   25.9779  -29.3872 H   0  0  0  0  0  0  0  0  0  0  0  0
   -6.1408   24.6426  -29.4025 H   0  0  0  0  0  0  0  0  0  0  0  0
   -4.2820   24.1580  -28.4300 C   0  0  0  0  0  0  0  0  0  0  0  0
   -4.6278   24.4790  -27.4363 H   0  0  0  0  0  0  0  0  0  0  0  0
   -4.4344   23.0741  -28.5388 H   0  0  0  0  0  0  0  0  0  0  0  0
   -3.2124   24.3907  -28.5388 H   0  0  0  0  0  0  0  0  0  0  0  0
   -6.9760   21.4360  -32.6950 N   0  0  0  0  0  0  0  0  0  0  0  0
   -6.3200   22.1260  -33.1330 H   0  0  0  0  0  0  0  0  0  0  0  0
  1  2  1  0
  2  3  2  0
  3  4  1  0
  3  5  1  0
  5  6  1  0
  5  7  2  0
  7  8  1  0
  8  9  2  0
  9 10  1  0
  8 11  1  0
 11 12  1  0
 11 13  2  0
 13 14  1  0
 13 15  1  0
 15 16  2  0
 16 17  1  0
 17 18  1  0
 17 19  1  0
 17 20  1  0
 20 21  1  0
 20 22  1  0
 20 23  1  0
 23 24  1  0
 24 25  1  0
 24 26  1  0
 24 27  1  0
 27 28  1  0
 27 29  1  0
 27 30  1  0
 23 31  1  0
 31 32  1  0
 31 33  1  0
 31 34  1  0
 34 35  1  0
 34 36  1  0
 34 37  1  0
 15 38  1  0
 38 39  1  0
  9  2  1  0
 38  7  1  0
M  END
>  <UniqueID>  (41) 
38

>  <SMILES>  (41) 
CCN(CC)CC/N=c1\ccc2ccccc2[nH]1

>  <Energy>  (41) 
41.47045682095704

>  <Genealogy>  (41) 
CCN(CC)CC/N=c1\ccc2ccccc2[nH]1 (cis-trans isomerization)
CCN(CC)CC/N=c1\ccc2ccccc2[nH]1 (3D coordinates assigned)
CCN(CC)CC/N=c1\ccc2ccccc2[nH]1 (optimized conformer: 41.47045682095704 kcal/mol)

>  <smiles>  (41) 
CCN(CC)CCN=c1ccc2ccccc2[nH]1

>  <score_type>  (41) 
oracle

>  <origin>  (41) 
adg

>  <m_score__min__energy>  (41) 
-7.1799999999999997

>  <m_primary>  (41) 
energy

$$$$
41:0
     RDKit          3D

 46 49  0  0  0  0  0  0  0  0999 V2000
   -0.9020   26.4890  -28.2130 C   0  0  0  0  0  0  0  0  0  0  0  0
   -1.6590   25.4560  -28.8350 O   0  0  0  0  0  0  0  0  0  0  0  0
   -1.6920   24.1210  -28.3970 C   0  0  0  0  0  0  0  0  0  0  0  0
   -0.8380   23.6620  -27.3730 C   0  0  0  0  0  0  0  0  0  0  0  0
   -0.8790   22.3300  -26.9590 C   0  0  0  0  0  0  0  0  0  0  0  0
   -1.7650   21.4380  -27.5600 C   0  0  0  0  0  0  0  0  0  0  0  0
   -2.6160   21.8750  -28.5750 C   0  0  0  0  0  0  0  0  0  0  0  0
   -2.6000   23.2170  -29.0000 C   0  0  0  0  0  0  0  0  0  0  0  0
   -3.5420   23.6530  -30.1180 C   0  0  2  0  0  0  0  0  0  0  0  0
   -4.8490   24.1210  -29.4950 C   0  0  0  0  0  0  0  0  0  0  0  0
   -5.7830   24.5900  -30.5500 C   0  0  0  0  0  0  0  0  0  0  0  0
   -5.8760   25.8100  -30.8470 O   0  0  0  0  0  0  0  0  0  0  0  0
   -6.6610   23.6090  -31.1550 C   0  0  0  0  0  0  0  0  0  0  0  0
   -6.2500   22.3770  -31.5000 C   0  0  0  0  0  0  0  0  0  0  0  0
   -7.3080   21.3520  -31.7270 C   0  0  0  0  0  0  0  0  0  0  0  0
   -6.9980   19.9890  -31.5860 C   0  0  0  0  0  0  0  0  0  0  0  0
   -7.9750   19.0140  -31.8060 C   0  0  0  0  0  0  0  0  0  0  0  0
   -9.2700   19.3900  -32.1720 C   0  0  0  0  0  0  0  0  0  0  0  0
   -9.5880   20.7420  -32.3240 C   0  0  0  0  0  0  0  0  0  0  0  0
   -8.6140   21.7200  -32.1060 C   0  0  0  0  0  0  0  0  0  0  0  0
   -4.8110   22.0260  -31.8200 C   0  0  0  0  0  0  0  0  0  0  0  0
   -4.6360   21.0810  -32.8630 C   0  0  0  0  0  0  0  0  0  0  0  0
   -3.3780   20.7000  -33.3140 C   0  0  0  0  0  0  0  0  0  0  0  0
   -2.2440   21.2680  -32.7630 C   0  0  0  0  0  0  0  0  0  0  0  0
   -2.3630   22.2130  -31.7520 C   0  0  0  0  0  0  0  0  0  0  0  0
   -3.6220   22.6000  -31.2330 C   0  0  0  0  0  0  0  0  0  0  0  0
   -0.9749   26.3896  -27.1199 H   0  0  0  0  0  0  0  0  0  0  0  0
    0.1513   26.4069  -28.5193 H   0  0  0  0  0  0  0  0  0  0  0  0
   -1.2976   27.4687  -28.5193 H   0  0  0  0  0  0  0  0  0  0  0  0
   -0.1336   24.3598  -26.8966 H   0  0  0  0  0  0  0  0  0  0  0  0
   -0.2108   21.9835  -26.1569 H   0  0  0  0  0  0  0  0  0  0  0  0
   -1.7933   20.3879  -27.2335 H   0  0  0  0  0  0  0  0  0  0  0  0
   -3.3076   21.1629  -29.0489 H   0  0  0  0  0  0  0  0  0  0  0  0
   -3.1561   24.5258  -30.6652 H   0  0  0  0  0  0  0  0  0  0  0  0
   -5.3098   23.2856  -28.9474 H   0  0  0  0  0  0  0  0  0  0  0  0
   -4.6399   24.9528  -28.8062 H   0  0  0  0  0  0  0  0  0  0  0  0
   -7.7097   23.8847  -31.3400 H   0  0  0  0  0  0  0  0  0  0  0  0
   -5.9795   19.6871  -31.3005 H   0  0  0  0  0  0  0  0  0  0  0  0
   -7.7241   17.9492  -31.6908 H   0  0  0  0  0  0  0  0  0  0  0  0
  -10.0390   18.6217  -32.3404 H   0  0  0  0  0  0  0  0  0  0  0  0
  -10.6067   21.0370  -32.6158 H   0  0  0  0  0  0  0  0  0  0  0  0
   -8.8684   22.7829  -32.2310 H   0  0  0  0  0  0  0  0  0  0  0  0
   -5.5260   20.6346  -33.3307 H   0  0  0  0  0  0  0  0  0  0  0  0
   -3.2842   19.9463  -34.1097 H   0  0  0  0  0  0  0  0  0  0  0  0
   -1.2485   20.9717  -33.1251 H   0  0  0  0  0  0  0  0  0  0  0  0
   -1.4522   22.6743  -31.3426 H   0  0  0  0  0  0  0  0  0  0  0  0
  1  2  1  0
  2  3  1  0
  3  4  2  0
  4  5  1  0
  5  6  2  0
  6  7  1  0
  7  8  2  0
  8  9  1  0
  9 10  1  0
 10 11  1  0
 11 12  2  0
 11 13  1  0
 13 14  2  0
 14 15  1  0
 15 16  2  0
 16 17  1  0
 17 18  2  0
 18 19  1  0
 19 20  2  0
 14 21  1  0
 21 22  2  0
 22 23  1  0
 23 24  2  0
 24 25  1  0
 25 26  2  0
  8  3  1  0
 26  9  1  0
 20 15  1  0
 26 21  1  0
  1 27  1  0
  1 28  1  0
  1 29  1  0
  4 30  1  0
  5 31  1  0
  6 32  1  0
  7 33  1  0
  9 34  1  6
 10 35  1  0
 10 36  1  0
 13 37  1  0
 16 38  1  0
 17 39  1  0
 18 40  1  0
 19 41  1  0
 20 42  1  0
 22 43  1  0
 23 44  1  0
 24 45  1  0
 25 46  1  0
M  END
>  <UniqueID>  (42) 
39

>  <SMILES>  (42) 
COc1ccccc1[C@@H]1CC(=O)C=C(c2ccccc2)c2ccccc21

>  <Energy>  (42) 
81.52630653758233

>  <Genealogy>  (42) 
COc1ccccc1[C@@H]1CC(=O)C=C(c2ccccc2)c2ccccc21 (chirality)
COc1ccccc1[C@@H]1CC(=O)C=C(c2ccccc2)c2ccccc21 (3D coordinates assigned)
COc1ccccc1[C@@H]1CC(=O)C=C(c2ccccc2)c2ccccc21 (nonaromatic ring conformer: 81.52630653758233 kcal/mol)

>  <smiles>  (42) 
COc1ccccc1C1CC(=O)C=C(c2ccccc2)c2ccccc21

>  <score_type>  (42) 
oracle

>  <origin>  (42) 
adg

>  <m_score__min__energy>  (42) 
-8.2799999999999994

>  <m_primary>  (42) 
energy

$$$$
42:0
     RDKit          3D

 44 47  0  0  0  0  0  0  0  0999 V2000
   -3.3220   17.6720  -34.1830 C   0  0  0  0  0  0  0  0  0  0  0  0
   -2.7490   18.8820  -33.7000 O   0  0  0  0  0  0  0  0  0  0  0  0
   -3.4880   19.9710  -33.2150 C   0  0  0  0  0  0  0  0  0  0  0  0
   -2.8840   21.2210  -32.9060 C   0  0  0  0  0  0  0  0  0  0  0  0
   -3.6530   22.2940  -32.4210 C   0  0  0  0  0  0  0  0  0  0  0  0
   -5.0250   22.0950  -32.2280 C   0  0  0  0  0  0  0  0  0  0  0  0
   -5.6060   20.8830  -32.5460 C   0  0  0  0  0  0  0  0  0  0  0  0
   -4.8740   19.8060  -33.0380 C   0  0  0  0  0  0  0  0  0  0  0  0
   -6.9470   21.0370  -32.3130 C   0  0  0  0  0  0  0  0  0  0  0  0
   -7.9660   20.1660  -32.5130 N   0  0  0  0  0  0  0  0  0  0  0  0
   -9.2430   20.5790  -32.2550 C   0  0  0  0  0  0  0  0  0  0  0  0
   -9.4960   21.8960  -31.8100 C   0  0  0  0  0  0  0  0  0  0  0  0
   -8.4280   22.7920  -31.6200 C   0  0  0  0  0  0  0  0  0  0  0  0
   -7.1370   22.3210  -31.8680 C   0  0  0  0  0  0  0  0  0  0  0  0
   -5.9550   22.9870  -31.7850 N   0  0  0  0  0  0  0  0  0  0  0  0
   -5.7430   24.3680  -31.3320 C   0  0  0  0  0  0  0  0  0  0  0  0
   -6.3830   24.6330  -29.9530 C   0  0  0  0  0  0  0  0  0  0  0  0
   -5.4030   24.8960  -28.8820 N   0  0  0  0  0  0  0  0  0  0  0  0
   -4.2480   24.0280  -28.9430 C   0  0  0  0  0  0  0  0  0  0  0  0
   -2.9850   24.5500  -29.2810 C   0  0  0  0  0  0  0  0  0  0  0  0
   -1.8690   23.7140  -29.3630 C   0  0  0  0  0  0  0  0  0  0  0  0
   -2.0040   22.3430  -29.1350 C   0  0  0  0  0  0  0  0  0  0  0  0
   -3.2580   21.8040  -28.8390 C   0  0  0  0  0  0  0  0  0  0  0  0
   -4.3780   22.6380  -28.7540 C   0  0  0  0  0  0  0  0  0  0  0  0
   -3.6202   17.0422  -33.3319 H   0  0  0  0  0  0  0  0  0  0  0  0
   -4.2060   17.9037  -34.7952 H   0  0  0  0  0  0  0  0  0  0  0  0
   -2.5826   17.1349  -34.7952 H   0  0  0  0  0  0  0  0  0  0  0  0
   -1.8009   21.3503  -33.0482 H   0  0  0  0  0  0  0  0  0  0  0  0
   -3.1877   23.2657  -32.1988 H   0  0  0  0  0  0  0  0  0  0  0  0
   -5.3655   18.8525  -33.2816 H   0  0  0  0  0  0  0  0  0  0  0  0
  -10.0809   19.8802  -32.3950 H   0  0  0  0  0  0  0  0  0  0  0  0
  -10.5281   22.2208  -31.6121 H   0  0  0  0  0  0  0  0  0  0  0  0
   -8.6036   23.8260  -31.2882 H   0  0  0  0  0  0  0  0  0  0  0  0
   -4.6614   24.5562  -31.2628 H   0  0  0  0  0  0  0  0  0  0  0  0
   -6.2200   25.0398  -32.0608 H   0  0  0  0  0  0  0  0  0  0  0  0
   -7.0446   25.5075  -30.0401 H   0  0  0  0  0  0  0  0  0  0  0  0
   -6.9273   23.7194  -29.6717 H   0  0  0  0  0  0  0  0  0  0  0  0
   -5.0680   25.8820  -28.9770 H   0  0  0  0  0  0  0  0  0  0  0  0
   -5.8810   24.8230  -27.9530 H   0  0  0  0  0  0  0  0  0  0  0  0
   -2.8760   25.6259  -29.4823 H   0  0  0  0  0  0  0  0  0  0  0  0
   -0.8830   24.1360  -29.6074 H   0  0  0  0  0  0  0  0  0  0  0  0
   -1.1224   21.6873  -29.1885 H   0  0  0  0  0  0  0  0  0  0  0  0
   -3.3652   20.7220  -28.6724 H   0  0  0  0  0  0  0  0  0  0  0  0
   -5.3662   22.2058  -28.5383 H   0  0  0  0  0  0  0  0  0  0  0  0
  1  2  1  0
  2  3  1  0
  3  4  2  0
  4  5  1  0
  5  6  2  0
  6  7  1  0
  7  8  2  0
  7  9  1  0
  9 10  2  0
 10 11  1  0
 11 12  2  0
 12 13  1  0
 13 14  2  0
 14 15  1  0
 15 16  1  0
 16 17  1  0
 17 18  1  0
 18 19  1  0
 19 20  2  0
 20 21  1  0
 21 22  2  0
 22 23  1  0
 23 24  2  0
  8  3  1  0
 14  9  1  0
 24 19  1  0
 15  6  1  0
  1 25  1  0
  1 26  1  0
  1 27  1  0
  4 28  1  0
  5 29  1  0
  8 30  1  0
 11 31  1  0
 12 32  1  0
 13 33  1  0
 16 34  1  0
 16 35  1  0
 17 36  1  0
 17 37  1  0
 18 38  1  0
 18 39  1  0
 20 40  1  0
 21 41  1  0
 22 42  1  0
 23 43  1  0
 24 44  1  0
M  CHG  1  18   1
M  END
>  <UniqueID>  (43) 
40

>  <SMILES>  (43) 
COc1ccc2c(c1)c1ncccc1n2CC[NH2+]c1ccccc1

>  <Energy>  (43) 
92.5670740655643

>  <Genealogy>  (43) 
COc1ccc2c(c1)c1ncccc1n2CC[NH2+]c1ccccc1 (protonated)
COc1ccc2c(c1)c1ncccc1n2CC[NH2+]c1ccccc1 (3D coordinates assigned)
COc1ccc2c(c1)c1ncccc1n2CC[NH2+]c1ccccc1 (optimized conformer: 92.5670740655643 kcal/mol)

>  <smiles>  (43) 
COc1ccc2c(c1)c1ncccc1n2CCNc1ccccc1

>  <score_type>  (43) 
oracle

>  <origin>  (43) 
adg

>  <m_score__min__energy>  (43) 
-8.0199999999999996

>  <m_primary>  (43) 
energy

$$$$
43:0
     RDKit          3D

 38 40  0  0  0  0  0  0  0  0999 V2000
   -4.2320   23.9230  -27.8270 C   0  0  0  0  0  0  0  0  0  0  0  0
   -3.4270   23.8860  -29.0510 N   0  0  0  0  0  0  0  0  0  0  0  0
   -1.9960   23.5790  -28.9970 C   0  0  0  0  0  0  0  0  0  0  0  0
   -1.7240   22.3070  -29.7440 C   0  0  0  0  0  0  0  0  0  0  0  0
   -1.0240   22.2820  -30.8980 N   0  0  0  0  0  0  0  0  0  0  0  0
   -0.9030   20.9710  -31.1880 C   0  0  0  0  0  0  0  0  0  0  0  0
   -1.5120   20.2220  -30.2050 C   0  0  0  0  0  0  0  0  0  0  0  0
   -2.0310   21.0680  -29.3000 N   0  0  0  0  0  0  0  0  0  0  0  0
   -2.7090   20.6940  -28.0610 C   0  0  0  0  0  0  0  0  0  0  0  0
   -4.0460   24.1740  -30.3130 C   0  0  0  0  0  0  0  0  0  0  0  0
   -3.8750   25.3100  -30.8350 O   0  0  0  0  0  0  0  0  0  0  0  0
   -4.8570   23.1550  -31.0200 C   0  0  0  0  0  0  0  0  0  0  0  0
   -4.2490   22.2740  -31.9300 C   0  0  0  0  0  0  0  0  0  0  0  0
   -4.9990   21.2930  -32.5830 C   0  0  0  0  0  0  0  0  0  0  0  0
   -6.3710   21.1690  -32.3280 C   0  0  0  0  0  0  0  0  0  0  0  0
   -7.1340   20.1840  -32.9740 C   0  0  0  0  0  0  0  0  0  0  0  0
   -8.5000   20.0650  -32.7060 C   0  0  0  0  0  0  0  0  0  0  0  0
   -9.1150   20.9260  -31.7930 C   0  0  0  0  0  0  0  0  0  0  0  0
   -8.3660   21.9110  -31.1410 C   0  0  0  0  0  0  0  0  0  0  0  0
   -6.9940   22.0420  -31.4050 C   0  0  0  0  0  0  0  0  0  0  0  0
   -6.2330   23.0270  -30.7580 C   0  0  0  0  0  0  0  0  0  0  0  0
   -3.5681   23.8925  -26.9505 H   0  0  0  0  0  0  0  0  0  0  0  0
   -4.8248   24.8493  -27.8059 H   0  0  0  0  0  0  0  0  0  0  0  0
   -4.9073   23.0549  -27.8059 H   0  0  0  0  0  0  0  0  0  0  0  0
   -1.4279   24.4015  -29.4561 H   0  0  0  0  0  0  0  0  0  0  0  0
   -1.6883   23.4586  -27.9478 H   0  0  0  0  0  0  0  0  0  0  0  0
   -0.3956   20.5618  -32.0741 H   0  0  0  0  0  0  0  0  0  0  0  0
   -1.5641   19.1239  -30.1678 H   0  0  0  0  0  0  0  0  0  0  0  0
   -2.1091   21.0249  -27.2004 H   0  0  0  0  0  0  0  0  0  0  0  0
   -3.6980   21.1742  -28.0249 H   0  0  0  0  0  0  0  0  0  0  0  0
   -2.8304   19.6013  -28.0249 H   0  0  0  0  0  0  0  0  0  0  0  0
   -3.1707   22.3576  -32.1304 H   0  0  0  0  0  0  0  0  0  0  0  0
   -4.5110   20.6159  -33.2995 H   0  0  0  0  0  0  0  0  0  0  0  0
   -6.6551   19.5036  -33.6935 H   0  0  0  0  0  0  0  0  0  0  0  0
   -9.0933   19.2912  -33.2152 H   0  0  0  0  0  0  0  0  0  0  0  0
  -10.1911   20.8288  -31.5866 H   0  0  0  0  0  0  0  0  0  0  0  0
   -8.8532   22.5840  -30.4201 H   0  0  0  0  0  0  0  0  0  0  0  0
   -6.7166   23.7052  -30.0395 H   0  0  0  0  0  0  0  0  0  0  0  0
  1  2  1  0
  2  3  1  0
  3  4  1  0
  4  5  2  0
  5  6  1  0
  6  7  2  0
  7  8  1  0
  8  9  1  0
  2 10  1  0
 10 11  2  0
 10 12  1  0
 12 13  2  0
 13 14  1  0
 14 15  2  0
 15 16  1  0
 16 17  2  0
 17 18  1  0
 18 19  2  0
 19 20  1  0
 20 21  2  0
  8  4  1  0
 21 12  1  0
 20 15  1  0
  1 22  1  0
  1 23  1  0
  1 24  1  0
  3 25  1  0
  3 26  1  0
  6 27  1  0
  7 28  1  0
  9 29  1  0
  9 30  1  0
  9 31  1  0
 13 32  1  0
 14 33  1  0
 16 34  1  0
 17 35  1  0
 18 36  1  0
 19 37  1  0
 21 38  1  0
M  END
>  <UniqueID>  (44) 
41

>  <SMILES>  (44) 
CN(Cc1nccn1C)C(=O)c1ccc2ccccc2c1

>  <Energy>  (44) 
73.20492524742433

>  <Genealogy>  (44) 
CN(Cc1nccn1C)C(=O)c1ccc2ccccc2c1 (3D coordinates assigned)
CN(Cc1nccn1C)C(=O)c1ccc2ccccc2c1 (optimized conformer: 73.20492524742433 kcal/mol)

>  <smiles>  (44) 
CN(Cc1nccn1C)C(=O)c1ccc2ccccc2c1

>  <score_type>  (44) 
oracle

>  <origin>  (44) 
adg

>  <m_score__min__energy>  (44) 
-8.1999999999999993

>  <m_primary>  (44) 
energy

$$$$
44:0
     RDKit          3D

 48 51  0  0  0  0  0  0  0  0999 V2000
   -5.3390   25.6920  -30.5690 C   0  0  0  0  0  0  0  0  0  0  0  0
   -4.0320   25.1460  -30.4300 O   0  0  0  0  0  0  0  0  0  0  0  0
   -3.7320   23.9520  -29.7530 C   0  0  0  0  0  0  0  0  0  0  0  0
   -3.4740   23.9350  -28.3670 C   0  0  0  0  0  0  0  0  0  0  0  0
   -3.1760   22.7380  -27.7170 C   0  0  0  0  0  0  0  0  0  0  0  0
   -3.1260   21.5460  -28.4360 C   0  0  0  0  0  0  0  0  0  0  0  0
   -3.3790   21.5450  -29.8090 C   0  0  0  0  0  0  0  0  0  0  0  0
   -3.6920   22.7400  -30.4810 C   0  0  0  0  0  0  0  0  0  0  0  0
   -4.0420   22.7110  -31.9540 C   0  0  0  0  0  0  0  0  0  0  0  0
   -4.8150   21.4940  -32.2790 N   0  0  0  0  0  0  0  0  0  0  0  0
   -4.0590   20.4830  -32.9660 C   0  0  0  0  0  0  0  0  0  0  0  0
   -3.4040   20.7920  -33.9980 O   0  0  0  0  0  0  0  0  0  0  0  0
   -4.0600   19.0480  -32.4990 C   0  0  0  0  0  0  0  0  0  0  0  0
   -5.4150   18.3290  -32.7150 C   0  0  2  0  0  0  0  0  0  0  0  0
   -5.3180   16.8360  -33.0110 C   0  0  0  0  0  0  0  0  0  0  0  0
   -4.1770   16.0680  -32.6900 C   0  0  0  0  0  0  0  0  0  0  0  0
   -4.1110   14.7150  -33.0340 C   0  0  0  0  0  0  0  0  0  0  0  0
   -5.1750   14.1100  -33.7050 C   0  0  0  0  0  0  0  0  0  0  0  0
   -6.3040   14.8590  -34.0430 C   0  0  0  0  0  0  0  0  0  0  0  0
   -6.3740   16.2140  -33.7040 C   0  0  0  0  0  0  0  0  0  0  0  0
   -6.4640   19.2110  -33.9380 S   0  0  0  0  0  0  0  0  0  0  0  0
   -7.0830   20.4570  -32.7930 C   0  0  0  0  0  0  0  0  0  0  0  0
   -8.4770   20.4810  -32.6430 C   0  0  0  0  0  0  0  0  0  0  0  0
   -9.0840   21.3540  -31.7490 C   0  0  0  0  0  0  0  0  0  0  0  0
   -8.3050   22.2080  -30.9810 C   0  0  0  0  0  0  0  0  0  0  0  0
   -6.9180   22.2160  -31.1260 C   0  0  0  0  0  0  0  0  0  0  0  0
   -6.2610   21.3740  -32.0600 C   0  0  0  0  0  0  0  0  0  0  0  0
   -5.7692   25.8717  -29.5727 H   0  0  0  0  0  0  0  0  0  0  0  0
   -5.2828   26.6419  -31.1209 H   0  0  0  0  0  0  0  0  0  0  0  0
   -5.9752   24.9844  -31.1209 H   0  0  0  0  0  0  0  0  0  0  0  0
   -3.5081   24.8734  -27.7940 H   0  0  0  0  0  0  0  0  0  0  0  0
   -2.9801   22.7350  -26.6346 H   0  0  0  0  0  0  0  0  0  0  0  0
   -2.8868   20.6038  -27.9211 H   0  0  0  0  0  0  0  0  0  0  0  0
   -3.3331   20.6003  -30.3706 H   0  0  0  0  0  0  0  0  0  0  0  0
   -4.6435   23.5984  -32.2006 H   0  0  0  0  0  0  0  0  0  0  0  0
   -3.1114   22.7083  -32.5406 H   0  0  0  0  0  0  0  0  0  0  0  0
   -3.2832   18.5009  -33.0533 H   0  0  0  0  0  0  0  0  0  0  0  0
   -3.8691   19.0601  -31.4158 H   0  0  0  0  0  0  0  0  0  0  0  0
   -5.9141   18.3760  -31.7359 H   0  0  0  0  0  0  0  0  0  0  0  0
   -3.3330   16.5388  -32.1647 H   0  0  0  0  0  0  0  0  0  0  0  0
   -3.2188   14.1257  -32.7755 H   0  0  0  0  0  0  0  0  0  0  0  0
   -5.1241   13.0430  -33.9676 H   0  0  0  0  0  0  0  0  0  0  0  0
   -7.1396   14.3825  -34.5767 H   0  0  0  0  0  0  0  0  0  0  0  0
   -7.2629   16.7996  -33.9815 H   0  0  0  0  0  0  0  0  0  0  0  0
   -9.0986   19.7990  -33.2417 H   0  0  0  0  0  0  0  0  0  0  0  0
  -10.1794   21.3683  -31.6501 H   0  0  0  0  0  0  0  0  0  0  0  0
   -8.7836   22.8815  -30.2548 H   0  0  0  0  0  0  0  0  0  0  0  0
   -6.3178   22.8927  -30.5000 H   0  0  0  0  0  0  0  0  0  0  0  0
  1  2  1  0
  2  3  1  0
  3  4  2  0
  4  5  1  0
  5  6  2  0
  6  7  1  0
  7  8  2  0
  8  9  1  0
  9 10  1  0
 10 11  1  0
 11 12  2  0
 11 13  1  0
 13 14  1  0
 14 15  1  0
 15 16  2  0
 16 17  1  0
 17 18  2  0
 18 19  1  0
 19 20  2  0
 14 21  1  0
 21 22  1  0
 22 23  2  0
 23 24  1  0
 24 25  2  0
 25 26  1  0
 26 27  2  0
  8  3  1  0
 27 10  1  0
 20 15  1  0
 27 22  1  0
  1 28  1  0
  1 29  1  0
  1 30  1  0
  4 31  1  0
  5 32  1  0
  6 33  1  0
  7 34  1  0
  9 35  1  0
  9 36  1  0
 13 37  1  0
 13 38  1  0
 14 39  1  1
 16 40  1  0
 17 41  1  0
 18 42  1  0
 19 43  1  0
 20 44  1  0
 23 45  1  0
 24 46  1  0
 25 47  1  0
 26 48  1  0
M  END
>  <UniqueID>  (45) 
42

>  <SMILES>  (45) 
COc1ccccc1CN1C(=O)C[C@H](c2ccccc2)Sc2ccccc21

>  <Energy>  (45) 
73.91110422458084

>  <Genealogy>  (45) 
COc1ccccc1CN1C(=O)C[C@H](c2ccccc2)Sc2ccccc21 (chirality)
COc1ccccc1CN1C(=O)C[C@H](c2ccccc2)Sc2ccccc21 (3D coordinates assigned)
COc1ccccc1CN1C(=O)C[C@H](c2ccccc2)Sc2ccccc21 (nonaromatic ring conformer: 73.91110422458084 kcal/mol)

>  <smiles>  (45) 
COc1ccccc1CN1C(=O)CC(c2ccccc2)Sc2ccccc21

>  <score_type>  (45) 
oracle

>  <origin>  (45) 
adg

>  <m_score__min__energy>  (45) 
-7.7000000000000002

>  <m_primary>  (45) 
energy

$$$$
45:0
     RDKit          3D

 54 56  0  0  0  0  0  0  0  0999 V2000
   -0.6897   20.9124  -35.7861 H   0  0  0  0  0  0  0  0  0  0  0  0
   -0.0900   21.4770  -35.0570 C   0  0  0  0  0  0  0  0  0  0  0  0
    0.2730   22.6900  -35.3350 N   0  0  0  0  0  0  0  0  0  0  0  0
    1.5410   23.1510  -35.0550 O   0  0  0  0  0  0  0  0  0  0  0  0
    2.3550   23.6840  -36.0860 C   0  0  0  0  0  0  0  0  0  0  0  0
    2.0875   23.2147  -37.0442 H   0  0  0  0  0  0  0  0  0  0  0  0
    3.4124   23.4805  -35.8611 H   0  0  0  0  0  0  0  0  0  0  0  0
    2.1340   25.1980  -36.1790 C   0  0  0  0  0  0  0  0  0  0  0  0
    1.9194   25.4578  -37.2261 H   0  0  0  0  0  0  0  0  0  0  0  0
    3.0489   25.6884  -35.8151 H   0  0  0  0  0  0  0  0  0  0  0  0
    1.0160   25.6670  -35.3390 N   0  0  0  0  0  0  0  0  0  0  0  0
    0.4220   24.8470  -35.0730 H   0  0  0  0  0  0  0  0  0  0  0  0
    1.4090   26.0610  -34.4520 H   0  0  0  0  0  0  0  0  0  0  0  0
    0.1540   26.6850  -35.9730 C   0  0  0  0  0  0  0  0  0  0  0  0
   -0.6467   26.1720  -36.5260 H   0  0  0  0  0  0  0  0  0  0  0  0
    0.7894   27.2878  -36.6385 H   0  0  0  0  0  0  0  0  0  0  0  0
   -0.4850   27.6380  -34.9600 C   0  0  0  0  0  0  0  0  0  0  0  0
   -0.2558   27.2962  -33.9399 H   0  0  0  0  0  0  0  0  0  0  0  0
   -0.0832   28.6515  -35.1061 H   0  0  0  0  0  0  0  0  0  0  0  0
   -1.5752   27.6512  -35.1061 H   0  0  0  0  0  0  0  0  0  0  0  0
    0.2940   20.8270  -33.7550 C   0  0  0  0  0  0  0  0  0  0  0  0
    0.8735   19.9191  -33.9783 H   0  0  0  0  0  0  0  0  0  0  0  0
    0.8749   21.5679  -33.1861 H   0  0  0  0  0  0  0  0  0  0  0  0
   -0.8600   20.4480  -32.9150 N   0  0  0  0  0  0  0  0  0  0  0  0
   -1.4560   19.1220  -33.1690 C   0  0  0  0  0  0  0  0  0  0  0  0
   -0.7323   18.5167  -33.7346 H   0  0  0  0  0  0  0  0  0  0  0  0
   -1.6927   18.6788  -32.1905 H   0  0  0  0  0  0  0  0  0  0  0  0
   -2.7690   19.1870  -33.9690 C   0  0  0  0  0  0  0  0  0  0  0  0
   -2.5293   19.4240  -35.0161 H   0  0  0  0  0  0  0  0  0  0  0  0
   -3.2616   18.2085  -33.8700 H   0  0  0  0  0  0  0  0  0  0  0  0
   -3.7090   20.2060  -33.4600 N   0  0  0  0  0  0  0  0  0  0  0  0
   -4.3520   19.8280  -32.1830 C   0  0  0  0  0  0  0  0  0  0  0  0
   -3.8054   18.9831  -31.7386 H   0  0  0  0  0  0  0  0  0  0  0  0
   -4.3301   20.6930  -31.5039 H   0  0  0  0  0  0  0  0  0  0  0  0
   -5.7790   19.4270  -32.4120 C   0  0  0  0  0  0  0  0  0  0  0  0
   -6.2380   18.2210  -32.9300 C   0  0  0  0  0  0  0  0  0  0  0  0
   -5.5977   17.3761  -33.2234 H   0  0  0  0  0  0  0  0  0  0  0  0
   -7.5560   18.2390  -33.0180 O   0  0  0  0  0  0  0  0  0  0  0  0
   -7.9690   19.4070  -32.5850 C   0  0  0  0  0  0  0  0  0  0  0  0
   -9.2810   19.8690  -32.5020 C   0  0  0  0  0  0  0  0  0  0  0  0
  -10.1261   19.2371  -32.8126 H   0  0  0  0  0  0  0  0  0  0  0  0
   -9.4900   21.1700  -32.0080 C   0  0  0  0  0  0  0  0  0  0  0  0
  -10.5131   21.5662  -31.9288 H   0  0  0  0  0  0  0  0  0  0  0  0
   -8.3950   21.9710  -31.6130 C   0  0  0  0  0  0  0  0  0  0  0  0
   -8.5709   22.9873  -31.2306 H   0  0  0  0  0  0  0  0  0  0  0  0
   -7.0800   21.4760  -31.7060 C   0  0  0  0  0  0  0  0  0  0  0  0
   -6.2180   22.0880  -31.4020 H   0  0  0  0  0  0  0  0  0  0  0  0
   -6.9100   20.1830  -32.1970 C   0  0  0  0  0  0  0  0  0  0  0  0
   -3.0700   21.5320  -33.4010 C   0  0  0  0  0  0  0  0  0  0  0  0
   -2.8103   21.8450  -34.4230 H   0  0  0  0  0  0  0  0  0  0  0  0
   -3.7833   22.2282  -32.9358 H   0  0  0  0  0  0  0  0  0  0  0  0
   -1.7940   21.5280  -32.5470 C   0  0  0  0  0  0  0  0  0  0  0  0
   -1.2825   22.4933  -32.6758 H   0  0  0  0  0  0  0  0  0  0  0  0
   -2.0965   21.3609  -31.5027 H   0  0  0  0  0  0  0  0  0  0  0  0
  1  2  1  0
  2  3  2  0
  3  4  1  0
  4  5  1  0
  5  6  1  0
  5  7  1  0
  5  8  1  0
  8  9  1  0
  8 10  1  0
  8 11  1  0
 11 12  1  0
 11 13  1  0
 11 14  1  0
 14 15  1  0
 14 16  1  0
 14 17  1  0
 17 18  1  0
 17 19  1  0
 17 20  1  0
  2 21  1  0
 21 22  1  0
 21 23  1  0
 21 24  1  0
 24 25  1  0
 25 26  1  0
 25 27  1  0
 25 28  1  0
 28 29  1  0
 28 30  1  0
 28 31  1  0
 31 32  1  0
 32 33  1  0
 32 34  1  0
 32 35  1  0
 35 36  2  0
 36 37  1  0
 36 38  1  0
 38 39  1  0
 39 40  2  0
 40 41  1  0
 40 42  1  0
 42 43  1  0
 42 44  2  0
 44 45  1  0
 44 46  1  0
 46 47  1  0
 46 48  2  0
 31 49  1  0
 49 50  1  0
 49 51  1  0
 49 52  1  0
 52 53  1  0
 52 54  1  0
 52 24  1  0
 48 35  1  0
 48 39  1  0
M  CHG  1  11   1
M  END
>  <UniqueID>  (46) 
43

>  <SMILES>  (46) 
CC[NH2+]CCO/N=C\CN1CCN(Cc2coc3ccccc23)CC1

>  <Energy>  (46) 
95.45300051484404

>  <Genealogy>  (46) 
CC[NH2+]CCON=CCN1CCN(Cc2coc3ccccc23)CC1 (protonated)
CC[NH2+]CCO/N=C\CN1CCN(Cc2coc3ccccc23)CC1 (cis-trans isomerization)
CC[NH2+]CCO/N=C\CN1CCN(Cc2coc3ccccc23)CC1 (3D coordinates assigned)
CC[NH2+]CCO/N=C\CN1CCN(Cc2coc3ccccc23)CC1 (nonaromatic ring conformer: 95.45300051484404 kcal/mol)

>  <smiles>  (46) 
CCNCCON=CCN1CCN(Cc2coc3ccccc23)CC1

>  <score_type>  (46) 
oracle

>  <origin>  (46) 
adg

>  <m_score__min__energy>  (46) 
-8.1300000000000008

>  <m_primary>  (46) 
energy

$$$$
