0:0
     RDKit          3D

 46 46  0  0  0  0  0  0  0  0999 V2000
   -5.7100   18.4920  -34.8670 C   0  0  0  0  0  0  0  0  0  0  0  0
   -5.5170   17.8030  -33.5170 C   0  0  0  0  0  0  0  0  0  0  0  0
   -6.8320   17.2730  -32.9260 C   0  0  0  0  0  0  0  0  0  0  0  0
   -7.1760   17.9190  -31.5770 C   0  0  0  0  0  0  0  0  0  0  0  0
   -8.5930   18.5110  -31.5950 C   0  0  0  0  0  0  0  0  0  0  0  0
   -8.7660   19.5620  -32.7010 C   0  0  0  0  0  0  0  0  0  0  0  0
   -8.0110   20.7830  -32.3990 N   0  0  0  0  0  0  0  0  0  0  0  0
   -6.6890   20.7760  -32.5990 N   0  0  0  0  0  0  0  0  0  0  0  0
   -5.9020   21.8500  -32.3180 C   0  0  0  0  0  0  0  0  0  0  0  0
   -4.4500   21.7720  -32.5480 C   0  0  0  0  0  0  0  0  0  0  0  0
   -4.0050   21.0480  -33.4820 O   0  0  0  0  0  0  0  0  0  0  0  0
   -3.5700   22.4950  -31.7320 O   0  0  0  0  0  0  0  0  0  0  0  0
   -3.2230   22.0930  -30.4080 C   0  0  0  0  0  0  0  0  0  0  0  0
   -3.5060   23.2020  -29.4340 C   0  0  0  0  0  0  0  0  0  0  0  0
   -4.0670   22.9230  -28.3400 O   0  0  0  0  0  0  0  0  0  0  0  0
   -3.1710   24.6050  -29.7350 C   0  0  0  0  0  0  0  0  0  0  0  0
   -2.2850   25.2070  -29.0680 O   0  0  0  0  0  0  0  0  0  0  0  0
   -3.8620   25.2840  -30.7890 N   0  0  0  0  0  0  0  0  0  0  0  0
   -5.2700   25.6660  -30.7180 C   0  0  0  0  0  0  0  0  0  0  0  0
   -5.8650   25.2760  -29.3670 C   0  0  0  0  0  0  0  0  0  0  0  0
   -6.4940   23.0060  -31.7990 C   0  0  0  0  0  0  0  0  0  0  0  0
   -7.8680   23.0280  -31.5840 C   0  0  0  0  0  0  0  0  0  0  0  0
   -8.6270   21.8970  -31.8870 C   0  0  0  0  0  0  0  0  0  0  0  0
   -9.8720   21.9140  -31.6870 O   0  0  0  0  0  0  0  0  0  0  0  0
   -6.0035   19.5397  -34.7053 H   0  0  0  0  0  0  0  0  0  0  0  0
   -4.7679   18.4584  -35.4338 H   0  0  0  0  0  0  0  0  0  0  0  0
   -6.4976   17.9739  -35.4338 H   0  0  0  0  0  0  0  0  0  0  0  0
   -4.8253   16.9580  -33.6494 H   0  0  0  0  0  0  0  0  0  0  0  0
   -5.1173   18.5516  -32.8172 H   0  0  0  0  0  0  0  0  0  0  0  0
   -7.6466   17.4828  -33.6349 H   0  0  0  0  0  0  0  0  0  0  0  0
   -6.7095   16.1931  -32.7564 H   0  0  0  0  0  0  0  0  0  0  0  0
   -7.1150   17.1560  -30.7870 H   0  0  0  0  0  0  0  0  0  0  0  0
   -6.4595   18.7313  -31.3848 H   0  0  0  0  0  0  0  0  0  0  0  0
   -9.3149   17.6981  -31.7622 H   0  0  0  0  0  0  0  0  0  0  0  0
   -8.7657   19.0056  -30.6278 H   0  0  0  0  0  0  0  0  0  0  0  0
   -8.4053   19.1438  -33.6523 H   0  0  0  0  0  0  0  0  0  0  0  0
   -9.8328   19.8215  -32.7695 H   0  0  0  0  0  0  0  0  0  0  0  0
   -3.8141   21.2076  -30.1312 H   0  0  0  0  0  0  0  0  0  0  0  0
   -2.1495   21.8550  -30.3766 H   0  0  0  0  0  0  0  0  0  0  0  0
   -5.3564   26.7546  -30.8504 H   0  0  0  0  0  0  0  0  0  0  0  0
   -5.8204   25.1412  -31.5128 H   0  0  0  0  0  0  0  0  0  0  0  0
   -5.2404   25.6854  -28.5594 H   0  0  0  0  0  0  0  0  0  0  0  0
   -6.8840   25.6820  -29.2842 H   0  0  0  0  0  0  0  0  0  0  0  0
   -5.8993   24.1797  -29.2842 H   0  0  0  0  0  0  0  0  0  0  0  0
   -5.8799   23.8878  -31.5635 H   0  0  0  0  0  0  0  0  0  0  0  0
   -8.3519   23.9289  -31.1788 H   0  0  0  0  0  0  0  0  0  0  0  0
  1  2  1  0
  2  3  1  0
  3  4  1  0
  4  5  1  0
  5  6  1  0
  6  7  1  0
  7  8  1  0
  8  9  2  0
  9 10  1  0
 10 11  2  0
 10 12  1  0
 12 13  1  0
 13 14  1  0
 14 15  2  0
 14 16  1  0
 16 17  2  0
 16 18  1  0
 18 19  1  0
 19 20  1  0
  9 21  1  0
 21 22  2  0
 22 23  1  0
 23 24  2  0
 23  7  1  0
  1 25  1  0
  1 26  1  0
  1 27  1  0
  2 28  1  0
  2 29  1  0
  3 30  1  0
  3 31  1  0
  4 32  1  0
  4 33  1  0
  5 34  1  0
  5 35  1  0
  6 36  1  0
  6 37  1  0
 13 38  1  0
 13 39  1  0
 19 40  1  0
 19 41  1  0
 20 42  1  0
 20 43  1  0
 20 44  1  0
 21 45  1  0
 22 46  1  0
M  CHG  1  18  -1
M  END
>  <UniqueID>  (1) 
1

>  <SMILES>  (1) 
CCCCCCn1nc(C(=O)OCC(=O)C(=O)[N-]CC)ccc1=O

>  <Energy>  (1) 
26.631437030520523

>  <Genealogy>  (1) 
CCCCCCn1nc(C(=O)OCC(=O)C(=O)[N-]CC)ccc1=O (protonated)
CCCCCCn1nc(C(=O)OCC(=O)C(=O)[N-]CC)ccc1=O (3D coordinates assigned)
CCCCCCn1nc(C(=O)OCC(=O)C(=O)[N-]CC)ccc1=O (optimized conformer: 26.631437030520523 kcal/mol)

>  <smiles>  (1) 
CCCCCCn1nc(C(=O)OCC(=O)C(=O)NCC)ccc1=O

>  <score_type>  (1) 
oracle

>  <origin>  (1) 
adg

>  <m_score__min__energy>  (1) 
-9.1500000000000004

>  <m_primary>  (1) 
energy

$$$$
1:0
     RDKit          3D

 29 30  0  0  0  0  0  0  0  0999 V2000
   -2.7290   21.1660  -32.1960 C   0  0  0  0  0  0  0  0  0  0  0  0
   -3.7550   21.3340  -31.2220 O   0  0  0  0  0  0  0  0  0  0  0  0
   -4.9750   21.9900  -31.4510 C   0  0  0  0  0  0  0  0  0  0  0  0
   -6.0600   21.3360  -32.0700 C   0  0  0  0  0  0  0  0  0  0  0  0
   -7.2450   22.0250  -32.3350 C   0  0  0  0  0  0  0  0  0  0  0  0
   -7.3640   23.3720  -31.9920 C   0  0  0  0  0  0  0  0  0  0  0  0
   -6.3030   24.0320  -31.3710 C   0  0  0  0  0  0  0  0  0  0  0  0
   -5.1110   23.3460  -31.0770 C   0  0  0  0  0  0  0  0  0  0  0  0
   -4.0130   24.0760  -30.4060 C   0  0  0  0  0  0  0  0  0  0  0  0
   -3.8660   25.3050  -30.6400 O   0  0  0  0  0  0  0  0  0  0  0  0
   -3.1290   23.3970  -29.4950 N   0  0  0  0  0  0  0  0  0  0  0  0
   -2.0430   24.0320  -28.8020 C   0  0  0  0  0  0  0  0  0  0  0  0
   -2.2560   24.8470  -27.6780 C   0  0  0  0  0  0  0  0  0  0  0  0
   -1.1700   25.4240  -27.0170 C   0  0  0  0  0  0  0  0  0  0  0  0
    0.1250   25.1690  -27.4750 C   0  0  0  0  0  0  0  0  0  0  0  0
    1.5060   25.8770  -26.6620 Cl  0  0  0  0  0  0  0  0  0  0  0  0
    0.3170   24.3590  -28.5490 N   0  0  0  0  0  0  0  0  0  0  0  0
   -0.7240   23.7850  -29.2100 C   0  0  0  0  0  0  0  0  0  0  0  0
   -1.7652   21.0082  -31.6898 H   0  0  0  0  0  0  0  0  0  0  0  0
   -2.9599   20.2937  -32.8251 H   0  0  0  0  0  0  0  0  0  0  0  0
   -2.6697   22.0664  -32.8251 H   0  0  0  0  0  0  0  0  0  0  0  0
   -5.9721   20.2749  -32.3462 H   0  0  0  0  0  0  0  0  0  0  0  0
   -8.0867   21.5046  -32.8153 H   0  0  0  0  0  0  0  0  0  0  0  0
   -8.2954   23.9145  -32.2114 H   0  0  0  0  0  0  0  0  0  0  0  0
   -6.3996   25.0961  -31.1096 H   0  0  0  0  0  0  0  0  0  0  0  0
   -3.2410   22.3660  -29.3650 H   0  0  0  0  0  0  0  0  0  0  0  0
   -3.2792   25.0308  -27.3183 H   0  0  0  0  0  0  0  0  0  0  0  0
   -1.3324   26.0732  -26.1440 H   0  0  0  0  0  0  0  0  0  0  0  0
   -0.5306   23.1244  -30.0680 H   0  0  0  0  0  0  0  0  0  0  0  0
  1  2  1  0
  2  3  1  0
  3  4  2  0
  4  5  1  0
  5  6  2  0
  6  7  1  0
  7  8  2  0
  8  9  1  0
  9 10  2  0
  9 11  1  0
 11 12  1  0
 12 13  2  0
 13 14  1  0
 14 15  2  0
 15 16  1  0
 15 17  1  0
 17 18  2  0
  8  3  1  0
 18 12  1  0
  1 19  1  0
  1 20  1  0
  1 21  1  0
  4 22  1  0
  5 23  1  0
  6 24  1  0
  7 25  1  0
 11 26  1  0
 13 27  1  0
 14 28  1  0
 18 29  1  0
M  END
>  <UniqueID>  (2) 
2

>  <SMILES>  (2) 
COc1ccccc1C(=O)Nc1ccc(Cl)nc1

>  <Energy>  (2) 
38.49074006988813

>  <Genealogy>  (2) 
COc1ccccc1C(=O)Nc1ccc(Cl)nc1 (3D coordinates assigned)
COc1ccccc1C(=O)Nc1ccc(Cl)nc1 (optimized conformer: 38.49074006988813 kcal/mol)

>  <smiles>  (2) 
COc1ccccc1C(=O)Nc1ccc(Cl)nc1

>  <score_type>  (2) 
oracle

>  <origin>  (2) 
adg

>  <m_score__min__energy>  (2) 
-6.2300000000000004

>  <m_primary>  (2) 
energy

$$$$
2:0
     RDKit          3D

 59 61  0  0  0  0  0  0  0  0999 V2000
   -0.4810   26.5860  -27.4850 C   0  0  0  0  0  0  0  0  0  0  0  0
   -0.9990   25.9190  -28.6300 O   0  0  0  0  0  0  0  0  0  0  0  0
   -2.0000   24.9470  -28.5480 C   0  0  0  0  0  0  0  0  0  0  0  0
   -2.0020   24.1110  -27.6030 O   0  0  0  0  0  0  0  0  0  0  0  0
   -3.0250   24.9140  -29.5470 N   0  0  0  0  0  0  0  0  0  0  0  0
   -4.1700   23.9980  -29.4780 C   0  0  2  0  0  0  0  0  0  0  0  0
   -3.7210   22.5400  -29.7350 C   0  0  0  0  0  0  0  0  0  0  0  0
   -3.2780   22.2790  -31.1960 C   0  0  0  0  0  0  0  0  0  0  0  0
   -4.2070   21.2580  -31.9090 C   0  0  0  0  0  0  0  0  0  0  0  0
   -3.4980   20.5670  -33.0770 C   0  0  0  0  0  0  0  0  0  0  0  0
   -2.2820   19.7500  -32.5950 C   0  0  0  0  0  0  0  0  0  0  0  0
   -1.6200   20.3300  -31.3300 C   0  0  0  0  0  0  0  0  0  0  0  0
   -1.7830   21.8520  -31.2540 C   0  0  0  0  0  0  0  0  0  0  0  0
   -5.2100   24.4020  -30.5010 C   0  0  0  0  0  0  0  0  0  0  0  0
   -4.9910   25.4140  -31.2230 O   0  0  0  0  0  0  0  0  0  0  0  0
   -6.4010   23.6100  -30.7230 N   0  0  0  0  0  0  0  0  0  0  0  0
   -7.2020   23.8040  -31.9410 C   0  0  0  0  0  0  0  0  0  0  0  0
   -7.5670   22.4500  -32.5640 C   0  0  0  0  0  0  0  0  0  0  0  0
   -8.0980   21.3950  -31.5230 C   0  0  0  0  0  0  0  0  0  0  0  0
   -9.4650   20.8440  -31.9580 C   0  0  0  0  0  0  0  0  0  0  0  0
   -9.1650   19.7300  -32.9550 C   0  0  0  0  0  0  0  0  0  0  0  0
   -7.7350   19.2690  -32.6760 C   0  0  0  0  0  0  0  0  0  0  0  0
   -7.2150   20.1330  -31.5320 C   0  0  0  0  0  0  0  0  0  0  0  0
   -8.1930   21.9990  -30.0970 C   0  0  0  0  0  0  0  0  0  0  0  0
   -6.8770   22.6750  -29.6910 C   0  0  0  0  0  0  0  0  0  0  0  0
   -0.8594   26.0987  -26.5743 H   0  0  0  0  0  0  0  0  0  0  0  0
    0.6178   26.5366  -27.4977 H   0  0  0  0  0  0  0  0  0  0  0  0
   -0.8009   27.6384  -27.4977 H   0  0  0  0  0  0  0  0  0  0  0  0
   -3.0270   25.6760  -30.2640 H   0  0  0  0  0  0  0  0  0  0  0  0
   -4.6048   24.0565  -28.4693 H   0  0  0  0  0  0  0  0  0  0  0  0
   -2.8754   22.3134  -29.0689 H   0  0  0  0  0  0  0  0  0  0  0  0
   -4.5900   21.8944  -29.5399 H   0  0  0  0  0  0  0  0  0  0  0  0
   -3.3733   23.2245  -31.7500 H   0  0  0  0  0  0  0  0  0  0  0  0
   -4.5228   20.4952  -31.1821 H   0  0  0  0  0  0  0  0  0  0  0  0
   -5.0740   21.8042  -32.3089 H   0  0  0  0  0  0  0  0  0  0  0  0
   -4.2076   19.8912  -33.5767 H   0  0  0  0  0  0  0  0  0  0  0  0
   -3.1406   21.3417  -33.7714 H   0  0  0  0  0  0  0  0  0  0  0  0
   -2.6150   18.7248  -32.3759 H   0  0  0  0  0  0  0  0  0  0  0  0
   -1.5310   19.7794  -33.3982 H   0  0  0  0  0  0  0  0  0  0  0  0
   -2.0867   19.8765  -30.4432 H   0  0  0  0  0  0  0  0  0  0  0  0
   -0.5448   20.1011  -31.3691 H   0  0  0  0  0  0  0  0  0  0  0  0
   -1.2743   22.2184  -30.3501 H   0  0  0  0  0  0  0  0  0  0  0  0
   -1.3423   22.2854  -32.1639 H   0  0  0  0  0  0  0  0  0  0  0  0
   -8.1247   24.3456  -31.6853 H   0  0  0  0  0  0  0  0  0  0  0  0
   -6.6121   24.3828  -32.6670 H   0  0  0  0  0  0  0  0  0  0  0  0
   -8.3488   22.6154  -33.3199 H   0  0  0  0  0  0  0  0  0  0  0  0
   -6.6440   22.0369  -32.9969 H   0  0  0  0  0  0  0  0  0  0  0  0
  -10.0110   20.4450  -31.0904 H   0  0  0  0  0  0  0  0  0  0  0  0
  -10.0946   21.6281  -32.4040 H   0  0  0  0  0  0  0  0  0  0  0  0
   -9.8673   18.8952  -32.8143 H   0  0  0  0  0  0  0  0  0  0  0  0
   -9.2730   20.0844  -33.9907 H   0  0  0  0  0  0  0  0  0  0  0  0
   -7.7281   18.2084  -32.3843 H   0  0  0  0  0  0  0  0  0  0  0  0
   -7.1030   19.3720  -33.5704 H   0  0  0  0  0  0  0  0  0  0  0  0
   -7.3042   19.5965  -30.5759 H   0  0  0  0  0  0  0  0  0  0  0  0
   -6.1523   20.3839  -31.6653 H   0  0  0  0  0  0  0  0  0  0  0  0
   -9.0007   22.7454  -30.0768 H   0  0  0  0  0  0  0  0  0  0  0  0
   -8.3991   21.1844  -29.3871 H   0  0  0  0  0  0  0  0  0  0  0  0
   -7.0359   23.2295  -28.7543 H   0  0  0  0  0  0  0  0  0  0  0  0
   -6.1158   21.8914  -29.5627 H   0  0  0  0  0  0  0  0  0  0  0  0
  1  2  1  0
  2  3  1  0
  3  4  2  0
  3  5  1  0
  5  6  1  0
  6  7  1  0
  7  8  1  0
  8  9  1  0
  9 10  1  0
 10 11  1  0
 11 12  1  0
 12 13  1  0
  6 14  1  0
 14 15  2  0
 14 16  1  0
 16 17  1  0
 17 18  1  0
 18 19  1  0
 19 20  1  0
 20 21  1  0
 21 22  1  0
 22 23  1  0
 19 24  1  0
 24 25  1  0
 13  8  1  0
 25 16  1  0
 23 19  1  0
  1 26  1  0
  1 27  1  0
  1 28  1  0
  5 29  1  0
  6 30  1  1
  7 31  1  0
  7 32  1  0
  8 33  1  0
  9 34  1  0
  9 35  1  0
 10 36  1  0
 10 37  1  0
 11 38  1  0
 11 39  1  0
 12 40  1  0
 12 41  1  0
 13 42  1  0
 13 43  1  0
 17 44  1  0
 17 45  1  0
 18 46  1  0
 18 47  1  0
 20 48  1  0
 20 49  1  0
 21 50  1  0
 21 51  1  0
 22 52  1  0
 22 53  1  0
 23 54  1  0
 23 55  1  0
 24 56  1  0
 24 57  1  0
 25 58  1  0
 25 59  1  0
M  END
>  <UniqueID>  (3) 
3

>  <SMILES>  (3) 
COC(=O)N[C@H](CC1CCCCC1)C(=O)N1CCC2(CCCC2)CC1

>  <Energy>  (3) 
60.14968305405785

>  <Genealogy>  (3) 
COC(=O)N[C@H](CC1CCCCC1)C(=O)N1CCC2(CCCC2)CC1 (chirality)
COC(=O)N[C@H](CC1CCCCC1)C(=O)N1CCC2(CCCC2)CC1 (3D coordinates assigned)
COC(=O)N[C@H](CC1CCCCC1)C(=O)N1CCC2(CCCC2)CC1 (nonaromatic ring conformer: 60.14968305405785 kcal/mol)

>  <smiles>  (3) 
COC(=O)NC(CC1CCCCC1)C(=O)N1CCC2(CCCC2)CC1

>  <score_type>  (3) 
oracle

>  <origin>  (3) 
adg

>  <m_score__min__energy>  (3) 
-9.9600000000000009

>  <m_primary>  (3) 
energy

$$$$
3:0
     RDKit          3D

 70 75  0  0  0  0  0  0  0  0999 V2000
   -6.8970   24.1250  -30.5140 C   0  0  0  0  0  0  0  0  0  0  0  0
   -7.9440   23.7350  -31.3970 O   0  0  0  0  0  0  0  0  0  0  0  0
   -8.1650   22.4200  -31.8350 C   0  0  0  0  0  0  0  0  0  0  0  0
   -9.4410   21.8290  -31.8300 C   0  0  0  0  0  0  0  0  0  0  0  0
   -9.6090   20.5150  -32.2720 C   0  0  0  0  0  0  0  0  0  0  0  0
   -8.5120   19.7820  -32.7280 C   0  0  0  0  0  0  0  0  0  0  0  0
   -7.2280   20.3560  -32.7500 C   0  0  0  0  0  0  0  0  0  0  0  0
   -6.0940   19.6010  -33.2330 N   0  0  0  0  0  0  0  0  0  0  0  0
   -6.0980   19.0450  -34.5940 C   0  0  0  0  0  0  0  0  0  0  0  0
   -5.3760   17.6930  -34.6240 C   0  0  0  0  0  0  0  0  0  0  0  0
   -4.0780   17.7510  -33.9370 N   0  0  0  0  0  0  0  0  0  0  0  0
   -3.2410   16.5760  -33.9300 C   0  0  0  0  0  0  0  0  0  0  0  0
   -3.7760   15.4370  -34.0100 O   0  0  0  0  0  0  0  0  0  0  0  0
   -1.7670   16.6670  -33.8300 C   0  0  0  0  0  0  0  0  0  0  0  0
   -1.1000   16.0700  -32.7480 C   0  0  0  0  0  0  0  0  0  0  0  0
    0.2900   16.1470  -32.6450 C   0  0  0  0  0  0  0  0  0  0  0  0
    1.0430   16.8000  -33.6340 C   0  0  0  0  0  0  0  0  0  0  0  0
    2.5430   16.9040  -33.5160 C   0  0  0  0  0  0  0  0  0  0  0  0
    2.9140   17.9620  -32.5740 N   0  0  0  0  0  0  0  0  0  0  0  0
    2.0300   18.5530  -31.5990 C   0  0  0  0  0  0  0  0  0  0  0  0
    2.0560   18.2010  -30.2250 C   0  0  0  0  0  0  0  0  0  0  0  0
    1.2010   18.8400  -29.3000 C   0  0  0  0  0  0  0  0  0  0  0  0
    0.2980   19.8290  -29.7220 C   0  0  0  0  0  0  0  0  0  0  0  0
    0.2680   20.1440  -31.0820 C   0  0  0  0  0  0  0  0  0  0  0  0
    1.1150   19.5450  -31.9760 C   0  0  0  0  0  0  0  0  0  0  0  0
    0.8500   20.1480  -33.1910 C   0  0  0  0  0  0  0  0  0  0  0  0
   -0.1190   21.0750  -33.0100 N   0  0  0  0  0  0  0  0  0  0  0  0
   -0.4770   21.0660  -31.7300 N   0  0  0  0  0  0  0  0  0  0  0  0
   -1.4990   21.9210  -31.1910 C   0  0  0  0  0  0  0  0  0  0  0  0
   -1.2570   22.7020  -30.0480 C   0  0  0  0  0  0  0  0  0  0  0  0
   -2.2700   23.5080  -29.5190 C   0  0  0  0  0  0  0  0  0  0  0  0
   -3.5330   23.5300  -30.1170 C   0  0  0  0  0  0  0  0  0  0  0  0
   -3.7870   22.7400  -31.2420 C   0  0  0  0  0  0  0  0  0  0  0  0
   -2.7770   21.9320  -31.7730 C   0  0  0  0  0  0  0  0  0  0  0  0
    0.3750   17.3890  -34.7210 C   0  0  0  0  0  0  0  0  0  0  0  0
   -1.0170   17.3170  -34.8210 C   0  0  0  0  0  0  0  0  0  0  0  0
   -3.6890   18.9650  -33.2040 C   0  0  0  0  0  0  0  0  0  0  0  0
   -4.8800   19.4990  -32.4030 C   0  0  0  0  0  0  0  0  0  0  0  0
   -7.0690   21.6770  -32.2910 C   0  0  0  0  0  0  0  0  0  0  0  0
   -7.2300   24.0010  -29.4730 H   0  0  0  0  0  0  0  0  0  0  0  0
   -6.0126   23.4960  -30.6935 H   0  0  0  0  0  0  0  0  0  0  0  0
   -6.6396   25.1793  -30.6935 H   0  0  0  0  0  0  0  0  0  0  0  0
  -10.3098   22.4037  -31.4767 H   0  0  0  0  0  0  0  0  0  0  0  0
  -10.6087   20.0562  -32.2608 H   0  0  0  0  0  0  0  0  0  0  0  0
   -8.6528   18.7470  -33.0730 H   0  0  0  0  0  0  0  0  0  0  0  0
   -7.1377   18.9075  -34.9258 H   0  0  0  0  0  0  0  0  0  0  0  0
   -5.5749   19.7425  -35.2647 H   0  0  0  0  0  0  0  0  0  0  0  0
   -6.0077   16.9411  -34.1284 H   0  0  0  0  0  0  0  0  0  0  0  0
   -5.1942   17.4262  -35.6756 H   0  0  0  0  0  0  0  0  0  0  0  0
   -1.6765   15.5383  -31.9767 H   0  0  0  0  0  0  0  0  0  0  0  0
    0.7993   15.6926  -31.7824 H   0  0  0  0  0  0  0  0  0  0  0  0
    2.9448   15.9445  -33.1585 H   0  0  0  0  0  0  0  0  0  0  0  0
    2.9604   17.1469  -34.5043 H   0  0  0  0  0  0  0  0  0  0  0  0
    3.9020   18.2960  -32.6200 H   0  0  0  0  0  0  0  0  0  0  0  0
    2.7497   17.4218  -29.8761 H   0  0  0  0  0  0  0  0  0  0  0  0
    1.2430   18.5597  -28.2371 H   0  0  0  0  0  0  0  0  0  0  0  0
   -0.3633   20.3383  -29.0056 H   0  0  0  0  0  0  0  0  0  0  0  0
    1.3441   19.9136  -34.1454 H   0  0  0  0  0  0  0  0  0  0  0  0
   -0.2676   22.6792  -29.5679 H   0  0  0  0  0  0  0  0  0  0  0  0
   -2.0724   24.1258  -28.6306 H   0  0  0  0  0  0  0  0  0  0  0  0
   -4.3269   24.1687  -29.7026 H   0  0  0  0  0  0  0  0  0  0  0  0
   -4.7824   22.7541  -31.7099 H   0  0  0  0  0  0  0  0  0  0  0  0
   -2.9844   21.3021  -32.6506 H   0  0  0  0  0  0  0  0  0  0  0  0
    0.9520   17.9105  -35.4988 H   0  0  0  0  0  0  0  0  0  0  0  0
   -1.5276   17.7729  -35.6821 H   0  0  0  0  0  0  0  0  0  0  0  0
   -2.8650   18.7262  -32.5156 H   0  0  0  0  0  0  0  0  0  0  0  0
   -3.3650   19.7320  -33.9229 H   0  0  0  0  0  0  0  0  0  0  0  0
   -5.0789   18.8174  -31.5629 H   0  0  0  0  0  0  0  0  0  0  0  0
   -4.6261   20.5065  -32.0418 H   0  0  0  0  0  0  0  0  0  0  0  0
   -6.0680   22.1330  -32.2904 H   0  0  0  0  0  0  0  0  0  0  0  0
  1  2  1  0
  2  3  1  0
  3  4  2  0
  4  5  1  0
  5  6  2  0
  6  7  1  0
  7  8  1  0
  8  9  1  0
  9 10  1  0
 10 11  1  0
 11 12  1  0
 12 13  2  0
 12 14  1  0
 14 15  2  0
 15 16  1  0
 16 17  2  0
 17 18  1  0
 18 19  1  0
 19 20  1  0
 20 21  2  0
 21 22  1  0
 22 23  2  0
 23 24  1  0
 24 25  2  0
 25 26  1  0
 26 27  2  0
 27 28  1  0
 28 29  1  0
 29 30  2  0
 30 31  1  0
 31 32  2  0
 32 33  1  0
 33 34  2  0
 17 35  1  0
 35 36  2  0
 11 37  1  0
 37 38  1  0
  7 39  2  0
 39  3  1  0
 38  8  1  0
 36 14  1  0
 25 20  1  0
 34 29  1  0
 28 24  1  0
  1 40  1  0
  1 41  1  0
  1 42  1  0
  4 43  1  0
  5 44  1  0
  6 45  1  0
  9 46  1  0
  9 47  1  0
 10 48  1  0
 10 49  1  0
 15 50  1  0
 16 51  1  0
 18 52  1  0
 18 53  1  0
 19 54  1  0
 21 55  1  0
 22 56  1  0
 23 57  1  0
 26 58  1  0
 30 59  1  0
 31 60  1  0
 32 61  1  0
 33 62  1  0
 34 63  1  0
 35 64  1  0
 36 65  1  0
 37 66  1  0
 37 67  1  0
 38 68  1  0
 38 69  1  0
 39 70  1  0
M  END
>  <UniqueID>  (4) 
4

>  <SMILES>  (4) 
COc1cccc(N2CCN(C(=O)c3ccc(CNc4cccc5c4cnn5-c4ccccc4)cc3)CC2)c1

>  <Energy>  (4) 
131.14345714769252

>  <Genealogy>  (4) 
COc1cccc(N2CCN(C(=O)c3ccc(CNc4cccc5c4cnn5-c4ccccc4)cc3)CC2)c1 (3D coordinates assigned)
COc1cccc(N2CCN(C(=O)c3ccc(CNc4cccc5c4cnn5-c4ccccc4)cc3)CC2)c1 (nonaromatic ring conformer: 131.14345714769252 kcal/mol)

>  <smiles>  (4) 
COc1cccc(N2CCN(C(=O)c3ccc(CNc4cccc5c4cnn5-c4ccccc4)cc3)CC2)c1

>  <score_type>  (4) 
oracle

>  <origin>  (4) 
adg

>  <m_score__min__energy>  (4) 
-10.140000000000001

>  <m_primary>  (4) 
energy

$$$$
4:0
     RDKit          3D

 46 48  0  0  0  0  0  0  0  0999 V2000
   -5.9840   17.9140  -31.5970 C   0  0  0  0  0  0  0  0  0  0  0  0
   -6.6020   19.0500  -32.4480 C   0  0  1  0  0  0  0  0  0  0  0  0
   -5.7670   19.2320  -33.7510 C   0  0  0  0  0  0  0  0  0  0  0  0
   -4.3300   19.3640  -33.4940 N   0  0  0  0  0  0  0  0  0  0  0  0
   -3.6850   20.6250  -33.2550 C   0  0  0  0  0  0  0  0  0  0  0  0
   -4.3790   21.6620  -33.0810 O   0  0  0  0  0  0  0  0  0  0  0  0
   -2.2050   20.7120  -33.2350 C   0  0  0  0  0  0  0  0  0  0  0  0
   -1.4840   20.4030  -34.4010 C   0  0  0  0  0  0  0  0  0  0  0  0
   -0.0920   20.4960  -34.4030 C   0  0  0  0  0  0  0  0  0  0  0  0
    0.5680   20.8820  -33.2830 N   0  0  0  0  0  0  0  0  0  0  0  0
   -0.0940   21.1880  -32.1360 C   0  0  0  0  0  0  0  0  0  0  0  0
   -1.4910   21.1110  -32.0830 C   0  0  0  0  0  0  0  0  0  0  0  0
   -2.2820   21.4630  -30.5490 Cl  0  0  0  0  0  0  0  0  0  0  0  0
   -8.0500   18.6260  -32.8620 C   0  0  0  0  0  0  0  0  0  0  0  0
   -9.1140   19.1840  -31.9190 C   0  0  0  0  0  0  0  0  0  0  0  0
   -9.1000   20.7140  -31.9750 C   0  0  0  0  0  0  0  0  0  0  0  0
   -7.7320   21.2570  -31.9140 N   0  0  0  0  0  0  0  0  0  0  0  0
   -7.5750   22.6810  -31.7390 C   0  0  0  0  0  0  0  0  0  0  0  0
   -8.4610   23.4650  -32.1750 O   0  0  0  0  0  0  0  0  0  0  0  0
   -6.4140   23.2560  -31.0370 C   0  0  0  0  0  0  0  0  0  0  0  0
   -5.6760   24.3120  -31.5900 C   0  0  0  0  0  0  0  0  0  0  0  0
   -4.6160   24.8190  -30.9080 N   0  0  0  0  0  0  0  0  0  0  0  0
   -4.2610   24.3270  -29.6920 C   0  0  0  0  0  0  0  0  0  0  0  0
   -5.0070   23.2920  -29.1270 C   0  0  0  0  0  0  0  0  0  0  0  0
   -6.0670   22.7850  -29.8090 N   0  0  0  0  0  0  0  0  0  0  0  0
   -6.6080   20.3610  -31.5870 C   0  0  0  0  0  0  0  0  0  0  0  0
   -6.1101   18.1457  -30.5291 H   0  0  0  0  0  0  0  0  0  0  0  0
   -6.4904   16.9653  -31.8286 H   0  0  0  0  0  0  0  0  0  0  0  0
   -4.9125   17.8237  -31.8286 H   0  0  0  0  0  0  0  0  0  0  0  0
   -5.9290   18.3564  -34.3968 H   0  0  0  0  0  0  0  0  0  0  0  0
   -6.1033   20.1628  -34.2311 H   0  0  0  0  0  0  0  0  0  0  0  0
   -3.7720   18.4890  -33.3820 H   0  0  0  0  0  0  0  0  0  0  0  0
   -2.0164   20.0883  -35.3107 H   0  0  0  0  0  0  0  0  0  0  0  0
    0.4721   20.2554  -35.3162 H   0  0  0  0  0  0  0  0  0  0  0  0
    0.4709   21.4979  -31.2445 H   0  0  0  0  0  0  0  0  0  0  0  0
   -8.2494   18.9970  -33.8782 H   0  0  0  0  0  0  0  0  0  0  0  0
   -8.1036   17.5283  -32.8149 H   0  0  0  0  0  0  0  0  0  0  0  0
  -10.1041   18.8157  -32.2256 H   0  0  0  0  0  0  0  0  0  0  0  0
   -8.8999   18.8545  -30.8916 H   0  0  0  0  0  0  0  0  0  0  0  0
   -9.5693   21.0391  -32.9153 H   0  0  0  0  0  0  0  0  0  0  0  0
   -9.6537   21.0905  -31.1023 H   0  0  0  0  0  0  0  0  0  0  0  0
   -5.9535   24.7275  -32.5700 H   0  0  0  0  0  0  0  0  0  0  0  0
   -3.3931   24.7411  -29.1578 H   0  0  0  0  0  0  0  0  0  0  0  0
   -4.7393   22.8903  -28.1386 H   0  0  0  0  0  0  0  0  0  0  0  0
   -5.6660   20.9010  -31.7632 H   0  0  0  0  0  0  0  0  0  0  0  0
   -6.7186   20.0637  -30.5337 H   0  0  0  0  0  0  0  0  0  0  0  0
  2  1  1  1
  2  3  1  0
  3  4  1  0
  4  5  1  0
  5  6  2  0
  5  7  1  0
  7  8  2  0
  8  9  1  0
  9 10  2  0
 10 11  1  0
 11 12  2  0
 12 13  1  0
  2 14  1  0
 14 15  1  0
 15 16  1  0
 16 17  1  0
 17 18  1  0
 18 19  2  0
 18 20  1  0
 20 21  2  0
 21 22  1  0
 22 23  2  0
 23 24  1  0
 24 25  2  0
 17 26  1  0
 26  2  1  0
 12  7  1  0
 25 20  1  0
  1 27  1  0
  1 28  1  0
  1 29  1  0
  3 30  1  0
  3 31  1  0
  4 32  1  0
  8 33  1  0
  9 34  1  0
 11 35  1  0
 14 36  1  0
 14 37  1  0
 15 38  1  0
 15 39  1  0
 16 40  1  0
 16 41  1  0
 21 42  1  0
 23 43  1  0
 24 44  1  0
 26 45  1  0
 26 46  1  0
M  END
>  <UniqueID>  (5) 
5

>  <SMILES>  (5) 
C[C@@]1(CNC(=O)c2ccncc2Cl)CCCN(C(=O)c2cnccn2)C1

>  <Energy>  (5) 
61.72636235959284

>  <Genealogy>  (5) 
C[C@@]1(CNC(=O)c2ccncc2Cl)CCCN(C(=O)c2cnccn2)C1 (chirality)
C[C@@]1(CNC(=O)c2ccncc2Cl)CCCN(C(=O)c2cnccn2)C1 (3D coordinates assigned)
C[C@@]1(CNC(=O)c2ccncc2Cl)CCCN(C(=O)c2cnccn2)C1 (nonaromatic ring conformer: 61.72636235959284 kcal/mol)

>  <smiles>  (5) 
CC1(CNC(=O)c2ccncc2Cl)CCCN(C(=O)c2cnccn2)C1

>  <score_type>  (5) 
oracle

>  <origin>  (5) 
adg

>  <m_score__min__energy>  (5) 
-8.6600000000000001

>  <m_primary>  (5) 
energy

$$$$
5:0
     RDKit          3D

 48 47  0  0  0  0  0  0  0  0999 V2000
   -2.1214   19.2224  -34.0588 H   0  0  0  0  0  0  0  0  0  0  0  0
   -3.1950   19.1200  -33.8420 C   0  0  0  0  0  0  0  0  0  0  0  0
   -3.8760   20.2140  -33.1990 C   0  0  0  0  0  0  0  0  0  0  0  0
   -4.4420   21.1340  -32.6620 C   0  0  0  0  0  0  0  0  0  0  0  0
   -5.1110   22.2070  -32.0360 C   0  0  0  0  0  0  0  0  0  0  0  0
   -5.6840   23.1210  -31.4990 C   0  0  0  0  0  0  0  0  0  0  0  0
   -6.3770   24.2360  -30.8420 C   0  0  0  0  0  0  0  0  0  0  0  0
   -6.1846   25.1597  -31.4075 H   0  0  0  0  0  0  0  0  0  0  0  0
   -7.4530   24.0086  -30.8189 H   0  0  0  0  0  0  0  0  0  0  0  0
   -5.8930   24.4250  -29.3980 C   0  0  0  0  0  0  0  0  0  0  0  0
   -5.9517   25.4930  -29.1413 H   0  0  0  0  0  0  0  0  0  0  0  0
   -6.5379   23.8206  -28.7431 H   0  0  0  0  0  0  0  0  0  0  0  0
   -4.4470   23.9490  -29.2060 C   0  0  0  0  0  0  0  0  0  0  0  0
   -4.2326   23.8664  -28.1303 H   0  0  0  0  0  0  0  0  0  0  0  0
   -4.3266   22.9696  -29.6922 H   0  0  0  0  0  0  0  0  0  0  0  0
   -3.4910   24.9190  -29.8260 C   0  0  0  0  0  0  0  0  0  0  0  0
   -2.3510   25.0950  -29.3220 O   0  0  0  0  0  0  0  0  0  0  0  0
   -3.8780   25.6650  -30.9320 O   0  0  0  0  0  0  0  0  0  0  0  0
   -3.8130   17.9840  -34.1870 C   0  0  0  0  0  0  0  0  0  0  0  0
   -3.2962   17.0339  -33.9862 H   0  0  0  0  0  0  0  0  0  0  0  0
   -5.1740   17.9260  -34.8340 C   0  0  0  0  0  0  0  0  0  0  0  0
   -5.0640   17.5265  -35.8530 H   0  0  0  0  0  0  0  0  0  0  0  0
   -5.5847   18.9464  -34.8433 H   0  0  0  0  0  0  0  0  0  0  0  0
   -6.1570   17.0310  -34.0550 C   0  0  0  0  0  0  0  0  0  0  0  0
   -5.5810   16.2520  -33.5340 H   0  0  0  0  0  0  0  0  0  0  0  0
   -6.8610   16.6090  -34.7873 H   0  0  0  0  0  0  0  0  0  0  0  0
   -7.0020   17.8080  -33.0010 C   0  0  1  0  0  0  0  0  0  0  0  0
   -8.0204   17.3940  -33.0383 H   0  0  0  0  0  0  0  0  0  0  0  0
   -6.4000   17.6190  -31.6010 C   0  0  0  0  0  0  0  0  0  0  0  0
   -7.1583   17.8571  -30.8406 H   0  0  0  0  0  0  0  0  0  0  0  0
   -6.0742   16.5754  -31.4798 H   0  0  0  0  0  0  0  0  0  0  0  0
   -5.5362   18.2892  -31.4798 H   0  0  0  0  0  0  0  0  0  0  0  0
   -7.0940   19.3220  -33.3160 C   0  0  0  0  0  0  0  0  0  0  0  0
   -7.1051   19.4432  -34.4093 H   0  0  0  0  0  0  0  0  0  0  0  0
   -6.2231   19.7901  -32.8339 H   0  0  0  0  0  0  0  0  0  0  0  0
   -8.3380   20.0320  -32.7430 C   0  0  0  0  0  0  0  0  0  0  0  0
   -9.1861   19.3339  -32.8009 H   0  0  0  0  0  0  0  0  0  0  0  0
   -8.4781   20.9409  -33.3465 H   0  0  0  0  0  0  0  0  0  0  0  0
   -8.2050   20.5020  -31.2820 C   0  0  0  0  0  0  0  0  0  0  0  0
   -7.1808   20.8709  -31.1242 H   0  0  0  0  0  0  0  0  0  0  0  0
   -8.4350   19.6412  -30.6370 H   0  0  0  0  0  0  0  0  0  0  0  0
   -9.1900   21.6230  -30.9210 C   0  0  0  0  0  0  0  0  0  0  0  0
   -8.9180   22.0381  -29.9393 H   0  0  0  0  0  0  0  0  0  0  0  0
  -10.2055   21.2010  -30.8939 H   0  0  0  0  0  0  0  0  0  0  0  0
   -9.1560   22.7390  -31.9610 C   0  0  0  0  0  0  0  0  0  0  0  0
   -9.1263   23.7137  -31.4520 H   0  0  0  0  0  0  0  0  0  0  0  0
   -8.2609   22.6266  -32.5904 H   0  0  0  0  0  0  0  0  0  0  0  0
  -10.0563   22.6813  -32.5904 H   0  0  0  0  0  0  0  0  0  0  0  0
  1  2  1  0
  2  3  1  0
  3  4  3  0
  4  5  1  0
  5  6  3  0
  6  7  1  0
  7  8  1  0
  7  9  1  0
  7 10  1  0
 10 11  1  0
 10 12  1  0
 10 13  1  0
 13 14  1  0
 13 15  1  0
 13 16  1  0
 16 17  2  0
 16 18  1  0
  2 19  2  0
 19 20  1  0
 19 21  1  0
 21 22  1  0
 21 23  1  0
 21 24  1  0
 24 25  1  0
 24 26  1  0
 24 27  1  0
 27 28  1  1
 27 29  1  0
 29 30  1  0
 29 31  1  0
 29 32  1  0
 27 33  1  0
 33 34  1  0
 33 35  1  0
 33 36  1  0
 36 37  1  0
 36 38  1  0
 36 39  1  0
 39 40  1  0
 39 41  1  0
 39 42  1  0
 42 43  1  0
 42 44  1  0
 42 45  1  0
 45 46  1  0
 45 47  1  0
 45 48  1  0
M  CHG  1  18  -1
M  END
>  <UniqueID>  (6) 
6

>  <SMILES>  (6) 
CCCCC[C@H](C)CC/C=C\C#CC#CCCCC(=O)[O-]

>  <Energy>  (6) 
19.716113786601447

>  <Genealogy>  (6) 
CCCCCC(C)CCC=CC#CC#CCCCC(=O)[O-] (protonated)
CCCCC[C@H](C)CCC=CC#CC#CCCCC(=O)[O-] (chirality)
CCCCC[C@H](C)CC/C=C\C#CC#CCCCC(=O)[O-] (cis-trans isomerization)
CCCCC[C@H](C)CC/C=C\C#CC#CCCCC(=O)[O-] (3D coordinates assigned)
CCCCC[C@H](C)CC/C=C\C#CC#CCCCC(=O)[O-] (optimized conformer: 19.716113786601447 kcal/mol)

>  <smiles>  (6) 
CCCCCC(C)CCC=CC#CC#CCCCC(=O)O

>  <score_type>  (6) 
oracle

>  <origin>  (6) 
adg

>  <m_score__min__energy>  (6) 
-9.5099999999999998

>  <m_primary>  (6) 
energy

$$$$
6:0
     RDKit          3D

 25 27  0  0  0  0  0  0  0  0999 V2000
   -5.5150   24.9890  -29.9440 C   0  0  0  0  0  0  0  0  0  0  0  0
   -4.5280   24.1650  -30.4890 C   0  0  0  0  0  0  0  0  0  0  0  0
   -4.8870   23.0250  -31.2160 C   0  0  0  0  0  0  0  0  0  0  0  0
   -6.2430   22.7020  -31.4030 C   0  0  0  0  0  0  0  0  0  0  0  0
   -6.6320   21.5020  -32.1690 C   0  0  0  0  0  0  0  0  0  0  0  0
   -7.8500   21.3080  -32.7180 N   0  0  0  0  0  0  0  0  0  0  0  0
   -7.7870   20.1260  -33.3080 N   0  0  0  0  0  0  0  0  0  0  0  0
   -6.5510   19.6380  -33.1060 C   0  0  0  0  0  0  0  0  0  0  0  0
   -6.0670   18.3450  -33.6000 C   0  0  0  0  0  0  0  0  0  0  0  0
   -4.9020   18.1420  -34.3290 C   0  0  0  0  0  0  0  0  0  0  0  0
   -4.6900   16.8000  -34.6670 C   0  0  0  0  0  0  0  0  0  0  0  0
   -5.6840   15.9460  -34.2060 C   0  0  0  0  0  0  0  0  0  0  0  0
   -6.8270   16.8610  -33.3790 S   0  0  0  0  0  0  0  0  0  0  0  0
   -5.8330   20.4820  -32.4050 O   0  0  0  0  0  0  0  0  0  0  0  0
   -7.2300   23.5360  -30.8500 C   0  0  0  0  0  0  0  0  0  0  0  0
   -6.8650   24.6750  -30.1240 C   0  0  0  0  0  0  0  0  0  0  0  0
   -5.2300   25.8850  -29.3731 H   0  0  0  0  0  0  0  0  0  0  0  0
   -3.4658   24.4129  -30.3463 H   0  0  0  0  0  0  0  0  0  0  0  0
   -4.1059   22.3788  -31.6430 H   0  0  0  0  0  0  0  0  0  0  0  0
   -8.5730   19.6790  -33.8290 H   0  0  0  0  0  0  0  0  0  0  0  0
   -4.2155   18.9536  -34.6120 H   0  0  0  0  0  0  0  0  0  0  0  0
   -3.8189   16.4546  -35.2430 H   0  0  0  0  0  0  0  0  0  0  0  0
   -5.7176   14.8568  -34.3563 H   0  0  0  0  0  0  0  0  0  0  0  0
   -8.2937   23.2923  -30.9885 H   0  0  0  0  0  0  0  0  0  0  0  0
   -7.6418   25.3244  -29.6942 H   0  0  0  0  0  0  0  0  0  0  0  0
  1  2  2  0
  2  3  1  0
  3  4  2  0
  4  5  1  0
  5  6  2  0
  6  7  1  0
  7  8  2  0
  8  9  1  0
  9 10  2  0
 10 11  1  0
 11 12  2  0
 12 13  1  0
  8 14  1  0
  4 15  1  0
 15 16  2  0
 16  1  1  0
 14  5  1  0
 13  9  1  0
  1 17  1  0
  2 18  1  0
  3 19  1  0
  7 20  1  0
 10 21  1  0
 11 22  1  0
 12 23  1  0
 15 24  1  0
 16 25  1  0
M  CHG  1   7   1
M  END
>  <UniqueID>  (7) 
7

>  <SMILES>  (7) 
c1ccc(-c2n[nH+]c(-c3cccs3)o2)cc1

>  <Energy>  (7) 
88.19186553893597

>  <Genealogy>  (7) 
c1ccc(-c2n[nH+]c(-c3cccs3)o2)cc1 (protonated)
c1ccc(-c2n[nH+]c(-c3cccs3)o2)cc1 (3D coordinates assigned)
c1ccc(-c2n[nH+]c(-c3cccs3)o2)cc1 (optimized conformer: 88.19186553893597 kcal/mol)

>  <smiles>  (7) 
c1ccc(-c2nnc(-c3cccs3)o2)cc1

>  <score_type>  (7) 
oracle

>  <origin>  (7) 
adg

>  <m_score__min__energy>  (7) 
-6.1600000000000001

>  <m_primary>  (7) 
energy

$$$$
7:0
     RDKit          3D

 49 51  0  0  0  0  0  0  0  0999 V2000
   -9.1690   18.5730  -31.9670 C   0  0  0  0  0  0  0  0  0  0  0  0
   -7.8710   19.3130  -32.1090 C   0  0  0  0  0  0  0  0  0  0  0  0
   -6.8400   18.7850  -32.9000 C   0  0  0  0  0  0  0  0  0  0  0  0
   -5.6450   19.4960  -33.0760 C   0  0  0  0  0  0  0  0  0  0  0  0
   -4.5630   18.9420  -33.9560 C   0  0  0  0  0  0  0  0  0  0  0  0
   -5.4980   20.7600  -32.4850 C   0  0  0  0  0  0  0  0  0  0  0  0
   -6.5260   21.3030  -31.6960 C   0  0  0  0  0  0  0  0  0  0  0  0
   -6.3840   22.6090  -31.1070 N   0  0  0  0  0  0  0  0  0  0  0  0
   -6.4010   22.7590  -29.6470 C   0  0  0  0  0  0  0  0  0  0  0  0
   -5.4950   23.9190  -29.1850 C   0  0  0  0  0  0  0  0  0  0  0  0
   -4.7010   24.5040  -30.2840 N   0  0  0  0  0  0  0  0  0  0  0  0
   -3.5980   23.6240  -30.7400 C   0  0  0  0  0  0  0  0  0  0  0  0
   -2.3430   23.8780  -29.8850 C   0  0  1  0  0  0  0  0  0  0  0  0
   -2.3210   25.1780  -29.3500 O   0  0  0  0  0  0  0  0  0  0  0  0
   -2.1850   22.8380  -28.7890 C   0  0  0  0  0  0  0  0  0  0  0  0
   -2.9510   21.6570  -28.8410 C   0  0  0  0  0  0  0  0  0  0  0  0
   -2.8340   20.6880  -27.8420 C   0  0  0  0  0  0  0  0  0  0  0  0
   -1.9520   20.8830  -26.7760 C   0  0  0  0  0  0  0  0  0  0  0  0
   -1.1870   22.0480  -26.7090 C   0  0  0  0  0  0  0  0  0  0  0  0
   -1.2980   23.0240  -27.7040 C   0  0  0  0  0  0  0  0  0  0  0  0
   -0.5410   24.1440  -27.5980 F   0  0  0  0  0  0  0  0  0  0  0  0
   -5.5820   24.9490  -31.3830 C   0  0  0  0  0  0  0  0  0  0  0  0
   -6.4470   23.8070  -31.9530 C   0  0  0  0  0  0  0  0  0  0  0  0
   -7.7140   20.5740  -31.5170 C   0  0  0  0  0  0  0  0  0  0  0  0
   -9.4009   18.4408  -30.8999 H   0  0  0  0  0  0  0  0  0  0  0  0
   -9.9736   19.1482  -32.4485 H   0  0  0  0  0  0  0  0  0  0  0  0
   -9.0839   17.5877  -32.4485 H   0  0  0  0  0  0  0  0  0  0  0  0
   -6.9702   17.8065  -33.3854 H   0  0  0  0  0  0  0  0  0  0  0  0
   -3.7573   18.5295  -33.3309 H   0  0  0  0  0  0  0  0  0  0  0  0
   -4.9786   18.1458  -34.5910 H   0  0  0  0  0  0  0  0  0  0  0  0
   -4.1600   19.7447  -34.5910 H   0  0  0  0  0  0  0  0  0  0  0  0
   -4.5705   21.3305  -32.6406 H   0  0  0  0  0  0  0  0  0  0  0  0
   -7.4322   22.9596  -29.3207 H   0  0  0  0  0  0  0  0  0  0  0  0
   -6.0221   21.8277  -29.2009 H   0  0  0  0  0  0  0  0  0  0  0  0
   -6.1283   24.7073  -28.7520 H   0  0  0  0  0  0  0  0  0  0  0  0
   -4.7870   23.5104  -28.4489 H   0  0  0  0  0  0  0  0  0  0  0  0
   -3.9034   22.5722  -30.6375 H   0  0  0  0  0  0  0  0  0  0  0  0
   -3.3706   23.8420  -31.7939 H   0  0  0  0  0  0  0  0  0  0  0  0
   -1.4813   23.7850  -30.5624 H   0  0  0  0  0  0  0  0  0  0  0  0
   -3.0990   25.6760  -29.7080 H   0  0  0  0  0  0  0  0  0  0  0  0
   -3.6481   21.4964  -29.6766 H   0  0  0  0  0  0  0  0  0  0  0  0
   -3.4373   19.7697  -27.8945 H   0  0  0  0  0  0  0  0  0  0  0  0
   -1.8608   20.1187  -25.9902 H   0  0  0  0  0  0  0  0  0  0  0  0
   -0.4930   22.1993  -25.8691 H   0  0  0  0  0  0  0  0  0  0  0  0
   -6.2474   25.7381  -31.0028 H   0  0  0  0  0  0  0  0  0  0  0  0
   -4.9386   25.3157  -32.1964 H   0  0  0  0  0  0  0  0  0  0  0  0
   -7.4915   24.1465  -32.0143 H   0  0  0  0  0  0  0  0  0  0  0  0
   -6.0603   23.5461  -32.9492 H   0  0  0  0  0  0  0  0  0  0  0  0
   -8.5269   20.9960  -30.9078 H   0  0  0  0  0  0  0  0  0  0  0  0
  1  2  1  0
  2  3  2  0
  3  4  1  0
  4  5  1  0
  4  6  2  0
  6  7  1  0
  7  8  1  0
  8  9  1  0
  9 10  1  0
 10 11  1  0
 11 12  1  0
 12 13  1  0
 13 14  1  0
 13 15  1  0
 15 16  2  0
 16 17  1  0
 17 18  2  0
 18 19  1  0
 19 20  2  0
 20 21  1  0
 11 22  1  0
 22 23  1  0
  7 24  2  0
 24  2  1  0
 23  8  1  0
 20 15  1  0
  1 25  1  0
  1 26  1  0
  1 27  1  0
  3 28  1  0
  5 29  1  0
  5 30  1  0
  5 31  1  0
  6 32  1  0
  9 33  1  0
  9 34  1  0
 10 35  1  0
 10 36  1  0
 12 37  1  0
 12 38  1  0
 13 39  1  6
 14 40  1  0
 16 41  1  0
 17 42  1  0
 18 43  1  0
 19 44  1  0
 22 45  1  0
 22 46  1  0
 23 47  1  0
 23 48  1  0
 24 49  1  0
M  END
>  <UniqueID>  (8) 
8

>  <SMILES>  (8) 
Cc1cc(C)cc(N2CCN(C[C@@H](O)c3ccccc3F)CC2)c1

>  <Energy>  (8) 
64.32707948276443

>  <Genealogy>  (8) 
Cc1cc(C)cc(N2CCN(C[C@@H](O)c3ccccc3F)CC2)c1 (chirality)
Cc1cc(C)cc(N2CCN(C[C@@H](O)c3ccccc3F)CC2)c1 (3D coordinates assigned)
Cc1cc(C)cc(N2CCN(C[C@@H](O)c3ccccc3F)CC2)c1 (nonaromatic ring conformer: 64.32707948276443 kcal/mol)

>  <smiles>  (8) 
Cc1cc(C)cc(N2CCN(CC(O)c3ccccc3F)CC2)c1

>  <score_type>  (8) 
oracle

>  <origin>  (8) 
adg

>  <m_score__min__energy>  (8) 
-8.9700000000000006

>  <m_primary>  (8) 
energy

$$$$
8:0
     RDKit          3D

 42 44  0  0  0  0  0  0  0  0999 V2000
   -1.6110   25.6740  -29.0080 O   0  0  0  0  0  0  0  0  0  0  0  0
   -1.7700   24.7440  -28.1700 C   0  0  0  0  0  0  0  0  0  0  0  0
   -2.4090   23.4650  -28.6460 C   0  0  0  0  0  0  0  0  0  0  0  0
   -3.9370   23.5750  -28.5950 C   0  0  0  0  0  0  0  0  0  0  0  0
   -4.4690   24.1590  -29.8750 C   0  0  0  0  0  0  0  0  0  0  0  0
   -3.7730   25.0020  -30.5010 O   0  0  0  0  0  0  0  0  0  0  0  0
   -5.7670   23.7300  -30.4330 C   0  0  0  0  0  0  0  0  0  0  0  0
   -6.8600   24.5400  -30.6830 C   0  0  0  0  0  0  0  0  0  0  0  0
   -7.8550   23.8120  -31.2220 N   0  0  0  0  0  0  0  0  0  0  0  0
   -7.4130   22.5410  -31.3120 C   0  0  0  0  0  0  0  0  0  0  0  0
   -8.1900   21.4400  -31.9190 C   0  0  0  0  0  0  0  0  0  0  0  0
   -9.4320   21.5870  -32.0830 O   0  0  0  0  0  0  0  0  0  0  0  0
   -7.5480   20.1880  -32.3760 C   0  0  0  0  0  0  0  0  0  0  0  0
   -6.6010   20.2260  -33.4120 C   0  0  0  0  0  0  0  0  0  0  0  0
   -5.9800   19.0490  -33.8430 C   0  0  0  0  0  0  0  0  0  0  0  0
   -6.3080   17.8270  -33.2520 C   0  0  0  0  0  0  0  0  0  0  0  0
   -7.2640   17.7760  -32.2340 C   0  0  0  0  0  0  0  0  0  0  0  0
   -7.8860   18.9500  -31.7990 C   0  0  0  0  0  0  0  0  0  0  0  0
   -6.1180   22.4540  -30.8340 C   0  0  0  0  0  0  0  0  0  0  0  0
   -1.3990   24.9760  -26.7450 C   0  0  0  0  0  0  0  0  0  0  0  0
   -0.7980   23.9690  -25.9580 C   0  0  0  0  0  0  0  0  0  0  0  0
   -0.4780   24.2120  -24.6180 C   0  0  0  0  0  0  0  0  0  0  0  0
   -0.7460   25.4570  -24.0470 C   0  0  0  0  0  0  0  0  0  0  0  0
   -1.3310   26.4660  -24.8150 C   0  0  0  0  0  0  0  0  0  0  0  0
   -1.6510   26.2300  -26.1550 C   0  0  0  0  0  0  0  0  0  0  0  0
   -2.0950   23.2674  -29.6815 H   0  0  0  0  0  0  0  0  0  0  0  0
   -2.0901   22.6427  -27.9887 H   0  0  0  0  0  0  0  0  0  0  0  0
   -4.3668   22.5731  -28.4487 H   0  0  0  0  0  0  0  0  0  0  0  0
   -4.2173   24.2350  -27.7608 H   0  0  0  0  0  0  0  0  0  0  0  0
   -6.9086   25.6186  -30.4725 H   0  0  0  0  0  0  0  0  0  0  0  0
   -8.7870   24.1730  -31.5210 H   0  0  0  0  0  0  0  0  0  0  0  0
   -6.3464   21.1852  -33.8866 H   0  0  0  0  0  0  0  0  0  0  0  0
   -5.2321   19.0861  -34.6488 H   0  0  0  0  0  0  0  0  0  0  0  0
   -5.8134   16.9037  -33.5881 H   0  0  0  0  0  0  0  0  0  0  0  0
   -7.5272   16.8117  -31.7748 H   0  0  0  0  0  0  0  0  0  0  0  0
   -8.6430   18.9057  -31.0021 H   0  0  0  0  0  0  0  0  0  0  0  0
   -5.4925   21.5506  -30.7830 H   0  0  0  0  0  0  0  0  0  0  0  0
   -0.5799   22.9865  -26.4019 H   0  0  0  0  0  0  0  0  0  0  0  0
   -0.0138   23.4195  -24.0126 H   0  0  0  0  0  0  0  0  0  0  0  0
   -0.4964   25.6435  -22.9920 H   0  0  0  0  0  0  0  0  0  0  0  0
   -1.5402   27.4476  -24.3649 H   0  0  0  0  0  0  0  0  0  0  0  0
   -2.1046   27.0324  -26.7554 H   0  0  0  0  0  0  0  0  0  0  0  0
  1  2  2  0
  2  3  1  0
  3  4  1  0
  4  5  1  0
  5  6  2  0
  5  7  1  0
  7  8  2  0
  8  9  1  0
  9 10  1  0
 10 11  1  0
 11 12  2  0
 11 13  1  0
 13 14  2  0
 14 15  1  0
 15 16  2  0
 16 17  1  0
 17 18  2  0
 10 19  2  0
  2 20  1  0
 20 21  2  0
 21 22  1  0
 22 23  2  0
 23 24  1  0
 24 25  2  0
 19  7  1  0
 25 20  1  0
 18 13  1  0
  3 26  1  0
  3 27  1  0
  4 28  1  0
  4 29  1  0
  8 30  1  0
  9 31  1  0
 14 32  1  0
 15 33  1  0
 16 34  1  0
 17 35  1  0
 18 36  1  0
 19 37  1  0
 21 38  1  0
 22 39  1  0
 23 40  1  0
 24 41  1  0
 25 42  1  0
M  END
>  <UniqueID>  (9) 
9

>  <SMILES>  (9) 
O=C(CCC(=O)c1c[nH]c(C(=O)c2ccccc2)c1)c1ccccc1

>  <Energy>  (9) 
70.41356331311329

>  <Genealogy>  (9) 
O=C(CCC(=O)c1c[nH]c(C(=O)c2ccccc2)c1)c1ccccc1 (3D coordinates assigned)
O=C(CCC(=O)c1c[nH]c(C(=O)c2ccccc2)c1)c1ccccc1 (optimized conformer: 70.41356331311329 kcal/mol)

>  <smiles>  (9) 
O=C(CCC(=O)c1c[nH]c(C(=O)c2ccccc2)c1)c1ccccc1

>  <score_type>  (9) 
oracle

>  <origin>  (9) 
adg

>  <m_score__min__energy>  (9) 
-10.359999999999999

>  <m_primary>  (9) 
energy

$$$$
9:0
     RDKit          3D

 46 51  0  0  0  0  0  0  0  0999 V2000
   -2.5265   22.2186  -27.8866 H   0  0  0  0  0  0  0  0  0  0  0  0
   -1.9050   22.6870  -28.6640 C   0  0  0  0  0  0  0  0  0  0  0  0
   -1.4500   24.0680  -28.4390 C   0  0  0  0  0  0  0  0  0  0  0  0
   -0.3210   24.3790  -27.7800 N   0  0  0  0  0  0  0  0  0  0  0  0
   -0.2500   25.7230  -27.9000 C   0  0  0  0  0  0  0  0  0  0  0  0
    0.6800   26.4000  -27.3900 O   0  0  0  0  0  0  0  0  0  0  0  0
   -1.2470   26.2820  -28.6170 N   0  0  0  0  0  0  0  0  0  0  0  0
   -1.9910   25.2200  -28.9630 C   0  0  0  0  0  0  0  0  0  0  0  0
   -3.1180   25.2990  -29.7740 O   0  0  0  0  0  0  0  0  0  0  0  0
   -1.6130   21.9610  -29.7530 C   0  0  0  0  0  0  0  0  0  0  0  0
   -0.4860   21.1670  -29.9220 C   0  0  0  0  0  0  0  0  0  0  0  0
    0.3263   21.0511  -29.1894 H   0  0  0  0  0  0  0  0  0  0  0  0
   -0.5440   20.5590  -31.1280 N   0  0  0  0  0  0  0  0  0  0  0  0
    0.1830   19.9030  -31.4720 H   0  0  0  0  0  0  0  0  0  0  0  0
   -1.6690   20.9230  -31.7320 N   0  0  0  0  0  0  0  0  0  0  0  0
   -2.2020   20.5540  -32.9430 C   0  0  0  0  0  0  0  0  0  0  0  0
   -1.6140   19.7710  -33.8050 N   0  0  0  0  0  0  0  0  0  0  0  0
   -0.5610   20.0740  -34.7640 C   0  0  0  0  0  0  0  0  0  0  0  0
   -0.8744   19.3807  -35.5585 H   0  0  0  0  0  0  0  0  0  0  0  0
   -0.1250   21.5260  -34.6810 C   0  0  0  0  0  0  0  0  0  0  0  0
    0.1588   22.0681  -35.5951 H   0  0  0  0  0  0  0  0  0  0  0  0
   -0.5635   22.4475  -34.2706 H   0  0  0  0  0  0  0  0  0  0  0  0
    0.7760   20.4300  -34.1370 C   0  0  0  0  0  0  0  0  0  0  0  0
    1.7120   20.1785  -34.6573 H   0  0  0  0  0  0  0  0  0  0  0  0
    1.2599   20.2291  -33.1698 H   0  0  0  0  0  0  0  0  0  0  0  0
   -3.4260   21.0510  -33.2710 N   0  0  0  0  0  0  0  0  0  0  0  0
   -4.1100   21.8780  -32.4240 C   0  0  0  0  0  0  0  0  0  0  0  0
   -5.3670   22.3820  -32.7750 O   0  0  0  0  0  0  0  0  0  0  0  0
   -6.5830   21.8450  -32.3290 C   0  0  0  0  0  0  0  0  0  0  0  0
   -7.5270   22.7110  -31.7670 C   0  0  0  0  0  0  0  0  0  0  0  0
   -7.2964   23.7826  -31.6753 H   0  0  0  0  0  0  0  0  0  0  0  0
   -8.7600   22.2280  -31.3210 C   0  0  0  0  0  0  0  0  0  0  0  0
   -9.4983   22.9220  -30.8929 H   0  0  0  0  0  0  0  0  0  0  0  0
   -9.0580   20.8670  -31.4170 C   0  0  0  0  0  0  0  0  0  0  0  0
  -10.0352   20.4947  -31.0758 H   0  0  0  0  0  0  0  0  0  0  0  0
   -8.1140   19.9710  -31.9480 C   0  0  0  0  0  0  0  0  0  0  0  0
   -8.3680   18.5880  -32.0310 C   0  0  0  0  0  0  0  0  0  0  0  0
   -9.4700   18.1060  -31.6500 O   0  0  0  0  0  0  0  0  0  0  0  0
   -7.3860   17.7320  -32.5380 C   0  0  0  0  0  0  0  0  0  0  0  0
   -7.5778   16.6513  -32.6114 H   0  0  0  0  0  0  0  0  0  0  0  0
   -6.1620   18.2570  -32.9500 C   0  0  0  0  0  0  0  0  0  0  0  0
   -5.3822   17.5871  -33.3413 H   0  0  0  0  0  0  0  0  0  0  0  0
   -5.9290   19.5920  -32.8700 N   0  0  0  0  0  0  0  0  0  0  0  0
   -6.8630   20.4630  -32.3990 C   0  0  0  0  0  0  0  0  0  0  0  0
   -3.5590   22.2380  -31.2370 N   0  0  0  0  0  0  0  0  0  0  0  0
   -2.3330   21.7630  -30.9200 C   0  0  0  0  0  0  0  0  0  0  0  0
  1  2  1  0
  2  3  1  0
  3  4  1  0
  4  5  1  0
  5  6  2  0
  5  7  1  0
  7  8  1  0
  8  9  1  0
  2 10  2  0
 10 11  1  0
 11 12  1  0
 11 13  2  0
 13 14  1  0
 13 15  1  0
 15 16  1  0
 16 17  2  3
 17 18  1  0
 18 19  1  0
 18 20  1  0
 20 21  1  0
 20 22  1  0
 20 23  1  0
 23 24  1  0
 23 25  1  0
 16 26  1  0
 26 27  2  0
 27 28  1  0
 28 29  1  0
 29 30  2  0
 30 31  1  0
 30 32  1  0
 32 33  1  0
 32 34  2  0
 34 35  1  0
 34 36  1  0
 36 37  1  0
 37 38  2  0
 37 39  1  0
 39 40  1  0
 39 41  2  0
 41 42  1  0
 41 43  1  0
 43 44  1  0
 27 45  1  0
 45 46  2  0
  8  3  2  0
 46 10  1  0
 46 15  1  0
 23 18  1  0
 44 29  1  0
 44 36  2  0
M  CHG  5   4  -1   7  -1   9  -1  13   1  43  -1
M  END
>  <UniqueID>  (10) 
10

>  <SMILES>  (10) 
O=c1[n-]c([O-])c(/C=c2/c[nH+]n3c(=NC4CC4)nc(Oc4cccc5c(=O)cc[n-]c45)nc23)[n-]1

>  <Energy>  (10) 
412.56022750857636

>  <Genealogy>  (10) 
O=c1[n-]c([O-])c(C=c2c[nH+]n3c(=NC4CC4)nc(Oc4cccc5c(=O)cc[n-]c45)nc23)[n-]1 (protonated)
O=c1[n-]c([O-])c(/C=c2/c[nH+]n3c(=NC4CC4)nc(Oc4cccc5c(=O)cc[n-]c45)nc23)[n-]1 (cis-trans isomerization)
O=c1[n-]c([O-])c(/C=c2/c[nH+]n3c(=NC4CC4)nc(Oc4cccc5c(=O)cc[n-]c45)nc23)[n-]1 (3D coordinates assigned)
O=c1[n-]c([O-])c(/C=c2/c[nH+]n3c(=NC4CC4)nc(Oc4cccc5c(=O)cc[n-]c45)nc23)[n-]1 (nonaromatic ring conformer: 412.56022750857636 kcal/mol)

>  <smiles>  (10) 
O=c1[nH]c(O)c(C=c2cnn3c(=NC4CC4)nc(Oc4cccc5c(=O)cc[nH]c45)nc23)[nH]1

>  <score_type>  (10) 
oracle

>  <origin>  (10) 
adg

>  <m_score__min__energy>  (10) 
-14.039999999999999

>  <m_primary>  (10) 
energy

$$$$
10:0
     RDKit          3D

 40 42  0  0  0  0  0  0  0  0999 V2000
   -6.9350   18.0500  -33.2780 C   0  0  0  0  0  0  0  0  0  0  0  0
   -7.6610   19.2110  -32.6730 C   0  0  0  0  0  0  0  0  0  0  0  0
   -8.9980   19.3680  -32.8500 N   0  0  0  0  0  0  0  0  0  0  0  0
   -9.3840   20.7490  -32.0130 S   0  0  0  0  0  0  0  0  0  0  0  0
   -7.8880   21.1900  -31.4210 C   0  0  0  0  0  0  0  0  0  0  0  0
   -7.6180   22.2660  -30.4440 C   0  0  0  0  0  0  0  0  0  0  0  0
   -8.2950   22.3040  -29.3820 O   0  0  0  0  0  0  0  0  0  0  0  0
   -6.6190   23.2760  -30.6870 N   0  0  0  0  0  0  0  0  0  0  0  0
   -6.8390   24.6530  -30.2310 C   0  0  0  0  0  0  0  0  0  0  0  0
   -5.5050   25.2830  -29.8180 C   0  0  0  0  0  0  0  0  0  0  0  0
   -4.5420   25.1430  -30.8440 O   0  0  0  0  0  0  0  0  0  0  0  0
   -4.2420   23.7740  -31.0340 C   0  0  0  0  0  0  0  0  0  0  0  0
   -5.4660   23.0160  -31.5560 C   0  0  0  0  0  0  0  0  0  0  0  0
   -7.0170   20.2010  -31.8870 C   0  0  0  0  0  0  0  0  0  0  0  0
   -5.6090   20.1740  -31.6040 N   0  0  0  0  0  0  0  0  0  0  0  0
   -4.6140   20.2980  -32.6330 C   0  0  0  0  0  0  0  0  0  0  0  0
   -4.9450   20.1500  -33.8420 O   0  0  0  0  0  0  0  0  0  0  0  0
   -3.1960   20.5690  -32.2930 C   0  0  0  0  0  0  0  0  0  0  0  0
   -2.7790   20.6670  -30.9520 C   0  0  0  0  0  0  0  0  0  0  0  0
   -1.4410   20.9320  -30.6450 C   0  0  0  0  0  0  0  0  0  0  0  0
   -0.5070   21.1080  -31.6680 C   0  0  0  0  0  0  0  0  0  0  0  0
   -0.9110   21.0250  -33.0030 C   0  0  0  0  0  0  0  0  0  0  0  0
   -2.2480   20.7610  -33.3160 C   0  0  0  0  0  0  0  0  0  0  0  0
   -6.5350   17.4103  -32.4776 H   0  0  0  0  0  0  0  0  0  0  0  0
   -7.6298   17.4671  -33.9005 H   0  0  0  0  0  0  0  0  0  0  0  0
   -6.1068   18.4195  -33.9005 H   0  0  0  0  0  0  0  0  0  0  0  0
   -7.2833   25.2413  -31.0474 H   0  0  0  0  0  0  0  0  0  0  0  0
   -7.5194   24.6447  -29.3667 H   0  0  0  0  0  0  0  0  0  0  0  0
   -5.6599   26.3526  -29.6129 H   0  0  0  0  0  0  0  0  0  0  0  0
   -5.1370   24.7687  -28.9179 H   0  0  0  0  0  0  0  0  0  0  0  0
   -3.4232   23.6821  -31.7628 H   0  0  0  0  0  0  0  0  0  0  0  0
   -3.9450   23.3409  -30.0675 H   0  0  0  0  0  0  0  0  0  0  0  0
   -5.6956   23.3525  -32.5778 H   0  0  0  0  0  0  0  0  0  0  0  0
   -5.2505   21.9373  -31.5607 H   0  0  0  0  0  0  0  0  0  0  0  0
   -5.3060   19.8730  -30.6520 H   0  0  0  0  0  0  0  0  0  0  0  0
   -3.5102   20.5343  -30.1409 H   0  0  0  0  0  0  0  0  0  0  0  0
   -1.1231   21.0021  -29.5943 H   0  0  0  0  0  0  0  0  0  0  0  0
    0.5459   21.3118  -31.4231 H   0  0  0  0  0  0  0  0  0  0  0  0
   -0.1761   21.1676  -33.8090 H   0  0  0  0  0  0  0  0  0  0  0  0
   -2.5613   20.7029  -34.3689 H   0  0  0  0  0  0  0  0  0  0  0  0
  1  2  1  0
  2  3  2  0
  3  4  1  0
  4  5  1  0
  5  6  1  0
  6  7  2  0
  6  8  1  0
  8  9  1  0
  9 10  1  0
 10 11  1  0
 11 12  1  0
 12 13  1  0
  5 14  2  0
 14 15  1  0
 15 16  1  0
 16 17  2  0
 16 18  1  0
 18 19  2  0
 19 20  1  0
 20 21  2  0
 21 22  1  0
 22 23  2  0
 14  2  1  0
 23 18  1  0
 13  8  1  0
  1 24  1  0
  1 25  1  0
  1 26  1  0
  9 27  1  0
  9 28  1  0
 10 29  1  0
 10 30  1  0
 12 31  1  0
 12 32  1  0
 13 33  1  0
 13 34  1  0
 15 35  1  0
 19 36  1  0
 20 37  1  0
 21 38  1  0
 22 39  1  0
 23 40  1  0
M  END
>  <UniqueID>  (11) 
11

>  <SMILES>  (11) 
Cc1nsc(C(=O)N2CCOCC2)c1NC(=O)c1ccccc1

>  <Energy>  (11) 
83.62636867298642

>  <Genealogy>  (11) 
Cc1nsc(C(=O)N2CCOCC2)c1NC(=O)c1ccccc1 (3D coordinates assigned)
Cc1nsc(C(=O)N2CCOCC2)c1NC(=O)c1ccccc1 (nonaromatic ring conformer: 83.62636867298642 kcal/mol)

>  <smiles>  (11) 
Cc1nsc(C(=O)N2CCOCC2)c1NC(=O)c1ccccc1

>  <score_type>  (11) 
oracle

>  <origin>  (11) 
adg

>  <m_score__min__energy>  (11) 
-8.1199999999999992

>  <m_primary>  (11) 
energy

$$$$
11:0
     RDKit          3D

 53 56  0  0  0  0  0  0  0  0999 V2000
   -0.6400   22.0870  -29.8770 O   0  0  0  0  0  0  0  0  0  0  0  0
   -1.6570   22.7800  -30.1590 C   0  0  0  0  0  0  0  0  0  0  0  0
   -1.7690   24.1280  -29.6820 N   0  0  0  0  0  0  0  0  0  0  0  0
   -1.9400   24.5390  -28.3160 C   0  0  0  0  0  0  0  0  0  0  0  0
   -0.8530   24.9800  -27.5370 C   0  0  0  0  0  0  0  0  0  0  0  0
   -1.0530   25.3970  -26.2160 C   0  0  0  0  0  0  0  0  0  0  0  0
    0.3060   25.9460  -25.2530 Cl  0  0  0  0  0  0  0  0  0  0  0  0
   -2.3390   25.3880  -25.6680 C   0  0  0  0  0  0  0  0  0  0  0  0
   -3.4260   24.9740  -26.4420 C   0  0  0  0  0  0  0  0  0  0  0  0
   -3.2330   24.5580  -27.7630 C   0  0  0  0  0  0  0  0  0  0  0  0
   -4.6240   24.0480  -28.7110 Cl  0  0  0  0  0  0  0  0  0  0  0  0
   -2.7360   22.2070  -30.9290 N   0  0  0  0  0  0  0  0  0  0  0  0
   -2.2570   21.8210  -32.2760 C   0  0  0  0  0  0  0  0  0  0  0  0
   -3.2570   20.9000  -33.0060 C   0  0  0  0  0  0  0  0  0  0  0  0
   -4.5880   20.9930  -32.3750 N   0  0  0  0  0  0  0  0  0  0  0  0
   -5.7020   20.3980  -33.1640 C   0  0  0  0  0  0  0  0  0  0  0  0
   -7.0800   20.8330  -32.6580 C   0  0  0  0  0  0  0  0  0  0  0  0
   -8.2050   19.9900  -32.7680 C   0  0  0  0  0  0  0  0  0  0  0  0
   -9.4510   20.4040  -32.2880 C   0  0  0  0  0  0  0  0  0  0  0  0
   -9.5910   21.6610  -31.6960 C   0  0  0  0  0  0  0  0  0  0  0  0
   -8.4860   22.5070  -31.5850 C   0  0  0  0  0  0  0  0  0  0  0  0
   -7.2380   22.0980  -32.0630 C   0  0  0  0  0  0  0  0  0  0  0  0
   -5.5690   18.8830  -33.2950 C   0  0  0  0  0  0  0  0  0  0  0  0
   -5.8670   18.0590  -32.1890 C   0  0  0  0  0  0  0  0  0  0  0  0
   -5.8040   16.6670  -32.2970 C   0  0  0  0  0  0  0  0  0  0  0  0
   -5.4710   16.0730  -33.5160 C   0  0  0  0  0  0  0  0  0  0  0  0
   -5.2150   16.8710  -34.6330 C   0  0  0  0  0  0  0  0  0  0  0  0
   -5.2770   18.2640  -34.5300 C   0  0  0  0  0  0  0  0  0  0  0  0
   -4.5460   20.4950  -30.9830 C   0  0  0  0  0  0  0  0  0  0  0  0
   -3.3260   21.0550  -30.2170 C   0  0  0  0  0  0  0  0  0  0  0  0
    0.1585   24.9968  -27.9689 H   0  0  0  0  0  0  0  0  0  0  0  0
   -2.4952   25.7070  -24.6269 H   0  0  0  0  0  0  0  0  0  0  0  0
   -4.4378   24.9753  -26.0104 H   0  0  0  0  0  0  0  0  0  0  0  0
   -3.4780   22.9400  -31.0380 H   0  0  0  0  0  0  0  0  0  0  0  0
   -2.1113   22.7319  -32.8751 H   0  0  0  0  0  0  0  0  0  0  0  0
   -1.3139   21.2681  -32.1545 H   0  0  0  0  0  0  0  0  0  0  0  0
   -3.3319   21.2072  -34.0596 H   0  0  0  0  0  0  0  0  0  0  0  0
   -2.9010   19.8611  -32.9427 H   0  0  0  0  0  0  0  0  0  0  0  0
   -5.6167   20.8042  -34.1827 H   0  0  0  0  0  0  0  0  0  0  0  0
   -8.1014   18.9994  -33.2349 H   0  0  0  0  0  0  0  0  0  0  0  0
  -10.3224   19.7386  -32.3768 H   0  0  0  0  0  0  0  0  0  0  0  0
  -10.5717   21.9845  -31.3172 H   0  0  0  0  0  0  0  0  0  0  0  0
   -8.5979   23.4977  -31.1203 H   0  0  0  0  0  0  0  0  0  0  0  0
   -6.3723   22.7706  -31.9733 H   0  0  0  0  0  0  0  0  0  0  0  0
   -6.1522   18.5175  -31.2307 H   0  0  0  0  0  0  0  0  0  0  0  0
   -6.0172   16.0382  -31.4200 H   0  0  0  0  0  0  0  0  0  0  0  0
   -5.4104   14.9776  -33.5963 H   0  0  0  0  0  0  0  0  0  0  0  0
   -4.9640   16.4026  -35.5961 H   0  0  0  0  0  0  0  0  0  0  0  0
   -5.0964   18.8842  -35.4204 H   0  0  0  0  0  0  0  0  0  0  0  0
   -5.4658   20.8042  -30.4650 H   0  0  0  0  0  0  0  0  0  0  0  0
   -4.4618   19.3986  -31.0114 H   0  0  0  0  0  0  0  0  0  0  0  0
   -3.6473   21.3774  -29.2156 H   0  0  0  0  0  0  0  0  0  0  0  0
   -2.5661   20.2632  -30.1421 H   0  0  0  0  0  0  0  0  0  0  0  0
  1  2  2  0
  2  3  1  0
  3  4  1  0
  4  5  2  0
  5  6  1  0
  6  7  1  0
  6  8  2  0
  8  9  1  0
  9 10  2  0
 10 11  1  0
  2 12  1  0
 12 13  1  0
 13 14  1  0
 14 15  1  0
 15 16  1  0
 16 17  1  0
 17 18  2  0
 18 19  1  0
 19 20  2  0
 20 21  1  0
 21 22  2  0
 16 23  1  0
 23 24  2  0
 24 25  1  0
 25 26  2  0
 26 27  1  0
 27 28  2  0
 15 29  1  0
 29 30  1  0
 10  4  1  0
 30 12  1  0
 22 17  1  0
 28 23  1  0
  5 31  1  0
  8 32  1  0
  9 33  1  0
 12 34  1  0
 13 35  1  0
 13 36  1  0
 14 37  1  0
 14 38  1  0
 16 39  1  0
 18 40  1  0
 19 41  1  0
 20 42  1  0
 21 43  1  0
 22 44  1  0
 24 45  1  0
 25 46  1  0
 26 47  1  0
 27 48  1  0
 28 49  1  0
 29 50  1  0
 29 51  1  0
 30 52  1  0
 30 53  1  0
M  CHG  2   3  -1  12   1
M  END
>  <UniqueID>  (12) 
12

>  <SMILES>  (12) 
O=C([N-]c1cc(Cl)ccc1Cl)[NH+]1CCN(C(c2ccccc2)c2ccccc2)CC1

>  <Energy>  (12) 
78.7337020745012

>  <Genealogy>  (12) 
O=C([N-]c1cc(Cl)ccc1Cl)[NH+]1CCN(C(c2ccccc2)c2ccccc2)CC1 (protonated)
O=C([N-]c1cc(Cl)ccc1Cl)[NH+]1CCN(C(c2ccccc2)c2ccccc2)CC1 (3D coordinates assigned)
O=C([N-]c1cc(Cl)ccc1Cl)[NH+]1CCN(C(c2ccccc2)c2ccccc2)CC1 (nonaromatic ring conformer: 78.7337020745012 kcal/mol)

>  <smiles>  (12) 
O=C(Nc1cc(Cl)ccc1Cl)N1CCN(C(c2ccccc2)c2ccccc2)CC1

>  <score_type>  (12) 
oracle

>  <origin>  (12) 
adg

>  <m_score__min__energy>  (12) 
-9.6600000000000001

>  <m_primary>  (12) 
energy

$$$$
12:0
     RDKit          3D

 62 66  0  0  0  0  0  0  0  0999 V2000
   -5.6990   25.6460  -30.4230 C   0  0  0  0  0  0  0  0  0  0  0  0
   -6.8980   24.7690  -30.0720 C   0  0  0  0  0  0  0  0  0  0  0  0
   -6.7050   23.3100  -30.5080 C   0  0  0  0  0  0  0  0  0  0  0  0
   -6.7050   23.1440  -32.0350 C   0  0  0  0  0  0  0  0  0  0  0  0
   -6.3530   21.7660  -32.3970 N   0  0  0  0  0  0  0  0  0  0  0  0
   -5.1570   21.2480  -32.8130 C   0  0  0  0  0  0  0  0  0  0  0  0
   -3.9070   22.0350  -33.1250 C   0  0  0  0  0  0  0  0  0  0  0  0
   -2.8970   21.8600  -32.0530 N   0  0  0  0  0  0  0  0  0  0  0  0
   -2.9300   22.7240  -30.9800 C   0  0  0  0  0  0  0  0  0  0  0  0
   -3.8500   23.5850  -30.8820 O   0  0  0  0  0  0  0  0  0  0  0  0
   -1.9530   22.6520  -29.9710 C   0  0  0  0  0  0  0  0  0  0  0  0
   -1.9580   23.5890  -28.8190 C   0  0  0  0  0  0  0  0  0  0  0  0
   -3.1180   23.7930  -28.0640 C   0  0  0  0  0  0  0  0  0  0  0  0
   -3.1150   24.6970  -26.9980 C   0  0  0  0  0  0  0  0  0  0  0  0
   -4.3710   24.9380  -26.2070 C   0  0  0  0  0  0  0  0  0  0  0  0
   -1.9370   25.4110  -26.7120 C   0  0  0  0  0  0  0  0  0  0  0  0
   -1.9280   26.2450  -25.7630 O   0  0  0  0  0  0  0  0  0  0  0  0
   -0.8050   25.2090  -27.4600 N   0  0  0  0  0  0  0  0  0  0  0  0
    0.4150   25.9710  -27.1650 C   0  0  0  0  0  0  0  0  0  0  0  0
   -0.8080   24.3230  -28.5020 C   0  0  0  0  0  0  0  0  0  0  0  0
   -0.9830   21.7040  -30.0530 N   0  0  0  0  0  0  0  0  0  0  0  0
   -0.9260   20.8350  -31.0950 C   0  0  0  0  0  0  0  0  0  0  0  0
    0.1010   19.8800  -31.1480 C   0  0  0  0  0  0  0  0  0  0  0  0
    0.1780   18.9840  -32.2110 C   0  0  0  0  0  0  0  0  0  0  0  0
   -0.7730   19.0280  -33.2260 C   0  0  0  0  0  0  0  0  0  0  0  0
   -1.8040   19.9680  -33.1860 C   0  0  0  0  0  0  0  0  0  0  0  0
   -1.9000   20.9030  -32.1250 C   0  0  0  0  0  0  0  0  0  0  0  0
   -5.1980   19.9020  -33.0030 N   0  0  0  0  0  0  0  0  0  0  0  0
   -6.4610   19.5800  -32.6810 C   0  0  0  0  0  0  0  0  0  0  0  0
   -7.0420   18.3150  -32.7020 C   0  0  0  0  0  0  0  0  0  0  0  0
   -8.3950   18.2100  -32.3300 C   0  0  0  0  0  0  0  0  0  0  0  0
   -9.1240   19.3600  -31.9530 C   0  0  0  0  0  0  0  0  0  0  0  0
   -8.5070   20.6250  -31.9470 C   0  0  0  0  0  0  0  0  0  0  0  0
   -7.1600   20.6910  -32.3180 C   0  0  0  0  0  0  0  0  0  0  0  0
   -5.2185   25.9975  -29.4980 H   0  0  0  0  0  0  0  0  0  0  0  0
   -4.9770   25.0614  -31.0120 H   0  0  0  0  0  0  0  0  0  0  0  0
   -6.0375   26.5112  -31.0120 H   0  0  0  0  0  0  0  0  0  0  0  0
   -7.0475   24.7950  -28.9825 H   0  0  0  0  0  0  0  0  0  0  0  0
   -7.7720   25.1661  -30.6091 H   0  0  0  0  0  0  0  0  0  0  0  0
   -5.7432   22.9492  -30.1146 H   0  0  0  0  0  0  0  0  0  0  0  0
   -7.5502   22.7292  -30.1101 H   0  0  0  0  0  0  0  0  0  0  0  0
   -7.7065   23.3773  -32.4255 H   0  0  0  0  0  0  0  0  0  0  0  0
   -5.9623   23.8292  -32.4697 H   0  0  0  0  0  0  0  0  0  0  0  0
   -3.4867   21.6824  -34.0784 H   0  0  0  0  0  0  0  0  0  0  0  0
   -4.1682   23.1013  -33.1946 H   0  0  0  0  0  0  0  0  0  0  0  0
   -4.0362   23.2397  -28.3103 H   0  0  0  0  0  0  0  0  0  0  0  0
   -4.1415   24.8940  -25.1321 H   0  0  0  0  0  0  0  0  0  0  0  0
   -4.7759   25.9302  -26.4551 H   0  0  0  0  0  0  0  0  0  0  0  0
   -5.1144   24.1661  -26.4551 H   0  0  0  0  0  0  0  0  0  0  0  0
    0.5429   26.0509  -26.0754 H   0  0  0  0  0  0  0  0  0  0  0  0
    1.2838   25.4547  -27.5993 H   0  0  0  0  0  0  0  0  0  0  0  0
    0.3322   26.9782  -27.5993 H   0  0  0  0  0  0  0  0  0  0  0  0
    0.1053   24.1850  -29.0993 H   0  0  0  0  0  0  0  0  0  0  0  0
   -0.2520   21.6580  -29.3060 H   0  0  0  0  0  0  0  0  0  0  0  0
    0.8505   19.8390  -30.3440 H   0  0  0  0  0  0  0  0  0  0  0  0
    0.9895   18.2423  -32.2484 H   0  0  0  0  0  0  0  0  0  0  0  0
   -0.7119   18.3183  -34.0642 H   0  0  0  0  0  0  0  0  0  0  0  0
   -2.5539   19.9835  -33.9906 H   0  0  0  0  0  0  0  0  0  0  0  0
   -6.4632   17.4280  -32.9992 H   0  0  0  0  0  0  0  0  0  0  0  0
   -8.8880   17.2267  -32.3327 H   0  0  0  0  0  0  0  0  0  0  0  0
  -10.1807   19.2661  -31.6623 H   0  0  0  0  0  0  0  0  0  0  0  0
   -9.0641   21.5293  -31.6608 H   0  0  0  0  0  0  0  0  0  0  0  0
  1  2  1  0
  2  3  1  0
  3  4  1  0
  4  5  1  0
  5  6  1  0
  6  7  1  0
  7  8  1  0
  8  9  1  0
  9 10  2  0
  9 11  1  0
 11 12  1  0
 12 13  1  0
 13 14  2  0
 14 15  1  0
 14 16  1  0
 16 17  2  0
 16 18  1  0
 18 19  1  0
 18 20  1  0
 11 21  2  0
 21 22  1  0
 22 23  2  0
 23 24  1  0
 24 25  2  0
 25 26  1  0
 26 27  2  0
  6 28  2  0
 28 29  1  0
 29 30  2  0
 30 31  1  0
 31 32  2  0
 32 33  1  0
 33 34  2  0
 34  5  1  0
 27  8  1  0
 34 29  1  0
 20 12  2  0
 27 22  1  0
  1 35  1  0
  1 36  1  0
  1 37  1  0
  2 38  1  0
  2 39  1  0
  3 40  1  0
  3 41  1  0
  4 42  1  0
  4 43  1  0
  7 44  1  0
  7 45  1  0
 13 46  1  0
 15 47  1  0
 15 48  1  0
 15 49  1  0
 19 50  1  0
 19 51  1  0
 19 52  1  0
 20 53  1  0
 21 54  1  0
 23 55  1  0
 24 56  1  0
 25 57  1  0
 26 58  1  0
 30 59  1  0
 31 60  1  0
 32 61  1  0
 33 62  1  0
M  CHG  1  21   1
M  END
>  <UniqueID>  (13) 
13

>  <SMILES>  (13) 
CCCCn1c(Cn2c(=O)c(-c3cc(C)c(=O)n(C)c3)[nH+]c3ccccc32)nc2ccccc21

>  <Energy>  (13) 
119.34097751913185

>  <Genealogy>  (13) 
CCCCn1c(Cn2c(=O)c(-c3cc(C)c(=O)n(C)c3)[nH+]c3ccccc32)nc2ccccc21 (protonated)
CCCCn1c(Cn2c(=O)c(-c3cc(C)c(=O)n(C)c3)[nH+]c3ccccc32)nc2ccccc21 (3D coordinates assigned)
CCCCn1c(Cn2c(=O)c(-c3cc(C)c(=O)n(C)c3)[nH+]c3ccccc32)nc2ccccc21 (optimized conformer: 119.34097751913185 kcal/mol)

>  <smiles>  (13) 
CCCCn1c(Cn2c(=O)c(-c3cc(C)c(=O)n(C)c3)nc3ccccc32)nc2ccccc21

>  <score_type>  (13) 
oracle

>  <origin>  (13) 
adg

>  <m_score__min__energy>  (13) 
-9.3599999999999994

>  <m_primary>  (13) 
energy

$$$$
13:0
     RDKit          3D

 35 36  0  0  0  0  0  0  0  0999 V2000
   -3.3060   24.0310  -28.9420 C   0  0  0  0  0  0  0  0  0  0  0  0
   -3.4990   24.0270  -30.4540 C   0  0  0  0  0  0  0  0  0  0  0  0
   -4.9250   24.2810  -30.7770 N   0  0  0  0  0  0  0  0  0  0  0  0
   -5.3470   25.6680  -30.4710 C   0  0  0  0  0  0  0  0  0  0  0  0
   -6.4900   25.7530  -29.4480 C   0  0  0  0  0  0  0  0  0  0  0  0
   -5.8430   23.2740  -30.2020 C   0  0  0  0  0  0  0  0  0  0  0  0
   -6.3050   22.3220  -31.2610 C   0  0  0  0  0  0  0  0  0  0  0  0
   -7.0840   22.6350  -32.3490 C   0  0  0  0  0  0  0  0  0  0  0  0
   -7.2010   21.5490  -33.0690 O   0  0  0  0  0  0  0  0  0  0  0  0
   -6.5160   20.5990  -32.4670 C   0  0  0  0  0  0  0  0  0  0  0  0
   -6.4140   19.2140  -32.9910 C   0  0  0  0  0  0  0  0  0  0  0  0
   -5.3190   18.8920  -33.8140 C   0  0  0  0  0  0  0  0  0  0  0  0
   -5.1780   17.6080  -34.3450 C   0  0  0  0  0  0  0  0  0  0  0  0
   -6.1230   16.6250  -34.0590 C   0  0  0  0  0  0  0  0  0  0  0  0
   -5.9820   15.3780  -34.5750 F   0  0  0  0  0  0  0  0  0  0  0  0
   -7.2110   16.9210  -33.2370 C   0  0  0  0  0  0  0  0  0  0  0  0
   -7.3670   18.2050  -32.6960 C   0  0  0  0  0  0  0  0  0  0  0  0
   -8.7410   18.4630  -31.6250 Cl  0  0  0  0  0  0  0  0  0  0  0  0
   -5.9310   21.0310  -31.3290 N   0  0  0  0  0  0  0  0  0  0  0  0
   -4.2881   24.0106  -28.4469 H   0  0  0  0  0  0  0  0  0  0  0  0
   -2.7267   23.1447  -28.6440 H   0  0  0  0  0  0  0  0  0  0  0  0
   -2.7639   24.9406  -28.6440 H   0  0  0  0  0  0  0  0  0  0  0  0
   -2.8763   24.8142  -30.9042 H   0  0  0  0  0  0  0  0  0  0  0  0
   -3.2034   23.0468  -30.8563 H   0  0  0  0  0  0  0  0  0  0  0  0
   -4.4805   26.2144  -30.0702 H   0  0  0  0  0  0  0  0  0  0  0  0
   -5.7209   26.1051  -31.4086 H   0  0  0  0  0  0  0  0  0  0  0  0
   -6.0741   25.7221  -28.4301 H   0  0  0  0  0  0  0  0  0  0  0  0
   -7.0405   26.6946  -29.5907 H   0  0  0  0  0  0  0  0  0  0  0  0
   -7.1738   24.9032  -29.5907 H   0  0  0  0  0  0  0  0  0  0  0  0
   -5.3181   22.7131  -29.4147 H   0  0  0  0  0  0  0  0  0  0  0  0
   -6.7183   23.7896  -29.7801 H   0  0  0  0  0  0  0  0  0  0  0  0
   -7.5270   23.6166  -32.5729 H   0  0  0  0  0  0  0  0  0  0  0  0
   -4.5655   19.6603  -34.0417 H   0  0  0  0  0  0  0  0  0  0  0  0
   -4.3190   17.3723  -34.9904 H   0  0  0  0  0  0  0  0  0  0  0  0
   -7.9525   16.1404  -33.0116 H   0  0  0  0  0  0  0  0  0  0  0  0
  1  2  1  0
  2  3  1  0
  3  4  1  0
  4  5  1  0
  3  6  1  0
  6  7  1  0
  7  8  2  0
  8  9  1  0
  9 10  1  0
 10 11  1  0
 11 12  2  0
 12 13  1  0
 13 14  2  0
 14 15  1  0
 14 16  1  0
 16 17  2  0
 17 18  1  0
 10 19  2  0
 19  7  1  0
 17 11  1  0
  1 20  1  0
  1 21  1  0
  1 22  1  0
  2 23  1  0
  2 24  1  0
  4 25  1  0
  4 26  1  0
  5 27  1  0
  5 28  1  0
  5 29  1  0
  6 30  1  0
  6 31  1  0
  8 32  1  0
 12 33  1  0
 13 34  1  0
 16 35  1  0
M  END
>  <UniqueID>  (14) 
14

>  <SMILES>  (14) 
CCN(CC)Cc1coc(-c2ccc(F)cc2Cl)n1

>  <Energy>  (14) 
67.77124416085458

>  <Genealogy>  (14) 
CCN(CC)Cc1coc(-c2ccc(F)cc2Cl)n1 (3D coordinates assigned)
CCN(CC)Cc1coc(-c2ccc(F)cc2Cl)n1 (optimized conformer: 67.77124416085458 kcal/mol)

>  <smiles>  (14) 
CCN(CC)Cc1coc(-c2ccc(F)cc2Cl)n1

>  <score_type>  (14) 
oracle

>  <origin>  (14) 
adg

>  <m_score__min__energy>  (14) 
-6.5800000000000001

>  <m_primary>  (14) 
energy

$$$$
14:0
     RDKit          3D

 45 46  0  0  0  0  0  0  0  0999 V2000
   -3.1170   18.8710  -26.0620 C   0  0  0  0  0  0  0  0  0  0  0  0
   -2.0800   19.4360  -27.0300 C   0  0  0  0  0  0  0  0  0  0  0  0
   -1.5700   20.8170  -26.6090 C   0  0  0  0  0  0  0  0  0  0  0  0
   -0.7160   21.3740  -27.6080 O   0  0  0  0  0  0  0  0  0  0  0  0
   -0.7360   22.7200  -27.9920 C   0  0  0  0  0  0  0  0  0  0  0  0
    0.2110   23.4870  -27.6700 O   0  0  0  0  0  0  0  0  0  0  0  0
   -1.8690   23.2590  -28.7690 C   0  0  0  0  0  0  0  0  0  0  0  0
   -2.9430   22.5120  -29.2350 C   0  0  0  0  0  0  0  0  0  0  0  0
   -3.8100   23.3020  -29.9070 N   0  0  0  0  0  0  0  0  0  0  0  0
   -5.0350   22.8750  -30.5330 C   0  0  0  0  0  0  0  0  0  0  0  0
   -6.2740   23.3460  -30.0740 C   0  0  0  0  0  0  0  0  0  0  0  0
   -7.4600   22.9250  -30.6760 C   0  0  0  0  0  0  0  0  0  0  0  0
   -7.4310   22.0140  -31.7500 C   0  0  0  0  0  0  0  0  0  0  0  0
   -8.6000   21.5630  -32.3880 O   0  0  0  0  0  0  0  0  0  0  0  0
   -9.4320   20.4910  -31.9450 C   0  0  0  0  0  0  0  0  0  0  0  0
   -8.8360   19.1440  -32.3400 C   0  0  0  0  0  0  0  0  0  0  0  0
   -6.1970   21.5340  -32.2140 C   0  0  0  0  0  0  0  0  0  0  0  0
   -6.1970   20.6290  -33.2880 O   0  0  0  0  0  0  0  0  0  0  0  0
   -5.5080   19.3830  -33.2950 C   0  0  0  0  0  0  0  0  0  0  0  0
   -5.0040   21.9640  -31.6010 C   0  0  0  0  0  0  0  0  0  0  0  0
   -3.2920   24.5490  -29.8820 C   0  0  0  0  0  0  0  0  0  0  0  0
   -3.8690   25.6530  -30.5010 O   0  0  0  0  0  0  0  0  0  0  0  0
   -2.1030   24.5620  -29.1870 C   0  0  0  0  0  0  0  0  0  0  0  0
   -1.2940   25.7200  -28.9620 N   0  0  0  0  0  0  0  0  0  0  0  0
   -2.7887   19.0499  -25.0275 H   0  0  0  0  0  0  0  0  0  0  0  0
   -4.0844   19.3667  -26.2306 H   0  0  0  0  0  0  0  0  0  0  0  0
   -3.2250   17.7894  -26.2306 H   0  0  0  0  0  0  0  0  0  0  0  0
   -1.2261   18.7439  -27.0745 H   0  0  0  0  0  0  0  0  0  0  0  0
   -2.5658   19.5458  -28.0108 H   0  0  0  0  0  0  0  0  0  0  0  0
   -2.4293   21.4865  -26.4565 H   0  0  0  0  0  0  0  0  0  0  0  0
   -0.9951   20.7090  -25.6774 H   0  0  0  0  0  0  0  0  0  0  0  0
   -3.0702   21.4305  -29.0793 H   0  0  0  0  0  0  0  0  0  0  0  0
   -6.3108   24.0533  -29.2323 H   0  0  0  0  0  0  0  0  0  0  0  0
   -8.4242   23.3070  -30.3095 H   0  0  0  0  0  0  0  0  0  0  0  0
   -9.5263   20.5365  -30.8500 H   0  0  0  0  0  0  0  0  0  0  0  0
  -10.4195   20.5922  -32.4189 H   0  0  0  0  0  0  0  0  0  0  0  0
   -8.5840   18.5745  -31.4333 H   0  0  0  0  0  0  0  0  0  0  0  0
   -9.5684   18.5795  -32.9358 H   0  0  0  0  0  0  0  0  0  0  0  0
   -7.9257   19.3064  -32.9358 H   0  0  0  0  0  0  0  0  0  0  0  0
   -5.3281   19.0577  -32.2597 H   0  0  0  0  0  0  0  0  0  0  0  0
   -6.1178   18.6297  -33.8153 H   0  0  0  0  0  0  0  0  0  0  0  0
   -4.5458   19.4990  -33.8153 H   0  0  0  0  0  0  0  0  0  0  0  0
   -4.0379   21.5821  -31.9627 H   0  0  0  0  0  0  0  0  0  0  0  0
   -1.5900   26.6450  -29.3430 H   0  0  0  0  0  0  0  0  0  0  0  0
   -0.4110   25.6810  -28.4120 H   0  0  0  0  0  0  0  0  0  0  0  0
  1  2  1  0
  2  3  1  0
  3  4  1  0
  4  5  1  0
  5  6  2  0
  5  7  1  0
  7  8  2  0
  8  9  1  0
  9 10  1  0
 10 11  2  0
 11 12  1  0
 12 13  2  0
 13 14  1  0
 14 15  1  0
 15 16  1  0
 13 17  1  0
 17 18  1  0
 18 19  1  0
 17 20  2  0
  9 21  1  0
 21 22  1  0
 21 23  2  0
 23 24  1  0
 23  7  1  0
 20 10  1  0
  1 25  1  0
  1 26  1  0
  1 27  1  0
  2 28  1  0
  2 29  1  0
  3 30  1  0
  3 31  1  0
  8 32  1  0
 11 33  1  0
 12 34  1  0
 15 35  1  0
 15 36  1  0
 16 37  1  0
 16 38  1  0
 16 39  1  0
 19 40  1  0
 19 41  1  0
 19 42  1  0
 20 43  1  0
 24 44  1  0
 24 45  1  0
M  CHG  1  22  -1
M  END
>  <UniqueID>  (15) 
15

>  <SMILES>  (15) 
CCCOC(=O)c1cn(-c2ccc(OCC)c(OC)c2)c([O-])c1N

>  <Energy>  (15) 
70.86098228936275

>  <Genealogy>  (15) 
CCCOC(=O)c1cn(-c2ccc(OCC)c(OC)c2)c([O-])c1N (protonated)
CCCOC(=O)c1cn(-c2ccc(OCC)c(OC)c2)c([O-])c1N (3D coordinates assigned)
CCCOC(=O)c1cn(-c2ccc(OCC)c(OC)c2)c([O-])c1N (optimized conformer: 70.86098228936275 kcal/mol)

>  <smiles>  (15) 
CCCOC(=O)c1cn(-c2ccc(OCC)c(OC)c2)c(O)c1N

>  <score_type>  (15) 
oracle

>  <origin>  (15) 
adg

>  <m_score__min__energy>  (15) 
-9.7300000000000004

>  <m_primary>  (15) 
energy

$$$$
15:0
     RDKit          3D

 23 23  0  0  0  0  0  0  0  0999 V2000
   -4.6350   24.1350  -28.7650 C   0  0  0  0  0  0  0  0  0  0  0  0
   -3.7440   24.5530  -29.9370 C   0  0  0  0  0  0  0  0  0  0  0  0
   -4.5030   24.7560  -31.1820 N   0  0  0  0  0  0  0  0  0  0  0  0
   -5.9540   24.7260  -30.9590 C   0  0  0  0  0  0  0  0  0  0  0  0
   -6.5030   23.4040  -31.4170 C   0  0  0  0  0  0  0  0  0  0  0  0
   -5.6610   22.4640  -32.0360 C   0  0  0  0  0  0  0  0  0  0  0  0
   -6.1790   21.2490  -32.4940 C   0  0  0  0  0  0  0  0  0  0  0  0
   -7.5410   20.9670  -32.3490 C   0  0  0  0  0  0  0  0  0  0  0  0
   -8.0390   19.7880  -32.7960 F   0  0  0  0  0  0  0  0  0  0  0  0
   -8.3890   21.9050  -31.7490 C   0  0  0  0  0  0  0  0  0  0  0  0
   -9.7110   21.6370  -31.6150 F   0  0  0  0  0  0  0  0  0  0  0  0
   -7.8740   23.1210  -31.2890 C   0  0  0  0  0  0  0  0  0  0  0  0
   -4.1295   24.3722  -27.8173 H   0  0  0  0  0  0  0  0  0  0  0  0
   -5.5894   24.6793  -28.8177 H   0  0  0  0  0  0  0  0  0  0  0  0
   -4.8265   23.0531  -28.8177 H   0  0  0  0  0  0  0  0  0  0  0  0
   -3.2373   25.4939  -29.6761 H   0  0  0  0  0  0  0  0  0  0  0  0
   -3.0246   23.7400  -30.1146 H   0  0  0  0  0  0  0  0  0  0  0  0
   -4.2390   25.6780  -31.6030 H   0  0  0  0  0  0  0  0  0  0  0  0
   -6.1633   24.8587  -29.8873 H   0  0  0  0  0  0  0  0  0  0  0  0
   -6.4298   25.5381  -31.5283 H   0  0  0  0  0  0  0  0  0  0  0  0
   -4.5907   22.6852  -32.1605 H   0  0  0  0  0  0  0  0  0  0  0  0
   -5.5138   20.5132  -32.9695 H   0  0  0  0  0  0  0  0  0  0  0  0
   -8.5446   23.8593  -30.8250 H   0  0  0  0  0  0  0  0  0  0  0  0
  1  2  1  0
  2  3  1  0
  3  4  1  0
  4  5  1  0
  5  6  2  0
  6  7  1  0
  7  8  2  0
  8  9  1  0
  8 10  1  0
 10 11  1  0
 10 12  2  0
 12  5  1  0
  1 13  1  0
  1 14  1  0
  1 15  1  0
  2 16  1  0
  2 17  1  0
  3 18  1  0
  4 19  1  0
  4 20  1  0
  6 21  1  0
  7 22  1  0
 12 23  1  0
M  END
>  <UniqueID>  (16) 
16

>  <SMILES>  (16) 
CCNCc1ccc(F)c(F)c1

>  <Energy>  (16) 
18.557229977011723

>  <Genealogy>  (16) 
CCNCc1ccc(F)c(F)c1 (3D coordinates assigned)
CCNCc1ccc(F)c(F)c1 (optimized conformer: 18.557229977011723 kcal/mol)

>  <smiles>  (16) 
CCNCc1ccc(F)c(F)c1

>  <score_type>  (16) 
oracle

>  <origin>  (16) 
adg

>  <m_score__min__energy>  (16) 
-5.0999999999999996

>  <m_primary>  (16) 
energy

$$$$
16:0
     RDKit          3D

 43 44  0  0  0  0  0  0  0  0999 V2000
   -5.7560   18.1910  -34.9060 C   0  0  0  0  0  0  0  0  0  0  0  0
   -5.6650   17.0840  -33.8360 C   0  0  0  0  0  0  0  0  0  0  0  0
   -4.3290   16.3360  -34.0160 C   0  0  0  0  0  0  0  0  0  0  0  0
   -6.8320   16.0980  -34.0520 C   0  0  0  0  0  0  0  0  0  0  0  0
   -5.7510   17.7530  -32.4300 C   0  0  0  0  0  0  0  0  0  0  0  0
   -6.7020   18.8830  -32.3720 N   0  0  0  0  0  0  0  0  0  0  0  0
   -8.0300   18.6140  -32.1700 C   0  0  0  0  0  0  0  0  0  0  0  0
   -8.9670   19.6430  -32.1080 C   0  0  0  0  0  0  0  0  0  0  0  0
   -8.5510   20.9590  -32.2660 C   0  0  0  0  0  0  0  0  0  0  0  0
   -7.2000   21.2480  -32.4960 C   0  0  0  0  0  0  0  0  0  0  0  0
   -6.7780   22.6140  -32.7140 N   0  0  0  0  0  0  0  0  0  0  0  0
   -6.9720   23.4390  -31.5090 C   0  0  0  0  0  0  0  0  0  0  0  0
   -5.6790   23.6500  -30.7570 C   0  0  0  0  0  0  0  0  0  0  0  0
   -5.6620   24.3980  -29.5690 C   0  0  0  0  0  0  0  0  0  0  0  0
   -4.4730   24.5520  -28.8500 C   0  0  0  0  0  0  0  0  0  0  0  0
   -3.2930   23.9580  -29.3110 C   0  0  0  0  0  0  0  0  0  0  0  0
   -1.8020   24.1500  -28.4070 Cl  0  0  0  0  0  0  0  0  0  0  0  0
   -3.3050   23.2070  -30.4910 C   0  0  0  0  0  0  0  0  0  0  0  0
   -4.4940   23.0490  -31.2110 C   0  0  0  0  0  0  0  0  0  0  0  0
   -6.2800   20.1790  -32.5590 C   0  0  0  0  0  0  0  0  0  0  0  0
   -5.0640   20.4250  -32.7930 O   0  0  0  0  0  0  0  0  0  0  0  0
   -5.8366   19.1713  -34.4135 H   0  0  0  0  0  0  0  0  0  0  0  0
   -4.8530   18.1692  -35.5338 H   0  0  0  0  0  0  0  0  0  0  0  0
   -6.6433   18.0221  -35.5338 H   0  0  0  0  0  0  0  0  0  0  0  0
   -3.9056   16.0989  -33.0288 H   0  0  0  0  0  0  0  0  0  0  0  0
   -4.5028   15.4040  -34.5738 H   0  0  0  0  0  0  0  0  0  0  0  0
   -3.6253   16.9714  -34.5738 H   0  0  0  0  0  0  0  0  0  0  0  0
   -7.2202   15.7700  -33.0764 H   0  0  0  0  0  0  0  0  0  0  0  0
   -7.6335   16.5966  -34.6168 H   0  0  0  0  0  0  0  0  0  0  0  0
   -6.4742   15.2245  -34.6168 H   0  0  0  0  0  0  0  0  0  0  0  0
   -6.0689   16.9926  -31.7015 H   0  0  0  0  0  0  0  0  0  0  0  0
   -4.7537   18.1574  -32.2025 H   0  0  0  0  0  0  0  0  0  0  0  0
   -8.3610   17.5713  -32.0552 H   0  0  0  0  0  0  0  0  0  0  0  0
  -10.0291   19.4150  -31.9351 H   0  0  0  0  0  0  0  0  0  0  0  0
   -9.2849   21.7765  -32.2103 H   0  0  0  0  0  0  0  0  0  0  0  0
   -7.3310   23.0280  -33.5000 H   0  0  0  0  0  0  0  0  0  0  0  0
   -5.7720   22.6460  -33.0040 H   0  0  0  0  0  0  0  0  0  0  0  0
   -7.3727   24.4184  -31.8092 H   0  0  0  0  0  0  0  0  0  0  0  0
   -7.6714   22.9116  -30.8436 H   0  0  0  0  0  0  0  0  0  0  0  0
   -6.5881   24.8648  -29.2024 H   0  0  0  0  0  0  0  0  0  0  0  0
   -4.4651   25.1408  -27.9209 H   0  0  0  0  0  0  0  0  0  0  0  0
   -2.3776   22.7397  -30.8536 H   0  0  0  0  0  0  0  0  0  0  0  0
   -4.5006   22.4524  -32.1351 H   0  0  0  0  0  0  0  0  0  0  0  0
  1  2  1  0
  2  3  1  0
  2  4  1  0
  2  5  1  0
  5  6  1  0
  6  7  1  0
  7  8  2  0
  8  9  1  0
  9 10  2  0
 10 11  1  0
 11 12  1  0
 12 13  1  0
 13 14  2  0
 14 15  1  0
 15 16  2  0
 16 17  1  0
 16 18  1  0
 18 19  2  0
 10 20  1  0
 20 21  2  0
 20  6  1  0
 19 13  1  0
  1 22  1  0
  1 23  1  0
  1 24  1  0
  3 25  1  0
  3 26  1  0
  3 27  1  0
  4 28  1  0
  4 29  1  0
  4 30  1  0
  5 31  1  0
  5 32  1  0
  7 33  1  0
  8 34  1  0
  9 35  1  0
 11 36  1  0
 11 37  1  0
 12 38  1  0
 12 39  1  0
 14 40  1  0
 15 41  1  0
 18 42  1  0
 19 43  1  0
M  CHG  1  11   1
M  END
>  <UniqueID>  (17) 
17

>  <SMILES>  (17) 
CC(C)(C)Cn1cccc([NH2+]Cc2ccc(Cl)cc2)c1=O

>  <Energy>  (17) 
41.48283231036674

>  <Genealogy>  (17) 
CC(C)(C)Cn1cccc([NH2+]Cc2ccc(Cl)cc2)c1=O (protonated)
CC(C)(C)Cn1cccc([NH2+]Cc2ccc(Cl)cc2)c1=O (3D coordinates assigned)
CC(C)(C)Cn1cccc([NH2+]Cc2ccc(Cl)cc2)c1=O (optimized conformer: 41.48283231036674 kcal/mol)

>  <smiles>  (17) 
CC(C)(C)Cn1cccc(NCc2ccc(Cl)cc2)c1=O

>  <score_type>  (17) 
oracle

>  <origin>  (17) 
adg

>  <m_score__min__energy>  (17) 
-7.3399999999999999

>  <m_primary>  (17) 
energy

$$$$
17:0
     RDKit          3D

 30 31  0  0  0  0  0  0  0  0999 V2000
   -6.6080   23.2430  -32.3410 C   0  0  0  0  0  0  0  0  0  0  0  0
   -7.6260   22.6410  -31.3730 C   0  0  0  0  0  0  0  0  0  0  0  0
   -9.0470   22.5800  -31.9610 C   0  0  0  0  0  0  0  0  0  0  0  0
   -9.6660   21.1730  -31.9710 C   0  0  0  0  0  0  0  0  0  0  0  0
   -8.6630   20.1290  -32.3450 C   0  0  0  0  0  0  0  0  0  0  0  0
   -8.4800   19.0470  -31.6480 N   0  0  0  0  0  0  0  0  0  0  0  0
   -7.5080   18.2680  -32.3950 C   0  0  2  0  0  0  0  0  0  0  0  0
   -6.4950   17.4310  -31.6240 C   0  0  0  0  0  0  0  0  0  0  0  0
   -5.4490   16.9180  -32.6150 C   0  0  0  0  0  0  0  0  0  0  0  0
   -5.2380   17.4900  -33.8360 C   0  0  0  0  0  0  0  0  0  0  0  0
   -6.0790   18.6510  -34.3690 C   0  0  0  0  0  0  0  0  0  0  0  0
   -6.7620   19.3220  -33.1850 C   0  0  1  0  0  0  0  0  0  0  0  0
   -7.7810   20.2700  -33.4180 O   0  0  0  0  0  0  0  0  0  0  0  0
   -5.7984   23.7218  -31.7707 H   0  0  0  0  0  0  0  0  0  0  0  0
   -6.1893   22.4472  -32.9745 H   0  0  0  0  0  0  0  0  0  0  0  0
   -7.1036   23.9933  -32.9745 H   0  0  0  0  0  0  0  0  0  0  0  0
   -7.3071   21.6194  -31.1186 H   0  0  0  0  0  0  0  0  0  0  0  0
   -7.6630   23.2907  -30.4861 H   0  0  0  0  0  0  0  0  0  0  0  0
   -9.6957   23.2378  -31.3640 H   0  0  0  0  0  0  0  0  0  0  0  0
   -8.9679   22.8975  -33.0112 H   0  0  0  0  0  0  0  0  0  0  0  0
  -10.0566   20.9485  -30.9675 H   0  0  0  0  0  0  0  0  0  0  0  0
  -10.4711   21.1584  -32.7204 H   0  0  0  0  0  0  0  0  0  0  0  0
   -8.0582   17.4985  -32.9564 H   0  0  0  0  0  0  0  0  0  0  0  0
   -6.0085   18.0494  -30.8553 H   0  0  0  0  0  0  0  0  0  0  0  0
   -6.9968   16.5866  -31.1288 H   0  0  0  0  0  0  0  0  0  0  0  0
   -4.8388   16.0481  -32.3305 H   0  0  0  0  0  0  0  0  0  0  0  0
   -4.4257   17.0980  -34.4658 H   0  0  0  0  0  0  0  0  0  0  0  0
   -5.4311   19.3748  -34.8851 H   0  0  0  0  0  0  0  0  0  0  0  0
   -6.8297   18.2818  -35.0833 H   0  0  0  0  0  0  0  0  0  0  0  0
   -5.9108   19.8387  -32.7176 H   0  0  0  0  0  0  0  0  0  0  0  0
  1  2  1  0
  2  3  1  0
  3  4  1  0
  4  5  1  0
  5  6  2  0
  6  7  1  0
  7  8  1  0
  8  9  1  0
  9 10  2  0
 10 11  1  0
 11 12  1  0
 12 13  1  0
 13  5  1  0
 12  7  1  0
  1 14  1  0
  1 15  1  0
  1 16  1  0
  2 17  1  0
  2 18  1  0
  3 19  1  0
  3 20  1  0
  4 21  1  0
  4 22  1  0
  7 23  1  6
  8 24  1  0
  8 25  1  0
  9 26  1  0
 10 27  1  0
 11 28  1  0
 11 29  1  0
 12 30  1  1
M  END
>  <UniqueID>  (18) 
18

>  <SMILES>  (18) 
CCCCC1=N[C@@H]2CC=CC[C@H]2O1

>  <Energy>  (18) 
53.47786769030342

>  <Genealogy>  (18) 
CCCCC1=N[C@@H]2CC=CC[C@H]2O1 (chirality)
CCCCC1=N[C@@H]2CC=CC[C@H]2O1 (3D coordinates assigned)
CCCCC1=N[C@@H]2CC=CC[C@H]2O1 (nonaromatic ring conformer: 53.47786769030342 kcal/mol)

>  <smiles>  (18) 
CCCCC1=NC2CC=CCC2O1

>  <score_type>  (18) 
oracle

>  <origin>  (18) 
adg

>  <m_score__min__energy>  (18) 
-5.6600000000000001

>  <m_primary>  (18) 
energy

$$$$
18:0
     RDKit          3D

 42 44  0  0  0  0  0  0  0  0999 V2000
   -1.5060   26.3650  -28.5940 O   0  0  0  0  0  0  0  0  0  0  0  0
   -1.8500   24.9340  -28.9030 S   0  0  0  0  0  0  0  0  0  0  0  0
   -0.6280   24.2240  -29.4170 O   0  0  0  0  0  0  0  0  0  0  0  0
   -2.4300   24.1290  -27.4220 C   0  0  0  0  0  0  0  0  0  0  0  0
   -2.0720   22.6690  -27.4440 C   0  0  0  0  0  0  0  0  0  0  0  0
   -0.7520   22.2570  -27.1960 C   0  0  0  0  0  0  0  0  0  0  0  0
   -0.4290   20.8980  -27.1850 C   0  0  0  0  0  0  0  0  0  0  0  0
   -1.4200   19.9390  -27.4150 C   0  0  0  0  0  0  0  0  0  0  0  0
   -2.7380   20.3400  -27.6520 C   0  0  0  0  0  0  0  0  0  0  0  0
   -3.0660   21.6990  -27.6630 C   0  0  0  0  0  0  0  0  0  0  0  0
   -3.1130   24.8830  -30.0930 N   0  0  0  0  0  0  0  0  0  0  0  0
   -4.2320   24.0470  -29.6390 C   0  0  1  0  0  0  0  0  0  0  0  0
   -5.4690   24.9160  -29.4390 C   0  0  0  0  0  0  0  0  0  0  0  0
   -6.1880   24.9580  -30.7880 C   0  0  0  0  0  0  0  0  0  0  0  0
   -5.6140   23.8260  -31.6400 C   0  0  0  0  0  0  0  0  0  0  0  0
   -4.6570   23.0570  -30.7260 C   0  0  1  0  0  0  0  0  0  0  0  0
   -3.5020   22.3600  -31.4350 C   0  0  0  0  0  0  0  0  0  0  0  0
   -3.6900   21.8740  -32.7430 C   0  0  0  0  0  0  0  0  0  0  0  0
   -2.6590   21.2050  -33.4080 C   0  0  0  0  0  0  0  0  0  0  0  0
   -1.4310   21.0040  -32.7750 C   0  0  0  0  0  0  0  0  0  0  0  0
   -1.2320   21.4670  -31.4740 C   0  0  0  0  0  0  0  0  0  0  0  0
   -0.0430   21.2580  -30.8550 F   0  0  0  0  0  0  0  0  0  0  0  0
   -2.2600   22.1370  -30.8020 C   0  0  0  0  0  0  0  0  0  0  0  0
   -1.9641   24.6032  -26.5456 H   0  0  0  0  0  0  0  0  0  0  0  0
   -3.5243   24.2271  -27.3680 H   0  0  0  0  0  0  0  0  0  0  0  0
    0.0303   23.0075  -27.0097 H   0  0  0  0  0  0  0  0  0  0  0  0
    0.6073   20.5817  -26.9950 H   0  0  0  0  0  0  0  0  0  0  0  0
   -1.1627   18.8695  -27.4095 H   0  0  0  0  0  0  0  0  0  0  0  0
   -3.5181   19.5852  -27.8301 H   0  0  0  0  0  0  0  0  0  0  0  0
   -4.1054   22.0105  -27.8436 H   0  0  0  0  0  0  0  0  0  0  0  0
   -3.8948   23.5395  -28.7232 H   0  0  0  0  0  0  0  0  0  0  0  0
   -6.1235   24.4759  -28.6723 H   0  0  0  0  0  0  0  0  0  0  0  0
   -5.1967   25.9264  -29.0999 H   0  0  0  0  0  0  0  0  0  0  0  0
   -7.2686   24.8110  -30.6441 H   0  0  0  0  0  0  0  0  0  0  0  0
   -6.0405   25.9309  -31.2796 H   0  0  0  0  0  0  0  0  0  0  0  0
   -6.4201   23.1657  -31.9923 H   0  0  0  0  0  0  0  0  0  0  0  0
   -5.0980   24.2129  -32.5311 H   0  0  0  0  0  0  0  0  0  0  0  0
   -5.1710   22.1903  -30.2849 H   0  0  0  0  0  0  0  0  0  0  0  0
   -4.6570   22.0222  -33.2459 H   0  0  0  0  0  0  0  0  0  0  0  0
   -2.8153   20.8360  -34.4324 H   0  0  0  0  0  0  0  0  0  0  0  0
   -0.6200   20.4803  -33.3022 H   0  0  0  0  0  0  0  0  0  0  0  0
   -2.0994   22.4924  -29.7735 H   0  0  0  0  0  0  0  0  0  0  0  0
  1  2  2  0
  2  3  2  0
  2  4  1  0
  4  5  1  0
  5  6  2  0
  6  7  1  0
  7  8  2  0
  8  9  1  0
  9 10  2  0
  2 11  1  0
 11 12  1  0
 12 13  1  0
 13 14  1  0
 14 15  1  0
 15 16  1  0
 16 17  1  0
 17 18  2  0
 18 19  1  0
 19 20  2  0
 20 21  1  0
 21 22  1  0
 21 23  2  0
 10  5  1  0
 16 12  1  0
 23 17  1  0
  4 24  1  0
  4 25  1  0
  6 26  1  0
  7 27  1  0
  8 28  1  0
  9 29  1  0
 10 30  1  0
 12 31  1  1
 13 32  1  0
 13 33  1  0
 14 34  1  0
 14 35  1  0
 15 36  1  0
 15 37  1  0
 16 38  1  1
 18 39  1  0
 19 40  1  0
 20 41  1  0
 23 42  1  0
M  CHG  1  11  -1
M  END
>  <UniqueID>  (19) 
19

>  <SMILES>  (19) 
O=S(=O)(Cc1ccccc1)[N-][C@H]1CCC[C@H]1c1cccc(F)c1

>  <Energy>  (19) 
42.37338671792234

>  <Genealogy>  (19) 
O=S(=O)(Cc1ccccc1)[N-]C1CCCC1c1cccc(F)c1 (protonated)
O=S(=O)(Cc1ccccc1)[N-][C@H]1CCC[C@H]1c1cccc(F)c1 (chirality)
O=S(=O)(Cc1ccccc1)[N-][C@H]1CCC[C@H]1c1cccc(F)c1 (3D coordinates assigned)
O=S(=O)(Cc1ccccc1)[N-][C@H]1CCC[C@H]1c1cccc(F)c1 (nonaromatic ring conformer: 42.37338671792234 kcal/mol)

>  <smiles>  (19) 
O=S(=O)(Cc1ccccc1)NC1CCCC1c1cccc(F)c1

>  <score_type>  (19) 
oracle

>  <origin>  (19) 
adg

>  <m_score__min__energy>  (19) 
-9.4199999999999999

>  <m_primary>  (19) 
energy

$$$$
19:0
     RDKit          3D

 34 35  0  0  0  0  0  0  0  0999 V2000
   -6.1250   16.4380  -34.1900 C   0  0  0  0  0  0  0  0  0  0  0  0
   -5.7800   17.8570  -34.6700 C   0  0  0  0  0  0  0  0  0  0  0  0
   -6.3400   18.9550  -33.8390 N   0  0  1  0  0  0  0  0  0  0  0  0
   -7.2930   18.4850  -32.8070 C   0  0  0  0  0  0  0  0  0  0  0  0
   -8.0850   19.6330  -32.2310 C   0  0  0  0  0  0  0  0  0  0  0  0
   -9.3320   20.0270  -32.7350 C   0  0  0  0  0  0  0  0  0  0  0  0
   -9.8470   21.1570  -32.1180 C   0  0  0  0  0  0  0  0  0  0  0  0
   -8.7550   21.6580  -30.9490 S   0  0  0  0  0  0  0  0  0  0  0  0
   -7.6130   20.4540  -31.2140 C   0  0  0  0  0  0  0  0  0  0  0  0
   -5.3060   19.7820  -33.2580 C   0  0  0  0  0  0  0  0  0  0  0  0
   -4.3800   19.2710  -32.5660 O   0  0  0  0  0  0  0  0  0  0  0  0
   -5.3470   21.1670  -33.4630 O   0  0  0  0  0  0  0  0  0  0  0  0
   -5.1830   22.1380  -32.4640 C   0  0  0  0  0  0  0  0  0  0  0  0
   -4.1160   22.0990  -31.5460 C   0  0  0  0  0  0  0  0  0  0  0  0
   -4.0090   23.0740  -30.5490 C   0  0  0  0  0  0  0  0  0  0  0  0
   -4.9700   24.0870  -30.4530 C   0  0  0  0  0  0  0  0  0  0  0  0
   -6.0390   24.1240  -31.3530 C   0  0  0  0  0  0  0  0  0  0  0  0
   -6.1460   23.1530  -32.3530 C   0  0  0  0  0  0  0  0  0  0  0  0
   -6.1308   16.4142  -33.0903 H   0  0  0  0  0  0  0  0  0  0  0  0
   -7.1183   16.1544  -34.5681 H   0  0  0  0  0  0  0  0  0  0  0  0
   -5.3728   15.7300  -34.5681 H   0  0  0  0  0  0  0  0  0  0  0  0
   -4.6847   17.9583  -34.6760 H   0  0  0  0  0  0  0  0  0  0  0  0
   -6.2341   17.9633  -35.6663 H   0  0  0  0  0  0  0  0  0  0  0  0
   -6.8740   19.5650  -34.5040 H   0  0  0  0  0  0  0  0  0  0  0  0
   -7.9871   17.7630  -33.2620 H   0  0  0  0  0  0  0  0  0  0  0  0
   -6.7210   18.0143  -31.9938 H   0  0  0  0  0  0  0  0  0  0  0  0
   -9.8523   19.4912  -33.5426 H   0  0  0  0  0  0  0  0  0  0  0  0
  -10.8061   21.6409  -32.3547 H   0  0  0  0  0  0  0  0  0  0  0  0
   -6.6601   20.3365  -30.6772 H   0  0  0  0  0  0  0  0  0  0  0  0
   -3.3641   21.2990  -31.6132 H   0  0  0  0  0  0  0  0  0  0  0  0
   -3.1688   23.0447  -29.8397 H   0  0  0  0  0  0  0  0  0  0  0  0
   -4.8841   24.8541  -29.6693 H   0  0  0  0  0  0  0  0  0  0  0  0
   -6.7965   24.9177  -31.2743 H   0  0  0  0  0  0  0  0  0  0  0  0
   -6.9903   23.1846  -33.0574 H   0  0  0  0  0  0  0  0  0  0  0  0
  1  2  1  0
  2  3  1  0
  3  4  1  0
  4  5  1  0
  5  6  1  0
  6  7  2  0
  7  8  1  0
  8  9  1  0
  3 10  1  0
 10 11  2  0
 10 12  1  0
 12 13  1  0
 13 14  2  0
 14 15  1  0
 15 16  2  0
 16 17  1  0
 17 18  2  0
  9  5  2  0
 18 13  1  0
  1 19  1  0
  1 20  1  0
  1 21  1  0
  2 22  1  0
  2 23  1  0
  3 24  1  6
  4 25  1  0
  4 26  1  0
  6 27  1  0
  7 28  1  0
  9 29  1  0
 14 30  1  0
 15 31  1  0
 16 32  1  0
 17 33  1  0
 18 34  1  0
M  CHG  1   3   1
M  END
>  <UniqueID>  (20) 
20

>  <SMILES>  (20) 
CC[N@@H+](Cc1ccsc1)C(=O)Oc1ccccc1

>  <Energy>  (20) 
67.12363309721866

>  <Genealogy>  (20) 
CC[NH+](Cc1ccsc1)C(=O)Oc1ccccc1 (protonated)
CC[N@@H+](Cc1ccsc1)C(=O)Oc1ccccc1 (chirality)
CC[N@@H+](Cc1ccsc1)C(=O)Oc1ccccc1 (3D coordinates assigned)
CC[N@@H+](Cc1ccsc1)C(=O)Oc1ccccc1 (optimized conformer: 67.12363309721866 kcal/mol)

>  <smiles>  (20) 
CCN(Cc1ccsc1)C(=O)Oc1ccccc1

>  <score_type>  (20) 
oracle

>  <origin>  (20) 
adg

>  <m_score__min__energy>  (20) 
-5.9199999999999999

>  <m_primary>  (20) 
energy

$$$$
20:0
     RDKit          3D

 42 43  0  0  1  0  0  0  0  0999 V2000
   -3.9910   23.6040  -28.5110 C   0  0  0  0  0  0  0  0  0  0  0  0
   -3.5760   24.5560  -29.5950 C   0  0  0  0  0  0  0  0  0  0  0  0
   -4.2560   24.1510  -30.8440 N   0  0  0  0  0  0  0  0  0  0  0  0
   -3.9290   22.8440  -31.1960 C   0  0  0  0  0  0  0  0  0  0  0  0
   -4.1470   22.3100  -32.5570 C   0  0  0  0  0  0  0  0  0  0  0  0
   -5.5210   24.7040  -30.9510 C   0  0  0  0  0  0  0  0  0  0  0  0
   -6.7390   23.9730  -30.4350 C   0  0  0  0  0  0  0  0  0  0  0  0
   -7.5580   23.7220  -31.6070 N   0  0  0  0  0  0  0  0  0  0  0  0
   -8.0030   22.5650  -31.8750 C   0  0  0  0  0  0  0  0  0  0  0  0
   -7.2470   21.5030  -32.3210 C   0  0  0  0  0  0  0  0  0  0  0  0
   -7.7750   20.2670  -32.6040 C   0  0  0  0  0  0  0  0  0  0  0  0
   -6.9780   19.1430  -33.0940 C   0  0  0  0  0  0  0  0  0  0  0  0
   -6.1030   19.3000  -34.1470 C   0  0  0  0  0  0  0  0  0  0  0  0
   -5.3420   18.2320  -34.6070 C   0  0  0  0  0  0  0  0  0  0  0  0
   -5.4290   16.9780  -34.0390 C   0  0  0  0  0  0  0  0  0  0  0  0
   -4.7010   15.9160  -34.4580 F   0  0  0  0  0  0  0  0  0  0  0  0
   -6.3120   16.8040  -32.9730 C   0  0  0  0  0  0  0  0  0  0  0  0
   -7.0630   17.8960  -32.5310 C   0  0  0  0  0  0  0  0  0  0  0  0
   -9.1160   20.1440  -32.4130 N   0  0  0  0  0  0  0  0  0  0  0  0
   -9.8670   21.1850  -31.9740 C   0  0  0  0  0  0  0  0  0  0  0  0
   -9.3540   22.3930  -31.6980 N   0  0  0  0  0  0  0  0  0  0  0  0
   -3.7931   24.0580  -27.5288 H   0  0  0  0  0  0  0  0  0  0  0  0
   -5.0653   23.3871  -28.6050 H   0  0  0  0  0  0  0  0  0  0  0  0
   -3.4187   22.6693  -28.6050 H   0  0  0  0  0  0  0  0  0  0  0  0
   -3.8708   25.5807  -29.3249 H   0  0  0  0  0  0  0  0  0  0  0  0
   -2.4845   24.5304  -29.7287 H   0  0  0  0  0  0  0  0  0  0  0  0
   -2.8537   22.7328  -30.9928 H   0  0  0  0  0  0  0  0  0  0  0  0
   -4.6545   22.2636  -30.6071 H   0  0  0  0  0  0  0  0  0  0  0  0
   -4.5620   21.2935  -32.4899 H   0  0  0  0  0  0  0  0  0  0  0  0
   -4.8521   22.9590  -33.0969 H   0  0  0  0  0  0  0  0  0  0  0  0
   -3.1891   22.2801  -33.0969 H   0  0  0  0  0  0  0  0  0  0  0  0
   -5.4867   25.6669  -30.4203 H   0  0  0  0  0  0  0  0  0  0  0  0
   -5.6885   24.7132  -32.0381 H   0  0  0  0  0  0  0  0  0  0  0  0
   -6.4470   23.0255  -29.9585 H   0  0  0  0  0  0  0  0  0  0  0  0
   -7.2777   24.5578  -29.6749 H   0  0  0  0  0  0  0  0  0  0  0  0
   -6.1658   21.6526  -32.4573 H   0  0  0  0  0  0  0  0  0  0  0  0
   -6.0056   20.2836  -34.6298 H   0  0  0  0  0  0  0  0  0  0  0  0
   -4.6508   18.3912  -35.4478 H   0  0  0  0  0  0  0  0  0  0  0  0
   -6.4153   15.8221  -32.4880 H   0  0  0  0  0  0  0  0  0  0  0  0
   -7.7565   17.7479  -31.6901 H   0  0  0  0  0  0  0  0  0  0  0  0
   -9.6390   19.2640  -32.5900 H   0  0  0  0  0  0  0  0  0  0  0  0
  -10.9476   21.0310  -31.8380 H   0  0  0  0  0  0  0  0  0  0  0  0
  1  2  1  0
  2  3  1  0
  3  4  1  0
  4  5  1  0
  3  6  1  0
  6  7  1  0
  7  8  1  0
  8  9  2  0
  9 10  1  0
 10 11  2  0
 11 12  1  0
 12 13  2  0
 13 14  1  0
 14 15  2  0
 15 16  1  0
 15 17  1  0
 17 18  2  0
 11 19  1  0
 19 20  1  0
 20 21  2  0
 21  9  1  0
 18 12  1  0
  1 22  1  0
  1 23  1  0
  1 24  1  0
  2 25  1  0
  2 26  1  0
  4 27  1  0
  4 28  1  0
  5 29  1  0
  5 30  1  0
  5 31  1  0
  6 32  1  0
  6 33  1  0
  7 34  1  0
  7 35  1  0
 10 36  1  0
 13 37  1  0
 14 38  1  0
 17 39  1  0
 18 40  1  0
 19 41  1  0
 20 42  1  0
M  END
>  <smiles>  (21) 
CCN(CC)CCN=c1cc(-c2ccc(F)cc2)[nH]cn1

>  <score_type>  (21) 
oracle

>  <origin>  (21) 
adg

>  <m_score__min__energy>  (21) 
-7.1799999999999997

>  <m_primary>  (21) 
energy

$$$$
21:0
     RDKit          3D

 66 70  0  0  0  0  0  0  0  0999 V2000
   -1.1190   26.3890  -27.4270 C   0  0  0  0  0  0  0  0  0  0  0  0
   -1.8400   25.8940  -28.5510 O   0  0  0  0  0  0  0  0  0  0  0  0
   -1.8850   24.5440  -28.9340 C   0  0  0  0  0  0  0  0  0  0  0  0
   -1.0460   23.5740  -28.3560 C   0  0  0  0  0  0  0  0  0  0  0  0
   -1.1070   22.2360  -28.7660 C   0  0  0  0  0  0  0  0  0  0  0  0
   -1.9960   21.8650  -29.7930 C   0  0  0  0  0  0  0  0  0  0  0  0
   -2.8510   22.8250  -30.3520 C   0  0  0  0  0  0  0  0  0  0  0  0
   -2.7970   24.1660  -29.9300 C   0  0  0  0  0  0  0  0  0  0  0  0
   -3.6340   25.1540  -30.4770 O   0  0  0  0  0  0  0  0  0  0  0  0
   -5.0560   25.1320  -30.4140 C   0  0  0  0  0  0  0  0  0  0  0  0
   -2.1040   20.4240  -30.2360 C   0  0  0  0  0  0  0  0  0  0  0  0
   -0.8680   19.6510  -29.9720 N   0  0  1  0  0  0  0  0  0  0  0  0
    0.2550   20.0130  -30.8790 C   0  0  0  0  0  0  0  0  0  0  0  0
    0.3500   19.1480  -32.1590 C   0  0  0  0  0  0  0  0  0  0  0  0
   -0.6100   19.5340  -33.3020 C   0  0  0  0  0  0  0  0  0  0  0  0
   -1.9870   18.8610  -33.2210 C   0  0  0  0  0  0  0  0  0  0  0  0
   -3.0160   19.7200  -33.8020 N   0  0  0  0  0  0  0  0  0  0  0  0
   -3.5430   20.9310  -33.2410 C   0  0  0  0  0  0  0  0  0  0  0  0
   -2.7770   21.9230  -33.1340 O   0  0  0  0  0  0  0  0  0  0  0  0
   -4.9420   21.0600  -32.7840 C   0  0  0  0  0  0  0  0  0  0  0  0
   -5.6110   22.2370  -32.4220 C   0  0  0  0  0  0  0  0  0  0  0  0
   -6.9060   21.9600  -32.1530 N   0  0  0  0  0  0  0  0  0  0  0  0
   -7.0680   20.6550  -32.3770 C   0  0  0  0  0  0  0  0  0  0  0  0
   -8.2710   19.9800  -32.2610 C   0  0  0  0  0  0  0  0  0  0  0  0
   -8.2740   18.6050  -32.5670 C   0  0  0  0  0  0  0  0  0  0  0  0
   -7.0700   17.9620  -32.9520 C   0  0  0  0  0  0  0  0  0  0  0  0
   -5.8660   18.6930  -33.0540 C   0  0  0  0  0  0  0  0  0  0  0  0
   -5.9050   20.0580  -32.7600 C   0  0  0  0  0  0  0  0  0  0  0  0
   -9.5090   20.7730  -31.9270 C   0  0  0  0  0  0  0  0  0  0  0  0
   -9.1620   22.0810  -31.1680 C   0  0  0  0  0  0  0  0  0  0  0  0
   -8.0080   22.8680  -31.8370 C   0  0  0  0  0  0  0  0  0  0  0  0
   -0.4840   19.7890  -28.5490 C   0  0  0  0  0  0  0  0  0  0  0  0
   -0.1460   21.2410  -28.1680 C   0  0  0  0  0  0  0  0  0  0  0  0
   -1.6082   26.0532  -26.5007 H   0  0  0  0  0  0  0  0  0  0  0  0
   -0.0876   26.0076  -27.4560 H   0  0  0  0  0  0  0  0  0  0  0  0
   -1.1043   27.4885  -27.4560 H   0  0  0  0  0  0  0  0  0  0  0  0
   -0.3331   23.8699  -27.5723 H   0  0  0  0  0  0  0  0  0  0  0  0
   -3.5712   22.5269  -31.1282 H   0  0  0  0  0  0  0  0  0  0  0  0
   -5.3764   25.1270  -29.3617 H   0  0  0  0  0  0  0  0  0  0  0  0
   -5.4591   26.0240  -30.9158 H   0  0  0  0  0  0  0  0  0  0  0  0
   -5.4313   24.2279  -30.9158 H   0  0  0  0  0  0  0  0  0  0  0  0
   -2.9372   19.9511  -29.6955 H   0  0  0  0  0  0  0  0  0  0  0  0
   -2.2715   20.4221  -31.3232 H   0  0  0  0  0  0  0  0  0  0  0  0
   -1.0960   18.6400  -30.1070 H   0  0  0  0  0  0  0  0  0  0  0  0
    0.1272   21.0626  -31.1822 H   0  0  0  0  0  0  0  0  0  0  0  0
    1.1825   19.8387  -30.3138 H   0  0  0  0  0  0  0  0  0  0  0  0
    1.3784   19.2236  -32.5419 H   0  0  0  0  0  0  0  0  0  0  0  0
    0.0595   18.1315  -31.8551 H   0  0  0  0  0  0  0  0  0  0  0  0
   -0.7566   20.6239  -33.2762 H   0  0  0  0  0  0  0  0  0  0  0  0
   -0.1438   19.1888  -34.2366 H   0  0  0  0  0  0  0  0  0  0  0  0
   -1.9570   17.9097  -33.7724 H   0  0  0  0  0  0  0  0  0  0  0  0
   -2.2315   18.6814  -32.1637 H   0  0  0  0  0  0  0  0  0  0  0  0
   -5.1517   23.2349  -32.3654 H   0  0  0  0  0  0  0  0  0  0  0  0
   -9.2099   18.0302  -32.5074 H   0  0  0  0  0  0  0  0  0  0  0  0
   -7.0740   16.8845  -33.1731 H   0  0  0  0  0  0  0  0  0  0  0  0
   -4.9281   18.2035  -33.3551 H   0  0  0  0  0  0  0  0  0  0  0  0
  -10.0311   21.0298  -32.8605 H   0  0  0  0  0  0  0  0  0  0  0  0
  -10.1472   20.1568  -31.2766 H   0  0  0  0  0  0  0  0  0  0  0  0
  -10.0562   22.7210  -31.1415 H   0  0  0  0  0  0  0  0  0  0  0  0
   -8.8332   21.8024  -30.1560 H   0  0  0  0  0  0  0  0  0  0  0  0
   -8.3736   23.3347  -32.7636 H   0  0  0  0  0  0  0  0  0  0  0  0
   -7.6506   23.6455  -31.1458 H   0  0  0  0  0  0  0  0  0  0  0  0
   -1.3208   19.4457  -27.9229 H   0  0  0  0  0  0  0  0  0  0  0  0
    0.4187   19.1819  -28.3860 H   0  0  0  0  0  0  0  0  0  0  0  0
   -0.1786   21.3344  -27.0725 H   0  0  0  0  0  0  0  0  0  0  0  0
    0.8552   21.4650  -28.5648 H   0  0  0  0  0  0  0  0  0  0  0  0
  1  2  1  0
  2  3  1  0
  3  4  2  0
  4  5  1  0
  5  6  2  0
  6  7  1  0
  7  8  2  0
  8  9  1  0
  9 10  1  0
  6 11  1  0
 11 12  1  0
 12 13  1  0
 13 14  1  0
 14 15  1  0
 15 16  1  0
 16 17  1  0
 17 18  1  0
 18 19  2  0
 18 20  1  0
 20 21  2  0
 21 22  1  0
 22 23  1  0
 23 24  2  0
 24 25  1  0
 25 26  2  0
 26 27  1  0
 27 28  2  0
 24 29  1  0
 29 30  1  0
 30 31  1  0
 12 32  1  0
 32 33  1  0
  8  3  1  0
 28 20  1  0
 33  5  1  0
 31 22  1  0
 28 23  1  0
  1 34  1  0
  1 35  1  0
  1 36  1  0
  4 37  1  0
  7 38  1  0
 10 39  1  0
 10 40  1  0
 10 41  1  0
 11 42  1  0
 11 43  1  0
 12 44  1  1
 13 45  1  0
 13 46  1  0
 14 47  1  0
 14 48  1  0
 15 49  1  0
 15 50  1  0
 16 51  1  0
 16 52  1  0
 21 53  1  0
 25 54  1  0
 26 55  1  0
 27 56  1  0
 29 57  1  0
 29 58  1  0
 30 59  1  0
 30 60  1  0
 31 61  1  0
 31 62  1  0
 32 63  1  0
 32 64  1  0
 33 65  1  0
 33 66  1  0
M  CHG  2  12   1  17  -1
M  END
>  <UniqueID>  (22) 
21

>  <SMILES>  (22) 
COc1cc2c(cc1OC)C[N@@H+](CCCC[N-]C(=O)c1cn3c4c(cccc14)CCC3)CC2

>  <Energy>  (22) 
115.29783905484108

>  <Genealogy>  (22) 
COc1cc2c(cc1OC)C[NH+](CCCC[N-]C(=O)c1cn3c4c(cccc14)CCC3)CC2 (protonated)
COc1cc2c(cc1OC)C[N@@H+](CCCC[N-]C(=O)c1cn3c4c(cccc14)CCC3)CC2 (chirality)
COc1cc2c(cc1OC)C[N@@H+](CCCC[N-]C(=O)c1cn3c4c(cccc14)CCC3)CC2 (3D coordinates assigned)
COc1cc2c(cc1OC)C[N@@H+](CCCC[N-]C(=O)c1cn3c4c(cccc14)CCC3)CC2 (nonaromatic ring conformer: 115.29783905484108 kcal/mol)

>  <smiles>  (22) 
COc1cc2c(cc1OC)CN(CCCCNC(=O)c1cn3c4c(cccc14)CCC3)CC2

>  <score_type>  (22) 
oracle

>  <origin>  (22) 
adg

>  <m_score__min__energy>  (22) 
-10.48

>  <m_primary>  (22) 
energy

$$$$
22:0
     RDKit          3D

 32 33  0  0  0  0  0  0  0  0999 V2000
   -4.7130   22.0930  -32.0080 C   0  0  0  0  0  0  0  0  0  0  0  0
   -5.5840   22.5990  -30.8940 C   0  0  0  0  0  0  0  0  0  0  0  0
   -5.3140   23.6520  -30.0340 C   0  0  0  0  0  0  0  0  0  0  0  0
   -4.0850   24.4580  -29.9320 C   0  0  0  0  0  0  0  0  0  0  0  0
   -3.8340   25.3030  -30.8330 O   0  0  0  0  0  0  0  0  0  0  0  0
   -3.1810   24.3130  -28.8220 N   0  0  0  0  0  0  0  0  0  0  0  0
   -3.7160   24.2040  -27.4610 C   0  0  0  0  0  0  0  0  0  0  0  0
   -1.7420   24.4430  -29.0540 C   0  0  0  0  0  0  0  0  0  0  0  0
   -6.4430   23.9060  -29.3460 N   0  0  0  0  0  0  0  0  0  0  0  0
   -7.3660   23.0420  -29.7390 N   0  0  0  0  0  0  0  0  0  0  0  0
   -6.8680   22.2360  -30.6650 N   0  0  0  0  0  0  0  0  0  0  0  0
   -7.6400   21.2150  -31.3210 C   0  0  0  0  0  0  0  0  0  0  0  0
   -8.9770   21.4450  -31.6920 C   0  0  0  0  0  0  0  0  0  0  0  0
   -9.7090   20.4480  -32.3430 C   0  0  0  0  0  0  0  0  0  0  0  0
   -9.1140   19.2200  -32.6400 C   0  0  0  0  0  0  0  0  0  0  0  0
   -7.7800   18.9890  -32.2920 C   0  0  0  0  0  0  0  0  0  0  0  0
   -7.1990   17.8000  -32.5880 F   0  0  0  0  0  0  0  0  0  0  0  0
   -7.0440   19.9850  -31.6410 C   0  0  0  0  0  0  0  0  0  0  0  0
   -3.8352   21.5831  -31.5844 H   0  0  0  0  0  0  0  0  0  0  0  0
   -5.2841   21.3861  -32.6278 H   0  0  0  0  0  0  0  0  0  0  0  0
   -4.3818   22.9393  -32.6278 H   0  0  0  0  0  0  0  0  0  0  0  0
   -2.9066   24.3689  -26.7346 H   0  0  0  0  0  0  0  0  0  0  0  0
   -4.5006   24.9607  -27.3138 H   0  0  0  0  0  0  0  0  0  0  0  0
   -4.1420   23.2006  -27.3138 H   0  0  0  0  0  0  0  0  0  0  0  0
   -1.2177   24.4904  -28.0882 H   0  0  0  0  0  0  0  0  0  0  0  0
   -1.3825   23.5737  -29.6241 H   0  0  0  0  0  0  0  0  0  0  0  0
   -1.5441   25.3627  -29.6241 H   0  0  0  0  0  0  0  0  0  0  0  0
   -6.5930   24.6520  -28.6320 H   0  0  0  0  0  0  0  0  0  0  0  0
   -9.4485   22.4135  -31.4689 H   0  0  0  0  0  0  0  0  0  0  0  0
  -10.7571   20.6312  -32.6223 H   0  0  0  0  0  0  0  0  0  0  0  0
   -9.6945   18.4353  -33.1473 H   0  0  0  0  0  0  0  0  0  0  0  0
   -5.9915   19.8030  -31.3782 H   0  0  0  0  0  0  0  0  0  0  0  0
  1  2  1  0
  2  3  2  0
  3  4  1  0
  4  5  2  0
  4  6  1  0
  6  7  1  0
  6  8  1  0
  3  9  1  0
  9 10  2  0
 10 11  1  0
 11 12  1  0
 12 13  2  0
 13 14  1  0
 14 15  2  0
 15 16  1  0
 16 17  1  0
 16 18  2  0
 11  2  1  0
 18 12  1  0
  1 19  1  0
  1 20  1  0
  1 21  1  0
  7 22  1  0
  7 23  1  0
  7 24  1  0
  8 25  1  0
  8 26  1  0
  8 27  1  0
  9 28  1  0
 13 29  1  0
 14 30  1  0
 15 31  1  0
 18 32  1  0
M  CHG  1   9   1
M  END
>  <UniqueID>  (23) 
22

>  <SMILES>  (23) 
Cc1c(C(=O)N(C)C)[nH+]nn1-c1cccc(F)c1

>  <Energy>  (23) 
75.40611987695111

>  <Genealogy>  (23) 
Cc1c(C(=O)N(C)C)[nH+]nn1-c1cccc(F)c1 (protonated)
Cc1c(C(=O)N(C)C)[nH+]nn1-c1cccc(F)c1 (3D coordinates assigned)
Cc1c(C(=O)N(C)C)[nH+]nn1-c1cccc(F)c1 (optimized conformer: 75.40611987695111 kcal/mol)

>  <smiles>  (23) 
Cc1c(C(=O)N(C)C)nnn1-c1cccc(F)c1

>  <score_type>  (23) 
oracle

>  <origin>  (23) 
adg

>  <m_score__min__energy>  (23) 
-7.2199999999999998

>  <m_primary>  (23) 
energy

$$$$
24:0
     RDKit          3D

 52 52  0  0  0  0  0  0  0  0999 V2000
   -9.8077   18.5049  -33.2644 H   0  0  0  0  0  0  0  0  0  0  0  0
   -9.4570   19.0440  -32.3720 C   0  0  0  0  0  0  0  0  0  0  0  0
   -9.1154   18.4832  -31.4895 H   0  0  0  0  0  0  0  0  0  0  0  0
   -9.4460   20.3800  -32.3600 C   0  0  0  0  0  0  0  0  0  0  0  0
   -9.7909   20.9256  -33.2507 H   0  0  0  0  0  0  0  0  0  0  0  0
   -8.9750   21.1590  -31.1620 C   0  0  0  0  0  0  0  0  0  0  0  0
   -9.7291   21.9189  -30.9093 H   0  0  0  0  0  0  0  0  0  0  0  0
   -8.8336   20.4588  -30.3255 H   0  0  0  0  0  0  0  0  0  0  0  0
   -7.6600   21.8440  -31.4380 C   0  0  0  0  0  0  0  0  0  0  0  0
   -7.4086   22.6833  -30.7729 H   0  0  0  0  0  0  0  0  0  0  0  0
   -6.7490   21.5600  -32.3980 C   0  0  0  0  0  0  0  0  0  0  0  0
   -6.5259   22.3870  -33.0882 H   0  0  0  0  0  0  0  0  0  0  0  0
   -5.9780   20.2570  -32.6710 C   0  0  0  0  0  0  0  0  0  0  0  0
   -4.5000   20.6600  -32.6140 C   0  0  0  0  0  0  0  0  0  0  0  0
   -3.6170   19.8610  -33.0290 O   0  0  0  0  0  0  0  0  0  0  0  0
   -4.0900   21.8710  -31.9540 N   0  0  0  0  0  0  0  0  0  0  0  0
   -4.7990   22.4870  -31.5020 H   0  0  0  0  0  0  0  0  0  0  0  0
   -2.6930   22.2970  -31.9000 C   0  0  0  0  0  0  0  0  0  0  0  0
   -2.0578   21.5132  -32.3384 H   0  0  0  0  0  0  0  0  0  0  0  0
   -2.5833   23.2333  -32.4668 H   0  0  0  0  0  0  0  0  0  0  0  0
   -2.2650   22.5410  -30.4500 C   0  0  0  0  0  0  0  0  0  0  0  0
   -2.5847   21.6880  -29.8334 H   0  0  0  0  0  0  0  0  0  0  0  0
   -1.1708   22.6505  -30.4241 H   0  0  0  0  0  0  0  0  0  0  0  0
   -2.8930   23.8220  -29.8940 C   0  0  0  0  0  0  0  0  0  0  0  0
   -3.3790   23.6014  -28.9322 H   0  0  0  0  0  0  0  0  0  0  0  0
   -2.1056   24.5766  -29.7505 H   0  0  0  0  0  0  0  0  0  0  0  0
   -3.8570   24.3240  -30.8020 O   0  0  0  0  0  0  0  0  0  0  0  0
   -5.1340   24.3610  -30.2000 C   0  0  0  0  0  0  0  0  0  0  0  0
   -5.7818   23.6028  -30.6642 H   0  0  0  0  0  0  0  0  0  0  0  0
   -5.0420   24.1505  -29.1243 H   0  0  0  0  0  0  0  0  0  0  0  0
   -5.7410   25.7410  -30.4010 C   0  0  0  0  0  0  0  0  0  0  0  0
   -5.9425   26.1991  -29.4215 H   0  0  0  0  0  0  0  0  0  0  0  0
   -5.0376   26.3726  -30.9635 H   0  0  0  0  0  0  0  0  0  0  0  0
   -6.6819   25.6493  -30.9635 H   0  0  0  0  0  0  0  0  0  0  0  0
   -6.3600   19.6880  -34.0750 C   0  0  0  0  0  0  0  0  0  0  0  0
   -7.4129   19.3720  -34.0344 H   0  0  0  0  0  0  0  0  0  0  0  0
   -6.1598   20.5015  -34.7878 H   0  0  0  0  0  0  0  0  0  0  0  0
   -5.5300   18.4930  -34.5690 C   0  0  0  0  0  0  0  0  0  0  0  0
   -5.3408   18.6192  -35.6452 H   0  0  0  0  0  0  0  0  0  0  0  0
   -4.5974   18.4779  -33.9859 H   0  0  0  0  0  0  0  0  0  0  0  0
   -6.2270   17.1460  -34.3510 C   0  0  0  0  0  0  0  0  0  0  0  0
   -6.9888   17.0101  -35.1328 H   0  0  0  0  0  0  0  0  0  0  0  0
   -5.4619   16.3571  -34.3980 H   0  0  0  0  0  0  0  0  0  0  0  0
   -6.9050   17.0640  -32.9820 C   0  0  0  0  0  0  0  0  0  0  0  0
   -7.8785   17.5718  -33.0486 H   0  0  0  0  0  0  0  0  0  0  0  0
   -6.9966   15.9951  -32.7390 H   0  0  0  0  0  0  0  0  0  0  0  0
   -6.1020   17.7090  -31.8390 C   0  0  0  0  0  0  0  0  0  0  0  0
   -6.3436   17.1597  -30.9171 H   0  0  0  0  0  0  0  0  0  0  0  0
   -5.0537   17.6468  -32.1663 H   0  0  0  0  0  0  0  0  0  0  0  0
   -6.3350   19.2150  -31.5550 C   0  0  0  0  0  0  0  0  0  0  0  0
   -7.4037   19.3395  -31.3261 H   0  0  0  0  0  0  0  0  0  0  0  0
   -5.6316   19.4447  -30.7411 H   0  0  0  0  0  0  0  0  0  0  0  0
  1  2  1  0
  2  3  1  0
  2  4  2  0
  4  5  1  0
  4  6  1  0
  6  7  1  0
  6  8  1  0
  6  9  1  0
  9 10  1  0
  9 11  2  0
 11 12  1  0
 11 13  1  0
 13 14  1  0
 14 15  2  0
 14 16  1  0
 16 17  1  0
 16 18  1  0
 18 19  1  0
 18 20  1  0
 18 21  1  0
 21 22  1  0
 21 23  1  0
 21 24  1  0
 24 25  1  0
 24 26  1  0
 24 27  1  0
 27 28  1  0
 28 29  1  0
 28 30  1  0
 28 31  1  0
 31 32  1  0
 31 33  1  0
 31 34  1  0
 13 35  1  0
 35 36  1  0
 35 37  1  0
 35 38  1  0
 38 39  1  0
 38 40  1  0
 38 41  1  0
 41 42  1  0
 41 43  1  0
 41 44  1  0
 44 45  1  0
 44 46  1  0
 44 47  1  0
 47 48  1  0
 47 49  1  0
 47 50  1  0
 50 51  1  0
 50 52  1  0
 50 13  1  0
M  END
>  <UniqueID>  (24) 
23

>  <SMILES>  (24) 
C=CC/C=C\C1(C(=O)NCCCOCC)CCCCCC1

>  <Energy>  (24) 
52.79794107541422

>  <Genealogy>  (24) 
C=CC/C=C\C1(C(=O)NCCCOCC)CCCCCC1 (cis-trans isomerization)
C=CC/C=C\C1(C(=O)NCCCOCC)CCCCCC1 (3D coordinates assigned)
C=CC/C=C\C1(C(=O)NCCCOCC)CCCCCC1 (nonaromatic ring conformer: 52.79794107541422 kcal/mol)

>  <smiles>  (24) 
C=CCC=CC1(C(=O)NCCCOCC)CCCCCC1

>  <score_type>  (24) 
oracle

>  <origin>  (24) 
adg

>  <m_score__min__energy>  (24) 
-5.5499999999999998

>  <m_primary>  (24) 
energy

$$$$
25:0
     RDKit          3D

 45 50  0  0  0  0  0  0  0  0999 V2000
   -4.2780   25.8420  -31.7370 H   0  0  0  0  0  0  0  0  0  0  0  0
   -4.3520   25.3650  -30.8110 N   0  0  0  0  0  0  0  0  0  0  0  0
   -3.5200   24.4390  -30.4590 C   0  0  0  0  0  0  0  0  0  0  0  0
   -3.2540   23.4100  -31.3010 N   0  0  0  0  0  0  0  0  0  0  0  0
   -2.3800   22.4270  -30.9570 C   0  0  0  0  0  0  0  0  0  0  0  0
   -2.1190   21.3130  -31.9050 C   0  0  0  0  0  0  0  0  0  0  0  0
   -0.8360   21.1290  -32.4910 C   0  0  0  0  0  0  0  0  0  0  0  0
   -0.0140   21.8088  -32.2223 H   0  0  0  0  0  0  0  0  0  0  0  0
   -0.6050   20.0910  -33.4080 C   0  0  0  0  0  0  0  0  0  0  0  0
    0.3850   19.9514  -33.8667 H   0  0  0  0  0  0  0  0  0  0  0  0
   -1.6640   19.2440  -33.7200 C   0  0  0  0  0  0  0  0  0  0  0  0
   -2.9050   19.3980  -33.1550 C   0  0  0  0  0  0  0  0  0  0  0  0
   -3.1720   20.4380  -32.2620 C   0  0  0  0  0  0  0  0  0  0  0  0
   -4.1806   20.5741  -31.8446 H   0  0  0  0  0  0  0  0  0  0  0  0
   -3.7130   18.4100  -33.7020 C   0  0  0  0  0  0  0  0  0  0  0  0
   -5.1290   18.1100  -33.4360 C   0  0  0  0  0  0  0  0  0  0  0  0
   -5.9890   18.9880  -32.8850 N   0  0  0  0  0  0  0  0  0  0  0  0
   -7.1660   18.3800  -32.8640 N   0  0  0  0  0  0  0  0  0  0  0  0
   -8.3600   18.9460  -32.2310 C   0  0  2  0  0  0  0  0  0  0  0  0
   -8.8986   18.0262  -31.9592 H   0  0  0  0  0  0  0  0  0  0  0  0
   -9.0470   20.0170  -33.0940 C   0  0  0  0  0  0  0  0  0  0  0  0
   -8.5620   20.1993  -34.0643 H   0  0  0  0  0  0  0  0  0  0  0  0
  -10.0786   19.8849  -33.4522 H   0  0  0  0  0  0  0  0  0  0  0  0
   -8.7110   21.0390  -32.0220 C   0  0  1  0  0  0  0  0  0  0  0  0
   -7.8980   22.1030  -32.4350 O   0  0  0  0  0  0  0  0  0  0  0  0
   -8.8460   23.0180  -31.9280 C   0  0  0  0  0  0  0  0  0  0  0  0
   -9.2874   23.6615  -32.7033 H   0  0  0  0  0  0  0  0  0  0  0  0
   -8.5098   23.7751  -31.2043 H   0  0  0  0  0  0  0  0  0  0  0  0
   -9.7850   21.9240  -31.4490 C   0  0  0  0  0  0  0  0  0  0  0  0
  -10.7624   21.8778  -31.9515 H   0  0  0  0  0  0  0  0  0  0  0  0
  -10.1786   21.8440  -30.4250 H   0  0  0  0  0  0  0  0  0  0  0  0
   -8.0330   19.9940  -31.1540 C   0  0  0  0  0  0  0  0  0  0  0  0
   -6.9577   20.1627  -30.9950 H   0  0  0  0  0  0  0  0  0  0  0  0
   -8.3291   19.8449  -30.1052 H   0  0  0  0  0  0  0  0  0  0  0  0
   -7.1040   17.1490  -33.3480 N   0  0  0  0  0  0  0  0  0  0  0  0
   -5.8300   16.9580  -33.7350 C   0  0  0  0  0  0  0  0  0  0  0  0
   -5.4213   16.0507  -34.2037 H   0  0  0  0  0  0  0  0  0  0  0  0
   -2.9020   17.7170  -34.5950 C   0  0  0  0  0  0  0  0  0  0  0  0
   -3.2339   16.8711  -35.2149 H   0  0  0  0  0  0  0  0  0  0  0  0
   -1.6510   18.2260  -34.5960 N   0  0  0  0  0  0  0  0  0  0  0  0
   -0.8430   17.8980  -35.1710 H   0  0  0  0  0  0  0  0  0  0  0  0
   -1.7670   22.4910  -29.6960 C   0  0  0  0  0  0  0  0  0  0  0  0
   -1.0627   21.7083  -29.3775 H   0  0  0  0  0  0  0  0  0  0  0  0
   -2.0560   23.5330  -28.8750 N   0  0  0  0  0  0  0  0  0  0  0  0
   -2.9100   24.4870  -29.2460 N   0  0  0  0  0  0  0  0  0  0  0  0
  1  2  1  0
  2  3  2  0
  3  4  1  0
  4  5  2  0
  5  6  1  0
  6  7  2  0
  7  8  1  0
  7  9  1  0
  9 10  1  0
  9 11  2  0
 11 12  1  0
 12 13  2  0
 13 14  1  0
 12 15  1  0
 15 16  1  0
 16 17  2  0
 17 18  1  0
 18 19  1  0
 19 20  1  1
 19 21  1  0
 21 22  1  0
 21 23  1  0
 21 24  1  0
 24 25  1  6
 25 26  1  0
 26 27  1  0
 26 28  1  0
 26 29  1  0
 29 30  1  0
 29 31  1  0
 24 32  1  0
 32 33  1  0
 32 34  1  0
 18 35  1  0
 35 36  2  0
 36 37  1  0
 15 38  2  0
 38 39  1  0
 38 40  1  0
 40 41  1  0
  5 42  1  0
 42 43  1  0
 42 44  2  0
 44 45  1  0
 45  3  1  0
 13  6  1  0
 36 16  1  0
 40 11  1  0
 32 19  1  0
 29 24  1  0
M  CHG  1  45  -1
M  END
>  <UniqueID>  (25) 
24

>  <SMILES>  (25) 
[H]/N=c1/nc(-c2ccc3[nH]cc(-c4cnn(C5CC6(CCO6)C5)n4)c3c2)cn[n-]1

>  <Energy>  (25) 
258.2300488850335

>  <Genealogy>  (25) 
N=c1nc(-c2ccc3[nH]cc(-c4cnn(C5CC6(CCO6)C5)n4)c3c2)cn[n-]1 (protonated)
[H]/N=c1/nc(-c2ccc3[nH]cc(-c4cnn(C5CC6(CCO6)C5)n4)c3c2)cn[n-]1 (cis-trans isomerization)
[H]/N=c1/nc(-c2ccc3[nH]cc(-c4cnn(C5CC6(CCO6)C5)n4)c3c2)cn[n-]1 (3D coordinates assigned)
[H]/N=c1/nc(-c2ccc3[nH]cc(-c4cnn(C5CC6(CCO6)C5)n4)c3c2)cn[n-]1 (nonaromatic ring conformer: 258.2300488850335 kcal/mol)

>  <smiles>  (25) 
N=c1nc(-c2ccc3[nH]cc(-c4cnn(C5CC6(CCO6)C5)n4)c3c2)cn[nH]1

>  <score_type>  (25) 
oracle

>  <origin>  (25) 
adg

>  <m_score__min__energy>  (25) 
-10.68

>  <m_primary>  (25) 
energy

$$$$
26:0
     RDKit          3D

 42 45  0  0  0  0  0  0  0  0999 V2000
   -1.9210   20.8780  -33.4440 C   0  0  0  0  0  0  0  0  0  0  0  0
   -3.0190   21.5440  -32.6440 C   0  0  0  0  0  0  0  0  0  0  0  0
   -2.4550   21.8890  -31.2670 C   0  0  0  0  0  0  0  0  0  0  0  0
   -3.5000   21.6250  -30.2020 C   0  0  0  0  0  0  0  0  0  0  0  0
   -4.0590   22.8760  -29.6810 C   0  0  0  0  0  0  0  0  0  0  0  0
   -3.6880   23.4330  -28.4950 N   0  0  0  0  0  0  0  0  0  0  0  0
   -4.3730   24.5480  -28.3210 N   0  0  0  0  0  0  0  0  0  0  0  0
   -5.1860   24.7390  -29.3640 C   0  0  0  0  0  0  0  0  0  0  0  0
   -6.1060   25.5460  -29.8960 N   0  0  0  0  0  0  0  0  0  0  0  0
   -6.4720   25.0130  -31.0500 N   0  0  0  0  0  0  0  0  0  0  0  0
   -5.7870   23.8570  -31.2660 C   0  0  0  0  0  0  0  0  0  0  0  0
   -5.9090   22.9540  -32.4580 C   0  0  0  0  0  0  0  0  0  0  0  0
   -7.1070   22.1040  -32.1720 C   0  0  0  0  0  0  0  0  0  0  0  0
   -8.2300   22.6750  -31.5740 C   0  0  0  0  0  0  0  0  0  0  0  0
   -9.3630   21.9440  -31.2850 C   0  0  0  0  0  0  0  0  0  0  0  0
   -9.3850   20.6010  -31.6010 C   0  0  0  0  0  0  0  0  0  0  0  0
   -8.2870   20.0120  -32.1940 C   0  0  0  0  0  0  0  0  0  0  0  0
   -8.3220   18.6520  -32.5070 C   0  0  0  0  0  0  0  0  0  0  0  0
   -7.2350   18.0500  -33.0970 C   0  0  0  0  0  0  0  0  0  0  0  0
   -6.0960   18.7950  -33.3840 C   0  0  0  0  0  0  0  0  0  0  0  0
   -4.6270   17.9150  -34.1970 Br  0  0  0  0  0  0  0  0  0  0  0  0
   -6.0620   20.1480  -33.0720 C   0  0  0  0  0  0  0  0  0  0  0  0
   -7.1480   20.7570  -32.4800 C   0  0  0  0  0  0  0  0  0  0  0  0
   -4.9870   23.6950  -30.2100 N   0  0  0  0  0  0  0  0  0  0  0  0
   -1.1861   20.4322  -32.7576 H   0  0  0  0  0  0  0  0  0  0  0  0
   -2.3551   20.0909  -34.0780 H   0  0  0  0  0  0  0  0  0  0  0  0
   -1.4235   21.6267  -34.0780 H   0  0  0  0  0  0  0  0  0  0  0  0
   -3.3483   22.4617  -33.1534 H   0  0  0  0  0  0  0  0  0  0  0  0
   -3.8832   20.8706  -32.5458 H   0  0  0  0  0  0  0  0  0  0  0  0
   -1.5683   21.2686  -31.0699 H   0  0  0  0  0  0  0  0  0  0  0  0
   -2.1761   22.9528  -31.2455 H   0  0  0  0  0  0  0  0  0  0  0  0
   -4.3118   21.0242  -30.6380 H   0  0  0  0  0  0  0  0  0  0  0  0
   -3.0200   21.0872  -29.3711 H   0  0  0  0  0  0  0  0  0  0  0  0
   -4.2840   25.1800  -27.4850 H   0  0  0  0  0  0  0  0  0  0  0  0
   -6.0608   23.5416  -33.3754 H   0  0  0  0  0  0  0  0  0  0  0  0
   -5.0018   22.3529  -32.6184 H   0  0  0  0  0  0  0  0  0  0  0  0
   -8.2114   23.7461  -31.3241 H   0  0  0  0  0  0  0  0  0  0  0  0
  -10.2329   22.4225  -30.8114 H   0  0  0  0  0  0  0  0  0  0  0  0
  -10.2788   19.9992  -31.3799 H   0  0  0  0  0  0  0  0  0  0  0  0
   -9.2213   18.0602  -32.2812 H   0  0  0  0  0  0  0  0  0  0  0  0
   -7.2665   16.9781  -33.3421 H   0  0  0  0  0  0  0  0  0  0  0  0
   -5.1618   20.7381  -33.2989 H   0  0  0  0  0  0  0  0  0  0  0  0
  1  2  1  0
  2  3  1  0
  3  4  1  0
  4  5  1  0
  5  6  2  0
  6  7  1  0
  7  8  1  0
  8  9  2  0
  9 10  1  0
 10 11  2  0
 11 12  1  0
 12 13  1  0
 13 14  2  0
 14 15  1  0
 15 16  2  0
 16 17  1  0
 17 18  2  0
 18 19  1  0
 19 20  2  0
 20 21  1  0
 20 22  1  0
 22 23  2  0
 11 24  1  0
 24  5  1  0
 24  8  1  0
 23 13  1  0
 23 17  1  0
  1 25  1  0
  1 26  1  0
  1 27  1  0
  2 28  1  0
  2 29  1  0
  3 30  1  0
  3 31  1  0
  4 32  1  0
  4 33  1  0
  7 34  1  0
 12 35  1  0
 12 36  1  0
 14 37  1  0
 15 38  1  0
 16 39  1  0
 18 40  1  0
 19 41  1  0
 22 42  1  0
M  END
>  <smiles>  (26) 
CCCCc1n[nH]c2nnc(Cc3cccc4ccc(Br)cc34)n12

>  <score_type>  (26) 
oracle

>  <origin>  (26) 
adg

>  <m_score__min__energy>  (26) 
-9.9700000000000006

>  <m_primary>  (26) 
energy

$$$$
27:0
     RDKit          3D

 55 58  0  0  0  0  0  0  0  0999 V2000
   -4.1730   19.9740  -33.1010 C   0  0  0  0  0  0  0  0  0  0  0  0
   -5.0560   20.0670  -31.9880 O   0  0  0  0  0  0  0  0  0  0  0  0
   -6.4270   19.7720  -32.0300 C   0  0  0  0  0  0  0  0  0  0  0  0
   -6.9040   18.4890  -32.3650 C   0  0  0  0  0  0  0  0  0  0  0  0
   -8.2750   18.2230  -32.3650 C   0  0  0  0  0  0  0  0  0  0  0  0
   -9.1840   19.2280  -32.0330 C   0  0  0  0  0  0  0  0  0  0  0  0
   -8.7260   20.5050  -31.7030 C   0  0  0  0  0  0  0  0  0  0  0  0
   -7.3510   20.7880  -31.7090 C   0  0  0  0  0  0  0  0  0  0  0  0
   -6.8900   22.1080  -31.3710 N   0  0  0  0  0  0  0  0  0  0  0  0
   -6.0380   22.8610  -32.2920 C   0  0  0  0  0  0  0  0  0  0  0  0
   -4.8110   23.4350  -31.5530 C   0  0  0  0  0  0  0  0  0  0  0  0
   -5.0540   23.7510  -30.1120 N   0  0  0  0  0  0  0  0  0  0  0  0
   -4.4910   22.7130  -29.2060 C   0  0  0  0  0  0  0  0  0  0  0  0
   -3.4780   21.7740  -29.9020 C   0  0  0  0  0  0  0  0  0  0  0  0
   -2.1700   22.4540  -30.3460 C   0  0  0  0  0  0  0  0  0  0  0  0
   -1.6520   23.3640  -29.3220 N   0  0  0  0  0  0  0  0  0  0  0  0
   -2.0540   24.6350  -29.0720 C   0  0  0  0  0  0  0  0  0  0  0  0
   -3.0720   25.2970  -29.7460 O   0  0  0  0  0  0  0  0  0  0  0  0
   -1.2260   25.1750  -28.1120 C   0  0  0  0  0  0  0  0  0  0  0  0
   -0.3190   24.2800  -27.7810 N   0  0  0  0  0  0  0  0  0  0  0  0
   -0.5560   23.1960  -28.5410 C   0  0  0  0  0  0  0  0  0  0  0  0
    0.1950   22.1840  -28.5760 O   0  0  0  0  0  0  0  0  0  0  0  0
    0.8500   24.8460  -27.1550 C   0  0  0  0  0  0  0  0  0  0  0  0
    0.4790   26.3440  -27.0010 C   0  0  0  0  0  0  0  0  0  0  0  0
   -0.8760   26.5550  -27.7300 C   0  0  0  0  0  0  0  0  0  0  0  0
   -6.4900   23.9870  -29.8230 C   0  0  0  0  0  0  0  0  0  0  0  0
   -7.3440   22.7470  -30.1340 C   0  0  0  0  0  0  0  0  0  0  0  0
   -3.1393   19.8651  -32.7409 H   0  0  0  0  0  0  0  0  0  0  0  0
   -4.4428   19.0993  -33.7110 H   0  0  0  0  0  0  0  0  0  0  0  0
   -4.2547   20.8857  -33.7110 H   0  0  0  0  0  0  0  0  0  0  0  0
   -6.1924   17.6925  -32.6280 H   0  0  0  0  0  0  0  0  0  0  0  0
   -8.6391   17.2187  -32.6274 H   0  0  0  0  0  0  0  0  0  0  0  0
  -10.2630   19.0140  -32.0312 H   0  0  0  0  0  0  0  0  0  0  0  0
   -9.4459   21.2930  -31.4371 H   0  0  0  0  0  0  0  0  0  0  0  0
   -5.6955   22.1925  -33.0956 H   0  0  0  0  0  0  0  0  0  0  0  0
   -6.6204   23.6945  -32.7116 H   0  0  0  0  0  0  0  0  0  0  0  0
   -3.9972   22.6973  -31.6116 H   0  0  0  0  0  0  0  0  0  0  0  0
   -4.5618   24.3859  -32.0467 H   0  0  0  0  0  0  0  0  0  0  0  0
   -4.5760   24.6590  -29.9070 H   0  0  0  0  0  0  0  0  0  0  0  0
   -3.9822   23.2175  -28.3714 H   0  0  0  0  0  0  0  0  0  0  0  0
   -5.3307   22.0894  -28.8653 H   0  0  0  0  0  0  0  0  0  0  0  0
   -3.2230   20.9654  -29.2012 H   0  0  0  0  0  0  0  0  0  0  0  0
   -3.9676   21.4139  -30.8189 H   0  0  0  0  0  0  0  0  0  0  0  0
   -1.4163   21.6783  -30.5464 H   0  0  0  0  0  0  0  0  0  0  0  0
   -2.3825   23.0438  -31.2499 H   0  0  0  0  0  0  0  0  0  0  0  0
    1.0359   24.3828  -26.1747 H   0  0  0  0  0  0  0  0  0  0  0  0
    1.7703   24.6870  -27.7361 H   0  0  0  0  0  0  0  0  0  0  0  0
    0.3787   26.6005  -25.9360 H   0  0  0  0  0  0  0  0  0  0  0  0
    1.2602   26.9876  -27.4317 H   0  0  0  0  0  0  0  0  0  0  0  0
   -1.6304   26.9887  -27.0571 H   0  0  0  0  0  0  0  0  0  0  0  0
   -0.8236   27.2540  -28.5777 H   0  0  0  0  0  0  0  0  0  0  0  0
   -6.6025   24.2394  -28.7583 H   0  0  0  0  0  0  0  0  0  0  0  0
   -6.8374   24.8118  -30.4626 H   0  0  0  0  0  0  0  0  0  0  0  0
   -7.2576   22.0306  -29.3038 H   0  0  0  0  0  0  0  0  0  0  0  0
   -8.3915   23.0589  -30.2587 H   0  0  0  0  0  0  0  0  0  0  0  0
  1  2  1  0
  2  3  1  0
  3  4  2  0
  4  5  1  0
  5  6  2  0
  6  7  1  0
  7  8  2  0
  8  9  1  0
  9 10  1  0
 10 11  1  0
 11 12  1  0
 12 13  1  0
 13 14  1  0
 14 15  1  0
 15 16  1  0
 16 17  1  0
 17 18  1  0
 17 19  2  0
 19 20  1  0
 20 21  1  0
 21 22  2  0
 20 23  1  0
 23 24  1  0
 24 25  1  0
 12 26  1  0
 26 27  1  0
  8  3  1  0
 27  9  1  0
 21 16  1  0
 25 19  1  0
  1 28  1  0
  1 29  1  0
  1 30  1  0
  4 31  1  0
  5 32  1  0
  6 33  1  0
  7 34  1  0
 10 35  1  0
 10 36  1  0
 11 37  1  0
 11 38  1  0
 12 39  1  0
 13 40  1  0
 13 41  1  0
 14 42  1  0
 14 43  1  0
 15 44  1  0
 15 45  1  0
 23 46  1  0
 23 47  1  0
 24 48  1  0
 24 49  1  0
 25 50  1  0
 25 51  1  0
 26 52  1  0
 26 53  1  0
 27 54  1  0
 27 55  1  0
M  CHG  2  12   1  18  -1
M  END
>  <UniqueID>  (27) 
25

>  <SMILES>  (27) 
COc1ccccc1N1CC[NH+](CCCn2c([O-])c3n(c2=O)CCC3)CC1

>  <Energy>  (27) 
122.83229992776471

>  <Genealogy>  (27) 
COc1ccccc1N1CC[NH+](CCCn2c([O-])c3n(c2=O)CCC3)CC1 (protonated)
COc1ccccc1N1CC[NH+](CCCn2c([O-])c3n(c2=O)CCC3)CC1 (3D coordinates assigned)
COc1ccccc1N1CC[NH+](CCCn2c([O-])c3n(c2=O)CCC3)CC1 (nonaromatic ring conformer: 122.83229992776471 kcal/mol)

>  <smiles>  (27) 
COc1ccccc1N1CCN(CCCn2c(O)c3n(c2=O)CCC3)CC1

>  <score_type>  (27) 
oracle

>  <origin>  (27) 
adg

>  <m_score__min__energy>  (27) 
-9.8499999999999996

>  <m_primary>  (27) 
energy

$$$$
28:0
     RDKit          3D

 23 23  0  0  0  0  0  0  0  0999 V2000
   -3.5610   25.6770  -31.5910 H   0  0  0  0  0  0  0  0  0  0  0  0
   -3.8340   25.3400  -30.6760 O   0  0  0  0  0  0  0  0  0  0  0  0
   -5.0350   25.7290  -30.1300 N   0  0  0  0  0  0  0  0  0  0  0  0
   -6.1550   25.1150  -30.3670 C   0  0  0  0  0  0  0  0  0  0  0  0
   -7.0819   25.5543  -29.9697 H   0  0  0  0  0  0  0  0  0  0  0  0
   -6.2540   23.8600  -31.1400 C   0  0  0  0  0  0  0  0  0  0  0  0
   -7.4160   23.1190  -31.2580 C   0  0  0  0  0  0  0  0  0  0  0  0
   -8.4031   23.3686  -30.8417 H   0  0  0  0  0  0  0  0  0  0  0  0
   -7.0890   22.0030  -32.0030 C   0  0  0  0  0  0  0  0  0  0  0  0
   -8.0310   20.9010  -32.3780 C   0  0  0  0  0  0  0  0  0  0  0  0
   -8.4304   20.4338  -31.4658 H   0  0  0  0  0  0  0  0  0  0  0  0
   -8.8600   21.3135  -32.9718 H   0  0  0  0  0  0  0  0  0  0  0  0
   -7.4946   20.1463  -32.9718 H   0  0  0  0  0  0  0  0  0  0  0  0
   -5.7340   22.0990  -32.2940 C   0  0  0  0  0  0  0  0  0  0  0  0
   -4.9140   21.1290  -33.0420 C   0  0  0  0  0  0  0  0  0  0  0  0
   -5.4330   20.0810  -33.5130 O   0  0  0  0  0  0  0  0  0  0  0  0
   -3.5500   21.3820  -33.2230 O   0  0  0  0  0  0  0  0  0  0  0  0
   -2.6010   21.2610  -32.1710 C   0  0  0  0  0  0  0  0  0  0  0  0
   -3.1174   21.3268  -31.2020 H   0  0  0  0  0  0  0  0  0  0  0  0
   -2.0893   20.2903  -32.2486 H   0  0  0  0  0  0  0  0  0  0  0  0
   -1.8621   22.0722  -32.2486 H   0  0  0  0  0  0  0  0  0  0  0  0
   -5.2330   23.2310  -31.7610 N   0  0  0  0  0  0  0  0  0  0  0  0
   -4.2320   23.5220  -31.7840 H   0  0  0  0  0  0  0  0  0  0  0  0
  1  2  1  0
  2  3  1  0
  3  4  2  0
  4  5  1  0
  4  6  1  0
  6  7  2  0
  7  8  1  0
  7  9  1  0
  9 10  1  0
 10 11  1  0
 10 12  1  0
 10 13  1  0
  9 14  2  0
 14 15  1  0
 15 16  2  0
 15 17  1  0
 17 18  1  0
 18 19  1  0
 18 20  1  0
 18 21  1  0
 14 22  1  0
 22 23  1  0
 22  6  1  0
M  END
>  <UniqueID>  (28) 
26

>  <SMILES>  (28) 
COC(=O)c1[nH]c(/C=N\O)cc1C

>  <Energy>  (28) 
45.17962135823595

>  <Genealogy>  (28) 
COC(=O)c1[nH]c(/C=N\O)cc1C (cis-trans isomerization)
COC(=O)c1[nH]c(/C=N\O)cc1C (3D coordinates assigned)
COC(=O)c1[nH]c(/C=N\O)cc1C (optimized conformer: 45.17962135823595 kcal/mol)

>  <smiles>  (28) 
COC(=O)c1[nH]c(C=NO)cc1C

>  <score_type>  (28) 
oracle

>  <origin>  (28) 
adg

>  <m_score__min__energy>  (28) 
-6.3399999999999999

>  <m_primary>  (28) 
energy

$$$$
29:0
     RDKit          3D

 61 63  0  0  0  0  0  0  0  0999 V2000
    0.2110   20.9840  -35.7780 C   0  0  0  0  0  0  0  0  0  0  0  0
   -0.6640   20.0760  -34.9170 C   0  0  0  0  0  0  0  0  0  0  0  0
   -0.7590   20.5860  -33.5400 N   0  0  0  0  0  0  0  0  0  0  0  0
    0.4490   21.0770  -32.8640 C   0  0  0  0  0  0  0  0  0  0  0  0
    0.6220   20.4070  -31.5060 C   0  0  0  0  0  0  0  0  0  0  0  0
   -2.0330   20.6650  -32.8640 C   0  0  0  0  0  0  0  0  0  0  0  0
   -2.2250   21.5620  -31.9980 O   0  0  0  0  0  0  0  0  0  0  0  0
   -3.1090   19.6850  -33.1270 C   0  0  0  0  0  0  0  0  0  0  0  0
   -2.8360   18.3010  -33.1390 C   0  0  0  0  0  0  0  0  0  0  0  0
   -1.2370   17.6690  -32.7600 Cl  0  0  0  0  0  0  0  0  0  0  0  0
   -3.8570   17.3910  -33.4260 C   0  0  0  0  0  0  0  0  0  0  0  0
   -5.1480   17.8380  -33.7090 C   0  0  0  0  0  0  0  0  0  0  0  0
   -6.5120   16.5380  -34.0710 Br  0  0  0  0  0  0  0  0  0  0  0  0
   -5.4290   19.2140  -33.7220 C   0  0  0  0  0  0  0  0  0  0  0  0
   -6.7380   19.6760  -34.0610 N   0  0  0  0  0  0  0  0  0  0  0  0
   -7.5840   20.2460  -33.0620 C   0  0  0  0  0  0  0  0  0  0  0  0
   -7.5650   21.4020  -32.3020 C   0  0  0  0  0  0  0  0  0  0  0  0
   -6.7000   22.5320  -32.2110 N   0  0  0  0  0  0  0  0  0  0  0  0
   -6.1460   22.9450  -30.9250 C   0  0  0  0  0  0  0  0  0  0  0  0
   -6.4210   24.4280  -30.6460 C   0  0  0  0  0  0  0  0  0  0  0  0
   -5.1610   25.3230  -30.5400 C   0  0  0  0  0  0  0  0  0  0  0  0
   -4.0420   24.7940  -29.7180 N   0  0  0  0  0  0  0  0  0  0  0  0
   -3.1900   23.8180  -30.4370 C   0  0  0  0  0  0  0  0  0  0  0  0
   -2.1900   23.1090  -29.5160 C   0  0  0  0  0  0  0  0  0  0  0  0
   -1.5620   24.2580  -28.2490 S   0  0  0  0  0  0  0  0  0  0  0  0
   -3.1770   24.5120  -27.4140 C   0  0  0  0  0  0  0  0  0  0  0  0
   -4.3950   24.3940  -28.3440 C   0  0  0  0  0  0  0  0  0  0  0  0
   -8.7230   21.0020  -31.6660 C   0  0  0  0  0  0  0  0  0  0  0  0
   -9.4540   21.4840  -30.7610 O   0  0  0  0  0  0  0  0  0  0  0  0
   -8.7440   19.8510  -32.4270 C   0  0  0  0  0  0  0  0  0  0  0  0
   -9.5010   18.8470  -32.5030 O   0  0  0  0  0  0  0  0  0  0  0  0
   -4.4060   20.1390  -33.4350 C   0  0  0  0  0  0  0  0  0  0  0  0
   -4.6550   21.5140  -33.4870 O   0  0  0  0  0  0  0  0  0  0  0  0
    0.8269   21.6231  -35.1283 H   0  0  0  0  0  0  0  0  0  0  0  0
    0.8650   20.3683  -36.4130 H   0  0  0  0  0  0  0  0  0  0  0  0
   -0.4285   21.6147  -36.4130 H   0  0  0  0  0  0  0  0  0  0  0  0
   -1.6726   20.0291  -35.3536 H   0  0  0  0  0  0  0  0  0  0  0  0
   -0.2091   19.0749  -34.8892 H   0  0  0  0  0  0  0  0  0  0  0  0
    1.3267   20.8560  -33.4892 H   0  0  0  0  0  0  0  0  0  0  0  0
    0.3500   22.1618  -32.7109 H   0  0  0  0  0  0  0  0  0  0  0  0
    0.4326   21.1405  -30.7085 H   0  0  0  0  0  0  0  0  0  0  0  0
   -0.0905   19.5739  -31.4147 H   0  0  0  0  0  0  0  0  0  0  0  0
    1.6488   20.0230  -31.4147 H   0  0  0  0  0  0  0  0  0  0  0  0
   -3.6409   16.3125  -33.4288 H   0  0  0  0  0  0  0  0  0  0  0  0
   -7.1600   19.3900  -34.9720 H   0  0  0  0  0  0  0  0  0  0  0  0
   -6.2600   22.8860  -33.0870 H   0  0  0  0  0  0  0  0  0  0  0  0
   -6.6031   22.3403  -30.1279 H   0  0  0  0  0  0  0  0  0  0  0  0
   -5.0567   22.7949  -30.9537 H   0  0  0  0  0  0  0  0  0  0  0  0
   -7.0476   24.8175  -31.4619 H   0  0  0  0  0  0  0  0  0  0  0  0
   -6.9084   24.4684  -29.6607 H   0  0  0  0  0  0  0  0  0  0  0  0
   -4.7798   25.4862  -31.5588 H   0  0  0  0  0  0  0  0  0  0  0  0
   -5.4942   26.2369  -30.0264 H   0  0  0  0  0  0  0  0  0  0  0  0
   -3.8386   23.0603  -30.9009 H   0  0  0  0  0  0  0  0  0  0  0  0
   -2.6106   24.3749  -31.1880 H   0  0  0  0  0  0  0  0  0  0  0  0
   -2.6903   22.2634  -29.0214 H   0  0  0  0  0  0  0  0  0  0  0  0
   -1.3440   22.7492  -30.1200 H   0  0  0  0  0  0  0  0  0  0  0  0
   -3.2762   23.7582  -26.6190 H   0  0  0  0  0  0  0  0  0  0  0  0
   -3.1737   25.5421  -27.0282 H   0  0  0  0  0  0  0  0  0  0  0  0
   -4.7450   23.3512  -28.3501 H   0  0  0  0  0  0  0  0  0  0  0  0
   -5.1881   25.0605  -27.9743 H   0  0  0  0  0  0  0  0  0  0  0  0
   -4.0030   22.2020  -33.1330 H   0  0  0  0  0  0  0  0  0  0  0  0
  1  2  1  0
  2  3  1  0
  3  4  1  0
  4  5  1  0
  3  6  1  0
  6  7  2  0
  6  8  1  0
  8  9  2  0
  9 10  1  0
  9 11  1  0
 11 12  2  0
 12 13  1  0
 12 14  1  0
 14 15  1  0
 15 16  1  0
 16 17  2  0
 17 18  1  0
 18 19  1  0
 19 20  1  0
 20 21  1  0
 21 22  1  0
 22 23  1  0
 23 24  1  0
 24 25  1  0
 25 26  1  0
 26 27  1  0
 17 28  1  0
 28 29  2  0
 28 30  1  0
 30 31  2  0
 14 32  2  0
 32 33  1  0
 32  8  1  0
 30 16  1  0
 27 22  1  0
  1 34  1  0
  1 35  1  0
  1 36  1  0
  2 37  1  0
  2 38  1  0
  4 39  1  0
  4 40  1  0
  5 41  1  0
  5 42  1  0
  5 43  1  0
 11 44  1  0
 15 45  1  0
 18 46  1  0
 19 47  1  0
 19 48  1  0
 20 49  1  0
 20 50  1  0
 21 51  1  0
 21 52  1  0
 23 53  1  0
 23 54  1  0
 24 55  1  0
 24 56  1  0
 26 57  1  0
 26 58  1  0
 27 59  1  0
 27 60  1  0
 33 61  1  0
M  END
>  <UniqueID>  (29) 
27

>  <SMILES>  (29) 
CCN(CC)C(=O)c1c(Cl)cc(Br)c(Nc2c(NCCCN3CCSCC3)c(=O)c2=O)c1O

>  <Energy>  (29) 
71.58613617936123

>  <Genealogy>  (29) 
CCN(CC)C(=O)c1c(Cl)cc(Br)c(Nc2c(NCCCN3CCSCC3)c(=O)c2=O)c1O (3D coordinates assigned)
CCN(CC)C(=O)c1c(Cl)cc(Br)c(Nc2c(NCCCN3CCSCC3)c(=O)c2=O)c1O (nonaromatic ring conformer: 71.58613617936123 kcal/mol)

>  <smiles>  (29) 
CCN(CC)C(=O)c1c(Cl)cc(Br)c(Nc2c(NCCCN3CCSCC3)c(=O)c2=O)c1O

>  <score_type>  (29) 
oracle

>  <origin>  (29) 
adg

>  <m_score__min__energy>  (29) 
-9.4399999999999995

>  <m_primary>  (29) 
energy

$$$$
30:0
     RDKit          3D

 33 34  0  0  0  0  0  0  0  0999 V2000
   -3.8930   24.4910  -27.0180 C   0  0  0  0  0  0  0  0  0  0  0  0
   -2.6210   24.8380  -27.2310 C   0  0  0  0  0  0  0  0  0  0  0  0
   -2.0540   24.9230  -28.6160 C   0  0  0  0  0  0  0  0  0  0  0  0
   -2.6510   23.8920  -29.4580 N   0  0  0  0  0  0  0  0  0  0  0  0
   -3.6260   24.1690  -30.4690 C   0  0  0  0  0  0  0  0  0  0  0  0
   -3.8810   25.3640  -30.7690 O   0  0  0  0  0  0  0  0  0  0  0  0
   -4.3190   23.0840  -31.1760 C   0  0  0  0  0  0  0  0  0  0  0  0
   -3.5840   22.1380  -31.9120 C   0  0  0  0  0  0  0  0  0  0  0  0
   -4.2500   21.0830  -32.5710 C   0  0  0  0  0  0  0  0  0  0  0  0
   -3.4780   20.0610  -33.3420 C   0  0  0  0  0  0  0  0  0  0  0  0
   -5.6070   20.9840  -32.4790 N   0  0  0  0  0  0  0  0  0  0  0  0
   -6.2800   21.8930  -31.7760 N   0  0  0  0  0  0  0  0  0  0  0  0
   -7.6030   21.9850  -31.5700 C   0  0  0  0  0  0  0  0  0  0  0  0
   -8.6160   21.0530  -32.1510 C   0  0  0  0  0  0  0  0  0  0  0  0
   -7.9190   23.0690  -30.8210 N   0  0  0  0  0  0  0  0  0  0  0  0
   -6.7260   23.6550  -30.5450 C   0  0  0  0  0  0  0  0  0  0  0  0
   -6.5960   24.9090  -29.7420 C   0  0  0  0  0  0  0  0  0  0  0  0
   -5.7090   22.9200  -31.1390 C   0  0  0  0  0  0  0  0  0  0  0  0
   -4.2836   24.4364  -25.9912 H   0  0  0  0  0  0  0  0  0  0  0  0
   -4.5500   24.2598  -27.8694 H   0  0  0  0  0  0  0  0  0  0  0  0
   -1.9748   25.0666  -26.3706 H   0  0  0  0  0  0  0  0  0  0  0  0
   -2.2737   25.9137  -29.0405 H   0  0  0  0  0  0  0  0  0  0  0  0
   -0.9653   24.7716  -28.5729 H   0  0  0  0  0  0  0  0  0  0  0  0
   -2.4889   22.2204  -31.9741 H   0  0  0  0  0  0  0  0  0  0  0  0
   -2.9663   19.3836  -32.6426 H   0  0  0  0  0  0  0  0  0  0  0  0
   -4.1665   19.4824  -33.9754 H   0  0  0  0  0  0  0  0  0  0  0  0
   -2.7332   20.5651  -33.9754 H   0  0  0  0  0  0  0  0  0  0  0  0
   -9.1614   20.5512  -31.3381 H   0  0  0  0  0  0  0  0  0  0  0  0
   -9.3243   21.6218  -32.7713 H   0  0  0  0  0  0  0  0  0  0  0  0
   -8.1081   20.2998  -32.7713 H   0  0  0  0  0  0  0  0  0  0  0  0
   -6.6216   24.6624  -28.6703 H   0  0  0  0  0  0  0  0  0  0  0  0
   -5.6420   25.4011  -29.9824 H   0  0  0  0  0  0  0  0  0  0  0  0
   -7.4287   25.5863  -29.9824 H   0  0  0  0  0  0  0  0  0  0  0  0
  1  2  2  0
  2  3  1  0
  3  4  1  0
  4  5  1  0
  5  6  2  0
  5  7  1  0
  7  8  2  0
  8  9  1  0
  9 10  1  0
  9 11  2  0
 11 12  1  0
 12 13  1  0
 13 14  1  0
 13 15  2  0
 15 16  1  0
 16 17  1  0
 16 18  2  0
 18  7  1  0
 18 12  1  0
  1 19  1  0
  1 20  1  0
  2 21  1  0
  3 22  1  0
  3 23  1  0
  8 24  1  0
 10 25  1  0
 10 26  1  0
 10 27  1  0
 14 28  1  0
 14 29  1  0
 14 30  1  0
 17 31  1  0
 17 32  1  0
 17 33  1  0
M  CHG  1   4  -1
M  END
>  <UniqueID>  (30) 
28

>  <SMILES>  (30) 
C=CC[N-]C(=O)c1cc(C)nn2c(C)nc(C)c12

>  <Energy>  (30) 
69.06386046379534

>  <Genealogy>  (30) 
C=CC[N-]C(=O)c1cc(C)nn2c(C)nc(C)c12 (protonated)
C=CC[N-]C(=O)c1cc(C)nn2c(C)nc(C)c12 (3D coordinates assigned)
C=CC[N-]C(=O)c1cc(C)nn2c(C)nc(C)c12 (optimized conformer: 69.06386046379534 kcal/mol)

>  <smiles>  (30) 
C=CCNC(=O)c1cc(C)nn2c(C)nc(C)c12

>  <score_type>  (30) 
oracle

>  <origin>  (30) 
adg

>  <m_score__min__energy>  (30) 
-7.9500000000000002

>  <m_primary>  (30) 
energy

$$$$
31:0
     RDKit          3D

 37 38  0  0  0  0  0  0  0  0999 V2000
   -1.7030   24.2040  -28.9760 C   0  0  0  0  0  0  0  0  0  0  0  0
   -2.6880   23.7970  -30.0600 C   0  0  0  0  0  0  0  0  0  0  0  0
   -3.4840   24.9120  -30.4040 O   0  0  0  0  0  0  0  0  0  0  0  0
   -4.7060   24.9020  -29.6840 C   0  0  0  0  0  0  0  0  0  0  0  0
   -5.8340   25.4910  -30.5650 C   0  0  0  0  0  0  0  0  0  0  0  0
   -7.1940   24.8450  -30.2590 C   0  0  0  0  0  0  0  0  0  0  0  0
   -7.1910   23.3730  -30.4500 N   0  0  0  0  0  0  0  0  0  0  0  0
   -7.9310   22.9170  -31.9670 S   0  0  0  0  0  0  0  0  0  0  0  0
   -9.3740   23.3420  -31.9710 O   0  0  0  0  0  0  0  0  0  0  0  0
   -7.2350   23.6310  -33.0930 O   0  0  0  0  0  0  0  0  0  0  0  0
   -7.8380   21.1740  -32.2380 C   0  0  0  0  0  0  0  0  0  0  0  0
   -6.7330   20.6210  -32.9010 C   0  0  0  0  0  0  0  0  0  0  0  0
   -6.6480   19.2390  -33.0940 C   0  0  0  0  0  0  0  0  0  0  0  0
   -7.6670   18.4030  -32.6300 C   0  0  0  0  0  0  0  0  0  0  0  0
   -7.5830   17.0630  -32.8160 F   0  0  0  0  0  0  0  0  0  0  0  0
   -8.7750   18.9500  -31.9760 C   0  0  0  0  0  0  0  0  0  0  0  0
   -8.8620   20.3320  -31.7820 C   0  0  0  0  0  0  0  0  0  0  0  0
   -5.8640   22.7360  -30.3100 C   0  0  0  0  0  0  0  0  0  0  0  0
   -5.0110   23.4500  -29.2580 C   0  0  0  0  0  0  0  0  0  0  0  0
   -2.1489   24.0198  -27.9875 H   0  0  0  0  0  0  0  0  0  0  0  0
   -0.7807   23.6133  -29.0781 H   0  0  0  0  0  0  0  0  0  0  0  0
   -1.4667   25.2735  -29.0781 H   0  0  0  0  0  0  0  0  0  0  0  0
   -2.1372   23.4501  -30.9467 H   0  0  0  0  0  0  0  0  0  0  0  0
   -3.3298   22.9835  -29.6909 H   0  0  0  0  0  0  0  0  0  0  0  0
   -4.6329   25.5257  -28.7808 H   0  0  0  0  0  0  0  0  0  0  0  0
   -5.9036   26.5727  -30.3780 H   0  0  0  0  0  0  0  0  0  0  0  0
   -5.5877   25.2865  -31.6174 H   0  0  0  0  0  0  0  0  0  0  0  0
   -7.4586   25.0626  -29.2137 H   0  0  0  0  0  0  0  0  0  0  0  0
   -7.9258   25.2675  -30.9633 H   0  0  0  0  0  0  0  0  0  0  0  0
   -5.9306   21.2766  -33.2703 H   0  0  0  0  0  0  0  0  0  0  0  0
   -5.7779   18.8092  -33.6118 H   0  0  0  0  0  0  0  0  0  0  0  0
   -9.5791   18.2926  -31.6137 H   0  0  0  0  0  0  0  0  0  0  0  0
   -9.7365   20.7599  -31.2700 H   0  0  0  0  0  0  0  0  0  0  0  0
   -6.0004   21.6869  -30.0086 H   0  0  0  0  0  0  0  0  0  0  0  0
   -5.3453   22.7992  -31.2780 H   0  0  0  0  0  0  0  0  0  0  0  0
   -5.5551   23.4626  -28.3021 H   0  0  0  0  0  0  0  0  0  0  0  0
   -4.0591   22.9088  -29.1532 H   0  0  0  0  0  0  0  0  0  0  0  0
  1  2  1  0
  2  3  1  0
  3  4  1  0
  4  5  1  0
  5  6  1  0
  6  7  1  0
  7  8  1  0
  8  9  2  0
  8 10  2  0
  8 11  1  0
 11 12  2  0
 12 13  1  0
 13 14  2  0
 14 15  1  0
 14 16  1  0
 16 17  2  0
  7 18  1  0
 18 19  1  0
 19  4  1  0
 17 11  1  0
  1 20  1  0
  1 21  1  0
  1 22  1  0
  2 23  1  0
  2 24  1  0
  4 25  1  0
  5 26  1  0
  5 27  1  0
  6 28  1  0
  6 29  1  0
 12 30  1  0
 13 31  1  0
 16 32  1  0
 17 33  1  0
 18 34  1  0
 18 35  1  0
 19 36  1  0
 19 37  1  0
M  END
>  <UniqueID>  (31) 
29

>  <SMILES>  (31) 
CCOC1CCN(S(=O)(=O)c2ccc(F)cc2)CC1

>  <Energy>  (31) 
40.564157192882774

>  <Genealogy>  (31) 
CCOC1CCN(S(=O)(=O)c2ccc(F)cc2)CC1 (3D coordinates assigned)
CCOC1CCN(S(=O)(=O)c2ccc(F)cc2)CC1 (nonaromatic ring conformer: 40.564157192882774 kcal/mol)

>  <smiles>  (31) 
CCOC1CCN(S(=O)(=O)c2ccc(F)cc2)CC1

>  <score_type>  (31) 
oracle

>  <origin>  (31) 
adg

>  <m_score__min__energy>  (31) 
-7.9900000000000002

>  <m_primary>  (31) 
energy

$$$$
32:0
     RDKit          3D

 23 24  0  0  0  0  0  0  0  0999 V2000
   -4.9600   24.1770  -31.5190 O   0  0  0  0  0  0  0  0  0  0  0  0
   -5.8160   23.2540  -31.5730 C   0  0  0  0  0  0  0  0  0  0  0  0
   -7.1030   23.4140  -30.8240 C   0  0  0  0  0  0  0  0  0  0  0  0
   -8.4650   23.0470  -31.9630 S   0  0  0  0  0  0  0  0  0  0  0  0
   -7.9420   21.3460  -32.1850 C   0  0  0  0  0  0  0  0  0  0  0  0
   -8.8790   20.3620  -32.1290 N   0  0  0  0  0  0  0  0  0  0  0  0
   -8.5640   19.0580  -32.3360 C   0  0  0  0  0  0  0  0  0  0  0  0
   -7.2500   18.6960  -32.6240 C   0  0  0  0  0  0  0  0  0  0  0  0
   -6.2610   19.6800  -32.6700 C   0  0  0  0  0  0  0  0  0  0  0  0
   -6.5880   21.0300  -32.4350 C   0  0  0  0  0  0  0  0  0  0  0  0
   -5.5660   22.0600  -32.3550 N   0  0  0  0  0  0  0  0  0  0  0  0
   -4.2870   21.9240  -33.0730 C   0  0  0  0  0  0  0  0  0  0  0  0
   -3.1460   21.5160  -32.1320 C   0  0  0  0  0  0  0  0  0  0  0  0
   -2.0720   21.0160  -32.8450 F   0  0  0  0  0  0  0  0  0  0  0  0
   -3.5770   20.5510  -31.2400 F   0  0  0  0  0  0  0  0  0  0  0  0
   -2.7280   22.6220  -31.4140 F   0  0  0  0  0  0  0  0  0  0  0  0
   -7.1292   22.7163  -29.9740 H   0  0  0  0  0  0  0  0  0  0  0  0
   -7.1946   24.4397  -30.4374 H   0  0  0  0  0  0  0  0  0  0  0  0
   -9.3464   18.2871  -32.2763 H   0  0  0  0  0  0  0  0  0  0  0  0
   -6.9938   17.6432  -32.8136 H   0  0  0  0  0  0  0  0  0  0  0  0
   -5.2205   19.3998  -32.8910 H   0  0  0  0  0  0  0  0  0  0  0  0
   -4.3966   21.1565  -33.8534 H   0  0  0  0  0  0  0  0  0  0  0  0
   -4.0356   22.9009  -33.5118 H   0  0  0  0  0  0  0  0  0  0  0  0
  1  2  2  0
  2  3  1  0
  3  4  1  0
  4  5  1  0
  5  6  2  0
  6  7  1  0
  7  8  2  0
  8  9  1  0
  9 10  2  0
 10 11  1  0
 11 12  1  0
 12 13  1  0
 13 14  1  0
 13 15  1  0
 13 16  1  0
 11  2  1  0
 10  5  1  0
  3 17  1  0
  3 18  1  0
  7 19  1  0
  8 20  1  0
  9 21  1  0
 12 22  1  0
 12 23  1  0
M  END
>  <UniqueID>  (32) 
30

>  <SMILES>  (32) 
O=C1CSc2ncccc2N1CC(F)(F)F

>  <Energy>  (32) 
29.399666936123413

>  <Genealogy>  (32) 
O=C1CSc2ncccc2N1CC(F)(F)F (3D coordinates assigned)
O=C1CSc2ncccc2N1CC(F)(F)F (nonaromatic ring conformer: 29.399666936123413 kcal/mol)

>  <smiles>  (32) 
O=C1CSc2ncccc2N1CC(F)(F)F

>  <score_type>  (32) 
oracle

>  <origin>  (32) 
adg

>  <m_score__min__energy>  (32) 
-5.6100000000000003

>  <m_primary>  (32) 
energy

$$$$
33:0
     RDKit          3D

 40 42  0  0  0  0  0  0  0  0999 V2000
   -8.7710   18.3410  -31.6800 C   0  0  0  0  0  0  0  0  0  0  0  0
   -9.2220   19.4160  -32.6800 C   0  0  0  0  0  0  0  0  0  0  0  0
   -8.5090   20.7050  -32.5480 N   0  0  0  0  0  0  0  0  0  0  0  0
   -8.9200   21.4900  -31.3640 C   0  0  0  0  0  0  0  0  0  0  0  0
   -7.9440   22.6460  -31.1220 C   0  0  0  0  0  0  0  0  0  0  0  0
   -6.5800   22.1450  -30.8070 N   0  0  0  0  0  0  0  0  0  0  0  0
   -5.5910   23.1530  -31.1370 C   0  0  0  0  0  0  0  0  0  0  0  0
   -5.6700   23.7690  -32.2360 O   0  0  0  0  0  0  0  0  0  0  0  0
   -4.4370   23.4390  -30.2440 C   0  0  0  0  0  0  0  0  0  0  0  0
   -3.8930   22.3990  -29.4800 C   0  0  0  0  0  0  0  0  0  0  0  0
   -2.8140   22.6510  -28.6280 C   0  0  0  0  0  0  0  0  0  0  0  0
   -2.2510   21.6400  -27.8360 C   0  0  0  0  0  0  0  0  0  0  0  0
   -1.1750   21.9330  -26.9930 C   0  0  0  0  0  0  0  0  0  0  0  0
   -0.6560   23.2310  -26.9390 C   0  0  0  0  0  0  0  0  0  0  0  0
   -1.2140   24.2430  -27.7280 C   0  0  0  0  0  0  0  0  0  0  0  0
   -2.2910   23.9590  -28.5750 C   0  0  0  0  0  0  0  0  0  0  0  0
   -2.8160   24.9200  -29.3270 O   0  0  0  0  0  0  0  0  0  0  0  0
   -3.8420   24.7160  -30.1480 C   0  0  0  0  0  0  0  0  0  0  0  0
   -4.2550   25.6740  -30.8530 O   0  0  0  0  0  0  0  0  0  0  0  0
   -6.2500   20.8520  -31.4690 C   0  0  0  0  0  0  0  0  0  0  0  0
   -7.0450   20.6300  -32.7690 C   0  0  0  0  0  0  0  0  0  0  0  0
   -8.9246   18.7070  -30.6541 H   0  0  0  0  0  0  0  0  0  0  0  0
   -9.3609   17.4256  -31.8349 H   0  0  0  0  0  0  0  0  0  0  0  0
   -7.7045   18.1205  -31.8349 H   0  0  0  0  0  0  0  0  0  0  0  0
   -9.0553   19.0323  -33.6973 H   0  0  0  0  0  0  0  0  0  0  0  0
  -10.2824   19.6186  -32.4690 H   0  0  0  0  0  0  0  0  0  0  0  0
   -9.9284   21.8965  -31.5313 H   0  0  0  0  0  0  0  0  0  0  0  0
   -8.9180   20.8320  -30.4825 H   0  0  0  0  0  0  0  0  0  0  0  0
   -7.8964   23.2700  -32.0266 H   0  0  0  0  0  0  0  0  0  0  0  0
   -8.3054   23.2314  -30.2637 H   0  0  0  0  0  0  0  0  0  0  0  0
   -6.5430   21.9620  -29.7780 H   0  0  0  0  0  0  0  0  0  0  0  0
   -4.3142   21.3853  -29.5503 H   0  0  0  0  0  0  0  0  0  0  0  0
   -2.6554   20.6179  -27.8780 H   0  0  0  0  0  0  0  0  0  0  0  0
   -0.7350   21.1403  -26.3701 H   0  0  0  0  0  0  0  0  0  0  0  0
    0.1919   23.4564  -26.2754 H   0  0  0  0  0  0  0  0  0  0  0  0
   -0.8054   25.2633  -27.6823 H   0  0  0  0  0  0  0  0  0  0  0  0
   -5.1762   20.8426  -31.7073 H   0  0  0  0  0  0  0  0  0  0  0  0
   -6.5193   20.0441  -30.7728 H   0  0  0  0  0  0  0  0  0  0  0  0
   -6.7564   21.4021  -33.4973 H   0  0  0  0  0  0  0  0  0  0  0  0
   -6.8102   19.6219  -33.1413 H   0  0  0  0  0  0  0  0  0  0  0  0
  1  2  1  0
  2  3  1  0
  3  4  1  0
  4  5  1  0
  5  6  1  0
  6  7  1  0
  7  8  2  0
  7  9  1  0
  9 10  2  0
 10 11  1  0
 11 12  2  0
 12 13  1  0
 13 14  2  0
 14 15  1  0
 15 16  2  0
 16 17  1  0
 17 18  1  0
 18 19  2  0
  6 20  1  0
 20 21  1  0
 21  3  1  0
 18  9  1  0
 16 11  1  0
  1 22  1  0
  1 23  1  0
  1 24  1  0
  2 25  1  0
  2 26  1  0
  4 27  1  0
  4 28  1  0
  5 29  1  0
  5 30  1  0
  6 31  1  0
 10 32  1  0
 12 33  1  0
 13 34  1  0
 14 35  1  0
 15 36  1  0
 20 37  1  0
 20 38  1  0
 21 39  1  0
 21 40  1  0
M  CHG  1   6   1
M  END
>  <UniqueID>  (33) 
31

>  <SMILES>  (33) 
CCN1CC[NH+](C(=O)c2cc3ccccc3oc2=O)CC1

>  <Energy>  (33) 
66.23083249137386

>  <Genealogy>  (33) 
CCN1CC[NH+](C(=O)c2cc3ccccc3oc2=O)CC1 (protonated)
CCN1CC[NH+](C(=O)c2cc3ccccc3oc2=O)CC1 (3D coordinates assigned)
CCN1CC[NH+](C(=O)c2cc3ccccc3oc2=O)CC1 (nonaromatic ring conformer: 66.23083249137386 kcal/mol)

>  <smiles>  (33) 
CCN1CCN(C(=O)c2cc3ccccc3oc2=O)CC1

>  <score_type>  (33) 
oracle

>  <origin>  (33) 
adg

>  <m_score__min__energy>  (33) 
-7.4199999999999999

>  <m_primary>  (33) 
energy

$$$$
34:0
     RDKit          3D

 38 40  0  0  0  0  0  0  0  0999 V2000
   -2.8490   21.5110  -32.0440 C   0  0  0  0  0  0  0  0  0  0  0  0
   -4.3170   21.5880  -31.7230 C   0  0  0  0  0  0  0  0  0  0  0  0
   -5.2370   20.9520  -32.5710 C   0  0  0  0  0  0  0  0  0  0  0  0
   -6.6110   20.9810  -32.2930 C   0  0  0  0  0  0  0  0  0  0  0  0
   -7.0800   21.6970  -31.1740 C   0  0  0  0  0  0  0  0  0  0  0  0
   -6.1640   22.3390  -30.3300 C   0  0  0  0  0  0  0  0  0  0  0  0
   -4.7890   22.3080  -30.6050 C   0  0  0  0  0  0  0  0  0  0  0  0
   -3.8820   23.0010  -29.7340 N   0  0  0  0  0  0  0  0  0  0  0  0
   -3.4020   22.4850  -28.4650 C   0  0  0  0  0  0  0  0  0  0  0  0
   -2.4560   23.5650  -27.9040 C   0  0  0  0  0  0  0  0  0  0  0  0
   -2.6400   24.8240  -28.7670 C   0  0  0  0  0  0  0  0  0  0  0  0
   -3.4890   24.3510  -29.8780 C   0  0  0  0  0  0  0  0  0  0  0  0
   -3.8640   25.0840  -30.8320 O   0  0  0  0  0  0  0  0  0  0  0  0
   -8.5420   21.7130  -30.8150 C   0  0  0  0  0  0  0  0  0  0  0  0
   -9.4350   21.2450  -31.9740 C   0  0  0  0  0  0  0  0  0  0  0  0
   -8.8950   20.0540  -32.6570 N   0  0  0  0  0  0  0  0  0  0  0  0
   -8.8690   18.8640  -31.7880 C   0  0  0  0  0  0  0  0  0  0  0  0
   -7.5750   20.3290  -33.2570 C   0  0  0  0  0  0  0  0  0  0  0  0
   -2.2703   21.4806  -31.1090 H   0  0  0  0  0  0  0  0  0  0  0  0
   -2.6488   20.6011  -32.6288 H   0  0  0  0  0  0  0  0  0  0  0  0
   -2.5547   22.3949  -32.6288 H   0  0  0  0  0  0  0  0  0  0  0  0
   -4.8753   20.4238  -33.4655 H   0  0  0  0  0  0  0  0  0  0  0  0
   -6.5279   22.8741  -29.4405 H   0  0  0  0  0  0  0  0  0  0  0  0
   -4.2434   22.3176  -27.7765 H   0  0  0  0  0  0  0  0  0  0  0  0
   -2.8878   21.5205  -28.5883 H   0  0  0  0  0  0  0  0  0  0  0  0
   -2.7135   23.7847  -26.8574 H   0  0  0  0  0  0  0  0  0  0  0  0
   -1.4113   23.2217  -27.9323 H   0  0  0  0  0  0  0  0  0  0  0  0
   -3.1417   25.6214  -28.1992 H   0  0  0  0  0  0  0  0  0  0  0  0
   -1.6875   25.2570  -29.1064 H   0  0  0  0  0  0  0  0  0  0  0  0
   -8.7018   21.0465  -29.9546 H   0  0  0  0  0  0  0  0  0  0  0  0
   -8.8176   22.7511  -30.5775 H   0  0  0  0  0  0  0  0  0  0  0  0
  -10.4313   21.0022  -31.5760 H   0  0  0  0  0  0  0  0  0  0  0  0
   -9.4819   22.0606  -32.7106 H   0  0  0  0  0  0  0  0  0  0  0  0
   -8.8759   19.1793  -30.7342 H   0  0  0  0  0  0  0  0  0  0  0  0
   -9.7538   18.2426  -31.9906 H   0  0  0  0  0  0  0  0  0  0  0  0
   -7.9579   18.2819  -31.9906 H   0  0  0  0  0  0  0  0  0  0  0  0
   -7.1401   19.3778  -33.5977 H   0  0  0  0  0  0  0  0  0  0  0  0
   -7.7323   21.0308  -34.0893 H   0  0  0  0  0  0  0  0  0  0  0  0
  1  2  1  0
  2  3  2  0
  3  4  1  0
  4  5  2  0
  5  6  1  0
  6  7  2  0
  7  8  1  0
  8  9  1  0
  9 10  1  0
 10 11  1  0
 11 12  1  0
 12 13  2  0
  5 14  1  0
 14 15  1  0
 15 16  1  0
 16 17  1  0
 16 18  1  0
  7  2  1  0
 12  8  1  0
 18  4  1  0
  1 19  1  0
  1 20  1  0
  1 21  1  0
  3 22  1  0
  6 23  1  0
  9 24  1  0
  9 25  1  0
 10 26  1  0
 10 27  1  0
 11 28  1  0
 11 29  1  0
 14 30  1  0
 14 31  1  0
 15 32  1  0
 15 33  1  0
 17 34  1  0
 17 35  1  0
 17 36  1  0
 18 37  1  0
 18 38  1  0
M  END
>  <UniqueID>  (34) 
32

>  <SMILES>  (34) 
Cc1cc2c(cc1N1CCCC1=O)CCN(C)C2

>  <Energy>  (34) 
55.59265039593469

>  <Genealogy>  (34) 
Cc1cc2c(cc1N1CCCC1=O)CCN(C)C2 (3D coordinates assigned)
Cc1cc2c(cc1N1CCCC1=O)CCN(C)C2 (nonaromatic ring conformer: 55.59265039593469 kcal/mol)

>  <smiles>  (34) 
Cc1cc2c(cc1N1CCCC1=O)CCN(C)C2

>  <score_type>  (34) 
oracle

>  <origin>  (34) 
adg

>  <m_score__min__energy>  (34) 
-7.3399999999999999

>  <m_primary>  (34) 
energy

$$$$
35:0
     RDKit          3D

 37 39  0  0  0  0  0  0  0  0999 V2000
   -2.3330   24.8140  -28.7390 C   0  0  0  0  0  0  0  0  0  0  0  0
   -3.2410   25.2960  -29.7240 O   0  0  0  0  0  0  0  0  0  0  0  0
   -4.4270   24.6520  -30.1100 C   0  0  0  0  0  0  0  0  0  0  0  0
   -5.6910   25.1590  -29.7090 C   0  0  0  0  0  0  0  0  0  0  0  0
   -6.8770   24.5230  -30.0910 C   0  0  0  0  0  0  0  0  0  0  0  0
   -6.8010   23.3750  -30.8740 C   0  0  0  0  0  0  0  0  0  0  0  0
   -5.5820   22.8680  -31.2720 C   0  0  0  0  0  0  0  0  0  0  0  0
   -4.3680   23.4750  -30.9130 C   0  0  0  0  0  0  0  0  0  0  0  0
   -3.1720   22.8910  -31.3630 O   0  0  0  0  0  0  0  0  0  0  0  0
   -2.4130   21.8900  -30.6930 C   0  0  0  0  0  0  0  0  0  0  0  0
   -5.8680   21.6820  -32.0680 C   0  0  0  0  0  0  0  0  0  0  0  0
   -4.9690   20.8150  -32.6970 C   0  0  0  0  0  0  0  0  0  0  0  0
   -5.4850   19.7300  -33.4120 C   0  0  0  0  0  0  0  0  0  0  0  0
   -6.8690   19.5300  -33.4880 C   0  0  0  0  0  0  0  0  0  0  0  0
   -7.7340   20.4230  -32.8420 C   0  0  0  0  0  0  0  0  0  0  0  0
   -8.9800   20.2460  -32.9080 O   0  0  0  0  0  0  0  0  0  0  0  0
   -7.2070   21.4780  -32.1480 N   0  0  0  0  0  0  0  0  0  0  0  0
   -7.9330   22.5260  -31.4030 C   0  0  0  0  0  0  0  0  0  0  0  0
   -8.7350   21.9200  -30.2390 C   0  0  0  0  0  0  0  0  0  0  0  0
   -8.8270   23.3510  -32.3430 C   0  0  0  0  0  0  0  0  0  0  0  0
   -2.7329   25.0263  -27.7365 H   0  0  0  0  0  0  0  0  0  0  0  0
   -2.2034   23.7284  -28.8597 H   0  0  0  0  0  0  0  0  0  0  0  0
   -1.3612   25.3150  -28.8597 H   0  0  0  0  0  0  0  0  0  0  0  0
   -5.7385   26.0659  -29.0883 H   0  0  0  0  0  0  0  0  0  0  0  0
   -7.8526   24.9233  -29.7780 H   0  0  0  0  0  0  0  0  0  0  0  0
   -2.5124   22.0211  -29.6054 H   0  0  0  0  0  0  0  0  0  0  0  0
   -2.7858   20.8951  -30.9780 H   0  0  0  0  0  0  0  0  0  0  0  0
   -1.3544   21.9804  -30.9780 H   0  0  0  0  0  0  0  0  0  0  0  0
   -3.8838   20.9824  -32.6309 H   0  0  0  0  0  0  0  0  0  0  0  0
   -4.8016   19.0311  -33.9165 H   0  0  0  0  0  0  0  0  0  0  0  0
   -7.2746   18.6768  -34.0516 H   0  0  0  0  0  0  0  0  0  0  0  0
   -8.3000   22.2487  -29.2837 H   0  0  0  0  0  0  0  0  0  0  0  0
   -9.7808   22.2555  -30.3004 H   0  0  0  0  0  0  0  0  0  0  0  0
   -8.6979   20.8223  -30.3004 H   0  0  0  0  0  0  0  0  0  0  0  0
   -9.5062   23.9778  -31.7465 H   0  0  0  0  0  0  0  0  0  0  0  0
   -8.1981   23.9928  -32.9775 H   0  0  0  0  0  0  0  0  0  0  0  0
   -9.4163   22.6727  -32.9775 H   0  0  0  0  0  0  0  0  0  0  0  0
  1  2  1  0
  2  3  1  0
  3  4  2  0
  4  5  1  0
  5  6  2  0
  6  7  1  0
  7  8  2  0
  8  9  1  0
  9 10  1  0
  7 11  1  0
 11 12  2  0
 12 13  1  0
 13 14  2  0
 14 15  1  0
 15 16  2  0
 15 17  1  0
 17 18  1  0
 18 19  1  0
 18 20  1  0
  8  3  1  0
 17 11  1  0
 18  6  1  0
  1 21  1  0
  1 22  1  0
  1 23  1  0
  4 24  1  0
  5 25  1  0
 10 26  1  0
 10 27  1  0
 10 28  1  0
 12 29  1  0
 13 30  1  0
 14 31  1  0
 19 32  1  0
 19 33  1  0
 19 34  1  0
 20 35  1  0
 20 36  1  0
 20 37  1  0
M  END
>  <UniqueID>  (35) 
33

>  <SMILES>  (35) 
COc1ccc2c(c1OC)-c1cccc(=O)n1C2(C)C

>  <Energy>  (35) 
63.478618481405796

>  <Genealogy>  (35) 
COc1ccc2c(c1OC)-c1cccc(=O)n1C2(C)C (3D coordinates assigned)
COc1ccc2c(c1OC)-c1cccc(=O)n1C2(C)C (nonaromatic ring conformer: 63.478618481405796 kcal/mol)

>  <smiles>  (35) 
COc1ccc2c(c1OC)-c1cccc(=O)n1C2(C)C

>  <score_type>  (35) 
oracle

>  <origin>  (35) 
adg

>  <m_score__min__energy>  (35) 
-8.0800000000000001

>  <m_primary>  (35) 
energy

$$$$
36:0
     RDKit          3D

 30 31  0  0  0  0  0  0  0  0999 V2000
   -4.2230   25.3550  -31.5900 H   0  0  0  0  0  0  0  0  0  0  0  0
   -3.9570   25.2980  -30.5830 N   0  0  0  0  0  0  0  0  0  0  0  0
   -3.9340   24.1810  -29.9230 C   0  0  0  0  0  0  0  0  0  0  0  0
   -3.1050   24.0470  -28.7010 C   0  0  0  0  0  0  0  0  0  0  0  0
   -2.1320   23.0380  -28.6180 C   0  0  0  0  0  0  0  0  0  0  0  0
   -1.9838   22.3422  -29.4569 H   0  0  0  0  0  0  0  0  0  0  0  0
   -1.3540   22.9230  -27.4650 C   0  0  0  0  0  0  0  0  0  0  0  0
   -0.5887   22.1362  -27.3926 H   0  0  0  0  0  0  0  0  0  0  0  0
   -1.5490   23.8070  -26.4060 C   0  0  0  0  0  0  0  0  0  0  0  0
   -0.9400   23.7245  -25.4937 H   0  0  0  0  0  0  0  0  0  0  0  0
   -2.5250   24.7980  -26.5150 C   0  0  0  0  0  0  0  0  0  0  0  0
   -2.6875   25.5001  -25.6840 H   0  0  0  0  0  0  0  0  0  0  0  0
   -3.2770   24.9000  -27.6450 N   0  0  0  0  0  0  0  0  0  0  0  0
   -4.0140   25.6400  -27.6790 H   0  0  0  0  0  0  0  0  0  0  0  0
   -4.7070   23.0650  -30.3900 N   0  0  0  0  0  0  0  0  0  0  0  0
   -4.7990   22.2110  -29.7970 H   0  0  0  0  0  0  0  0  0  0  0  0
   -5.4990   23.0730  -31.9310 S   0  0  0  0  0  0  0  0  0  0  0  0
   -4.5060   22.6880  -32.9920 O   0  0  0  0  0  0  0  0  0  0  0  0
   -6.0170   24.4540  -32.2190 O   0  0  0  0  0  0  0  0  0  0  0  0
   -6.8510   21.9470  -31.9130 C   0  0  0  0  0  0  0  0  0  0  0  0
   -6.7320   20.6830  -32.5090 C   0  0  0  0  0  0  0  0  0  0  0  0
   -5.7884   20.3916  -32.9934 H   0  0  0  0  0  0  0  0  0  0  0  0
   -7.8100   19.7920  -32.4890 C   0  0  0  0  0  0  0  0  0  0  0  0
   -7.7119   18.8004  -32.9549 H   0  0  0  0  0  0  0  0  0  0  0  0
   -9.0110   20.1600  -31.8780 C   0  0  0  0  0  0  0  0  0  0  0  0
   -9.8578   19.4581  -31.8624 H   0  0  0  0  0  0  0  0  0  0  0  0
   -9.1370   21.4210  -31.2860 C   0  0  0  0  0  0  0  0  0  0  0  0
  -10.0831   21.7104  -30.8052 H   0  0  0  0  0  0  0  0  0  0  0  0
   -8.0610   22.3140  -31.3050 C   0  0  0  0  0  0  0  0  0  0  0  0
   -8.1635   23.3066  -30.8421 H   0  0  0  0  0  0  0  0  0  0  0  0
  1  2  1  0
  2  3  2  0
  3  4  1  0
  4  5  2  0
  5  6  1  0
  5  7  1  0
  7  8  1  0
  7  9  2  0
  9 10  1  0
  9 11  1  0
 11 12  1  0
 11 13  2  0
 13 14  1  0
  3 15  1  0
 15 16  1  0
 15 17  1  0
 17 18  2  0
 17 19  2  0
 17 20  1  0
 20 21  2  0
 21 22  1  0
 21 23  1  0
 23 24  1  0
 23 25  2  0
 25 26  1  0
 25 27  1  0
 27 28  1  0
 27 29  2  0
 29 30  1  0
 13  4  1  0
 29 20  1  0
M  CHG  1  13   1
M  END
>  <UniqueID>  (36) 
34

>  <SMILES>  (36) 
[H]/N=C(/NS(=O)(=O)c1ccccc1)c1cccc[nH+]1

>  <Energy>  (36) 
35.41172680967258

>  <Genealogy>  (36) 
N=C(NS(=O)(=O)c1ccccc1)c1cccc[nH+]1 (protonated)
[H]/N=C(/NS(=O)(=O)c1ccccc1)c1cccc[nH+]1 (cis-trans isomerization)
[H]/N=C(/NS(=O)(=O)c1ccccc1)c1cccc[nH+]1 (3D coordinates assigned)
[H]/N=C(/NS(=O)(=O)c1ccccc1)c1cccc[nH+]1 (optimized conformer: 35.41172680967258 kcal/mol)

>  <smiles>  (36) 
N=C(NS(=O)(=O)c1ccccc1)c1ccccn1

>  <score_type>  (36) 
oracle

>  <origin>  (36) 
adg

>  <m_score__min__energy>  (36) 
-6.6399999999999997

>  <m_primary>  (36) 
energy

$$$$
37:0
     RDKit          3D

 65 68  0  0  0  0  0  0  0  0999 V2000
   -8.6380   19.6730  -31.6630 C   0  0  0  0  0  0  0  0  0  0  0  0
   -7.9170   21.0040  -31.4200 C   0  0  0  0  0  0  0  0  0  0  0  0
   -8.7320   22.1860  -31.9590 C   0  0  0  0  0  0  0  0  0  0  0  0
   -6.4600   21.0030  -31.9410 C   0  0  0  0  0  0  0  0  0  0  0  0
   -5.5920   21.9970  -31.2710 N   0  0  0  0  0  0  0  0  0  0  0  0
   -6.1200   22.9870  -30.3600 C   0  0  0  0  0  0  0  0  0  0  0  0
   -6.7120   22.6140  -29.3090 O   0  0  0  0  0  0  0  0  0  0  0  0
   -6.0350   24.4590  -30.6440 C   0  0  0  0  0  0  0  0  0  0  0  0
   -4.2870   24.9510  -30.8280 S   0  0  0  0  0  0  0  0  0  0  0  0
   -3.8600   24.6720  -29.1070 C   0  0  0  0  0  0  0  0  0  0  0  0
   -4.7760   24.4450  -28.1480 N   0  0  0  0  0  0  0  0  0  0  0  0
   -4.1120   24.2770  -27.0140 N   0  0  0  0  0  0  0  0  0  0  0  0
   -2.8000   24.4020  -27.2980 C   0  0  0  0  0  0  0  0  0  0  0  0
   -1.7390   24.2590  -26.2770 C   0  0  0  0  0  0  0  0  0  0  0  0
   -1.0030   23.0650  -26.1670 C   0  0  0  0  0  0  0  0  0  0  0  0
   -0.0260   22.9260  -25.1740 C   0  0  0  0  0  0  0  0  0  0  0  0
    0.2190   23.9720  -24.2810 C   0  0  0  0  0  0  0  0  0  0  0  0
   -0.5180   25.1540  -24.3710 C   0  0  0  0  0  0  0  0  0  0  0  0
   -1.4980   25.2990  -25.3590 C   0  0  0  0  0  0  0  0  0  0  0  0
   -2.2030   26.4600  -25.4270 F   0  0  0  0  0  0  0  0  0  0  0  0
   -2.6080   24.6690  -28.6110 N   0  0  0  0  0  0  0  0  0  0  0  0
   -1.3590   24.8960  -29.3390 C   0  0  0  0  0  0  0  0  0  0  0  0
   -4.1600   21.8640  -31.3630 C   0  0  0  0  0  0  0  0  0  0  0  0
   -3.3570   21.8320  -30.2020 C   0  0  0  0  0  0  0  0  0  0  0  0
   -3.9870   22.0070  -28.9200 N   0  0  0  0  0  0  0  0  0  0  0  0
   -1.9890   21.6760  -30.3140 N   0  0  0  0  0  0  0  0  0  0  0  0
   -1.1150   21.7220  -29.1190 C   0  0  0  0  0  0  0  0  0  0  0  0
   -1.2810   20.4720  -28.2890 C   0  0  0  0  0  0  0  0  0  0  0  0
   -2.3280   20.3590  -27.3550 C   0  0  0  0  0  0  0  0  0  0  0  0
   -2.4540   19.2050  -26.5750 C   0  0  0  0  0  0  0  0  0  0  0  0
   -1.5430   18.1540  -26.7230 C   0  0  0  0  0  0  0  0  0  0  0  0
   -0.5110   18.2520  -27.6600 C   0  0  0  0  0  0  0  0  0  0  0  0
   -0.3800   19.4040  -28.4410 C   0  0  0  0  0  0  0  0  0  0  0  0
   -1.4220   21.5630  -31.5620 C   0  0  0  0  0  0  0  0  0  0  0  0
   -0.1790   21.4050  -31.6980 O   0  0  0  0  0  0  0  0  0  0  0  0
   -2.1910   21.6320  -32.6750 N   0  0  0  0  0  0  0  0  0  0  0  0
   -3.5300   21.7910  -32.6090 C   0  0  0  0  0  0  0  0  0  0  0  0
   -4.1980   21.8630  -33.6740 O   0  0  0  0  0  0  0  0  0  0  0  0
   -8.8887   19.2101  -30.6971 H   0  0  0  0  0  0  0  0  0  0  0  0
   -9.5610   19.8547  -32.2331 H   0  0  0  0  0  0  0  0  0  0  0  0
   -7.9816   18.9991  -32.2331 H   0  0  0  0  0  0  0  0  0  0  0  0
   -7.8396   21.1302  -30.3300 H   0  0  0  0  0  0  0  0  0  0  0  0
   -9.1338   22.7687  -31.1169 H   0  0  0  0  0  0  0  0  0  0  0  0
   -8.0840   22.8284  -32.5733 H   0  0  0  0  0  0  0  0  0  0  0  0
   -9.5628   21.8087  -32.5733 H   0  0  0  0  0  0  0  0  0  0  0  0
   -6.0330   20.0024  -31.7785 H   0  0  0  0  0  0  0  0  0  0  0  0
   -6.4976   21.2729  -33.0067 H   0  0  0  0  0  0  0  0  0  0  0  0
   -6.5778   24.6838  -31.5740 H   0  0  0  0  0  0  0  0  0  0  0  0
   -6.4843   25.0172  -29.8094 H   0  0  0  0  0  0  0  0  0  0  0  0
   -1.1962   22.2367  -26.8646 H   0  0  0  0  0  0  0  0  0  0  0  0
    0.5496   21.9918  -25.0968 H   0  0  0  0  0  0  0  0  0  0  0  0
    0.9929   23.8641  -23.5067 H   0  0  0  0  0  0  0  0  0  0  0  0
   -0.3277   25.9740  -23.6629 H   0  0  0  0  0  0  0  0  0  0  0  0
   -0.5384   25.0451  -28.6218 H   0  0  0  0  0  0  0  0  0  0  0  0
   -1.1393   24.0231  -29.9712 H   0  0  0  0  0  0  0  0  0  0  0  0
   -1.4605   25.7904  -29.9712 H   0  0  0  0  0  0  0  0  0  0  0  0
   -3.5450   22.5920  -28.1760 H   0  0  0  0  0  0  0  0  0  0  0  0
   -4.9370   21.6380  -28.7050 H   0  0  0  0  0  0  0  0  0  0  0  0
   -0.0665   21.8050  -29.4413 H   0  0  0  0  0  0  0  0  0  0  0  0
   -1.3962   22.5925  -28.5081 H   0  0  0  0  0  0  0  0  0  0  0  0
   -3.0495   21.1811  -27.2382 H   0  0  0  0  0  0  0  0  0  0  0  0
   -3.2714   19.1237  -25.8434 H   0  0  0  0  0  0  0  0  0  0  0  0
   -1.6389   17.2510  -26.1022 H   0  0  0  0  0  0  0  0  0  0  0  0
    0.1995   17.4213  -27.7833 H   0  0  0  0  0  0  0  0  0  0  0  0
    0.4329   19.4750  -29.1787 H   0  0  0  0  0  0  0  0  0  0  0  0
  1  2  1  0
  2  3  1  0
  2  4  1  0
  4  5  1  0
  5  6  1  0
  6  7  2  0
  6  8  1  0
  8  9  1  0
  9 10  1  0
 10 11  2  0
 11 12  1  0
 12 13  2  0
 13 14  1  0
 14 15  2  0
 15 16  1  0
 16 17  2  0
 17 18  1  0
 18 19  2  0
 19 20  1  0
 13 21  1  0
 21 22  1  0
  5 23  1  0
 23 24  2  0
 24 25  1  0
 24 26  1  0
 26 27  1  0
 27 28  1  0
 28 29  2  0
 29 30  1  0
 30 31  2  0
 31 32  1  0
 32 33  2  0
 26 34  1  0
 34 35  2  0
 34 36  1  0
 36 37  1  0
 37 38  2  0
 21 10  1  0
 37 23  1  0
 19 14  1  0
 33 28  1  0
  1 39  1  0
  1 40  1  0
  1 41  1  0
  2 42  1  0
  3 43  1  0
  3 44  1  0
  3 45  1  0
  4 46  1  0
  4 47  1  0
  8 48  1  0
  8 49  1  0
 15 50  1  0
 16 51  1  0
 17 52  1  0
 18 53  1  0
 22 54  1  0
 22 55  1  0
 22 56  1  0
 25 57  1  0
 25 58  1  0
 27 59  1  0
 27 60  1  0
 29 61  1  0
 30 62  1  0
 31 63  1  0
 32 64  1  0
 33 65  1  0
M  CHG  1  36  -1
M  END
>  <UniqueID>  (37) 
35

>  <SMILES>  (37) 
CC(C)CN(C(=O)CSc1nnc(-c2ccccc2F)n1C)c1c(N)n(Cc2ccccc2)c(=O)[n-]c1=O

>  <Energy>  (37) 
118.2414303981623

>  <Genealogy>  (37) 
CC(C)CN(C(=O)CSc1nnc(-c2ccccc2F)n1C)c1c(N)n(Cc2ccccc2)c(=O)[n-]c1=O (protonated)
CC(C)CN(C(=O)CSc1nnc(-c2ccccc2F)n1C)c1c(N)n(Cc2ccccc2)c(=O)[n-]c1=O (3D coordinates assigned)
CC(C)CN(C(=O)CSc1nnc(-c2ccccc2F)n1C)c1c(N)n(Cc2ccccc2)c(=O)[n-]c1=O (optimized conformer: 118.2414303981623 kcal/mol)

>  <smiles>  (37) 
CC(C)CN(C(=O)CSc1nnc(-c2ccccc2F)n1C)c1c(N)n(Cc2ccccc2)c(=O)[nH]c1=O

>  <score_type>  (37) 
oracle

>  <origin>  (37) 
adg

>  <m_score__min__energy>  (37) 
-11.130000000000001

>  <m_primary>  (37) 
energy

$$$$
38:0
     RDKit          3D

 44 45  0  0  0  0  0  0  0  0999 V2000
   -2.3620   25.2310  -29.3350 O   0  0  0  0  0  0  0  0  0  0  0  0
   -3.4620   24.8950  -29.8480 C   0  0  0  0  0  0  0  0  0  0  0  0
   -3.9990   25.6540  -30.8810 O   0  0  0  0  0  0  0  0  0  0  0  0
   -4.2070   23.7050  -29.3260 C   0  0  0  0  0  0  0  0  0  0  0  0
   -5.7200   23.8450  -29.5400 C   0  0  0  0  0  0  0  0  0  0  0  0
   -6.2670   22.7920  -30.5180 C   0  0  0  0  0  0  0  0  0  0  0  0
   -6.8150   23.4170  -31.8090 C   0  0  0  0  0  0  0  0  0  0  0  0
   -8.3360   23.2350  -31.9550 C   0  0  0  0  0  0  0  0  0  0  0  0
   -8.8820   22.0420  -31.1480 C   0  0  0  0  0  0  0  0  0  0  0  0
   -9.2450   20.8210  -32.0100 C   0  0  0  0  0  0  0  0  0  0  0  0
   -8.0690   19.9270  -32.2630 C   0  0  0  0  0  0  0  0  0  0  0  0
   -7.0010   20.1880  -33.0930 C   0  0  0  0  0  0  0  0  0  0  0  0
   -6.2150   19.1010  -33.0340 N   0  0  0  0  0  0  0  0  0  0  0  0
   -4.9900   18.8680  -33.7920 C   0  0  0  0  0  0  0  0  0  0  0  0
   -3.9130   19.8040  -33.3200 C   0  0  0  0  0  0  0  0  0  0  0  0
   -4.1510   20.6730  -32.2440 C   0  0  0  0  0  0  0  0  0  0  0  0
   -3.1340   21.5130  -31.7790 C   0  0  0  0  0  0  0  0  0  0  0  0
   -1.8710   21.4830  -32.3780 C   0  0  0  0  0  0  0  0  0  0  0  0
   -1.6230   20.6080  -33.4400 C   0  0  0  0  0  0  0  0  0  0  0  0
   -2.6370   19.7670  -33.9070 C   0  0  0  0  0  0  0  0  0  0  0  0
   -6.7810   18.2100  -32.2360 N   0  0  0  0  0  0  0  0  0  0  0  0
   -7.9170   18.6890  -31.7470 N   0  0  0  0  0  0  0  0  0  0  0  0
   -3.8543   22.8050  -29.8510 H   0  0  0  0  0  0  0  0  0  0  0  0
   -4.0188   23.6294  -28.2449 H   0  0  0  0  0  0  0  0  0  0  0  0
   -6.2275   23.7265  -28.5713 H   0  0  0  0  0  0  0  0  0  0  0  0
   -5.9100   24.8387  -29.9719 H   0  0  0  0  0  0  0  0  0  0  0  0
   -5.4548   22.0977  -30.7793 H   0  0  0  0  0  0  0  0  0  0  0  0
   -7.0984   22.2725  -30.0191 H   0  0  0  0  0  0  0  0  0  0  0  0
   -6.5879   24.4933  -31.8034 H   0  0  0  0  0  0  0  0  0  0  0  0
   -6.3353   22.9056  -32.6566 H   0  0  0  0  0  0  0  0  0  0  0  0
   -8.8335   24.1515  -31.6049 H   0  0  0  0  0  0  0  0  0  0  0  0
   -8.5419   23.0345  -33.0168 H   0  0  0  0  0  0  0  0  0  0  0  0
   -8.1161   21.7367  -30.4199 H   0  0  0  0  0  0  0  0  0  0  0  0
   -9.8111   22.3806  -30.6662 H   0  0  0  0  0  0  0  0  0  0  0  0
  -10.0232   20.2419  -31.4914 H   0  0  0  0  0  0  0  0  0  0  0  0
   -9.5982   21.1922  -32.9834 H   0  0  0  0  0  0  0  0  0  0  0  0
   -6.8276   21.1000  -33.6831 H   0  0  0  0  0  0  0  0  0  0  0  0
   -4.6612   17.8288  -33.6440 H   0  0  0  0  0  0  0  0  0  0  0  0
   -5.1842   19.0470  -34.8598 H   0  0  0  0  0  0  0  0  0  0  0  0
   -5.1409   20.6935  -31.7647 H   0  0  0  0  0  0  0  0  0  0  0  0
   -3.3281   22.1983  -30.9407 H   0  0  0  0  0  0  0  0  0  0  0  0
   -1.0732   22.1472  -32.0141 H   0  0  0  0  0  0  0  0  0  0  0  0
   -0.6282   20.5814  -33.9087 H   0  0  0  0  0  0  0  0  0  0  0  0
   -2.4354   19.0738  -34.7369 H   0  0  0  0  0  0  0  0  0  0  0  0
  1  2  2  0
  2  3  1  0
  2  4  1  0
  4  5  1  0
  5  6  1  0
  6  7  1  0
  7  8  1  0
  8  9  1  0
  9 10  1  0
 10 11  1  0
 11 12  2  0
 12 13  1  0
 13 14  1  0
 14 15  1  0
 15 16  2  0
 16 17  1  0
 17 18  2  0
 18 19  1  0
 19 20  2  0
 13 21  1  0
 21 22  2  0
 22 11  1  0
 20 15  1  0
  4 23  1  0
  4 24  1  0
  5 25  1  0
  5 26  1  0
  6 27  1  0
  6 28  1  0
  7 29  1  0
  7 30  1  0
  8 31  1  0
  8 32  1  0
  9 33  1  0
  9 34  1  0
 10 35  1  0
 10 36  1  0
 12 37  1  0
 14 38  1  0
 14 39  1  0
 16 40  1  0
 17 41  1  0
 18 42  1  0
 19 43  1  0
 20 44  1  0
M  CHG  1   3  -1
M  END
>  <UniqueID>  (38) 
36

>  <SMILES>  (38) 
O=C([O-])CCCCCCCc1cn(Cc2ccccc2)nn1

>  <Energy>  (38) 
65.76062248205461

>  <Genealogy>  (38) 
O=C([O-])CCCCCCCc1cn(Cc2ccccc2)nn1 (protonated)
O=C([O-])CCCCCCCc1cn(Cc2ccccc2)nn1 (3D coordinates assigned)
O=C([O-])CCCCCCCc1cn(Cc2ccccc2)nn1 (optimized conformer: 65.76062248205461 kcal/mol)

>  <smiles>  (38) 
O=C(O)CCCCCCCc1cn(Cc2ccccc2)nn1

>  <score_type>  (38) 
oracle

>  <origin>  (38) 
adg

>  <m_score__min__energy>  (38) 
-10.77

>  <m_primary>  (38) 
energy

$$$$
39:0
     RDKit          3D

 35 36  0  0  0  0  0  0  0  0999 V2000
   -9.4830   21.5070  -31.3150 C   0  0  0  0  0  0  0  0  0  0  0  0
   -8.8360   22.2990  -32.2510 O   0  0  0  0  0  0  0  0  0  0  0  0
   -8.2690   23.4330  -31.7070 C   0  0  0  0  0  0  0  0  0  0  0  0
   -6.7960   23.3490  -31.5760 C   0  0  0  0  0  0  0  0  0  0  0  0
   -6.0560   24.3890  -31.0120 C   0  0  0  0  0  0  0  0  0  0  0  0
   -4.6830   24.3260  -30.8840 C   0  0  0  0  0  0  0  0  0  0  0  0
   -4.0090   25.2700  -30.3710 O   0  0  0  0  0  0  0  0  0  0  0  0
   -4.0810   23.2110  -31.3280 N   0  0  0  0  0  0  0  0  0  0  0  0
   -4.7820   22.1820  -31.8820 C   0  0  0  0  0  0  0  0  0  0  0  0
   -3.9830   21.0140  -32.3290 C   0  0  0  0  0  0  0  0  0  0  0  0
   -4.8600   19.8840  -32.7540 C   0  0  0  0  0  0  0  0  0  0  0  0
   -4.6620   19.2450  -33.9830 C   0  0  0  0  0  0  0  0  0  0  0  0
   -5.5130   18.2030  -34.3150 C   0  0  0  0  0  0  0  0  0  0  0  0
   -6.5220   17.8230  -33.4380 C   0  0  0  0  0  0  0  0  0  0  0  0
   -6.7190   18.4520  -32.2270 C   0  0  0  0  0  0  0  0  0  0  0  0
   -7.7360   18.0180  -31.4210 O   0  0  0  0  0  0  0  0  0  0  0  0
   -9.1030   18.2310  -31.5910 C   0  0  0  0  0  0  0  0  0  0  0  0
   -5.8810   19.4810  -31.8960 C   0  0  0  0  0  0  0  0  0  0  0  0
   -6.1210   22.2460  -32.0070 N   0  0  0  0  0  0  0  0  0  0  0  0
   -9.2111   21.8398  -30.3024 H   0  0  0  0  0  0  0  0  0  0  0  0
  -10.5712   21.5946  -31.4500 H   0  0  0  0  0  0  0  0  0  0  0  0
   -9.1801   20.4582  -31.4500 H   0  0  0  0  0  0  0  0  0  0  0  0
   -8.5134   24.2893  -32.3528 H   0  0  0  0  0  0  0  0  0  0  0  0
   -8.6794   23.5469  -30.6928 H   0  0  0  0  0  0  0  0  0  0  0  0
   -6.5834   25.2872  -30.6583 H   0  0  0  0  0  0  0  0  0  0  0  0
   -3.3520   21.3160  -33.1779 H   0  0  0  0  0  0  0  0  0  0  0  0
   -3.3654   20.6739  -31.4847 H   0  0  0  0  0  0  0  0  0  0  0  0
   -3.8570   19.5596  -34.6635 H   0  0  0  0  0  0  0  0  0  0  0  0
   -5.3899   17.6765  -35.2729 H   0  0  0  0  0  0  0  0  0  0  0  0
   -7.1859   16.9923  -33.7196 H   0  0  0  0  0  0  0  0  0  0  0  0
   -9.5876   18.3065  -30.6064 H   0  0  0  0  0  0  0  0  0  0  0  0
   -9.2618   19.1647  -32.1504 H   0  0  0  0  0  0  0  0  0  0  0  0
   -9.5384   17.3899  -32.1504 H   0  0  0  0  0  0  0  0  0  0  0  0
   -6.0155   19.9996  -30.9353 H   0  0  0  0  0  0  0  0  0  0  0  0
   -6.6410   21.4340  -32.4400 H   0  0  0  0  0  0  0  0  0  0  0  0
  1  2  1  0
  2  3  1  0
  3  4  1  0
  4  5  2  0
  5  6  1  0
  6  7  2  0
  6  8  1  0
  8  9  2  0
  9 10  1  0
 10 11  1  0
 11 12  2  0
 12 13  1  0
 13 14  2  0
 14 15  1  0
 15 16  1  0
 16 17  1  0
 15 18  2  0
  9 19  1  0
 19  4  1  0
 18 11  1  0
  1 20  1  0
  1 21  1  0
  1 22  1  0
  3 23  1  0
  3 24  1  0
  5 25  1  0
 10 26  1  0
 10 27  1  0
 12 28  1  0
 13 29  1  0
 14 30  1  0
 17 31  1  0
 17 32  1  0
 17 33  1  0
 18 34  1  0
 19 35  1  0
M  END
>  <smiles>  (39) 
COCc1cc(=O)nc(Cc2cccc(OC)c2)[nH]1

>  <score_type>  (39) 
oracle

>  <origin>  (39) 
adg

>  <m_score__min__energy>  (39) 
-6.6100000000000003

>  <m_primary>  (39) 
energy

$$$$
40:0
     RDKit          3D

 40 43  0  0  0  0  0  0  0  0999 V2000
   -7.1680   24.0320  -31.1030 C   0  0  0  0  0  0  0  0  0  0  0  0
   -7.6260   22.6860  -31.6050 C   0  0  0  0  0  0  0  0  0  0  0  0
   -8.9900   22.3610  -31.4780 C   0  0  0  0  0  0  0  0  0  0  0  0
   -9.4790   21.1340  -31.9230 C   0  0  0  0  0  0  0  0  0  0  0  0
   -8.6190   20.2060  -32.5020 C   0  0  0  0  0  0  0  0  0  0  0  0
   -7.2600   20.4950  -32.6430 C   0  0  0  0  0  0  0  0  0  0  0  0
   -6.4660   19.5900  -33.1990 O   0  0  0  0  0  0  0  0  0  0  0  0
   -5.1640   19.7890  -33.3690 C   0  0  0  0  0  0  0  0  0  0  0  0
   -4.3440   18.7680  -33.9840 N   0  0  0  0  0  0  0  0  0  0  0  0
   -2.8760   18.8650  -33.9210 C   0  0  0  0  0  0  0  0  0  0  0  0
   -2.2560   17.6410  -33.2210 C   0  0  0  0  0  0  0  0  0  0  0  0
   -2.7650   16.3330  -33.6960 N   0  0  0  0  0  0  0  0  0  0  0  0
   -3.9900   15.8810  -32.9970 C   0  0  0  0  0  0  0  0  0  0  0  0
   -5.2790   16.5360  -33.5340 C   0  0  0  0  0  0  0  0  0  0  0  0
   -4.9870   17.5900  -34.6070 C   0  0  0  0  0  0  0  0  0  0  0  0
   -4.1240   16.9650  -35.7220 C   0  0  0  0  0  0  0  0  0  0  0  0
   -2.8830   16.2270  -35.1650 C   0  0  0  0  0  0  0  0  0  0  0  0
   -4.6100   20.9600  -32.9600 N   0  0  0  0  0  0  0  0  0  0  0  0
   -5.3530   21.9350  -32.3840 C   0  0  0  0  0  0  0  0  0  0  0  0
   -4.7810   22.9970  -32.0280 O   0  0  0  0  0  0  0  0  0  0  0  0
   -6.7410   21.7370  -32.1970 C   0  0  0  0  0  0  0  0  0  0  0  0
   -7.1679   24.0324  -30.0030 H   0  0  0  0  0  0  0  0  0  0  0  0
   -6.1507   24.2334  -31.4699 H   0  0  0  0  0  0  0  0  0  0  0  0
   -7.8513   24.8121  -31.4699 H   0  0  0  0  0  0  0  0  0  0  0  0
   -9.6797   23.0859  -31.0210 H   0  0  0  0  0  0  0  0  0  0  0  0
  -10.5482   20.8985  -31.8161 H   0  0  0  0  0  0  0  0  0  0  0  0
   -9.0117   19.2394  -32.8506 H   0  0  0  0  0  0  0  0  0  0  0  0
   -2.4784   18.9302  -34.9445 H   0  0  0  0  0  0  0  0  0  0  0  0
   -2.6152   19.7620  -33.3402 H   0  0  0  0  0  0  0  0  0  0  0  0
   -1.1687   17.6661  -33.3860 H   0  0  0  0  0  0  0  0  0  0  0  0
   -2.5342   17.7160  -32.1594 H   0  0  0  0  0  0  0  0  0  0  0  0
   -4.0772   14.7909  -33.1160 H   0  0  0  0  0  0  0  0  0  0  0  0
   -3.8902   16.1776  -31.9425 H   0  0  0  0  0  0  0  0  0  0  0  0
   -5.9189   15.7545  -33.9696 H   0  0  0  0  0  0  0  0  0  0  0  0
   -5.7788   17.0388  -32.6929 H   0  0  0  0  0  0  0  0  0  0  0  0
   -5.9226   17.9358  -35.0709 H   0  0  0  0  0  0  0  0  0  0  0  0
   -4.7392   16.2468  -36.2840 H   0  0  0  0  0  0  0  0  0  0  0  0
   -3.7668   17.7816  -36.3667 H   0  0  0  0  0  0  0  0  0  0  0  0
   -2.9557   15.1634  -35.4359 H   0  0  0  0  0  0  0  0  0  0  0  0
   -1.9920   16.6999  -35.6037 H   0  0  0  0  0  0  0  0  0  0  0  0
  1  2  1  0
  2  3  2  0
  3  4  1  0
  4  5  2  0
  5  6  1  0
  6  7  1  0
  7  8  1  0
  8  9  1  0
  9 10  1  0
 10 11  1  0
 11 12  1  0
 12 13  1  0
 13 14  1  0
 14 15  1  0
 15 16  1  0
 16 17  1  0
  8 18  2  0
 18 19  1  0
 19 20  2  0
 19 21  1  0
 21  2  1  0
 21  6  2  0
 15  9  1  0
 17 12  1  0
  1 22  1  0
  1 23  1  0
  1 24  1  0
  3 25  1  0
  4 26  1  0
  5 27  1  0
 10 28  1  0
 10 29  1  0
 11 30  1  0
 11 31  1  0
 13 32  1  0
 13 33  1  0
 14 34  1  0
 14 35  1  0
 15 36  1  0
 16 37  1  0
 16 38  1  0
 17 39  1  0
 17 40  1  0
M  END
>  <UniqueID>  (40) 
37

>  <SMILES>  (40) 
Cc1cccc2oc(N3CCN4CCC3CC4)nc(=O)c12

>  <Energy>  (40) 
67.47809442608006

>  <Genealogy>  (40) 
Cc1cccc2oc(N3CCN4CCC3CC4)nc(=O)c12 (3D coordinates assigned)
Cc1cccc2oc(N3CCN4CCC3CC4)nc(=O)c12 (nonaromatic ring conformer: 67.47809442608006 kcal/mol)

>  <smiles>  (40) 
Cc1cccc2oc(N3CCN4CCC3CC4)nc(=O)c12

>  <score_type>  (40) 
oracle

>  <origin>  (40) 
adg

>  <m_score__min__energy>  (40) 
-6.0300000000000002

>  <m_primary>  (40) 
energy

$$$$
41:0
     RDKit          3D

 34 35  0  0  0  0  0  0  0  0999 V2000
   -4.2390   20.7850  -33.0860 C   0  0  0  0  0  0  0  0  0  0  0  0
   -3.1380   21.8380  -33.0070 C   0  0  0  0  0  0  0  0  0  0  0  0
   -1.9300   21.2750  -32.4020 N   0  0  0  0  0  0  0  0  0  0  0  0
   -1.6910   21.0380  -31.0950 C   0  0  0  0  0  0  0  0  0  0  0  0
   -2.8680   21.2680  -29.7420 S   0  0  0  0  0  0  0  0  0  0  0  0
   -2.2770   22.9050  -29.2450 C   0  0  0  0  0  0  0  0  0  0  0  0
   -2.9040   24.0870  -29.7070 C   0  0  0  0  0  0  0  0  0  0  0  0
   -4.1180   24.0720  -30.5900 C   0  0  0  0  0  0  0  0  0  0  0  0
   -2.4060   25.2990  -29.3390 N   0  0  0  0  0  0  0  0  0  0  0  0
   -1.3390   25.4290  -28.5090 C   0  0  0  0  0  0  0  0  0  0  0  0
   -0.8580   26.7920  -28.1250 C   0  0  0  0  0  0  0  0  0  0  0  0
   -0.7430   24.2880  -27.9660 C   0  0  0  0  0  0  0  0  0  0  0  0
   -1.2190   23.0270  -28.3250 C   0  0  0  0  0  0  0  0  0  0  0  0
   -0.6920   22.0050  -27.8140 O   0  0  0  0  0  0  0  0  0  0  0  0
   -0.4340   20.4690  -30.9850 C   0  0  0  0  0  0  0  0  0  0  0  0
    0.2270   19.9570  -29.7450 C   0  0  0  0  0  0  0  0  0  0  0  0
    0.1320   20.3760  -32.2050 N   0  0  0  0  0  0  0  0  0  0  0  0
   -0.8020   20.8770  -33.0380 C   0  0  0  0  0  0  0  0  0  0  0  0
   -0.5800   20.9400  -34.6610 S   0  0  0  0  0  0  0  0  0  0  0  0
   -4.5424   20.4948  -32.0693 H   0  0  0  0  0  0  0  0  0  0  0  0
   -5.1050   21.1995  -33.6228 H   0  0  0  0  0  0  0  0  0  0  0  0
   -3.8634   19.9014  -33.6228 H   0  0  0  0  0  0  0  0  0  0  0  0
   -2.9029   22.1922  -34.0215 H   0  0  0  0  0  0  0  0  0  0  0  0
   -3.4902   22.6737  -32.3845 H   0  0  0  0  0  0  0  0  0  0  0  0
   -5.0245   24.0608  -29.9669 H   0  0  0  0  0  0  0  0  0  0  0  0
   -4.1206   24.9702  -31.2250 H   0  0  0  0  0  0  0  0  0  0  0  0
   -4.0984   23.1740  -31.2250 H   0  0  0  0  0  0  0  0  0  0  0  0
   -0.8287   26.8751  -27.0285 H   0  0  0  0  0  0  0  0  0  0  0  0
    0.1512   26.9528  -28.5320 H   0  0  0  0  0  0  0  0  0  0  0  0
   -1.5427   27.5506  -28.5320 H   0  0  0  0  0  0  0  0  0  0  0  0
    0.0955   24.3834  -27.2605 H   0  0  0  0  0  0  0  0  0  0  0  0
   -0.2907   20.3580  -28.8612 H   0  0  0  0  0  0  0  0  0  0  0  0
    0.1790   18.8581  -29.7309 H   0  0  0  0  0  0  0  0  0  0  0  0
    1.2790   20.2782  -29.7309 H   0  0  0  0  0  0  0  0  0  0  0  0
  1  2  1  0
  2  3  1  0
  3  4  1  0
  4  5  1  0
  5  6  1  0
  6  7  2  0
  7  8  1  0
  7  9  1  0
  9 10  1  0
 10 11  1  0
 10 12  2  0
 12 13  1  0
 13 14  2  0
  4 15  2  0
 15 16  1  0
 15 17  1  0
 17 18  1  0
 18 19  2  0
 18  3  1  0
 13  6  1  0
  1 20  1  0
  1 21  1  0
  1 22  1  0
  2 23  1  0
  2 24  1  0
  8 25  1  0
  8 26  1  0
  8 27  1  0
 11 28  1  0
 11 29  1  0
 11 30  1  0
 12 31  1  0
 16 32  1  0
 16 33  1  0
 16 34  1  0
M  CHG  2   9  -1  17  -1
M  END
>  <UniqueID>  (41) 
38

>  <SMILES>  (41) 
CCn1c(Sc2c(C)[n-]c(C)cc2=O)c(C)[n-]c1=S

>  <Energy>  (41) 
59.847159896683294

>  <Genealogy>  (41) 
CCn1c(Sc2c(C)[n-]c(C)cc2=O)c(C)[n-]c1=S (protonated)
CCn1c(Sc2c(C)[n-]c(C)cc2=O)c(C)[n-]c1=S (3D coordinates assigned)
CCn1c(Sc2c(C)[n-]c(C)cc2=O)c(C)[n-]c1=S (optimized conformer: 59.847159896683294 kcal/mol)

>  <smiles>  (41) 
CCn1c(Sc2c(C)[nH]c(C)cc2=O)c(C)[nH]c1=S

>  <score_type>  (41) 
oracle

>  <origin>  (41) 
adg

>  <m_score__min__energy>  (41) 
-7.1399999999999997

>  <m_primary>  (41) 
energy

$$$$
42:0
     RDKit          3D

 41 46  0  0  0  0  0  0  0  0999 V2000
    0.5760   27.3110  -24.1770 C   0  0  0  0  0  0  0  0  0  0  0  0
   -0.7560   27.1320  -23.8080 C   0  0  0  0  0  0  0  0  0  0  0  0
   -1.6350   26.4420  -24.6470 C   0  0  0  0  0  0  0  0  0  0  0  0
   -1.1910   25.9130  -25.8820 C   0  0  0  0  0  0  0  0  0  0  0  0
    0.1710   26.1050  -26.2420 C   0  0  0  0  0  0  0  0  0  0  0  0
    1.0400   26.8010  -25.3880 C   0  0  0  0  0  0  0  0  0  0  0  0
    0.6440   25.5960  -27.4560 C   0  0  0  0  0  0  0  0  0  0  0  0
   -0.1870   24.9240  -28.2870 N   0  0  0  0  0  0  0  0  0  0  0  0
   -1.4930   24.7140  -27.9890 C   0  0  0  0  0  0  0  0  0  0  0  0
   -2.2700   24.0300  -28.8680 N   0  0  0  0  0  0  0  0  0  0  0  0
   -3.5840   23.7760  -28.6380 C   0  0  0  0  0  0  0  0  0  0  0  0
   -4.3800   23.0400  -29.6470 C   0  0  0  0  0  0  0  0  0  0  0  0
   -5.7870   23.0060  -29.5390 C   0  0  0  0  0  0  0  0  0  0  0  0
   -6.5770   22.3470  -30.5040 C   0  0  0  0  0  0  0  0  0  0  0  0
   -7.9740   22.3270  -30.3850 C   0  0  0  0  0  0  0  0  0  0  0  0
   -8.7530   21.6740  -31.3450 C   0  0  0  0  0  0  0  0  0  0  0  0
   -8.1450   21.0360  -32.4290 C   0  0  0  0  0  0  0  0  0  0  0  0
   -6.7530   21.0460  -32.5630 C   0  0  0  0  0  0  0  0  0  0  0  0
   -5.9600   21.7010  -31.6050 C   0  0  0  0  0  0  0  0  0  0  0  0
   -4.5640   21.7380  -31.6920 C   0  0  0  0  0  0  0  0  0  0  0  0
   -3.5640   21.0420  -32.8540 S   0  0  0  0  0  0  0  0  0  0  0  0
   -2.1160   21.5470  -32.1570 C   0  0  0  0  0  0  0  0  0  0  0  0
   -2.4000   22.2670  -31.0000 C   0  0  0  0  0  0  0  0  0  0  0  0
   -3.7780   22.3850  -30.7420 C   0  0  0  0  0  0  0  0  0  0  0  0
   -4.1750   24.2430  -27.4570 C   0  0  0  0  0  0  0  0  0  0  0  0
   -3.4080   24.9490  -26.5300 C   0  0  0  0  0  0  0  0  0  0  0  0
   -2.0410   25.2010  -26.7770 C   0  0  0  0  0  0  0  0  0  0  0  0
    1.2619   27.8556  -23.5114 H   0  0  0  0  0  0  0  0  0  0  0  0
   -1.1174   27.5362  -22.8509 H   0  0  0  0  0  0  0  0  0  0  0  0
   -2.6840   26.3086  -24.3439 H   0  0  0  0  0  0  0  0  0  0  0  0
    2.0920   26.9447  -25.6757 H   0  0  0  0  0  0  0  0  0  0  0  0
    1.6973   25.7426  -27.7371 H   0  0  0  0  0  0  0  0  0  0  0  0
   -6.2758   23.5020  -28.6875 H   0  0  0  0  0  0  0  0  0  0  0  0
   -8.4587   22.8268  -29.5334 H   0  0  0  0  0  0  0  0  0  0  0  0
   -9.8485   21.6626  -31.2464 H   0  0  0  0  0  0  0  0  0  0  0  0
   -8.7638   20.5236  -33.1803 H   0  0  0  0  0  0  0  0  0  0  0  0
   -6.2789   20.5415  -33.4178 H   0  0  0  0  0  0  0  0  0  0  0  0
   -1.1101   21.3414  -32.5518 H   0  0  0  0  0  0  0  0  0  0  0  0
   -1.6242   22.7006  -30.3519 H   0  0  0  0  0  0  0  0  0  0  0  0
   -5.2407   24.0536  -27.2611 H   0  0  0  0  0  0  0  0  0  0  0  0
   -3.8713   25.3117  -25.6006 H   0  0  0  0  0  0  0  0  0  0  0  0
  1  2  2  0
  2  3  1  0
  3  4  2  0
  4  5  1  0
  5  6  2  0
  5  7  1  0
  7  8  2  0
  8  9  1  0
  9 10  2  0
 10 11  1  0
 11 12  1  0
 12 13  2  0
 13 14  1  0
 14 15  2  0
 15 16  1  0
 16 17  2  0
 17 18  1  0
 18 19  2  0
 19 20  1  0
 20 21  1  0
 21 22  1  0
 22 23  2  0
 23 24  1  0
 11 25  2  0
 25 26  1  0
 26 27  2  0
  6  1  1  0
 27  9  1  0
 27  4  1  0
 24 12  1  0
 19 14  1  0
 24 20  2  0
  1 28  1  0
  2 29  1  0
  3 30  1  0
  6 31  1  0
  7 32  1  0
 13 33  1  0
 15 34  1  0
 16 35  1  0
 17 36  1  0
 18 37  1  0
 22 38  1  0
 23 39  1  0
 25 40  1  0
 26 41  1  0
M  END
>  <UniqueID>  (42) 
39

>  <SMILES>  (42) 
c1ccc2c(c1)cnc1nc(-c3cc4ccccc4c4sccc34)ccc12

>  <Energy>  (42) 
101.44994142223149

>  <Genealogy>  (42) 
c1ccc2c(c1)cnc1nc(-c3cc4ccccc4c4sccc34)ccc12 (3D coordinates assigned)
c1ccc2c(c1)cnc1nc(-c3cc4ccccc4c4sccc34)ccc12 (optimized conformer: 101.44994142223149 kcal/mol)

>  <smiles>  (42) 
c1ccc2c(c1)cnc1nc(-c3cc4ccccc4c4sccc34)ccc12

>  <score_type>  (42) 
oracle

>  <origin>  (42) 
adg

>  <m_score__min__energy>  (42) 
-9.6799999999999997

>  <m_primary>  (42) 
energy

$$$$
43:0
     RDKit          3D

 18 19  0  0  0  0  0  0  0  0999 V2000
   -2.3310   24.6110  -28.9070 S   0  0  0  0  0  0  0  0  0  0  0  0
   -3.6560   24.4200  -29.8540 C   0  0  0  0  0  0  0  0  0  0  0  0
   -4.2090   25.4270  -30.5760 N   0  0  0  0  0  0  0  0  0  0  0  0
   -5.2650   24.9030  -31.2190 N   0  0  0  0  0  0  0  0  0  0  0  0
   -5.3600   23.6050  -30.9030 C   0  0  0  0  0  0  0  0  0  0  0  0
   -6.3620   22.6530  -31.3790 C   0  0  0  0  0  0  0  0  0  0  0  0
   -7.6700   22.7770  -30.9620 C   0  0  0  0  0  0  0  0  0  0  0  0
   -8.6110   21.8840  -31.4070 C   0  0  0  0  0  0  0  0  0  0  0  0
   -8.2680   20.8460  -32.2800 C   0  0  0  0  0  0  0  0  0  0  0  0
   -6.9420   20.7600  -32.6720 C   0  0  0  0  0  0  0  0  0  0  0  0
   -5.9760   21.6450  -32.2390 C   0  0  0  0  0  0  0  0  0  0  0  0
   -4.3090   21.5530  -32.7210 Cl  0  0  0  0  0  0  0  0  0  0  0  0
   -4.3710   23.3550  -30.0780 O   0  0  0  0  0  0  0  0  0  0  0  0
   -3.8900   26.4260  -30.6320 H   0  0  0  0  0  0  0  0  0  0  0  0
   -7.9574   23.5876  -30.2762 H   0  0  0  0  0  0  0  0  0  0  0  0
   -9.6537   21.9857  -31.0716 H   0  0  0  0  0  0  0  0  0  0  0  0
   -9.0197   20.1282  -32.6401 H   0  0  0  0  0  0  0  0  0  0  0  0
   -6.6468   19.9519  -33.3575 H   0  0  0  0  0  0  0  0  0  0  0  0
  1  2  2  0
  2  3  1  0
  3  4  1  0
  4  5  2  0
  5  6  1  0
  6  7  2  0
  7  8  1  0
  8  9  2  0
  9 10  1  0
 10 11  2  0
 11 12  1  0
  5 13  1  0
 13  2  1  0
 11  6  1  0
  3 14  1  0
  7 15  1  0
  8 16  1  0
  9 17  1  0
 10 18  1  0
M  END
>  <smiles>  (43) 
S=c1[nH]nc(-c2ccccc2Cl)o1

>  <score_type>  (43) 
oracle

>  <origin>  (43) 
adg

>  <m_score__min__energy>  (43) 
-6.3799999999999999

>  <m_primary>  (43) 
energy

$$$$
