0:0
     RDKit          3D

 63 67  0  0  0  0  0  0  0  0999 V2000
   -0.1150   27.9400  -26.8990 C   0  0  0  0  0  0  0  0  0  0  0  0
   -0.6480   26.6030  -26.6750 N   0  0  0  0  0  0  0  0  0  0  0  0
   -1.8840   26.2860  -25.9730 C   0  0  0  0  0  0  0  0  0  0  0  0
   -2.0010   24.7410  -26.0120 C   0  0  0  0  0  0  0  0  0  0  0  0
   -0.8620   24.2660  -26.8060 N   0  0  0  0  0  0  0  0  0  0  0  0
   -0.5910   22.8970  -27.2850 C   0  0  0  0  0  0  0  0  0  0  0  0
   -0.1260   22.9300  -28.7540 C   0  0  0  0  0  0  0  0  0  0  0  0
   -1.2600   23.3970  -29.6800 C   0  0  0  0  0  0  0  0  0  0  0  0
   -2.5540   22.8200  -29.2850 N   0  0  0  0  0  0  0  0  0  0  0  0
   -3.7580   23.3360  -29.8850 C   0  0  0  0  0  0  0  0  0  0  0  0
   -3.9400   24.7130  -30.0810 C   0  0  0  0  0  0  0  0  0  0  0  0
   -5.1030   25.1680  -30.7040 C   0  0  0  0  0  0  0  0  0  0  0  0
   -6.0700   24.2580  -31.1310 C   0  0  0  0  0  0  0  0  0  0  0  0
   -5.8640   22.8860  -30.9230 C   0  0  0  0  0  0  0  0  0  0  0  0
   -6.8350   21.8690  -31.3780 C   0  0  0  0  0  0  0  0  0  0  0  0
   -8.1870   22.0990  -31.5890 C   0  0  0  0  0  0  0  0  0  0  0  0
   -8.7850   20.9750  -32.0340 N   0  0  0  0  0  0  0  0  0  0  0  0
  -10.2040   20.8190  -32.3410 C   0  0  0  0  0  0  0  0  0  0  0  0
   -7.8340   20.0220  -32.0980 C   0  0  0  0  0  0  0  0  0  0  0  0
   -6.6160   20.5410  -31.7340 C   0  0  0  0  0  0  0  0  0  0  0  0
   -5.3480   19.7330  -31.7600 C   0  0  0  0  0  0  0  0  0  0  0  0
   -5.4780   18.5420  -32.6380 N   0  0  2  0  0  0  0  0  0  0  0  0
   -5.3330   18.9010  -34.0630 C   0  0  0  0  0  0  0  0  0  0  0  0
   -6.7360   17.7940  -32.3800 C   0  0  0  0  0  0  0  0  0  0  0  0
   -8.0080   18.6340  -32.6330 C   0  0  0  0  0  0  0  0  0  0  0  0
   -4.7130   22.4700  -30.3260 N   0  0  0  0  0  0  0  0  0  0  0  0
   -2.5790   21.6530  -28.3920 C   0  0  0  0  0  0  0  0  0  0  0  0
   -1.7970   21.9340  -27.0950 C   0  0  0  0  0  0  0  0  0  0  0  0
   -0.0900   25.4000  -27.1520 C   0  0  0  0  0  0  0  0  0  0  0  0
    0.9820   25.3450  -27.8140 O   0  0  0  0  0  0  0  0  0  0  0  0
    0.0782   28.4247  -25.9306 H   0  0  0  0  0  0  0  0  0  0  0  0
    0.8239   27.8699  -27.4678 H   0  0  0  0  0  0  0  0  0  0  0  0
   -0.8447   28.5351  -27.4678 H   0  0  0  0  0  0  0  0  0  0  0  0
   -1.8369   26.6414  -24.9331 H   0  0  0  0  0  0  0  0  0  0  0  0
   -2.7534   26.7719  -26.4399 H   0  0  0  0  0  0  0  0  0  0  0  0
   -1.9544   24.3289  -24.9932 H   0  0  0  0  0  0  0  0  0  0  0  0
   -2.9577   24.4216  -26.4510 H   0  0  0  0  0  0  0  0  0  0  0  0
    0.2189   22.4906  -26.6614 H   0  0  0  0  0  0  0  0  0  0  0  0
    0.7230   23.6232  -28.8471 H   0  0  0  0  0  0  0  0  0  0  0  0
    0.1723   21.9135  -29.0502 H   0  0  0  0  0  0  0  0  0  0  0  0
   -1.3294   24.4939  -29.6343 H   0  0  0  0  0  0  0  0  0  0  0  0
   -1.0306   23.0601  -30.7017 H   0  0  0  0  0  0  0  0  0  0  0  0
   -3.1733   25.4275  -29.7468 H   0  0  0  0  0  0  0  0  0  0  0  0
   -5.2573   26.2461  -30.8586 H   0  0  0  0  0  0  0  0  0  0  0  0
   -6.9858   24.6129  -31.6263 H   0  0  0  0  0  0  0  0  0  0  0  0
   -8.6969   23.0586  -31.4182 H   0  0  0  0  0  0  0  0  0  0  0  0
  -10.7771   20.7560  -31.4042 H   0  0  0  0  0  0  0  0  0  0  0  0
  -10.5501   21.6845  -32.9250 H   0  0  0  0  0  0  0  0  0  0  0  0
  -10.3538   19.8990  -32.9250 H   0  0  0  0  0  0  0  0  0  0  0  0
   -4.5293   20.3651  -32.1343 H   0  0  0  0  0  0  0  0  0  0  0  0
   -5.1394   19.3860  -30.7372 H   0  0  0  0  0  0  0  0  0  0  0  0
   -4.6860   17.8980  -32.4070 H   0  0  0  0  0  0  0  0  0  0  0  0
   -4.9222   19.9181  -34.1449 H   0  0  0  0  0  0  0  0  0  0  0  0
   -4.6516   18.1898  -34.5528 H   0  0  0  0  0  0  0  0  0  0  0  0
   -6.3172   18.8625  -34.5528 H   0  0  0  0  0  0  0  0  0  0  0  0
   -6.7611   16.9145  -33.0401 H   0  0  0  0  0  0  0  0  0  0  0  0
   -6.7365   17.5134  -31.3164 H   0  0  0  0  0  0  0  0  0  0  0  0
   -8.1995   18.6843  -33.7150 H   0  0  0  0  0  0  0  0  0  0  0  0
   -8.8568   18.1584  -32.1198 H   0  0  0  0  0  0  0  0  0  0  0  0
   -3.6229   21.4162  -28.1386 H   0  0  0  0  0  0  0  0  0  0  0  0
   -2.1064   20.8052  -28.9096 H   0  0  0  0  0  0  0  0  0  0  0  0
   -2.4867   22.3819  -26.3644 H   0  0  0  0  0  0  0  0  0  0  0  0
   -1.3878   20.9719  -26.7530 H   0  0  0  0  0  0  0  0  0  0  0  0
  1  2  1  0
  2  3  1  0
  3  4  1  0
  4  5  1  0
  5  6  1  0
  6  7  1  0
  7  8  1  0
  8  9  1  0
  9 10  1  0
 10 11  2  0
 11 12  1  0
 12 13  2  0
 13 14  1  0
 14 15  1  0
 15 16  2  0
 16 17  1  0
 17 18  1  0
 17 19  1  0
 19 20  2  0
 20 21  1  0
 21 22  1  0
 22 23  1  0
 22 24  1  0
 24 25  1  0
 14 26  2  0
  9 27  1  0
 27 28  1  0
  5 29  1  0
 29 30  2  0
 29  2  1  0
 28  6  1  0
 26 10  1  0
 20 15  1  0
 25 19  1  0
  1 31  1  0
  1 32  1  0
  1 33  1  0
  3 34  1  0
  3 35  1  0
  4 36  1  0
  4 37  1  0
  6 38  1  0
  7 39  1  0
  7 40  1  0
  8 41  1  0
  8 42  1  0
 11 43  1  0
 12 44  1  0
 13 45  1  0
 16 46  1  0
 18 47  1  0
 18 48  1  0
 18 49  1  0
 21 50  1  0
 21 51  1  0
 22 52  1  1
 23 53  1  0
 23 54  1  0
 23 55  1  0
 24 56  1  0
 24 57  1  0
 25 58  1  0
 25 59  1  0
 27 60  1  0
 27 61  1  0
 28 62  1  0
 28 63  1  0
M  CHG  1  22   1
M  END
>  <UniqueID>  (1) 
1

>  <SMILES>  (1) 
CN1CCN(C2CCN(c3cccc(-c4cn(C)c5c4C[N@H+](C)CC5)n3)CC2)C1=O

>  <Energy>  (1) 
117.82241998019985

>  <Genealogy>  (1) 
CN1CCN(C2CCN(c3cccc(-c4cn(C)c5c4C[NH+](C)CC5)n3)CC2)C1=O (protonated)
CN1CCN(C2CCN(c3cccc(-c4cn(C)c5c4C[N@H+](C)CC5)n3)CC2)C1=O (chirality)
CN1CCN(C2CCN(c3cccc(-c4cn(C)c5c4C[N@H+](C)CC5)n3)CC2)C1=O (3D coordinates assigned)
CN1CCN(C2CCN(c3cccc(-c4cn(C)c5c4C[N@H+](C)CC5)n3)CC2)C1=O (nonaromatic ring conformer: 117.82241998019985 kcal/mol)

>  <smiles>  (1) 
CN1CCc2c(c(-c3cccc(N4CCC(N5CCN(C)C5=O)CC4)n3)cn2C)C1

>  <score_type>  (1) 
oracle

>  <origin>  (1) 
adg

>  <m_score__min__energy>  (1) 
-8.6300000000000008

>  <m_primary>  (1) 
energy

$$$$
1:0
     RDKit          3D

 44 46  0  0  0  0  0  0  0  0999 V2000
   -1.0580   19.0540  -33.1630 C   0  0  0  0  0  0  0  0  0  0  0  0
   -1.1710   19.9010  -34.4290 C   0  0  0  0  0  0  0  0  0  0  0  0
   -1.8540   21.1730  -34.1490 N   0  0  0  0  0  0  0  0  0  0  0  0
   -1.9910   21.3810  -32.6980 C   0  0  0  0  0  0  0  0  0  0  0  0
   -3.3890   21.9050  -32.3360 C   0  0  0  0  0  0  0  0  0  0  0  0
   -4.3690   21.5430  -33.3620 N   0  0  0  0  0  0  0  0  0  0  0  0
   -5.5470   20.7720  -33.0600 C   0  0  0  0  0  0  0  0  0  0  0  0
   -6.6990   21.3990  -32.5490 C   0  0  0  0  0  0  0  0  0  0  0  0
   -6.7020   22.7810  -32.2580 C   0  0  0  0  0  0  0  0  0  0  0  0
   -7.8640   23.4150  -31.8210 C   0  0  0  0  0  0  0  0  0  0  0  0
   -9.0370   22.6880  -31.6700 C   0  0  0  0  0  0  0  0  0  0  0  0
   -9.0460   21.3150  -31.9100 C   0  0  0  0  0  0  0  0  0  0  0  0
   -7.8680   20.6310  -32.3050 C   0  0  0  0  0  0  0  0  0  0  0  0
   -7.8410   19.2560  -32.4590 N   0  0  0  0  0  0  0  0  0  0  0  0
   -8.9560   18.4320  -31.9390 C   0  0  0  0  0  0  0  0  0  0  0  0
   -6.7570   18.6470  -33.0640 C   0  0  0  0  0  0  0  0  0  0  0  0
   -6.7960   17.2880  -33.4690 C   0  0  0  0  0  0  0  0  0  0  0  0
   -5.6830   16.6720  -34.0380 C   0  0  0  0  0  0  0  0  0  0  0  0
   -4.5080   17.3890  -34.2300 C   0  0  0  0  0  0  0  0  0  0  0  0
   -3.1130   16.6120  -34.9560 Cl  0  0  0  0  0  0  0  0  0  0  0  0
   -4.4490   18.7360  -33.8760 C   0  0  0  0  0  0  0  0  0  0  0  0
   -5.5730   19.3890  -33.3220 C   0  0  0  0  0  0  0  0  0  0  0  0
   -1.1445   19.7027  -32.2789 H   0  0  0  0  0  0  0  0  0  0  0  0
   -1.8643   18.3059  -33.1492 H   0  0  0  0  0  0  0  0  0  0  0  0
   -0.0838   18.5434  -33.1492 H   0  0  0  0  0  0  0  0  0  0  0  0
   -0.1619   20.1108  -34.8134 H   0  0  0  0  0  0  0  0  0  0  0  0
   -1.7573   19.3434  -35.1743 H   0  0  0  0  0  0  0  0  0  0  0  0
   -2.7950   21.1600  -34.6020 H   0  0  0  0  0  0  0  0  0  0  0  0
   -1.2960   21.9600  -34.5540 H   0  0  0  0  0  0  0  0  0  0  0  0
   -1.8228   20.4243  -32.1819 H   0  0  0  0  0  0  0  0  0  0  0  0
   -1.2488   22.1298  -32.3842 H   0  0  0  0  0  0  0  0  0  0  0  0
   -3.6981   21.4696  -31.3743 H   0  0  0  0  0  0  0  0  0  0  0  0
   -3.3442   23.0019  -32.2669 H   0  0  0  0  0  0  0  0  0  0  0  0
   -4.3220   22.0410  -34.2800 H   0  0  0  0  0  0  0  0  0  0  0  0
   -5.7768   23.3638  -32.3776 H   0  0  0  0  0  0  0  0  0  0  0  0
   -7.8515   24.4916  -31.5957 H   0  0  0  0  0  0  0  0  0  0  0  0
   -9.9617   23.1968  -31.3602 H   0  0  0  0  0  0  0  0  0  0  0  0
   -9.9834   20.7519  -31.7909 H   0  0  0  0  0  0  0  0  0  0  0  0
   -8.9392   18.4444  -30.8392 H   0  0  0  0  0  0  0  0  0  0  0  0
   -9.9123   18.8420  -32.2958 H   0  0  0  0  0  0  0  0  0  0  0  0
   -8.8448   17.3974  -32.2958 H   0  0  0  0  0  0  0  0  0  0  0  0
   -7.7217   16.7099  -33.3314 H   0  0  0  0  0  0  0  0  0  0  0  0
   -5.7346   15.6145  -34.3362 H   0  0  0  0  0  0  0  0  0  0  0  0
   -3.5158   19.2976  -34.0299 H   0  0  0  0  0  0  0  0  0  0  0  0
  1  2  1  0
  2  3  1  0
  3  4  1  0
  4  5  1  0
  5  6  1  0
  6  7  1  0
  7  8  2  0
  8  9  1  0
  9 10  2  0
 10 11  1  0
 11 12  2  0
 12 13  1  0
 13 14  2  0
 14 15  1  0
 14 16  1  0
 16 17  2  0
 17 18  1  0
 18 19  2  0
 19 20  1  0
 19 21  1  0
 21 22  2  0
 22  7  1  0
 13  8  1  0
 22 16  1  0
  1 23  1  0
  1 24  1  0
  1 25  1  0
  2 26  1  0
  2 27  1  0
  3 28  1  0
  3 29  1  0
  4 30  1  0
  4 31  1  0
  5 32  1  0
  5 33  1  0
  6 34  1  0
  9 35  1  0
 10 36  1  0
 11 37  1  0
 12 38  1  0
 15 39  1  0
 15 40  1  0
 15 41  1  0
 17 42  1  0
 18 43  1  0
 21 44  1  0
M  CHG  2   3   1  14   1
M  END
>  <UniqueID>  (2) 
2

>  <SMILES>  (2) 
CC[NH2+]CCNc1c2ccccc2[n+](C)c2ccc(Cl)cc12

>  <Energy>  (2) 
66.08948565687662

>  <Genealogy>  (2) 
CC[NH2+]CCNc1c2ccccc2[n+](C)c2ccc(Cl)cc12 (protonated)
CC[NH2+]CCNc1c2ccccc2[n+](C)c2ccc(Cl)cc12 (3D coordinates assigned)
CC[NH2+]CCNc1c2ccccc2[n+](C)c2ccc(Cl)cc12 (optimized conformer: 66.08948565687662 kcal/mol)

>  <smiles>  (2) 
CCNCCNc1c2ccccc2[n+](C)c2ccc(Cl)cc12

>  <score_type>  (2) 
oracle

>  <origin>  (2) 
adg

>  <m_score__min__energy>  (2) 
-7.7599999999999998

>  <m_primary>  (2) 
energy

$$$$
2:0
     RDKit          3D

 47 49  0  0  0  0  0  0  0  0999 V2000
   -3.8920   25.2810  -30.8400 O   0  0  0  0  0  0  0  0  0  0  0  0
   -3.4030   24.6620  -29.8580 C   0  0  0  0  0  0  0  0  0  0  0  0
   -3.9630   23.3140  -29.4870 C   0  0  0  0  0  0  0  0  0  0  0  0
   -4.2210   22.5100  -30.6950 N   0  0  0  0  0  0  0  0  0  0  0  0
   -3.1260   21.8410  -31.3560 C   0  0  0  0  0  0  0  0  0  0  0  0
   -1.9650   21.8600  -30.8640 O   0  0  0  0  0  0  0  0  0  0  0  0
   -3.3520   21.1640  -32.6740 C   0  0  0  0  0  0  0  0  0  0  0  0
   -4.6720   20.6350  -32.7540 O   0  0  0  0  0  0  0  0  0  0  0  0
   -5.7690   21.2710  -32.1640 C   0  0  0  0  0  0  0  0  0  0  0  0
   -7.0620   20.9200  -32.5670 C   0  0  0  0  0  0  0  0  0  0  0  0
   -8.1690   21.5480  -31.9940 C   0  0  0  0  0  0  0  0  0  0  0  0
   -7.9880   22.5280  -31.0160 C   0  0  0  0  0  0  0  0  0  0  0  0
   -6.7000   22.8750  -30.6000 C   0  0  0  0  0  0  0  0  0  0  0  0
   -5.5700   22.2410  -31.1590 C   0  0  0  0  0  0  0  0  0  0  0  0
   -2.3670   25.2940  -29.0970 N   0  0  0  0  0  0  0  0  0  0  0  0
   -0.9970   24.8100  -28.9790 C   0  0  0  0  0  0  0  0  0  0  0  0
   -0.9350   23.6200  -28.0150 C   0  0  0  0  0  0  0  0  0  0  0  0
   -0.1930   22.3880  -28.5810 C   0  0  0  0  0  0  0  0  0  0  0  0
   -0.8540   21.0950  -28.2440 N   0  0  0  0  0  0  0  0  0  0  0  0
   -1.6050   21.1870  -26.9740 C   0  0  0  0  0  0  0  0  0  0  0  0
   -2.3180   19.8520  -26.6610 C   0  0  0  0  0  0  0  0  0  0  0  0
   -1.8810   18.7940  -27.4970 O   0  0  0  0  0  0  0  0  0  0  0  0
   -0.4690   18.7350  -27.4980 C   0  0  0  0  0  0  0  0  0  0  0  0
    0.1410   20.0010  -28.1410 C   0  0  0  0  0  0  0  0  0  0  0  0
   -3.2401   22.7854  -28.8483 H   0  0  0  0  0  0  0  0  0  0  0  0
   -4.9109   23.4595  -28.9483 H   0  0  0  0  0  0  0  0  0  0  0  0
   -3.2071   21.8944  -33.4836 H   0  0  0  0  0  0  0  0  0  0  0  0
   -2.6349   20.3355  -32.7710 H   0  0  0  0  0  0  0  0  0  0  0  0
   -7.2064   20.1477  -33.3369 H   0  0  0  0  0  0  0  0  0  0  0  0
   -9.1845   21.2707  -32.3131 H   0  0  0  0  0  0  0  0  0  0  0  0
   -8.8614   23.0280  -30.5720 H   0  0  0  0  0  0  0  0  0  0  0  0
   -6.5657   23.6491  -29.8301 H   0  0  0  0  0  0  0  0  0  0  0  0
   -0.6371   24.4941  -29.9693 H   0  0  0  0  0  0  0  0  0  0  0  0
   -0.3634   25.6202  -28.5889 H   0  0  0  0  0  0  0  0  0  0  0  0
   -0.4187   23.9437  -27.0992 H   0  0  0  0  0  0  0  0  0  0  0  0
   -1.9732   23.3076  -27.8292 H   0  0  0  0  0  0  0  0  0  0  0  0
   -0.1464   22.4812  -29.6760 H   0  0  0  0  0  0  0  0  0  0  0  0
    0.8071   22.3715  -28.1233 H   0  0  0  0  0  0  0  0  0  0  0  0
   -1.5220   20.8320  -29.0080 H   0  0  0  0  0  0  0  0  0  0  0  0
   -0.9062   21.4228  -26.1579 H   0  0  0  0  0  0  0  0  0  0  0  0
   -2.3632   21.9783  -27.0689 H   0  0  0  0  0  0  0  0  0  0  0  0
   -2.1157   19.5810  -25.6143 H   0  0  0  0  0  0  0  0  0  0  0  0
   -3.3934   19.9974  -26.8406 H   0  0  0  0  0  0  0  0  0  0  0  0
   -0.1123   18.6515  -26.4608 H   0  0  0  0  0  0  0  0  0  0  0  0
   -0.1566   17.8596  -28.0863 H   0  0  0  0  0  0  0  0  0  0  0  0
    0.9851   20.3432  -27.5242 H   0  0  0  0  0  0  0  0  0  0  0  0
    0.4753   19.7436  -29.1569 H   0  0  0  0  0  0  0  0  0  0  0  0
  1  2  2  0
  2  3  1  0
  3  4  1  0
  4  5  1  0
  5  6  2  0
  5  7  1  0
  7  8  1  0
  8  9  1  0
  9 10  2  0
 10 11  1  0
 11 12  2  0
 12 13  1  0
 13 14  2  0
  2 15  1  0
 15 16  1  0
 16 17  1  0
 17 18  1  0
 18 19  1  0
 19 20  1  0
 20 21  1  0
 21 22  1  0
 22 23  1  0
 23 24  1  0
 14  4  1  0
 24 19  1  0
 14  9  1  0
  3 25  1  0
  3 26  1  0
  7 27  1  0
  7 28  1  0
 10 29  1  0
 11 30  1  0
 12 31  1  0
 13 32  1  0
 16 33  1  0
 16 34  1  0
 17 35  1  0
 17 36  1  0
 18 37  1  0
 18 38  1  0
 19 39  1  0
 20 40  1  0
 20 41  1  0
 21 42  1  0
 21 43  1  0
 23 44  1  0
 23 45  1  0
 24 46  1  0
 24 47  1  0
M  CHG  2  15  -1  19   1
M  END
>  <UniqueID>  (3) 
3

>  <SMILES>  (3) 
O=C(CN1C(=O)COc2ccccc21)[N-]CCC[NH+]1CCOCC1

>  <Energy>  (3) 
59.5795828139684

>  <Genealogy>  (3) 
O=C(CN1C(=O)COc2ccccc21)[N-]CCC[NH+]1CCOCC1 (protonated)
O=C(CN1C(=O)COc2ccccc21)[N-]CCC[NH+]1CCOCC1 (3D coordinates assigned)
O=C(CN1C(=O)COc2ccccc21)[N-]CCC[NH+]1CCOCC1 (nonaromatic ring conformer: 59.5795828139684 kcal/mol)

>  <smiles>  (3) 
O=C(CN1C(=O)COc2ccccc21)NCCCN1CCOCC1

>  <score_type>  (3) 
oracle

>  <origin>  (3) 
adg

>  <m_score__min__energy>  (3) 
-7.8200000000000003

>  <m_primary>  (3) 
energy

$$$$
3:0
     RDKit          3D

 72 75  0  0  0  0  0  0  0  0999 V2000
   -5.4250   25.3120  -30.8410 C   0  0  0  0  0  0  0  0  0  0  0  0
   -5.9530   23.9600  -31.2180 C   0  0  0  0  0  0  0  0  0  0  0  0
   -7.2390   23.5710  -30.8400 C   0  0  0  0  0  0  0  0  0  0  0  0
   -7.7100   22.2960  -31.1470 C   0  0  0  0  0  0  0  0  0  0  0  0
   -6.8960   21.3570  -31.8270 C   0  0  0  0  0  0  0  0  0  0  0  0
   -5.6090   21.7750  -32.2550 C   0  0  0  0  0  0  0  0  0  0  0  0
   -5.1390   23.0600  -31.9110 C   0  0  0  0  0  0  0  0  0  0  0  0
   -4.8060   20.8860  -32.9910 C   0  0  0  0  0  0  0  0  0  0  0  0
   -3.4280   21.2080  -33.2540 N   0  0  0  0  0  0  0  0  0  0  0  0
   -2.4240   21.2590  -32.1860 C   0  0  0  0  0  0  0  0  0  0  0  0
   -0.9940   21.1580  -32.7440 C   0  0  0  0  0  0  0  0  0  0  0  0
   -0.9900   20.9370  -34.2070 N   0  0  0  0  0  0  0  0  0  0  0  0
    0.1720   21.5770  -34.8500 C   0  0  0  0  0  0  0  0  0  0  0  0
   -0.9950   19.4970  -34.5110 C   0  0  0  0  0  0  0  0  0  0  0  0
   -5.3470   19.6630  -33.4200 C   0  0  0  0  0  0  0  0  0  0  0  0
   -4.6450   18.8450  -34.3250 C   0  0  0  0  0  0  0  0  0  0  0  0
   -5.1650   17.6200  -34.7260 C   0  0  0  0  0  0  0  0  0  0  0  0
   -6.4000   17.1850  -34.2570 C   0  0  0  0  0  0  0  0  0  0  0  0
   -6.8400   15.9110  -34.6560 O   0  0  0  0  0  0  0  0  0  0  0  0
   -6.6340   14.6890  -33.9480 C   0  0  0  0  0  0  0  0  0  0  0  0
   -5.5650   13.7840  -34.6130 C   0  0  0  0  0  0  0  0  0  0  0  0
   -4.2760   13.4680  -33.8680 N   0  0  0  0  0  0  0  0  0  0  0  0
   -3.1910   13.4320  -34.8900 C   0  0  0  0  0  0  0  0  0  0  0  0
   -3.8430   14.4700  -32.8360 C   0  0  0  0  0  0  0  0  0  0  0  0
   -4.5950   14.3980  -31.4890 C   0  0  0  0  0  0  0  0  0  0  0  0
   -4.6720   12.9730  -30.9470 C   0  0  0  0  0  0  0  0  0  0  0  0
   -5.1860   12.0110  -32.0110 C   0  0  0  0  0  0  0  0  0  0  0  0
   -4.3180   12.0980  -33.2670 C   0  0  0  0  0  0  0  0  0  0  0  0
   -7.1450   18.0200  -33.4040 C   0  0  0  0  0  0  0  0  0  0  0  0
   -6.6220   19.2570  -32.9460 C   0  0  0  0  0  0  0  0  0  0  0  0
   -7.3180   20.0610  -32.0600 N   0  0  0  0  0  0  0  0  0  0  0  0
   -8.4950   19.5240  -31.3360 C   0  0  0  0  0  0  0  0  0  0  0  0
   -5.3907   25.3997  -29.7450 H   0  0  0  0  0  0  0  0  0  0  0  0
   -4.4119   25.4373  -31.2507 H   0  0  0  0  0  0  0  0  0  0  0  0
   -6.0851   26.0907  -31.2507 H   0  0  0  0  0  0  0  0  0  0  0  0
   -7.8851   24.2757  -30.2960 H   0  0  0  0  0  0  0  0  0  0  0  0
   -8.7325   22.0135  -30.8560 H   0  0  0  0  0  0  0  0  0  0  0  0
   -4.1180   23.3575  -32.1921 H   0  0  0  0  0  0  0  0  0  0  0  0
   -3.1610   21.5380  -34.2090 H   0  0  0  0  0  0  0  0  0  0  0  0
   -2.5286   22.2102  -31.6435 H   0  0  0  0  0  0  0  0  0  0  0  0
   -2.5920   20.4027  -31.5163 H   0  0  0  0  0  0  0  0  0  0  0  0
   -0.4588   22.0934  -32.5236 H   0  0  0  0  0  0  0  0  0  0  0  0
   -0.5004   20.2986  -32.2668 H   0  0  0  0  0  0  0  0  0  0  0  0
    0.8572   21.9544  -34.0767 H   0  0  0  0  0  0  0  0  0  0  0  0
    0.6962   20.8404  -35.4765 H   0  0  0  0  0  0  0  0  0  0  0  0
   -0.1704   22.4138  -35.4765 H   0  0  0  0  0  0  0  0  0  0  0  0
   -0.9970   18.9240  -33.5720 H   0  0  0  0  0  0  0  0  0  0  0  0
   -1.8940   19.2485  -35.0941 H   0  0  0  0  0  0  0  0  0  0  0  0
   -0.0977   19.2422  -35.0941 H   0  0  0  0  0  0  0  0  0  0  0  0
   -3.6739   19.1789  -34.7194 H   0  0  0  0  0  0  0  0  0  0  0  0
   -4.5937   16.9878  -35.4217 H   0  0  0  0  0  0  0  0  0  0  0  0
   -6.3070   14.9261  -32.9249 H   0  0  0  0  0  0  0  0  0  0  0  0
   -7.5858   14.1376  -33.9538 H   0  0  0  0  0  0  0  0  0  0  0  0
   -6.0519   12.8219  -34.8304 H   0  0  0  0  0  0  0  0  0  0  0  0
   -5.2246   14.3791  -35.4732 H   0  0  0  0  0  0  0  0  0  0  0  0
   -2.2137   13.3996  -34.3862 H   0  0  0  0  0  0  0  0  0  0  0  0
   -3.3092   12.5373  -35.5189 H   0  0  0  0  0  0  0  0  0  0  0  0
   -3.2496   14.3326  -35.5189 H   0  0  0  0  0  0  0  0  0  0  0  0
   -2.7729   14.3115  -32.6366 H   0  0  0  0  0  0  0  0  0  0  0  0
   -4.0710   15.4596  -33.2588 H   0  0  0  0  0  0  0  0  0  0  0  0
   -4.0698   15.0279  -30.7560 H   0  0  0  0  0  0  0  0  0  0  0  0
   -5.6231   14.7514  -31.6569 H   0  0  0  0  0  0  0  0  0  0  0  0
   -3.6684   12.6545  -30.6287 H   0  0  0  0  0  0  0  0  0  0  0  0
   -5.3688   12.9590  -30.0959 H   0  0  0  0  0  0  0  0  0  0  0  0
   -5.1541   10.9841  -31.6180 H   0  0  0  0  0  0  0  0  0  0  0  0
   -6.2199   12.2826  -32.2703 H   0  0  0  0  0  0  0  0  0  0  0  0
   -3.2921   11.8018  -33.0028 H   0  0  0  0  0  0  0  0  0  0  0  0
   -4.7647   11.4285  -34.0169 H   0  0  0  0  0  0  0  0  0  0  0  0
   -8.1510   17.7082  -33.0865 H   0  0  0  0  0  0  0  0  0  0  0  0
   -8.3253   19.6014  -30.2519 H   0  0  0  0  0  0  0  0  0  0  0  0
   -9.3893   20.1032  -31.6094 H   0  0  0  0  0  0  0  0  0  0  0  0
   -8.6437   18.4690  -31.6094 H   0  0  0  0  0  0  0  0  0  0  0  0
  1  2  1  0
  2  3  2  0
  3  4  1  0
  4  5  2  0
  5  6  1  0
  6  7  2  0
  6  8  1  0
  8  9  1  0
  9 10  1  0
 10 11  1  0
 11 12  1  0
 12 13  1  0
 12 14  1  0
  8 15  2  0
 15 16  1  0
 16 17  2  0
 17 18  1  0
 18 19  1  0
 19 20  1  0
 20 21  1  0
 21 22  1  0
 22 23  1  0
 22 24  1  0
 24 25  1  0
 25 26  1  0
 26 27  1  0
 27 28  1  0
 18 29  2  0
 29 30  1  0
 30 31  2  0
 31 32  1  0
  7  2  1  0
 30 15  1  0
 31  5  1  0
 28 22  1  0
  1 33  1  0
  1 34  1  0
  1 35  1  0
  3 36  1  0
  4 37  1  0
  7 38  1  0
  9 39  1  0
 10 40  1  0
 10 41  1  0
 11 42  1  0
 11 43  1  0
 13 44  1  0
 13 45  1  0
 13 46  1  0
 14 47  1  0
 14 48  1  0
 14 49  1  0
 16 50  1  0
 17 51  1  0
 20 52  1  0
 20 53  1  0
 21 54  1  0
 21 55  1  0
 23 56  1  0
 23 57  1  0
 23 58  1  0
 24 59  1  0
 24 60  1  0
 25 61  1  0
 25 62  1  0
 26 63  1  0
 26 64  1  0
 27 65  1  0
 27 66  1  0
 28 67  1  0
 28 68  1  0
 29 69  1  0
 32 70  1  0
 32 71  1  0
 32 72  1  0
M  CHG  2  22   1  31   1
M  END
>  <UniqueID>  (4) 
4

>  <SMILES>  (4) 
Cc1ccc2c(c1)c(NCCN(C)C)c1ccc(OCC[N+]3(C)CCCCC3)cc1[n+]2C

>  <Energy>  (4) 
116.89465092694842

>  <Genealogy>  (4) 
Cc1ccc2c(c1)c(NCCN(C)C)c1ccc(OCC[N+]3(C)CCCCC3)cc1[n+]2C (3D coordinates assigned)
Cc1ccc2c(c1)c(NCCN(C)C)c1ccc(OCC[N+]3(C)CCCCC3)cc1[n+]2C (nonaromatic ring conformer: 116.89465092694842 kcal/mol)

>  <smiles>  (4) 
Cc1ccc2c(c1)c(NCCN(C)C)c1ccc(OCC[N+]3(C)CCCCC3)cc1[n+]2C

>  <score_type>  (4) 
oracle

>  <origin>  (4) 
adg

>  <m_score__min__energy>  (4) 
-8.0999999999999996

>  <m_primary>  (4) 
energy

$$$$
4:0
     RDKit          3D

 42 43  0  0  0  0  0  0  0  0999 V2000
   -3.3090   23.2880  -29.2350 C   0  0  0  0  0  0  0  0  0  0  0  0
   -3.4630   23.8610  -30.6460 C   0  0  0  0  0  0  0  0  0  0  0  0
   -4.0210   25.2270  -30.6390 N   0  0  0  0  0  0  0  0  0  0  0  0
   -5.3790   25.3010  -30.0780 C   0  0  0  0  0  0  0  0  0  0  0  0
   -6.2830   24.2320  -30.6390 C   0  0  0  0  0  0  0  0  0  0  0  0
   -6.8730   23.2820  -29.7910 C   0  0  0  0  0  0  0  0  0  0  0  0
   -7.6530   22.2520  -30.3210 C   0  0  0  0  0  0  0  0  0  0  0  0
   -7.8290   22.1360  -31.7090 C   0  0  0  0  0  0  0  0  0  0  0  0
   -8.6740   21.0220  -32.2820 C   0  0  0  0  0  0  0  0  0  0  0  0
   -7.9220   19.9690  -33.0150 N   0  0  0  0  0  0  0  0  0  0  0  0
   -6.4950   20.2910  -33.2830 C   0  0  0  0  0  0  0  0  0  0  0  0
   -5.5170   19.7800  -32.2130 C   0  0  0  0  0  0  0  0  0  0  0  0
   -5.7410   18.3020  -31.9340 C   0  0  0  0  0  0  0  0  0  0  0  0
   -7.1760   18.0810  -31.4810 C   0  0  0  0  0  0  0  0  0  0  0  0
   -8.1720   18.5800  -32.5400 C   0  0  0  0  0  0  0  0  0  0  0  0
   -7.2840   23.1190  -32.5520 C   0  0  0  0  0  0  0  0  0  0  0  0
   -6.5050   24.1510  -32.0220 C   0  0  0  0  0  0  0  0  0  0  0  0
   -3.5202   24.0740  -28.4950 H   0  0  0  0  0  0  0  0  0  0  0  0
   -4.0154   22.4560  -29.0980 H   0  0  0  0  0  0  0  0  0  0  0  0
   -2.2807   22.9222  -29.0980 H   0  0  0  0  0  0  0  0  0  0  0  0
   -2.4743   23.8854  -31.1275 H   0  0  0  0  0  0  0  0  0  0  0  0
   -4.1627   23.2150  -31.1965 H   0  0  0  0  0  0  0  0  0  0  0  0
   -4.0000   25.6580  -31.5940 H   0  0  0  0  0  0  0  0  0  0  0  0
   -5.3192   25.1782  -28.9865 H   0  0  0  0  0  0  0  0  0  0  0  0
   -5.8039   26.2795  -30.3465 H   0  0  0  0  0  0  0  0  0  0  0  0
   -6.7203   23.3490  -28.7037 H   0  0  0  0  0  0  0  0  0  0  0  0
   -8.1325   21.5271  -29.6468 H   0  0  0  0  0  0  0  0  0  0  0  0
   -9.2111   20.5407  -31.4514 H   0  0  0  0  0  0  0  0  0  0  0  0
   -9.3387   21.4927  -33.0213 H   0  0  0  0  0  0  0  0  0  0  0  0
   -8.3680   19.9920  -33.9640 H   0  0  0  0  0  0  0  0  0  0  0  0
   -6.2160   19.8410  -34.2472 H   0  0  0  0  0  0  0  0  0  0  0  0
   -6.4153   21.3881  -33.2828 H   0  0  0  0  0  0  0  0  0  0  0  0
   -4.4862   19.9273  -32.5676 H   0  0  0  0  0  0  0  0  0  0  0  0
   -5.6879   20.3428  -31.2834 H   0  0  0  0  0  0  0  0  0  0  0  0
   -5.5531   17.7237  -32.8506 H   0  0  0  0  0  0  0  0  0  0  0  0
   -5.0526   17.9708  -31.1426 H   0  0  0  0  0  0  0  0  0  0  0  0
   -7.3385   17.0061  -31.3128 H   0  0  0  0  0  0  0  0  0  0  0  0
   -7.3407   18.6461  -30.5518 H   0  0  0  0  0  0  0  0  0  0  0  0
   -8.1187   17.9053  -33.4071 H   0  0  0  0  0  0  0  0  0  0  0  0
   -9.1621   18.5860  -32.0608 H   0  0  0  0  0  0  0  0  0  0  0  0
   -7.4715   23.0760  -33.6350 H   0  0  0  0  0  0  0  0  0  0  0  0
   -6.0638   24.9034  -32.6922 H   0  0  0  0  0  0  0  0  0  0  0  0
  1  2  1  0
  2  3  1  0
  3  4  1  0
  4  5  1  0
  5  6  2  0
  6  7  1  0
  7  8  2  0
  8  9  1  0
  9 10  1  0
 10 11  1  0
 11 12  1  0
 12 13  1  0
 13 14  1  0
 14 15  1  0
  8 16  1  0
 16 17  2  0
 17  5  1  0
 15 10  1  0
  1 18  1  0
  1 19  1  0
  1 20  1  0
  2 21  1  0
  2 22  1  0
  3 23  1  0
  4 24  1  0
  4 25  1  0
  6 26  1  0
  7 27  1  0
  9 28  1  0
  9 29  1  0
 10 30  1  0
 11 31  1  0
 11 32  1  0
 12 33  1  0
 12 34  1  0
 13 35  1  0
 13 36  1  0
 14 37  1  0
 14 38  1  0
 15 39  1  0
 15 40  1  0
 16 41  1  0
 17 42  1  0
M  CHG  1  10   1
M  END
>  <UniqueID>  (5) 
5

>  <SMILES>  (5) 
CCNCc1ccc(C[NH+]2CCCCC2)cc1

>  <Energy>  (5) 
45.46561903866777

>  <Genealogy>  (5) 
CCNCc1ccc(C[NH+]2CCCCC2)cc1 (protonated)
CCNCc1ccc(C[NH+]2CCCCC2)cc1 (3D coordinates assigned)
CCNCc1ccc(C[NH+]2CCCCC2)cc1 (nonaromatic ring conformer: 45.46561903866777 kcal/mol)

>  <smiles>  (5) 
CCNCc1ccc(CN2CCCCC2)cc1

>  <score_type>  (5) 
oracle

>  <origin>  (5) 
adg

>  <m_score__min__energy>  (5) 
-7.5999999999999996

>  <m_primary>  (5) 
energy

$$$$
5:0
     RDKit          3D

 43 44  0  0  0  0  0  0  0  0999 V2000
   -7.1070   14.5830  -34.4040 C   0  0  0  0  0  0  0  0  0  0  0  0
   -6.0630   15.5580  -33.8480 C   0  0  0  0  0  0  0  0  0  0  0  0
   -6.5550   16.9600  -33.7700 N   0  0  0  0  0  0  0  0  0  0  0  0
   -5.7770   17.9060  -34.6170 C   0  0  0  0  0  0  0  0  0  0  0  0
   -4.2560   17.8300  -34.4260 C   0  0  0  0  0  0  0  0  0  0  0  0
   -6.6060   17.4320  -32.3580 C   0  0  0  0  0  0  0  0  0  0  0  0
   -7.8750   18.2440  -32.0260 C   0  0  0  0  0  0  0  0  0  0  0  0
   -8.0190   19.4080  -32.9000 N   0  0  0  0  0  0  0  0  0  0  0  0
   -7.7960   20.7370  -32.4120 C   0  0  0  0  0  0  0  0  0  0  0  0
   -8.8950   21.5210  -32.0500 C   0  0  0  0  0  0  0  0  0  0  0  0
   -8.7120   22.8210  -31.5850 C   0  0  0  0  0  0  0  0  0  0  0  0
   -7.4290   23.3470  -31.4470 C   0  0  0  0  0  0  0  0  0  0  0  0
   -6.2960   22.5690  -31.7630 C   0  0  0  0  0  0  0  0  0  0  0  0
   -4.9800   23.0810  -31.6170 C   0  0  0  0  0  0  0  0  0  0  0  0
   -4.7280   24.3700  -31.0360 N   0  0  0  0  0  0  0  0  0  0  0  0
   -5.5100   25.3180  -31.2580 O   0  0  0  0  0  0  0  0  0  0  0  0
   -3.5060   24.6390  -30.4620 O   0  0  0  0  0  0  0  0  0  0  0  0
   -3.8890   22.2990  -32.0290 C   0  0  0  0  0  0  0  0  0  0  0  0
   -4.0810   21.0180  -32.5400 C   0  0  0  0  0  0  0  0  0  0  0  0
   -5.3660   20.4920  -32.6540 C   0  0  0  0  0  0  0  0  0  0  0  0
   -6.4860   21.2530  -32.2740 C   0  0  0  0  0  0  0  0  0  0  0  0
   -7.6316   14.0930  -33.5705 H   0  0  0  0  0  0  0  0  0  0  0  0
   -7.8323   15.1346  -35.0202 H   0  0  0  0  0  0  0  0  0  0  0  0
   -6.6062   13.8217  -35.0202 H   0  0  0  0  0  0  0  0  0  0  0  0
   -5.7810   15.2294  -32.8368 H   0  0  0  0  0  0  0  0  0  0  0  0
   -5.2066   15.5495  -34.5384 H   0  0  0  0  0  0  0  0  0  0  0  0
   -7.5300   16.9700  -34.1540 H   0  0  0  0  0  0  0  0  0  0  0  0
   -6.0020   17.6875  -35.6713 H   0  0  0  0  0  0  0  0  0  0  0  0
   -6.0797   18.9189  -34.3129 H   0  0  0  0  0  0  0  0  0  0  0  0
   -4.0215   17.8183  -33.3513 H   0  0  0  0  0  0  0  0  0  0  0  0
   -3.8730   16.9116  -34.8949 H   0  0  0  0  0  0  0  0  0  0  0  0
   -3.7834   18.7056  -34.8949 H   0  0  0  0  0  0  0  0  0  0  0  0
   -6.5712   16.5542  -31.6960 H   0  0  0  0  0  0  0  0  0  0  0  0
   -5.7456   18.1011  -32.2093 H   0  0  0  0  0  0  0  0  0  0  0  0
   -8.7550   17.5955  -32.1488 H   0  0  0  0  0  0  0  0  0  0  0  0
   -7.7900   18.6029  -30.9897 H   0  0  0  0  0  0  0  0  0  0  0  0
   -8.5400   19.2940  -33.7980 H   0  0  0  0  0  0  0  0  0  0  0  0
   -9.9113   21.1085  -32.1329 H   0  0  0  0  0  0  0  0  0  0  0  0
   -9.5858   23.4365  -31.3250 H   0  0  0  0  0  0  0  0  0  0  0  0
   -7.2987   24.3787  -31.0882 H   0  0  0  0  0  0  0  0  0  0  0  0
   -2.8694   22.7036  -31.9470 H   0  0  0  0  0  0  0  0  0  0  0  0
   -3.2141   20.4186  -32.8551 H   0  0  0  0  0  0  0  0  0  0  0  0
   -5.5057   19.4732  -33.0444 H   0  0  0  0  0  0  0  0  0  0  0  0
  1  2  1  0
  2  3  1  0
  3  4  1  0
  4  5  1  0
  3  6  1  0
  6  7  1  0
  7  8  1  0
  8  9  1  0
  9 10  2  0
 10 11  1  0
 11 12  2  0
 12 13  1  0
 13 14  2  0
 14 15  1  0
 15 16  2  0
 15 17  1  0
 14 18  1  0
 18 19  2  0
 19 20  1  0
 20 21  2  0
 21  9  1  0
 21 13  1  0
  1 22  1  0
  1 23  1  0
  1 24  1  0
  2 25  1  0
  2 26  1  0
  3 27  1  0
  4 28  1  0
  4 29  1  0
  5 30  1  0
  5 31  1  0
  5 32  1  0
  6 33  1  0
  6 34  1  0
  7 35  1  0
  7 36  1  0
  8 37  1  0
 10 38  1  0
 11 39  1  0
 12 40  1  0
 18 41  1  0
 19 42  1  0
 20 43  1  0
M  CHG  3   3   1  15   1  17  -1
M  END
>  <UniqueID>  (6) 
6

>  <SMILES>  (6) 
CC[NH+](CC)CCNc1cccc2c([N+](=O)[O-])cccc12

>  <Energy>  (6) 
60.72432722893509

>  <Genealogy>  (6) 
CC[NH+](CC)CCNc1cccc2c([N+](=O)[O-])cccc12 (protonated)
CC[NH+](CC)CCNc1cccc2c([N+](=O)[O-])cccc12 (3D coordinates assigned)
CC[NH+](CC)CCNc1cccc2c([N+](=O)[O-])cccc12 (optimized conformer: 60.72432722893509 kcal/mol)

>  <smiles>  (6) 
CCN(CC)CCNc1cccc2c([N+](=O)[O-])cccc12

>  <score_type>  (6) 
oracle

>  <origin>  (6) 
adg

>  <m_score__min__energy>  (6) 
-7.6500000000000004

>  <m_primary>  (6) 
energy

$$$$
6:0
     RDKit          3D

 35 36  0  0  0  0  0  0  0  0999 V2000
   -3.9150   17.6490  -34.5880 C   0  0  0  0  0  0  0  0  0  0  0  0
   -3.2450   18.7660  -33.7800 C   0  0  0  0  0  0  0  0  0  0  0  0
   -4.2230   19.7500  -33.2750 N   0  0  0  0  0  0  0  0  0  0  0  0
   -3.5980   20.8380  -32.4910 C   0  0  0  0  0  0  0  0  0  0  0  0
   -4.1270   22.2380  -32.8700 C   0  0  0  0  0  0  0  0  0  0  0  0
   -5.3300   22.6030  -32.0920 N   0  0  0  0  0  0  0  0  0  0  0  0
   -5.3020   23.7270  -31.2960 C   0  0  0  0  0  0  0  0  0  0  0  0
   -4.2490   24.4200  -31.2140 O   0  0  0  0  0  0  0  0  0  0  0  0
   -6.4380   24.1220  -30.5670 C   0  0  0  0  0  0  0  0  0  0  0  0
   -6.4080   25.3600  -29.7110 C   0  0  0  0  0  0  0  0  0  0  0  0
   -7.6070   23.3650  -30.6620 C   0  0  0  0  0  0  0  0  0  0  0  0
   -7.6350   22.2240  -31.4630 C   0  0  0  0  0  0  0  0  0  0  0  0
   -8.7970   21.4480  -31.5720 C   0  0  0  0  0  0  0  0  0  0  0  0
   -8.7980   20.3130  -32.3820 C   0  0  0  0  0  0  0  0  0  0  0  0
   -7.6380   19.9640  -33.0730 C   0  0  0  0  0  0  0  0  0  0  0  0
   -6.5210   20.7280  -32.9570 N   0  0  0  0  0  0  0  0  0  0  0  0
   -6.4770   21.8470  -32.1770 C   0  0  0  0  0  0  0  0  0  0  0  0
   -4.3565   16.9130  -33.9000 H   0  0  0  0  0  0  0  0  0  0  0  0
   -4.7049   18.0782  -35.2219 H   0  0  0  0  0  0  0  0  0  0  0  0
   -3.1645   17.1542  -35.2219 H   0  0  0  0  0  0  0  0  0  0  0  0
   -2.7187   18.3179  -32.9243 H   0  0  0  0  0  0  0  0  0  0  0  0
   -2.5469   19.2939  -34.4464 H   0  0  0  0  0  0  0  0  0  0  0  0
   -4.7560   20.1450  -34.0830 H   0  0  0  0  0  0  0  0  0  0  0  0
   -4.9280   19.2610  -32.6760 H   0  0  0  0  0  0  0  0  0  0  0  0
   -3.8027   20.6632  -31.4244 H   0  0  0  0  0  0  0  0  0  0  0  0
   -2.5203   20.8238  -32.7110 H   0  0  0  0  0  0  0  0  0  0  0  0
   -3.3390   22.9804  -32.6753 H   0  0  0  0  0  0  0  0  0  0  0  0
   -4.4023   22.2212  -33.9349 H   0  0  0  0  0  0  0  0  0  0  0  0
   -6.4150   25.0720  -28.6494 H   0  0  0  0  0  0  0  0  0  0  0  0
   -5.4957   25.9345  -29.9291 H   0  0  0  0  0  0  0  0  0  0  0  0
   -7.2914   25.9781  -29.9291 H   0  0  0  0  0  0  0  0  0  0  0  0
   -8.5058   23.6685  -30.1052 H   0  0  0  0  0  0  0  0  0  0  0  0
   -9.7050   21.7333  -31.0205 H   0  0  0  0  0  0  0  0  0  0  0  0
   -9.7056   19.6985  -32.4751 H   0  0  0  0  0  0  0  0  0  0  0  0
   -7.6276   19.0691  -33.7126 H   0  0  0  0  0  0  0  0  0  0  0  0
  1  2  1  0
  2  3  1  0
  3  4  1  0
  4  5  1  0
  5  6  1  0
  6  7  1  0
  7  8  2  0
  7  9  1  0
  9 10  1  0
  9 11  2  0
 11 12  1  0
 12 13  2  0
 13 14  1  0
 14 15  2  0
 15 16  1  0
 16 17  2  0
 17  6  1  0
 17 12  1  0
  1 18  1  0
  1 19  1  0
  1 20  1  0
  2 21  1  0
  2 22  1  0
  3 23  1  0
  3 24  1  0
  4 25  1  0
  4 26  1  0
  5 27  1  0
  5 28  1  0
 10 29  1  0
 10 30  1  0
 10 31  1  0
 11 32  1  0
 13 33  1  0
 14 34  1  0
 15 35  1  0
M  CHG  1   3   1
M  END
>  <UniqueID>  (7) 
7

>  <SMILES>  (7) 
CC[NH2+]CCn1c(=O)c(C)cc2cccnc21

>  <Energy>  (7) 
40.86433113900971

>  <Genealogy>  (7) 
CC[NH2+]CCn1c(=O)c(C)cc2cccnc21 (protonated)
CC[NH2+]CCn1c(=O)c(C)cc2cccnc21 (3D coordinates assigned)
CC[NH2+]CCn1c(=O)c(C)cc2cccnc21 (optimized conformer: 40.86433113900971 kcal/mol)

>  <smiles>  (7) 
CCNCCn1c(=O)c(C)cc2cccnc21

>  <score_type>  (7) 
oracle

>  <origin>  (7) 
adg

>  <m_score__min__energy>  (7) 
-5.71

>  <m_primary>  (7) 
energy

$$$$
7:0
     RDKit          3D

 52 54  0  0  0  0  0  0  0  0999 V2000
   -9.4670   21.3890  -31.9700 C   0  0  0  0  0  0  0  0  0  0  0  0
   -8.0030   21.0050  -32.2420 C   0  0  0  0  0  0  0  0  0  0  0  0
   -7.8080   19.8120  -33.1170 N   0  0  0  0  0  0  0  0  0  0  0  0
   -7.9920   18.5210  -32.4060 C   0  0  0  0  0  0  0  0  0  0  0  0
   -7.1330   17.3880  -32.9800 C   0  0  0  0  0  0  0  0  0  0  0  0
   -6.4950   19.8180  -33.8230 C   0  0  0  0  0  0  0  0  0  0  0  0
   -5.2960   20.1290  -32.9040 C   0  0  0  0  0  0  0  0  0  0  0  0
   -4.8490   21.5160  -33.0430 N   0  0  0  0  0  0  0  0  0  0  0  0
   -4.0740   22.1250  -32.0000 C   0  0  0  0  0  0  0  0  0  0  0  0
   -2.7660   21.6720  -31.7620 C   0  0  0  0  0  0  0  0  0  0  0  0
   -2.1190   20.8100  -32.6740 C   0  0  0  0  0  0  0  0  0  0  0  0
   -0.7990   20.4140  -32.4660 C   0  0  0  0  0  0  0  0  0  0  0  0
   -0.1030   20.8720  -31.3540 C   0  0  0  0  0  0  0  0  0  0  0  0
   -0.7340   21.6950  -30.4220 C   0  0  0  0  0  0  0  0  0  0  0  0
   -2.0910   22.0760  -30.5840 C   0  0  0  0  0  0  0  0  0  0  0  0
   -2.7630   22.8040  -29.6220 N   0  0  0  0  0  0  0  0  0  0  0  0
   -2.2010   22.9140  -28.2560 C   0  0  0  0  0  0  0  0  0  0  0  0
   -3.9700   23.4090  -29.9270 C   0  0  0  0  0  0  0  0  0  0  0  0
   -4.5660   24.3440  -29.0460 C   0  0  0  0  0  0  0  0  0  0  0  0
   -5.7980   24.9210  -29.3330 C   0  0  0  0  0  0  0  0  0  0  0  0
   -6.4350   24.6450  -30.5330 C   0  0  0  0  0  0  0  0  0  0  0  0
   -5.8490   23.7930  -31.4720 C   0  0  0  0  0  0  0  0  0  0  0  0
   -6.4350   23.7480  -32.7790 N   0  0  0  0  0  0  0  0  0  0  0  0
   -4.6380   23.1080  -31.1520 C   0  0  0  0  0  0  0  0  0  0  0  0
   -9.6386   21.4340  -30.8844 H   0  0  0  0  0  0  0  0  0  0  0  0
   -9.6769   22.3726  -32.4155 H   0  0  0  0  0  0  0  0  0  0  0  0
  -10.1327   20.6351  -32.4155 H   0  0  0  0  0  0  0  0  0  0  0  0
   -7.5104   21.8630  -32.7228 H   0  0  0  0  0  0  0  0  0  0  0  0
   -7.5720   20.7393  -31.2654 H   0  0  0  0  0  0  0  0  0  0  0  0
   -8.5580   19.8520  -33.8460 H   0  0  0  0  0  0  0  0  0  0  0  0
   -7.7230   18.6626  -31.3488 H   0  0  0  0  0  0  0  0  0  0  0  0
   -9.0450   18.2273  -32.5285 H   0  0  0  0  0  0  0  0  0  0  0  0
   -6.6930   16.8077  -32.1556 H   0  0  0  0  0  0  0  0  0  0  0  0
   -7.7606   16.7291  -33.5981 H   0  0  0  0  0  0  0  0  0  0  0  0
   -6.3292   17.8144  -33.5981 H   0  0  0  0  0  0  0  0  0  0  0  0
   -6.3388   18.8267  -34.2735 H   0  0  0  0  0  0  0  0  0  0  0  0
   -6.5390   20.6197  -34.5749 H   0  0  0  0  0  0  0  0  0  0  0  0
   -5.5933   19.9538  -31.8595 H   0  0  0  0  0  0  0  0  0  0  0  0
   -4.4635   19.4711  -33.1942 H   0  0  0  0  0  0  0  0  0  0  0  0
   -4.9140   22.0020  -33.9660 H   0  0  0  0  0  0  0  0  0  0  0  0
   -2.6628   20.4469  -33.5586 H   0  0  0  0  0  0  0  0  0  0  0  0
   -0.3081   19.7388  -33.1823 H   0  0  0  0  0  0  0  0  0  0  0  0
    0.9488   20.5845  -31.2085 H   0  0  0  0  0  0  0  0  0  0  0  0
   -0.1712   22.0543  -29.5479 H   0  0  0  0  0  0  0  0  0  0  0  0
   -3.0005   22.7575  -27.5169 H   0  0  0  0  0  0  0  0  0  0  0  0
   -1.4200   22.1517  -28.1183 H   0  0  0  0  0  0  0  0  0  0  0  0
   -1.7651   23.9145  -28.1183 H   0  0  0  0  0  0  0  0  0  0  0  0
   -4.0445   24.6189  -28.1173 H   0  0  0  0  0  0  0  0  0  0  0  0
   -6.2688   25.5987  -28.6056 H   0  0  0  0  0  0  0  0  0  0  0  0
   -7.4123   25.1018  -30.7479 H   0  0  0  0  0  0  0  0  0  0  0  0
   -5.8320   23.8050  -33.6300 H   0  0  0  0  0  0  0  0  0  0  0  0
   -7.4090   23.4030  -32.9160 H   0  0  0  0  0  0  0  0  0  0  0  0
  1  2  1  0
  2  3  1  0
  3  4  1  0
  4  5  1  0
  3  6  1  0
  6  7  1  0
  7  8  1  0
  8  9  1  0
  9 10  2  0
 10 11  1  0
 11 12  2  0
 12 13  1  0
 13 14  2  0
 14 15  1  0
 15 16  2  0
 16 17  1  0
 16 18  1  0
 18 19  2  0
 19 20  1  0
 20 21  2  0
 21 22  1  0
 22 23  1  0
 22 24  2  0
 24  9  1  0
 15 10  1  0
 24 18  1  0
  1 25  1  0
  1 26  1  0
  1 27  1  0
  2 28  1  0
  2 29  1  0
  3 30  1  0
  4 31  1  0
  4 32  1  0
  5 33  1  0
  5 34  1  0
  5 35  1  0
  6 36  1  0
  6 37  1  0
  7 38  1  0
  7 39  1  0
  8 40  1  0
 11 41  1  0
 12 42  1  0
 13 43  1  0
 14 44  1  0
 17 45  1  0
 17 46  1  0
 17 47  1  0
 19 48  1  0
 20 49  1  0
 21 50  1  0
 23 51  1  0
 23 52  1  0
M  CHG  2   3   1  16   1
M  END
>  <UniqueID>  (8) 
8

>  <SMILES>  (8) 
CC[NH+](CC)CCNc1c2ccccc2[n+](C)c2cccc(N)c12

>  <Energy>  (8) 
90.51134638403954

>  <Genealogy>  (8) 
CC[NH+](CC)CCNc1c2ccccc2[n+](C)c2cccc(N)c12 (protonated)
CC[NH+](CC)CCNc1c2ccccc2[n+](C)c2cccc(N)c12 (3D coordinates assigned)
CC[NH+](CC)CCNc1c2ccccc2[n+](C)c2cccc(N)c12 (optimized conformer: 90.51134638403954 kcal/mol)

>  <smiles>  (8) 
CCN(CC)CCNc1c2ccccc2[n+](C)c2cccc(N)c12

>  <score_type>  (8) 
oracle

>  <origin>  (8) 
adg

>  <m_score__min__energy>  (8) 
-7.0300000000000002

>  <m_primary>  (8) 
energy

$$$$
8:0
     RDKit          3D

 39 40  0  0  1  0  0  0  0  0999 V2000
   -2.6210   19.2010  -33.9490 C   0  0  0  0  0  0  0  0  0  0  0  0
   -2.3570   20.6780  -33.7850 C   0  0  0  0  0  0  0  0  0  0  0  0
   -2.6800   21.1740  -32.4560 N   0  0  0  0  0  0  0  0  0  0  0  0
   -1.7340   21.1240  -31.3730 C   0  0  0  0  0  0  0  0  0  0  0  0
   -1.7440   22.3130  -30.4650 C   0  0  0  0  0  0  0  0  0  0  0  0
   -3.9960   21.7270  -32.2700 C   0  0  0  0  0  0  0  0  0  0  0  0
   -4.2070   23.0210  -31.9900 N   0  0  0  0  0  0  0  0  0  0  0  0
   -5.5090   23.4050  -31.8470 C   0  0  0  0  0  0  0  0  0  0  0  0
   -5.7970   24.6160  -31.5810 N   0  0  0  0  0  0  0  0  0  0  0  0
   -5.9140   25.1620  -30.2450 C   0  0  0  0  0  0  0  0  0  0  0  0
   -4.5590   24.8540  -29.5900 C   0  0  0  0  0  0  0  0  0  0  0  0
   -3.5400   25.2740  -30.4450 O   0  0  0  0  0  0  0  0  0  0  0  0
   -6.5530   22.5130  -31.9790 C   0  0  0  0  0  0  0  0  0  0  0  0
   -7.8680   22.9340  -31.8300 C   0  0  0  0  0  0  0  0  0  0  0  0
   -8.9210   22.0410  -31.9660 C   0  0  0  0  0  0  0  0  0  0  0  0
   -8.6200   20.7260  -32.2550 C   0  0  0  0  0  0  0  0  0  0  0  0
   -7.3160   20.2970  -32.4060 C   0  0  0  0  0  0  0  0  0  0  0  0
   -6.2890   21.1910  -32.2670 C   0  0  0  0  0  0  0  0  0  0  0  0
   -5.0110   20.8300  -32.4060 N   0  0  0  0  0  0  0  0  0  0  0  0
   -2.7050   18.7313  -32.9579 H   0  0  0  0  0  0  0  0  0  0  0  0
   -3.5594   19.0557  -34.5043 H   0  0  0  0  0  0  0  0  0  0  0  0
   -1.7911   18.7396  -34.5043 H   0  0  0  0  0  0  0  0  0  0  0  0
   -1.2907   20.8661  -33.9787 H   0  0  0  0  0  0  0  0  0  0  0  0
   -3.0063   21.2072  -34.4980 H   0  0  0  0  0  0  0  0  0  0  0  0
   -1.9551   20.2320  -30.7685 H   0  0  0  0  0  0  0  0  0  0  0  0
   -0.7374   21.1026  -31.8381 H   0  0  0  0  0  0  0  0  0  0  0  0
   -1.7412   21.9750  -29.4182 H   0  0  0  0  0  0  0  0  0  0  0  0
   -0.8510   22.9267  -30.6546 H   0  0  0  0  0  0  0  0  0  0  0  0
   -2.6472   22.9116  -30.6546 H   0  0  0  0  0  0  0  0  0  0  0  0
   -6.0917   26.2469  -30.2815 H   0  0  0  0  0  0  0  0  0  0  0  0
   -6.7585   24.7312  -29.6870 H   0  0  0  0  0  0  0  0  0  0  0  0
   -4.4815   25.3889  -28.6319 H   0  0  0  0  0  0  0  0  0  0  0  0
   -4.4703   23.7732  -29.4058 H   0  0  0  0  0  0  0  0  0  0  0  0
   -3.6470   24.9250  -31.3550 H   0  0  0  0  0  0  0  0  0  0  0  0
   -8.0774   23.9894  -31.6011 H   0  0  0  0  0  0  0  0  0  0  0  0
   -9.9635   22.3712  -31.8471 H   0  0  0  0  0  0  0  0  0  0  0  0
   -9.4394   20.0009  -32.3680 H   0  0  0  0  0  0  0  0  0  0  0  0
   -7.1039   19.2426  -32.6367 H   0  0  0  0  0  0  0  0  0  0  0  0
   -4.8310   19.8190  -32.6240 H   0  0  0  0  0  0  0  0  0  0  0  0
  1  2  1  0
  2  3  1  0
  3  4  1  0
  4  5  1  0
  3  6  1  0
  6  7  2  0
  7  8  1  0
  8  9  2  0
  9 10  1  0
 10 11  1  0
 11 12  1  0
  8 13  1  0
 13 14  2  0
 14 15  1  0
 15 16  2  0
 16 17  1  0
 17 18  2  0
 18 19  1  0
 19  6  1  0
 18 13  1  0
  1 20  1  0
  1 21  1  0
  1 22  1  0
  2 23  1  0
  2 24  1  0
  4 25  1  0
  4 26  1  0
  5 27  1  0
  5 28  1  0
  5 29  1  0
 10 30  1  0
 10 31  1  0
 11 32  1  0
 11 33  1  0
 12 34  1  0
 14 35  1  0
 15 36  1  0
 16 37  1  0
 17 38  1  0
 19 39  1  0
M  END
>  <smiles>  (9) 
CCN(CC)c1nc(=NCCO)c2ccccc2[nH]1

>  <score_type>  (9) 
oracle

>  <origin>  (9) 
adg

>  <m_score__min__energy>  (9) 
-7.0099999999999998

>  <m_primary>  (9) 
energy

$$$$
9:0
     RDKit          3D

 46 49  0  0  0  0  0  0  0  0999 V2000
    0.5950   21.9600  -35.3900 C   0  0  0  0  0  0  0  0  0  0  0  0
   -0.1990   20.8920  -34.7630 N   0  0  0  0  0  0  0  0  0  0  0  0
    0.2220   19.5650  -35.2400 C   0  0  0  0  0  0  0  0  0  0  0  0
   -0.2410   20.9920  -33.2870 C   0  0  0  0  0  0  0  0  0  0  0  0
   -1.6520   21.2540  -32.7060 C   0  0  0  0  0  0  0  0  0  0  0  0
   -2.6710   21.3480  -33.7670 N   0  0  0  0  0  0  0  0  0  0  0  0
   -3.7590   20.4320  -33.5380 C   0  0  0  0  0  0  0  0  0  0  0  0
   -3.7320   19.1470  -33.9280 C   0  0  0  0  0  0  0  0  0  0  0  0
   -5.0290   18.5730  -33.6060 C   0  0  0  0  0  0  0  0  0  0  0  0
   -5.5340   17.2850  -33.7600 C   0  0  0  0  0  0  0  0  0  0  0  0
   -6.8420   17.0340  -33.3030 C   0  0  0  0  0  0  0  0  0  0  0  0
   -7.6160   18.0660  -32.7180 C   0  0  0  0  0  0  0  0  0  0  0  0
   -7.0840   19.3800  -32.5970 C   0  0  0  0  0  0  0  0  0  0  0  0
   -5.7840   19.5590  -33.0420 C   0  0  0  0  0  0  0  0  0  0  0  0
   -5.0970   20.7270  -32.9470 C   0  0  0  0  0  0  0  0  0  0  0  0
   -5.7040   21.8220  -32.3040 C   0  0  0  0  0  0  0  0  0  0  0  0
   -5.0380   23.0430  -32.0880 C   0  0  0  0  0  0  0  0  0  0  0  0
   -5.6610   24.0810  -31.4010 C   0  0  0  0  0  0  0  0  0  0  0  0
   -6.9490   23.9190  -30.9020 C   0  0  0  0  0  0  0  0  0  0  0  0
   -7.6390   22.7240  -31.1040 C   0  0  0  0  0  0  0  0  0  0  0  0
   -7.0550   21.6560  -31.8320 C   0  0  0  0  0  0  0  0  0  0  0  0
   -7.7510   20.4670  -32.0640 N   0  0  0  0  0  0  0  0  0  0  0  0
   -9.1930   20.3660  -31.7550 C   0  0  0  0  0  0  0  0  0  0  0  0
    1.0566   22.5809  -34.6081 H   0  0  0  0  0  0  0  0  0  0  0  0
    1.3818   21.5130  -36.0154 H   0  0  0  0  0  0  0  0  0  0  0  0
   -0.0597   22.5847  -36.0154 H   0  0  0  0  0  0  0  0  0  0  0  0
    0.4285   18.9140  -34.3777 H   0  0  0  0  0  0  0  0  0  0  0  0
   -0.5800   19.1230  -35.8494 H   0  0  0  0  0  0  0  0  0  0  0  0
    1.1322   19.6662  -35.8494 H   0  0  0  0  0  0  0  0  0  0  0  0
    0.1346   20.0473  -32.8669 H   0  0  0  0  0  0  0  0  0  0  0  0
    0.3786   21.8584  -33.0122 H   0  0  0  0  0  0  0  0  0  0  0  0
   -1.9175   20.4285  -32.0292 H   0  0  0  0  0  0  0  0  0  0  0  0
   -1.6281   22.2133  -32.1683 H   0  0  0  0  0  0  0  0  0  0  0  0
   -2.2500   21.1530  -34.7020 H   0  0  0  0  0  0  0  0  0  0  0  0
   -3.0320   22.3300  -33.8170 H   0  0  0  0  0  0  0  0  0  0  0  0
   -2.8871   18.6262  -34.4022 H   0  0  0  0  0  0  0  0  0  0  0  0
   -4.9314   16.4898  -34.2232 H   0  0  0  0  0  0  0  0  0  0  0  0
   -7.2678   16.0245  -33.4015 H   0  0  0  0  0  0  0  0  0  0  0  0
   -8.6321   17.8507  -32.3559 H   0  0  0  0  0  0  0  0  0  0  0  0
   -4.0140   23.1784  -32.4662 H   0  0  0  0  0  0  0  0  0  0  0  0
   -5.1321   25.0339  -31.2521 H   0  0  0  0  0  0  0  0  0  0  0  0
   -7.4264   24.7384  -30.3446 H   0  0  0  0  0  0  0  0  0  0  0  0
   -8.6524   22.6079  -30.6921 H   0  0  0  0  0  0  0  0  0  0  0  0
   -9.3344   20.3561  -30.6642 H   0  0  0  0  0  0  0  0  0  0  0  0
   -9.7216   21.2293  -32.1854 H   0  0  0  0  0  0  0  0  0  0  0  0
   -9.5961   19.4374  -32.1854 H   0  0  0  0  0  0  0  0  0  0  0  0
  1  2  1  0
  2  3  1  0
  2  4  1  0
  4  5  1  0
  5  6  1  0
  6  7  1  0
  7  8  2  0
  8  9  1  0
  9 10  2  0
 10 11  1  0
 11 12  2  0
 12 13  1  0
 13 14  2  0
 14 15  1  0
 15 16  2  0
 16 17  1  0
 17 18  2  0
 18 19  1  0
 19 20  2  0
 20 21  1  0
 21 22  2  0
 22 23  1  0
 15  7  1  0
 21 16  1  0
 14  9  1  0
 22 13  1  0
  1 24  1  0
  1 25  1  0
  1 26  1  0
  3 27  1  0
  3 28  1  0
  3 29  1  0
  4 30  1  0
  4 31  1  0
  5 32  1  0
  5 33  1  0
  6 34  1  0
  6 35  1  0
  8 36  1  0
 10 37  1  0
 11 38  1  0
 12 39  1  0
 17 40  1  0
 18 41  1  0
 19 42  1  0
 20 43  1  0
 23 44  1  0
 23 45  1  0
 23 46  1  0
M  CHG  2   6   1  22   1
M  END
>  <UniqueID>  (10) 
9

>  <SMILES>  (10) 
CN(C)CC[NH2+]C1=Cc2cccc3c2c1c1ccccc1[n+]3C

>  <Energy>  (10) 
107.76894119074575

>  <Genealogy>  (10) 
CN(C)CC[NH2+]C1=Cc2cccc3c2c1c1ccccc1[n+]3C (protonated)
CN(C)CC[NH2+]C1=Cc2cccc3c2c1c1ccccc1[n+]3C (3D coordinates assigned)
CN(C)CC[NH2+]C1=Cc2cccc3c2c1c1ccccc1[n+]3C (nonaromatic ring conformer: 107.76894119074575 kcal/mol)

>  <smiles>  (10) 
CN(C)CCNC1=Cc2cccc3c2c1c1ccccc1[n+]3C

>  <score_type>  (10) 
oracle

>  <origin>  (10) 
adg

>  <m_score__min__energy>  (10) 
-7.4400000000000004

>  <m_primary>  (10) 
energy

$$$$
10:0
     RDKit          3D

 33 35  0  0  0  0  0  0  0  0999 V2000
   -6.1800   25.6800  -29.3420 C   0  0  0  0  0  0  0  0  0  0  0  0
   -6.1160   24.4960  -30.2050 N   0  0  0  0  0  0  0  0  0  0  0  0
   -7.2370   23.7080  -30.3780 C   0  0  0  0  0  0  0  0  0  0  0  0
   -7.2010   22.6000  -31.1750 N   0  0  0  0  0  0  0  0  0  0  0  0
   -6.0360   22.2920  -31.7910 C   0  0  0  0  0  0  0  0  0  0  0  0
   -4.9210   23.0380  -31.6440 C   0  0  0  0  0  0  0  0  0  0  0  0
   -3.9070   22.5200  -32.3630 N   0  0  0  0  0  0  0  0  0  0  0  0
   -4.4780   21.4290  -32.9430 C   0  0  0  0  0  0  0  0  0  0  0  0
   -5.7840   21.2590  -32.6090 N   0  0  0  0  0  0  0  0  0  0  0  0
   -6.6850   20.2000  -33.0800 C   0  0  0  0  0  0  0  0  0  0  0  0
   -7.3040   19.4490  -31.8830 C   0  0  0  0  0  0  0  0  0  0  0  0
   -8.0230   18.1820  -32.3560 C   0  0  0  0  0  0  0  0  0  0  0  0
   -7.0780   17.2000  -33.0830 C   0  0  0  0  0  0  0  0  0  0  0  0
   -5.7600   17.8410  -33.5520 C   0  0  0  0  0  0  0  0  0  0  0  0
   -5.9740   19.2610  -34.0940 C   0  0  0  0  0  0  0  0  0  0  0  0
   -4.9390   24.1670  -30.8400 C   0  0  0  0  0  0  0  0  0  0  0  0
   -3.8990   24.8690  -30.6990 O   0  0  0  0  0  0  0  0  0  0  0  0
   -6.1631   25.3666  -28.2877 H   0  0  0  0  0  0  0  0  0  0  0  0
   -5.3156   26.3292  -29.5455 H   0  0  0  0  0  0  0  0  0  0  0  0
   -7.1093   26.2323  -29.5455 H   0  0  0  0  0  0  0  0  0  0  0  0
   -8.1727   23.9771  -29.8661 H   0  0  0  0  0  0  0  0  0  0  0  0
   -3.9346   20.7505  -33.6170 H   0  0  0  0  0  0  0  0  0  0  0  0
   -7.5179   20.6595  -33.6324 H   0  0  0  0  0  0  0  0  0  0  0  0
   -6.5060   19.1705  -31.1789 H   0  0  0  0  0  0  0  0  0  0  0  0
   -8.0336   20.1079  -31.3894 H   0  0  0  0  0  0  0  0  0  0  0  0
   -8.4539   17.6737  -31.4808 H   0  0  0  0  0  0  0  0  0  0  0  0
   -8.8010   18.4873  -33.0712 H   0  0  0  0  0  0  0  0  0  0  0  0
   -6.8377   16.3760  -32.3951 H   0  0  0  0  0  0  0  0  0  0  0  0
   -7.6056   16.8546  -33.9843 H   0  0  0  0  0  0  0  0  0  0  0  0
   -5.0643   17.8864  -32.7011 H   0  0  0  0  0  0  0  0  0  0  0  0
   -5.3520   17.2238  -34.3660 H   0  0  0  0  0  0  0  0  0  0  0  0
   -4.9931   19.6925  -34.3423 H   0  0  0  0  0  0  0  0  0  0  0  0
   -6.6241   19.1802  -34.9777 H   0  0  0  0  0  0  0  0  0  0  0  0
  1  2  1  0
  2  3  1  0
  3  4  2  0
  4  5  1  0
  5  6  2  0
  6  7  1  0
  7  8  2  0
  8  9  1  0
  9 10  1  0
 10 11  1  0
 11 12  1  0
 12 13  1  0
 13 14  1  0
 14 15  1  0
  6 16  1  0
 16 17  2  0
 16  2  1  0
  9  5  1  0
 15 10  1  0
  1 18  1  0
  1 19  1  0
  1 20  1  0
  3 21  1  0
  8 22  1  0
 10 23  1  0
 11 24  1  0
 11 25  1  0
 12 26  1  0
 12 27  1  0
 13 28  1  0
 13 29  1  0
 14 30  1  0
 14 31  1  0
 15 32  1  0
 15 33  1  0
M  END
>  <UniqueID>  (11) 
10

>  <SMILES>  (11) 
Cn1cnc2c(ncn2C2CCCCC2)c1=O

>  <Energy>  (11) 
78.33114457408183

>  <Genealogy>  (11) 
Cn1cnc2c(ncn2C2CCCCC2)c1=O (3D coordinates assigned)
Cn1cnc2c(ncn2C2CCCCC2)c1=O (nonaromatic ring conformer: 78.33114457408183 kcal/mol)

>  <smiles>  (11) 
Cn1cnc2c(ncn2C2CCCCC2)c1=O

>  <score_type>  (11) 
oracle

>  <origin>  (11) 
adg

>  <m_score__min__energy>  (11) 
-7.5199999999999996

>  <m_primary>  (11) 
energy

$$$$
11:0
     RDKit          3D

 81 83  0  0  0  0  0  0  0  0999 V2000
   -2.7580   14.5040  -32.7210 C   0  0  0  0  0  0  0  0  0  0  0  0
   -4.1910   14.5500  -32.3920 N   0  0  0  0  0  0  0  0  0  0  0  0
   -4.5600   13.3240  -31.6610 C   0  0  0  0  0  0  0  0  0  0  0  0
   -4.9880   14.6830  -33.6330 C   0  0  0  0  0  0  0  0  0  0  0  0
   -5.7360   16.0320  -33.6760 C   0  0  0  0  0  0  0  0  0  0  0  0
   -5.5920   16.7650  -32.4140 N   0  0  0  0  0  0  0  0  0  0  0  0
   -5.5820   18.2030  -32.3740 C   0  0  0  0  0  0  0  0  0  0  0  0
   -6.7600   18.9130  -32.0780 C   0  0  0  0  0  0  0  0  0  0  0  0
   -7.9250   18.2370  -31.6580 C   0  0  0  0  0  0  0  0  0  0  0  0
   -9.1100   18.9310  -31.4360 C   0  0  0  0  0  0  0  0  0  0  0  0
   -9.1580   20.3050  -31.6300 C   0  0  0  0  0  0  0  0  0  0  0  0
   -8.0090   21.0030  -31.9980 C   0  0  0  0  0  0  0  0  0  0  0  0
   -6.7720   20.3310  -32.1830 C   0  0  0  0  0  0  0  0  0  0  0  0
   -5.6080   21.0150  -32.4790 N   0  0  0  0  0  0  0  0  0  0  0  0
   -5.5580   22.4870  -32.3250 C   0  0  0  0  0  0  0  0  0  0  0  0
   -4.4760   20.3240  -32.8730 C   0  0  0  0  0  0  0  0  0  0  0  0
   -3.3610   20.9860  -33.4490 C   0  0  0  0  0  0  0  0  0  0  0  0
   -2.1970   20.2840  -33.8000 C   0  0  0  0  0  0  0  0  0  0  0  0
   -1.0910   20.9300  -34.4530 N   0  0  0  0  0  0  0  0  0  0  0  0
    0.2810   20.4130  -34.4280 C   0  0  0  0  0  0  0  0  0  0  0  0
    0.9860   20.7760  -33.1120 C   0  0  0  0  0  0  0  0  0  0  0  0
    1.3060   19.5350  -32.2550 C   0  0  0  0  0  0  0  0  0  0  0  0
    0.4520   19.4440  -31.0580 N   0  0  0  0  0  0  0  0  0  0  0  0
   -0.1090   18.0990  -30.8800 C   0  0  0  0  0  0  0  0  0  0  0  0
    0.3060   17.5390  -29.5130 C   0  0  0  0  0  0  0  0  0  0  0  0
    0.4190   18.6280  -28.4340 C   0  0  0  0  0  0  0  0  0  0  0  0
   -0.9390   19.2460  -28.0760 C   0  0  0  0  0  0  0  0  0  0  0  0
   -1.3600   20.1950  -29.1190 N   0  0  0  0  0  0  0  0  0  0  0  0
   -2.7590   20.6380  -28.9810 C   0  0  0  0  0  0  0  0  0  0  0  0
   -3.1480   21.8180  -29.9000 C   0  0  0  0  0  0  0  0  0  0  0  0
   -1.9480   22.5610  -30.5090 C   0  0  0  0  0  0  0  0  0  0  0  0
   -1.0260   21.6270  -31.1500 N   0  0  0  0  0  0  0  0  0  0  0  0
   -2.1170   18.9190  -33.5260 C   0  0  0  0  0  0  0  0  0  0  0  0
   -3.2160   18.2390  -33.0140 C   0  0  0  0  0  0  0  0  0  0  0  0
   -4.4220   18.9130  -32.7400 C   0  0  0  0  0  0  0  0  0  0  0  0
   -2.1690   14.4851  -31.7922 H   0  0  0  0  0  0  0  0  0  0  0  0
   -2.5455   13.5986  -33.3084 H   0  0  0  0  0  0  0  0  0  0  0  0
   -2.4879   15.3939  -33.3084 H   0  0  0  0  0  0  0  0  0  0  0  0
   -4.5036   13.5115  -30.5786 H   0  0  0  0  0  0  0  0  0  0  0  0
   -5.5859   13.0317  -31.9295 H   0  0  0  0  0  0  0  0  0  0  0  0
   -3.8658   12.5140  -31.9295 H   0  0  0  0  0  0  0  0  0  0  0  0
   -4.3144   14.6188  -34.5003 H   0  0  0  0  0  0  0  0  0  0  0  0
   -5.7313   13.8725  -33.6573 H   0  0  0  0  0  0  0  0  0  0  0  0
   -5.3253   16.6429  -34.4934 H   0  0  0  0  0  0  0  0  0  0  0  0
   -6.8050   15.8297  -33.8384 H   0  0  0  0  0  0  0  0  0  0  0  0
   -5.2730   16.2340  -31.5730 H   0  0  0  0  0  0  0  0  0  0  0  0
   -7.8959   17.1482  -31.5043 H   0  0  0  0  0  0  0  0  0  0  0  0
  -10.0098   18.3908  -31.1065 H   0  0  0  0  0  0  0  0  0  0  0  0
  -10.1065   20.8448  -31.4927 H   0  0  0  0  0  0  0  0  0  0  0  0
   -8.0614   22.0915  -32.1474 H   0  0  0  0  0  0  0  0  0  0  0  0
   -5.5493   22.7437  -31.2554 H   0  0  0  0  0  0  0  0  0  0  0  0
   -4.6462   22.8749  -32.8026 H   0  0  0  0  0  0  0  0  0  0  0  0
   -6.4414   22.9359  -32.8026 H   0  0  0  0  0  0  0  0  0  0  0  0
   -3.4096   22.0709  -33.6240 H   0  0  0  0  0  0  0  0  0  0  0  0
   -1.1960   21.9430  -34.6930 H   0  0  0  0  0  0  0  0  0  0  0  0
    0.2541   19.3181  -34.5308 H   0  0  0  0  0  0  0  0  0  0  0  0
    0.8400   20.8663  -35.2599 H   0  0  0  0  0  0  0  0  0  0  0  0
    1.9268   21.2953  -33.3468 H   0  0  0  0  0  0  0  0  0  0  0  0
    0.3054   21.4172  -32.5327 H   0  0  0  0  0  0  0  0  0  0  0  0
    1.1534   18.6339  -32.8672 H   0  0  0  0  0  0  0  0  0  0  0  0
    2.3493   19.6206  -31.9171 H   0  0  0  0  0  0  0  0  0  0  0  0
   -0.3250   20.1410  -31.1270 H   0  0  0  0  0  0  0  0  0  0  0  0
   -1.2064   18.1509  -30.9354 H   0  0  0  0  0  0  0  0  0  0  0  0
    0.2716   17.4390  -31.6734 H   0  0  0  0  0  0  0  0  0  0  0  0
   -0.4452   16.8024  -29.1919 H   0  0  0  0  0  0  0  0  0  0  0  0
    1.3002   17.0828  -29.6293 H   0  0  0  0  0  0  0  0  0  0  0  0
    0.8533   18.1819  -27.5271 H   0  0  0  0  0  0  0  0  0  0  0  0
    1.0552   19.4305  -28.8355 H   0  0  0  0  0  0  0  0  0  0  0  0
   -1.6896   18.4466  -27.9886 H   0  0  0  0  0  0  0  0  0  0  0  0
   -0.8467   19.7829  -27.1204 H   0  0  0  0  0  0  0  0  0  0  0  0
   -1.2030   19.7770  -30.0640 H   0  0  0  0  0  0  0  0  0  0  0  0
   -3.4144   19.7869  -29.2177 H   0  0  0  0  0  0  0  0  0  0  0  0
   -2.8753   20.9938  -27.9466 H   0  0  0  0  0  0  0  0  0  0  0  0
   -3.7655   21.4267  -30.7220 H   0  0  0  0  0  0  0  0  0  0  0  0
   -3.6860   22.5444  -29.2732 H   0  0  0  0  0  0  0  0  0  0  0  0
   -2.3120   23.2791  -31.2586 H   0  0  0  0  0  0  0  0  0  0  0  0
   -1.4133   23.0844  -29.7027 H   0  0  0  0  0  0  0  0  0  0  0  0
   -0.2210   21.4630  -30.5020 H   0  0  0  0  0  0  0  0  0  0  0  0
   -1.5190   20.7110  -31.2540 H   0  0  0  0  0  0  0  0  0  0  0  0
   -1.1787   18.3772  -33.7161 H   0  0  0  0  0  0  0  0  0  0  0  0
   -3.1427   17.1587  -32.8200 H   0  0  0  0  0  0  0  0  0  0  0  0
  1  2  1  0
  2  3  1  0
  2  4  1  0
  4  5  1  0
  5  6  1  0
  6  7  1  0
  7  8  2  0
  8  9  1  0
  9 10  2  0
 10 11  1  0
 11 12  2  0
 12 13  1  0
 13 14  2  0
 14 15  1  0
 14 16  1  0
 16 17  2  0
 17 18  1  0
 18 19  1  0
 19 20  1  0
 20 21  1  0
 21 22  1  0
 22 23  1  0
 23 24  1  0
 24 25  1  0
 25 26  1  0
 26 27  1  0
 27 28  1  0
 28 29  1  0
 29 30  1  0
 30 31  1  0
 31 32  1  0
 18 33  2  0
 33 34  1  0
 34 35  2  0
 35  7  1  0
 13  8  1  0
 35 16  1  0
  1 36  1  0
  1 37  1  0
  1 38  1  0
  3 39  1  0
  3 40  1  0
  3 41  1  0
  4 42  1  0
  4 43  1  0
  5 44  1  0
  5 45  1  0
  6 46  1  0
  9 47  1  0
 10 48  1  0
 11 49  1  0
 12 50  1  0
 15 51  1  0
 15 52  1  0
 15 53  1  0
 17 54  1  0
 19 55  1  0
 20 56  1  0
 20 57  1  0
 21 58  1  0
 21 59  1  0
 22 60  1  0
 22 61  1  0
 23 62  1  0
 24 63  1  0
 24 64  1  0
 25 65  1  0
 25 66  1  0
 26 67  1  0
 26 68  1  0
 27 69  1  0
 27 70  1  0
 28 71  1  0
 29 72  1  0
 29 73  1  0
 30 74  1  0
 30 75  1  0
 31 76  1  0
 31 77  1  0
 32 78  1  0
 32 79  1  0
 33 80  1  0
 34 81  1  0
M  CHG  1  14   1
M  END
>  <UniqueID>  (12) 
11

>  <SMILES>  (12) 
CN(C)CCNc1c2ccccc2[n+](C)c2cc(NCCCNCCCCNCCCN)ccc12

>  <Energy>  (12) 
97.96984157552056

>  <Genealogy>  (12) 
CN(C)CCNc1c2ccccc2[n+](C)c2cc(NCCCNCCCCNCCCN)ccc12 (3D coordinates assigned)
CN(C)CCNc1c2ccccc2[n+](C)c2cc(NCCCNCCCCNCCCN)ccc12 (optimized conformer: 97.96984157552056 kcal/mol)

>  <smiles>  (12) 
CN(C)CCNc1c2ccccc2[n+](C)c2cc(NCCCNCCCCNCCCN)ccc12

>  <score_type>  (12) 
oracle

>  <origin>  (12) 
adg

>  <m_score__min__energy>  (12) 
-7.6399999999999997

>  <m_primary>  (12) 
energy

$$$$
12:0
     RDKit          3D

 44 43  0  0  0  0  0  0  0  0999 V2000
   -6.4900   25.7010  -29.3610 C   0  0  0  0  0  0  0  0  0  0  0  0
   -5.9390   24.9230  -30.2500 C   0  0  0  0  0  0  0  0  0  0  0  0
   -5.3860   24.1460  -31.1420 C   0  0  0  0  0  0  0  0  0  0  0  0
   -5.6780   22.6730  -31.1730 C   0  0  0  0  0  0  0  0  0  0  0  0
   -6.6500   22.3300  -32.2230 N   0  0  0  0  0  0  0  0  0  0  0  0
   -7.8780   23.1460  -32.1750 C   0  0  0  0  0  0  0  0  0  0  0  0
   -9.1380   22.2910  -31.9450 C   0  0  0  0  0  0  0  0  0  0  0  0
   -8.8250   20.8920  -31.3750 C   0  0  0  0  0  0  0  0  0  0  0  0
   -7.7910   20.1480  -32.1200 N   0  0  0  0  0  0  0  0  0  0  0  0
   -8.1310   18.7230  -32.2990 C   0  0  0  0  0  0  0  0  0  0  0  0
   -6.8700   17.8310  -32.2850 C   0  0  0  0  0  0  0  0  0  0  0  0
   -6.0770   17.8700  -33.6030 C   0  0  0  0  0  0  0  0  0  0  0  0
   -6.1150   19.2420  -34.2850 C   0  0  0  0  0  0  0  0  0  0  0  0
   -5.5620   20.2620  -33.3850 N   0  0  0  0  0  0  0  0  0  0  0  0
   -4.1180   20.0720  -33.1760 C   0  0  0  0  0  0  0  0  0  0  0  0
   -3.3870   21.4090  -33.2410 C   0  0  0  0  0  0  0  0  0  0  0  0
   -6.3470   25.4991  -28.2892 H   0  0  0  0  0  0  0  0  0  0  0  0
   -7.0980   26.5594  -29.6826 H   0  0  0  0  0  0  0  0  0  0  0  0
   -4.6957   24.5769  -31.8821 H   0  0  0  0  0  0  0  0  0  0  0  0
   -4.7414   22.1284  -31.3633 H   0  0  0  0  0  0  0  0  0  0  0  0
   -6.1100   22.3898  -30.2018 H   0  0  0  0  0  0  0  0  0  0  0  0
   -6.1930   22.3680  -33.1650 H   0  0  0  0  0  0  0  0  0  0  0  0
   -7.7884   23.8724  -31.3538 H   0  0  0  0  0  0  0  0  0  0  0  0
   -7.9857   23.6502  -33.1467 H   0  0  0  0  0  0  0  0  0  0  0  0
   -9.7944   22.8184  -31.2373 H   0  0  0  0  0  0  0  0  0  0  0  0
   -9.6189   22.1461  -32.9236 H   0  0  0  0  0  0  0  0  0  0  0  0
   -8.4816   21.0123  -30.3369 H   0  0  0  0  0  0  0  0  0  0  0  0
   -9.7524   20.3058  -31.4545 H   0  0  0  0  0  0  0  0  0  0  0  0
   -6.8670   20.2350  -31.6400 H   0  0  0  0  0  0  0  0  0  0  0  0
   -7.6950   20.6040  -33.0560 H   0  0  0  0  0  0  0  0  0  0  0  0
   -8.7986   18.4101  -31.4827 H   0  0  0  0  0  0  0  0  0  0  0  0
   -8.6234   18.6070  -33.2758 H   0  0  0  0  0  0  0  0  0  0  0  0
   -6.2116   18.1713  -31.4721 H   0  0  0  0  0  0  0  0  0  0  0  0
   -7.2082   16.7942  -32.1410 H   0  0  0  0  0  0  0  0  0  0  0  0
   -5.0288   17.6139  -33.3890 H   0  0  0  0  0  0  0  0  0  0  0  0
   -6.5444   17.1486  -34.2894 H   0  0  0  0  0  0  0  0  0  0  0  0
   -5.5177   19.2073  -35.2081 H   0  0  0  0  0  0  0  0  0  0  0  0
   -7.1572   19.4981  -34.5264 H   0  0  0  0  0  0  0  0  0  0  0  0
   -5.6950   21.1950  -33.8440 H   0  0  0  0  0  0  0  0  0  0  0  0
   -3.9522   19.6167  -32.1885 H   0  0  0  0  0  0  0  0  0  0  0  0
   -3.7280   19.4151  -33.9674 H   0  0  0  0  0  0  0  0  0  0  0  0
   -3.1901   21.7692  -32.2205 H   0  0  0  0  0  0  0  0  0  0  0  0
   -2.4338   21.2802  -33.7747 H   0  0  0  0  0  0  0  0  0  0  0  0
   -4.0099   22.1419  -33.7747 H   0  0  0  0  0  0  0  0  0  0  0  0
  1  2  2  0
  2  3  2  0
  3  4  1  0
  4  5  1  0
  5  6  1  0
  6  7  1  0
  7  8  1  0
  8  9  1  0
  9 10  1  0
 10 11  1  0
 11 12  1  0
 12 13  1  0
 13 14  1  0
 14 15  1  0
 15 16  1  0
  1 17  1  0
  1 18  1  0
  3 19  1  0
  4 20  1  0
  4 21  1  0
  5 22  1  0
  6 23  1  0
  6 24  1  0
  7 25  1  0
  7 26  1  0
  8 27  1  0
  8 28  1  0
  9 29  1  0
  9 30  1  0
 10 31  1  0
 10 32  1  0
 11 33  1  0
 11 34  1  0
 12 35  1  0
 12 36  1  0
 13 37  1  0
 13 38  1  0
 14 39  1  0
 15 40  1  0
 15 41  1  0
 16 42  1  0
 16 43  1  0
 16 44  1  0
M  CHG  1   9   1
M  END
>  <UniqueID>  (13) 
12

>  <SMILES>  (13) 
C=C=CCNCCC[NH2+]CCCCNCC

>  <Energy>  (13) 
27.389554770991236

>  <Genealogy>  (13) 
C=C=CCNCCC[NH2+]CCCCNCC (protonated)
C=C=CCNCCC[NH2+]CCCCNCC (3D coordinates assigned)
C=C=CCNCCC[NH2+]CCCCNCC (optimized conformer: 27.389554770991236 kcal/mol)

>  <smiles>  (13) 
C=C=CCNCCCNCCCCNCC

>  <score_type>  (13) 
oracle

>  <origin>  (13) 
adg

>  <m_score__min__energy>  (13) 
-3.7400000000000002

>  <m_primary>  (13) 
energy

$$$$
13:0
     RDKit          3D

 46 48  0  0  0  0  0  0  0  0999 V2000
   -4.1560   24.2350  -27.2200 C   0  0  0  0  0  0  0  0  0  0  0  0
   -2.7220   24.4340  -27.4330 N   0  0  0  0  0  0  0  0  0  0  0  0
   -2.0420   25.5650  -26.8040 C   0  0  0  0  0  0  0  0  0  0  0  0
   -1.9700   23.5180  -28.2470 C   0  0  0  0  0  0  0  0  0  0  0  0
   -0.9110   22.8000  -27.6710 C   0  0  0  0  0  0  0  0  0  0  0  0
   -0.1400   21.9320  -28.4450 C   0  0  0  0  0  0  0  0  0  0  0  0
   -0.4210   21.7670  -29.8010 C   0  0  0  0  0  0  0  0  0  0  0  0
   -1.4760   22.4690  -30.3870 C   0  0  0  0  0  0  0  0  0  0  0  0
   -2.2570   23.3530  -29.6230 C   0  0  0  0  0  0  0  0  0  0  0  0
   -3.4080   24.0330  -30.2590 C   0  0  0  0  0  0  0  0  0  0  0  0
   -3.4970   25.2890  -30.1770 O   0  0  0  0  0  0  0  0  0  0  0  0
   -4.4280   23.2890  -30.9550 N   0  0  0  0  0  0  0  0  0  0  0  0
   -5.7620   23.8830  -31.1290 C   0  0  0  0  0  0  0  0  0  0  0  0
   -6.8420   22.7930  -31.1310 C   0  0  0  0  0  0  0  0  0  0  0  0
   -6.4560   21.6480  -31.9670 N   0  0  0  0  0  0  0  0  0  0  0  0
   -7.2890   20.4760  -31.9890 C   0  0  0  0  0  0  0  0  0  0  0  0
   -6.7140   19.2050  -31.8340 C   0  0  0  0  0  0  0  0  0  0  0  0
   -7.5180   18.0610  -31.8420 C   0  0  0  0  0  0  0  0  0  0  0  0
   -8.9010   18.1790  -32.0070 C   0  0  0  0  0  0  0  0  0  0  0  0
   -9.4800   19.4400  -32.1650 C   0  0  0  0  0  0  0  0  0  0  0  0
   -8.6810   20.5890  -32.1570 C   0  0  0  0  0  0  0  0  0  0  0  0
   -9.2580   21.8000  -32.3440 F   0  0  0  0  0  0  0  0  0  0  0  0
   -5.1660   21.6450  -32.6630 C   0  0  0  0  0  0  0  0  0  0  0  0
   -4.0600   22.0690  -31.6950 C   0  0  0  0  0  0  0  0  0  0  0  0
   -4.3658   24.2059  -26.1406 H   0  0  0  0  0  0  0  0  0  0  0  0
   -4.7135   25.0644  -27.6797 H   0  0  0  0  0  0  0  0  0  0  0  0
   -4.4666   23.2851  -27.6797 H   0  0  0  0  0  0  0  0  0  0  0  0
   -2.1014   25.4662  -25.7101 H   0  0  0  0  0  0  0  0  0  0  0  0
   -0.9868   25.5771  -27.1143 H   0  0  0  0  0  0  0  0  0  0  0  0
   -2.5262   26.5027  -27.1143 H   0  0  0  0  0  0  0  0  0  0  0  0
   -0.6869   22.9223  -26.6010 H   0  0  0  0  0  0  0  0  0  0  0  0
    0.6908   21.3770  -27.9849 H   0  0  0  0  0  0  0  0  0  0  0  0
    0.1891   21.0832  -30.4094 H   0  0  0  0  0  0  0  0  0  0  0  0
   -1.6977   22.3291  -31.4553 H   0  0  0  0  0  0  0  0  0  0  0  0
   -5.9565   24.5832  -30.3033 H   0  0  0  0  0  0  0  0  0  0  0  0
   -5.7914   24.4133  -32.0923 H   0  0  0  0  0  0  0  0  0  0  0  0
   -6.9989   22.4446  -30.0995 H   0  0  0  0  0  0  0  0  0  0  0  0
   -7.7648   23.2250  -31.5455 H   0  0  0  0  0  0  0  0  0  0  0  0
   -5.6258   19.1084  -31.7056 H   0  0  0  0  0  0  0  0  0  0  0  0
   -7.0619   17.0677  -31.7184 H   0  0  0  0  0  0  0  0  0  0  0  0
   -9.5332   17.2788  -32.0124 H   0  0  0  0  0  0  0  0  0  0  0  0
  -10.5684   19.5305  -32.2963 H   0  0  0  0  0  0  0  0  0  0  0  0
   -4.9553   20.6330  -33.0391 H   0  0  0  0  0  0  0  0  0  0  0  0
   -5.2040   22.3505  -33.5061 H   0  0  0  0  0  0  0  0  0  0  0  0
   -3.8825   21.2551  -30.9766 H   0  0  0  0  0  0  0  0  0  0  0  0
   -3.1524   22.2806  -32.2794 H   0  0  0  0  0  0  0  0  0  0  0  0
  1  2  1  0
  2  3  1  0
  2  4  1  0
  4  5  2  0
  5  6  1  0
  6  7  2  0
  7  8  1  0
  8  9  2  0
  9 10  1  0
 10 11  2  0
 10 12  1  0
 12 13  1  0
 13 14  1  0
 14 15  1  0
 15 16  1  0
 16 17  2  0
 17 18  1  0
 18 19  2  0
 19 20  1  0
 20 21  2  0
 21 22  1  0
 15 23  1  0
 23 24  1  0
  9  4  1  0
 24 12  1  0
 21 16  1  0
  1 25  1  0
  1 26  1  0
  1 27  1  0
  3 28  1  0
  3 29  1  0
  3 30  1  0
  5 31  1  0
  6 32  1  0
  7 33  1  0
  8 34  1  0
 13 35  1  0
 13 36  1  0
 14 37  1  0
 14 38  1  0
 17 39  1  0
 18 40  1  0
 19 41  1  0
 20 42  1  0
 23 43  1  0
 23 44  1  0
 24 45  1  0
 24 46  1  0
M  END
>  <UniqueID>  (14) 
13

>  <SMILES>  (14) 
CN(C)c1ccccc1C(=O)N1CCN(c2ccccc2F)CC1

>  <Energy>  (14) 
61.44298816897202

>  <Genealogy>  (14) 
CN(C)c1ccccc1C(=O)N1CCN(c2ccccc2F)CC1 (3D coordinates assigned)
CN(C)c1ccccc1C(=O)N1CCN(c2ccccc2F)CC1 (nonaromatic ring conformer: 61.44298816897202 kcal/mol)

>  <smiles>  (14) 
CN(C)c1ccccc1C(=O)N1CCN(c2ccccc2F)CC1

>  <score_type>  (14) 
oracle

>  <origin>  (14) 
adg

>  <m_score__min__energy>  (14) 
-8.0199999999999996

>  <m_primary>  (14) 
energy

$$$$
14:0
     RDKit          3D

 34 35  0  0  0  0  0  0  0  0999 V2000
   -4.4250   22.2440  -30.4240 C   0  0  0  0  0  0  0  0  0  0  0  0
   -5.1690   23.4310  -30.0150 N   0  0  0  0  0  0  0  0  0  0  0  0
   -4.9590   24.1690  -28.9120 C   0  0  0  0  0  0  0  0  0  0  0  0
   -5.6920   25.2950  -28.9540 N   0  0  0  0  0  0  0  0  0  0  0  0
   -6.3650   25.3110  -30.0940 N   0  0  0  0  0  0  0  0  0  0  0  0
   -6.0400   24.1710  -30.7340 C   0  0  0  0  0  0  0  0  0  0  0  0
   -6.6590   23.7440  -32.3650 S   0  0  0  0  0  0  0  0  0  0  0  0
   -8.3510   23.3310  -31.7960 C   0  0  0  0  0  0  0  0  0  0  0  0
   -8.4700   21.8860  -31.2790 C   0  0  0  0  0  0  0  0  0  0  0  0
   -8.2330   20.8890  -32.3490 N   0  0  0  0  0  0  0  0  0  0  0  0
   -9.2410   19.7950  -32.3040 C   0  0  0  0  0  0  0  0  0  0  0  0
   -8.7180   18.5370  -31.5960 C   0  0  0  0  0  0  0  0  0  0  0  0
   -7.4860   17.9690  -32.3190 C   0  0  0  0  0  0  0  0  0  0  0  0
   -6.6810   19.0520  -33.0560 C   0  0  0  0  0  0  0  0  0  0  0  0
   -6.8260   20.4090  -32.3570 C   0  0  0  0  0  0  0  0  0  0  0  0
   -4.0837   21.6995  -29.5312 H   0  0  0  0  0  0  0  0  0  0  0  0
   -5.0763   21.5919  -31.0245 H   0  0  0  0  0  0  0  0  0  0  0  0
   -3.5542   22.5459  -31.0245 H   0  0  0  0  0  0  0  0  0  0  0  0
   -4.2825   23.8909  -28.0904 H   0  0  0  0  0  0  0  0  0  0  0  0
   -5.7170   26.0520  -28.2370 H   0  0  0  0  0  0  0  0  0  0  0  0
   -8.6262   24.0190  -30.9830 H   0  0  0  0  0  0  0  0  0  0  0  0
   -9.0246   23.4303  -32.6600 H   0  0  0  0  0  0  0  0  0  0  0  0
   -7.7285   21.7328  -30.4811 H   0  0  0  0  0  0  0  0  0  0  0  0
   -9.4946   21.7438  -30.9050 H   0  0  0  0  0  0  0  0  0  0  0  0
  -10.1300   20.1573  -31.7669 H   0  0  0  0  0  0  0  0  0  0  0  0
   -9.4779   19.5182  -33.3419 H   0  0  0  0  0  0  0  0  0  0  0  0
   -8.4417   18.7945  -30.5629 H   0  0  0  0  0  0  0  0  0  0  0  0
   -9.5113   17.7750  -31.6047 H   0  0  0  0  0  0  0  0  0  0  0  0
   -6.8322   17.4884  -31.5763 H   0  0  0  0  0  0  0  0  0  0  0  0
   -7.8432   17.2500  -33.0710 H   0  0  0  0  0  0  0  0  0  0  0  0
   -5.6191   18.7652  -33.0699 H   0  0  0  0  0  0  0  0  0  0  0  0
   -7.0672   19.1411  -34.0821 H   0  0  0  0  0  0  0  0  0  0  0  0
   -6.4792   20.3110  -31.3177 H   0  0  0  0  0  0  0  0  0  0  0  0
   -6.2224   21.1415  -32.9130 H   0  0  0  0  0  0  0  0  0  0  0  0
  1  2  1  0
  2  3  1  0
  3  4  2  0
  4  5  1  0
  5  6  2  0
  6  7  1  0
  7  8  1  0
  8  9  1  0
  9 10  1  0
 10 11  1  0
 11 12  1  0
 12 13  1  0
 13 14  1  0
 14 15  1  0
  6  2  1  0
 15 10  1  0
  1 16  1  0
  1 17  1  0
  1 18  1  0
  3 19  1  0
  4 20  1  0
  8 21  1  0
  8 22  1  0
  9 23  1  0
  9 24  1  0
 11 25  1  0
 11 26  1  0
 12 27  1  0
 12 28  1  0
 13 29  1  0
 13 30  1  0
 14 31  1  0
 14 32  1  0
 15 33  1  0
 15 34  1  0
M  CHG  1   4   1
M  END
>  <UniqueID>  (15) 
14

>  <SMILES>  (15) 
Cn1c[nH+]nc1SCCN1CCCCC1

>  <Energy>  (15) 
71.81668733819025

>  <Genealogy>  (15) 
Cn1c[nH+]nc1SCCN1CCCCC1 (protonated)
Cn1c[nH+]nc1SCCN1CCCCC1 (3D coordinates assigned)
Cn1c[nH+]nc1SCCN1CCCCC1 (nonaromatic ring conformer: 71.81668733819025 kcal/mol)

>  <smiles>  (15) 
Cn1cnnc1SCCN1CCCCC1

>  <score_type>  (15) 
oracle

>  <origin>  (15) 
adg

>  <m_score__min__energy>  (15) 
-6.1100000000000003

>  <m_primary>  (15) 
energy

$$$$
15:0
     RDKit          3D

 53 55  0  0  0  0  0  0  0  0999 V2000
    0.5064   18.6189  -30.9793 H   0  0  0  0  0  0  0  0  0  0  0  0
   -0.2010   19.4580  -31.0530 C   0  0  0  0  0  0  0  0  0  0  0  0
   -0.0660   20.5220  -30.2260 N   0  0  0  0  0  0  0  0  0  0  0  0
   -0.9150   21.5780  -30.2700 C   0  0  0  0  0  0  0  0  0  0  0  0
   -0.7310   22.6440  -29.3830 C   0  0  0  0  0  0  0  0  0  0  0  0
    0.1045   22.6191  -28.6679 H   0  0  0  0  0  0  0  0  0  0  0  0
   -1.6030   23.7470  -29.3960 C   0  0  0  0  0  0  0  0  0  0  0  0
   -1.4550   24.8340  -28.5160 O   0  0  0  0  0  0  0  0  0  0  0  0
   -2.0980   24.9760  -27.2490 C   0  0  0  0  0  0  0  0  0  0  0  0
   -3.1594   25.2167  -27.4089 H   0  0  0  0  0  0  0  0  0  0  0  0
   -1.9971   24.0304  -26.6961 H   0  0  0  0  0  0  0  0  0  0  0  0
   -1.4510   26.0900  -26.4310 C   0  0  0  0  0  0  0  0  0  0  0  0
   -1.5747   25.8769  -25.3589 H   0  0  0  0  0  0  0  0  0  0  0  0
   -0.3793   26.1470  -26.6722 H   0  0  0  0  0  0  0  0  0  0  0  0
   -1.9326   27.0491  -26.6722 H   0  0  0  0  0  0  0  0  0  0  0  0
   -2.6630   23.7750  -30.3140 C   0  0  0  0  0  0  0  0  0  0  0  0
   -3.5170   24.9250  -30.3620 N   0  0  0  0  0  0  0  0  0  0  0  0
   -4.9470   24.8990  -30.4740 C   0  0  0  0  0  0  0  0  0  0  0  0
   -5.5230   25.8120  -31.1210 O   0  0  0  0  0  0  0  0  0  0  0  0
   -5.7790   23.8920  -29.7250 C   0  0  0  0  0  0  0  0  0  0  0  0
   -5.8343   24.1879  -28.6670 H   0  0  0  0  0  0  0  0  0  0  0  0
   -5.3060   22.9042  -29.8269 H   0  0  0  0  0  0  0  0  0  0  0  0
   -7.1970   23.8120  -30.2960 C   0  0  0  0  0  0  0  0  0  0  0  0
   -7.7167   24.7641  -30.1133 H   0  0  0  0  0  0  0  0  0  0  0  0
   -7.7367   22.9896  -29.8037 H   0  0  0  0  0  0  0  0  0  0  0  0
   -7.1470   23.5550  -31.7460 N   0  0  0  0  0  0  0  0  0  0  0  0
   -6.6870   24.3710  -32.2140 H   0  0  0  0  0  0  0  0  0  0  0  0
   -8.4920   23.4100  -32.3160 C   0  0  0  0  0  0  0  0  0  0  0  0
   -8.4097   23.1603  -33.3841 H   0  0  0  0  0  0  0  0  0  0  0  0
   -9.0389   24.3566  -32.1944 H   0  0  0  0  0  0  0  0  0  0  0  0
   -9.2480   22.3010  -31.5960 C   0  0  0  0  0  0  0  0  0  0  0  0
   -9.1539   22.4391  -30.5088 H   0  0  0  0  0  0  0  0  0  0  0  0
  -10.3102   22.3374  -31.8796 H   0  0  0  0  0  0  0  0  0  0  0  0
   -8.8260   21.3256  -31.8796 H   0  0  0  0  0  0  0  0  0  0  0  0
   -2.8310   22.7190  -31.2250 C   0  0  0  0  0  0  0  0  0  0  0  0
   -3.6445   22.7649  -31.9640 H   0  0  0  0  0  0  0  0  0  0  0  0
   -1.9720   21.6010  -31.2060 C   0  0  0  0  0  0  0  0  0  0  0  0
   -2.1230   20.5210  -32.1130 C   0  0  0  0  0  0  0  0  0  0  0  0
   -3.0890   20.5900  -32.9970 N   0  0  0  0  0  0  0  0  0  0  0  0
   -4.4730   20.2430  -32.8670 C   0  0  0  0  0  0  0  0  0  0  0  0
   -5.2580   20.8270  -31.8610 C   0  0  0  0  0  0  0  0  0  0  0  0
   -4.8235   21.5919  -31.2006 H   0  0  0  0  0  0  0  0  0  0  0  0
   -6.5910   20.4390  -31.6960 C   0  0  0  0  0  0  0  0  0  0  0  0
   -7.2090   20.9109  -30.9179 H   0  0  0  0  0  0  0  0  0  0  0  0
   -7.1390   19.4500  -32.5210 C   0  0  0  0  0  0  0  0  0  0  0  0
   -8.9600   18.9210  -32.2960 Br  0  0  0  0  0  0  0  0  0  0  0  0
   -6.3480   18.8420  -33.5020 C   0  0  0  0  0  0  0  0  0  0  0  0
   -6.7762   18.0586  -34.1446 H   0  0  0  0  0  0  0  0  0  0  0  0
   -5.0150   19.2280  -33.6670 C   0  0  0  0  0  0  0  0  0  0  0  0
   -4.2510   18.6230  -34.6120 F   0  0  0  0  0  0  0  0  0  0  0  0
   -1.2300   19.4140  -32.0000 C   0  0  0  0  0  0  0  0  0  0  0  0
   -1.3820   18.1780  -32.7330 C   0  0  0  0  0  0  0  0  0  0  0  0
   -1.5050   17.1930  -33.3290 N   0  0  0  0  0  0  0  0  0  0  0  0
  1  2  1  0
  2  3  1  0
  3  4  1  0
  4  5  2  0
  5  6  1  0
  5  7  1  0
  7  8  1  0
  8  9  1  0
  9 10  1  0
  9 11  1  0
  9 12  1  0
 12 13  1  0
 12 14  1  0
 12 15  1  0
  7 16  2  0
 16 17  1  0
 17 18  1  0
 18 19  2  0
 18 20  1  0
 20 21  1  0
 20 22  1  0
 20 23  1  0
 23 24  1  0
 23 25  1  0
 23 26  1  0
 26 27  1  0
 26 28  1  0
 28 29  1  0
 28 30  1  0
 28 31  1  0
 31 32  1  0
 31 33  1  0
 31 34  1  0
 16 35  1  0
 35 36  1  0
 35 37  2  0
 37 38  1  0
 38 39  2  0
 39 40  1  0
 40 41  2  0
 41 42  1  0
 41 43  1  0
 43 44  1  0
 43 45  2  0
 45 46  1  0
 45 47  1  0
 47 48  1  0
 47 49  2  0
 49 50  1  0
 38 51  1  0
 51 52  1  0
 52 53  3  0
 51  2  2  0
 37  4  1  0
 49 40  1  0
M  CHG  2   3  -1  17  -1
M  END
>  <UniqueID>  (16) 
15

>  <SMILES>  (16) 
CCNCCC(=O)[N-]c1cc2/c(=N/c3ccc(Br)cc3F)c(C#N)c[n-]c2cc1OCC

>  <Energy>  (16) 
72.47296492413574

>  <Genealogy>  (16) 
CCNCCC(=O)[N-]c1cc2c(=Nc3ccc(Br)cc3F)c(C#N)c[n-]c2cc1OCC (protonated)
CCNCCC(=O)[N-]c1cc2/c(=N/c3ccc(Br)cc3F)c(C#N)c[n-]c2cc1OCC (cis-trans isomerization)
CCNCCC(=O)[N-]c1cc2/c(=N/c3ccc(Br)cc3F)c(C#N)c[n-]c2cc1OCC (3D coordinates assigned)
CCNCCC(=O)[N-]c1cc2/c(=N/c3ccc(Br)cc3F)c(C#N)c[n-]c2cc1OCC (optimized conformer: 72.47296492413574 kcal/mol)

>  <smiles>  (16) 
CCNCCC(=O)Nc1cc2c(=Nc3ccc(Br)cc3F)c(C#N)c[nH]c2cc1OCC

>  <score_type>  (16) 
oracle

>  <origin>  (16) 
adg

>  <m_score__min__energy>  (16) 
-10.609999999999999

>  <m_primary>  (16) 
energy

$$$$
16:0
     RDKit          3D

 27 27  0  0  0  0  0  0  0  0999 V2000
   -4.1740   23.8150  -28.6810 C   0  0  0  0  0  0  0  0  0  0  0  0
   -3.4020   24.0160  -29.9790 C   0  0  0  0  0  0  0  0  0  0  0  0
   -3.9550   25.0940  -30.7310 O   0  0  0  0  0  0  0  0  0  0  0  0
   -5.3160   25.4200  -30.7230 C   0  0  0  0  0  0  0  0  0  0  0  0
   -5.7330   26.4440  -30.1150 O   0  0  0  0  0  0  0  0  0  0  0  0
   -6.2950   24.5030  -31.3940 C   0  0  0  0  0  0  0  0  0  0  0  0
   -5.6580   23.7150  -32.4620 N   0  0  0  0  0  0  0  0  0  0  0  0
   -6.0480   22.3260  -32.3950 C   0  0  0  0  0  0  0  0  0  0  0  0
   -5.1290   21.3100  -32.7150 C   0  0  0  0  0  0  0  0  0  0  0  0
   -5.5190   19.9680  -32.6820 C   0  0  0  0  0  0  0  0  0  0  0  0
   -6.8300   19.6270  -32.3330 C   0  0  0  0  0  0  0  0  0  0  0  0
   -7.3610   17.7930  -32.2930 Br  0  0  0  0  0  0  0  0  0  0  0  0
   -7.7520   20.6300  -32.0170 C   0  0  0  0  0  0  0  0  0  0  0  0
   -7.3650   21.9730  -32.0510 C   0  0  0  0  0  0  0  0  0  0  0  0
   -3.5047   23.9893  -27.8256 H   0  0  0  0  0  0  0  0  0  0  0  0
   -5.0136   24.5245  -28.6401 H   0  0  0  0  0  0  0  0  0  0  0  0
   -4.5610   22.7861  -28.6401 H   0  0  0  0  0  0  0  0  0  0  0  0
   -2.3514   24.2413  -29.7434 H   0  0  0  0  0  0  0  0  0  0  0  0
   -3.4693   23.0954  -30.5774 H   0  0  0  0  0  0  0  0  0  0  0  0
   -6.7116   23.8152  -30.6434 H   0  0  0  0  0  0  0  0  0  0  0  0
   -7.0866   25.1181  -31.8468 H   0  0  0  0  0  0  0  0  0  0  0  0
   -4.6190   23.7840  -32.3540 H   0  0  0  0  0  0  0  0  0  0  0  0
   -5.8990   24.1220  -33.3970 H   0  0  0  0  0  0  0  0  0  0  0  0
   -4.0977   21.5731  -32.9928 H   0  0  0  0  0  0  0  0  0  0  0  0
   -4.7940   19.1791  -32.9308 H   0  0  0  0  0  0  0  0  0  0  0  0
   -8.7826   20.3620  -31.7414 H   0  0  0  0  0  0  0  0  0  0  0  0
   -8.0954   22.7585  -31.8071 H   0  0  0  0  0  0  0  0  0  0  0  0
  1  2  1  0
  2  3  1  0
  3  4  1  0
  4  5  2  0
  4  6  1  0
  6  7  1  0
  7  8  1  0
  8  9  2  0
  9 10  1  0
 10 11  2  0
 11 12  1  0
 11 13  1  0
 13 14  2  0
 14  8  1  0
  1 15  1  0
  1 16  1  0
  1 17  1  0
  2 18  1  0
  2 19  1  0
  6 20  1  0
  6 21  1  0
  7 22  1  0
  7 23  1  0
  9 24  1  0
 10 25  1  0
 13 26  1  0
 14 27  1  0
M  CHG  1   7   1
M  END
>  <UniqueID>  (17) 
16

>  <SMILES>  (17) 
CCOC(=O)C[NH2+]c1ccc(Br)cc1

>  <Energy>  (17) 
20.4716380728342

>  <Genealogy>  (17) 
CCOC(=O)C[NH2+]c1ccc(Br)cc1 (protonated)
CCOC(=O)C[NH2+]c1ccc(Br)cc1 (3D coordinates assigned)
CCOC(=O)C[NH2+]c1ccc(Br)cc1 (optimized conformer: 20.4716380728342 kcal/mol)

>  <smiles>  (17) 
CCOC(=O)CNc1ccc(Br)cc1

>  <score_type>  (17) 
oracle

>  <origin>  (17) 
adg

>  <m_score__min__energy>  (17) 
-5.2800000000000002

>  <m_primary>  (17) 
energy

$$$$
17:0
     RDKit          3D

 48 49  0  0  0  0  0  0  0  0999 V2000
   -5.8640   16.6380  -33.3190 C   0  0  0  0  0  0  0  0  0  0  0  0
   -5.7610   17.3840  -31.9910 C   0  0  0  0  0  0  0  0  0  0  0  0
   -6.4630   18.6850  -32.0480 N   0  0  0  0  0  0  0  0  0  0  0  0
   -7.8470   18.5280  -31.5700 C   0  0  0  0  0  0  0  0  0  0  0  0
   -6.4400   19.2860  -33.4070 C   0  0  0  0  0  0  0  0  0  0  0  0
   -5.6600   20.6140  -33.4030 C   0  0  0  0  0  0  0  0  0  0  0  0
   -5.1700   20.9840  -32.0620 N   0  0  0  0  0  0  0  0  0  0  0  0
   -4.0240   21.9010  -32.1350 C   0  0  0  0  0  0  0  0  0  0  0  0
   -3.3350   21.9800  -30.7950 C   0  0  0  0  0  0  0  0  0  0  0  0
   -2.8140   20.8010  -30.2340 C   0  0  0  0  0  0  0  0  0  0  0  0
   -2.0520   20.8490  -29.0660 C   0  0  0  0  0  0  0  0  0  0  0  0
   -1.7750   22.0750  -28.4610 C   0  0  0  0  0  0  0  0  0  0  0  0
   -2.2770   23.2600  -29.0090 C   0  0  0  0  0  0  0  0  0  0  0  0
   -1.8090   24.9230  -28.1860 Br  0  0  0  0  0  0  0  0  0  0  0  0
   -3.0840   23.2190  -30.1590 C   0  0  0  0  0  0  0  0  0  0  0  0
   -3.6090   24.4110  -30.6750 O   0  0  0  0  0  0  0  0  0  0  0  0
   -4.8660   24.9390  -30.2510 C   0  0  0  0  0  0  0  0  0  0  0  0
   -5.9860   24.0240  -30.6560 C   0  0  0  0  0  0  0  0  0  0  0  0
   -6.5400   23.1290  -29.7250 C   0  0  0  0  0  0  0  0  0  0  0  0
   -7.6140   22.3110  -30.0890 C   0  0  0  0  0  0  0  0  0  0  0  0
   -8.1460   22.3850  -31.3800 C   0  0  0  0  0  0  0  0  0  0  0  0
   -9.4980   21.3620  -31.8320 Cl  0  0  0  0  0  0  0  0  0  0  0  0
   -7.6060   23.2820  -32.3090 C   0  0  0  0  0  0  0  0  0  0  0  0
   -6.5330   24.1010  -31.9480 C   0  0  0  0  0  0  0  0  0  0  0  0
   -6.0121   15.5652  -33.1264 H   0  0  0  0  0  0  0  0  0  0  0  0
   -6.7167   17.0285  -33.8937 H   0  0  0  0  0  0  0  0  0  0  0  0
   -4.9373   16.7828  -33.8937 H   0  0  0  0  0  0  0  0  0  0  0  0
   -6.2116   16.7684  -31.1986 H   0  0  0  0  0  0  0  0  0  0  0  0
   -4.6979   17.5727  -31.7810 H   0  0  0  0  0  0  0  0  0  0  0  0
   -7.8571   18.5269  -30.4700 H   0  0  0  0  0  0  0  0  0  0  0  0
   -8.4601   19.3624  -31.9414 H   0  0  0  0  0  0  0  0  0  0  0  0
   -8.2576   17.5775  -31.9414 H   0  0  0  0  0  0  0  0  0  0  0  0
   -5.9561   18.5853  -34.1033 H   0  0  0  0  0  0  0  0  0  0  0  0
   -7.4747   19.4851  -33.7227 H   0  0  0  0  0  0  0  0  0  0  0  0
   -4.7971   20.5170  -34.0783 H   0  0  0  0  0  0  0  0  0  0  0  0
   -6.3496   21.4046  -33.7338 H   0  0  0  0  0  0  0  0  0  0  0  0
   -4.9020   20.1270  -31.5220 H   0  0  0  0  0  0  0  0  0  0  0  0
   -3.3120   21.5338  -32.8888 H   0  0  0  0  0  0  0  0  0  0  0  0
   -4.3825   22.9027  -32.4144 H   0  0  0  0  0  0  0  0  0  0  0  0
   -3.0085   19.8333  -30.7194 H   0  0  0  0  0  0  0  0  0  0  0  0
   -1.6691   19.9185  -28.6216 H   0  0  0  0  0  0  0  0  0  0  0  0
   -1.1597   22.1100  -27.5499 H   0  0  0  0  0  0  0  0  0  0  0  0
   -4.8632   25.0447  -29.1561 H   0  0  0  0  0  0  0  0  0  0  0  0
   -5.0183   25.9190  -30.7269 H   0  0  0  0  0  0  0  0  0  0  0  0
   -6.1275   23.0718  -28.7069 H   0  0  0  0  0  0  0  0  0  0  0  0
   -8.0411   21.6081  -29.3586 H   0  0  0  0  0  0  0  0  0  0  0  0
   -8.0265   23.3422  -33.3237 H   0  0  0  0  0  0  0  0  0  0  0  0
   -6.1147   24.8091  -32.6784 H   0  0  0  0  0  0  0  0  0  0  0  0
  1  2  1  0
  2  3  1  0
  3  4  1  0
  3  5  1  0
  5  6  1  0
  6  7  1  0
  7  8  1  0
  8  9  1  0
  9 10  2  0
 10 11  1  0
 11 12  2  0
 12 13  1  0
 13 14  1  0
 13 15  2  0
 15 16  1  0
 16 17  1  0
 17 18  1  0
 18 19  2  0
 19 20  1  0
 20 21  2  0
 21 22  1  0
 21 23  1  0
 23 24  2  0
 15  9  1  0
 24 18  1  0
  1 25  1  0
  1 26  1  0
  1 27  1  0
  2 28  1  0
  2 29  1  0
  4 30  1  0
  4 31  1  0
  4 32  1  0
  5 33  1  0
  5 34  1  0
  6 35  1  0
  6 36  1  0
  7 37  1  0
  8 38  1  0
  8 39  1  0
 10 40  1  0
 11 41  1  0
 12 42  1  0
 17 43  1  0
 17 44  1  0
 19 45  1  0
 20 46  1  0
 23 47  1  0
 24 48  1  0
M  END
>  <UniqueID>  (18) 
17

>  <SMILES>  (18) 
CCN(C)CCNCc1cccc(Br)c1OCc1ccc(Cl)cc1

>  <Energy>  (18) 
52.47321914205857

>  <Genealogy>  (18) 
CCN(C)CCNCc1cccc(Br)c1OCc1ccc(Cl)cc1 (3D coordinates assigned)
CCN(C)CCNCc1cccc(Br)c1OCc1ccc(Cl)cc1 (optimized conformer: 52.47321914205857 kcal/mol)

>  <smiles>  (18) 
CCN(C)CCNCc1cccc(Br)c1OCc1ccc(Cl)cc1

>  <score_type>  (18) 
oracle

>  <origin>  (18) 
adg

>  <m_score__min__energy>  (18) 
-8.1199999999999992

>  <m_primary>  (18) 
energy

$$$$
18:0
     RDKit          3D

 51 54  0  0  0  0  0  0  0  0999 V2000
   -6.2130   25.1860  -29.6550 C   0  0  0  0  0  0  0  0  0  0  0  0
   -6.3000   23.7170  -29.8110 N   0  0  0  0  0  0  0  0  0  0  0  0
   -7.4750   23.3750  -30.6280 C   0  0  0  0  0  0  0  0  0  0  0  0
   -7.0270   23.2920  -32.0870 C   0  0  0  0  0  0  0  0  0  0  0  0
   -5.5090   23.3020  -32.0490 C   0  0  0  0  0  0  0  0  0  0  0  0
   -5.1690   23.1470  -30.5700 C   0  0  1  0  0  0  0  0  0  0  0  0
   -3.8140   23.6840  -30.1500 C   0  0  0  0  0  0  0  0  0  0  0  0
   -3.5350   24.8880  -30.3970 O   0  0  0  0  0  0  0  0  0  0  0  0
   -2.8480   22.8680  -29.4700 N   0  0  0  0  0  0  0  0  0  0  0  0
   -1.4500   22.9570  -29.9240 C   0  0  0  0  0  0  0  0  0  0  0  0
   -0.4860   22.0860  -29.1060 C   0  0  0  0  0  0  0  0  0  0  0  0
   -0.1660   22.6750  -27.7210 C   0  0  0  0  0  0  0  0  0  0  0  0
   -1.1860   22.3630  -26.6910 N   0  0  0  0  0  0  0  0  0  0  0  0
   -0.7210   22.8040  -25.3490 C   0  0  0  0  0  0  0  0  0  0  0  0
   -0.9270   24.2790  -25.1750 C   0  0  0  0  0  0  0  0  0  0  0  0
   -0.3390   25.0850  -24.2740 N   0  0  0  0  0  0  0  0  0  0  0  0
   -0.8320   26.3050  -24.4430 N   0  0  0  0  0  0  0  0  0  0  0  0
   -0.3730   27.4820  -23.7160 C   0  0  0  0  0  0  0  0  0  0  0  0
   -1.7280   26.2980  -25.4550 C   0  0  0  0  0  0  0  0  0  0  0  0
   -1.8240   25.0010  -25.9180 C   0  0  0  0  0  0  0  0  0  0  0  0
   -2.6000   24.4350  -27.0620 C   0  0  0  0  0  0  0  0  0  0  0  0
   -2.5580   22.8860  -26.9790 C   0  0  1  0  0  0  0  0  0  0  0  0
   -3.2270   22.2190  -28.2050 C   0  0  0  0  0  0  0  0  0  0  0  0
   -6.1979   25.4408  -28.5850 H   0  0  0  0  0  0  0  0  0  0  0  0
   -5.2916   25.5515  -30.1320 H   0  0  0  0  0  0  0  0  0  0  0  0
   -7.0848   25.6577  -30.1320 H   0  0  0  0  0  0  0  0  0  0  0  0
   -7.8835   22.4054  -30.3071 H   0  0  0  0  0  0  0  0  0  0  0  0
   -8.2576   24.1392  -30.5111 H   0  0  0  0  0  0  0  0  0  0  0  0
   -7.3935   22.3634  -32.5490 H   0  0  0  0  0  0  0  0  0  0  0  0
   -7.4248   24.1265  -32.6831 H   0  0  0  0  0  0  0  0  0  0  0  0
   -5.0989   22.4650  -32.6331 H   0  0  0  0  0  0  0  0  0  0  0  0
   -5.0833   24.2179  -32.4848 H   0  0  0  0  0  0  0  0  0  0  0  0
   -5.0476   22.0775  -30.3431 H   0  0  0  0  0  0  0  0  0  0  0  0
   -1.4037   22.6356  -30.9750 H   0  0  0  0  0  0  0  0  0  0  0  0
   -1.1326   24.0022  -29.7941 H   0  0  0  0  0  0  0  0  0  0  0  0
   -0.9419   21.0945  -28.9677 H   0  0  0  0  0  0  0  0  0  0  0  0
    0.4598   22.0307  -29.6649 H   0  0  0  0  0  0  0  0  0  0  0  0
    0.8006   22.2704  -27.3864 H   0  0  0  0  0  0  0  0  0  0  0  0
   -0.1465   23.7691  -27.8334 H   0  0  0  0  0  0  0  0  0  0  0  0
   -1.2889   22.2664  -24.5754 H   0  0  0  0  0  0  0  0  0  0  0  0
    0.3527   22.5836  -25.2567 H   0  0  0  0  0  0  0  0  0  0  0  0
    0.3870   24.8160  -23.5730 H   0  0  0  0  0  0  0  0  0  0  0  0
   -0.4455   27.2962  -22.6342 H   0  0  0  0  0  0  0  0  0  0  0  0
    0.6732   27.6927  -23.9826 H   0  0  0  0  0  0  0  0  0  0  0  0
   -1.0003   28.3454  -23.9826 H   0  0  0  0  0  0  0  0  0  0  0  0
   -2.2804   27.1679  -25.8398 H   0  0  0  0  0  0  0  0  0  0  0  0
   -3.6431   24.7798  -27.0074 H   0  0  0  0  0  0  0  0  0  0  0  0
   -2.1603   24.7698  -28.0131 H   0  0  0  0  0  0  0  0  0  0  0  0
   -3.1669   22.5963  -26.1099 H   0  0  0  0  0  0  0  0  0  0  0  0
   -2.9214   21.1630  -28.2438 H   0  0  0  0  0  0  0  0  0  0  0  0
   -4.3164   22.3180  -28.0892 H   0  0  0  0  0  0  0  0  0  0  0  0
  1  2  1  0
  2  3  1  0
  3  4  1  0
  4  5  1  0
  5  6  1  0
  6  7  1  0
  7  8  2  0
  7  9  1  0
  9 10  1  0
 10 11  1  0
 11 12  1  0
 12 13  1  0
 13 14  1  0
 14 15  1  0
 15 16  2  0
 16 17  1  0
 17 18  1  0
 17 19  1  0
 19 20  2  0
 20 21  1  0
 21 22  1  0
 22 23  1  0
  6  2  1  0
 23  9  1  0
 22 13  1  0
 20 15  1  0
  1 24  1  0
  1 25  1  0
  1 26  1  0
  3 27  1  0
  3 28  1  0
  4 29  1  0
  4 30  1  0
  5 31  1  0
  5 32  1  0
  6 33  1  1
 10 34  1  0
 10 35  1  0
 11 36  1  0
 11 37  1  0
 12 38  1  0
 12 39  1  0
 14 40  1  0
 14 41  1  0
 16 42  1  0
 18 43  1  0
 18 44  1  0
 18 45  1  0
 19 46  1  0
 21 47  1  0
 21 48  1  0
 22 49  1  1
 23 50  1  0
 23 51  1  0
M  CHG  1  16   1
M  END
>  <UniqueID>  (19) 
18

>  <SMILES>  (19) 
CN1CCC[C@H]1C(=O)N1CCCN2Cc3[nH+]n(C)cc3C[C@H]2C1

>  <Energy>  (19) 
109.09223558775943

>  <Genealogy>  (19) 
CN1CCCC1C(=O)N1CCCN2Cc3[nH+]n(C)cc3CC2C1 (protonated)
CN1CCC[C@H]1C(=O)N1CCCN2Cc3[nH+]n(C)cc3C[C@H]2C1 (chirality)
CN1CCC[C@H]1C(=O)N1CCCN2Cc3[nH+]n(C)cc3C[C@H]2C1 (3D coordinates assigned)
CN1CCC[C@H]1C(=O)N1CCCN2Cc3[nH+]n(C)cc3C[C@H]2C1 (nonaromatic ring conformer: 109.09223558775943 kcal/mol)

>  <smiles>  (19) 
CN1CCCC1C(=O)N1CCCN2Cc3nn(C)cc3CC2C1

>  <score_type>  (19) 
oracle

>  <origin>  (19) 
adg

>  <m_score__min__energy>  (19) 
-7

>  <m_primary>  (19) 
energy

$$$$
19:0
     RDKit          3D

 38 40  0  0  0  0  0  0  0  0999 V2000
   -9.3560   18.6530  -32.0170 C   0  0  0  0  0  0  0  0  0  0  0  0
   -8.0320   19.2990  -32.2970 C   0  0  0  0  0  0  0  0  0  0  0  0
   -7.9070   20.6960  -32.2520 C   0  0  0  0  0  0  0  0  0  0  0  0
   -6.6710   21.3010  -32.4920 C   0  0  0  0  0  0  0  0  0  0  0  0
   -5.5390   20.5160  -32.7700 C   0  0  0  0  0  0  0  0  0  0  0  0
   -4.2210   21.1640  -33.1090 C   0  0  0  0  0  0  0  0  0  0  0  0
   -3.1880   20.7460  -32.1530 N   0  0  0  0  0  0  0  0  0  0  0  0
   -1.8340   20.9000  -32.7070 C   0  0  0  0  0  0  0  0  0  0  0  0
   -0.8190   20.9710  -31.5630 C   0  0  0  0  0  0  0  0  0  0  0  0
   -1.4590   21.3440  -30.3430 O   0  0  0  0  0  0  0  0  0  0  0  0
   -1.5280   22.6550  -29.8440 C   0  0  0  0  0  0  0  0  0  0  0  0
   -0.5240   23.2410  -29.0320 C   0  0  0  0  0  0  0  0  0  0  0  0
   -0.6720   24.5740  -28.5810 C   0  0  0  0  0  0  0  0  0  0  0  0
   -1.7780   25.3030  -28.9170 N   0  0  0  0  0  0  0  0  0  0  0  0
   -2.7310   24.7260  -29.6900 C   0  0  0  0  0  0  0  0  0  0  0  0
   -3.8680   25.2980  -30.1090 N   0  0  0  0  0  0  0  0  0  0  0  0
   -4.4250   24.2920  -30.8340 C   0  0  0  0  0  0  0  0  0  0  0  0
   -5.5330   24.4170  -31.4170 O   0  0  0  0  0  0  0  0  0  0  0  0
   -3.7030   23.1410  -30.8860 N   0  0  0  0  0  0  0  0  0  0  0  0
   -2.6300   23.4510  -30.1450 C   0  0  0  0  0  0  0  0  0  0  0  0
   -5.6610   19.1190  -32.7930 C   0  0  0  0  0  0  0  0  0  0  0  0
   -6.8980   18.5140  -32.5500 C   0  0  0  0  0  0  0  0  0  0  0  0
   -9.5057   18.5800  -30.9297 H   0  0  0  0  0  0  0  0  0  0  0  0
  -10.1606   19.2598  -32.4580 H   0  0  0  0  0  0  0  0  0  0  0  0
   -9.3729   17.6454  -32.4580 H   0  0  0  0  0  0  0  0  0  0  0  0
   -8.7863   21.3174  -32.0267 H   0  0  0  0  0  0  0  0  0  0  0  0
   -6.5833   22.3971  -32.4633 H   0  0  0  0  0  0  0  0  0  0  0  0
   -3.9194   20.8643  -34.1235 H   0  0  0  0  0  0  0  0  0  0  0  0
   -4.3354   22.2568  -33.0578 H   0  0  0  0  0  0  0  0  0  0  0  0
   -3.2630   21.3550  -31.3030 H   0  0  0  0  0  0  0  0  0  0  0  0
   -1.6012   20.0389  -33.3507 H   0  0  0  0  0  0  0  0  0  0  0  0
   -1.7836   21.8254  -33.2996 H   0  0  0  0  0  0  0  0  0  0  0  0
   -0.3477   19.9851  -31.4368 H   0  0  0  0  0  0  0  0  0  0  0  0
   -0.0602   21.7280  -31.8100 H   0  0  0  0  0  0  0  0  0  0  0  0
    0.3679   22.6606  -28.7533 H   0  0  0  0  0  0  0  0  0  0  0  0
    0.1101   25.0275  -27.9544 H   0  0  0  0  0  0  0  0  0  0  0  0
   -4.7791   18.4961  -33.0033 H   0  0  0  0  0  0  0  0  0  0  0  0
   -6.9819   17.4172  -32.5573 H   0  0  0  0  0  0  0  0  0  0  0  0
  1  2  1  0
  2  3  2  0
  3  4  1  0
  4  5  2  0
  5  6  1  0
  6  7  1  0
  7  8  1  0
  8  9  1  0
  9 10  1  0
 10 11  1  0
 11 12  2  0
 12 13  1  0
 13 14  2  0
 14 15  1  0
 15 16  1  0
 16 17  1  0
 17 18  2  0
 17 19  1  0
 19 20  1  0
  5 21  1  0
 21 22  2  0
 22  2  1  0
 20 11  1  0
 20 15  2  0
  1 23  1  0
  1 24  1  0
  1 25  1  0
  3 26  1  0
  4 27  1  0
  6 28  1  0
  6 29  1  0
  7 30  1  0
  8 31  1  0
  8 32  1  0
  9 33  1  0
  9 34  1  0
 12 35  1  0
 13 36  1  0
 21 37  1  0
 22 38  1  0
M  CHG  2  16  -1  19  -1
M  END
>  <UniqueID>  (20) 
19

>  <SMILES>  (20) 
Cc1ccc(CNCCOc2ccnc3[n-]c(=O)[n-]c23)cc1

>  <Energy>  (20) 
72.93613924500814

>  <Genealogy>  (20) 
Cc1ccc(CNCCOc2ccnc3[n-]c(=O)[n-]c23)cc1 (protonated)
Cc1ccc(CNCCOc2ccnc3[n-]c(=O)[n-]c23)cc1 (3D coordinates assigned)
Cc1ccc(CNCCOc2ccnc3[n-]c(=O)[n-]c23)cc1 (optimized conformer: 72.93613924500814 kcal/mol)

>  <smiles>  (20) 
Cc1ccc(CNCCOc2ccnc3[nH]c(=O)[nH]c23)cc1

>  <score_type>  (20) 
oracle

>  <origin>  (20) 
adg

>  <m_score__min__energy>  (20) 
-9.9900000000000002

>  <m_primary>  (20) 
energy

$$$$
20:0
     RDKit          3D

 61 63  0  0  0  0  0  0  0  0999 V2000
   -4.1270   24.0710  -27.4460 C   0  0  0  0  0  0  0  0  0  0  0  0
   -3.4920   24.4940  -28.7800 C   0  0  0  0  0  0  0  0  0  0  0  0
   -4.1660   23.9220  -29.9670 N   0  0  0  0  0  0  0  0  0  0  0  0
   -5.0120   24.9040  -30.6860 C   0  0  0  0  0  0  0  0  0  0  0  0
   -6.2100   25.2710  -29.8200 C   0  0  0  0  0  0  0  0  0  0  0  0
   -3.2420   23.1770  -30.8510 C   0  0  0  0  0  0  0  0  0  0  0  0
   -3.7230   21.7350  -31.0680 C   0  0  0  0  0  0  0  0  0  0  0  0
   -3.4760   21.2600  -32.5070 C   0  0  0  0  0  0  0  0  0  0  0  0
   -4.6010   21.6300  -33.3820 N   0  0  0  0  0  0  0  0  0  0  0  0
   -5.7730   20.8220  -33.0850 C   0  0  0  0  0  0  0  0  0  0  0  0
   -6.9540   21.4200  -32.5680 C   0  0  0  0  0  0  0  0  0  0  0  0
   -7.1050   22.8260  -32.4860 C   0  0  0  0  0  0  0  0  0  0  0  0
   -8.2790   23.3960  -32.0020 C   0  0  0  0  0  0  0  0  0  0  0  0
   -9.3350   22.5880  -31.6080 C   0  0  0  0  0  0  0  0  0  0  0  0
   -9.2190   21.2020  -31.6800 C   0  0  0  0  0  0  0  0  0  0  0  0
   -8.0230   20.5880  -32.1350 C   0  0  0  0  0  0  0  0  0  0  0  0
   -7.8950   19.2150  -32.1750 N   0  0  0  0  0  0  0  0  0  0  0  0
   -8.8420   18.3620  -31.4210 C   0  0  0  0  0  0  0  0  0  0  0  0
   -6.8780   18.6390  -32.9090 C   0  0  0  0  0  0  0  0  0  0  0  0
   -6.9080   17.2630  -33.2530 C   0  0  0  0  0  0  0  0  0  0  0  0
   -5.8590   16.6510  -33.9580 C   0  0  0  0  0  0  0  0  0  0  0  0
   -5.9080   15.2410  -34.2940 N   0  0  0  0  0  0  0  0  0  0  0  0
   -4.6700   14.4600  -34.4030 C   0  0  0  0  0  0  0  0  0  0  0  0
   -7.1930   14.5750  -34.5390 C   0  0  0  0  0  0  0  0  0  0  0  0
   -4.7660   17.4360  -34.3400 C   0  0  0  0  0  0  0  0  0  0  0  0
   -4.7300   18.7960  -34.0510 C   0  0  0  0  0  0  0  0  0  0  0  0
   -5.7810   19.4260  -33.3480 C   0  0  0  0  0  0  0  0  0  0  0  0
   -3.5293   24.4692  -26.6128 H   0  0  0  0  0  0  0  0  0  0  0  0
   -5.1511   24.4680  -27.3852 H   0  0  0  0  0  0  0  0  0  0  0  0
   -4.1552   22.9730  -27.3852 H   0  0  0  0  0  0  0  0  0  0  0  0
   -3.5333   25.5909  -28.8520 H   0  0  0  0  0  0  0  0  0  0  0  0
   -2.4604   24.1121  -28.7806 H   0  0  0  0  0  0  0  0  0  0  0  0
   -4.4233   25.8082  -30.8999 H   0  0  0  0  0  0  0  0  0  0  0  0
   -5.3633   24.4636  -31.6308 H   0  0  0  0  0  0  0  0  0  0  0  0
   -5.9346   25.1866  -28.7584 H   0  0  0  0  0  0  0  0  0  0  0  0
   -6.5172   26.3045  -30.0381 H   0  0  0  0  0  0  0  0  0  0  0  0
   -7.0434   24.5870  -30.0381 H   0  0  0  0  0  0  0  0  0  0  0  0
   -3.1869   23.6871  -31.8240 H   0  0  0  0  0  0  0  0  0  0  0  0
   -2.2518   23.1457  -30.3729 H   0  0  0  0  0  0  0  0  0  0  0  0
   -3.1823   21.0718  -30.3768 H   0  0  0  0  0  0  0  0  0  0  0  0
   -4.8064   21.7049  -30.8801 H   0  0  0  0  0  0  0  0  0  0  0  0
   -2.5552   21.7264  -32.8873 H   0  0  0  0  0  0  0  0  0  0  0  0
   -3.3783   20.1644  -32.5039 H   0  0  0  0  0  0  0  0  0  0  0  0
   -4.3300   21.5360  -34.3860 H   0  0  0  0  0  0  0  0  0  0  0  0
   -4.8190   22.6480  -33.2850 H   0  0  0  0  0  0  0  0  0  0  0  0
   -6.2807   23.4783  -32.8102 H   0  0  0  0  0  0  0  0  0  0  0  0
   -8.3694   24.4900  -31.9318 H   0  0  0  0  0  0  0  0  0  0  0  0
  -10.2658   23.0426  -31.2380 H   0  0  0  0  0  0  0  0  0  0  0  0
  -10.0691   20.5722  -31.3790 H   0  0  0  0  0  0  0  0  0  0  0  0
   -8.6841   18.5042  -30.3417 H   0  0  0  0  0  0  0  0  0  0  0  0
   -9.8738   18.6414  -31.6806 H   0  0  0  0  0  0  0  0  0  0  0  0
   -8.6716   17.3067  -31.6806 H   0  0  0  0  0  0  0  0  0  0  0  0
   -7.7783   16.6579  -32.9589 H   0  0  0  0  0  0  0  0  0  0  0  0
   -4.2956   14.2238  -33.3960 H   0  0  0  0  0  0  0  0  0  0  0  0
   -4.8725   13.5258  -34.9473 H   0  0  0  0  0  0  0  0  0  0  0  0
   -3.9141   15.0451  -34.9473 H   0  0  0  0  0  0  0  0  0  0  0  0
   -7.6677   14.3290  -33.5777 H   0  0  0  0  0  0  0  0  0  0  0  0
   -7.8504   15.2459  -35.1115 H   0  0  0  0  0  0  0  0  0  0  0  0
   -7.0238   13.6511  -35.1115 H   0  0  0  0  0  0  0  0  0  0  0  0
   -3.9246   16.9720  -34.8755 H   0  0  0  0  0  0  0  0  0  0  0  0
   -3.8655   19.3933  -34.3765 H   0  0  0  0  0  0  0  0  0  0  0  0
  1  2  1  0
  2  3  1  0
  3  4  1  0
  4  5  1  0
  3  6  1  0
  6  7  1  0
  7  8  1  0
  8  9  1  0
  9 10  1  0
 10 11  2  0
 11 12  1  0
 12 13  2  0
 13 14  1  0
 14 15  2  0
 15 16  1  0
 16 17  2  0
 17 18  1  0
 17 19  1  0
 19 20  2  0
 20 21  1  0
 21 22  1  0
 22 23  1  0
 22 24  1  0
 21 25  2  0
 25 26  1  0
 26 27  2  0
 27 10  1  0
 16 11  1  0
 27 19  1  0
  1 28  1  0
  1 29  1  0
  1 30  1  0
  2 31  1  0
  2 32  1  0
  4 33  1  0
  4 34  1  0
  5 35  1  0
  5 36  1  0
  5 37  1  0
  6 38  1  0
  6 39  1  0
  7 40  1  0
  7 41  1  0
  8 42  1  0
  8 43  1  0
  9 44  1  0
  9 45  1  0
 12 46  1  0
 13 47  1  0
 14 48  1  0
 15 49  1  0
 18 50  1  0
 18 51  1  0
 18 52  1  0
 20 53  1  0
 23 54  1  0
 23 55  1  0
 23 56  1  0
 24 57  1  0
 24 58  1  0
 24 59  1  0
 25 60  1  0
 26 61  1  0
M  CHG  2   9   1  17   1
M  END
>  <UniqueID>  (21) 
20

>  <SMILES>  (21) 
CCN(CC)CCC[NH2+]c1c2ccccc2[n+](C)c2cc(N(C)C)ccc12

>  <Energy>  (21) 
87.88361871004741

>  <Genealogy>  (21) 
CCN(CC)CCC[NH2+]c1c2ccccc2[n+](C)c2cc(N(C)C)ccc12 (protonated)
CCN(CC)CCC[NH2+]c1c2ccccc2[n+](C)c2cc(N(C)C)ccc12 (3D coordinates assigned)
CCN(CC)CCC[NH2+]c1c2ccccc2[n+](C)c2cc(N(C)C)ccc12 (optimized conformer: 87.88361871004741 kcal/mol)

>  <smiles>  (21) 
CCN(CC)CCCNc1c2ccccc2[n+](C)c2cc(N(C)C)ccc12

>  <score_type>  (21) 
oracle

>  <origin>  (21) 
adg

>  <m_score__min__energy>  (21) 
-8.3900000000000006

>  <m_primary>  (21) 
energy

$$$$
21:0
     RDKit          3D

 60 62  0  0  0  0  0  0  0  0999 V2000
    0.4290   19.6460  -30.7560 C   0  0  0  0  0  0  0  0  0  0  0  0
   -0.4900   18.4610  -31.0840 C   0  0  0  0  0  0  0  0  0  0  0  0
   -0.3530   17.9910  -32.4890 N   0  0  0  0  0  0  0  0  0  0  0  0
   -0.9230   16.6260  -32.6520 C   0  0  0  0  0  0  0  0  0  0  0  0
   -0.1070   15.5570  -31.9160 C   0  0  0  0  0  0  0  0  0  0  0  0
    1.0450   18.0500  -33.0010 C   0  0  0  0  0  0  0  0  0  0  0  0
    1.3160   19.2000  -33.9910 C   0  0  0  0  0  0  0  0  0  0  0  0
    0.1320   19.5110  -34.7000 O   0  0  0  0  0  0  0  0  0  0  0  0
    0.0020   20.9060  -34.9070 C   0  0  0  0  0  0  0  0  0  0  0  0
   -1.1560   21.4650  -34.0840 C   0  0  0  0  0  0  0  0  0  0  0  0
   -1.5340   20.5230  -33.0860 O   0  0  0  0  0  0  0  0  0  0  0  0
   -2.8570   20.0990  -32.9430 C   0  0  0  0  0  0  0  0  0  0  0  0
   -3.7480   20.7390  -32.0540 C   0  0  0  0  0  0  0  0  0  0  0  0
   -3.3670   21.9420  -31.2780 C   0  0  0  0  0  0  0  0  0  0  0  0
   -4.2690   23.0020  -31.0800 C   0  0  0  0  0  0  0  0  0  0  0  0
   -3.8990   24.1120  -30.3150 C   0  0  0  0  0  0  0  0  0  0  0  0
   -2.6360   24.1760  -29.7180 C   0  0  0  0  0  0  0  0  0  0  0  0
   -2.3210   25.3040  -28.9460 O   0  0  0  0  0  0  0  0  0  0  0  0
   -2.0410   25.2710  -27.5480 C   0  0  0  0  0  0  0  0  0  0  0  0
   -1.7340   23.1120  -29.9040 C   0  0  0  0  0  0  0  0  0  0  0  0
   -2.1020   22.0040  -30.6730 C   0  0  0  0  0  0  0  0  0  0  0  0
   -4.9810   20.2600  -31.8990 O   0  0  0  0  0  0  0  0  0  0  0  0
   -5.4430   19.2080  -32.5680 C   0  0  0  0  0  0  0  0  0  0  0  0
   -6.7530   18.7700  -32.3500 C   0  0  0  0  0  0  0  0  0  0  0  0
   -7.2490   17.6650  -33.0480 C   0  0  0  0  0  0  0  0  0  0  0  0
   -6.4380   16.9950  -33.9680 C   0  0  0  0  0  0  0  0  0  0  0  0
   -5.1280   17.4260  -34.1970 C   0  0  0  0  0  0  0  0  0  0  0  0
   -4.6200   18.5360  -33.5000 C   0  0  0  0  0  0  0  0  0  0  0  0
   -3.3100   19.0010  -33.6830 C   0  0  0  0  0  0  0  0  0  0  0  0
   -2.5310   18.4330  -34.4990 O   0  0  0  0  0  0  0  0  0  0  0  0
    0.5127   19.7539  -29.6645 H   0  0  0  0  0  0  0  0  0  0  0  0
    1.4261   19.4662  -31.1842 H   0  0  0  0  0  0  0  0  0  0  0  0
    0.0067   20.5670  -31.1842 H   0  0  0  0  0  0  0  0  0  0  0  0
   -0.2420   17.6279  -30.4099 H   0  0  0  0  0  0  0  0  0  0  0  0
   -1.5272   18.8021  -30.9506 H   0  0  0  0  0  0  0  0  0  0  0  0
   -0.9060   18.6430  -33.0940 H   0  0  0  0  0  0  0  0  0  0  0  0
   -1.9488   16.6224  -32.2547 H   0  0  0  0  0  0  0  0  0  0  0  0
   -0.9036   16.3817  -33.7243 H   0  0  0  0  0  0  0  0  0  0  0  0
   -0.2139   15.6971  -30.8302 H   0  0  0  0  0  0  0  0  0  0  0  0
   -0.4747   14.5585  -32.1949 H   0  0  0  0  0  0  0  0  0  0  0  0
    0.9531   15.6484  -32.1949 H   0  0  0  0  0  0  0  0  0  0  0  0
    1.7207   18.1704  -32.1414 H   0  0  0  0  0  0  0  0  0  0  0  0
    1.2148   17.1147  -33.5545 H   0  0  0  0  0  0  0  0  0  0  0  0
    1.6532   20.0878  -33.4360 H   0  0  0  0  0  0  0  0  0  0  0  0
    2.0950   18.8902  -34.7032 H   0  0  0  0  0  0  0  0  0  0  0  0
    0.9345   21.4049  -34.6046 H   0  0  0  0  0  0  0  0  0  0  0  0
   -0.1990   21.0895  -35.9728 H   0  0  0  0  0  0  0  0  0  0  0  0
   -0.8427   22.4027  -33.6018 H   0  0  0  0  0  0  0  0  0  0  0  0
   -2.0132   21.6584  -34.7457 H   0  0  0  0  0  0  0  0  0  0  0  0
   -5.2719   22.9577  -31.5297 H   0  0  0  0  0  0  0  0  0  0  0  0
   -4.6077   24.9426  -30.1814 H   0  0  0  0  0  0  0  0  0  0  0  0
   -2.9786   25.3815  -26.9835 H   0  0  0  0  0  0  0  0  0  0  0  0
   -1.5693   24.3110  -27.2911 H   0  0  0  0  0  0  0  0  0  0  0  0
   -1.3591   26.0950  -27.2911 H   0  0  0  0  0  0  0  0  0  0  0  0
   -0.7362   23.1522  -29.4428 H   0  0  0  0  0  0  0  0  0  0  0  0
   -1.3935   21.1730  -30.8052 H   0  0  0  0  0  0  0  0  0  0  0  0
   -7.3946   19.2961  -31.6277 H   0  0  0  0  0  0  0  0  0  0  0  0
   -8.2795   17.3223  -32.8728 H   0  0  0  0  0  0  0  0  0  0  0  0
   -6.8319   16.1252  -34.5141 H   0  0  0  0  0  0  0  0  0  0  0  0
   -4.4942   16.8961  -34.9233 H   0  0  0  0  0  0  0  0  0  0  0  0
  1  2  1  0
  2  3  1  0
  3  4  1  0
  4  5  1  0
  3  6  1  0
  6  7  1  0
  7  8  1  0
  8  9  1  0
  9 10  1  0
 10 11  1  0
 11 12  1  0
 12 13  2  0
 13 14  1  0
 14 15  2  0
 15 16  1  0
 16 17  2  0
 17 18  1  0
 18 19  1  0
 17 20  1  0
 20 21  2  0
 13 22  1  0
 22 23  1  0
 23 24  2  0
 24 25  1  0
 25 26  2  0
 26 27  1  0
 27 28  2  0
 28 29  1  0
 29 30  2  0
 29 12  1  0
 21 14  1  0
 28 23  1  0
  1 31  1  0
  1 32  1  0
  1 33  1  0
  2 34  1  0
  2 35  1  0
  3 36  1  0
  4 37  1  0
  4 38  1  0
  5 39  1  0
  5 40  1  0
  5 41  1  0
  6 42  1  0
  6 43  1  0
  7 44  1  0
  7 45  1  0
  9 46  1  0
  9 47  1  0
 10 48  1  0
 10 49  1  0
 15 50  1  0
 16 51  1  0
 19 52  1  0
 19 53  1  0
 19 54  1  0
 20 55  1  0
 21 56  1  0
 24 57  1  0
 25 58  1  0
 26 59  1  0
 27 60  1  0
M  CHG  1   3   1
M  END
>  <UniqueID>  (22) 
21

>  <SMILES>  (22) 
CC[NH+](CC)CCOCCOc1c(-c2ccc(OC)cc2)oc2ccccc2c1=O

>  <Energy>  (22) 
79.46669111311505

>  <Genealogy>  (22) 
CC[NH+](CC)CCOCCOc1c(-c2ccc(OC)cc2)oc2ccccc2c1=O (protonated)
CC[NH+](CC)CCOCCOc1c(-c2ccc(OC)cc2)oc2ccccc2c1=O (3D coordinates assigned)
CC[NH+](CC)CCOCCOc1c(-c2ccc(OC)cc2)oc2ccccc2c1=O (optimized conformer: 79.46669111311505 kcal/mol)

>  <smiles>  (22) 
CCN(CC)CCOCCOc1c(-c2ccc(OC)cc2)oc2ccccc2c1=O

>  <score_type>  (22) 
oracle

>  <origin>  (22) 
adg

>  <m_score__min__energy>  (22) 
-7.6500000000000004

>  <m_primary>  (22) 
energy

$$$$
22:0
     RDKit          3D

 60 62  0  0  0  0  0  0  0  0999 V2000
   -2.7580   25.2540  -26.3040 C   0  0  0  0  0  0  0  0  0  0  0  0
   -4.1630   24.7900  -26.7220 C   0  0  0  0  0  0  0  0  0  0  0  0
   -4.2690   24.1050  -28.0480 N   0  0  0  0  0  0  0  0  0  0  0  0
   -4.2290   22.6190  -27.9490 C   0  0  0  0  0  0  0  0  0  0  0  0
   -2.8210   22.0230  -27.9340 C   0  0  0  0  0  0  0  0  0  0  0  0
   -5.3560   24.5850  -28.9530 C   0  0  0  0  0  0  0  0  0  0  0  0
   -4.8200   25.0860  -30.3050 C   0  0  0  0  0  0  0  0  0  0  0  0
   -3.6900   24.3250  -30.7000 O   0  0  0  0  0  0  0  0  0  0  0  0
   -4.0780   23.0430  -31.1580 C   0  0  0  0  0  0  0  0  0  0  0  0
   -2.8440   22.2870  -31.6670 C   0  0  0  0  0  0  0  0  0  0  0  0
   -3.2060   21.1490  -32.6340 C   0  0  0  0  0  0  0  0  0  0  0  0
   -4.4920   21.4020  -33.2880 N   0  0  0  0  0  0  0  0  0  0  0  0
   -5.6560   20.6140  -32.9910 C   0  0  0  0  0  0  0  0  0  0  0  0
   -5.6710   19.2370  -33.2800 C   0  0  0  0  0  0  0  0  0  0  0  0
   -4.5650   18.6200  -33.9060 C   0  0  0  0  0  0  0  0  0  0  0  0
   -4.6060   17.2690  -34.2540 C   0  0  0  0  0  0  0  0  0  0  0  0
   -5.7480   16.5200  -34.0000 C   0  0  0  0  0  0  0  0  0  0  0  0
   -6.8480   17.1050  -33.3710 C   0  0  0  0  0  0  0  0  0  0  0  0
   -6.8250   18.4680  -32.9670 C   0  0  0  0  0  0  0  0  0  0  0  0
   -7.8910   19.0540  -32.3080 N   0  0  0  0  0  0  0  0  0  0  0  0
   -8.9510   18.2040  -31.7200 C   0  0  0  0  0  0  0  0  0  0  0  0
   -7.9530   20.4330  -32.1790 C   0  0  0  0  0  0  0  0  0  0  0  0
   -9.1320   21.0920  -31.7470 C   0  0  0  0  0  0  0  0  0  0  0  0
   -9.1650   22.4760  -31.5840 C   0  0  0  0  0  0  0  0  0  0  0  0
   -8.0380   23.2410  -31.8660 C   0  0  0  0  0  0  0  0  0  0  0  0
   -6.8780   22.6300  -32.3310 C   0  0  0  0  0  0  0  0  0  0  0  0
   -6.8220   21.2300  -32.5030 C   0  0  0  0  0  0  0  0  0  0  0  0
   -2.6907   25.2762  -25.2063 H   0  0  0  0  0  0  0  0  0  0  0  0
   -2.0074   24.5560  -26.7033 H   0  0  0  0  0  0  0  0  0  0  0  0
   -2.5707   26.2617  -26.7033 H   0  0  0  0  0  0  0  0  0  0  0  0
   -4.5273   24.0916  -25.9542 H   0  0  0  0  0  0  0  0  0  0  0  0
   -4.7582   25.7099  -26.8193 H   0  0  0  0  0  0  0  0  0  0  0  0
   -3.3630   24.3240  -28.5300 H   0  0  0  0  0  0  0  0  0  0  0  0
   -4.7376   22.3226  -27.0198 H   0  0  0  0  0  0  0  0  0  0  0  0
   -4.7235   22.2315  -28.8520 H   0  0  0  0  0  0  0  0  0  0  0  0
   -2.4927   21.8840  -26.8934 H   0  0  0  0  0  0  0  0  0  0  0  0
   -2.8288   21.0510  -28.4489 H   0  0  0  0  0  0  0  0  0  0  0  0
   -2.1286   22.7052  -28.4489 H   0  0  0  0  0  0  0  0  0  0  0  0
   -6.0544   23.7551  -29.1363 H   0  0  0  0  0  0  0  0  0  0  0  0
   -5.8539   25.4312  -28.4570 H   0  0  0  0  0  0  0  0  0  0  0  0
   -5.6077   24.9876  -31.0664 H   0  0  0  0  0  0  0  0  0  0  0  0
   -4.5232   26.1403  -30.2033 H   0  0  0  0  0  0  0  0  0  0  0  0
   -4.5367   22.4814  -30.3308 H   0  0  0  0  0  0  0  0  0  0  0  0
   -4.8055   23.1504  -31.9760 H   0  0  0  0  0  0  0  0  0  0  0  0
   -2.1862   22.9973  -32.1892 H   0  0  0  0  0  0  0  0  0  0  0  0
   -2.3452   21.8379  -30.7955 H   0  0  0  0  0  0  0  0  0  0  0  0
   -2.4225   21.0670  -33.4017 H   0  0  0  0  0  0  0  0  0  0  0  0
   -3.2839   20.2140  -32.0598 H   0  0  0  0  0  0  0  0  0  0  0  0
   -4.5890   22.2110  -33.9490 H   0  0  0  0  0  0  0  0  0  0  0  0
   -3.6622   19.2104  -34.1214 H   0  0  0  0  0  0  0  0  0  0  0  0
   -3.7336   16.7971  -34.7296 H   0  0  0  0  0  0  0  0  0  0  0  0
   -5.7855   15.4612  -34.2959 H   0  0  0  0  0  0  0  0  0  0  0  0
   -7.7483   16.5011  -33.1846 H   0  0  0  0  0  0  0  0  0  0  0  0
   -8.8922   18.2512  -30.6226 H   0  0  0  0  0  0  0  0  0  0  0  0
   -9.9361   18.5653  -32.0503 H   0  0  0  0  0  0  0  0  0  0  0  0
   -8.8123   17.1640  -32.0503 H   0  0  0  0  0  0  0  0  0  0  0  0
  -10.0357   20.5011  -31.5370 H   0  0  0  0  0  0  0  0  0  0  0  0
  -10.0852   22.9647  -31.2313 H   0  0  0  0  0  0  0  0  0  0  0  0
   -8.0641   24.3311  -31.7210 H   0  0  0  0  0  0  0  0  0  0  0  0
   -5.9960   23.2436  -32.5669 H   0  0  0  0  0  0  0  0  0  0  0  0
  1  2  1  0
  2  3  1  0
  3  4  1  0
  4  5  1  0
  3  6  1  0
  6  7  1  0
  7  8  1  0
  8  9  1  0
  9 10  1  0
 10 11  1  0
 11 12  1  0
 12 13  1  0
 13 14  2  0
 14 15  1  0
 15 16  2  0
 16 17  1  0
 17 18  2  0
 18 19  1  0
 19 20  2  0
 20 21  1  0
 20 22  1  0
 22 23  2  0
 23 24  1  0
 24 25  2  0
 25 26  1  0
 26 27  2  0
 27 13  1  0
 19 14  1  0
 27 22  1  0
  1 28  1  0
  1 29  1  0
  1 30  1  0
  2 31  1  0
  2 32  1  0
  3 33  1  0
  4 34  1  0
  4 35  1  0
  5 36  1  0
  5 37  1  0
  5 38  1  0
  6 39  1  0
  6 40  1  0
  7 41  1  0
  7 42  1  0
  9 43  1  0
  9 44  1  0
 10 45  1  0
 10 46  1  0
 11 47  1  0
 11 48  1  0
 12 49  1  0
 15 50  1  0
 16 51  1  0
 17 52  1  0
 18 53  1  0
 21 54  1  0
 21 55  1  0
 21 56  1  0
 23 57  1  0
 24 58  1  0
 25 59  1  0
 26 60  1  0
M  CHG  2   3   1  20   1
M  END
>  <UniqueID>  (23) 
22

>  <SMILES>  (23) 
CC[NH+](CC)CCOCCCNc1c2ccccc2[n+](C)c2ccccc12

>  <Energy>  (23) 
95.85608920409938

>  <Genealogy>  (23) 
CC[NH+](CC)CCOCCCNc1c2ccccc2[n+](C)c2ccccc12 (protonated)
CC[NH+](CC)CCOCCCNc1c2ccccc2[n+](C)c2ccccc12 (3D coordinates assigned)
CC[NH+](CC)CCOCCCNc1c2ccccc2[n+](C)c2ccccc12 (optimized conformer: 95.85608920409938 kcal/mol)

>  <smiles>  (23) 
CCN(CC)CCOCCCNc1c2ccccc2[n+](C)c2ccccc12

>  <score_type>  (23) 
oracle

>  <origin>  (23) 
adg

>  <m_score__min__energy>  (23) 
-7.6200000000000001

>  <m_primary>  (23) 
energy

$$$$
23:0
     RDKit          3D

 56 58  0  0  0  0  0  0  0  0999 V2000
   -7.1057   16.5977  -31.3380 H   0  0  0  0  0  0  0  0  0  0  0  0
   -7.1100   17.4250  -32.0630 C   0  0  0  0  0  0  0  0  0  0  0  0
   -8.2910   17.9390  -32.4320 C   0  0  0  0  0  0  0  0  0  0  0  0
   -8.9313   17.3669  -33.1196 H   0  0  0  0  0  0  0  0  0  0  0  0
   -8.7680   19.2810  -31.9310 C   0  0  0  0  0  0  0  0  0  0  0  0
   -9.8608   19.2542  -31.8085 H   0  0  0  0  0  0  0  0  0  0  0  0
   -8.2838   19.4936  -30.9665 H   0  0  0  0  0  0  0  0  0  0  0  0
   -8.4150   20.3380  -32.8820 N   0  0  0  0  0  0  0  0  0  0  0  0
   -8.1080   19.8570  -33.7660 H   0  0  0  0  0  0  0  0  0  0  0  0
   -7.4170   21.0830  -32.3050 O   0  0  0  0  0  0  0  0  0  0  0  0
   -7.9120   22.3620  -31.9660 C   0  0  0  0  0  0  0  0  0  0  0  0
   -8.9574   22.4470  -32.2976 H   0  0  0  0  0  0  0  0  0  0  0  0
   -7.8530   22.4930  -30.8754 H   0  0  0  0  0  0  0  0  0  0  0  0
   -7.0710   23.4540  -32.6500 C   0  0  0  0  0  0  0  0  0  0  0  0
   -6.5875   23.0073  -33.5313 H   0  0  0  0  0  0  0  0  0  0  0  0
   -7.7712   24.2668  -32.8931 H   0  0  0  0  0  0  0  0  0  0  0  0
   -6.0120   24.0660  -31.8080 N   0  0  0  0  0  0  0  0  0  0  0  0
   -6.5200   24.8840  -30.6930 C   0  0  0  0  0  0  0  0  0  0  0  0
   -7.2996   25.5638  -31.0672 H   0  0  0  0  0  0  0  0  0  0  0  0
   -6.9382   24.2194  -29.9227 H   0  0  0  0  0  0  0  0  0  0  0  0
   -5.3760   25.7130  -30.0740 C   0  0  0  0  0  0  0  0  0  0  0  0
   -5.5578   26.7764  -30.2889 H   0  0  0  0  0  0  0  0  0  0  0  0
   -5.3685   25.5077  -28.9934 H   0  0  0  0  0  0  0  0  0  0  0  0
   -4.0470   25.3470  -30.6020 N   0  0  0  0  0  0  0  0  0  0  0  0
   -3.9770   25.6840  -31.5920 H   0  0  0  0  0  0  0  0  0  0  0  0
   -3.8470   23.8900  -30.5940 C   0  0  0  0  0  0  0  0  0  0  0  0
   -2.8802   23.6638  -31.0674 H   0  0  0  0  0  0  0  0  0  0  0  0
   -3.8721   23.5544  -29.5468 H   0  0  0  0  0  0  0  0  0  0  0  0
   -4.9620   23.1360  -31.3570 C   0  0  0  0  0  0  0  0  0  0  0  0
   -4.5238   22.6354  -32.2330 H   0  0  0  0  0  0  0  0  0  0  0  0
   -5.4143   22.3975  -30.6788 H   0  0  0  0  0  0  0  0  0  0  0  0
   -5.8060   17.9130  -32.5810 C   0  0  0  0  0  0  0  0  0  0  0  0
   -4.8570   16.9700  -33.0000 C   0  0  0  0  0  0  0  0  0  0  0  0
   -5.1031   15.8981  -32.9790 H   0  0  0  0  0  0  0  0  0  0  0  0
   -3.6000   17.3870  -33.4440 C   0  0  0  0  0  0  0  0  0  0  0  0
   -2.6580   16.4040  -33.9030 N   0  0  0  0  0  0  0  0  0  0  0  0
   -1.7030   15.8110  -32.9660 C   0  0  0  0  0  0  0  0  0  0  0  0
   -2.0278   16.0127  -31.9346 H   0  0  0  0  0  0  0  0  0  0  0  0
   -1.6555   14.7243  -33.1295 H   0  0  0  0  0  0  0  0  0  0  0  0
   -0.7079   16.2503  -33.1295 H   0  0  0  0  0  0  0  0  0  0  0  0
   -2.6840   15.9710  -35.3000 C   0  0  0  0  0  0  0  0  0  0  0  0
   -2.7499   14.8738  -35.3426 H   0  0  0  0  0  0  0  0  0  0  0  0
   -3.5574   16.4106  -35.8039 H   0  0  0  0  0  0  0  0  0  0  0  0
   -1.7643   16.3030  -35.8039 H   0  0  0  0  0  0  0  0  0  0  0  0
   -3.2900   18.7610  -33.4640 C   0  0  0  0  0  0  0  0  0  0  0  0
   -2.0220   19.2340  -33.8540 C   0  0  0  0  0  0  0  0  0  0  0  0
   -1.2341   18.5193  -34.1342 H   0  0  0  0  0  0  0  0  0  0  0  0
   -1.7590   20.6070  -33.8870 C   0  0  0  0  0  0  0  0  0  0  0  0
   -0.1760   21.1880  -34.3760 Cl  0  0  0  0  0  0  0  0  0  0  0  0
   -2.7540   21.5190  -33.5310 C   0  0  0  0  0  0  0  0  0  0  0  0
   -2.5484   22.5989  -33.5703 H   0  0  0  0  0  0  0  0  0  0  0  0
   -4.0100   21.0630  -33.1250 C   0  0  0  0  0  0  0  0  0  0  0  0
   -4.7883   21.7866  -32.8409 H   0  0  0  0  0  0  0  0  0  0  0  0
   -4.2860   19.6870  -33.0770 C   0  0  0  0  0  0  0  0  0  0  0  0
   -5.5090   19.2450  -32.6610 N   0  0  0  0  0  0  0  0  0  0  0  0
   -6.2300   19.9560  -32.4130 H   0  0  0  0  0  0  0  0  0  0  0  0
  1  2  1  0
  2  3  2  0
  3  4  1  0
  3  5  1  0
  5  6  1  0
  5  7  1  0
  5  8  1  0
  8  9  1  0
  8 10  1  0
 10 11  1  0
 11 12  1  0
 11 13  1  0
 11 14  1  0
 14 15  1  0
 14 16  1  0
 14 17  1  0
 17 18  1  0
 18 19  1  0
 18 20  1  0
 18 21  1  0
 21 22  1  0
 21 23  1  0
 21 24  1  0
 24 25  1  0
 24 26  1  0
 26 27  1  0
 26 28  1  0
 26 29  1  0
 29 30  1  0
 29 31  1  0
  2 32  1  0
 32 33  2  0
 33 34  1  0
 33 35  1  0
 35 36  1  0
 36 37  1  0
 37 38  1  0
 37 39  1  0
 37 40  1  0
 36 41  1  0
 41 42  1  0
 41 43  1  0
 41 44  1  0
 35 45  2  0
 45 46  1  0
 46 47  1  0
 46 48  2  0
 48 49  1  0
 48 50  1  0
 50 51  1  0
 50 52  2  0
 52 53  1  0
 52 54  1  0
 54 55  2  0
 55 56  1  0
 29 17  1  0
 55 32  1  0
 54 45  1  0
M  CHG  1  55   1
M  END
>  <UniqueID>  (24) 
23

>  <SMILES>  (24) 
CN(C)c1cc(/C=C/CNOCCN2CCNCC2)[nH+]c2ccc(Cl)cc12

>  <Energy>  (24) 
74.30227039794156

>  <Genealogy>  (24) 
CN(C)c1cc(C=CCNOCCN2CCNCC2)[nH+]c2ccc(Cl)cc12 (protonated)
CN(C)c1cc(/C=C/CNOCCN2CCNCC2)[nH+]c2ccc(Cl)cc12 (cis-trans isomerization)
CN(C)c1cc(/C=C/CNOCCN2CCNCC2)[nH+]c2ccc(Cl)cc12 (3D coordinates assigned)
CN(C)c1cc(/C=C/CNOCCN2CCNCC2)[nH+]c2ccc(Cl)cc12 (nonaromatic ring conformer: 74.30227039794156 kcal/mol)

>  <smiles>  (24) 
CN(C)c1cc(C=CCNOCCN2CCNCC2)nc2ccc(Cl)cc12

>  <score_type>  (24) 
oracle

>  <origin>  (24) 
adg

>  <m_score__min__energy>  (24) 
-9.1199999999999992

>  <m_primary>  (24) 
energy

$$$$
24:0
     RDKit          3D

 50 52  0  0  0  0  0  0  0  0999 V2000
   -6.3940   25.2760  -29.6950 C   0  0  0  0  0  0  0  0  0  0  0  0
   -5.1800   24.4910  -30.2190 C   0  0  0  0  0  0  0  0  0  0  0  0
   -4.6330   23.4940  -29.2630 N   0  0  2  0  0  0  0  0  0  0  0  0
   -4.2370   24.1300  -27.9890 C   0  0  0  0  0  0  0  0  0  0  0  0
   -3.5230   22.7030  -29.8560 C   0  0  0  0  0  0  0  0  0  0  0  0
   -4.0130   21.5050  -30.6950 C   0  0  0  0  0  0  0  0  0  0  0  0
   -3.5220   21.5450  -32.1580 C   0  0  0  0  0  0  0  0  0  0  0  0
   -4.6490   21.5990  -33.0910 N   0  0  0  0  0  0  0  0  0  0  0  0
   -5.8200   20.7780  -32.9150 C   0  0  0  0  0  0  0  0  0  0  0  0
   -7.0210   21.3450  -32.4510 C   0  0  0  0  0  0  0  0  0  0  0  0
   -7.1570   22.7450  -32.3170 C   0  0  0  0  0  0  0  0  0  0  0  0
   -8.3560   23.3070  -31.8860 C   0  0  0  0  0  0  0  0  0  0  0  0
   -9.4470   22.4910  -31.6140 C   0  0  0  0  0  0  0  0  0  0  0  0
   -9.3450   21.1070  -31.7570 C   0  0  0  0  0  0  0  0  0  0  0  0
   -8.1230   20.5000  -32.1500 C   0  0  0  0  0  0  0  0  0  0  0  0
   -7.9970   19.1270  -32.2610 N   0  0  0  0  0  0  0  0  0  0  0  0
   -9.0270   18.2400  -31.6750 C   0  0  0  0  0  0  0  0  0  0  0  0
   -6.8980   18.5850  -32.9060 C   0  0  0  0  0  0  0  0  0  0  0  0
   -6.8510   17.2140  -33.2730 C   0  0  0  0  0  0  0  0  0  0  0  0
   -5.7150   16.6670  -33.8680 C   0  0  0  0  0  0  0  0  0  0  0  0
   -4.6110   17.4670  -34.1350 C   0  0  0  0  0  0  0  0  0  0  0  0
   -3.1820   16.7690  -34.8770 Cl  0  0  0  0  0  0  0  0  0  0  0  0
   -4.6440   18.8240  -33.8270 C   0  0  0  0  0  0  0  0  0  0  0  0
   -5.7810   19.4040  -33.2230 C   0  0  0  0  0  0  0  0  0  0  0  0
   -6.3867   25.2713  -28.5950 H   0  0  0  0  0  0  0  0  0  0  0  0
   -6.3442   26.3133  -30.0576 H   0  0  0  0  0  0  0  0  0  0  0  0
   -7.3195   24.8049  -30.0576 H   0  0  0  0  0  0  0  0  0  0  0  0
   -5.4826   23.9602  -31.1337 H   0  0  0  0  0  0  0  0  0  0  0  0
   -4.3822   25.2278  -30.3940 H   0  0  0  0  0  0  0  0  0  0  0  0
   -5.4260   22.8460  -29.0460 H   0  0  0  0  0  0  0  0  0  0  0  0
   -4.6113   23.5289  -27.1472 H   0  0  0  0  0  0  0  0  0  0  0  0
   -3.1401   24.1925  -27.9358 H   0  0  0  0  0  0  0  0  0  0  0  0
   -4.6649   25.1419  -27.9358 H   0  0  0  0  0  0  0  0  0  0  0  0
   -2.9293   23.3645  -30.5041 H   0  0  0  0  0  0  0  0  0  0  0  0
   -2.9282   22.2985  -29.0238 H   0  0  0  0  0  0  0  0  0  0  0  0
   -3.6467   20.5786  -30.2286 H   0  0  0  0  0  0  0  0  0  0  0  0
   -5.1118   21.5500  -30.7179 H   0  0  0  0  0  0  0  0  0  0  0  0
   -2.8936   22.4363  -32.3018 H   0  0  0  0  0  0  0  0  0  0  0  0
   -2.9461   20.6294  -32.3584 H   0  0  0  0  0  0  0  0  0  0  0  0
   -4.5200   22.1270  -33.9850 H   0  0  0  0  0  0  0  0  0  0  0  0
   -6.3054   23.3989  -32.5560 H   0  0  0  0  0  0  0  0  0  0  0  0
   -8.4393   24.3967  -31.7609 H   0  0  0  0  0  0  0  0  0  0  0  0
  -10.3962   22.9385  -31.2842 H   0  0  0  0  0  0  0  0  0  0  0  0
  -10.2249   20.4762  -31.5623 H   0  0  0  0  0  0  0  0  0  0  0  0
   -8.9710   18.2882  -30.5775 H   0  0  0  0  0  0  0  0  0  0  0  0
  -10.0238   18.5669  -32.0060 H   0  0  0  0  0  0  0  0  0  0  0  0
   -8.8516   17.2058  -32.0060 H   0  0  0  0  0  0  0  0  0  0  0  0
   -7.7250   16.5732  -33.0848 H   0  0  0  0  0  0  0  0  0  0  0  0
   -5.6927   15.5982  -34.1270 H   0  0  0  0  0  0  0  0  0  0  0  0
   -3.7719   19.4536  -34.0574 H   0  0  0  0  0  0  0  0  0  0  0  0
  1  2  1  0
  2  3  1  0
  3  4  1  0
  3  5  1  0
  5  6  1  0
  6  7  1  0
  7  8  1  0
  8  9  1  0
  9 10  2  0
 10 11  1  0
 11 12  2  0
 12 13  1  0
 13 14  2  0
 14 15  1  0
 15 16  2  0
 16 17  1  0
 16 18  1  0
 18 19  2  0
 19 20  1  0
 20 21  2  0
 21 22  1  0
 21 23  1  0
 23 24  2  0
 24  9  1  0
 15 10  1  0
 24 18  1  0
  1 25  1  0
  1 26  1  0
  1 27  1  0
  2 28  1  0
  2 29  1  0
  3 30  1  1
  4 31  1  0
  4 32  1  0
  4 33  1  0
  5 34  1  0
  5 35  1  0
  6 36  1  0
  6 37  1  0
  7 38  1  0
  7 39  1  0
  8 40  1  0
 11 41  1  0
 12 42  1  0
 13 43  1  0
 14 44  1  0
 17 45  1  0
 17 46  1  0
 17 47  1  0
 19 48  1  0
 20 49  1  0
 23 50  1  0
M  CHG  2   3   1  16   1
M  END
>  <UniqueID>  (25) 
24

>  <SMILES>  (25) 
CC[N@H+](C)CCCNc1c2ccccc2[n+](C)c2ccc(Cl)cc12

>  <Energy>  (25) 
78.16457155144765

>  <Genealogy>  (25) 
CC[NH+](C)CCCNc1c2ccccc2[n+](C)c2ccc(Cl)cc12 (protonated)
CC[N@H+](C)CCCNc1c2ccccc2[n+](C)c2ccc(Cl)cc12 (chirality)
CC[N@H+](C)CCCNc1c2ccccc2[n+](C)c2ccc(Cl)cc12 (3D coordinates assigned)
CC[N@H+](C)CCCNc1c2ccccc2[n+](C)c2ccc(Cl)cc12 (optimized conformer: 78.16457155144765 kcal/mol)

>  <smiles>  (25) 
CCN(C)CCCNc1c2ccccc2[n+](C)c2ccc(Cl)cc12

>  <score_type>  (25) 
oracle

>  <origin>  (25) 
adg

>  <m_score__min__energy>  (25) 
-7.6200000000000001

>  <m_primary>  (25) 
energy

$$$$
25:0
     RDKit          3D

 44 46  0  0  0  0  0  0  0  0999 V2000
   -1.0440   24.4850  -28.7320 C   0  0  0  0  0  0  0  0  0  0  0  0
   -1.9220   23.5670  -27.8900 C   0  0  0  0  0  0  0  0  0  0  0  0
   -3.3260   23.9830  -27.9750 N   0  0  0  0  0  0  0  0  0  0  0  0
   -4.0140   24.5400  -26.8050 C   0  0  0  0  0  0  0  0  0  0  0  0
   -3.0480   25.3680  -25.9660 C   0  0  0  0  0  0  0  0  0  0  0  0
   -4.0010   23.9340  -29.2420 C   0  0  0  0  0  0  0  0  0  0  0  0
   -4.8540   24.9340  -29.6240 N   0  0  0  0  0  0  0  0  0  0  0  0
   -5.5040   24.8940  -30.8330 C   0  0  0  0  0  0  0  0  0  0  0  0
   -5.3080   23.8490  -31.6940 N   0  0  0  0  0  0  0  0  0  0  0  0
   -4.4620   22.8620  -31.3150 C   0  0  0  0  0  0  0  0  0  0  0  0
   -3.8110   22.8790  -30.1270 C   0  0  0  0  0  0  0  0  0  0  0  0
   -3.0290   21.7410  -30.1220 C   0  0  0  0  0  0  0  0  0  0  0  0
   -3.2370   21.0770  -31.2870 N   0  0  0  0  0  0  0  0  0  0  0  0
   -4.1100   21.7710  -32.0140 N   0  0  0  0  0  0  0  0  0  0  0  0
   -4.6170   21.3510  -33.3180 C   0  0  0  0  0  0  0  0  0  0  0  0
   -5.4560   20.1000  -33.1730 C   0  0  0  0  0  0  0  0  0  0  0  0
   -4.9010   18.8840  -33.6070 C   0  0  0  0  0  0  0  0  0  0  0  0
   -5.6220   17.6960  -33.5070 C   0  0  0  0  0  0  0  0  0  0  0  0
   -6.9030   17.7010  -32.9660 C   0  0  0  0  0  0  0  0  0  0  0  0
   -7.4860   18.8960  -32.5330 C   0  0  0  0  0  0  0  0  0  0  0  0
   -9.0980   18.7990  -31.8240 Cl  0  0  0  0  0  0  0  0  0  0  0  0
   -6.7820   20.1190  -32.6580 C   0  0  0  0  0  0  0  0  0  0  0  0
   -7.4060   21.4080  -32.1730 C   0  0  0  0  0  0  0  0  0  0  0  0
   -0.4367   25.1199  -28.0701 H   0  0  0  0  0  0  0  0  0  0  0  0
   -0.3817   23.8780  -29.3668 H   0  0  0  0  0  0  0  0  0  0  0  0
   -1.6798   25.1196  -29.3668 H   0  0  0  0  0  0  0  0  0  0  0  0
   -1.8267   22.5353  -28.2594 H   0  0  0  0  0  0  0  0  0  0  0  0
   -1.5957   23.6246  -26.8411 H   0  0  0  0  0  0  0  0  0  0  0  0
   -4.8422   25.1806  -27.1423 H   0  0  0  0  0  0  0  0  0  0  0  0
   -4.4017   23.7133  -26.1916 H   0  0  0  0  0  0  0  0  0  0  0  0
   -3.2491   25.1956  -24.8984 H   0  0  0  0  0  0  0  0  0  0  0  0
   -2.0143   25.0711  -26.1970 H   0  0  0  0  0  0  0  0  0  0  0  0
   -3.1834   26.4349  -26.1970 H   0  0  0  0  0  0  0  0  0  0  0  0
   -5.0300   25.7400  -28.9830 H   0  0  0  0  0  0  0  0  0  0  0  0
   -6.1881   25.7091  -31.1116 H   0  0  0  0  0  0  0  0  0  0  0  0
   -2.3535   21.4267  -29.3127 H   0  0  0  0  0  0  0  0  0  0  0  0
   -5.2344   22.1554  -33.7443 H   0  0  0  0  0  0  0  0  0  0  0  0
   -3.7667   21.1385  -33.9828 H   0  0  0  0  0  0  0  0  0  0  0  0
   -3.8859   18.8700  -34.0304 H   0  0  0  0  0  0  0  0  0  0  0  0
   -5.1772   16.7526  -33.8566 H   0  0  0  0  0  0  0  0  0  0  0  0
   -7.4620   16.7577  -32.8780 H   0  0  0  0  0  0  0  0  0  0  0  0
   -7.4124   21.4212  -31.0731 H   0  0  0  0  0  0  0  0  0  0  0  0
   -6.8214   22.2616  -32.5465 H   0  0  0  0  0  0  0  0  0  0  0  0
   -8.4382   21.4790  -32.5465 H   0  0  0  0  0  0  0  0  0  0  0  0
  1  2  1  0
  2  3  1  0
  3  4  1  0
  4  5  1  0
  3  6  1  0
  6  7  2  0
  7  8  1  0
  8  9  2  0
  9 10  1  0
 10 11  2  0
 11 12  1  0
 12 13  2  0
 13 14  1  0
 14 15  1  0
 15 16  1  0
 16 17  2  0
 17 18  1  0
 18 19  2  0
 19 20  1  0
 20 21  1  0
 20 22  2  0
 22 23  1  0
 11  6  1  0
 22 16  1  0
 14 10  1  0
  1 24  1  0
  1 25  1  0
  1 26  1  0
  2 27  1  0
  2 28  1  0
  4 29  1  0
  4 30  1  0
  5 31  1  0
  5 32  1  0
  5 33  1  0
  7 34  1  0
  8 35  1  0
 12 36  1  0
 15 37  1  0
 15 38  1  0
 17 39  1  0
 18 40  1  0
 19 41  1  0
 23 42  1  0
 23 43  1  0
 23 44  1  0
M  CHG  1   7   1
M  END
>  <UniqueID>  (26) 
25

>  <SMILES>  (26) 
CCN(CC)c1[nH+]cnc2c1cnn2Cc1cccc(Cl)c1C

>  <Energy>  (26) 
86.94033289926767

>  <Genealogy>  (26) 
CCN(CC)c1[nH+]cnc2c1cnn2Cc1cccc(Cl)c1C (protonated)
CCN(CC)c1[nH+]cnc2c1cnn2Cc1cccc(Cl)c1C (3D coordinates assigned)
CCN(CC)c1[nH+]cnc2c1cnn2Cc1cccc(Cl)c1C (optimized conformer: 86.94033289926767 kcal/mol)

>  <smiles>  (26) 
CCN(CC)c1ncnc2c1cnn2Cc1cccc(Cl)c1C

>  <score_type>  (26) 
oracle

>  <origin>  (26) 
adg

>  <m_score__min__energy>  (26) 
-7.3799999999999999

>  <m_primary>  (26) 
energy

$$$$
26:0
     RDKit          3D

 38 40  0  0  0  0  0  0  0  0999 V2000
   -1.6580   18.5750  -26.7840 C   0  0  0  0  0  0  0  0  0  0  0  0
   -1.1170   19.9090  -27.0890 N   0  0  0  0  0  0  0  0  0  0  0  0
   -1.9950   20.9720  -26.5390 C   0  0  0  0  0  0  0  0  0  0  0  0
   -1.9570   22.2580  -27.3690 C   0  0  0  0  0  0  0  0  0  0  0  0
   -2.3670   21.9550  -28.7420 N   0  0  0  0  0  0  0  0  0  0  0  0
   -3.1580   22.9180  -29.4750 C   0  0  0  0  0  0  0  0  0  0  0  0
   -4.4280   22.5580  -29.9530 C   0  0  0  0  0  0  0  0  0  0  0  0
   -5.2180   23.4920  -30.6260 C   0  0  0  0  0  0  0  0  0  0  0  0
   -6.8130   23.0510  -31.2060 Cl  0  0  0  0  0  0  0  0  0  0  0  0
   -4.7260   24.7830  -30.8260 C   0  0  0  0  0  0  0  0  0  0  0  0
   -3.4880   25.1170  -30.3720 N   0  0  0  0  0  0  0  0  0  0  0  0
   -2.6990   24.2290  -29.7100 C   0  0  0  0  0  0  0  0  0  0  0  0
   -1.5540   24.5890  -29.3290 O   0  0  0  0  0  0  0  0  0  0  0  0
   -1.9360   20.6810  -29.3510 C   0  0  1  0  0  0  0  0  0  0  0  0
   -1.4860   20.8800  -30.7860 C   0  0  0  0  0  0  0  0  0  0  0  0
   -0.1180   20.9890  -31.0910 C   0  0  0  0  0  0  0  0  0  0  0  0
    0.3000   21.1730  -32.4120 C   0  0  0  0  0  0  0  0  0  0  0  0
   -0.6430   21.2550  -33.4410 C   0  0  0  0  0  0  0  0  0  0  0  0
   -0.1180   21.4870  -35.0990 Cl  0  0  0  0  0  0  0  0  0  0  0  0
   -2.0060   21.1570  -33.1480 C   0  0  0  0  0  0  0  0  0  0  0  0
   -2.4270   20.9750  -31.8280 C   0  0  0  0  0  0  0  0  0  0  0  0
   -0.7910   20.0470  -28.5300 C   0  0  0  0  0  0  0  0  0  0  0  0
   -1.7120   18.4418  -25.6934 H   0  0  0  0  0  0  0  0  0  0  0  0
   -2.6655   18.4805  -27.2153 H   0  0  0  0  0  0  0  0  0  0  0  0
   -1.0009   17.8054  -27.2153 H   0  0  0  0  0  0  0  0  0  0  0  0
   -3.0292   20.5978  -26.5170 H   0  0  0  0  0  0  0  0  0  0  0  0
   -1.6292   21.2164  -25.5308 H   0  0  0  0  0  0  0  0  0  0  0  0
   -2.6452   22.9976  -26.9339 H   0  0  0  0  0  0  0  0  0  0  0  0
   -0.9365   22.6687  -27.3692 H   0  0  0  0  0  0  0  0  0  0  0  0
   -4.8023   21.5355  -29.7966 H   0  0  0  0  0  0  0  0  0  0  0  0
   -5.3395   25.5302  -31.3507 H   0  0  0  0  0  0  0  0  0  0  0  0
   -2.8022   20.0030  -29.3486 H   0  0  0  0  0  0  0  0  0  0  0  0
    0.6281   20.9291  -30.2850 H   0  0  0  0  0  0  0  0  0  0  0  0
    1.3726   21.2534  -32.6424 H   0  0  0  0  0  0  0  0  0  0  0  0
   -2.7481   21.2232  -33.9572 H   0  0  0  0  0  0  0  0  0  0  0  0
   -3.5013   20.9055  -31.6019 H   0  0  0  0  0  0  0  0  0  0  0  0
   -0.5786   19.0479  -28.9384 H   0  0  0  0  0  0  0  0  0  0  0  0
    0.0785   20.7162  -28.6076 H   0  0  0  0  0  0  0  0  0  0  0  0
  1  2  1  0
  2  3  1  0
  3  4  1  0
  4  5  1  0
  5  6  1  0
  6  7  2  0
  7  8  1  0
  8  9  1  0
  8 10  2  0
 10 11  1  0
 11 12  1  0
 12 13  2  0
  5 14  1  0
 14 15  1  0
 15 16  2  0
 16 17  1  0
 17 18  2  0
 18 19  1  0
 18 20  1  0
 20 21  2  0
 14 22  1  0
 22  2  1  0
 12  6  1  0
 21 15  1  0
  1 23  1  0
  1 24  1  0
  1 25  1  0
  3 26  1  0
  3 27  1  0
  4 28  1  0
  4 29  1  0
  7 30  1  0
 10 31  1  0
 14 32  1  6
 16 33  1  0
 17 34  1  0
 20 35  1  0
 21 36  1  0
 22 37  1  0
 22 38  1  0
M  CHG  1  11  -1
M  END
>  <UniqueID>  (27) 
26

>  <SMILES>  (27) 
CN1CCN(c2cc(Cl)c[n-]c2=O)[C@@H](c2ccc(Cl)cc2)C1

>  <Energy>  (27) 
52.6275276885901

>  <Genealogy>  (27) 
CN1CCN(c2cc(Cl)c[n-]c2=O)C(c2ccc(Cl)cc2)C1 (protonated)
CN1CCN(c2cc(Cl)c[n-]c2=O)[C@@H](c2ccc(Cl)cc2)C1 (chirality)
CN1CCN(c2cc(Cl)c[n-]c2=O)[C@@H](c2ccc(Cl)cc2)C1 (3D coordinates assigned)
CN1CCN(c2cc(Cl)c[n-]c2=O)[C@@H](c2ccc(Cl)cc2)C1 (nonaromatic ring conformer: 52.6275276885901 kcal/mol)

>  <smiles>  (27) 
CN1CCN(c2cc(Cl)c[nH]c2=O)C(c2ccc(Cl)cc2)C1

>  <score_type>  (27) 
oracle

>  <origin>  (27) 
adg

>  <m_score__min__energy>  (27) 
-8.6899999999999995

>  <m_primary>  (27) 
energy

$$$$
27:0
     RDKit          3D

 44 47  0  0  0  0  0  0  0  0999 V2000
    1.7470   27.4030  -23.3340 C   0  0  0  0  0  0  0  0  0  0  0  0
    1.6030   26.3370  -24.2680 O   0  0  0  0  0  0  0  0  0  0  0  0
    0.4180   26.0500  -24.9610 C   0  0  0  0  0  0  0  0  0  0  0  0
   -0.7710   26.6840  -24.5400 C   0  0  0  0  0  0  0  0  0  0  0  0
   -1.9900   26.4380  -25.1940 C   0  0  0  0  0  0  0  0  0  0  0  0
   -2.0080   25.5490  -26.2710 C   0  0  0  0  0  0  0  0  0  0  0  0
   -3.1140   25.2250  -26.9910 N   0  0  0  0  0  0  0  0  0  0  0  0
   -2.8340   24.3400  -27.9840 C   0  0  0  0  0  0  0  0  0  0  0  0
   -3.8380   23.8020  -28.9360 C   0  0  0  0  0  0  0  0  0  0  0  0
   -4.9970   24.5390  -29.2380 C   0  0  0  0  0  0  0  0  0  0  0  0
   -5.9460   24.0380  -30.1330 C   0  0  0  0  0  0  0  0  0  0  0  0
   -5.7540   22.7940  -30.7540 C   0  0  0  0  0  0  0  0  0  0  0  0
   -6.7390   22.2720  -31.6670 N   0  0  0  0  0  0  0  0  0  0  0  0
   -6.5170   20.9690  -32.3150 C   0  0  0  0  0  0  0  0  0  0  0  0
   -7.8090   20.4230  -32.9410 C   0  0  0  0  0  0  0  0  0  0  0  0
   -8.9940   20.6380  -31.9910 C   0  0  0  0  0  0  0  0  0  0  0  0
   -9.2040   22.1250  -31.6260 C   0  0  0  0  0  0  0  0  0  0  0  0
   -7.9840   23.0060  -31.9340 C   0  0  0  0  0  0  0  0  0  0  0  0
   -4.6000   22.0540  -30.4520 C   0  0  0  0  0  0  0  0  0  0  0  0
   -3.6500   22.5540  -29.5570 C   0  0  0  0  0  0  0  0  0  0  0  0
   -1.1820   23.9400  -27.9930 S   0  0  0  0  0  0  0  0  0  0  0  0
   -0.8410   24.9300  -26.6820 C   0  0  0  0  0  0  0  0  0  0  0  0
    0.3810   25.1560  -26.0550 C   0  0  0  0  0  0  0  0  0  0  0  0
    1.6930   27.0035  -22.3105 H   0  0  0  0  0  0  0  0  0  0  0  0
    2.7196   27.8941  -23.4851 H   0  0  0  0  0  0  0  0  0  0  0  0
    0.9395   28.1345  -23.4851 H   0  0  0  0  0  0  0  0  0  0  0  0
   -0.7428   27.3799  -23.6886 H   0  0  0  0  0  0  0  0  0  0  0  0
   -2.9133   26.9365  -24.8638 H   0  0  0  0  0  0  0  0  0  0  0  0
   -4.0560   25.6360  -26.8050 H   0  0  0  0  0  0  0  0  0  0  0  0
   -5.1580   25.5191  -28.7652 H   0  0  0  0  0  0  0  0  0  0  0  0
   -6.8510   24.6234  -30.3527 H   0  0  0  0  0  0  0  0  0  0  0  0
   -5.7598   21.0869  -33.1041 H   0  0  0  0  0  0  0  0  0  0  0  0
   -6.1774   20.2565  -31.5489 H   0  0  0  0  0  0  0  0  0  0  0  0
   -8.0033   20.9480  -33.8879 H   0  0  0  0  0  0  0  0  0  0  0  0
   -7.6893   19.3451  -33.1250 H   0  0  0  0  0  0  0  0  0  0  0  0
   -9.9068   20.2626  -32.4766 H   0  0  0  0  0  0  0  0  0  0  0  0
   -8.7757   20.0950  -31.0596 H   0  0  0  0  0  0  0  0  0  0  0  0
  -10.0630   22.5065  -32.1975 H   0  0  0  0  0  0  0  0  0  0  0  0
   -9.3735   22.1724  -30.5402 H   0  0  0  0  0  0  0  0  0  0  0  0
   -8.0096   23.3024  -32.9930 H   0  0  0  0  0  0  0  0  0  0  0  0
   -8.0169   23.8972  -31.2901 H   0  0  0  0  0  0  0  0  0  0  0  0
   -4.4421   21.0728  -30.9235 H   0  0  0  0  0  0  0  0  0  0  0  0
   -2.7469   21.9661  -29.3362 H   0  0  0  0  0  0  0  0  0  0  0  0
    1.2948   24.6516  -26.4022 H   0  0  0  0  0  0  0  0  0  0  0  0
  1  2  1  0
  2  3  1  0
  3  4  2  0
  4  5  1  0
  5  6  2  0
  6  7  1  0
  7  8  2  0
  8  9  1  0
  9 10  2  0
 10 11  1  0
 11 12  2  0
 12 13  1  0
 13 14  1  0
 14 15  1  0
 15 16  1  0
 16 17  1  0
 17 18  1  0
 12 19  1  0
 19 20  2  0
  8 21  1  0
 21 22  1  0
 22 23  2  0
 23  3  1  0
 22  6  1  0
 20  9  1  0
 18 13  1  0
  1 24  1  0
  1 25  1  0
  1 26  1  0
  4 27  1  0
  5 28  1  0
  7 29  1  0
 10 30  1  0
 11 31  1  0
 14 32  1  0
 14 33  1  0
 15 34  1  0
 15 35  1  0
 16 36  1  0
 16 37  1  0
 17 38  1  0
 17 39  1  0
 18 40  1  0
 18 41  1  0
 19 42  1  0
 20 43  1  0
 23 44  1  0
M  CHG  1   7   1
M  END
>  <UniqueID>  (28) 
27

>  <SMILES>  (28) 
COc1ccc2[nH+]c(-c3ccc(N4CCCCC4)cc3)sc2c1

>  <Energy>  (28) 
88.19085223317562

>  <Genealogy>  (28) 
COc1ccc2[nH+]c(-c3ccc(N4CCCCC4)cc3)sc2c1 (protonated)
COc1ccc2[nH+]c(-c3ccc(N4CCCCC4)cc3)sc2c1 (3D coordinates assigned)
COc1ccc2[nH+]c(-c3ccc(N4CCCCC4)cc3)sc2c1 (nonaromatic ring conformer: 88.19085223317562 kcal/mol)

>  <smiles>  (28) 
COc1ccc2nc(-c3ccc(N4CCCCC4)cc3)sc2c1

>  <score_type>  (28) 
oracle

>  <origin>  (28) 
adg

>  <m_score__min__energy>  (28) 
-6.9900000000000002

>  <m_primary>  (28) 
energy

$$$$
28:0
     RDKit          3D

 40 41  0  0  0  0  0  0  0  0999 V2000
   -9.0080   21.0050  -31.9460 C   0  0  0  0  0  0  0  0  0  0  0  0
   -9.0220   22.5290  -31.9510 C   0  0  0  0  0  0  0  0  0  0  0  0
   -7.7230   23.0300  -32.2030 O   0  0  0  0  0  0  0  0  0  0  0  0
   -7.2530   23.7710  -31.0950 C   0  0  0  0  0  0  0  0  0  0  0  0
   -5.9940   24.5490  -31.4900 C   0  0  0  0  0  0  0  0  0  0  0  0
   -5.3120   25.2170  -30.2930 C   0  0  0  0  0  0  0  0  0  0  0  0
   -3.8680   25.2670  -30.4970 N   0  0  0  0  0  0  0  0  0  0  0  0
   -2.8980   24.5460  -29.7260 C   0  0  0  0  0  0  0  0  0  0  0  0
   -1.8690   25.1560  -29.3320 O   0  0  0  0  0  0  0  0  0  0  0  0
   -3.0660   23.0940  -29.3670 C   0  0  0  0  0  0  0  0  0  0  0  0
   -2.6690   22.2410  -30.4960 N   0  0  0  0  0  0  0  0  0  0  0  0
   -1.3790   22.0750  -30.8970 C   0  0  0  0  0  0  0  0  0  0  0  0
   -0.3960   22.6100  -30.3200 O   0  0  0  0  0  0  0  0  0  0  0  0
   -1.2360   21.0770  -32.2490 S   0  0  0  0  0  0  0  0  0  0  0  0
   -2.8980   20.8480  -32.3380 C   0  0  0  0  0  0  0  0  0  0  0  0
   -3.6080   20.0960  -33.2690 C   0  0  0  0  0  0  0  0  0  0  0  0
   -5.0100   20.0430  -33.1610 C   0  0  0  0  0  0  0  0  0  0  0  0
   -5.8140   19.2770  -34.1690 C   0  0  0  0  0  0  0  0  0  0  0  0
   -5.6610   20.7710  -32.1410 C   0  0  0  0  0  0  0  0  0  0  0  0
   -4.9240   21.5240  -31.2130 C   0  0  0  0  0  0  0  0  0  0  0  0
   -3.5240   21.5540  -31.3170 C   0  0  0  0  0  0  0  0  0  0  0  0
   -9.0047   20.6418  -30.9077 H   0  0  0  0  0  0  0  0  0  0  0  0
   -9.9027   20.6284  -32.4633 H   0  0  0  0  0  0  0  0  0  0  0  0
   -8.1065   20.6449  -32.4633 H   0  0  0  0  0  0  0  0  0  0  0  0
   -9.7064   22.8833  -32.7359 H   0  0  0  0  0  0  0  0  0  0  0  0
   -9.3598   22.8875  -30.9674 H   0  0  0  0  0  0  0  0  0  0  0  0
   -8.0319   24.4766  -30.7702 H   0  0  0  0  0  0  0  0  0  0  0  0
   -7.0119   23.0820  -30.2721 H   0  0  0  0  0  0  0  0  0  0  0  0
   -5.2821   23.8526  -31.9570 H   0  0  0  0  0  0  0  0  0  0  0  0
   -6.2998   25.3451  -32.1848 H   0  0  0  0  0  0  0  0  0  0  0  0
   -5.6983   26.2407  -30.1798 H   0  0  0  0  0  0  0  0  0  0  0  0
   -5.5256   24.6317  -29.3865 H   0  0  0  0  0  0  0  0  0  0  0  0
   -2.4359   22.8601  -28.4962 H   0  0  0  0  0  0  0  0  0  0  0  0
   -4.1230   22.9039  -29.1288 H   0  0  0  0  0  0  0  0  0  0  0  0
   -3.0850   19.5551  -34.0714 H   0  0  0  0  0  0  0  0  0  0  0  0
   -6.5152   18.6089  -33.6475 H   0  0  0  0  0  0  0  0  0  0  0  0
   -6.3778   19.9804  -34.7994 H   0  0  0  0  0  0  0  0  0  0  0  0
   -5.1387   18.6799  -34.7994 H   0  0  0  0  0  0  0  0  0  0  0  0
   -6.7586   20.7479  -32.0727 H   0  0  0  0  0  0  0  0  0  0  0  0
   -5.4361   22.0826  -30.4157 H   0  0  0  0  0  0  0  0  0  0  0  0
  1  2  1  0
  2  3  1  0
  3  4  1  0
  4  5  1  0
  5  6  1  0
  6  7  1  0
  7  8  1  0
  8  9  2  0
  8 10  1  0
 10 11  1  0
 11 12  1  0
 12 13  2  0
 12 14  1  0
 14 15  1  0
 15 16  2  0
 16 17  1  0
 17 18  1  0
 17 19  2  0
 19 20  1  0
 20 21  2  0
 21 11  1  0
 21 15  1  0
  1 22  1  0
  1 23  1  0
  1 24  1  0
  2 25  1  0
  2 26  1  0
  4 27  1  0
  4 28  1  0
  5 29  1  0
  5 30  1  0
  6 31  1  0
  6 32  1  0
 10 33  1  0
 10 34  1  0
 16 35  1  0
 18 36  1  0
 18 37  1  0
 18 38  1  0
 19 39  1  0
 20 40  1  0
M  CHG  1   7  -1
M  END
>  <UniqueID>  (29) 
28

>  <SMILES>  (29) 
CCOCCC[N-]C(=O)Cn1c(=O)sc2cc(C)ccc21

>  <Energy>  (29) 
69.1316473191307

>  <Genealogy>  (29) 
CCOCCC[N-]C(=O)Cn1c(=O)sc2cc(C)ccc21 (protonated)
CCOCCC[N-]C(=O)Cn1c(=O)sc2cc(C)ccc21 (3D coordinates assigned)
CCOCCC[N-]C(=O)Cn1c(=O)sc2cc(C)ccc21 (optimized conformer: 69.1316473191307 kcal/mol)

>  <smiles>  (29) 
CCOCCCNC(=O)Cn1c(=O)sc2cc(C)ccc21

>  <score_type>  (29) 
oracle

>  <origin>  (29) 
adg

>  <m_score__min__energy>  (29) 
-8.8900000000000006

>  <m_primary>  (29) 
energy

$$$$
