0:0
     RDKit          3D

 48 50  0  0  0  0  0  0  0  0999 V2000
   -6.8640   24.9420  -30.2300 C   0  0  0  0  0  0  0  0  0  0  0  0
   -6.0640   25.3760  -29.0090 C   0  0  0  0  0  0  0  0  0  0  0  0
   -4.9380   24.4620  -28.7850 N   0  0  0  0  0  0  0  0  0  0  0  0
   -4.2540   24.4410  -27.4870 C   0  0  0  0  0  0  0  0  0  0  0  0
   -2.7400   24.4410  -27.6770 C   0  0  0  0  0  0  0  0  0  0  0  0
   -4.3670   23.7610  -29.8980 C   0  0  0  0  0  0  0  0  0  0  0  0
   -3.8480   24.4190  -30.8400 O   0  0  0  0  0  0  0  0  0  0  0  0
   -4.3900   22.2590  -29.9630 C   0  0  0  0  0  0  0  0  0  0  0  0
   -4.0470   21.7880  -31.3110 N   0  0  0  0  0  0  0  0  0  0  0  0
   -4.8850   21.3190  -32.2830 C   0  0  0  0  0  0  0  0  0  0  0  0
   -6.3550   21.2580  -32.1820 C   0  0  0  0  0  0  0  0  0  0  0  0
   -7.0980   22.4430  -32.0620 C   0  0  0  0  0  0  0  0  0  0  0  0
   -8.4890   22.3900  -31.9280 C   0  0  0  0  0  0  0  0  0  0  0  0
   -9.1480   21.1580  -31.9050 C   0  0  0  0  0  0  0  0  0  0  0  0
   -8.4160   19.9650  -32.0220 C   0  0  0  0  0  0  0  0  0  0  0  0
   -9.1140   18.6370  -31.9520 C   0  0  0  0  0  0  0  0  0  0  0  0
   -7.0170   20.0230  -32.1370 C   0  0  0  0  0  0  0  0  0  0  0  0
   -4.2160   20.8350  -33.3580 N   0  0  0  0  0  0  0  0  0  0  0  0
   -2.9210   21.0030  -33.0510 C   0  0  0  0  0  0  0  0  0  0  0  0
   -1.8080   20.6440  -33.8050 C   0  0  0  0  0  0  0  0  0  0  0  0
   -0.5380   20.8770  -33.2450 C   0  0  0  0  0  0  0  0  0  0  0  0
   -0.4160   21.4410  -31.9540 C   0  0  0  0  0  0  0  0  0  0  0  0
   -1.5630   21.7840  -31.2160 C   0  0  0  0  0  0  0  0  0  0  0  0
   -2.8100   21.5650  -31.8100 C   0  0  0  0  0  0  0  0  0  0  0  0
   -7.7875   24.4410  -29.9042 H   0  0  0  0  0  0  0  0  0  0  0  0
   -7.1195   25.8252  -30.8339 H   0  0  0  0  0  0  0  0  0  0  0  0
   -6.2629   24.2463  -30.8339 H   0  0  0  0  0  0  0  0  0  0  0  0
   -5.6785   26.3934  -29.1709 H   0  0  0  0  0  0  0  0  0  0  0  0
   -6.7205   25.3570  -28.1266 H   0  0  0  0  0  0  0  0  0  0  0  0
   -4.5459   25.3311  -26.9103 H   0  0  0  0  0  0  0  0  0  0  0  0
   -4.5436   23.5265  -26.9486 H   0  0  0  0  0  0  0  0  0  0  0  0
   -2.3762   23.4039  -27.7227 H   0  0  0  0  0  0  0  0  0  0  0  0
   -2.4880   24.9595  -28.6138 H   0  0  0  0  0  0  0  0  0  0  0  0
   -2.2643   24.9595  -26.8315 H   0  0  0  0  0  0  0  0  0  0  0  0
   -3.6612   21.8561  -29.2443 H   0  0  0  0  0  0  0  0  0  0  0  0
   -5.4043   21.9118  -29.7167 H   0  0  0  0  0  0  0  0  0  0  0  0
   -6.5847   23.4158  -32.0734 H   0  0  0  0  0  0  0  0  0  0  0  0
   -9.0667   23.3219  -31.8403 H   0  0  0  0  0  0  0  0  0  0  0  0
  -10.2419   21.1224  -31.7951 H   0  0  0  0  0  0  0  0  0  0  0  0
   -9.2619   18.3556  -30.8989 H   0  0  0  0  0  0  0  0  0  0  0  0
  -10.0907   18.7093  -32.4529 H   0  0  0  0  0  0  0  0  0  0  0  0
   -8.5006   17.8735  -32.4529 H   0  0  0  0  0  0  0  0  0  0  0  0
   -6.4357   19.0908  -32.1922 H   0  0  0  0  0  0  0  0  0  0  0  0
   -4.6170   20.4080  -34.2250 H   0  0  0  0  0  0  0  0  0  0  0  0
   -1.9168   20.1942  -34.8029 H   0  0  0  0  0  0  0  0  0  0  0  0
    0.3662   20.6185  -33.8157 H   0  0  0  0  0  0  0  0  0  0  0  0
    0.5820   21.6125  -31.5244 H   0  0  0  0  0  0  0  0  0  0  0  0
   -1.4820   22.2103  -30.2052 H   0  0  0  0  0  0  0  0  0  0  0  0
  1  2  1  0
  2  3  1  0
  3  4  1  0
  4  5  1  0
  3  6  1  0
  6  7  2  0
  6  8  1  0
  8  9  1  0
  9 10  1  0
 10 11  1  0
 11 12  2  0
 12 13  1  0
 13 14  2  0
 14 15  1  0
 15 16  1  0
 15 17  2  0
 10 18  2  0
 18 19  1  0
 19 20  2  0
 20 21  1  0
 21 22  2  0
 22 23  1  0
 23 24  2  0
 24  9  1  0
 17 11  1  0
 24 19  1  0
  1 25  1  0
  1 26  1  0
  1 27  1  0
  2 28  1  0
  2 29  1  0
  4 30  1  0
  4 31  1  0
  5 32  1  0
  5 33  1  0
  5 34  1  0
  8 35  1  0
  8 36  1  0
 12 37  1  0
 13 38  1  0
 14 39  1  0
 16 40  1  0
 16 41  1  0
 16 42  1  0
 17 43  1  0
 18 44  1  0
 20 45  1  0
 21 46  1  0
 22 47  1  0
 23 48  1  0
M  CHG  1  18   1
M  END
>  <UniqueID>  (1) 
1

>  <SMILES>  (1) 
CCN(CC)C(=O)Cn1c(-c2cccc(C)c2)[nH+]c2ccccc21

>  <Energy>  (1) 
88.33361351626141

>  <Genealogy>  (1) 
CCN(CC)C(=O)Cn1c(-c2cccc(C)c2)[nH+]c2ccccc21 (protonated)
CCN(CC)C(=O)Cn1c(-c2cccc(C)c2)[nH+]c2ccccc21 (3D coordinates assigned)
CCN(CC)C(=O)Cn1c(-c2cccc(C)c2)[nH+]c2ccccc21 (optimized conformer: 88.33361351626141 kcal/mol)

>  <smiles>  (1) 
CCN(CC)C(=O)Cn1c(-c2cccc(C)c2)nc2ccccc21

>  <score_type>  (1) 
oracle

>  <origin>  (1) 
adg

>  <m_score__min__energy>  (1) 
-7.79

>  <m_primary>  (1) 
energy

$$$$
1:0
     RDKit          3D

 44 47  0  0  0  0  0  0  0  0999 V2000
   -9.1190   18.7790  -31.9600 C   0  0  0  0  0  0  0  0  0  0  0  0
   -8.7790   20.1330  -32.5770 C   0  0  0  0  0  0  0  0  0  0  0  0
   -7.3230   20.2590  -32.7920 N   0  0  0  0  0  0  0  0  0  0  0  0
   -6.7100   19.2610  -33.5020 C   0  0  0  0  0  0  0  0  0  0  0  0
   -5.3400   19.2880  -33.7800 C   0  0  0  0  0  0  0  0  0  0  0  0
   -4.7390   18.1880  -34.5710 C   0  0  0  0  0  0  0  0  0  0  0  0
   -5.3920   17.6820  -35.5250 O   0  0  0  0  0  0  0  0  0  0  0  0
   -3.4150   17.7120  -34.2880 N   0  0  0  0  0  0  0  0  0  0  0  0
   -2.8570   16.5560  -34.9830 C   0  0  0  0  0  0  0  0  0  0  0  0
   -3.6560   15.2830  -34.7620 C   0  0  0  0  0  0  0  0  0  0  0  0
   -2.3260   15.4780  -34.0530 C   0  0  0  0  0  0  0  0  0  0  0  0
   -4.5690   20.3470  -33.2780 C   0  0  0  0  0  0  0  0  0  0  0  0
   -3.3200   20.3660  -33.4700 O   0  0  0  0  0  0  0  0  0  0  0  0
   -5.1820   21.3680  -32.5320 C   0  0  0  0  0  0  0  0  0  0  0  0
   -4.4220   22.4390  -32.0200 C   0  0  0  0  0  0  0  0  0  0  0  0
   -5.0170   23.4390  -31.2500 C   0  0  0  0  0  0  0  0  0  0  0  0
   -4.2120   24.4850  -30.7740 O   0  0  0  0  0  0  0  0  0  0  0  0
   -3.6670   24.5640  -29.4860 C   0  0  0  0  0  0  0  0  0  0  0  0
   -4.4130   24.2670  -28.3860 N   0  0  0  0  0  0  0  0  0  0  0  0
   -3.8760   24.3230  -27.1390 C   0  0  0  0  0  0  0  0  0  0  0  0
   -2.5390   24.6810  -26.9740 C   0  0  0  0  0  0  0  0  0  0  0  0
   -1.7850   24.9710  -28.1100 C   0  0  0  0  0  0  0  0  0  0  0  0
   -2.3590   24.9050  -29.3400 N   0  0  0  0  0  0  0  0  0  0  0  0
   -6.3960   23.3920  -31.0140 C   0  0  0  0  0  0  0  0  0  0  0  0
   -7.1660   22.3420  -31.5130 C   0  0  0  0  0  0  0  0  0  0  0  0
   -6.5800   21.3100  -32.2850 C   0  0  0  0  0  0  0  0  0  0  0  0
   -9.0986   18.8603  -30.8632 H   0  0  0  0  0  0  0  0  0  0  0  0
  -10.1228   18.4692  -32.2861 H   0  0  0  0  0  0  0  0  0  0  0  0
   -8.3806   18.0317  -32.2861 H   0  0  0  0  0  0  0  0  0  0  0  0
   -9.2962   20.2295  -33.5430 H   0  0  0  0  0  0  0  0  0  0  0  0
   -9.1044   20.9267  -31.8884 H   0  0  0  0  0  0  0  0  0  0  0  0
   -7.3123   18.4146  -33.8636 H   0  0  0  0  0  0  0  0  0  0  0  0
   -2.7840   18.2780  -33.6770 H   0  0  0  0  0  0  0  0  0  0  0  0
   -2.4606   17.0919  -35.8581 H   0  0  0  0  0  0  0  0  0  0  0  0
   -4.5945   15.3152  -34.1892 H   0  0  0  0  0  0  0  0  0  0  0  0
   -4.0822   14.5086  -35.4168 H   0  0  0  0  0  0  0  0  0  0  0  0
   -2.3018   15.6514  -32.9670 H   0  0  0  0  0  0  0  0  0  0  0  0
   -1.3907   14.9034  -33.9820 H   0  0  0  0  0  0  0  0  0  0  0  0
   -3.3434   22.4872  -32.2307 H   0  0  0  0  0  0  0  0  0  0  0  0
   -4.4953   24.0862  -26.2613 H   0  0  0  0  0  0  0  0  0  0  0  0
   -2.0896   24.7334  -25.9713 H   0  0  0  0  0  0  0  0  0  0  0  0
   -0.7264   25.2530  -28.0109 H   0  0  0  0  0  0  0  0  0  0  0  0
   -6.8765   24.1905  -30.4297 H   0  0  0  0  0  0  0  0  0  0  0  0
   -8.2455   22.3151  -31.3036 H   0  0  0  0  0  0  0  0  0  0  0  0
  1  2  1  0
  2  3  1  0
  3  4  1  0
  4  5  2  0
  5  6  1  0
  6  7  2  0
  6  8  1  0
  8  9  1  0
  9 10  1  0
 10 11  1  0
  5 12  1  0
 12 13  2  0
 12 14  1  0
 14 15  2  0
 15 16  1  0
 16 17  1  0
 17 18  1  0
 18 19  2  0
 19 20  1  0
 20 21  2  0
 21 22  1  0
 22 23  2  0
 16 24  2  0
 24 25  1  0
 25 26  2  0
 26  3  1  0
 11  9  1  0
 26 14  1  0
 23 18  1  0
  1 27  1  0
  1 28  1  0
  1 29  1  0
  2 30  1  0
  2 31  1  0
  4 32  1  0
  8 33  1  0
  9 34  1  0
 10 35  1  0
 10 36  1  0
 11 37  1  0
 11 38  1  0
 15 39  1  0
 20 40  1  0
 21 41  1  0
 22 42  1  0
 24 43  1  0
 25 44  1  0
M  END
>  <UniqueID>  (2) 
2

>  <SMILES>  (2) 
CCn1cc(C(=O)NC2CC2)c(=O)c2cc(Oc3ncccn3)ccc21

>  <Energy>  (2) 
327.91979368009163

>  <Genealogy>  (2) 
CCn1cc(C(=O)NC2CC2)c(=O)c2cc(Oc3ncccn3)ccc21 (3D coordinates assigned)
CCn1cc(C(=O)NC2CC2)c(=O)c2cc(Oc3ncccn3)ccc21 (nonaromatic ring conformer: 327.91979368009163 kcal/mol)

>  <smiles>  (2) 
CCn1cc(C(=O)NC2CC2)c(=O)c2cc(Oc3ncccn3)ccc21

>  <score_type>  (2) 
oracle

>  <origin>  (2) 
adg

>  <m_score__min__energy>  (2) 
-8.4000000000000004

>  <m_primary>  (2) 
energy

$$$$
2:0
     RDKit          3D

 38 40  0  0  0  0  0  0  0  0999 V2000
   -5.1450   25.6640  -30.5090 C   0  0  0  0  0  0  0  0  0  0  0  0
   -5.8450   24.4310  -30.9730 C   0  0  0  0  0  0  0  0  0  0  0  0
   -7.1950   24.1690  -30.8370 C   0  0  0  0  0  0  0  0  0  0  0  0
   -7.3410   22.8850  -31.3220 C   0  0  0  0  0  0  0  0  0  0  0  0
   -8.6240   22.1130  -31.3250 C   0  0  0  0  0  0  0  0  0  0  0  0
   -6.1310   22.4330  -31.7290 N   0  0  0  0  0  0  0  0  0  0  0  0
   -5.8030   21.1450  -32.2720 C   0  0  0  0  0  0  0  0  0  0  0  0
   -6.2430   20.0240  -31.6460 N   0  0  0  0  0  0  0  0  0  0  0  0
   -5.9430   18.7870  -32.1170 C   0  0  0  0  0  0  0  0  0  0  0  0
   -6.4920   17.5900  -31.4020 C   0  0  0  0  0  0  0  0  0  0  0  0
   -5.1250   18.6780  -33.2570 C   0  0  0  0  0  0  0  0  0  0  0  0
   -4.7430   17.4080  -33.8050 N   0  0  0  0  0  0  0  0  0  0  0  0
   -5.7110   16.3920  -34.1880 C   0  0  0  0  0  0  0  0  0  0  0  0
   -4.8920   15.1520  -34.5180 C   0  0  0  0  0  0  0  0  0  0  0  0
   -3.5250   15.3710  -33.8770 C   0  0  0  0  0  0  0  0  0  0  0  0
   -3.4020   16.8730  -33.6530 C   0  0  0  0  0  0  0  0  0  0  0  0
   -4.6930   19.8200  -33.8510 N   0  0  0  0  0  0  0  0  0  0  0  0
   -5.0160   21.0220  -33.3760 N   0  0  0  0  0  0  0  0  0  0  0  0
   -5.2150   23.3600  -31.4940 N   0  0  0  0  0  0  0  0  0  0  0  0
   -5.1322   25.6865  -29.4093 H   0  0  0  0  0  0  0  0  0  0  0  0
   -4.1123   25.6639  -30.8878 H   0  0  0  0  0  0  0  0  0  0  0  0
   -5.6744   26.5507  -30.8878 H   0  0  0  0  0  0  0  0  0  0  0  0
   -7.9749   24.8321  -30.4343 H   0  0  0  0  0  0  0  0  0  0  0  0
   -8.9400   21.9229  -30.2886 H   0  0  0  0  0  0  0  0  0  0  0  0
   -9.4003   22.6941  -31.8443 H   0  0  0  0  0  0  0  0  0  0  0  0
   -8.4742   21.1549  -31.8443 H   0  0  0  0  0  0  0  0  0  0  0  0
   -6.4200   17.7469  -30.3156 H   0  0  0  0  0  0  0  0  0  0  0  0
   -7.5459   17.4466  -31.6828 H   0  0  0  0  0  0  0  0  0  0  0  0
   -5.9131   16.6978  -31.6828 H   0  0  0  0  0  0  0  0  0  0  0  0
   -6.4015   16.1864  -33.3567 H   0  0  0  0  0  0  0  0  0  0  0  0
   -6.3242   16.7147  -35.0423 H   0  0  0  0  0  0  0  0  0  0  0  0
   -5.3713   14.2545  -34.0999 H   0  0  0  0  0  0  0  0  0  0  0  0
   -4.8090   15.0001  -35.6043 H   0  0  0  0  0  0  0  0  0  0  0  0
   -3.4621   14.8352  -32.9184 H   0  0  0  0  0  0  0  0  0  0  0  0
   -2.7146   14.9913  -34.5166 H   0  0  0  0  0  0  0  0  0  0  0  0
   -3.0198   17.0793  -32.6424 H   0  0  0  0  0  0  0  0  0  0  0  0
   -2.7005   17.3319  -34.3652 H   0  0  0  0  0  0  0  0  0  0  0  0
   -4.6200   21.8660  -33.8430 H   0  0  0  0  0  0  0  0  0  0  0  0
  1  2  1  0
  2  3  1  0
  3  4  2  0
  4  5  1  0
  4  6  1  0
  6  7  1  0
  7  8  2  0
  8  9  1  0
  9 10  1  0
  9 11  2  0
 11 12  1  0
 12 13  1  0
 13 14  1  0
 14 15  1  0
 15 16  1  0
 11 17  1  0
 17 18  2  0
  6 19  1  0
 19  2  2  0
 18  7  1  0
 16 12  1  0
  1 20  1  0
  1 21  1  0
  1 22  1  0
  3 23  1  0
  5 24  1  0
  5 25  1  0
  5 26  1  0
 10 27  1  0
 10 28  1  0
 10 29  1  0
 13 30  1  0
 13 31  1  0
 14 32  1  0
 14 33  1  0
 15 34  1  0
 15 35  1  0
 16 36  1  0
 16 37  1  0
 18 38  1  0
M  CHG  1  18   1
M  END
>  <UniqueID>  (3) 
3

>  <SMILES>  (3) 
Cc1cc(C)n(-c2nc(C)c(N3CCCC3)n[nH+]2)n1

>  <Energy>  (3) 
76.32416349140726

>  <Genealogy>  (3) 
Cc1cc(C)n(-c2nc(C)c(N3CCCC3)n[nH+]2)n1 (protonated)
Cc1cc(C)n(-c2nc(C)c(N3CCCC3)n[nH+]2)n1 (3D coordinates assigned)
Cc1cc(C)n(-c2nc(C)c(N3CCCC3)n[nH+]2)n1 (nonaromatic ring conformer: 76.32416349140726 kcal/mol)

>  <smiles>  (3) 
Cc1cc(C)n(-c2nnc(N3CCCC3)c(C)n2)n1

>  <score_type>  (3) 
oracle

>  <origin>  (3) 
adg

>  <m_score__min__energy>  (3) 
-6.3200000000000003

>  <m_primary>  (3) 
energy

$$$$
3:0
     RDKit          3D

 44 44  0  0  0  0  0  0  0  0999 V2000
   -3.3650   21.2460  -33.4660 C   0  0  0  0  0  0  0  0  0  0  0  0
   -3.7570   22.2410  -32.5440 O   0  0  0  0  0  0  0  0  0  0  0  0
   -3.1990   21.9810  -31.2690 C   0  0  0  0  0  0  0  0  0  0  0  0
   -2.7440   23.2600  -30.6410 C   0  0  0  0  0  0  0  0  0  0  0  0
   -1.6050   23.3210  -30.1000 O   0  0  0  0  0  0  0  0  0  0  0  0
   -3.6210   24.3910  -30.6200 N   0  0  0  0  0  0  0  0  0  0  0  0
   -4.6210   24.6170  -29.5790 C   0  0  2  0  0  0  0  0  0  0  0  0
   -4.4910   23.5450  -28.4770 C   0  0  0  0  0  0  0  0  0  0  0  0
   -3.6990   24.0230  -27.2350 C   0  0  0  0  0  0  0  0  0  0  0  0
   -4.5880   24.9160  -26.3590 C   0  0  0  0  0  0  0  0  0  0  0  0
   -2.4190   24.7830  -27.6230 C   0  0  0  0  0  0  0  0  0  0  0  0
   -5.9940   24.5780  -30.1950 C   0  0  0  0  0  0  0  0  0  0  0  0
   -6.9610   25.1320  -29.6010 O   0  0  0  0  0  0  0  0  0  0  0  0
   -6.2180   23.8580  -31.4160 N   0  0  0  0  0  0  0  0  0  0  0  0
   -7.5570   23.4860  -31.8640 C   0  0  0  0  0  0  0  0  0  0  0  0
   -7.6500   21.9910  -32.0080 C   0  0  0  0  0  0  0  0  0  0  0  0
   -8.7380   21.2860  -31.4620 C   0  0  0  0  0  0  0  0  0  0  0  0
   -8.7930   19.8920  -31.5560 C   0  0  0  0  0  0  0  0  0  0  0  0
   -7.7590   19.1910  -32.1870 C   0  0  0  0  0  0  0  0  0  0  0  0
   -7.8120   17.8390  -32.2750 F   0  0  0  0  0  0  0  0  0  0  0  0
   -6.6700   19.8840  -32.7250 C   0  0  0  0  0  0  0  0  0  0  0  0
   -6.6140   21.2790  -32.6350 C   0  0  0  0  0  0  0  0  0  0  0  0
   -3.0150   20.3576  -32.9199 H   0  0  0  0  0  0  0  0  0  0  0  0
   -4.2230   20.9734  -34.0982 H   0  0  0  0  0  0  0  0  0  0  0  0
   -2.5517   21.6319  -34.0982 H   0  0  0  0  0  0  0  0  0  0  0  0
   -3.9586   21.5100  -30.6278 H   0  0  0  0  0  0  0  0  0  0  0  0
   -2.3372   21.3068  -31.3819 H   0  0  0  0  0  0  0  0  0  0  0  0
   -4.4594   25.6035  -29.1199 H   0  0  0  0  0  0  0  0  0  0  0  0
   -5.5016   23.2545  -28.1540 H   0  0  0  0  0  0  0  0  0  0  0  0
   -3.9314   22.7033  -28.9112 H   0  0  0  0  0  0  0  0  0  0  0  0
   -3.3973   23.1280  -26.6711 H   0  0  0  0  0  0  0  0  0  0  0  0
   -4.3827   24.7098  -25.2982 H   0  0  0  0  0  0  0  0  0  0  0  0
   -4.3727   25.9728  -26.5755 H   0  0  0  0  0  0  0  0  0  0  0  0
   -5.6457   24.7055  -26.5755 H   0  0  0  0  0  0  0  0  0  0  0  0
   -1.8890   25.0977  -26.7119 H   0  0  0  0  0  0  0  0  0  0  0  0
   -1.7678   24.1251  -28.2173 H   0  0  0  0  0  0  0  0  0  0  0  0
   -2.6849   25.6697  -28.2173 H   0  0  0  0  0  0  0  0  0  0  0  0
   -5.3980   23.5120  -31.9650 H   0  0  0  0  0  0  0  0  0  0  0  0
   -8.2972   23.8284  -31.1258 H   0  0  0  0  0  0  0  0  0  0  0  0
   -7.7582   23.9576  -32.8372 H   0  0  0  0  0  0  0  0  0  0  0  0
   -9.5487   21.8336  -30.9591 H   0  0  0  0  0  0  0  0  0  0  0  0
   -9.6495   19.3460  -31.1337 H   0  0  0  0  0  0  0  0  0  0  0  0
   -5.8570   19.3320  -33.2192 H   0  0  0  0  0  0  0  0  0  0  0  0
   -5.7548   21.8208  -33.0571 H   0  0  0  0  0  0  0  0  0  0  0  0
  1  2  1  0
  2  3  1  0
  3  4  1  0
  4  5  2  0
  4  6  1  0
  6  7  1  0
  7  8  1  0
  8  9  1  0
  9 10  1  0
  9 11  1  0
  7 12  1  0
 12 13  2  0
 12 14  1  0
 14 15  1  0
 15 16  1  0
 16 17  2  0
 17 18  1  0
 18 19  2  0
 19 20  1  0
 19 21  1  0
 21 22  2  0
 22 16  1  0
  1 23  1  0
  1 24  1  0
  1 25  1  0
  3 26  1  0
  3 27  1  0
  7 28  1  1
  8 29  1  0
  8 30  1  0
  9 31  1  0
 10 32  1  0
 10 33  1  0
 10 34  1  0
 11 35  1  0
 11 36  1  0
 11 37  1  0
 14 38  1  0
 15 39  1  0
 15 40  1  0
 17 41  1  0
 18 42  1  0
 21 43  1  0
 22 44  1  0
M  CHG  1   6  -1
M  END
>  <UniqueID>  (4) 
4

>  <SMILES>  (4) 
COCC(=O)[N-][C@H](CC(C)C)C(=O)NCc1ccc(F)cc1

>  <Energy>  (4) 
29.68048808561323

>  <Genealogy>  (4) 
COCC(=O)[N-]C(CC(C)C)C(=O)NCc1ccc(F)cc1 (protonated)
COCC(=O)[N-][C@H](CC(C)C)C(=O)NCc1ccc(F)cc1 (chirality)
COCC(=O)[N-][C@H](CC(C)C)C(=O)NCc1ccc(F)cc1 (3D coordinates assigned)
COCC(=O)[N-][C@H](CC(C)C)C(=O)NCc1ccc(F)cc1 (optimized conformer: 29.68048808561323 kcal/mol)

>  <smiles>  (4) 
COCC(=O)NC(CC(C)C)C(=O)NCc1ccc(F)cc1

>  <score_type>  (4) 
oracle

>  <origin>  (4) 
adg

>  <m_score__min__energy>  (4) 
-9.2899999999999991

>  <m_primary>  (4) 
energy

$$$$
4:0
     RDKit          3D

 44 47  0  0  0  0  0  0  0  0999 V2000
   -3.6712   20.1523  -27.2354 H   0  0  0  0  0  0  0  0  0  0  0  0
   -3.1030   21.0320  -27.5720 C   0  0  0  0  0  0  0  0  0  0  0  0
   -1.7720   21.1930  -27.1850 C   0  0  0  0  0  0  0  0  0  0  0  0
   -1.2846   20.4276  -26.5632 H   0  0  0  0  0  0  0  0  0  0  0  0
   -1.0570   22.3250  -27.5860 C   0  0  0  0  0  0  0  0  0  0  0  0
   -0.0109   22.4500  -27.2699 H   0  0  0  0  0  0  0  0  0  0  0  0
   -1.6650   23.3060  -28.3910 C   0  0  0  0  0  0  0  0  0  0  0  0
   -0.9480   24.5170  -28.6930 N   0  0  0  0  0  0  0  0  0  0  0  0
    0.2930   24.5640  -28.5670 O   0  0  0  0  0  0  0  0  0  0  0  0
   -1.6320   25.6780  -28.9740 O   0  0  0  0  0  0  0  0  0  0  0  0
   -2.9930   23.1010  -28.8390 C   0  0  0  0  0  0  0  0  0  0  0  0
   -3.6400   24.0060  -29.7490 N   0  0  0  0  0  0  0  0  0  0  0  0
   -3.8190   23.7850  -30.9960 N   0  0  0  0  0  0  0  0  0  0  0  0
   -4.5390   22.6650  -31.5360 C   0  0  0  0  0  0  0  0  0  0  0  0
   -3.9860   21.4720  -31.9990 C   0  0  0  0  0  0  0  0  0  0  0  0
   -2.5470   21.1290  -32.0490 C   0  0  0  0  0  0  0  0  0  0  0  0
   -1.9400   20.4180  -31.0010 C   0  0  0  0  0  0  0  0  0  0  0  0
   -2.5363   20.1170  -30.1270 H   0  0  0  0  0  0  0  0  0  0  0  0
   -0.5840   20.0910  -31.0620 C   0  0  0  0  0  0  0  0  0  0  0  0
   -0.1169   19.5308  -30.2386 H   0  0  0  0  0  0  0  0  0  0  0  0
    0.1810   20.4740  -32.1670 C   0  0  0  0  0  0  0  0  0  0  0  0
    1.2487   20.2128  -32.2089 H   0  0  0  0  0  0  0  0  0  0  0  0
   -0.4010   21.1870  -33.2200 C   0  0  0  0  0  0  0  0  0  0  0  0
    0.4080   21.5450  -34.3080 O   0  0  0  0  0  0  0  0  0  0  0  0
    0.2320   21.0630  -35.6350 C   0  0  0  0  0  0  0  0  0  0  0  0
   -0.1451   20.0302  -35.6029 H   0  0  0  0  0  0  0  0  0  0  0  0
   -0.4911   21.7011  -36.1640 H   0  0  0  0  0  0  0  0  0  0  0  0
    1.1962   21.0850  -36.1640 H   0  0  0  0  0  0  0  0  0  0  0  0
   -1.7690   21.5180  -33.1540 C   0  0  0  0  0  0  0  0  0  0  0  0
   -2.2326   22.0858  -33.9742 H   0  0  0  0  0  0  0  0  0  0  0  0
   -4.9750   20.6120  -32.3500 N   0  0  0  0  0  0  0  0  0  0  0  0
   -4.8680   19.6450  -32.7300 H   0  0  0  0  0  0  0  0  0  0  0  0
   -6.1320   21.2650  -32.1370 C   0  0  0  0  0  0  0  0  0  0  0  0
   -7.4220   20.7910  -32.3750 C   0  0  0  0  0  0  0  0  0  0  0  0
   -7.5908   19.7749  -32.7610 H   0  0  0  0  0  0  0  0  0  0  0  0
   -8.5000   21.6530  -32.1060 C   0  0  0  0  0  0  0  0  0  0  0  0
   -9.5308   21.3072  -32.2728 H   0  0  0  0  0  0  0  0  0  0  0  0
   -8.2680   22.9600  -31.6230 C   0  0  0  0  0  0  0  0  0  0  0  0
   -9.1189   23.6276  -31.4224 H   0  0  0  0  0  0  0  0  0  0  0  0
   -6.9560   23.4130  -31.3970 C   0  0  0  0  0  0  0  0  0  0  0  0
   -6.7620   24.4331  -31.0340 H   0  0  0  0  0  0  0  0  0  0  0  0
   -5.9090   22.5270  -31.6480 C   0  0  0  0  0  0  0  0  0  0  0  0
   -3.7130   21.9870  -28.3860 C   0  0  0  0  0  0  0  0  0  0  0  0
   -4.7674   21.8647  -28.6745 H   0  0  0  0  0  0  0  0  0  0  0  0
  1  2  1  0
  2  3  2  0
  3  4  1  0
  3  5  1  0
  5  6  1  0
  5  7  2  0
  7  8  1  0
  8  9  2  0
  8 10  1  0
  7 11  1  0
 11 12  1  0
 12 13  2  0
 13 14  1  0
 14 15  2  0
 15 16  1  0
 16 17  2  0
 17 18  1  0
 17 19  1  0
 19 20  1  0
 19 21  2  0
 21 22  1  0
 21 23  1  0
 23 24  1  0
 24 25  1  0
 25 26  1  0
 25 27  1  0
 25 28  1  0
 23 29  2  0
 29 30  1  0
 15 31  1  0
 31 32  1  0
 31 33  1  0
 33 34  2  0
 34 35  1  0
 34 36  1  0
 36 37  1  0
 36 38  2  0
 38 39  1  0
 38 40  1  0
 40 41  1  0
 40 42  2  0
 11 43  2  0
 43 44  1  0
 43  2  1  0
 42 14  1  0
 29 16  1  0
 42 33  1  0
M  CHG  2   8   1  10  -1
M  END
>  <UniqueID>  (5) 
5

>  <SMILES>  (5) 
COc1cccc(-c2[nH]c3ccccc3c2/N=N\c2ccccc2[N+](=O)[O-])c1

>  <Energy>  (5) 
102.77107712389987

>  <Genealogy>  (5) 
COc1cccc(-c2[nH]c3ccccc3c2/N=N\c2ccccc2[N+](=O)[O-])c1 (cis-trans isomerization)
COc1cccc(-c2[nH]c3ccccc3c2/N=N\c2ccccc2[N+](=O)[O-])c1 (3D coordinates assigned)
COc1cccc(-c2[nH]c3ccccc3c2/N=N\c2ccccc2[N+](=O)[O-])c1 (optimized conformer: 102.77107712389987 kcal/mol)

>  <smiles>  (5) 
COc1cccc(-c2[nH]c3ccccc3c2N=Nc2ccccc2[N+](=O)[O-])c1

>  <score_type>  (5) 
oracle

>  <origin>  (5) 
adg

>  <m_score__min__energy>  (5) 
-9.7400000000000002

>  <m_primary>  (5) 
energy

$$$$
5:0
     RDKit          3D

 49 51  0  0  0  0  0  0  0  0999 V2000
   -1.2060   26.4110  -28.9730 N   0  0  0  0  0  0  0  0  0  0  0  0
   -0.9340   25.1820  -28.3060 C   0  0  0  0  0  0  0  0  0  0  0  0
    0.1750   24.6080  -28.4720 O   0  0  0  0  0  0  0  0  0  0  0  0
   -1.9790   24.5570  -27.4310 C   0  0  0  0  0  0  0  0  0  0  0  0
   -3.2960   24.3400  -28.1880 C   0  0  0  0  0  0  0  0  0  0  0  0
   -3.1120   24.3860  -29.6860 C   0  0  0  0  0  0  0  0  0  0  0  0
   -2.2530   23.6330  -30.2180 O   0  0  0  0  0  0  0  0  0  0  0  0
   -3.8460   25.2880  -30.5300 N   0  0  0  0  0  0  0  0  0  0  0  0
   -5.2660   25.2090  -30.8570 C   0  0  0  0  0  0  0  0  0  0  0  0
   -5.9920   24.2770  -29.8820 C   0  0  0  0  0  0  0  0  0  0  0  0
   -6.5950   23.1020  -30.6010 C   0  0  0  0  0  0  0  0  0  0  0  0
   -7.8510   22.6640  -30.3230 N   0  0  0  0  0  0  0  0  0  0  0  0
   -8.0130   21.6350  -31.1730 C   0  0  0  0  0  0  0  0  0  0  0  0
   -9.1400   20.8300  -31.3230 C   0  0  0  0  0  0  0  0  0  0  0  0
   -9.0940   19.8130  -32.2960 C   0  0  0  0  0  0  0  0  0  0  0  0
   -7.9370   19.6300  -33.0850 C   0  0  0  0  0  0  0  0  0  0  0  0
   -6.8150   20.4620  -32.9090 C   0  0  0  0  0  0  0  0  0  0  0  0
   -6.8940   21.4580  -31.9310 C   0  0  0  0  0  0  0  0  0  0  0  0
   -5.9760   22.3750  -31.5770 N   0  0  0  0  0  0  0  0  0  0  0  0
   -4.6100   22.5080  -32.0980 C   0  0  0  0  0  0  0  0  0  0  0  0
   -3.9270   21.1370  -32.1710 C   0  0  0  0  0  0  0  0  0  0  0  0
   -2.8690   21.0110  -31.1020 C   0  0  0  0  0  0  0  0  0  0  0  0
   -3.2640   20.9310  -29.7540 C   0  0  0  0  0  0  0  0  0  0  0  0
   -2.3070   20.8450  -28.7390 C   0  0  0  0  0  0  0  0  0  0  0  0
   -0.9480   20.8480  -29.0560 C   0  0  0  0  0  0  0  0  0  0  0  0
   -0.5410   20.9410  -30.3910 C   0  0  0  0  0  0  0  0  0  0  0  0
   -1.4900   21.0270  -31.4170 C   0  0  0  0  0  0  0  0  0  0  0  0
   -0.9140   21.1600  -33.0760 Cl  0  0  0  0  0  0  0  0  0  0  0  0
   -0.8940   26.5690  -29.9590 H   0  0  0  0  0  0  0  0  0  0  0  0
   -1.6093   23.5850  -27.0726 H   0  0  0  0  0  0  0  0  0  0  0  0
   -2.1747   25.2382  -26.5898 H   0  0  0  0  0  0  0  0  0  0  0  0
   -3.7044   23.3566  -27.9121 H   0  0  0  0  0  0  0  0  0  0  0  0
   -3.9818   25.1534  -27.9087 H   0  0  0  0  0  0  0  0  0  0  0  0
   -5.7082   26.2142  -30.7935 H   0  0  0  0  0  0  0  0  0  0  0  0
   -5.3738   24.8099  -31.8764 H   0  0  0  0  0  0  0  0  0  0  0  0
   -5.2737   23.9101  -29.1340 H   0  0  0  0  0  0  0  0  0  0  0  0
   -6.8017   24.8420  -29.3971 H   0  0  0  0  0  0  0  0  0  0  0  0
  -10.0353   20.9835  -30.7026 H   0  0  0  0  0  0  0  0  0  0  0  0
   -9.9647   19.1570  -32.4424 H   0  0  0  0  0  0  0  0  0  0  0  0
   -7.9123   18.8322  -33.8419 H   0  0  0  0  0  0  0  0  0  0  0  0
   -5.9088   20.3331  -33.5190 H   0  0  0  0  0  0  0  0  0  0  0  0
   -4.6481   22.9475  -33.1057 H   0  0  0  0  0  0  0  0  0  0  0  0
   -4.0334   23.1571  -31.4226 H   0  0  0  0  0  0  0  0  0  0  0  0
   -4.6814   20.3495  -32.0271 H   0  0  0  0  0  0  0  0  0  0  0  0
   -3.4490   21.0318  -33.1561 H   0  0  0  0  0  0  0  0  0  0  0  0
   -4.3336   20.9362  -29.4971 H   0  0  0  0  0  0  0  0  0  0  0  0
   -2.6256   20.7748  -27.6885 H   0  0  0  0  0  0  0  0  0  0  0  0
   -0.1966   20.7772  -28.2558 H   0  0  0  0  0  0  0  0  0  0  0  0
    0.5313   20.9466  -30.6364 H   0  0  0  0  0  0  0  0  0  0  0  0
  1  2  1  0
  2  3  2  0
  2  4  1  0
  4  5  1  0
  5  6  1  0
  6  7  2  0
  6  8  1  0
  8  9  1  0
  9 10  1  0
 10 11  1  0
 11 12  2  0
 12 13  1  0
 13 14  2  0
 14 15  1  0
 15 16  2  0
 16 17  1  0
 17 18  2  0
 18 19  1  0
 19 20  1  0
 20 21  1  0
 21 22  1  0
 22 23  2  0
 23 24  1  0
 24 25  2  0
 25 26  1  0
 26 27  2  0
 27 28  1  0
 19 11  1  0
 27 22  1  0
 18 13  1  0
  1 29  1  0
  4 30  1  0
  4 31  1  0
  5 32  1  0
  5 33  1  0
  9 34  1  0
  9 35  1  0
 10 36  1  0
 10 37  1  0
 14 38  1  0
 15 39  1  0
 16 40  1  0
 17 41  1  0
 20 42  1  0
 20 43  1  0
 21 44  1  0
 21 45  1  0
 23 46  1  0
 24 47  1  0
 25 48  1  0
 26 49  1  0
M  CHG  2   1  -1   8  -1
M  END
>  <UniqueID>  (6) 
6

>  <SMILES>  (6) 
[NH-]C(=O)CCC(=O)[N-]CCc1nc2ccccc2n1CCc1ccccc1Cl

>  <Energy>  (6) 
78.72011702410055

>  <Genealogy>  (6) 
[NH-]C(=O)CCC(=O)[N-]CCc1nc2ccccc2n1CCc1ccccc1Cl (protonated)
[NH-]C(=O)CCC(=O)[N-]CCc1nc2ccccc2n1CCc1ccccc1Cl (3D coordinates assigned)
[NH-]C(=O)CCC(=O)[N-]CCc1nc2ccccc2n1CCc1ccccc1Cl (optimized conformer: 78.72011702410055 kcal/mol)

>  <smiles>  (6) 
NC(=O)CCC(=O)NCCc1nc2ccccc2n1CCc1ccccc1Cl

>  <score_type>  (6) 
oracle

>  <origin>  (6) 
adg

>  <m_score__min__energy>  (6) 
-13.32

>  <m_primary>  (6) 
energy

$$$$
6:0
     RDKit          3D

 34 35  0  0  0  0  0  0  0  0999 V2000
   -1.6130   25.6200  -29.3450 O   0  0  0  0  0  0  0  0  0  0  0  0
   -1.1070   24.6700  -28.6910 C   0  0  0  0  0  0  0  0  0  0  0  0
   -1.5560   23.2630  -28.9820 C   0  0  0  0  0  0  0  0  0  0  0  0
   -2.5970   23.2300  -30.1080 C   0  0  0  0  0  0  0  0  0  0  0  0
   -3.9430   22.9680  -29.5460 N   0  0  0  0  0  0  0  0  0  0  0  0
   -4.8790   22.4460  -30.5630 C   0  0  0  0  0  0  0  0  0  0  0  0
   -5.2730   23.5350  -31.5890 C   0  0  0  0  0  0  0  0  0  0  0  0
   -4.9740   24.8500  -31.1520 O   0  0  0  0  0  0  0  0  0  0  0  0
   -5.3810   25.0180  -29.8110 C   0  0  0  0  0  0  0  0  0  0  0  0
   -4.5150   24.1560  -28.8680 C   0  0  0  0  0  0  0  0  0  0  0  0
   -0.0370   24.9570  -27.7800 N   0  0  0  0  0  0  0  0  0  0  0  0
   -0.1650   25.4120  -26.4250 C   0  0  0  0  0  0  0  0  0  0  0  0
   -1.1340   26.3700  -26.1140 C   0  0  0  0  0  0  0  0  0  0  0  0
   -1.2890   26.8040  -24.7960 C   0  0  0  0  0  0  0  0  0  0  0  0
   -0.4830   26.2560  -23.7960 C   0  0  0  0  0  0  0  0  0  0  0  0
    0.4350   25.3010  -24.1060 N   0  0  0  0  0  0  0  0  0  0  0  0
    0.6020   24.8640  -25.3840 C   0  0  0  0  0  0  0  0  0  0  0  0
   -0.6839   22.6639  -29.2830 H   0  0  0  0  0  0  0  0  0  0  0  0
   -2.0168   22.8512  -28.0720 H   0  0  0  0  0  0  0  0  0  0  0  0
   -2.6018   24.1992  -30.6283 H   0  0  0  0  0  0  0  0  0  0  0  0
   -2.3386   22.4282  -30.8154 H   0  0  0  0  0  0  0  0  0  0  0  0
   -4.3986   21.6117  -31.0951 H   0  0  0  0  0  0  0  0  0  0  0  0
   -5.7924   22.1115  -30.0495 H   0  0  0  0  0  0  0  0  0  0  0  0
   -4.7283   23.3458  -32.5258 H   0  0  0  0  0  0  0  0  0  0  0  0
   -6.3630   23.4762  -31.7249 H   0  0  0  0  0  0  0  0  0  0  0  0
   -5.2760   26.0767  -29.5313 H   0  0  0  0  0  0  0  0  0  0  0  0
   -6.4303   24.7016  -29.7167 H   0  0  0  0  0  0  0  0  0  0  0  0
   -3.6899   24.7740  -28.4843 H   0  0  0  0  0  0  0  0  0  0  0  0
   -5.1638   23.7959  -28.0560 H   0  0  0  0  0  0  0  0  0  0  0  0
   -1.7746   26.7821  -26.9076 H   0  0  0  0  0  0  0  0  0  0  0  0
   -2.0385   27.5699  -24.5479 H   0  0  0  0  0  0  0  0  0  0  0  0
   -0.5905   26.5971  -22.7558 H   0  0  0  0  0  0  0  0  0  0  0  0
    1.0180   24.8880  -23.3440 H   0  0  0  0  0  0  0  0  0  0  0  0
    1.3405   24.0786  -25.6024 H   0  0  0  0  0  0  0  0  0  0  0  0
  1  2  2  0
  2  3  1  0
  3  4  1  0
  4  5  1  0
  5  6  1  0
  6  7  1  0
  7  8  1  0
  8  9  1  0
  9 10  1  0
  2 11  1  0
 11 12  1  0
 12 13  2  0
 13 14  1  0
 14 15  2  0
 15 16  1  0
 16 17  2  0
 10  5  1  0
 17 12  1  0
  3 18  1  0
  3 19  1  0
  4 20  1  0
  4 21  1  0
  6 22  1  0
  6 23  1  0
  7 24  1  0
  7 25  1  0
  9 26  1  0
  9 27  1  0
 10 28  1  0
 10 29  1  0
 13 30  1  0
 14 31  1  0
 15 32  1  0
 16 33  1  0
 17 34  1  0
M  CHG  2  11  -1  16   1
M  END
>  <UniqueID>  (7) 
7

>  <SMILES>  (7) 
O=C(CCN1CCOCC1)[N-]c1ccc[nH+]c1

>  <Energy>  (7) 
47.63339809153096

>  <Genealogy>  (7) 
O=C(CCN1CCOCC1)[N-]c1ccc[nH+]c1 (protonated)
O=C(CCN1CCOCC1)[N-]c1ccc[nH+]c1 (3D coordinates assigned)
O=C(CCN1CCOCC1)[N-]c1ccc[nH+]c1 (nonaromatic ring conformer: 47.63339809153096 kcal/mol)

>  <smiles>  (7) 
O=C(CCN1CCOCC1)Nc1cccnc1

>  <score_type>  (7) 
oracle

>  <origin>  (7) 
adg

>  <m_score__min__energy>  (7) 
-7.6900000000000004

>  <m_primary>  (7) 
energy

$$$$
7:0
     RDKit          3D

 32 34  0  0  0  0  0  0  0  0999 V2000
   -6.3050   25.6130  -29.7070 C   0  0  0  0  0  0  0  0  0  0  0  0
   -5.9410   24.3800  -30.4880 C   0  0  0  0  0  0  0  0  0  0  0  0
   -6.9590   23.4960  -30.8870 C   0  0  0  0  0  0  0  0  0  0  0  0
   -6.6660   22.3550  -31.6570 C   0  0  0  0  0  0  0  0  0  0  0  0
   -7.7060   21.4480  -32.0780 N   0  0  0  0  0  0  0  0  0  0  0  0
   -7.6080   20.3320  -32.8280 C   0  0  0  0  0  0  0  0  0  0  0  0
   -8.8300   19.7980  -32.9770 N   0  0  0  0  0  0  0  0  0  0  0  0
   -9.6690   20.5840  -32.3220 N   0  0  0  0  0  0  0  0  0  0  0  0
   -8.9910   21.5830  -31.7780 N   0  0  0  0  0  0  0  0  0  0  0  0
   -5.3330   22.1110  -32.0240 C   0  0  0  0  0  0  0  0  0  0  0  0
   -4.3140   22.9710  -31.6160 C   0  0  0  0  0  0  0  0  0  0  0  0
   -4.6000   24.0880  -30.8260 C   0  0  0  0  0  0  0  0  0  0  0  0
   -3.5140   24.9240  -30.4140 N   0  0  0  0  0  0  0  0  0  0  0  0
   -2.5120   24.5510  -29.0510 S   0  0  0  0  0  0  0  0  0  0  0  0
   -3.2920   24.7080  -27.7740 O   0  0  0  0  0  0  0  0  0  0  0  0
   -1.3290   25.4780  -29.0340 O   0  0  0  0  0  0  0  0  0  0  0  0
   -1.9700   22.8910  -29.1800 C   0  0  0  0  0  0  0  0  0  0  0  0
   -2.2050   21.8920  -28.2500 C   0  0  0  0  0  0  0  0  0  0  0  0
   -1.6410   20.6650  -28.6160 C   0  0  0  0  0  0  0  0  0  0  0  0
   -0.9640   20.7010  -29.8280 C   0  0  0  0  0  0  0  0  0  0  0  0
   -1.0660   22.2630  -30.4480 S   0  0  0  0  0  0  0  0  0  0  0  0
   -6.2413   25.3971  -28.6303 H   0  0  0  0  0  0  0  0  0  0  0  0
   -5.6086   26.4261  -29.9598 H   0  0  0  0  0  0  0  0  0  0  0  0
   -7.3313   25.9175  -29.9598 H   0  0  0  0  0  0  0  0  0  0  0  0
   -7.9994   23.6992  -30.5931 H   0  0  0  0  0  0  0  0  0  0  0  0
   -6.6770   19.9251  -33.2495 H   0  0  0  0  0  0  0  0  0  0  0  0
   -9.0920   18.9350  -33.5010 H   0  0  0  0  0  0  0  0  0  0  0  0
   -5.0900   21.2324  -32.6397 H   0  0  0  0  0  0  0  0  0  0  0  0
   -3.2760   22.7686  -31.9185 H   0  0  0  0  0  0  0  0  0  0  0  0
   -2.7747   22.0468  -27.3219 H   0  0  0  0  0  0  0  0  0  0  0  0
   -1.7259   19.7568  -28.0012 H   0  0  0  0  0  0  0  0  0  0  0  0
   -0.4486   19.8529  -30.3024 H   0  0  0  0  0  0  0  0  0  0  0  0
  1  2  1  0
  2  3  2  0
  3  4  1  0
  4  5  1  0
  5  6  1  0
  6  7  2  0
  7  8  1  0
  8  9  2  0
  4 10  2  0
 10 11  1  0
 11 12  2  0
 12 13  1  0
 13 14  1  0
 14 15  2  0
 14 16  2  0
 14 17  1  0
 17 18  2  0
 18 19  1  0
 19 20  2  0
 20 21  1  0
 12  2  1  0
 21 17  1  0
  9  5  1  0
  1 22  1  0
  1 23  1  0
  1 24  1  0
  3 25  1  0
  6 26  1  0
  7 27  1  0
 10 28  1  0
 11 29  1  0
 18 30  1  0
 19 31  1  0
 20 32  1  0
M  CHG  2   7   1  13  -1
M  END
>  <UniqueID>  (8) 
8

>  <SMILES>  (8) 
Cc1cc(-n2c[nH+]nn2)ccc1[N-]S(=O)(=O)c1cccs1

>  <Energy>  (8) 
112.92031508660696

>  <Genealogy>  (8) 
Cc1cc(-n2c[nH+]nn2)ccc1[N-]S(=O)(=O)c1cccs1 (protonated)
Cc1cc(-n2c[nH+]nn2)ccc1[N-]S(=O)(=O)c1cccs1 (3D coordinates assigned)
Cc1cc(-n2c[nH+]nn2)ccc1[N-]S(=O)(=O)c1cccs1 (optimized conformer: 112.92031508660696 kcal/mol)

>  <smiles>  (8) 
Cc1cc(-n2cnnn2)ccc1NS(=O)(=O)c1cccs1

>  <score_type>  (8) 
oracle

>  <origin>  (8) 
adg

>  <m_score__min__energy>  (8) 
-9.6199999999999992

>  <m_primary>  (8) 
energy

$$$$
8:0
     RDKit          3D

 38 40  0  0  0  0  0  0  0  0999 V2000
   -3.9180   20.7870  -32.2050 C   0  0  0  0  0  0  0  0  0  0  0  0
   -4.2810   22.1880  -32.6880 C   0  0  0  0  0  0  0  0  0  0  0  0
   -5.4530   22.6940  -31.9690 N   0  0  0  0  0  0  0  0  0  0  0  0
   -5.4770   23.5170  -30.8820 C   0  0  0  0  0  0  0  0  0  0  0  0
   -4.2980   24.2060  -30.3210 C   0  0  0  0  0  0  0  0  0  0  0  0
   -3.9320   25.2990  -30.8290 O   0  0  0  0  0  0  0  0  0  0  0  0
   -3.5640   23.6580  -29.2080 N   0  0  0  0  0  0  0  0  0  0  0  0
   -2.9670   24.5460  -28.2040 C   0  0  0  0  0  0  0  0  0  0  0  0
   -1.6320   23.9650  -27.7300 C   0  0  0  0  0  0  0  0  0  0  0  0
   -1.7860   22.6210  -27.3140 O   0  0  0  0  0  0  0  0  0  0  0  0
   -2.1490   21.8180  -28.4220 C   0  0  0  0  0  0  0  0  0  0  0  0
   -3.5300   22.2150  -28.9510 C   0  0  0  0  0  0  0  0  0  0  0  0
   -6.7510   23.5350  -30.3110 C   0  0  0  0  0  0  0  0  0  0  0  0
   -7.5020   22.7110  -31.1180 C   0  0  0  0  0  0  0  0  0  0  0  0
   -6.7110   22.2290  -32.0790 C   0  0  0  0  0  0  0  0  0  0  0  0
   -7.2400   21.0030  -32.7120 C   0  0  0  0  0  0  0  0  0  0  0  0
   -8.6390   20.8700  -32.0540 C   0  0  0  0  0  0  0  0  0  0  0  0
   -8.7300   21.9210  -30.9160 C   0  0  0  0  0  0  0  0  0  0  0  0
   -3.9131   20.7681  -31.1052 H   0  0  0  0  0  0  0  0  0  0  0  0
   -4.6590   20.0661  -32.5808 H   0  0  0  0  0  0  0  0  0  0  0  0
   -2.9202   20.5167  -32.5808 H   0  0  0  0  0  0  0  0  0  0  0  0
   -3.4301   22.8627  -32.5124 H   0  0  0  0  0  0  0  0  0  0  0  0
   -4.5159   22.1431  -33.7617 H   0  0  0  0  0  0  0  0  0  0  0  0
   -2.7971   25.5380  -28.6480 H   0  0  0  0  0  0  0  0  0  0  0  0
   -3.6497   24.6373  -27.3463 H   0  0  0  0  0  0  0  0  0  0  0  0
   -0.9076   24.0054  -28.5568 H   0  0  0  0  0  0  0  0  0  0  0  0
   -1.2735   24.5586  -26.8761 H   0  0  0  0  0  0  0  0  0  0  0  0
   -1.4050   21.9490  -29.2216 H   0  0  0  0  0  0  0  0  0  0  0  0
   -2.1833   20.7668  -28.0999 H   0  0  0  0  0  0  0  0  0  0  0  0
   -3.7335   21.6721  -29.8858 H   0  0  0  0  0  0  0  0  0  0  0  0
   -4.2943   21.9600  -28.2022 H   0  0  0  0  0  0  0  0  0  0  0  0
   -7.0805   24.0844  -29.4168 H   0  0  0  0  0  0  0  0  0  0  0  0
   -7.3221   21.1211  -33.8026 H   0  0  0  0  0  0  0  0  0  0  0  0
   -6.5992   20.1206  -32.5679 H   0  0  0  0  0  0  0  0  0  0  0  0
   -9.4236   21.0590  -32.8015 H   0  0  0  0  0  0  0  0  0  0  0  0
   -8.7797   19.8557  -31.6523 H   0  0  0  0  0  0  0  0  0  0  0  0
   -9.6282   22.5469  -31.0229 H   0  0  0  0  0  0  0  0  0  0  0  0
   -8.8079   21.4774  -29.9124 H   0  0  0  0  0  0  0  0  0  0  0  0
  1  2  1  0
  2  3  1  0
  3  4  1  0
  4  5  1  0
  5  6  2  0
  5  7  1  0
  7  8  1  0
  8  9  1  0
  9 10  1  0
 10 11  1  0
 11 12  1  0
  4 13  2  0
 13 14  1  0
 14 15  2  0
 15 16  1  0
 16 17  1  0
 17 18  1  0
 15  3  1  0
 12  7  1  0
 18 14  1  0
  1 19  1  0
  1 20  1  0
  1 21  1  0
  2 22  1  0
  2 23  1  0
  8 24  1  0
  8 25  1  0
  9 26  1  0
  9 27  1  0
 11 28  1  0
 11 29  1  0
 12 30  1  0
 12 31  1  0
 13 32  1  0
 16 33  1  0
 16 34  1  0
 17 35  1  0
 17 36  1  0
 18 37  1  0
 18 38  1  0
M  END
>  <UniqueID>  (9) 
9

>  <SMILES>  (9) 
CCn1c(C(=O)N2CCOCC2)cc2c1CCC2

>  <Energy>  (9) 
87.4993862167176

>  <Genealogy>  (9) 
CCn1c(C(=O)N2CCOCC2)cc2c1CCC2 (3D coordinates assigned)
CCn1c(C(=O)N2CCOCC2)cc2c1CCC2 (nonaromatic ring conformer: 87.4993862167176 kcal/mol)

>  <smiles>  (9) 
CCn1c(C(=O)N2CCOCC2)cc2c1CCC2

>  <score_type>  (9) 
oracle

>  <origin>  (9) 
adg

>  <m_score__min__energy>  (9) 
-7.04

>  <m_primary>  (9) 
energy

$$$$
9:0
     RDKit          3D

 24 25  0  0  0  0  0  0  0  0999 V2000
   -6.8690   17.5660  -33.6470 C   0  0  0  0  0  0  0  0  0  0  0  0
   -6.6880   18.9310  -33.0560 C   0  0  0  0  0  0  0  0  0  0  0  0
   -7.3140   19.2730  -31.8520 C   0  0  0  0  0  0  0  0  0  0  0  0
   -7.1070   20.5330  -31.2910 C   0  0  0  0  0  0  0  0  0  0  0  0
   -6.2590   21.4510  -31.9330 C   0  0  0  0  0  0  0  0  0  0  0  0
   -6.0330   22.8000  -31.3550 C   0  0  0  0  0  0  0  0  0  0  0  0
   -7.0910   23.5150  -30.7720 C   0  0  0  0  0  0  0  0  0  0  0  0
   -6.8680   24.7840  -30.2310 C   0  0  0  0  0  0  0  0  0  0  0  0
   -5.5870   25.3320  -30.2790 C   0  0  0  0  0  0  0  0  0  0  0  0
   -4.5690   24.6330  -30.8480 N   0  0  0  0  0  0  0  0  0  0  0  0
   -4.7590   23.3960  -31.3790 C   0  0  0  0  0  0  0  0  0  0  0  0
   -5.6440   21.0890  -33.1000 N   0  0  0  0  0  0  0  0  0  0  0  0
   -5.8350   19.8630  -33.6600 C   0  0  0  0  0  0  0  0  0  0  0  0
   -6.9671   16.8265  -32.8386 H   0  0  0  0  0  0  0  0  0  0  0  0
   -7.7768   17.5528  -34.2681 H   0  0  0  0  0  0  0  0  0  0  0  0
   -5.9961   17.3167  -34.2681 H   0  0  0  0  0  0  0  0  0  0  0  0
   -7.9696   18.5477  -31.3479 H   0  0  0  0  0  0  0  0  0  0  0  0
   -7.6057   20.8070  -30.3496 H   0  0  0  0  0  0  0  0  0  0  0  0
   -8.0987   23.0750  -30.7409 H   0  0  0  0  0  0  0  0  0  0  0  0
   -7.6952   25.3451  -29.7717 H   0  0  0  0  0  0  0  0  0  0  0  0
   -5.3998   26.3302  -29.8564 H   0  0  0  0  0  0  0  0  0  0  0  0
   -3.9119   22.8582  -31.8299 H   0  0  0  0  0  0  0  0  0  0  0  0
   -4.9890   21.7480  -33.5760 H   0  0  0  0  0  0  0  0  0  0  0  0
   -5.3154   19.6025  -34.5939 H   0  0  0  0  0  0  0  0  0  0  0  0
  1  2  1  0
  2  3  2  0
  3  4  1  0
  4  5  2  0
  5  6  1  0
  6  7  2  0
  7  8  1  0
  8  9  2  0
  9 10  1  0
 10 11  2  0
  5 12  1  0
 12 13  2  0
 13  2  1  0
 11  6  1  0
  1 14  1  0
  1 15  1  0
  1 16  1  0
  3 17  1  0
  4 18  1  0
  7 19  1  0
  8 20  1  0
  9 21  1  0
 11 22  1  0
 12 23  1  0
 13 24  1  0
M  CHG  1  12   1
M  END
>  <UniqueID>  (10) 
10

>  <SMILES>  (10) 
Cc1ccc(-c2cccnc2)[nH+]c1

>  <Energy>  (10) 
29.642857039691876

>  <Genealogy>  (10) 
Cc1ccc(-c2cccnc2)[nH+]c1 (protonated)
Cc1ccc(-c2cccnc2)[nH+]c1 (3D coordinates assigned)
Cc1ccc(-c2cccnc2)[nH+]c1 (optimized conformer: 29.642857039691876 kcal/mol)

>  <smiles>  (10) 
Cc1ccc(-c2cccnc2)nc1

>  <score_type>  (10) 
oracle

>  <origin>  (10) 
adg

>  <m_score__min__energy>  (10) 
-5.6500000000000004

>  <m_primary>  (10) 
energy

$$$$
10:0
     RDKit          3D

 45 47  0  0  0  0  0  0  0  0999 V2000
   -2.6640   21.3870  -31.7900 C   0  0  0  0  0  0  0  0  0  0  0  0
   -3.8200   21.9810  -32.5980 C   0  0  0  0  0  0  0  0  0  0  0  0
   -5.0820   21.2500  -32.3610 N   0  0  0  0  0  0  0  0  0  0  0  0
   -6.1200   21.6060  -31.5450 C   0  0  0  0  0  0  0  0  0  0  0  0
   -6.1500   22.7720  -30.6970 N   0  0  0  0  0  0  0  0  0  0  0  0
   -5.3070   22.7740  -29.4900 C   0  0  0  0  0  0  0  0  0  0  0  0
   -4.2100   23.8650  -29.5260 C   0  0  0  0  0  0  0  0  0  0  0  0
   -4.4460   24.9730  -30.5880 C   0  0  0  0  0  0  0  0  0  0  0  0
   -5.7280   25.7960  -30.2950 C   0  0  0  0  0  0  0  0  0  0  0  0
   -6.9410   24.9520  -29.8790 C   0  0  0  0  0  0  0  0  0  0  0  0
   -7.2060   23.7810  -30.8290 C   0  0  0  0  0  0  0  0  0  0  0  0
   -7.0930   20.6670  -31.4770 N   0  0  0  0  0  0  0  0  0  0  0  0
   -6.6550   19.7050  -32.3050 C   0  0  0  0  0  0  0  0  0  0  0  0
   -5.4530   20.0350  -32.8340 C   0  0  0  0  0  0  0  0  0  0  0  0
   -4.8090   19.1330  -33.6860 C   0  0  0  0  0  0  0  0  0  0  0  0
   -3.7090   19.4150  -34.2090 O   0  0  0  0  0  0  0  0  0  0  0  0
   -5.4160   17.9230  -33.9450 N   0  0  0  0  0  0  0  0  0  0  0  0
   -4.7810   16.9490  -34.8460 C   0  0  0  0  0  0  0  0  0  0  0  0
   -6.6510   17.6290  -33.4030 C   0  0  0  0  0  0  0  0  0  0  0  0
   -7.2180   16.5260  -33.6760 O   0  0  0  0  0  0  0  0  0  0  0  0
   -7.2810   18.5260  -32.5750 N   0  0  0  0  0  0  0  0  0  0  0  0
   -8.5880   18.2060  -31.9840 C   0  0  0  0  0  0  0  0  0  0  0  0
   -2.8741   21.4949  -30.7157 H   0  0  0  0  0  0  0  0  0  0  0  0
   -2.5540   20.3207  -32.0368 H   0  0  0  0  0  0  0  0  0  0  0  0
   -1.7330   21.9184  -32.0368 H   0  0  0  0  0  0  0  0  0  0  0  0
   -3.9564   23.0326  -32.3057 H   0  0  0  0  0  0  0  0  0  0  0  0
   -3.5706   21.8991  -33.6662 H   0  0  0  0  0  0  0  0  0  0  0  0
   -5.9484   22.9494  -28.6137 H   0  0  0  0  0  0  0  0  0  0  0  0
   -4.8018   21.7983  -29.4374 H   0  0  0  0  0  0  0  0  0  0  0  0
   -4.1649   24.3411  -28.5354 H   0  0  0  0  0  0  0  0  0  0  0  0
   -3.2721   23.3600  -29.8004 H   0  0  0  0  0  0  0  0  0  0  0  0
   -3.5808   25.6523  -30.5906 H   0  0  0  0  0  0  0  0  0  0  0  0
   -4.5719   24.4849  -31.5657 H   0  0  0  0  0  0  0  0  0  0  0  0
   -5.5051   26.5026  -29.4819 H   0  0  0  0  0  0  0  0  0  0  0  0
   -6.0014   26.2973  -31.2352 H   0  0  0  0  0  0  0  0  0  0  0  0
   -6.7609   24.5518  -28.8703 H   0  0  0  0  0  0  0  0  0  0  0  0
   -7.8243   25.6069  -29.9078 H   0  0  0  0  0  0  0  0  0  0  0  0
   -8.1764   23.3256  -30.5823 H   0  0  0  0  0  0  0  0  0  0  0  0
   -7.2181   24.1542  -31.8637 H   0  0  0  0  0  0  0  0  0  0  0  0
   -4.2758   16.1741  -34.2508 H   0  0  0  0  0  0  0  0  0  0  0  0
   -5.5486   16.4818  -35.4805 H   0  0  0  0  0  0  0  0  0  0  0  0
   -4.0438   17.4628  -35.4805 H   0  0  0  0  0  0  0  0  0  0  0  0
   -8.5090   18.2253  -30.8870 H   0  0  0  0  0  0  0  0  0  0  0  0
   -9.3302   18.9490  -32.3113 H   0  0  0  0  0  0  0  0  0  0  0  0
   -8.9030   17.2042  -32.3113 H   0  0  0  0  0  0  0  0  0  0  0  0
  1  2  1  0
  2  3  1  0
  3  4  1  0
  4  5  1  0
  5  6  1  0
  6  7  1  0
  7  8  1  0
  8  9  1  0
  9 10  1  0
 10 11  1  0
  4 12  2  0
 12 13  1  0
 13 14  2  0
 14 15  1  0
 15 16  2  0
 15 17  1  0
 17 18  1  0
 17 19  1  0
 19 20  2  0
 19 21  1  0
 21 22  1  0
 14  3  1  0
 11  5  1  0
 21 13  1  0
  1 23  1  0
  1 24  1  0
  1 25  1  0
  2 26  1  0
  2 27  1  0
  6 28  1  0
  6 29  1  0
  7 30  1  0
  7 31  1  0
  8 32  1  0
  8 33  1  0
  9 34  1  0
  9 35  1  0
 10 36  1  0
 10 37  1  0
 11 38  1  0
 11 39  1  0
 18 40  1  0
 18 41  1  0
 18 42  1  0
 22 43  1  0
 22 44  1  0
 22 45  1  0
M  END
>  <UniqueID>  (11) 
11

>  <SMILES>  (11) 
CCn1c(N2CCCCCC2)nc2c1c(=O)n(C)c(=O)n2C

>  <Energy>  (11) 
97.23329150412485

>  <Genealogy>  (11) 
CCn1c(N2CCCCCC2)nc2c1c(=O)n(C)c(=O)n2C (3D coordinates assigned)
CCn1c(N2CCCCCC2)nc2c1c(=O)n(C)c(=O)n2C (nonaromatic ring conformer: 97.23329150412485 kcal/mol)

>  <smiles>  (11) 
CCn1c(N2CCCCCC2)nc2c1c(=O)n(C)c(=O)n2C

>  <score_type>  (11) 
oracle

>  <origin>  (11) 
adg

>  <m_score__min__energy>  (11) 
-5.8399999999999999

>  <m_primary>  (11) 
energy

$$$$
11:0
     RDKit          3D

 20 21  0  0  0  0  0  0  0  0999 V2000
   -2.3860   25.2330  -29.3440 O   0  0  0  0  0  0  0  0  0  0  0  0
   -3.3490   24.5550  -29.7890 C   0  0  0  0  0  0  0  0  0  0  0  0
   -4.2130   25.1060  -30.6780 N   0  0  0  0  0  0  0  0  0  0  0  0
   -5.2570   24.3930  -31.1730 C   0  0  0  0  0  0  0  0  0  0  0  0
   -5.4620   23.0650  -30.7650 C   0  0  0  0  0  0  0  0  0  0  0  0
   -6.5980   22.2640  -31.2900 C   0  0  0  0  0  0  0  0  0  0  0  0
   -7.9260   22.6720  -31.0630 C   0  0  0  0  0  0  0  0  0  0  0  0
   -8.9940   21.9170  -31.5580 C   0  0  0  0  0  0  0  0  0  0  0  0
   -8.7500   20.7480  -32.2840 C   0  0  0  0  0  0  0  0  0  0  0  0
   -9.7860   20.0170  -32.7630 F   0  0  0  0  0  0  0  0  0  0  0  0
   -7.4360   20.3330  -32.5160 C   0  0  0  0  0  0  0  0  0  0  0  0
   -6.3650   21.0860  -32.0230 C   0  0  0  0  0  0  0  0  0  0  0  0
   -4.5530   22.5220  -29.8440 C   0  0  0  0  0  0  0  0  0  0  0  0
   -3.5210   23.2730  -29.3780 N   0  0  0  0  0  0  0  0  0  0  0  0
   -5.9443   24.8569  -31.8958 H   0  0  0  0  0  0  0  0  0  0  0  0
   -8.1250   23.5911  -30.4923 H   0  0  0  0  0  0  0  0  0  0  0  0
  -10.0283   22.2439  -31.3755 H   0  0  0  0  0  0  0  0  0  0  0  0
   -7.2435   19.4128  -33.0871 H   0  0  0  0  0  0  0  0  0  0  0  0
   -5.3329   20.7545  -32.2099 H   0  0  0  0  0  0  0  0  0  0  0  0
   -4.6764   21.4851  -29.4982 H   0  0  0  0  0  0  0  0  0  0  0  0
  1  2  2  0
  2  3  1  0
  3  4  2  0
  4  5  1  0
  5  6  1  0
  6  7  2  0
  7  8  1  0
  8  9  2  0
  9 10  1  0
  9 11  1  0
 11 12  2  0
  5 13  2  0
 13 14  1  0
 14  2  1  0
 12  6  1  0
  4 15  1  0
  7 16  1  0
  8 17  1  0
 11 18  1  0
 12 19  1  0
 13 20  1  0
M  CHG  1  14  -1
M  END
>  <UniqueID>  (12) 
12

>  <SMILES>  (12) 
O=c1ncc(-c2ccc(F)cc2)c[n-]1

>  <Energy>  (12) 
27.395440196814008

>  <Genealogy>  (12) 
O=c1ncc(-c2ccc(F)cc2)c[n-]1 (protonated)
O=c1ncc(-c2ccc(F)cc2)c[n-]1 (3D coordinates assigned)
O=c1ncc(-c2ccc(F)cc2)c[n-]1 (optimized conformer: 27.395440196814008 kcal/mol)

>  <smiles>  (12) 
O=c1ncc(-c2ccc(F)cc2)c[nH]1

>  <score_type>  (12) 
oracle

>  <origin>  (12) 
adg

>  <m_score__min__energy>  (12) 
-7.2599999999999998

>  <m_primary>  (12) 
energy

$$$$
12:0
     RDKit          3D

 38 40  0  0  0  0  0  0  0  0999 V2000
   -1.8870   18.8690  -34.2110 C   0  0  0  0  0  0  0  0  0  0  0  0
   -3.2120   18.6220  -34.6720 O   0  0  0  0  0  0  0  0  0  0  0  0
   -4.3520   18.6120  -33.8530 C   0  0  0  0  0  0  0  0  0  0  0  0
   -4.9760   19.8020  -33.4310 C   0  0  0  0  0  0  0  0  0  0  0  0
   -6.1160   19.7660  -32.6110 C   0  0  0  0  0  0  0  0  0  0  0  0
   -6.6310   18.5180  -32.1930 C   0  0  0  0  0  0  0  0  0  0  0  0
   -6.0150   17.3350  -32.6260 C   0  0  0  0  0  0  0  0  0  0  0  0
   -4.8840   17.3770  -33.4470 C   0  0  0  0  0  0  0  0  0  0  0  0
   -4.3010   16.1750  -33.8490 O   0  0  0  0  0  0  0  0  0  0  0  0
   -7.8190   18.4500  -31.2630 C   0  0  0  0  0  0  0  0  0  0  0  0
   -9.1290   18.8790  -31.9470 C   0  0  0  0  0  0  0  0  0  0  0  0
   -9.0100   20.1160  -32.8580 C   0  0  0  0  0  0  0  0  0  0  0  0
   -8.1130   21.1850  -32.2890 C   0  0  0  0  0  0  0  0  0  0  0  0
   -6.7730   21.0470  -32.2150 C   0  0  0  0  0  0  0  0  0  0  0  0
   -5.9340   22.1720  -31.7210 C   0  0  0  0  0  0  0  0  0  0  0  0
   -6.4350   23.4880  -31.6790 C   0  0  0  0  0  0  0  0  0  0  0  0
   -5.6320   24.5370  -31.2250 C   0  0  0  0  0  0  0  0  0  0  0  0
   -4.3200   24.2880  -30.8120 C   0  0  0  0  0  0  0  0  0  0  0  0
   -3.5230   25.3320  -30.3610 O   0  0  0  0  0  0  0  0  0  0  0  0
   -3.8100   22.9870  -30.8530 C   0  0  0  0  0  0  0  0  0  0  0  0
   -4.6110   21.9340  -31.3070 C   0  0  0  0  0  0  0  0  0  0  0  0
   -1.8759   18.8711  -33.1111 H   0  0  0  0  0  0  0  0  0  0  0  0
   -1.2164   18.0804  -34.5830 H   0  0  0  0  0  0  0  0  0  0  0  0
   -1.5456   19.8463  -34.5830 H   0  0  0  0  0  0  0  0  0  0  0  0
   -4.5654   20.7721  -33.7476 H   0  0  0  0  0  0  0  0  0  0  0  0
   -6.4263   16.3629  -32.3162 H   0  0  0  0  0  0  0  0  0  0  0  0
   -3.4880   16.1440  -34.4510 H   0  0  0  0  0  0  0  0  0  0  0  0
   -7.9295   17.4150  -30.9072 H   0  0  0  0  0  0  0  0  0  0  0  0
   -7.6327   19.1461  -30.4319 H   0  0  0  0  0  0  0  0  0  0  0  0
   -9.4868   18.0375  -32.5584 H   0  0  0  0  0  0  0  0  0  0  0  0
   -9.8225   19.1561  -31.1394 H   0  0  0  0  0  0  0  0  0  0  0  0
   -8.6029   19.7978  -33.8291 H   0  0  0  0  0  0  0  0  0  0  0  0
  -10.0162   20.5497  -32.9554 H   0  0  0  0  0  0  0  0  0  0  0  0
   -8.5691   22.1151  -31.9192 H   0  0  0  0  0  0  0  0  0  0  0  0
   -7.4655   23.6909  -32.0059 H   0  0  0  0  0  0  0  0  0  0  0  0
   -6.0329   25.5608  -31.1924 H   0  0  0  0  0  0  0  0  0  0  0  0
   -2.7776   22.7912  -30.5278 H   0  0  0  0  0  0  0  0  0  0  0  0
   -4.2035   20.9128  -31.3405 H   0  0  0  0  0  0  0  0  0  0  0  0
  1  2  1  0
  2  3  1  0
  3  4  2  0
  4  5  1  0
  5  6  2  0
  6  7  1  0
  7  8  2  0
  8  9  1  0
  6 10  1  0
 10 11  1  0
 11 12  1  0
 12 13  1  0
 13 14  2  0
 14 15  1  0
 15 16  2  0
 16 17  1  0
 17 18  2  0
 18 19  1  0
 18 20  1  0
 20 21  2  0
  8  3  1  0
 21 15  1  0
 14  5  1  0
  1 22  1  0
  1 23  1  0
  1 24  1  0
  4 25  1  0
  7 26  1  0
  9 27  1  0
 10 28  1  0
 10 29  1  0
 11 30  1  0
 11 31  1  0
 12 32  1  0
 12 33  1  0
 13 34  1  0
 16 35  1  0
 17 36  1  0
 20 37  1  0
 21 38  1  0
M  CHG  1  19  -1
M  END
>  <UniqueID>  (13) 
13

>  <SMILES>  (13) 
COc1cc2c(cc1O)CCCC=C2c1ccc([O-])cc1

>  <Energy>  (13) 
51.44204465810962

>  <Genealogy>  (13) 
COc1cc2c(cc1O)CCCC=C2c1ccc([O-])cc1 (protonated)
COc1cc2c(cc1O)CCCC=C2c1ccc([O-])cc1 (3D coordinates assigned)
COc1cc2c(cc1O)CCCC=C2c1ccc([O-])cc1 (nonaromatic ring conformer: 51.44204465810962 kcal/mol)

>  <smiles>  (13) 
COc1cc2c(cc1O)CCCC=C2c1ccc(O)cc1

>  <score_type>  (13) 
oracle

>  <origin>  (13) 
adg

>  <m_score__min__energy>  (13) 
-9.3300000000000001

>  <m_primary>  (13) 
energy

$$$$
13:0
     RDKit          3D

 53 56  0  0  0  0  0  0  0  0999 V2000
   -0.2540   21.3730  -30.2010 C   0  0  0  0  0  0  0  0  0  0  0  0
   -0.2580   20.0600  -30.9780 C   0  0  0  0  0  0  0  0  0  0  0  0
   -1.3880   19.9900  -31.8490 O   0  0  0  0  0  0  0  0  0  0  0  0
   -2.5630   20.7520  -31.7250 C   0  0  0  0  0  0  0  0  0  0  0  0
   -3.3290   20.7860  -30.5460 C   0  0  0  0  0  0  0  0  0  0  0  0
   -4.4950   21.5530  -30.4860 C   0  0  0  0  0  0  0  0  0  0  0  0
   -4.9190   22.2980  -31.5970 C   0  0  0  0  0  0  0  0  0  0  0  0
   -6.1160   23.1010  -31.5240 N   0  0  0  0  0  0  0  0  0  0  0  0
   -6.0520   24.5600  -31.6640 C   0  0  0  0  0  0  0  0  0  0  0  0
   -5.3060   25.1610  -30.5040 C   0  0  0  0  0  0  0  0  0  0  0  0
   -5.9570   25.5660  -29.5040 O   0  0  0  0  0  0  0  0  0  0  0  0
   -3.8740   25.1850  -30.4540 N   0  0  0  0  0  0  0  0  0  0  0  0
   -3.0540   24.6070  -29.4310 C   0  0  0  0  0  0  0  0  0  0  0  0
   -3.6550   23.7720  -28.4600 C   0  0  0  0  0  0  0  0  0  0  0  0
   -2.8860   23.2090  -27.4240 C   0  0  0  0  0  0  0  0  0  0  0  0
   -1.5310   23.5150  -27.3820 C   0  0  0  0  0  0  0  0  0  0  0  0
   -0.9510   24.3360  -28.2950 C   0  0  0  0  0  0  0  0  0  0  0  0
   -1.6760   24.9130  -29.3340 C   0  0  0  0  0  0  0  0  0  0  0  0
    0.3930   24.4710  -28.0050 O   0  0  0  0  0  0  0  0  0  0  0  0
    0.6760   23.6840  -26.8400 C   0  0  0  0  0  0  0  0  0  0  0  0
   -0.5790   23.0930  -26.4740 O   0  0  0  0  0  0  0  0  0  0  0  0
   -7.6630   22.3440  -31.2660 S   0  0  0  0  0  0  0  0  0  0  0  0
   -7.9840   22.3330  -29.7980 O   0  0  0  0  0  0  0  0  0  0  0  0
   -8.7360   23.1290  -31.9690 O   0  0  0  0  0  0  0  0  0  0  0  0
   -7.6290   20.6910  -31.8740 C   0  0  0  0  0  0  0  0  0  0  0  0
   -8.4220   19.6940  -31.2840 C   0  0  0  0  0  0  0  0  0  0  0  0
   -8.3920   18.3870  -31.7800 C   0  0  0  0  0  0  0  0  0  0  0  0
   -7.5720   18.0690  -32.8680 C   0  0  0  0  0  0  0  0  0  0  0  0
   -6.7810   19.0580  -33.4590 C   0  0  0  0  0  0  0  0  0  0  0  0
   -6.8070   20.3650  -32.9620 C   0  0  0  0  0  0  0  0  0  0  0  0
   -4.1410   22.2760  -32.7670 C   0  0  0  0  0  0  0  0  0  0  0  0
   -2.9740   21.5110  -32.8270 C   0  0  0  0  0  0  0  0  0  0  0  0
   -0.2546   21.1604  -29.1217 H   0  0  0  0  0  0  0  0  0  0  0  0
    0.6459   21.9499  -30.4605 H   0  0  0  0  0  0  0  0  0  0  0  0
   -1.1504   21.9554  -30.4605 H   0  0  0  0  0  0  0  0  0  0  0  0
    0.6629   19.9917  -31.5757 H   0  0  0  0  0  0  0  0  0  0  0  0
   -0.3122   19.2266  -30.2621 H   0  0  0  0  0  0  0  0  0  0  0  0
   -3.0087   20.2064  -29.6677 H   0  0  0  0  0  0  0  0  0  0  0  0
   -5.0865   21.5732  -29.5588 H   0  0  0  0  0  0  0  0  0  0  0  0
   -5.5327   24.8128  -32.6002 H   0  0  0  0  0  0  0  0  0  0  0  0
   -7.0749   24.9642  -31.6811 H   0  0  0  0  0  0  0  0  0  0  0  0
   -4.7331   23.5607  -28.5150 H   0  0  0  0  0  0  0  0  0  0  0  0
   -3.3427   22.5484  -26.6723 H   0  0  0  0  0  0  0  0  0  0  0  0
   -1.1924   25.5861  -30.0573 H   0  0  0  0  0  0  0  0  0  0  0  0
    1.4170   22.9046  -27.0712 H   0  0  0  0  0  0  0  0  0  0  0  0
    1.0988   24.2907  -26.0257 H   0  0  0  0  0  0  0  0  0  0  0  0
   -9.0686   19.9417  -30.4293 H   0  0  0  0  0  0  0  0  0  0  0  0
   -9.0137   17.6081  -31.3143 H   0  0  0  0  0  0  0  0  0  0  0  0
   -7.5499   17.0408  -33.2582 H   0  0  0  0  0  0  0  0  0  0  0  0
   -6.1376   18.8083  -34.3156 H   0  0  0  0  0  0  0  0  0  0  0  0
   -6.1800   21.1403  -33.4266 H   0  0  0  0  0  0  0  0  0  0  0  0
   -4.4533   22.8654  -33.6417 H   0  0  0  0  0  0  0  0  0  0  0  0
   -2.3727   21.5049  -33.7481 H   0  0  0  0  0  0  0  0  0  0  0  0
  1  2  1  0
  2  3  1  0
  3  4  1  0
  4  5  2  0
  5  6  1  0
  6  7  2  0
  7  8  1  0
  8  9  1  0
  9 10  1  0
 10 11  2  0
 10 12  1  0
 12 13  1  0
 13 14  2  0
 14 15  1  0
 15 16  2  0
 16 17  1  0
 17 18  2  0
 17 19  1  0
 19 20  1  0
 20 21  1  0
  8 22  1  0
 22 23  2  0
 22 24  2  0
 22 25  1  0
 25 26  2  0
 26 27  1  0
 27 28  2  0
 28 29  1  0
 29 30  2  0
  7 31  1  0
 31 32  2  0
 32  4  1  0
 18 13  1  0
 30 25  1  0
 21 16  1  0
  1 33  1  0
  1 34  1  0
  1 35  1  0
  2 36  1  0
  2 37  1  0
  5 38  1  0
  6 39  1  0
  9 40  1  0
  9 41  1  0
 14 42  1  0
 15 43  1  0
 18 44  1  0
 20 45  1  0
 20 46  1  0
 26 47  1  0
 27 48  1  0
 28 49  1  0
 29 50  1  0
 30 51  1  0
 31 52  1  0
 32 53  1  0
M  CHG  1  12  -1
M  END
>  <UniqueID>  (14) 
14

>  <SMILES>  (14) 
CCOc1ccc(N(CC(=O)[N-]c2ccc3c(c2)OCO3)S(=O)(=O)c2ccccc2)cc1

>  <Energy>  (14) 
90.547790518246

>  <Genealogy>  (14) 
CCOc1ccc(N(CC(=O)[N-]c2ccc3c(c2)OCO3)S(=O)(=O)c2ccccc2)cc1 (protonated)
CCOc1ccc(N(CC(=O)[N-]c2ccc3c(c2)OCO3)S(=O)(=O)c2ccccc2)cc1 (3D coordinates assigned)
CCOc1ccc(N(CC(=O)[N-]c2ccc3c(c2)OCO3)S(=O)(=O)c2ccccc2)cc1 (nonaromatic ring conformer: 90.547790518246 kcal/mol)

>  <smiles>  (14) 
CCOc1ccc(N(CC(=O)Nc2ccc3c(c2)OCO3)S(=O)(=O)c2ccccc2)cc1

>  <score_type>  (14) 
oracle

>  <origin>  (14) 
adg

>  <m_score__min__energy>  (14) 
-10.279999999999999

>  <m_primary>  (14) 
energy

$$$$
14:0
     RDKit          3D

 34 36  0  0  1  0  0  0  0  0999 V2000
   -1.6320   21.5200  -31.4030 C   0  0  0  0  0  0  0  0  0  0  0  0
   -2.1980   22.6960  -30.6880 C   0  0  0  0  0  0  0  0  0  0  0  0
   -1.5540   23.2430  -29.5840 C   0  0  0  0  0  0  0  0  0  0  0  0
   -2.0850   24.3330  -28.9260 C   0  0  0  0  0  0  0  0  0  0  0  0
   -1.4630   24.9540  -27.7650 C   0  0  0  0  0  0  0  0  0  0  0  0
   -2.1140   25.1990  -26.5820 C   0  0  0  0  0  0  0  0  0  0  0  0
   -1.4870   25.7930  -25.4960 C   0  0  0  0  0  0  0  0  0  0  0  0
   -0.1410   26.1480  -25.6340 C   0  0  0  0  0  0  0  0  0  0  0  0
    0.4870   25.8880  -26.8390 C   0  0  0  0  0  0  0  0  0  0  0  0
   -0.1680   25.3090  -27.8600 N   0  0  0  0  0  0  0  0  0  0  0  0
   -3.2390   24.8490  -29.3840 N   0  0  0  0  0  0  0  0  0  0  0  0
   -3.8670   24.3170  -30.4610 C   0  0  0  0  0  0  0  0  0  0  0  0
   -4.9700   24.7850  -30.9250 N   0  0  0  0  0  0  0  0  0  0  0  0
   -6.0870   23.9090  -30.9870 C   0  0  0  0  0  0  0  0  0  0  0  0
   -6.5090   23.1730  -29.8970 C   0  0  0  0  0  0  0  0  0  0  0  0
   -7.6060   22.3500  -30.0620 C   0  0  0  0  0  0  0  0  0  0  0  0
   -8.2760   22.2440  -31.2540 C   0  0  0  0  0  0  0  0  0  0  0  0
   -7.8580   22.9780  -32.3430 C   0  0  0  0  0  0  0  0  0  0  0  0
   -6.7600   23.8050  -32.1880 C   0  0  0  0  0  0  0  0  0  0  0  0
   -3.3530   23.2410  -31.1180 N   0  0  0  0  0  0  0  0  0  0  0  0
   -1.2764   20.7813  -30.6696 H   0  0  0  0  0  0  0  0  0  0  0  0
   -2.4099   21.0652  -32.0339 H   0  0  0  0  0  0  0  0  0  0  0  0
   -0.7913   21.8442  -32.0339 H   0  0  0  0  0  0  0  0  0  0  0  0
   -0.6103   22.8016  -29.2311 H   0  0  0  0  0  0  0  0  0  0  0  0
   -3.1725   24.9138  -26.4913 H   0  0  0  0  0  0  0  0  0  0  0  0
   -2.0303   25.9786  -24.5577 H   0  0  0  0  0  0  0  0  0  0  0  0
    0.4046   26.6222  -24.8049 H   0  0  0  0  0  0  0  0  0  0  0  0
    1.5452   26.1610  -26.9642 H   0  0  0  0  0  0  0  0  0  0  0  0
   -3.7110   25.6720  -28.9500 H   0  0  0  0  0  0  0  0  0  0  0  0
   -5.9889   23.2400  -28.9300 H   0  0  0  0  0  0  0  0  0  0  0  0
   -7.9557   21.7567  -29.2043 H   0  0  0  0  0  0  0  0  0  0  0  0
   -9.1448   21.5749  -31.3406 H   0  0  0  0  0  0  0  0  0  0  0  0
   -8.3823   22.9082  -33.3075 H   0  0  0  0  0  0  0  0  0  0  0  0
   -6.4127   24.3975  -33.0473 H   0  0  0  0  0  0  0  0  0  0  0  0
  1  2  1  0
  2  3  1  0
  3  4  2  0
  4  5  1  0
  5  6  2  0
  6  7  1  0
  7  8  2  0
  8  9  1  0
  9 10  2  0
  4 11  1  0
 11 12  1  0
 12 13  2  0
 13 14  1  0
 14 15  2  0
 15 16  1  0
 16 17  2  0
 17 18  1  0
 18 19  2  0
 12 20  1  0
 20  2  2  0
 10  5  1  0
 19 14  1  0
  1 21  1  0
  1 22  1  0
  1 23  1  0
  3 24  1  0
  6 25  1  0
  7 26  1  0
  8 27  1  0
  9 28  1  0
 11 29  1  0
 15 30  1  0
 16 31  1  0
 17 32  1  0
 18 33  1  0
 19 34  1  0
M  END
>  <smiles>  (15) 
Cc1cc(-c2ccccn2)[nH]c(=Nc2ccccc2)n1

>  <score_type>  (15) 
oracle

>  <origin>  (15) 
adg

>  <m_score__min__energy>  (15) 
-7.6799999999999997

>  <m_primary>  (15) 
energy

$$$$
15:0
     RDKit          3D

 25 26  0  0  0  0  0  0  0  0999 V2000
   -0.9860   26.0670  -27.7260 C   0  0  0  0  0  0  0  0  0  0  0  0
   -1.6320   25.7790  -28.9610 O   0  0  0  0  0  0  0  0  0  0  0  0
   -2.1050   24.5110  -29.3390 C   0  0  0  0  0  0  0  0  0  0  0  0
   -1.4510   23.3320  -28.9510 C   0  0  0  0  0  0  0  0  0  0  0  0
   -1.9440   22.0940  -29.3420 C   0  0  0  0  0  0  0  0  0  0  0  0
   -3.0990   22.0060  -30.1270 C   0  0  0  0  0  0  0  0  0  0  0  0
   -3.5730   20.7480  -30.5070 C   0  0  0  0  0  0  0  0  0  0  0  0
   -4.7160   20.6450  -31.2840 C   0  0  0  0  0  0  0  0  0  0  0  0
   -5.3820   21.7990  -31.6810 C   0  0  0  0  0  0  0  0  0  0  0  0
   -4.9340   23.0440  -31.3210 N   0  0  0  0  0  0  0  0  0  0  0  0
   -5.7190   24.1940  -31.7980 C   0  0  0  0  0  0  0  0  0  0  0  0
   -3.7910   23.1780  -30.5420 C   0  0  0  0  0  0  0  0  0  0  0  0
   -3.2650   24.4400  -30.1270 C   0  0  0  0  0  0  0  0  0  0  0  0
   -3.8650   25.6440  -30.4760 O   0  0  0  0  0  0  0  0  0  0  0  0
   -1.6415   25.7747  -26.8924 H   0  0  0  0  0  0  0  0  0  0  0  0
   -0.0429   25.5041  -27.6655 H   0  0  0  0  0  0  0  0  0  0  0  0
   -0.7743   27.1447  -27.6655 H   0  0  0  0  0  0  0  0  0  0  0  0
   -0.5424   23.3885  -28.3335 H   0  0  0  0  0  0  0  0  0  0  0  0
   -1.4229   21.1761  -29.0324 H   0  0  0  0  0  0  0  0  0  0  0  0
   -3.0394   19.8399  -30.1897 H   0  0  0  0  0  0  0  0  0  0  0  0
   -5.0938   19.6566  -31.5846 H   0  0  0  0  0  0  0  0  0  0  0  0
   -6.2886   21.7114  -32.2977 H   0  0  0  0  0  0  0  0  0  0  0  0
   -6.1041   24.7581  -30.9357 H   0  0  0  0  0  0  0  0  0  0  0  0
   -5.0780   24.8481  -32.4074 H   0  0  0  0  0  0  0  0  0  0  0  0
   -6.5616   23.8353  -32.4074 H   0  0  0  0  0  0  0  0  0  0  0  0
  1  2  1  0
  2  3  1  0
  3  4  2  0
  4  5  1  0
  5  6  2  0
  6  7  1  0
  7  8  2  0
  8  9  1  0
  9 10  2  0
 10 11  1  0
 10 12  1  0
 12 13  2  0
 13 14  1  0
 13  3  1  0
 12  6  1  0
  1 15  1  0
  1 16  1  0
  1 17  1  0
  4 18  1  0
  5 19  1  0
  7 20  1  0
  8 21  1  0
  9 22  1  0
 11 23  1  0
 11 24  1  0
 11 25  1  0
M  CHG  2  10   1  14  -1
M  END
>  <UniqueID>  (16) 
15

>  <SMILES>  (16) 
COc1ccc2ccc[n+](C)c2c1[O-]

>  <Energy>  (16) 
36.72745904886072

>  <Genealogy>  (16) 
COc1ccc2ccc[n+](C)c2c1[O-] (protonated)
COc1ccc2ccc[n+](C)c2c1[O-] (3D coordinates assigned)
COc1ccc2ccc[n+](C)c2c1[O-] (optimized conformer: 36.72745904886072 kcal/mol)

>  <smiles>  (16) 
COc1ccc2ccc[n+](C)c2c1O

>  <score_type>  (16) 
oracle

>  <origin>  (16) 
adg

>  <m_score__min__energy>  (16) 
-7.8700000000000001

>  <m_primary>  (16) 
energy

$$$$
16:0
     RDKit          3D

 38 42  0  0  0  0  0  0  0  0999 V2000
   -0.1330   20.3700  -33.7120 C   0  0  0  0  0  0  0  0  0  0  0  0
   -1.3440   20.3930  -34.4080 C   0  0  0  0  0  0  0  0  0  0  0  0
   -2.5090   20.8380  -33.7750 C   0  0  0  0  0  0  0  0  0  0  0  0
   -2.4690   21.2700  -32.4360 C   0  0  0  0  0  0  0  0  0  0  0  0
   -3.7050   21.7390  -31.7630 C   0  0  0  0  0  0  0  0  0  0  0  0
   -4.9700   21.2560  -32.1500 C   0  0  0  0  0  0  0  0  0  0  0  0
   -6.1280   21.7230  -31.4800 C   0  0  0  0  0  0  0  0  0  0  0  0
   -7.4800   21.2470  -31.8410 C   0  0  0  0  0  0  0  0  0  0  0  0
   -8.7020   21.8610  -31.5630 C   0  0  0  0  0  0  0  0  0  0  0  0
   -9.8050   21.1460  -32.0440 C   0  0  0  0  0  0  0  0  0  0  0  0
   -9.4700   19.9710  -32.7000 C   0  0  0  0  0  0  0  0  0  0  0  0
   -7.7970   19.8220  -32.6810 S   0  0  0  0  0  0  0  0  0  0  0  0
   -6.0010   22.6370  -30.4740 N   0  0  0  0  0  0  0  0  0  0  0  0
   -4.7690   23.0800  -30.1300 C   0  0  0  0  0  0  0  0  0  0  0  0
   -4.4440   24.0110  -29.1740 C   0  0  0  0  0  0  0  0  0  0  0  0
   -3.0580   24.0950  -29.2890 C   0  0  0  0  0  0  0  0  0  0  0  0
   -2.1910   24.9660  -28.4870 C   0  0  0  0  0  0  0  0  0  0  0  0
   -1.9220   24.8200  -27.1400 C   0  0  0  0  0  0  0  0  0  0  0  0
   -1.0680   25.8540  -26.8210 C   0  0  0  0  0  0  0  0  0  0  0  0
   -0.8710   26.5630  -27.9880 C   0  0  0  0  0  0  0  0  0  0  0  0
   -1.5530   26.0090  -28.9640 O   0  0  0  0  0  0  0  0  0  0  0  0
   -2.6040   23.2640  -30.2570 N   0  0  0  0  0  0  0  0  0  0  0  0
   -3.6660   22.6480  -30.7510 N   0  0  0  0  0  0  0  0  0  0  0  0
   -1.2460   21.2370  -31.7430 C   0  0  0  0  0  0  0  0  0  0  0  0
   -0.0840   20.7900  -32.3810 C   0  0  0  0  0  0  0  0  0  0  0  0
    0.7823   20.0210  -34.2125 H   0  0  0  0  0  0  0  0  0  0  0  0
   -1.3813   20.0605  -35.4559 H   0  0  0  0  0  0  0  0  0  0  0  0
   -3.4609   20.8504  -34.3261 H   0  0  0  0  0  0  0  0  0  0  0  0
   -5.0584   20.5227  -32.9652 H   0  0  0  0  0  0  0  0  0  0  0  0
   -8.7898   22.8132  -31.0193 H   0  0  0  0  0  0  0  0  0  0  0  0
  -10.8432   21.4853  -31.9135 H   0  0  0  0  0  0  0  0  0  0  0  0
  -10.1766   19.2605  -33.1537 H   0  0  0  0  0  0  0  0  0  0  0  0
   -5.1112   24.5545  -28.4888 H   0  0  0  0  0  0  0  0  0  0  0  0
   -2.3079   24.0425  -26.4643 H   0  0  0  0  0  0  0  0  0  0  0  0
   -0.6315   26.0702  -25.8347 H   0  0  0  0  0  0  0  0  0  0  0  0
   -0.2382   27.4574  -28.0861 H   0  0  0  0  0  0  0  0  0  0  0  0
   -1.2027   21.5644  -30.6937 H   0  0  0  0  0  0  0  0  0  0  0  0
    0.8698   20.7693  -31.8334 H   0  0  0  0  0  0  0  0  0  0  0  0
  1  2  2  0
  2  3  1  0
  3  4  2  0
  4  5  1  0
  5  6  2  0
  6  7  1  0
  7  8  1  0
  8  9  2  0
  9 10  1  0
 10 11  2  0
 11 12  1  0
  7 13  2  0
 13 14  1  0
 14 15  2  0
 15 16  1  0
 16 17  1  0
 17 18  2  0
 18 19  1  0
 19 20  2  0
 20 21  1  0
 16 22  2  0
 22 23  1  0
  4 24  1  0
 24 25  2  0
 25  1  1  0
 23  5  1  0
 12  8  1  0
 23 14  1  0
 21 17  1  0
  1 26  1  0
  2 27  1  0
  3 28  1  0
  6 29  1  0
  9 30  1  0
 10 31  1  0
 11 32  1  0
 15 33  1  0
 18 34  1  0
 19 35  1  0
 20 36  1  0
 24 37  1  0
 25 38  1  0
M  END
>  <UniqueID>  (17) 
16

>  <SMILES>  (17) 
c1ccc(-c2cc(-c3cccs3)nc3cc(-c4ccco4)nn23)cc1

>  <Energy>  (17) 
138.64999584161458

>  <Genealogy>  (17) 
c1ccc(-c2cc(-c3cccs3)nc3cc(-c4ccco4)nn23)cc1 (3D coordinates assigned)
c1ccc(-c2cc(-c3cccs3)nc3cc(-c4ccco4)nn23)cc1 (optimized conformer: 138.64999584161458 kcal/mol)

>  <smiles>  (17) 
c1ccc(-c2cc(-c3cccs3)nc3cc(-c4ccco4)nn23)cc1

>  <score_type>  (17) 
oracle

>  <origin>  (17) 
adg

>  <m_score__min__energy>  (17) 
-8.75

>  <m_primary>  (17) 
energy

$$$$
17:0
     RDKit          3D

 37 38  0  0  0  0  0  0  0  0999 V2000
   -8.2690   22.2120  -30.8940 C   0  0  0  0  0  0  0  0  0  0  0  0
   -7.0410   22.3200  -31.6050 O   0  0  0  0  0  0  0  0  0  0  0  0
   -5.8300   22.7630  -31.0460 C   0  0  0  0  0  0  0  0  0  0  0  0
   -5.7690   23.3260  -29.7590 C   0  0  0  0  0  0  0  0  0  0  0  0
   -4.5500   23.7580  -29.2120 C   0  0  0  0  0  0  0  0  0  0  0  0
   -4.5530   24.3850  -27.8430 C   0  0  0  0  0  0  0  0  0  0  0  0
   -3.3560   23.5920  -29.9560 C   0  0  0  0  0  0  0  0  0  0  0  0
   -2.0680   23.9610  -29.4260 N   0  0  0  0  0  0  0  0  0  0  0  0
   -1.1900   23.0970  -29.2230 O   0  0  0  0  0  0  0  0  0  0  0  0
   -1.7270   25.2880  -29.3110 O   0  0  0  0  0  0  0  0  0  0  0  0
   -3.4260   23.0530  -31.2480 C   0  0  0  0  0  0  0  0  0  0  0  0
   -4.6490   22.6370  -31.8020 C   0  0  0  0  0  0  0  0  0  0  0  0
   -4.6710   22.0250  -33.1130 N   0  0  0  0  0  0  0  0  0  0  0  0
   -3.9760   20.7270  -33.1170 C   0  0  0  0  0  0  0  0  0  0  0  0
   -4.9440   19.5720  -33.2180 C   0  0  0  0  0  0  0  0  0  0  0  0
   -4.6770   18.4930  -34.0790 C   0  0  0  0  0  0  0  0  0  0  0  0
   -5.6000   17.4530  -34.2110 C   0  0  0  0  0  0  0  0  0  0  0  0
   -6.7970   17.4820  -33.4900 C   0  0  0  0  0  0  0  0  0  0  0  0
   -7.0740   18.5540  -32.6360 C   0  0  0  0  0  0  0  0  0  0  0  0
   -8.7150   18.5980  -31.6600 Br  0  0  0  0  0  0  0  0  0  0  0  0
   -6.1520   19.5980  -32.5010 C   0  0  0  0  0  0  0  0  0  0  0  0
   -8.0692   22.2296  -29.8124 H   0  0  0  0  0  0  0  0  0  0  0  0
   -8.9222   23.0562  -31.1600 H   0  0  0  0  0  0  0  0  0  0  0  0
   -8.7648   21.2668  -31.1600 H   0  0  0  0  0  0  0  0  0  0  0  0
   -6.6924   23.4299  -29.1703 H   0  0  0  0  0  0  0  0  0  0  0  0
   -4.5492   23.5948  -27.0778 H   0  0  0  0  0  0  0  0  0  0  0  0
   -3.6579   25.0134  -27.7256 H   0  0  0  0  0  0  0  0  0  0  0  0
   -5.4541   25.0048  -27.7256 H   0  0  0  0  0  0  0  0  0  0  0  0
   -2.5047   22.9535  -31.8407 H   0  0  0  0  0  0  0  0  0  0  0  0
   -5.6640   21.8780  -33.4130 H   0  0  0  0  0  0  0  0  0  0  0  0
   -4.2360   22.6610  -33.8230 H   0  0  0  0  0  0  0  0  0  0  0  0
   -3.2904   20.6930  -33.9765 H   0  0  0  0  0  0  0  0  0  0  0  0
   -3.4269   20.6306  -32.1688 H   0  0  0  0  0  0  0  0  0  0  0  0
   -3.7377   18.4678  -34.6508 H   0  0  0  0  0  0  0  0  0  0  0  0
   -5.3845   16.6097  -34.8836 H   0  0  0  0  0  0  0  0  0  0  0  0
   -7.5216   16.6610  -33.5944 H   0  0  0  0  0  0  0  0  0  0  0  0
   -6.3738   20.4419  -31.8312 H   0  0  0  0  0  0  0  0  0  0  0  0
  1  2  1  0
  2  3  1  0
  3  4  2  0
  4  5  1  0
  5  6  1  0
  5  7  2  0
  7  8  1  0
  8  9  2  0
  8 10  1  0
  7 11  1  0
 11 12  2  0
 12 13  1  0
 13 14  1  0
 14 15  1  0
 15 16  2  0
 16 17  1  0
 17 18  2  0
 18 19  1  0
 19 20  1  0
 19 21  2  0
 12  3  1  0
 21 15  1  0
  1 22  1  0
  1 23  1  0
  1 24  1  0
  4 25  1  0
  6 26  1  0
  6 27  1  0
  6 28  1  0
 11 29  1  0
 13 30  1  0
 13 31  1  0
 14 32  1  0
 14 33  1  0
 16 34  1  0
 17 35  1  0
 18 36  1  0
 21 37  1  0
M  CHG  3   8   1  10  -1  13   1
M  END
>  <UniqueID>  (18) 
17

>  <SMILES>  (18) 
COc1cc(C)c([N+](=O)[O-])cc1[NH2+]Cc1cccc(Br)c1

>  <Energy>  (18) 
41.29661791597611

>  <Genealogy>  (18) 
COc1cc(C)c([N+](=O)[O-])cc1[NH2+]Cc1cccc(Br)c1 (protonated)
COc1cc(C)c([N+](=O)[O-])cc1[NH2+]Cc1cccc(Br)c1 (3D coordinates assigned)
COc1cc(C)c([N+](=O)[O-])cc1[NH2+]Cc1cccc(Br)c1 (optimized conformer: 41.29661791597611 kcal/mol)

>  <smiles>  (18) 
COc1cc(C)c([N+](=O)[O-])cc1NCc1cccc(Br)c1

>  <score_type>  (18) 
oracle

>  <origin>  (18) 
adg

>  <m_score__min__energy>  (18) 
-7.1100000000000003

>  <m_primary>  (18) 
energy

$$$$
18:0
     RDKit          3D

 44 46  0  0  0  0  0  0  0  0999 V2000
    0.2920   27.0150  -24.9590 F   0  0  0  0  0  0  0  0  0  0  0  0
   -1.0860   27.0080  -25.0690 C   0  0  0  0  0  0  0  0  0  0  0  0
   -1.6280   26.4940  -23.9040 F   0  0  0  0  0  0  0  0  0  0  0  0
   -1.5330   28.3090  -25.2170 F   0  0  0  0  0  0  0  0  0  0  0  0
   -1.4850   26.1640  -26.2530 C   0  0  0  0  0  0  0  0  0  0  0  0
   -0.8040   26.2930  -27.4760 C   0  0  0  0  0  0  0  0  0  0  0  0
   -1.2010   25.5480  -28.5900 C   0  0  0  0  0  0  0  0  0  0  0  0
   -2.2900   24.6680  -28.5030 C   0  0  0  0  0  0  0  0  0  0  0  0
   -2.7450   23.8960  -29.7100 C   0  0  0  0  0  0  0  0  0  0  0  0
   -3.8280   24.6270  -30.3820 N   0  0  0  0  0  0  0  0  0  0  0  0
   -5.0080   23.7750  -30.5840 C   0  0  0  0  0  0  0  0  0  0  0  0
   -6.0350   24.4880  -31.4660 C   0  0  0  0  0  0  0  0  0  0  0  0
   -6.4550   23.6130  -32.5600 N   0  0  0  0  0  0  0  0  0  0  0  0
   -7.3170   22.4960  -32.3050 C   0  0  0  0  0  0  0  0  0  0  0  0
   -8.5830   22.7340  -31.7510 C   0  0  0  0  0  0  0  0  0  0  0  0
   -9.4700   21.6810  -31.5260 C   0  0  0  0  0  0  0  0  0  0  0  0
   -9.1020   20.3720  -31.8370 C   0  0  0  0  0  0  0  0  0  0  0  0
   -7.8320   20.1020  -32.3650 C   0  0  0  0  0  0  0  0  0  0  0  0
   -7.4540   18.7830  -32.6550 C   0  0  0  0  0  0  0  0  0  0  0  0
   -6.1790   18.5100  -33.1560 C   0  0  0  0  0  0  0  0  0  0  0  0
   -5.2710   19.5480  -33.3640 C   0  0  0  0  0  0  0  0  0  0  0  0
   -5.6330   20.8680  -33.0830 C   0  0  0  0  0  0  0  0  0  0  0  0
   -6.9210   21.1680  -32.5970 C   0  0  0  0  0  0  0  0  0  0  0  0
   -2.9980   24.5680  -27.2970 C   0  0  0  0  0  0  0  0  0  0  0  0
   -2.6010   25.3110  -26.1810 C   0  0  0  0  0  0  0  0  0  0  0  0
    0.0472   26.9850  -27.5568 H   0  0  0  0  0  0  0  0  0  0  0  0
   -0.6565   25.6523  -29.5401 H   0  0  0  0  0  0  0  0  0  0  0  0
   -1.9012   23.7714  -30.4046 H   0  0  0  0  0  0  0  0  0  0  0  0
   -3.1112   22.9077  -29.3953 H   0  0  0  0  0  0  0  0  0  0  0  0
   -3.4750   24.9150  -31.3250 H   0  0  0  0  0  0  0  0  0  0  0  0
   -4.6997   22.8382  -31.0712 H   0  0  0  0  0  0  0  0  0  0  0  0
   -5.4647   23.5598  -29.6067 H   0  0  0  0  0  0  0  0  0  0  0  0
   -6.9118   24.7566  -30.8584 H   0  0  0  0  0  0  0  0  0  0  0  0
   -5.5780   25.3955  -31.8873 H   0  0  0  0  0  0  0  0  0  0  0  0
   -5.8070   23.5370  -33.3770 H   0  0  0  0  0  0  0  0  0  0  0  0
   -8.8796   23.7609  -31.4913 H   0  0  0  0  0  0  0  0  0  0  0  0
  -10.4642   21.8840  -31.1014 H   0  0  0  0  0  0  0  0  0  0  0  0
   -9.8112   19.5485  -31.6672 H   0  0  0  0  0  0  0  0  0  0  0  0
   -8.1644   17.9601  -32.4873 H   0  0  0  0  0  0  0  0  0  0  0  0
   -5.8904   17.4740  -33.3870 H   0  0  0  0  0  0  0  0  0  0  0  0
   -4.2654   19.3265  -33.7510 H   0  0  0  0  0  0  0  0  0  0  0  0
   -4.9071   21.6789  -33.2424 H   0  0  0  0  0  0  0  0  0  0  0  0
   -3.8704   23.9015  -27.2284 H   0  0  0  0  0  0  0  0  0  0  0  0
   -3.1653   25.2278  -25.2404 H   0  0  0  0  0  0  0  0  0  0  0  0
  1  2  1  0
  2  3  1  0
  2  4  1  0
  2  5  1  0
  5  6  2  0
  6  7  1  0
  7  8  2  0
  8  9  1  0
  9 10  1  0
 10 11  1  0
 11 12  1  0
 12 13  1  0
 13 14  1  0
 14 15  2  0
 15 16  1  0
 16 17  2  0
 17 18  1  0
 18 19  2  0
 19 20  1  0
 20 21  2  0
 21 22  1  0
 22 23  2  0
  8 24  1  0
 24 25  2  0
 25  5  1  0
 23 14  1  0
 23 18  1  0
  6 26  1  0
  7 27  1  0
  9 28  1  0
  9 29  1  0
 10 30  1  0
 11 31  1  0
 11 32  1  0
 12 33  1  0
 12 34  1  0
 13 35  1  0
 15 36  1  0
 16 37  1  0
 17 38  1  0
 19 39  1  0
 20 40  1  0
 21 41  1  0
 22 42  1  0
 24 43  1  0
 25 44  1  0
M  END
>  <UniqueID>  (19) 
18

>  <SMILES>  (19) 
FC(F)(F)c1ccc(CNCCNc2cccc3ccccc23)cc1

>  <Energy>  (19) 
52.47213994267185

>  <Genealogy>  (19) 
FC(F)(F)c1ccc(CNCCNc2cccc3ccccc23)cc1 (3D coordinates assigned)
FC(F)(F)c1ccc(CNCCNc2cccc3ccccc23)cc1 (optimized conformer: 52.47213994267185 kcal/mol)

>  <smiles>  (19) 
FC(F)(F)c1ccc(CNCCNc2cccc3ccccc23)cc1

>  <score_type>  (19) 
oracle

>  <origin>  (19) 
adg

>  <m_score__min__energy>  (19) 
-9.1199999999999992

>  <m_primary>  (19) 
energy

$$$$
19:0
     RDKit          3D

 52 55  0  0  0  0  0  0  0  0999 V2000
   -8.8790   21.1630  -31.9530 C   0  0  0  0  0  0  0  0  0  0  0  0
   -7.9930   19.9990  -32.1070 N   0  0  0  0  0  0  0  0  0  0  0  0
   -8.7800   18.7610  -31.9440 C   0  0  0  0  0  0  0  0  0  0  0  0
   -7.3280   20.0410  -33.4290 C   0  0  0  0  0  0  0  0  0  0  0  0
   -5.8070   19.8680  -33.3070 C   0  0  0  0  0  0  0  0  0  0  0  0
   -5.2910   20.2770  -31.9180 C   0  0  0  0  0  0  0  0  0  0  0  0
   -4.2950   21.3560  -32.0130 N   0  0  0  0  0  0  0  0  0  0  0  0
   -4.6340   22.6790  -31.5510 C   0  0  0  0  0  0  0  0  0  0  0  0
   -5.3580   23.4190  -32.2720 O   0  0  0  0  0  0  0  0  0  0  0  0
   -4.1430   23.1970  -30.2560 C   0  0  0  0  0  0  0  0  0  0  0  0
   -4.6050   22.6360  -29.0490 C   0  0  0  0  0  0  0  0  0  0  0  0
   -4.1380   23.1170  -27.8200 C   0  0  0  0  0  0  0  0  0  0  0  0
   -3.1980   24.1500  -27.7880 C   0  0  0  0  0  0  0  0  0  0  0  0
   -2.7010   24.6840  -28.9850 C   0  0  0  0  0  0  0  0  0  0  0  0
   -3.1810   24.2230  -30.2140 C   0  0  0  0  0  0  0  0  0  0  0  0
   -1.7150   25.6740  -28.9300 O   0  0  0  0  0  0  0  0  0  0  0  0
   -1.0080   25.9390  -27.7150 C   0  0  0  0  0  0  0  0  0  0  0  0
   -1.9650   25.8630  -26.5180 C   0  0  0  0  0  0  0  0  0  0  0  0
   -2.7320   24.6570  -26.5710 O   0  0  0  0  0  0  0  0  0  0  0  0
   -2.9110   21.0500  -32.2720 C   0  0  0  0  0  0  0  0  0  0  0  0
   -2.2930   21.2780  -33.4600 N   0  0  0  0  0  0  0  0  0  0  0  0
   -0.9880   20.9010  -33.4220 C   0  0  0  0  0  0  0  0  0  0  0  0
   -0.0930   21.0020  -34.4930 C   0  0  0  0  0  0  0  0  0  0  0  0
   -0.4890   21.5130  -35.6840 F   0  0  0  0  0  0  0  0  0  0  0  0
    1.2320   20.5670  -34.3110 C   0  0  0  0  0  0  0  0  0  0  0  0
    1.6460   20.0410  -33.0720 C   0  0  0  0  0  0  0  0  0  0  0  0
    2.9280   19.6280  -32.9110 F   0  0  0  0  0  0  0  0  0  0  0  0
    0.7400   19.9430  -32.0040 C   0  0  0  0  0  0  0  0  0  0  0  0
   -0.5680   20.3770  -32.2080 C   0  0  0  0  0  0  0  0  0  0  0  0
   -1.8570   20.3700  -31.1280 S   0  0  0  0  0  0  0  0  0  0  0  0
   -9.0341   21.3668  -30.8832 H   0  0  0  0  0  0  0  0  0  0  0  0
   -8.4181   22.0403  -32.4303 H   0  0  0  0  0  0  0  0  0  0  0  0
   -9.8474   20.9524  -32.4303 H   0  0  0  0  0  0  0  0  0  0  0  0
   -8.9141   18.5501  -30.8728 H   0  0  0  0  0  0  0  0  0  0  0  0
   -9.7642   18.8870  -32.4189 H   0  0  0  0  0  0  0  0  0  0  0  0
   -8.2483   17.9233  -32.4189 H   0  0  0  0  0  0  0  0  0  0  0  0
   -7.7295   19.2310  -34.0556 H   0  0  0  0  0  0  0  0  0  0  0  0
   -7.5255   21.0244  -33.8805 H   0  0  0  0  0  0  0  0  0  0  0  0
   -5.5543   18.8120  -33.4830 H   0  0  0  0  0  0  0  0  0  0  0  0
   -5.3297   20.5207  -34.0528 H   0  0  0  0  0  0  0  0  0  0  0  0
   -6.1386   20.6246  -31.3091 H   0  0  0  0  0  0  0  0  0  0  0  0
   -4.8114   19.4021  -31.4548 H   0  0  0  0  0  0  0  0  0  0  0  0
   -5.3370   21.8152  -29.0724 H   0  0  0  0  0  0  0  0  0  0  0  0
   -4.5107   22.6822  -26.8808 H   0  0  0  0  0  0  0  0  0  0  0  0
   -2.8061   24.6629  -31.1499 H   0  0  0  0  0  0  0  0  0  0  0  0
   -0.2091   25.1934  -27.5894 H   0  0  0  0  0  0  0  0  0  0  0  0
   -0.5747   26.9488  -27.7647 H   0  0  0  0  0  0  0  0  0  0  0  0
   -1.3818   25.8814  -25.5855 H   0  0  0  0  0  0  0  0  0  0  0  0
   -2.6491   26.7237  -26.5519 H   0  0  0  0  0  0  0  0  0  0  0  0
   -2.7580   21.6760  -34.3050 H   0  0  0  0  0  0  0  0  0  0  0  0
    1.9495   20.6381  -35.1417 H   0  0  0  0  0  0  0  0  0  0  0  0
    1.0545   19.5345  -31.0323 H   0  0  0  0  0  0  0  0  0  0  0  0
  1  2  1  0
  2  3  1  0
  2  4  1  0
  4  5  1  0
  5  6  1  0
  6  7  1  0
  7  8  1  0
  8  9  2  0
  8 10  1  0
 10 11  2  0
 11 12  1  0
 12 13  2  0
 13 14  1  0
 14 15  2  0
 14 16  1  0
 16 17  1  0
 17 18  1  0
 18 19  1  0
  7 20  1  0
 20 21  2  0
 21 22  1  0
 22 23  2  0
 23 24  1  0
 23 25  1  0
 25 26  2  0
 26 27  1  0
 26 28  1  0
 28 29  2  0
 29 30  1  0
 15 10  1  0
 30 20  1  0
 19 13  1  0
 29 22  1  0
  1 31  1  0
  1 32  1  0
  1 33  1  0
  3 34  1  0
  3 35  1  0
  3 36  1  0
  4 37  1  0
  4 38  1  0
  5 39  1  0
  5 40  1  0
  6 41  1  0
  6 42  1  0
 11 43  1  0
 12 44  1  0
 15 45  1  0
 17 46  1  0
 17 47  1  0
 18 48  1  0
 18 49  1  0
 21 50  1  0
 25 51  1  0
 28 52  1  0
M  CHG  1  21   1
M  END
>  <UniqueID>  (20) 
19

>  <SMILES>  (20) 
CN(C)CCCN(C(=O)c1ccc2c(c1)OCCO2)c1[nH+]c2c(F)cc(F)cc2s1

>  <Energy>  (20) 
95.70109638870477

>  <Genealogy>  (20) 
CN(C)CCCN(C(=O)c1ccc2c(c1)OCCO2)c1[nH+]c2c(F)cc(F)cc2s1 (protonated)
CN(C)CCCN(C(=O)c1ccc2c(c1)OCCO2)c1[nH+]c2c(F)cc(F)cc2s1 (3D coordinates assigned)
CN(C)CCCN(C(=O)c1ccc2c(c1)OCCO2)c1[nH+]c2c(F)cc(F)cc2s1 (nonaromatic ring conformer: 95.70109638870477 kcal/mol)

>  <smiles>  (20) 
CN(C)CCCN(C(=O)c1ccc2c(c1)OCCO2)c1nc2c(F)cc(F)cc2s1

>  <score_type>  (20) 
oracle

>  <origin>  (20) 
adg

>  <m_score__min__energy>  (20) 
-7.6699999999999999

>  <m_primary>  (20) 
energy

$$$$
20:0
     RDKit          3D

 33 34  0  0  0  0  0  0  0  0999 V2000
   -2.7530   23.3250  -30.0820 C   0  0  0  0  0  0  0  0  0  0  0  0
   -4.2010   23.6550  -30.2920 C   0  0  0  0  0  0  0  0  0  0  0  0
   -4.6610   24.9650  -30.0990 C   0  0  0  0  0  0  0  0  0  0  0  0
   -6.0030   25.2790  -30.3300 C   0  0  0  0  0  0  0  0  0  0  0  0
   -6.8900   24.2930  -30.7680 C   0  0  0  0  0  0  0  0  0  0  0  0
   -6.4440   22.9770  -30.9850 C   0  0  0  0  0  0  0  0  0  0  0  0
   -7.3900   21.9410  -31.4590 C   0  0  0  0  0  0  0  0  0  0  0  0
   -7.0100   20.6970  -31.8270 N   0  0  0  0  0  0  0  0  0  0  0  0
   -8.0620   19.9310  -32.2270 C   0  0  0  0  0  0  0  0  0  0  0  0
   -7.8750   18.5210  -32.7130 C   0  0  0  0  0  0  0  0  0  0  0  0
   -6.4430   18.1570  -32.8060 N   0  0  0  0  0  0  0  0  0  0  0  0
   -6.1140   17.7650  -34.1880 C   0  0  0  0  0  0  0  0  0  0  0  0
   -6.1060   17.0550  -31.8850 C   0  0  0  0  0  0  0  0  0  0  0  0
   -9.3020   20.5640  -32.1910 C   0  0  0  0  0  0  0  0  0  0  0  0
   -9.0570   22.1280  -31.6290 S   0  0  0  0  0  0  0  0  0  0  0  0
   -5.0900   22.6690  -30.7510 C   0  0  0  0  0  0  0  0  0  0  0  0
   -2.5406   23.2766  -29.0038 H   0  0  0  0  0  0  0  0  0  0  0  0
   -2.5278   22.3525  -30.5441 H   0  0  0  0  0  0  0  0  0  0  0  0
   -2.1287   24.1039  -30.5441 H   0  0  0  0  0  0  0  0  0  0  0  0
   -3.9640   25.7477  -29.7649 H   0  0  0  0  0  0  0  0  0  0  0  0
   -6.3619   26.3059  -30.1664 H   0  0  0  0  0  0  0  0  0  0  0  0
   -7.9454   24.5477  -30.9446 H   0  0  0  0  0  0  0  0  0  0  0  0
   -8.3723   17.8340  -32.0125 H   0  0  0  0  0  0  0  0  0  0  0  0
   -8.3132   18.4451  -33.7191 H   0  0  0  0  0  0  0  0  0  0  0  0
   -5.8540   18.9890  -32.5620 H   0  0  0  0  0  0  0  0  0  0  0  0
   -5.4069   16.9225  -34.1717 H   0  0  0  0  0  0  0  0  0  0  0  0
   -7.0327   17.4626  -34.7119 H   0  0  0  0  0  0  0  0  0  0  0  0
   -5.6568   18.6173  -34.7119 H   0  0  0  0  0  0  0  0  0  0  0  0
   -6.2116   17.4003  -30.8459 H   0  0  0  0  0  0  0  0  0  0  0  0
   -6.7864   16.2089  -32.0612 H   0  0  0  0  0  0  0  0  0  0  0  0
   -5.0687   16.7342  -32.0612 H   0  0  0  0  0  0  0  0  0  0  0  0
  -10.2667   20.1204  -32.4784 H   0  0  0  0  0  0  0  0  0  0  0  0
   -4.7251   21.6467  -30.9293 H   0  0  0  0  0  0  0  0  0  0  0  0
  1  2  1  0
  2  3  2  0
  3  4  1  0
  4  5  2  0
  5  6  1  0
  6  7  1  0
  7  8  2  0
  8  9  1  0
  9 10  1  0
 10 11  1  0
 11 12  1  0
 11 13  1  0
  9 14  2  0
 14 15  1  0
  6 16  2  0
 16  2  1  0
 15  7  1  0
  1 17  1  0
  1 18  1  0
  1 19  1  0
  3 20  1  0
  4 21  1  0
  5 22  1  0
 10 23  1  0
 10 24  1  0
 11 25  1  0
 12 26  1  0
 12 27  1  0
 12 28  1  0
 13 29  1  0
 13 30  1  0
 13 31  1  0
 14 32  1  0
 16 33  1  0
M  CHG  1  11   1
M  END
>  <UniqueID>  (21) 
20

>  <SMILES>  (21) 
Cc1cccc(-c2nc(C[NH+](C)C)cs2)c1

>  <Energy>  (21) 
61.82023612118619

>  <Genealogy>  (21) 
Cc1cccc(-c2nc(C[NH+](C)C)cs2)c1 (protonated)
Cc1cccc(-c2nc(C[NH+](C)C)cs2)c1 (3D coordinates assigned)
Cc1cccc(-c2nc(C[NH+](C)C)cs2)c1 (optimized conformer: 61.82023612118619 kcal/mol)

>  <smiles>  (21) 
Cc1cccc(-c2nc(CN(C)C)cs2)c1

>  <score_type>  (21) 
oracle

>  <origin>  (21) 
adg

>  <m_score__min__energy>  (21) 
-5.6399999999999997

>  <m_primary>  (21) 
energy

$$$$
21:0
     RDKit          3D

 31 33  0  0  0  0  0  0  0  0999 V2000
   -3.8350   16.8860  -33.5580 C   0  0  0  0  0  0  0  0  0  0  0  0
   -5.0010   17.7790  -33.2570 C   0  0  0  0  0  0  0  0  0  0  0  0
   -5.3650   18.7950  -34.1540 C   0  0  0  0  0  0  0  0  0  0  0  0
   -6.4270   19.6520  -33.8550 C   0  0  0  0  0  0  0  0  0  0  0  0
   -7.1240   19.5250  -32.6440 C   0  0  0  0  0  0  0  0  0  0  0  0
   -8.2560   20.4290  -32.3500 C   0  0  0  0  0  0  0  0  0  0  0  0
   -9.5430   20.0970  -32.5760 N   0  0  0  0  0  0  0  0  0  0  0  0
  -10.2390   21.1200  -32.1000 N   0  0  0  0  0  0  0  0  0  0  0  0
   -9.4380   22.0490  -31.6050 N   0  0  0  0  0  0  0  0  0  0  0  0
   -8.1900   21.6420  -31.7510 N   0  0  0  0  0  0  0  0  0  0  0  0
   -7.0450   22.4430  -31.4180 C   0  0  0  0  0  0  0  0  0  0  0  0
   -5.8130   22.2470  -32.0670 C   0  0  0  0  0  0  0  0  0  0  0  0
   -4.7120   23.0460  -31.7450 C   0  0  0  0  0  0  0  0  0  0  0  0
   -4.8350   24.0570  -30.7880 C   0  0  0  0  0  0  0  0  0  0  0  0
   -3.7670   24.8330  -30.4790 F   0  0  0  0  0  0  0  0  0  0  0  0
   -6.0630   24.2740  -30.1560 C   0  0  0  0  0  0  0  0  0  0  0  0
   -7.1650   23.4760  -30.4750 C   0  0  0  0  0  0  0  0  0  0  0  0
   -6.7630   18.5040  -31.7490 C   0  0  0  0  0  0  0  0  0  0  0  0
   -5.6990   17.6470  -32.0470 C   0  0  0  0  0  0  0  0  0  0  0  0
   -3.3845   16.5410  -32.6156 H   0  0  0  0  0  0  0  0  0  0  0  0
   -4.1786   16.0178  -34.1396 H   0  0  0  0  0  0  0  0  0  0  0  0
   -3.0864   17.4439  -34.1396 H   0  0  0  0  0  0  0  0  0  0  0  0
   -4.8116   18.9171  -35.0968 H   0  0  0  0  0  0  0  0  0  0  0  0
   -6.7187   20.4317  -34.5740 H   0  0  0  0  0  0  0  0  0  0  0  0
  -11.2810   21.1840  -32.1160 H   0  0  0  0  0  0  0  0  0  0  0  0
   -5.7152   21.4618  -32.8311 H   0  0  0  0  0  0  0  0  0  0  0  0
   -3.7470   22.8786  -32.2458 H   0  0  0  0  0  0  0  0  0  0  0  0
   -6.1619   25.0735  -29.4070 H   0  0  0  0  0  0  0  0  0  0  0  0
   -8.1324   23.6584  -29.9842 H   0  0  0  0  0  0  0  0  0  0  0  0
   -7.3202   18.3781  -30.8090 H   0  0  0  0  0  0  0  0  0  0  0  0
   -5.4079   16.8657  -31.3295 H   0  0  0  0  0  0  0  0  0  0  0  0
  1  2  1  0
  2  3  2  0
  3  4  1  0
  4  5  2  0
  5  6  1  0
  6  7  2  0
  7  8  1  0
  8  9  2  0
  9 10  1  0
 10 11  1  0
 11 12  2  0
 12 13  1  0
 13 14  2  0
 14 15  1  0
 14 16  1  0
 16 17  2  0
  5 18  1  0
 18 19  2  0
 19  2  1  0
 10  6  1  0
 17 11  1  0
  1 20  1  0
  1 21  1  0
  1 22  1  0
  3 23  1  0
  4 24  1  0
  8 25  1  0
 12 26  1  0
 13 27  1  0
 16 28  1  0
 17 29  1  0
 18 30  1  0
 19 31  1  0
M  CHG  1   8   1
M  END
>  <UniqueID>  (22) 
21

>  <SMILES>  (22) 
Cc1ccc(-c2n[nH+]nn2-c2ccc(F)cc2)cc1

>  <Energy>  (22) 
81.47338587562811

>  <Genealogy>  (22) 
Cc1ccc(-c2n[nH+]nn2-c2ccc(F)cc2)cc1 (protonated)
Cc1ccc(-c2n[nH+]nn2-c2ccc(F)cc2)cc1 (3D coordinates assigned)
Cc1ccc(-c2n[nH+]nn2-c2ccc(F)cc2)cc1 (optimized conformer: 81.47338587562811 kcal/mol)

>  <smiles>  (22) 
Cc1ccc(-c2nnnn2-c2ccc(F)cc2)cc1

>  <score_type>  (22) 
oracle

>  <origin>  (22) 
adg

>  <m_score__min__energy>  (22) 
-7.4699999999999998

>  <m_primary>  (22) 
energy

$$$$
22:0
     RDKit          3D

 34 36  0  0  0  0  0  0  0  0999 V2000
   -5.8712   16.0266  -34.4402 H   0  0  0  0  0  0  0  0  0  0  0  0
   -6.1200   17.0070  -34.0080 C   0  0  0  0  0  0  0  0  0  0  0  0
   -5.7260   18.1780  -34.6600 C   0  0  0  0  0  0  0  0  0  0  0  0
   -5.1621   18.1193  -35.6027 H   0  0  0  0  0  0  0  0  0  0  0  0
   -6.0480   19.4240  -34.1150 C   0  0  0  0  0  0  0  0  0  0  0  0
   -5.7295   20.3431  -34.6287 H   0  0  0  0  0  0  0  0  0  0  0  0
   -6.7760   19.5120  -32.9150 C   0  0  0  0  0  0  0  0  0  0  0  0
   -7.0840   20.8430  -32.3400 C   0  0  0  0  0  0  0  0  0  0  0  0
   -6.1230   21.8090  -32.3690 N   0  0  0  0  0  0  0  0  0  0  0  0
   -6.3180   23.0570  -31.8600 C   0  0  0  0  0  0  0  0  0  0  0  0
   -5.3700   23.9480  -31.8770 N   0  0  0  0  0  0  0  0  0  0  0  0
   -4.3960   24.1660  -30.8430 C   0  0  0  0  0  0  0  0  0  0  0  0
   -3.8760   25.3080  -30.7350 O   0  0  0  0  0  0  0  0  0  0  0  0
   -3.9190   23.0670  -29.9740 C   0  0  0  0  0  0  0  0  0  0  0  0
   -4.0940   23.1700  -28.5830 C   0  0  0  0  0  0  0  0  0  0  0  0
   -4.5594   24.0712  -28.1572 H   0  0  0  0  0  0  0  0  0  0  0  0
   -3.6820   22.1380  -27.7370 C   0  0  0  0  0  0  0  0  0  0  0  0
   -3.8279   22.2265  -26.6503 H   0  0  0  0  0  0  0  0  0  0  0  0
   -3.0850   20.9940  -28.2700 C   0  0  0  0  0  0  0  0  0  0  0  0
   -2.7633   20.1804  -27.6032 H   0  0  0  0  0  0  0  0  0  0  0  0
   -2.8960   20.8820  -29.6490 C   0  0  0  0  0  0  0  0  0  0  0  0
   -2.4178   19.9823  -30.0637 H   0  0  0  0  0  0  0  0  0  0  0  0
   -3.3110   21.9070  -30.5070 C   0  0  0  0  0  0  0  0  0  0  0  0
   -2.9640   21.7080  -32.3830 Br  0  0  0  0  0  0  0  0  0  0  0  0
   -7.5470   23.3730  -31.2700 C   0  0  0  0  0  0  0  0  0  0  0  0
   -7.7133   24.3690  -30.8338 H   0  0  0  0  0  0  0  0  0  0  0  0
   -8.5590   22.4140  -31.2400 C   0  0  0  0  0  0  0  0  0  0  0  0
   -9.5334   22.6587  -30.7920 H   0  0  0  0  0  0  0  0  0  0  0  0
   -8.3390   21.1440  -31.7770 C   0  0  0  0  0  0  0  0  0  0  0  0
   -9.3540   20.2440  -31.7870 F   0  0  0  0  0  0  0  0  0  0  0  0
   -7.1530   18.3250  -32.2590 C   0  0  0  0  0  0  0  0  0  0  0  0
   -7.7053   18.3771  -31.3091 H   0  0  0  0  0  0  0  0  0  0  0  0
   -6.8300   17.0810  -32.8070 C   0  0  0  0  0  0  0  0  0  0  0  0
   -7.1353   16.1582  -32.2919 H   0  0  0  0  0  0  0  0  0  0  0  0
  1  2  1  0
  2  3  2  0
  3  4  1  0
  3  5  1  0
  5  6  1  0
  5  7  2  0
  7  8  1  0
  8  9  1  0
  9 10  1  0
 10 11  2  0
 11 12  1  0
 12 13  2  0
 12 14  1  0
 14 15  2  0
 15 16  1  0
 15 17  1  0
 17 18  1  0
 17 19  2  0
 19 20  1  0
 19 21  1  0
 21 22  1  0
 21 23  2  0
 23 24  1  0
 10 25  1  0
 25 26  1  0
 25 27  2  0
 27 28  1  0
 27 29  1  0
 29 30  1  0
  7 31  1  0
 31 32  1  0
 31 33  2  0
 33 34  1  0
 33  2  1  0
 29  8  2  0
 23 14  1  0
M  CHG  1   9  -1
M  END
>  <UniqueID>  (23) 
22

>  <SMILES>  (23) 
O=C(/N=c1\ccc(F)c(-c2ccccc2)[n-]1)c1ccccc1Br

>  <Energy>  (23) 
51.03015816021633

>  <Genealogy>  (23) 
O=C(N=c1ccc(F)c(-c2ccccc2)[n-]1)c1ccccc1Br (protonated)
O=C(/N=c1\ccc(F)c(-c2ccccc2)[n-]1)c1ccccc1Br (cis-trans isomerization)
O=C(/N=c1\ccc(F)c(-c2ccccc2)[n-]1)c1ccccc1Br (3D coordinates assigned)
O=C(/N=c1\ccc(F)c(-c2ccccc2)[n-]1)c1ccccc1Br (optimized conformer: 51.03015816021633 kcal/mol)

>  <smiles>  (23) 
O=C(N=c1ccc(F)c(-c2ccccc2)[nH]1)c1ccccc1Br

>  <score_type>  (23) 
oracle

>  <origin>  (23) 
adg

>  <m_score__min__energy>  (23) 
-9.5

>  <m_primary>  (23) 
energy

$$$$
23:0
     RDKit          3D

 52 54  0  0  0  0  0  0  0  0999 V2000
   -3.4700   18.5530  -25.8920 C   0  0  0  0  0  0  0  0  0  0  0  0
   -2.5030   19.1770  -26.8540 C   0  0  0  0  0  0  0  0  0  0  0  0
   -1.2570   18.5880  -27.1010 C   0  0  0  0  0  0  0  0  0  0  0  0
   -0.3590   19.2010  -27.9730 C   0  0  0  0  0  0  0  0  0  0  0  0
   -0.7030   20.4130  -28.5740 C   0  0  0  0  0  0  0  0  0  0  0  0
   -1.9070   21.0030  -28.3050 N   0  0  0  0  0  0  0  0  0  0  0  0
   -2.2590   22.2790  -28.9380 C   0  0  0  0  0  0  0  0  0  0  0  0
   -3.1690   23.0990  -28.0130 C   0  0  0  0  0  0  0  0  0  0  0  0
   -4.5580   23.3730  -28.6220 C   0  0  0  0  0  0  0  0  0  0  0  0
   -4.4980   23.7100  -30.1280 C   0  0  0  0  0  0  0  0  0  0  0  0
   -5.8920   23.7150  -30.7800 C   0  0  0  0  0  0  0  0  0  0  0  0
   -5.8730   23.3060  -32.2670 C   0  0  0  0  0  0  0  0  0  0  0  0
   -5.8900   21.8250  -32.4260 N   0  0  0  0  0  0  0  0  0  0  0  0
   -4.7000   21.1790  -32.7310 C   0  0  0  0  0  0  0  0  0  0  0  0
   -3.3580   21.8830  -32.6960 C   0  0  0  0  0  0  0  0  0  0  0  0
   -4.6900   19.8120  -33.0370 C   0  0  0  0  0  0  0  0  0  0  0  0
   -5.8650   19.0850  -33.0270 C   0  0  0  0  0  0  0  0  0  0  0  0
   -7.0590   19.7010  -32.6740 C   0  0  0  0  0  0  0  0  0  0  0  0
   -8.2390   18.9420  -32.6420 C   0  0  0  0  0  0  0  0  0  0  0  0
   -9.4450   19.5340  -32.2840 C   0  0  0  0  0  0  0  0  0  0  0  0
   -9.4830   20.8810  -31.9420 C   0  0  0  0  0  0  0  0  0  0  0  0
   -8.3170   21.6520  -31.9670 C   0  0  0  0  0  0  0  0  0  0  0  0
   -7.0710   21.0880  -32.3550 C   0  0  0  0  0  0  0  0  0  0  0  0
   -2.8060   20.3980  -27.4690 C   0  0  0  0  0  0  0  0  0  0  0  0
   -3.1475   18.7611  -24.8611 H   0  0  0  0  0  0  0  0  0  0  0  0
   -4.4728   18.9748  -26.0547 H   0  0  0  0  0  0  0  0  0  0  0  0
   -3.4988   17.4655  -26.0547 H   0  0  0  0  0  0  0  0  0  0  0  0
   -0.9872   17.6427  -26.6075 H   0  0  0  0  0  0  0  0  0  0  0  0
    0.6135   18.7332  -28.1860 H   0  0  0  0  0  0  0  0  0  0  0  0
   -0.0008   20.8969  -29.2688 H   0  0  0  0  0  0  0  0  0  0  0  0
   -1.3403   22.8488  -29.1416 H   0  0  0  0  0  0  0  0  0  0  0  0
   -2.7930   22.0769  -29.8782 H   0  0  0  0  0  0  0  0  0  0  0  0
   -3.3021   22.5455  -27.0718 H   0  0  0  0  0  0  0  0  0  0  0  0
   -2.6828   24.0725  -27.8521 H   0  0  0  0  0  0  0  0  0  0  0  0
   -5.1831   22.4780  -28.4872 H   0  0  0  0  0  0  0  0  0  0  0  0
   -4.9786   24.2478  -28.1045 H   0  0  0  0  0  0  0  0  0  0  0  0
   -4.0465   24.7056  -30.2502 H   0  0  0  0  0  0  0  0  0  0  0  0
   -3.8969   22.9334  -30.6235 H   0  0  0  0  0  0  0  0  0  0  0  0
   -6.5357   23.0107  -30.2326 H   0  0  0  0  0  0  0  0  0  0  0  0
   -6.2701   24.7468  -30.7313 H   0  0  0  0  0  0  0  0  0  0  0  0
   -6.7576   23.7292  -32.7655 H   0  0  0  0  0  0  0  0  0  0  0  0
   -4.9471   23.6911  -32.7191 H   0  0  0  0  0  0  0  0  0  0  0  0
   -3.0546   22.0422  -31.6507 H   0  0  0  0  0  0  0  0  0  0  0  0
   -2.6055   21.2635  -33.2059 H   0  0  0  0  0  0  0  0  0  0  0  0
   -3.4400   22.8542  -33.2059 H   0  0  0  0  0  0  0  0  0  0  0  0
   -3.7413   19.3145  -33.2867 H   0  0  0  0  0  0  0  0  0  0  0  0
   -5.8549   18.0191  -33.2984 H   0  0  0  0  0  0  0  0  0  0  0  0
   -8.2096   17.8734  -32.9014 H   0  0  0  0  0  0  0  0  0  0  0  0
  -10.3687   18.9368  -32.2714 H   0  0  0  0  0  0  0  0  0  0  0  0
  -10.4373   21.3435  -31.6496 H   0  0  0  0  0  0  0  0  0  0  0  0
   -8.3645   22.7133  -31.6816 H   0  0  0  0  0  0  0  0  0  0  0  0
   -3.7779   20.8765  -27.2780 H   0  0  0  0  0  0  0  0  0  0  0  0
  1  2  1  0
  2  3  2  0
  3  4  1  0
  4  5  2  0
  5  6  1  0
  6  7  1  0
  7  8  1  0
  8  9  1  0
  9 10  1  0
 10 11  1  0
 11 12  1  0
 12 13  1  0
 13 14  2  0
 14 15  1  0
 14 16  1  0
 16 17  2  0
 17 18  1  0
 18 19  2  0
 19 20  1  0
 20 21  2  0
 21 22  1  0
 22 23  2  0
  6 24  2  0
 24  2  1  0
 23 13  1  0
 23 18  1  0
  1 25  1  0
  1 26  1  0
  1 27  1  0
  3 28  1  0
  4 29  1  0
  5 30  1  0
  7 31  1  0
  7 32  1  0
  8 33  1  0
  8 34  1  0
  9 35  1  0
  9 36  1  0
 10 37  1  0
 10 38  1  0
 11 39  1  0
 11 40  1  0
 12 41  1  0
 12 42  1  0
 15 43  1  0
 15 44  1  0
 15 45  1  0
 16 46  1  0
 17 47  1  0
 19 48  1  0
 20 49  1  0
 21 50  1  0
 22 51  1  0
 24 52  1  0
M  CHG  2   6   1  13   1
M  END
>  <UniqueID>  (24) 
23

>  <SMILES>  (24) 
Cc1ccc[n+](CCCCCC[n+]2c(C)ccc3ccccc32)c1

>  <Energy>  (24) 
58.87377832646809

>  <Genealogy>  (24) 
Cc1ccc[n+](CCCCCC[n+]2c(C)ccc3ccccc32)c1 (3D coordinates assigned)
Cc1ccc[n+](CCCCCC[n+]2c(C)ccc3ccccc32)c1 (optimized conformer: 58.87377832646809 kcal/mol)

>  <smiles>  (24) 
Cc1ccc[n+](CCCCCC[n+]2c(C)ccc3ccccc32)c1

>  <score_type>  (24) 
oracle

>  <origin>  (24) 
adg

>  <m_score__min__energy>  (24) 
-7.3200000000000003

>  <m_primary>  (24) 
energy

$$$$
24:0
     RDKit          3D

 33 34  0  0  0  0  0  0  0  0999 V2000
   -6.4104   25.4256  -29.2554 H   0  0  0  0  0  0  0  0  0  0  0  0
   -6.0430   24.7560  -30.0470 C   0  0  0  0  0  0  0  0  0  0  0  0
   -4.5800   24.5510  -30.1420 C   0  0  0  0  0  0  0  0  0  0  0  0
   -3.8710   25.3400  -30.8220 O   0  0  0  0  0  0  0  0  0  0  0  0
   -3.9420   23.3900  -29.4960 C   0  0  0  0  0  0  0  0  0  0  0  0
   -2.8430   22.3320  -30.2120 S   0  0  0  0  0  0  0  0  0  0  0  0
   -2.6350   21.3380  -28.8720 C   0  0  0  0  0  0  0  0  0  0  0  0
   -1.9812   20.4550  -28.8194 H   0  0  0  0  0  0  0  0  0  0  0  0
   -3.4310   21.8240  -27.8430 C   0  0  0  0  0  0  0  0  0  0  0  0
   -3.4826   21.3544  -26.8496 H   0  0  0  0  0  0  0  0  0  0  0  0
   -4.1620   22.9680  -28.1880 C   0  0  0  0  0  0  0  0  0  0  0  0
   -4.8428   23.4822  -27.4937 H   0  0  0  0  0  0  0  0  0  0  0  0
   -6.9570   24.1890  -30.8510 C   0  0  0  0  0  0  0  0  0  0  0  0
   -7.8254   24.8002  -31.1380 H   0  0  0  0  0  0  0  0  0  0  0  0
   -6.8920   22.8110  -31.3820 C   0  0  0  0  0  0  0  0  0  0  0  0
   -7.9700   21.9440  -31.1690 C   0  0  0  0  0  0  0  0  0  0  0  0
   -8.8366   22.2838  -30.5829 H   0  0  0  0  0  0  0  0  0  0  0  0
   -7.9530   20.6490  -31.6960 C   0  0  0  0  0  0  0  0  0  0  0  0
   -8.7999   19.9735  -31.5048 H   0  0  0  0  0  0  0  0  0  0  0  0
   -6.8630   20.1980  -32.4700 C   0  0  0  0  0  0  0  0  0  0  0  0
   -6.8430   18.8530  -33.0170 N   0  0  0  0  0  0  0  0  0  0  0  0
   -7.6060   17.7750  -32.3750 C   0  0  0  0  0  0  0  0  0  0  0  0
   -7.5346   17.8759  -31.2820 H   0  0  0  0  0  0  0  0  0  0  0  0
   -8.6606   17.8397  -32.6811 H   0  0  0  0  0  0  0  0  0  0  0  0
   -7.1944   16.8019  -32.6811 H   0  0  0  0  0  0  0  0  0  0  0  0
   -6.0630   18.5480  -34.2240 C   0  0  0  0  0  0  0  0  0  0  0  0
   -5.0748   18.1616  -33.9340 H   0  0  0  0  0  0  0  0  0  0  0  0
   -6.5922   17.7906  -34.8209 H   0  0  0  0  0  0  0  0  0  0  0  0
   -5.9380   19.4635  -34.8209 H   0  0  0  0  0  0  0  0  0  0  0  0
   -5.7980   21.0910  -32.7060 C   0  0  0  0  0  0  0  0  0  0  0  0
   -4.9406   20.7654  -33.3133 H   0  0  0  0  0  0  0  0  0  0  0  0
   -5.8180   22.3850  -32.1780 C   0  0  0  0  0  0  0  0  0  0  0  0
   -4.9864   23.0738  -32.3879 H   0  0  0  0  0  0  0  0  0  0  0  0
  1  2  1  0
  2  3  1  0
  3  4  2  0
  3  5  1  0
  5  6  1  0
  6  7  1  0
  7  8  1  0
  7  9  2  0
  9 10  1  0
  9 11  1  0
 11 12  1  0
  2 13  2  0
 13 14  1  0
 13 15  1  0
 15 16  2  0
 16 17  1  0
 16 18  1  0
 18 19  1  0
 18 20  2  0
 20 21  1  0
 21 22  1  0
 22 23  1  0
 22 24  1  0
 22 25  1  0
 21 26  1  0
 26 27  1  0
 26 28  1  0
 26 29  1  0
 20 30  1  0
 30 31  1  0
 30 32  2  0
 32 33  1  0
 11  5  2  0
 32 15  1  0
M  END
>  <UniqueID>  (25) 
24

>  <SMILES>  (25) 
CN(C)c1ccc(/C=C\C(=O)c2cccs2)cc1

>  <Energy>  (25) 
68.04535074392436

>  <Genealogy>  (25) 
CN(C)c1ccc(/C=C\C(=O)c2cccs2)cc1 (cis-trans isomerization)
CN(C)c1ccc(/C=C\C(=O)c2cccs2)cc1 (3D coordinates assigned)
CN(C)c1ccc(/C=C\C(=O)c2cccs2)cc1 (optimized conformer: 68.04535074392436 kcal/mol)

>  <smiles>  (25) 
CN(C)c1ccc(C=CC(=O)c2cccs2)cc1

>  <score_type>  (25) 
oracle

>  <origin>  (25) 
adg

>  <m_score__min__energy>  (25) 
-7.5

>  <m_primary>  (25) 
energy

$$$$
25:0
     RDKit          3D

 46 49  0  0  0  0  0  0  0  0999 V2000
    0.0371   28.9189  -27.9244 H   0  0  0  0  0  0  0  0  0  0  0  0
   -0.3230   28.3100  -27.0820 C   0  0  0  0  0  0  0  0  0  0  0  0
   -0.7830   27.0500  -27.3030 N   0  0  0  0  0  0  0  0  0  0  0  0
   -1.2390   26.2540  -26.2970 C   0  0  0  0  0  0  0  0  0  0  0  0
   -1.6590   25.0580  -26.5960 N   0  0  0  0  0  0  0  0  0  0  0  0
   -0.9110   23.9470  -27.7030 S   0  0  0  0  0  0  0  0  0  0  0  0
    0.3620   24.5530  -28.2260 O   0  0  0  0  0  0  0  0  0  0  0  0
   -0.5820   22.6750  -26.9740 O   0  0  0  0  0  0  0  0  0  0  0  0
   -2.0150   23.5740  -29.0240 C   0  0  0  0  0  0  0  0  0  0  0  0
   -3.0530   24.4600  -29.3380 C   0  0  0  0  0  0  0  0  0  0  0  0
   -3.1813   25.3829  -28.7533 H   0  0  0  0  0  0  0  0  0  0  0  0
   -3.9270   24.1760  -30.3920 C   0  0  0  0  0  0  0  0  0  0  0  0
   -4.7514   24.8672  -30.6213 H   0  0  0  0  0  0  0  0  0  0  0  0
   -3.7570   23.0150  -31.1570 C   0  0  0  0  0  0  0  0  0  0  0  0
   -4.6950   22.7280  -32.2030 N   0  0  0  0  0  0  0  0  0  0  0  0
   -5.1780   21.5550  -32.5040 C   0  0  0  0  0  0  0  0  0  0  0  0
   -6.4320   21.1390  -32.1860 N   0  0  0  0  0  0  0  0  0  0  0  0
   -7.1770   21.6520  -31.6650 H   0  0  0  0  0  0  0  0  0  0  0  0
   -6.4750   19.8640  -32.6200 C   0  0  0  0  0  0  0  0  0  0  0  0
   -7.5280   18.9430  -32.5190 C   0  0  0  0  0  0  0  0  0  0  0  0
   -8.8420   19.3260  -31.8850 C   0  0  0  0  0  0  0  0  0  0  0  0
   -9.4400   18.2040  -31.3400 F   0  0  0  0  0  0  0  0  0  0  0  0
   -8.6670   20.2600  -30.8790 F   0  0  0  0  0  0  0  0  0  0  0  0
   -9.6780   19.8630  -32.8470 F   0  0  0  0  0  0  0  0  0  0  0  0
   -7.2900   17.6410  -33.0230 C   0  0  0  0  0  0  0  0  0  0  0  0
   -8.0854   16.8832  -32.9671 H   0  0  0  0  0  0  0  0  0  0  0  0
   -6.0430   17.3030  -33.5970 C   0  0  0  0  0  0  0  0  0  0  0  0
   -5.7750   15.6810  -34.2080 Cl  0  0  0  0  0  0  0  0  0  0  0  0
   -5.0110   18.2560  -33.6770 C   0  0  0  0  0  0  0  0  0  0  0  0
   -4.0353   18.0033  -34.1176 H   0  0  0  0  0  0  0  0  0  0  0  0
   -5.2690   19.5320  -33.1780 C   0  0  0  0  0  0  0  0  0  0  0  0
   -4.4430   20.5940  -33.1180 N   0  0  0  0  0  0  0  0  0  0  0  0
   -3.0400   20.6550  -33.5270 C   0  0  0  0  0  0  0  0  0  0  0  0
   -2.3986   20.6829  -32.6338 H   0  0  0  0  0  0  0  0  0  0  0  0
   -2.7941   19.7667  -34.1274 H   0  0  0  0  0  0  0  0  0  0  0  0
   -2.8722   21.5613  -34.1274 H   0  0  0  0  0  0  0  0  0  0  0  0
   -2.7410   22.1060  -30.8150 C   0  0  0  0  0  0  0  0  0  0  0  0
   -2.6321   21.1677  -31.3787 H   0  0  0  0  0  0  0  0  0  0  0  0
   -1.8680   22.3910  -29.7600 C   0  0  0  0  0  0  0  0  0  0  0  0
   -1.0638   21.6843  -29.5075 H   0  0  0  0  0  0  0  0  0  0  0  0
   -1.2370   26.7520  -24.9770 C   0  0  0  0  0  0  0  0  0  0  0  0
   -1.6018   26.1277  -24.1480 H   0  0  0  0  0  0  0  0  0  0  0  0
   -0.7680   28.0440  -24.7320 C   0  0  0  0  0  0  0  0  0  0  0  0
   -0.7618   28.4412  -23.7062 H   0  0  0  0  0  0  0  0  0  0  0  0
   -0.3070   28.8320  -25.7880 C   0  0  0  0  0  0  0  0  0  0  0  0
    0.0639   29.8508  -25.6026 H   0  0  0  0  0  0  0  0  0  0  0  0
  1  2  1  0
  2  3  1  0
  3  4  1  0
  4  5  2  0
  5  6  1  0
  6  7  2  0
  6  8  2  0
  6  9  1  0
  9 10  2  0
 10 11  1  0
 10 12  1  0
 12 13  1  0
 12 14  2  0
 14 15  1  0
 15 16  2  3
 16 17  1  0
 17 18  1  0
 17 19  1  0
 19 20  2  0
 20 21  1  0
 21 22  1  0
 21 23  1  0
 21 24  1  0
 20 25  1  0
 25 26  1  0
 25 27  2  0
 27 28  1  0
 27 29  1  0
 29 30  1  0
 29 31  2  0
 31 32  1  0
 32 33  1  0
 33 34  1  0
 33 35  1  0
 33 36  1  0
 14 37  1  0
 37 38  1  0
 37 39  2  0
 39 40  1  0
  4 41  1  0
 41 42  1  0
 41 43  2  0
 43 44  1  0
 43 45  1  0
 45 46  1  0
 45  2  2  0
 39  9  1  0
 32 16  1  0
 31 19  1  0
M  CHG  1   3  -1
M  END
>  <UniqueID>  (26) 
25

>  <SMILES>  (26) 
Cn1c(=Nc2ccc(S(=O)(=O)/N=c3\cccc[n-]3)cc2)[nH]c2c(C(F)(F)F)cc(Cl)cc21

>  <Energy>  (26) 
103.27821871579222

>  <Genealogy>  (26) 
Cn1c(=Nc2ccc(S(=O)(=O)N=c3cccc[n-]3)cc2)[nH]c2c(C(F)(F)F)cc(Cl)cc21 (protonated)
Cn1c(=Nc2ccc(S(=O)(=O)/N=c3\cccc[n-]3)cc2)[nH]c2c(C(F)(F)F)cc(Cl)cc21 (cis-trans isomerization)
Cn1c(=Nc2ccc(S(=O)(=O)/N=c3\cccc[n-]3)cc2)[nH]c2c(C(F)(F)F)cc(Cl)cc21 (3D coordinates assigned)
Cn1c(=Nc2ccc(S(=O)(=O)/N=c3\cccc[n-]3)cc2)[nH]c2c(C(F)(F)F)cc(Cl)cc21 (optimized conformer: 103.27821871579222 kcal/mol)

>  <smiles>  (26) 
Cn1c(=Nc2ccc(S(=O)(=O)N=c3cccc[nH]3)cc2)[nH]c2c(C(F)(F)F)cc(Cl)cc21

>  <score_type>  (26) 
oracle

>  <origin>  (26) 
adg

>  <m_score__min__energy>  (26) 
-10.359999999999999

>  <m_primary>  (26) 
energy

$$$$
26:0
     RDKit          3D

 27 28  0  0  0  0  0  0  0  0999 V2000
   -8.0820   19.2430  -31.9770 C   0  0  0  0  0  0  0  0  0  0  0  0
   -8.9570   20.7990  -32.3270 S   0  0  0  0  0  0  0  0  0  0  0  0
   -7.5560   21.8270  -31.8830 C   0  0  0  0  0  0  0  0  0  0  0  0
   -7.7610   23.1380  -31.4390 C   0  0  0  0  0  0  0  0  0  0  0  0
   -6.6700   23.9410  -31.0950 C   0  0  0  0  0  0  0  0  0  0  0  0
   -5.3580   23.4410  -31.2080 C   0  0  0  0  0  0  0  0  0  0  0  0
   -4.2380   24.2100  -30.8570 O   0  0  0  0  0  0  0  0  0  0  0  0
   -3.7090   24.3340  -29.5640 C   0  0  0  0  0  0  0  0  0  0  0  0
   -2.3340   24.5430  -29.3380 C   0  0  0  0  0  0  0  0  0  0  0  0
   -1.8440   24.6450  -28.0330 C   0  0  0  0  0  0  0  0  0  0  0  0
   -2.7150   24.5260  -26.9460 C   0  0  0  0  0  0  0  0  0  0  0  0
   -4.0760   24.2990  -27.1630 C   0  0  0  0  0  0  0  0  0  0  0  0
   -4.5700   24.1960  -28.4680 C   0  0  0  0  0  0  0  0  0  0  0  0
   -5.1630   22.1230  -31.6370 C   0  0  0  0  0  0  0  0  0  0  0  0
   -6.2550   21.3210  -31.9810 C   0  0  0  0  0  0  0  0  0  0  0  0
   -8.0034   19.1033  -30.8887 H   0  0  0  0  0  0  0  0  0  0  0  0
   -8.6396   18.4022  -32.4153 H   0  0  0  0  0  0  0  0  0  0  0  0
   -7.0739   19.2826  -32.4153 H   0  0  0  0  0  0  0  0  0  0  0  0
   -8.7829   23.5375  -31.3605 H   0  0  0  0  0  0  0  0  0  0  0  0
   -6.8365   24.9669  -30.7348 H   0  0  0  0  0  0  0  0  0  0  0  0
   -1.6443   24.6261  -30.1909 H   0  0  0  0  0  0  0  0  0  0  0  0
   -0.7716   24.8191  -27.8610 H   0  0  0  0  0  0  0  0  0  0  0  0
   -2.3285   24.6111  -25.9197 H   0  0  0  0  0  0  0  0  0  0  0  0
   -4.7601   24.2011  -26.3072 H   0  0  0  0  0  0  0  0  0  0  0  0
   -5.6406   24.0056  -28.6341 H   0  0  0  0  0  0  0  0  0  0  0  0
   -4.1434   21.7155  -31.7039 H   0  0  0  0  0  0  0  0  0  0  0  0
   -6.0914   20.2905  -32.3293 H   0  0  0  0  0  0  0  0  0  0  0  0
  1  2  1  0
  2  3  1  0
  3  4  2  0
  4  5  1  0
  5  6  2  0
  6  7  1  0
  7  8  1  0
  8  9  2  0
  9 10  1  0
 10 11  2  0
 11 12  1  0
 12 13  2  0
  6 14  1  0
 14 15  2  0
 15  3  1  0
 13  8  1  0
  1 16  1  0
  1 17  1  0
  1 18  1  0
  4 19  1  0
  5 20  1  0
  9 21  1  0
 10 22  1  0
 11 23  1  0
 12 24  1  0
 13 25  1  0
 14 26  1  0
 15 27  1  0
M  END
>  <UniqueID>  (27) 
26

>  <SMILES>  (27) 
CSc1ccc(Oc2ccccc2)cc1

>  <Energy>  (27) 
29.793967348763378

>  <Genealogy>  (27) 
CSc1ccc(Oc2ccccc2)cc1 (3D coordinates assigned)
CSc1ccc(Oc2ccccc2)cc1 (optimized conformer: 29.793967348763378 kcal/mol)

>  <smiles>  (27) 
CSc1ccc(Oc2ccccc2)cc1

>  <score_type>  (27) 
oracle

>  <origin>  (27) 
adg

>  <m_score__min__energy>  (27) 
-6.3700000000000001

>  <m_primary>  (27) 
energy

$$$$
27:0
     RDKit          3D

 33 35  0  0  0  0  0  0  0  0999 V2000
   -2.6452   24.9104  -24.8808 H   0  0  0  0  0  0  0  0  0  0  0  0
   -2.3550   25.7120  -25.5760 C   0  0  0  0  0  0  0  0  0  0  0  0
   -3.1235   26.3686  -26.0100 H   0  0  0  0  0  0  0  0  0  0  0  0
   -1.0700   25.8880  -25.8930 C   0  0  0  0  0  0  0  0  0  0  0  0
   -0.3153   25.2220  -25.4494 H   0  0  0  0  0  0  0  0  0  0  0  0
   -0.6230   26.9690  -26.8380 C   0  0  0  0  0  0  0  0  0  0  0  0
   -1.3686   27.7778  -26.8429 H   0  0  0  0  0  0  0  0  0  0  0  0
    0.3508   27.3562  -26.5038 H   0  0  0  0  0  0  0  0  0  0  0  0
   -0.4830   26.4340  -28.1910 N   0  0  0  0  0  0  0  0  0  0  0  0
   -1.0500   25.3460  -28.6220 C   0  0  0  0  0  0  0  0  0  0  0  0
   -2.4030   25.2920  -28.7180 N   0  0  0  0  0  0  0  0  0  0  0  0
   -3.0390   24.1810  -29.1740 C   0  0  0  0  0  0  0  0  0  0  0  0
   -4.4700   24.1800  -29.2390 N   0  0  0  0  0  0  0  0  0  0  0  0
   -5.1510   23.8640  -30.2990 C   0  0  0  0  0  0  0  0  0  0  0  0
   -4.7780   24.1560  -31.5610 N   0  0  0  0  0  0  0  0  0  0  0  0
   -5.7270   23.6940  -32.3580 N   0  0  0  0  0  0  0  0  0  0  0  0
   -5.7070   23.7770  -33.3990 H   0  0  0  0  0  0  0  0  0  0  0  0
   -6.7000   23.1190  -31.6250 C   0  0  0  0  0  0  0  0  0  0  0  0
   -7.9300   22.4970  -32.2360 C   0  0  0  0  0  0  0  0  0  0  0  0
   -7.9871   23.2135  -33.0687 H   0  0  0  0  0  0  0  0  0  0  0  0
   -8.0510   20.9860  -32.1040 C   0  0  0  0  0  0  0  0  0  0  0  0
   -8.4923   20.3961  -32.9208 H   0  0  0  0  0  0  0  0  0  0  0  0
   -7.3507   20.1653  -31.8897 H   0  0  0  0  0  0  0  0  0  0  0  0
   -8.9320   21.8970  -31.2610 C   0  0  0  0  0  0  0  0  0  0  0  0
  -10.0101   21.9655  -31.4685 H   0  0  0  0  0  0  0  0  0  0  0  0
   -9.1322   22.0074  -30.1850 H   0  0  0  0  0  0  0  0  0  0  0  0
   -6.3640   23.2110  -30.2820 C   0  0  0  0  0  0  0  0  0  0  0  0
   -6.9308   22.8490  -29.4115 H   0  0  0  0  0  0  0  0  0  0  0  0
   -2.2830   23.0460  -29.5220 C   0  0  0  0  0  0  0  0  0  0  0  0
   -3.0910   21.3880  -30.0430 Br  0  0  0  0  0  0  0  0  0  0  0  0
   -0.8940   23.1220  -29.4200 C   0  0  0  0  0  0  0  0  0  0  0  0
   -0.2748   22.2561  -29.6973 H   0  0  0  0  0  0  0  0  0  0  0  0
   -0.3050   24.2630  -28.9790 N   0  0  0  0  0  0  0  0  0  0  0  0
  1  2  1  0
  2  3  1  0
  2  4  2  0
  4  5  1  0
  4  6  1  0
  6  7  1  0
  6  8  1  0
  6  9  1  0
  9 10  2  3
 10 11  1  0
 11 12  2  0
 12 13  1  0
 13 14  2  0
 14 15  1  0
 15 16  1  0
 16 17  1  0
 16 18  1  0
 18 19  1  0
 19 20  1  0
 19 21  1  0
 21 22  1  0
 21 23  1  0
 21 24  1  0
 24 25  1  0
 24 26  1  0
 18 27  2  0
 27 28  1  0
 12 29  1  0
 29 30  1  0
 29 31  2  0
 31 32  1  0
 31 33  1  0
 33 10  1  0
 27 14  1  0
 24 19  1  0
M  CHG  2  15  -1  33  -1
M  END
>  <UniqueID>  (28) 
27

>  <SMILES>  (28) 
C=CCN=c1nc(/N=c2/cc(C3CC3)[nH][n-]2)c(Br)c[n-]1

>  <Energy>  (28) 
336.81752327133205

>  <Genealogy>  (28) 
C=CCN=c1nc(N=c2cc(C3CC3)[nH][n-]2)c(Br)c[n-]1 (protonated)
C=CCN=c1nc(/N=c2/cc(C3CC3)[nH][n-]2)c(Br)c[n-]1 (cis-trans isomerization)
C=CCN=c1nc(/N=c2/cc(C3CC3)[nH][n-]2)c(Br)c[n-]1 (3D coordinates assigned)
C=CCN=c1nc(/N=c2/cc(C3CC3)[nH][n-]2)c(Br)c[n-]1 (nonaromatic ring conformer: 336.81752327133205 kcal/mol)

>  <smiles>  (28) 
C=CCN=c1nc(N=c2cc(C3CC3)[nH][nH]2)c(Br)c[nH]1

>  <score_type>  (28) 
oracle

>  <origin>  (28) 
adg

>  <m_score__min__energy>  (28) 
-9.4199999999999999

>  <m_primary>  (28) 
energy

$$$$
28:0
     RDKit          3D

 51 54  0  0  0  0  0  0  0  0999 V2000
   -3.8710   25.1200  -30.4370 O   0  0  0  0  0  0  0  0  0  0  0  0
   -4.5850   24.1600  -30.0400 C   0  0  0  0  0  0  0  0  0  0  0  0
   -4.0810   23.2740  -28.9360 C   0  0  0  0  0  0  0  0  0  0  0  0
   -3.0360   22.3390  -29.4630 C   0  0  0  0  0  0  0  0  0  0  0  0
   -2.4040   22.4160  -30.7030 C   0  0  0  0  0  0  0  0  0  0  0  0
   -1.4740   21.4400  -30.8190 N   0  0  0  0  0  0  0  0  0  0  0  0
   -1.5040   20.7560  -29.6610 C   0  0  0  0  0  0  0  0  0  0  0  0
   -0.7130   19.6640  -29.3010 C   0  0  0  0  0  0  0  0  0  0  0  0
   -0.8990   19.1080  -28.0200 C   0  0  0  0  0  0  0  0  0  0  0  0
   -1.8590   19.6530  -27.1370 C   0  0  0  0  0  0  0  0  0  0  0  0
   -2.6430   20.7560  -27.5270 C   0  0  0  0  0  0  0  0  0  0  0  0
   -2.4390   21.2800  -28.8040 C   0  0  0  0  0  0  0  0  0  0  0  0
   -5.8260   23.8790  -30.7050 N   0  0  0  0  0  0  0  0  0  0  0  0
   -5.8310   23.7560  -32.1700 C   0  0  0  0  0  0  0  0  0  0  0  0
   -7.2280   23.4100  -32.7200 C   0  0  0  0  0  0  0  0  0  0  0  0
   -7.9740   22.3050  -31.9120 C   0  0  0  0  0  0  0  0  0  0  0  0
   -7.8330   20.9610  -32.5370 N   0  0  0  0  0  0  0  0  0  0  0  0
   -6.5160   20.3060  -32.3390 C   0  0  0  0  0  0  0  0  0  0  0  0
   -6.5510   18.8320  -32.7560 C   0  0  0  0  0  0  0  0  0  0  0  0
   -7.5570   18.0340  -31.9120 C   0  0  0  0  0  0  0  0  0  0  0  0
   -8.7250   18.8970  -31.3960 C   0  0  0  0  0  0  0  0  0  0  0  0
   -9.0150   20.0820  -32.3310 C   0  0  0  0  0  0  0  0  0  0  0  0
   -7.6560   22.3140  -30.3870 C   0  0  0  0  0  0  0  0  0  0  0  0
   -7.0570   23.6460  -29.9440 C   0  0  0  0  0  0  0  0  0  0  0  0
   -3.6448   23.8962  -28.1406 H   0  0  0  0  0  0  0  0  0  0  0  0
   -4.9199   22.6868  -28.5342 H   0  0  0  0  0  0  0  0  0  0  0  0
   -2.6293   23.1641  -31.4774 H   0  0  0  0  0  0  0  0  0  0  0  0
   -0.8550   21.2600  -31.6430 H   0  0  0  0  0  0  0  0  0  0  0  0
    0.0326   19.2503  -29.9959 H   0  0  0  0  0  0  0  0  0  0  0  0
   -0.2939   18.2450  -27.7052 H   0  0  0  0  0  0  0  0  0  0  0  0
   -1.9946   19.2125  -26.1382 H   0  0  0  0  0  0  0  0  0  0  0  0
   -3.3913   21.1900  -26.8475 H   0  0  0  0  0  0  0  0  0  0  0  0
   -5.5049   24.7114  -32.6069 H   0  0  0  0  0  0  0  0  0  0  0  0
   -5.1484   22.9376  -32.4426 H   0  0  0  0  0  0  0  0  0  0  0  0
   -7.8413   24.3230  -32.7043 H   0  0  0  0  0  0  0  0  0  0  0  0
   -7.0802   23.0151  -33.7360 H   0  0  0  0  0  0  0  0  0  0  0  0
   -9.0418   22.5634  -31.9681 H   0  0  0  0  0  0  0  0  0  0  0  0
   -5.7619   20.8304  -32.9442 H   0  0  0  0  0  0  0  0  0  0  0  0
   -6.2646   20.3551  -31.2693 H   0  0  0  0  0  0  0  0  0  0  0  0
   -6.8410   18.7665  -33.8151 H   0  0  0  0  0  0  0  0  0  0  0  0
   -5.5502   18.4038  -32.5980 H   0  0  0  0  0  0  0  0  0  0  0  0
   -7.9671   17.2217  -32.5300 H   0  0  0  0  0  0  0  0  0  0  0  0
   -7.0184   17.6484  -31.0338 H   0  0  0  0  0  0  0  0  0  0  0  0
   -9.6264   18.2706  -31.3249 H   0  0  0  0  0  0  0  0  0  0  0  0
   -8.4445   19.2989  -30.4112 H   0  0  0  0  0  0  0  0  0  0  0  0
   -9.3339   19.6885  -33.3074 H   0  0  0  0  0  0  0  0  0  0  0  0
   -9.7998   20.6906  -31.8581 H   0  0  0  0  0  0  0  0  0  0  0  0
   -8.5866   22.1378  -29.8276 H   0  0  0  0  0  0  0  0  0  0  0  0
   -6.9194   21.5223  -30.1853 H   0  0  0  0  0  0  0  0  0  0  0  0
   -7.7730   24.4579  -30.1391 H   0  0  0  0  0  0  0  0  0  0  0  0
   -6.8347   23.6195  -28.8670 H   0  0  0  0  0  0  0  0  0  0  0  0
  1  2  2  0
  2  3  1  0
  3  4  1  0
  4  5  2  0
  5  6  1  0
  6  7  1  0
  7  8  2  0
  8  9  1  0
  9 10  2  0
 10 11  1  0
 11 12  2  0
  2 13  1  0
 13 14  1  0
 14 15  1  0
 15 16  1  0
 16 17  1  0
 17 18  1  0
 18 19  1  0
 19 20  1  0
 20 21  1  0
 21 22  1  0
 16 23  1  0
 23 24  1  0
 12  4  1  0
 24 13  1  0
 12  7  1  0
 22 17  1  0
  3 25  1  0
  3 26  1  0
  5 27  1  0
  6 28  1  0
  8 29  1  0
  9 30  1  0
 10 31  1  0
 11 32  1  0
 14 33  1  0
 14 34  1  0
 15 35  1  0
 15 36  1  0
 16 37  1  0
 18 38  1  0
 18 39  1  0
 19 40  1  0
 19 41  1  0
 20 42  1  0
 20 43  1  0
 21 44  1  0
 21 45  1  0
 22 46  1  0
 22 47  1  0
 23 48  1  0
 23 49  1  0
 24 50  1  0
 24 51  1  0
M  END
>  <UniqueID>  (29) 
28

>  <SMILES>  (29) 
O=C(Cc1c[nH]c2ccccc12)N1CCC(N2CCCCC2)CC1

>  <Energy>  (29) 
101.24026358531604

>  <Genealogy>  (29) 
O=C(Cc1c[nH]c2ccccc12)N1CCC(N2CCCCC2)CC1 (3D coordinates assigned)
O=C(Cc1c[nH]c2ccccc12)N1CCC(N2CCCCC2)CC1 (nonaromatic ring conformer: 101.24026358531604 kcal/mol)

>  <smiles>  (29) 
O=C(Cc1c[nH]c2ccccc12)N1CCC(N2CCCCC2)CC1

>  <score_type>  (29) 
oracle

>  <origin>  (29) 
adg

>  <m_score__min__energy>  (29) 
-10.15

>  <m_primary>  (29) 
energy

$$$$
29:0
     RDKit          3D

 30 32  0  0  0  0  0  0  0  0999 V2000
   -5.4320   25.4640  -30.4640 C   0  0  0  0  0  0  0  0  0  0  0  0
   -6.7160   24.6440  -30.4510 C   0  0  0  0  0  0  0  0  0  0  0  0
   -6.5070   23.3700  -31.1320 N   0  0  0  0  0  0  0  0  0  0  0  0
   -5.3290   22.8330  -31.5430 C   0  0  0  0  0  0  0  0  0  0  0  0
   -5.4870   21.6090  -32.1080 N   0  0  0  0  0  0  0  0  0  0  0  0
   -6.8100   21.3700  -32.0220 C   0  0  0  0  0  0  0  0  0  0  0  0
   -7.5700   20.2850  -32.4680 C   0  0  0  0  0  0  0  0  0  0  0  0
   -6.9780   19.0880  -33.1020 C   0  0  0  0  0  0  0  0  0  0  0  0
   -7.2370   17.8150  -32.5660 C   0  0  0  0  0  0  0  0  0  0  0  0
   -6.6670   16.6760  -33.1440 C   0  0  0  0  0  0  0  0  0  0  0  0
   -5.8250   16.7990  -34.2520 C   0  0  0  0  0  0  0  0  0  0  0  0
   -5.5450   18.0630  -34.7790 C   0  0  0  0  0  0  0  0  0  0  0  0
   -6.1130   19.2040  -34.2040 C   0  0  0  0  0  0  0  0  0  0  0  0
   -8.9260   20.3680  -32.3010 N   0  0  0  0  0  0  0  0  0  0  0  0
   -9.5180   21.4540  -31.7070 C   0  0  0  0  0  0  0  0  0  0  0  0
   -8.7610   22.5040  -31.2690 N   0  0  0  0  0  0  0  0  0  0  0  0
   -7.4190   22.4330  -31.4390 C   0  0  0  0  0  0  0  0  0  0  0  0
   -5.1155   25.6661  -29.4301 H   0  0  0  0  0  0  0  0  0  0  0  0
   -4.6433   24.9020  -30.9857 H   0  0  0  0  0  0  0  0  0  0  0  0
   -5.6101   26.4159  -30.9857 H   0  0  0  0  0  0  0  0  0  0  0  0
   -7.0157   24.4546  -29.4097 H   0  0  0  0  0  0  0  0  0  0  0  0
   -7.5055   25.2048  -30.9728 H   0  0  0  0  0  0  0  0  0  0  0  0
   -4.3561   23.3339  -31.4306 H   0  0  0  0  0  0  0  0  0  0  0  0
   -4.7430   21.0130  -32.5320 H   0  0  0  0  0  0  0  0  0  0  0  0
   -7.8913   17.7138  -31.6875 H   0  0  0  0  0  0  0  0  0  0  0  0
   -6.8820   15.6817  -32.7255 H   0  0  0  0  0  0  0  0  0  0  0  0
   -5.3827   15.9017  -34.7094 H   0  0  0  0  0  0  0  0  0  0  0  0
   -4.8768   18.1602  -35.6474 H   0  0  0  0  0  0  0  0  0  0  0  0
   -5.8818   20.1974  -34.6160 H   0  0  0  0  0  0  0  0  0  0  0  0
  -10.6106   21.4796  -31.5824 H   0  0  0  0  0  0  0  0  0  0  0  0
  1  2  1  0
  2  3  1  0
  3  4  1  0
  4  5  2  0
  5  6  1  0
  6  7  2  0
  7  8  1  0
  8  9  2  0
  9 10  1  0
 10 11  2  0
 11 12  1  0
 12 13  2  0
  7 14  1  0
 14 15  2  0
 15 16  1  0
 16 17  2  0
 17  3  1  0
 17  6  1  0
 13  8  1  0
  1 18  1  0
  1 19  1  0
  1 20  1  0
  2 21  1  0
  2 22  1  0
  4 23  1  0
  5 24  1  0
  9 25  1  0
 10 26  1  0
 11 27  1  0
 12 28  1  0
 13 29  1  0
 15 30  1  0
M  CHG  1   5   1
M  END
>  <UniqueID>  (30) 
29

>  <SMILES>  (30) 
CCn1c[nH+]c2c(-c3ccccc3)ncnc21

>  <Energy>  (30) 
76.37587697614988

>  <Genealogy>  (30) 
CCn1c[nH+]c2c(-c3ccccc3)ncnc21 (protonated)
CCn1c[nH+]c2c(-c3ccccc3)ncnc21 (3D coordinates assigned)
CCn1c[nH+]c2c(-c3ccccc3)ncnc21 (optimized conformer: 76.37587697614988 kcal/mol)

>  <smiles>  (30) 
CCn1cnc2c(-c3ccccc3)ncnc21

>  <score_type>  (30) 
oracle

>  <origin>  (30) 
adg

>  <m_score__min__energy>  (30) 
-5.9400000000000004

>  <m_primary>  (30) 
energy

$$$$
30:0
     RDKit          3D

 55 58  0  0  0  0  0  0  0  0999 V2000
   -0.9570   21.2430  -30.7320 C   0  0  0  0  0  0  0  0  0  0  0  0
   -2.1240   21.1730  -31.6700 C   0  0  0  0  0  0  0  0  0  0  0  0
   -2.1400   20.1550  -32.6240 C   0  0  0  0  0  0  0  0  0  0  0  0
   -3.1870   20.0270  -33.5190 C   0  0  0  0  0  0  0  0  0  0  0  0
   -4.2050   20.9450  -33.4260 C   0  0  0  0  0  0  0  0  0  0  0  0
   -4.2040   21.9710  -32.4750 C   0  0  0  0  0  0  0  0  0  0  0  0
   -3.1710   22.0980  -31.5890 C   0  0  0  0  0  0  0  0  0  0  0  0
   -3.1020   23.1680  -30.5540 C   0  0  0  0  0  0  0  0  0  0  0  0
   -4.2980   23.6780  -30.0870 N   0  0  0  0  0  0  0  0  0  0  0  0
   -4.8490   24.8900  -30.4470 C   0  0  0  0  0  0  0  0  0  0  0  0
   -6.1340   24.8080  -31.2730 C   0  0  0  0  0  0  0  0  0  0  0  0
   -6.7650   23.5880  -31.0490 N   0  0  0  0  0  0  0  0  0  0  0  0
   -7.4020   22.8940  -32.0860 C   0  0  0  0  0  0  0  0  0  0  0  0
   -8.9050   23.0300  -31.9670 C   0  0  0  0  0  0  0  0  0  0  0  0
   -9.4790   21.6620  -32.2410 C   0  0  0  0  0  0  0  0  0  0  0  0
   -8.7210   20.3640  -31.2200 S   0  0  0  0  0  0  0  0  0  0  0  0
   -7.5910   19.3930  -32.2120 C   0  0  0  0  0  0  0  0  0  0  0  0
   -6.7920   18.4340  -31.6580 N   0  0  0  0  0  0  0  0  0  0  0  0
   -6.0300   17.8470  -32.5970 C   0  0  0  0  0  0  0  0  0  0  0  0
   -5.0740   16.8430  -32.5630 C   0  0  0  0  0  0  0  0  0  0  0  0
   -4.4300   16.4340  -33.7370 C   0  0  0  0  0  0  0  0  0  0  0  0
   -4.7780   17.0570  -34.9110 C   0  0  0  0  0  0  0  0  0  0  0  0
   -5.7380   18.0620  -34.9350 C   0  0  0  0  0  0  0  0  0  0  0  0
   -6.3790   18.4780  -33.7980 C   0  0  0  0  0  0  0  0  0  0  0  0
   -7.3330   19.4100  -33.5070 N   0  0  0  0  0  0  0  0  0  0  0  0
   -6.6100   22.9750  -29.7850 C   0  0  0  0  0  0  0  0  0  0  0  0
   -5.1390   22.7790  -29.4230 C   0  0  0  0  0  0  0  0  0  0  0  0
   -1.3194   21.2213  -29.6936 H   0  0  0  0  0  0  0  0  0  0  0  0
   -0.2938   20.3830  -30.9070 H   0  0  0  0  0  0  0  0  0  0  0  0
   -0.4014   22.1761  -30.9070 H   0  0  0  0  0  0  0  0  0  0  0  0
   -1.3044   19.4408  -32.6652 H   0  0  0  0  0  0  0  0  0  0  0  0
   -3.2038   19.2254  -34.2721 H   0  0  0  0  0  0  0  0  0  0  0  0
   -5.0514   20.8705  -34.1246 H   0  0  0  0  0  0  0  0  0  0  0  0
   -5.0424   22.6822  -32.4399 H   0  0  0  0  0  0  0  0  0  0  0  0
   -2.5586   22.7572  -29.6903 H   0  0  0  0  0  0  0  0  0  0  0  0
   -2.6119   24.0148  -31.0567 H   0  0  0  0  0  0  0  0  0  0  0  0
   -5.0729   25.4478  -29.5258 H   0  0  0  0  0  0  0  0  0  0  0  0
   -4.1054   25.3810  -31.0919 H   0  0  0  0  0  0  0  0  0  0  0  0
   -6.8083   25.6264  -30.9804 H   0  0  0  0  0  0  0  0  0  0  0  0
   -5.8840   24.8953  -32.3406 H   0  0  0  0  0  0  0  0  0  0  0  0
   -7.0761   23.3069  -33.0521 H   0  0  0  0  0  0  0  0  0  0  0  0
   -7.1338   21.8292  -32.0201 H   0  0  0  0  0  0  0  0  0  0  0  0
   -9.1781   23.3614  -30.9543 H   0  0  0  0  0  0  0  0  0  0  0  0
   -9.2954   23.7757  -32.6752 H   0  0  0  0  0  0  0  0  0  0  0  0
  -10.5591   21.6861  -32.0343 H   0  0  0  0  0  0  0  0  0  0  0  0
   -9.2707   21.4198  -33.2936 H   0  0  0  0  0  0  0  0  0  0  0  0
   -4.8196   16.3641  -31.6060 H   0  0  0  0  0  0  0  0  0  0  0  0
   -3.6697   15.6392  -33.7199 H   0  0  0  0  0  0  0  0  0  0  0  0
   -4.2883   16.7552  -35.8486 H   0  0  0  0  0  0  0  0  0  0  0  0
   -5.9903   18.5369  -35.8946 H   0  0  0  0  0  0  0  0  0  0  0  0
   -7.7940   20.0440  -34.1910 H   0  0  0  0  0  0  0  0  0  0  0  0
   -7.0824   23.6104  -29.0214 H   0  0  0  0  0  0  0  0  0  0  0  0
   -7.0857   21.9840  -29.8263 H   0  0  0  0  0  0  0  0  0  0  0  0
   -5.0209   22.9211  -28.3386 H   0  0  0  0  0  0  0  0  0  0  0  0
   -4.8519   21.7632  -29.7323 H   0  0  0  0  0  0  0  0  0  0  0  0
  1  2  1  0
  2  3  2  0
  3  4  1  0
  4  5  2  0
  5  6  1  0
  6  7  2  0
  7  8  1  0
  8  9  1  0
  9 10  1  0
 10 11  1  0
 11 12  1  0
 12 13  1  0
 13 14  1  0
 14 15  1  0
 15 16  1  0
 16 17  1  0
 17 18  2  0
 18 19  1  0
 19 20  2  0
 20 21  1  0
 21 22  2  0
 22 23  1  0
 23 24  2  0
 24 25  1  0
 12 26  1  0
 26 27  1  0
  7  2  1  0
 27  9  1  0
 25 17  1  0
 24 19  1  0
  1 28  1  0
  1 29  1  0
  1 30  1  0
  3 31  1  0
  4 32  1  0
  5 33  1  0
  6 34  1  0
  8 35  1  0
  8 36  1  0
 10 37  1  0
 10 38  1  0
 11 39  1  0
 11 40  1  0
 13 41  1  0
 13 42  1  0
 14 43  1  0
 14 44  1  0
 15 45  1  0
 15 46  1  0
 20 47  1  0
 21 48  1  0
 22 49  1  0
 23 50  1  0
 25 51  1  0
 26 52  1  0
 26 53  1  0
 27 54  1  0
 27 55  1  0
M  END
>  <smiles>  (31) 
Cc1ccccc1CN1CCN(CCCSc2nc3ccccc3[nH]2)CC1

>  <score_type>  (31) 
oracle

>  <origin>  (31) 
adg

>  <m_score__min__energy>  (31) 
-9.3200000000000003

>  <m_primary>  (31) 
energy

$$$$
31:0
     RDKit          3D

 45 47  0  0  0  0  0  0  0  0999 V2000
   -7.7360   18.2540  -31.9850 C   0  0  0  0  0  0  0  0  0  0  0  0
   -9.0560   18.9340  -32.3290 C   0  0  0  0  0  0  0  0  0  0  0  0
   -8.8250   20.1910  -32.9620 O   0  0  0  0  0  0  0  0  0  0  0  0
   -8.8380   21.4150  -32.2800 C   0  0  0  0  0  0  0  0  0  0  0  0
   -9.8500   22.1660  -32.3460 O   0  0  0  0  0  0  0  0  0  0  0  0
   -7.6640   21.8200  -31.4750 C   0  0  0  0  0  0  0  0  0  0  0  0
   -7.8230   22.4880  -30.2510 C   0  0  0  0  0  0  0  0  0  0  0  0
   -6.7370   22.8550  -29.5200 N   0  0  0  0  0  0  0  0  0  0  0  0
   -5.4670   22.6010  -29.9440 C   0  0  0  0  0  0  0  0  0  0  0  0
   -4.3540   23.0120  -29.1390 N   0  0  0  0  0  0  0  0  0  0  0  0
   -4.3570   24.3600  -28.5550 C   0  0  0  0  0  0  0  0  0  0  0  0
   -3.1790   24.5460  -27.5970 C   0  0  0  0  0  0  0  0  0  0  0  0
   -1.9610   24.0030  -28.2120 N   0  0  0  0  0  0  0  0  0  0  0  0
   -0.9180   24.9070  -28.6320 C   0  0  0  0  0  0  0  0  0  0  0  0
   -1.2220   26.0600  -29.0380 O   0  0  0  0  0  0  0  0  0  0  0  0
    0.4670   24.5450  -28.5870 N   0  0  0  0  0  0  0  0  0  0  0  0
    1.2140   24.2310  -27.3750 C   0  0  0  0  0  0  0  0  0  0  0  0
    0.7900   25.0850  -26.1950 C   0  0  0  0  0  0  0  0  0  0  0  0
    0.3720   23.6240  -26.2680 C   0  0  0  0  0  0  0  0  0  0  0  0
   -1.9640   22.6080  -28.6840 C   0  0  0  0  0  0  0  0  0  0  0  0
   -3.3800   22.0090  -28.6950 C   0  0  0  0  0  0  0  0  0  0  0  0
   -5.2600   21.9260  -31.1570 C   0  0  0  0  0  0  0  0  0  0  0  0
   -3.6420   21.5180  -31.7140 Cl  0  0  0  0  0  0  0  0  0  0  0  0
   -6.3640   21.5400  -31.9210 C   0  0  0  0  0  0  0  0  0  0  0  0
   -7.6265   18.1976  -30.8919 H   0  0  0  0  0  0  0  0  0  0  0  0
   -7.7257   17.2384  -32.4074 H   0  0  0  0  0  0  0  0  0  0  0  0
   -6.9031   18.8352  -32.4074 H   0  0  0  0  0  0  0  0  0  0  0  0
   -9.6291   18.2869  -33.0093 H   0  0  0  0  0  0  0  0  0  0  0  0
   -9.6192   19.1040  -31.3996 H   0  0  0  0  0  0  0  0  0  0  0  0
   -8.8333   22.7162  -29.8805 H   0  0  0  0  0  0  0  0  0  0  0  0
   -6.8850   23.3540  -28.6130 H   0  0  0  0  0  0  0  0  0  0  0  0
   -4.2836   25.1023  -29.3635 H   0  0  0  0  0  0  0  0  0  0  0  0
   -5.2916   24.4950  -27.9909 H   0  0  0  0  0  0  0  0  0  0  0  0
   -3.0396   25.6173  -27.3901 H   0  0  0  0  0  0  0  0  0  0  0  0
   -3.3834   24.0156  -26.6552 H   0  0  0  0  0  0  0  0  0  0  0  0
    2.1675   23.9631  -27.8536 H   0  0  0  0  0  0  0  0  0  0  0  0
    1.5355   25.4076  -25.4532 H   0  0  0  0  0  0  0  0  0  0  0  0
    0.2594   26.0413  -26.0772 H   0  0  0  0  0  0  0  0  0  0  0  0
    0.8152   22.8898  -25.5792 H   0  0  0  0  0  0  0  0  0  0  0  0
   -0.5862   23.0854  -26.2250 H   0  0  0  0  0  0  0  0  0  0  0  0
   -1.5571   22.5774  -29.7055 H   0  0  0  0  0  0  0  0  0  0  0  0
   -1.3479   22.0134  -27.9935 H   0  0  0  0  0  0  0  0  0  0  0  0
   -3.4052   21.1500  -29.3816 H   0  0  0  0  0  0  0  0  0  0  0  0
   -3.6393   21.6851  -27.6762 H   0  0  0  0  0  0  0  0  0  0  0  0
   -6.2133   21.0147  -32.8756 H   0  0  0  0  0  0  0  0  0  0  0  0
  1  2  1  0
  2  3  1  0
  3  4  1  0
  4  5  2  0
  4  6  1  0
  6  7  2  0
  7  8  1  0
  8  9  2  0
  9 10  1  0
 10 11  1  0
 11 12  1  0
 12 13  1  0
 13 14  1  0
 14 15  2  0
 14 16  1  0
 16 17  1  0
 17 18  1  0
 18 19  1  0
 13 20  1  0
 20 21  1  0
  9 22  1  0
 22 23  1  0
 22 24  2  0
 24  6  1  0
 21 10  1  0
 19 17  1  0
  1 25  1  0
  1 26  1  0
  1 27  1  0
  2 28  1  0
  2 29  1  0
  7 30  1  0
  8 31  1  0
 11 32  1  0
 11 33  1  0
 12 34  1  0
 12 35  1  0
 17 36  1  0
 18 37  1  0
 18 38  1  0
 19 39  1  0
 19 40  1  0
 20 41  1  0
 20 42  1  0
 21 43  1  0
 21 44  1  0
 24 45  1  0
M  CHG  2   8   1  16  -1
M  END
>  <UniqueID>  (32) 
30

>  <SMILES>  (32) 
CCOC(=O)c1c[nH+]c(N2CCN(C(=O)[N-]C3CC3)CC2)c(Cl)c1

>  <Energy>  (32) 
314.4732676312424

>  <Genealogy>  (32) 
CCOC(=O)c1c[nH+]c(N2CCN(C(=O)[N-]C3CC3)CC2)c(Cl)c1 (protonated)
CCOC(=O)c1c[nH+]c(N2CCN(C(=O)[N-]C3CC3)CC2)c(Cl)c1 (3D coordinates assigned)
CCOC(=O)c1c[nH+]c(N2CCN(C(=O)[N-]C3CC3)CC2)c(Cl)c1 (nonaromatic ring conformer: 314.4732676312424 kcal/mol)

>  <smiles>  (32) 
CCOC(=O)c1cnc(N2CCN(C(=O)NC3CC3)CC2)c(Cl)c1

>  <score_type>  (32) 
oracle

>  <origin>  (32) 
adg

>  <m_score__min__energy>  (32) 
-7.3700000000000001

>  <m_primary>  (32) 
energy

$$$$
32:0
     RDKit          3D

 45 46  0  0  0  0  0  0  0  0999 V2000
   -5.2540   15.1170  -33.7080 C   0  0  0  0  0  0  0  0  0  0  0  0
   -6.3090   15.9850  -34.1090 O   0  0  0  0  0  0  0  0  0  0  0  0
   -6.4960   17.2850  -33.6160 C   0  0  0  0  0  0  0  0  0  0  0  0
   -5.9990   18.3590  -34.3650 C   0  0  0  0  0  0  0  0  0  0  0  0
   -6.1600   19.6720  -33.9140 C   0  0  0  0  0  0  0  0  0  0  0  0
   -6.8190   19.9270  -32.7050 C   0  0  0  0  0  0  0  0  0  0  0  0
   -6.9910   21.2760  -32.2470 N   0  0  0  0  0  0  0  0  0  0  0  0
   -8.1620   21.8570  -31.9030 C   0  0  0  0  0  0  0  0  0  0  0  0
   -9.5010   21.1860  -31.9630 C   0  0  0  0  0  0  0  0  0  0  0  0
   -7.9390   23.1220  -31.3960 C   0  0  0  0  0  0  0  0  0  0  0  0
   -6.5710   23.3240  -31.4420 C   0  0  0  0  0  0  0  0  0  0  0  0
   -5.8630   24.5230  -30.8690 C   0  0  0  0  0  0  0  0  0  0  0  0
   -5.6360   24.3920  -29.4210 N   0  0  0  0  0  0  0  0  0  0  0  0
   -5.0010   23.1190  -29.0360 C   0  0  0  0  0  0  0  0  0  0  0  0
   -3.6080   23.3270  -28.4140 C   0  0  0  0  0  0  0  0  0  0  0  0
   -2.6570   23.9970  -29.4040 C   0  0  0  0  0  0  0  0  0  0  0  0
   -3.1130   25.2900  -29.6870 O   0  0  0  0  0  0  0  0  0  0  0  0
   -6.0110   22.1720  -31.9860 C   0  0  0  0  0  0  0  0  0  0  0  0
   -4.5410   21.8700  -32.0830 C   0  0  0  0  0  0  0  0  0  0  0  0
   -7.3220   18.8580  -31.9520 C   0  0  0  0  0  0  0  0  0  0  0  0
   -7.1610   17.5440  -32.4020 C   0  0  0  0  0  0  0  0  0  0  0  0
   -5.2079   15.0790  -32.6096 H   0  0  0  0  0  0  0  0  0  0  0  0
   -5.4402   14.1071  -34.1023 H   0  0  0  0  0  0  0  0  0  0  0  0
   -4.2989   15.4943  -34.1023 H   0  0  0  0  0  0  0  0  0  0  0  0
   -5.4783   18.1678  -35.3149 H   0  0  0  0  0  0  0  0  0  0  0  0
   -5.7675   20.5084  -34.5111 H   0  0  0  0  0  0  0  0  0  0  0  0
   -9.8657   21.0033  -30.9414 H   0  0  0  0  0  0  0  0  0  0  0  0
  -10.2124   21.8341  -32.4958 H   0  0  0  0  0  0  0  0  0  0  0  0
   -9.4076   20.2282  -32.4958 H   0  0  0  0  0  0  0  0  0  0  0  0
   -8.6979   23.8285  -31.0287 H   0  0  0  0  0  0  0  0  0  0  0  0
   -4.8910   24.6348  -31.3717 H   0  0  0  0  0  0  0  0  0  0  0  0
   -6.5010   25.4038  -31.0336 H   0  0  0  0  0  0  0  0  0  0  0  0
   -6.5280   24.5540  -28.8960 H   0  0  0  0  0  0  0  0  0  0  0  0
   -5.6438   22.6104  -28.3025 H   0  0  0  0  0  0  0  0  0  0  0  0
   -4.8766   22.5153  -29.9471 H   0  0  0  0  0  0  0  0  0  0  0  0
   -3.7045   23.9634  -27.5220 H   0  0  0  0  0  0  0  0  0  0  0  0
   -3.1955   22.3434  -28.1451 H   0  0  0  0  0  0  0  0  0  0  0  0
   -1.6497   24.0512  -28.9654 H   0  0  0  0  0  0  0  0  0  0  0  0
   -2.6212   23.4093  -30.3331 H   0  0  0  0  0  0  0  0  0  0  0  0
   -3.9070   25.4330  -29.1100 H   0  0  0  0  0  0  0  0  0  0  0  0
   -4.1171   21.7829  -31.0717 H   0  0  0  0  0  0  0  0  0  0  0  0
   -4.3961   20.9233  -32.6241 H   0  0  0  0  0  0  0  0  0  0  0  0
   -4.0346   22.6829  -32.6241 H   0  0  0  0  0  0  0  0  0  0  0  0
   -7.8450   19.0529  -31.0041 H   0  0  0  0  0  0  0  0  0  0  0  0
   -7.5556   16.7087  -31.8049 H   0  0  0  0  0  0  0  0  0  0  0  0
  1  2  1  0
  2  3  1  0
  3  4  2  0
  4  5  1  0
  5  6  2  0
  6  7  1  0
  7  8  1  0
  8  9  1  0
  8 10  2  0
 10 11  1  0
 11 12  1  0
 12 13  1  0
 13 14  1  0
 14 15  1  0
 15 16  1  0
 16 17  1  0
 11 18  2  0
 18 19  1  0
  6 20  1  0
 20 21  2  0
 21  3  1  0
 18  7  1  0
  1 22  1  0
  1 23  1  0
  1 24  1  0
  4 25  1  0
  5 26  1  0
  9 27  1  0
  9 28  1  0
  9 29  1  0
 10 30  1  0
 12 31  1  0
 12 32  1  0
 13 33  1  0
 14 34  1  0
 14 35  1  0
 15 36  1  0
 15 37  1  0
 16 38  1  0
 16 39  1  0
 17 40  1  0
 19 41  1  0
 19 42  1  0
 19 43  1  0
 20 44  1  0
 21 45  1  0
M  END
>  <UniqueID>  (33) 
31

>  <SMILES>  (33) 
COc1ccc(-n2c(C)cc(CNCCCO)c2C)cc1

>  <Energy>  (33) 
71.01478401284245

>  <Genealogy>  (33) 
COc1ccc(-n2c(C)cc(CNCCCO)c2C)cc1 (3D coordinates assigned)
COc1ccc(-n2c(C)cc(CNCCCO)c2C)cc1 (optimized conformer: 71.01478401284245 kcal/mol)

>  <smiles>  (33) 
COc1ccc(-n2c(C)cc(CNCCCO)c2C)cc1

>  <score_type>  (33) 
oracle

>  <origin>  (33) 
adg

>  <m_score__min__energy>  (33) 
-8.2300000000000004

>  <m_primary>  (33) 
energy

$$$$
33:0
     RDKit          3D

 27 28  0  0  0  0  0  0  0  0999 V2000
   -3.1150   20.9170  -33.3670 C   0  0  0  0  0  0  0  0  0  0  0  0
   -4.4960   20.6690  -33.1240 O   0  0  0  0  0  0  0  0  0  0  0  0
   -5.3580   21.5390  -32.4320 C   0  0  0  0  0  0  0  0  0  0  0  0
   -4.8930   22.7380  -31.8600 C   0  0  0  0  0  0  0  0  0  0  0  0
   -5.7630   23.6030  -31.1690 C   0  0  0  0  0  0  0  0  0  0  0  0
   -5.2720   24.8720  -30.5630 C   0  0  0  0  0  0  0  0  0  0  0  0
   -6.1110   25.6800  -29.6170 C   0  0  0  0  0  0  0  0  0  0  0  0
   -4.1170   25.2930  -30.8430 O   0  0  0  0  0  0  0  0  0  0  0  0
   -7.1190   23.2520  -31.0540 C   0  0  0  0  0  0  0  0  0  0  0  0
   -7.6020   22.0630  -31.6150 C   0  0  0  0  0  0  0  0  0  0  0  0
   -8.9600   21.7240  -31.4930 C   0  0  0  0  0  0  0  0  0  0  0  0
   -9.4430   20.5390  -32.0530 C   0  0  0  0  0  0  0  0  0  0  0  0
   -8.5780   19.6840  -32.7370 C   0  0  0  0  0  0  0  0  0  0  0  0
   -7.2250   20.0070  -32.8680 C   0  0  0  0  0  0  0  0  0  0  0  0
   -6.7200   21.1990  -32.3100 C   0  0  0  0  0  0  0  0  0  0  0  0
   -2.5852   21.0121  -32.4077 H   0  0  0  0  0  0  0  0  0  0  0  0
   -2.6877   20.0812  -33.9405 H   0  0  0  0  0  0  0  0  0  0  0  0
   -3.0052   21.8492  -33.9405 H   0  0  0  0  0  0  0  0  0  0  0  0
   -3.8299   23.0043  -31.9546 H   0  0  0  0  0  0  0  0  0  0  0  0
   -5.8451   25.4239  -28.5808 H   0  0  0  0  0  0  0  0  0  0  0  0
   -5.9285   26.7511  -29.7884 H   0  0  0  0  0  0  0  0  0  0  0  0
   -7.1745   25.4573  -29.7884 H   0  0  0  0  0  0  0  0  0  0  0  0
   -7.8093   23.9191  -30.5169 H   0  0  0  0  0  0  0  0  0  0  0  0
   -9.6457   22.3945  -30.9543 H   0  0  0  0  0  0  0  0  0  0  0  0
  -10.5074   20.2793  -31.9546 H   0  0  0  0  0  0  0  0  0  0  0  0
   -8.9631   18.7514  -33.1751 H   0  0  0  0  0  0  0  0  0  0  0  0
   -6.5503   19.3276  -33.4094 H   0  0  0  0  0  0  0  0  0  0  0  0
  1  2  1  0
  2  3  1  0
  3  4  2  0
  4  5  1  0
  5  6  1  0
  6  7  1  0
  6  8  2  0
  5  9  2  0
  9 10  1  0
 10 11  2  0
 11 12  1  0
 12 13  2  0
 13 14  1  0
 14 15  2  0
 15  3  1  0
 15 10  1  0
  1 16  1  0
  1 17  1  0
  1 18  1  0
  4 19  1  0
  7 20  1  0
  7 21  1  0
  7 22  1  0
  9 23  1  0
 11 24  1  0
 12 25  1  0
 13 26  1  0
 14 27  1  0
M  END
>  <UniqueID>  (34) 
32

>  <SMILES>  (34) 
COc1cc(C(C)=O)cc2ccccc12

>  <Energy>  (34) 
31.330327477518672

>  <Genealogy>  (34) 
COc1cc(C(C)=O)cc2ccccc12 (3D coordinates assigned)
COc1cc(C(C)=O)cc2ccccc12 (optimized conformer: 31.330327477518672 kcal/mol)

>  <smiles>  (34) 
COc1cc(C(C)=O)cc2ccccc12

>  <score_type>  (34) 
oracle

>  <origin>  (34) 
adg

>  <m_score__min__energy>  (34) 
-7.5199999999999996

>  <m_primary>  (34) 
energy

$$$$
34:0
     RDKit          3D

 30 31  0  0  0  0  0  0  0  0999 V2000
   -6.5240   17.1900  -33.5260 C   0  0  0  0  0  0  0  0  0  0  0  0
   -7.6010   17.7790  -32.6660 C   0  0  0  0  0  0  0  0  0  0  0  0
   -7.7190   19.0950  -32.4190 C   0  0  0  0  0  0  0  0  0  0  0  0
   -8.8430   19.6620  -31.6360 C   0  0  0  0  0  0  0  0  0  0  0  0
   -8.9140   20.9790  -31.4260 C   0  0  0  0  0  0  0  0  0  0  0  0
   -7.9120   21.8650  -31.9600 N   0  0  0  0  0  0  0  0  0  0  0  0
   -7.9710   23.2960  -31.6570 C   0  0  0  0  0  0  0  0  0  0  0  0
   -6.7480   23.7090  -30.8840 C   0  0  0  0  0  0  0  0  0  0  0  0
   -6.1960   22.8500  -29.9200 C   0  0  0  0  0  0  0  0  0  0  0  0
   -5.0360   23.2200  -29.2300 C   0  0  0  0  0  0  0  0  0  0  0  0
   -4.4160   24.4410  -29.5060 C   0  0  0  0  0  0  0  0  0  0  0  0
   -4.9540   25.2950  -30.4730 C   0  0  0  0  0  0  0  0  0  0  0  0
   -6.1120   24.9310  -31.1640 C   0  0  0  0  0  0  0  0  0  0  0  0
   -6.8000   21.3370  -32.7090 C   0  0  0  0  0  0  0  0  0  0  0  0
   -6.6950   20.0270  -32.9390 C   0  0  0  0  0  0  0  0  0  0  0  0
   -5.7384   16.7604  -32.8870 H   0  0  0  0  0  0  0  0  0  0  0  0
   -6.9525   16.4007  -34.1611 H   0  0  0  0  0  0  0  0  0  0  0  0
   -6.0906   17.9767  -34.1611 H   0  0  0  0  0  0  0  0  0  0  0  0
   -8.3351   17.0970  -32.2121 H   0  0  0  0  0  0  0  0  0  0  0  0
   -9.6189   18.9976  -31.2278 H   0  0  0  0  0  0  0  0  0  0  0  0
   -9.7473   21.3917  -30.8385 H   0  0  0  0  0  0  0  0  0  0  0  0
   -8.0176   23.8658  -32.5968 H   0  0  0  0  0  0  0  0  0  0  0  0
   -8.8667   23.5004  -31.0521 H   0  0  0  0  0  0  0  0  0  0  0  0
   -6.6766   21.8838  -29.7066 H   0  0  0  0  0  0  0  0  0  0  0  0
   -4.6118   22.5483  -28.4692 H   0  0  0  0  0  0  0  0  0  0  0  0
   -3.5045   24.7304  -28.9624 H   0  0  0  0  0  0  0  0  0  0  0  0
   -4.4644   26.2558  -30.6903 H   0  0  0  0  0  0  0  0  0  0  0  0
   -6.5276   25.6026  -31.9296 H   0  0  0  0  0  0  0  0  0  0  0  0
   -6.0298   22.0210  -33.0951 H   0  0  0  0  0  0  0  0  0  0  0  0
   -5.8438   19.6387  -33.5175 H   0  0  0  0  0  0  0  0  0  0  0  0
  1  2  1  0
  2  3  2  3
  3  4  1  0
  4  5  2  0
  5  6  1  0
  6  7  1  0
  7  8  1  0
  8  9  2  0
  9 10  1  0
 10 11  2  0
 11 12  1  0
 12 13  2  0
  6 14  1  0
 14 15  2  0
 15  3  1  0
 13  8  1  0
  1 16  1  0
  1 17  1  0
  1 18  1  0
  2 19  1  0
  4 20  1  0
  5 21  1  0
  7 22  1  0
  7 23  1  0
  9 24  1  0
 10 25  1  0
 11 26  1  0
 12 27  1  0
 13 28  1  0
 14 29  1  0
 15 30  1  0
M  END
>  <UniqueID>  (35) 
33

>  <SMILES>  (35) 
CC=C1C=CN(Cc2ccccc2)C=C1

>  <Energy>  (35) 
24.694672019046035

>  <Genealogy>  (35) 
CC=C1C=CN(Cc2ccccc2)C=C1 (3D coordinates assigned)
CC=C1C=CN(Cc2ccccc2)C=C1 (nonaromatic ring conformer: 24.694672019046035 kcal/mol)

>  <smiles>  (35) 
CC=C1C=CN(Cc2ccccc2)C=C1

>  <score_type>  (35) 
oracle

>  <origin>  (35) 
adg

>  <m_score__min__energy>  (35) 
-6.5800000000000001

>  <m_primary>  (35) 
energy

$$$$
35:0
     RDKit          3D

 35 37  0  0  0  0  0  0  0  0999 V2000
   -5.7190   25.9020  -30.0920 C   0  0  0  0  0  0  0  0  0  0  0  0
   -4.8010   25.1050  -30.8350 O   0  0  0  0  0  0  0  0  0  0  0  0
   -5.0550   23.7910  -31.2550 C   0  0  0  0  0  0  0  0  0  0  0  0
   -4.0720   22.7860  -31.2280 C   0  0  0  0  0  0  0  0  0  0  0  0
   -4.3740   21.4910  -31.6590 C   0  0  0  0  0  0  0  0  0  0  0  0
   -5.6620   21.1750  -32.1240 C   0  0  0  0  0  0  0  0  0  0  0  0
   -5.9770   19.7980  -32.5820 C   0  0  0  0  0  0  0  0  0  0  0  0
   -7.3090   19.3520  -32.6450 C   0  0  0  0  0  0  0  0  0  0  0  0
   -7.5810   18.0870  -33.0570 N   0  0  0  0  0  0  0  0  0  0  0  0
   -6.5870   17.2360  -33.4180 C   0  0  0  0  0  0  0  0  0  0  0  0
   -6.8880   15.9370  -33.8420 C   0  0  0  0  0  0  0  0  0  0  0  0
   -5.8620   15.0590  -34.2150 C   0  0  0  0  0  0  0  0  0  0  0  0
   -6.2120   13.7680  -34.6350 O   0  0  0  0  0  0  0  0  0  0  0  0
   -7.5400   13.3530  -34.9390 C   0  0  0  0  0  0  0  0  0  0  0  0
   -4.5230   15.4970  -34.1590 C   0  0  0  0  0  0  0  0  0  0  0  0
   -4.2200   16.7950  -33.7340 C   0  0  0  0  0  0  0  0  0  0  0  0
   -5.2480   17.6710  -33.3610 C   0  0  0  0  0  0  0  0  0  0  0  0
   -4.9760   18.9410  -32.9440 N   0  0  0  0  0  0  0  0  0  0  0  0
   -6.6410   22.1820  -32.1500 C   0  0  0  0  0  0  0  0  0  0  0  0
   -6.3370   23.4770  -31.7200 C   0  0  0  0  0  0  0  0  0  0  0  0
   -5.5469   25.7525  -29.0159 H   0  0  0  0  0  0  0  0  0  0  0  0
   -5.5706   26.9626  -30.3432 H   0  0  0  0  0  0  0  0  0  0  0  0
   -6.7483   25.6062  -30.3432 H   0  0  0  0  0  0  0  0  0  0  0  0
   -3.0600   23.0201  -30.8658 H   0  0  0  0  0  0  0  0  0  0  0  0
   -3.5970   20.7128  -31.6340 H   0  0  0  0  0  0  0  0  0  0  0  0
   -8.1297   20.0270  -32.3609 H   0  0  0  0  0  0  0  0  0  0  0  0
   -7.9354   15.6035  -33.8827 H   0  0  0  0  0  0  0  0  0  0  0  0
   -8.0932   13.1801  -34.0041 H   0  0  0  0  0  0  0  0  0  0  0  0
   -8.0442   14.1364  -35.5239 H   0  0  0  0  0  0  0  0  0  0  0  0
   -7.5084   12.4219  -35.5239 H   0  0  0  0  0  0  0  0  0  0  0  0
   -3.7117   14.8140  -34.4512 H   0  0  0  0  0  0  0  0  0  0  0  0
   -3.1726   17.1285  -33.6926 H   0  0  0  0  0  0  0  0  0  0  0  0
   -3.9830   19.2670  -32.9230 H   0  0  0  0  0  0  0  0  0  0  0  0
   -7.6538   21.9500  -32.5112 H   0  0  0  0  0  0  0  0  0  0  0  0
   -7.1127   24.2564  -31.7474 H   0  0  0  0  0  0  0  0  0  0  0  0
  1  2  1  0
  2  3  1  0
  3  4  2  0
  4  5  1  0
  5  6  2  0
  6  7  1  0
  7  8  2  0
  8  9  1  0
  9 10  2  0
 10 11  1  0
 11 12  2  0
 12 13  1  0
 13 14  1  0
 12 15  1  0
 15 16  2  0
 16 17  1  0
 17 18  2  0
  6 19  1  0
 19 20  2  0
 20  3  1  0
 18  7  1  0
 17 10  1  0
  1 21  1  0
  1 22  1  0
  1 23  1  0
  4 24  1  0
  5 25  1  0
  8 26  1  0
 11 27  1  0
 14 28  1  0
 14 29  1  0
 14 30  1  0
 15 31  1  0
 16 32  1  0
 18 33  1  0
 19 34  1  0
 20 35  1  0
M  CHG  1  18   1
M  END
>  <UniqueID>  (36) 
34

>  <SMILES>  (36) 
COc1ccc(-c2cnc3cc(OC)ccc3[nH+]2)cc1

>  <Energy>  (36) 
45.06846572380269

>  <Genealogy>  (36) 
COc1ccc(-c2cnc3cc(OC)ccc3[nH+]2)cc1 (protonated)
COc1ccc(-c2cnc3cc(OC)ccc3[nH+]2)cc1 (3D coordinates assigned)
COc1ccc(-c2cnc3cc(OC)ccc3[nH+]2)cc1 (optimized conformer: 45.06846572380269 kcal/mol)

>  <smiles>  (36) 
COc1ccc(-c2cnc3cc(OC)ccc3n2)cc1

>  <score_type>  (36) 
oracle

>  <origin>  (36) 
adg

>  <m_score__min__energy>  (36) 
-5.9400000000000004

>  <m_primary>  (36) 
energy

$$$$
36:0
     RDKit          3D

 38 41  0  0  0  0  0  0  0  0999 V2000
   -7.3086   25.4211  -31.0672 H   0  0  0  0  0  0  0  0  0  0  0  0
   -6.4920   24.9030  -30.5430 C   0  0  0  0  0  0  0  0  0  0  0  0
   -6.0220   25.2330  -29.3430 C   0  0  0  0  0  0  0  0  0  0  0  0
   -6.3699   26.0734  -28.7244 H   0  0  0  0  0  0  0  0  0  0  0  0
   -4.9670   24.2910  -28.9870 C   0  0  0  0  0  0  0  0  0  0  0  0
   -4.2360   24.2090  -27.8020 C   0  0  0  0  0  0  0  0  0  0  0  0
   -4.3719   24.9512  -27.0016 H   0  0  0  0  0  0  0  0  0  0  0  0
   -3.3220   23.1530  -27.6590 C   0  0  0  0  0  0  0  0  0  0  0  0
   -2.7171   23.0737  -26.7437 H   0  0  0  0  0  0  0  0  0  0  0  0
   -3.1750   22.1950  -28.6800 C   0  0  0  0  0  0  0  0  0  0  0  0
   -2.4637   21.3657  -28.5526 H   0  0  0  0  0  0  0  0  0  0  0  0
   -3.9310   22.2910  -29.8610 C   0  0  0  0  0  0  0  0  0  0  0  0
   -3.8389   21.5327  -30.6525 H   0  0  0  0  0  0  0  0  0  0  0  0
   -4.8050   23.3770  -30.0050 C   0  0  0  0  0  0  0  0  0  0  0  0
   -5.7560   23.7420  -31.0630 C   0  0  0  0  0  0  0  0  0  0  0  0
   -5.9560   23.2050  -32.2740 C   0  0  0  0  0  0  0  0  0  0  0  0
   -6.2765   23.8722  -33.0877 H   0  0  0  0  0  0  0  0  0  0  0  0
   -5.7730   21.7740  -32.5840 C   0  0  0  0  0  0  0  0  0  0  0  0
   -4.5360   21.3440  -33.0850 C   0  0  0  0  0  0  0  0  0  0  0  0
   -3.7162   22.0660  -33.2145 H   0  0  0  0  0  0  0  0  0  0  0  0
   -4.3400   19.9950  -33.4220 C   0  0  0  0  0  0  0  0  0  0  0  0
   -3.1100   19.5200  -33.9030 O   0  0  0  0  0  0  0  0  0  0  0  0
   -1.8800   20.2340  -33.8180 C   0  0  0  0  0  0  0  0  0  0  0  0
   -1.6170   20.3867  -32.7609 H   0  0  0  0  0  0  0  0  0  0  0  0
   -1.0858   19.6565  -34.3137 H   0  0  0  0  0  0  0  0  0  0  0  0
   -1.9876   21.2100  -34.3137 H   0  0  0  0  0  0  0  0  0  0  0  0
   -5.3680   19.1140  -33.2830 N   0  0  0  0  0  0  0  0  0  0  0  0
   -5.2000   18.1150  -33.5430 H   0  0  0  0  0  0  0  0  0  0  0  0
   -6.5940   19.4960  -32.8220 C   0  0  0  0  0  0  0  0  0  0  0  0
   -7.6260   18.5520  -32.7010 C   0  0  0  0  0  0  0  0  0  0  0  0
   -7.4446   17.5041  -32.9820 H   0  0  0  0  0  0  0  0  0  0  0  0
   -8.8810   18.9360  -32.2260 C   0  0  0  0  0  0  0  0  0  0  0  0
   -9.6850   18.1908  -32.1351 H   0  0  0  0  0  0  0  0  0  0  0  0
   -9.1180   20.2640  -31.8660 C   0  0  0  0  0  0  0  0  0  0  0  0
  -10.1081   20.5620  -31.4907 H   0  0  0  0  0  0  0  0  0  0  0  0
   -8.1010   21.2160  -31.9810 C   0  0  0  0  0  0  0  0  0  0  0  0
   -8.2944   22.2601  -31.6937 H   0  0  0  0  0  0  0  0  0  0  0  0
   -6.8290   20.8460  -32.4630 C   0  0  0  0  0  0  0  0  0  0  0  0
  1  2  1  0
  2  3  2  0
  3  4  1  0
  3  5  1  0
  5  6  2  0
  6  7  1  0
  6  8  1  0
  8  9  1  0
  8 10  2  0
 10 11  1  0
 10 12  1  0
 12 13  1  0
 12 14  2  0
 14 15  1  0
 15 16  2  0
 16 17  1  0
 16 18  1  0
 18 19  2  0
 19 20  1  0
 19 21  1  0
 21 22  1  0
 22 23  1  0
 23 24  1  0
 23 25  1  0
 23 26  1  0
 21 27  2  0
 27 28  1  0
 27 29  1  0
 29 30  2  0
 30 31  1  0
 30 32  1  0
 32 33  1  0
 32 34  2  0
 34 35  1  0
 34 36  1  0
 36 37  1  0
 36 38  2  0
 15  2  1  0
 38 18  1  0
 14  5  1  0
 38 29  1  0
M  CHG  1  27   1
M  END
>  <UniqueID>  (37) 
35

>  <SMILES>  (37) 
COc1cc(/C=C2/C=Cc3ccccc32)c2ccccc2[nH+]1

>  <Energy>  (37) 
81.3864703688227

>  <Genealogy>  (37) 
COc1cc(C=C2C=Cc3ccccc32)c2ccccc2[nH+]1 (protonated)
COc1cc(/C=C2/C=Cc3ccccc32)c2ccccc2[nH+]1 (cis-trans isomerization)
COc1cc(/C=C2/C=Cc3ccccc32)c2ccccc2[nH+]1 (3D coordinates assigned)
COc1cc(/C=C2/C=Cc3ccccc32)c2ccccc2[nH+]1 (nonaromatic ring conformer: 81.3864703688227 kcal/mol)

>  <smiles>  (37) 
COc1cc(C=C2C=Cc3ccccc32)c2ccccc2n1

>  <score_type>  (37) 
oracle

>  <origin>  (37) 
adg

>  <m_score__min__energy>  (37) 
-7.8899999999999997

>  <m_primary>  (37) 
energy

$$$$
37:0
     RDKit          3D

 54 55  0  0  0  0  0  0  0  0999 V2000
   -4.0260   24.4950  -27.0560 C   0  0  0  0  0  0  0  0  0  0  0  0
   -3.6480   23.1990  -27.7720 C   0  0  0  0  0  0  0  0  0  0  0  0
   -2.7320   23.4500  -28.8910 N   0  0  0  0  0  0  0  0  0  0  0  0
   -1.5060   24.2280  -28.6930 C   0  0  0  0  0  0  0  0  0  0  0  0
   -2.9430   22.7890  -30.1510 C   0  0  0  0  0  0  0  0  0  0  0  0
   -2.2960   21.5730  -30.4140 C   0  0  0  0  0  0  0  0  0  0  0  0
   -2.5020   20.9070  -31.6230 C   0  0  0  0  0  0  0  0  0  0  0  0
   -3.3590   21.4480  -32.5940 C   0  0  0  0  0  0  0  0  0  0  0  0
   -3.5900   20.7450  -33.8350 N   0  0  0  0  0  0  0  0  0  0  0  0
   -3.4050   19.3200  -33.6690 C   0  0  0  0  0  0  0  0  0  0  0  0
   -1.9610   18.6340  -34.0640 S   0  0  0  0  0  0  0  0  0  0  0  0
   -4.3400   18.5210  -32.9160 N   0  0  0  0  0  0  0  0  0  0  0  0
   -5.5410   19.0350  -32.2610 C   0  0  0  0  0  0  0  0  0  0  0  0
   -6.6270   19.3420  -33.2960 C   0  0  0  0  0  0  0  0  0  0  0  0
   -7.5900   20.3760  -32.7700 C   0  0  0  0  0  0  0  0  0  0  0  0
   -8.8940   20.0910  -32.6200 C   0  0  0  0  0  0  0  0  0  0  0  0
   -9.8130   21.1240  -32.0260 C   0  0  0  0  0  0  0  0  0  0  0  0
   -9.1740   21.7660  -30.7810 C   0  0  0  0  0  0  0  0  0  0  0  0
   -7.6600   22.0770  -30.9370 C   0  0  0  0  0  0  0  0  0  0  0  0
   -7.0960   21.7340  -32.3270 C   0  0  0  0  0  0  0  0  0  0  0  0
   -4.0120   22.6650  -32.3310 C   0  0  0  0  0  0  0  0  0  0  0  0
   -3.8080   23.3430  -31.1130 C   0  0  0  0  0  0  0  0  0  0  0  0
   -4.4380   24.5640  -30.8300 O   0  0  0  0  0  0  0  0  0  0  0  0
   -5.7170   24.6930  -30.2180 C   0  0  0  0  0  0  0  0  0  0  0  0
   -3.9806   24.3395  -25.9680 H   0  0  0  0  0  0  0  0  0  0  0  0
   -3.3225   25.2907  -27.3423 H   0  0  0  0  0  0  0  0  0  0  0  0
   -5.0469   24.7877  -27.3423 H   0  0  0  0  0  0  0  0  0  0  0  0
   -3.1590   22.5237  -27.0544 H   0  0  0  0  0  0  0  0  0  0  0  0
   -4.5666   22.7457  -28.1730 H   0  0  0  0  0  0  0  0  0  0  0  0
   -1.3176   24.3476  -27.6159 H   0  0  0  0  0  0  0  0  0  0  0  0
   -0.6589   23.7019  -29.1573 H   0  0  0  0  0  0  0  0  0  0  0  0
   -1.6213   25.2185  -29.1573 H   0  0  0  0  0  0  0  0  0  0  0  0
   -1.6206   21.1405  -29.6612 H   0  0  0  0  0  0  0  0  0  0  0  0
   -1.9899   19.9528  -31.8160 H   0  0  0  0  0  0  0  0  0  0  0  0
   -2.9330   21.1380  -34.5440 H   0  0  0  0  0  0  0  0  0  0  0  0
   -4.5600   20.9150  -34.1860 H   0  0  0  0  0  0  0  0  0  0  0  0
   -4.1080   17.5150  -32.7540 H   0  0  0  0  0  0  0  0  0  0  0  0
   -5.9179   18.2818  -31.5535 H   0  0  0  0  0  0  0  0  0  0  0  0
   -5.2858   19.9625  -31.7275 H   0  0  0  0  0  0  0  0  0  0  0  0
   -6.1539   19.7231  -34.2131 H   0  0  0  0  0  0  0  0  0  0  0  0
   -7.1835   18.4172  -33.5084 H   0  0  0  0  0  0  0  0  0  0  0  0
   -9.2867   19.1110  -32.9287 H   0  0  0  0  0  0  0  0  0  0  0  0
  -10.0105   21.9054  -32.7746 H   0  0  0  0  0  0  0  0  0  0  0  0
  -10.7525   20.6345  -31.7299 H   0  0  0  0  0  0  0  0  0  0  0  0
   -9.7006   22.7082  -30.5688 H   0  0  0  0  0  0  0  0  0  0  0  0
   -9.2663   21.0358  -29.9635 H   0  0  0  0  0  0  0  0  0  0  0  0
   -7.5060   23.1509  -30.7555 H   0  0  0  0  0  0  0  0  0  0  0  0
   -7.1267   21.4467  -30.2102 H   0  0  0  0  0  0  0  0  0  0  0  0
   -7.4254   22.4943  -33.0505 H   0  0  0  0  0  0  0  0  0  0  0  0
   -5.9974   21.7168  -32.2744 H   0  0  0  0  0  0  0  0  0  0  0  0
   -4.6897   23.0926  -33.0846 H   0  0  0  0  0  0  0  0  0  0  0  0
   -5.6028   24.6815  -29.1240 H   0  0  0  0  0  0  0  0  0  0  0  0
   -6.1780   25.6422  -30.5286 H   0  0  0  0  0  0  0  0  0  0  0  0
   -6.3583   23.8550  -30.5286 H   0  0  0  0  0  0  0  0  0  0  0  0
  1  2  1  0
  2  3  1  0
  3  4  1  0
  3  5  1  0
  5  6  2  0
  6  7  1  0
  7  8  2  0
  8  9  1  0
  9 10  1  0
 10 11  2  0
 10 12  1  0
 12 13  1  0
 13 14  1  0
 14 15  1  0
 15 16  2  0
 16 17  1  0
 17 18  1  0
 18 19  1  0
 19 20  1  0
  8 21  1  0
 21 22  2  0
 22 23  1  0
 23 24  1  0
 22  5  1  0
 20 15  1  0
  1 25  1  0
  1 26  1  0
  1 27  1  0
  2 28  1  0
  2 29  1  0
  4 30  1  0
  4 31  1  0
  4 32  1  0
  6 33  1  0
  7 34  1  0
  9 35  1  0
  9 36  1  0
 12 37  1  0
 13 38  1  0
 13 39  1  0
 14 40  1  0
 14 41  1  0
 16 42  1  0
 17 43  1  0
 17 44  1  0
 18 45  1  0
 18 46  1  0
 19 47  1  0
 19 48  1  0
 20 49  1  0
 20 50  1  0
 21 51  1  0
 24 52  1  0
 24 53  1  0
 24 54  1  0
M  CHG  1   9   1
M  END
>  <UniqueID>  (38) 
36

>  <SMILES>  (38) 
CCN(C)c1ccc([NH2+]C(=S)NCCC2=CCCCC2)cc1OC

>  <Energy>  (38) 
52.811034113492525

>  <Genealogy>  (38) 
CCN(C)c1ccc([NH2+]C(=S)NCCC2=CCCCC2)cc1OC (protonated)
CCN(C)c1ccc([NH2+]C(=S)NCCC2=CCCCC2)cc1OC (3D coordinates assigned)
CCN(C)c1ccc([NH2+]C(=S)NCCC2=CCCCC2)cc1OC (nonaromatic ring conformer: 52.811034113492525 kcal/mol)

>  <smiles>  (38) 
CCN(C)c1ccc(NC(=S)NCCC2=CCCCC2)cc1OC

>  <score_type>  (38) 
oracle

>  <origin>  (38) 
adg

>  <m_score__min__energy>  (38) 
-7.9000000000000004

>  <m_primary>  (38) 
energy

$$$$
38:0
     RDKit          3D

 58 61  0  0  0  0  0  0  0  0999 V2000
   -3.7790   21.1030  -33.4950 C   0  0  0  0  0  0  0  0  0  0  0  0
   -3.8730   21.0520  -32.0760 O   0  0  0  0  0  0  0  0  0  0  0  0
   -3.0570   21.7760  -31.1930 C   0  0  0  0  0  0  0  0  0  0  0  0
   -1.7460   21.3640  -30.8800 C   0  0  0  0  0  0  0  0  0  0  0  0
   -0.9740   22.0960  -29.9720 C   0  0  0  0  0  0  0  0  0  0  0  0
   -1.4990   23.2390  -29.3690 C   0  0  0  0  0  0  0  0  0  0  0  0
   -2.7950   23.6600  -29.6760 C   0  0  0  0  0  0  0  0  0  0  0  0
   -3.5740   22.9380  -30.5930 C   0  0  0  0  0  0  0  0  0  0  0  0
   -4.9000   23.3860  -30.9100 N   0  0  0  0  0  0  0  0  0  0  0  0
   -5.3500   23.3570  -32.3020 C   0  0  0  0  0  0  0  0  0  0  0  0
   -6.8180   23.8000  -32.4020 C   0  0  0  0  0  0  0  0  0  0  0  0
   -7.6320   23.2240  -31.3060 N   0  0  0  0  0  0  0  0  0  0  0  0
   -7.7840   21.7350  -31.3230 C   0  0  1  0  0  0  0  0  0  0  0  0
   -9.3010   21.3540  -31.2850 C   0  0  0  0  0  0  0  0  0  0  0  0
   -9.7390   20.3290  -32.3410 C   0  0  0  0  0  0  0  0  0  0  0  0
   -8.7650   19.1530  -32.4130 C   0  0  0  0  0  0  0  0  0  0  0  0
   -7.3710   19.6080  -32.5270 N   0  0  0  0  0  0  0  0  0  0  0  0
   -6.3320   18.6120  -32.6700 C   0  0  0  0  0  0  0  0  0  0  0  0
   -5.7690   18.1540  -31.6370 O   0  0  0  0  0  0  0  0  0  0  0  0
   -5.9070   18.0960  -34.0220 C   0  0  0  0  0  0  0  0  0  0  0  0
   -4.4710   17.8230  -34.0590 N   0  0  0  0  0  0  0  0  0  0  0  0
   -3.8300   17.0480  -34.9570 C   0  0  0  0  0  0  0  0  0  0  0  0
   -2.4890   17.0130  -34.6230 C   0  0  0  0  0  0  0  0  0  0  0  0
   -2.3810   17.7960  -33.4870 C   0  0  0  0  0  0  0  0  0  0  0  0
   -3.5990   18.2690  -33.1700 N   0  0  0  0  0  0  0  0  0  0  0  0
   -7.0860   21.0530  -32.5300 C   0  0  0  0  0  0  0  0  0  0  0  0
   -7.1740   23.7330  -29.9780 C   0  0  0  0  0  0  0  0  0  0  0  0
   -5.6800   24.1270  -29.9160 C   0  0  0  0  0  0  0  0  0  0  0  0
   -2.8458   21.6093  -33.7827 H   0  0  0  0  0  0  0  0  0  0  0  0
   -3.7810   20.0801  -33.8996 H   0  0  0  0  0  0  0  0  0  0  0  0
   -4.6376   21.6590  -33.8996 H   0  0  0  0  0  0  0  0  0  0  0  0
   -1.3280   20.4626  -31.3520 H   0  0  0  0  0  0  0  0  0  0  0  0
    0.0490   21.7698  -29.7330 H   0  0  0  0  0  0  0  0  0  0  0  0
   -0.8917   23.8095  -28.6509 H   0  0  0  0  0  0  0  0  0  0  0  0
   -3.2064   24.5608  -29.1972 H   0  0  0  0  0  0  0  0  0  0  0  0
   -4.7250   24.0376  -32.8988 H   0  0  0  0  0  0  0  0  0  0  0  0
   -5.2617   22.3290  -32.6832 H   0  0  0  0  0  0  0  0  0  0  0  0
   -6.8654   24.8975  -32.3444 H   0  0  0  0  0  0  0  0  0  0  0  0
   -7.2234   23.4417  -33.3597 H   0  0  0  0  0  0  0  0  0  0  0  0
   -7.2767   21.3568  -30.4232 H   0  0  0  0  0  0  0  0  0  0  0  0
   -9.5234   20.9369  -30.2917 H   0  0  0  0  0  0  0  0  0  0  0  0
   -9.8558   22.2781  -31.5047 H   0  0  0  0  0  0  0  0  0  0  0  0
  -10.7384   19.9508  -32.0800 H   0  0  0  0  0  0  0  0  0  0  0  0
   -9.7545   20.8268  -33.3218 H   0  0  0  0  0  0  0  0  0  0  0  0
   -8.8690   18.5475  -31.5005 H   0  0  0  0  0  0  0  0  0  0  0  0
   -9.0071   18.5613  -33.3081 H   0  0  0  0  0  0  0  0  0  0  0  0
   -6.4541   17.1667  -34.2391 H   0  0  0  0  0  0  0  0  0  0  0  0
   -6.1336   18.8658  -34.7744 H   0  0  0  0  0  0  0  0  0  0  0  0
   -4.2948   16.5317  -35.8099 H   0  0  0  0  0  0  0  0  0  0  0  0
   -1.6826   16.4786  -35.1466 H   0  0  0  0  0  0  0  0  0  0  0  0
   -1.4516   17.9981  -32.9344 H   0  0  0  0  0  0  0  0  0  0  0  0
   -3.8320   18.8740  -32.3520 H   0  0  0  0  0  0  0  0  0  0  0  0
   -5.9996   21.2100  -32.4587 H   0  0  0  0  0  0  0  0  0  0  0  0
   -7.4666   21.4939  -33.4632 H   0  0  0  0  0  0  0  0  0  0  0  0
   -7.7729   24.6207  -29.7264 H   0  0  0  0  0  0  0  0  0  0  0  0
   -7.3062   22.9050  -29.2661 H   0  0  0  0  0  0  0  0  0  0  0  0
   -5.5837   25.2048  -30.1138 H   0  0  0  0  0  0  0  0  0  0  0  0
   -5.2945   23.8829  -28.9151 H   0  0  0  0  0  0  0  0  0  0  0  0
  1  2  1  0
  2  3  1  0
  3  4  2  0
  4  5  1  0
  5  6  2  0
  6  7  1  0
  7  8  2  0
  8  9  1  0
  9 10  1  0
 10 11  1  0
 11 12  1  0
 12 13  1  0
 13 14  1  0
 14 15  1  0
 15 16  1  0
 16 17  1  0
 17 18  1  0
 18 19  2  0
 18 20  1  0
 20 21  1  0
 21 22  1  0
 22 23  2  0
 23 24  1  0
 24 25  2  0
 17 26  1  0
 12 27  1  0
 27 28  1  0
  8  3  1  0
 28  9  1  0
 26 13  1  0
 25 21  1  0
  1 29  1  0
  1 30  1  0
  1 31  1  0
  4 32  1  0
  5 33  1  0
  6 34  1  0
  7 35  1  0
 10 36  1  0
 10 37  1  0
 11 38  1  0
 11 39  1  0
 13 40  1  1
 14 41  1  0
 14 42  1  0
 15 43  1  0
 15 44  1  0
 16 45  1  0
 16 46  1  0
 20 47  1  0
 20 48  1  0
 22 49  1  0
 23 50  1  0
 24 51  1  0
 25 52  1  0
 26 53  1  0
 26 54  1  0
 27 55  1  0
 27 56  1  0
 28 57  1  0
 28 58  1  0
M  CHG  1  25   1
M  END
>  <UniqueID>  (39) 
37

>  <SMILES>  (39) 
COc1ccccc1N1CCN([C@H]2CCCN(C(=O)Cn3ccc[nH+]3)C2)CC1

>  <Energy>  (39) 
108.81320521366094

>  <Genealogy>  (39) 
COc1ccccc1N1CCN(C2CCCN(C(=O)Cn3ccc[nH+]3)C2)CC1 (protonated)
COc1ccccc1N1CCN([C@H]2CCCN(C(=O)Cn3ccc[nH+]3)C2)CC1 (chirality)
COc1ccccc1N1CCN([C@H]2CCCN(C(=O)Cn3ccc[nH+]3)C2)CC1 (3D coordinates assigned)
COc1ccccc1N1CCN([C@H]2CCCN(C(=O)Cn3ccc[nH+]3)C2)CC1 (nonaromatic ring conformer: 108.81320521366094 kcal/mol)

>  <smiles>  (39) 
COc1ccccc1N1CCN(C2CCCN(C(=O)Cn3cccn3)C2)CC1

>  <score_type>  (39) 
oracle

>  <origin>  (39) 
adg

>  <m_score__min__energy>  (39) 
-8.7200000000000006

>  <m_primary>  (39) 
energy

$$$$
39:0
     RDKit          3D

 30 30  0  0  0  0  0  0  0  0999 V2000
   -9.0730   22.5830  -31.9210 C   0  0  0  0  0  0  0  0  0  0  0  0
   -9.8450   21.2680  -32.0200 C   0  0  0  0  0  0  0  0  0  0  0  0
   -8.9800   20.0600  -31.6400 C   0  0  0  0  0  0  0  0  0  0  0  0
   -8.1540   19.6110  -32.7630 N   0  0  0  0  0  0  0  0  0  0  0  0
   -6.8150   20.0810  -32.9810 C   0  0  0  0  0  0  0  0  0  0  0  0
   -5.9470   19.4330  -34.2160 S   0  0  0  0  0  0  0  0  0  0  0  0
   -6.2450   21.1060  -32.1430 N   0  0  0  0  0  0  0  0  0  0  0  0
   -4.8390   21.5120  -32.2360 C   0  0  0  0  0  0  0  0  0  0  0  0
   -4.3350   22.1000  -30.9150 C   0  0  0  0  0  0  0  0  0  0  0  0
   -5.0030   23.3660  -30.6220 N   0  0  0  0  0  0  0  0  0  0  0  0
   -6.2540   23.5080  -30.1450 C   0  0  0  0  0  0  0  0  0  0  0  0
   -6.5280   24.8550  -30.0520 C   0  0  0  0  0  0  0  0  0  0  0  0
   -5.3810   25.4810  -30.5000 C   0  0  0  0  0  0  0  0  0  0  0  0
   -4.4660   24.5550  -30.8470 N   0  0  0  0  0  0  0  0  0  0  0  0
   -8.9218   22.8406  -30.8623 H   0  0  0  0  0  0  0  0  0  0  0  0
   -8.0962   22.4728  -32.4147 H   0  0  0  0  0  0  0  0  0  0  0  0
   -9.6453   23.3822  -32.4147 H   0  0  0  0  0  0  0  0  0  0  0  0
  -10.7095   21.3125  -31.3413 H   0  0  0  0  0  0  0  0  0  0  0  0
  -10.1635   21.1406  -33.0651 H   0  0  0  0  0  0  0  0  0  0  0  0
   -8.3227   20.3410  -30.8039 H   0  0  0  0  0  0  0  0  0  0  0  0
   -9.6493   19.2349  -31.3549 H   0  0  0  0  0  0  0  0  0  0  0  0
   -8.5410   18.9060  -33.4320 H   0  0  0  0  0  0  0  0  0  0  0  0
   -6.8550   21.5790  -31.4400 H   0  0  0  0  0  0  0  0  0  0  0  0
   -4.2294   20.6327  -32.4913 H   0  0  0  0  0  0  0  0  0  0  0  0
   -4.7545   22.2865  -33.0125 H   0  0  0  0  0  0  0  0  0  0  0  0
   -4.5394   21.3878  -30.1020 H   0  0  0  0  0  0  0  0  0  0  0  0
   -3.2538   22.2835  -31.0006 H   0  0  0  0  0  0  0  0  0  0  0  0
   -6.9387   22.6902  -29.8761 H   0  0  0  0  0  0  0  0  0  0  0  0
   -7.4561   25.3280  -29.6987 H   0  0  0  0  0  0  0  0  0  0  0  0
   -5.2367   26.5696  -30.5637 H   0  0  0  0  0  0  0  0  0  0  0  0
  1  2  1  0
  2  3  1  0
  3  4  1  0
  4  5  1  0
  5  6  2  0
  5  7  1  0
  7  8  1  0
  8  9  1  0
  9 10  1  0
 10 11  1  0
 11 12  2  0
 12 13  1  0
 13 14  2  0
 14 10  1  0
  1 15  1  0
  1 16  1  0
  1 17  1  0
  2 18  1  0
  2 19  1  0
  3 20  1  0
  3 21  1  0
  4 22  1  0
  7 23  1  0
  8 24  1  0
  8 25  1  0
  9 26  1  0
  9 27  1  0
 11 28  1  0
 12 29  1  0
 13 30  1  0
M  END
>  <UniqueID>  (40) 
38

>  <SMILES>  (40) 
CCCNC(=S)NCCn1cccn1

>  <Energy>  (40) 
46.432340883547404

>  <Genealogy>  (40) 
CCCNC(=S)NCCn1cccn1 (3D coordinates assigned)
CCCNC(=S)NCCn1cccn1 (optimized conformer: 46.432340883547404 kcal/mol)

>  <smiles>  (40) 
CCCNC(=S)NCCn1cccn1

>  <score_type>  (40) 
oracle

>  <origin>  (40) 
adg

>  <m_score__min__energy>  (40) 
-5.5599999999999996

>  <m_primary>  (40) 
energy

$$$$
40:0
     RDKit          3D

 23 23  0  0  0  0  0  0  0  0999 V2000
   -8.8794   22.1053  -29.9492 H   0  0  0  0  0  0  0  0  0  0  0  0
   -8.2580   22.2240  -30.8490 C   0  0  0  0  0  0  0  0  0  0  0  0
   -8.6530   21.6100  -31.9710 C   0  0  0  0  0  0  0  0  0  0  0  0
   -8.7350   22.1845  -32.9055 H   0  0  0  0  0  0  0  0  0  0  0  0
   -8.9840   20.1520  -31.9680 C   0  0  0  0  0  0  0  0  0  0  0  0
   -9.0647   19.7965  -30.9302 H   0  0  0  0  0  0  0  0  0  0  0  0
   -9.9413   19.9923  -32.4858 H   0  0  0  0  0  0  0  0  0  0  0  0
   -8.1895   19.5946  -32.4858 H   0  0  0  0  0  0  0  0  0  0  0  0
   -7.0330   23.0550  -30.7450 C   0  0  0  0  0  0  0  0  0  0  0  0
   -7.0380   24.3420  -30.1720 C   0  0  0  0  0  0  0  0  0  0  0  0
   -7.9777   24.7670  -29.7896 H   0  0  0  0  0  0  0  0  0  0  0  0
   -5.8560   25.0810  -30.0870 C   0  0  0  0  0  0  0  0  0  0  0  0
   -5.8700   26.0865  -29.6411 H   0  0  0  0  0  0  0  0  0  0  0  0
   -4.6570   24.5500  -30.5650 C   0  0  0  0  0  0  0  0  0  0  0  0
   -3.4900   25.3010  -30.4740 O   0  0  0  0  0  0  0  0  0  0  0  0
   -4.6250   23.2670  -31.1260 C   0  0  0  0  0  0  0  0  0  0  0  0
   -3.3950   22.7700  -31.5890 O   0  0  0  0  0  0  0  0  0  0  0  0
   -3.2530   21.6350  -32.4360 C   0  0  0  0  0  0  0  0  0  0  0  0
   -3.1398   20.7302  -31.8207 H   0  0  0  0  0  0  0  0  0  0  0  0
   -4.1459   21.5373  -33.0709 H   0  0  0  0  0  0  0  0  0  0  0  0
   -2.3635   21.7603  -33.0709 H   0  0  0  0  0  0  0  0  0  0  0  0
   -5.8180   22.5230  -31.2090 C   0  0  0  0  0  0  0  0  0  0  0  0
   -5.7984   21.5123  -31.6427 H   0  0  0  0  0  0  0  0  0  0  0  0
  1  2  1  0
  2  3  2  0
  3  4  1  0
  3  5  1  0
  5  6  1  0
  5  7  1  0
  5  8  1  0
  2  9  1  0
  9 10  2  0
 10 11  1  0
 10 12  1  0
 12 13  1  0
 12 14  2  0
 14 15  1  0
 14 16  1  0
 16 17  1  0
 17 18  1  0
 18 19  1  0
 18 20  1  0
 18 21  1  0
 16 22  2  0
 22 23  1  0
 22  9  1  0
M  CHG  1  15  -1
M  END
>  <UniqueID>  (41) 
39

>  <SMILES>  (41) 
C/C=C/c1ccc([O-])c(OC)c1

>  <Energy>  (41) 
20.05753390920541

>  <Genealogy>  (41) 
CC=Cc1ccc([O-])c(OC)c1 (protonated)
C/C=C/c1ccc([O-])c(OC)c1 (cis-trans isomerization)
C/C=C/c1ccc([O-])c(OC)c1 (3D coordinates assigned)
C/C=C/c1ccc([O-])c(OC)c1 (optimized conformer: 20.05753390920541 kcal/mol)

>  <smiles>  (41) 
CC=Cc1ccc(O)c(OC)c1

>  <score_type>  (41) 
oracle

>  <origin>  (41) 
adg

>  <m_score__min__energy>  (41) 
-8.5399999999999991

>  <m_primary>  (41) 
energy

$$$$
41:0
     RDKit          3D

 35 38  0  0  0  0  0  0  0  0999 V2000
   -5.8930   18.2910  -34.0880 C   0  0  0  0  0  0  0  0  0  0  0  0
   -5.0160   19.4000  -33.5900 C   0  0  0  0  0  0  0  0  0  0  0  0
   -3.6570   19.4790  -33.8440 C   0  0  0  0  0  0  0  0  0  0  0  0
   -3.2220   20.6770  -33.3150 C   0  0  0  0  0  0  0  0  0  0  0  0
   -4.3330   21.2790  -32.7570 C   0  0  0  0  0  0  0  0  0  0  0  0
   -5.4220   20.4910  -32.8970 N   0  0  0  0  0  0  0  0  0  0  0  0
   -6.7210   20.8300  -32.3640 C   0  0  0  0  0  0  0  0  0  0  0  0
   -7.5950   19.8420  -31.8730 C   0  0  0  0  0  0  0  0  0  0  0  0
   -8.7690   20.2030  -31.2050 C   0  0  0  0  0  0  0  0  0  0  0  0
   -9.0650   21.5490  -30.9840 C   0  0  0  0  0  0  0  0  0  0  0  0
   -8.1880   22.5380  -31.4310 C   0  0  0  0  0  0  0  0  0  0  0  0
   -7.0250   22.1860  -32.1250 C   0  0  0  0  0  0  0  0  0  0  0  0
   -5.9120   23.4850  -32.6930 S   0  0  0  0  0  0  0  0  0  0  0  0
   -4.3760   22.6540  -32.1440 C   0  0  1  0  0  0  0  0  0  0  0  0
   -4.2560   22.6770  -30.6300 C   0  0  0  0  0  0  0  0  0  0  0  0
   -3.5390   21.6430  -29.9990 C   0  0  0  0  0  0  0  0  0  0  0  0
   -3.3690   21.6390  -28.6120 C   0  0  0  0  0  0  0  0  0  0  0  0
   -3.9050   22.6690  -27.8380 C   0  0  0  0  0  0  0  0  0  0  0  0
   -4.6110   23.7070  -28.4490 C   0  0  0  0  0  0  0  0  0  0  0  0
   -4.7850   23.7160  -29.8360 C   0  0  0  0  0  0  0  0  0  0  0  0
   -6.3212   17.7495  -33.2316 H   0  0  0  0  0  0  0  0  0  0  0  0
   -6.7051   18.7120  -34.6989 H   0  0  0  0  0  0  0  0  0  0  0  0
   -5.2962   17.5977  -34.6989 H   0  0  0  0  0  0  0  0  0  0  0  0
   -3.0427   18.7310  -34.3667 H   0  0  0  0  0  0  0  0  0  0  0  0
   -2.1960   21.0732  -33.3339 H   0  0  0  0  0  0  0  0  0  0  0  0
   -7.3527   18.7786  -32.0158 H   0  0  0  0  0  0  0  0  0  0  0  0
   -9.4613   19.4241  -30.8527 H   0  0  0  0  0  0  0  0  0  0  0  0
   -9.9892   21.8300  -30.4577 H   0  0  0  0  0  0  0  0  0  0  0  0
   -8.4115   23.5975  -31.2373 H   0  0  0  0  0  0  0  0  0  0  0  0
   -3.4853   23.1945  -32.4969 H   0  0  0  0  0  0  0  0  0  0  0  0
   -3.1086   20.8308  -30.6032 H   0  0  0  0  0  0  0  0  0  0  0  0
   -2.8117   20.8225  -28.1295 H   0  0  0  0  0  0  0  0  0  0  0  0
   -3.7712   22.6631  -26.7462 H   0  0  0  0  0  0  0  0  0  0  0  0
   -5.0312   24.5193  -27.8378 H   0  0  0  0  0  0  0  0  0  0  0  0
   -5.3384   24.5391  -30.3116 H   0  0  0  0  0  0  0  0  0  0  0  0
  1  2  1  0
  2  3  2  0
  3  4  1  0
  4  5  2  0
  5  6  1  0
  6  7  1  0
  7  8  2  0
  8  9  1  0
  9 10  2  0
 10 11  1  0
 11 12  2  0
 12 13  1  0
 13 14  1  0
 14 15  1  0
 15 16  2  0
 16 17  1  0
 17 18  2  0
 18 19  1  0
 19 20  2  0
  6  2  1  0
 12  7  1  0
 20 15  1  0
 14  5  1  0
  1 21  1  0
  1 22  1  0
  1 23  1  0
  3 24  1  0
  4 25  1  0
  8 26  1  0
  9 27  1  0
 10 28  1  0
 11 29  1  0
 14 30  1  6
 16 31  1  0
 17 32  1  0
 18 33  1  0
 19 34  1  0
 20 35  1  0
M  END
>  <UniqueID>  (42) 
40

>  <SMILES>  (42) 
Cc1ccc2n1-c1ccccc1S[C@H]2c1ccccc1

>  <Energy>  (42) 
76.42709844677287

>  <Genealogy>  (42) 
Cc1ccc2n1-c1ccccc1S[C@H]2c1ccccc1 (chirality)
Cc1ccc2n1-c1ccccc1S[C@H]2c1ccccc1 (3D coordinates assigned)
Cc1ccc2n1-c1ccccc1S[C@H]2c1ccccc1 (nonaromatic ring conformer: 76.42709844677287 kcal/mol)

>  <smiles>  (42) 
Cc1ccc2n1-c1ccccc1SC2c1ccccc1

>  <score_type>  (42) 
oracle

>  <origin>  (42) 
adg

>  <m_score__min__energy>  (42) 
-7.4800000000000004

>  <m_primary>  (42) 
energy

$$$$
42:0
     RDKit          3D

 39 41  0  0  0  0  0  0  0  0999 V2000
   -2.2690   24.6040  -28.1130 C   0  0  0  0  0  0  0  0  0  0  0  0
   -2.7180   25.1440  -29.3490 O   0  0  0  0  0  0  0  0  0  0  0  0
   -3.7590   24.5760  -30.0880 C   0  0  0  0  0  0  0  0  0  0  0  0
   -4.4890   25.2790  -30.9780 N   0  0  0  0  0  0  0  0  0  0  0  0
   -5.4320   24.5520  -31.5750 N   0  0  0  0  0  0  0  0  0  0  0  0
   -5.4650   23.2600  -31.1680 C   0  0  0  0  0  0  0  0  0  0  0  0
   -6.4270   22.2620  -31.6910 C   0  0  0  0  0  0  0  0  0  0  0  0
   -7.7570   22.2360  -31.2360 C   0  0  0  0  0  0  0  0  0  0  0  0
   -8.6590   21.2970  -31.7400 C   0  0  0  0  0  0  0  0  0  0  0  0
   -8.2470   20.3700  -32.6990 C   0  0  0  0  0  0  0  0  0  0  0  0
   -6.9190   20.3680  -33.1580 C   0  0  0  0  0  0  0  0  0  0  0  0
   -6.4990   19.4310  -34.1700 N   0  0  0  0  0  0  0  0  0  0  0  0
   -6.2930   18.1040  -33.5720 C   0  0  0  0  0  0  0  0  0  0  0  0
   -4.8460   17.7220  -33.6300 C   0  0  0  0  0  0  0  0  0  0  0  0
   -4.4930   16.5670  -33.2680 O   0  0  0  0  0  0  0  0  0  0  0  0
   -3.9000   18.6360  -34.1960 N   0  0  0  0  0  0  0  0  0  0  0  0
   -3.0870   19.5780  -33.4810 C   0  0  0  0  0  0  0  0  0  0  0  0
   -2.0870   20.2720  -34.1720 C   0  0  0  0  0  0  0  0  0  0  0  0
   -1.2930   21.2060  -33.5050 C   0  0  0  0  0  0  0  0  0  0  0  0
   -1.5190   21.4520  -32.1500 C   0  0  0  0  0  0  0  0  0  0  0  0
   -2.5110   20.7920  -31.4960 N   0  0  0  0  0  0  0  0  0  0  0  0
   -3.2950   19.8740  -32.1220 C   0  0  0  0  0  0  0  0  0  0  0  0
   -6.0190   21.3250  -32.6560 C   0  0  0  0  0  0  0  0  0  0  0  0
   -4.2730   22.9730  -30.0050 S   0  0  0  0  0  0  0  0  0  0  0  0
   -2.7297   25.1581  -27.2819 H   0  0  0  0  0  0  0  0  0  0  0  0
   -2.5555   23.5438  -28.0504 H   0  0  0  0  0  0  0  0  0  0  0  0
   -1.1743   24.6923  -28.0504 H   0  0  0  0  0  0  0  0  0  0  0  0
   -8.0892   22.9604  -30.4778 H   0  0  0  0  0  0  0  0  0  0  0  0
   -9.6984   21.2876  -31.3800 H   0  0  0  0  0  0  0  0  0  0  0  0
   -8.9651   19.6380  -33.0971 H   0  0  0  0  0  0  0  0  0  0  0  0
   -5.6090   19.7620  -34.6100 H   0  0  0  0  0  0  0  0  0  0  0  0
   -7.2280   19.3710  -34.9190 H   0  0  0  0  0  0  0  0  0  0  0  0
   -6.6201   18.1253  -32.5220 H   0  0  0  0  0  0  0  0  0  0  0  0
   -6.8794   17.3642  -34.1366 H   0  0  0  0  0  0  0  0  0  0  0  0
   -1.9266   20.0808  -35.2433 H   0  0  0  0  0  0  0  0  0  0  0  0
   -0.4971   21.7429  -34.0419 H   0  0  0  0  0  0  0  0  0  0  0  0
   -0.8944   22.1799  -31.6114 H   0  0  0  0  0  0  0  0  0  0  0  0
   -4.0932   19.3621  -31.5645 H   0  0  0  0  0  0  0  0  0  0  0  0
   -4.9823   21.3404  -33.0233 H   0  0  0  0  0  0  0  0  0  0  0  0
  1  2  1  0
  2  3  1  0
  3  4  2  0
  4  5  1  0
  5  6  2  0
  6  7  1  0
  7  8  2  0
  8  9  1  0
  9 10  2  0
 10 11  1  0
 11 12  1  0
 12 13  1  0
 13 14  1  0
 14 15  2  0
 14 16  1  0
 16 17  1  0
 17 18  2  0
 18 19  1  0
 19 20  2  0
 20 21  1  0
 21 22  2  0
 11 23  2  0
  6 24  1  0
 24  3  1  0
 23  7  1  0
 22 17  1  0
  1 25  1  0
  1 26  1  0
  1 27  1  0
  8 28  1  0
  9 29  1  0
 10 30  1  0
 12 31  1  0
 12 32  1  0
 13 33  1  0
 13 34  1  0
 18 35  1  0
 19 36  1  0
 20 37  1  0
 22 38  1  0
 23 39  1  0
M  CHG  2  12   1  16  -1
M  END
>  <UniqueID>  (43) 
41

>  <SMILES>  (43) 
COc1nnc(-c2cccc([NH2+]CC(=O)[N-]c3cccnc3)c2)s1

>  <Energy>  (43) 
78.24254143127695

>  <Genealogy>  (43) 
COc1nnc(-c2cccc([NH2+]CC(=O)[N-]c3cccnc3)c2)s1 (protonated)
COc1nnc(-c2cccc([NH2+]CC(=O)[N-]c3cccnc3)c2)s1 (3D coordinates assigned)
COc1nnc(-c2cccc([NH2+]CC(=O)[N-]c3cccnc3)c2)s1 (optimized conformer: 78.24254143127695 kcal/mol)

>  <smiles>  (43) 
COc1nnc(-c2cccc(NCC(=O)Nc3cccnc3)c2)s1

>  <score_type>  (43) 
oracle

>  <origin>  (43) 
adg

>  <m_score__min__energy>  (43) 
-9.0099999999999998

>  <m_primary>  (43) 
energy

$$$$
43:0
     RDKit          3D

 36 37  0  0  0  0  0  0  0  0999 V2000
   -8.5580   19.8990  -32.3440 C   0  0  0  0  0  0  0  0  0  0  0  0
   -7.4430   20.6510  -32.8130 O   0  0  0  0  0  0  0  0  0  0  0  0
   -6.9220   21.7850  -32.1700 C   0  0  0  0  0  0  0  0  0  0  0  0
   -7.7230   22.6280  -31.3760 C   0  0  0  0  0  0  0  0  0  0  0  0
   -7.1700   23.7470  -30.7510 C   0  0  0  0  0  0  0  0  0  0  0  0
   -5.8090   24.0420  -30.9050 C   0  0  0  0  0  0  0  0  0  0  0  0
   -5.2120   25.2600  -30.2540 C   0  0  0  0  0  0  0  0  0  0  0  0
   -3.7680   25.2880  -30.4630 N   0  0  0  0  0  0  0  0  0  0  0  0
   -2.8190   24.7650  -29.5250 C   0  0  0  0  0  0  0  0  0  0  0  0
   -2.0020   25.5430  -28.9620 O   0  0  0  0  0  0  0  0  0  0  0  0
   -2.7980   23.3160  -29.2170 C   0  0  0  0  0  0  0  0  0  0  0  0
   -3.4750   22.8140  -28.0930 C   0  0  0  0  0  0  0  0  0  0  0  0
   -3.4410   21.4450  -27.8170 C   0  0  0  0  0  0  0  0  0  0  0  0
   -2.7550   20.6000  -28.6320 N   0  0  0  0  0  0  0  0  0  0  0  0
   -2.0900   21.0550  -29.7270 C   0  0  0  0  0  0  0  0  0  0  0  0
   -2.0980   22.4170  -30.0390 C   0  0  0  0  0  0  0  0  0  0  0  0
   -5.0080   23.2070  -31.6980 C   0  0  0  0  0  0  0  0  0  0  0  0
   -5.5590   22.0770  -32.3320 C   0  0  0  0  0  0  0  0  0  0  0  0
   -4.7850   21.2210  -33.1320 O   0  0  0  0  0  0  0  0  0  0  0  0
   -4.5300   19.8520  -32.8390 C   0  0  0  0  0  0  0  0  0  0  0  0
   -8.5619   19.8964  -31.2440 H   0  0  0  0  0  0  0  0  0  0  0  0
   -9.4888   20.3546  -32.7129 H   0  0  0  0  0  0  0  0  0  0  0  0
   -8.4844   18.8653  -32.7129 H   0  0  0  0  0  0  0  0  0  0  0  0
   -8.7921   22.4032  -31.2473 H   0  0  0  0  0  0  0  0  0  0  0  0
   -7.8055   24.4000  -30.1349 H   0  0  0  0  0  0  0  0  0  0  0  0
   -5.6601   26.1632  -30.6937 H   0  0  0  0  0  0  0  0  0  0  0  0
   -5.4172   25.2259  -29.1738 H   0  0  0  0  0  0  0  0  0  0  0  0
   -4.0299   23.4966  -27.4326 H   0  0  0  0  0  0  0  0  0  0  0  0
   -3.9707   21.0495  -26.9378 H   0  0  0  0  0  0  0  0  0  0  0  0
   -2.7400   19.5780  -28.4130 H   0  0  0  0  0  0  0  0  0  0  0  0
   -1.5439   20.3486  -30.3695 H   0  0  0  0  0  0  0  0  0  0  0  0
   -1.5584   22.7838  -30.9246 H   0  0  0  0  0  0  0  0  0  0  0  0
   -3.9399   23.4371  -31.8257 H   0  0  0  0  0  0  0  0  0  0  0  0
   -4.5034   19.7092  -31.7486 H   0  0  0  0  0  0  0  0  0  0  0  0
   -5.3277   19.2298  -33.2709 H   0  0  0  0  0  0  0  0  0  0  0  0
   -3.5618   19.5588  -33.2709 H   0  0  0  0  0  0  0  0  0  0  0  0
  1  2  1  0
  2  3  1  0
  3  4  2  0
  4  5  1  0
  5  6  2  0
  6  7  1  0
  7  8  1  0
  8  9  1  0
  9 10  2  0
  9 11  1  0
 11 12  2  0
 12 13  1  0
 13 14  2  0
 14 15  1  0
 15 16  2  0
  6 17  1  0
 17 18  2  0
 18 19  1  0
 19 20  1  0
 18  3  1  0
 16 11  1  0
  1 21  1  0
  1 22  1  0
  1 23  1  0
  4 24  1  0
  5 25  1  0
  7 26  1  0
  7 27  1  0
 12 28  1  0
 13 29  1  0
 14 30  1  0
 15 31  1  0
 16 32  1  0
 17 33  1  0
 20 34  1  0
 20 35  1  0
 20 36  1  0
M  CHG  2   8  -1  14   1
M  END
>  <UniqueID>  (44) 
42

>  <SMILES>  (44) 
COc1ccc(C[N-]C(=O)c2cc[nH+]cc2)cc1OC

>  <Energy>  (44) 
33.58457657605697

>  <Genealogy>  (44) 
COc1ccc(C[N-]C(=O)c2cc[nH+]cc2)cc1OC (protonated)
COc1ccc(C[N-]C(=O)c2cc[nH+]cc2)cc1OC (3D coordinates assigned)
COc1ccc(C[N-]C(=O)c2cc[nH+]cc2)cc1OC (optimized conformer: 33.58457657605697 kcal/mol)

>  <smiles>  (44) 
COc1ccc(CNC(=O)c2ccncc2)cc1OC

>  <score_type>  (44) 
oracle

>  <origin>  (44) 
adg

>  <m_score__min__energy>  (44) 
-7.6299999999999999

>  <m_primary>  (44) 
energy

$$$$
44:0
     RDKit          3D

 36 39  0  0  0  0  0  0  0  0999 V2000
   -1.5320   25.1790  -27.8630 C   0  0  0  0  0  0  0  0  0  0  0  0
   -2.0480   25.3100  -29.1830 O   0  0  0  0  0  0  0  0  0  0  0  0
   -3.0830   24.5240  -29.7120 C   0  0  0  0  0  0  0  0  0  0  0  0
   -2.7840   23.2250  -30.1330 C   0  0  0  0  0  0  0  0  0  0  0  0
   -3.7810   22.4030  -30.6670 C   0  0  0  0  0  0  0  0  0  0  0  0
   -5.1000   22.8710  -30.7990 C   0  0  0  0  0  0  0  0  0  0  0  0
   -6.1470   21.9810  -31.3610 C   0  0  0  0  0  0  0  0  0  0  0  0
   -5.8090   20.7730  -32.0300 C   0  0  0  0  0  0  0  0  0  0  0  0
   -6.8360   19.9550  -32.5430 C   0  0  0  0  0  0  0  0  0  0  0  0
   -6.5340   18.6850  -33.2480 C   0  0  0  0  0  0  0  0  0  0  0  0
   -5.6230   18.6660  -34.3200 C   0  0  0  0  0  0  0  0  0  0  0  0
   -5.3350   17.4690  -34.9810 C   0  0  0  0  0  0  0  0  0  0  0  0
   -5.9470   16.2800  -34.5760 C   0  0  0  0  0  0  0  0  0  0  0  0
   -6.8470   16.2860  -33.5090 C   0  0  0  0  0  0  0  0  0  0  0  0
   -7.1400   17.4810  -32.8450 C   0  0  0  0  0  0  0  0  0  0  0  0
   -8.1110   20.3840  -32.3550 N   0  0  0  0  0  0  0  0  0  0  0  0
   -9.2520   19.8580  -32.7580 N   0  0  0  0  0  0  0  0  0  0  0  0
  -10.2330   20.6640  -32.3580 N   0  0  0  0  0  0  0  0  0  0  0  0
   -9.7410   21.7180  -31.7050 N   0  0  0  0  0  0  0  0  0  0  0  0
   -8.4150   21.5120  -31.7230 C   0  0  0  0  0  0  0  0  0  0  0  0
   -7.4630   22.3280  -31.2160 N   0  0  0  0  0  0  0  0  0  0  0  0
   -5.4010   24.1760  -30.3630 C   0  0  0  0  0  0  0  0  0  0  0  0
   -4.4030   24.9960  -29.8280 C   0  0  0  0  0  0  0  0  0  0  0  0
   -2.3313   25.3819  -27.1350 H   0  0  0  0  0  0  0  0  0  0  0  0
   -1.1540   24.1564  -27.7169 H   0  0  0  0  0  0  0  0  0  0  0  0
   -0.7119   25.8974  -27.7169 H   0  0  0  0  0  0  0  0  0  0  0  0
   -1.7552   22.8461  -30.0434 H   0  0  0  0  0  0  0  0  0  0  0  0
   -3.5310   21.3806  -30.9868 H   0  0  0  0  0  0  0  0  0  0  0  0
   -4.7554   20.4792  -32.1463 H   0  0  0  0  0  0  0  0  0  0  0  0
   -5.1348   19.5985  -34.6395 H   0  0  0  0  0  0  0  0  0  0  0  0
   -4.6254   17.4628  -35.8215 H   0  0  0  0  0  0  0  0  0  0  0  0
   -5.7195   15.3389  -35.0981 H   0  0  0  0  0  0  0  0  0  0  0  0
   -7.3266   15.3488  -33.1900 H   0  0  0  0  0  0  0  0  0  0  0  0
   -7.8480   17.4798  -32.0031 H   0  0  0  0  0  0  0  0  0  0  0  0
   -6.4310   24.5536  -30.4442 H   0  0  0  0  0  0  0  0  0  0  0  0
   -4.6512   26.0150  -29.4962 H   0  0  0  0  0  0  0  0  0  0  0  0
  1  2  1  0
  2  3  1  0
  3  4  2  0
  4  5  1  0
  5  6  2  0
  6  7  1  0
  7  8  1  0
  8  9  2  0
  9 10  1  0
 10 11  2  0
 11 12  1  0
 12 13  2  0
 13 14  1  0
 14 15  2  0
  9 16  1  0
 16 17  1  0
 17 18  2  0
 18 19  1  0
 19 20  2  0
 20 21  1  0
  6 22  1  0
 22 23  2  0
 23  3  1  0
 21  7  2  0
 15 10  1  0
 20 16  1  0
  1 24  1  0
  1 25  1  0
  1 26  1  0
  4 27  1  0
  5 28  1  0
  8 29  1  0
 11 30  1  0
 12 31  1  0
 13 32  1  0
 14 33  1  0
 15 34  1  0
 22 35  1  0
 23 36  1  0
M  END
>  <UniqueID>  (45) 
43

>  <SMILES>  (45) 
COc1ccc(-c2cc(-c3ccccc3)n3nnnc3n2)cc1

>  <Energy>  (45) 
97.96711340909928

>  <Genealogy>  (45) 
COc1ccc(-c2cc(-c3ccccc3)n3nnnc3n2)cc1 (3D coordinates assigned)
COc1ccc(-c2cc(-c3ccccc3)n3nnnc3n2)cc1 (optimized conformer: 97.96711340909928 kcal/mol)

>  <smiles>  (45) 
COc1ccc(-c2cc(-c3ccccc3)n3nnnc3n2)cc1

>  <score_type>  (45) 
oracle

>  <origin>  (45) 
adg

>  <m_score__min__energy>  (45) 
-9.2100000000000009

>  <m_primary>  (45) 
energy

$$$$
45:0
     RDKit          3D

 53 55  0  0  0  0  0  0  0  0999 V2000
   -2.2790   15.1180  -35.4690 C   0  0  0  0  0  0  0  0  0  0  0  0
   -3.5200   15.7680  -34.9360 C   0  0  0  0  0  0  0  0  0  0  0  0
   -3.8570   17.0680  -35.3390 C   0  0  0  0  0  0  0  0  0  0  0  0
   -5.0030   17.6900  -34.8350 C   0  0  0  0  0  0  0  0  0  0  0  0
   -5.8270   17.0180  -33.9180 C   0  0  0  0  0  0  0  0  0  0  0  0
   -7.0610   17.6920  -33.3770 C   0  0  0  0  0  0  0  0  0  0  0  0
   -6.7890   18.2870  -32.0500 N   0  0  0  0  0  0  0  0  0  0  0  0
   -8.0100   18.5320  -31.2520 C   0  0  0  0  0  0  0  0  0  0  0  0
   -8.8450   19.7150  -31.7740 C   0  0  0  0  0  0  0  0  0  0  0  0
   -8.0000   20.8870  -32.0300 N   0  0  0  0  0  0  0  0  0  0  0  0
   -8.6110   22.1940  -32.0050 C   0  0  0  0  0  0  0  0  0  0  0  0
   -9.8560   22.3020  -32.1830 O   0  0  0  0  0  0  0  0  0  0  0  0
   -7.7750   23.4390  -31.8320 C   0  0  0  0  0  0  0  0  0  0  0  0
   -6.7560   23.3430  -30.6810 C   0  0  0  0  0  0  0  0  0  0  0  0
   -5.5850   24.2090  -30.9230 N   0  0  0  0  0  0  0  0  0  0  0  0
   -5.2490   25.0230  -29.7260 C   0  0  0  0  0  0  0  0  0  0  0  0
   -4.5940   24.1750  -28.6300 C   0  0  0  0  0  0  0  0  0  0  0  0
   -3.6630   23.1170  -29.2280 C   0  0  0  0  0  0  0  0  0  0  0  0
   -3.3750   23.4270  -30.6970 C   0  0  0  0  0  0  0  0  0  0  0  0
   -4.5630   23.4500  -31.4730 O   0  0  0  0  0  0  0  0  0  0  0  0
   -6.7360   20.6820  -32.7470 C   0  0  0  0  0  0  0  0  0  0  0  0
   -5.9640   19.5090  -32.1340 C   0  0  0  0  0  0  0  0  0  0  0  0
   -5.4770   15.7270  -33.4940 C   0  0  0  0  0  0  0  0  0  0  0  0
   -4.3290   15.1070  -33.9960 C   0  0  0  0  0  0  0  0  0  0  0  0
   -1.6487   14.7879  -34.6301 H   0  0  0  0  0  0  0  0  0  0  0  0
   -2.5555   14.2489  -36.0840 H   0  0  0  0  0  0  0  0  0  0  0  0
   -1.7220   15.8402  -36.0840 H   0  0  0  0  0  0  0  0  0  0  0  0
   -3.2158   17.6016  -36.0560 H   0  0  0  0  0  0  0  0  0  0  0  0
   -5.2601   18.7096  -35.1580 H   0  0  0  0  0  0  0  0  0  0  0  0
   -7.3738   18.4853  -34.0718 H   0  0  0  0  0  0  0  0  0  0  0  0
   -7.8586   16.9416  -33.2729 H   0  0  0  0  0  0  0  0  0  0  0  0
   -8.6327   17.6256  -31.2776 H   0  0  0  0  0  0  0  0  0  0  0  0
   -7.6892   18.7825  -30.2301 H   0  0  0  0  0  0  0  0  0  0  0  0
   -9.3414   19.4189  -32.7099 H   0  0  0  0  0  0  0  0  0  0  0  0
   -9.5889   19.9816  -31.0088 H   0  0  0  0  0  0  0  0  0  0  0  0
   -7.2264   23.6222  -32.7677 H   0  0  0  0  0  0  0  0  0  0  0  0
   -8.4652   24.2589  -31.5840 H   0  0  0  0  0  0  0  0  0  0  0  0
   -7.2433   23.6537  -29.7451 H   0  0  0  0  0  0  0  0  0  0  0  0
   -6.4078   22.3017  -30.6135 H   0  0  0  0  0  0  0  0  0  0  0  0
   -4.5535   25.8221  -30.0220 H   0  0  0  0  0  0  0  0  0  0  0  0
   -6.1827   25.4425  -29.3232 H   0  0  0  0  0  0  0  0  0  0  0  0
   -4.0111   24.8326  -27.9683 H   0  0  0  0  0  0  0  0  0  0  0  0
   -5.3874   23.6615  -28.0672 H   0  0  0  0  0  0  0  0  0  0  0  0
   -2.7166   23.1089  -28.6673 H   0  0  0  0  0  0  0  0  0  0  0  0
   -4.1517   22.1338  -29.1608 H   0  0  0  0  0  0  0  0  0  0  0  0
   -2.8865   24.4103  -30.7644 H   0  0  0  0  0  0  0  0  0  0  0  0
   -2.7232   22.6341  -31.0926 H   0  0  0  0  0  0  0  0  0  0  0  0
   -6.9490   20.4640  -33.8039 H   0  0  0  0  0  0  0  0  0  0  0  0
   -6.1261   21.5939  -32.6671 H   0  0  0  0  0  0  0  0  0  0  0  0
   -5.0821   19.2999  -32.7573 H   0  0  0  0  0  0  0  0  0  0  0  0
   -5.6712   19.7920  -31.1122 H   0  0  0  0  0  0  0  0  0  0  0  0
   -6.1087   15.2005  -32.7634 H   0  0  0  0  0  0  0  0  0  0  0  0
   -4.0577   14.0974  -33.6538 H   0  0  0  0  0  0  0  0  0  0  0  0
  1  2  1  0
  2  3  2  0
  3  4  1  0
  4  5  2  0
  5  6  1  0
  6  7  1  0
  7  8  1  0
  8  9  1  0
  9 10  1  0
 10 11  1  0
 11 12  2  0
 11 13  1  0
 13 14  1  0
 14 15  1  0
 15 16  1  0
 16 17  1  0
 17 18  1  0
 18 19  1  0
 19 20  1  0
 10 21  1  0
 21 22  1  0
  5 23  1  0
 23 24  2  0
 24  2  1  0
 22  7  1  0
 20 15  1  0
  1 25  1  0
  1 26  1  0
  1 27  1  0
  3 28  1  0
  4 29  1  0
  6 30  1  0
  6 31  1  0
  8 32  1  0
  8 33  1  0
  9 34  1  0
  9 35  1  0
 13 36  1  0
 13 37  1  0
 14 38  1  0
 14 39  1  0
 16 40  1  0
 16 41  1  0
 17 42  1  0
 17 43  1  0
 18 44  1  0
 18 45  1  0
 19 46  1  0
 19 47  1  0
 21 48  1  0
 21 49  1  0
 22 50  1  0
 22 51  1  0
 23 52  1  0
 24 53  1  0
M  END
>  <UniqueID>  (46) 
44

>  <SMILES>  (46) 
Cc1ccc(CN2CCN(C(=O)CCN3CCCCO3)CC2)cc1

>  <Energy>  (46) 
73.30452974869623

>  <Genealogy>  (46) 
Cc1ccc(CN2CCN(C(=O)CCN3CCCCO3)CC2)cc1 (3D coordinates assigned)
Cc1ccc(CN2CCN(C(=O)CCN3CCCCO3)CC2)cc1 (nonaromatic ring conformer: 73.30452974869623 kcal/mol)

>  <smiles>  (46) 
Cc1ccc(CN2CCN(C(=O)CCN3CCCCO3)CC2)cc1

>  <score_type>  (46) 
oracle

>  <origin>  (46) 
adg

>  <m_score__min__energy>  (46) 
-8.8599999999999994

>  <m_primary>  (46) 
energy

$$$$
46:0
     RDKit          3D

 46 48  0  0  0  0  0  0  0  0999 V2000
   -8.9860   19.3020  -31.7350 O   0  0  0  0  0  0  0  0  0  0  0  0
   -8.1010   20.1880  -31.5880 C   0  0  0  0  0  0  0  0  0  0  0  0
   -8.4730   21.5130  -30.9940 C   0  0  0  0  0  0  0  0  0  0  0  0
   -7.2900   22.3970  -30.9660 N   0  0  0  0  0  0  0  0  0  0  0  0
   -7.2170   23.1400  -29.6850 C   0  0  0  0  0  0  0  0  0  0  0  0
   -6.0130   24.1000  -29.6070 C   0  0  0  0  0  0  0  0  0  0  0  0
   -4.7140   23.4910  -30.1640 C   0  0  0  0  0  0  0  0  0  0  0  0
   -4.8250   23.0700  -31.5750 N   0  0  0  0  0  0  0  0  0  0  0  0
   -4.0440   21.9430  -32.0340 C   0  0  0  0  0  0  0  0  0  0  0  0
   -3.2960   21.1760  -31.1220 C   0  0  0  0  0  0  0  0  0  0  0  0
   -2.5680   20.0640  -31.5580 C   0  0  0  0  0  0  0  0  0  0  0  0
   -2.5790   19.7060  -32.9080 C   0  0  0  0  0  0  0  0  0  0  0  0
   -1.8760   18.6260  -33.3280 F   0  0  0  0  0  0  0  0  0  0  0  0
   -3.3170   20.4580  -33.8240 C   0  0  0  0  0  0  0  0  0  0  0  0
   -4.0450   21.5710  -33.3930 C   0  0  0  0  0  0  0  0  0  0  0  0
   -5.8000   23.7150  -32.4750 C   0  0  0  0  0  0  0  0  0  0  0  0
   -7.2500   23.3020  -32.1370 C   0  0  0  0  0  0  0  0  0  0  0  0
   -6.7290   19.9210  -31.9180 N   0  0  0  0  0  0  0  0  0  0  0  0
   -6.2540   18.6790  -32.4650 C   0  0  0  0  0  0  0  0  0  0  0  0
   -6.1410   17.5280  -31.6650 C   0  0  0  0  0  0  0  0  0  0  0  0
   -5.7030   16.3220  -32.2220 C   0  0  0  0  0  0  0  0  0  0  0  0
   -5.3840   16.2530  -33.5810 C   0  0  0  0  0  0  0  0  0  0  0  0
   -4.9610   15.0810  -34.1170 F   0  0  0  0  0  0  0  0  0  0  0  0
   -5.5130   17.3870  -34.3880 C   0  0  0  0  0  0  0  0  0  0  0  0
   -5.2130   17.3160  -35.7090 F   0  0  0  0  0  0  0  0  0  0  0  0
   -5.9530   18.5950  -33.8360 C   0  0  0  0  0  0  0  0  0  0  0  0
   -6.0690   19.6900  -34.6300 F   0  0  0  0  0  0  0  0  0  0  0  0
   -9.2623   21.9779  -31.6031 H   0  0  0  0  0  0  0  0  0  0  0  0
   -8.8386   21.3618  -29.9676 H   0  0  0  0  0  0  0  0  0  0  0  0
   -8.1401   23.7268  -29.5682 H   0  0  0  0  0  0  0  0  0  0  0  0
   -7.0951   22.3972  -28.8829 H   0  0  0  0  0  0  0  0  0  0  0  0
   -6.2501   25.0056  -30.1846 H   0  0  0  0  0  0  0  0  0  0  0  0
   -5.8401   24.3213  -28.5434 H   0  0  0  0  0  0  0  0  0  0  0  0
   -3.9144   24.2423  -30.0856 H   0  0  0  0  0  0  0  0  0  0  0  0
   -4.4958   22.5904  -29.5713 H   0  0  0  0  0  0  0  0  0  0  0  0
   -3.2836   21.4530  -30.0575 H   0  0  0  0  0  0  0  0  0  0  0  0
   -1.9863   19.4709  -30.8370 H   0  0  0  0  0  0  0  0  0  0  0  0
   -3.3257   20.1743  -34.8867 H   0  0  0  0  0  0  0  0  0  0  0  0
   -4.6227   22.1605  -34.1201 H   0  0  0  0  0  0  0  0  0  0  0  0
   -5.7081   24.8067  -32.3765 H   0  0  0  0  0  0  0  0  0  0  0  0
   -5.5826   23.3923  -33.5039 H   0  0  0  0  0  0  0  0  0  0  0  0
   -7.8372   24.2048  -31.9129 H   0  0  0  0  0  0  0  0  0  0  0  0
   -7.6714   22.7701  -33.0027 H   0  0  0  0  0  0  0  0  0  0  0  0
   -6.0170   20.6290  -31.6270 H   0  0  0  0  0  0  0  0  0  0  0  0
   -6.3982   17.5763  -30.5966 H   0  0  0  0  0  0  0  0  0  0  0  0
   -5.6095   15.4268  -31.5897 H   0  0  0  0  0  0  0  0  0  0  0  0
  1  2  2  0
  2  3  1  0
  3  4  1  0
  4  5  1  0
  5  6  1  0
  6  7  1  0
  7  8  1  0
  8  9  1  0
  9 10  2  0
 10 11  1  0
 11 12  2  0
 12 13  1  0
 12 14  1  0
 14 15  2  0
  8 16  1  0
 16 17  1  0
  2 18  1  0
 18 19  1  0
 19 20  2  0
 20 21  1  0
 21 22  2  0
 22 23  1  0
 22 24  1  0
 24 25  1  0
 24 26  2  0
 26 27  1  0
 17  4  1  0
 26 19  1  0
 15  9  1  0
  3 28  1  0
  3 29  1  0
  5 30  1  0
  5 31  1  0
  6 32  1  0
  6 33  1  0
  7 34  1  0
  7 35  1  0
 10 36  1  0
 11 37  1  0
 14 38  1  0
 15 39  1  0
 16 40  1  0
 16 41  1  0
 17 42  1  0
 17 43  1  0
 18 44  1  0
 20 45  1  0
 21 46  1  0
M  END
>  <UniqueID>  (47) 
45

>  <SMILES>  (47) 
O=C(CN1CCCN(c2ccc(F)cc2)CC1)Nc1ccc(F)c(F)c1F

>  <Energy>  (47) 
61.1708452481938

>  <Genealogy>  (47) 
O=C(CN1CCCN(c2ccc(F)cc2)CC1)Nc1ccc(F)c(F)c1F (3D coordinates assigned)
O=C(CN1CCCN(c2ccc(F)cc2)CC1)Nc1ccc(F)c(F)c1F (nonaromatic ring conformer: 61.1708452481938 kcal/mol)

>  <smiles>  (47) 
O=C(CN1CCCN(c2ccc(F)cc2)CC1)Nc1ccc(F)c(F)c1F

>  <score_type>  (47) 
oracle

>  <origin>  (47) 
adg

>  <m_score__min__energy>  (47) 
-6.8899999999999997

>  <m_primary>  (47) 
energy

$$$$
