0:0
     RDKit          3D

 61 63  0  0  0  0  0  0  0  0999 V2000
   -0.8660   26.4220  -23.4720 C   0  0  0  0  0  0  0  0  0  0  0  0
    0.1460   27.5500  -23.7190 C   0  0  0  0  0  0  0  0  0  0  0  0
    1.5370   27.1780  -23.3300 N   0  0  2  0  0  0  0  0  0  0  0  0
    2.1890   28.3550  -22.7190 C   0  0  0  0  0  0  0  0  0  0  0  0
    2.3020   26.7060  -24.5220 C   0  0  0  0  0  0  0  0  0  0  0  0
    3.1770   25.4560  -24.2610 C   0  0  0  0  0  0  0  0  0  0  0  0
    2.8050   24.3560  -25.0980 O   0  0  0  0  0  0  0  0  0  0  0  0
    1.5460   24.1610  -25.7020 C   0  0  0  0  0  0  0  0  0  0  0  0
    1.4420   24.3680  -27.0860 C   0  0  0  0  0  0  0  0  0  0  0  0
    0.2260   24.1900  -27.7490 C   0  0  0  0  0  0  0  0  0  0  0  0
   -0.9310   23.8220  -27.0420 C   0  0  0  0  0  0  0  0  0  0  0  0
   -2.2330   23.6390  -27.7550 C   0  0  0  0  0  0  0  0  0  0  0  0
   -3.0290   22.5130  -27.4880 C   0  0  0  0  0  0  0  0  0  0  0  0
   -4.1650   22.3060  -28.1470 O   0  0  0  0  0  0  0  0  0  0  0  0
   -4.6170   23.1320  -29.0840 C   0  0  0  0  0  0  0  0  0  0  0  0
   -5.8040   22.8330  -29.7590 C   0  0  0  0  0  0  0  0  0  0  0  0
   -6.2990   23.6880  -30.7560 C   0  0  0  0  0  0  0  0  0  0  0  0
   -7.4690   23.3040  -31.4160 O   0  0  0  0  0  0  0  0  0  0  0  0
   -7.6150   22.1870  -32.2860 C   0  0  0  0  0  0  0  0  0  0  0  0
   -8.5240   21.1080  -31.6680 C   0  0  0  0  0  0  0  0  0  0  0  0
   -8.5070   19.8420  -32.4330 N   0  0  0  0  0  0  0  0  0  0  0  0
   -8.7850   18.6820  -31.5670 C   0  0  0  0  0  0  0  0  0  0  0  0
   -7.1950   19.6760  -33.0890 C   0  0  0  0  0  0  0  0  0  0  0  0
   -5.5920   24.8650  -31.0660 C   0  0  0  0  0  0  0  0  0  0  0  0
   -4.3990   25.1710  -30.4030 C   0  0  0  0  0  0  0  0  0  0  0  0
   -3.8950   24.3040  -29.4100 C   0  0  0  0  0  0  0  0  0  0  0  0
   -2.6880   24.5590  -28.7250 C   0  0  0  0  0  0  0  0  0  0  0  0
   -2.0320   25.6100  -28.9630 O   0  0  0  0  0  0  0  0  0  0  0  0
   -0.8310   23.6000  -25.6540 C   0  0  0  0  0  0  0  0  0  0  0  0
    0.3950   23.7540  -24.9940 C   0  0  0  0  0  0  0  0  0  0  0  0
   -0.9963   26.2768  -22.3894 H   0  0  0  0  0  0  0  0  0  0  0  0
   -1.8319   26.6903  -23.9248 H   0  0  0  0  0  0  0  0  0  0  0  0
   -0.4948   25.4908  -23.9248 H   0  0  0  0  0  0  0  0  0  0  0  0
    0.1365   27.8017  -24.7898 H   0  0  0  0  0  0  0  0  0  0  0  0
   -0.1537   28.4046  -23.0947 H   0  0  0  0  0  0  0  0  0  0  0  0
    1.4970   26.4230  -22.6060 H   0  0  0  0  0  0  0  0  0  0  0  0
    2.1430   28.2719  -21.6231 H   0  0  0  0  0  0  0  0  0  0  0  0
    3.2403   28.3994  -23.0395 H   0  0  0  0  0  0  0  0  0  0  0  0
    1.6690   29.2698  -23.0395 H   0  0  0  0  0  0  0  0  0  0  0  0
    1.5836   26.4638  -25.3190 H   0  0  0  0  0  0  0  0  0  0  0  0
    2.9884   27.5197  -24.7992 H   0  0  0  0  0  0  0  0  0  0  0  0
    4.2287   25.7116  -24.4572 H   0  0  0  0  0  0  0  0  0  0  0  0
    3.0299   25.1511  -23.2144 H   0  0  0  0  0  0  0  0  0  0  0  0
    2.3309   24.6748  -27.6567 H   0  0  0  0  0  0  0  0  0  0  0  0
    0.1733   24.3396  -28.8375 H   0  0  0  0  0  0  0  0  0  0  0  0
   -2.7077   21.7916  -26.7222 H   0  0  0  0  0  0  0  0  0  0  0  0
   -6.3569   21.9164  -29.5057 H   0  0  0  0  0  0  0  0  0  0  0  0
   -8.0571   22.5272  -33.2341 H   0  0  0  0  0  0  0  0  0  0  0  0
   -6.6209   21.7472  -32.4543 H   0  0  0  0  0  0  0  0  0  0  0  0
   -8.1818   20.9044  -30.6426 H   0  0  0  0  0  0  0  0  0  0  0  0
   -9.5546   21.4923  -31.6836 H   0  0  0  0  0  0  0  0  0  0  0  0
   -8.7122   18.9860  -30.5123 H   0  0  0  0  0  0  0  0  0  0  0  0
   -9.7986   18.3065  -31.7712 H   0  0  0  0  0  0  0  0  0  0  0  0
   -8.0517   17.8879  -31.7712 H   0  0  0  0  0  0  0  0  0  0  0  0
   -6.4119   19.5769  -32.3229 H   0  0  0  0  0  0  0  0  0  0  0  0
   -7.2105   18.7727  -33.7165 H   0  0  0  0  0  0  0  0  0  0  0  0
   -6.9850   20.5547  -33.7165 H   0  0  0  0  0  0  0  0  0  0  0  0
   -5.9804   25.5489  -31.8350 H   0  0  0  0  0  0  0  0  0  0  0  0
   -3.8516   26.0908  -30.6565 H   0  0  0  0  0  0  0  0  0  0  0  0
   -1.7236   23.3031  -25.0837 H   0  0  0  0  0  0  0  0  0  0  0  0
    0.4612   23.5559  -23.9140 H   0  0  0  0  0  0  0  0  0  0  0  0
  1  2  1  0
  2  3  1  0
  3  4  1  0
  3  5  1  0
  5  6  1  0
  6  7  1  0
  7  8  1  0
  8  9  2  0
  9 10  1  0
 10 11  2  0
 11 12  1  0
 12 13  2  0
 13 14  1  0
 14 15  1  0
 15 16  2  0
 16 17  1  0
 17 18  1  0
 18 19  1  0
 19 20  1  0
 20 21  1  0
 21 22  1  0
 21 23  1  0
 17 24  2  0
 24 25  1  0
 25 26  2  0
 26 27  1  0
 27 28  2  0
 11 29  1  0
 29 30  2  0
 30  8  1  0
 27 12  1  0
 26 15  1  0
  1 31  1  0
  1 32  1  0
  1 33  1  0
  2 34  1  0
  2 35  1  0
  3 36  1  1
  4 37  1  0
  4 38  1  0
  4 39  1  0
  5 40  1  0
  5 41  1  0
  6 42  1  0
  6 43  1  0
  9 44  1  0
 10 45  1  0
 13 46  1  0
 16 47  1  0
 19 48  1  0
 19 49  1  0
 20 50  1  0
 20 51  1  0
 22 52  1  0
 22 53  1  0
 22 54  1  0
 23 55  1  0
 23 56  1  0
 23 57  1  0
 24 58  1  0
 25 59  1  0
 29 60  1  0
 30 61  1  0
M  CHG  1   3   1
M  END
>  <UniqueID>  (1) 
1

>  <SMILES>  (1) 
CC[N@H+](C)CCOc1ccc(-c2coc3cc(OCCN(C)C)ccc3c2=O)cc1

>  <Energy>  (1) 
79.87158932780676

>  <Genealogy>  (1) 
CC[NH+](C)CCOc1ccc(-c2coc3cc(OCCN(C)C)ccc3c2=O)cc1 (protonated)
CC[N@H+](C)CCOc1ccc(-c2coc3cc(OCCN(C)C)ccc3c2=O)cc1 (chirality)
CC[N@H+](C)CCOc1ccc(-c2coc3cc(OCCN(C)C)ccc3c2=O)cc1 (3D coordinates assigned)
CC[N@H+](C)CCOc1ccc(-c2coc3cc(OCCN(C)C)ccc3c2=O)cc1 (optimized conformer: 79.87158932780676 kcal/mol)

>  <smiles>  (1) 
CCN(C)CCOc1ccc(-c2coc3cc(OCCN(C)C)ccc3c2=O)cc1

>  <score_type>  (1) 
oracle

>  <origin>  (1) 
adg

>  <m_score__min__energy>  (1) 
-8.1400000000000006

>  <m_primary>  (1) 
energy

$$$$
1:0
     RDKit          3D

 71 74  0  0  0  0  0  0  0  0999 V2000
   -3.2000   13.6420  -32.0460 C   0  0  0  0  0  0  0  0  0  0  0  0
   -4.6830   13.7150  -32.4310 C   0  0  0  0  0  0  0  0  0  0  0  0
   -4.8810   13.9030  -33.8910 N   0  0  0  0  0  0  0  0  0  0  0  0
   -6.1630   14.6160  -34.1820 C   0  0  0  0  0  0  0  0  0  0  0  0
   -7.2660   13.6480  -34.6230 C   0  0  0  0  0  0  0  0  0  0  0  0
   -3.7190   14.6420  -34.4550 C   0  0  0  0  0  0  0  0  0  0  0  0
   -3.9480   16.1650  -34.5060 C   0  0  0  0  0  0  0  0  0  0  0  0
   -4.0020   16.7370  -33.1600 N   0  0  0  0  0  0  0  0  0  0  0  0
   -4.1350   18.1540  -32.9540 C   0  0  0  0  0  0  0  0  0  0  0  0
   -2.9920   18.9730  -32.8770 C   0  0  0  0  0  0  0  0  0  0  0  0
   -1.6940   18.4300  -32.9720 C   0  0  0  0  0  0  0  0  0  0  0  0
   -0.5720   19.2530  -32.9260 C   0  0  0  0  0  0  0  0  0  0  0  0
   -0.7210   20.6290  -32.7920 C   0  0  0  0  0  0  0  0  0  0  0  0
   -1.9940   21.1910  -32.7030 C   0  0  0  0  0  0  0  0  0  0  0  0
   -3.1540   20.3770  -32.7420 C   0  0  0  0  0  0  0  0  0  0  0  0
   -4.4180   20.9250  -32.6640 N   0  0  0  0  0  0  0  0  0  0  0  0
   -4.6020   22.3320  -33.0890 C   0  0  0  0  0  0  0  0  0  0  0  0
   -5.5140   20.1070  -32.4640 C   0  0  0  0  0  0  0  0  0  0  0  0
   -5.4090   18.7340  -32.8000 C   0  0  0  0  0  0  0  0  0  0  0  0
   -6.5780   17.9860  -33.0260 C   0  0  0  0  0  0  0  0  0  0  0  0
   -7.8330   18.5590  -32.8480 C   0  0  0  0  0  0  0  0  0  0  0  0
   -7.9480   19.8400  -32.3030 C   0  0  0  0  0  0  0  0  0  0  0  0
   -9.2160   20.3540  -31.9990 C   0  0  0  0  0  0  0  0  0  0  0  0
   -9.3360   21.5660  -31.3270 C   0  0  0  0  0  0  0  0  0  0  0  0
   -8.1980   22.2350  -30.8840 C   0  0  0  0  0  0  0  0  0  0  0  0
   -6.9140   21.7250  -31.1590 C   0  0  0  0  0  0  0  0  0  0  0  0
   -5.7650   22.2710  -30.5550 O   0  0  0  0  0  0  0  0  0  0  0  0
   -5.7250   23.4310  -29.7240 C   0  0  0  0  0  0  0  0  0  0  0  0
   -4.9200   24.5490  -30.3980 C   0  0  0  0  0  0  0  0  0  0  0  0
   -3.5210   24.5430  -29.9190 N   0  0  0  0  0  0  0  0  0  0  0  0
   -3.4680   24.5440  -28.4460 C   0  0  0  0  0  0  0  0  0  0  0  0
   -2.8120   23.3580  -30.4310 C   0  0  0  0  0  0  0  0  0  0  0  0
   -6.7800   20.5930  -32.0070 C   0  0  0  0  0  0  0  0  0  0  0  0
   -3.1055   13.6373  -30.9501 H   0  0  0  0  0  0  0  0  0  0  0  0
   -2.7597   12.7211  -32.4559 H   0  0  0  0  0  0  0  0  0  0  0  0
   -2.6713   14.5152  -32.4559 H   0  0  0  0  0  0  0  0  0  0  0  0
   -5.1736   12.7790  -32.1257 H   0  0  0  0  0  0  0  0  0  0  0  0
   -5.1198   14.5850  -31.9188 H   0  0  0  0  0  0  0  0  0  0  0  0
   -4.8870   12.9490  -34.3220 H   0  0  0  0  0  0  0  0  0  0  0  0
   -6.4925   15.1409  -33.2732 H   0  0  0  0  0  0  0  0  0  0  0  0
   -5.9811   15.3240  -35.0040 H   0  0  0  0  0  0  0  0  0  0  0  0
   -7.7543   13.2195  -33.7353 H   0  0  0  0  0  0  0  0  0  0  0  0
   -8.0102   14.1899  -35.2251 H   0  0  0  0  0  0  0  0  0  0  0  0
   -6.8253   12.8398  -35.2251 H   0  0  0  0  0  0  0  0  0  0  0  0
   -2.8368   14.4399  -33.8297 H   0  0  0  0  0  0  0  0  0  0  0  0
   -3.5749   14.2938  -35.4885 H   0  0  0  0  0  0  0  0  0  0  0  0
   -3.1227   16.6336  -35.0622 H   0  0  0  0  0  0  0  0  0  0  0  0
   -4.9095   16.3563  -35.0048 H   0  0  0  0  0  0  0  0  0  0  0  0
   -4.1710   16.0960  -32.3530 H   0  0  0  0  0  0  0  0  0  0  0  0
   -1.5665   17.3432  -33.0838 H   0  0  0  0  0  0  0  0  0  0  0  0
    0.4342   18.8139  -32.9958 H   0  0  0  0  0  0  0  0  0  0  0  0
    0.1679   21.2760  -32.7561 H   0  0  0  0  0  0  0  0  0  0  0  0
   -2.0996   22.2812  -32.6011 H   0  0  0  0  0  0  0  0  0  0  0  0
   -4.6861   22.9753  -32.2007 H   0  0  0  0  0  0  0  0  0  0  0  0
   -3.7377   22.6492  -33.6909 H   0  0  0  0  0  0  0  0  0  0  0  0
   -5.5188   22.4163  -33.6909 H   0  0  0  0  0  0  0  0  0  0  0  0
   -6.4993   16.9368  -33.3469 H   0  0  0  0  0  0  0  0  0  0  0  0
   -8.7366   18.0023  -33.1370 H   0  0  0  0  0  0  0  0  0  0  0  0
  -10.1184   19.7977  -32.2925 H   0  0  0  0  0  0  0  0  0  0  0  0
  -10.3317   21.9967  -31.1452 H   0  0  0  0  0  0  0  0  0  0  0  0
   -8.3026   23.1701  -30.3142 H   0  0  0  0  0  0  0  0  0  0  0  0
   -6.7516   23.7826  -29.5440 H   0  0  0  0  0  0  0  0  0  0  0  0
   -5.2406   23.1691  -28.7718 H   0  0  0  0  0  0  0  0  0  0  0  0
   -4.9300   24.3958  -31.4872 H   0  0  0  0  0  0  0  0  0  0  0  0
   -5.3774   25.5172  -30.1462 H   0  0  0  0  0  0  0  0  0  0  0  0
   -4.4911   24.5247  -28.0423 H   0  0  0  0  0  0  0  0  0  0  0  0
   -2.9197   23.6561  -28.0982 H   0  0  0  0  0  0  0  0  0  0  0  0
   -2.9537   25.4520  -28.0982 H   0  0  0  0  0  0  0  0  0  0  0  0
   -2.4504   22.7536  -29.5861 H   0  0  0  0  0  0  0  0  0  0  0  0
   -3.4988   22.7565  -31.0447 H   0  0  0  0  0  0  0  0  0  0  0  0
   -1.9573   23.6788  -31.0447 H   0  0  0  0  0  0  0  0  0  0  0  0
  1  2  1  0
  2  3  1  0
  3  4  1  0
  4  5  1  0
  3  6  1  0
  6  7  1  0
  7  8  1  0
  8  9  1  0
  9 10  2  0
 10 11  1  0
 11 12  2  0
 12 13  1  0
 13 14  2  0
 14 15  1  0
 15 16  2  0
 16 17  1  0
 16 18  1  0
 18 19  2  0
 19 20  1  0
 20 21  2  0
 21 22  1  0
 22 23  2  0
 23 24  1  0
 24 25  2  0
 25 26  1  0
 26 27  1  0
 27 28  1  0
 28 29  1  0
 29 30  1  0
 30 31  1  0
 30 32  1  0
 26 33  2  0
 19  9  1  0
 33 22  1  0
 15 10  1  0
 33 18  1  0
  1 34  1  0
  1 35  1  0
  1 36  1  0
  2 37  1  0
  2 38  1  0
  3 39  1  0
  4 40  1  0
  4 41  1  0
  5 42  1  0
  5 43  1  0
  5 44  1  0
  6 45  1  0
  6 46  1  0
  7 47  1  0
  7 48  1  0
  8 49  1  0
 11 50  1  0
 12 51  1  0
 13 52  1  0
 14 53  1  0
 17 54  1  0
 17 55  1  0
 17 56  1  0
 20 57  1  0
 21 58  1  0
 23 59  1  0
 24 60  1  0
 25 61  1  0
 28 62  1  0
 28 63  1  0
 29 64  1  0
 29 65  1  0
 31 66  1  0
 31 67  1  0
 31 68  1  0
 32 69  1  0
 32 70  1  0
 32 71  1  0
M  CHG  2   3   1  16   1
M  END
>  <UniqueID>  (2) 
2

>  <SMILES>  (2) 
CC[NH+](CC)CCNc1c2ccccc2[n+](C)c2c1ccc1cccc(OCCN(C)C)c12

>  <Energy>  (2) 
119.75593129381906

>  <Genealogy>  (2) 
CC[NH+](CC)CCNc1c2ccccc2[n+](C)c2c1ccc1cccc(OCCN(C)C)c12 (protonated)
CC[NH+](CC)CCNc1c2ccccc2[n+](C)c2c1ccc1cccc(OCCN(C)C)c12 (3D coordinates assigned)
CC[NH+](CC)CCNc1c2ccccc2[n+](C)c2c1ccc1cccc(OCCN(C)C)c12 (optimized conformer: 119.75593129381906 kcal/mol)

>  <smiles>  (2) 
CCN(CC)CCNc1c2ccccc2[n+](C)c2c1ccc1cccc(OCCN(C)C)c12

>  <score_type>  (2) 
oracle

>  <origin>  (2) 
adg

>  <m_score__min__energy>  (2) 
-7.2999999999999998

>  <m_primary>  (2) 
energy

$$$$
2:0
     RDKit          3D

 92 96  0  0  0  0  0  0  0  0999 V2000
    0.2860   17.0960  -30.8080 C   0  0  0  0  0  0  0  0  0  0  0  0
    1.0080   18.3210  -30.2400 C   0  0  0  0  0  0  0  0  0  0  0  0
    0.3640   18.9040  -29.0400 N   0  0  0  0  0  0  0  0  0  0  0  0
    0.1320   17.9660  -27.9170 C   0  0  0  0  0  0  0  0  0  0  0  0
   -1.1180   18.2700  -27.0730 C   0  0  0  0  0  0  0  0  0  0  0  0
    0.8080   20.2630  -28.6640 C   0  0  0  0  0  0  0  0  0  0  0  0
   -0.3430   21.2720  -28.8070 C   0  0  0  0  0  0  0  0  0  0  0  0
   -1.6450   20.5890  -28.8290 N   0  0  0  0  0  0  0  0  0  0  0  0
   -2.5510   21.2580  -29.7530 C   0  0  0  0  0  0  0  0  0  0  0  0
   -3.3830   22.3220  -29.3070 C   0  0  0  0  0  0  0  0  0  0  0  0
   -3.4320   22.7110  -27.9430 C   0  0  0  0  0  0  0  0  0  0  0  0
   -4.1700   23.8200  -27.5350 C   0  0  0  0  0  0  0  0  0  0  0  0
   -4.8740   24.5670  -28.4670 C   0  0  0  0  0  0  0  0  0  0  0  0
   -4.8920   24.1780  -29.8040 C   0  0  0  0  0  0  0  0  0  0  0  0
   -4.1970   23.0180  -30.2440 C   0  0  0  0  0  0  0  0  0  0  0  0
   -4.2980   22.5740  -31.5460 N   0  0  0  0  0  0  0  0  0  0  0  0
   -5.3790   23.0900  -32.4180 C   0  0  0  0  0  0  0  0  0  0  0  0
   -3.4350   21.6050  -32.0190 C   0  0  0  0  0  0  0  0  0  0  0  0
   -3.3530   21.3090  -33.4020 C   0  0  0  0  0  0  0  0  0  0  0  0
   -2.5480   20.2790  -33.8780 C   0  0  0  0  0  0  0  0  0  0  0  0
   -1.8020   19.4990  -32.9920 C   0  0  0  0  0  0  0  0  0  0  0  0
   -1.0020   18.4280  -33.4240 O   0  0  0  0  0  0  0  0  0  0  0  0
   -0.9560   17.9550  -34.7690 C   0  0  0  0  0  0  0  0  0  0  0  0
   -1.2990   16.4510  -34.8390 C   0  0  0  0  0  0  0  0  0  0  0  0
   -2.7600   16.0980  -34.8190 N   0  0  2  0  0  0  0  0  0  0  0  0
   -3.0790   15.2080  -35.9710 C   0  0  0  0  0  0  0  0  0  0  0  0
   -3.5110   17.3770  -34.9260 C   0  0  0  0  0  0  0  0  0  0  0  0
   -5.0420   17.2440  -34.7620 C   0  0  0  0  0  0  0  0  0  0  0  0
   -5.4990   16.4150  -33.6000 N   0  0  2  0  0  0  0  0  0  0  0  0
   -6.8490   15.8870  -33.9550 C   0  0  0  0  0  0  0  0  0  0  0  0
   -5.7160   17.2340  -32.3560 C   0  0  0  0  0  0  0  0  0  0  0  0
   -6.7550   18.3320  -32.4390 C   0  0  0  0  0  0  0  0  0  0  0  0
   -8.0380   18.1400  -31.8900 C   0  0  0  0  0  0  0  0  0  0  0  0
   -8.9640   19.1880  -31.8790 C   0  0  0  0  0  0  0  0  0  0  0  0
   -8.6140   20.4410  -32.3900 C   0  0  0  0  0  0  0  0  0  0  0  0
   -7.3310   20.6520  -32.8990 C   0  0  0  0  0  0  0  0  0  0  0  0
   -6.3990   19.6090  -32.9060 C   0  0  0  0  0  0  0  0  0  0  0  0
   -4.6260   15.2230  -33.3520 C   0  0  0  0  0  0  0  0  0  0  0  0
   -3.1140   15.4580  -33.5280 C   0  0  0  0  0  0  0  0  0  0  0  0
   -1.8390   19.7950  -31.6290 C   0  0  0  0  0  0  0  0  0  0  0  0
   -2.5990   20.8830  -31.1240 C   0  0  0  0  0  0  0  0  0  0  0  0
   -0.0822   16.4712  -29.9809 H   0  0  0  0  0  0  0  0  0  0  0  0
   -0.5630   17.4244  -31.4256 H   0  0  0  0  0  0  0  0  0  0  0  0
    0.9845   16.5123  -31.4256 H   0  0  0  0  0  0  0  0  0  0  0  0
    2.0325   18.0237  -29.9715 H   0  0  0  0  0  0  0  0  0  0  0  0
    0.9793   19.0949  -31.0212 H   0  0  0  0  0  0  0  0  0  0  0  0
    0.0266   16.9531  -28.3328 H   0  0  0  0  0  0  0  0  0  0  0  0
    0.9948   18.0694  -27.2426 H   0  0  0  0  0  0  0  0  0  0  0  0
   -0.8631   18.2080  -26.0047 H   0  0  0  0  0  0  0  0  0  0  0  0
   -1.4800   19.2824  -27.3054 H   0  0  0  0  0  0  0  0  0  0  0  0
   -1.9045   17.5370  -27.3054 H   0  0  0  0  0  0  0  0  0  0  0  0
    1.1520   20.2539  -27.6192 H   0  0  0  0  0  0  0  0  0  0  0  0
    1.6267   20.5646  -29.3339 H   0  0  0  0  0  0  0  0  0  0  0  0
   -0.3173   21.9694  -27.9567 H   0  0  0  0  0  0  0  0  0  0  0  0
   -0.2166   21.8146  -29.7555 H   0  0  0  0  0  0  0  0  0  0  0  0
   -2.0460   20.5370  -27.8680 H   0  0  0  0  0  0  0  0  0  0  0  0
   -1.5300   19.5840  -29.0820 H   0  0  0  0  0  0  0  0  0  0  0  0
   -2.8773   22.1263  -27.1944 H   0  0  0  0  0  0  0  0  0  0  0  0
   -4.1942   24.1032  -26.4724 H   0  0  0  0  0  0  0  0  0  0  0  0
   -5.4191   25.4683  -28.1499 H   0  0  0  0  0  0  0  0  0  0  0  0
   -5.4544   24.7793  -30.5335 H   0  0  0  0  0  0  0  0  0  0  0  0
   -6.1974   23.4806  -31.7953 H   0  0  0  0  0  0  0  0  0  0  0  0
   -4.9842   23.8968  -33.0530 H   0  0  0  0  0  0  0  0  0  0  0  0
   -5.7580   22.2757  -33.0530 H   0  0  0  0  0  0  0  0  0  0  0  0
   -3.9390   21.9070  -34.1155 H   0  0  0  0  0  0  0  0  0  0  0  0
   -2.4989   20.0779  -34.9583 H   0  0  0  0  0  0  0  0  0  0  0  0
   -1.6824   18.5181  -35.3733 H   0  0  0  0  0  0  0  0  0  0  0  0
    0.0630   18.1004  -35.1568 H   0  0  0  0  0  0  0  0  0  0  0  0
   -0.8711   16.0530  -35.7709 H   0  0  0  0  0  0  0  0  0  0  0  0
   -0.8793   16.0122  -33.9218 H   0  0  0  0  0  0  0  0  0  0  0  0
   -3.4280   14.2344  -35.5965 H   0  0  0  0  0  0  0  0  0  0  0  0
   -3.8677   15.6694  -36.5834 H   0  0  0  0  0  0  0  0  0  0  0  0
   -2.1768   15.0633  -36.5834 H   0  0  0  0  0  0  0  0  0  0  0  0
   -3.3091   17.8108  -35.9165 H   0  0  0  0  0  0  0  0  0  0  0  0
   -3.1641   18.0107  -34.0965 H   0  0  0  0  0  0  0  0  0  0  0  0
   -5.4426   16.7897  -35.6802 H   0  0  0  0  0  0  0  0  0  0  0  0
   -5.4137   18.2614  -34.5706 H   0  0  0  0  0  0  0  0  0  0  0  0
   -7.4104   15.6674  -33.0349 H   0  0  0  0  0  0  0  0  0  0  0  0
   -7.3929   16.6387  -34.5459 H   0  0  0  0  0  0  0  0  0  0  0  0
   -6.7387   14.9658  -34.5459 H   0  0  0  0  0  0  0  0  0  0  0  0
   -6.0205   16.5466  -31.5530 H   0  0  0  0  0  0  0  0  0  0  0  0
   -4.7614   17.7513  -32.1796 H   0  0  0  0  0  0  0  0  0  0  0  0
   -8.3126   17.1619  -31.4683 H   0  0  0  0  0  0  0  0  0  0  0  0
   -9.9709   19.0257  -31.4669 H   0  0  0  0  0  0  0  0  0  0  0  0
   -9.3484   21.2599  -32.3912 H   0  0  0  0  0  0  0  0  0  0  0  0
   -7.0528   21.6398  -33.2950 H   0  0  0  0  0  0  0  0  0  0  0  0
   -5.3803   19.7894  -33.2796 H   0  0  0  0  0  0  0  0  0  0  0  0
   -4.9290   14.4300  -34.0516 H   0  0  0  0  0  0  0  0  0  0  0  0
   -4.7687   14.9602  -32.2934 H   0  0  0  0  0  0  0  0  0  0  0  0
   -2.6016   14.4864  -33.4692 H   0  0  0  0  0  0  0  0  0  0  0  0
   -2.7987   16.1455  -32.7293 H   0  0  0  0  0  0  0  0  0  0  0  0
   -1.2654   19.1703  -30.9285 H   0  0  0  0  0  0  0  0  0  0  0  0
  1  2  1  0
  2  3  1  0
  3  4  1  0
  4  5  1  0
  3  6  1  0
  6  7  1  0
  7  8  1  0
  8  9  1  0
  9 10  2  0
 10 11  1  0
 11 12  2  0
 12 13  1  0
 13 14  2  0
 14 15  1  0
 15 16  2  0
 16 17  1  0
 16 18  1  0
 18 19  2  0
 19 20  1  0
 20 21  2  0
 21 22  1  0
 22 23  1  0
 23 24  1  0
 25 24  1  1
 25 26  1  0
 25 27  1  0
 27 28  1  0
 28 29  1  0
 29 30  1  6
 29 31  1  0
 31 32  1  0
 32 33  2  0
 33 34  1  0
 34 35  2  0
 35 36  1  0
 36 37  2  0
 29 38  1  0
 38 39  1  0
 21 40  1  0
 40 41  2  0
 41  9  1  0
 15 10  1  0
 41 18  1  0
 39 25  1  0
 37 32  1  0
  1 42  1  0
  1 43  1  0
  1 44  1  0
  2 45  1  0
  2 46  1  0
  4 47  1  0
  4 48  1  0
  5 49  1  0
  5 50  1  0
  5 51  1  0
  6 52  1  0
  6 53  1  0
  7 54  1  0
  7 55  1  0
  8 56  1  0
  8 57  1  0
 11 58  1  0
 12 59  1  0
 13 60  1  0
 14 61  1  0
 17 62  1  0
 17 63  1  0
 17 64  1  0
 19 65  1  0
 20 66  1  0
 23 67  1  0
 23 68  1  0
 24 69  1  0
 24 70  1  0
 26 71  1  0
 26 72  1  0
 26 73  1  0
 27 74  1  0
 27 75  1  0
 28 76  1  0
 28 77  1  0
 30 78  1  0
 30 79  1  0
 30 80  1  0
 31 81  1  0
 31 82  1  0
 33 83  1  0
 34 84  1  0
 35 85  1  0
 36 86  1  0
 37 87  1  0
 38 88  1  0
 38 89  1  0
 39 90  1  0
 39 91  1  0
 40 92  1  0
M  CHG  4   8   1  16   1  25   1  29   1
M  END
>  <UniqueID>  (3) 
3

>  <SMILES>  (3) 
CCN(CC)CC[NH2+]c1c2ccccc2[n+](C)c2ccc(OCC[N+]3(C)CC[N+](C)(Cc4ccccc4)CC3)cc12

>  <Energy>  (3) 
158.58553696118267

>  <Genealogy>  (3) 
CCN(CC)CC[NH2+]c1c2ccccc2[n+](C)c2ccc(OCC[N+]3(C)CC[N+](C)(Cc4ccccc4)CC3)cc12 (protonated)
CCN(CC)CC[NH2+]c1c2ccccc2[n+](C)c2ccc(OCC[N+]3(C)CC[N+](C)(Cc4ccccc4)CC3)cc12 (3D coordinates assigned)
CCN(CC)CC[NH2+]c1c2ccccc2[n+](C)c2ccc(OCC[N+]3(C)CC[N+](C)(Cc4ccccc4)CC3)cc12 (nonaromatic ring conformer: 158.58553696118267 kcal/mol)

>  <smiles>  (3) 
CCN(CC)CCNc1c2ccccc2[n+](C)c2ccc(OCC[N+]3(C)CC[N+](C)(Cc4ccccc4)CC3)cc12

>  <score_type>  (3) 
oracle

>  <origin>  (3) 
adg

>  <m_score__min__energy>  (3) 
-8.3800000000000008

>  <m_primary>  (3) 
energy

$$$$
3:0
     RDKit          3D

 56 58  0  0  0  0  0  0  0  0999 V2000
   -0.8730   26.1100  -27.8720 C   0  0  0  0  0  0  0  0  0  0  0  0
   -1.5890   24.8040  -27.5400 C   0  0  0  0  0  0  0  0  0  0  0  0
   -2.6660   24.5460  -28.5230 N   0  0  0  0  0  0  0  0  0  0  0  0
   -3.9420   24.1650  -27.8680 C   0  0  0  0  0  0  0  0  0  0  0  0
   -4.1870   24.8580  -26.5200 C   0  0  0  0  0  0  0  0  0  0  0  0
   -2.2230   23.6110  -29.5860 C   0  0  0  0  0  0  0  0  0  0  0  0
   -3.3640   22.7140  -30.0800 C   0  0  0  0  0  0  0  0  0  0  0  0
   -3.3750   22.6850  -31.4930 O   0  0  0  0  0  0  0  0  0  0  0  0
   -2.3250   21.8730  -31.9850 C   0  0  0  0  0  0  0  0  0  0  0  0
   -2.8690   20.8750  -33.0090 C   0  0  0  0  0  0  0  0  0  0  0  0
   -4.1690   21.3090  -33.5180 N   0  0  0  0  0  0  0  0  0  0  0  0
   -5.3720   20.6630  -33.0800 C   0  0  0  0  0  0  0  0  0  0  0  0
   -5.6390   19.3380  -33.4610 C   0  0  0  0  0  0  0  0  0  0  0  0
   -4.7310   18.6250  -34.2710 C   0  0  0  0  0  0  0  0  0  0  0  0
   -4.9650   17.2910  -34.5960 C   0  0  0  0  0  0  0  0  0  0  0  0
   -6.0960   16.6450  -34.1110 C   0  0  0  0  0  0  0  0  0  0  0  0
   -7.0150   17.3350  -33.3210 C   0  0  0  0  0  0  0  0  0  0  0  0
   -6.8280   18.7070  -33.0070 C   0  0  0  0  0  0  0  0  0  0  0  0
   -7.7550   19.4200  -32.2680 N   0  0  0  0  0  0  0  0  0  0  0  0
   -9.1020   18.8570  -32.0270 C   0  0  0  0  0  0  0  0  0  0  0  0
   -7.4310   20.6730  -31.7800 C   0  0  0  0  0  0  0  0  0  0  0  0
   -8.2360   21.3410  -30.8270 C   0  0  0  0  0  0  0  0  0  0  0  0
   -7.9140   22.6250  -30.3990 C   0  0  0  0  0  0  0  0  0  0  0  0
   -6.7840   23.2540  -30.9080 C   0  0  0  0  0  0  0  0  0  0  0  0
   -6.3810   24.8800  -30.3830 Cl  0  0  0  0  0  0  0  0  0  0  0  0
   -5.9820   22.6050  -31.7930 N   0  0  0  0  0  0  0  0  0  0  0  0
   -6.2550   21.3310  -32.2170 C   0  0  0  0  0  0  0  0  0  0  0  0
   -0.5925   26.6217  -26.9395 H   0  0  0  0  0  0  0  0  0  0  0  0
    0.0324   25.8931  -28.4579 H   0  0  0  0  0  0  0  0  0  0  0  0
   -1.5427   26.7567  -28.4579 H   0  0  0  0  0  0  0  0  0  0  0  0
   -0.8655   23.9759  -27.5682 H   0  0  0  0  0  0  0  0  0  0  0  0
   -2.0313   24.8828  -26.5360 H   0  0  0  0  0  0  0  0  0  0  0  0
   -4.7689   24.4250  -28.5452 H   0  0  0  0  0  0  0  0  0  0  0  0
   -3.8832   23.0858  -27.6634 H   0  0  0  0  0  0  0  0  0  0  0  0
   -3.9420   24.1650  -25.7016 H   0  0  0  0  0  0  0  0  0  0  0  0
   -3.5505   25.7521  -26.4463 H   0  0  0  0  0  0  0  0  0  0  0  0
   -5.2440   25.1534  -26.4463 H   0  0  0  0  0  0  0  0  0  0  0  0
   -1.8391   24.1958  -30.4349 H   0  0  0  0  0  0  0  0  0  0  0  0
   -1.4426   22.9622  -29.1616 H   0  0  0  0  0  0  0  0  0  0  0  0
   -3.2188   21.6938  -29.6953 H   0  0  0  0  0  0  0  0  0  0  0  0
   -4.3225   23.1145  -29.7183 H   0  0  0  0  0  0  0  0  0  0  0  0
   -1.5667   22.5095  -32.4644 H   0  0  0  0  0  0  0  0  0  0  0  0
   -1.8741   21.3204  -31.1476 H   0  0  0  0  0  0  0  0  0  0  0  0
   -2.1613   20.7970  -33.8475 H   0  0  0  0  0  0  0  0  0  0  0  0
   -2.9911   19.8981  -32.5184 H   0  0  0  0  0  0  0  0  0  0  0  0
   -4.2390   22.0360  -34.2660 H   0  0  0  0  0  0  0  0  0  0  0  0
   -3.8288   19.1275  -34.6499 H   0  0  0  0  0  0  0  0  0  0  0  0
   -4.2544   16.7485  -35.2368 H   0  0  0  0  0  0  0  0  0  0  0  0
   -6.2669   15.5852  -34.3512 H   0  0  0  0  0  0  0  0  0  0  0  0
   -7.8996   16.8075  -32.9347 H   0  0  0  0  0  0  0  0  0  0  0  0
   -9.2799   18.7826  -30.9440 H   0  0  0  0  0  0  0  0  0  0  0  0
   -9.8601   19.5136  -32.4789 H   0  0  0  0  0  0  0  0  0  0  0  0
   -9.1674   17.8562  -32.4789 H   0  0  0  0  0  0  0  0  0  0  0  0
   -9.1264   20.8394  -30.4200 H   0  0  0  0  0  0  0  0  0  0  0  0
   -8.5495   23.1389  -29.6627 H   0  0  0  0  0  0  0  0  0  0  0  0
   -5.1390   23.1150  -32.1380 H   0  0  0  0  0  0  0  0  0  0  0  0
  1  2  1  0
  2  3  1  0
  3  4  1  0
  4  5  1  0
  3  6  1  0
  6  7  1  0
  7  8  1  0
  8  9  1  0
  9 10  1  0
 10 11  1  0
 11 12  1  0
 12 13  2  0
 13 14  1  0
 14 15  2  0
 15 16  1  0
 16 17  2  0
 17 18  1  0
 18 19  2  0
 19 20  1  0
 19 21  1  0
 21 22  2  0
 22 23  1  0
 23 24  2  0
 24 25  1  0
 24 26  1  0
 26 27  2  0
 27 12  1  0
 18 13  1  0
 27 21  1  0
  1 28  1  0
  1 29  1  0
  1 30  1  0
  2 31  1  0
  2 32  1  0
  4 33  1  0
  4 34  1  0
  5 35  1  0
  5 36  1  0
  5 37  1  0
  6 38  1  0
  6 39  1  0
  7 40  1  0
  7 41  1  0
  9 42  1  0
  9 43  1  0
 10 44  1  0
 10 45  1  0
 11 46  1  0
 14 47  1  0
 15 48  1  0
 16 49  1  0
 17 50  1  0
 20 51  1  0
 20 52  1  0
 20 53  1  0
 22 54  1  0
 23 55  1  0
 26 56  1  0
M  CHG  2  19   1  26   1
M  END
>  <UniqueID>  (4) 
4

>  <SMILES>  (4) 
CCN(CC)CCOCCNc1c2ccccc2[n+](C)c2ccc(Cl)[nH+]c12

>  <Energy>  (4) 
84.07529037427828

>  <Genealogy>  (4) 
CCN(CC)CCOCCNc1c2ccccc2[n+](C)c2ccc(Cl)[nH+]c12 (protonated)
CCN(CC)CCOCCNc1c2ccccc2[n+](C)c2ccc(Cl)[nH+]c12 (3D coordinates assigned)
CCN(CC)CCOCCNc1c2ccccc2[n+](C)c2ccc(Cl)[nH+]c12 (optimized conformer: 84.07529037427828 kcal/mol)

>  <smiles>  (4) 
CCN(CC)CCOCCNc1c2ccccc2[n+](C)c2ccc(Cl)nc12

>  <score_type>  (4) 
oracle

>  <origin>  (4) 
adg

>  <m_score__min__energy>  (4) 
-7.2999999999999998

>  <m_primary>  (4) 
energy

$$$$
4:0
     RDKit          3D

 81 83  0  0  0  0  0  0  0  0999 V2000
   -4.0460   24.9460  -26.3370 C   0  0  0  0  0  0  0  0  0  0  0  0
   -2.5670   25.2870  -26.1100 C   0  0  0  0  0  0  0  0  0  0  0  0
   -1.7840   25.5450  -27.3480 N   0  0  0  0  0  0  0  0  0  0  0  0
   -0.8410   26.6830  -27.2510 C   0  0  0  0  0  0  0  0  0  0  0  0
   -0.8520   27.3740  -25.8860 C   0  0  0  0  0  0  0  0  0  0  0  0
   -1.2380   24.3680  -28.0620 C   0  0  0  0  0  0  0  0  0  0  0  0
   -2.0830   24.0470  -29.3100 C   0  0  0  0  0  0  0  0  0  0  0  0
   -3.2800   24.8980  -29.4340 N   0  0  0  0  0  0  0  0  0  0  0  0
   -4.5500   24.1620  -29.5460 C   0  0  0  0  0  0  0  0  0  0  0  0
   -4.9940   24.0080  -31.0100 C   0  0  0  0  0  0  0  0  0  0  0  0
   -4.2570   22.8610  -31.7220 C   0  0  0  0  0  0  0  0  0  0  0  0
   -4.9640   22.4260  -32.9480 N   0  0  0  0  0  0  0  0  0  0  0  0
   -5.6910   21.1780  -32.7460 C   0  0  0  0  0  0  0  0  0  0  0  0
   -7.0580   21.2320  -32.3440 C   0  0  0  0  0  0  0  0  0  0  0  0
   -7.6830   22.4580  -31.9910 C   0  0  0  0  0  0  0  0  0  0  0  0
   -9.0260   22.5100  -31.6340 C   0  0  0  0  0  0  0  0  0  0  0  0
   -9.7900   21.3530  -31.6320 C   0  0  0  0  0  0  0  0  0  0  0  0
   -9.2100   20.1350  -31.9690 C   0  0  0  0  0  0  0  0  0  0  0  0
   -7.8340   20.0410  -32.3080 C   0  0  0  0  0  0  0  0  0  0  0  0
   -7.2660   18.8330  -32.6420 N   0  0  0  0  0  0  0  0  0  0  0  0
   -7.9850   17.5720  -32.3480 C   0  0  0  0  0  0  0  0  0  0  0  0
   -6.0180   18.7900  -33.2230 C   0  0  0  0  0  0  0  0  0  0  0  0
   -5.5940   17.6390  -33.9310 C   0  0  0  0  0  0  0  0  0  0  0  0
   -4.3100   17.5450  -34.4430 C   0  0  0  0  0  0  0  0  0  0  0  0
   -3.3970   18.5580  -34.2130 C   0  0  0  0  0  0  0  0  0  0  0  0
   -3.7750   19.7220  -33.5310 C   0  0  0  0  0  0  0  0  0  0  0  0
   -2.7200   20.5700  -33.0580 N   0  0  0  0  0  0  0  0  0  0  0  0
   -1.4440   20.7100  -33.7580 C   0  0  0  0  0  0  0  0  0  0  0  0
   -0.3010   20.8980  -32.7370 C   0  0  0  0  0  0  0  0  0  0  0  0
   -0.1270   19.7760  -31.7640 N   0  0  0  0  0  0  0  0  0  0  0  0
   -0.6070   18.4900  -32.3270 C   0  0  0  0  0  0  0  0  0  0  0  0
   -0.8350   20.0560  -30.4910 C   0  0  0  0  0  0  0  0  0  0  0  0
    1.3210   19.6440  -31.4690 C   0  0  0  0  0  0  0  0  0  0  0  0
   -5.1420   19.9150  -33.1450 C   0  0  0  0  0  0  0  0  0  0  0  0
   -4.5488   24.8301  -25.3656 H   0  0  0  0  0  0  0  0  0  0  0  0
   -4.5264   25.7569  -26.9041 H   0  0  0  0  0  0  0  0  0  0  0  0
   -4.1228   24.0066  -26.9041 H   0  0  0  0  0  0  0  0  0  0  0  0
   -2.5172   26.1879  -25.4809 H   0  0  0  0  0  0  0  0  0  0  0  0
   -2.1158   24.4006  -25.6402 H   0  0  0  0  0  0  0  0  0  0  0  0
    0.1756   26.3094  -27.4433 H   0  0  0  0  0  0  0  0  0  0  0  0
   -1.1600   27.4299  -27.9928 H   0  0  0  0  0  0  0  0  0  0  0  0
   -0.8399   26.6145  -25.0904 H   0  0  0  0  0  0  0  0  0  0  0  0
    0.0360   28.0165  -25.7931 H   0  0  0  0  0  0  0  0  0  0  0  0
   -1.7600   27.9879  -25.7931 H   0  0  0  0  0  0  0  0  0  0  0  0
   -0.2040   24.5810  -28.3711 H   0  0  0  0  0  0  0  0  0  0  0  0
   -1.2635   23.5011  -27.3854 H   0  0  0  0  0  0  0  0  0  0  0  0
   -1.4570   24.1915  -30.2029 H   0  0  0  0  0  0  0  0  0  0  0  0
   -2.4291   23.0074  -29.2125 H   0  0  0  0  0  0  0  0  0  0  0  0
   -3.3340   25.5250  -28.5970 H   0  0  0  0  0  0  0  0  0  0  0  0
   -4.4220   23.1621  -29.1058 H   0  0  0  0  0  0  0  0  0  0  0  0
   -5.3241   24.7330  -29.0124 H   0  0  0  0  0  0  0  0  0  0  0  0
   -6.0745   23.8033  -31.0330 H   0  0  0  0  0  0  0  0  0  0  0  0
   -4.7529   24.9432  -31.5366 H   0  0  0  0  0  0  0  0  0  0  0  0
   -3.2480   23.2028  -31.9959 H   0  0  0  0  0  0  0  0  0  0  0  0
   -4.2128   22.0050  -31.0326 H   0  0  0  0  0  0  0  0  0  0  0  0
   -4.3040   22.3680  -33.7470 H   0  0  0  0  0  0  0  0  0  0  0  0
   -5.6370   23.1600  -33.2650 H   0  0  0  0  0  0  0  0  0  0  0  0
   -7.0921   23.3858  -32.0003 H   0  0  0  0  0  0  0  0  0  0  0  0
   -9.4828   23.4703  -31.3528 H   0  0  0  0  0  0  0  0  0  0  0  0
  -10.8558   21.3986  -31.3636 H   0  0  0  0  0  0  0  0  0  0  0  0
   -9.8294   19.2260  -31.9731 H   0  0  0  0  0  0  0  0  0  0  0  0
   -8.0610   17.4387  -31.2588 H   0  0  0  0  0  0  0  0  0  0  0  0
   -8.9942   17.6153  -32.7834 H   0  0  0  0  0  0  0  0  0  0  0  0
   -7.4338   16.7255  -32.7834 H   0  0  0  0  0  0  0  0  0  0  0  0
   -6.2964   16.8051  -34.0769 H   0  0  0  0  0  0  0  0  0  0  0  0
   -4.0166   16.6641  -35.0328 H   0  0  0  0  0  0  0  0  0  0  0  0
   -2.3622   18.4486  -34.5696 H   0  0  0  0  0  0  0  0  0  0  0  0
   -2.8190   20.9900  -32.1100 H   0  0  0  0  0  0  0  0  0  0  0  0
   -1.2545   19.8057  -34.3549 H   0  0  0  0  0  0  0  0  0  0  0  0
   -1.4879   21.5892  -34.4177 H   0  0  0  0  0  0  0  0  0  0  0  0
    0.6394   21.0129  -33.2960 H   0  0  0  0  0  0  0  0  0  0  0  0
   -0.5672   21.7824  -32.1395 H   0  0  0  0  0  0  0  0  0  0  0  0
   -0.8632   17.8035  -31.5066 H   0  0  0  0  0  0  0  0  0  0  0  0
   -1.4983   18.6706  -32.9459 H   0  0  0  0  0  0  0  0  0  0  0  0
    0.1846   18.0425  -32.9459 H   0  0  0  0  0  0  0  0  0  0  0  0
   -0.1823   19.7979  -29.6440 H   0  0  0  0  0  0  0  0  0  0  0  0
   -1.0935   21.1241  -30.4425 H   0  0  0  0  0  0  0  0  0  0  0  0
   -1.7542   19.4537  -30.4425 H   0  0  0  0  0  0  0  0  0  0  0  0
    1.4735   19.6301  -30.3797 H   0  0  0  0  0  0  0  0  0  0  0  0
    1.7000   18.7076  -31.9043 H   0  0  0  0  0  0  0  0  0  0  0  0
    1.8631   20.4965  -31.9043 H   0  0  0  0  0  0  0  0  0  0  0  0
  1  2  1  0
  2  3  1  0
  3  4  1  0
  4  5  1  0
  3  6  1  0
  6  7  1  0
  7  8  1  0
  8  9  1  0
  9 10  1  0
 10 11  1  0
 11 12  1  0
 12 13  1  0
 13 14  2  0
 14 15  1  0
 15 16  2  0
 16 17  1  0
 17 18  2  0
 18 19  1  0
 19 20  2  0
 20 21  1  0
 20 22  1  0
 22 23  2  0
 23 24  1  0
 24 25  2  0
 25 26  1  0
 26 27  1  0
 27 28  1  0
 28 29  1  0
 29 30  1  0
 30 31  1  0
 30 32  1  0
 30 33  1  0
 26 34  2  0
 34 13  1  0
 19 14  1  0
 34 22  1  0
  1 35  1  0
  1 36  1  0
  1 37  1  0
  2 38  1  0
  2 39  1  0
  4 40  1  0
  4 41  1  0
  5 42  1  0
  5 43  1  0
  5 44  1  0
  6 45  1  0
  6 46  1  0
  7 47  1  0
  7 48  1  0
  8 49  1  0
  9 50  1  0
  9 51  1  0
 10 52  1  0
 10 53  1  0
 11 54  1  0
 11 55  1  0
 12 56  1  0
 12 57  1  0
 15 58  1  0
 16 59  1  0
 17 60  1  0
 18 61  1  0
 21 62  1  0
 21 63  1  0
 21 64  1  0
 23 65  1  0
 24 66  1  0
 25 67  1  0
 27 68  1  0
 28 69  1  0
 28 70  1  0
 29 71  1  0
 29 72  1  0
 31 73  1  0
 31 74  1  0
 31 75  1  0
 32 76  1  0
 32 77  1  0
 32 78  1  0
 33 79  1  0
 33 80  1  0
 33 81  1  0
M  CHG  3  12   1  20   1  30   1
M  END
>  <UniqueID>  (5) 
5

>  <SMILES>  (5) 
CCN(CC)CCNCCC[NH2+]c1c2ccccc2[n+](C)c2cccc(NCC[N+](C)(C)C)c12

>  <Energy>  (5) 
131.96440122112034

>  <Genealogy>  (5) 
CCN(CC)CCNCCC[NH2+]c1c2ccccc2[n+](C)c2cccc(NCC[N+](C)(C)C)c12 (protonated)
CCN(CC)CCNCCC[NH2+]c1c2ccccc2[n+](C)c2cccc(NCC[N+](C)(C)C)c12 (3D coordinates assigned)
CCN(CC)CCNCCC[NH2+]c1c2ccccc2[n+](C)c2cccc(NCC[N+](C)(C)C)c12 (optimized conformer: 131.96440122112034 kcal/mol)

>  <smiles>  (5) 
CCN(CC)CCNCCCNc1c2ccccc2[n+](C)c2cccc(NCC[N+](C)(C)C)c12

>  <score_type>  (5) 
oracle

>  <origin>  (5) 
adg

>  <m_score__min__energy>  (5) 
-7.5899999999999999

>  <m_primary>  (5) 
energy

$$$$
5:0
     RDKit          3D

 70 72  0  0  0  0  0  0  0  0999 V2000
   -0.0640   19.1310  -31.0100 C   0  0  0  0  0  0  0  0  0  0  0  0
   -1.2490   19.0720  -31.9680 C   0  0  0  0  0  0  0  0  0  0  0  0
   -1.5150   20.4180  -32.5280 N   0  0  0  0  0  0  0  0  0  0  0  0
   -0.2590   21.1760  -32.7370 C   0  0  0  0  0  0  0  0  0  0  0  0
    0.0550   21.2580  -34.2270 C   0  0  0  0  0  0  0  0  0  0  0  0
   -2.3170   20.3390  -33.7750 C   0  0  0  0  0  0  0  0  0  0  0  0
   -3.8270   20.4880  -33.4590 C   0  0  0  0  0  0  0  0  0  0  0  0
   -4.1310   20.2100  -32.0420 N   0  0  0  0  0  0  0  0  0  0  0  0
   -5.3440   20.8920  -31.5970 C   0  0  0  0  0  0  0  0  0  0  0  0
   -6.6160   20.2950  -31.8180 C   0  0  0  0  0  0  0  0  0  0  0  0
   -6.7750   18.8910  -31.9640 C   0  0  0  0  0  0  0  0  0  0  0  0
   -8.0200   18.3280  -32.2300 C   0  0  0  0  0  0  0  0  0  0  0  0
   -9.1460   19.1400  -32.3040 C   0  0  0  0  0  0  0  0  0  0  0  0
   -9.0330   20.5130  -32.1080 C   0  0  0  0  0  0  0  0  0  0  0  0
   -7.7690   21.1220  -31.8860 C   0  0  0  0  0  0  0  0  0  0  0  0
   -7.6510   22.4850  -31.7280 N   0  0  0  0  0  0  0  0  0  0  0  0
   -8.7710   23.3740  -32.1190 C   0  0  0  0  0  0  0  0  0  0  0  0
   -6.5010   23.0170  -31.1770 C   0  0  0  0  0  0  0  0  0  0  0  0
   -6.4820   24.3520  -30.7020 C   0  0  0  0  0  0  0  0  0  0  0  0
   -5.3190   24.9280  -30.2180 C   0  0  0  0  0  0  0  0  0  0  0  0
   -4.1550   24.1870  -30.1460 C   0  0  0  0  0  0  0  0  0  0  0  0
   -4.1340   22.8440  -30.5280 C   0  0  0  0  0  0  0  0  0  0  0  0
   -2.9440   22.1080  -30.2260 N   0  0  0  0  0  0  0  0  0  0  0  0
   -2.5400   21.8390  -28.8470 C   0  0  0  0  0  0  0  0  0  0  0  0
   -2.7140   20.3420  -28.5170 C   0  0  0  0  0  0  0  0  0  0  0  0
   -2.0020   19.8780  -27.2850 N   0  0  0  0  0  0  0  0  0  0  0  0
   -2.9000   19.0680  -26.4240 C   0  0  0  0  0  0  0  0  0  0  0  0
   -1.4650   21.0180  -26.5090 C   0  0  0  0  0  0  0  0  0  0  0  0
   -0.8630   19.0260  -27.7040 C   0  0  0  0  0  0  0  0  0  0  0  0
   -5.3080   22.2310  -31.0860 C   0  0  0  0  0  0  0  0  0  0  0  0
   -0.4298   19.1128  -29.9728 H   0  0  0  0  0  0  0  0  0  0  0  0
    0.5909   18.2644  -31.1831 H   0  0  0  0  0  0  0  0  0  0  0  0
    0.5016   20.0584  -31.1831 H   0  0  0  0  0  0  0  0  0  0  0  0
   -1.0205   18.3750  -32.7877 H   0  0  0  0  0  0  0  0  0  0  0  0
   -2.1386   18.7259  -31.4213 H   0  0  0  0  0  0  0  0  0  0  0  0
   -0.3744   22.1922  -32.3320 H   0  0  0  0  0  0  0  0  0  0  0  0
    0.5650   20.6617  -32.2207 H   0  0  0  0  0  0  0  0  0  0  0  0
    1.1110   21.5338  -34.3646 H   0  0  0  0  0  0  0  0  0  0  0  0
   -0.1328   20.2807  -34.6956 H   0  0  0  0  0  0  0  0  0  0  0  0
   -0.5867   22.0187  -34.6956 H   0  0  0  0  0  0  0  0  0  0  0  0
   -2.0082   21.1459  -34.4558 H   0  0  0  0  0  0  0  0  0  0  0  0
   -2.1469   19.3597  -34.2462 H   0  0  0  0  0  0  0  0  0  0  0  0
   -4.1377   21.5170  -33.6925 H   0  0  0  0  0  0  0  0  0  0  0  0
   -4.3736   19.7556  -34.0712 H   0  0  0  0  0  0  0  0  0  0  0  0
   -3.3210   20.4380  -31.4370 H   0  0  0  0  0  0  0  0  0  0  0  0
   -4.1860   19.1760  -31.9550 H   0  0  0  0  0  0  0  0  0  0  0  0
   -5.8970   18.2358  -31.8649 H   0  0  0  0  0  0  0  0  0  0  0  0
   -8.1127   17.2424  -32.3814 H   0  0  0  0  0  0  0  0  0  0  0  0
  -10.1293   18.6958  -32.5181 H   0  0  0  0  0  0  0  0  0  0  0  0
   -9.9383   21.1377  -32.1253 H   0  0  0  0  0  0  0  0  0  0  0  0
   -9.2623   23.7639  -31.2153 H   0  0  0  0  0  0  0  0  0  0  0  0
   -8.3825   24.2123  -32.7159 H   0  0  0  0  0  0  0  0  0  0  0  0
   -9.4993   22.8054  -32.7159 H   0  0  0  0  0  0  0  0  0  0  0  0
   -7.4097   24.9428  -30.7180 H   0  0  0  0  0  0  0  0  0  0  0  0
   -5.3221   25.9780  -29.8901 H   0  0  0  0  0  0  0  0  0  0  0  0
   -3.2317   24.6618  -29.7826 H   0  0  0  0  0  0  0  0  0  0  0  0
   -2.3930   21.6950  -31.0140 H   0  0  0  0  0  0  0  0  0  0  0  0
   -1.4839   22.1181  -28.7179 H   0  0  0  0  0  0  0  0  0  0  0  0
   -3.1731   22.4295  -28.1684 H   0  0  0  0  0  0  0  0  0  0  0  0
   -3.7880   20.1445  -28.3850 H   0  0  0  0  0  0  0  0  0  0  0  0
   -2.2675   19.7887  -29.3564 H   0  0  0  0  0  0  0  0  0  0  0  0
   -2.6752   19.2708  -25.3665 H   0  0  0  0  0  0  0  0  0  0  0  0
   -3.9467   19.3334  -26.6338 H   0  0  0  0  0  0  0  0  0  0  0  0
   -2.7436   17.9996  -26.6338 H   0  0  0  0  0  0  0  0  0  0  0  0
   -1.5637   20.8085  -25.4337 H   0  0  0  0  0  0  0  0  0  0  0  0
   -0.4036   21.1637  -26.7583 H   0  0  0  0  0  0  0  0  0  0  0  0
   -2.0286   21.9292  -26.7583 H   0  0  0  0  0  0  0  0  0  0  0  0
   -0.3467   18.6398  -26.8128 H   0  0  0  0  0  0  0  0  0  0  0  0
   -1.2367   18.1839  -28.3050 H   0  0  0  0  0  0  0  0  0  0  0  0
   -0.1607   19.6223  -28.3050 H   0  0  0  0  0  0  0  0  0  0  0  0
  1  2  1  0
  2  3  1  0
  3  4  1  0
  4  5  1  0
  3  6  1  0
  6  7  1  0
  7  8  1  0
  8  9  1  0
  9 10  2  0
 10 11  1  0
 11 12  2  0
 12 13  1  0
 13 14  2  0
 14 15  1  0
 15 16  2  0
 16 17  1  0
 16 18  1  0
 18 19  2  0
 19 20  1  0
 20 21  2  0
 21 22  1  0
 22 23  1  0
 23 24  1  0
 24 25  1  0
 25 26  1  0
 26 27  1  0
 26 28  1  0
 26 29  1  0
 22 30  2  0
 30  9  1  0
 15 10  1  0
 30 18  1  0
  1 31  1  0
  1 32  1  0
  1 33  1  0
  2 34  1  0
  2 35  1  0
  4 36  1  0
  4 37  1  0
  5 38  1  0
  5 39  1  0
  5 40  1  0
  6 41  1  0
  6 42  1  0
  7 43  1  0
  7 44  1  0
  8 45  1  0
  8 46  1  0
 11 47  1  0
 12 48  1  0
 13 49  1  0
 14 50  1  0
 17 51  1  0
 17 52  1  0
 17 53  1  0
 19 54  1  0
 20 55  1  0
 21 56  1  0
 23 57  1  0
 24 58  1  0
 24 59  1  0
 25 60  1  0
 25 61  1  0
 27 62  1  0
 27 63  1  0
 27 64  1  0
 28 65  1  0
 28 66  1  0
 28 67  1  0
 29 68  1  0
 29 69  1  0
 29 70  1  0
M  CHG  3   8   1  16   1  26   1
M  END
>  <UniqueID>  (6) 
6

>  <SMILES>  (6) 
CCN(CC)CC[NH2+]c1c2ccccc2[n+](C)c2cccc(NCC[N+](C)(C)C)c12

>  <Energy>  (6) 
121.08068550239952

>  <Genealogy>  (6) 
CCN(CC)CC[NH2+]c1c2ccccc2[n+](C)c2cccc(NCC[N+](C)(C)C)c12 (protonated)
CCN(CC)CC[NH2+]c1c2ccccc2[n+](C)c2cccc(NCC[N+](C)(C)C)c12 (3D coordinates assigned)
CCN(CC)CC[NH2+]c1c2ccccc2[n+](C)c2cccc(NCC[N+](C)(C)C)c12 (optimized conformer: 121.08068550239952 kcal/mol)

>  <smiles>  (6) 
CCN(CC)CCNc1c2ccccc2[n+](C)c2cccc(NCC[N+](C)(C)C)c12

>  <score_type>  (6) 
oracle

>  <origin>  (6) 
adg

>  <m_score__min__energy>  (6) 
-6.5199999999999996

>  <m_primary>  (6) 
energy

$$$$
6:0
     RDKit          3D

 71 74  0  0  0  0  0  0  0  0999 V2000
   -0.9120   19.8080  -30.3480 C   0  0  0  0  0  0  0  0  0  0  0  0
   -0.8150   21.3350  -30.3630 C   0  0  0  0  0  0  0  0  0  0  0  0
   -2.1750   21.9210  -30.4130 N   0  0  0  0  0  0  0  0  0  0  0  0
   -2.1610   23.3300  -29.9760 C   0  0  0  0  0  0  0  0  0  0  0  0
   -3.1530   21.1450  -29.6160 C   0  0  0  0  0  0  0  0  0  0  0  0
   -4.2240   20.4830  -30.5120 C   0  0  0  0  0  0  0  0  0  0  0  0
   -4.2640   21.0730  -31.8680 N   0  0  0  0  0  0  0  0  0  0  0  0
   -3.8850   20.1010  -32.8870 C   0  0  0  0  0  0  0  0  0  0  0  0
   -2.5900   20.2070  -33.4810 C   0  0  0  0  0  0  0  0  0  0  0  0
   -1.7950   21.3790  -33.3590 C   0  0  0  0  0  0  0  0  0  0  0  0
   -0.5530   21.4780  -33.9830 C   0  0  0  0  0  0  0  0  0  0  0  0
   -0.0730   20.4300  -34.7550 C   0  0  0  0  0  0  0  0  0  0  0  0
   -0.8140   19.2600  -34.8690 C   0  0  0  0  0  0  0  0  0  0  0  0
   -2.0560   19.1070  -34.1990 C   0  0  0  0  0  0  0  0  0  0  0  0
   -2.7260   17.9090  -34.2220 N   0  0  0  0  0  0  0  0  0  0  0  0
   -1.9930   16.6680  -34.5810 C   0  0  0  0  0  0  0  0  0  0  0  0
   -4.0660   17.8590  -33.8980 C   0  0  0  0  0  0  0  0  0  0  0  0
   -4.8320   16.7220  -34.2570 C   0  0  0  0  0  0  0  0  0  0  0  0
   -6.1650   16.6070  -33.9110 C   0  0  0  0  0  0  0  0  0  0  0  0
   -6.7960   17.6370  -33.2470 C   0  0  0  0  0  0  0  0  0  0  0  0
   -6.1160   18.8140  -32.9160 C   0  0  0  0  0  0  0  0  0  0  0  0
   -6.9250   19.8380  -32.3240 N   0  0  0  0  0  0  0  0  0  0  0  0
   -8.3290   20.0090  -32.7010 C   0  0  0  0  0  0  0  0  0  0  0  0
   -8.9740   21.1690  -31.9210 C   0  0  0  0  0  0  0  0  0  0  0  0
   -8.2130   21.5270  -30.6340 C   0  0  0  0  0  0  0  0  0  0  0  0
   -6.9440   22.2280  -30.9290 N   0  0  0  0  0  0  0  0  0  0  0  0
   -6.6200   23.1950  -29.8620 C   0  0  0  0  0  0  0  0  0  0  0  0
   -5.2980   23.9250  -30.1800 C   0  0  0  0  0  0  0  0  0  0  0  0
   -4.7780   23.5620  -31.4440 O   0  0  0  0  0  0  0  0  0  0  0  0
   -5.7480   23.8010  -32.4450 C   0  0  0  0  0  0  0  0  0  0  0  0
   -6.9940   22.9160  -32.2400 C   0  0  0  0  0  0  0  0  0  0  0  0
   -4.7020   18.9520  -33.2120 C   0  0  0  0  0  0  0  0  0  0  0  0
   -0.9346   19.4522  -29.3074 H   0  0  0  0  0  0  0  0  0  0  0  0
   -1.8319   19.4940  -30.8629 H   0  0  0  0  0  0  0  0  0  0  0  0
   -0.0392   19.3801  -30.8629 H   0  0  0  0  0  0  0  0  0  0  0  0
   -0.3023   21.6778  -29.4522 H   0  0  0  0  0  0  0  0  0  0  0  0
   -0.2473   21.6554  -31.2490 H   0  0  0  0  0  0  0  0  0  0  0  0
   -2.1606   23.3730  -28.8768 H   0  0  0  0  0  0  0  0  0  0  0  0
   -1.2579   23.8249  -30.3627 H   0  0  0  0  0  0  0  0  0  0  0  0
   -3.0541   23.8427  -30.3627 H   0  0  0  0  0  0  0  0  0  0  0  0
   -2.6179   20.3603  -29.0611 H   0  0  0  0  0  0  0  0  0  0  0  0
   -3.6613   21.8373  -28.9287 H   0  0  0  0  0  0  0  0  0  0  0  0
   -3.9980   19.4100  -30.5996 H   0  0  0  0  0  0  0  0  0  0  0  0
   -5.2050   20.6499  -30.0432 H   0  0  0  0  0  0  0  0  0  0  0  0
   -3.6530   21.9150  -31.9100 H   0  0  0  0  0  0  0  0  0  0  0  0
   -5.1750   21.5080  -32.0330 H   0  0  0  0  0  0  0  0  0  0  0  0
   -2.1672   22.2237  -32.7607 H   0  0  0  0  0  0  0  0  0  0  0  0
    0.0492   22.3907  -33.8630 H   0  0  0  0  0  0  0  0  0  0  0  0
    0.8914   20.5250  -35.2754 H   0  0  0  0  0  0  0  0  0  0  0  0
   -0.4309   18.4369  -35.4901 H   0  0  0  0  0  0  0  0  0  0  0  0
   -1.6846   16.1458  -33.6633 H   0  0  0  0  0  0  0  0  0  0  0  0
   -2.6491   16.0128  -35.1728 H   0  0  0  0  0  0  0  0  0  0  0  0
   -1.1025   16.9263  -35.1728 H   0  0  0  0  0  0  0  0  0  0  0  0
   -4.3536   15.9107  -34.8253 H   0  0  0  0  0  0  0  0  0  0  0  0
   -6.7225   15.6935  -34.1655 H   0  0  0  0  0  0  0  0  0  0  0  0
   -7.8558   17.5314  -32.9718 H   0  0  0  0  0  0  0  0  0  0  0  0
   -6.6540   20.1560  -31.3660 H   0  0  0  0  0  0  0  0  0  0  0  0
   -8.3884   20.2234  -33.7783 H   0  0  0  0  0  0  0  0  0  0  0  0
   -8.8709   19.0823  -32.4612 H   0  0  0  0  0  0  0  0  0  0  0  0
   -8.9998   22.0562  -32.5708 H   0  0  0  0  0  0  0  0  0  0  0  0
   -9.9830   20.8450  -31.6261 H   0  0  0  0  0  0  0  0  0  0  0  0
   -8.8459   22.1798  -30.0149 H   0  0  0  0  0  0  0  0  0  0  0  0
   -7.9750   20.5930  -30.1038 H   0  0  0  0  0  0  0  0  0  0  0  0
   -7.4317   23.9332  -29.7833 H   0  0  0  0  0  0  0  0  0  0  0  0
   -6.5082   22.6529  -28.9114 H   0  0  0  0  0  0  0  0  0  0  0  0
   -5.4811   25.0096  -30.1705 H   0  0  0  0  0  0  0  0  0  0  0  0
   -4.5608   23.6367  -29.4161 H   0  0  0  0  0  0  0  0  0  0  0  0
   -6.0492   24.8583  -32.4070 H   0  0  0  0  0  0  0  0  0  0  0  0
   -5.3059   23.5573  -33.4223 H   0  0  0  0  0  0  0  0  0  0  0  0
   -7.8944   23.5465  -32.2817 H   0  0  0  0  0  0  0  0  0  0  0  0
   -7.0199   22.1561  -33.0349 H   0  0  0  0  0  0  0  0  0  0  0  0
  1  2  1  0
  2  3  1  0
  3  4  1  0
  3  5  1  0
  5  6  1  0
  6  7  1  0
  7  8  1  0
  8  9  2  0
  9 10  1  0
 10 11  2  0
 11 12  1  0
 12 13  2  0
 13 14  1  0
 14 15  2  0
 15 16  1  0
 15 17  1  0
 17 18  2  0
 18 19  1  0
 19 20  2  0
 20 21  1  0
 21 22  1  0
 22 23  1  0
 23 24  1  0
 24 25  1  0
 25 26  1  0
 26 27  1  0
 27 28  1  0
 28 29  1  0
 29 30  1  0
 30 31  1  0
 21 32  2  0
 32  8  1  0
 14  9  1  0
 32 17  1  0
 31 26  1  0
  1 33  1  0
  1 34  1  0
  1 35  1  0
  2 36  1  0
  2 37  1  0
  4 38  1  0
  4 39  1  0
  4 40  1  0
  5 41  1  0
  5 42  1  0
  6 43  1  0
  6 44  1  0
  7 45  1  0
  7 46  1  0
 10 47  1  0
 11 48  1  0
 12 49  1  0
 13 50  1  0
 16 51  1  0
 16 52  1  0
 16 53  1  0
 18 54  1  0
 19 55  1  0
 20 56  1  0
 22 57  1  0
 23 58  1  0
 23 59  1  0
 24 60  1  0
 24 61  1  0
 25 62  1  0
 25 63  1  0
 27 64  1  0
 27 65  1  0
 28 66  1  0
 28 67  1  0
 30 68  1  0
 30 69  1  0
 31 70  1  0
 31 71  1  0
M  CHG  2   7   1  15   1
M  END
>  <UniqueID>  (7) 
7

>  <SMILES>  (7) 
CCN(C)CC[NH2+]c1c2ccccc2[n+](C)c2cccc(NCCCN3CCOCC3)c12

>  <Energy>  (7) 
127.55697481365958

>  <Genealogy>  (7) 
CCN(C)CC[NH2+]c1c2ccccc2[n+](C)c2cccc(NCCCN3CCOCC3)c12 (protonated)
CCN(C)CC[NH2+]c1c2ccccc2[n+](C)c2cccc(NCCCN3CCOCC3)c12 (3D coordinates assigned)
CCN(C)CC[NH2+]c1c2ccccc2[n+](C)c2cccc(NCCCN3CCOCC3)c12 (nonaromatic ring conformer: 127.55697481365958 kcal/mol)

>  <smiles>  (7) 
CCN(C)CCNc1c2ccccc2[n+](C)c2cccc(NCCCN3CCOCC3)c12

>  <score_type>  (7) 
oracle

>  <origin>  (7) 
adg

>  <m_score__min__energy>  (7) 
-9.1300000000000008

>  <m_primary>  (7) 
energy

$$$$
7:0
     RDKit          3D

 58 60  0  0  0  0  0  0  0  0999 V2000
   -5.7330   25.2930  -30.5880 C   0  0  0  0  0  0  0  0  0  0  0  0
   -5.6640   24.3700  -29.3680 C   0  0  0  0  0  0  0  0  0  0  0  0
   -4.7120   24.8600  -28.3510 N   0  0  0  0  0  0  0  0  0  0  0  0
   -4.2270   23.7960  -27.4510 C   0  0  0  0  0  0  0  0  0  0  0  0
   -3.1420   22.9280  -28.1050 C   0  0  0  0  0  0  0  0  0  0  0  0
   -2.6190   23.5980  -29.2350 O   0  0  0  0  0  0  0  0  0  0  0  0
   -2.1790   22.6800  -30.2110 C   0  0  0  0  0  0  0  0  0  0  0  0
   -3.3790   21.9680  -30.8420 C   0  0  0  0  0  0  0  0  0  0  0  0
   -3.2030   21.7000  -32.3490 C   0  0  0  0  0  0  0  0  0  0  0  0
   -4.4690   21.8390  -33.0760 N   0  0  0  0  0  0  0  0  0  0  0  0
   -5.5790   20.9450  -32.8840 C   0  0  0  0  0  0  0  0  0  0  0  0
   -5.4300   19.5720  -33.1490 C   0  0  0  0  0  0  0  0  0  0  0  0
   -6.4800   18.6880  -32.8330 C   0  0  0  0  0  0  0  0  0  0  0  0
   -7.6040   19.1450  -32.1760 N   0  0  0  0  0  0  0  0  0  0  0  0
   -8.5530   18.1810  -31.5830 C   0  0  0  0  0  0  0  0  0  0  0  0
   -7.8410   20.5030  -32.0840 C   0  0  0  0  0  0  0  0  0  0  0  0
   -9.0940   21.0140  -31.6570 C   0  0  0  0  0  0  0  0  0  0  0  0
   -9.3160   22.3890  -31.5710 C   0  0  0  0  0  0  0  0  0  0  0  0
   -8.3130   23.2840  -31.9240 C   0  0  0  0  0  0  0  0  0  0  0  0
   -7.0800   22.8130  -32.3660 C   0  0  0  0  0  0  0  0  0  0  0  0
   -6.8230   21.4280  -32.4410 C   0  0  0  0  0  0  0  0  0  0  0  0
   -6.3080   17.2300  -33.2210 C   0  0  0  0  0  0  0  0  0  0  0  0
   -5.6090   17.1290  -34.5760 C   0  0  0  0  0  0  0  0  0  0  0  0
   -4.2260   17.7970  -34.5670 C   0  0  0  0  0  0  0  0  0  0  0  0
   -4.0990   18.9960  -33.6010 C   0  0  0  0  0  0  0  0  0  0  0  0
   -5.8111   26.3379  -30.2533 H   0  0  0  0  0  0  0  0  0  0  0  0
   -4.8231   25.1690  -31.1935 H   0  0  0  0  0  0  0  0  0  0  0  0
   -6.6144   25.0351  -31.1935 H   0  0  0  0  0  0  0  0  0  0  0  0
   -6.6644   24.3061  -28.9151 H   0  0  0  0  0  0  0  0  0  0  0  0
   -5.3155   23.3842  -29.7096 H   0  0  0  0  0  0  0  0  0  0  0  0
   -3.9000   25.3090  -28.8350 H   0  0  0  0  0  0  0  0  0  0  0  0
   -5.1680   25.6080  -27.7770 H   0  0  0  0  0  0  0  0  0  0  0  0
   -3.8096   24.2615  -26.5460 H   0  0  0  0  0  0  0  0  0  0  0  0
   -5.0798   23.1440  -27.2111 H   0  0  0  0  0  0  0  0  0  0  0  0
   -2.3341   22.7442  -27.3814 H   0  0  0  0  0  0  0  0  0  0  0  0
   -3.5797   21.9686  -28.4180 H   0  0  0  0  0  0  0  0  0  0  0  0
   -1.6231   23.2185  -30.9927 H   0  0  0  0  0  0  0  0  0  0  0  0
   -1.5265   21.9332  -29.7350 H   0  0  0  0  0  0  0  0  0  0  0  0
   -3.5227   21.0050  -30.3302 H   0  0  0  0  0  0  0  0  0  0  0  0
   -4.2493   22.6310  -30.7277 H   0  0  0  0  0  0  0  0  0  0  0  0
   -2.4771   22.4190  -32.7566 H   0  0  0  0  0  0  0  0  0  0  0  0
   -2.8472   20.6667  -32.4743 H   0  0  0  0  0  0  0  0  0  0  0  0
   -4.5640   22.6100  -33.7730 H   0  0  0  0  0  0  0  0  0  0  0  0
   -8.4965   18.2384  -30.4860 H   0  0  0  0  0  0  0  0  0  0  0  0
   -9.5747   18.4234  -31.9107 H   0  0  0  0  0  0  0  0  0  0  0  0
   -8.2946   17.1632  -31.9107 H   0  0  0  0  0  0  0  0  0  0  0  0
   -9.9016   20.3165  -31.3900 H   0  0  0  0  0  0  0  0  0  0  0  0
  -10.2888   22.7660  -31.2224 H   0  0  0  0  0  0  0  0  0  0  0  0
   -8.4939   24.3668  -31.8539 H   0  0  0  0  0  0  0  0  0  0  0  0
   -6.2978   23.5283  -32.6599 H   0  0  0  0  0  0  0  0  0  0  0  0
   -5.7009   16.7194  -32.4589 H   0  0  0  0  0  0  0  0  0  0  0  0
   -7.2979   16.7551  -33.2890 H   0  0  0  0  0  0  0  0  0  0  0  0
   -5.4875   16.0665  -34.8335 H   0  0  0  0  0  0  0  0  0  0  0  0
   -6.2316   17.6520  -35.3168 H   0  0  0  0  0  0  0  0  0  0  0  0
   -3.4815   17.0413  -34.2761 H   0  0  0  0  0  0  0  0  0  0  0  0
   -4.0639   18.1935  -35.5802 H   0  0  0  0  0  0  0  0  0  0  0  0
   -3.5456   18.6646  -32.7100 H   0  0  0  0  0  0  0  0  0  0  0  0
   -3.5790   19.7935  -34.1519 H   0  0  0  0  0  0  0  0  0  0  0  0
  1  2  1  0
  2  3  1  0
  3  4  1  0
  4  5  1  0
  5  6  1  0
  6  7  1  0
  7  8  1  0
  8  9  1  0
  9 10  1  0
 10 11  1  0
 11 12  2  0
 12 13  1  0
 13 14  2  0
 14 15  1  0
 14 16  1  0
 16 17  2  0
 17 18  1  0
 18 19  2  0
 19 20  1  0
 20 21  2  0
 13 22  1  0
 22 23  1  0
 23 24  1  0
 24 25  1  0
 21 11  1  0
 25 12  1  0
 21 16  1  0
  1 26  1  0
  1 27  1  0
  1 28  1  0
  2 29  1  0
  2 30  1  0
  3 31  1  0
  3 32  1  0
  4 33  1  0
  4 34  1  0
  5 35  1  0
  5 36  1  0
  7 37  1  0
  7 38  1  0
  8 39  1  0
  8 40  1  0
  9 41  1  0
  9 42  1  0
 10 43  1  0
 15 44  1  0
 15 45  1  0
 15 46  1  0
 17 47  1  0
 18 48  1  0
 19 49  1  0
 20 50  1  0
 22 51  1  0
 22 52  1  0
 23 53  1  0
 23 54  1  0
 24 55  1  0
 24 56  1  0
 25 57  1  0
 25 58  1  0
M  CHG  2   3   1  14   1
M  END
>  <UniqueID>  (8) 
8

>  <SMILES>  (8) 
CC[NH2+]CCOCCCNc1c2c([n+](C)c3ccccc13)CCCC2

>  <Energy>  (8) 
76.72540052984847

>  <Genealogy>  (8) 
CC[NH2+]CCOCCCNc1c2c([n+](C)c3ccccc13)CCCC2 (protonated)
CC[NH2+]CCOCCCNc1c2c([n+](C)c3ccccc13)CCCC2 (3D coordinates assigned)
CC[NH2+]CCOCCCNc1c2c([n+](C)c3ccccc13)CCCC2 (nonaromatic ring conformer: 76.72540052984847 kcal/mol)

>  <smiles>  (8) 
CCNCCOCCCNc1c2c([n+](C)c3ccccc13)CCCC2

>  <score_type>  (8) 
oracle

>  <origin>  (8) 
adg

>  <m_score__min__energy>  (8) 
-8.3300000000000001

>  <m_primary>  (8) 
energy

$$$$
8:0
     RDKit          3D

 62 64  0  0  0  0  0  0  0  0999 V2000
   -2.6410   21.0810  -27.8660 C   0  0  0  0  0  0  0  0  0  0  0  0
   -3.0350   21.3520  -29.3160 C   0  0  0  0  0  0  0  0  0  0  0  0
   -2.3390   22.5370  -29.8630 N   0  0  0  0  0  0  0  0  0  0  0  0
   -0.9520   22.2090  -30.2320 C   0  0  0  0  0  0  0  0  0  0  0  0
   -2.4460   23.7680  -29.0400 C   0  0  0  0  0  0  0  0  0  0  0  0
   -3.7680   24.5450  -29.1740 C   0  0  0  0  0  0  0  0  0  0  0  0
   -3.8740   25.1150  -30.4610 O   0  0  0  0  0  0  0  0  0  0  0  0
   -5.2280   25.3280  -30.8110 C   0  0  0  0  0  0  0  0  0  0  0  0
   -5.7620   24.1760  -31.6690 C   0  0  0  0  0  0  0  0  0  0  0  0
   -5.0500   22.9310  -31.3790 N   0  0  0  0  0  0  0  0  0  0  0  0
   -5.4040   21.6860  -32.0070 C   0  0  0  0  0  0  0  0  0  0  0  0
   -6.7460   21.2700  -32.0610 C   0  0  0  0  0  0  0  0  0  0  0  0
   -7.7860   22.1250  -31.6360 C   0  0  0  0  0  0  0  0  0  0  0  0
   -9.1160   21.7230  -31.7190 C   0  0  0  0  0  0  0  0  0  0  0  0
   -9.4340   20.4770  -32.2500 C   0  0  0  0  0  0  0  0  0  0  0  0
   -8.4240   19.6220  -32.6890 C   0  0  0  0  0  0  0  0  0  0  0  0
   -7.0580   19.9890  -32.5850 C   0  0  0  0  0  0  0  0  0  0  0  0
   -6.0460   19.1430  -32.9970 N   0  0  0  0  0  0  0  0  0  0  0  0
   -6.3360   17.7160  -33.2500 C   0  0  0  0  0  0  0  0  0  0  0  0
   -4.7600   19.6280  -33.1480 C   0  0  0  0  0  0  0  0  0  0  0  0
   -3.7620   18.8960  -33.8370 C   0  0  0  0  0  0  0  0  0  0  0  0
   -2.4430   19.3590  -33.9340 C   0  0  0  0  0  0  0  0  0  0  0  0
   -1.4730   18.5700  -34.6530 N   0  0  0  0  0  0  0  0  0  0  0  0
   -1.2070   17.1520  -34.4160 C   0  0  0  0  0  0  0  0  0  0  0  0
   -0.1020   16.6510  -35.3460 C   0  0  0  0  0  0  0  0  0  0  0  0
    0.2510   17.6520  -36.2590 O   0  0  0  0  0  0  0  0  0  0  0  0
   -2.1130   20.5920  -33.3550 C   0  0  0  0  0  0  0  0  0  0  0  0
   -3.0850   21.3530  -32.7150 C   0  0  0  0  0  0  0  0  0  0  0  0
   -4.4140   20.8980  -32.6190 C   0  0  0  0  0  0  0  0  0  0  0  0
   -3.3579   21.5741  -27.1930 H   0  0  0  0  0  0  0  0  0  0  0  0
   -2.6496   19.9968  -27.6802 H   0  0  0  0  0  0  0  0  0  0  0  0
   -1.6317   21.4768  -27.6802 H   0  0  0  0  0  0  0  0  0  0  0  0
   -2.7752   20.4739  -29.9254 H   0  0  0  0  0  0  0  0  0  0  0  0
   -4.1170   21.5479  -29.3450 H   0  0  0  0  0  0  0  0  0  0  0  0
   -0.3536   22.0675  -29.3199 H   0  0  0  0  0  0  0  0  0  0  0  0
   -0.9397   21.2832  -30.8259 H   0  0  0  0  0  0  0  0  0  0  0  0
   -0.5263   23.0313  -30.8259 H   0  0  0  0  0  0  0  0  0  0  0  0
   -2.3277   23.4809  -27.9847 H   0  0  0  0  0  0  0  0  0  0  0  0
   -1.6607   24.4448  -29.4076 H   0  0  0  0  0  0  0  0  0  0  0  0
   -4.6110   23.8573  -29.0113 H   0  0  0  0  0  0  0  0  0  0  0  0
   -3.7873   25.3495  -28.4241 H   0  0  0  0  0  0  0  0  0  0  0  0
   -5.8295   25.4014  -29.8929 H   0  0  0  0  0  0  0  0  0  0  0  0
   -5.2970   26.2590  -31.3928 H   0  0  0  0  0  0  0  0  0  0  0  0
   -6.8322   24.0359  -31.4569 H   0  0  0  0  0  0  0  0  0  0  0  0
   -5.6084   24.4284  -32.7286 H   0  0  0  0  0  0  0  0  0  0  0  0
   -4.3230   22.9250  -30.6270 H   0  0  0  0  0  0  0  0  0  0  0  0
   -7.5425   23.1199  -31.2348 H   0  0  0  0  0  0  0  0  0  0  0  0
   -9.9155   22.3903  -31.3648 H   0  0  0  0  0  0  0  0  0  0  0  0
  -10.4863   20.1652  -32.3238 H   0  0  0  0  0  0  0  0  0  0  0  0
   -8.6909   18.6471  -33.1230 H   0  0  0  0  0  0  0  0  0  0  0  0
   -6.4433   17.1880  -32.2910 H   0  0  0  0  0  0  0  0  0  0  0  0
   -7.2704   17.6278  -33.8237 H   0  0  0  0  0  0  0  0  0  0  0  0
   -5.5101   17.2701  -33.8237 H   0  0  0  0  0  0  0  0  0  0  0  0
   -4.0295   17.9388  -34.3084 H   0  0  0  0  0  0  0  0  0  0  0  0
   -0.9000   19.0370  -35.3900 H   0  0  0  0  0  0  0  0  0  0  0  0
   -0.8916   17.0127  -33.3714 H   0  0  0  0  0  0  0  0  0  0  0  0
   -2.1253   16.5800  -34.6148 H   0  0  0  0  0  0  0  0  0  0  0  0
    0.7797   16.3768  -34.7482 H   0  0  0  0  0  0  0  0  0  0  0  0
   -0.4680   15.7733  -35.8988 H   0  0  0  0  0  0  0  0  0  0  0  0
   -0.2380   17.4580  -37.1000 H   0  0  0  0  0  0  0  0  0  0  0  0
   -1.0778   20.9603  -33.4072 H   0  0  0  0  0  0  0  0  0  0  0  0
   -2.8117   22.3245  -32.2774 H   0  0  0  0  0  0  0  0  0  0  0  0
  1  2  1  0
  2  3  1  0
  3  4  1  0
  3  5  1  0
  5  6  1  0
  6  7  1  0
  7  8  1  0
  8  9  1  0
  9 10  1  0
 10 11  1  0
 11 12  2  0
 12 13  1  0
 13 14  2  0
 14 15  1  0
 15 16  2  0
 16 17  1  0
 17 18  2  0
 18 19  1  0
 18 20  1  0
 20 21  2  0
 21 22  1  0
 22 23  1  0
 23 24  1  0
 24 25  1  0
 25 26  1  0
 22 27  2  0
 27 28  1  0
 28 29  2  0
 29 11  1  0
 17 12  1  0
 29 20  1  0
  1 30  1  0
  1 31  1  0
  1 32  1  0
  2 33  1  0
  2 34  1  0
  4 35  1  0
  4 36  1  0
  4 37  1  0
  5 38  1  0
  5 39  1  0
  6 40  1  0
  6 41  1  0
  8 42  1  0
  8 43  1  0
  9 44  1  0
  9 45  1  0
 10 46  1  0
 13 47  1  0
 14 48  1  0
 15 49  1  0
 16 50  1  0
 19 51  1  0
 19 52  1  0
 19 53  1  0
 21 54  1  0
 23 55  1  0
 24 56  1  0
 24 57  1  0
 25 58  1  0
 25 59  1  0
 26 60  1  0
 27 61  1  0
 28 62  1  0
M  CHG  1  18   1
M  END
>  <UniqueID>  (9) 
9

>  <SMILES>  (9) 
CCN(C)CCOCCNc1c2ccccc2[n+](C)c2cc(NCCO)ccc12

>  <Energy>  (9) 
88.85419038947973

>  <Genealogy>  (9) 
CCN(C)CCOCCNc1c2ccccc2[n+](C)c2cc(NCCO)ccc12 (3D coordinates assigned)
CCN(C)CCOCCNc1c2ccccc2[n+](C)c2cc(NCCO)ccc12 (optimized conformer: 88.85419038947973 kcal/mol)

>  <smiles>  (9) 
CCN(C)CCOCCNc1c2ccccc2[n+](C)c2cc(NCCO)ccc12

>  <score_type>  (9) 
oracle

>  <origin>  (9) 
adg

>  <m_score__min__energy>  (9) 
-8.4399999999999995

>  <m_primary>  (9) 
energy

$$$$
9:0
     RDKit          3D

 75 77  0  0  0  0  0  0  0  0999 V2000
   -0.0800   18.4810  -28.6790 C   0  0  0  0  0  0  0  0  0  0  0  0
   -0.7950   18.8680  -27.3830 C   0  0  0  0  0  0  0  0  0  0  0  0
   -1.7360   19.9890  -27.6030 N   0  0  0  0  0  0  0  0  0  0  0  0
   -3.0970   19.6850  -27.0880 C   0  0  0  0  0  0  0  0  0  0  0  0
   -3.0030   18.6120  -26.0080 C   0  0  0  0  0  0  0  0  0  0  0  0
   -1.7610   20.3710  -29.0350 C   0  0  0  0  0  0  0  0  0  0  0  0
   -0.9760   21.6620  -29.2790 C   0  0  0  0  0  0  0  0  0  0  0  0
   -1.1640   22.0700  -30.6180 O   0  0  0  0  0  0  0  0  0  0  0  0
   -1.1670   20.9560  -31.4890 C   0  0  0  0  0  0  0  0  0  0  0  0
   -2.1390   21.1720  -32.6570 C   0  0  0  0  0  0  0  0  0  0  0  0
   -3.4910   21.7890  -32.2400 C   0  0  0  0  0  0  0  0  0  0  0  0
   -4.5870   21.5690  -33.1960 N   0  0  0  0  0  0  0  0  0  0  0  0
   -5.7490   20.7570  -32.9550 C   0  0  0  0  0  0  0  0  0  0  0  0
   -5.7220   19.3910  -33.3030 C   0  0  0  0  0  0  0  0  0  0  0  0
   -4.6280   18.8380  -34.0080 C   0  0  0  0  0  0  0  0  0  0  0  0
   -4.6030   17.4870  -34.3450 C   0  0  0  0  0  0  0  0  0  0  0  0
   -5.6750   16.6680  -34.0140 C   0  0  0  0  0  0  0  0  0  0  0  0
   -6.7770   17.1960  -33.3410 C   0  0  0  0  0  0  0  0  0  0  0  0
   -6.8170   18.5610  -32.9580 C   0  0  0  0  0  0  0  0  0  0  0  0
   -7.9010   19.0930  -32.2930 N   0  0  0  0  0  0  0  0  0  0  0  0
   -8.8900   18.1940  -31.6590 C   0  0  0  0  0  0  0  0  0  0  0  0
   -8.0560   20.4630  -32.2110 C   0  0  0  0  0  0  0  0  0  0  0  0
   -9.3100   21.0290  -31.8800 C   0  0  0  0  0  0  0  0  0  0  0  0
   -9.4670   22.4000  -31.7460 C   0  0  0  0  0  0  0  0  0  0  0  0
   -8.3870   23.2480  -31.9260 C   0  0  0  0  0  0  0  0  0  0  0  0
   -7.1280   22.7450  -32.2850 C   0  0  0  0  0  0  0  0  0  0  0  0
   -6.0380   23.6780  -32.3890 N   0  0  0  0  0  0  0  0  0  0  0  0
   -5.4530   24.3260  -31.2130 C   0  0  0  0  0  0  0  0  0  0  0  0
   -5.5020   23.4000  -29.9910 C   0  0  0  0  0  0  0  0  0  0  0  0
   -4.1510   23.1780  -29.4290 N   0  0  0  0  0  0  0  0  0  0  0  0
   -3.2760   24.3380  -29.6740 C   0  0  0  0  0  0  0  0  0  0  0  0
   -4.2370   22.9240  -27.9810 C   0  0  0  0  0  0  0  0  0  0  0  0
   -6.9570   21.3350  -32.4790 C   0  0  0  0  0  0  0  0  0  0  0  0
    0.8640   17.9701  -28.4385 H   0  0  0  0  0  0  0  0  0  0  0  0
   -0.7225   17.8075  -29.2652 H   0  0  0  0  0  0  0  0  0  0  0  0
    0.1326   19.3872  -29.2652 H   0  0  0  0  0  0  0  0  0  0  0  0
   -1.3549   17.9981  -27.0090 H   0  0  0  0  0  0  0  0  0  0  0  0
   -0.0387   19.1876  -26.6510 H   0  0  0  0  0  0  0  0  0  0  0  0
   -3.5400   20.5970  -26.6614 H   0  0  0  0  0  0  0  0  0  0  0  0
   -3.7287   19.3219  -27.9121 H   0  0  0  0  0  0  0  0  0  0  0  0
   -3.0445   19.0856  -25.0160 H   0  0  0  0  0  0  0  0  0  0  0  0
   -3.8431   17.9099  -26.1146 H   0  0  0  0  0  0  0  0  0  0  0  0
   -2.0536   18.0667  -26.1146 H   0  0  0  0  0  0  0  0  0  0  0  0
   -1.3132   19.5613  -29.6299 H   0  0  0  0  0  0  0  0  0  0  0  0
   -2.8068   20.5388  -29.3318 H   0  0  0  0  0  0  0  0  0  0  0  0
   -1.3386   22.4477  -28.5999 H   0  0  0  0  0  0  0  0  0  0  0  0
    0.0936   21.4870  -29.0912 H   0  0  0  0  0  0  0  0  0  0  0  0
   -0.1525   20.8089  -31.8880 H   0  0  0  0  0  0  0  0  0  0  0  0
   -1.4914   20.0703  -30.9231 H   0  0  0  0  0  0  0  0  0  0  0  0
   -1.6615   21.8442  -33.3851 H   0  0  0  0  0  0  0  0  0  0  0  0
   -2.3574   20.1796  -33.0782 H   0  0  0  0  0  0  0  0  0  0  0  0
   -3.7848   21.3506  -31.2749 H   0  0  0  0  0  0  0  0  0  0  0  0
   -3.3346   22.8767  -32.1910 H   0  0  0  0  0  0  0  0  0  0  0  0
   -4.4270   21.8750  -34.1820 H   0  0  0  0  0  0  0  0  0  0  0  0
   -3.7849   19.4840  -34.2942 H   0  0  0  0  0  0  0  0  0  0  0  0
   -3.7339   17.0682  -34.8736 H   0  0  0  0  0  0  0  0  0  0  0  0
   -5.6549   15.6016  -34.2829 H   0  0  0  0  0  0  0  0  0  0  0  0
   -7.6294   16.5426  -33.1033 H   0  0  0  0  0  0  0  0  0  0  0  0
   -8.8062   18.2701  -30.5648 H   0  0  0  0  0  0  0  0  0  0  0  0
   -9.9037   18.4863  -31.9704 H   0  0  0  0  0  0  0  0  0  0  0  0
   -8.6955   17.1571  -31.9704 H   0  0  0  0  0  0  0  0  0  0  0  0
  -10.1764   20.3689  -31.7261 H   0  0  0  0  0  0  0  0  0  0  0  0
  -10.4540   22.8161  -31.4956 H   0  0  0  0  0  0  0  0  0  0  0  0
   -8.5184   24.3310  -31.7855 H   0  0  0  0  0  0  0  0  0  0  0  0
   -5.5270   23.7370  -33.2930 H   0  0  0  0  0  0  0  0  0  0  0  0
   -4.4051   24.5821  -31.4279 H   0  0  0  0  0  0  0  0  0  0  0  0
   -6.0341   25.2325  -30.9881 H   0  0  0  0  0  0  0  0  0  0  0  0
   -6.1398   23.8575  -29.2203 H   0  0  0  0  0  0  0  0  0  0  0  0
   -5.9097   22.4287  -30.3080 H   0  0  0  0  0  0  0  0  0  0  0  0
   -2.9544   24.7643  -28.7123 H   0  0  0  0  0  0  0  0  0  0  0  0
   -2.3932   24.0170  -30.2463 H   0  0  0  0  0  0  0  0  0  0  0  0
   -3.8272   25.0987  -30.2463 H   0  0  0  0  0  0  0  0  0  0  0  0
   -3.9314   23.8266  -27.4316 H   0  0  0  0  0  0  0  0  0  0  0  0
   -5.2726   22.6658  -27.7149 H   0  0  0  0  0  0  0  0  0  0  0  0
   -3.5712   22.0898  -27.7149 H   0  0  0  0  0  0  0  0  0  0  0  0
  1  2  1  0
  2  3  1  0
  3  4  1  0
  4  5  1  0
  3  6  1  0
  6  7  1  0
  7  8  1  0
  8  9  1  0
  9 10  1  0
 10 11  1  0
 11 12  1  0
 12 13  1  0
 13 14  2  0
 14 15  1  0
 15 16  2  0
 16 17  1  0
 17 18  2  0
 18 19  1  0
 19 20  2  0
 20 21  1  0
 20 22  1  0
 22 23  2  0
 23 24  1  0
 24 25  2  0
 25 26  1  0
 26 27  1  0
 27 28  1  0
 28 29  1  0
 29 30  1  0
 30 31  1  0
 30 32  1  0
 26 33  2  0
 33 13  1  0
 19 14  1  0
 33 22  1  0
  1 34  1  0
  1 35  1  0
  1 36  1  0
  2 37  1  0
  2 38  1  0
  4 39  1  0
  4 40  1  0
  5 41  1  0
  5 42  1  0
  5 43  1  0
  6 44  1  0
  6 45  1  0
  7 46  1  0
  7 47  1  0
  9 48  1  0
  9 49  1  0
 10 50  1  0
 10 51  1  0
 11 52  1  0
 11 53  1  0
 12 54  1  0
 15 55  1  0
 16 56  1  0
 17 57  1  0
 18 58  1  0
 21 59  1  0
 21 60  1  0
 21 61  1  0
 23 62  1  0
 24 63  1  0
 25 64  1  0
 27 65  1  0
 28 66  1  0
 28 67  1  0
 29 68  1  0
 29 69  1  0
 31 70  1  0
 31 71  1  0
 31 72  1  0
 32 73  1  0
 32 74  1  0
 32 75  1  0
M  CHG  1  20   1
M  END
>  <UniqueID>  (10) 
10

>  <SMILES>  (10) 
CCN(CC)CCOCCCNc1c2ccccc2[n+](C)c2cccc(NCCN(C)C)c12

>  <Energy>  (10) 
105.05538342576513

>  <Genealogy>  (10) 
CCN(CC)CCOCCCNc1c2ccccc2[n+](C)c2cccc(NCCN(C)C)c12 (3D coordinates assigned)
CCN(CC)CCOCCCNc1c2ccccc2[n+](C)c2cccc(NCCN(C)C)c12 (optimized conformer: 105.05538342576513 kcal/mol)

>  <smiles>  (10) 
CCN(CC)CCOCCCNc1c2ccccc2[n+](C)c2cccc(NCCN(C)C)c12

>  <score_type>  (10) 
oracle

>  <origin>  (10) 
adg

>  <m_score__min__energy>  (10) 
-8.7799999999999994

>  <m_primary>  (10) 
energy

$$$$
10:0
     RDKit          3D

 62 64  0  0  0  0  0  0  0  0999 V2000
   -0.3980   26.8070  -23.2010 C   0  0  0  0  0  0  0  0  0  0  0  0
   -0.6870   25.9440  -24.4300 C   0  0  0  0  0  0  0  0  0  0  0  0
   -1.5030   26.6890  -25.4160 N   0  0  0  0  0  0  0  0  0  0  0  0
   -0.7720   27.8650  -25.9250 C   0  0  0  0  0  0  0  0  0  0  0  0
   -1.9240   25.8220  -26.5420 C   0  0  0  0  0  0  0  0  0  0  0  0
   -0.9800   25.9880  -27.7470 C   0  0  0  0  0  0  0  0  0  0  0  0
   -1.6290   25.6640  -28.9640 O   0  0  0  0  0  0  0  0  0  0  0  0
   -1.4440   24.3040  -29.2930 C   0  0  0  0  0  0  0  0  0  0  0  0
   -2.7620   23.7500  -29.8180 C   0  0  0  0  0  0  0  0  0  0  0  0
   -3.4740   24.7750  -30.4730 O   0  0  0  0  0  0  0  0  0  0  0  0
   -4.6790   24.8680  -29.8490 N   0  0  0  0  0  0  0  0  0  0  0  0
   -5.6710   25.2610  -30.8510 C   0  0  0  0  0  0  0  0  0  0  0  0
   -5.9900   24.0790  -31.7640 C   0  0  0  0  0  0  0  0  0  0  0  0
   -5.1730   22.9200  -31.4080 N   0  0  0  0  0  0  0  0  0  0  0  0
   -5.3660   21.6690  -32.0830 C   0  0  0  0  0  0  0  0  0  0  0  0
   -4.2840   21.0320  -32.7130 C   0  0  0  0  0  0  0  0  0  0  0  0
   -2.9910   21.5960  -32.6690 C   0  0  0  0  0  0  0  0  0  0  0  0
   -1.9060   20.9300  -33.2340 C   0  0  0  0  0  0  0  0  0  0  0  0
   -2.0900   19.6910  -33.8390 C   0  0  0  0  0  0  0  0  0  0  0  0
   -3.3610   19.1230  -33.9090 C   0  0  0  0  0  0  0  0  0  0  0  0
   -4.4930   19.7970  -33.3830 C   0  0  0  0  0  0  0  0  0  0  0  0
   -5.7680   19.2760  -33.4950 N   0  0  0  0  0  0  0  0  0  0  0  0
   -6.0330   18.1590  -34.4310 C   0  0  0  0  0  0  0  0  0  0  0  0
   -6.8040   19.8160  -32.7540 C   0  0  0  0  0  0  0  0  0  0  0  0
   -8.0600   19.1650  -32.6400 C   0  0  0  0  0  0  0  0  0  0  0  0
   -9.1120   19.7510  -31.9370 C   0  0  0  0  0  0  0  0  0  0  0  0
   -8.9430   20.9880  -31.3250 C   0  0  0  0  0  0  0  0  0  0  0  0
   -7.7100   21.6320  -31.3860 C   0  0  0  0  0  0  0  0  0  0  0  0
   -6.6240   21.0470  -32.0690 C   0  0  0  0  0  0  0  0  0  0  0  0
   -0.5934   26.2236  -22.2891 H   0  0  0  0  0  0  0  0  0  0  0  0
    0.6553   27.1239  -23.2149 H   0  0  0  0  0  0  0  0  0  0  0  0
   -1.0480   27.6943  -23.2149 H   0  0  0  0  0  0  0  0  0  0  0  0
    0.2650   25.6516  -24.8972 H   0  0  0  0  0  0  0  0  0  0  0  0
   -1.2468   25.0525  -24.1109 H   0  0  0  0  0  0  0  0  0  0  0  0
   -0.4014   28.4612  -25.0781 H   0  0  0  0  0  0  0  0  0  0  0  0
    0.0780   27.5312  -26.5382 H   0  0  0  0  0  0  0  0  0  0  0  0
   -1.4476   28.4795  -26.5382 H   0  0  0  0  0  0  0  0  0  0  0  0
   -1.9076   24.7723  -26.2137 H   0  0  0  0  0  0  0  0  0  0  0  0
   -2.9394   26.1132  -26.8487 H   0  0  0  0  0  0  0  0  0  0  0  0
   -0.6377   27.0324  -27.7916 H   0  0  0  0  0  0  0  0  0  0  0  0
   -0.1299   25.3023  -27.6162 H   0  0  0  0  0  0  0  0  0  0  0  0
   -0.6681   24.2118  -30.0673 H   0  0  0  0  0  0  0  0  0  0  0  0
   -1.1263   23.7409  -28.4031 H   0  0  0  0  0  0  0  0  0  0  0  0
   -2.5603   22.9330  -30.5264 H   0  0  0  0  0  0  0  0  0  0  0  0
   -3.3598   23.3670  -28.9778 H   0  0  0  0  0  0  0  0  0  0  0  0
   -4.5990   25.6410  -29.1490 H   0  0  0  0  0  0  0  0  0  0  0  0
   -6.5908   25.5879  -30.3439 H   0  0  0  0  0  0  0  0  0  0  0  0
   -5.2650   26.0848  -31.4564 H   0  0  0  0  0  0  0  0  0  0  0  0
   -7.0534   23.8178  -31.6594 H   0  0  0  0  0  0  0  0  0  0  0  0
   -5.7691   24.3634  -32.8034 H   0  0  0  0  0  0  0  0  0  0  0  0
   -4.6590   22.9070  -30.4970 H   0  0  0  0  0  0  0  0  0  0  0  0
   -2.8386   22.5713  -32.1836 H   0  0  0  0  0  0  0  0  0  0  0  0
   -0.9043   21.3835  -33.2018 H   0  0  0  0  0  0  0  0  0  0  0  0
   -1.2278   19.1566  -34.2645 H   0  0  0  0  0  0  0  0  0  0  0  0
   -3.4882   18.1368  -34.3794 H   0  0  0  0  0  0  0  0  0  0  0  0
   -6.2499   17.2448  -33.8589 H   0  0  0  0  0  0  0  0  0  0  0  0
   -6.8968   18.4086  -35.0646 H   0  0  0  0  0  0  0  0  0  0  0  0
   -5.1491   17.9940  -35.0646 H   0  0  0  0  0  0  0  0  0  0  0  0
   -8.2058   18.1829  -33.1136 H   0  0  0  0  0  0  0  0  0  0  0  0
  -10.0796   19.2325  -31.8663 H   0  0  0  0  0  0  0  0  0  0  0  0
   -9.7832   21.4578  -30.7927 H   0  0  0  0  0  0  0  0  0  0  0  0
   -7.5817   22.6083  -30.8957 H   0  0  0  0  0  0  0  0  0  0  0  0
  1  2  1  0
  2  3  1  0
  3  4  1  0
  3  5  1  0
  5  6  1  0
  6  7  1  0
  7  8  1  0
  8  9  1  0
  9 10  1  0
 10 11  1  0
 11 12  1  0
 12 13  1  0
 13 14  1  0
 14 15  1  0
 15 16  2  0
 16 17  1  0
 17 18  2  0
 18 19  1  0
 19 20  2  0
 20 21  1  0
 21 22  2  0
 22 23  1  0
 22 24  1  0
 24 25  2  0
 25 26  1  0
 26 27  2  0
 27 28  1  0
 28 29  2  0
 29 15  1  0
 21 16  1  0
 29 24  1  0
  1 30  1  0
  1 31  1  0
  1 32  1  0
  2 33  1  0
  2 34  1  0
  4 35  1  0
  4 36  1  0
  4 37  1  0
  5 38  1  0
  5 39  1  0
  6 40  1  0
  6 41  1  0
  8 42  1  0
  8 43  1  0
  9 44  1  0
  9 45  1  0
 11 46  1  0
 12 47  1  0
 12 48  1  0
 13 49  1  0
 13 50  1  0
 14 51  1  0
 17 52  1  0
 18 53  1  0
 19 54  1  0
 20 55  1  0
 23 56  1  0
 23 57  1  0
 23 58  1  0
 25 59  1  0
 26 60  1  0
 27 61  1  0
 28 62  1  0
M  CHG  1  22   1
M  END
>  <UniqueID>  (11) 
11

>  <SMILES>  (11) 
CCN(C)CCOCCONCCNc1c2ccccc2[n+](C)c2ccccc12

>  <Energy>  (11) 
83.54948530220487

>  <Genealogy>  (11) 
CCN(C)CCOCCONCCNc1c2ccccc2[n+](C)c2ccccc12 (3D coordinates assigned)
CCN(C)CCOCCONCCNc1c2ccccc2[n+](C)c2ccccc12 (optimized conformer: 83.54948530220487 kcal/mol)

>  <smiles>  (11) 
CCN(C)CCOCCONCCNc1c2ccccc2[n+](C)c2ccccc12

>  <score_type>  (11) 
oracle

>  <origin>  (11) 
adg

>  <m_score__min__energy>  (11) 
-9.8200000000000003

>  <m_primary>  (11) 
energy

$$$$
11:0
     RDKit          3D

 69 72  0  0  0  0  0  0  0  0999 V2000
    0.9920   17.1450  -28.6810 C   0  0  0  0  0  0  0  0  0  0  0  0
   -0.0100   18.1230  -28.1520 C   0  0  0  0  0  0  0  0  0  0  0  0
   -0.7860   17.8960  -27.0740 N   0  0  0  0  0  0  0  0  0  0  0  0
   -1.6220   18.9140  -26.9280 N   0  0  0  0  0  0  0  0  0  0  0  0
   -2.7220   18.9300  -25.9700 C   0  0  0  0  0  0  0  0  0  0  0  0
   -1.3990   19.8020  -27.9190 C   0  0  0  0  0  0  0  0  0  0  0  0
   -2.2380   20.9330  -28.1900 N   0  0  0  0  0  0  0  0  0  0  0  0
   -2.0050   22.1760  -27.4540 C   0  0  0  0  0  0  0  0  0  0  0  0
   -3.2050   20.8650  -29.2880 C   0  0  0  0  0  0  0  0  0  0  0  0
   -0.3820   19.3290  -28.7340 C   0  0  0  0  0  0  0  0  0  0  0  0
    0.1540   19.9520  -29.9990 C   0  0  0  0  0  0  0  0  0  0  0  0
   -0.4480   19.3640  -31.2050 N   0  0  0  0  0  0  0  0  0  0  0  0
   -0.7670   20.3790  -32.2150 C   0  0  0  0  0  0  0  0  0  0  0  0
   -2.2600   20.4840  -32.3580 C   0  0  0  0  0  0  0  0  0  0  0  0
   -2.8800   21.7430  -32.3910 C   0  0  0  0  0  0  0  0  0  0  0  0
   -4.2730   21.8410  -32.4240 C   0  0  0  0  0  0  0  0  0  0  0  0
   -5.0690   20.6830  -32.3990 C   0  0  0  0  0  0  0  0  0  0  0  0
   -6.5460   20.7830  -32.3220 C   0  0  0  0  0  0  0  0  0  0  0  0
   -7.3450   19.7500  -32.8390 C   0  0  0  0  0  0  0  0  0  0  0  0
   -8.7360   19.8070  -32.7290 C   0  0  0  0  0  0  0  0  0  0  0  0
   -9.3430   20.8910  -32.0910 C   0  0  0  0  0  0  0  0  0  0  0  0
   -8.5630   21.9210  -31.5650 C   0  0  0  0  0  0  0  0  0  0  0  0
   -7.1580   21.8750  -31.6700 C   0  0  0  0  0  0  0  0  0  0  0  0
   -6.3380   22.8800  -31.1300 O   0  0  0  0  0  0  0  0  0  0  0  0
   -6.4440   23.4520  -29.8240 C   0  0  0  0  0  0  0  0  0  0  0  0
   -5.0870   23.3790  -29.1030 C   0  0  0  0  0  0  0  0  0  0  0  0
   -3.9770   24.1070  -29.8900 C   0  0  0  0  0  0  0  0  0  0  0  0
   -4.4940   25.2910  -30.7330 C   0  0  0  0  0  0  0  0  0  0  0  0
   -5.7400   25.9300  -30.1080 C   0  0  0  0  0  0  0  0  0  0  0  0
   -6.9020   24.9220  -29.9620 C   0  0  0  0  0  0  0  0  0  0  0  0
   -4.4450   19.4240  -32.3870 C   0  0  0  0  0  0  0  0  0  0  0  0
   -3.0510   19.3260  -32.3610 C   0  0  0  0  0  0  0  0  0  0  0  0
    1.4998   16.6494  -27.8404 H   0  0  0  0  0  0  0  0  0  0  0  0
    0.4790   16.3907  -29.2957 H   0  0  0  0  0  0  0  0  0  0  0  0
    1.7337   17.6762  -29.2957 H   0  0  0  0  0  0  0  0  0  0  0  0
   -0.7790   17.0400  -26.4750 H   0  0  0  0  0  0  0  0  0  0  0  0
   -2.3175   18.9241  -24.9471 H   0  0  0  0  0  0  0  0  0  0  0  0
   -3.3259   19.8370  -26.1203 H   0  0  0  0  0  0  0  0  0  0  0  0
   -3.3521   18.0409  -26.1203 H   0  0  0  0  0  0  0  0  0  0  0  0
   -2.0427   21.9748  -26.3732 H   0  0  0  0  0  0  0  0  0  0  0  0
   -1.0158   22.5784  -27.7177 H   0  0  0  0  0  0  0  0  0  0  0  0
   -2.7813   22.9093  -27.7177 H   0  0  0  0  0  0  0  0  0  0  0  0
   -4.2226   20.7934  -28.8765 H   0  0  0  0  0  0  0  0  0  0  0  0
   -3.1223   21.7712  -29.9061 H   0  0  0  0  0  0  0  0  0  0  0  0
   -2.9963   19.9793  -29.9061 H   0  0  0  0  0  0  0  0  0  0  0  0
   -0.0645   21.0300  -29.9833 H   0  0  0  0  0  0  0  0  0  0  0  0
    1.2372   19.7641  -30.0358 H   0  0  0  0  0  0  0  0  0  0  0  0
   -1.3260   18.8610  -30.9430 H   0  0  0  0  0  0  0  0  0  0  0  0
   -0.3584   21.3509  -31.9013 H   0  0  0  0  0  0  0  0  0  0  0  0
   -0.3232   20.0918  -33.1797 H   0  0  0  0  0  0  0  0  0  0  0  0
   -2.2664   22.6560  -32.3909 H   0  0  0  0  0  0  0  0  0  0  0  0
   -4.7501   22.8311  -32.4699 H   0  0  0  0  0  0  0  0  0  0  0  0
   -6.8715   18.8895  -33.3343 H   0  0  0  0  0  0  0  0  0  0  0  0
   -9.3539   18.9977  -33.1451 H   0  0  0  0  0  0  0  0  0  0  0  0
  -10.4387   20.9327  -32.0031 H   0  0  0  0  0  0  0  0  0  0  0  0
   -9.0468   22.7735  -31.0657 H   0  0  0  0  0  0  0  0  0  0  0  0
   -7.1795   22.8910  -29.2288 H   0  0  0  0  0  0  0  0  0  0  0  0
   -5.1853   23.8463  -28.1121 H   0  0  0  0  0  0  0  0  0  0  0  0
   -4.8041   22.3196  -29.0157 H   0  0  0  0  0  0  0  0  0  0  0  0
   -3.2349   24.4882  -29.1730 H   0  0  0  0  0  0  0  0  0  0  0  0
   -3.5450   23.3765  -30.5898 H   0  0  0  0  0  0  0  0  0  0  0  0
   -3.7016   26.0506  -30.8048 H   0  0  0  0  0  0  0  0  0  0  0  0
   -4.7661   24.9105  -31.7286 H   0  0  0  0  0  0  0  0  0  0  0  0
   -5.4784   26.3158  -29.1116 H   0  0  0  0  0  0  0  0  0  0  0  0
   -6.0756   26.7380  -30.7747 H   0  0  0  0  0  0  0  0  0  0  0  0
   -7.4817   25.1895  -29.0662 H   0  0  0  0  0  0  0  0  0  0  0  0
   -7.4968   24.9853  -30.8852 H   0  0  0  0  0  0  0  0  0  0  0  0
   -5.0572   18.5102  -32.3981 H   0  0  0  0  0  0  0  0  0  0  0  0
   -2.5721   18.3359  -32.3428 H   0  0  0  0  0  0  0  0  0  0  0  0
  1  2  1  0
  2  3  2  0
  3  4  1  0
  4  5  1  0
  4  6  1  0
  6  7  1  0
  7  8  1  0
  7  9  1  0
  6 10  2  0
 10 11  1  0
 11 12  1  0
 12 13  1  0
 13 14  1  0
 14 15  2  0
 15 16  1  0
 16 17  2  0
 17 18  1  0
 18 19  2  0
 19 20  1  0
 20 21  2  0
 21 22  1  0
 22 23  2  0
 23 24  1  0
 24 25  1  0
 25 26  1  0
 26 27  1  0
 27 28  1  0
 28 29  1  0
 29 30  1  0
 17 31  1  0
 31 32  2  0
 10  2  1  0
 32 14  1  0
 23 18  1  0
 30 25  1  0
  1 33  1  0
  1 34  1  0
  1 35  1  0
  3 36  1  0
  5 37  1  0
  5 38  1  0
  5 39  1  0
  8 40  1  0
  8 41  1  0
  8 42  1  0
  9 43  1  0
  9 44  1  0
  9 45  1  0
 11 46  1  0
 11 47  1  0
 12 48  1  0
 13 49  1  0
 13 50  1  0
 15 51  1  0
 16 52  1  0
 19 53  1  0
 20 54  1  0
 21 55  1  0
 22 56  1  0
 25 57  1  0
 26 58  1  0
 26 59  1  0
 27 60  1  0
 27 61  1  0
 28 62  1  0
 28 63  1  0
 29 64  1  0
 29 65  1  0
 30 66  1  0
 30 67  1  0
 31 68  1  0
 32 69  1  0
M  CHG  1   3   1
M  END
>  <UniqueID>  (12) 
12

>  <SMILES>  (12) 
Cc1[nH+]n(C)c(N(C)C)c1CNCc1ccc(-c2ccccc2OC2CCCCC2)cc1

>  <Energy>  (12) 
109.57499622879689

>  <Genealogy>  (12) 
Cc1[nH+]n(C)c(N(C)C)c1CNCc1ccc(-c2ccccc2OC2CCCCC2)cc1 (protonated)
Cc1[nH+]n(C)c(N(C)C)c1CNCc1ccc(-c2ccccc2OC2CCCCC2)cc1 (3D coordinates assigned)
Cc1[nH+]n(C)c(N(C)C)c1CNCc1ccc(-c2ccccc2OC2CCCCC2)cc1 (nonaromatic ring conformer: 109.57499622879689 kcal/mol)

>  <smiles>  (12) 
Cc1nn(C)c(N(C)C)c1CNCc1ccc(-c2ccccc2OC2CCCCC2)cc1

>  <score_type>  (12) 
oracle

>  <origin>  (12) 
adg

>  <m_score__min__energy>  (12) 
-10.31

>  <m_primary>  (12) 
energy

$$$$
12:0
     RDKit          3D

 44 46  0  0  0  0  0  0  0  0999 V2000
   -7.2010   22.9170  -29.7240 C   0  0  0  0  0  0  0  0  0  0  0  0
   -7.7200   23.0920  -31.0910 N   0  0  0  0  0  0  0  0  0  0  0  0
   -8.1730   21.7960  -31.6440 C   0  0  0  0  0  0  0  0  0  0  0  0
   -7.0920   21.1400  -32.5180 C   0  0  0  0  0  0  0  0  0  0  0  0
   -7.6370   19.9490  -33.2090 N   0  0  0  0  0  0  0  0  0  0  0  0
   -8.9540   19.5690  -32.6720 C   0  0  0  0  0  0  0  0  0  0  0  0
   -8.7430   18.5110  -31.5930 C   0  0  0  0  0  0  0  0  0  0  0  0
   -7.3000   18.0680  -31.7350 C   0  0  0  0  0  0  0  0  0  0  0  0
   -6.7910   18.7690  -32.9820 C   0  0  0  0  0  0  0  0  0  0  0  0
   -6.7500   23.8120  -31.9530 C   0  0  0  0  0  0  0  0  0  0  0  0
   -5.4550   24.1490  -31.2600 C   0  0  0  0  0  0  0  0  0  0  0  0
   -5.0530   25.4020  -30.8530 C   0  0  0  0  0  0  0  0  0  0  0  0
   -3.8660   25.2760  -30.3140 O   0  0  0  0  0  0  0  0  0  0  0  0
   -3.5420   24.0040  -30.3830 C   0  0  0  0  0  0  0  0  0  0  0  0
   -2.2760   23.4610  -29.8830 C   0  0  0  0  0  0  0  0  0  0  0  0
   -1.5730   22.3780  -30.3760 C   0  0  0  0  0  0  0  0  0  0  0  0
   -0.4510   22.2140  -29.6490 N   0  0  0  0  0  0  0  0  0  0  0  0
   -0.4410   23.1500  -28.7120 N   0  0  0  0  0  0  0  0  0  0  0  0
    0.6500   23.3410  -27.7660 C   0  0  0  0  0  0  0  0  0  0  0  0
   -1.5260   23.9360  -28.8290 C   0  0  0  0  0  0  0  0  0  0  0  0
   -4.4980   23.2490  -30.9660 N   0  0  0  0  0  0  0  0  0  0  0  0
   -7.9840   23.1810  -28.9979 H   0  0  0  0  0  0  0  0  0  0  0  0
   -6.9026   21.8686  -29.5765 H   0  0  0  0  0  0  0  0  0  0  0  0
   -6.3287   23.5707  -29.5765 H   0  0  0  0  0  0  0  0  0  0  0  0
   -8.4172   21.1194  -30.8117 H   0  0  0  0  0  0  0  0  0  0  0  0
   -9.0556   21.9823  -32.2736 H   0  0  0  0  0  0  0  0  0  0  0  0
   -6.7429   21.8654  -33.2676 H   0  0  0  0  0  0  0  0  0  0  0  0
   -6.2558   20.8273  -31.8753 H   0  0  0  0  0  0  0  0  0  0  0  0
   -9.4471   20.4509  -32.2371 H   0  0  0  0  0  0  0  0  0  0  0  0
   -9.5906   19.1699  -33.4754 H   0  0  0  0  0  0  0  0  0  0  0  0
   -8.9168   18.9399  -30.5951 H   0  0  0  0  0  0  0  0  0  0  0  0
   -9.4411   17.6685  -31.7063 H   0  0  0  0  0  0  0  0  0  0  0  0
   -6.7144   18.3722  -30.8549 H   0  0  0  0  0  0  0  0  0  0  0  0
   -7.2107   16.9743  -31.8119 H   0  0  0  0  0  0  0  0  0  0  0  0
   -5.7459   19.0799  -32.8367 H   0  0  0  0  0  0  0  0  0  0  0  0
   -6.8335   18.0925  -33.8483 H   0  0  0  0  0  0  0  0  0  0  0  0
   -6.5231   23.1791  -32.8236 H   0  0  0  0  0  0  0  0  0  0  0  0
   -7.2194   24.7654  -32.2370 H   0  0  0  0  0  0  0  0  0  0  0  0
   -5.6237   26.3362  -30.9608 H   0  0  0  0  0  0  0  0  0  0  0  0
   -1.8804   21.7507  -31.2257 H   0  0  0  0  0  0  0  0  0  0  0  0
    0.2612   23.2729  -26.7393 H   0  0  0  0  0  0  0  0  0  0  0  0
    1.4112   22.5625  -27.9222 H   0  0  0  0  0  0  0  0  0  0  0  0
    1.1015   24.3318  -27.9222 H   0  0  0  0  0  0  0  0  0  0  0  0
   -1.7708   24.8024  -28.1969 H   0  0  0  0  0  0  0  0  0  0  0  0
  1  2  1  0
  2  3  1  0
  3  4  1  0
  4  5  1  0
  5  6  1  0
  6  7  1  0
  7  8  1  0
  8  9  1  0
  2 10  1  0
 10 11  1  0
 11 12  2  0
 12 13  1  0
 13 14  1  0
 14 15  1  0
 15 16  1  0
 16 17  2  0
 17 18  1  0
 18 19  1  0
 18 20  1  0
 14 21  2  0
  9  5  1  0
 21 11  1  0
 20 15  2  0
  1 22  1  0
  1 23  1  0
  1 24  1  0
  3 25  1  0
  3 26  1  0
  4 27  1  0
  4 28  1  0
  6 29  1  0
  6 30  1  0
  7 31  1  0
  7 32  1  0
  8 33  1  0
  8 34  1  0
  9 35  1  0
  9 36  1  0
 10 37  1  0
 10 38  1  0
 12 39  1  0
 16 40  1  0
 19 41  1  0
 19 42  1  0
 19 43  1  0
 20 44  1  0
M  END
>  <UniqueID>  (13) 
13

>  <SMILES>  (13) 
CN(CCN1CCCC1)Cc1coc(-c2cnn(C)c2)n1

>  <Energy>  (13) 
106.11873498008097

>  <Genealogy>  (13) 
CN(CCN1CCCC1)Cc1coc(-c2cnn(C)c2)n1 (3D coordinates assigned)
CN(CCN1CCCC1)Cc1coc(-c2cnn(C)c2)n1 (nonaromatic ring conformer: 106.11873498008097 kcal/mol)

>  <smiles>  (13) 
CN(CCN1CCCC1)Cc1coc(-c2cnn(C)c2)n1

>  <score_type>  (13) 
oracle

>  <origin>  (13) 
adg

>  <m_score__min__energy>  (13) 
-7.5999999999999996

>  <m_primary>  (13) 
energy

$$$$
13:0
     RDKit          3D

 56 58  0  0  0  0  0  0  0  0999 V2000
   -5.7300   25.6510  -30.4580 C   0  0  0  0  0  0  0  0  0  0  0  0
   -5.7330   24.3870  -29.6030 C   0  0  0  0  0  0  0  0  0  0  0  0
   -4.3610   24.0660  -29.1520 N   0  0  0  0  0  0  0  0  0  0  0  0
   -4.2280   24.0370  -27.6760 C   0  0  0  0  0  0  0  0  0  0  0  0
   -2.8690   24.5400  -27.1610 C   0  0  0  0  0  0  0  0  0  0  0  0
   -3.7860   22.8670  -29.8060 C   0  0  0  0  0  0  0  0  0  0  0  0
   -3.8570   23.0370  -31.3310 C   0  0  0  0  0  0  0  0  0  0  0  0
   -3.5500   21.7330  -32.0920 C   0  0  0  0  0  0  0  0  0  0  0  0
   -4.5330   21.4490  -33.1450 N   0  0  0  0  0  0  0  0  0  0  0  0
   -5.7140   20.6610  -32.9220 C   0  0  0  0  0  0  0  0  0  0  0  0
   -5.7160   19.2830  -33.2010 C   0  0  0  0  0  0  0  0  0  0  0  0
   -6.8580   18.5100  -32.8580 C   0  0  0  0  0  0  0  0  0  0  0  0
   -7.9220   19.1020  -32.2040 N   0  0  0  0  0  0  0  0  0  0  0  0
   -8.9930   18.2660  -31.6190 C   0  0  0  0  0  0  0  0  0  0  0  0
   -8.0090   20.4790  -32.1240 C   0  0  0  0  0  0  0  0  0  0  0  0
   -9.1970   21.1320  -31.7050 C   0  0  0  0  0  0  0  0  0  0  0  0
   -9.2560   22.5210  -31.6000 C   0  0  0  0  0  0  0  0  0  0  0  0
   -8.1460   23.2950  -31.9190 C   0  0  0  0  0  0  0  0  0  0  0  0
   -6.9740   22.6840  -32.3570 C   0  0  0  0  0  0  0  0  0  0  0  0
   -6.8910   21.2800  -32.4710 C   0  0  0  0  0  0  0  0  0  0  0  0
   -6.8650   17.0110  -33.1410 C   0  0  0  0  0  0  0  0  0  0  0  0
   -5.8920   16.5830  -34.2370 C   0  0  0  0  0  0  0  0  0  0  0  0
   -4.5180   17.1730  -33.9670 C   0  0  0  0  0  0  0  0  0  0  0  0
   -4.5900   18.6950  -34.0380 C   0  0  0  0  0  0  0  0  0  0  0  0
   -5.7279   26.5358  -29.8044 H   0  0  0  0  0  0  0  0  0  0  0  0
   -4.8318   25.6620  -31.0930 H   0  0  0  0  0  0  0  0  0  0  0  0
   -6.6281   25.6663  -31.0930 H   0  0  0  0  0  0  0  0  0  0  0  0
   -6.3756   24.5453  -28.7244 H   0  0  0  0  0  0  0  0  0  0  0  0
   -6.1156   23.5498  -30.2053 H   0  0  0  0  0  0  0  0  0  0  0  0
   -5.0173   24.6704  -27.2450 H   0  0  0  0  0  0  0  0  0  0  0  0
   -4.3152   22.9843  -27.3690 H   0  0  0  0  0  0  0  0  0  0  0  0
   -2.8707   24.5394  -26.0610 H   0  0  0  0  0  0  0  0  0  0  0  0
   -2.0704   23.8779  -27.5268 H   0  0  0  0  0  0  0  0  0  0  0  0
   -2.6939   25.5625  -27.5268 H   0  0  0  0  0  0  0  0  0  0  0  0
   -2.7367   22.7481  -29.4980 H   0  0  0  0  0  0  0  0  0  0  0  0
   -4.3569   21.9753  -29.5078 H   0  0  0  0  0  0  0  0  0  0  0  0
   -4.8697   23.3712  -31.6006 H   0  0  0  0  0  0  0  0  0  0  0  0
   -3.0938   23.7754  -31.6178 H   0  0  0  0  0  0  0  0  0  0  0  0
   -2.5551   21.8200  -32.5530 H   0  0  0  0  0  0  0  0  0  0  0  0
   -3.5903   20.9067  -31.3670 H   0  0  0  0  0  0  0  0  0  0  0  0
   -4.4150   21.9110  -34.0750 H   0  0  0  0  0  0  0  0  0  0  0  0
   -8.9352   18.3111  -30.5214 H   0  0  0  0  0  0  0  0  0  0  0  0
   -9.9728   18.6406  -31.9503 H   0  0  0  0  0  0  0  0  0  0  0  0
   -8.8675   17.2246  -31.9503 H   0  0  0  0  0  0  0  0  0  0  0  0
  -10.0859   20.5326  -31.4590 H   0  0  0  0  0  0  0  0  0  0  0  0
  -10.1841   23.0062  -31.2636 H   0  0  0  0  0  0  0  0  0  0  0  0
   -8.1937   24.3900  -31.8254 H   0  0  0  0  0  0  0  0  0  0  0  0
   -6.1027   23.3030  -32.6172 H   0  0  0  0  0  0  0  0  0  0  0  0
   -6.5969   16.4825  -32.2143 H   0  0  0  0  0  0  0  0  0  0  0  0
   -7.8753   16.7579  -33.4948 H   0  0  0  0  0  0  0  0  0  0  0  0
   -5.8209   15.4854  -34.2536 H   0  0  0  0  0  0  0  0  0  0  0  0
   -6.2579   16.9463  -35.2087 H   0  0  0  0  0  0  0  0  0  0  0  0
   -4.1798   16.8691  -32.9654 H   0  0  0  0  0  0  0  0  0  0  0  0
   -3.8085   16.8058  -34.7232 H   0  0  0  0  0  0  0  0  0  0  0  0
   -3.6356   19.1070  -33.6783 H   0  0  0  0  0  0  0  0  0  0  0  0
   -4.7882   18.9636  -35.0861 H   0  0  0  0  0  0  0  0  0  0  0  0
  1  2  1  0
  2  3  1  0
  3  4  1  0
  4  5  1  0
  3  6  1  0
  6  7  1  0
  7  8  1  0
  8  9  1  0
  9 10  1  0
 10 11  2  0
 11 12  1  0
 12 13  2  0
 13 14  1  0
 13 15  1  0
 15 16  2  0
 16 17  1  0
 17 18  2  0
 18 19  1  0
 19 20  2  0
 12 21  1  0
 21 22  1  0
 22 23  1  0
 23 24  1  0
 20 10  1  0
 24 11  1  0
 20 15  1  0
  1 25  1  0
  1 26  1  0
  1 27  1  0
  2 28  1  0
  2 29  1  0
  4 30  1  0
  4 31  1  0
  5 32  1  0
  5 33  1  0
  5 34  1  0
  6 35  1  0
  6 36  1  0
  7 37  1  0
  7 38  1  0
  8 39  1  0
  8 40  1  0
  9 41  1  0
 14 42  1  0
 14 43  1  0
 14 44  1  0
 16 45  1  0
 17 46  1  0
 18 47  1  0
 19 48  1  0
 21 49  1  0
 21 50  1  0
 22 51  1  0
 22 52  1  0
 23 53  1  0
 23 54  1  0
 24 55  1  0
 24 56  1  0
M  CHG  1  13   1
M  END
>  <UniqueID>  (14) 
14

>  <SMILES>  (14) 
CCN(CC)CCCNc1c2c([n+](C)c3ccccc13)CCCC2

>  <Energy>  (14) 
74.71691080833496

>  <Genealogy>  (14) 
CCN(CC)CCCNc1c2c([n+](C)c3ccccc13)CCCC2 (3D coordinates assigned)
CCN(CC)CCCNc1c2c([n+](C)c3ccccc13)CCCC2 (nonaromatic ring conformer: 74.71691080833496 kcal/mol)

>  <smiles>  (14) 
CCN(CC)CCCNc1c2c([n+](C)c3ccccc13)CCCC2

>  <score_type>  (14) 
oracle

>  <origin>  (14) 
adg

>  <m_score__min__energy>  (14) 
-8.9600000000000009

>  <m_primary>  (14) 
energy

$$$$
14:0
     RDKit          3D

 35 36  0  0  0  0  0  0  0  0999 V2000
   -8.4060   19.5720  -32.0880 C   0  0  0  0  0  0  0  0  0  0  0  0
   -7.1470   18.9630  -32.6380 C   0  0  0  0  0  0  0  0  0  0  0  0
   -7.1240   17.6060  -33.0000 C   0  0  0  0  0  0  0  0  0  0  0  0
   -5.9660   17.0300  -33.5390 C   0  0  0  0  0  0  0  0  0  0  0  0
   -5.9620   15.5850  -33.9560 C   0  0  0  0  0  0  0  0  0  0  0  0
   -7.2350   15.2110  -34.4050 O   0  0  0  0  0  0  0  0  0  0  0  0
   -4.8330   17.8280  -33.7450 C   0  0  0  0  0  0  0  0  0  0  0  0
   -4.8490   19.1810  -33.3990 C   0  0  0  0  0  0  0  0  0  0  0  0
   -6.0070   19.7630  -32.8480 C   0  0  0  0  0  0  0  0  0  0  0  0
   -6.0670   21.1240  -32.5020 O   0  0  0  0  0  0  0  0  0  0  0  0
   -5.0360   22.0870  -32.7210 C   0  0  0  0  0  0  0  0  0  0  0  0
   -4.4570   22.5880  -31.3930 C   0  0  0  0  0  0  0  0  0  0  0  0
   -5.2480   23.7020  -30.8720 N   0  0  0  0  0  0  0  0  0  0  0  0
   -4.7890   24.9050  -30.4750 C   0  0  0  0  0  0  0  0  0  0  0  0
   -3.4580   25.2970  -30.5610 O   0  0  0  0  0  0  0  0  0  0  0  0
   -5.8110   25.6840  -29.9690 C   0  0  0  0  0  0  0  0  0  0  0  0
   -6.9570   24.9130  -30.0520 C   0  0  0  0  0  0  0  0  0  0  0  0
   -6.5690   23.7060  -30.6050 C   0  0  0  0  0  0  0  0  0  0  0  0
   -7.4170   22.6300  -30.8550 O   0  0  0  0  0  0  0  0  0  0  0  0
   -8.3715   19.5553  -30.9887 H   0  0  0  0  0  0  0  0  0  0  0  0
   -8.4929   20.6117  -32.4364 H   0  0  0  0  0  0  0  0  0  0  0  0
   -9.2751   18.9947  -32.4364 H   0  0  0  0  0  0  0  0  0  0  0  0
   -8.0240   16.9894  -32.8589 H   0  0  0  0  0  0  0  0  0  0  0  0
   -5.2333   15.4424  -34.7676 H   0  0  0  0  0  0  0  0  0  0  0  0
   -5.6867   14.9615  -33.0926 H   0  0  0  0  0  0  0  0  0  0  0  0
   -7.3050   14.2290  -34.2750 H   0  0  0  0  0  0  0  0  0  0  0  0
   -3.9253   17.3862  -34.1819 H   0  0  0  0  0  0  0  0  0  0  0  0
   -3.9511   19.7962  -33.5579 H   0  0  0  0  0  0  0  0  0  0  0  0
   -4.2317   21.6241  -33.3116 H   0  0  0  0  0  0  0  0  0  0  0  0
   -5.4672   22.9439  -33.2593 H   0  0  0  0  0  0  0  0  0  0  0  0
   -4.4658   21.7659  -30.6622 H   0  0  0  0  0  0  0  0  0  0  0  0
   -3.4274   22.9350  -31.5645 H   0  0  0  0  0  0  0  0  0  0  0  0
   -5.7303   26.7094  -29.5791 H   0  0  0  0  0  0  0  0  0  0  0  0
   -7.9718   25.2017  -29.7410 H   0  0  0  0  0  0  0  0  0  0  0  0
   -7.2790   22.0350  -31.6620 H   0  0  0  0  0  0  0  0  0  0  0  0
  1  2  1  0
  2  3  2  0
  3  4  1  0
  4  5  1  0
  5  6  1  0
  4  7  2  0
  7  8  1  0
  8  9  2  0
  9 10  1  0
 10 11  1  0
 11 12  1  0
 12 13  1  0
 13 14  1  0
 14 15  1  0
 14 16  2  0
 16 17  1  0
 17 18  2  0
 18 19  1  0
  9  2  1  0
 18 13  1  0
  1 20  1  0
  1 21  1  0
  1 22  1  0
  3 23  1  0
  5 24  1  0
  5 25  1  0
  6 26  1  0
  7 27  1  0
  8 28  1  0
 11 29  1  0
 11 30  1  0
 12 31  1  0
 12 32  1  0
 16 33  1  0
 17 34  1  0
 19 35  1  0
M  CHG  1  15  -1
M  END
>  <UniqueID>  (15) 
15

>  <SMILES>  (15) 
Cc1cc(CO)ccc1OCCn1c([O-])ccc1O

>  <Energy>  (15) 
57.68857866341742

>  <Genealogy>  (15) 
Cc1cc(CO)ccc1OCCn1c([O-])ccc1O (protonated)
Cc1cc(CO)ccc1OCCn1c([O-])ccc1O (3D coordinates assigned)
Cc1cc(CO)ccc1OCCn1c([O-])ccc1O (optimized conformer: 57.68857866341742 kcal/mol)

>  <smiles>  (15) 
Cc1cc(CO)ccc1OCCn1c(O)ccc1O

>  <score_type>  (15) 
oracle

>  <origin>  (15) 
adg

>  <m_score__min__energy>  (15) 
-9.1899999999999995

>  <m_primary>  (15) 
energy

$$$$
15:0
     RDKit          3D

 49 51  0  0  0  0  0  0  0  0999 V2000
   -6.8700   23.7950  -31.8910 C   0  0  0  0  0  0  0  0  0  0  0  0
   -6.1100   22.4960  -31.7270 C   0  0  0  0  0  0  0  0  0  0  0  0
   -4.7200   22.5720  -31.4650 C   0  0  0  0  0  0  0  0  0  0  0  0
   -4.1240   23.8120  -31.0380 N   0  0  0  0  0  0  0  0  0  0  0  0
   -4.5420   24.5410  -29.8390 C   0  0  0  0  0  0  0  0  0  0  0  0
   -3.4570   24.4870  -28.7540 C   0  0  0  0  0  0  0  0  0  0  0  0
   -2.1100   24.6770  -29.3350 N   0  0  0  0  0  0  0  0  0  0  0  0
   -1.4750   23.3850  -29.6440 C   0  0  0  0  0  0  0  0  0  0  0  0
   -1.2530   25.4430  -28.4170 C   0  0  0  0  0  0  0  0  0  0  0  0
   -3.9210   21.4400  -31.6370 C   0  0  0  0  0  0  0  0  0  0  0  0
   -4.4610   20.2640  -32.1400 C   0  0  0  0  0  0  0  0  0  0  0  0
   -5.8410   20.1520  -32.3820 C   0  0  0  0  0  0  0  0  0  0  0  0
   -6.3950   18.9780  -32.9430 C   0  0  0  0  0  0  0  0  0  0  0  0
   -5.5590   17.8770  -33.4800 C   0  0  0  0  0  0  0  0  0  0  0  0
   -5.4560   16.6560  -32.7990 C   0  0  0  0  0  0  0  0  0  0  0  0
   -4.6750   15.6450  -33.3560 C   0  0  0  0  0  0  0  0  0  0  0  0
   -4.0390   15.8500  -34.5400 N   0  0  0  0  0  0  0  0  0  0  0  0
   -4.1570   17.0360  -35.1950 C   0  0  0  0  0  0  0  0  0  0  0  0
   -4.9120   18.0330  -34.6680 N   0  0  0  0  0  0  0  0  0  0  0  0
   -7.7790   18.8790  -33.0700 C   0  0  0  0  0  0  0  0  0  0  0  0
   -8.6040   19.8800  -32.5700 C   0  0  0  0  0  0  0  0  0  0  0  0
   -9.8540   19.7260  -32.6540 O   0  0  0  0  0  0  0  0  0  0  0  0
   -8.0730   21.0000  -31.9790 N   0  0  0  0  0  0  0  0  0  0  0  0
   -8.9850   21.8400  -31.1770 C   0  0  0  0  0  0  0  0  0  0  0  0
   -6.7060   21.2270  -32.0220 C   0  0  0  0  0  0  0  0  0  0  0  0
   -7.1108   24.2066  -30.8997 H   0  0  0  0  0  0  0  0  0  0  0  0
   -6.2505   24.5147  -32.4462 H   0  0  0  0  0  0  0  0  0  0  0  0
   -7.8009   23.6076  -32.4462 H   0  0  0  0  0  0  0  0  0  0  0  0
   -3.2880   24.1690  -31.5540 H   0  0  0  0  0  0  0  0  0  0  0  0
   -4.7323   25.5912  -30.1050 H   0  0  0  0  0  0  0  0  0  0  0  0
   -5.4549   24.0710  -29.4444 H   0  0  0  0  0  0  0  0  0  0  0  0
   -3.6457   25.2823  -28.0179 H   0  0  0  0  0  0  0  0  0  0  0  0
   -3.4931   23.4979  -28.2740 H   0  0  0  0  0  0  0  0  0  0  0  0
   -1.2209   22.8679  -28.7070 H   0  0  0  0  0  0  0  0  0  0  0  0
   -2.1709   22.7648  -30.2279 H   0  0  0  0  0  0  0  0  0  0  0  0
   -0.5588   23.5571  -30.2279 H   0  0  0  0  0  0  0  0  0  0  0  0
   -1.5219   25.2026  -27.3778 H   0  0  0  0  0  0  0  0  0  0  0  0
   -0.1996   25.1799  -28.5934 H   0  0  0  0  0  0  0  0  0  0  0  0
   -1.3967   26.5192  -28.5934 H   0  0  0  0  0  0  0  0  0  0  0  0
   -2.8542   21.4803  -31.3716 H   0  0  0  0  0  0  0  0  0  0  0  0
   -3.8010   19.4098  -32.3516 H   0  0  0  0  0  0  0  0  0  0  0  0
   -5.9806   16.4992  -31.8450 H   0  0  0  0  0  0  0  0  0  0  0  0
   -4.5731   14.6804  -32.8372 H   0  0  0  0  0  0  0  0  0  0  0  0
   -3.4570   15.0880  -34.9520 H   0  0  0  0  0  0  0  0  0  0  0  0
   -3.6395   17.1875  -36.1538 H   0  0  0  0  0  0  0  0  0  0  0  0
   -8.2213   18.0039  -33.5687 H   0  0  0  0  0  0  0  0  0  0  0  0
   -8.7972   21.6670  -30.1071 H   0  0  0  0  0  0  0  0  0  0  0  0
   -8.8101   22.9000  -31.4133 H   0  0  0  0  0  0  0  0  0  0  0  0
  -10.0271   21.5788  -31.4133 H   0  0  0  0  0  0  0  0  0  0  0  0
  1  2  1  0
  2  3  2  0
  3  4  1  0
  4  5  1  0
  5  6  1  0
  6  7  1  0
  7  8  1  0
  7  9  1  0
  3 10  1  0
 10 11  2  0
 11 12  1  0
 12 13  1  0
 13 14  1  0
 14 15  2  0
 15 16  1  0
 16 17  2  0
 17 18  1  0
 18 19  2  0
 13 20  2  0
 20 21  1  0
 21 22  2  0
 21 23  1  0
 23 24  1  0
 23 25  1  0
 25  2  1  0
 25 12  2  0
 19 14  1  0
  1 26  1  0
  1 27  1  0
  1 28  1  0
  4 29  1  0
  5 30  1  0
  5 31  1  0
  6 32  1  0
  6 33  1  0
  8 34  1  0
  8 35  1  0
  8 36  1  0
  9 37  1  0
  9 38  1  0
  9 39  1  0
 10 40  1  0
 11 41  1  0
 15 42  1  0
 16 43  1  0
 17 44  1  0
 18 45  1  0
 20 46  1  0
 24 47  1  0
 24 48  1  0
 24 49  1  0
M  CHG  1  17   1
M  END
>  <UniqueID>  (16) 
16

>  <SMILES>  (16) 
Cc1c(NCCN(C)C)ccc2c(-c3cc[nH+]cn3)cc(=O)n(C)c12

>  <Energy>  (16) 
82.35913834991021

>  <Genealogy>  (16) 
Cc1c(NCCN(C)C)ccc2c(-c3cc[nH+]cn3)cc(=O)n(C)c12 (protonated)
Cc1c(NCCN(C)C)ccc2c(-c3cc[nH+]cn3)cc(=O)n(C)c12 (3D coordinates assigned)
Cc1c(NCCN(C)C)ccc2c(-c3cc[nH+]cn3)cc(=O)n(C)c12 (optimized conformer: 82.35913834991021 kcal/mol)

>  <smiles>  (16) 
Cc1c(NCCN(C)C)ccc2c(-c3ccncn3)cc(=O)n(C)c12

>  <score_type>  (16) 
oracle

>  <origin>  (16) 
adg

>  <m_score__min__energy>  (16) 
-7.8799999999999999

>  <m_primary>  (16) 
energy

$$$$
16:0
     RDKit          3D

 30 32  0  0  0  0  0  0  0  0999 V2000
   -4.2710   18.8980  -33.4890 C   0  0  0  0  0  0  0  0  0  0  0  0
   -5.6670   18.6390  -33.1590 N   0  0  0  0  0  0  0  0  0  0  0  0
   -6.3400   17.5460  -33.4910 N   0  0  0  0  0  0  0  0  0  0  0  0
   -7.6210   17.6400  -33.1500 N   0  0  0  0  0  0  0  0  0  0  0  0
   -7.7540   18.8480  -32.5650 C   0  0  0  0  0  0  0  0  0  0  0  0
   -6.5450   19.4840  -32.5940 C   0  0  0  0  0  0  0  0  0  0  0  0
   -6.3130   20.8800  -32.1050 C   0  0  0  0  0  0  0  0  0  0  0  0
   -7.5930   21.4940  -31.6990 N   0  0  0  0  0  0  0  0  0  0  0  0
   -7.7160   22.9290  -31.7290 C   0  0  0  0  0  0  0  0  0  0  0  0
   -8.7330   23.4490  -32.2630 O   0  0  0  0  0  0  0  0  0  0  0  0
   -6.6780   23.8110  -31.1630 C   0  0  0  0  0  0  0  0  0  0  0  0
   -6.8490   24.7120  -30.1330 C   0  0  0  0  0  0  0  0  0  0  0  0
   -5.6290   25.3370  -29.9770 C   0  0  0  0  0  0  0  0  0  0  0  0
   -4.7730   24.8640  -30.8550 O   0  0  0  0  0  0  0  0  0  0  0  0
   -5.3690   23.9510  -31.5870 C   0  0  0  0  0  0  0  0  0  0  0  0
   -8.6840   20.6560  -31.1560 C   0  0  0  0  0  0  0  0  0  0  0  0
   -9.0180   19.4930  -32.1070 C   0  0  0  0  0  0  0  0  0  0  0  0
   -3.6890   19.0060  -32.5618 H   0  0  0  0  0  0  0  0  0  0  0  0
   -3.8714   18.0587  -34.0771 H   0  0  0  0  0  0  0  0  0  0  0  0
   -4.1991   19.8248  -34.0771 H   0  0  0  0  0  0  0  0  0  0  0  0
   -5.9280   16.7220  -33.9820 H   0  0  0  0  0  0  0  0  0  0  0  0
   -5.6315   20.8548  -31.2419 H   0  0  0  0  0  0  0  0  0  0  0  0
   -5.8683   21.4764  -32.9153 H   0  0  0  0  0  0  0  0  0  0  0  0
   -7.7674   24.8944  -29.5557 H   0  0  0  0  0  0  0  0  0  0  0  0
   -5.4064   26.1138  -29.2306 H   0  0  0  0  0  0  0  0  0  0  0  0
   -4.9012   23.3870  -32.4074 H   0  0  0  0  0  0  0  0  0  0  0  0
   -8.3721   20.2464  -30.1839 H   0  0  0  0  0  0  0  0  0  0  0  0
   -9.5812   21.2823  -31.0429 H   0  0  0  0  0  0  0  0  0  0  0  0
   -9.6368   18.7530  -31.5784 H   0  0  0  0  0  0  0  0  0  0  0  0
   -9.5702   19.8774  -32.9772 H   0  0  0  0  0  0  0  0  0  0  0  0
  1  2  1  0
  2  3  1  0
  3  4  2  0
  4  5  1  0
  5  6  2  0
  6  7  1  0
  7  8  1  0
  8  9  1  0
  9 10  2  0
  9 11  1  0
 11 12  1  0
 12 13  2  0
 13 14  1  0
 14 15  1  0
  8 16  1  0
 16 17  1  0
  6  2  1  0
 15 11  2  0
 17  5  1  0
  1 18  1  0
  1 19  1  0
  1 20  1  0
  3 21  1  0
  7 22  1  0
  7 23  1  0
 12 24  1  0
 13 25  1  0
 15 26  1  0
 16 27  1  0
 16 28  1  0
 17 29  1  0
 17 30  1  0
M  CHG  1   3   1
M  END
>  <UniqueID>  (17) 
17

>  <SMILES>  (17) 
Cn1[nH+]nc2c1CN(C(=O)c1ccoc1)CC2

>  <Energy>  (17) 
99.3659139319275

>  <Genealogy>  (17) 
Cn1[nH+]nc2c1CN(C(=O)c1ccoc1)CC2 (protonated)
Cn1[nH+]nc2c1CN(C(=O)c1ccoc1)CC2 (3D coordinates assigned)
Cn1[nH+]nc2c1CN(C(=O)c1ccoc1)CC2 (nonaromatic ring conformer: 99.3659139319275 kcal/mol)

>  <smiles>  (17) 
Cn1nnc2c1CN(C(=O)c1ccoc1)CC2

>  <score_type>  (17) 
oracle

>  <origin>  (17) 
adg

>  <m_score__min__energy>  (17) 
-6.8499999999999996

>  <m_primary>  (17) 
energy

$$$$
17:0
     RDKit          3D

 45 47  0  0  0  0  0  0  0  0999 V2000
   -6.0110   18.5360  -33.5590 C   0  0  0  0  0  0  0  0  0  0  0  0
   -6.8690   19.5030  -32.8140 C   0  0  0  0  0  0  0  0  0  0  0  0
   -6.4540   20.3450  -31.8020 C   0  0  0  0  0  0  0  0  0  0  0  0
   -7.5730   21.1070  -31.4970 C   0  0  0  0  0  0  0  0  0  0  0  0
   -7.6170   22.1740  -30.4190 C   0  0  0  0  0  0  0  0  0  0  0  0
   -6.6920   23.3080  -30.6460 N   0  0  0  0  0  0  0  0  0  0  0  0
   -5.9210   23.2330  -31.9070 C   0  0  0  0  0  0  0  0  0  0  0  0
   -4.4490   22.8940  -31.6480 C   0  0  0  0  0  0  0  0  0  0  0  0
   -3.7930   23.9320  -30.8150 N   0  0  0  0  0  0  0  0  0  0  0  0
   -2.5890   23.3840  -30.1600 C   0  0  0  0  0  0  0  0  0  0  0  0
   -2.2670   24.1670  -28.9180 C   0  0  0  0  0  0  0  0  0  0  0  0
   -2.7090   23.7370  -27.6580 C   0  0  0  0  0  0  0  0  0  0  0  0
   -2.3960   24.4960  -26.5270 C   0  0  0  0  0  0  0  0  0  0  0  0
   -1.6490   25.6670  -26.6630 C   0  0  0  0  0  0  0  0  0  0  0  0
   -1.2250   26.0650  -27.9320 C   0  0  0  0  0  0  0  0  0  0  0  0
   -1.5410   25.3140  -29.0220 N   0  0  0  0  0  0  0  0  0  0  0  0
   -4.7130   24.5850  -29.8440 C   0  0  0  0  0  0  0  0  0  0  0  0
   -5.8890   23.6780  -29.4570 C   0  0  0  0  0  0  0  0  0  0  0  0
   -8.5990   20.6970  -32.2840 N   0  0  0  0  0  0  0  0  0  0  0  0
   -9.9740   21.1910  -32.3180 C   0  0  0  0  0  0  0  0  0  0  0  0
   -8.1610   19.7470  -33.0940 N   0  0  0  0  0  0  0  0  0  0  0  0
   -5.4565   17.9110  -32.8435 H   0  0  0  0  0  0  0  0  0  0  0  0
   -6.6438   17.8959  -34.1914 H   0  0  0  0  0  0  0  0  0  0  0  0
   -5.3002   19.0881  -34.1914 H   0  0  0  0  0  0  0  0  0  0  0  0
   -5.4573   20.3998  -31.3398 H   0  0  0  0  0  0  0  0  0  0  0  0
   -8.6419   22.5703  -30.3681 H   0  0  0  0  0  0  0  0  0  0  0  0
   -7.2988   21.6902  -29.4837 H   0  0  0  0  0  0  0  0  0  0  0  0
   -6.3595   22.4539  -32.5479 H   0  0  0  0  0  0  0  0  0  0  0  0
   -5.9668   24.2164  -32.3977 H   0  0  0  0  0  0  0  0  0  0  0  0
   -4.3907   21.9272  -31.1266 H   0  0  0  0  0  0  0  0  0  0  0  0
   -3.9289   22.8473  -32.6162 H   0  0  0  0  0  0  0  0  0  0  0  0
   -2.7698   22.3332  -29.8895 H   0  0  0  0  0  0  0  0  0  0  0  0
   -1.7404   23.4539  -30.8564 H   0  0  0  0  0  0  0  0  0  0  0  0
   -3.2960   22.8118  -27.5611 H   0  0  0  0  0  0  0  0  0  0  0  0
   -2.7373   24.1715  -25.5329 H   0  0  0  0  0  0  0  0  0  0  0  0
   -1.3968   26.2706  -25.7786 H   0  0  0  0  0  0  0  0  0  0  0  0
   -0.6353   26.9859  -28.0510 H   0  0  0  0  0  0  0  0  0  0  0  0
   -4.1471   24.8379  -28.9353 H   0  0  0  0  0  0  0  0  0  0  0  0
   -5.1252   25.4851  -30.3234 H   0  0  0  0  0  0  0  0  0  0  0  0
   -5.4977   22.7627  -28.9889 H   0  0  0  0  0  0  0  0  0  0  0  0
   -6.5358   24.2253  -28.7555 H   0  0  0  0  0  0  0  0  0  0  0  0
  -10.3417   21.3231  -31.2897 H   0  0  0  0  0  0  0  0  0  0  0  0
  -10.0040   22.1561  -32.8449 H   0  0  0  0  0  0  0  0  0  0  0  0
  -10.6113   20.4656  -32.8449 H   0  0  0  0  0  0  0  0  0  0  0  0
   -8.7350   19.2730  -33.8270 H   0  0  0  0  0  0  0  0  0  0  0  0
  1  2  1  0
  2  3  1  0
  3  4  2  0
  4  5  1  0
  5  6  1  0
  6  7  1  0
  7  8  1  0
  8  9  1  0
  9 10  1  0
 10 11  1  0
 11 12  2  0
 12 13  1  0
 13 14  2  0
 14 15  1  0
 15 16  2  0
  9 17  1  0
 17 18  1  0
  4 19  1  0
 19 20  1  0
 19 21  1  0
 21  2  2  0
 18  6  1  0
 16 11  1  0
  1 22  1  0
  1 23  1  0
  1 24  1  0
  3 25  1  0
  5 26  1  0
  5 27  1  0
  7 28  1  0
  7 29  1  0
  8 30  1  0
  8 31  1  0
 10 32  1  0
 10 33  1  0
 12 34  1  0
 13 35  1  0
 14 36  1  0
 15 37  1  0
 17 38  1  0
 17 39  1  0
 18 40  1  0
 18 41  1  0
 20 42  1  0
 20 43  1  0
 20 44  1  0
 21 45  1  0
M  CHG  1  21   1
M  END
>  <UniqueID>  (18) 
18

>  <SMILES>  (18) 
Cc1cc(CN2CCN(Cc3ccccn3)CC2)n(C)[nH+]1

>  <Energy>  (18) 
90.74234724098659

>  <Genealogy>  (18) 
Cc1cc(CN2CCN(Cc3ccccn3)CC2)n(C)[nH+]1 (protonated)
Cc1cc(CN2CCN(Cc3ccccn3)CC2)n(C)[nH+]1 (3D coordinates assigned)
Cc1cc(CN2CCN(Cc3ccccn3)CC2)n(C)[nH+]1 (nonaromatic ring conformer: 90.74234724098659 kcal/mol)

>  <smiles>  (18) 
Cc1cc(CN2CCN(Cc3ccccn3)CC2)n(C)n1

>  <score_type>  (18) 
oracle

>  <origin>  (18) 
adg

>  <m_score__min__energy>  (18) 
-7.8700000000000001

>  <m_primary>  (18) 
energy

$$$$
18:0
     RDKit          3D

 47 51  0  0  0  0  0  0  0  0999 V2000
    2.7950   18.8820  -35.2220 C   0  0  0  0  0  0  0  0  0  0  0  0
    2.3690   19.8500  -34.1990 N   0  0  0  0  0  0  0  0  0  0  0  0
    1.6510   19.1630  -33.0980 C   0  0  0  0  0  0  0  0  0  0  0  0
    0.6180   20.0630  -32.4130 C   0  0  0  0  0  0  0  0  0  0  0  0
   -0.3560   20.5210  -33.4100 N   0  0  0  0  0  0  0  0  0  0  0  0
   -1.7330   20.7500  -33.0340 C   0  0  0  0  0  0  0  0  0  0  0  0
   -2.0630   21.8770  -32.3440 N   0  0  0  0  0  0  0  0  0  0  0  0
   -3.3490   22.0910  -31.9910 C   0  0  0  0  0  0  0  0  0  0  0  0
   -3.9220   23.4240  -31.1500 S   0  0  0  0  0  0  0  0  0  0  0  0
   -5.5260   22.9020  -31.1900 C   0  0  0  0  0  0  0  0  0  0  0  0
   -6.6440   23.5590  -30.6700 C   0  0  0  0  0  0  0  0  0  0  0  0
   -6.4870   25.2160  -29.7300 Br  0  0  0  0  0  0  0  0  0  0  0  0
   -7.9040   22.9780  -30.8550 C   0  0  0  0  0  0  0  0  0  0  0  0
   -8.0330   21.7720  -31.5560 C   0  0  0  0  0  0  0  0  0  0  0  0
   -6.9030   21.1210  -32.0720 C   0  0  0  0  0  0  0  0  0  0  0  0
   -5.6300   21.6830  -31.8680 C   0  0  0  0  0  0  0  0  0  0  0  0
   -4.3700   21.2060  -32.3070 C   0  0  0  0  0  0  0  0  0  0  0  0
   -4.0150   20.0200  -32.9830 C   0  0  0  0  0  0  0  0  0  0  0  0
   -4.9720   18.9350  -33.2510 C   0  0  0  0  0  0  0  0  0  0  0  0
   -5.2220   18.5290  -34.5700 C   0  0  0  0  0  0  0  0  0  0  0  0
   -6.1100   17.4780  -34.8220 C   0  0  0  0  0  0  0  0  0  0  0  0
   -6.7380   16.8210  -33.7610 C   0  0  0  0  0  0  0  0  0  0  0  0
   -6.4770   17.2110  -32.4440 C   0  0  0  0  0  0  0  0  0  0  0  0
   -5.5910   18.2620  -32.1870 C   0  0  0  0  0  0  0  0  0  0  0  0
   -2.7060   19.8330  -33.3400 N   0  0  0  0  0  0  0  0  0  0  0  0
    0.1090   20.8030  -34.7760 C   0  0  0  0  0  0  0  0  0  0  0  0
    1.6350   20.9860  -34.8070 C   0  0  0  0  0  0  0  0  0  0  0  0
    3.1916   17.9808  -34.7315 H   0  0  0  0  0  0  0  0  0  0  0  0
    1.9339   18.6090  -35.8496 H   0  0  0  0  0  0  0  0  0  0  0  0
    3.5780   19.3325  -35.8496 H   0  0  0  0  0  0  0  0  0  0  0  0
    1.1337   18.2840  -33.5099 H   0  0  0  0  0  0  0  0  0  0  0  0
    2.3973   18.8787  -32.3415 H   0  0  0  0  0  0  0  0  0  0  0  0
    0.1001   19.4960  -31.6254 H   0  0  0  0  0  0  0  0  0  0  0  0
    1.1229   20.9303  -31.9625 H   0  0  0  0  0  0  0  0  0  0  0  0
   -8.7986   23.4715  -30.4473 H   0  0  0  0  0  0  0  0  0  0  0  0
   -9.0301   21.3314  -31.7031 H   0  0  0  0  0  0  0  0  0  0  0  0
   -7.0113   20.1798  -32.6309 H   0  0  0  0  0  0  0  0  0  0  0  0
   -4.7197   19.0371  -35.4064 H   0  0  0  0  0  0  0  0  0  0  0  0
   -6.3142   17.1682  -35.8575 H   0  0  0  0  0  0  0  0  0  0  0  0
   -7.4380   15.9966  -33.9618 H   0  0  0  0  0  0  0  0  0  0  0  0
   -6.9691   16.6906  -31.6091 H   0  0  0  0  0  0  0  0  0  0  0  0
   -5.3793   18.5612  -31.1499 H   0  0  0  0  0  0  0  0  0  0  0  0
   -2.4470   18.9440  -33.8240 H   0  0  0  0  0  0  0  0  0  0  0  0
   -0.1668   19.9636  -35.4312 H   0  0  0  0  0  0  0  0  0  0  0  0
   -0.3645   21.7327  -35.1244 H   0  0  0  0  0  0  0  0  0  0  0  0
    1.9542   21.0886  -35.8547 H   0  0  0  0  0  0  0  0  0  0  0  0
    1.8701   21.8830  -34.2154 H   0  0  0  0  0  0  0  0  0  0  0  0
  1  2  1  0
  2  3  1  0
  3  4  1  0
  4  5  1  0
  5  6  1  0
  6  7  2  0
  7  8  1  0
  8  9  1  0
  9 10  1  0
 10 11  2  0
 11 12  1  0
 11 13  1  0
 13 14  2  0
 14 15  1  0
 15 16  2  0
 16 17  1  0
 17 18  1  0
 18 19  1  0
 19 20  2  0
 20 21  1  0
 21 22  2  0
 22 23  1  0
 23 24  2  0
 18 25  2  0
  5 26  1  0
 26 27  1  0
 27  2  1  0
 25  6  1  0
 17  8  2  0
 24 19  1  0
 16 10  1  0
  1 28  1  0
  1 29  1  0
  1 30  1  0
  3 31  1  0
  3 32  1  0
  4 33  1  0
  4 34  1  0
 13 35  1  0
 14 36  1  0
 15 37  1  0
 20 38  1  0
 21 39  1  0
 22 40  1  0
 23 41  1  0
 24 42  1  0
 25 43  1  0
 26 44  1  0
 26 45  1  0
 27 46  1  0
 27 47  1  0
M  CHG  1  25   1
M  END
>  <UniqueID>  (19) 
19

>  <SMILES>  (19) 
CN1CCN(c2nc3sc4c(Br)cccc4c3c(-c3ccccc3)[nH+]2)CC1

>  <Energy>  (19) 
109.26520310184853

>  <Genealogy>  (19) 
CN1CCN(c2nc3sc4c(Br)cccc4c3c(-c3ccccc3)[nH+]2)CC1 (protonated)
CN1CCN(c2nc3sc4c(Br)cccc4c3c(-c3ccccc3)[nH+]2)CC1 (3D coordinates assigned)
CN1CCN(c2nc3sc4c(Br)cccc4c3c(-c3ccccc3)[nH+]2)CC1 (nonaromatic ring conformer: 109.26520310184853 kcal/mol)

>  <smiles>  (19) 
CN1CCN(c2nc(-c3ccccc3)c3c(n2)sc2c(Br)cccc23)CC1

>  <score_type>  (19) 
oracle

>  <origin>  (19) 
adg

>  <m_score__min__energy>  (19) 
-8.4000000000000004

>  <m_primary>  (19) 
energy

$$$$
19:0
     RDKit          3D

 69 71  0  0  0  0  0  0  0  0999 V2000
   -0.7410   23.0410  -28.3060 C   0  0  0  0  0  0  0  0  0  0  0  0
   -0.9680   24.1630  -29.3190 C   0  0  0  0  0  0  0  0  0  0  0  0
   -1.9680   25.1340  -28.8180 N   0  0  0  0  0  0  0  0  0  0  0  0
   -1.5910   25.6720  -27.4830 C   0  0  0  0  0  0  0  0  0  0  0  0
   -2.6450   25.2730  -26.4560 C   0  0  0  0  0  0  0  0  0  0  0  0
   -3.3210   24.5310  -28.8080 C   0  0  0  0  0  0  0  0  0  0  0  0
   -3.5960   23.7540  -30.0990 C   0  0  0  0  0  0  0  0  0  0  0  0
   -4.5240   24.4700  -30.8880 O   0  0  0  0  0  0  0  0  0  0  0  0
   -5.0350   25.5800  -30.1760 C   0  0  0  0  0  0  0  0  0  0  0  0
   -6.4760   25.3140  -29.7270 C   0  0  0  0  0  0  0  0  0  0  0  0
   -6.8320   23.9140  -29.9870 N   0  0  0  0  0  0  0  0  0  0  0  0
   -7.6170   23.7610  -31.2230 C   0  0  0  0  0  0  0  0  0  0  0  0
   -6.7540   23.2780  -32.4070 C   0  0  0  0  0  0  0  0  0  0  0  0
   -5.5770   22.5040  -31.9690 N   0  0  0  0  0  0  0  0  0  0  0  0
   -5.6130   21.1250  -32.4370 C   0  0  0  0  0  0  0  0  0  0  0  0
   -6.7510   20.2970  -32.2190 C   0  0  0  0  0  0  0  0  0  0  0  0
   -6.7050   18.9390  -32.5970 C   0  0  0  0  0  0  0  0  0  0  0  0
   -5.6700   18.4540  -33.3610 N   0  0  0  0  0  0  0  0  0  0  0  0
   -5.8240   17.1550  -34.0490 C   0  0  0  0  0  0  0  0  0  0  0  0
   -4.5150   19.1910  -33.5020 C   0  0  0  0  0  0  0  0  0  0  0  0
   -3.3360   18.6140  -34.0450 C   0  0  0  0  0  0  0  0  0  0  0  0
   -2.1770   19.3650  -34.2150 C   0  0  0  0  0  0  0  0  0  0  0  0
   -2.1520   20.6980  -33.8390 C   0  0  0  0  0  0  0  0  0  0  0  0
   -3.2760   21.2860  -33.2660 C   0  0  0  0  0  0  0  0  0  0  0  0
   -4.4700   20.5470  -33.0640 C   0  0  0  0  0  0  0  0  0  0  0  0
   -7.7910   18.0350  -32.0290 C   0  0  0  0  0  0  0  0  0  0  0  0
   -9.1910   18.5970  -32.3080 C   0  0  0  0  0  0  0  0  0  0  0  0
   -9.2630   20.1370  -32.2190 C   0  0  0  0  0  0  0  0  0  0  0  0
   -8.0360   20.7640  -31.5370 C   0  0  0  0  0  0  0  0  0  0  0  0
   -0.8228   23.4455  -27.2864 H   0  0  0  0  0  0  0  0  0  0  0  0
   -1.4987   22.2569  -28.4513 H   0  0  0  0  0  0  0  0  0  0  0  0
    0.2619   22.6131  -28.4513 H   0  0  0  0  0  0  0  0  0  0  0  0
   -0.0165   24.6855  -29.4968 H   0  0  0  0  0  0  0  0  0  0  0  0
   -1.3447   23.7215  -30.2534 H   0  0  0  0  0  0  0  0  0  0  0  0
   -0.6151   25.2613  -27.1848 H   0  0  0  0  0  0  0  0  0  0  0  0
   -1.5278   26.7689  -27.5351 H   0  0  0  0  0  0  0  0  0  0  0  0
   -2.2452   25.4244  -25.4425 H   0  0  0  0  0  0  0  0  0  0  0  0
   -3.5431   25.8934  -26.5923 H   0  0  0  0  0  0  0  0  0  0  0  0
   -2.9071   24.2134  -26.5923 H   0  0  0  0  0  0  0  0  0  0  0  0
   -3.4002   23.8437  -27.9528 H   0  0  0  0  0  0  0  0  0  0  0  0
   -4.0606   25.3412  -28.7273 H   0  0  0  0  0  0  0  0  0  0  0  0
   -2.6576   23.6286  -30.6590 H   0  0  0  0  0  0  0  0  0  0  0  0
   -4.0091   22.7649  -29.8521 H   0  0  0  0  0  0  0  0  0  0  0  0
   -4.4079   25.7618  -29.2907 H   0  0  0  0  0  0  0  0  0  0  0  0
   -5.0252   26.4603  -30.8356 H   0  0  0  0  0  0  0  0  0  0  0  0
   -6.5657   25.5188  -28.6500 H   0  0  0  0  0  0  0  0  0  0  0  0
   -7.1566   25.9702  -30.2893 H   0  0  0  0  0  0  0  0  0  0  0  0
   -5.9590   23.3400  -30.0500 H   0  0  0  0  0  0  0  0  0  0  0  0
   -8.4171   23.0273  -31.0456 H   0  0  0  0  0  0  0  0  0  0  0  0
   -8.0280   24.7470  -31.4855 H   0  0  0  0  0  0  0  0  0  0  0  0
   -7.3721   22.6422  -33.0579 H   0  0  0  0  0  0  0  0  0  0  0  0
   -6.3892   24.1684  -32.9400 H   0  0  0  0  0  0  0  0  0  0  0  0
   -5.5230   22.5200  -30.9260 H   0  0  0  0  0  0  0  0  0  0  0  0
   -4.7130   23.0120  -32.2390 H   0  0  0  0  0  0  0  0  0  0  0  0
   -5.9190   16.3533  -33.3018 H   0  0  0  0  0  0  0  0  0  0  0  0
   -6.7257   17.1782  -34.6786 H   0  0  0  0  0  0  0  0  0  0  0  0
   -4.9419   16.9667  -34.6786 H   0  0  0  0  0  0  0  0  0  0  0  0
   -3.3393   17.5534  -34.3366 H   0  0  0  0  0  0  0  0  0  0  0  0
   -1.2795   18.8996  -34.6485 H   0  0  0  0  0  0  0  0  0  0  0  0
   -1.2405   21.2940  -33.9938 H   0  0  0  0  0  0  0  0  0  0  0  0
   -3.2378   22.3431  -32.9643 H   0  0  0  0  0  0  0  0  0  0  0  0
   -7.7062   17.0403  -32.4909 H   0  0  0  0  0  0  0  0  0  0  0  0
   -7.6542   17.9728  -30.9393 H   0  0  0  0  0  0  0  0  0  0  0  0
   -9.4938   18.2918  -33.3205 H   0  0  0  0  0  0  0  0  0  0  0  0
   -9.8620   18.1955  -31.5344 H   0  0  0  0  0  0  0  0  0  0  0  0
   -9.3412   20.5425  -33.2385 H   0  0  0  0  0  0  0  0  0  0  0  0
  -10.1408   20.3875  -31.6053 H   0  0  0  0  0  0  0  0  0  0  0  0
   -8.1044   21.8598  -31.6042 H   0  0  0  0  0  0  0  0  0  0  0  0
   -8.0147   20.4506  -30.4828 H   0  0  0  0  0  0  0  0  0  0  0  0
  1  2  1  0
  2  3  1  0
  3  4  1  0
  4  5  1  0
  3  6  1  0
  6  7  1  0
  7  8  1  0
  8  9  1  0
  9 10  1  0
 10 11  1  0
 11 12  1  0
 12 13  1  0
 13 14  1  0
 14 15  1  0
 15 16  2  0
 16 17  1  0
 17 18  2  0
 18 19  1  0
 18 20  1  0
 20 21  2  0
 21 22  1  0
 22 23  2  0
 23 24  1  0
 24 25  2  0
 17 26  1  0
 26 27  1  0
 27 28  1  0
 28 29  1  0
 25 15  1  0
 29 16  1  0
 25 20  1  0
  1 30  1  0
  1 31  1  0
  1 32  1  0
  2 33  1  0
  2 34  1  0
  4 35  1  0
  4 36  1  0
  5 37  1  0
  5 38  1  0
  5 39  1  0
  6 40  1  0
  6 41  1  0
  7 42  1  0
  7 43  1  0
  9 44  1  0
  9 45  1  0
 10 46  1  0
 10 47  1  0
 11 48  1  0
 12 49  1  0
 12 50  1  0
 13 51  1  0
 13 52  1  0
 14 53  1  0
 14 54  1  0
 19 55  1  0
 19 56  1  0
 19 57  1  0
 21 58  1  0
 22 59  1  0
 23 60  1  0
 24 61  1  0
 26 62  1  0
 26 63  1  0
 27 64  1  0
 27 65  1  0
 28 66  1  0
 28 67  1  0
 29 68  1  0
 29 69  1  0
M  CHG  2  14   1  18   1
M  END
>  <UniqueID>  (20) 
20

>  <SMILES>  (20) 
CCN(CC)CCOCCNCC[NH2+]c1c2c([n+](C)c3ccccc13)CCCC2

>  <Energy>  (20) 
97.22436075227301

>  <Genealogy>  (20) 
CCN(CC)CCOCCNCC[NH2+]c1c2c([n+](C)c3ccccc13)CCCC2 (protonated)
CCN(CC)CCOCCNCC[NH2+]c1c2c([n+](C)c3ccccc13)CCCC2 (3D coordinates assigned)
CCN(CC)CCOCCNCC[NH2+]c1c2c([n+](C)c3ccccc13)CCCC2 (nonaromatic ring conformer: 97.22436075227301 kcal/mol)

>  <smiles>  (20) 
CCN(CC)CCOCCNCCNc1c2c([n+](C)c3ccccc13)CCCC2

>  <score_type>  (20) 
oracle

>  <origin>  (20) 
adg

>  <m_score__min__energy>  (20) 
-8.9100000000000001

>  <m_primary>  (20) 
energy

$$$$
20:0
     RDKit          3D

 57 61  0  0  0  0  0  0  0  0999 V2000
   -1.1310   19.8650  -32.8590 C   0  0  0  0  0  0  0  0  0  0  0  0
   -2.4890   19.8410  -32.3210 N   0  0  0  0  0  0  0  0  0  0  0  0
   -3.0210   20.5700  -31.3100 C   0  0  0  0  0  0  0  0  0  0  0  0
   -2.3320   21.6380  -30.5540 C   0  0  0  0  0  0  0  0  0  0  0  0
   -3.0210   22.8190  -30.2400 C   0  0  0  0  0  0  0  0  0  0  0  0
   -2.3770   23.8240  -29.5130 C   0  0  0  0  0  0  0  0  0  0  0  0
   -1.0940   23.6490  -29.0980 N   0  0  0  0  0  0  0  0  0  0  0  0
   -0.4080   22.5070  -29.3690 C   0  0  0  0  0  0  0  0  0  0  0  0
   -1.0150   21.4790  -30.0960 C   0  0  0  0  0  0  0  0  0  0  0  0
   -4.3070   20.2280  -31.0810 N   0  0  0  0  0  0  0  0  0  0  0  0
   -4.5910   19.2570  -31.9330 N   0  0  0  0  0  0  0  0  0  0  0  0
   -3.5020   19.0280  -32.6830 C   0  0  0  0  0  0  0  0  0  0  0  0
   -3.4310   17.7930  -33.9910 S   0  0  0  0  0  0  0  0  0  0  0  0
   -4.9910   18.3160  -34.7970 C   0  0  0  0  0  0  0  0  0  0  0  0
   -6.1180   17.2920  -34.6150 C   0  0  0  0  0  0  0  0  0  0  0  0
   -6.6770   17.2590  -33.1780 C   0  0  0  0  0  0  0  0  0  0  0  0
   -7.7000   18.3080  -32.9870 N   0  0  0  0  0  0  0  0  0  0  0  0
   -8.3020   18.2530  -31.6460 C   0  0  0  0  0  0  0  0  0  0  0  0
   -8.6780   19.6700  -31.2430 C   0  0  2  0  0  0  0  0  0  0  0  0
   -9.4880   20.4770  -32.2500 C   0  0  0  0  0  0  0  0  0  0  0  0
   -7.9660   20.5760  -32.2210 C   0  0  1  0  0  0  0  0  0  0  0  0
   -7.3360   21.8080  -31.6270 C   0  0  0  0  0  0  0  0  0  0  0  0
   -7.6620   22.2170  -30.3240 C   0  0  0  0  0  0  0  0  0  0  0  0
   -7.0450   23.3380  -29.7630 C   0  0  0  0  0  0  0  0  0  0  0  0
   -6.0960   24.0720  -30.4960 C   0  0  0  0  0  0  0  0  0  0  0  0
   -5.3900   25.2520  -29.8780 C   0  0  0  0  0  0  0  0  0  0  0  0
   -6.2550   26.3240  -29.7320 F   0  0  0  0  0  0  0  0  0  0  0  0
   -4.9070   24.8910  -28.6340 F   0  0  0  0  0  0  0  0  0  0  0  0
   -4.3320   25.6550  -30.6740 F   0  0  0  0  0  0  0  0  0  0  0  0
   -5.7420   23.6310  -31.7830 C   0  0  0  0  0  0  0  0  0  0  0  0
   -6.3580   22.5090  -32.3430 C   0  0  0  0  0  0  0  0  0  0  0  0
   -7.1590   19.6700  -33.1390 C   0  0  0  0  0  0  0  0  0  0  0  0
   -0.4083   19.8778  -32.0298 H   0  0  0  0  0  0  0  0  0  0  0  0
   -0.9652   18.9696  -33.4761 H   0  0  0  0  0  0  0  0  0  0  0  0
   -0.9970   20.7657  -33.4761 H   0  0  0  0  0  0  0  0  0  0  0  0
   -4.0634   22.9534  -30.5645 H   0  0  0  0  0  0  0  0  0  0  0  0
   -2.9086   24.7575  -29.2763 H   0  0  0  0  0  0  0  0  0  0  0  0
    0.6272   22.3917  -29.0153 H   0  0  0  0  0  0  0  0  0  0  0  0
   -0.4637   20.5510  -30.3079 H   0  0  0  0  0  0  0  0  0  0  0  0
   -5.5150   18.7760  -32.0020 H   0  0  0  0  0  0  0  0  0  0  0  0
   -5.3103   19.2735  -34.3596 H   0  0  0  0  0  0  0  0  0  0  0  0
   -4.7951   18.4093  -35.8754 H   0  0  0  0  0  0  0  0  0  0  0  0
   -6.9371   17.5463  -35.3038 H   0  0  0  0  0  0  0  0  0  0  0  0
   -5.6965   16.2982  -34.8266 H   0  0  0  0  0  0  0  0  0  0  0  0
   -7.1308   16.2747  -32.9904 H   0  0  0  0  0  0  0  0  0  0  0  0
   -5.8509   17.4409  -32.4748 H   0  0  0  0  0  0  0  0  0  0  0  0
   -9.2009   17.6193  -31.6657 H   0  0  0  0  0  0  0  0  0  0  0  0
   -7.5903   17.8259  -30.9242 H   0  0  0  0  0  0  0  0  0  0  0  0
   -8.8067   19.5342  -30.1590 H   0  0  0  0  0  0  0  0  0  0  0  0
   -9.9919   19.9696  -33.0858 H   0  0  0  0  0  0  0  0  0  0  0  0
  -10.3188   21.1952  -32.1880 H   0  0  0  0  0  0  0  0  0  0  0  0
   -8.4060   21.6527  -29.7426 H   0  0  0  0  0  0  0  0  0  0  0  0
   -7.3037   23.6487  -28.7400 H   0  0  0  0  0  0  0  0  0  0  0  0
   -4.9739   24.1736  -32.3537 H   0  0  0  0  0  0  0  0  0  0  0  0
   -6.0732   22.1746  -33.3515 H   0  0  0  0  0  0  0  0  0  0  0  0
   -7.2612   20.0025  -34.1826 H   0  0  0  0  0  0  0  0  0  0  0  0
   -6.0908   19.6988  -32.8779 H   0  0  0  0  0  0  0  0  0  0  0  0
  1  2  1  0
  2  3  1  0
  3  4  1  0
  4  5  2  0
  5  6  1  0
  6  7  2  0
  7  8  1  0
  8  9  2  0
  3 10  2  0
 10 11  1  0
 11 12  2  0
 12 13  1  0
 13 14  1  0
 14 15  1  0
 15 16  1  0
 16 17  1  0
 17 18  1  0
 18 19  1  0
 19 20  1  0
 20 21  1  0
 21 22  1  1
 22 23  2  0
 23 24  1  0
 24 25  2  0
 25 26  1  0
 26 27  1  0
 26 28  1  0
 26 29  1  0
 25 30  1  0
 30 31  2  0
 21 32  1  0
 12  2  1  0
 32 17  1  0
  9  4  1  0
 21 19  1  0
 31 22  1  0
  1 33  1  0
  1 34  1  0
  1 35  1  0
  5 36  1  0
  6 37  1  0
  8 38  1  0
  9 39  1  0
 11 40  1  0
 14 41  1  0
 14 42  1  0
 15 43  1  0
 15 44  1  0
 16 45  1  0
 16 46  1  0
 18 47  1  0
 18 48  1  0
 19 49  1  1
 20 50  1  0
 20 51  1  0
 23 52  1  0
 24 53  1  0
 30 54  1  0
 31 55  1  0
 32 56  1  0
 32 57  1  0
M  CHG  1  11   1
M  END
>  <UniqueID>  (21) 
21

>  <SMILES>  (21) 
Cn1c(-c2ccncc2)n[nH+]c1SCCCN1C[C@@H]2C[C@]2(c2ccc(C(F)(F)F)cc2)C1

>  <Energy>  (21) 
368.9796845173625

>  <Genealogy>  (21) 
Cn1c(-c2ccncc2)n[nH+]c1SCCCN1CC2CC2(c2ccc(C(F)(F)F)cc2)C1 (protonated)
Cn1c(-c2ccncc2)n[nH+]c1SCCCN1C[C@@H]2C[C@]2(c2ccc(C(F)(F)F)cc2)C1 (chirality)
Cn1c(-c2ccncc2)n[nH+]c1SCCCN1C[C@@H]2C[C@]2(c2ccc(C(F)(F)F)cc2)C1 (3D coordinates assigned)
Cn1c(-c2ccncc2)n[nH+]c1SCCCN1C[C@@H]2C[C@]2(c2ccc(C(F)(F)F)cc2)C1 (nonaromatic ring conformer: 368.9796845173625 kcal/mol)

>  <smiles>  (21) 
Cn1c(SCCCN2CC3CC3(c3ccc(C(F)(F)F)cc3)C2)nnc1-c1ccncc1

>  <score_type>  (21) 
oracle

>  <origin>  (21) 
adg

>  <m_score__min__energy>  (21) 
-9.8200000000000003

>  <m_primary>  (21) 
energy

$$$$
21:0
     RDKit          3D

 57 60  0  0  0  0  0  0  0  0999 V2000
   -6.4270   24.9400  -29.8300 C   0  0  0  0  0  0  0  0  0  0  0  0
   -5.0390   25.5040  -30.1430 C   0  0  0  0  0  0  0  0  0  0  0  0
   -4.1380   24.4850  -30.7120 N   0  0  0  0  0  0  0  0  0  0  0  0
   -3.3800   23.7560  -29.6830 C   0  0  0  0  0  0  0  0  0  0  0  0
   -3.7570   22.2660  -29.6530 C   0  0  0  0  0  0  0  0  0  0  0  0
   -3.1900   21.4710  -30.8450 C   0  0  0  0  0  0  0  0  0  0  0  0
   -3.1190   22.3120  -32.1280 C   0  0  0  0  0  0  0  0  0  0  0  0
   -3.8460   21.6630  -33.2200 N   0  0  0  0  0  0  0  0  0  0  0  0
   -4.9590   20.7900  -32.9690 C   0  0  0  0  0  0  0  0  0  0  0  0
   -4.8010   19.4000  -33.1070 C   0  0  0  0  0  0  0  0  0  0  0  0
   -5.9260   18.5590  -32.9980 C   0  0  0  0  0  0  0  0  0  0  0  0
   -7.0730   19.0520  -32.4070 N   0  0  0  0  0  0  0  0  0  0  0  0
   -7.9650   18.1550  -31.6450 C   0  0  0  0  0  0  0  0  0  0  0  0
   -7.2800   20.4140  -32.3360 C   0  0  0  0  0  0  0  0  0  0  0  0
   -8.5370   20.9520  -31.9660 C   0  0  0  0  0  0  0  0  0  0  0  0
   -8.7230   22.3300  -31.8600 C   0  0  0  0  0  0  0  0  0  0  0  0
   -7.6650   23.2000  -32.1040 C   0  0  0  0  0  0  0  0  0  0  0  0
   -6.4180   22.6990  -32.4730 C   0  0  0  0  0  0  0  0  0  0  0  0
   -6.2170   21.3100  -32.6210 C   0  0  0  0  0  0  0  0  0  0  0  0
   -5.8100   17.1560  -33.5430 C   0  0  0  0  0  0  0  0  0  0  0  0
   -6.9160   16.3910  -33.8090 N   0  0  0  0  0  0  0  0  0  0  0  0
   -6.8200   15.1080  -34.2510 C   0  0  0  0  0  0  0  0  0  0  0  0
   -5.5750   14.5530  -34.5260 C   0  0  0  0  0  0  0  0  0  0  0  0
   -4.4390   15.3440  -34.4040 C   0  0  0  0  0  0  0  0  0  0  0  0
   -4.5450   16.6610  -33.9360 C   0  0  0  0  0  0  0  0  0  0  0  0
   -3.3690   17.5840  -34.1060 C   0  0  0  0  0  0  0  0  0  0  0  0
   -3.4230   18.7760  -33.1590 C   0  0  0  0  0  0  0  0  0  0  0  0
   -6.5630   24.8847  -28.7398 H   0  0  0  0  0  0  0  0  0  0  0  0
   -7.1959   25.5970  -30.2626 H   0  0  0  0  0  0  0  0  0  0  0  0
   -6.5197   23.9329  -30.2626 H   0  0  0  0  0  0  0  0  0  0  0  0
   -5.1456   26.3259  -30.8663 H   0  0  0  0  0  0  0  0  0  0  0  0
   -4.5971   25.8556  -29.1990 H   0  0  0  0  0  0  0  0  0  0  0  0
   -3.4680   24.9360  -31.3780 H   0  0  0  0  0  0  0  0  0  0  0  0
   -2.3053   23.8482  -29.8987 H   0  0  0  0  0  0  0  0  0  0  0  0
   -3.6224   24.1924  -28.7028 H   0  0  0  0  0  0  0  0  0  0  0  0
   -3.3682   21.8259  -28.7229 H   0  0  0  0  0  0  0  0  0  0  0  0
   -4.8537   22.2056  -29.7125 H   0  0  0  0  0  0  0  0  0  0  0  0
   -2.1763   21.1279  -30.5908 H   0  0  0  0  0  0  0  0  0  0  0  0
   -3.8657   20.6242  -31.0356 H   0  0  0  0  0  0  0  0  0  0  0  0
   -3.5640   23.2995  -31.9362 H   0  0  0  0  0  0  0  0  0  0  0  0
   -2.0640   22.4159  -32.4216 H   0  0  0  0  0  0  0  0  0  0  0  0
   -3.5720   21.8620  -34.2080 H   0  0  0  0  0  0  0  0  0  0  0  0
   -7.8091   18.3117  -30.5674 H   0  0  0  0  0  0  0  0  0  0  0  0
   -9.0120   18.3759  -31.9000 H   0  0  0  0  0  0  0  0  0  0  0  0
   -7.7383   17.1093  -31.9000 H   0  0  0  0  0  0  0  0  0  0  0  0
   -9.3779   20.2736  -31.7595 H   0  0  0  0  0  0  0  0  0  0  0  0
   -9.7093   22.7304  -31.5826 H   0  0  0  0  0  0  0  0  0  0  0  0
   -7.8131   24.2855  -32.0054 H   0  0  0  0  0  0  0  0  0  0  0  0
   -5.5828   23.3925  -32.6505 H   0  0  0  0  0  0  0  0  0  0  0  0
   -7.8760   16.7870  -33.7390 H   0  0  0  0  0  0  0  0  0  0  0  0
   -7.7307   14.5073  -34.3914 H   0  0  0  0  0  0  0  0  0  0  0  0
   -5.4904   13.5010  -34.8362 H   0  0  0  0  0  0  0  0  0  0  0  0
   -3.4543   14.9357  -34.6753 H   0  0  0  0  0  0  0  0  0  0  0  0
   -2.4457   17.0191  -33.9102 H   0  0  0  0  0  0  0  0  0  0  0  0
   -3.3942   17.9724  -35.1349 H   0  0  0  0  0  0  0  0  0  0  0  0
   -3.1479   18.4391  -32.1487 H   0  0  0  0  0  0  0  0  0  0  0  0
   -2.7207   19.5364  -33.5312 H   0  0  0  0  0  0  0  0  0  0  0  0
  1  2  1  0
  2  3  1  0
  3  4  1  0
  4  5  1  0
  5  6  1  0
  6  7  1  0
  7  8  1  0
  8  9  1  0
  9 10  2  0
 10 11  1  0
 11 12  2  0
 12 13  1  0
 12 14  1  0
 14 15  2  0
 15 16  1  0
 16 17  2  0
 17 18  1  0
 18 19  2  0
 11 20  1  0
 20 21  2  0
 21 22  1  0
 22 23  2  0
 23 24  1  0
 24 25  2  0
 25 26  1  0
 26 27  1  0
 19  9  1  0
 25 20  1  0
 27 10  1  0
 19 14  1  0
  1 28  1  0
  1 29  1  0
  1 30  1  0
  2 31  1  0
  2 32  1  0
  3 33  1  0
  4 34  1  0
  4 35  1  0
  5 36  1  0
  5 37  1  0
  6 38  1  0
  6 39  1  0
  7 40  1  0
  7 41  1  0
  8 42  1  0
 13 43  1  0
 13 44  1  0
 13 45  1  0
 15 46  1  0
 16 47  1  0
 17 48  1  0
 18 49  1  0
 21 50  1  0
 22 51  1  0
 23 52  1  0
 24 53  1  0
 26 54  1  0
 26 55  1  0
 27 56  1  0
 27 57  1  0
M  CHG  2  12   1  21   1
M  END
>  <UniqueID>  (22) 
22

>  <SMILES>  (22) 
CCNCCCCNc1c2c([n+](C)c3ccccc13)-c1[nH+]cccc1CC2

>  <Energy>  (22) 
92.9404504650772

>  <Genealogy>  (22) 
CCNCCCCNc1c2c([n+](C)c3ccccc13)-c1[nH+]cccc1CC2 (protonated)
CCNCCCCNc1c2c([n+](C)c3ccccc13)-c1[nH+]cccc1CC2 (3D coordinates assigned)
CCNCCCCNc1c2c([n+](C)c3ccccc13)-c1[nH+]cccc1CC2 (nonaromatic ring conformer: 92.9404504650772 kcal/mol)

>  <smiles>  (22) 
CCNCCCCNc1c2c([n+](C)c3ccccc13)-c1ncccc1CC2

>  <score_type>  (22) 
oracle

>  <origin>  (22) 
adg

>  <m_score__min__energy>  (22) 
-9.2599999999999998

>  <m_primary>  (22) 
energy

$$$$
22:0
     RDKit          3D

 83 86  0  0  0  0  0  0  0  0999 V2000
   -6.7370   25.2900  -29.7300 C   0  0  0  0  0  0  0  0  0  0  0  0
   -5.2930   24.7910  -29.6490 C   0  0  0  0  0  0  0  0  0  0  0  0
   -4.8700   24.6160  -28.2490 N   0  0  0  0  0  0  0  0  0  0  0  0
   -3.9210   23.4940  -28.1410 C   0  0  0  0  0  0  0  0  0  0  0  0
   -2.8280   23.5610  -29.2220 C   0  0  0  0  0  0  0  0  0  0  0  0
   -2.8150   22.4140  -30.0490 O   0  0  0  0  0  0  0  0  0  0  0  0
   -3.4830   22.6330  -31.2800 C   0  0  0  0  0  0  0  0  0  0  0  0
   -3.5190   21.3450  -32.1110 C   0  0  0  0  0  0  0  0  0  0  0  0
   -4.5930   21.3730  -33.1060 N   0  0  0  0  0  0  0  0  0  0  0  0
   -5.7750   20.5830  -32.9140 C   0  0  0  0  0  0  0  0  0  0  0  0
   -6.9560   21.2100  -32.4830 C   0  0  0  0  0  0  0  0  0  0  0  0
   -7.0150   22.6140  -32.3330 C   0  0  0  0  0  0  0  0  0  0  0  0
   -8.2020   23.2410  -31.9650 C   0  0  0  0  0  0  0  0  0  0  0  0
   -9.3510   22.4880  -31.7560 C   0  0  0  0  0  0  0  0  0  0  0  0
   -9.3080   21.0980  -31.8690 C   0  0  0  0  0  0  0  0  0  0  0  0
   -8.1010   20.4270  -32.1960 C   0  0  0  0  0  0  0  0  0  0  0  0
   -8.0210   19.0520  -32.2420 N   0  0  0  0  0  0  0  0  0  0  0  0
   -9.0810   18.2260  -31.6160 C   0  0  0  0  0  0  0  0  0  0  0  0
   -6.9420   18.4400  -32.8550 C   0  0  0  0  0  0  0  0  0  0  0  0
   -6.9660   17.0600  -33.1710 C   0  0  0  0  0  0  0  0  0  0  0  0
   -5.8780   16.4390  -33.7710 C   0  0  0  0  0  0  0  0  0  0  0  0
   -4.7470   17.1690  -34.0970 C   0  0  0  0  0  0  0  0  0  0  0  0
   -4.6800   18.5480  -33.8280 C   0  0  0  0  0  0  0  0  0  0  0  0
   -3.5480   19.2980  -34.2000 O   0  0  0  0  0  0  0  0  0  0  0  0
   -2.1940   18.8460  -34.2070 C   0  0  0  0  0  0  0  0  0  0  0  0
   -1.2300   20.0450  -34.0500 C   0  0  0  0  0  0  0  0  0  0  0  0
    0.0630   19.7660  -33.3400 N   0  0  0  0  0  0  0  0  0  0  0  0
    1.1270   20.4370  -34.1400 C   0  0  0  0  0  0  0  0  0  0  0  0
    0.0530   20.3750  -31.9710 C   0  0  0  0  0  0  0  0  0  0  0  0
    1.0530   19.6890  -31.0190 C   0  0  0  0  0  0  0  0  0  0  0  0
    0.7270   18.2440  -30.7930 N   0  0  0  0  0  0  0  0  0  0  0  0
    1.9880   17.4960  -30.5500 C   0  0  0  0  0  0  0  0  0  0  0  0
   -0.1160   18.1120  -29.5770 C   0  0  0  0  0  0  0  0  0  0  0  0
    0.0020   17.6380  -31.9540 C   0  0  0  0  0  0  0  0  0  0  0  0
    0.3750   18.2980  -33.3000 C   0  0  0  0  0  0  0  0  0  0  0  0
   -5.7820   19.1960  -33.1960 C   0  0  0  0  0  0  0  0  0  0  0  0
   -7.1350   25.4275  -28.7138 H   0  0  0  0  0  0  0  0  0  0  0  0
   -6.7638   26.2495  -30.2672 H   0  0  0  0  0  0  0  0  0  0  0  0
   -7.3505   24.5517  -30.2672 H   0  0  0  0  0  0  0  0  0  0  0  0
   -5.2168   23.8256  -30.1707 H   0  0  0  0  0  0  0  0  0  0  0  0
   -4.6382   25.5383  -30.1209 H   0  0  0  0  0  0  0  0  0  0  0  0
   -5.7120   24.4110  -27.6580 H   0  0  0  0  0  0  0  0  0  0  0  0
   -4.4100   25.4990  -27.9150 H   0  0  0  0  0  0  0  0  0  0  0  0
   -3.4439   23.5259  -27.1504 H   0  0  0  0  0  0  0  0  0  0  0  0
   -4.4820   22.5582  -28.2810 H   0  0  0  0  0  0  0  0  0  0  0  0
   -3.0060   24.4467  -29.8496 H   0  0  0  0  0  0  0  0  0  0  0  0
   -1.8552   23.6168  -28.7115 H   0  0  0  0  0  0  0  0  0  0  0  0
   -4.5131   22.9623  -31.0788 H   0  0  0  0  0  0  0  0  0  0  0  0
   -2.9404   23.4049  -31.8455 H   0  0  0  0  0  0  0  0  0  0  0  0
   -2.5558   21.2279  -32.6292 H   0  0  0  0  0  0  0  0  0  0  0  0
   -3.7046   20.5019  -31.4293 H   0  0  0  0  0  0  0  0  0  0  0  0
   -4.6080   22.0910  -33.8640 H   0  0  0  0  0  0  0  0  0  0  0  0
   -6.1128   23.2181  -32.5090 H   0  0  0  0  0  0  0  0  0  0  0  0
   -8.2305   24.3334  -31.8395 H   0  0  0  0  0  0  0  0  0  0  0  0
  -10.2965   22.9889  -31.5009 H   0  0  0  0  0  0  0  0  0  0  0  0
  -10.2243   20.5128  -31.7019 H   0  0  0  0  0  0  0  0  0  0  0  0
   -8.9977   18.2909  -30.5211 H   0  0  0  0  0  0  0  0  0  0  0  0
  -10.0679   18.5956  -31.9312 H   0  0  0  0  0  0  0  0  0  0  0  0
   -8.9638   17.1787  -31.9312 H   0  0  0  0  0  0  0  0  0  0  0  0
   -7.8633   16.4684  -32.9369 H   0  0  0  0  0  0  0  0  0  0  0  0
   -5.9148   15.3613  -33.9885 H   0  0  0  0  0  0  0  0  0  0  0  0
   -3.8920   16.6650  -34.5713 H   0  0  0  0  0  0  0  0  0  0  0  0
   -2.0407   18.1449  -33.3734 H   0  0  0  0  0  0  0  0  0  0  0  0
   -1.9884   18.3430  -35.1634 H   0  0  0  0  0  0  0  0  0  0  0  0
   -0.9871   20.4147  -35.0571 H   0  0  0  0  0  0  0  0  0  0  0  0
   -1.7627   20.7709  -33.4181 H   0  0  0  0  0  0  0  0  0  0  0  0
    1.8595   20.8989  -33.4617 H   0  0  0  0  0  0  0  0  0  0  0  0
    1.6324   19.6939  -34.7743 H   0  0  0  0  0  0  0  0  0  0  0  0
    0.6742   21.2133  -34.7743 H   0  0  0  0  0  0  0  0  0  0  0  0
    0.3177   21.4393  -32.0552 H   0  0  0  0  0  0  0  0  0  0  0  0
   -0.9554   20.2442  -31.5515 H   0  0  0  0  0  0  0  0  0  0  0  0
    2.0607   19.7599  -31.4543 H   0  0  0  0  0  0  0  0  0  0  0  0
    0.9967   20.2015  -30.0473 H   0  0  0  0  0  0  0  0  0  0  0  0
    2.1533   17.3980  -29.4669 H   0  0  0  0  0  0  0  0  0  0  0  0
    1.9138   16.4957  -31.0016 H   0  0  0  0  0  0  0  0  0  0  0  0
    2.8303   18.0407  -31.0016 H   0  0  0  0  0  0  0  0  0  0  0  0
    0.5146   18.2107  -28.6812 H   0  0  0  0  0  0  0  0  0  0  0  0
   -0.8824   18.9011  -29.5747 H   0  0  0  0  0  0  0  0  0  0  0  0
   -0.6045   17.1264  -29.5747 H   0  0  0  0  0  0  0  0  0  0  0  0
    0.2521   16.5680  -32.0054 H   0  0  0  0  0  0  0  0  0  0  0  0
   -1.0745   17.7968  -31.7931 H   0  0  0  0  0  0  0  0  0  0  0  0
    1.4537   18.1642  -33.4690 H   0  0  0  0  0  0  0  0  0  0  0  0
   -0.2266   17.8124  -34.0824 H   0  0  0  0  0  0  0  0  0  0  0  0
  1  2  1  0
  2  3  1  0
  3  4  1  0
  4  5  1  0
  5  6  1  0
  6  7  1  0
  7  8  1  0
  8  9  1  0
  9 10  1  0
 10 11  2  0
 11 12  1  0
 12 13  2  0
 13 14  1  0
 14 15  2  0
 15 16  1  0
 16 17  2  0
 17 18  1  0
 17 19  1  0
 19 20  2  0
 20 21  1  0
 21 22  2  0
 22 23  1  0
 23 24  1  0
 24 25  1  0
 25 26  1  0
 26 27  1  0
 27 28  1  0
 27 29  1  0
 29 30  1  0
 30 31  1  0
 31 32  1  0
 31 33  1  0
 31 34  1  0
 34 35  1  0
 23 36  2  0
 36 10  1  0
 16 11  1  0
 36 19  1  0
 35 27  1  0
  1 37  1  0
  1 38  1  0
  1 39  1  0
  2 40  1  0
  2 41  1  0
  3 42  1  0
  3 43  1  0
  4 44  1  0
  4 45  1  0
  5 46  1  0
  5 47  1  0
  7 48  1  0
  7 49  1  0
  8 50  1  0
  8 51  1  0
  9 52  1  0
 12 53  1  0
 13 54  1  0
 14 55  1  0
 15 56  1  0
 18 57  1  0
 18 58  1  0
 18 59  1  0
 20 60  1  0
 21 61  1  0
 22 62  1  0
 25 63  1  0
 25 64  1  0
 26 65  1  0
 26 66  1  0
 28 67  1  0
 28 68  1  0
 28 69  1  0
 29 70  1  0
 29 71  1  0
 30 72  1  0
 30 73  1  0
 32 74  1  0
 32 75  1  0
 32 76  1  0
 33 77  1  0
 33 78  1  0
 33 79  1  0
 34 80  1  0
 34 81  1  0
 35 82  1  0
 35 83  1  0
M  CHG  4   3   1  17   1  27   1  31   1
M  END
>  <UniqueID>  (23) 
23

>  <SMILES>  (23) 
CC[NH2+]CCOCCNc1c2ccccc2[n+](C)c2cccc(OCC[N+]3(C)CC[N+](C)(C)CC3)c12

>  <Energy>  (23) 
136.7478522294564

>  <Genealogy>  (23) 
CC[NH2+]CCOCCNc1c2ccccc2[n+](C)c2cccc(OCC[N+]3(C)CC[N+](C)(C)CC3)c12 (protonated)
CC[NH2+]CCOCCNc1c2ccccc2[n+](C)c2cccc(OCC[N+]3(C)CC[N+](C)(C)CC3)c12 (3D coordinates assigned)
CC[NH2+]CCOCCNc1c2ccccc2[n+](C)c2cccc(OCC[N+]3(C)CC[N+](C)(C)CC3)c12 (nonaromatic ring conformer: 136.7478522294564 kcal/mol)

>  <smiles>  (23) 
CCNCCOCCNc1c2ccccc2[n+](C)c2cccc(OCC[N+]3(C)CC[N+](C)(C)CC3)c12

>  <score_type>  (23) 
oracle

>  <origin>  (23) 
adg

>  <m_score__min__energy>  (23) 
-7.6799999999999997

>  <m_primary>  (23) 
energy

$$$$
23:0
     RDKit          3D

 38 37  0  0  0  0  0  0  0  0999 V2000
   -6.2720   25.2990  -29.6590 C   0  0  0  0  0  0  0  0  0  0  0  0
   -5.3290   25.6410  -30.8060 C   0  0  0  0  0  0  0  0  0  0  0  0
   -3.9540   25.2700  -30.4510 N   0  0  0  0  0  0  0  0  0  0  0  0
   -3.9270   24.1590  -29.4880 C   0  0  0  0  0  0  0  0  0  0  0  0
   -3.9550   22.8070  -30.2060 C   0  0  0  0  0  0  0  0  0  0  0  0
   -3.9120   22.9950  -31.6100 O   0  0  0  0  0  0  0  0  0  0  0  0
   -4.4490   21.8820  -32.3040 C   0  0  0  0  0  0  0  0  0  0  0  0
   -5.9810   21.9780  -32.3640 C   0  0  0  0  0  0  0  0  0  0  0  0
   -6.6780   20.8270  -31.5860 C   0  0  0  0  0  0  0  0  0  0  0  0
   -7.2890   19.7500  -32.4280 N   0  0  0  0  0  0  0  0  0  0  0  0
   -8.7090   20.0420  -32.7400 C   0  0  0  0  0  0  0  0  0  0  0  0
   -7.1830   18.4270  -31.7650 C   0  0  0  0  0  0  0  0  0  0  0  0
   -6.5380   19.6840  -33.7050 C   0  0  0  0  0  0  0  0  0  0  0  0
   -5.7650   25.4829  -28.7003 H   0  0  0  0  0  0  0  0  0  0  0  0
   -7.1721   25.9280  -29.7244 H   0  0  0  0  0  0  0  0  0  0  0  0
   -6.5596   24.2393  -29.7244 H   0  0  0  0  0  0  0  0  0  0  0  0
   -5.6348   25.0883  -31.7065 H   0  0  0  0  0  0  0  0  0  0  0  0
   -5.3731   26.7228  -31.0003 H   0  0  0  0  0  0  0  0  0  0  0  0
   -3.4790   24.9430  -31.3260 H   0  0  0  0  0  0  0  0  0  0  0  0
   -3.0088   24.2273  -28.8862 H   0  0  0  0  0  0  0  0  0  0  0  0
   -4.8166   24.2319  -28.8451 H   0  0  0  0  0  0  0  0  0  0  0  0
   -3.0847   22.2116  -29.8927 H   0  0  0  0  0  0  0  0  0  0  0  0
   -4.8851   22.2816  -29.9436 H   0  0  0  0  0  0  0  0  0  0  0  0
   -4.0464   21.8642  -33.3275 H   0  0  0  0  0  0  0  0  0  0  0  0
   -4.1693   20.9606  -31.7723 H   0  0  0  0  0  0  0  0  0  0  0  0
   -6.2921   22.9385  -31.9273 H   0  0  0  0  0  0  0  0  0  0  0  0
   -6.2808   21.8989  -33.4194 H   0  0  0  0  0  0  0  0  0  0  0  0
   -5.9280   20.3593  -30.9312 H   0  0  0  0  0  0  0  0  0  0  0  0
   -7.5138   21.2945  -31.0449 H   0  0  0  0  0  0  0  0  0  0  0  0
   -9.2738   20.1581  -31.8033 H   0  0  0  0  0  0  0  0  0  0  0  0
   -8.7723   20.9720  -33.3241 H   0  0  0  0  0  0  0  0  0  0  0  0
   -9.1342   19.2125  -33.3241 H   0  0  0  0  0  0  0  0  0  0  0  0
   -7.1938   18.5620  -30.6734 H   0  0  0  0  0  0  0  0  0  0  0  0
   -8.0336   17.7973  -32.0650 H   0  0  0  0  0  0  0  0  0  0  0  0
   -6.2430   17.9408  -32.0650 H   0  0  0  0  0  0  0  0  0  0  0  0
   -5.4627   19.5895  -33.4935 H   0  0  0  0  0  0  0  0  0  0  0  0
   -6.8758   18.8121  -34.2844 H   0  0  0  0  0  0  0  0  0  0  0  0
   -6.7185   20.6015  -34.2844 H   0  0  0  0  0  0  0  0  0  0  0  0
  1  2  1  0
  2  3  1  0
  3  4  1  0
  4  5  1  0
  5  6  1  0
  6  7  1  0
  7  8  1  0
  8  9  1  0
  9 10  1  0
 10 11  1  0
 10 12  1  0
 10 13  1  0
  1 14  1  0
  1 15  1  0
  1 16  1  0
  2 17  1  0
  2 18  1  0
  3 19  1  0
  4 20  1  0
  4 21  1  0
  5 22  1  0
  5 23  1  0
  7 24  1  0
  7 25  1  0
  8 26  1  0
  8 27  1  0
  9 28  1  0
  9 29  1  0
 11 30  1  0
 11 31  1  0
 11 32  1  0
 12 33  1  0
 12 34  1  0
 12 35  1  0
 13 36  1  0
 13 37  1  0
 13 38  1  0
M  CHG  1  10   1
M  END
>  <UniqueID>  (24) 
24

>  <SMILES>  (24) 
CCNCCOCCC[N+](C)(C)C

>  <Energy>  (24) 
37.219737976652624

>  <Genealogy>  (24) 
CCNCCOCCC[N+](C)(C)C (3D coordinates assigned)
CCNCCOCCC[N+](C)(C)C (optimized conformer: 37.219737976652624 kcal/mol)

>  <smiles>  (24) 
CCNCCOCCC[N+](C)(C)C

>  <score_type>  (24) 
oracle

>  <origin>  (24) 
adg

>  <m_score__min__energy>  (24) 
-4.2199999999999998

>  <m_primary>  (24) 
energy

$$$$
24:0
     RDKit          3D

 62 64  0  0  0  0  0  0  0  0999 V2000
   -0.5950   16.1960  -34.1580 C   0  0  0  0  0  0  0  0  0  0  0  0
   -1.5140   17.0350  -34.9360 N   0  0  0  0  0  0  0  0  0  0  0  0
   -2.9070   17.0420  -34.5000 C   0  0  0  0  0  0  0  0  0  0  0  0
   -3.8490   16.1210  -35.0140 C   0  0  0  0  0  0  0  0  0  0  0  0
   -5.1670   16.1130  -34.5810 C   0  0  0  0  0  0  0  0  0  0  0  0
   -5.5980   17.0010  -33.5990 C   0  0  0  0  0  0  0  0  0  0  0  0
   -6.9350   16.9610  -33.1710 C   0  0  0  0  0  0  0  0  0  0  0  0
   -7.3840   17.8300  -32.1800 C   0  0  0  0  0  0  0  0  0  0  0  0
   -6.5050   18.7430  -31.6050 C   0  0  0  0  0  0  0  0  0  0  0  0
   -5.1730   18.7980  -32.0210 C   0  0  0  0  0  0  0  0  0  0  0  0
   -4.6900   17.9340  -33.0360 C   0  0  0  0  0  0  0  0  0  0  0  0
   -3.3350   17.9710  -33.4970 C   0  0  0  0  0  0  0  0  0  0  0  0
   -2.3640   19.0180  -32.9530 C   0  0  0  0  0  0  0  0  0  0  0  0
   -2.1230   20.1700  -33.9420 C   0  0  0  0  0  0  0  0  0  0  0  0
   -3.0540   21.2850  -33.6950 N   0  0  0  0  0  0  0  0  0  0  0  0
   -2.7740   21.9470  -32.4110 C   0  0  0  0  0  0  0  0  0  0  0  0
   -4.0440   22.0570  -31.5570 C   0  0  0  0  0  0  0  0  0  0  0  0
   -3.7360   22.4520  -30.1070 C   0  0  0  0  0  0  0  0  0  0  0  0
   -2.7130   23.5980  -30.0610 C   0  0  0  0  0  0  0  0  0  0  0  0
   -3.3550   24.9160  -29.9150 N   0  0  0  0  0  0  0  0  0  0  0  0
   -4.5410   25.1230  -30.7660 C   0  0  0  0  0  0  0  0  0  0  0  0
   -5.8710   25.0000  -30.0050 C   0  0  0  0  0  0  0  0  0  0  0  0
   -6.6930   23.8730  -30.5740 C   0  0  0  0  0  0  0  0  0  0  0  0
   -6.9030   23.7770  -31.9590 C   0  0  0  0  0  0  0  0  0  0  0  0
   -7.7030   22.7540  -32.4800 C   0  0  0  0  0  0  0  0  0  0  0  0
   -8.3060   21.8280  -31.6220 C   0  0  0  0  0  0  0  0  0  0  0  0
   -9.4040   20.4390  -32.3350 Br  0  0  0  0  0  0  0  0  0  0  0  0
   -8.1100   21.9270  -30.2400 C   0  0  0  0  0  0  0  0  0  0  0  0
   -7.3100   22.9470  -29.7170 C   0  0  0  0  0  0  0  0  0  0  0  0
   -0.7714   16.3571  -33.0843 H   0  0  0  0  0  0  0  0  0  0  0  0
   -0.7679   15.1377  -34.4033 H   0  0  0  0  0  0  0  0  0  0  0  0
    0.4432   16.4643  -34.4033 H   0  0  0  0  0  0  0  0  0  0  0  0
   -1.4700   16.6940  -35.9230 H   0  0  0  0  0  0  0  0  0  0  0  0
   -1.1480   18.0140  -34.8930 H   0  0  0  0  0  0  0  0  0  0  0  0
   -3.5292   15.3939  -35.7750 H   0  0  0  0  0  0  0  0  0  0  0  0
   -5.8791   15.3975  -35.0181 H   0  0  0  0  0  0  0  0  0  0  0  0
   -7.6318   16.2387  -33.6214 H   0  0  0  0  0  0  0  0  0  0  0  0
   -8.4333   17.7949  -31.8517 H   0  0  0  0  0  0  0  0  0  0  0  0
   -6.8613   19.4249  -30.8188 H   0  0  0  0  0  0  0  0  0  0  0  0
   -4.4888   19.5220  -31.5545 H   0  0  0  0  0  0  0  0  0  0  0  0
   -2.7784   19.4332  -32.0225 H   0  0  0  0  0  0  0  0  0  0  0  0
   -1.3988   18.5196  -32.7799 H   0  0  0  0  0  0  0  0  0  0  0  0
   -1.0906   20.5319  -33.8272 H   0  0  0  0  0  0  0  0  0  0  0  0
   -2.2901   19.7950  -34.9625 H   0  0  0  0  0  0  0  0  0  0  0  0
   -2.9150   21.9940  -34.4550 H   0  0  0  0  0  0  0  0  0  0  0  0
   -2.0215   21.3620  -31.8619 H   0  0  0  0  0  0  0  0  0  0  0  0
   -2.4017   22.9617  -32.6153 H   0  0  0  0  0  0  0  0  0  0  0  0
   -4.7031   22.8187  -31.9991 H   0  0  0  0  0  0  0  0  0  0  0  0
   -4.5270   21.0688  -31.5420 H   0  0  0  0  0  0  0  0  0  0  0  0
   -4.6651   22.7777  -29.6165 H   0  0  0  0  0  0  0  0  0  0  0  0
   -3.3139   21.5804  -29.5854 H   0  0  0  0  0  0  0  0  0  0  0  0
   -2.0391   23.4364  -29.2068 H   0  0  0  0  0  0  0  0  0  0  0  0
   -2.1626   23.5958  -31.0134 H   0  0  0  0  0  0  0  0  0  0  0  0
   -2.6480   25.6500  -30.1540 H   0  0  0  0  0  0  0  0  0  0  0  0
   -4.4830   26.1299  -31.2051 H   0  0  0  0  0  0  0  0  0  0  0  0
   -4.5319   24.3329  -31.5313 H   0  0  0  0  0  0  0  0  0  0  0  0
   -5.6650   24.7995  -28.9432 H   0  0  0  0  0  0  0  0  0  0  0  0
   -6.4317   25.9408  -30.1074 H   0  0  0  0  0  0  0  0  0  0  0  0
   -6.4373   24.5080  -32.6363 H   0  0  0  0  0  0  0  0  0  0  0  0
   -7.8581   22.6777  -33.5663 H   0  0  0  0  0  0  0  0  0  0  0  0
   -8.5861   21.2012  -29.5643 H   0  0  0  0  0  0  0  0  0  0  0  0
   -7.1631   23.0248  -28.6296 H   0  0  0  0  0  0  0  0  0  0  0  0
  1  2  1  0
  2  3  1  0
  3  4  2  0
  4  5  1  0
  5  6  2  0
  6  7  1  0
  7  8  2  0
  8  9  1  0
  9 10  2  0
 10 11  1  0
 11 12  2  0
 12 13  1  0
 13 14  1  0
 14 15  1  0
 15 16  1  0
 16 17  1  0
 17 18  1  0
 18 19  1  0
 19 20  1  0
 20 21  1  0
 21 22  1  0
 22 23  1  0
 23 24  2  0
 24 25  1  0
 25 26  2  0
 26 27  1  0
 26 28  1  0
 28 29  2  0
 12  3  1  0
 29 23  1  0
 11  6  1  0
  1 30  1  0
  1 31  1  0
  1 32  1  0
  2 33  1  0
  2 34  1  0
  4 35  1  0
  5 36  1  0
  7 37  1  0
  8 38  1  0
  9 39  1  0
 10 40  1  0
 13 41  1  0
 13 42  1  0
 14 43  1  0
 14 44  1  0
 15 45  1  0
 16 46  1  0
 16 47  1  0
 17 48  1  0
 17 49  1  0
 18 50  1  0
 18 51  1  0
 19 52  1  0
 19 53  1  0
 20 54  1  0
 21 55  1  0
 21 56  1  0
 22 57  1  0
 22 58  1  0
 24 59  1  0
 25 60  1  0
 28 61  1  0
 29 62  1  0
M  CHG  1   2   1
M  END
>  <UniqueID>  (25) 
25

>  <SMILES>  (25) 
C[NH2+]c1ccc2ccccc2c1CCNCCCCNCCc1ccc(Br)cc1

>  <Energy>  (25) 
67.72529033536922

>  <Genealogy>  (25) 
C[NH2+]c1ccc2ccccc2c1CCNCCCCNCCc1ccc(Br)cc1 (protonated)
C[NH2+]c1ccc2ccccc2c1CCNCCCCNCCc1ccc(Br)cc1 (3D coordinates assigned)
C[NH2+]c1ccc2ccccc2c1CCNCCCCNCCc1ccc(Br)cc1 (optimized conformer: 67.72529033536922 kcal/mol)

>  <smiles>  (25) 
CNc1ccc2ccccc2c1CCNCCCCNCCc1ccc(Br)cc1

>  <score_type>  (25) 
oracle

>  <origin>  (25) 
adg

>  <m_score__min__energy>  (25) 
-8.9100000000000001

>  <m_primary>  (25) 
energy

$$$$
25:0
     RDKit          3D

 77 81  0  0  0  0  0  0  0  0999 V2000
    0.4440   21.1810  -36.0660 C   0  0  0  0  0  0  0  0  0  0  0  0
   -0.4580   20.3960  -35.1110 C   0  0  0  0  0  0  0  0  0  0  0  0
   -1.2500   21.2740  -34.2300 N   0  0  0  0  0  0  0  0  0  0  0  0
   -0.8560   21.1860  -32.8050 C   0  0  0  0  0  0  0  0  0  0  0  0
   -2.0770   21.1220  -31.8730 C   0  0  0  0  0  0  0  0  0  0  0  0
   -2.9970   22.2280  -32.1380 N   0  0  0  0  0  0  0  0  0  0  0  0
   -4.4050   22.0550  -31.9200 C   0  0  0  0  0  0  0  0  0  0  0  0
   -5.0600   20.9670  -32.5220 C   0  0  0  0  0  0  0  0  0  0  0  0
   -4.3290   20.0010  -33.2500 C   0  0  0  0  0  0  0  0  0  0  0  0
   -4.9800   18.9550  -33.8990 C   0  0  0  0  0  0  0  0  0  0  0  0
   -6.3650   18.8590  -33.8450 C   0  0  0  0  0  0  0  0  0  0  0  0
   -7.1050   19.7910  -33.1180 C   0  0  0  0  0  0  0  0  0  0  0  0
   -6.4670   20.8430  -32.4090 C   0  0  0  0  0  0  0  0  0  0  0  0
   -7.1830   21.7460  -31.6490 N   0  0  0  0  0  0  0  0  0  0  0  0
   -8.5960   21.4650  -31.3080 C   0  0  0  0  0  0  0  0  0  0  0  0
   -6.5730   22.8930  -31.1740 C   0  0  0  0  0  0  0  0  0  0  0  0
   -7.3340   23.9600  -30.6420 C   0  0  0  0  0  0  0  0  0  0  0  0
   -6.7210   25.0780  -30.0920 C   0  0  0  0  0  0  0  0  0  0  0  0
   -5.3370   25.1630  -30.0400 C   0  0  0  0  0  0  0  0  0  0  0  0
   -4.5360   24.1460  -30.5870 C   0  0  0  0  0  0  0  0  0  0  0  0
   -3.1350   24.2110  -30.4760 O   0  0  0  0  0  0  0  0  0  0  0  0
   -2.3710   23.6400  -29.4150 C   0  0  0  0  0  0  0  0  0  0  0  0
   -2.5380   24.5050  -28.1460 C   0  0  0  0  0  0  0  0  0  0  0  0
   -1.2810   24.7720  -27.3630 N   0  0  1  0  0  0  0  0  0  0  0  0
   -0.2410   23.7940  -27.7860 C   0  0  0  0  0  0  0  0  0  0  0  0
   -0.8010   26.1450  -27.7710 C   0  0  0  0  0  0  0  0  0  0  0  0
   -0.0250   26.9250  -26.6680 C   0  0  0  0  0  0  0  0  0  0  0  0
   -0.5200   26.6690  -25.2740 N   0  0  2  0  0  0  0  0  0  0  0  0
   -0.5000   27.9090  -24.4680 C   0  0  0  0  0  0  0  0  0  0  0  0
    0.2770   25.5950  -24.6310 C   0  0  0  0  0  0  0  0  0  0  0  0
   -0.4290   24.2820  -24.9620 C   0  0  0  0  0  0  0  0  0  0  0  0
   -1.6040   24.6980  -25.8750 C   0  0  1  0  0  0  0  0  0  0  0  0
   -1.8710   26.0920  -25.3200 C   0  0  0  0  0  0  0  0  0  0  0  0
   -5.1550   23.0320  -31.2280 C   0  0  0  0  0  0  0  0  0  0  0  0
    1.1483   21.7940  -35.4845 H   0  0  0  0  0  0  0  0  0  0  0  0
    1.0056   20.4791  -36.7000 H   0  0  0  0  0  0  0  0  0  0  0  0
   -0.1736   21.8342  -36.7000 H   0  0  0  0  0  0  0  0  0  0  0  0
   -1.1475   19.7783  -35.7052 H   0  0  0  0  0  0  0  0  0  0  0  0
    0.1903   19.7789  -34.4715 H   0  0  0  0  0  0  0  0  0  0  0  0
   -2.2480   20.9670  -34.3080 H   0  0  0  0  0  0  0  0  0  0  0  0
   -1.2120   22.2590  -34.5830 H   0  0  0  0  0  0  0  0  0  0  0  0
   -0.2501   20.2795  -32.6593 H   0  0  0  0  0  0  0  0  0  0  0  0
   -0.2840   22.0914  -32.5540 H   0  0  0  0  0  0  0  0  0  0  0  0
   -2.6033   20.1697  -32.0345 H   0  0  0  0  0  0  0  0  0  0  0  0
   -1.7282   21.1978  -30.8325 H   0  0  0  0  0  0  0  0  0  0  0  0
   -2.6390   23.1860  -32.3540 H   0  0  0  0  0  0  0  0  0  0  0  0
   -3.2329   20.0763  -33.3046 H   0  0  0  0  0  0  0  0  0  0  0  0
   -4.3978   18.2049  -34.4543 H   0  0  0  0  0  0  0  0  0  0  0  0
   -6.8794   18.0454  -34.3773 H   0  0  0  0  0  0  0  0  0  0  0  0
   -8.2017   19.7098  -33.0933 H   0  0  0  0  0  0  0  0  0  0  0  0
   -8.7117   21.4420  -30.2143 H   0  0  0  0  0  0  0  0  0  0  0  0
   -9.2383   22.2530  -31.7281 H   0  0  0  0  0  0  0  0  0  0  0  0
   -8.8879   20.4912  -31.7281 H   0  0  0  0  0  0  0  0  0  0  0  0
   -8.4323   23.9031  -30.6644 H   0  0  0  0  0  0  0  0  0  0  0  0
   -7.3353   25.8999  -29.6957 H   0  0  0  0  0  0  0  0  0  0  0  0
   -4.8622   26.0348  -29.5661 H   0  0  0  0  0  0  0  0  0  0  0  0
   -2.7269   22.6188  -29.2136 H   0  0  0  0  0  0  0  0  0  0  0  0
   -1.3095   23.6051  -29.7013 H   0  0  0  0  0  0  0  0  0  0  0  0
   -2.9570   25.4750  -28.4519 H   0  0  0  0  0  0  0  0  0  0  0  0
   -3.1898   23.9265  -27.4748 H   0  0  0  0  0  0  0  0  0  0  0  0
    0.2297   23.3513  -26.8958 H   0  0  0  0  0  0  0  0  0  0  0  0
   -0.7075   22.9998  -28.3873 H   0  0  0  0  0  0  0  0  0  0  0  0
    0.5231   24.3084  -28.3873 H   0  0  0  0  0  0  0  0  0  0  0  0
   -0.1360   26.0300  -28.6397 H   0  0  0  0  0  0  0  0  0  0  0  0
   -1.7038   26.7349  -27.9877 H   0  0  0  0  0  0  0  0  0  0  0  0
    1.0341   26.6321  -26.7179 H   0  0  0  0  0  0  0  0  0  0  0  0
   -0.1792   27.9956  -26.8681 H   0  0  0  0  0  0  0  0  0  0  0  0
   -0.5042   27.6513  -23.3986 H   0  0  0  0  0  0  0  0  0  0  0  0
    0.4075   28.4845  -24.7030 H   0  0  0  0  0  0  0  0  0  0  0  0
   -1.3885   28.5134  -24.7030 H   0  0  0  0  0  0  0  0  0  0  0  0
    1.3013   25.5885  -25.0320 H   0  0  0  0  0  0  0  0  0  0  0  0
    0.3501   25.7471  -23.5440 H   0  0  0  0  0  0  0  0  0  0  0  0
    0.2506   23.5968  -25.4899 H   0  0  0  0  0  0  0  0  0  0  0  0
   -0.7661   23.7482  -24.0612 H   0  0  0  0  0  0  0  0  0  0  0  0
   -2.4335   23.9759  -25.8531 H   0  0  0  0  0  0  0  0  0  0  0  0
   -2.5288   26.6682  -25.9873 H   0  0  0  0  0  0  0  0  0  0  0  0
   -2.3849   26.0902  -24.3474 H   0  0  0  0  0  0  0  0  0  0  0  0
  1  2  1  0
  2  3  1  0
  3  4  1  0
  4  5  1  0
  5  6  1  0
  6  7  1  0
  7  8  2  0
  8  9  1  0
  9 10  2  0
 10 11  1  0
 11 12  2  0
 12 13  1  0
 13 14  2  0
 14 15  1  0
 14 16  1  0
 16 17  2  0
 17 18  1  0
 18 19  2  0
 19 20  1  0
 20 21  1  0
 21 22  1  0
 22 23  1  0
 24 23  1  6
 24 25  1  0
 24 26  1  0
 26 27  1  0
 27 28  1  0
 28 29  1  1
 28 30  1  0
 30 31  1  0
 31 32  1  0
 32 33  1  0
 20 34  2  0
 34  7  1  0
 13  8  1  0
 34 16  1  0
 32 24  1  0
 33 28  1  0
  1 35  1  0
  1 36  1  0
  1 37  1  0
  2 38  1  0
  2 39  1  0
  3 40  1  0
  3 41  1  0
  4 42  1  0
  4 43  1  0
  5 44  1  0
  5 45  1  0
  6 46  1  0
  9 47  1  0
 10 48  1  0
 11 49  1  0
 12 50  1  0
 15 51  1  0
 15 52  1  0
 15 53  1  0
 17 54  1  0
 18 55  1  0
 19 56  1  0
 22 57  1  0
 22 58  1  0
 23 59  1  0
 23 60  1  0
 25 61  1  0
 25 62  1  0
 25 63  1  0
 26 64  1  0
 26 65  1  0
 27 66  1  0
 27 67  1  0
 29 68  1  0
 29 69  1  0
 29 70  1  0
 30 71  1  0
 30 72  1  0
 31 73  1  0
 31 74  1  0
 32 75  1  6
 33 76  1  0
 33 77  1  0
M  CHG  4   3   1  14   1  24   1  28   1
M  END
>  <UniqueID>  (26) 
26

>  <SMILES>  (26) 
CC[NH2+]CCNc1c2ccccc2[n+](C)c2cccc(OCC[N@@+]3(C)CC[N@+]4(C)CCC3C4)c12

>  <Energy>  (26) 
151.75888336510727

>  <Genealogy>  (26) 
CC[NH2+]CCNc1c2ccccc2[n+](C)c2cccc(OCC[N+]3(C)CC[N+]4(C)CCC3C4)c12 (protonated)
CC[NH2+]CCNc1c2ccccc2[n+](C)c2cccc(OCC[N@@+]3(C)CC[N@+]4(C)CCC3C4)c12 (chirality)
CC[NH2+]CCNc1c2ccccc2[n+](C)c2cccc(OCC[N@@+]3(C)CC[N@+]4(C)CCC3C4)c12 (3D coordinates assigned)
CC[NH2+]CCNc1c2ccccc2[n+](C)c2cccc(OCC[N@@+]3(C)CC[N@+]4(C)CCC3C4)c12 (nonaromatic ring conformer: 151.75888336510727 kcal/mol)

>  <smiles>  (26) 
CCNCCNc1c2ccccc2[n+](C)c2cccc(OCC[N+]3(C)CC[N+]4(C)CCC3C4)c12

>  <score_type>  (26) 
oracle

>  <origin>  (26) 
adg

>  <m_score__min__energy>  (26) 
-7.2800000000000002

>  <m_primary>  (26) 
energy

$$$$
26:0
     RDKit          3D

 40 42  0  0  0  0  0  0  0  0999 V2000
   -9.4950   21.8410  -31.2180 C   0  0  0  0  0  0  0  0  0  0  0  0
   -8.5620   20.7940  -31.7660 C   0  0  0  0  0  0  0  0  0  0  0  0
   -9.0960   19.5490  -32.1460 C   0  0  0  0  0  0  0  0  0  0  0  0
   -8.2760   18.5610  -32.6920 C   0  0  0  0  0  0  0  0  0  0  0  0
   -6.9140   18.7990  -32.8660 C   0  0  0  0  0  0  0  0  0  0  0  0
   -6.3620   20.0210  -32.4780 C   0  0  0  0  0  0  0  0  0  0  0  0
   -7.1680   21.0220  -31.9080 C   0  0  0  0  0  0  0  0  0  0  0  0
   -6.5230   22.2860  -31.4870 C   0  0  0  0  0  0  0  0  0  0  0  0
   -6.8750   23.5360  -31.9970 C   0  0  0  0  0  0  0  0  0  0  0  0
   -5.9450   24.6990  -31.2130 S   0  0  0  0  0  0  0  0  0  0  0  0
   -5.1390   23.5750  -30.2500 C   0  0  0  0  0  0  0  0  0  0  0  0
   -4.1190   23.8880  -29.2810 N   0  0  0  0  0  0  0  0  0  0  0  0
   -2.7250   23.4730  -29.5010 C   0  0  0  0  0  0  0  0  0  0  0  0
   -1.7650   24.5430  -28.9680 C   0  0  0  0  0  0  0  0  0  0  0  0
   -2.0310   24.9170  -27.4840 C   0  0  0  0  0  0  0  0  0  0  0  0
   -0.8990   24.4210  -26.5750 C   0  0  0  0  0  0  0  0  0  0  0  0
   -3.3920   24.4030  -26.9650 C   0  0  0  0  0  0  0  0  0  0  0  0
   -4.4930   24.5480  -28.0210 C   0  0  0  0  0  0  0  0  0  0  0  0
   -5.5690   22.3190  -30.5140 N   0  0  0  0  0  0  0  0  0  0  0  0
   -9.4711   21.8142  -30.1186 H   0  0  0  0  0  0  0  0  0  0  0  0
   -9.1772   22.8344  -31.5675 H   0  0  0  0  0  0  0  0  0  0  0  0
  -10.5183   21.6393  -31.5675 H   0  0  0  0  0  0  0  0  0  0  0  0
  -10.1699   19.3528  -32.0114 H   0  0  0  0  0  0  0  0  0  0  0  0
   -8.7056   17.5919  -32.9858 H   0  0  0  0  0  0  0  0  0  0  0  0
   -6.2731   18.0229  -33.3097 H   0  0  0  0  0  0  0  0  0  0  0  0
   -5.2863   20.2025  -32.6195 H   0  0  0  0  0  0  0  0  0  0  0  0
   -7.6284   23.7278  -32.7752 H   0  0  0  0  0  0  0  0  0  0  0  0
   -2.5407   22.5246  -28.9750 H   0  0  0  0  0  0  0  0  0  0  0  0
   -2.5548   23.3426  -30.5799 H   0  0  0  0  0  0  0  0  0  0  0  0
   -0.7359   24.1641  -29.0543 H   0  0  0  0  0  0  0  0  0  0  0  0
   -1.9215   25.4516  -29.5679 H   0  0  0  0  0  0  0  0  0  0  0  0
   -2.0653   26.0160  -27.4511 H   0  0  0  0  0  0  0  0  0  0  0  0
   -1.1913   24.5491  -25.5223 H   0  0  0  0  0  0  0  0  0  0  0  0
   -0.7075   23.3565  -26.7755 H   0  0  0  0  0  0  0  0  0  0  0  0
    0.0134   25.0018  -26.7755 H   0  0  0  0  0  0  0  0  0  0  0  0
   -3.2931   23.3408  -26.6967 H   0  0  0  0  0  0  0  0  0  0  0  0
   -3.6750   25.0061  -26.0897 H   0  0  0  0  0  0  0  0  0  0  0  0
   -5.4178   24.0914  -27.6387 H   0  0  0  0  0  0  0  0  0  0  0  0
   -4.6405   25.6193  -28.2221 H   0  0  0  0  0  0  0  0  0  0  0  0
   -5.2160   21.4650  -30.0290 H   0  0  0  0  0  0  0  0  0  0  0  0
  1  2  1  0
  2  3  2  0
  3  4  1  0
  4  5  2  0
  5  6  1  0
  6  7  2  0
  7  8  1  0
  8  9  2  0
  9 10  1  0
 10 11  1  0
 11 12  1  0
 12 13  1  0
 13 14  1  0
 14 15  1  0
 15 16  1  0
 15 17  1  0
 17 18  1  0
 11 19  2  0
  7  2  1  0
 19  8  1  0
 18 12  1  0
  1 20  1  0
  1 21  1  0
  1 22  1  0
  3 23  1  0
  4 24  1  0
  5 25  1  0
  6 26  1  0
  9 27  1  0
 13 28  1  0
 13 29  1  0
 14 30  1  0
 14 31  1  0
 15 32  1  0
 16 33  1  0
 16 34  1  0
 16 35  1  0
 17 36  1  0
 17 37  1  0
 18 38  1  0
 18 39  1  0
 19 40  1  0
M  CHG  1  19   1
M  END
>  <UniqueID>  (27) 
27

>  <SMILES>  (27) 
Cc1ccccc1-c1csc(N2CCC(C)CC2)[nH+]1

>  <Energy>  (27) 
77.10587426971618

>  <Genealogy>  (27) 
Cc1ccccc1-c1csc(N2CCC(C)CC2)[nH+]1 (protonated)
Cc1ccccc1-c1csc(N2CCC(C)CC2)[nH+]1 (3D coordinates assigned)
Cc1ccccc1-c1csc(N2CCC(C)CC2)[nH+]1 (nonaromatic ring conformer: 77.10587426971618 kcal/mol)

>  <smiles>  (27) 
Cc1ccccc1-c1csc(N2CCC(C)CC2)n1

>  <score_type>  (27) 
oracle

>  <origin>  (27) 
adg

>  <m_score__min__energy>  (27) 
-6.7999999999999998

>  <m_primary>  (27) 
energy

$$$$
27:0
     RDKit          3D

 80 84  0  0  0  0  0  0  0  0999 V2000
    0.6490   22.0990  -35.7470 C   0  0  0  0  0  0  0  0  0  0  0  0
    0.2740   21.1650  -34.5920 C   0  0  0  0  0  0  0  0  0  0  0  0
   -1.1280   21.3320  -34.1670 N   0  0  0  0  0  0  0  0  0  0  0  0
   -1.2460   21.4830  -32.7070 C   0  0  0  0  0  0  0  0  0  0  0  0
   -2.7120   21.4460  -32.2520 C   0  0  0  0  0  0  0  0  0  0  0  0
   -3.6100   21.0800  -33.3490 N   0  0  0  0  0  0  0  0  0  0  0  0
   -4.9070   20.5330  -33.0740 C   0  0  0  0  0  0  0  0  0  0  0  0
   -5.8990   21.3660  -32.5220 C   0  0  0  0  0  0  0  0  0  0  0  0
   -5.6800   22.7550  -32.3730 C   0  0  0  0  0  0  0  0  0  0  0  0
   -6.6700   23.5820  -31.8480 C   0  0  0  0  0  0  0  0  0  0  0  0
   -7.8990   23.0500  -31.4830 C   0  0  0  0  0  0  0  0  0  0  0  0
   -8.1440   21.6850  -31.6330 C   0  0  0  0  0  0  0  0  0  0  0  0
   -7.1450   20.8110  -32.1360 C   0  0  0  0  0  0  0  0  0  0  0  0
   -7.3700   19.4580  -32.2800 N   0  0  0  0  0  0  0  0  0  0  0  0
   -8.5320   18.8300  -31.6100 C   0  0  0  0  0  0  0  0  0  0  0  0
   -6.5090   18.6900  -33.0400 C   0  0  0  0  0  0  0  0  0  0  0  0
   -6.8880   17.4030  -33.4870 C   0  0  0  0  0  0  0  0  0  0  0  0
   -6.0170   16.6110  -34.2190 C   0  0  0  0  0  0  0  0  0  0  0  0
   -4.7460   17.0670  -34.5240 C   0  0  0  0  0  0  0  0  0  0  0  0
   -4.3200   18.3450  -34.1200 C   0  0  0  0  0  0  0  0  0  0  0  0
   -3.0110   18.7760  -34.4070 O   0  0  0  0  0  0  0  0  0  0  0  0
   -1.9630   17.9490  -34.9170 C   0  0  0  0  0  0  0  0  0  0  0  0
   -0.6800   18.1180  -34.0800 C   0  0  0  0  0  0  0  0  0  0  0  0
   -0.6210   17.3600  -32.7830 N   0  0  1  0  0  0  0  0  0  0  0  0
   -1.7510   16.3880  -32.8370 C   0  0  0  0  0  0  0  0  0  0  0  0
    0.6610   16.5990  -32.6670 C   0  0  0  0  0  0  0  0  0  0  0  0
    0.9210   16.1170  -31.2280 C   0  0  0  0  0  0  0  0  0  0  0  0
    1.0940   17.2550  -30.2570 N   0  0  2  0  0  0  0  0  0  0  0  0
    2.5520   17.5360  -30.1510 C   0  0  0  0  0  0  0  0  0  0  0  0
    0.6460   17.0040  -28.8420 C   0  0  0  0  0  0  0  0  0  0  0  0
    0.0570   18.1610  -28.0360 C   0  0  0  0  0  0  0  0  0  0  0  0
    1.4430   17.6130  -27.6930 C   0  0  0  0  0  0  0  0  0  0  0  0
    0.4300   18.5120  -30.7420 C   0  0  0  0  0  0  0  0  0  0  0  0
   -0.8370   18.2680  -31.6000 C   0  0  0  0  0  0  0  0  0  0  0  0
   -5.2260   19.1930  -33.4100 C   0  0  0  0  0  0  0  0  0  0  0  0
    1.0301   23.0481  -35.3421 H   0  0  0  0  0  0  0  0  0  0  0  0
    1.4266   21.6251  -36.3641 H   0  0  0  0  0  0  0  0  0  0  0  0
   -0.2404   22.2944  -36.3641 H   0  0  0  0  0  0  0  0  0  0  0  0
    0.4234   20.1245  -34.9162 H   0  0  0  0  0  0  0  0  0  0  0  0
    0.9165   21.4162  -33.7352 H   0  0  0  0  0  0  0  0  0  0  0  0
   -1.5030   22.1960  -34.6230 H   0  0  0  0  0  0  0  0  0  0  0  0
   -1.6950   20.5180  -34.4980 H   0  0  0  0  0  0  0  0  0  0  0  0
   -0.6996   20.6631  -32.2179 H   0  0  0  0  0  0  0  0  0  0  0  0
   -0.8231   22.4590  -32.4266 H   0  0  0  0  0  0  0  0  0  0  0  0
   -2.8161   20.7066  -31.4442 H   0  0  0  0  0  0  0  0  0  0  0  0
   -2.9885   22.4520  -31.9034 H   0  0  0  0  0  0  0  0  0  0  0  0
   -3.3220   21.2100  -34.3470 H   0  0  0  0  0  0  0  0  0  0  0  0
   -4.7152   23.1880  -32.6757 H   0  0  0  0  0  0  0  0  0  0  0  0
   -6.4778   24.6578  -31.7225 H   0  0  0  0  0  0  0  0  0  0  0  0
   -8.6815   23.7063  -31.0745 H   0  0  0  0  0  0  0  0  0  0  0  0
   -9.1283   21.2789  -31.3567 H   0  0  0  0  0  0  0  0  0  0  0  0
   -8.4069   18.8976  -30.5192 H   0  0  0  0  0  0  0  0  0  0  0  0
   -9.4531   19.3531  -31.9066 H   0  0  0  0  0  0  0  0  0  0  0  0
   -8.5990   17.7729  -31.9066 H   0  0  0  0  0  0  0  0  0  0  0  0
   -7.8927   17.0233  -33.2494 H   0  0  0  0  0  0  0  0  0  0  0  0
   -6.3374   15.6152  -34.5592 H   0  0  0  0  0  0  0  0  0  0  0  0
   -4.0595   16.4206  -35.0904 H   0  0  0  0  0  0  0  0  0  0  0  0
   -2.2825   16.8971  -34.8798 H   0  0  0  0  0  0  0  0  0  0  0  0
   -1.7504   18.2467  -35.9544 H   0  0  0  0  0  0  0  0  0  0  0  0
    0.1682   17.7891  -34.6983 H   0  0  0  0  0  0  0  0  0  0  0  0
   -0.6543   19.1808  -33.7977 H   0  0  0  0  0  0  0  0  0  0  0  0
   -2.0573   16.1246  -31.8139 H   0  0  0  0  0  0  0  0  0  0  0  0
   -2.6003   16.8422  -33.3685 H   0  0  0  0  0  0  0  0  0  0  0  0
   -1.4289   15.4804  -33.3685 H   0  0  0  0  0  0  0  0  0  0  0  0
    1.4902   17.2517  -32.9776 H   0  0  0  0  0  0  0  0  0  0  0  0
    0.5876   15.7118  -33.3131 H   0  0  0  0  0  0  0  0  0  0  0  0
    1.8358   15.5063  -31.2212 H   0  0  0  0  0  0  0  0  0  0  0  0
    0.0428   15.5371  -30.9077 H   0  0  0  0  0  0  0  0  0  0  0  0
    2.8386   17.5912  -29.0904 H   0  0  0  0  0  0  0  0  0  0  0  0
    3.1174   16.7303  -30.6421 H   0  0  0  0  0  0  0  0  0  0  0  0
    2.7774   18.4941  -30.6421 H   0  0  0  0  0  0  0  0  0  0  0  0
    0.3125   15.9889  -29.1034 H   0  0  0  0  0  0  0  0  0  0  0  0
   -0.0436   19.1560  -28.4942 H   0  0  0  0  0  0  0  0  0  0  0  0
   -0.8759   18.3249  -27.4766 H   0  0  0  0  0  0  0  0  0  0  0  0
    2.3397   18.2143  -27.9037 H   0  0  0  0  0  0  0  0  0  0  0  0
    1.9204   17.2196  -26.7834 H   0  0  0  0  0  0  0  0  0  0  0  0
    1.1553   19.0736  -31.3490 H   0  0  0  0  0  0  0  0  0  0  0  0
    0.1058   19.0646  -29.8478 H   0  0  0  0  0  0  0  0  0  0  0  0
   -1.1929   19.2399  -31.9725 H   0  0  0  0  0  0  0  0  0  0  0  0
   -1.5667   17.7661  -30.9476 H   0  0  0  0  0  0  0  0  0  0  0  0
  1  2  1  0
  2  3  1  0
  3  4  1  0
  4  5  1  0
  5  6  1  0
  6  7  1  0
  7  8  2  0
  8  9  1  0
  9 10  2  0
 10 11  1  0
 11 12  2  0
 12 13  1  0
 13 14  2  0
 14 15  1  0
 14 16  1  0
 16 17  2  0
 17 18  1  0
 18 19  2  0
 19 20  1  0
 20 21  1  0
 21 22  1  0
 22 23  1  0
 24 23  1  6
 24 25  1  0
 24 26  1  0
 26 27  1  0
 27 28  1  0
 28 29  1  1
 28 30  1  0
 30 31  1  0
 31 32  1  0
 28 33  1  0
 33 34  1  0
 20 35  2  0
 35  7  1  0
 13  8  1  0
 35 16  1  0
 34 24  1  0
 32 30  1  0
  1 36  1  0
  1 37  1  0
  1 38  1  0
  2 39  1  0
  2 40  1  0
  3 41  1  0
  3 42  1  0
  4 43  1  0
  4 44  1  0
  5 45  1  0
  5 46  1  0
  6 47  1  0
  9 48  1  0
 10 49  1  0
 11 50  1  0
 12 51  1  0
 15 52  1  0
 15 53  1  0
 15 54  1  0
 17 55  1  0
 18 56  1  0
 19 57  1  0
 22 58  1  0
 22 59  1  0
 23 60  1  0
 23 61  1  0
 25 62  1  0
 25 63  1  0
 25 64  1  0
 26 65  1  0
 26 66  1  0
 27 67  1  0
 27 68  1  0
 29 69  1  0
 29 70  1  0
 29 71  1  0
 30 72  1  0
 31 73  1  0
 31 74  1  0
 32 75  1  0
 32 76  1  0
 33 77  1  0
 33 78  1  0
 34 79  1  0
 34 80  1  0
M  CHG  4   3   1  14   1  24   1  28   1
M  END
>  <UniqueID>  (28) 
28

>  <SMILES>  (28) 
CC[NH2+]CCNc1c2ccccc2[n+](C)c2cccc(OCC[N+]3(C)CC[N+](C)(C4CC4)CC3)c12

>  <Energy>  (28) 
413.31824711078633

>  <Genealogy>  (28) 
CC[NH2+]CCNc1c2ccccc2[n+](C)c2cccc(OCC[N+]3(C)CC[N+](C)(C4CC4)CC3)c12 (protonated)
CC[NH2+]CCNc1c2ccccc2[n+](C)c2cccc(OCC[N+]3(C)CC[N+](C)(C4CC4)CC3)c12 (3D coordinates assigned)
CC[NH2+]CCNc1c2ccccc2[n+](C)c2cccc(OCC[N+]3(C)CC[N+](C)(C4CC4)CC3)c12 (nonaromatic ring conformer: 413.31824711078633 kcal/mol)

>  <smiles>  (28) 
CCNCCNc1c2ccccc2[n+](C)c2cccc(OCC[N+]3(C)CC[N+](C)(C4CC4)CC3)c12

>  <score_type>  (28) 
oracle

>  <origin>  (28) 
adg

>  <m_score__min__energy>  (28) 
-7.1600000000000001

>  <m_primary>  (28) 
energy

$$$$
28:0
     RDKit          3D

 46 48  0  0  0  0  0  0  0  0999 V2000
   -8.3900   18.6050  -31.2420 C   0  0  0  0  0  0  0  0  0  0  0  0
   -9.3230   18.9520  -32.3980 C   0  0  0  0  0  0  0  0  0  0  0  0
   -9.2020   20.3750  -32.7460 N   0  0  0  0  0  0  0  0  0  0  0  0
   -9.1450   21.2200  -31.5440 C   0  0  0  0  0  0  0  0  0  0  0  0
   -8.6270   22.6200  -31.8910 C   0  0  0  0  0  0  0  0  0  0  0  0
   -7.2180   22.8370  -31.3910 C   0  0  0  0  0  0  0  0  0  0  0  0
   -7.0090   23.6710  -30.2800 C   0  0  0  0  0  0  0  0  0  0  0  0
   -5.7280   23.8620  -29.7650 C   0  0  0  0  0  0  0  0  0  0  0  0
   -4.6290   23.2070  -30.3360 C   0  0  0  0  0  0  0  0  0  0  0  0
   -3.3790   23.3800  -29.8140 N   0  0  0  0  0  0  0  0  0  0  0  0
   -2.2900   22.7430  -30.3350 C   0  0  0  0  0  0  0  0  0  0  0  0
   -0.9360   22.9240  -29.7040 C   0  0  0  0  0  0  0  0  0  0  0  0
   -1.0690   23.6080  -28.4140 N   0  0  0  0  0  0  0  0  0  0  0  0
   -1.5060   24.8920  -28.2670 C   0  0  0  0  0  0  0  0  0  0  0  0
   -1.9180   25.6700  -29.3430 O   0  0  0  0  0  0  0  0  0  0  0  0
   -1.5130   25.3730  -26.9610 C   0  0  0  0  0  0  0  0  0  0  0  0
   -0.9390   24.1480  -25.9550 S   0  0  0  0  0  0  0  0  0  0  0  0
   -0.7140   23.0690  -27.2220 C   0  0  0  0  0  0  0  0  0  0  0  0
   -0.2670   21.9000  -27.0840 O   0  0  0  0  0  0  0  0  0  0  0  0
   -2.4490   21.8710  -31.4190 C   0  0  0  0  0  0  0  0  0  0  0  0
   -3.7120   21.6770  -31.9720 C   0  0  0  0  0  0  0  0  0  0  0  0
   -4.8230   22.3530  -31.4460 C   0  0  0  0  0  0  0  0  0  0  0  0
   -6.1180   22.1810  -31.9840 C   0  0  0  0  0  0  0  0  0  0  0  0
   -6.3200   21.3530  -33.0930 O   0  0  0  0  0  0  0  0  0  0  0  0
   -6.0210   19.9630  -33.0430 C   0  0  0  0  0  0  0  0  0  0  0  0
   -8.9023   18.7955  -30.2874 H   0  0  0  0  0  0  0  0  0  0  0  0
   -8.1105   17.5428  -31.3025 H   0  0  0  0  0  0  0  0  0  0  0  0
   -7.4844   19.2264  -31.3025 H   0  0  0  0  0  0  0  0  0  0  0  0
   -9.0578   18.3411  -33.2735 H   0  0  0  0  0  0  0  0  0  0  0  0
  -10.3598   18.7466  -32.0932 H   0  0  0  0  0  0  0  0  0  0  0  0
   -8.2960   20.4940  -33.2590 H   0  0  0  0  0  0  0  0  0  0  0  0
  -10.1538   21.3045  -31.1137 H   0  0  0  0  0  0  0  0  0  0  0  0
   -8.4586   20.7583  -30.8189 H   0  0  0  0  0  0  0  0  0  0  0  0
   -8.6399   22.7436  -32.9840 H   0  0  0  0  0  0  0  0  0  0  0  0
   -9.2806   23.3573  -31.4019 H   0  0  0  0  0  0  0  0  0  0  0  0
   -7.8652   24.1785  -29.8117 H   0  0  0  0  0  0  0  0  0  0  0  0
   -5.5789   24.5312  -28.9048 H   0  0  0  0  0  0  0  0  0  0  0  0
   -3.2490   24.0140  -28.9930 H   0  0  0  0  0  0  0  0  0  0  0  0
   -0.4729   21.9386  -29.5473 H   0  0  0  0  0  0  0  0  0  0  0  0
   -0.3063   23.5316  -30.3706 H   0  0  0  0  0  0  0  0  0  0  0  0
   -1.8359   26.3749  -26.6418 H   0  0  0  0  0  0  0  0  0  0  0  0
   -1.5785   21.3407  -31.8325 H   0  0  0  0  0  0  0  0  0  0  0  0
   -3.8390   20.9921  -32.8233 H   0  0  0  0  0  0  0  0  0  0  0  0
   -5.9516   19.6404  -31.9937 H   0  0  0  0  0  0  0  0  0  0  0  0
   -6.8182   19.3981  -33.5483 H   0  0  0  0  0  0  0  0  0  0  0  0
   -5.0620   19.7758  -33.5483 H   0  0  0  0  0  0  0  0  0  0  0  0
  1  2  1  0
  2  3  1  0
  3  4  1  0
  4  5  1  0
  5  6  1  0
  6  7  2  0
  7  8  1  0
  8  9  2  0
  9 10  1  0
 10 11  2  0
 11 12  1  0
 12 13  1  0
 13 14  1  0
 14 15  1  0
 14 16  2  0
 16 17  1  0
 17 18  1  0
 18 19  2  0
 11 20  1  0
 20 21  2  0
 21 22  1  0
 22 23  2  0
 23 24  1  0
 24 25  1  0
 23  6  1  0
 22  9  1  0
 18 13  1  0
  1 26  1  0
  1 27  1  0
  1 28  1  0
  2 29  1  0
  2 30  1  0
  3 31  1  0
  4 32  1  0
  4 33  1  0
  5 34  1  0
  5 35  1  0
  7 36  1  0
  8 37  1  0
 10 38  1  0
 12 39  1  0
 12 40  1  0
 16 41  1  0
 20 42  1  0
 21 43  1  0
 25 44  1  0
 25 45  1  0
 25 46  1  0
M  CHG  2  10   1  15  -1
M  END
>  <UniqueID>  (29) 
29

>  <SMILES>  (29) 
CCNCCc1ccc2[nH+]c(Cn3c([O-])csc3=O)ccc2c1OC

>  <Energy>  (29) 
83.0154840852175

>  <Genealogy>  (29) 
CCNCCc1ccc2[nH+]c(Cn3c([O-])csc3=O)ccc2c1OC (protonated)
CCNCCc1ccc2[nH+]c(Cn3c([O-])csc3=O)ccc2c1OC (3D coordinates assigned)
CCNCCc1ccc2[nH+]c(Cn3c([O-])csc3=O)ccc2c1OC (optimized conformer: 83.0154840852175 kcal/mol)

>  <smiles>  (29) 
CCNCCc1ccc2nc(Cn3c(O)csc3=O)ccc2c1OC

>  <score_type>  (29) 
oracle

>  <origin>  (29) 
adg

>  <m_score__min__energy>  (29) 
-8.8699999999999992

>  <m_primary>  (29) 
energy

$$$$
29:0
     RDKit          3D

 50 52  0  0  0  0  0  0  0  0999 V2000
   -2.3780   24.8010  -27.2860 C   0  0  0  0  0  0  0  0  0  0  0  0
   -3.7540   24.1590  -27.1220 C   0  0  0  0  0  0  0  0  0  0  0  0
   -4.3690   23.7240  -28.4650 C   0  0  0  0  0  0  0  0  0  0  0  0
   -5.3830   24.6800  -28.9700 N   0  0  0  0  0  0  0  0  0  0  0  0
   -5.6170   24.5540  -30.4220 C   0  0  0  0  0  0  0  0  0  0  0  0
   -4.7530   23.4480  -31.0500 C   0  0  0  0  0  0  0  0  0  0  0  0
   -5.3110   23.0230  -32.3330 N   0  0  0  0  0  0  0  0  0  0  0  0
   -5.7820   21.6800  -32.5110 C   0  0  0  0  0  0  0  0  0  0  0  0
   -7.1320   21.3690  -32.2900 C   0  0  0  0  0  0  0  0  0  0  0  0
   -8.0430   22.3680  -31.8850 C   0  0  0  0  0  0  0  0  0  0  0  0
   -9.3950   22.0740  -31.7240 C   0  0  0  0  0  0  0  0  0  0  0  0
   -9.8610   20.7880  -31.9720 C   0  0  0  0  0  0  0  0  0  0  0  0
   -8.9750   19.7810  -32.3510 C   0  0  0  0  0  0  0  0  0  0  0  0
   -7.5850   20.0370  -32.4810 C   0  0  0  0  0  0  0  0  0  0  0  0
   -6.6840   19.0370  -32.7990 N   0  0  0  0  0  0  0  0  0  0  0  0
   -7.0980   17.6170  -32.7250 C   0  0  0  0  0  0  0  0  0  0  0  0
   -5.3880   19.3600  -33.1560 C   0  0  0  0  0  0  0  0  0  0  0  0
   -4.5100   18.4070  -33.7310 C   0  0  0  0  0  0  0  0  0  0  0  0
   -3.1890   18.7320  -34.0360 C   0  0  0  0  0  0  0  0  0  0  0  0
   -2.6980   20.0130  -33.7770 C   0  0  0  0  0  0  0  0  0  0  0  0
   -1.2840   20.3660  -34.1350 C   0  0  0  0  0  0  0  0  0  0  0  0
   -3.5600   20.9880  -33.2680 C   0  0  0  0  0  0  0  0  0  0  0  0
   -4.9060   20.6830  -32.9720 C   0  0  0  0  0  0  0  0  0  0  0  0
   -1.9467   25.0022  -26.2943 H   0  0  0  0  0  0  0  0  0  0  0  0
   -1.7184   24.1177  -27.8409 H   0  0  0  0  0  0  0  0  0  0  0  0
   -2.4778   25.7455  -27.8409 H   0  0  0  0  0  0  0  0  0  0  0  0
   -3.6549   23.2736  -26.4768 H   0  0  0  0  0  0  0  0  0  0  0  0
   -4.4219   24.9120  -26.6783 H   0  0  0  0  0  0  0  0  0  0  0  0
   -3.5636   23.6404  -29.2095 H   0  0  0  0  0  0  0  0  0  0  0  0
   -4.8750   22.7612  -28.3007 H   0  0  0  0  0  0  0  0  0  0  0  0
   -6.2950   24.5480  -28.4750 H   0  0  0  0  0  0  0  0  0  0  0  0
   -5.0740   25.6580  -28.7550 H   0  0  0  0  0  0  0  0  0  0  0  0
   -6.6774   24.3158  -30.5916 H   0  0  0  0  0  0  0  0  0  0  0  0
   -5.3435   25.5089  -30.8947 H   0  0  0  0  0  0  0  0  0  0  0  0
   -3.7343   23.8316  -31.2084 H   0  0  0  0  0  0  0  0  0  0  0  0
   -4.7336   22.5844  -30.3690 H   0  0  0  0  0  0  0  0  0  0  0  0
   -5.4770   23.7130  -33.1000 H   0  0  0  0  0  0  0  0  0  0  0  0
   -7.6816   23.3893  -31.6945 H   0  0  0  0  0  0  0  0  0  0  0  0
  -10.0939   22.8594  -31.4006 H   0  0  0  0  0  0  0  0  0  0  0  0
  -10.9330   20.5643  -31.8687 H   0  0  0  0  0  0  0  0  0  0  0  0
   -9.3597   18.7704  -32.5529 H   0  0  0  0  0  0  0  0  0  0  0  0
   -7.1860   17.3152  -31.6709 H   0  0  0  0  0  0  0  0  0  0  0  0
   -8.0700   17.4919  -33.2246 H   0  0  0  0  0  0  0  0  0  0  0  0
   -6.3455   16.9892  -33.2246 H   0  0  0  0  0  0  0  0  0  0  0  0
   -4.8780   17.3918  -33.9405 H   0  0  0  0  0  0  0  0  0  0  0  0
   -2.5293   17.9741  -34.4837 H   0  0  0  0  0  0  0  0  0  0  0  0
   -0.6985   20.5122  -33.2153 H   0  0  0  0  0  0  0  0  0  0  0  0
   -0.8410   19.5509  -34.7260 H   0  0  0  0  0  0  0  0  0  0  0  0
   -1.2761   21.2937  -34.7260 H   0  0  0  0  0  0  0  0  0  0  0  0
   -3.1844   22.0074  -33.0956 H   0  0  0  0  0  0  0  0  0  0  0  0
  1  2  1  0
  2  3  1  0
  3  4  1  0
  4  5  1  0
  5  6  1  0
  6  7  1  0
  7  8  1  0
  8  9  2  0
  9 10  1  0
 10 11  2  0
 11 12  1  0
 12 13  2  0
 13 14  1  0
 14 15  2  0
 15 16  1  0
 15 17  1  0
 17 18  2  0
 18 19  1  0
 19 20  2  0
 20 21  1  0
 20 22  1  0
 22 23  2  0
 23  8  1  0
 14  9  1  0
 23 17  1  0
  1 24  1  0
  1 25  1  0
  1 26  1  0
  2 27  1  0
  2 28  1  0
  3 29  1  0
  3 30  1  0
  4 31  1  0
  4 32  1  0
  5 33  1  0
  5 34  1  0
  6 35  1  0
  6 36  1  0
  7 37  1  0
 10 38  1  0
 11 39  1  0
 12 40  1  0
 13 41  1  0
 16 42  1  0
 16 43  1  0
 16 44  1  0
 18 45  1  0
 19 46  1  0
 21 47  1  0
 21 48  1  0
 21 49  1  0
 22 50  1  0
M  CHG  2   4   1  15   1
M  END
>  <UniqueID>  (30) 
30

>  <SMILES>  (30) 
CCC[NH2+]CCNc1c2ccccc2[n+](C)c2ccc(C)cc12

>  <Energy>  (30) 
74.15920520753814

>  <Genealogy>  (30) 
CCC[NH2+]CCNc1c2ccccc2[n+](C)c2ccc(C)cc12 (protonated)
CCC[NH2+]CCNc1c2ccccc2[n+](C)c2ccc(C)cc12 (3D coordinates assigned)
CCC[NH2+]CCNc1c2ccccc2[n+](C)c2ccc(C)cc12 (optimized conformer: 74.15920520753814 kcal/mol)

>  <smiles>  (30) 
CCCNCCNc1c2ccccc2[n+](C)c2ccc(C)cc12

>  <score_type>  (30) 
oracle

>  <origin>  (30) 
adg

>  <m_score__min__energy>  (30) 
-7.6799999999999997

>  <m_primary>  (30) 
energy

$$$$
30:0
     RDKit          3D

 54 54  0  0  0  0  0  0  0  0999 V2000
   -3.3960   23.0640  -28.2830 C   0  0  0  0  0  0  0  0  0  0  0  0
   -3.5260   21.9420  -29.3070 C   0  0  0  0  0  0  0  0  0  0  0  0
   -2.8260   22.2720  -30.4910 O   0  0  0  0  0  0  0  0  0  0  0  0
   -1.4340   22.1190  -30.3010 C   0  0  0  0  0  0  0  0  0  0  0  0
   -0.8100   21.5300  -31.5650 C   0  0  0  0  0  0  0  0  0  0  0  0
   -1.5820   21.8530  -32.7050 O   0  0  0  0  0  0  0  0  0  0  0  0
   -1.7080   20.7350  -33.5590 C   0  0  0  0  0  0  0  0  0  0  0  0
   -3.1920   20.4330  -33.7910 C   0  0  0  0  0  0  0  0  0  0  0  0
   -4.0520   21.4210  -33.1170 N   0  0  0  0  0  0  0  0  0  0  0  0
   -5.0250   20.7920  -32.2080 C   0  0  0  0  0  0  0  0  0  0  0  0
   -6.1020   19.9880  -32.9610 C   0  0  0  0  0  0  0  0  0  0  0  0
   -6.9890   19.1600  -32.0130 C   0  0  0  0  0  0  0  0  0  0  0  0
   -8.3880   19.0540  -32.4750 N   0  0  0  0  0  0  0  0  0  0  0  0
   -9.0270   20.3630  -32.6740 C   0  0  0  0  0  0  0  0  0  0  0  0
   -9.1770   21.1110  -31.3430 C   0  0  0  0  0  0  0  0  0  0  0  0
   -8.1150   22.1680  -31.1820 C   0  0  0  0  0  0  0  0  0  0  0  0
   -7.5680   22.4370  -29.9170 C   0  0  0  0  0  0  0  0  0  0  0  0
   -6.5680   23.4000  -29.7710 C   0  0  0  0  0  0  0  0  0  0  0  0
   -6.0900   24.1090  -30.8890 C   0  0  0  0  0  0  0  0  0  0  0  0
   -5.0660   25.1110  -30.7400 N   0  0  0  0  0  0  0  0  0  0  0  0
   -3.8600   24.8080  -30.8350 O   0  0  0  0  0  0  0  0  0  0  0  0
   -5.4010   26.4180  -30.4730 O   0  0  0  0  0  0  0  0  0  0  0  0
   -6.6340   23.8310  -32.1550 C   0  0  0  0  0  0  0  0  0  0  0  0
   -7.6330   22.8650  -32.3000 C   0  0  0  0  0  0  0  0  0  0  0  0
   -3.4449   22.6419  -27.2684 H   0  0  0  0  0  0  0  0  0  0  0  0
   -2.4325   23.5764  -28.4209 H   0  0  0  0  0  0  0  0  0  0  0  0
   -4.2168   23.7832  -28.4209 H   0  0  0  0  0  0  0  0  0  0  0  0
   -3.1084   21.0160  -28.8851 H   0  0  0  0  0  0  0  0  0  0  0  0
   -4.5898   21.8008  -29.5488 H   0  0  0  0  0  0  0  0  0  0  0  0
   -0.9823   23.0999  -30.0918 H   0  0  0  0  0  0  0  0  0  0  0  0
   -1.2515   21.4432  -29.4524 H   0  0  0  0  0  0  0  0  0  0  0  0
    0.2043   21.9370  -31.6895 H   0  0  0  0  0  0  0  0  0  0  0  0
   -0.7741   20.4354  -31.4627 H   0  0  0  0  0  0  0  0  0  0  0  0
   -1.2234   20.9531  -34.5221 H   0  0  0  0  0  0  0  0  0  0  0  0
   -1.2251   19.8628  -33.0942 H   0  0  0  0  0  0  0  0  0  0  0  0
   -3.3977   20.4569  -34.8713 H   0  0  0  0  0  0  0  0  0  0  0  0
   -3.4129   19.4393  -33.3742 H   0  0  0  0  0  0  0  0  0  0  0  0
   -4.5540   22.0000  -33.8300 H   0  0  0  0  0  0  0  0  0  0  0  0
   -3.4530   22.0610  -32.5440 H   0  0  0  0  0  0  0  0  0  0  0  0
   -4.4868   20.1126  -31.5307 H   0  0  0  0  0  0  0  0  0  0  0  0
   -5.5335   21.5955  -31.6550 H   0  0  0  0  0  0  0  0  0  0  0  0
   -6.7401   20.6891  -33.5189 H   0  0  0  0  0  0  0  0  0  0  0  0
   -5.5867   19.2873  -33.6344 H   0  0  0  0  0  0  0  0  0  0  0  0
   -6.5681   18.1467  -31.9352 H   0  0  0  0  0  0  0  0  0  0  0  0
   -7.0021   19.6756  -31.0414 H   0  0  0  0  0  0  0  0  0  0  0  0
   -8.9630   18.4940  -31.8030 H   0  0  0  0  0  0  0  0  0  0  0  0
   -8.4091   20.9646  -33.3568 H   0  0  0  0  0  0  0  0  0  0  0  0
  -10.0284   20.2024  -33.0999 H   0  0  0  0  0  0  0  0  0  0  0  0
  -10.1665   21.5905  -31.3118 H   0  0  0  0  0  0  0  0  0  0  0  0
   -9.0685   20.3845  -30.5242 H   0  0  0  0  0  0  0  0  0  0  0  0
   -7.9295   21.8859  -29.0363 H   0  0  0  0  0  0  0  0  0  0  0  0
   -6.1503   23.6063  -28.7745 H   0  0  0  0  0  0  0  0  0  0  0  0
   -6.2707   24.3778  -33.0376 H   0  0  0  0  0  0  0  0  0  0  0  0
   -8.0442   22.6496  -33.2972 H   0  0  0  0  0  0  0  0  0  0  0  0
  1  2  1  0
  2  3  1  0
  3  4  1  0
  4  5  1  0
  5  6  1  0
  6  7  1  0
  7  8  1  0
  8  9  1  0
  9 10  1  0
 10 11  1  0
 11 12  1  0
 12 13  1  0
 13 14  1  0
 14 15  1  0
 15 16  1  0
 16 17  2  0
 17 18  1  0
 18 19  2  0
 19 20  1  0
 20 21  2  0
 20 22  1  0
 19 23  1  0
 23 24  2  0
 24 16  1  0
  1 25  1  0
  1 26  1  0
  1 27  1  0
  2 28  1  0
  2 29  1  0
  4 30  1  0
  4 31  1  0
  5 32  1  0
  5 33  1  0
  7 34  1  0
  7 35  1  0
  8 36  1  0
  8 37  1  0
  9 38  1  0
  9 39  1  0
 10 40  1  0
 10 41  1  0
 11 42  1  0
 11 43  1  0
 12 44  1  0
 12 45  1  0
 13 46  1  0
 14 47  1  0
 14 48  1  0
 15 49  1  0
 15 50  1  0
 17 51  1  0
 18 52  1  0
 23 53  1  0
 24 54  1  0
M  CHG  3   9   1  20   1  22  -1
M  END
>  <UniqueID>  (31) 
31

>  <SMILES>  (31) 
CCOCCOCC[NH2+]CCCNCCc1ccc([N+](=O)[O-])cc1

>  <Energy>  (31) 
46.936019302222874

>  <Genealogy>  (31) 
CCOCCOCC[NH2+]CCCNCCc1ccc([N+](=O)[O-])cc1 (protonated)
CCOCCOCC[NH2+]CCCNCCc1ccc([N+](=O)[O-])cc1 (3D coordinates assigned)
CCOCCOCC[NH2+]CCCNCCc1ccc([N+](=O)[O-])cc1 (optimized conformer: 46.936019302222874 kcal/mol)

>  <smiles>  (31) 
CCOCCOCCNCCCNCCc1ccc([N+](=O)[O-])cc1

>  <score_type>  (31) 
oracle

>  <origin>  (31) 
adg

>  <m_score__min__energy>  (31) 
-6.2999999999999998

>  <m_primary>  (31) 
energy

$$$$
31:0
     RDKit          3D

 73 75  0  0  0  0  0  0  0  0999 V2000
   -0.7570   22.1270  -27.2930 C   0  0  0  0  0  0  0  0  0  0  0  0
   -2.2030   22.5780  -27.4940 C   0  0  0  0  0  0  0  0  0  0  0  0
   -3.0440   21.5130  -28.0910 N   0  0  0  0  0  0  0  0  0  0  0  0
   -2.4550   20.1490  -28.0230 C   0  0  0  0  0  0  0  0  0  0  0  0
   -2.8100   19.3500  -26.7590 C   0  0  0  0  0  0  0  0  0  0  0  0
   -3.5020   21.8810  -29.4530 C   0  0  0  0  0  0  0  0  0  0  0  0
   -2.6540   23.0250  -30.0490 C   0  0  0  0  0  0  0  0  0  0  0  0
   -3.4000   23.9610  -30.8140 O   0  0  0  0  0  0  0  0  0  0  0  0
   -4.1100   24.8970  -30.0150 C   0  0  0  0  0  0  0  0  0  0  0  0
   -5.5930   25.0420  -30.4150 C   0  0  0  0  0  0  0  0  0  0  0  0
   -6.2380   23.6970  -30.7780 C   0  0  0  0  0  0  0  0  0  0  0  0
   -5.6250   23.0990  -31.9690 N   0  0  0  0  0  0  0  0  0  0  0  0
   -5.8620   21.7180  -32.2850 C   0  0  0  0  0  0  0  0  0  0  0  0
   -7.1740   21.2110  -32.2750 C   0  0  0  0  0  0  0  0  0  0  0  0
   -8.2630   22.0400  -31.9250 C   0  0  0  0  0  0  0  0  0  0  0  0
   -9.5670   21.5540  -31.9550 C   0  0  0  0  0  0  0  0  0  0  0  0
   -9.8110   20.2460  -32.3540 C   0  0  0  0  0  0  0  0  0  0  0  0
   -8.7530   19.4110  -32.7090 C   0  0  0  0  0  0  0  0  0  0  0  0
   -7.4070   19.8610  -32.6480 C   0  0  0  0  0  0  0  0  0  0  0  0
   -6.3450   19.0310  -32.9710 N   0  0  0  0  0  0  0  0  0  0  0  0
   -6.5720   17.5750  -33.1230 C   0  0  0  0  0  0  0  0  0  0  0  0
   -5.0730   19.5590  -33.1110 C   0  0  0  0  0  0  0  0  0  0  0  0
   -4.0090   18.8140  -33.6850 C   0  0  0  0  0  0  0  0  0  0  0  0
   -2.7140   19.3270  -33.7310 C   0  0  0  0  0  0  0  0  0  0  0  0
   -2.4300   20.5830  -33.1910 C   0  0  0  0  0  0  0  0  0  0  0  0
   -1.0920   21.1030  -33.2240 N   0  0  0  0  0  0  0  0  0  0  0  0
   -0.3600   21.3540  -31.9730 C   0  0  0  0  0  0  0  0  0  0  0  0
   -0.5790   20.2300  -30.9620 C   0  0  0  0  0  0  0  0  0  0  0  0
   -0.5140   21.5060  -34.5130 C   0  0  0  0  0  0  0  0  0  0  0  0
    0.3070   20.3670  -35.1020 C   0  0  0  0  0  0  0  0  0  0  0  0
   -3.4730   21.3630  -32.6830 C   0  0  0  0  0  0  0  0  0  0  0  0
   -4.8020   20.8890  -32.6920 C   0  0  0  0  0  0  0  0  0  0  0  0
   -0.5402   22.0594  -26.2167 H   0  0  0  0  0  0  0  0  0  0  0  0
   -0.6123   21.1411  -27.7588 H   0  0  0  0  0  0  0  0  0  0  0  0
   -0.0775   22.8559  -27.7588 H   0  0  0  0  0  0  0  0  0  0  0  0
   -2.6258   22.8577  -26.5178 H   0  0  0  0  0  0  0  0  0  0  0  0
   -2.1971   23.4320  -28.1873 H   0  0  0  0  0  0  0  0  0  0  0  0
   -2.8084   19.5809  -28.8962 H   0  0  0  0  0  0  0  0  0  0  0  0
   -1.3638   20.2862  -28.0034 H   0  0  0  0  0  0  0  0  0  0  0  0
   -2.5484   19.9388  -25.8675 H   0  0  0  0  0  0  0  0  0  0  0  0
   -3.8886   19.1343  -26.7524 H   0  0  0  0  0  0  0  0  0  0  0  0
   -2.2471   18.4050  -26.7524 H   0  0  0  0  0  0  0  0  0  0  0  0
   -3.4221   20.9998  -30.1065 H   0  0  0  0  0  0  0  0  0  0  0  0
   -4.5442   22.2260  -29.3836 H   0  0  0  0  0  0  0  0  0  0  0  0
   -2.1693   23.5634  -29.2212 H   0  0  0  0  0  0  0  0  0  0  0  0
   -1.9301   22.5599  -30.7343 H   0  0  0  0  0  0  0  0  0  0  0  0
   -4.0620   24.5679  -28.9665 H   0  0  0  0  0  0  0  0  0  0  0  0
   -3.6355   25.8781  -30.1644 H   0  0  0  0  0  0  0  0  0  0  0  0
   -6.1447   25.4815  -29.5709 H   0  0  0  0  0  0  0  0  0  0  0  0
   -5.6376   25.6854  -31.3061 H   0  0  0  0  0  0  0  0  0  0  0  0
   -6.1181   23.0053  -29.9312 H   0  0  0  0  0  0  0  0  0  0  0  0
   -7.3010   23.8770  -30.9962 H   0  0  0  0  0  0  0  0  0  0  0  0
   -4.8070   23.5630  -32.4240 H   0  0  0  0  0  0  0  0  0  0  0  0
   -8.0782   23.0821  -31.6252 H   0  0  0  0  0  0  0  0  0  0  0  0
  -10.4039   22.2054  -31.6629 H   0  0  0  0  0  0  0  0  0  0  0  0
  -10.8433   19.8677  -32.3899 H   0  0  0  0  0  0  0  0  0  0  0  0
   -8.9642   18.3843  -33.0427 H   0  0  0  0  0  0  0  0  0  0  0  0
   -6.6446   17.1095  -32.1290 H   0  0  0  0  0  0  0  0  0  0  0  0
   -7.5074   17.4055  -33.6764 H   0  0  0  0  0  0  0  0  0  0  0  0
   -5.7326   17.1288  -33.6764 H   0  0  0  0  0  0  0  0  0  0  0  0
   -4.2103   17.8155  -34.1002 H   0  0  0  0  0  0  0  0  0  0  0  0
   -1.9097   18.7381  -34.1961 H   0  0  0  0  0  0  0  0  0  0  0  0
    0.7144   21.4297  -32.1964 H   0  0  0  0  0  0  0  0  0  0  0  0
   -0.7354   22.2906  -31.5350 H   0  0  0  0  0  0  0  0  0  0  0  0
   -0.5003   20.6339  -29.9419 H   0  0  0  0  0  0  0  0  0  0  0  0
   -1.5788   19.7951  -31.1081 H   0  0  0  0  0  0  0  0  0  0  0  0
    0.1844   19.4516  -31.1081 H   0  0  0  0  0  0  0  0  0  0  0  0
   -1.3250   21.7666  -35.2089 H   0  0  0  0  0  0  0  0  0  0  0  0
    0.1409   22.3757  -34.3557 H   0  0  0  0  0  0  0  0  0  0  0  0
    0.7393   19.7673  -34.2875 H   0  0  0  0  0  0  0  0  0  0  0  0
   -0.3412   19.7303  -35.7220 H   0  0  0  0  0  0  0  0  0  0  0  0
    1.1160   20.7806  -35.7220 H   0  0  0  0  0  0  0  0  0  0  0  0
   -3.2548   22.3593  -32.2709 H   0  0  0  0  0  0  0  0  0  0  0  0
  1  2  1  0
  2  3  1  0
  3  4  1  0
  4  5  1  0
  3  6  1  0
  6  7  1  0
  7  8  1  0
  8  9  1  0
  9 10  1  0
 10 11  1  0
 11 12  1  0
 12 13  1  0
 13 14  2  0
 14 15  1  0
 15 16  2  0
 16 17  1  0
 17 18  2  0
 18 19  1  0
 19 20  2  0
 20 21  1  0
 20 22  1  0
 22 23  2  0
 23 24  1  0
 24 25  2  0
 25 26  1  0
 26 27  1  0
 27 28  1  0
 26 29  1  0
 29 30  1  0
 25 31  1  0
 31 32  2  0
 32 13  1  0
 19 14  1  0
 32 22  1  0
  1 33  1  0
  1 34  1  0
  1 35  1  0
  2 36  1  0
  2 37  1  0
  4 38  1  0
  4 39  1  0
  5 40  1  0
  5 41  1  0
  5 42  1  0
  6 43  1  0
  6 44  1  0
  7 45  1  0
  7 46  1  0
  9 47  1  0
  9 48  1  0
 10 49  1  0
 10 50  1  0
 11 51  1  0
 11 52  1  0
 12 53  1  0
 15 54  1  0
 16 55  1  0
 17 56  1  0
 18 57  1  0
 21 58  1  0
 21 59  1  0
 21 60  1  0
 23 61  1  0
 24 62  1  0
 27 63  1  0
 27 64  1  0
 28 65  1  0
 28 66  1  0
 28 67  1  0
 29 68  1  0
 29 69  1  0
 30 70  1  0
 30 71  1  0
 30 72  1  0
 31 73  1  0
M  CHG  1  20   1
M  END
>  <UniqueID>  (32) 
32

>  <SMILES>  (32) 
CCN(CC)CCOCCCNc1c2ccccc2[n+](C)c2ccc(N(CC)CC)cc12

>  <Energy>  (32) 
104.41741460151124

>  <Genealogy>  (32) 
CCN(CC)CCOCCCNc1c2ccccc2[n+](C)c2ccc(N(CC)CC)cc12 (3D coordinates assigned)
CCN(CC)CCOCCCNc1c2ccccc2[n+](C)c2ccc(N(CC)CC)cc12 (optimized conformer: 104.41741460151124 kcal/mol)

>  <smiles>  (32) 
CCN(CC)CCOCCCNc1c2ccccc2[n+](C)c2ccc(N(CC)CC)cc12

>  <score_type>  (32) 
oracle

>  <origin>  (32) 
adg

>  <m_score__min__energy>  (32) 
-8.8599999999999994

>  <m_primary>  (32) 
energy

$$$$
32:0
     RDKit          3D

 43 45  0  0  0  0  0  0  0  0999 V2000
   -2.6730   20.7690  -33.3780 C   0  0  0  0  0  0  0  0  0  0  0  0
   -2.4420   19.2670  -33.1920 C   0  0  0  0  0  0  0  0  0  0  0  0
   -2.4820   18.5370  -34.4690 N   0  0  0  0  0  0  0  0  0  0  0  0
   -2.7590   17.1000  -34.3010 C   0  0  0  0  0  0  0  0  0  0  0  0
   -3.9270   16.6870  -35.1970 C   0  0  0  0  0  0  0  0  0  0  0  0
   -4.9110   17.7210  -35.2770 O   0  0  0  0  0  0  0  0  0  0  0  0
   -5.8010   18.0840  -34.2530 C   0  0  0  0  0  0  0  0  0  0  0  0
   -6.6730   17.1060  -33.7630 C   0  0  0  0  0  0  0  0  0  0  0  0
   -7.5700   17.4040  -32.7370 C   0  0  0  0  0  0  0  0  0  0  0  0
   -7.6080   18.6880  -32.1900 C   0  0  0  0  0  0  0  0  0  0  0  0
   -6.7460   19.6900  -32.6680 C   0  0  0  0  0  0  0  0  0  0  0  0
   -6.7760   21.0530  -32.0800 C   0  0  0  0  0  0  0  0  0  0  0  0
   -8.0000   21.7180  -31.8820 C   0  0  0  0  0  0  0  0  0  0  0  0
   -8.0330   23.0010  -31.3290 C   0  0  0  0  0  0  0  0  0  0  0  0
   -6.8430   23.6420  -30.9630 C   0  0  0  0  0  0  0  0  0  0  0  0
   -6.8660   24.9310  -30.4080 C   0  0  0  0  0  0  0  0  0  0  0  0
   -5.6720   25.5610  -30.0460 C   0  0  0  0  0  0  0  0  0  0  0  0
   -4.4490   24.9120  -30.2340 C   0  0  0  0  0  0  0  0  0  0  0  0
   -4.4130   23.6270  -30.7870 C   0  0  0  0  0  0  0  0  0  0  0  0
   -5.6050   22.9850  -31.1560 C   0  0  0  0  0  0  0  0  0  0  0  0
   -5.5810   21.6970  -31.7120 C   0  0  0  0  0  0  0  0  0  0  0  0
   -5.8490   19.3820  -33.7080 C   0  0  0  0  0  0  0  0  0  0  0  0
   -2.7475   21.2532  -32.3931 H   0  0  0  0  0  0  0  0  0  0  0  0
   -1.8310   21.2030  -33.9372 H   0  0  0  0  0  0  0  0  0  0  0  0
   -3.6065   20.9299  -33.9372 H   0  0  0  0  0  0  0  0  0  0  0  0
   -1.4566   19.1148  -32.7275 H   0  0  0  0  0  0  0  0  0  0  0  0
   -3.2491   18.8772  -32.5544 H   0  0  0  0  0  0  0  0  0  0  0  0
   -3.2030   18.9650  -35.0970 H   0  0  0  0  0  0  0  0  0  0  0  0
   -1.8651   16.5215  -34.5772 H   0  0  0  0  0  0  0  0  0  0  0  0
   -3.0203   16.9019  -33.2510 H   0  0  0  0  0  0  0  0  0  0  0  0
   -3.5464   16.4756  -36.2072 H   0  0  0  0  0  0  0  0  0  0  0  0
   -4.3978   15.7924  -34.7635 H   0  0  0  0  0  0  0  0  0  0  0  0
   -6.6512   16.0928  -34.1906 H   0  0  0  0  0  0  0  0  0  0  0  0
   -8.2488   16.6257  -32.3581 H   0  0  0  0  0  0  0  0  0  0  0  0
   -8.3166   18.9167  -31.3803 H   0  0  0  0  0  0  0  0  0  0  0  0
   -8.9406   21.2230  -32.1654 H   0  0  0  0  0  0  0  0  0  0  0  0
   -8.9972   23.5092  -31.1807 H   0  0  0  0  0  0  0  0  0  0  0  0
   -7.8260   25.4466  -30.2576 H   0  0  0  0  0  0  0  0  0  0  0  0
   -5.6952   26.5713  -29.6116 H   0  0  0  0  0  0  0  0  0  0  0  0
   -3.5124   25.4122  -29.9467 H   0  0  0  0  0  0  0  0  0  0  0  0
   -3.4482   23.1191  -30.9328 H   0  0  0  0  0  0  0  0  0  0  0  0
   -4.6184   21.1860  -31.8615 H   0  0  0  0  0  0  0  0  0  0  0  0
   -5.1792   20.1622  -34.0988 H   0  0  0  0  0  0  0  0  0  0  0  0
  1  2  1  0
  2  3  1  0
  3  4  1  0
  4  5  1  0
  5  6  1  0
  6  7  1  0
  7  8  2  0
  8  9  1  0
  9 10  2  0
 10 11  1  0
 11 12  1  0
 12 13  2  0
 13 14  1  0
 14 15  2  0
 15 16  1  0
 16 17  2  0
 17 18  1  0
 18 19  2  0
 19 20  1  0
 20 21  2  0
 11 22  2  0
 22  7  1  0
 21 12  1  0
 20 15  1  0
  1 23  1  0
  1 24  1  0
  1 25  1  0
  2 26  1  0
  2 27  1  0
  3 28  1  0
  4 29  1  0
  4 30  1  0
  5 31  1  0
  5 32  1  0
  8 33  1  0
  9 34  1  0
 10 35  1  0
 13 36  1  0
 14 37  1  0
 16 38  1  0
 17 39  1  0
 18 40  1  0
 19 41  1  0
 21 42  1  0
 22 43  1  0
M  END
>  <UniqueID>  (33) 
33

>  <SMILES>  (33) 
CCNCCOc1cccc(-c2ccc3ccccc3c2)c1

>  <Energy>  (33) 
50.68376174441738

>  <Genealogy>  (33) 
CCNCCOc1cccc(-c2ccc3ccccc3c2)c1 (3D coordinates assigned)
CCNCCOc1cccc(-c2ccc3ccccc3c2)c1 (optimized conformer: 50.68376174441738 kcal/mol)

>  <smiles>  (33) 
CCNCCOc1cccc(-c2ccc3ccccc3c2)c1

>  <score_type>  (33) 
oracle

>  <origin>  (33) 
adg

>  <m_score__min__energy>  (33) 
-9.0399999999999991

>  <m_primary>  (33) 
energy

$$$$
