0:0
     RDKit          3D

 35 36  0  0  0  0  0  0  0  0999 V2000
   -2.1183   17.8794  -34.2405 H   0  0  0  0  0  0  0  0  0  0  0  0
   -3.1220   18.2240  -33.9510 C   0  0  0  0  0  0  0  0  0  0  0  0
   -4.2100   17.3540  -34.0390 C   0  0  0  0  0  0  0  0  0  0  0  0
   -4.0630   16.3278  -34.4067 H   0  0  0  0  0  0  0  0  0  0  0  0
   -5.4870   17.7830  -33.6610 C   0  0  0  0  0  0  0  0  0  0  0  0
   -6.8280   16.6510  -33.7740 Cl  0  0  0  0  0  0  0  0  0  0  0  0
   -5.6800   19.0990  -33.2030 C   0  0  0  0  0  0  0  0  0  0  0  0
   -7.2840   19.6540  -32.7300 Cl  0  0  0  0  0  0  0  0  0  0  0  0
   -4.5890   19.9880  -33.1460 C   0  0  0  0  0  0  0  0  0  0  0  0
   -4.7880   21.3300  -32.6710 N   0  0  0  0  0  0  0  0  0  0  0  0
   -4.8720   21.6790  -31.4430 N   0  0  0  0  0  0  0  0  0  0  0  0
   -4.3910   22.9190  -30.8920 C   0  0  0  0  0  0  0  0  0  0  0  0
   -3.1240   22.9830  -30.2950 C   0  0  0  0  0  0  0  0  0  0  0  0
   -2.4801   22.0915  -30.2711 H   0  0  0  0  0  0  0  0  0  0  0  0
   -2.6810   24.1830  -29.7300 C   0  0  0  0  0  0  0  0  0  0  0  0
   -1.3700   24.2460  -29.0050 C   0  0  0  0  0  0  0  0  0  0  0  0
   -0.5674   24.4552  -29.7276 H   0  0  0  0  0  0  0  0  0  0  0  0
   -1.1939   23.2806  -28.5080 H   0  0  0  0  0  0  0  0  0  0  0  0
   -1.3910   25.3450  -27.9480 C   0  0  0  0  0  0  0  0  0  0  0  0
   -1.3823   24.8905  -26.9463 H   0  0  0  0  0  0  0  0  0  0  0  0
   -0.5049   25.9858  -28.0676 H   0  0  0  0  0  0  0  0  0  0  0  0
   -2.3009   25.9514  -28.0676 H   0  0  0  0  0  0  0  0  0  0  0  0
   -3.4760   25.2840  -29.7840 N   0  0  0  0  0  0  0  0  0  0  0  0
   -4.6880   25.2740  -30.3980 C   0  0  0  0  0  0  0  0  0  0  0  0
   -5.3740   26.3300  -30.4190 O   0  0  0  0  0  0  0  0  0  0  0  0
   -5.1700   24.0900  -30.9950 C   0  0  0  0  0  0  0  0  0  0  0  0
   -6.5360   24.0560  -31.6480 C   0  0  0  0  0  0  0  0  0  0  0  0
   -7.2897   23.7853  -30.8940 H   0  0  0  0  0  0  0  0  0  0  0  0
   -6.7526   25.0504  -32.0653 H   0  0  0  0  0  0  0  0  0  0  0  0
   -6.5680   23.0750  -32.7320 N   0  0  0  0  0  0  0  0  0  0  0  0
   -5.6240   23.0020  -33.1790 H   0  0  0  0  0  0  0  0  0  0  0  0
   -6.8290   22.1410  -32.3400 H   0  0  0  0  0  0  0  0  0  0  0  0
   -7.2780   23.3520  -33.4470 H   0  0  0  0  0  0  0  0  0  0  0  0
   -3.3060   19.5310  -33.4960 C   0  0  0  0  0  0  0  0  0  0  0  0
   -2.4425   20.2071  -33.4108 H   0  0  0  0  0  0  0  0  0  0  0  0
  1  2  1  0
  2  3  2  0
  3  4  1  0
  3  5  1  0
  5  6  1  0
  5  7  2  0
  7  8  1  0
  7  9  1  0
  9 10  1  0
 10 11  2  0
 11 12  1  0
 12 13  1  0
 13 14  1  0
 13 15  2  0
 15 16  1  0
 16 17  1  0
 16 18  1  0
 16 19  1  0
 19 20  1  0
 19 21  1  0
 19 22  1  0
 15 23  1  0
 23 24  1  0
 24 25  2  0
 24 26  1  0
 26 27  1  0
 27 28  1  0
 27 29  1  0
 27 30  1  0
 30 31  1  0
 30 32  1  0
 30 33  1  0
  9 34  2  0
 34 35  1  0
 34  2  1  0
 26 12  2  0
M  CHG  2  23  -1  30   1
M  END
>  <UniqueID>  (1) 
1

>  <SMILES>  (1) 
CCc1cc(/N=N\c2cccc(Cl)c2Cl)c(C[NH3+])c(=O)[n-]1

>  <Energy>  (1) 
45.50736213635896

>  <Genealogy>  (1) 
CCc1cc(N=Nc2cccc(Cl)c2Cl)c(C[NH3+])c(=O)[n-]1 (protonated)
CCc1cc(/N=N\c2cccc(Cl)c2Cl)c(C[NH3+])c(=O)[n-]1 (cis-trans isomerization)
CCc1cc(/N=N\c2cccc(Cl)c2Cl)c(C[NH3+])c(=O)[n-]1 (3D coordinates assigned)
CCc1cc(/N=N\c2cccc(Cl)c2Cl)c(C[NH3+])c(=O)[n-]1 (optimized conformer: 45.50736213635896 kcal/mol)

>  <smiles>  (1) 
CCc1cc(N=Nc2cccc(Cl)c2Cl)c(CN)c(=O)[nH]1

>  <score_type>  (1) 
oracle

>  <origin>  (1) 
adg

>  <m_score__min__energy>  (1) 
-8.1400000000000006

>  <m_primary>  (1) 
energy

$$$$
1:0
     RDKit          3D

 29 30  0  0  0  0  0  0  0  0999 V2000
   -1.9840   25.1840  -28.1270 C   0  0  0  0  0  0  0  0  0  0  0  0
   -2.7410   25.2800  -29.3290 O   0  0  0  0  0  0  0  0  0  0  0  0
   -3.1520   24.1800  -30.0990 C   0  0  0  0  0  0  0  0  0  0  0  0
   -2.3250   23.0600  -30.3040 C   0  0  0  0  0  0  0  0  0  0  0  0
   -2.7720   21.9830  -31.0760 C   0  0  0  0  0  0  0  0  0  0  0  0
   -4.0570   22.0000  -31.6440 C   0  0  0  0  0  0  0  0  0  0  0  0
   -4.5290   20.9150  -32.4610 N   0  0  0  0  0  0  0  0  0  0  0  0
   -5.7750   20.2310  -32.2450 C   0  0  0  0  0  0  0  0  0  0  0  0
   -6.6500   20.7390  -31.4920 O   0  0  0  0  0  0  0  0  0  0  0  0
   -6.0530   18.9510  -32.9310 C   0  0  0  0  0  0  0  0  0  0  0  0
   -6.9950   18.0420  -32.4180 C   0  0  0  0  0  0  0  0  0  0  0  0
   -7.2280   16.8400  -33.0910 C   0  0  0  0  0  0  0  0  0  0  0  0
   -6.5260   16.5510  -34.2620 C   0  0  0  0  0  0  0  0  0  0  0  0
   -5.5950   17.4730  -34.7440 C   0  0  0  0  0  0  0  0  0  0  0  0
   -5.3820   18.6380  -34.0750 N   0  0  0  0  0  0  0  0  0  0  0  0
   -4.8700   23.1260  -31.4580 C   0  0  0  0  0  0  0  0  0  0  0  0
   -4.4270   24.2050  -30.6860 C   0  0  0  0  0  0  0  0  0  0  0  0
   -5.4840   25.5920  -30.4620 Cl  0  0  0  0  0  0  0  0  0  0  0  0
   -2.6577   25.2694  -27.2616 H   0  0  0  0  0  0  0  0  0  0  0  0
   -1.4677   24.2132  -28.0954 H   0  0  0  0  0  0  0  0  0  0  0  0
   -1.2417   25.9952  -28.0954 H   0  0  0  0  0  0  0  0  0  0  0  0
   -1.3214   23.0315  -29.8545 H   0  0  0  0  0  0  0  0  0  0  0  0
   -2.1135   21.1172  -31.2396 H   0  0  0  0  0  0  0  0  0  0  0  0
   -3.9750   20.6740  -33.3150 H   0  0  0  0  0  0  0  0  0  0  0  0
   -7.5443   18.2754  -31.4940 H   0  0  0  0  0  0  0  0  0  0  0  0
   -7.9636   16.1225  -32.6985 H   0  0  0  0  0  0  0  0  0  0  0  0
   -6.7041   15.6077  -34.7990 H   0  0  0  0  0  0  0  0  0  0  0  0
   -5.0336   17.2572  -35.6650 H   0  0  0  0  0  0  0  0  0  0  0  0
   -5.8660   23.1617  -31.9235 H   0  0  0  0  0  0  0  0  0  0  0  0
  1  2  1  0
  2  3  1  0
  3  4  2  0
  4  5  1  0
  5  6  2  0
  6  7  1  0
  7  8  1  0
  8  9  2  0
  8 10  1  0
 10 11  2  0
 11 12  1  0
 12 13  2  0
 13 14  1  0
 14 15  2  0
  6 16  1  0
 16 17  2  0
 17 18  1  0
 17  3  1  0
 15 10  1  0
  1 19  1  0
  1 20  1  0
  1 21  1  0
  4 22  1  0
  5 23  1  0
  7 24  1  0
 11 25  1  0
 12 26  1  0
 13 27  1  0
 14 28  1  0
 16 29  1  0
M  END
>  <UniqueID>  (2) 
2

>  <SMILES>  (2) 
COc1ccc(NC(=O)c2ccccn2)cc1Cl

>  <Energy>  (2) 
33.87595614201902

>  <Genealogy>  (2) 
COc1ccc(NC(=O)c2ccccn2)cc1Cl (3D coordinates assigned)
COc1ccc(NC(=O)c2ccccn2)cc1Cl (optimized conformer: 33.87595614201902 kcal/mol)

>  <smiles>  (2) 
COc1ccc(NC(=O)c2ccccn2)cc1Cl

>  <score_type>  (2) 
oracle

>  <origin>  (2) 
adg

>  <m_score__min__energy>  (2) 
-6.8899999999999997

>  <m_primary>  (2) 
energy

$$$$
2:0
     RDKit          3D

 41 43  0  0  0  0  0  0  0  0999 V2000
   -0.7064   17.4045  -27.3052 H   0  0  0  0  0  0  0  0  0  0  0  0
   -0.8780   18.4910  -27.3000 C   0  0  0  0  0  0  0  0  0  0  0  0
   -2.0520   19.0110  -26.7480 C   0  0  0  0  0  0  0  0  0  0  0  0
   -2.7973   18.3344  -26.3045 H   0  0  0  0  0  0  0  0  0  0  0  0
   -2.2800   20.3900  -26.7590 C   0  0  0  0  0  0  0  0  0  0  0  0
   -3.2051   20.7938  -26.3218 H   0  0  0  0  0  0  0  0  0  0  0  0
   -1.3370   21.2640  -27.3240 C   0  0  0  0  0  0  0  0  0  0  0  0
   -1.5540   22.7560  -27.2490 C   0  0  0  0  0  0  0  0  0  0  0  0
   -0.6580   23.2137  -26.8045 H   0  0  0  0  0  0  0  0  0  0  0  0
   -2.4574   22.9156  -26.6420 H   0  0  0  0  0  0  0  0  0  0  0  0
   -1.8060   23.4080  -28.5850 C   0  0  0  0  0  0  0  0  0  0  0  0
   -1.1950   24.4640  -28.9000 O   0  0  0  0  0  0  0  0  0  0  0  0
   -2.9500   23.0170  -29.3500 N   0  0  0  0  0  0  0  0  0  0  0  0
   -3.6420   23.7530  -30.1730 C   0  0  0  0  0  0  0  0  0  0  0  0
   -4.7920   23.4510  -30.9040 C   0  0  0  0  0  0  0  0  0  0  0  0
   -5.1870   22.3230  -31.4270 N   0  0  0  0  0  0  0  0  0  0  0  0
   -6.5160   21.8210  -31.6630 C   0  0  0  0  0  0  0  0  0  0  0  0
   -7.6050   22.2860  -30.8990 C   0  0  0  0  0  0  0  0  0  0  0  0
   -7.4479   23.0759  -30.1498 H   0  0  0  0  0  0  0  0  0  0  0  0
   -8.8800   21.7530  -31.0850 C   0  0  0  0  0  0  0  0  0  0  0  0
   -9.7316   22.1555  -30.5168 H   0  0  0  0  0  0  0  0  0  0  0  0
   -9.0770   20.7130  -31.9880 C   0  0  0  0  0  0  0  0  0  0  0  0
  -10.0893   20.3176  -32.1582 H   0  0  0  0  0  0  0  0  0  0  0  0
   -7.9920   20.1710  -32.6780 C   0  0  0  0  0  0  0  0  0  0  0  0
   -8.1499   19.3232  -33.3609 H   0  0  0  0  0  0  0  0  0  0  0  0
   -6.6940   20.6990  -32.5090 C   0  0  0  0  0  0  0  0  0  0  0  0
   -5.4660   20.0170  -33.0970 C   0  0  0  0  0  0  0  0  0  0  0  0
   -4.9326   19.5147  -32.2766 H   0  0  0  0  0  0  0  0  0  0  0  0
   -4.8842   20.8132  -33.5843 H   0  0  0  0  0  0  0  0  0  0  0  0
   -5.7440   18.9770  -34.1840 C   0  0  0  0  0  0  0  0  0  0  0  0
   -6.0009   18.0159  -33.7147 H   0  0  0  0  0  0  0  0  0  0  0  0
   -6.5832   19.3156  -34.8094 H   0  0  0  0  0  0  0  0  0  0  0  0
   -4.8478   18.8517  -34.8094 H   0  0  0  0  0  0  0  0  0  0  0  0
   -5.3460   24.6210  -31.2740 N   0  0  0  0  0  0  0  0  0  0  0  0
   -4.5460   25.5540  -30.8370 O   0  0  0  0  0  0  0  0  0  0  0  0
   -3.5080   25.0860  -30.2090 N   0  0  0  0  0  0  0  0  0  0  0  0
   -2.7890   25.6660  -29.7210 H   0  0  0  0  0  0  0  0  0  0  0  0
   -0.1410   20.7330  -27.8430 C   0  0  0  0  0  0  0  0  0  0  0  0
    0.6263   21.4084  -28.2492 H   0  0  0  0  0  0  0  0  0  0  0  0
    0.0770   19.3520  -27.8450 C   0  0  0  0  0  0  0  0  0  0  0  0
    1.0024   18.9429  -28.2766 H   0  0  0  0  0  0  0  0  0  0  0  0
  1  2  1  0
  2  3  2  0
  3  4  1  0
  3  5  1  0
  5  6  1  0
  5  7  2  0
  7  8  1  0
  8  9  1  0
  8 10  1  0
  8 11  1  0
 11 12  2  0
 11 13  1  0
 13 14  2  0
 14 15  1  0
 15 16  2  0
 16 17  1  0
 17 18  2  0
 18 19  1  0
 18 20  1  0
 20 21  1  0
 20 22  2  0
 22 23  1  0
 22 24  1  0
 24 25  1  0
 24 26  2  0
 26 27  1  0
 27 28  1  0
 27 29  1  0
 27 30  1  0
 30 31  1  0
 30 32  1  0
 30 33  1  0
 15 34  1  0
 34 35  1  0
 35 36  1  0
 36 37  1  0
  7 38  1  0
 38 39  1  0
 38 40  2  0
 40 41  1  0
 40  2  1  0
 36 14  1  0
 26 17  1  0
M  CHG  1  34  -1
M  END
>  <UniqueID>  (3) 
3

>  <SMILES>  (3) 
CCc1ccccc1/N=c1/[n-]o[nH]/c1=N/C(=O)Cc1ccccc1

>  <Energy>  (3) 
111.47141419212245

>  <Genealogy>  (3) 
CCc1ccccc1N=c1[n-]o[nH]c1=NC(=O)Cc1ccccc1 (protonated)
CCc1ccccc1/N=c1/[n-]o[nH]/c1=N/C(=O)Cc1ccccc1 (cis-trans isomerization)
CCc1ccccc1/N=c1/[n-]o[nH]/c1=N/C(=O)Cc1ccccc1 (3D coordinates assigned)
CCc1ccccc1/N=c1/[n-]o[nH]/c1=N/C(=O)Cc1ccccc1 (optimized conformer: 111.47141419212245 kcal/mol)

>  <smiles>  (3) 
CCc1ccccc1N=c1[nH]o[nH]c1=NC(=O)Cc1ccccc1

>  <score_type>  (3) 
oracle

>  <origin>  (3) 
adg

>  <m_score__min__energy>  (3) 
-10.17

>  <m_primary>  (3) 
energy

$$$$
3:0
     RDKit          3D

 52 54  0  0  0  0  0  0  0  0999 V2000
   -2.9350   25.3020  -30.5620 H   0  0  0  0  0  0  0  0  0  0  0  0
   -3.8850   25.6670  -30.7950 N   0  0  0  0  0  0  0  0  0  0  0  0
   -5.0080   24.7930  -30.8740 C   0  0  0  0  0  0  0  0  0  0  0  0
   -6.1610   25.2390  -30.6340 O   0  0  0  0  0  0  0  0  0  0  0  0
   -4.8260   23.3570  -31.1490 C   0  0  0  0  0  0  0  0  0  0  0  0
   -5.8420   22.5130  -31.5540 C   0  0  0  0  0  0  0  0  0  0  0  0
   -6.8426   22.8271  -31.8858 H   0  0  0  0  0  0  0  0  0  0  0  0
   -5.4030   21.2390  -31.4750 N   0  0  0  0  0  0  0  0  0  0  0  0
   -6.1770   20.0250  -31.7640 C   0  0  1  0  0  0  0  0  0  0  0  0
   -5.8317   19.2270  -31.0903 H   0  0  0  0  0  0  0  0  0  0  0  0
   -7.6840   20.2740  -31.4920 C   0  0  0  0  0  0  0  0  0  0  0  0
   -7.8875   20.0555  -30.4333 H   0  0  0  0  0  0  0  0  0  0  0  0
   -7.8900   21.3237  -31.7484 H   0  0  0  0  0  0  0  0  0  0  0  0
   -8.6160   19.4050  -32.3570 C   0  0  0  0  0  0  0  0  0  0  0  0
   -9.5592   19.2441  -31.8144 H   0  0  0  0  0  0  0  0  0  0  0  0
   -8.7933   19.9313  -33.3065 H   0  0  0  0  0  0  0  0  0  0  0  0
   -7.9870   18.0450  -32.6740 C   0  0  0  0  0  0  0  0  0  0  0  0
   -7.7721   17.5234  -31.7297 H   0  0  0  0  0  0  0  0  0  0  0  0
   -8.6989   17.4741  -33.2882 H   0  0  0  0  0  0  0  0  0  0  0  0
   -6.6750   18.1920  -33.4730 C   0  0  0  0  0  0  0  0  0  0  0  0
   -6.0060   17.3630  -33.1990 H   0  0  0  0  0  0  0  0  0  0  0  0
   -6.9430   18.1774  -34.5397 H   0  0  0  0  0  0  0  0  0  0  0  0
   -5.9350   19.5270  -33.2080 C   0  0  2  0  0  0  0  0  0  0  0  0
   -6.3377   20.2909  -33.8895 H   0  0  0  0  0  0  0  0  0  0  0  0
   -4.4950   19.3640  -33.4770 C   0  0  0  0  0  0  0  0  0  0  0  0
   -3.3650   19.2340  -33.6910 N   0  0  0  0  0  0  0  0  0  0  0  0
   -4.1540   21.2180  -31.0400 N   0  0  0  0  0  0  0  0  0  0  0  0
   -3.7660   22.4930  -30.8530 C   0  0  0  0  0  0  0  0  0  0  0  0
   -2.5510   22.7900  -30.4880 N   0  0  0  0  0  0  0  0  0  0  0  0
   -2.1350   23.4860  -29.3060 C   0  0  0  0  0  0  0  0  0  0  0  0
   -3.0250   23.6190  -28.2400 C   0  0  0  0  0  0  0  0  0  0  0  0
   -4.0449   23.2162  -28.3272 H   0  0  0  0  0  0  0  0  0  0  0  0
   -2.6310   24.2600  -27.0620 C   0  0  0  0  0  0  0  0  0  0  0  0
   -3.3523   24.3745  -26.2394 H   0  0  0  0  0  0  0  0  0  0  0  0
   -1.3160   24.7640  -26.9130 C   0  0  0  0  0  0  0  0  0  0  0  0
   -0.8390   25.4880  -25.6370 C   0  0  0  0  0  0  0  0  0  0  0  0
   -0.4750   24.5170  -24.4890 C   0  0  0  0  0  0  0  0  0  0  0  0
   -0.6589   25.0075  -23.5217 H   0  0  0  0  0  0  0  0  0  0  0  0
   -1.0946   23.6113  -24.5645 H   0  0  0  0  0  0  0  0  0  0  0  0
    0.5873   24.2418  -24.5645 H   0  0  0  0  0  0  0  0  0  0  0  0
    0.4180   26.3250  -25.9600 C   0  0  0  0  0  0  0  0  0  0  0  0
    0.8970   26.6439  -25.0225 H   0  0  0  0  0  0  0  0  0  0  0  0
    1.1240   25.7160  -26.5438 H   0  0  0  0  0  0  0  0  0  0  0  0
    0.1284   27.2112  -26.5438 H   0  0  0  0  0  0  0  0  0  0  0  0
   -1.9570   26.4210  -25.1250 C   0  0  0  0  0  0  0  0  0  0  0  0
   -1.9585   26.4222  -24.0250 H   0  0  0  0  0  0  0  0  0  0  0  0
   -1.7792   27.4424  -25.4926 H   0  0  0  0  0  0  0  0  0  0  0  0
   -2.9301   26.0633  -25.4926 H   0  0  0  0  0  0  0  0  0  0  0  0
   -0.4160   24.5770  -27.9860 C   0  0  0  0  0  0  0  0  0  0  0  0
    0.6174   24.9427  -27.8948 H   0  0  0  0  0  0  0  0  0  0  0  0
   -0.8160   23.9360  -29.1600 C   0  0  0  0  0  0  0  0  0  0  0  0
   -0.0923   23.7835  -29.9743 H   0  0  0  0  0  0  0  0  0  0  0  0
  1  2  1  0
  2  3  1  0
  3  4  2  0
  3  5  1  0
  5  6  2  0
  6  7  1  0
  6  8  1  0
  8  9  1  0
  9 10  1  1
  9 11  1  0
 11 12  1  0
 11 13  1  0
 11 14  1  0
 14 15  1  0
 14 16  1  0
 14 17  1  0
 17 18  1  0
 17 19  1  0
 17 20  1  0
 20 21  1  0
 20 22  1  0
 20 23  1  0
 23 24  1  6
 23 25  1  0
 25 26  3  0
  8 27  1  0
 27 28  1  0
 28 29  2  0
 29 30  1  0
 30 31  2  0
 31 32  1  0
 31 33  1  0
 33 34  1  0
 33 35  2  0
 35 36  1  0
 36 37  1  0
 37 38  1  0
 37 39  1  0
 37 40  1  0
 36 41  1  0
 41 42  1  0
 41 43  1  0
 41 44  1  0
 36 45  1  0
 45 46  1  0
 45 47  1  0
 45 48  1  0
 35 49  1  0
 49 50  1  0
 49 51  2  0
 51 52  1  0
 28  5  1  0
 51 30  1  0
 23  9  1  0
M  CHG  2   2  -1  27  -1
M  END
>  <UniqueID>  (4) 
4

>  <SMILES>  (4) 
CC(C)(C)c1ccc(/N=c2/[n-]n([C@H]3CCCC[C@@H]3C#N)cc2C([NH-])=O)cc1

>  <Energy>  (4) 
100.0813390831215

>  <Genealogy>  (4) 
CC(C)(C)c1ccc(N=c2[n-]n(C3CCCCC3C#N)cc2C([NH-])=O)cc1 (protonated)
CC(C)(C)c1ccc(N=c2[n-]n([C@H]3CCCC[C@@H]3C#N)cc2C([NH-])=O)cc1 (chirality)
CC(C)(C)c1ccc(/N=c2/[n-]n([C@H]3CCCC[C@@H]3C#N)cc2C([NH-])=O)cc1 (cis-trans isomerization)
CC(C)(C)c1ccc(/N=c2/[n-]n([C@H]3CCCC[C@@H]3C#N)cc2C([NH-])=O)cc1 (3D coordinates assigned)
CC(C)(C)c1ccc(/N=c2/[n-]n([C@H]3CCCC[C@@H]3C#N)cc2C([NH-])=O)cc1 (nonaromatic ring conformer: 100.0813390831215 kcal/mol)

>  <smiles>  (4) 
CC(C)(C)c1ccc(N=c2[nH]n(C3CCCCC3C#N)cc2C(N)=O)cc1

>  <score_type>  (4) 
oracle

>  <origin>  (4) 
adg

>  <m_score__min__energy>  (4) 
-11.67

>  <m_primary>  (4) 
energy

$$$$
4:0
     RDKit          3D

 54 57  0  0  0  0  0  0  0  0999 V2000
   -5.6500   18.1140  -34.8850 C   0  0  0  0  0  0  0  0  0  0  0  0
   -5.8180   18.1770  -33.4720 O   0  0  0  0  0  0  0  0  0  0  0  0
   -6.8840   18.8270  -32.8320 C   0  0  0  0  0  0  0  0  0  0  0  0
   -7.9880   18.1290  -32.3060 C   0  0  0  0  0  0  0  0  0  0  0  0
   -9.0210   18.8250  -31.6720 C   0  0  0  0  0  0  0  0  0  0  0  0
   -8.9680   20.2160  -31.5600 C   0  0  0  0  0  0  0  0  0  0  0  0
   -7.8790   20.9250  -32.0900 C   0  0  0  0  0  0  0  0  0  0  0  0
   -7.8020   22.4220  -31.9310 C   0  0  0  0  0  0  0  0  0  0  0  0
   -6.6790   22.9630  -32.7090 N   0  0  0  0  0  0  0  0  0  0  0  0
   -5.6860   23.5200  -31.8250 C   0  0  0  0  0  0  0  0  0  0  0  0
   -4.4720   22.8480  -31.6020 C   0  0  0  0  0  0  0  0  0  0  0  0
   -3.5030   23.3990  -30.7580 C   0  0  0  0  0  0  0  0  0  0  0  0
   -3.7310   24.6240  -30.1190 C   0  0  0  0  0  0  0  0  0  0  0  0
   -2.7020   25.1590  -29.2740 N   0  0  0  0  0  0  0  0  0  0  0  0
   -1.4700   24.5210  -28.9150 C   0  0  0  0  0  0  0  0  0  0  0  0
   -0.4820   24.5640  -29.6940 O   0  0  0  0  0  0  0  0  0  0  0  0
   -1.3500   23.8370  -27.6090 C   0  0  0  0  0  0  0  0  0  0  0  0
   -0.9990   24.3780  -26.3770 C   0  0  0  0  0  0  0  0  0  0  0  0
   -0.8140   25.8000  -26.0270 C   0  0  0  0  0  0  0  0  0  0  0  0
   -0.9690   26.2160  -24.6950 C   0  0  0  0  0  0  0  0  0  0  0  0
   -0.8210   27.5650  -24.3560 C   0  0  0  0  0  0  0  0  0  0  0  0
   -0.5350   28.5100  -25.3460 C   0  0  0  0  0  0  0  0  0  0  0  0
   -0.3530   30.2020  -24.9190 Cl  0  0  0  0  0  0  0  0  0  0  0  0
   -0.4030   28.1060  -26.6780 C   0  0  0  0  0  0  0  0  0  0  0  0
   -0.5490   26.7590  -27.0200 C   0  0  0  0  0  0  0  0  0  0  0  0
   -0.8740   23.3860  -25.4740 N   0  0  0  0  0  0  0  0  0  0  0  0
   -1.1390   22.2330  -26.0690 N   0  0  0  0  0  0  0  0  0  0  0  0
   -1.4350   22.4750  -27.3600 C   0  0  0  0  0  0  0  0  0  0  0  0
   -1.7420   21.3920  -28.3450 C   0  0  0  0  0  0  0  0  0  0  0  0
   -4.9270   25.3190  -30.3720 C   0  0  0  0  0  0  0  0  0  0  0  0
   -5.8980   24.7680  -31.2140 C   0  0  0  0  0  0  0  0  0  0  0  0
   -6.8360   20.2230  -32.7140 C   0  0  0  0  0  0  0  0  0  0  0  0
   -4.6434   17.7365  -35.1181 H   0  0  0  0  0  0  0  0  0  0  0  0
   -6.4038   17.4374  -35.3141 H   0  0  0  0  0  0  0  0  0  0  0  0
   -5.7731   19.1194  -35.3141 H   0  0  0  0  0  0  0  0  0  0  0  0
   -8.0376   17.0337  -32.3942 H   0  0  0  0  0  0  0  0  0  0  0  0
   -9.8795   18.2747  -31.2595 H   0  0  0  0  0  0  0  0  0  0  0  0
   -9.7818   20.7572  -31.0552 H   0  0  0  0  0  0  0  0  0  0  0  0
   -8.7400   22.8730  -32.2870 H   0  0  0  0  0  0  0  0  0  0  0  0
   -7.6473   22.6603  -30.8683 H   0  0  0  0  0  0  0  0  0  0  0  0
   -7.0270   23.7030  -33.3630 H   0  0  0  0  0  0  0  0  0  0  0  0
   -6.2480   22.2020  -33.2840 H   0  0  0  0  0  0  0  0  0  0  0  0
   -4.2830   21.8827  -32.0944 H   0  0  0  0  0  0  0  0  0  0  0  0
   -2.5545   22.8663  -30.5947 H   0  0  0  0  0  0  0  0  0  0  0  0
   -1.2078   25.4781  -23.9149 H   0  0  0  0  0  0  0  0  0  0  0  0
   -0.9298   27.8830  -23.3086 H   0  0  0  0  0  0  0  0  0  0  0  0
   -0.1838   28.8499  -27.4582 H   0  0  0  0  0  0  0  0  0  0  0  0
   -0.4561   26.4477  -28.0709 H   0  0  0  0  0  0  0  0  0  0  0  0
   -2.0035   20.4695  -27.8060 H   0  0  0  0  0  0  0  0  0  0  0  0
   -2.5882   21.7000  -28.9767 H   0  0  0  0  0  0  0  0  0  0  0  0
   -0.8600   21.2101  -28.9767 H   0  0  0  0  0  0  0  0  0  0  0  0
   -5.0995   26.3002  -29.9056 H   0  0  0  0  0  0  0  0  0  0  0  0
   -6.8342   25.3150  -31.3995 H   0  0  0  0  0  0  0  0  0  0  0  0
   -5.9722   20.7739  -33.1145 H   0  0  0  0  0  0  0  0  0  0  0  0
  1  2  1  0
  2  3  1  0
  3  4  2  0
  4  5  1  0
  5  6  2  0
  6  7  1  0
  7  8  1  0
  8  9  1  0
  9 10  1  0
 10 11  2  0
 11 12  1  0
 12 13  2  0
 13 14  1  0
 14 15  1  0
 15 16  2  0
 15 17  1  0
 17 18  1  0
 18 19  1  0
 19 20  2  0
 20 21  1  0
 21 22  2  0
 22 23  1  0
 22 24  1  0
 24 25  2  0
 18 26  2  0
 26 27  1  0
 27 28  1  0
 28 29  1  0
 13 30  1  0
 30 31  2  0
  7 32  2  0
 32  3  1  0
 31 10  1  0
 28 17  2  0
 25 19  1  0
  1 33  1  0
  1 34  1  0
  1 35  1  0
  4 36  1  0
  5 37  1  0
  6 38  1  0
  8 39  1  0
  8 40  1  0
  9 41  1  0
  9 42  1  0
 11 43  1  0
 12 44  1  0
 20 45  1  0
 21 46  1  0
 24 47  1  0
 25 48  1  0
 29 49  1  0
 29 50  1  0
 29 51  1  0
 30 52  1  0
 31 53  1  0
 32 54  1  0
M  CHG  3   9   1  14  -1  27  -1
M  END
>  <UniqueID>  (5) 
5

>  <SMILES>  (5) 
COc1cccc(C[NH2+]c2ccc([N-]C(=O)c3c(-c4ccc(Cl)cc4)n[n-]c3C)cc2)c1

>  <Energy>  (5) 
96.3163130790934

>  <Genealogy>  (5) 
COc1cccc(C[NH2+]c2ccc([N-]C(=O)c3c(-c4ccc(Cl)cc4)n[n-]c3C)cc2)c1 (protonated)
COc1cccc(C[NH2+]c2ccc([N-]C(=O)c3c(-c4ccc(Cl)cc4)n[n-]c3C)cc2)c1 (3D coordinates assigned)
COc1cccc(C[NH2+]c2ccc([N-]C(=O)c3c(-c4ccc(Cl)cc4)n[n-]c3C)cc2)c1 (optimized conformer: 96.3163130790934 kcal/mol)

>  <smiles>  (5) 
COc1cccc(CNc2ccc(NC(=O)c3c(-c4ccc(Cl)cc4)n[nH]c3C)cc2)c1

>  <score_type>  (5) 
oracle

>  <origin>  (5) 
adg

>  <m_score__min__energy>  (5) 
-11.35

>  <m_primary>  (5) 
energy

$$$$
5:0
     RDKit          3D

 49 51  0  0  1  0  0  0  0  0999 V2000
   -6.5470   16.5220  -33.6510 C   0  0  0  0  0  0  0  0  0  0  0  0
   -6.5360   17.3330  -32.4040 C   0  0  0  0  0  0  0  0  0  0  0  0
   -6.7730   18.7320  -32.5490 N   0  0  0  0  0  0  0  0  0  0  0  0
   -6.1810   19.3650  -33.6680 C   0  0  0  0  0  0  0  0  0  0  0  0
   -4.9300   20.1360  -33.4230 C   0  0  0  0  0  0  0  0  0  0  0  0
   -8.1790   18.9490  -32.4090 C   0  0  0  0  0  0  0  0  0  0  0  0
   -8.6370   19.6980  -31.2040 C   0  0  0  0  0  0  0  0  0  0  0  0
   -8.4600   21.1160  -31.5160 N   0  0  0  0  0  0  0  0  0  0  0  0
   -7.2460   21.7200  -31.6200 C   0  0  0  0  0  0  0  0  0  0  0  0
   -7.4520   23.0450  -31.9120 C   0  0  0  0  0  0  0  0  0  0  0  0
   -6.5680   24.1100  -32.1470 N   0  0  0  0  0  0  0  0  0  0  0  0
   -5.6050   24.3590  -31.3540 C   0  0  0  0  0  0  0  0  0  0  0  0
   -4.9100   23.3650  -30.6590 C   0  0  0  0  0  0  0  0  0  0  0  0
   -3.9430   23.9490  -29.8880 C   0  0  0  0  0  0  0  0  0  0  0  0
   -2.9710   23.3630  -28.9770 C   0  0  0  0  0  0  0  0  0  0  0  0
   -3.2460   22.0990  -28.4660 C   0  0  0  0  0  0  0  0  0  0  0  0
   -2.3680   21.4960  -27.5910 C   0  0  0  0  0  0  0  0  0  0  0  0
   -1.1860   22.1160  -27.1860 C   0  0  0  0  0  0  0  0  0  0  0  0
   -0.9090   23.3750  -27.6950 C   0  0  0  0  0  0  0  0  0  0  0  0
   -1.8170   23.9590  -28.5790 C   0  0  0  0  0  0  0  0  0  0  0  0
   -1.5050   25.2180  -29.0650 O   0  0  0  0  0  0  0  0  0  0  0  0
   -4.0580   25.2760  -30.1200 N   0  0  0  0  0  0  0  0  0  0  0  0
   -5.0300   25.5120  -30.9780 N   0  0  0  0  0  0  0  0  0  0  0  0
   -8.8450   23.2090  -31.9770 C   0  0  0  0  0  0  0  0  0  0  0  0
   -9.3960   22.0240  -31.7330 N   0  0  0  0  0  0  0  0  0  0  0  0
   -6.5615   15.4528  -33.3929 H   0  0  0  0  0  0  0  0  0  0  0  0
   -7.4419   16.7689  -34.2411 H   0  0  0  0  0  0  0  0  0  0  0  0
   -5.6458   16.7446  -34.2411 H   0  0  0  0  0  0  0  0  0  0  0  0
   -7.3129   16.9304  -31.7374 H   0  0  0  0  0  0  0  0  0  0  0  0
   -5.5104   17.2518  -32.0147 H   0  0  0  0  0  0  0  0  0  0  0  0
   -5.9506   18.5844  -34.4080 H   0  0  0  0  0  0  0  0  0  0  0  0
   -6.9180   20.1120  -33.9979 H   0  0  0  0  0  0  0  0  0  0  0  0
   -4.7673   20.2363  -32.3397 H   0  0  0  0  0  0  0  0  0  0  0  0
   -4.0783   19.6059  -33.8742 H   0  0  0  0  0  0  0  0  0  0  0  0
   -5.0207   21.1351  -33.8742 H   0  0  0  0  0  0  0  0  0  0  0  0
   -8.5172   19.5078  -33.2941 H   0  0  0  0  0  0  0  0  0  0  0  0
   -8.6111   17.9435  -32.2985 H   0  0  0  0  0  0  0  0  0  0  0  0
   -9.6959   19.4814  -30.9996 H   0  0  0  0  0  0  0  0  0  0  0  0
   -8.0652   19.4089  -30.3099 H   0  0  0  0  0  0  0  0  0  0  0  0
   -6.2688   21.2314  -31.4923 H   0  0  0  0  0  0  0  0  0  0  0  0
   -5.1091   22.2850  -30.7221 H   0  0  0  0  0  0  0  0  0  0  0  0
   -4.1686   21.5780  -28.7615 H   0  0  0  0  0  0  0  0  0  0  0  0
   -2.6067   20.4958  -27.2004 H   0  0  0  0  0  0  0  0  0  0  0  0
   -0.4964   21.6220  -26.4857 H   0  0  0  0  0  0  0  0  0  0  0  0
    0.0110   23.9048  -27.4070 H   0  0  0  0  0  0  0  0  0  0  0  0
   -0.7800   25.3290  -29.7590 H   0  0  0  0  0  0  0  0  0  0  0  0
   -3.4920   26.0680  -29.7140 H   0  0  0  0  0  0  0  0  0  0  0  0
   -5.3270   26.4270  -31.3340 H   0  0  0  0  0  0  0  0  0  0  0  0
   -9.3814   24.1453  -32.1904 H   0  0  0  0  0  0  0  0  0  0  0  0
  1  2  1  0
  2  3  1  0
  3  4  1  0
  4  5  1  0
  3  6  1  0
  6  7  1  0
  7  8  1  0
  8  9  1  0
  9 10  2  0
 10 11  1  0
 11 12  2  0
 12 13  1  0
 13 14  2  0
 14 15  1  0
 15 16  2  0
 16 17  1  0
 17 18  2  0
 18 19  1  0
 19 20  2  0
 20 21  1  0
 14 22  1  0
 22 23  1  0
 10 24  1  0
 24 25  2  0
 25  8  1  0
 23 12  1  0
 20 15  1  0
  1 26  1  0
  1 27  1  0
  1 28  1  0
  2 29  1  0
  2 30  1  0
  4 31  1  0
  4 32  1  0
  5 33  1  0
  5 34  1  0
  5 35  1  0
  6 36  1  0
  6 37  1  0
  7 38  1  0
  7 39  1  0
  9 40  1  0
 13 41  1  0
 16 42  1  0
 17 43  1  0
 18 44  1  0
 19 45  1  0
 21 46  1  0
 22 47  1  0
 23 48  1  0
 24 49  1  0
M  END
>  <smiles>  (6) 
CCN(CC)CCn1cc(N=c2cc(-c3ccccc3O)[nH][nH]2)cn1

>  <score_type>  (6) 
oracle

>  <origin>  (6) 
adg

>  <m_score__min__energy>  (6) 
-9.0700000000000003

>  <m_primary>  (6) 
energy

$$$$
6:0
     RDKit          3D

 30 32  0  0  0  0  0  0  0  0999 V2000
   -1.1960   20.0110  -30.0360 F   0  0  0  0  0  0  0  0  0  0  0  0
   -1.4350   21.3370  -29.7330 C   0  0  0  0  0  0  0  0  0  0  0  0
   -0.3120   22.0810  -30.0430 F   0  0  0  0  0  0  0  0  0  0  0  0
   -2.6200   21.8250  -30.5130 C   0  0  0  0  0  0  0  0  0  0  0  0
   -3.2950   21.0790  -31.4240 N   0  0  0  0  0  0  0  0  0  0  0  0
   -4.3020   21.7930  -31.9130 N   0  0  0  0  0  0  0  0  0  0  0  0
   -5.1970   21.3500  -32.9780 C   0  0  0  0  0  0  0  0  0  0  0  0
   -6.5360   20.9890  -32.4010 C   0  0  0  0  0  0  0  0  0  0  0  0
   -7.3920   21.9890  -31.9120 C   0  0  0  0  0  0  0  0  0  0  0  0
   -8.6550   21.6540  -31.4150 C   0  0  0  0  0  0  0  0  0  0  0  0
   -9.0760   20.3210  -31.4120 C   0  0  0  0  0  0  0  0  0  0  0  0
   -8.2360   19.3220  -31.9120 C   0  0  0  0  0  0  0  0  0  0  0  0
   -6.9710   19.6530  -32.4100 C   0  0  0  0  0  0  0  0  0  0  0  0
   -4.2700   23.0010  -31.3250 C   0  0  0  0  0  0  0  0  0  0  0  0
   -5.1090   24.0410  -31.5510 N   0  0  0  0  0  0  0  0  0  0  0  0
   -4.9110   25.1940  -30.8480 C   0  0  0  0  0  0  0  0  0  0  0  0
   -3.8890   25.2870  -29.9390 N   0  0  0  0  0  0  0  0  0  0  0  0
   -3.0370   24.2460  -29.7070 C   0  0  0  0  0  0  0  0  0  0  0  0
   -1.8370   24.4140  -28.6080 S   0  0  0  0  0  0  0  0  0  0  0  0
   -3.2400   23.0690  -30.4310 C   0  0  0  0  0  0  0  0  0  0  0  0
   -1.6528   21.4446  -28.6602 H   0  0  0  0  0  0  0  0  0  0  0  0
   -3.0690   20.1010  -31.7150 H   0  0  0  0  0  0  0  0  0  0  0  0
   -5.3219   22.1608  -33.7108 H   0  0  0  0  0  0  0  0  0  0  0  0
   -4.7646   20.4672  -33.4716 H   0  0  0  0  0  0  0  0  0  0  0  0
   -7.0675   23.0400  -31.9200 H   0  0  0  0  0  0  0  0  0  0  0  0
   -9.3184   22.4404  -31.0258 H   0  0  0  0  0  0  0  0  0  0  0  0
  -10.0682   20.0583  -31.0162 H   0  0  0  0  0  0  0  0  0  0  0  0
   -8.5699   18.2739  -31.9140 H   0  0  0  0  0  0  0  0  0  0  0  0
   -6.3154   18.8653  -32.8096 H   0  0  0  0  0  0  0  0  0  0  0  0
   -5.5761   26.0547  -31.0119 H   0  0  0  0  0  0  0  0  0  0  0  0
  1  2  1  0
  2  3  1  0
  2  4  1  0
  4  5  2  0
  5  6  1  0
  6  7  1  0
  7  8  1  0
  8  9  2  0
  9 10  1  0
 10 11  2  0
 11 12  1  0
 12 13  2  0
  6 14  1  0
 14 15  1  0
 15 16  2  0
 16 17  1  0
 17 18  1  0
 18 19  2  0
 18 20  1  0
 20  4  1  0
 13  8  1  0
 20 14  2  0
  2 21  1  0
  5 22  1  0
  7 23  1  0
  7 24  1  0
  9 25  1  0
 10 26  1  0
 11 27  1  0
 12 28  1  0
 13 29  1  0
 16 30  1  0
M  CHG  2   5   1  17  -1
M  END
>  <UniqueID>  (7) 
6

>  <SMILES>  (7) 
FC(F)c1[nH+]n(Cc2ccccc2)c2nc[n-]c(=S)c12

>  <Energy>  (7) 
74.5775036992454

>  <Genealogy>  (7) 
FC(F)c1[nH+]n(Cc2ccccc2)c2nc[n-]c(=S)c12 (protonated)
FC(F)c1[nH+]n(Cc2ccccc2)c2nc[n-]c(=S)c12 (3D coordinates assigned)
FC(F)c1[nH+]n(Cc2ccccc2)c2nc[n-]c(=S)c12 (optimized conformer: 74.5775036992454 kcal/mol)

>  <smiles>  (7) 
FC(F)c1nn(Cc2ccccc2)c2nc[nH]c(=S)c12

>  <score_type>  (7) 
oracle

>  <origin>  (7) 
adg

>  <m_score__min__energy>  (7) 
-7.1799999999999997

>  <m_primary>  (7) 
energy

$$$$
7:0
     RDKit          3D

 42 44  0  0  0  0  0  0  0  0999 V2000
   -3.7716   20.4724  -29.7930 H   0  0  0  0  0  0  0  0  0  0  0  0
   -3.6560   20.7000  -30.8630 C   0  0  0  0  0  0  0  0  0  0  0  0
   -2.8060   21.6790  -31.2190 C   0  0  0  0  0  0  0  0  0  0  0  0
   -2.8510   22.9620  -30.4860 C   0  0  0  0  0  0  0  0  0  0  0  0
   -1.8480   23.4440  -29.7920 O   0  0  0  0  0  0  0  0  0  0  0  0
   -2.2270   24.6180  -29.3450 C   0  0  0  0  0  0  0  0  0  0  0  0
   -1.4560   25.3780  -28.6240 N   0  0  0  0  0  0  0  0  0  0  0  0
   -0.3230   24.8900  -27.8410 C   0  0  0  0  0  0  0  0  0  0  0  0
   -0.3205   23.7901  -27.8550 H   0  0  0  0  0  0  0  0  0  0  0  0
    0.6071   25.2775  -28.2823 H   0  0  0  0  0  0  0  0  0  0  0  0
   -0.4210   25.3670  -26.4160 C   0  0  0  0  0  0  0  0  0  0  0  0
   -1.1200   26.5410  -26.0960 C   0  0  0  0  0  0  0  0  0  0  0  0
   -1.6253   27.1143  -26.8872 H   0  0  0  0  0  0  0  0  0  0  0  0
   -1.1730   26.9800  -24.7720 C   0  0  0  0  0  0  0  0  0  0  0  0
   -1.7199   27.8988  -24.5136 H   0  0  0  0  0  0  0  0  0  0  0  0
   -0.5260   26.2430  -23.7790 C   0  0  0  0  0  0  0  0  0  0  0  0
   -0.5632   26.5809  -22.7328 H   0  0  0  0  0  0  0  0  0  0  0  0
    0.1510   25.1070  -24.1020 N   0  0  0  0  0  0  0  0  0  0  0  0
    0.6310   24.5670  -23.3480 H   0  0  0  0  0  0  0  0  0  0  0  0
    0.2180   24.6600  -25.3860 C   0  0  0  0  0  0  0  0  0  0  0  0
    0.7756   23.7404  -25.6172 H   0  0  0  0  0  0  0  0  0  0  0  0
   -3.4850   24.9520  -29.7090 N   0  0  0  0  0  0  0  0  0  0  0  0
   -3.8830   23.8870  -30.4280 C   0  0  0  0  0  0  0  0  0  0  0  0
   -5.2390   23.7570  -30.9810 C   0  0  0  0  0  0  0  0  0  0  0  0
   -5.5740   23.0180  -32.0950 C   0  0  0  0  0  0  0  0  0  0  0  0
   -4.9090   22.4079  -32.7239 H   0  0  0  0  0  0  0  0  0  0  0  0
   -6.9330   23.2160  -32.2440 C   0  0  0  0  0  0  0  0  0  0  0  0
   -7.5570   22.7612  -33.0275 H   0  0  0  0  0  0  0  0  0  0  0  0
   -7.3790   24.0510  -31.2840 N   0  0  0  0  0  0  0  0  0  0  0  0
   -6.3460   24.3850  -30.5270 N   0  0  0  0  0  0  0  0  0  0  0  0
   -6.4440   25.3330  -29.4210 C   0  0  0  0  0  0  0  0  0  0  0  0
   -6.3878   24.7896  -28.4662 H   0  0  0  0  0  0  0  0  0  0  0  0
   -5.6156   26.0542  -29.4817 H   0  0  0  0  0  0  0  0  0  0  0  0
   -7.4024   25.8695  -29.4817 H   0  0  0  0  0  0  0  0  0  0  0  0
   -1.7860   21.4770  -32.3120 C   0  0  0  0  0  0  0  0  0  0  0  0
   -0.8010   21.2819  -31.8628 H   0  0  0  0  0  0  0  0  0  0  0  0
   -2.0811   20.6199  -32.9351 H   0  0  0  0  0  0  0  0  0  0  0  0
   -1.7321   22.3819  -32.9351 H   0  0  0  0  0  0  0  0  0  0  0  0
   -4.4540   19.9030  -31.8500 C   0  0  0  0  0  0  0  0  0  0  0  0
   -5.1325   19.2254  -31.3110 H   0  0  0  0  0  0  0  0  0  0  0  0
   -5.0423   20.5848  -32.4817 H   0  0  0  0  0  0  0  0  0  0  0  0
   -3.7729   19.3138  -32.4817 H   0  0  0  0  0  0  0  0  0  0  0  0
  1  2  1  0
  2  3  2  0
  3  4  1  0
  4  5  1  0
  5  6  1  0
  6  7  2  0
  7  8  1  0
  8  9  1  0
  8 10  1  0
  8 11  1  0
 11 12  2  0
 12 13  1  0
 12 14  1  0
 14 15  1  0
 14 16  2  0
 16 17  1  0
 16 18  1  0
 18 19  1  0
 18 20  2  0
 20 21  1  0
  6 22  1  0
 22 23  1  0
 23 24  1  0
 24 25  2  0
 25 26  1  0
 25 27  1  0
 27 28  1  0
 27 29  2  0
 29 30  1  0
 30 31  1  0
 31 32  1  0
 31 33  1  0
 31 34  1  0
  3 35  1  0
 35 36  1  0
 35 37  1  0
 35 38  1  0
  2 39  1  0
 39 40  1  0
 39 41  1  0
 39 42  1  0
 23  4  2  0
 30 24  1  0
 20 11  1  0
M  CHG  2  18   1  22  -1
M  END
>  <UniqueID>  (8) 
7

>  <SMILES>  (8) 
C/C=C(\C)c1o/c(=N/Cc2ccc[nH+]c2)[n-]c1-c1ccnn1C

>  <Energy>  (8) 
106.9320596128348

>  <Genealogy>  (8) 
CC=C(C)c1oc(=NCc2ccc[nH+]c2)[n-]c1-c1ccnn1C (protonated)
C/C=C(\C)c1o/c(=N/Cc2ccc[nH+]c2)[n-]c1-c1ccnn1C (cis-trans isomerization)
C/C=C(\C)c1o/c(=N/Cc2ccc[nH+]c2)[n-]c1-c1ccnn1C (3D coordinates assigned)
C/C=C(\C)c1o/c(=N/Cc2ccc[nH+]c2)[n-]c1-c1ccnn1C (optimized conformer: 106.9320596128348 kcal/mol)

>  <smiles>  (8) 
CC=C(C)c1oc(=NCc2cccnc2)[nH]c1-c1ccnn1C

>  <score_type>  (8) 
oracle

>  <origin>  (8) 
adg

>  <m_score__min__energy>  (8) 
-8.8399999999999999

>  <m_primary>  (8) 
energy

$$$$
8:0
     RDKit          3D

 40 42  0  0  0  0  0  0  0  0999 V2000
   -3.0880   18.9310  -26.4030 C   0  0  0  0  0  0  0  0  0  0  0  0
   -2.1770   20.0050  -26.6040 O   0  0  0  0  0  0  0  0  0  0  0  0
   -1.7710   20.4220  -27.8760 C   0  0  0  0  0  0  0  0  0  0  0  0
   -1.4050   19.5760  -28.7390 O   0  0  0  0  0  0  0  0  0  0  0  0
   -1.7930   21.8860  -28.2140 C   0  0  2  0  0  0  0  0  0  0  0  0
   -1.7630   22.7490  -26.9330 C   0  0  0  0  0  0  0  0  0  0  0  0
   -2.1510   24.2260  -27.1710 C   0  0  0  0  0  0  0  0  0  0  0  0
   -2.1840   24.6070  -28.6540 C   0  0  0  0  0  0  0  0  0  0  0  0
   -3.0510   23.6740  -29.3910 N   0  0  0  0  0  0  0  0  0  0  0  0
   -4.0340   24.1610  -30.3240 C   0  0  0  0  0  0  0  0  0  0  0  0
   -3.8820   25.3000  -30.8430 O   0  0  0  0  0  0  0  0  0  0  0  0
   -5.2220   23.3650  -30.6960 C   0  0  0  0  0  0  0  0  0  0  0  0
   -6.5060   23.7110  -30.2450 C   0  0  0  0  0  0  0  0  0  0  0  0
   -7.6060   22.9430  -30.6330 C   0  0  0  0  0  0  0  0  0  0  0  0
   -7.4240   21.8420  -31.4780 C   0  0  0  0  0  0  0  0  0  0  0  0
   -8.5070   21.0500  -31.8870 C   0  0  0  0  0  0  0  0  0  0  0  0
   -8.2940   19.9610  -32.7400 C   0  0  0  0  0  0  0  0  0  0  0  0
   -7.0020   19.6610  -33.1870 C   0  0  0  0  0  0  0  0  0  0  0  0
   -5.9180   20.4460  -32.7840 C   0  0  0  0  0  0  0  0  0  0  0  0
   -6.1220   21.5360  -31.9300 C   0  0  0  0  0  0  0  0  0  0  0  0
   -5.0690   22.3010  -31.5340 N   0  0  0  0  0  0  0  0  0  0  0  0
   -3.0060   22.2350  -29.0930 C   0  0  0  0  0  0  0  0  0  0  0  0
   -3.2280   18.7659  -25.3245 H   0  0  0  0  0  0  0  0  0  0  0  0
   -4.0551   19.1793  -26.8645 H   0  0  0  0  0  0  0  0  0  0  0  0
   -2.6853   18.0173  -26.8645 H   0  0  0  0  0  0  0  0  0  0  0  0
   -0.8863   22.1128  -28.7940 H   0  0  0  0  0  0  0  0  0  0  0  0
   -2.4674   22.3174  -26.2067 H   0  0  0  0  0  0  0  0  0  0  0  0
   -0.7262   22.7437  -26.5655 H   0  0  0  0  0  0  0  0  0  0  0  0
   -3.1493   24.3991  -26.7428 H   0  0  0  0  0  0  0  0  0  0  0  0
   -1.3827   24.8487  -26.6894 H   0  0  0  0  0  0  0  0  0  0  0  0
   -2.5756   25.6295  -28.7594 H   0  0  0  0  0  0  0  0  0  0  0  0
   -1.1647   24.5554  -29.0642 H   0  0  0  0  0  0  0  0  0  0  0  0
   -6.6448   24.5830  -29.5890 H   0  0  0  0  0  0  0  0  0  0  0  0
   -8.6133   23.2027  -30.2753 H   0  0  0  0  0  0  0  0  0  0  0  0
   -9.5233   21.2847  -31.5375 H   0  0  0  0  0  0  0  0  0  0  0  0
   -9.1436   19.3397  -33.0597 H   0  0  0  0  0  0  0  0  0  0  0  0
   -6.8391   18.8045  -33.8578 H   0  0  0  0  0  0  0  0  0  0  0  0
   -4.9043   20.2071  -33.1381 H   0  0  0  0  0  0  0  0  0  0  0  0
   -3.9268   21.9494  -28.5633 H   0  0  0  0  0  0  0  0  0  0  0  0
   -2.9177   21.6857  -30.0419 H   0  0  0  0  0  0  0  0  0  0  0  0
  1  2  1  0
  2  3  1  0
  3  4  2  0
  3  5  1  0
  5  6  1  0
  6  7  1  0
  7  8  1  0
  8  9  1  0
  9 10  1  0
 10 11  2  0
 10 12  1  0
 12 13  2  0
 13 14  1  0
 14 15  2  0
 15 16  1  0
 16 17  2  0
 17 18  1  0
 18 19  2  0
 19 20  1  0
 20 21  2  0
  9 22  1  0
 22  5  1  0
 21 12  1  0
 20 15  1  0
  1 23  1  0
  1 24  1  0
  1 25  1  0
  5 26  1  6
  6 27  1  0
  6 28  1  0
  7 29  1  0
  7 30  1  0
  8 31  1  0
  8 32  1  0
 13 33  1  0
 14 34  1  0
 16 35  1  0
 17 36  1  0
 18 37  1  0
 19 38  1  0
 22 39  1  0
 22 40  1  0
M  END
>  <UniqueID>  (9) 
8

>  <SMILES>  (9) 
COC(=O)[C@@H]1CCCN(C(=O)c2ccc3ccccc3n2)C1

>  <Energy>  (9) 
47.33538244622211

>  <Genealogy>  (9) 
COC(=O)[C@@H]1CCCN(C(=O)c2ccc3ccccc3n2)C1 (chirality)
COC(=O)[C@@H]1CCCN(C(=O)c2ccc3ccccc3n2)C1 (3D coordinates assigned)
COC(=O)[C@@H]1CCCN(C(=O)c2ccc3ccccc3n2)C1 (nonaromatic ring conformer: 47.33538244622211 kcal/mol)

>  <smiles>  (9) 
COC(=O)C1CCCN(C(=O)c2ccc3ccccc3n2)C1

>  <score_type>  (9) 
oracle

>  <origin>  (9) 
adg

>  <m_score__min__energy>  (9) 
-8.5999999999999996

>  <m_primary>  (9) 
energy

$$$$
9:0
     RDKit          3D

 31 31  0  0  0  0  0  0  0  0999 V2000
   -2.4160   25.1130  -26.5200 C   0  0  0  0  0  0  0  0  0  0  0  0
   -2.1960   25.2020  -27.9730 N   0  0  0  0  0  0  0  0  0  0  0  0
   -0.8560   25.7590  -28.2300 C   0  0  0  0  0  0  0  0  0  0  0  0
   -2.3510   23.8630  -28.5860 C   0  0  0  0  0  0  0  0  0  0  0  0
   -3.7970   23.3540  -28.4850 C   0  0  0  0  0  0  0  0  0  0  0  0
   -4.7420   24.4740  -28.4820 N   0  0  0  0  0  0  0  0  0  0  0  0
   -5.1330   24.9210  -30.1140 S   0  0  0  0  0  0  0  0  0  0  0  0
   -6.0460   26.1160  -30.1050 O   0  0  0  0  0  0  0  0  0  0  0  0
   -3.8710   25.2940  -30.8410 O   0  0  0  0  0  0  0  0  0  0  0  0
   -5.9050   23.5770  -30.9540 C   0  0  0  0  0  0  0  0  0  0  0  0
   -7.2990   23.4410  -30.9210 C   0  0  0  0  0  0  0  0  0  0  0  0
   -7.9190   22.3880  -31.6010 C   0  0  0  0  0  0  0  0  0  0  0  0
   -7.1490   21.4710  -32.3210 C   0  0  0  0  0  0  0  0  0  0  0  0
   -5.7580   21.6060  -32.3630 C   0  0  0  0  0  0  0  0  0  0  0  0
   -5.1360   22.6580  -31.6840 C   0  0  0  0  0  0  0  0  0  0  0  0
   -1.5220   25.4747  -25.9910 H   0  0  0  0  0  0  0  0  0  0  0  0
   -3.2820   25.7315  -26.2417 H   0  0  0  0  0  0  0  0  0  0  0  0
   -2.6084   24.0663  -26.2417 H   0  0  0  0  0  0  0  0  0  0  0  0
   -0.3556   25.9670  -27.2727 H   0  0  0  0  0  0  0  0  0  0  0  0
   -0.2614   25.0335  -28.8045 H   0  0  0  0  0  0  0  0  0  0  0  0
   -0.9508   26.6922  -28.8045 H   0  0  0  0  0  0  0  0  0  0  0  0
   -2.0675   23.9221  -29.6472 H   0  0  0  0  0  0  0  0  0  0  0  0
   -1.7022   23.1605  -28.0423 H   0  0  0  0  0  0  0  0  0  0  0  0
   -4.0115   22.7030  -29.3454 H   0  0  0  0  0  0  0  0  0  0  0  0
   -3.9097   22.7940  -27.5449 H   0  0  0  0  0  0  0  0  0  0  0  0
   -4.2690   25.3000  -28.0460 H   0  0  0  0  0  0  0  0  0  0  0  0
   -7.9075   24.1645  -30.3586 H   0  0  0  0  0  0  0  0  0  0  0  0
   -9.0134   22.2816  -31.5690 H   0  0  0  0  0  0  0  0  0  0  0  0
   -7.6373   20.6425  -32.8550 H   0  0  0  0  0  0  0  0  0  0  0  0
   -5.1526   20.8840  -32.9307 H   0  0  0  0  0  0  0  0  0  0  0  0
   -4.0419   22.7654  -31.7221 H   0  0  0  0  0  0  0  0  0  0  0  0
  1  2  1  0
  2  3  1  0
  2  4  1  0
  4  5  1  0
  5  6  1  0
  6  7  1  0
  7  8  2  0
  7  9  2  0
  7 10  1  0
 10 11  2  0
 11 12  1  0
 12 13  2  0
 13 14  1  0
 14 15  2  0
 15 10  1  0
  1 16  1  0
  1 17  1  0
  1 18  1  0
  3 19  1  0
  3 20  1  0
  3 21  1  0
  4 22  1  0
  4 23  1  0
  5 24  1  0
  5 25  1  0
  6 26  1  0
 11 27  1  0
 12 28  1  0
 13 29  1  0
 14 30  1  0
 15 31  1  0
M  END
>  <UniqueID>  (10) 
9

>  <SMILES>  (10) 
CN(C)CCNS(=O)(=O)c1ccccc1

>  <Energy>  (10) 
26.265628421981635

>  <Genealogy>  (10) 
CN(C)CCNS(=O)(=O)c1ccccc1 (3D coordinates assigned)
CN(C)CCNS(=O)(=O)c1ccccc1 (optimized conformer: 26.265628421981635 kcal/mol)

>  <smiles>  (10) 
CN(C)CCNS(=O)(=O)c1ccccc1

>  <score_type>  (10) 
oracle

>  <origin>  (10) 
adg

>  <m_score__min__energy>  (10) 
-6.3499999999999996

>  <m_primary>  (10) 
energy

$$$$
10:0
     RDKit          3D

 50 54  0  0  0  0  0  0  0  0999 V2000
   -2.2690   18.8930  -34.5630 H   0  0  0  0  0  0  0  0  0  0  0  0
   -3.2430   19.0190  -34.2160 N   0  0  0  0  0  0  0  0  0  0  0  0
   -3.6590   19.9900  -33.4560 C   0  0  0  0  0  0  0  0  0  0  0  0
   -2.6820   20.7680  -32.7670 C   0  0  0  0  0  0  0  0  0  0  0  0
   -0.9290   20.3940  -32.9000 S   0  0  0  0  0  0  0  0  0  0  0  0
   -0.8660   19.5610  -31.2820 C   0  0  0  0  0  0  0  0  0  0  0  0
   -1.7617   18.9351  -31.1557 H   0  0  0  0  0  0  0  0  0  0  0  0
    0.0316   18.9275  -31.2280 H   0  0  0  0  0  0  0  0  0  0  0  0
   -0.8190   20.5900  -30.1990 C   0  0  0  0  0  0  0  0  0  0  0  0
    0.2820   20.8540  -29.6440 O   0  0  0  0  0  0  0  0  0  0  0  0
   -2.0240   21.2630  -29.7970 N   0  0  0  0  0  0  0  0  0  0  0  0
   -2.9350   20.8390  -30.0830 H   0  0  0  0  0  0  0  0  0  0  0  0
   -2.0560   22.4180  -28.9420 C   0  0  0  0  0  0  0  0  0  0  0  0
   -1.1360   23.4720  -29.0940 C   0  0  0  0  0  0  0  0  0  0  0  0
   -0.3580   23.4118  -29.8693 H   0  0  0  0  0  0  0  0  0  0  0  0
   -1.2060   24.5960  -28.2640 C   0  0  0  0  0  0  0  0  0  0  0  0
   -0.4761   25.4108  -28.3799 H   0  0  0  0  0  0  0  0  0  0  0  0
   -2.2030   24.6850  -27.2870 C   0  0  0  0  0  0  0  0  0  0  0  0
   -2.2710   25.7760  -26.4860 F   0  0  0  0  0  0  0  0  0  0  0  0
   -3.1350   23.6540  -27.1460 C   0  0  0  0  0  0  0  0  0  0  0  0
   -3.9230   23.7269  -26.3820 H   0  0  0  0  0  0  0  0  0  0  0  0
   -3.0680   22.5300  -27.9740 C   0  0  0  0  0  0  0  0  0  0  0  0
   -3.8128   21.7276  -27.8670 H   0  0  0  0  0  0  0  0  0  0  0  0
   -3.0620   21.8330  -32.0060 N   0  0  0  0  0  0  0  0  0  0  0  0
   -4.3760   22.1190  -31.9170 C   0  0  0  0  0  0  0  0  0  0  0  0
   -5.0110   23.1390  -31.2620 C   0  0  0  0  0  0  0  0  0  0  0  0
   -4.5380   24.1840  -30.4740 C   0  0  0  0  0  0  0  0  0  0  0  0
   -3.4646   24.2992  -30.2631 H   0  0  0  0  0  0  0  0  0  0  0  0
   -5.4850   25.0880  -29.9570 C   0  0  0  0  0  0  0  0  0  0  0  0
   -5.1524   25.9265  -29.3275 H   0  0  0  0  0  0  0  0  0  0  0  0
   -6.8610   24.9260  -30.2410 C   0  0  0  0  0  0  0  0  0  0  0  0
   -7.5898   25.6399  -29.8296 H   0  0  0  0  0  0  0  0  0  0  0  0
   -7.3070   23.8600  -31.0450 C   0  0  0  0  0  0  0  0  0  0  0  0
   -8.3753   23.7296  -31.2723 H   0  0  0  0  0  0  0  0  0  0  0  0
   -6.3530   22.9750  -31.5440 C   0  0  0  0  0  0  0  0  0  0  0  0
   -6.5700   21.9020  -32.3390 N   0  0  0  0  0  0  0  0  0  0  0  0
   -7.4930   21.5860  -32.7090 H   0  0  0  0  0  0  0  0  0  0  0  0
   -5.3350   21.3800  -32.5580 C   0  0  0  0  0  0  0  0  0  0  0  0
   -5.0090   20.2890  -33.3210 N   0  0  0  0  0  0  0  0  0  0  0  0
   -6.0650   19.4960  -33.9820 C   0  0  0  0  0  0  0  0  0  0  0  0
   -6.4099   20.0294  -34.8801 H   0  0  0  0  0  0  0  0  0  0  0  0
   -5.6527   18.5147  -34.2595 H   0  0  0  0  0  0  0  0  0  0  0  0
   -7.2230   19.2910  -33.0550 C   0  0  0  0  0  0  0  0  0  0  0  0
   -8.3180   20.0140  -33.0770 O   0  0  0  0  0  0  0  0  0  0  0  0
   -9.1240   19.5800  -32.1360 C   0  0  0  0  0  0  0  0  0  0  0  0
  -10.1187   19.9936  -31.9136 H   0  0  0  0  0  0  0  0  0  0  0  0
   -8.5340   18.5260  -31.4680 C   0  0  0  0  0  0  0  0  0  0  0  0
   -8.9595   17.9525  -30.6313 H   0  0  0  0  0  0  0  0  0  0  0  0
   -7.3040   18.3370  -32.0610 C   0  0  0  0  0  0  0  0  0  0  0  0
   -6.5465   17.5842  -31.7974 H   0  0  0  0  0  0  0  0  0  0  0  0
  1  2  1  0
  2  3  2  0
  3  4  1  0
  4  5  1  0
  5  6  1  0
  6  7  1  0
  6  8  1  0
  6  9  1  0
  9 10  2  0
  9 11  1  0
 11 12  1  0
 11 13  1  0
 13 14  2  0
 14 15  1  0
 14 16  1  0
 16 17  1  0
 16 18  2  0
 18 19  1  0
 18 20  1  0
 20 21  1  0
 20 22  2  0
 22 23  1  0
  4 24  2  0
 24 25  1  0
 25 26  1  0
 26 27  2  0
 27 28  1  0
 27 29  1  0
 29 30  1  0
 29 31  2  0
 31 32  1  0
 31 33  1  0
 33 34  1  0
 33 35  2  0
 35 36  1  0
 36 37  1  0
 36 38  1  0
 38 39  1  0
 39 40  1  0
 40 41  1  0
 40 42  1  0
 40 43  1  0
 43 44  1  0
 44 45  1  0
 45 46  1  0
 45 47  2  0
 47 48  1  0
 47 49  1  0
 49 50  1  0
 39  3  1  0
 49 43  2  0
 22 13  1  0
 38 25  2  0
 35 26  1  0
M  END
>  <UniqueID>  (11) 
10

>  <SMILES>  (11) 
[H]/N=c1/c(SCC(=O)Nc2ccc(F)cc2)nc2c3ccccc3[nH]c2n1Cc1ccco1

>  <Energy>  (11) 
130.18373374883598

>  <Genealogy>  (11) 
[H]/N=c1/c(SCC(=O)Nc2ccc(F)cc2)nc2c3ccccc3[nH]c2n1Cc1ccco1 (cis-trans isomerization)
[H]/N=c1/c(SCC(=O)Nc2ccc(F)cc2)nc2c3ccccc3[nH]c2n1Cc1ccco1 (3D coordinates assigned)
[H]/N=c1/c(SCC(=O)Nc2ccc(F)cc2)nc2c3ccccc3[nH]c2n1Cc1ccco1 (optimized conformer: 130.18373374883598 kcal/mol)

>  <smiles>  (11) 
N=c1c(SCC(=O)Nc2ccc(F)cc2)nc2c3ccccc3[nH]c2n1Cc1ccco1

>  <score_type>  (11) 
oracle

>  <origin>  (11) 
adg

>  <m_score__min__energy>  (11) 
-9.5899999999999999

>  <m_primary>  (11) 
energy

$$$$
11:0
     RDKit          3D

 35 37  0  0  0  0  0  0  0  0999 V2000
   -6.3680   18.7250  -33.8860 C   0  0  0  0  0  0  0  0  0  0  0  0
   -6.9840   19.8020  -33.0410 C   0  0  0  0  0  0  0  0  0  0  0  0
   -8.3240   19.7120  -32.6050 C   0  0  0  0  0  0  0  0  0  0  0  0
   -8.8810   20.7140  -31.7840 C   0  0  0  0  0  0  0  0  0  0  0  0
   -8.1140   21.8230  -31.3910 C   0  0  0  0  0  0  0  0  0  0  0  0
   -6.7980   21.9080  -31.8520 C   0  0  0  0  0  0  0  0  0  0  0  0
   -5.7990   22.8380  -31.6150 C   0  0  0  0  0  0  0  0  0  0  0  0
   -5.8620   24.0770  -30.8180 C   0  0  0  0  0  0  0  0  0  0  0  0
   -6.9300   24.7450  -30.8170 O   0  0  0  0  0  0  0  0  0  0  0  0
   -4.7310   24.5250  -29.9810 C   0  0  0  0  0  0  0  0  0  0  0  0
   -3.8590   25.2940  -30.4700 O   0  0  0  0  0  0  0  0  0  0  0  0
   -4.6230   24.0830  -28.6180 N   0  0  0  0  0  0  0  0  0  0  0  0
   -3.4570   24.3060  -27.8040 C   0  0  0  0  0  0  0  0  0  0  0  0
   -3.5550   25.0520  -26.6160 C   0  0  0  0  0  0  0  0  0  0  0  0
   -2.4220   25.2960  -25.8380 C   0  0  0  0  0  0  0  0  0  0  0  0
   -1.1780   24.8090  -26.2410 C   0  0  0  0  0  0  0  0  0  0  0  0
   -1.0590   24.0780  -27.4260 C   0  0  0  0  0  0  0  0  0  0  0  0
    0.5310   23.4870  -27.8970 Cl  0  0  0  0  0  0  0  0  0  0  0  0
   -2.1950   23.8280  -28.2180 C   0  0  0  0  0  0  0  0  0  0  0  0
   -2.0450   22.8830  -29.7000 Cl  0  0  0  0  0  0  0  0  0  0  0  0
   -4.6670   22.3430  -32.2540 C   0  0  0  0  0  0  0  0  0  0  0  0
   -4.9480   21.1800  -32.8820 N   0  0  0  0  0  0  0  0  0  0  0  0
   -6.2450   20.9210  -32.6320 C   0  0  0  0  0  0  0  0  0  0  0  0
   -5.9277   17.9552  -33.2352 H   0  0  0  0  0  0  0  0  0  0  0  0
   -7.1421   18.2694  -34.5210 H   0  0  0  0  0  0  0  0  0  0  0  0
   -5.5828   19.1612  -34.5210 H   0  0  0  0  0  0  0  0  0  0  0  0
   -8.9392   18.8521  -32.9087 H   0  0  0  0  0  0  0  0  0  0  0  0
   -9.9249   20.6264  -31.4485 H   0  0  0  0  0  0  0  0  0  0  0  0
   -8.5371   22.6017  -30.7394 H   0  0  0  0  0  0  0  0  0  0  0  0
   -5.4600   23.6390  -28.1770 H   0  0  0  0  0  0  0  0  0  0  0  0
   -4.5314   25.4460  -26.2975 H   0  0  0  0  0  0  0  0  0  0  0  0
   -2.5100   25.8731  -24.9057 H   0  0  0  0  0  0  0  0  0  0  0  0
   -0.2880   25.0012  -25.6238 H   0  0  0  0  0  0  0  0  0  0  0  0
   -3.6808   22.8302  -32.2488 H   0  0  0  0  0  0  0  0  0  0  0  0
   -4.2790   20.5980  -33.4330 H   0  0  0  0  0  0  0  0  0  0  0  0
  1  2  1  0
  2  3  2  0
  3  4  1  0
  4  5  2  0
  5  6  1  0
  6  7  1  0
  7  8  1  0
  8  9  2  0
  8 10  1  0
 10 11  2  0
 10 12  1  0
 12 13  1  0
 13 14  2  0
 14 15  1  0
 15 16  2  0
 16 17  1  0
 17 18  1  0
 17 19  2  0
 19 20  1  0
  7 21  2  0
 21 22  1  0
 22 23  1  0
 23  2  1  0
 23  6  2  0
 19 13  1  0
  1 24  1  0
  1 25  1  0
  1 26  1  0
  3 27  1  0
  4 28  1  0
  5 29  1  0
 12 30  1  0
 14 31  1  0
 15 32  1  0
 16 33  1  0
 21 34  1  0
 22 35  1  0
M  END
>  <UniqueID>  (12) 
11

>  <SMILES>  (12) 
Cc1cccc2c(C(=O)C(=O)Nc3cccc(Cl)c3Cl)c[nH]c12

>  <Energy>  (12) 
79.50058898237128

>  <Genealogy>  (12) 
Cc1cccc2c(C(=O)C(=O)Nc3cccc(Cl)c3Cl)c[nH]c12 (3D coordinates assigned)
Cc1cccc2c(C(=O)C(=O)Nc3cccc(Cl)c3Cl)c[nH]c12 (optimized conformer: 79.50058898237128 kcal/mol)

>  <smiles>  (12) 
Cc1cccc2c(C(=O)C(=O)Nc3cccc(Cl)c3Cl)c[nH]c12

>  <score_type>  (12) 
oracle

>  <origin>  (12) 
adg

>  <m_score__min__energy>  (12) 
-9.3499999999999996

>  <m_primary>  (12) 
energy

$$$$
12:0
     RDKit          3D

 44 47  0  0  0  0  0  0  0  0999 V2000
   -6.1520   16.6640  -32.0090 C   0  0  0  0  0  0  0  0  0  0  0  0
   -6.9370   17.2170  -33.1270 N   0  0  0  0  0  0  0  0  0  0  0  0
   -7.5290   18.5370  -32.7880 C   0  0  0  0  0  0  0  0  0  0  0  0
   -6.7950   19.7360  -33.4220 C   0  0  0  0  0  0  0  0  0  0  0  0
   -5.3740   19.4310  -33.5990 N   0  0  0  0  0  0  0  0  0  0  0  0
   -4.3600   20.3320  -33.1200 C   0  0  0  0  0  0  0  0  0  0  0  0
   -3.0420   20.2680  -33.6080 C   0  0  0  0  0  0  0  0  0  0  0  0
   -2.0880   21.1750  -33.1080 C   0  0  0  0  0  0  0  0  0  0  0  0
   -0.4420   21.1360  -33.7080 Cl  0  0  0  0  0  0  0  0  0  0  0  0
   -2.4330   22.0870  -32.1540 N   0  0  0  0  0  0  0  0  0  0  0  0
   -3.7080   22.1040  -31.6960 C   0  0  0  0  0  0  0  0  0  0  0  0
   -4.2710   22.9160  -30.7350 C   0  0  0  0  0  0  0  0  0  0  0  0
   -3.6570   24.0020  -29.9490 C   0  0  0  0  0  0  0  0  0  0  0  0
   -3.5540   25.1480  -30.4650 O   0  0  0  0  0  0  0  0  0  0  0  0
   -3.2230   23.7820  -28.5970 N   0  0  0  0  0  0  0  0  0  0  0  0
   -2.2670   24.6140  -27.9190 C   0  0  0  0  0  0  0  0  0  0  0  0
   -2.5610   25.2270  -26.6880 C   0  0  0  0  0  0  0  0  0  0  0  0
   -1.6150   26.0480  -26.0720 C   0  0  0  0  0  0  0  0  0  0  0  0
   -0.3860   26.2620  -26.6970 C   0  0  0  0  0  0  0  0  0  0  0  0
   -0.1210   25.6800  -27.8960 N   0  0  0  0  0  0  0  0  0  0  0  0
   -1.0250   24.8760  -28.5160 C   0  0  0  0  0  0  0  0  0  0  0  0
   -5.5950   22.4850  -30.6790 C   0  0  0  0  0  0  0  0  0  0  0  0
   -5.7900   21.4700  -31.5560 N   0  0  0  0  0  0  0  0  0  0  0  0
   -4.6350   21.2620  -32.1670 N   0  0  0  0  0  0  0  0  0  0  0  0
   -4.9930   18.2210  -34.3320 C   0  0  0  0  0  0  0  0  0  0  0  0
   -6.1670   17.2290  -34.3880 C   0  0  0  0  0  0  0  0  0  0  0  0
   -6.5999   16.9795  -31.0551 H   0  0  0  0  0  0  0  0  0  0  0  0
   -6.1524   15.5656  -32.0687 H   0  0  0  0  0  0  0  0  0  0  0  0
   -5.1179   17.0341  -32.0687 H   0  0  0  0  0  0  0  0  0  0  0  0
   -8.5726   18.5474  -33.1355 H   0  0  0  0  0  0  0  0  0  0  0  0
   -7.4441   18.6528  -31.6974 H   0  0  0  0  0  0  0  0  0  0  0  0
   -7.2426   19.9576  -34.4021 H   0  0  0  0  0  0  0  0  0  0  0  0
   -6.8922   20.6059  -32.7557 H   0  0  0  0  0  0  0  0  0  0  0  0
   -2.7617   19.5226  -34.3668 H   0  0  0  0  0  0  0  0  0  0  0  0
   -3.7100   23.0460  -28.0400 H   0  0  0  0  0  0  0  0  0  0  0  0
   -3.5374   25.0593  -26.2100 H   0  0  0  0  0  0  0  0  0  0  0  0
   -1.8361   26.5213  -25.1040 H   0  0  0  0  0  0  0  0  0  0  0  0
    0.3694   26.9027  -26.2185 H   0  0  0  0  0  0  0  0  0  0  0  0
   -0.7813   24.4286  -29.4909 H   0  0  0  0  0  0  0  0  0  0  0  0
   -6.3683   22.9065  -30.0199 H   0  0  0  0  0  0  0  0  0  0  0  0
   -4.7028   18.4957  -35.3569 H   0  0  0  0  0  0  0  0  0  0  0  0
   -4.1495   17.7428  -33.8125 H   0  0  0  0  0  0  0  0  0  0  0  0
   -6.8371   17.5168  -35.2115 H   0  0  0  0  0  0  0  0  0  0  0  0
   -5.7554   16.2213  -34.5464 H   0  0  0  0  0  0  0  0  0  0  0  0
  1  2  1  0
  2  3  1  0
  3  4  1  0
  4  5  1  0
  5  6  1  0
  6  7  2  0
  7  8  1  0
  8  9  1  0
  8 10  2  0
 10 11  1  0
 11 12  2  0
 12 13  1  0
 13 14  2  0
 13 15  1  0
 15 16  1  0
 16 17  2  0
 17 18  1  0
 18 19  2  0
 19 20  1  0
 20 21  2  0
 12 22  1  0
 22 23  2  0
 23 24  1  0
  5 25  1  0
 25 26  1  0
 26  2  1  0
 24  6  1  0
 24 11  1  0
 21 16  1  0
  1 27  1  0
  1 28  1  0
  1 29  1  0
  3 30  1  0
  3 31  1  0
  4 32  1  0
  4 33  1  0
  7 34  1  0
 15 35  1  0
 17 36  1  0
 18 37  1  0
 19 38  1  0
 21 39  1  0
 22 40  1  0
 25 41  1  0
 25 42  1  0
 26 43  1  0
 26 44  1  0
M  END
>  <UniqueID>  (13) 
12

>  <SMILES>  (13) 
CN1CCN(c2cc(Cl)nc3c(C(=O)Nc4cccnc4)cnn23)CC1

>  <Energy>  (13) 
100.7798499489442

>  <Genealogy>  (13) 
CN1CCN(c2cc(Cl)nc3c(C(=O)Nc4cccnc4)cnn23)CC1 (3D coordinates assigned)
CN1CCN(c2cc(Cl)nc3c(C(=O)Nc4cccnc4)cnn23)CC1 (nonaromatic ring conformer: 100.7798499489442 kcal/mol)

>  <smiles>  (13) 
CN1CCN(c2cc(Cl)nc3c(C(=O)Nc4cccnc4)cnn23)CC1

>  <score_type>  (13) 
oracle

>  <origin>  (13) 
adg

>  <m_score__min__energy>  (13) 
-8.5800000000000001

>  <m_primary>  (13) 
energy

$$$$
13:0
     RDKit          3D

 36 39  0  0  1  0  0  0  0  0999 V2000
   -1.7290   22.1580  -27.2080 C   0  0  0  0  0  0  0  0  0  0  0  0
   -2.0340   23.2690  -28.1670 C   0  0  0  0  0  0  0  0  0  0  0  0
   -3.1570   23.2890  -29.0020 C   0  0  0  0  0  0  0  0  0  0  0  0
   -3.0390   24.4730  -29.6990 C   0  0  0  0  0  0  0  0  0  0  0  0
   -3.8710   24.8720  -30.5710 N   0  0  0  0  0  0  0  0  0  0  0  0
   -4.9720   24.1000  -31.0350 C   0  0  0  0  0  0  0  0  0  0  0  0
   -4.8170   23.0510  -31.9230 C   0  0  0  0  0  0  0  0  0  0  0  0
   -5.9120   22.3560  -32.3230 N   0  0  0  0  0  0  0  0  0  0  0  0
   -7.1500   22.6490  -31.8880 C   0  0  0  0  0  0  0  0  0  0  0  0
   -8.2070   22.0130  -32.2460 N   0  0  0  0  0  0  0  0  0  0  0  0
   -8.1900   20.5920  -32.1570 C   0  0  0  0  0  0  0  0  0  0  0  0
   -8.9530   19.7680  -31.3630 C   0  0  0  0  0  0  0  0  0  0  0  0
   -8.6090   18.4840  -31.5980 N   0  0  0  0  0  0  0  0  0  0  0  0
   -7.6440   18.4530  -32.5270 N   0  0  0  0  0  0  0  0  0  0  0  0
   -6.9920   17.4000  -33.0770 C   0  0  0  0  0  0  0  0  0  0  0  0
   -6.0150   17.6220  -34.0340 C   0  0  0  0  0  0  0  0  0  0  0  0
   -5.7350   18.9100  -34.3980 C   0  0  0  0  0  0  0  0  0  0  0  0
   -6.4060   19.9500  -33.8280 N   0  0  0  0  0  0  0  0  0  0  0  0
   -7.3660   19.7300  -32.8880 C   0  0  0  0  0  0  0  0  0  0  0  0
   -7.3240   23.6700  -31.0190 N   0  0  0  0  0  0  0  0  0  0  0  0
   -6.2570   24.3760  -30.6050 C   0  0  0  0  0  0  0  0  0  0  0  0
   -6.5370   25.6990  -29.4690 Cl  0  0  0  0  0  0  0  0  0  0  0  0
   -1.9240   25.1360  -29.3210 N   0  0  0  0  0  0  0  0  0  0  0  0
   -1.3470   24.3820  -28.4000 N   0  0  0  0  0  0  0  0  0  0  0  0
   -1.8300   22.5261  -26.1763 H   0  0  0  0  0  0  0  0  0  0  0  0
   -2.4327   21.3286  -27.3720 H   0  0  0  0  0  0  0  0  0  0  0  0
   -0.7005   21.8041  -27.3720 H   0  0  0  0  0  0  0  0  0  0  0  0
   -3.9520   22.5331  -29.0836 H   0  0  0  0  0  0  0  0  0  0  0  0
   -3.8190   22.7834  -32.3002 H   0  0  0  0  0  0  0  0  0  0  0  0
   -5.7700   21.5850  -32.9810 H   0  0  0  0  0  0  0  0  0  0  0  0
   -9.7212   20.1021  -30.6500 H   0  0  0  0  0  0  0  0  0  0  0  0
   -7.2372   16.3740  -32.7652 H   0  0  0  0  0  0  0  0  0  0  0  0
   -5.4757   16.7795  -34.4915 H   0  0  0  0  0  0  0  0  0  0  0  0
   -4.9629   19.1079  -35.1561 H   0  0  0  0  0  0  0  0  0  0  0  0
   -1.6130   26.0690  -29.7120 H   0  0  0  0  0  0  0  0  0  0  0  0
   -0.4530   24.6720  -27.9370 H   0  0  0  0  0  0  0  0  0  0  0  0
  1  2  1  0
  2  3  2  0
  3  4  1  0
  4  5  2  0
  5  6  1  0
  6  7  2  0
  7  8  1  0
  8  9  1  0
  9 10  2  0
 10 11  1  0
 11 12  1  0
 12 13  2  0
 13 14  1  0
 14 15  1  0
 15 16  2  0
 16 17  1  0
 17 18  2  0
 18 19  1  0
  9 20  1  0
 20 21  2  0
 21 22  1  0
  4 23  1  0
 23 24  1  0
 24  2  1  0
 21  6  1  0
 19 11  2  0
 19 14  1  0
  1 25  1  0
  1 26  1  0
  1 27  1  0
  3 28  1  0
  7 29  1  0
  8 30  1  0
 12 31  1  0
 15 32  1  0
 16 33  1  0
 17 34  1  0
 23 35  1  0
 24 36  1  0
M  END
>  <smiles>  (14) 
Cc1cc(=Nc2c[nH]c(=Nc3cnn4cccnc34)nc2Cl)[nH][nH]1

>  <score_type>  (14) 
oracle

>  <origin>  (14) 
adg

>  <m_score__min__energy>  (14) 
-9.2200000000000006

>  <m_primary>  (14) 
energy

$$$$
14:0
     RDKit          3D

 34 35  0  0  0  0  0  0  0  0999 V2000
   -3.9620   21.1620  -32.2460 C   0  0  0  0  0  0  0  0  0  0  0  0
   -5.0740   21.4310  -33.0920 O   0  0  0  0  0  0  0  0  0  0  0  0
   -6.3710   21.5750  -32.5870 C   0  0  0  0  0  0  0  0  0  0  0  0
   -6.7630   22.8190  -32.0480 C   0  0  0  0  0  0  0  0  0  0  0  0
   -5.8240   23.9120  -32.0170 N   0  0  0  0  0  0  0  0  0  0  0  0
   -5.2470   24.6580  -30.5600 S   0  0  0  0  0  0  0  0  0  0  0  0
   -5.0400   23.4370  -29.2810 C   0  0  0  0  0  0  0  0  0  0  0  0
   -6.2060   25.7270  -30.1140 O   0  0  0  0  0  0  0  0  0  0  0  0
   -3.9120   25.2900  -30.8340 O   0  0  0  0  0  0  0  0  0  0  0  0
   -8.0810   22.9800  -31.5850 C   0  0  0  0  0  0  0  0  0  0  0  0
   -8.9850   21.9190  -31.6360 C   0  0  0  0  0  0  0  0  0  0  0  0
   -8.5880   20.6820  -32.1410 C   0  0  0  0  0  0  0  0  0  0  0  0
   -7.2800   20.4900  -32.6090 C   0  0  0  0  0  0  0  0  0  0  0  0
   -6.8710   19.1440  -33.0780 C   0  0  0  0  0  0  0  0  0  0  0  0
   -7.2340   17.9980  -32.3490 C   0  0  0  0  0  0  0  0  0  0  0  0
   -6.8490   16.7300  -32.7900 C   0  0  0  0  0  0  0  0  0  0  0  0
   -6.0930   16.5930  -33.9570 C   0  0  0  0  0  0  0  0  0  0  0  0
   -5.7200   17.7250  -34.6850 C   0  0  0  0  0  0  0  0  0  0  0  0
   -4.9810   17.5920  -35.8150 F   0  0  0  0  0  0  0  0  0  0  0  0
   -6.1030   18.9970  -34.2480 C   0  0  0  0  0  0  0  0  0  0  0  0
   -4.2748   21.2377  -31.1941 H   0  0  0  0  0  0  0  0  0  0  0  0
   -3.5870   20.1472  -32.4449 H   0  0  0  0  0  0  0  0  0  0  0  0
   -3.1646   21.8932  -32.4449 H   0  0  0  0  0  0  0  0  0  0  0  0
   -5.3690   24.2230  -32.9040 H   0  0  0  0  0  0  0  0  0  0  0  0
   -5.1219   23.9201  -28.2962 H   0  0  0  0  0  0  0  0  0  0  0  0
   -5.8206   22.6681  -29.3783 H   0  0  0  0  0  0  0  0  0  0  0  0
   -4.0496   22.9684  -29.3783 H   0  0  0  0  0  0  0  0  0  0  0  0
   -8.4018   23.9508  -31.1792 H   0  0  0  0  0  0  0  0  0  0  0  0
  -10.0151   22.0590  -31.2763 H   0  0  0  0  0  0  0  0  0  0  0  0
   -9.3065   19.8496  -32.1727 H   0  0  0  0  0  0  0  0  0  0  0  0
   -7.8243   18.1006  -31.4265 H   0  0  0  0  0  0  0  0  0  0  0  0
   -7.1415   15.8374  -32.2175 H   0  0  0  0  0  0  0  0  0  0  0  0
   -5.7915   15.5932  -34.3025 H   0  0  0  0  0  0  0  0  0  0  0  0
   -5.8027   19.8865  -34.8213 H   0  0  0  0  0  0  0  0  0  0  0  0
  1  2  1  0
  2  3  1  0
  3  4  2  0
  4  5  1  0
  5  6  1  0
  6  7  1  0
  6  8  2  0
  6  9  2  0
  4 10  1  0
 10 11  2  0
 11 12  1  0
 12 13  2  0
 13 14  1  0
 14 15  2  0
 15 16  1  0
 16 17  2  0
 17 18  1  0
 18 19  1  0
 18 20  2  0
 13  3  1  0
 20 14  1  0
  1 21  1  0
  1 22  1  0
  1 23  1  0
  5 24  1  0
  7 25  1  0
  7 26  1  0
  7 27  1  0
 10 28  1  0
 11 29  1  0
 12 30  1  0
 15 31  1  0
 16 32  1  0
 17 33  1  0
 20 34  1  0
M  END
>  <UniqueID>  (15) 
13

>  <SMILES>  (15) 
COc1c(NS(C)(=O)=O)cccc1-c1cccc(F)c1

>  <Energy>  (15) 
45.642780206044264

>  <Genealogy>  (15) 
COc1c(NS(C)(=O)=O)cccc1-c1cccc(F)c1 (3D coordinates assigned)
COc1c(NS(C)(=O)=O)cccc1-c1cccc(F)c1 (optimized conformer: 45.642780206044264 kcal/mol)

>  <smiles>  (15) 
COc1c(NS(C)(=O)=O)cccc1-c1cccc(F)c1

>  <score_type>  (15) 
oracle

>  <origin>  (15) 
adg

>  <m_score__min__energy>  (15) 
-8.3599999999999994

>  <m_primary>  (15) 
energy

$$$$
15:0
     RDKit          3D

 47 49  0  0  0  0  0  0  0  0999 V2000
   -3.3140   21.3070  -33.4180 C   0  0  0  0  0  0  0  0  0  0  0  0
   -3.4560   21.7400  -32.0000 C   0  0  0  0  0  0  0  0  0  0  0  0
   -3.5300   23.0340  -31.6180 N   0  0  0  0  0  0  0  0  0  0  0  0
   -3.5850   23.1600  -30.2640 C   0  0  0  0  0  0  0  0  0  0  0  0
   -3.6650   24.5050  -29.5990 C   0  0  0  0  0  0  0  0  0  0  0  0
   -4.3490   25.5040  -30.4350 N   0  0  0  0  0  0  0  0  0  0  0  0
   -5.7780   25.6810  -30.1110 C   0  0  0  0  0  0  0  0  0  0  0  0
   -6.6820   24.5520  -30.6730 C   0  0  0  0  0  0  0  0  0  0  0  0
   -6.7770   23.3370  -29.7180 C   0  0  0  0  0  0  0  0  0  0  0  0
   -7.2240   22.0570  -30.4460 C   0  0  0  0  0  0  0  0  0  0  0  0
   -8.0890   22.3990  -31.5930 N   0  0  0  0  0  0  0  0  0  0  0  0
   -8.7660   21.2030  -32.1320 C   0  0  0  0  0  0  0  0  0  0  0  0
   -7.7690   20.1010  -32.3770 C   0  0  0  0  0  0  0  0  0  0  0  0
   -6.8320   20.2000  -33.4190 C   0  0  0  0  0  0  0  0  0  0  0  0
   -5.9020   19.1770  -33.6280 C   0  0  0  0  0  0  0  0  0  0  0  0
   -5.8980   18.0520  -32.7990 C   0  0  0  0  0  0  0  0  0  0  0  0
   -6.8270   17.9470  -31.7590 C   0  0  0  0  0  0  0  0  0  0  0  0
   -7.7580   18.9680  -31.5460 C   0  0  0  0  0  0  0  0  0  0  0  0
   -7.3070   23.0740  -32.6570 C   0  0  0  0  0  0  0  0  0  0  0  0
   -6.3030   24.1090  -32.0990 C   0  0  0  0  0  0  0  0  0  0  0  0
   -3.5360   21.9600  -29.5560 C   0  0  0  0  0  0  0  0  0  0  0  0
   -3.4200   20.7090  -30.6730 S   0  0  0  0  0  0  0  0  0  0  0  0
   -2.9714   20.2622  -33.4498 H   0  0  0  0  0  0  0  0  0  0  0  0
   -4.2863   21.3896  -33.9257 H   0  0  0  0  0  0  0  0  0  0  0  0
   -2.5795   21.9494  -33.9257 H   0  0  0  0  0  0  0  0  0  0  0  0
   -4.2160   24.3991  -28.6529 H   0  0  0  0  0  0  0  0  0  0  0  0
   -2.6368   24.8570  -29.4292 H   0  0  0  0  0  0  0  0  0  0  0  0
   -3.8610   26.4240  -30.3180 H   0  0  0  0  0  0  0  0  0  0  0  0
   -5.8872   25.7029  -29.0167 H   0  0  0  0  0  0  0  0  0  0  0  0
   -6.1032   26.6212  -30.5803 H   0  0  0  0  0  0  0  0  0  0  0  0
   -7.6834   25.0019  -30.7426 H   0  0  0  0  0  0  0  0  0  0  0  0
   -5.7883   23.1618  -29.2687 H   0  0  0  0  0  0  0  0  0  0  0  0
   -7.5306   23.5692  -28.9511 H   0  0  0  0  0  0  0  0  0  0  0  0
   -6.3372   21.5163  -30.8081 H   0  0  0  0  0  0  0  0  0  0  0  0
   -7.7893   21.4244  -29.7459 H   0  0  0  0  0  0  0  0  0  0  0  0
   -9.5192   20.8562  -31.4092 H   0  0  0  0  0  0  0  0  0  0  0  0
   -9.2491   21.4654  -33.0848 H   0  0  0  0  0  0  0  0  0  0  0  0
   -6.8299   21.0849  -34.0724 H   0  0  0  0  0  0  0  0  0  0  0  0
   -5.1719   19.2579  -34.4468 H   0  0  0  0  0  0  0  0  0  0  0  0
   -5.1643   17.2493  -32.9645 H   0  0  0  0  0  0  0  0  0  0  0  0
   -6.8252   17.0603  -31.1080 H   0  0  0  0  0  0  0  0  0  0  0  0
   -8.4848   18.8840  -30.7246 H   0  0  0  0  0  0  0  0  0  0  0  0
   -6.7489   22.3115  -33.2201 H   0  0  0  0  0  0  0  0  0  0  0  0
   -8.0187   23.6156  -33.2975 H   0  0  0  0  0  0  0  0  0  0  0  0
   -5.2997   23.6585  -32.0784 H   0  0  0  0  0  0  0  0  0  0  0  0
   -6.3217   24.9943  -32.7516 H   0  0  0  0  0  0  0  0  0  0  0  0
   -3.5676   21.8512  -28.4619 H   0  0  0  0  0  0  0  0  0  0  0  0
  1  2  1  0
  2  3  2  0
  3  4  1  0
  4  5  1  0
  5  6  1  0
  6  7  1  0
  7  8  1  0
  8  9  1  0
  9 10  1  0
 10 11  1  0
 11 12  1  0
 12 13  1  0
 13 14  2  0
 14 15  1  0
 15 16  2  0
 16 17  1  0
 17 18  2  0
 11 19  1  0
 19 20  1  0
  4 21  2  0
 21 22  1  0
 22  2  1  0
 20  8  1  0
 18 13  1  0
  1 23  1  0
  1 24  1  0
  1 25  1  0
  5 26  1  0
  5 27  1  0
  6 28  1  0
  7 29  1  0
  7 30  1  0
  8 31  1  0
  9 32  1  0
  9 33  1  0
 10 34  1  0
 10 35  1  0
 12 36  1  0
 12 37  1  0
 14 38  1  0
 15 39  1  0
 16 40  1  0
 17 41  1  0
 18 42  1  0
 19 43  1  0
 19 44  1  0
 20 45  1  0
 20 46  1  0
 21 47  1  0
M  END
>  <UniqueID>  (16) 
14

>  <SMILES>  (16) 
Cc1nc(CNCC2CCN(Cc3ccccc3)CC2)cs1

>  <Energy>  (16) 
83.83232956357887

>  <Genealogy>  (16) 
Cc1nc(CNCC2CCN(Cc3ccccc3)CC2)cs1 (3D coordinates assigned)
Cc1nc(CNCC2CCN(Cc3ccccc3)CC2)cs1 (nonaromatic ring conformer: 83.83232956357887 kcal/mol)

>  <smiles>  (16) 
Cc1nc(CNCC2CCN(Cc3ccccc3)CC2)cs1

>  <score_type>  (16) 
oracle

>  <origin>  (16) 
adg

>  <m_score__min__energy>  (16) 
-9.4000000000000004

>  <m_primary>  (16) 
energy

$$$$
16:0
     RDKit          3D

 61 64  0  0  0  0  0  0  0  0999 V2000
   -1.2370   20.0490  -30.1670 C   0  0  0  0  0  0  0  0  0  0  0  0
    0.2370   20.0360  -30.5630 C   0  0  0  0  0  0  0  0  0  0  0  0
    0.5790   18.8930  -31.5300 C   0  0  0  0  0  0  0  0  0  0  0  0
    1.9560   19.0610  -32.1900 C   0  0  0  0  0  0  0  0  0  0  0  0
    1.9990   18.2920  -33.4420 N   0  0  0  0  0  0  0  0  0  0  0  0
    2.6950   19.0200  -34.5120 C   0  0  0  0  0  0  0  0  0  0  0  0
    2.5910   20.5440  -34.3340 C   0  0  0  0  0  0  0  0  0  0  0  0
    1.3400   21.0660  -34.9150 N   0  0  0  0  0  0  0  0  0  0  0  0
    1.3900   22.2460  -35.7820 C   0  0  0  0  0  0  0  0  0  0  0  0
    0.0550   20.5910  -34.4650 C   0  0  0  0  0  0  0  0  0  0  0  0
   -0.7610   21.3770  -33.6300 C   0  0  0  0  0  0  0  0  0  0  0  0
   -2.0510   20.9340  -33.3110 C   0  0  0  0  0  0  0  0  0  0  0  0
   -2.8980   21.7060  -32.5760 N   0  0  0  0  0  0  0  0  0  0  0  0
   -4.1790   21.3100  -32.3170 C   0  0  0  0  0  0  0  0  0  0  0  0
   -5.0900   22.2510  -31.6240 C   0  0  0  0  0  0  0  0  0  0  0  0
   -6.0640   22.9680  -32.3430 C   0  0  0  0  0  0  0  0  0  0  0  0
   -6.9090   23.8640  -31.6830 C   0  0  0  0  0  0  0  0  0  0  0  0
   -6.7800   24.0630  -30.3070 C   0  0  0  0  0  0  0  0  0  0  0  0
   -5.8040   23.3680  -29.5880 C   0  0  0  0  0  0  0  0  0  0  0  0
   -4.9580   22.4680  -30.2430 C   0  0  0  0  0  0  0  0  0  0  0  0
   -4.6120   20.0400  -32.7800 C   0  0  0  0  0  0  0  0  0  0  0  0
   -5.9570   19.4930  -32.4910 C   0  0  0  0  0  0  0  0  0  0  0  0
   -7.0970   20.1490  -32.9850 C   0  0  0  0  0  0  0  0  0  0  0  0
   -8.3730   19.6420  -32.7210 C   0  0  0  0  0  0  0  0  0  0  0  0
   -8.5210   18.4720  -31.9710 C   0  0  0  0  0  0  0  0  0  0  0  0
   -7.3930   17.8000  -31.4940 C   0  0  0  0  0  0  0  0  0  0  0  0
   -6.1150   18.3020  -31.7590 C   0  0  0  0  0  0  0  0  0  0  0  0
   -3.7540   19.2790  -33.5110 N   0  0  0  0  0  0  0  0  0  0  0  0
   -2.4950   19.6950  -33.7940 C   0  0  0  0  0  0  0  0  0  0  0  0
   -1.6390   18.9130  -34.5700 C   0  0  0  0  0  0  0  0  0  0  0  0
   -0.4030   19.3790  -34.8910 N   0  0  0  0  0  0  0  0  0  0  0  0
   -1.3220   20.0497  -29.0703 H   0  0  0  0  0  0  0  0  0  0  0  0
   -1.7177   20.9514  -30.5727 H   0  0  0  0  0  0  0  0  0  0  0  0
   -1.7336   19.1552  -30.5727 H   0  0  0  0  0  0  0  0  0  0  0  0
    0.4797   20.9927  -31.0486 H   0  0  0  0  0  0  0  0  0  0  0  0
    0.8267   19.8848  -29.6468 H   0  0  0  0  0  0  0  0  0  0  0  0
    0.5709   17.9458  -30.9708 H   0  0  0  0  0  0  0  0  0  0  0  0
   -0.1746   18.9015  -32.3312 H   0  0  0  0  0  0  0  0  0  0  0  0
    2.1305   20.1251  -32.4076 H   0  0  0  0  0  0  0  0  0  0  0  0
    2.7360   18.6924  -31.5075 H   0  0  0  0  0  0  0  0  0  0  0  0
    1.0100   18.1380  -33.7500 H   0  0  0  0  0  0  0  0  0  0  0  0
    3.7569   18.7332  -34.5041 H   0  0  0  0  0  0  0  0  0  0  0  0
    2.2187   18.7563  -35.4678 H   0  0  0  0  0  0  0  0  0  0  0  0
    2.6144   20.7820  -33.2603 H   0  0  0  0  0  0  0  0  0  0  0  0
    3.4386   21.0136  -34.8546 H   0  0  0  0  0  0  0  0  0  0  0  0
    1.4285   23.1545  -35.1630 H   0  0  0  0  0  0  0  0  0  0  0  0
    2.2869   22.1967  -36.4170 H   0  0  0  0  0  0  0  0  0  0  0  0
    0.4922   22.2728  -36.4170 H   0  0  0  0  0  0  0  0  0  0  0  0
   -0.3885   22.3320  -33.2309 H   0  0  0  0  0  0  0  0  0  0  0  0
   -2.5760   22.6460  -32.2440 H   0  0  0  0  0  0  0  0  0  0  0  0
   -6.1606   22.8226  -33.4291 H   0  0  0  0  0  0  0  0  0  0  0  0
   -7.6766   24.4131  -32.2480 H   0  0  0  0  0  0  0  0  0  0  0  0
   -7.4472   24.7674  -29.7886 H   0  0  0  0  0  0  0  0  0  0  0  0
   -5.7011   23.5293  -28.5048 H   0  0  0  0  0  0  0  0  0  0  0  0
   -4.1864   21.9281  -29.6746 H   0  0  0  0  0  0  0  0  0  0  0  0
   -6.9851   21.0659  -33.5823 H   0  0  0  0  0  0  0  0  0  0  0  0
   -9.2617   20.1648  -33.1042 H   0  0  0  0  0  0  0  0  0  0  0  0
   -9.5261   18.0801  -31.7562 H   0  0  0  0  0  0  0  0  0  0  0  0
   -7.5101   16.8755  -30.9096 H   0  0  0  0  0  0  0  0  0  0  0  0
   -5.2287   17.7629  -31.3932 H   0  0  0  0  0  0  0  0  0  0  0  0
   -1.9633   17.9223  -34.9211 H   0  0  0  0  0  0  0  0  0  0  0  0
  1  2  1  0
  2  3  1  0
  3  4  1  0
  4  5  1  0
  5  6  1  0
  6  7  1  0
  7  8  1  0
  8  9  1  0
  8 10  1  0
 10 11  2  0
 11 12  1  0
 12 13  2  0
 13 14  1  0
 14 15  1  0
 15 16  2  0
 16 17  1  0
 17 18  2  0
 18 19  1  0
 19 20  2  0
 14 21  2  0
 21 22  1  0
 22 23  2  0
 23 24  1  0
 24 25  2  0
 25 26  1  0
 26 27  2  0
 21 28  1  0
 28 29  2  0
 29 30  1  0
 30 31  2  0
 31 10  1  0
 29 12  1  0
 20 15  1  0
 27 22  1  0
  1 32  1  0
  1 33  1  0
  1 34  1  0
  2 35  1  0
  2 36  1  0
  3 37  1  0
  3 38  1  0
  4 39  1  0
  4 40  1  0
  5 41  1  0
  6 42  1  0
  6 43  1  0
  7 44  1  0
  7 45  1  0
  9 46  1  0
  9 47  1  0
  9 48  1  0
 11 49  1  0
 13 50  1  0
 16 51  1  0
 17 52  1  0
 18 53  1  0
 19 54  1  0
 20 55  1  0
 23 56  1  0
 24 57  1  0
 25 58  1  0
 26 59  1  0
 27 60  1  0
 30 61  1  0
M  CHG  1  13   1
M  END
>  <UniqueID>  (17) 
15

>  <SMILES>  (17) 
CCCCNCCN(C)c1cc2[nH+]c(-c3ccccc3)c(-c3ccccc3)nc2cn1

>  <Energy>  (17) 
70.84029202767233

>  <Genealogy>  (17) 
CCCCNCCN(C)c1cc2[nH+]c(-c3ccccc3)c(-c3ccccc3)nc2cn1 (protonated)
CCCCNCCN(C)c1cc2[nH+]c(-c3ccccc3)c(-c3ccccc3)nc2cn1 (3D coordinates assigned)
CCCCNCCN(C)c1cc2[nH+]c(-c3ccccc3)c(-c3ccccc3)nc2cn1 (optimized conformer: 70.84029202767233 kcal/mol)

>  <smiles>  (17) 
CCCCNCCN(C)c1cc2nc(-c3ccccc3)c(-c3ccccc3)nc2cn1

>  <score_type>  (17) 
oracle

>  <origin>  (17) 
adg

>  <m_score__min__energy>  (17) 
-7.8600000000000003

>  <m_primary>  (17) 
energy

$$$$
17:0
     RDKit          3D

 32 33  0  0  0  0  0  0  0  0999 V2000
   -2.2590   24.8600  -28.6600 C   0  0  0  0  0  0  0  0  0  0  0  0
   -3.1120   25.2870  -29.7160 O   0  0  0  0  0  0  0  0  0  0  0  0
   -4.2270   24.5690  -30.1720 C   0  0  0  0  0  0  0  0  0  0  0  0
   -5.4750   25.1950  -30.1720 C   0  0  0  0  0  0  0  0  0  0  0  0
   -6.6060   24.5130  -30.6180 C   0  0  0  0  0  0  0  0  0  0  0  0
   -6.4850   23.1880  -31.0750 C   0  0  0  0  0  0  0  0  0  0  0  0
   -7.6230   22.4350  -31.5440 N   0  0  0  0  0  0  0  0  0  0  0  0
   -7.6780   20.9740  -31.6590 C   0  0  1  0  0  0  0  0  0  0  0  0
   -9.0300   20.5540  -32.2730 C   0  0  0  0  0  0  0  0  0  0  0  0
   -9.1420   19.0240  -32.3360 C   0  0  0  0  0  0  0  0  0  0  0  0
   -7.7640   18.3550  -32.4220 C   0  0  0  0  0  0  0  0  0  0  0  0
   -6.7510   19.2910  -33.0980 C   0  0  0  0  0  0  0  0  0  0  0  0
   -6.5610   20.5350  -32.4290 O   0  0  0  0  0  0  0  0  0  0  0  0
   -5.2560   22.5930  -31.0640 N   0  0  0  0  0  0  0  0  0  0  0  0
   -4.1410   23.2430  -30.6310 C   0  0  0  0  0  0  0  0  0  0  0  0
   -2.7274   25.0945  -27.6927 H   0  0  0  0  0  0  0  0  0  0  0  0
   -2.0972   23.7746  -28.7355 H   0  0  0  0  0  0  0  0  0  0  0  0
   -1.2931   25.3809  -28.7355 H   0  0  0  0  0  0  0  0  0  0  0  0
   -5.5663   26.2325  -29.8180 H   0  0  0  0  0  0  0  0  0  0  0  0
   -7.5881   25.0084  -30.6126 H   0  0  0  0  0  0  0  0  0  0  0  0
   -8.4740   22.9700  -31.8290 H   0  0  0  0  0  0  0  0  0  0  0  0
   -7.6144   20.4954  -30.6706 H   0  0  0  0  0  0  0  0  0  0  0  0
   -9.8475   20.9513  -31.6535 H   0  0  0  0  0  0  0  0  0  0  0  0
   -9.0966   20.9571  -33.2943 H   0  0  0  0  0  0  0  0  0  0  0  0
   -9.6553   18.6670  -31.4310 H   0  0  0  0  0  0  0  0  0  0  0  0
   -9.7076   18.7595  -33.2416 H   0  0  0  0  0  0  0  0  0  0  0  0
   -7.4141   18.1158  -31.4069 H   0  0  0  0  0  0  0  0  0  0  0  0
   -7.8522   17.4359  -33.0200 H   0  0  0  0  0  0  0  0  0  0  0  0
   -5.7815   18.7733  -33.1436 H   0  0  0  0  0  0  0  0  0  0  0  0
   -7.1577   19.5282  -34.0921 H   0  0  0  0  0  0  0  0  0  0  0  0
   -5.1560   21.6090  -31.3990 H   0  0  0  0  0  0  0  0  0  0  0  0
   -3.1687   22.7286  -30.6403 H   0  0  0  0  0  0  0  0  0  0  0  0
  1  2  1  0
  2  3  1  0
  3  4  2  0
  4  5  1  0
  5  6  2  0
  6  7  1  0
  7  8  1  0
  8  9  1  0
  9 10  1  0
 10 11  1  0
 11 12  1  0
 12 13  1  0
  6 14  1  0
 14 15  2  0
 15  3  1  0
 13  8  1  0
  1 16  1  0
  1 17  1  0
  1 18  1  0
  4 19  1  0
  5 20  1  0
  7 21  1  0
  8 22  1  1
  9 23  1  0
  9 24  1  0
 10 25  1  0
 10 26  1  0
 11 27  1  0
 11 28  1  0
 12 29  1  0
 12 30  1  0
 14 31  1  0
 15 32  1  0
M  CHG  1  14   1
M  END
>  <UniqueID>  (18) 
16

>  <SMILES>  (18) 
COc1ccc(N[C@H]2CCCCO2)[nH+]c1

>  <Energy>  (18) 
40.08103788975543

>  <Genealogy>  (18) 
COc1ccc(NC2CCCCO2)[nH+]c1 (protonated)
COc1ccc(N[C@H]2CCCCO2)[nH+]c1 (chirality)
COc1ccc(N[C@H]2CCCCO2)[nH+]c1 (3D coordinates assigned)
COc1ccc(N[C@H]2CCCCO2)[nH+]c1 (nonaromatic ring conformer: 40.08103788975543 kcal/mol)

>  <smiles>  (18) 
COc1ccc(NC2CCCCO2)nc1

>  <score_type>  (18) 
oracle

>  <origin>  (18) 
adg

>  <m_score__min__energy>  (18) 
-5.4500000000000002

>  <m_primary>  (18) 
energy

$$$$
18:0
     RDKit          3D

 59 63  0  0  0  0  0  0  0  0999 V2000
   -6.5576   14.2594  -34.0041 H   0  0  0  0  0  0  0  0  0  0  0  0
   -6.0780   15.2430  -33.8920 C   0  0  0  0  0  0  0  0  0  0  0  0
   -4.7280   15.3440  -33.9120 N   0  0  0  0  0  0  0  0  0  0  0  0
   -4.1260   16.5560  -33.7730 C   0  0  0  0  0  0  0  0  0  0  0  0
   -2.6890   16.6580  -33.8370 N   0  0  0  0  0  0  0  0  0  0  0  0
   -1.8690   15.7480  -33.0300 C   0  0  0  0  0  0  0  0  0  0  0  0
   -2.0460   15.9444  -31.9622 H   0  0  0  0  0  0  0  0  0  0  0  0
   -2.1403   14.7074  -33.2613 H   0  0  0  0  0  0  0  0  0  0  0  0
   -0.8058   15.9098  -33.2613 H   0  0  0  0  0  0  0  0  0  0  0  0
   -2.0450   17.6600  -34.7020 C   0  0  0  0  0  0  0  0  0  0  0  0
   -1.0969   17.2500  -35.0801 H   0  0  0  0  0  0  0  0  0  0  0  0
   -2.7288   17.8915  -35.5319 H   0  0  0  0  0  0  0  0  0  0  0  0
   -1.7620   18.9380  -33.9490 C   0  0  0  0  0  0  0  0  0  0  0  0
   -2.2560   19.1430  -32.6490 C   0  0  0  0  0  0  0  0  0  0  0  0
   -2.8591   18.3625  -32.1621 H   0  0  0  0  0  0  0  0  0  0  0  0
   -1.9830   20.3360  -31.9730 C   0  0  0  0  0  0  0  0  0  0  0  0
   -2.3651   20.4872  -30.9526 H   0  0  0  0  0  0  0  0  0  0  0  0
   -1.2260   21.3380  -32.5890 C   0  0  0  0  0  0  0  0  0  0  0  0
   -1.0002   22.2676  -32.0459 H   0  0  0  0  0  0  0  0  0  0  0  0
   -0.7520   21.1590  -33.9040 C   0  0  0  0  0  0  0  0  0  0  0  0
    0.0050   22.1280  -34.5830 O   0  0  0  0  0  0  0  0  0  0  0  0
    1.2410   21.8910  -35.2520 C   0  0  0  0  0  0  0  0  0  0  0  0
    1.8970   23.0860  -35.4770 F   0  0  0  0  0  0  0  0  0  0  0  0
    0.9830   21.2860  -36.4680 F   0  0  0  0  0  0  0  0  0  0  0  0
    2.0380   21.0510  -34.4970 F   0  0  0  0  0  0  0  0  0  0  0  0
   -1.0420   19.9650  -34.5750 C   0  0  0  0  0  0  0  0  0  0  0  0
   -0.6989   19.8304  -35.6114 H   0  0  0  0  0  0  0  0  0  0  0  0
   -4.8960   17.6680  -33.6040 N   0  0  0  0  0  0  0  0  0  0  0  0
   -6.2530   17.5690  -33.5840 C   0  0  0  0  0  0  0  0  0  0  0  0
   -7.0120   18.6170  -33.4560 N   0  0  0  0  0  0  0  0  0  0  0  0
   -6.6970   19.8480  -32.7900 C   0  0  0  0  0  0  0  0  0  0  0  0
   -7.5500   20.5310  -31.9870 N   0  0  0  0  0  0  0  0  0  0  0  0
   -6.9850   21.6970  -31.5720 C   0  0  0  0  0  0  0  0  0  0  0  0
   -7.6090   22.6320  -30.7490 C   0  0  0  0  0  0  0  0  0  0  0  0
   -8.6337   22.4609  -30.3875 H   0  0  0  0  0  0  0  0  0  0  0  0
   -6.9110   23.7970  -30.3870 C   0  0  0  0  0  0  0  0  0  0  0  0
   -7.3865   24.5300  -29.7187 H   0  0  0  0  0  0  0  0  0  0  0  0
   -5.6040   24.0380  -30.8720 C   0  0  0  0  0  0  0  0  0  0  0  0
   -4.8860   25.2830  -30.5120 C   0  0  0  0  0  0  0  0  0  0  0  0
   -5.5050   26.3810  -30.4970 O   0  0  0  0  0  0  0  0  0  0  0  0
   -3.4930   25.2460  -30.1830 N   0  0  0  0  0  0  0  0  0  0  0  0
   -2.8290   24.0880  -29.5930 C   0  0  0  0  0  0  0  0  0  0  0  0
   -3.5241   23.5771  -28.9104 H   0  0  0  0  0  0  0  0  0  0  0  0
   -2.5216   23.3990  -30.3935 H   0  0  0  0  0  0  0  0  0  0  0  0
   -1.6120   24.5330  -28.8260 C   0  0  0  0  0  0  0  0  0  0  0  0
   -0.3840   23.8680  -28.9870 C   0  0  0  0  0  0  0  0  0  0  0  0
   -0.2952   23.0516  -29.7189 H   0  0  0  0  0  0  0  0  0  0  0  0
    0.6960   24.2300  -28.2410 N   0  0  0  0  0  0  0  0  0  0  0  0
    0.6290   25.2310  -27.3180 C   0  0  0  0  0  0  0  0  0  0  0  0
    1.5196   25.5010  -26.7316 H   0  0  0  0  0  0  0  0  0  0  0  0
   -0.5740   25.9130  -27.1190 C   0  0  0  0  0  0  0  0  0  0  0  0
   -0.6377   26.7181  -26.3722 H   0  0  0  0  0  0  0  0  0  0  0  0
   -1.6970   25.5640  -27.8770 C   0  0  0  0  0  0  0  0  0  0  0  0
   -2.6473   26.0979  -27.7292 H   0  0  0  0  0  0  0  0  0  0  0  0
   -4.9980   23.0890  -31.7240 C   0  0  0  0  0  0  0  0  0  0  0  0
   -3.9869   23.2568  -32.1235 H   0  0  0  0  0  0  0  0  0  0  0  0
   -5.7080   21.9370  -32.0470 C   0  0  0  0  0  0  0  0  0  0  0  0
   -5.2390   20.6660  -33.0340 S   0  0  0  0  0  0  0  0  0  0  0  0
   -6.8380   16.3530  -33.7340 N   0  0  0  0  0  0  0  0  0  0  0  0
  1  2  1  0
  2  3  2  0
  3  4  1  0
  4  5  1  0
  5  6  1  0
  6  7  1  0
  6  8  1  0
  6  9  1  0
  5 10  1  0
 10 11  1  0
 10 12  1  0
 10 13  1  0
 13 14  2  0
 14 15  1  0
 14 16  1  0
 16 17  1  0
 16 18  2  0
 18 19  1  0
 18 20  1  0
 20 21  1  0
 21 22  1  0
 22 23  1  0
 22 24  1  0
 22 25  1  0
 20 26  2  0
 26 27  1  0
  4 28  2  0
 28 29  1  0
 29 30  2  0
 30 31  1  0
 31 32  2  0
 32 33  1  0
 33 34  2  0
 34 35  1  0
 34 36  1  0
 36 37  1  0
 36 38  2  0
 38 39  1  0
 39 40  2  0
 39 41  1  0
 41 42  1  0
 42 43  1  0
 42 44  1  0
 42 45  1  0
 45 46  2  0
 46 47  1  0
 46 48  1  0
 48 49  2  0
 49 50  1  0
 49 51  1  0
 51 52  1  0
 51 53  2  0
 53 54  1  0
 38 55  1  0
 55 56  1  0
 55 57  2  0
 57 58  1  0
 29 59  1  0
 59  2  1  0
 26 13  1  0
 58 31  1  0
 57 33  1  0
 53 45  1  0
M  CHG  2  41  -1  59  -1
M  END
>  <UniqueID>  (19) 
17

>  <SMILES>  (19) 
CN(Cc1cccc(OC(F)(F)F)c1)c1nc[n-]/c(=N/c2nc3ccc(C(=O)[N-]Cc4cccnc4)cc3s2)n1

>  <Energy>  (19) 
98.57095957181157

>  <Genealogy>  (19) 
CN(Cc1cccc(OC(F)(F)F)c1)c1nc[n-]c(=Nc2nc3ccc(C(=O)[N-]Cc4cccnc4)cc3s2)n1 (protonated)
CN(Cc1cccc(OC(F)(F)F)c1)c1nc[n-]/c(=N/c2nc3ccc(C(=O)[N-]Cc4cccnc4)cc3s2)n1 (cis-trans isomerization)
CN(Cc1cccc(OC(F)(F)F)c1)c1nc[n-]/c(=N/c2nc3ccc(C(=O)[N-]Cc4cccnc4)cc3s2)n1 (3D coordinates assigned)
CN(Cc1cccc(OC(F)(F)F)c1)c1nc[n-]/c(=N/c2nc3ccc(C(=O)[N-]Cc4cccnc4)cc3s2)n1 (optimized conformer: 98.57095957181157 kcal/mol)

>  <smiles>  (19) 
CN(Cc1cccc(OC(F)(F)F)c1)c1nc[nH]c(=Nc2nc3ccc(C(=O)NCc4cccnc4)cc3s2)n1

>  <score_type>  (19) 
oracle

>  <origin>  (19) 
adg

>  <m_score__min__energy>  (19) 
-11.69

>  <m_primary>  (19) 
energy

$$$$
19:0
     RDKit          3D

 44 47  0  0  0  0  0  0  0  0999 V2000
   -3.8250   25.2570  -30.6570 O   0  0  0  0  0  0  0  0  0  0  0  0
   -4.4140   24.4270  -29.9120 C   0  0  0  0  0  0  0  0  0  0  0  0
   -5.8770   24.1830  -30.1550 C   0  0  0  0  0  0  0  0  0  0  0  0
   -6.2070   24.1900  -31.9480 S   0  0  0  0  0  0  0  0  0  0  0  0
   -6.7760   22.4930  -31.9660 C   0  0  0  0  0  0  0  0  0  0  0  0
   -8.0940   22.1640  -31.9540 N   0  0  0  0  0  0  0  0  0  0  0  0
   -8.0520   20.8240  -31.9730 C   0  0  0  0  0  0  0  0  0  0  0  0
   -9.1260   19.9380  -31.9650 C   0  0  0  0  0  0  0  0  0  0  0  0
   -8.8370   18.5590  -31.9740 C   0  0  0  0  0  0  0  0  0  0  0  0
   -7.4960   18.1100  -32.0010 C   0  0  0  0  0  0  0  0  0  0  0  0
   -6.4360   19.0360  -32.0120 C   0  0  0  0  0  0  0  0  0  0  0  0
   -6.7610   20.3920  -31.9970 C   0  0  0  0  0  0  0  0  0  0  0  0
   -5.9210   21.4370  -31.9960 N   0  0  0  0  0  0  0  0  0  0  0  0
   -3.6600   23.7180  -28.8980 N   0  0  0  0  0  0  0  0  0  0  0  0
   -2.2200   24.0070  -28.7730 C   0  0  0  0  0  0  0  0  0  0  0  0
   -1.5710   23.2040  -27.6430 C   0  0  0  0  0  0  0  0  0  0  0  0
   -2.0150   21.8070  -27.7160 N   0  0  0  0  0  0  0  0  0  0  0  0
   -1.0570   20.7360  -27.7740 C   0  0  0  0  0  0  0  0  0  0  0  0
    0.2660   20.9870  -28.1750 C   0  0  0  0  0  0  0  0  0  0  0  0
    1.1950   19.9400  -28.2380 C   0  0  0  0  0  0  0  0  0  0  0  0
    0.8090   18.6420  -27.8920 C   0  0  0  0  0  0  0  0  0  0  0  0
   -0.5000   18.3860  -27.4820 C   0  0  0  0  0  0  0  0  0  0  0  0
   -1.4320   19.4280  -27.4230 C   0  0  0  0  0  0  0  0  0  0  0  0
   -3.4490   21.5030  -27.8240 C   0  0  0  0  0  0  0  0  0  0  0  0
   -4.2900   22.7800  -27.9490 C   0  0  0  0  0  0  0  0  0  0  0  0
   -6.1605   23.2070  -29.7342 H   0  0  0  0  0  0  0  0  0  0  0  0
   -6.4655   24.9767  -29.6716 H   0  0  0  0  0  0  0  0  0  0  0  0
  -10.1640   20.3019  -31.9521 H   0  0  0  0  0  0  0  0  0  0  0  0
   -9.6586   17.8277  -31.9600 H   0  0  0  0  0  0  0  0  0  0  0  0
   -7.2804   17.0314  -32.0135 H   0  0  0  0  0  0  0  0  0  0  0  0
   -5.3882   18.7018  -32.0317 H   0  0  0  0  0  0  0  0  0  0  0  0
   -1.7229   23.7524  -29.7207 H   0  0  0  0  0  0  0  0  0  0  0  0
   -2.1066   25.0759  -28.5394 H   0  0  0  0  0  0  0  0  0  0  0  0
   -0.4766   23.2464  -27.7451 H   0  0  0  0  0  0  0  0  0  0  0  0
   -1.8664   23.6318  -26.6736 H   0  0  0  0  0  0  0  0  0  0  0  0
    0.5736   22.0092  -28.4405 H   0  0  0  0  0  0  0  0  0  0  0  0
    2.2278   20.1395  -28.5597 H   0  0  0  0  0  0  0  0  0  0  0  0
    1.5387   17.8205  -27.9430 H   0  0  0  0  0  0  0  0  0  0  0  0
   -0.7994   17.3644  -27.2050 H   0  0  0  0  0  0  0  0  0  0  0  0
   -2.4633   19.2223  -27.1003 H   0  0  0  0  0  0  0  0  0  0  0  0
   -3.6152   20.8778  -28.7137 H   0  0  0  0  0  0  0  0  0  0  0  0
   -3.7584   20.9758  -26.9095 H   0  0  0  0  0  0  0  0  0  0  0  0
   -5.2953   22.5183  -28.3109 H   0  0  0  0  0  0  0  0  0  0  0  0
   -4.3579   23.2614  -26.9623 H   0  0  0  0  0  0  0  0  0  0  0  0
  1  2  2  0
  2  3  1  0
  3  4  1  0
  4  5  1  0
  5  6  2  0
  6  7  1  0
  7  8  2  0
  8  9  1  0
  9 10  2  0
 10 11  1  0
 11 12  2  0
 12 13  1  0
  2 14  1  0
 14 15  1  0
 15 16  1  0
 16 17  1  0
 17 18  1  0
 18 19  2  0
 19 20  1  0
 20 21  2  0
 21 22  1  0
 22 23  2  0
 17 24  1  0
 24 25  1  0
 13  5  1  0
 25 14  1  0
 12  7  1  0
 23 18  1  0
  3 26  1  0
  3 27  1  0
  8 28  1  0
  9 29  1  0
 10 30  1  0
 11 31  1  0
 15 32  1  0
 15 33  1  0
 16 34  1  0
 16 35  1  0
 19 36  1  0
 20 37  1  0
 21 38  1  0
 22 39  1  0
 23 40  1  0
 24 41  1  0
 24 42  1  0
 25 43  1  0
 25 44  1  0
M  CHG  1  13  -1
M  END
>  <UniqueID>  (20) 
18

>  <SMILES>  (20) 
O=C(CSc1nc2ccccc2[n-]1)N1CCN(c2ccccc2)CC1

>  <Energy>  (20) 
83.34470779804607

>  <Genealogy>  (20) 
O=C(CSc1nc2ccccc2[n-]1)N1CCN(c2ccccc2)CC1 (protonated)
O=C(CSc1nc2ccccc2[n-]1)N1CCN(c2ccccc2)CC1 (3D coordinates assigned)
O=C(CSc1nc2ccccc2[n-]1)N1CCN(c2ccccc2)CC1 (nonaromatic ring conformer: 83.34470779804607 kcal/mol)

>  <smiles>  (20) 
O=C(CSc1nc2ccccc2[nH]1)N1CCN(c2ccccc2)CC1

>  <score_type>  (20) 
oracle

>  <origin>  (20) 
adg

>  <m_score__min__energy>  (20) 
-9.1600000000000001

>  <m_primary>  (20) 
energy

$$$$
20:0
     RDKit          3D

 52 56  0  0  0  0  0  0  0  0999 V2000
   -6.6850   15.6610  -34.2180 C   0  0  0  0  0  0  0  0  0  0  0  0
   -6.4830   16.9990  -34.6620 O   0  0  0  0  0  0  0  0  0  0  0  0
   -5.9860   18.0340  -33.8550 C   0  0  0  0  0  0  0  0  0  0  0  0
   -4.6560   18.4300  -34.0250 C   0  0  0  0  0  0  0  0  0  0  0  0
   -4.1130   19.4550  -33.2470 C   0  0  0  0  0  0  0  0  0  0  0  0
   -4.8960   20.1090  -32.2760 C   0  0  0  0  0  0  0  0  0  0  0  0
   -4.3550   21.1720  -31.4650 N   0  0  0  0  0  0  0  0  0  0  0  0
   -3.5060   21.0400  -30.4080 C   0  0  0  0  0  0  0  0  0  0  0  0
   -3.2640   22.3030  -29.9380 C   0  0  0  0  0  0  0  0  0  0  0  0
   -2.5020   22.7300  -28.9030 N   0  0  0  0  0  0  0  0  0  0  0  0
   -2.4500   24.0780  -28.6560 C   0  0  0  0  0  0  0  0  0  0  0  0
   -1.6260   24.5940  -27.5060 C   0  0  0  0  0  0  0  0  0  0  0  0
   -0.5700   23.5530  -27.0670 C   0  0  0  0  0  0  0  0  0  0  0  0
   -0.3230   23.5580  -25.5450 C   0  0  0  0  0  0  0  0  0  0  0  0
   -0.3750   24.9170  -24.9690 N   0  0  0  0  0  0  0  0  0  0  0  0
    0.7810   25.7420  -25.3800 C   0  0  0  0  0  0  0  0  0  0  0  0
    0.3510   27.1580  -25.6100 C   0  0  0  0  0  0  0  0  0  0  0  0
    0.2580   28.1470  -24.6390 C   0  0  0  0  0  0  0  0  0  0  0  0
   -0.1870   29.3730  -25.1450 C   0  0  0  0  0  0  0  0  0  0  0  0
   -0.4450   29.3530  -26.5110 C   0  0  0  0  0  0  0  0  0  0  0  0
   -0.1200   27.8060  -27.0880 S   0  0  0  0  0  0  0  0  0  0  0  0
   -1.6820   25.5990  -25.1800 C   0  0  0  0  0  0  0  0  0  0  0  0
   -2.5230   25.0090  -26.3310 C   0  0  0  0  0  0  0  0  0  0  0  0
   -3.1690   24.9510  -29.4380 N   0  0  0  0  0  0  0  0  0  0  0  0
   -3.9370   24.5110  -30.4770 C   0  0  0  0  0  0  0  0  0  0  0  0
   -4.5890   25.3240  -31.1850 O   0  0  0  0  0  0  0  0  0  0  0  0
   -3.9750   23.1470  -30.7200 C   0  0  0  0  0  0  0  0  0  0  0  0
   -4.6470   22.4590  -31.6580 N   0  0  0  0  0  0  0  0  0  0  0  0
   -6.2360   19.7120  -32.1130 C   0  0  0  0  0  0  0  0  0  0  0  0
   -6.7770   18.6860  -32.8920 C   0  0  0  0  0  0  0  0  0  0  0  0
   -6.6887   15.6362  -33.1183 H   0  0  0  0  0  0  0  0  0  0  0  0
   -7.6492   15.2907  -34.5964 H   0  0  0  0  0  0  0  0  0  0  0  0
   -5.8731   15.0226  -34.5964 H   0  0  0  0  0  0  0  0  0  0  0  0
   -4.0309   17.9293  -34.7791 H   0  0  0  0  0  0  0  0  0  0  0  0
   -3.0647   19.7541  -33.3939 H   0  0  0  0  0  0  0  0  0  0  0  0
   -3.0946   20.1009  -30.0094 H   0  0  0  0  0  0  0  0  0  0  0  0
   -1.0872   25.4896  -27.8489 H   0  0  0  0  0  0  0  0  0  0  0  0
   -0.9183   22.5526  -27.3633 H   0  0  0  0  0  0  0  0  0  0  0  0
    0.3787   23.8165  -27.5574 H   0  0  0  0  0  0  0  0  0  0  0  0
   -1.0929   22.9396  -25.0605 H   0  0  0  0  0  0  0  0  0  0  0  0
    0.6864   23.1581  -25.3685 H   0  0  0  0  0  0  0  0  0  0  0  0
    1.5441   25.7182  -24.5881 H   0  0  0  0  0  0  0  0  0  0  0  0
    1.1964   25.3370  -26.3146 H   0  0  0  0  0  0  0  0  0  0  0  0
    0.5086   27.9830  -23.5806 H   0  0  0  0  0  0  0  0  0  0  0  0
   -0.3203   30.2688  -24.5207 H   0  0  0  0  0  0  0  0  0  0  0  0
   -0.8007   30.2030  -27.1118 H   0  0  0  0  0  0  0  0  0  0  0  0
   -2.2658   25.5215  -24.2509 H   0  0  0  0  0  0  0  0  0  0  0  0
   -1.4555   26.6398  -25.4545 H   0  0  0  0  0  0  0  0  0  0  0  0
   -3.0674   24.1265  -25.9639 H   0  0  0  0  0  0  0  0  0  0  0  0
   -3.2288   25.7768  -26.6809 H   0  0  0  0  0  0  0  0  0  0  0  0
   -6.8648   20.2151  -31.3637 H   0  0  0  0  0  0  0  0  0  0  0  0
   -7.8262   18.3869  -32.7515 H   0  0  0  0  0  0  0  0  0  0  0  0
  1  2  1  0
  2  3  1  0
  3  4  2  0
  4  5  1  0
  5  6  2  0
  6  7  1  0
  7  8  1  0
  8  9  2  0
  9 10  1  0
 10 11  1  0
 11 12  1  0
 12 13  1  0
 13 14  1  0
 14 15  1  0
 15 16  1  0
 16 17  1  0
 17 18  2  0
 18 19  1  0
 19 20  2  0
 20 21  1  0
 15 22  1  0
 22 23  1  0
 11 24  2  0
 24 25  1  0
 25 26  2  0
 25 27  1  0
 27 28  2  0
  6 29  1  0
 29 30  2  0
 30  3  1  0
 28  7  1  0
 27  9  1  0
 23 12  1  0
 21 17  1  0
  1 31  1  0
  1 32  1  0
  1 33  1  0
  4 34  1  0
  5 35  1  0
  8 36  1  0
 12 37  1  0
 13 38  1  0
 13 39  1  0
 14 40  1  0
 14 41  1  0
 16 42  1  0
 16 43  1  0
 18 44  1  0
 19 45  1  0
 20 46  1  0
 22 47  1  0
 22 48  1  0
 23 49  1  0
 23 50  1  0
 29 51  1  0
 30 52  1  0
M  CHG  1  10  -1
M  END
>  <UniqueID>  (21) 
19

>  <SMILES>  (21) 
COc1ccc(-n2cc3[n-]c(C4CCN(Cc5cccs5)CC4)nc(=O)c3n2)cc1

>  <Energy>  (21) 
135.6421689310979

>  <Genealogy>  (21) 
COc1ccc(-n2cc3[n-]c(C4CCN(Cc5cccs5)CC4)nc(=O)c3n2)cc1 (protonated)
COc1ccc(-n2cc3[n-]c(C4CCN(Cc5cccs5)CC4)nc(=O)c3n2)cc1 (3D coordinates assigned)
COc1ccc(-n2cc3[n-]c(C4CCN(Cc5cccs5)CC4)nc(=O)c3n2)cc1 (nonaromatic ring conformer: 135.6421689310979 kcal/mol)

>  <smiles>  (21) 
COc1ccc(-n2cc3[nH]c(C4CCN(Cc5cccs5)CC4)nc(=O)c3n2)cc1

>  <score_type>  (21) 
oracle

>  <origin>  (21) 
adg

>  <m_score__min__energy>  (21) 
-9.6500000000000004

>  <m_primary>  (21) 
energy

$$$$
21:0
     RDKit          3D

 30 32  0  0  0  0  0  0  0  0999 V2000
   -2.5790   23.0090  -29.9880 C   0  0  0  0  0  0  0  0  0  0  0  0
   -3.3800   23.8140  -30.8460 O   0  0  0  0  0  0  0  0  0  0  0  0
   -4.7830   23.8690  -30.8100 C   0  0  0  0  0  0  0  0  0  0  0  0
   -5.4680   24.8580  -30.0740 C   0  0  0  0  0  0  0  0  0  0  0  0
   -6.8630   24.9150  -30.0920 C   0  0  0  0  0  0  0  0  0  0  0  0
   -7.5920   23.9930  -30.8430 C   0  0  0  0  0  0  0  0  0  0  0  0
   -6.9290   23.0030  -31.5710 C   0  0  0  0  0  0  0  0  0  0  0  0
   -5.5270   22.9200  -31.5450 C   0  0  0  0  0  0  0  0  0  0  0  0
   -4.8580   21.8570  -32.3270 C   0  0  0  0  0  0  0  0  0  0  0  0
   -3.7440   22.1680  -33.0420 N   0  0  0  0  0  0  0  0  0  0  0  0
   -3.0900   21.2590  -33.7700 N   0  0  0  0  0  0  0  0  0  0  0  0
   -3.5130   19.9700  -33.8390 C   0  0  0  0  0  0  0  0  0  0  0  0
   -4.6630   19.5850  -33.1470 C   0  0  0  0  0  0  0  0  0  0  0  0
   -5.1510   18.2730  -33.2060 C   0  0  0  0  0  0  0  0  0  0  0  0
   -6.3200   17.9390  -32.5170 C   0  0  0  0  0  0  0  0  0  0  0  0
   -6.9870   18.9210  -31.7800 C   0  0  0  0  0  0  0  0  0  0  0  0
   -6.4980   20.1880  -31.7310 N   0  0  0  0  0  0  0  0  0  0  0  0
   -5.3530   20.5420  -32.3820 C   0  0  0  0  0  0  0  0  0  0  0  0
   -2.8136   23.2448  -28.9395 H   0  0  0  0  0  0  0  0  0  0  0  0
   -2.7888   21.9465  -30.1807 H   0  0  0  0  0  0  0  0  0  0  0  0
   -1.5155   23.2135  -30.1807 H   0  0  0  0  0  0  0  0  0  0  0  0
   -4.8992   25.5897  -29.4815 H   0  0  0  0  0  0  0  0  0  0  0  0
   -7.3882   25.6887  -29.5127 H   0  0  0  0  0  0  0  0  0  0  0  0
   -8.6906   24.0459  -30.8618 H   0  0  0  0  0  0  0  0  0  0  0  0
   -7.5082   22.2836  -32.1686 H   0  0  0  0  0  0  0  0  0  0  0  0
   -2.2370   21.5470  -34.2980 H   0  0  0  0  0  0  0  0  0  0  0  0
   -2.9535   19.2347  -34.4358 H   0  0  0  0  0  0  0  0  0  0  0  0
   -4.6169   17.5101  -33.7914 H   0  0  0  0  0  0  0  0  0  0  0  0
   -6.7117   16.9118  -32.5545 H   0  0  0  0  0  0  0  0  0  0  0  0
   -7.9102   18.6679  -31.2381 H   0  0  0  0  0  0  0  0  0  0  0  0
  1  2  1  0
  2  3  1  0
  3  4  2  0
  4  5  1  0
  5  6  2  0
  6  7  1  0
  7  8  2  0
  8  9  1  0
  9 10  2  0
 10 11  1  0
 11 12  2  0
 12 13  1  0
 13 14  2  0
 14 15  1  0
 15 16  2  0
 16 17  1  0
 17 18  2  0
  8  3  1  0
 18  9  1  0
 18 13  1  0
  1 19  1  0
  1 20  1  0
  1 21  1  0
  4 22  1  0
  5 23  1  0
  6 24  1  0
  7 25  1  0
 11 26  1  0
 12 27  1  0
 14 28  1  0
 15 29  1  0
 16 30  1  0
M  CHG  1  11   1
M  END
>  <UniqueID>  (22) 
20

>  <SMILES>  (22) 
COc1ccccc1-c1n[nH+]cc2cccnc12

>  <Energy>  (22) 
42.95077109892915

>  <Genealogy>  (22) 
COc1ccccc1-c1n[nH+]cc2cccnc12 (protonated)
COc1ccccc1-c1n[nH+]cc2cccnc12 (3D coordinates assigned)
COc1ccccc1-c1n[nH+]cc2cccnc12 (optimized conformer: 42.95077109892915 kcal/mol)

>  <smiles>  (22) 
COc1ccccc1-c1nncc2cccnc12

>  <score_type>  (22) 
oracle

>  <origin>  (22) 
adg

>  <m_score__min__energy>  (22) 
-6.5700000000000003

>  <m_primary>  (22) 
energy

$$$$
22:0
     RDKit          3D

 32 34  0  0  0  0  0  0  0  0999 V2000
   -5.9340   25.4940  -29.3050 O   0  0  0  0  0  0  0  0  0  0  0  0
   -5.2260   25.2160  -30.3080 C   0  0  0  0  0  0  0  0  0  0  0  0
   -5.9070   24.8090  -31.5900 C   0  0  0  0  0  0  0  0  0  0  0  0
   -5.9340   23.3490  -31.7450 N   0  0  0  0  0  0  0  0  0  0  0  0
   -4.8750   22.5120  -31.9070 C   0  0  0  0  0  0  0  0  0  0  0  0
   -3.6770   22.9010  -31.9440 O   0  0  0  0  0  0  0  0  0  0  0  0
   -5.2320   21.2130  -32.0340 N   0  0  0  0  0  0  0  0  0  0  0  0
   -6.5740   21.2400  -31.9620 C   0  0  0  0  0  0  0  0  0  0  0  0
   -7.4610   20.1700  -32.0460 C   0  0  0  0  0  0  0  0  0  0  0  0
   -8.8360   20.4530  -31.9580 C   0  0  0  0  0  0  0  0  0  0  0  0
   -9.2850   21.7840  -31.7970 C   0  0  0  0  0  0  0  0  0  0  0  0
   -8.3620   22.8440  -31.7170 C   0  0  0  0  0  0  0  0  0  0  0  0
   -7.0040   22.5290  -31.7980 C   0  0  0  0  0  0  0  0  0  0  0  0
   -3.7980   25.2510  -30.1750 N   0  0  0  0  0  0  0  0  0  0  0  0
   -3.0200   24.4130  -29.3140 C   0  0  0  0  0  0  0  0  0  0  0  0
   -3.5040   23.1660  -28.8860 C   0  0  0  0  0  0  0  0  0  0  0  0
   -2.7270   22.3600  -28.0480 C   0  0  0  0  0  0  0  0  0  0  0  0
   -1.4600   22.7900  -27.6440 C   0  0  0  0  0  0  0  0  0  0  0  0
   -0.9630   24.0180  -28.0870 C   0  0  0  0  0  0  0  0  0  0  0  0
   -1.7370   24.8250  -28.9280 C   0  0  0  0  0  0  0  0  0  0  0  0
   -1.2490   26.0200  -29.3480 F   0  0  0  0  0  0  0  0  0  0  0  0
   -6.9401   25.1867  -31.5815 H   0  0  0  0  0  0  0  0  0  0  0  0
   -5.3412   25.2350  -32.4317 H   0  0  0  0  0  0  0  0  0  0  0  0
   -4.6100   20.3840  -32.1650 H   0  0  0  0  0  0  0  0  0  0  0  0
   -7.0991   19.1395  -32.1766 H   0  0  0  0  0  0  0  0  0  0  0  0
   -9.5671   19.6331  -32.0148 H   0  0  0  0  0  0  0  0  0  0  0  0
  -10.3632   21.9928  -31.7338 H   0  0  0  0  0  0  0  0  0  0  0  0
   -8.6988   23.8840  -31.5949 H   0  0  0  0  0  0  0  0  0  0  0  0
   -4.4971   22.8223  -29.2109 H   0  0  0  0  0  0  0  0  0  0  0  0
   -3.1128   21.3880  -27.7069 H   0  0  0  0  0  0  0  0  0  0  0  0
   -0.8534   22.1606  -26.9763 H   0  0  0  0  0  0  0  0  0  0  0  0
    0.0377   24.3508  -27.7744 H   0  0  0  0  0  0  0  0  0  0  0  0
  1  2  2  0
  2  3  1  0
  3  4  1  0
  4  5  1  0
  5  6  2  0
  5  7  1  0
  7  8  1  0
  8  9  2  0
  9 10  1  0
 10 11  2  0
 11 12  1  0
 12 13  2  0
  2 14  1  0
 14 15  1  0
 15 16  2  0
 16 17  1  0
 17 18  2  0
 18 19  1  0
 19 20  2  0
 20 21  1  0
 13  4  1  0
 20 15  1  0
 13  8  1  0
  3 22  1  0
  3 23  1  0
  7 24  1  0
  9 25  1  0
 10 26  1  0
 11 27  1  0
 12 28  1  0
 16 29  1  0
 17 30  1  0
 18 31  1  0
 19 32  1  0
M  CHG  1  14  -1
M  END
>  <UniqueID>  (23) 
21

>  <SMILES>  (23) 
O=C(Cn1c(=O)[nH]c2ccccc21)[N-]c1ccccc1F

>  <Energy>  (23) 
77.76191016713499

>  <Genealogy>  (23) 
O=C(Cn1c(=O)[nH]c2ccccc21)[N-]c1ccccc1F (protonated)
O=C(Cn1c(=O)[nH]c2ccccc21)[N-]c1ccccc1F (3D coordinates assigned)
O=C(Cn1c(=O)[nH]c2ccccc21)[N-]c1ccccc1F (optimized conformer: 77.76191016713499 kcal/mol)

>  <smiles>  (23) 
O=C(Cn1c(=O)[nH]c2ccccc21)Nc1ccccc1F

>  <score_type>  (23) 
oracle

>  <origin>  (23) 
adg

>  <m_score__min__energy>  (23) 
-9.5600000000000005

>  <m_primary>  (23) 
energy

$$$$
23:0
     RDKit          3D

 52 55  0  0  0  0  0  0  0  0999 V2000
   -9.1120   19.6100  -31.9630 C   0  0  0  0  0  0  0  0  0  0  0  0
   -7.9550   20.2510  -32.4900 O   0  0  0  0  0  0  0  0  0  0  0  0
   -7.3550   21.3880  -31.9270 C   0  0  0  0  0  0  0  0  0  0  0  0
   -6.2550   22.0360  -32.5230 C   0  0  0  0  0  0  0  0  0  0  0  0
   -5.6900   23.1640  -31.9200 C   0  0  0  0  0  0  0  0  0  0  0  0
   -6.2130   23.6580  -30.7190 C   0  0  0  0  0  0  0  0  0  0  0  0
   -5.4470   25.0360  -29.9310 S   0  0  0  0  0  0  0  0  0  0  0  0
   -4.4920   25.6770  -30.8990 O   0  0  0  0  0  0  0  0  0  0  0  0
   -6.4740   26.0500  -29.5110 O   0  0  0  0  0  0  0  0  0  0  0  0
   -4.5770   24.4900  -28.5340 N   0  0  0  0  0  0  0  0  0  0  0  0
   -3.5840   23.4560  -28.6110 C   0  0  0  0  0  0  0  0  0  0  0  0
   -2.8860   23.0890  -27.4570 C   0  0  0  0  0  0  0  0  0  0  0  0
   -1.8690   22.1370  -27.5210 C   0  0  0  0  0  0  0  0  0  0  0  0
   -1.5410   21.5170  -28.7420 C   0  0  0  0  0  0  0  0  0  0  0  0
   -0.4690   20.6120  -28.8330 O   0  0  0  0  0  0  0  0  0  0  0  0
   -0.4920   19.2710  -28.3550 C   0  0  0  0  0  0  0  0  0  0  0  0
   -2.2880   21.8330  -29.9010 C   0  0  0  0  0  0  0  0  0  0  0  0
   -2.0270   21.1740  -31.2090 C   0  0  0  0  0  0  0  0  0  0  0  0
   -0.7560   21.0380  -31.7750 C   0  0  0  0  0  0  0  0  0  0  0  0
   -0.9140   20.2440  -33.2480 S   0  0  0  0  0  0  0  0  0  0  0  0
   -2.5720   20.0760  -33.0910 C   0  0  0  0  0  0  0  0  0  0  0  0
   -3.3220   19.5200  -33.9960 N   0  0  0  0  0  0  0  0  0  0  0  0
   -4.4470   18.6620  -33.7550 C   0  0  0  0  0  0  0  0  0  0  0  0
   -5.0180   18.6390  -32.4750 C   0  0  0  0  0  0  0  0  0  0  0  0
   -6.1610   17.8740  -32.2250 C   0  0  0  0  0  0  0  0  0  0  0  0
   -6.7610   17.1530  -33.2600 C   0  0  0  0  0  0  0  0  0  0  0  0
   -6.2200   17.2000  -34.5480 C   0  0  0  0  0  0  0  0  0  0  0  0
   -5.0640   17.9450  -34.7980 C   0  0  0  0  0  0  0  0  0  0  0  0
   -3.0350   20.6230  -31.9440 N   0  0  0  0  0  0  0  0  0  0  0  0
   -3.2940   22.8130  -29.8250 C   0  0  0  0  0  0  0  0  0  0  0  0
   -7.3090   23.0180  -30.1290 C   0  0  0  0  0  0  0  0  0  0  0  0
   -7.8730   21.8870  -30.7270 C   0  0  0  0  0  0  0  0  0  0  0  0
   -9.0742   19.6310  -30.8638 H   0  0  0  0  0  0  0  0  0  0  0  0
  -10.0131   20.1375  -32.3090 H   0  0  0  0  0  0  0  0  0  0  0  0
   -9.1426   18.5663  -32.3090 H   0  0  0  0  0  0  0  0  0  0  0  0
   -5.8390   21.6530  -33.4665 H   0  0  0  0  0  0  0  0  0  0  0  0
   -4.8315   23.6651  -32.3910 H   0  0  0  0  0  0  0  0  0  0  0  0
   -4.6180   25.0930  -27.6820 H   0  0  0  0  0  0  0  0  0  0  0  0
   -3.1403   23.5537  -26.4930 H   0  0  0  0  0  0  0  0  0  0  0  0
   -1.3173   21.8676  -26.6083 H   0  0  0  0  0  0  0  0  0  0  0  0
   -0.4920   19.2738  -27.2550 H   0  0  0  0  0  0  0  0  0  0  0  0
   -1.3989   18.7670  -28.7204 H   0  0  0  0  0  0  0  0  0  0  0  0
    0.3971   18.7362  -28.7204 H   0  0  0  0  0  0  0  0  0  0  0  0
    0.1870   21.3906  -31.3318 H   0  0  0  0  0  0  0  0  0  0  0  0
   -4.5642   19.2261  -31.6629 H   0  0  0  0  0  0  0  0  0  0  0  0
   -6.5884   17.8398  -31.2120 H   0  0  0  0  0  0  0  0  0  0  0  0
   -7.6585   16.5487  -33.0616 H   0  0  0  0  0  0  0  0  0  0  0  0
   -6.7053   16.6492  -35.3672 H   0  0  0  0  0  0  0  0  0  0  0  0
   -4.6357   17.9712  -35.8109 H   0  0  0  0  0  0  0  0  0  0  0  0
   -3.8613   23.0793  -30.7290 H   0  0  0  0  0  0  0  0  0  0  0  0
   -7.7290   23.4069  -29.1897 H   0  0  0  0  0  0  0  0  0  0  0  0
   -8.7292   21.3865  -30.2511 H   0  0  0  0  0  0  0  0  0  0  0  0
  1  2  1  0
  2  3  1  0
  3  4  2  0
  4  5  1  0
  5  6  2  0
  6  7  1  0
  7  8  2  0
  7  9  2  0
  7 10  1  0
 10 11  1  0
 11 12  2  0
 12 13  1  0
 13 14  2  0
 14 15  1  0
 15 16  1  0
 14 17  1  0
 17 18  1  0
 18 19  2  0
 19 20  1  0
 20 21  1  0
 21 22  2  3
 22 23  1  0
 23 24  2  0
 24 25  1  0
 25 26  2  0
 26 27  1  0
 27 28  2  0
 21 29  1  0
 17 30  2  0
  6 31  1  0
 31 32  2  0
 32  3  1  0
 30 11  1  0
 29 18  1  0
 28 23  1  0
  1 33  1  0
  1 34  1  0
  1 35  1  0
  4 36  1  0
  5 37  1  0
 10 38  1  0
 12 39  1  0
 13 40  1  0
 16 41  1  0
 16 42  1  0
 16 43  1  0
 19 44  1  0
 24 45  1  0
 25 46  1  0
 26 47  1  0
 27 48  1  0
 28 49  1  0
 30 50  1  0
 31 51  1  0
 32 52  1  0
M  CHG  1  29  -1
M  END
>  <UniqueID>  (24) 
22

>  <SMILES>  (24) 
COc1ccc(S(=O)(=O)Nc2ccc(OC)c(-c3csc(=Nc4ccccc4)[n-]3)c2)cc1

>  <Energy>  (24) 
95.4722310654291

>  <Genealogy>  (24) 
COc1ccc(S(=O)(=O)Nc2ccc(OC)c(-c3csc(=Nc4ccccc4)[n-]3)c2)cc1 (protonated)
COc1ccc(S(=O)(=O)Nc2ccc(OC)c(-c3csc(=Nc4ccccc4)[n-]3)c2)cc1 (3D coordinates assigned)
COc1ccc(S(=O)(=O)Nc2ccc(OC)c(-c3csc(=Nc4ccccc4)[n-]3)c2)cc1 (optimized conformer: 95.4722310654291 kcal/mol)

>  <smiles>  (24) 
COc1ccc(S(=O)(=O)Nc2ccc(OC)c(-c3csc(=Nc4ccccc4)[nH]3)c2)cc1

>  <score_type>  (24) 
oracle

>  <origin>  (24) 
adg

>  <m_score__min__energy>  (24) 
-10.77

>  <m_primary>  (24) 
energy

$$$$
24:0
     RDKit          3D

 38 40  0  0  0  0  0  0  0  0999 V2000
   -2.7830   20.1110  -27.3780 C   0  0  0  0  0  0  0  0  0  0  0  0
   -2.6290   20.6090  -28.8110 C   0  0  0  0  0  0  0  0  0  0  0  0
   -2.2630   22.0350  -28.8220 N   0  0  0  0  0  0  0  0  0  0  0  0
   -1.1060   22.4900  -28.2220 C   0  0  0  0  0  0  0  0  0  0  0  0
   -0.3450   21.6700  -27.6350 O   0  0  0  0  0  0  0  0  0  0  0  0
   -0.7690   23.8330  -28.2640 N   0  0  0  0  0  0  0  0  0  0  0  0
    0.4800   24.2960  -27.6360 C   0  0  0  0  0  0  0  0  0  0  0  0
   -1.5570   24.7220  -28.9600 C   0  0  0  0  0  0  0  0  0  0  0  0
   -1.2470   25.9420  -29.0580 O   0  0  0  0  0  0  0  0  0  0  0  0
   -2.7070   24.2460  -29.5640 C   0  0  0  0  0  0  0  0  0  0  0  0
   -3.6080   24.9130  -30.2980 N   0  0  0  0  0  0  0  0  0  0  0  0
   -4.4850   23.9310  -30.6370 C   0  0  0  0  0  0  0  0  0  0  0  0
   -5.6670   24.1740  -31.5200 C   0  0  0  0  0  0  0  0  0  0  0  0
   -6.9450   23.6580  -30.8560 C   0  0  0  0  0  0  0  0  0  0  0  0
   -7.4200   22.3980  -31.5280 C   0  0  0  0  0  0  0  0  0  0  0  0
   -8.7220   21.9220  -31.3150 C   0  0  0  0  0  0  0  0  0  0  0  0
   -9.1390   20.7360  -31.9210 C   0  0  0  0  0  0  0  0  0  0  0  0
   -8.2460   20.0300  -32.7290 C   0  0  0  0  0  0  0  0  0  0  0  0
   -6.9820   20.4950  -32.9160 N   0  0  0  0  0  0  0  0  0  0  0  0
   -6.5520   21.6470  -32.3360 C   0  0  0  0  0  0  0  0  0  0  0  0
   -4.1620   22.6970  -30.1680 N   0  0  0  0  0  0  0  0  0  0  0  0
   -3.0320   22.9410  -29.4850 C   0  0  0  0  0  0  0  0  0  0  0  0
   -2.5321   20.9224  -26.6789 H   0  0  0  0  0  0  0  0  0  0  0  0
   -3.8221   19.7910  -27.2107 H   0  0  0  0  0  0  0  0  0  0  0  0
   -2.1059   19.2604  -27.2107 H   0  0  0  0  0  0  0  0  0  0  0  0
   -1.8413   20.0287  -29.3137 H   0  0  0  0  0  0  0  0  0  0  0  0
   -3.5863   20.4822  -29.3378 H   0  0  0  0  0  0  0  0  0  0  0  0
    0.3763   24.2576  -26.5416 H   0  0  0  0  0  0  0  0  0  0  0  0
    1.3105   23.6460  -27.9487 H   0  0  0  0  0  0  0  0  0  0  0  0
    0.6861   25.3303  -27.9487 H   0  0  0  0  0  0  0  0  0  0  0  0
   -5.7653   25.2539  -31.7047 H   0  0  0  0  0  0  0  0  0  0  0  0
   -5.5181   23.6396  -32.4699 H   0  0  0  0  0  0  0  0  0  0  0  0
   -6.7417   23.4475  -29.7956 H   0  0  0  0  0  0  0  0  0  0  0  0
   -7.7274   24.4257  -30.9486 H   0  0  0  0  0  0  0  0  0  0  0  0
   -9.4144   22.4834  -30.6704 H   0  0  0  0  0  0  0  0  0  0  0  0
  -10.1611   20.3613  -31.7635 H   0  0  0  0  0  0  0  0  0  0  0  0
   -8.5653   19.0963  -33.2150 H   0  0  0  0  0  0  0  0  0  0  0  0
   -5.5204   21.9917  -32.5005 H   0  0  0  0  0  0  0  0  0  0  0  0
  1  2  1  0
  2  3  1  0
  3  4  1  0
  4  5  2  0
  4  6  1  0
  6  7  1  0
  6  8  1  0
  8  9  2  0
  8 10  1  0
 10 11  1  0
 11 12  2  0
 12 13  1  0
 13 14  1  0
 14 15  1  0
 15 16  2  0
 16 17  1  0
 17 18  2  0
 18 19  1  0
 19 20  2  0
 12 21  1  0
 21 22  1  0
 22  3  1  0
 22 10  2  0
 20 15  1  0
  1 23  1  0
  1 24  1  0
  1 25  1  0
  2 26  1  0
  2 27  1  0
  7 28  1  0
  7 29  1  0
  7 30  1  0
 13 31  1  0
 13 32  1  0
 14 33  1  0
 14 34  1  0
 16 35  1  0
 17 36  1  0
 18 37  1  0
 20 38  1  0
M  CHG  1  21  -1
M  END
>  <UniqueID>  (25) 
23

>  <SMILES>  (25) 
CCn1c(=O)n(C)c(=O)c2nc(CCc3cccnc3)[n-]c21

>  <Energy>  (25) 
76.25115605861657

>  <Genealogy>  (25) 
CCn1c(=O)n(C)c(=O)c2nc(CCc3cccnc3)[n-]c21 (protonated)
CCn1c(=O)n(C)c(=O)c2nc(CCc3cccnc3)[n-]c21 (3D coordinates assigned)
CCn1c(=O)n(C)c(=O)c2nc(CCc3cccnc3)[n-]c21 (optimized conformer: 76.25115605861657 kcal/mol)

>  <smiles>  (25) 
CCn1c(=O)n(C)c(=O)c2nc(CCc3cccnc3)[nH]c21

>  <score_type>  (25) 
oracle

>  <origin>  (25) 
adg

>  <m_score__min__energy>  (25) 
-8.0299999999999994

>  <m_primary>  (25) 
energy

$$$$
25:0
     RDKit          3D

 49 51  0  0  1  0  0  0  0  0999 V2000
   -2.1020   21.1690  -33.4800 C   0  0  0  0  0  0  0  0  0  0  0  0
   -3.2260   20.3820  -33.8280 O   0  0  0  0  0  0  0  0  0  0  0  0
   -3.1210   19.0010  -33.7270 C   0  0  0  0  0  0  0  0  0  0  0  0
   -1.9800   18.3660  -33.2720 C   0  0  0  0  0  0  0  0  0  0  0  0
   -1.8950   16.9880  -33.1780 C   0  0  0  0  0  0  0  0  0  0  0  0
   -3.0040   16.2260  -33.5570 C   0  0  0  0  0  0  0  0  0  0  0  0
   -4.1670   16.8530  -34.0190 C   0  0  0  0  0  0  0  0  0  0  0  0
   -4.2200   18.2360  -34.1010 C   0  0  0  0  0  0  0  0  0  0  0  0
   -5.4170   18.8470  -34.5750 N   0  0  0  0  0  0  0  0  0  0  0  0
   -6.1760   19.4960  -33.7620 C   0  0  0  0  0  0  0  0  0  0  0  0
   -7.1970   18.7830  -33.2120 N   0  0  0  0  0  0  0  0  0  0  0  0
   -8.0280   19.4200  -32.3470 C   0  0  0  0  0  0  0  0  0  0  0  0
   -9.1270   18.6230  -31.7660 C   0  0  0  0  0  0  0  0  0  0  0  0
   -7.8590   20.7500  -32.0220 C   0  0  0  0  0  0  0  0  0  0  0  0
   -8.9420   21.5580  -30.9030 Cl  0  0  0  0  0  0  0  0  0  0  0  0
   -6.8010   21.4040  -32.6210 C   0  0  0  0  0  0  0  0  0  0  0  0
   -6.6240   22.6400  -32.3330 N   0  0  0  0  0  0  0  0  0  0  0  0
   -5.7350   23.0890  -31.3170 C   0  0  0  0  0  0  0  0  0  0  0  0
   -6.1970   23.9590  -30.3460 C   0  0  0  0  0  0  0  0  0  0  0  0
   -5.3070   24.3810  -29.3670 C   0  0  0  0  0  0  0  0  0  0  0  0
   -3.9900   23.9520  -29.3480 C   0  0  0  0  0  0  0  0  0  0  0  0
   -2.8520   24.4740  -28.1200 S   0  0  0  0  0  0  0  0  0  0  0  0
   -3.5970   25.1130  -26.7320 N   0  0  0  0  0  0  0  0  0  0  0  0
   -1.9220   25.5260  -28.6990 O   0  0  0  0  0  0  0  0  0  0  0  0
   -1.9750   23.3040  -27.7150 O   0  0  0  0  0  0  0  0  0  0  0  0
   -3.5470   23.0850  -30.3240 C   0  0  0  0  0  0  0  0  0  0  0  0
   -2.1630   22.5660  -30.3970 C   0  0  0  0  0  0  0  0  0  0  0  0
   -4.4240   22.6460  -31.3210 C   0  0  0  0  0  0  0  0  0  0  0  0
   -5.9680   20.7910  -33.4790 N   0  0  0  0  0  0  0  0  0  0  0  0
   -2.0197   21.2266  -32.3846 H   0  0  0  0  0  0  0  0  0  0  0  0
   -1.1913   20.7102  -33.8925 H   0  0  0  0  0  0  0  0  0  0  0  0
   -2.2216   22.1817  -33.8925 H   0  0  0  0  0  0  0  0  0  0  0  0
   -1.1132   18.9750  -32.9756 H   0  0  0  0  0  0  0  0  0  0  0  0
   -0.9769   16.5039  -32.8138 H   0  0  0  0  0  0  0  0  0  0  0  0
   -2.9625   15.1287  -33.4919 H   0  0  0  0  0  0  0  0  0  0  0  0
   -5.0373   16.2496  -34.3165 H   0  0  0  0  0  0  0  0  0  0  0  0
   -7.3360   17.7660  -33.4540 H   0  0  0  0  0  0  0  0  0  0  0  0
   -9.0696   18.6647  -30.6683 H   0  0  0  0  0  0  0  0  0  0  0  0
  -10.0923   19.0324  -32.0985 H   0  0  0  0  0  0  0  0  0  0  0  0
   -9.0378   17.5782  -32.0985 H   0  0  0  0  0  0  0  0  0  0  0  0
   -7.2405   24.3070  -30.3492 H   0  0  0  0  0  0  0  0  0  0  0  0
   -5.6567   25.0734  -28.5870 H   0  0  0  0  0  0  0  0  0  0  0  0
   -4.1970   25.9450  -26.9180 H   0  0  0  0  0  0  0  0  0  0  0  0
   -4.0330   24.4170  -26.1000 H   0  0  0  0  0  0  0  0  0  0  0  0
   -1.7722   22.4195  -29.3793 H   0  0  0  0  0  0  0  0  0  0  0  0
   -2.1594   21.6054  -30.9330 H   0  0  0  0  0  0  0  0  0  0  0  0
   -1.5287   23.2874  -30.9330 H   0  0  0  0  0  0  0  0  0  0  0  0
   -4.0746   21.9544  -32.1018 H   0  0  0  0  0  0  0  0  0  0  0  0
   -5.1710   21.3180  -33.9180 H   0  0  0  0  0  0  0  0  0  0  0  0
  1  2  1  0
  2  3  1  0
  3  4  2  0
  4  5  1  0
  5  6  2  0
  6  7  1  0
  7  8  2  0
  8  9  1  0
  9 10  2  0
 10 11  1  0
 11 12  1  0
 12 13  1  0
 12 14  2  0
 14 15  1  0
 14 16  1  0
 16 17  2  0
 17 18  1  0
 18 19  2  0
 19 20  1  0
 20 21  2  0
 21 22  1  0
 22 23  1  0
 22 24  2  0
 22 25  2  0
 21 26  1  0
 26 27  1  0
 26 28  2  0
 16 29  1  0
  8  3  1  0
 29 10  1  0
 28 18  1  0
  1 30  1  0
  1 31  1  0
  1 32  1  0
  4 33  1  0
  5 34  1  0
  6 35  1  0
  7 36  1  0
 11 37  1  0
 13 38  1  0
 13 39  1  0
 13 40  1  0
 19 41  1  0
 20 42  1  0
 23 43  1  0
 23 44  1  0
 27 45  1  0
 27 46  1  0
 27 47  1  0
 28 48  1  0
 29 49  1  0
M  END
>  <smiles>  (26) 
COc1ccccc1N=c1[nH]c(C)c(Cl)c(=Nc2ccc(S(N)(=O)=O)c(C)c2)[nH]1

>  <score_type>  (26) 
oracle

>  <origin>  (26) 
adg

>  <m_score__min__energy>  (26) 
-9.5199999999999996

>  <m_primary>  (26) 
energy

$$$$
26:0
     RDKit          3D

 21 23  0  0  0  0  0  0  0  0999 V2000
   -4.1270   21.2830  -32.6060 O   0  0  0  0  0  0  0  0  0  0  0  0
   -5.1160   21.8470  -32.0710 C   0  0  0  0  0  0  0  0  0  0  0  0
   -5.0880   23.0470  -31.2410 C   0  0  0  0  0  0  0  0  0  0  0  0
   -4.0300   23.8500  -30.8390 C   0  0  0  0  0  0  0  0  0  0  0  0
   -4.3110   24.9270  -30.0500 N   0  0  0  0  0  0  0  0  0  0  0  0
   -5.5640   25.2180  -29.6660 N   0  0  0  0  0  0  0  0  0  0  0  0
   -6.6250   24.4460  -30.0470 C   0  0  0  0  0  0  0  0  0  0  0  0
   -6.3730   23.3420  -30.8500 C   0  0  0  0  0  0  0  0  0  0  0  0
   -7.2750   22.3390  -31.4160 C   0  0  0  0  0  0  0  0  0  0  0  0
   -8.6580   22.2120  -31.3030 C   0  0  0  0  0  0  0  0  0  0  0  0
   -9.2820   21.1380  -31.9580 C   0  0  0  0  0  0  0  0  0  0  0  0
   -8.5200   20.2170  -32.7080 C   0  0  0  0  0  0  0  0  0  0  0  0
   -7.1250   20.3580  -32.8120 C   0  0  0  0  0  0  0  0  0  0  0  0
   -6.1110   19.0990  -33.8340 Br  0  0  0  0  0  0  0  0  0  0  0  0
   -6.5210   21.4350  -32.1530 C   0  0  0  0  0  0  0  0  0  0  0  0
   -2.9980   23.6254  -31.1466 H   0  0  0  0  0  0  0  0  0  0  0  0
   -5.7290   26.0520  -29.0630 H   0  0  0  0  0  0  0  0  0  0  0  0
   -7.6483   24.6919  -29.7270 H   0  0  0  0  0  0  0  0  0  0  0  0
   -9.2453   22.9338  -30.7164 H   0  0  0  0  0  0  0  0  0  0  0  0
  -10.3726   21.0137  -31.8860 H   0  0  0  0  0  0  0  0  0  0  0  0
   -9.0223   19.3807  -33.2162 H   0  0  0  0  0  0  0  0  0  0  0  0
  1  2  2  0
  2  3  1  0
  3  4  2  0
  4  5  1  0
  5  6  2  0
  6  7  1  0
  7  8  2  0
  8  9  1  0
  9 10  2  0
 10 11  1  0
 11 12  2  0
 12 13  1  0
 13 14  1  0
 13 15  2  0
 15  2  1  0
  8  3  1  0
 15  9  1  0
  4 16  1  0
  6 17  1  0
  7 18  1  0
 10 19  1  0
 11 20  1  0
 12 21  1  0
M  CHG  1   6   1
M  END
>  <UniqueID>  (27) 
24

>  <SMILES>  (27) 
O=C1c2cn[nH+]cc2-c2cccc(Br)c21

>  <Energy>  (27) 
59.83993027947178

>  <Genealogy>  (27) 
O=C1c2cn[nH+]cc2-c2cccc(Br)c21 (protonated)
O=C1c2cn[nH+]cc2-c2cccc(Br)c21 (3D coordinates assigned)
O=C1c2cn[nH+]cc2-c2cccc(Br)c21 (nonaromatic ring conformer: 59.83993027947178 kcal/mol)

>  <smiles>  (27) 
O=C1c2cnncc2-c2cccc(Br)c21

>  <score_type>  (27) 
oracle

>  <origin>  (27) 
adg

>  <m_score__min__energy>  (27) 
-7.0499999999999998

>  <m_primary>  (27) 
energy

$$$$
27:0
     RDKit          3D

 43 46  0  0  0  0  0  0  0  0999 V2000
   -2.0710   24.8710  -28.1590 C   0  0  0  0  0  0  0  0  0  0  0  0
   -2.7280   25.2940  -29.3410 O   0  0  0  0  0  0  0  0  0  0  0  0
   -3.7660   24.5060  -29.8200 C   0  0  0  0  0  0  0  0  0  0  0  0
   -5.0550   24.9040  -29.5930 C   0  0  0  0  0  0  0  0  0  0  0  0
   -6.1170   24.1320  -30.0640 C   0  0  0  0  0  0  0  0  0  0  0  0
   -5.9130   22.9560  -30.7640 C   0  0  0  0  0  0  0  0  0  0  0  0
   -7.0870   22.2280  -31.2080 C   0  0  0  0  0  0  0  0  0  0  0  0
   -8.3910   22.6300  -31.3680 C   0  0  0  0  0  0  0  0  0  0  0  0
   -9.1530   21.6100  -31.8050 N   0  0  0  0  0  0  0  0  0  0  0  0
   -8.3200   20.5550  -31.9230 C   0  0  0  0  0  0  0  0  0  0  0  0
   -8.7300   19.1840  -32.3840 C   0  0  0  0  0  0  0  0  0  0  0  0
   -7.5160   18.4210  -32.7720 C   0  0  0  0  0  0  0  0  0  0  0  0
   -7.5880   17.1090  -33.1330 N   0  0  0  0  0  0  0  0  0  0  0  0
   -6.3490   16.7020  -33.4240 C   0  0  0  0  0  0  0  0  0  0  0  0
   -5.8950   15.4600  -33.8400 C   0  0  0  0  0  0  0  0  0  0  0  0
   -4.5450   15.2930  -34.0770 C   0  0  0  0  0  0  0  0  0  0  0  0
   -3.6530   16.3410  -33.9060 C   0  0  0  0  0  0  0  0  0  0  0  0
   -4.1500   17.5540  -33.4920 C   0  0  0  0  0  0  0  0  0  0  0  0
   -5.5050   17.7640  -33.2410 C   0  0  0  0  0  0  0  0  0  0  0  0
   -6.2370   18.8120  -32.8410 N   0  0  0  0  0  0  0  0  0  0  0  0
   -7.0680   20.9300  -31.5600 N   0  0  0  0  0  0  0  0  0  0  0  0
   -4.6160   22.5550  -30.9930 C   0  0  0  0  0  0  0  0  0  0  0  0
   -4.3800   21.3820  -31.6910 O   0  0  0  0  0  0  0  0  0  0  0  0
   -4.0470   21.4830  -33.0620 C   0  0  0  0  0  0  0  0  0  0  0  0
   -3.5690   23.3370  -30.5170 C   0  0  0  0  0  0  0  0  0  0  0  0
   -2.6284   25.2299  -27.2812 H   0  0  0  0  0  0  0  0  0  0  0  0
   -2.0235   23.7722  -28.1391 H   0  0  0  0  0  0  0  0  0  0  0  0
   -1.0511   25.2825  -28.1391 H   0  0  0  0  0  0  0  0  0  0  0  0
   -5.2540   25.8331  -29.0389 H   0  0  0  0  0  0  0  0  0  0  0  0
   -7.1469   24.4680  -29.8733 H   0  0  0  0  0  0  0  0  0  0  0  0
   -8.7615   23.6460  -31.1666 H   0  0  0  0  0  0  0  0  0  0  0  0
  -10.1830   21.6320  -32.0130 H   0  0  0  0  0  0  0  0  0  0  0  0
   -9.2494   18.6605  -31.5678 H   0  0  0  0  0  0  0  0  0  0  0  0
   -9.4070   19.2691  -33.2468 H   0  0  0  0  0  0  0  0  0  0  0  0
   -6.5964   14.6240  -33.9786 H   0  0  0  0  0  0  0  0  0  0  0  0
   -4.1709   14.3126  -34.4069 H   0  0  0  0  0  0  0  0  0  0  0  0
   -2.5781   16.2055  -34.0963 H   0  0  0  0  0  0  0  0  0  0  0  0
   -3.4509   18.3919  -33.3533 H   0  0  0  0  0  0  0  0  0  0  0  0
   -5.8900   19.7650  -32.6200 H   0  0  0  0  0  0  0  0  0  0  0  0
   -2.9987   21.8009  -33.1623 H   0  0  0  0  0  0  0  0  0  0  0  0
   -4.1810   20.5038  -33.5450 H   0  0  0  0  0  0  0  0  0  0  0  0
   -4.7023   22.2228  -33.5450 H   0  0  0  0  0  0  0  0  0  0  0  0
   -2.5373   23.0057  -30.7065 H   0  0  0  0  0  0  0  0  0  0  0  0
  1  2  1  0
  2  3  1  0
  3  4  2  0
  4  5  1  0
  5  6  2  0
  6  7  1  0
  7  8  2  0
  8  9  1  0
  9 10  1  0
 10 11  1  0
 11 12  1  0
 12 13  2  0
 13 14  1  0
 14 15  2  0
 15 16  1  0
 16 17  2  0
 17 18  1  0
 18 19  2  0
 19 20  1  0
 10 21  2  0
  6 22  1  0
 22 23  1  0
 23 24  1  0
 22 25  2  0
 25  3  1  0
 21  7  1  0
 20 12  1  0
 19 14  1  0
  1 26  1  0
  1 27  1  0
  1 28  1  0
  4 29  1  0
  5 30  1  0
  8 31  1  0
  9 32  1  0
 11 33  1  0
 11 34  1  0
 15 35  1  0
 16 36  1  0
 17 37  1  0
 18 38  1  0
 20 39  1  0
 24 40  1  0
 24 41  1  0
 24 42  1  0
 25 43  1  0
M  END
>  <smiles>  (28) 
COc1ccc(-c2c[nH]c(Cc3nc4ccccc4[nH]3)n2)c(OC)c1

>  <score_type>  (28) 
oracle

>  <origin>  (28) 
adg

>  <m_score__min__energy>  (28) 
-8.1199999999999992

>  <m_primary>  (28) 
energy

$$$$
28:0
     RDKit          3D

 48 52  0  0  0  0  0  0  0  0999 V2000
   -5.2760   13.6790  -34.2020 C   0  0  0  0  0  0  0  0  0  0  0  0
   -4.8210   14.9490  -34.6670 O   0  0  0  0  0  0  0  0  0  0  0  0
   -5.3350   16.1800  -34.2280 C   0  0  0  0  0  0  0  0  0  0  0  0
   -5.1810   17.3690  -34.9720 C   0  0  0  0  0  0  0  0  0  0  0  0
   -5.7240   18.5680  -34.4980 C   0  0  0  0  0  0  0  0  0  0  0  0
   -6.4020   18.6000  -33.2690 C   0  0  0  0  0  0  0  0  0  0  0  0
   -6.9360   19.8690  -32.7540 C   0  0  0  0  0  0  0  0  0  0  0  0
   -8.3050   20.1200  -32.7070 C   0  0  0  0  0  0  0  0  0  0  0  0
   -8.5390   21.6140  -31.9720 S   0  0  0  0  0  0  0  0  0  0  0  0
   -6.9110   21.9710  -31.7160 C   0  0  0  0  0  0  0  0  0  0  0  0
   -6.4110   23.2300  -31.1210 C   0  0  0  0  0  0  0  0  0  0  0  0
   -5.0940   23.6560  -31.3700 C   0  0  0  0  0  0  0  0  0  0  0  0
   -4.6310   24.8650  -30.8400 C   0  0  0  0  0  0  0  0  0  0  0  0
   -5.4720   25.6460  -30.0400 C   0  0  0  0  0  0  0  0  0  0  0  0
   -6.7680   25.2060  -29.7480 C   0  0  0  0  0  0  0  0  0  0  0  0
   -7.2370   24.0040  -30.2840 C   0  0  0  0  0  0  0  0  0  0  0  0
   -6.1440   20.9020  -32.1960 C   0  0  0  0  0  0  0  0  0  0  0  0
   -4.6750   20.8360  -32.0470 C   0  0  0  0  0  0  0  0  0  0  0  0
   -3.8320   20.8760  -33.1690 C   0  0  0  0  0  0  0  0  0  0  0  0
   -2.4490   20.8960  -32.9820 C   0  0  0  0  0  0  0  0  0  0  0  0
   -1.6860   20.9870  -33.9860 O   0  0  0  0  0  0  0  0  0  0  0  0
   -1.9310   20.8350  -31.6770 C   0  0  0  0  0  0  0  0  0  0  0  0
   -0.5490   20.8460  -31.4170 C   0  0  0  0  0  0  0  0  0  0  0  0
   -0.0830   20.7570  -30.0980 C   0  0  0  0  0  0  0  0  0  0  0  0
   -0.9880   20.6610  -29.0340 C   0  0  0  0  0  0  0  0  0  0  0  0
   -2.3650   20.6780  -29.2810 C   0  0  0  0  0  0  0  0  0  0  0  0
   -2.8430   20.7670  -30.5960 C   0  0  0  0  0  0  0  0  0  0  0  0
   -4.1540   20.7850  -30.8220 O   0  0  0  0  0  0  0  0  0  0  0  0
   -6.5560   17.4180  -32.5270 C   0  0  0  0  0  0  0  0  0  0  0  0
   -6.0320   16.2150  -33.0080 C   0  0  0  0  0  0  0  0  0  0  0  0
   -5.2789   13.6708  -33.1020 H   0  0  0  0  0  0  0  0  0  0  0  0
   -6.2954   13.4965  -34.5728 H   0  0  0  0  0  0  0  0  0  0  0  0
   -4.6044   12.8907  -34.5728 H   0  0  0  0  0  0  0  0  0  0  0  0
   -4.6333   17.3531  -35.9258 H   0  0  0  0  0  0  0  0  0  0  0  0
   -5.6194   19.4890  -35.0903 H   0  0  0  0  0  0  0  0  0  0  0  0
   -9.0962   19.4559  -33.0852 H   0  0  0  0  0  0  0  0  0  0  0  0
   -4.4249   23.0356  -31.9844 H   0  0  0  0  0  0  0  0  0  0  0  0
   -3.6055   25.2016  -31.0523 H   0  0  0  0  0  0  0  0  0  0  0  0
   -5.1144   26.6064  -29.6403 H   0  0  0  0  0  0  0  0  0  0  0  0
   -7.4183   25.8073  -29.0956 H   0  0  0  0  0  0  0  0  0  0  0  0
   -8.2559   23.6610  -30.0510 H   0  0  0  0  0  0  0  0  0  0  0  0
   -4.2565   20.8914  -34.1837 H   0  0  0  0  0  0  0  0  0  0  0  0
    0.1664   20.9245  -32.2489 H   0  0  0  0  0  0  0  0  0  0  0  0
    0.9986   20.7626  -29.8979 H   0  0  0  0  0  0  0  0  0  0  0  0
   -0.6159   20.5721  -28.0027 H   0  0  0  0  0  0  0  0  0  0  0  0
   -3.0740   20.6214  -28.4419 H   0  0  0  0  0  0  0  0  0  0  0  0
   -7.0900   17.4389  -31.5655 H   0  0  0  0  0  0  0  0  0  0  0  0
   -6.1659   15.2898  -32.4282 H   0  0  0  0  0  0  0  0  0  0  0  0
  1  2  1  0
  2  3  1  0
  3  4  2  0
  4  5  1  0
  5  6  2  0
  6  7  1  0
  7  8  2  0
  8  9  1  0
  9 10  1  0
 10 11  1  0
 11 12  2  0
 12 13  1  0
 13 14  2  0
 14 15  1  0
 15 16  2  0
 10 17  2  0
 17 18  1  0
 18 19  2  0
 19 20  1  0
 20 21  2  0
 20 22  1  0
 22 23  2  0
 23 24  1  0
 24 25  2  0
 25 26  1  0
 26 27  2  0
 27 28  1  0
  6 29  1  0
 29 30  2  0
 30  3  1  0
 17  7  1  0
 28 18  1  0
 16 11  1  0
 27 22  1  0
  1 31  1  0
  1 32  1  0
  1 33  1  0
  4 34  1  0
  5 35  1  0
  8 36  1  0
 12 37  1  0
 13 38  1  0
 14 39  1  0
 15 40  1  0
 16 41  1  0
 19 42  1  0
 23 43  1  0
 24 44  1  0
 25 45  1  0
 26 46  1  0
 29 47  1  0
 30 48  1  0
M  END
>  <UniqueID>  (29) 
25

>  <SMILES>  (29) 
COc1ccc(-c2csc(-c3ccccc3)c2-c2cc(=O)c3ccccc3o2)cc1

>  <Energy>  (29) 
100.86527916846393

>  <Genealogy>  (29) 
COc1ccc(-c2csc(-c3ccccc3)c2-c2cc(=O)c3ccccc3o2)cc1 (3D coordinates assigned)
COc1ccc(-c2csc(-c3ccccc3)c2-c2cc(=O)c3ccccc3o2)cc1 (optimized conformer: 100.86527916846393 kcal/mol)

>  <smiles>  (29) 
COc1ccc(-c2csc(-c3ccccc3)c2-c2cc(=O)c3ccccc3o2)cc1

>  <score_type>  (29) 
oracle

>  <origin>  (29) 
adg

>  <m_score__min__energy>  (29) 
-9.2699999999999996

>  <m_primary>  (29) 
energy

$$$$
29:0
     RDKit          3D

 39 40  0  0  0  0  0  0  0  0999 V2000
   -6.8510   24.3510  -30.4200 C   0  0  0  0  0  0  0  0  0  0  0  0
   -5.5980   24.5020  -31.2120 C   0  0  0  0  0  0  0  0  0  0  0  0
   -4.7090   25.3060  -30.8250 O   0  0  0  0  0  0  0  0  0  0  0  0
   -5.4490   23.7890  -32.4080 O   0  0  0  0  0  0  0  0  0  0  0  0
   -5.1570   22.3930  -32.4590 C   0  0  0  0  0  0  0  0  0  0  0  0
   -3.7840   22.0890  -31.8990 C   0  0  0  0  0  0  0  0  0  0  0  0
   -3.2770   22.8930  -30.8590 C   0  0  0  0  0  0  0  0  0  0  0  0
   -1.9910   22.6830  -30.3500 C   0  0  0  0  0  0  0  0  0  0  0  0
   -1.3890   23.6870  -29.0350 S   0  0  0  0  0  0  0  0  0  0  0  0
   -1.9650   25.3060  -29.2220 N   0  0  0  0  0  0  0  0  0  0  0  0
   -1.8740   23.1520  -27.7170 O   0  0  0  0  0  0  0  0  0  0  0  0
    0.1130   23.6850  -29.0520 O   0  0  0  0  0  0  0  0  0  0  0  0
   -1.1790   21.6930  -30.9100 C   0  0  0  0  0  0  0  0  0  0  0  0
   -1.6510   20.9120  -31.9640 C   0  0  0  0  0  0  0  0  0  0  0  0
   -2.9500   21.0920  -32.4610 C   0  0  0  0  0  0  0  0  0  0  0  0
   -3.4730   20.0640  -33.8470 S   0  0  0  0  0  0  0  0  0  0  0  0
   -5.0340   19.6140  -33.0830 C   0  0  0  0  0  0  0  0  0  0  0  0
   -5.0530   18.9700  -31.8410 C   0  0  0  0  0  0  0  0  0  0  0  0
   -6.2690   18.6180  -31.2490 C   0  0  0  0  0  0  0  0  0  0  0  0
   -7.4810   18.9080  -31.8970 C   0  0  0  0  0  0  0  0  0  0  0  0
   -8.7870   18.5660  -31.2440 C   0  0  0  0  0  0  0  0  0  0  0  0
   -7.4600   19.5880  -33.1240 C   0  0  0  0  0  0  0  0  0  0  0  0
   -6.2420   19.9380  -33.7150 C   0  0  0  0  0  0  0  0  0  0  0  0
   -6.6120   24.3798  -29.3467 H   0  0  0  0  0  0  0  0  0  0  0  0
   -7.5405   25.1726  -30.6643 H   0  0  0  0  0  0  0  0  0  0  0  0
   -7.3255   23.3892  -30.6643 H   0  0  0  0  0  0  0  0  0  0  0  0
   -5.9107   21.8491  -31.8707 H   0  0  0  0  0  0  0  0  0  0  0  0
   -5.1764   22.0762  -33.5122 H   0  0  0  0  0  0  0  0  0  0  0  0
   -3.9010   23.6969  -30.4415 H   0  0  0  0  0  0  0  0  0  0  0  0
   -2.6600   25.2950  -30.0020 H   0  0  0  0  0  0  0  0  0  0  0  0
   -0.1643   21.5295  -30.5180 H   0  0  0  0  0  0  0  0  0  0  0  0
   -0.9982   20.1472  -32.4101 H   0  0  0  0  0  0  0  0  0  0  0  0
   -4.1072   18.7399  -31.3286 H   0  0  0  0  0  0  0  0  0  0  0  0
   -6.2770   18.1121  -30.2723 H   0  0  0  0  0  0  0  0  0  0  0  0
   -8.6695   18.5968  -30.1507 H   0  0  0  0  0  0  0  0  0  0  0  0
   -9.5523   19.2940  -31.5511 H   0  0  0  0  0  0  0  0  0  0  0  0
   -9.0972   17.5563  -31.5511 H   0  0  0  0  0  0  0  0  0  0  0  0
   -8.4055   19.8469  -33.6231 H   0  0  0  0  0  0  0  0  0  0  0  0
   -6.2321   20.4689  -34.6783 H   0  0  0  0  0  0  0  0  0  0  0  0
  1  2  1  0
  2  3  2  0
  2  4  1  0
  4  5  1  0
  5  6  1  0
  6  7  2  0
  7  8  1  0
  8  9  1  0
  9 10  1  0
  9 11  2  0
  9 12  2  0
  8 13  2  0
 13 14  1  0
 14 15  2  0
 15 16  1  0
 16 17  1  0
 17 18  2  0
 18 19  1  0
 19 20  2  0
 20 21  1  0
 20 22  1  0
 22 23  2  0
 15  6  1  0
 23 17  1  0
  1 24  1  0
  1 25  1  0
  1 26  1  0
  5 27  1  0
  5 28  1  0
  7 29  1  0
 10 30  1  0
 13 31  1  0
 14 32  1  0
 18 33  1  0
 19 34  1  0
 21 35  1  0
 21 36  1  0
 21 37  1  0
 22 38  1  0
 23 39  1  0
M  CHG  1  10  -1
M  END
>  <UniqueID>  (30) 
26

>  <SMILES>  (30) 
CC(=O)OCc1cc(S([NH-])(=O)=O)ccc1Sc1ccc(C)cc1

>  <Energy>  (30) 
31.79771110925982

>  <Genealogy>  (30) 
CC(=O)OCc1cc(S([NH-])(=O)=O)ccc1Sc1ccc(C)cc1 (protonated)
CC(=O)OCc1cc(S([NH-])(=O)=O)ccc1Sc1ccc(C)cc1 (3D coordinates assigned)
CC(=O)OCc1cc(S([NH-])(=O)=O)ccc1Sc1ccc(C)cc1 (optimized conformer: 31.79771110925982 kcal/mol)

>  <smiles>  (30) 
CC(=O)OCc1cc(S(N)(=O)=O)ccc1Sc1ccc(C)cc1

>  <score_type>  (30) 
oracle

>  <origin>  (30) 
adg

>  <m_score__min__energy>  (30) 
-10.48

>  <m_primary>  (30) 
energy

$$$$
30:0
     RDKit          3D

 26 26  0  0  0  0  0  0  0  0999 V2000
   -1.5160   24.9280  -28.9560 C   0  0  0  0  0  0  0  0  0  0  0  0
   -2.9700   24.5010  -29.1160 C   0  0  0  0  0  0  0  0  0  0  0  0
   -3.4850   24.9140  -30.4230 N   0  0  0  0  0  0  0  0  0  0  0  0
   -5.2250   24.9090  -30.4540 S   0  0  0  0  0  0  0  0  0  0  0  0
   -5.7330   24.9540  -29.0410 O   0  0  0  0  0  0  0  0  0  0  0  0
   -5.7350   26.1290  -31.1690 O   0  0  0  0  0  0  0  0  0  0  0  0
   -5.8170   23.4290  -31.2230 C   0  0  0  0  0  0  0  0  0  0  0  0
   -7.1850   23.1310  -31.1360 C   0  0  0  0  0  0  0  0  0  0  0  0
   -7.6980   21.9690  -31.7190 C   0  0  0  0  0  0  0  0  0  0  0  0
   -9.4110   21.6120  -31.6050 Cl  0  0  0  0  0  0  0  0  0  0  0  0
   -6.8440   21.0930  -32.3910 C   0  0  0  0  0  0  0  0  0  0  0  0
   -5.4790   21.3720  -32.4790 C   0  0  0  0  0  0  0  0  0  0  0  0
   -4.9480   22.5400  -31.8930 C   0  0  0  0  0  0  0  0  0  0  0  0
   -3.5770   22.8350  -31.9560 O   0  0  0  0  0  0  0  0  0  0  0  0
   -2.5360   21.9290  -31.6090 C   0  0  0  0  0  0  0  0  0  0  0  0
   -1.2706   25.0001  -27.8861 H   0  0  0  0  0  0  0  0  0  0  0  0
   -0.8608   24.1843  -29.4332 H   0  0  0  0  0  0  0  0  0  0  0  0
   -1.3670   25.9078  -29.4332 H   0  0  0  0  0  0  0  0  0  0  0  0
   -3.0374   23.4065  -29.0298 H   0  0  0  0  0  0  0  0  0  0  0  0
   -3.5704   24.9811  -28.3292 H   0  0  0  0  0  0  0  0  0  0  0  0
   -7.8599   23.8179  -30.6043 H   0  0  0  0  0  0  0  0  0  0  0  0
   -7.2478   20.1799  -32.8527 H   0  0  0  0  0  0  0  0  0  0  0  0
   -4.8126   20.6758  -33.0093 H   0  0  0  0  0  0  0  0  0  0  0  0
   -2.4585   21.8616  -30.5138 H   0  0  0  0  0  0  0  0  0  0  0  0
   -2.7620   20.9350  -32.0225 H   0  0  0  0  0  0  0  0  0  0  0  0
   -1.5827   22.2900  -32.0225 H   0  0  0  0  0  0  0  0  0  0  0  0
  1  2  1  0
  2  3  1  0
  3  4  1  0
  4  5  2  0
  4  6  2  0
  4  7  1  0
  7  8  2  0
  8  9  1  0
  9 10  1  0
  9 11  2  0
 11 12  1  0
 12 13  2  0
 13 14  1  0
 14 15  1  0
 13  7  1  0
  1 16  1  0
  1 17  1  0
  1 18  1  0
  2 19  1  0
  2 20  1  0
  8 21  1  0
 11 22  1  0
 12 23  1  0
 15 24  1  0
 15 25  1  0
 15 26  1  0
M  CHG  1   3  -1
M  END
>  <UniqueID>  (31) 
27

>  <SMILES>  (31) 
CC[N-]S(=O)(=O)c1cc(Cl)ccc1OC

>  <Energy>  (31) 
21.72015221393086

>  <Genealogy>  (31) 
CC[N-]S(=O)(=O)c1cc(Cl)ccc1OC (protonated)
CC[N-]S(=O)(=O)c1cc(Cl)ccc1OC (3D coordinates assigned)
CC[N-]S(=O)(=O)c1cc(Cl)ccc1OC (optimized conformer: 21.72015221393086 kcal/mol)

>  <smiles>  (31) 
CCNS(=O)(=O)c1cc(Cl)ccc1OC

>  <score_type>  (31) 
oracle

>  <origin>  (31) 
adg

>  <m_score__min__energy>  (31) 
-7.4199999999999999

>  <m_primary>  (31) 
energy

$$$$
31:0
     RDKit          3D

 31 32  0  0  0  0  0  0  0  0999 V2000
   -3.2560   20.4100  -33.0870 C   0  0  0  0  0  0  0  0  0  0  0  0
   -2.8160   21.2160  -31.9120 C   0  0  0  0  0  0  0  0  0  0  0  0
   -3.3930   22.4040  -31.4840 C   0  0  0  0  0  0  0  0  0  0  0  0
   -2.7090   22.9920  -30.4090 C   0  0  0  0  0  0  0  0  0  0  0  0
   -3.2000   24.5240  -29.6920 S   0  0  0  0  0  0  0  0  0  0  0  0
   -4.0500   24.2740  -28.4780 O   0  0  0  0  0  0  0  0  0  0  0  0
   -1.9730   25.2850  -29.2740 O   0  0  0  0  0  0  0  0  0  0  0  0
   -4.0980   25.4680  -30.8410 N   0  0  0  0  0  0  0  0  0  0  0  0
   -5.4890   25.5770  -30.4120 C   0  0  0  0  0  0  0  0  0  0  0  0
   -6.2070   24.3020  -30.7450 C   0  0  0  0  0  0  0  0  0  0  0  0
   -6.2230   23.8140  -32.0600 C   0  0  0  0  0  0  0  0  0  0  0  0
   -6.8630   22.6080  -32.3490 C   0  0  0  0  0  0  0  0  0  0  0  0
   -7.4750   21.8930  -31.3160 C   0  0  0  0  0  0  0  0  0  0  0  0
   -7.4370   22.3690  -30.0430 N   0  0  0  0  0  0  0  0  0  0  0  0
   -6.8200   23.5430  -29.7370 C   0  0  0  0  0  0  0  0  0  0  0  0
   -1.5930   22.2620  -30.0000 C   0  0  0  0  0  0  0  0  0  0  0  0
   -0.6100   22.6520  -28.9430 C   0  0  0  0  0  0  0  0  0  0  0  0
   -1.4420   20.9120  -30.9910 S   0  0  0  0  0  0  0  0  0  0  0  0
   -3.7557   19.4946  -32.7373 H   0  0  0  0  0  0  0  0  0  0  0  0
   -3.9567   21.0008  -33.6952 H   0  0  0  0  0  0  0  0  0  0  0  0
   -2.3801   20.1401  -33.6952 H   0  0  0  0  0  0  0  0  0  0  0  0
   -4.2939   22.8397  -31.9407 H   0  0  0  0  0  0  0  0  0  0  0  0
   -5.5272   25.7484  -29.3261 H   0  0  0  0  0  0  0  0  0  0  0  0
   -5.9713   26.4197  -30.9290 H   0  0  0  0  0  0  0  0  0  0  0  0
   -5.7311   24.3819  -32.8634 H   0  0  0  0  0  0  0  0  0  0  0  0
   -6.8855   22.2241  -33.3796 H   0  0  0  0  0  0  0  0  0  0  0  0
   -7.9879   20.9444  -31.5330 H   0  0  0  0  0  0  0  0  0  0  0  0
   -6.8020   23.8978  -28.6959 H   0  0  0  0  0  0  0  0  0  0  0  0
   -1.0504   22.4773  -27.9503 H   0  0  0  0  0  0  0  0  0  0  0  0
    0.3030   22.0480  -29.0506 H   0  0  0  0  0  0  0  0  0  0  0  0
   -0.3594   23.7177  -29.0506 H   0  0  0  0  0  0  0  0  0  0  0  0
  1  2  1  0
  2  3  2  0
  3  4  1  0
  4  5  1  0
  5  6  2  0
  5  7  2  0
  5  8  1  0
  8  9  1  0
  9 10  1  0
 10 11  2  0
 11 12  1  0
 12 13  2  0
 13 14  1  0
 14 15  2  0
  4 16  2  0
 16 17  1  0
 16 18  1  0
 18  2  1  0
 15 10  1  0
  1 19  1  0
  1 20  1  0
  1 21  1  0
  3 22  1  0
  9 23  1  0
  9 24  1  0
 11 25  1  0
 12 26  1  0
 13 27  1  0
 15 28  1  0
 17 29  1  0
 17 30  1  0
 17 31  1  0
M  CHG  1   8  -1
M  END
>  <UniqueID>  (32) 
28

>  <SMILES>  (32) 
Cc1cc(S(=O)(=O)[N-]Cc2cccnc2)c(C)s1

>  <Energy>  (32) 
52.166697468296455

>  <Genealogy>  (32) 
Cc1cc(S(=O)(=O)[N-]Cc2cccnc2)c(C)s1 (protonated)
Cc1cc(S(=O)(=O)[N-]Cc2cccnc2)c(C)s1 (3D coordinates assigned)
Cc1cc(S(=O)(=O)[N-]Cc2cccnc2)c(C)s1 (optimized conformer: 52.166697468296455 kcal/mol)

>  <smiles>  (32) 
Cc1cc(S(=O)(=O)NCc2cccnc2)c(C)s1

>  <score_type>  (32) 
oracle

>  <origin>  (32) 
adg

>  <m_score__min__energy>  (32) 
-8.3800000000000008

>  <m_primary>  (32) 
energy

$$$$
32:0
     RDKit          3D

 45 46  0  0  0  0  0  0  0  0999 V2000
   -2.7120   18.9330  -25.9500 C   0  0  0  0  0  0  0  0  0  0  0  0
   -2.3280   19.7230  -27.1730 C   0  0  0  0  0  0  0  0  0  0  0  0
   -3.1130   20.8240  -27.5580 C   0  0  0  0  0  0  0  0  0  0  0  0
   -2.7790   21.5770  -28.6840 C   0  0  0  0  0  0  0  0  0  0  0  0
   -1.6570   21.2400  -29.4460 C   0  0  0  0  0  0  0  0  0  0  0  0
   -1.2480   22.1940  -30.9120 S   0  0  0  0  0  0  0  0  0  0  0  0
   -2.1320   21.0970  -32.0770 C   0  0  0  0  0  0  0  0  0  0  0  0
   -3.1490   21.8850  -32.9380 C   0  0  0  0  0  0  0  0  0  0  0  0
   -4.5690   21.7150  -32.5240 N   0  0  1  0  0  0  0  0  0  0  0  0
   -4.7950   20.3820  -31.8750 C   0  0  0  0  0  0  0  0  0  0  0  0
   -6.2110   19.7900  -32.0420 C   0  0  0  0  0  0  0  0  0  0  0  0
   -7.1930   20.7940  -32.5030 N   0  0  0  0  0  0  0  0  0  0  0  0
   -8.4350   20.1340  -32.9380 C   0  0  0  0  0  0  0  0  0  0  0  0
   -7.4650   21.8840  -31.5360 C   0  0  0  0  0  0  0  0  0  0  0  0
   -6.6020   23.1390  -31.7440 C   0  0  0  0  0  0  0  0  0  0  0  0
   -5.1140   22.8690  -31.8070 C   0  0  0  0  0  0  0  0  0  0  0  0
   -4.3770   23.6870  -31.2770 O   0  0  0  0  0  0  0  0  0  0  0  0
   -0.8670   20.1470  -29.0780 C   0  0  0  0  0  0  0  0  0  0  0  0
   -1.1770   19.3940  -27.9310 C   0  0  0  0  0  0  0  0  0  0  0  0
   -0.3010   18.2260  -27.5600 C   0  0  0  0  0  0  0  0  0  0  0  0
   -2.4373   19.4982  -25.0472 H   0  0  0  0  0  0  0  0  0  0  0  0
   -3.7974   18.7545  -25.9547 H   0  0  0  0  0  0  0  0  0  0  0  0
   -2.1819   17.9692  -25.9547 H   0  0  0  0  0  0  0  0  0  0  0  0
   -3.9994   21.0944  -26.9655 H   0  0  0  0  0  0  0  0  0  0  0  0
   -3.4001   22.4378  -28.9726 H   0  0  0  0  0  0  0  0  0  0  0  0
   -1.3988   20.6157  -32.7409 H   0  0  0  0  0  0  0  0  0  0  0  0
   -2.6836   20.3459  -31.4926 H   0  0  0  0  0  0  0  0  0  0  0  0
   -2.8979   22.9541  -32.8743 H   0  0  0  0  0  0  0  0  0  0  0  0
   -3.0705   21.4856  -33.9599 H   0  0  0  0  0  0  0  0  0  0  0  0
   -5.0930   21.6950  -33.4310 H   0  0  0  0  0  0  0  0  0  0  0  0
   -4.0771   19.6692  -32.3070 H   0  0  0  0  0  0  0  0  0  0  0  0
   -4.6633   20.5469  -30.7954 H   0  0  0  0  0  0  0  0  0  0  0  0
   -6.1678   18.9744  -32.7789 H   0  0  0  0  0  0  0  0  0  0  0  0
   -6.5404   19.4278  -31.0570 H   0  0  0  0  0  0  0  0  0  0  0  0
   -9.0149   19.8258  -32.0556 H   0  0  0  0  0  0  0  0  0  0  0  0
   -9.0305   20.8346  -33.5417 H   0  0  0  0  0  0  0  0  0  0  0  0
   -8.1876   19.2484  -33.5417 H   0  0  0  0  0  0  0  0  0  0  0  0
   -8.5223   22.1727  -31.6296 H   0  0  0  0  0  0  0  0  0  0  0  0
   -7.2178   21.4915  -30.5386 H   0  0  0  0  0  0  0  0  0  0  0  0
   -6.9062   23.6135  -32.6886 H   0  0  0  0  0  0  0  0  0  0  0  0
   -6.7681   23.7838  -30.8684 H   0  0  0  0  0  0  0  0  0  0  0  0
    0.0046   19.8734  -29.6907 H   0  0  0  0  0  0  0  0  0  0  0  0
   -0.2410   18.1460  -26.4645 H   0  0  0  0  0  0  0  0  0  0  0  0
   -0.7297   17.3006  -27.9723 H   0  0  0  0  0  0  0  0  0  0  0  0
    0.7074   18.3784  -27.9723 H   0  0  0  0  0  0  0  0  0  0  0  0
  1  2  1  0
  2  3  2  0
  3  4  1  0
  4  5  2  0
  5  6  1  0
  6  7  1  0
  7  8  1  0
  8  9  1  0
  9 10  1  0
 10 11  1  0
 11 12  1  0
 12 13  1  0
 12 14  1  0
 14 15  1  0
 15 16  1  0
 16 17  2  0
  5 18  1  0
 18 19  2  0
 19 20  1  0
 19  2  1  0
 16  9  1  0
  1 21  1  0
  1 22  1  0
  1 23  1  0
  3 24  1  0
  4 25  1  0
  7 26  1  0
  7 27  1  0
  8 28  1  0
  8 29  1  0
  9 30  1  6
 10 31  1  0
 10 32  1  0
 11 33  1  0
 11 34  1  0
 13 35  1  0
 13 36  1  0
 13 37  1  0
 14 38  1  0
 14 39  1  0
 15 40  1  0
 15 41  1  0
 18 42  1  0
 20 43  1  0
 20 44  1  0
 20 45  1  0
M  CHG  1   9   1
M  END
>  <UniqueID>  (33) 
29

>  <SMILES>  (33) 
Cc1ccc(SCC[N@H+]2CCN(C)CCC2=O)cc1C

>  <Energy>  (33) 
63.11682434874374

>  <Genealogy>  (33) 
Cc1ccc(SCC[NH+]2CCN(C)CCC2=O)cc1C (protonated)
Cc1ccc(SCC[N@H+]2CCN(C)CCC2=O)cc1C (chirality)
Cc1ccc(SCC[N@H+]2CCN(C)CCC2=O)cc1C (3D coordinates assigned)
Cc1ccc(SCC[N@H+]2CCN(C)CCC2=O)cc1C (nonaromatic ring conformer: 63.11682434874374 kcal/mol)

>  <smiles>  (33) 
Cc1ccc(SCCN2CCN(C)CCC2=O)cc1C

>  <score_type>  (33) 
oracle

>  <origin>  (33) 
adg

>  <m_score__min__energy>  (33) 
-5.6399999999999997

>  <m_primary>  (33) 
energy

$$$$
33:0
     RDKit          3D

 39 41  0  0  1  0  0  0  0  0999 V2000
   -3.3880   21.2250  -33.1450 C   0  0  0  0  0  0  0  0  0  0  0  0
   -2.7550   21.2090  -31.7910 C   0  0  0  0  0  0  0  0  0  0  0  0
   -2.3040   22.4760  -31.3830 O   0  0  0  0  0  0  0  0  0  0  0  0
   -2.0310   22.8540  -30.0960 C   0  0  0  0  0  0  0  0  0  0  0  0
   -1.2050   22.1680  -29.2310 C   0  0  0  0  0  0  0  0  0  0  0  0
   -0.9580   22.5830  -27.9480 C   0  0  0  0  0  0  0  0  0  0  0  0
   -1.5500   23.7420  -27.4640 C   0  0  0  0  0  0  0  0  0  0  0  0
   -2.3790   24.4450  -28.3110 C   0  0  0  0  0  0  0  0  0  0  0  0
   -2.6330   24.0240  -29.6190 C   0  0  0  0  0  0  0  0  0  0  0  0
   -3.4970   24.7750  -30.4700 N   0  0  0  0  0  0  0  0  0  0  0  0
   -4.7720   24.5560  -30.4740 C   0  0  0  0  0  0  0  0  0  0  0  0
   -5.3380   23.4350  -31.0550 C   0  0  0  0  0  0  0  0  0  0  0  0
   -6.6960   23.2640  -31.0230 C   0  0  0  0  0  0  0  0  0  0  0  0
   -7.3300   22.1080  -31.6180 C   0  0  0  0  0  0  0  0  0  0  0  0
   -6.6850   21.1460  -32.3460 C   0  0  0  0  0  0  0  0  0  0  0  0
   -7.3330   20.0460  -32.9020 C   0  0  0  0  0  0  0  0  0  0  0  0
   -8.6940   19.8960  -32.7240 C   0  0  0  0  0  0  0  0  0  0  0  0
   -9.3740   20.8530  -31.9940 C   0  0  0  0  0  0  0  0  0  0  0  0
   -8.7090   21.9340  -31.4530 C   0  0  0  0  0  0  0  0  0  0  0  0
   -7.4260   24.2210  -30.4150 N   0  0  0  0  0  0  0  0  0  0  0  0
   -6.8520   25.2920  -29.8630 C   0  0  0  0  0  0  0  0  0  0  0  0
   -5.5430   25.4960  -29.8700 N   0  0  0  0  0  0  0  0  0  0  0  0
   -4.4824   21.2527  -33.0378 H   0  0  0  0  0  0  0  0  0  0  0  0
   -3.0510   22.1149  -33.6968 H   0  0  0  0  0  0  0  0  0  0  0  0
   -3.0964   20.3192  -33.6968 H   0  0  0  0  0  0  0  0  0  0  0  0
   -3.4953   20.8484  -31.0617 H   0  0  0  0  0  0  0  0  0  0  0  0
   -1.8775   20.5478  -31.8447 H   0  0  0  0  0  0  0  0  0  0  0  0
   -0.7223   21.2458  -29.5866 H   0  0  0  0  0  0  0  0  0  0  0  0
   -0.2894   21.9966  -27.3006 H   0  0  0  0  0  0  0  0  0  0  0  0
   -1.3631   24.0881  -26.4367 H   0  0  0  0  0  0  0  0  0  0  0  0
   -2.8558   25.3666  -27.9460 H   0  0  0  0  0  0  0  0  0  0  0  0
   -4.6987   22.6834  -31.5412 H   0  0  0  0  0  0  0  0  0  0  0  0
   -5.6004   21.2464  -32.4998 H   0  0  0  0  0  0  0  0  0  0  0  0
   -6.7646   19.3017  -33.4790 H   0  0  0  0  0  0  0  0  0  0  0  0
   -9.2255   19.0340  -33.1536 H   0  0  0  0  0  0  0  0  0  0  0  0
  -10.4588   20.7513  -31.8426 H   0  0  0  0  0  0  0  0  0  0  0  0
   -9.2775   22.6788  -30.8768 H   0  0  0  0  0  0  0  0  0  0  0  0
   -7.4964   26.0409  -29.3793 H   0  0  0  0  0  0  0  0  0  0  0  0
   -5.1160   26.3290  -29.4400 H   0  0  0  0  0  0  0  0  0  0  0  0
  1  2  1  0
  2  3  1  0
  3  4  1  0
  4  5  2  0
  5  6  1  0
  6  7  2  0
  7  8  1  0
  8  9  2  0
  9 10  1  0
 10 11  2  0
 11 12  1  0
 12 13  2  0
 13 14  1  0
 14 15  2  0
 15 16  1  0
 16 17  2  0
 17 18  1  0
 18 19  2  0
 13 20  1  0
 20 21  2  0
 21 22  1  0
  9  4  1  0
 22 11  1  0
 19 14  1  0
  1 23  1  0
  1 24  1  0
  1 25  1  0
  2 26  1  0
  2 27  1  0
  5 28  1  0
  6 29  1  0
  7 30  1  0
  8 31  1  0
 12 32  1  0
 15 33  1  0
 16 34  1  0
 17 35  1  0
 18 36  1  0
 19 37  1  0
 21 38  1  0
 22 39  1  0
M  END
>  <smiles>  (34) 
CCOc1ccccc1N=c1cc(-c2ccccc2)nc[nH]1

>  <score_type>  (34) 
oracle

>  <origin>  (34) 
adg

>  <m_score__min__energy>  (34) 
-8.9100000000000001

>  <m_primary>  (34) 
energy

$$$$
34:0
     RDKit          3D

 37 40  0  0  0  0  0  0  0  0999 V2000
   -3.5090   24.9280  -30.4760 O   0  0  0  0  0  0  0  0  0  0  0  0
   -3.7580   24.1600  -29.5600 C   0  0  0  0  0  0  0  0  0  0  0  0
   -3.4050   24.5500  -28.1410 C   0  0  0  0  0  0  0  0  0  0  0  0
   -3.9290   23.5200  -27.1160 C   0  0  0  0  0  0  0  0  0  0  0  0
   -3.5340   22.0740  -27.4840 C   0  0  0  0  0  0  0  0  0  0  0  0
   -3.6590   21.8160  -28.9660 C   0  0  0  0  0  0  0  0  0  0  0  0
   -2.8620   20.9420  -29.5070 N   0  0  0  0  0  0  0  0  0  0  0  0
   -2.6860   20.7900  -30.9190 C   0  0  0  0  0  0  0  0  0  0  0  0
   -1.7330   19.9390  -31.3880 N   0  0  0  0  0  0  0  0  0  0  0  0
   -1.5070   19.8110  -32.7210 C   0  0  0  0  0  0  0  0  0  0  0  0
   -2.2370   20.5330  -33.6090 N   0  0  0  0  0  0  0  0  0  0  0  0
   -3.2020   21.3900  -33.1900 C   0  0  0  0  0  0  0  0  0  0  0  0
   -3.8710   22.0300  -34.0440 O   0  0  0  0  0  0  0  0  0  0  0  0
   -3.4490   21.5510  -31.8150 C   0  0  0  0  0  0  0  0  0  0  0  0
   -4.5850   22.4100  -31.3060 C   0  0  1  0  0  0  0  0  0  0  0  0
   -5.9050   21.6850  -31.5260 C   0  0  0  0  0  0  0  0  0  0  0  0
   -7.1360   22.3520  -31.3680 C   0  0  0  0  0  0  0  0  0  0  0  0
   -8.3400   21.6760  -31.5800 C   0  0  0  0  0  0  0  0  0  0  0  0
   -8.3340   20.3310  -31.9530 C   0  0  0  0  0  0  0  0  0  0  0  0
   -7.1200   19.6570  -32.1180 C   0  0  0  0  0  0  0  0  0  0  0  0
   -7.1120   17.8180  -32.6310 Br  0  0  0  0  0  0  0  0  0  0  0  0
   -5.9120   20.3300  -31.9070 C   0  0  0  0  0  0  0  0  0  0  0  0
   -4.4220   22.8200  -29.8050 C   0  0  2  0  0  0  0  0  0  0  0  0
   -2.3106   24.6162  -28.0517 H   0  0  0  0  0  0  0  0  0  0  0  0
   -3.8786   25.5190  -27.9248 H   0  0  0  0  0  0  0  0  0  0  0  0
   -3.5105   23.7603  -26.1275 H   0  0  0  0  0  0  0  0  0  0  0  0
   -5.0275   23.5781  -27.1122 H   0  0  0  0  0  0  0  0  0  0  0  0
   -2.4910   21.9019  -27.1798 H   0  0  0  0  0  0  0  0  0  0  0  0
   -4.2179   21.3900  -26.9601 H   0  0  0  0  0  0  0  0  0  0  0  0
   -1.1600   19.3820  -30.7160 H   0  0  0  0  0  0  0  0  0  0  0  0
   -0.7305   19.1206  -33.0820 H   0  0  0  0  0  0  0  0  0  0  0  0
   -4.5706   23.3484  -31.8798 H   0  0  0  0  0  0  0  0  0  0  0  0
   -7.1491   23.4124  -31.0757 H   0  0  0  0  0  0  0  0  0  0  0  0
   -9.2958   22.2054  -31.4526 H   0  0  0  0  0  0  0  0  0  0  0  0
   -9.2840   19.8014  -32.1171 H   0  0  0  0  0  0  0  0  0  0  0  0
   -4.9596   19.7959  -32.0399 H   0  0  0  0  0  0  0  0  0  0  0  0
   -5.4770   22.8712  -29.4979 H   0  0  0  0  0  0  0  0  0  0  0  0
  1  2  2  0
  2  3  1  0
  3  4  1  0
  4  5  1  0
  5  6  1  0
  6  7  2  0
  7  8  1  0
  8  9  1  0
  9 10  1  0
 10 11  2  0
 11 12  1  0
 12 13  2  0
 12 14  1  0
 14 15  1  0
 15 16  1  0
 16 17  2  0
 17 18  1  0
 18 19  2  0
 19 20  1  0
 20 21  1  0
 20 22  2  0
 15 23  1  0
 23  2  1  0
 23  6  1  0
 14  8  2  0
 22 16  1  0
  3 24  1  0
  3 25  1  0
  4 26  1  0
  4 27  1  0
  5 28  1  0
  5 29  1  0
  9 30  1  0
 10 31  1  0
 15 32  1  6
 17 33  1  0
 18 34  1  0
 19 35  1  0
 22 36  1  0
 23 37  1  1
M  END
>  <UniqueID>  (35) 
30

>  <SMILES>  (35) 
O=C1CCCC2=Nc3[nH]cnc(=O)c3[C@@H](c3cccc(Br)c3)[C@H]12

>  <Energy>  (35) 
51.66560839480768

>  <Genealogy>  (35) 
O=C1CCCC2=Nc3[nH]cnc(=O)c3[C@@H](c3cccc(Br)c3)[C@H]12 (chirality)
O=C1CCCC2=Nc3[nH]cnc(=O)c3[C@@H](c3cccc(Br)c3)[C@H]12 (3D coordinates assigned)
O=C1CCCC2=Nc3[nH]cnc(=O)c3[C@@H](c3cccc(Br)c3)[C@H]12 (nonaromatic ring conformer: 51.66560839480768 kcal/mol)

>  <smiles>  (35) 
O=C1CCCC2=Nc3[nH]cnc(=O)c3C(c3cccc(Br)c3)C12

>  <score_type>  (35) 
oracle

>  <origin>  (35) 
adg

>  <m_score__min__energy>  (35) 
-8.3300000000000001

>  <m_primary>  (35) 
energy

$$$$
35:0
     RDKit          3D

 41 43  0  0  0  0  0  0  0  0999 V2000
   -8.8270   20.3100  -33.0750 O   0  0  0  0  0  0  0  0  0  0  0  0
   -7.5730   20.2710  -32.9260 C   0  0  0  0  0  0  0  0  0  0  0  0
   -6.8640   19.0270  -33.3470 C   0  0  0  0  0  0  0  0  0  0  0  0
   -6.0740   19.0560  -34.5090 C   0  0  0  0  0  0  0  0  0  0  0  0
   -5.4010   17.9050  -34.9230 C   0  0  0  0  0  0  0  0  0  0  0  0
   -5.5020   16.7610  -34.1980 N   0  0  0  0  0  0  0  0  0  0  0  0
   -6.2390   16.7010  -33.0600 C   0  0  0  0  0  0  0  0  0  0  0  0
   -6.9250   17.8300  -32.6070 C   0  0  0  0  0  0  0  0  0  0  0  0
   -6.9110   21.4230  -32.3380 N   0  0  0  0  0  0  0  0  0  0  0  0
   -7.6910   22.0330  -31.2380 C   0  0  0  0  0  0  0  0  0  0  0  0
   -7.0370   23.3450  -30.7550 C   0  0  0  0  0  0  0  0  0  0  0  0
   -5.5870   23.3850  -31.0380 N   0  0  0  0  0  0  0  0  0  0  0  0
   -4.7950   24.5540  -30.0090 S   0  0  0  0  0  0  0  0  0  0  0  0
   -4.2420   25.6680  -30.8540 O   0  0  0  0  0  0  0  0  0  0  0  0
   -5.8010   25.1460  -29.0600 O   0  0  0  0  0  0  0  0  0  0  0  0
   -3.4780   23.8210  -29.0850 C   0  0  0  0  0  0  0  0  0  0  0  0
   -3.7520   22.8390  -28.1200 C   0  0  0  0  0  0  0  0  0  0  0  0
   -2.7050   22.2520  -27.4010 C   0  0  0  0  0  0  0  0  0  0  0  0
   -1.3850   22.6440  -27.6390 C   0  0  0  0  0  0  0  0  0  0  0  0
   -1.1080   23.6250  -28.5950 C   0  0  0  0  0  0  0  0  0  0  0  0
   -2.1510   24.2130  -29.3170 C   0  0  0  0  0  0  0  0  0  0  0  0
   -4.9740   22.0590  -30.8750 C   0  0  0  0  0  0  0  0  0  0  0  0
   -5.5120   21.1060  -31.9570 C   0  0  0  0  0  0  0  0  0  0  0  0
   -5.9860   19.9848  -35.0918 H   0  0  0  0  0  0  0  0  0  0  0  0
   -4.7888   17.9247  -35.8367 H   0  0  0  0  0  0  0  0  0  0  0  0
   -6.2962   15.7603  -32.4927 H   0  0  0  0  0  0  0  0  0  0  0  0
   -7.5102   17.7847  -31.6767 H   0  0  0  0  0  0  0  0  0  0  0  0
   -6.8660   22.1520  -33.0920 H   0  0  0  0  0  0  0  0  0  0  0  0
   -8.7085   22.2491  -31.5958 H   0  0  0  0  0  0  0  0  0  0  0  0
   -7.7197   21.3259  -30.3958 H   0  0  0  0  0  0  0  0  0  0  0  0
   -7.5208   24.1906  -31.2658 H   0  0  0  0  0  0  0  0  0  0  0  0
   -7.1694   23.4060  -29.6647 H   0  0  0  0  0  0  0  0  0  0  0  0
   -4.7905   22.5308  -27.9290 H   0  0  0  0  0  0  0  0  0  0  0  0
   -2.9213   21.4807  -26.6472 H   0  0  0  0  0  0  0  0  0  0  0  0
   -0.5634   22.1801  -27.0735 H   0  0  0  0  0  0  0  0  0  0  0  0
   -0.0688   23.9347  -28.7796 H   0  0  0  0  0  0  0  0  0  0  0  0
   -1.9306   24.9850  -30.0689 H   0  0  0  0  0  0  0  0  0  0  0  0
   -3.8819   22.1458  -30.9736 H   0  0  0  0  0  0  0  0  0  0  0  0
   -5.2230   21.6608  -29.8803 H   0  0  0  0  0  0  0  0  0  0  0  0
   -4.8745   21.1877  -32.8497 H   0  0  0  0  0  0  0  0  0  0  0  0
   -5.4968   20.0857  -31.5462 H   0  0  0  0  0  0  0  0  0  0  0  0
  1  2  2  0
  2  3  1  0
  3  4  2  0
  4  5  1  0
  5  6  2  0
  6  7  1  0
  7  8  2  0
  2  9  1  0
  9 10  1  0
 10 11  1  0
 11 12  1  0
 12 13  1  0
 13 14  2  0
 13 15  2  0
 13 16  1  0
 16 17  2  0
 17 18  1  0
 18 19  2  0
 19 20  1  0
 20 21  2  0
 12 22  1  0
 22 23  1  0
  8  3  1  0
 23  9  1  0
 21 16  1  0
  4 24  1  0
  5 25  1  0
  7 26  1  0
  8 27  1  0
  9 28  1  0
 10 29  1  0
 10 30  1  0
 11 31  1  0
 11 32  1  0
 17 33  1  0
 18 34  1  0
 19 35  1  0
 20 36  1  0
 21 37  1  0
 22 38  1  0
 22 39  1  0
 23 40  1  0
 23 41  1  0
M  CHG  1   9   1
M  END
>  <UniqueID>  (36) 
31

>  <SMILES>  (36) 
O=C(c1ccncc1)[NH+]1CCN(S(=O)(=O)c2ccccc2)CC1

>  <Energy>  (36) 
59.3509854318932

>  <Genealogy>  (36) 
O=C(c1ccncc1)[NH+]1CCN(S(=O)(=O)c2ccccc2)CC1 (protonated)
O=C(c1ccncc1)[NH+]1CCN(S(=O)(=O)c2ccccc2)CC1 (3D coordinates assigned)
O=C(c1ccncc1)[NH+]1CCN(S(=O)(=O)c2ccccc2)CC1 (nonaromatic ring conformer: 59.3509854318932 kcal/mol)

>  <smiles>  (36) 
O=C(c1ccncc1)N1CCN(S(=O)(=O)c2ccccc2)CC1

>  <score_type>  (36) 
oracle

>  <origin>  (36) 
adg

>  <m_score__min__energy>  (36) 
-8.0199999999999996

>  <m_primary>  (36) 
energy

$$$$
36:0
     RDKit          3D

 35 37  0  0  0  0  0  0  0  0999 V2000
   -2.2270   24.1700  -29.3020 C   0  0  0  0  0  0  0  0  0  0  0  0
   -3.1400   24.9260  -30.0900 O   0  0  0  0  0  0  0  0  0  0  0  0
   -4.4820   24.5760  -30.3020 C   0  0  0  0  0  0  0  0  0  0  0  0
   -5.5500   25.4050  -29.9080 C   0  0  0  0  0  0  0  0  0  0  0  0
   -6.8700   25.0080  -30.1380 C   0  0  0  0  0  0  0  0  0  0  0  0
   -7.1370   23.7880  -30.7630 C   0  0  0  0  0  0  0  0  0  0  0  0
   -6.0840   22.9570  -31.1680 C   0  0  0  0  0  0  0  0  0  0  0  0
   -6.3650   21.6970  -31.8000 N   0  0  0  0  0  0  0  0  0  0  0  0
   -7.4840   20.9000  -31.2750 C   0  0  0  0  0  0  0  0  0  0  0  0
   -7.9610   19.8390  -32.2710 C   0  0  0  0  0  0  0  0  0  0  0  0
   -6.7720   19.0220  -32.8000 C   0  0  1  0  0  0  0  0  0  0  0  0
   -6.1540   18.0740  -31.7820 C   0  0  0  0  0  0  0  0  0  0  0  0
   -6.6550   17.0140  -32.7340 C   0  0  0  0  0  0  0  0  0  0  0  0
   -7.2050   17.9610  -33.6200 O   0  0  0  0  0  0  0  0  0  0  0  0
   -5.7610   19.9110  -33.5400 C   0  0  0  0  0  0  0  0  0  0  0  0
   -5.4220   21.1370  -32.7420 C   0  0  0  0  0  0  0  0  0  0  0  0
   -4.3370   21.7310  -32.9840 O   0  0  0  0  0  0  0  0  0  0  0  0
   -4.7590   23.3560  -30.9290 C   0  0  0  0  0  0  0  0  0  0  0  0
   -2.4340   24.3414  -28.2353 H   0  0  0  0  0  0  0  0  0  0  0  0
   -2.3435   23.1004  -29.5308 H   0  0  0  0  0  0  0  0  0  0  0  0
   -1.1979   24.4839  -29.5308 H   0  0  0  0  0  0  0  0  0  0  0  0
   -5.3446   26.3680  -29.4177 H   0  0  0  0  0  0  0  0  0  0  0  0
   -7.7007   25.6580  -29.8260 H   0  0  0  0  0  0  0  0  0  0  0  0
   -8.1779   23.4782  -30.9380 H   0  0  0  0  0  0  0  0  0  0  0  0
   -7.1579   20.3976  -30.3524 H   0  0  0  0  0  0  0  0  0  0  0  0
   -8.3240   21.5844  -31.0851 H   0  0  0  0  0  0  0  0  0  0  0  0
   -8.6690   19.1635  -31.7685 H   0  0  0  0  0  0  0  0  0  0  0  0
   -8.4512   20.3417  -33.1178 H   0  0  0  0  0  0  0  0  0  0  0  0
   -5.0611   18.1384  -31.6752 H   0  0  0  0  0  0  0  0  0  0  0  0
   -6.3829   18.0924  -30.7062 H   0  0  0  0  0  0  0  0  0  0  0  0
   -5.8497   16.4132  -33.1817 H   0  0  0  0  0  0  0  0  0  0  0  0
   -7.3038   16.2163  -32.3432 H   0  0  0  0  0  0  0  0  0  0  0  0
   -4.8412   19.3347  -33.7186 H   0  0  0  0  0  0  0  0  0  0  0  0
   -6.2123   20.2308  -34.4908 H   0  0  0  0  0  0  0  0  0  0  0  0
   -3.9299   22.7025  -31.2380 H   0  0  0  0  0  0  0  0  0  0  0  0
  1  2  1  0
  2  3  1  0
  3  4  2  0
  4  5  1  0
  5  6  2  0
  6  7  1  0
  7  8  1  0
  8  9  1  0
  9 10  1  0
 10 11  1  0
 11 12  1  0
 12 13  1  0
 13 14  1  0
 11 15  1  0
 15 16  1  0
 16 17  2  0
  7 18  2  0
 18  3  1  0
 16  8  1  0
 11 14  1  6
  1 19  1  0
  1 20  1  0
  1 21  1  0
  4 22  1  0
  5 23  1  0
  6 24  1  0
  9 25  1  0
  9 26  1  0
 10 27  1  0
 10 28  1  0
 12 29  1  0
 12 30  1  0
 13 31  1  0
 13 32  1  0
 15 33  1  0
 15 34  1  0
 18 35  1  0
M  END
>  <UniqueID>  (37) 
32

>  <SMILES>  (37) 
COc1cccc(N2CC[C@]3(CCO3)CC2=O)c1

>  <Energy>  (37) 
103.58043123335602

>  <Genealogy>  (37) 
COc1cccc(N2CC[C@]3(CCO3)CC2=O)c1 (chirality)
COc1cccc(N2CC[C@]3(CCO3)CC2=O)c1 (3D coordinates assigned)
COc1cccc(N2CC[C@]3(CCO3)CC2=O)c1 (nonaromatic ring conformer: 103.58043123335602 kcal/mol)

>  <smiles>  (37) 
COc1cccc(N2CCC3(CCO3)CC2=O)c1

>  <score_type>  (37) 
oracle

>  <origin>  (37) 
adg

>  <m_score__min__energy>  (37) 
-7.6900000000000004

>  <m_primary>  (37) 
energy

$$$$
37:0
     RDKit          3D

 29 30  0  0  0  0  0  0  0  0999 V2000
   -2.8310   19.6900  -27.6660 N   0  0  0  0  0  0  0  0  0  0  0  0
   -3.0080   20.6990  -28.2040 C   0  0  0  0  0  0  0  0  0  0  0  0
   -3.2280   21.9540  -28.8730 C   0  0  0  0  0  0  0  0  0  0  0  0
   -2.3120   23.0000  -28.7190 C   0  0  0  0  0  0  0  0  0  0  0  0
   -2.5280   24.2200  -29.3650 C   0  0  0  0  0  0  0  0  0  0  0  0
   -3.6580   24.4020  -30.1750 C   0  0  0  0  0  0  0  0  0  0  0  0
   -3.8690   25.6270  -30.8090 O   0  0  0  0  0  0  0  0  0  0  0  0
   -4.5780   23.3480  -30.3450 C   0  0  0  0  0  0  0  0  0  0  0  0
   -5.7960   23.5240  -31.2190 C   0  0  0  0  0  0  0  0  0  0  0  0
   -5.8120   22.5300  -32.2930 N   0  0  0  0  0  0  0  0  0  0  0  0
   -6.6400   21.3510  -32.3010 C   0  0  0  0  0  0  0  0  0  0  0  0
   -7.9780   21.3770  -31.8600 C   0  0  0  0  0  0  0  0  0  0  0  0
   -8.7510   20.2120  -31.8790 C   0  0  0  0  0  0  0  0  0  0  0  0
   -8.2020   19.0130  -32.3410 C   0  0  0  0  0  0  0  0  0  0  0  0
   -6.8800   18.9780  -32.7890 C   0  0  0  0  0  0  0  0  0  0  0  0
   -6.1040   20.1410  -32.7720 C   0  0  0  0  0  0  0  0  0  0  0  0
   -4.3590   22.1300  -29.6800 C   0  0  0  0  0  0  0  0  0  0  0  0
   -1.4210   22.8620  -28.0889 H   0  0  0  0  0  0  0  0  0  0  0  0
   -1.8080   25.0418  -29.2375 H   0  0  0  0  0  0  0  0  0  0  0  0
   -4.2280   25.6790  -31.7560 H   0  0  0  0  0  0  0  0  0  0  0  0
   -6.7009   23.4061  -30.6048 H   0  0  0  0  0  0  0  0  0  0  0  0
   -5.7664   24.5279  -31.6676 H   0  0  0  0  0  0  0  0  0  0  0  0
   -5.1320   22.6640  -33.0750 H   0  0  0  0  0  0  0  0  0  0  0  0
   -8.4168   22.3188  -31.4988 H   0  0  0  0  0  0  0  0  0  0  0  0
   -9.7936   20.2395  -31.5295 H   0  0  0  0  0  0  0  0  0  0  0  0
   -8.8110   18.0971  -32.3518 H   0  0  0  0  0  0  0  0  0  0  0  0
   -6.4487   18.0348  -33.1556 H   0  0  0  0  0  0  0  0  0  0  0  0
   -5.0646   20.1081  -33.1306 H   0  0  0  0  0  0  0  0  0  0  0  0
   -5.0814   21.3083  -29.7940 H   0  0  0  0  0  0  0  0  0  0  0  0
  1  2  3  0
  2  3  1  0
  3  4  2  0
  4  5  1  0
  5  6  2  0
  6  7  1  0
  6  8  1  0
  8  9  1  0
  9 10  1  0
 10 11  1  0
 11 12  2  0
 12 13  1  0
 13 14  2  0
 14 15  1  0
 15 16  2  0
  8 17  2  0
 17  3  1  0
 16 11  1  0
  4 18  1  0
  5 19  1  0
  7 20  1  0
  9 21  1  0
  9 22  1  0
 10 23  1  0
 12 24  1  0
 13 25  1  0
 14 26  1  0
 15 27  1  0
 16 28  1  0
 17 29  1  0
M  END
>  <UniqueID>  (38) 
33

>  <SMILES>  (38) 
N#Cc1ccc(O)c(CNc2ccccc2)c1

>  <Energy>  (38) 
28.26609119563158

>  <Genealogy>  (38) 
N#Cc1ccc(O)c(CNc2ccccc2)c1 (3D coordinates assigned)
N#Cc1ccc(O)c(CNc2ccccc2)c1 (optimized conformer: 28.26609119563158 kcal/mol)

>  <smiles>  (38) 
N#Cc1ccc(O)c(CNc2ccccc2)c1

>  <score_type>  (38) 
oracle

>  <origin>  (38) 
adg

>  <m_score__min__energy>  (38) 
-7.5300000000000002

>  <m_primary>  (38) 
energy

$$$$
38:0
     RDKit          3D

 34 37  0  0  0  0  0  0  0  0999 V2000
   -0.6450   23.5060  -28.2100 C   0  0  0  0  0  0  0  0  0  0  0  0
   -0.9600   24.8650  -28.2170 C   0  0  0  0  0  0  0  0  0  0  0  0
   -2.0050   25.3040  -28.9660 N   0  0  0  0  0  0  0  0  0  0  0  0
   -2.7560   24.4510  -29.7120 C   0  0  0  0  0  0  0  0  0  0  0  0
   -3.8200   24.9700  -30.4630 O   0  0  0  0  0  0  0  0  0  0  0  0
   -5.1980   24.7610  -30.1560 C   0  0  0  0  0  0  0  0  0  0  0  0
   -6.0170   24.5450  -31.3860 C   0  0  0  0  0  0  0  0  0  0  0  0
   -6.3340   23.1290  -31.1160 N   0  0  0  0  0  0  0  0  0  0  0  0
   -7.0820   22.0910  -31.7570 C   0  0  0  0  0  0  0  0  0  0  0  0
   -8.4770   22.0040  -31.5810 C   0  0  0  0  0  0  0  0  0  0  0  0
   -9.2050   20.9750  -32.2170 C   0  0  0  0  0  0  0  0  0  0  0  0
   -8.5680   20.0570  -33.0030 N   0  0  0  0  0  0  0  0  0  0  0  0
   -7.2240   20.1480  -33.1680 C   0  0  0  0  0  0  0  0  0  0  0  0
   -6.4600   19.3260  -33.9040 N   0  0  0  0  0  0  0  0  0  0  0  0
   -5.1980   19.7930  -33.7730 C   0  0  0  0  0  0  0  0  0  0  0  0
   -5.1670   20.9160  -32.9510 C   0  0  0  0  0  0  0  0  0  0  0  0
   -6.4790   21.1290  -32.5710 C   0  0  0  0  0  0  0  0  0  0  0  0
   -5.5270   23.3260  -29.8970 C   0  0  0  0  0  0  0  0  0  0  0  0
   -2.4340   23.0810  -29.7030 C   0  0  0  0  0  0  0  0  0  0  0  0
   -1.3870   22.6450  -28.9530 N   0  0  0  0  0  0  0  0  0  0  0  0
    0.1974   23.1350  -27.6077 H   0  0  0  0  0  0  0  0  0  0  0  0
   -0.3675   25.5749  -27.6213 H   0  0  0  0  0  0  0  0  0  0  0  0
   -5.3640   25.5680  -29.4271 H   0  0  0  0  0  0  0  0  0  0  0  0
   -6.9130   25.1823  -31.4169 H   0  0  0  0  0  0  0  0  0  0  0  0
   -5.5427   24.7771  -32.3510 H   0  0  0  0  0  0  0  0  0  0  0  0
   -8.9987   22.7373  -30.9485 H   0  0  0  0  0  0  0  0  0  0  0  0
  -10.2944   20.9119  -32.0785 H   0  0  0  0  0  0  0  0  0  0  0  0
   -9.1100   19.2960  -33.4700 H   0  0  0  0  0  0  0  0  0  0  0  0
   -6.7720   18.4980  -34.4580 H   0  0  0  0  0  0  0  0  0  0  0  0
   -4.3144   19.3456  -34.2517 H   0  0  0  0  0  0  0  0  0  0  0  0
   -4.2855   21.5083  -32.6646 H   0  0  0  0  0  0  0  0  0  0  0  0
   -6.1091   23.1835  -28.9746 H   0  0  0  0  0  0  0  0  0  0  0  0
   -4.6828   22.6389  -29.7382 H   0  0  0  0  0  0  0  0  0  0  0  0
   -3.0246   22.3687  -30.2979 H   0  0  0  0  0  0  0  0  0  0  0  0
  1  2  2  0
  2  3  1  0
  3  4  2  0
  4  5  1  0
  5  6  1  0
  6  7  1  0
  7  8  1  0
  8  9  1  0
  9 10  2  0
 10 11  1  0
 11 12  2  0
 12 13  1  0
 13 14  1  0
 14 15  1  0
 15 16  2  0
 16 17  1  0
  8 18  1  0
  4 19  1  0
 19 20  2  0
 20  1  1  0
 18  6  1  0
 17  9  1  0
 17 13  2  0
  1 21  1  0
  2 22  1  0
  6 23  1  0
  7 24  1  0
  7 25  1  0
 10 26  1  0
 11 27  1  0
 12 28  1  0
 14 29  1  0
 15 30  1  0
 16 31  1  0
 18 32  1  0
 18 33  1  0
 19 34  1  0
M  CHG  1  12   1
M  END
>  <UniqueID>  (39) 
34

>  <SMILES>  (39) 
c1cnc(OC2CN(c3cc[nH+]c4[nH]ccc34)C2)cn1

>  <Energy>  (39) 
117.5830176876379

>  <Genealogy>  (39) 
c1cnc(OC2CN(c3cc[nH+]c4[nH]ccc34)C2)cn1 (protonated)
c1cnc(OC2CN(c3cc[nH+]c4[nH]ccc34)C2)cn1 (3D coordinates assigned)
c1cnc(OC2CN(c3cc[nH+]c4[nH]ccc34)C2)cn1 (nonaromatic ring conformer: 117.5830176876379 kcal/mol)

>  <smiles>  (39) 
c1cnc(OC2CN(c3ccnc4[nH]ccc34)C2)cn1

>  <score_type>  (39) 
oracle

>  <origin>  (39) 
adg

>  <m_score__min__energy>  (39) 
-7.2400000000000002

>  <m_primary>  (39) 
energy

$$$$
39:0
     RDKit          3D

 31 33  0  0  0  0  0  0  0  0999 V2000
   -6.1940   16.6540  -34.2980 C   0  0  0  0  0  0  0  0  0  0  0  0
   -6.9020   16.7420  -33.0960 C   0  0  0  0  0  0  0  0  0  0  0  0
   -7.0710   17.9800  -32.4690 C   0  0  0  0  0  0  0  0  0  0  0  0
   -6.5310   19.1490  -33.0410 C   0  0  0  0  0  0  0  0  0  0  0  0
   -6.7090   20.4660  -32.3780 C   0  0  0  0  0  0  0  0  0  0  0  0
   -5.7570   21.4870  -32.5500 C   0  0  0  0  0  0  0  0  0  0  0  0
   -5.9250   22.7270  -31.9270 C   0  0  0  0  0  0  0  0  0  0  0  0
   -7.0520   22.9710  -31.1200 C   0  0  0  0  0  0  0  0  0  0  0  0
   -7.2710   24.1980  -30.4740 O   0  0  0  0  0  0  0  0  0  0  0  0
   -6.3590   25.2960  -30.4580 C   0  0  0  0  0  0  0  0  0  0  0  0
   -5.0440   24.8790  -29.8780 C   0  0  0  0  0  0  0  0  0  0  0  0
   -3.8690   24.9290  -30.5320 N   0  0  0  0  0  0  0  0  0  0  0  0
   -2.9740   24.5010  -29.6530 N   0  0  0  0  0  0  0  0  0  0  0  0
   -3.5680   24.2060  -28.5060 N   0  0  0  0  0  0  0  0  0  0  0  0
   -4.8630   24.4380  -28.6250 N   0  0  0  0  0  0  0  0  0  0  0  0
   -7.9980   21.9540  -30.9470 C   0  0  0  0  0  0  0  0  0  0  0  0
   -7.8310   20.7130  -31.5690 C   0  0  0  0  0  0  0  0  0  0  0  0
   -5.8200   19.0460  -34.2520 C   0  0  0  0  0  0  0  0  0  0  0  0
   -5.6550   17.8050  -34.8740 C   0  0  0  0  0  0  0  0  0  0  0  0
   -6.0619   15.6787  -34.7892 H   0  0  0  0  0  0  0  0  0  0  0  0
   -7.3273   15.8347  -32.6422 H   0  0  0  0  0  0  0  0  0  0  0  0
   -7.6291   18.0419  -31.5231 H   0  0  0  0  0  0  0  0  0  0  0  0
   -4.8731   21.3082  -33.1799 H   0  0  0  0  0  0  0  0  0  0  0  0
   -5.1722   23.5165  -32.0682 H   0  0  0  0  0  0  0  0  0  0  0  0
   -6.2037   25.6522  -31.4871 H   0  0  0  0  0  0  0  0  0  0  0  0
   -6.7819   26.0997  -29.8373 H   0  0  0  0  0  0  0  0  0  0  0  0
   -5.5760   24.2980  -27.8750 H   0  0  0  0  0  0  0  0  0  0  0  0
   -8.8810   22.1328  -30.3158 H   0  0  0  0  0  0  0  0  0  0  0  0
   -8.5837   19.9240  -31.4239 H   0  0  0  0  0  0  0  0  0  0  0  0
   -5.3913   19.9486  -34.7119 H   0  0  0  0  0  0  0  0  0  0  0  0
   -5.0986   17.7356  -35.8204 H   0  0  0  0  0  0  0  0  0  0  0  0
  1  2  2  0
  2  3  1  0
  3  4  2  0
  4  5  1  0
  5  6  2  0
  6  7  1  0
  7  8  2  0
  8  9  1  0
  9 10  1  0
 10 11  1  0
 11 12  2  0
 12 13  1  0
 13 14  1  0
 14 15  2  0
  8 16  1  0
 16 17  2  0
  4 18  1  0
 18 19  2  0
 19  1  1  0
 17  5  1  0
 15 11  1  0
  1 20  1  0
  2 21  1  0
  3 22  1  0
  6 23  1  0
  7 24  1  0
 10 25  1  0
 10 26  1  0
 15 27  1  0
 16 28  1  0
 17 29  1  0
 18 30  1  0
 19 31  1  0
M  CHG  2  13  -1  15   1
M  END
>  <UniqueID>  (40) 
35

>  <SMILES>  (40) 
c1ccc(-c2ccc(OCc3n[n-]n[nH+]3)cc2)cc1

>  <Energy>  (40) 
77.48036138654034

>  <Genealogy>  (40) 
c1ccc(-c2ccc(OCc3n[n-]n[nH+]3)cc2)cc1 (protonated)
c1ccc(-c2ccc(OCc3n[n-]n[nH+]3)cc2)cc1 (3D coordinates assigned)
c1ccc(-c2ccc(OCc3n[n-]n[nH+]3)cc2)cc1 (optimized conformer: 77.48036138654034 kcal/mol)

>  <smiles>  (40) 
c1ccc(-c2ccc(OCc3nn[nH]n3)cc2)cc1

>  <score_type>  (40) 
oracle

>  <origin>  (40) 
adg

>  <m_score__min__energy>  (40) 
-8.2799999999999994

>  <m_primary>  (40) 
energy

$$$$
40:0
     RDKit          3D

 34 36  0  0  0  0  0  0  0  0999 V2000
   -4.5748   17.5604  -33.9687 H   0  0  0  0  0  0  0  0  0  0  0  0
   -4.6920   18.6030  -33.6380 C   0  0  0  0  0  0  0  0  0  0  0  0
   -3.5850   19.4460  -33.6040 C   0  0  0  0  0  0  0  0  0  0  0  0
   -2.5978   19.0678  -33.9081 H   0  0  0  0  0  0  0  0  0  0  0  0
   -3.7240   20.7670  -33.1860 C   0  0  0  0  0  0  0  0  0  0  0  0
   -2.8439   21.4263  -33.1610 H   0  0  0  0  0  0  0  0  0  0  0  0
   -4.9780   21.2650  -32.7960 C   0  0  0  0  0  0  0  0  0  0  0  0
   -6.1210   20.4060  -32.8260 C   0  0  0  0  0  0  0  0  0  0  0  0
   -5.9510   19.0720  -33.2550 C   0  0  0  0  0  0  0  0  0  0  0  0
   -6.8178   18.3955  -33.2881 H   0  0  0  0  0  0  0  0  0  0  0  0
   -7.3560   20.9720  -32.4170 C   0  0  0  0  0  0  0  0  0  0  0  0
   -7.4130   22.2890  -32.0180 C   0  0  0  0  0  0  0  0  0  0  0  0
   -8.7150   22.5840  -31.6790 C   0  0  0  0  0  0  0  0  0  0  0  0
   -9.1096   23.5462  -31.3205 H   0  0  0  0  0  0  0  0  0  0  0  0
   -9.4190   21.4150  -31.8850 C   0  0  0  0  0  0  0  0  0  0  0  0
  -10.4986   21.2981  -31.7096 H   0  0  0  0  0  0  0  0  0  0  0  0
   -8.6030   20.4310  -32.3320 N   0  0  0  0  0  0  0  0  0  0  0  0
   -9.0680   19.0810  -32.6380 C   0  0  0  0  0  0  0  0  0  0  0  0
   -9.2555   18.5365  -31.7008 H   0  0  0  0  0  0  0  0  0  0  0  0
   -9.9986   19.1373  -33.2219 H   0  0  0  0  0  0  0  0  0  0  0  0
   -8.3002   18.5523  -33.2219 H   0  0  0  0  0  0  0  0  0  0  0  0
   -6.2880   23.1090  -32.0000 C   0  0  0  0  0  0  0  0  0  0  0  0
   -6.4060   24.3510  -31.6150 N   0  0  0  0  0  0  0  0  0  0  0  0
   -6.4040   24.8590  -30.2430 C   0  0  0  0  0  0  0  0  0  0  0  0
   -6.9874   25.7908  -30.2047 H   0  0  0  0  0  0  0  0  0  0  0  0
   -6.8490   24.0951  -29.5885 H   0  0  0  0  0  0  0  0  0  0  0  0
   -4.9780   25.1420  -29.7580 C   0  0  0  0  0  0  0  0  0  0  0  0
   -4.9198   26.1773  -29.3909 H   0  0  0  0  0  0  0  0  0  0  0  0
   -4.7319   24.4373  -28.9500 H   0  0  0  0  0  0  0  0  0  0  0  0
   -4.0200   24.9640  -30.8460 N   0  0  0  0  0  0  0  0  0  0  0  0
   -4.2280   25.6730  -31.5860 H   0  0  0  0  0  0  0  0  0  0  0  0
   -4.1990   24.0280  -31.2760 H   0  0  0  0  0  0  0  0  0  0  0  0
   -5.0890   22.5700  -32.3880 N   0  0  0  0  0  0  0  0  0  0  0  0
   -4.2240   23.1540  -32.3750 H   0  0  0  0  0  0  0  0  0  0  0  0
  1  2  1  0
  2  3  2  0
  3  4  1  0
  3  5  1  0
  5  6  1  0
  5  7  2  0
  7  8  1  0
  8  9  2  0
  9 10  1  0
  8 11  1  0
 11 12  2  0
 12 13  1  0
 13 14  1  0
 13 15  2  0
 15 16  1  0
 15 17  1  0
 17 18  1  0
 18 19  1  0
 18 20  1  0
 18 21  1  0
 12 22  1  0
 22 23  2  0
 23 24  1  0
 24 25  1  0
 24 26  1  0
 24 27  1  0
 27 28  1  0
 27 29  1  0
 27 30  1  0
 30 31  1  0
 30 32  1  0
 22 33  1  0
 33 34  1  0
  9  2  1  0
 17 11  1  0
 33  7  1  0
M  END
>  <UniqueID>  (41) 
36

>  <SMILES>  (41) 
Cn1ccc2/c(=N/CCN)[nH]c3ccccc3c21

>  <Energy>  (41) 
77.13602319881441

>  <Genealogy>  (41) 
Cn1ccc2/c(=N/CCN)[nH]c3ccccc3c21 (cis-trans isomerization)
Cn1ccc2/c(=N/CCN)[nH]c3ccccc3c21 (3D coordinates assigned)
Cn1ccc2/c(=N/CCN)[nH]c3ccccc3c21 (optimized conformer: 77.13602319881441 kcal/mol)

>  <smiles>  (41) 
Cn1ccc2c(=NCCN)[nH]c3ccccc3c21

>  <score_type>  (41) 
oracle

>  <origin>  (41) 
adg

>  <m_score__min__energy>  (41) 
-7.9199999999999999

>  <m_primary>  (41) 
energy

$$$$
41:0
     RDKit          3D

 43 46  0  0  0  0  0  0  0  0999 V2000
    1.9110   18.6807  -32.9301 H   0  0  0  0  0  0  0  0  0  0  0  0
    1.1520   19.3450  -33.3690 C   0  0  0  0  0  0  0  0  0  0  0  0
    1.5290   20.5880  -33.8830 C   0  0  0  0  0  0  0  0  0  0  0  0
    2.5818   20.9037  -33.8382 H   0  0  0  0  0  0  0  0  0  0  0  0
    0.5670   21.4360  -34.4570 C   0  0  0  0  0  0  0  0  0  0  0  0
    0.9110   22.7110  -35.0180 N   0  0  0  0  0  0  0  0  0  0  0  0
    2.2160   22.9960  -36.1220 S   0  0  0  0  0  0  0  0  0  0  0  0
    2.5760   21.7200  -36.8290 O   0  0  0  0  0  0  0  0  0  0  0  0
    1.8190   24.0430  -37.1240 O   0  0  0  0  0  0  0  0  0  0  0  0
    3.6280   23.5710  -35.2080 C   0  0  0  0  0  0  0  0  0  0  0  0
    3.4254   23.4885  -34.1300 H   0  0  0  0  0  0  0  0  0  0  0  0
    4.5049   22.9583  -35.4642 H   0  0  0  0  0  0  0  0  0  0  0  0
    3.8275   24.6220  -35.4642 H   0  0  0  0  0  0  0  0  0  0  0  0
   -0.7720   21.0280  -34.4960 C   0  0  0  0  0  0  0  0  0  0  0  0
   -1.5269   21.6809  -34.9585 H   0  0  0  0  0  0  0  0  0  0  0  0
   -1.1620   19.7900  -33.9490 C   0  0  0  0  0  0  0  0  0  0  0  0
   -2.5240   19.3320  -34.0020 N   0  0  0  0  0  0  0  0  0  0  0  0
   -3.5640   19.8930  -33.4510 C   0  0  0  0  0  0  0  0  0  0  0  0
   -3.4610   21.1280  -32.8940 N   0  0  0  0  0  0  0  0  0  0  0  0
   -4.4990   21.7560  -32.2910 C   0  0  0  0  0  0  0  0  0  0  0  0
   -4.2970   23.0320  -31.7560 C   0  0  0  0  0  0  0  0  0  0  0  0
   -3.3055   23.5024  -31.8319 H   0  0  0  0  0  0  0  0  0  0  0  0
   -5.3430   23.7190  -31.1240 C   0  0  0  0  0  0  0  0  0  0  0  0
   -5.1280   25.0700  -30.5590 C   0  0  0  0  0  0  0  0  0  0  0  0
   -6.0780   25.6980  -30.0190 O   0  0  0  0  0  0  0  0  0  0  0  0
   -3.8740   25.6660  -30.6160 O   0  0  0  0  0  0  0  0  0  0  0  0
   -6.6000   23.1050  -31.0350 C   0  0  0  0  0  0  0  0  0  0  0  0
   -7.4297   23.6333  -30.5425 H   0  0  0  0  0  0  0  0  0  0  0  0
   -6.8110   21.8290  -31.5650 C   0  0  0  0  0  0  0  0  0  0  0  0
   -7.8053   21.3656  -31.4835 H   0  0  0  0  0  0  0  0  0  0  0  0
   -5.7650   21.1260  -32.2040 C   0  0  0  0  0  0  0  0  0  0  0  0
   -5.9120   19.8240  -32.7620 C   0  0  0  0  0  0  0  0  0  0  0  0
   -7.1290   19.1020  -32.7240 C   0  0  0  0  0  0  0  0  0  0  0  0
   -8.0128   19.5517  -32.2479 H   0  0  0  0  0  0  0  0  0  0  0  0
   -7.2190   17.8590  -33.2690 N   0  0  0  0  0  0  0  0  0  0  0  0
   -8.1290   17.3490  -33.2270 H   0  0  0  0  0  0  0  0  0  0  0  0
   -6.1590   17.2630  -33.8680 C   0  0  0  0  0  0  0  0  0  0  0  0
   -6.2677   16.2570  -34.2995 H   0  0  0  0  0  0  0  0  0  0  0  0
   -4.9340   17.9190  -33.9390 C   0  0  0  0  0  0  0  0  0  0  0  0
   -4.0758   17.4316  -34.4248 H   0  0  0  0  0  0  0  0  0  0  0  0
   -4.7940   19.2060  -33.3890 C   0  0  0  0  0  0  0  0  0  0  0  0
   -0.1850   18.9420  -33.4100 C   0  0  0  0  0  0  0  0  0  0  0  0
   -0.5340   17.7300  -32.9130 F   0  0  0  0  0  0  0  0  0  0  0  0
  1  2  1  0
  2  3  2  0
  3  4  1  0
  3  5  1  0
  5  6  1  0
  6  7  1  0
  7  8  2  0
  7  9  2  0
  7 10  1  0
 10 11  1  0
 10 12  1  0
 10 13  1  0
  5 14  2  0
 14 15  1  0
 14 16  1  0
 16 17  1  0
 17 18  2  0
 18 19  1  0
 19 20  1  0
 20 21  2  0
 21 22  1  0
 21 23  1  0
 23 24  1  0
 24 25  2  0
 24 26  1  0
 23 27  2  0
 27 28  1  0
 27 29  1  0
 29 30  1  0
 29 31  2  0
 31 32  1  0
 32 33  2  0
 33 34  1  0
 33 35  1  0
 35 36  1  0
 35 37  2  0
 37 38  1  0
 37 39  1  0
 39 40  1  0
 39 41  2  0
 16 42  2  0
 42 43  1  0
 42  2  1  0
 41 18  1  0
 31 20  1  0
 41 32  1  0
M  CHG  4   6  -1  19  -1  26  -1  35   1
M  END
>  <UniqueID>  (42) 
37

>  <SMILES>  (42) 
CS(=O)(=O)[N-]c1ccc(F)c(/N=c2\[n-]c3cc(C(=O)[O-])ccc3c3c[nH+]ccc23)c1

>  <Energy>  (42) 
66.22956915899898

>  <Genealogy>  (42) 
CS(=O)(=O)[N-]c1ccc(F)c(N=c2[n-]c3cc(C(=O)[O-])ccc3c3c[nH+]ccc23)c1 (protonated)
CS(=O)(=O)[N-]c1ccc(F)c(/N=c2\[n-]c3cc(C(=O)[O-])ccc3c3c[nH+]ccc23)c1 (cis-trans isomerization)
CS(=O)(=O)[N-]c1ccc(F)c(/N=c2\[n-]c3cc(C(=O)[O-])ccc3c3c[nH+]ccc23)c1 (3D coordinates assigned)
CS(=O)(=O)[N-]c1ccc(F)c(/N=c2\[n-]c3cc(C(=O)[O-])ccc3c3c[nH+]ccc23)c1 (optimized conformer: 66.22956915899898 kcal/mol)

>  <smiles>  (42) 
CS(=O)(=O)Nc1ccc(F)c(N=c2[nH]c3cc(C(=O)O)ccc3c3cnccc23)c1

>  <score_type>  (42) 
oracle

>  <origin>  (42) 
adg

>  <m_score__min__energy>  (42) 
-11.69

>  <m_primary>  (42) 
energy

$$$$
42:0
     RDKit          3D

 48 52  0  0  0  0  0  0  0  0999 V2000
   -6.7320   24.1610  -32.0720 C   0  0  0  0  0  0  0  0  0  0  0  0
   -6.6010   22.7070  -31.9340 N   0  0  0  0  0  0  0  0  0  0  0  0
   -7.7630   21.8690  -32.1540 C   0  0  0  0  0  0  0  0  0  0  0  0
   -8.8860   22.4110  -32.3450 O   0  0  0  0  0  0  0  0  0  0  0  0
   -7.6980   20.3840  -32.1210 C   0  0  0  0  0  0  0  0  0  0  0  0
   -8.7320   19.6690  -31.4910 C   0  0  0  0  0  0  0  0  0  0  0  0
   -8.6840   18.2750  -31.4060 C   0  0  0  0  0  0  0  0  0  0  0  0
   -7.6050   17.5770  -31.9520 C   0  0  0  0  0  0  0  0  0  0  0  0
   -6.5800   18.2700  -32.5970 C   0  0  0  0  0  0  0  0  0  0  0  0
   -6.6280   19.6650  -32.7020 C   0  0  0  0  0  0  0  0  0  0  0  0
   -5.3140   20.5120  -33.5800 S   0  0  0  0  0  0  0  0  0  0  0  0
   -4.6850   21.1520  -32.0360 C   0  0  0  0  0  0  0  0  0  0  0  0
   -3.5170   20.6200  -31.4800 C   0  0  0  0  0  0  0  0  0  0  0  0
   -3.0280   21.1160  -30.2700 C   0  0  0  0  0  0  0  0  0  0  0  0
   -3.7170   22.1370  -29.5910 C   0  0  0  0  0  0  0  0  0  0  0  0
   -3.2250   22.6810  -28.3540 N   0  0  0  0  0  0  0  0  0  0  0  0
   -3.0350   24.0830  -28.1080 C   0  0  0  0  0  0  0  0  0  0  0  0
   -3.0990   24.9150  -29.0520 O   0  0  0  0  0  0  0  0  0  0  0  0
   -2.6670   24.5600  -26.7360 C   0  0  0  0  0  0  0  0  0  0  0  0
   -1.3510   25.2740  -26.7770 C   0  0  0  0  0  0  0  0  0  0  0  0
   -0.4150   25.2320  -27.8050 C   0  0  0  0  0  0  0  0  0  0  0  0
    0.6600   25.9210  -27.4690 O   0  0  0  0  0  0  0  0  0  0  0  0
    0.4670   26.4010  -26.2640 C   0  0  0  0  0  0  0  0  0  0  0  0
    1.3410   27.1810  -25.5110 C   0  0  0  0  0  0  0  0  0  0  0  0
    0.9280   27.5750  -24.2250 C   0  0  0  0  0  0  0  0  0  0  0  0
   -0.3360   27.1860  -23.7280 C   0  0  0  0  0  0  0  0  0  0  0  0
   -1.1990   26.4000  -24.5130 C   0  0  0  0  0  0  0  0  0  0  0  0
   -0.7600   26.0260  -25.7840 C   0  0  0  0  0  0  0  0  0  0  0  0
   -4.8810   22.6740  -30.1610 C   0  0  0  0  0  0  0  0  0  0  0  0
   -5.3820   22.1740  -31.3750 C   0  0  0  0  0  0  0  0  0  0  0  0
   -6.7735   24.6218  -31.0740 H   0  0  0  0  0  0  0  0  0  0  0  0
   -5.8659   24.5566  -32.6227 H   0  0  0  0  0  0  0  0  0  0  0  0
   -7.6549   24.3954  -32.6227 H   0  0  0  0  0  0  0  0  0  0  0  0
   -9.5866   20.2120  -31.0611 H   0  0  0  0  0  0  0  0  0  0  0  0
   -9.4974   17.7268  -30.9082 H   0  0  0  0  0  0  0  0  0  0  0  0
   -7.5630   16.4806  -31.8736 H   0  0  0  0  0  0  0  0  0  0  0  0
   -5.7304   17.7176  -33.0249 H   0  0  0  0  0  0  0  0  0  0  0  0
   -2.9827   19.8093  -31.9970 H   0  0  0  0  0  0  0  0  0  0  0  0
   -2.0995   20.7063  -29.8457 H   0  0  0  0  0  0  0  0  0  0  0  0
   -2.9060   22.0110  -27.6190 H   0  0  0  0  0  0  0  0  0  0  0  0
   -3.4432   25.2478  -26.3692 H   0  0  0  0  0  0  0  0  0  0  0  0
   -2.5868   23.6941  -26.0624 H   0  0  0  0  0  0  0  0  0  0  0  0
   -0.5507   24.7018  -28.7592 H   0  0  0  0  0  0  0  0  0  0  0  0
    2.3223   27.4794  -25.9086 H   0  0  0  0  0  0  0  0  0  0  0  0
    1.5940   28.1903  -23.6021 H   0  0  0  0  0  0  0  0  0  0  0  0
   -0.6473   27.4998  -22.7207 H   0  0  0  0  0  0  0  0  0  0  0  0
   -2.1858   26.0908  -24.1381 H   0  0  0  0  0  0  0  0  0  0  0  0
   -5.4071   23.4952  -29.6522 H   0  0  0  0  0  0  0  0  0  0  0  0
  1  2  1  0
  2  3  1  0
  3  4  2  0
  3  5  1  0
  5  6  2  0
  6  7  1  0
  7  8  2  0
  8  9  1  0
  9 10  2  0
 10 11  1  0
 11 12  1  0
 12 13  2  0
 13 14  1  0
 14 15  2  0
 15 16  1  0
 16 17  1  0
 17 18  2  0
 17 19  1  0
 19 20  1  0
 20 21  2  0
 21 22  1  0
 22 23  1  0
 23 24  2  0
 24 25  1  0
 25 26  2  0
 26 27  1  0
 27 28  2  0
 15 29  1  0
 29 30  2  0
 30  2  1  0
 10  5  1  0
 30 12  1  0
 28 20  1  0
 28 23  1  0
  1 31  1  0
  1 32  1  0
  1 33  1  0
  6 34  1  0
  7 35  1  0
  8 36  1  0
  9 37  1  0
 13 38  1  0
 14 39  1  0
 16 40  1  0
 19 41  1  0
 19 42  1  0
 21 43  1  0
 24 44  1  0
 25 45  1  0
 26 46  1  0
 27 47  1  0
 29 48  1  0
M  END
>  <UniqueID>  (43) 
38

>  <SMILES>  (43) 
CN1C(=O)c2ccccc2Sc2ccc(NC(=O)Cc3coc4ccccc34)cc21

>  <Energy>  (43) 
101.43808988634333

>  <Genealogy>  (43) 
CN1C(=O)c2ccccc2Sc2ccc(NC(=O)Cc3coc4ccccc34)cc21 (3D coordinates assigned)
CN1C(=O)c2ccccc2Sc2ccc(NC(=O)Cc3coc4ccccc34)cc21 (nonaromatic ring conformer: 101.43808988634333 kcal/mol)

>  <smiles>  (43) 
CN1C(=O)c2ccccc2Sc2ccc(NC(=O)Cc3coc4ccccc34)cc21

>  <score_type>  (43) 
oracle

>  <origin>  (43) 
adg

>  <m_score__min__energy>  (43) 
-10.140000000000001

>  <m_primary>  (43) 
energy

$$$$
43:0
     RDKit          3D

 21 22  0  0  0  0  0  0  0  0999 V2000
   -1.3500   21.1530  -28.6950 O   0  0  0  0  0  0  0  0  0  0  0  0
   -2.1430   21.0360  -27.7240 C   0  0  0  0  0  0  0  0  0  0  0  0
   -1.9360   19.9630  -26.7360 C   0  0  0  0  0  0  0  0  0  0  0  0
   -3.1400   18.9290  -26.3370 S   0  0  0  0  0  0  0  0  0  0  0  0
   -3.2870   21.9030  -27.6600 N   0  0  0  0  0  0  0  0  0  0  0  0
   -3.2890   23.1630  -27.8820 N   0  0  0  0  0  0  0  0  0  0  0  0
   -3.7650   23.7960  -29.0790 C   0  0  0  0  0  0  0  0  0  0  0  0
   -3.1790   24.8760  -29.7130 C   0  0  0  0  0  0  0  0  0  0  0  0
   -1.9770   25.4610  -29.3350 O   0  0  0  0  0  0  0  0  0  0  0  0
   -3.9160   25.3080  -30.7630 N   0  0  0  0  0  0  0  0  0  0  0  0
   -4.9940   24.4950  -30.7650 C   0  0  0  0  0  0  0  0  0  0  0  0
   -6.0770   24.5600  -31.6380 C   0  0  0  0  0  0  0  0  0  0  0  0
   -7.1390   23.6590  -31.4430 C   0  0  0  0  0  0  0  0  0  0  0  0
   -7.1050   22.7310  -30.3790 C   0  0  0  0  0  0  0  0  0  0  0  0
   -6.0030   22.6890  -29.5050 C   0  0  0  0  0  0  0  0  0  0  0  0
   -4.9500   23.5740  -29.7440 C   0  0  0  0  0  0  0  0  0  0  0  0
   -0.9519   19.8546  -26.2566 H   0  0  0  0  0  0  0  0  0  0  0  0
   -6.1011   25.2947  -32.4563 H   0  0  0  0  0  0  0  0  0  0  0  0
   -8.0025   23.6772  -32.1242 H   0  0  0  0  0  0  0  0  0  0  0  0
   -7.9454   22.0365  -30.2325 H   0  0  0  0  0  0  0  0  0  0  0  0
   -5.9722   21.9829  -28.6621 H   0  0  0  0  0  0  0  0  0  0  0  0
  1  2  2  0
  2  3  1  0
  3  4  2  0
  2  5  1  0
  5  6  2  3
  6  7  1  0
  7  8  2  0
  8  9  1  0
  8 10  1  0
 10 11  1  0
 11 12  2  0
 12 13  1  0
 13 14  2  0
 14 15  1  0
 15 16  2  0
 16  7  1  0
 16 11  1  0
  3 17  1  0
 12 18  1  0
 13 19  1  0
 14 20  1  0
 15 21  1  0
M  CHG  2   9  -1  10  -1
M  END
>  <UniqueID>  (44) 
39

>  <SMILES>  (44) 
O=C(C=S)N=Nc1c([O-])[n-]c2ccccc12

>  <Energy>  (44) 
67.61482546888901

>  <Genealogy>  (44) 
O=C(C=S)N=Nc1c([O-])[n-]c2ccccc12 (protonated)
O=C(C=S)N=Nc1c([O-])[n-]c2ccccc12 (3D coordinates assigned)
O=C(C=S)N=Nc1c([O-])[n-]c2ccccc12 (optimized conformer: 67.61482546888901 kcal/mol)

>  <smiles>  (44) 
O=C(C=S)N=Nc1c(O)[nH]c2ccccc12

>  <score_type>  (44) 
oracle

>  <origin>  (44) 
adg

>  <m_score__min__energy>  (44) 
-10.6

>  <m_primary>  (44) 
energy

$$$$
44:0
     RDKit          3D

 31 32  0  0  0  0  0  0  0  0999 V2000
   -0.4980   20.9600  -28.1740 C   0  0  0  0  0  0  0  0  0  0  0  0
   -1.5470   21.8590  -28.7440 C   0  0  0  0  0  0  0  0  0  0  0  0
   -1.4280   23.2460  -28.6230 C   0  0  0  0  0  0  0  0  0  0  0  0
   -2.4310   24.0630  -29.1520 C   0  0  0  0  0  0  0  0  0  0  0  0
   -2.3410   25.4490  -29.0240 O   0  0  0  0  0  0  0  0  0  0  0  0
   -3.5380   23.4750  -29.7870 C   0  0  0  0  0  0  0  0  0  0  0  0
   -4.6350   24.3230  -30.3220 C   0  0  0  0  0  0  0  0  0  0  0  0
   -4.3450   25.4000  -30.9060 O   0  0  0  0  0  0  0  0  0  0  0  0
   -6.0620   23.9320  -30.2470 C   0  0  0  0  0  0  0  0  0  0  0  0
   -6.8630   23.7110  -31.3010 C   0  0  0  0  0  0  0  0  0  0  0  0
   -7.3800   22.3890  -31.7120 C   0  0  0  0  0  0  0  0  0  0  0  0
   -8.6570   21.9530  -31.3180 C   0  0  0  0  0  0  0  0  0  0  0  0
   -9.1220   20.6940  -31.7120 C   0  0  0  0  0  0  0  0  0  0  0  0
   -8.3270   19.8750  -32.5190 C   0  0  0  0  0  0  0  0  0  0  0  0
   -7.0710   20.3180  -32.9420 C   0  0  0  0  0  0  0  0  0  0  0  0
   -6.6020   21.5750  -32.5500 C   0  0  0  0  0  0  0  0  0  0  0  0
   -3.5730   22.0680  -29.8900 C   0  0  0  0  0  0  0  0  0  0  0  0
   -4.5200   21.4900  -30.4850 O   0  0  0  0  0  0  0  0  0  0  0  0
   -2.5960   21.3320  -29.3670 O   0  0  0  0  0  0  0  0  0  0  0  0
   -0.5410   20.9968  -27.0755 H   0  0  0  0  0  0  0  0  0  0  0  0
   -0.6749   19.9288  -28.5135 H   0  0  0  0  0  0  0  0  0  0  0  0
    0.4940   21.2927  -28.5135 H   0  0  0  0  0  0  0  0  0  0  0  0
   -0.5567   23.6888  -28.1182 H   0  0  0  0  0  0  0  0  0  0  0  0
   -3.0830   26.0610  -29.3440 H   0  0  0  0  0  0  0  0  0  0  0  0
   -6.5010   23.8131  -29.2454 H   0  0  0  0  0  0  0  0  0  0  0  0
   -7.1575   24.5814  -31.9058 H   0  0  0  0  0  0  0  0  0  0  0  0
   -9.2920   22.6034  -30.6985 H   0  0  0  0  0  0  0  0  0  0  0  0
  -10.1142   20.3481  -31.3865 H   0  0  0  0  0  0  0  0  0  0  0  0
   -8.6902   18.8816  -32.8211 H   0  0  0  0  0  0  0  0  0  0  0  0
   -6.4503   19.6763  -33.5846 H   0  0  0  0  0  0  0  0  0  0  0  0
   -5.6202   21.9274  -32.8993 H   0  0  0  0  0  0  0  0  0  0  0  0
  1  2  1  0
  2  3  2  0
  3  4  1  0
  4  5  1  0
  4  6  2  0
  6  7  1  0
  7  8  2  0
  7  9  1  0
  9 10  2  3
 10 11  1  0
 11 12  2  0
 12 13  1  0
 13 14  2  0
 14 15  1  0
 15 16  2  0
  6 17  1  0
 17 18  2  0
 17 19  1  0
 19  2  1  0
 16 11  1  0
  1 20  1  0
  1 21  1  0
  1 22  1  0
  3 23  1  0
  5 24  1  0
  9 25  1  0
 10 26  1  0
 12 27  1  0
 13 28  1  0
 14 29  1  0
 15 30  1  0
 16 31  1  0
M  END
>  <UniqueID>  (45) 
40

>  <SMILES>  (45) 
Cc1cc(O)c(C(=O)C=Cc2ccccc2)c(=O)o1

>  <Energy>  (45) 
43.97653550116848

>  <Genealogy>  (45) 
Cc1cc(O)c(C(=O)C=Cc2ccccc2)c(=O)o1 (3D coordinates assigned)
Cc1cc(O)c(C(=O)C=Cc2ccccc2)c(=O)o1 (optimized conformer: 43.97653550116848 kcal/mol)

>  <smiles>  (45) 
Cc1cc(O)c(C(=O)C=Cc2ccccc2)c(=O)o1

>  <score_type>  (45) 
oracle

>  <origin>  (45) 
adg

>  <m_score__min__energy>  (45) 
-8.1600000000000001

>  <m_primary>  (45) 
energy

$$$$
45:0
     RDKit          3D

 48 51  0  0  0  0  0  0  0  0999 V2000
   -3.7010   11.5100  -32.3350 Cl  0  0  0  0  0  0  0  0  0  0  0  0
   -4.1960   13.1450  -32.7290 C   0  0  0  0  0  0  0  0  0  0  0  0
   -4.1710   13.5850  -34.0760 C   0  0  0  0  0  0  0  0  0  0  0  0
   -4.5650   14.8960  -34.4060 C   0  0  0  0  0  0  0  0  0  0  0  0
   -4.9720   15.7260  -33.3660 C   0  0  0  0  0  0  0  0  0  0  0  0
   -5.3770   16.9710  -33.4180 O   0  0  0  0  0  0  0  0  0  0  0  0
   -5.6460   17.3170  -32.1670 C   0  0  0  0  0  0  0  0  0  0  0  0
   -6.1410   18.6770  -31.7650 C   0  0  0  0  0  0  0  0  0  0  0  0
   -5.3740   19.7820  -32.5200 C   0  0  0  0  0  0  0  0  0  0  0  0
   -6.1210   21.1310  -32.5040 C   0  0  0  0  0  0  0  0  0  0  0  0
   -7.0880   21.1760  -31.3890 N   0  0  0  0  0  0  0  0  0  0  0  0
   -7.6200   22.5420  -31.1650 C   0  0  0  0  0  0  0  0  0  0  0  0
   -6.8700   23.2720  -30.0240 C   0  0  0  0  0  0  0  0  0  0  0  0
   -5.4630   22.6920  -29.7600 C   0  0  0  0  0  0  0  0  0  0  0  0
   -4.3650   23.2480  -30.6980 C   0  0  0  0  0  0  0  0  0  0  0  0
   -4.6050   24.6250  -31.1720 N   0  0  0  0  0  0  0  0  0  0  0  0
   -5.4430   25.4010  -30.2530 C   0  0  0  0  0  0  0  0  0  0  0  0
   -6.8600   24.8170  -30.1840 C   0  0  0  0  0  0  0  0  0  0  0  0
   -8.1810   20.2040  -31.6290 C   0  0  0  0  0  0  0  0  0  0  0  0
   -7.6520   18.8000  -32.0080 C   0  0  0  0  0  0  0  0  0  0  0  0
   -5.4220   16.3070  -31.2890 N   0  0  0  0  0  0  0  0  0  0  0  0
   -4.9950   15.3050  -32.0700 C   0  0  0  0  0  0  0  0  0  0  0  0
   -4.6140   14.0170  -31.7030 C   0  0  0  0  0  0  0  0  0  0  0  0
   -3.8416   12.8977  -34.8691 H   0  0  0  0  0  0  0  0  0  0  0  0
   -4.5515   15.2507  -35.4471 H   0  0  0  0  0  0  0  0  0  0  0  0
   -5.9559   18.8051  -30.6883 H   0  0  0  0  0  0  0  0  0  0  0  0
   -4.3907   19.9169  -32.0457 H   0  0  0  0  0  0  0  0  0  0  0  0
   -5.2751   19.4654  -33.5688 H   0  0  0  0  0  0  0  0  0  0  0  0
   -5.3924   21.9463  -32.3839 H   0  0  0  0  0  0  0  0  0  0  0  0
   -6.6670   21.2454  -33.4520 H   0  0  0  0  0  0  0  0  0  0  0  0
   -7.5099   23.1233  -32.0923 H   0  0  0  0  0  0  0  0  0  0  0  0
   -8.6778   22.4536  -30.8766 H   0  0  0  0  0  0  0  0  0  0  0  0
   -7.4576   23.0716  -29.1160 H   0  0  0  0  0  0  0  0  0  0  0  0
   -5.1820   22.9256  -28.7225 H   0  0  0  0  0  0  0  0  0  0  0  0
   -5.5248   21.6102  -29.9497 H   0  0  0  0  0  0  0  0  0  0  0  0
   -3.4089   23.2335  -30.1543 H   0  0  0  0  0  0  0  0  0  0  0  0
   -4.3616   22.6057  -31.5910 H   0  0  0  0  0  0  0  0  0  0  0  0
   -5.0710   24.5960  -32.1080 H   0  0  0  0  0  0  0  0  0  0  0  0
   -4.9941   25.3782  -29.2490 H   0  0  0  0  0  0  0  0  0  0  0  0
   -5.5054   26.4358  -30.6208 H   0  0  0  0  0  0  0  0  0  0  0  0
   -7.3816   25.2623  -29.3240 H   0  0  0  0  0  0  0  0  0  0  0  0
   -7.3612   25.0537  -31.1342 H   0  0  0  0  0  0  0  0  0  0  0  0
   -8.7845   20.1184  -30.7133 H   0  0  0  0  0  0  0  0  0  0  0  0
   -8.7793   20.5754  -32.4740 H   0  0  0  0  0  0  0  0  0  0  0  0
   -8.1733   18.0465  -31.3993 H   0  0  0  0  0  0  0  0  0  0  0  0
   -7.8407   18.6407  -33.0799 H   0  0  0  0  0  0  0  0  0  0  0  0
   -5.5500   16.3080  -30.2510 H   0  0  0  0  0  0  0  0  0  0  0  0
   -4.6382   13.6921  -30.6523 H   0  0  0  0  0  0  0  0  0  0  0  0
  1  2  1  0
  2  3  2  0
  3  4  1  0
  4  5  2  0
  5  6  1  0
  6  7  1  0
  7  8  1  0
  8  9  1  0
  9 10  1  0
 10 11  1  0
 11 12  1  0
 12 13  1  0
 13 14  1  0
 14 15  1  0
 15 16  1  0
 16 17  1  0
 17 18  1  0
 11 19  1  0
 19 20  1  0
  7 21  2  0
 21 22  1  0
 22 23  2  0
 23  2  1  0
 22  5  1  0
 20  8  1  0
 18 13  1  0
  3 24  1  0
  4 25  1  0
  8 26  1  0
  9 27  1  0
  9 28  1  0
 10 29  1  0
 10 30  1  0
 12 31  1  0
 12 32  1  0
 13 33  1  0
 14 34  1  0
 14 35  1  0
 15 36  1  0
 15 37  1  0
 16 38  1  0
 17 39  1  0
 17 40  1  0
 18 41  1  0
 18 42  1  0
 19 43  1  0
 19 44  1  0
 20 45  1  0
 20 46  1  0
 21 47  1  0
 23 48  1  0
M  CHG  1  21   1
M  END
>  <UniqueID>  (46) 
41

>  <SMILES>  (46) 
Clc1ccc2oc(C3CCN(CC4CCNCC4)CC3)[nH+]c2c1

>  <Energy>  (46) 
101.20684241274759

>  <Genealogy>  (46) 
Clc1ccc2oc(C3CCN(CC4CCNCC4)CC3)[nH+]c2c1 (protonated)
Clc1ccc2oc(C3CCN(CC4CCNCC4)CC3)[nH+]c2c1 (3D coordinates assigned)
Clc1ccc2oc(C3CCN(CC4CCNCC4)CC3)[nH+]c2c1 (nonaromatic ring conformer: 101.20684241274759 kcal/mol)

>  <smiles>  (46) 
Clc1ccc2oc(C3CCN(CC4CCNCC4)CC3)nc2c1

>  <score_type>  (46) 
oracle

>  <origin>  (46) 
adg

>  <m_score__min__energy>  (46) 
-8.2400000000000002

>  <m_primary>  (46) 
energy

$$$$
46:0
     RDKit          3D

 27 27  0  0  0  0  0  0  0  0999 V2000
   -9.2230   20.0880  -32.3460 C   0  0  0  0  0  0  0  0  0  0  0  0
   -8.3380   18.9090  -31.9540 C   0  0  0  0  0  0  0  0  0  0  0  0
   -6.9220   19.2840  -32.0520 N   0  0  0  0  0  0  0  0  0  0  0  0
   -6.7440   20.6320  -32.6280 C   0  0  0  0  0  0  0  0  0  0  0  0
   -5.4320   21.3070  -32.1900 C   0  0  0  0  0  0  0  0  0  0  0  0
   -5.6760   22.5800  -31.4250 C   0  0  0  0  0  0  0  0  0  0  0  0
   -6.9080   22.7950  -30.7870 C   0  0  0  0  0  0  0  0  0  0  0  0
   -7.1260   23.9610  -30.0470 C   0  0  0  0  0  0  0  0  0  0  0  0
   -6.1160   24.9220  -29.9300 C   0  0  0  0  0  0  0  0  0  0  0  0
   -6.3590   26.0750  -29.1840 O   0  0  0  0  0  0  0  0  0  0  0  0
   -4.8790   24.7120  -30.5630 C   0  0  0  0  0  0  0  0  0  0  0  0
   -3.8630   25.6540  -30.4560 O   0  0  0  0  0  0  0  0  0  0  0  0
   -4.6620   23.5460  -31.3060 C   0  0  0  0  0  0  0  0  0  0  0  0
   -9.5957   20.5845  -31.4380 H   0  0  0  0  0  0  0  0  0  0  0  0
   -8.6374   20.8040  -32.9414 H   0  0  0  0  0  0  0  0  0  0  0  0
  -10.0740   19.7256  -32.9414 H   0  0  0  0  0  0  0  0  0  0  0  0
   -8.5647   18.6126  -30.9192 H   0  0  0  0  0  0  0  0  0  0  0  0
   -8.5352   18.0693  -32.6367 H   0  0  0  0  0  0  0  0  0  0  0  0
   -6.4810   19.2270  -31.1040 H   0  0  0  0  0  0  0  0  0  0  0  0
   -6.7449   20.5470  -33.7247 H   0  0  0  0  0  0  0  0  0  0  0  0
   -7.5723   21.2569  -32.2628 H   0  0  0  0  0  0  0  0  0  0  0  0
   -4.8718   20.6103  -31.5491 H   0  0  0  0  0  0  0  0  0  0  0  0
   -4.8637   21.5613  -33.0968 H   0  0  0  0  0  0  0  0  0  0  0  0
   -7.7058   22.0422  -30.8698 H   0  0  0  0  0  0  0  0  0  0  0  0
   -8.0961   24.1235  -29.5545 H   0  0  0  0  0  0  0  0  0  0  0  0
   -5.6290   26.7490  -28.9850 H   0  0  0  0  0  0  0  0  0  0  0  0
   -3.6923   23.3846  -31.7997 H   0  0  0  0  0  0  0  0  0  0  0  0
  1  2  1  0
  2  3  1  0
  3  4  1  0
  4  5  1  0
  5  6  1  0
  6  7  2  0
  7  8  1  0
  8  9  2  0
  9 10  1  0
  9 11  1  0
 11 12  1  0
 11 13  2  0
 13  6  1  0
  1 14  1  0
  1 15  1  0
  1 16  1  0
  2 17  1  0
  2 18  1  0
  3 19  1  0
  4 20  1  0
  4 21  1  0
  5 22  1  0
  5 23  1  0
  7 24  1  0
  8 25  1  0
 10 26  1  0
 13 27  1  0
M  CHG  1  12  -1
M  END
>  <UniqueID>  (47) 
42

>  <SMILES>  (47) 
CCNCCc1ccc(O)c([O-])c1

>  <Energy>  (47) 
21.169831151205244

>  <Genealogy>  (47) 
CCNCCc1ccc(O)c([O-])c1 (protonated)
CCNCCc1ccc(O)c([O-])c1 (3D coordinates assigned)
CCNCCc1ccc(O)c([O-])c1 (optimized conformer: 21.169831151205244 kcal/mol)

>  <smiles>  (47) 
CCNCCc1ccc(O)c(O)c1

>  <score_type>  (47) 
oracle

>  <origin>  (47) 
adg

>  <m_score__min__energy>  (47) 
-8.5600000000000005

>  <m_primary>  (47) 
energy

$$$$
