0:0
     RDKit          3D

 46 48  0  0  0  0  0  0  0  0999 V2000
   -2.8160   19.0150  -26.1110 C   0  0  0  0  0  0  0  0  0  0  0  0
   -1.7380   19.1040  -27.1850 C   0  0  0  0  0  0  0  0  0  0  0  0
   -1.0930   20.3770  -27.1490 O   0  0  0  0  0  0  0  0  0  0  0  0
   -1.5220   21.5290  -27.8300 C   0  0  0  0  0  0  0  0  0  0  0  0
   -0.6830   22.6680  -27.7990 C   0  0  0  0  0  0  0  0  0  0  0  0
   -1.0640   23.8630  -28.4350 C   0  0  0  0  0  0  0  0  0  0  0  0
   -2.2870   23.8810  -29.0950 C   0  0  0  0  0  0  0  0  0  0  0  0
   -2.8730   24.9220  -29.7020 N   0  0  0  0  0  0  0  0  0  0  0  0
   -4.0580   24.3940  -30.1050 C   0  0  0  0  0  0  0  0  0  0  0  0
   -5.3360   25.3890  -30.8740 S   0  0  0  0  0  0  0  0  0  0  0  0
   -6.7370   24.4340  -30.1820 C   0  0  0  0  0  0  0  0  0  0  0  0
   -7.2850   23.4490  -31.1750 C   0  0  0  0  0  0  0  0  0  0  0  0
   -8.3650   23.7050  -31.7720 O   0  0  0  0  0  0  0  0  0  0  0  0
   -6.5580   22.2430  -31.4550 N   0  0  0  0  0  0  0  0  0  0  0  0
   -7.1390   20.9670  -31.8060 C   0  0  0  0  0  0  0  0  0  0  0  0
   -8.5360   20.7690  -31.8170 C   0  0  0  0  0  0  0  0  0  0  0  0
   -9.0730   19.5140  -32.1070 C   0  0  0  0  0  0  0  0  0  0  0  0
   -8.2330   18.4370  -32.3780 C   0  0  0  0  0  0  0  0  0  0  0  0
   -6.8490   18.6040  -32.3400 C   0  0  0  0  0  0  0  0  0  0  0  0
   -6.2900   19.8620  -32.0390 C   0  0  0  0  0  0  0  0  0  0  0  0
   -4.9010   20.0420  -31.9420 O   0  0  0  0  0  0  0  0  0  0  0  0
   -4.0580   20.4520  -33.0160 C   0  0  0  0  0  0  0  0  0  0  0  0
   -3.6400   21.8990  -32.8060 C   0  0  0  0  0  0  0  0  0  0  0  0
   -4.2380   23.0860  -29.7830 N   0  0  0  0  0  0  0  0  0  0  0  0
   -3.0990   22.7910  -29.1400 C   0  0  0  0  0  0  0  0  0  0  0  0
   -2.7590   21.5910  -28.5220 C   0  0  0  0  0  0  0  0  0  0  0  0
   -2.3471   19.0537  -25.1167 H   0  0  0  0  0  0  0  0  0  0  0  0
   -3.5133   19.8586  -26.2206 H   0  0  0  0  0  0  0  0  0  0  0  0
   -3.3655   18.0684  -26.2206 H   0  0  0  0  0  0  0  0  0  0  0  0
   -0.9906   18.3156  -27.0124 H   0  0  0  0  0  0  0  0  0  0  0  0
   -2.2093   18.9744  -28.1704 H   0  0  0  0  0  0  0  0  0  0  0  0
    0.2803   22.6180  -27.2703 H   0  0  0  0  0  0  0  0  0  0  0  0
   -0.4168   24.7522  -28.4110 H   0  0  0  0  0  0  0  0  0  0  0  0
   -6.3906   23.8875  -29.2924 H   0  0  0  0  0  0  0  0  0  0  0  0
   -7.5388   25.1415  -29.9239 H   0  0  0  0  0  0  0  0  0  0  0  0
   -5.5290   22.2760  -31.2700 H   0  0  0  0  0  0  0  0  0  0  0  0
   -9.2077   21.6113  -31.5950 H   0  0  0  0  0  0  0  0  0  0  0  0
  -10.1641   19.3750  -32.1216 H   0  0  0  0  0  0  0  0  0  0  0  0
   -8.6614   17.4537  -32.6222 H   0  0  0  0  0  0  0  0  0  0  0  0
   -6.1894   17.7482  -32.5463 H   0  0  0  0  0  0  0  0  0  0  0  0
   -3.1637   19.8122  -33.0454 H   0  0  0  0  0  0  0  0  0  0  0  0
   -4.6039   20.3615  -33.9667 H   0  0  0  0  0  0  0  0  0  0  0  0
   -3.5790   22.1103  -31.7282 H   0  0  0  0  0  0  0  0  0  0  0  0
   -2.6565   22.0674  -33.2689 H   0  0  0  0  0  0  0  0  0  0  0  0
   -4.3822   22.5659  -33.2689 H   0  0  0  0  0  0  0  0  0  0  0  0
   -3.4278   20.7189  -28.5686 H   0  0  0  0  0  0  0  0  0  0  0  0
  1  2  1  0
  2  3  1  0
  3  4  1  0
  4  5  2  0
  5  6  1  0
  6  7  2  0
  7  8  1  0
  8  9  1  0
  9 10  1  0
 10 11  1  0
 11 12  1  0
 12 13  2  0
 12 14  1  0
 14 15  1  0
 15 16  2  0
 16 17  1  0
 17 18  2  0
 18 19  1  0
 19 20  2  0
 20 21  1  0
 21 22  1  0
 22 23  1  0
  9 24  2  0
 24 25  1  0
 25 26  2  0
 26  4  1  0
 25  7  1  0
 20 15  1  0
  1 27  1  0
  1 28  1  0
  1 29  1  0
  2 30  1  0
  2 31  1  0
  5 32  1  0
  6 33  1  0
 11 34  1  0
 11 35  1  0
 14 36  1  0
 16 37  1  0
 17 38  1  0
 18 39  1  0
 19 40  1  0
 22 41  1  0
 22 42  1  0
 23 43  1  0
 23 44  1  0
 23 45  1  0
 26 46  1  0
M  CHG  1   8  -1
M  END
>  <UniqueID>  (1) 
1

>  <SMILES>  (1) 
CCOc1ccc2[n-]c(SCC(=O)Nc3ccccc3OCC)nc2c1

>  <Energy>  (1) 
72.26194717849269

>  <Genealogy>  (1) 
CCOc1ccc2[n-]c(SCC(=O)Nc3ccccc3OCC)nc2c1 (protonated)
CCOc1ccc2[n-]c(SCC(=O)Nc3ccccc3OCC)nc2c1 (3D coordinates assigned)
CCOc1ccc2[n-]c(SCC(=O)Nc3ccccc3OCC)nc2c1 (optimized conformer: 72.26194717849269 kcal/mol)

>  <smiles>  (1) 
CCOc1ccc2[nH]c(SCC(=O)Nc3ccccc3OCC)nc2c1

>  <score_type>  (1) 
oracle

>  <origin>  (1) 
adg

>  <m_score__min__energy>  (1) 
-8.7799999999999994

>  <m_primary>  (1) 
energy

$$$$
1:0
     RDKit          3D

 40 42  0  0  0  0  0  0  0  0999 V2000
   -8.4670   22.1780  -31.5700 C   0  0  0  0  0  0  0  0  0  0  0  0
   -7.1910   22.9100  -31.2770 C   0  0  0  0  0  0  0  0  0  0  0  0
   -7.2060   24.0620  -30.4770 C   0  0  0  0  0  0  0  0  0  0  0  0
   -6.0120   24.7220  -30.1710 C   0  0  0  0  0  0  0  0  0  0  0  0
   -4.7880   24.2440  -30.6600 C   0  0  0  0  0  0  0  0  0  0  0  0
   -3.5720   24.9290  -30.3110 N   0  0  0  0  0  0  0  0  0  0  0  0
   -2.8690   24.7360  -29.0730 C   0  0  0  0  0  0  0  0  0  0  0  0
   -3.0420   23.6820  -28.4040 O   0  0  0  0  0  0  0  0  0  0  0  0
   -1.8880   25.6810  -28.6330 N   0  0  0  0  0  0  0  0  0  0  0  0
   -1.1710   25.6340  -27.3900 C   0  0  0  0  0  0  0  0  0  0  0  0
   -1.6170   26.3320  -26.2550 C   0  0  0  0  0  0  0  0  0  0  0  0
   -0.9100   26.2350  -25.0550 C   0  0  0  0  0  0  0  0  0  0  0  0
    0.2240   25.4270  -24.9940 C   0  0  0  0  0  0  0  0  0  0  0  0
    0.6280   24.7390  -26.0940 N   0  0  0  0  0  0  0  0  0  0  0  0
   -0.0330   24.8220  -27.2830 C   0  0  0  0  0  0  0  0  0  0  0  0
    0.3890   24.0800  -28.3940 O   0  0  0  0  0  0  0  0  0  0  0  0
   -0.1260   22.8330  -28.7800 C   0  0  0  0  0  0  0  0  0  0  0  0
   -0.6020   22.5900  -30.0840 C   0  0  0  0  0  0  0  0  0  0  0  0
   -1.1190   21.3350  -30.4200 C   0  0  0  0  0  0  0  0  0  0  0  0
   -1.1770   20.3200  -29.4610 C   0  0  0  0  0  0  0  0  0  0  0  0
   -0.7240   20.5620  -28.1610 C   0  0  0  0  0  0  0  0  0  0  0  0
   -0.2080   21.8160  -27.8210 C   0  0  0  0  0  0  0  0  0  0  0  0
   -4.7710   23.0670  -31.4300 C   0  0  0  0  0  0  0  0  0  0  0  0
   -5.9650   22.4050  -31.7340 C   0  0  0  0  0  0  0  0  0  0  0  0
   -8.9546   21.8983  -30.6245 H   0  0  0  0  0  0  0  0  0  0  0  0
   -9.1380   22.8285  -32.1502 H   0  0  0  0  0  0  0  0  0  0  0  0
   -8.2441   21.2704  -32.1502 H   0  0  0  0  0  0  0  0  0  0  0  0
   -8.1604   24.4475  -30.0890 H   0  0  0  0  0  0  0  0  0  0  0  0
   -6.0331   25.6237  -29.5414 H   0  0  0  0  0  0  0  0  0  0  0  0
   -3.1250   25.5380  -31.0320 H   0  0  0  0  0  0  0  0  0  0  0  0
   -2.5223   26.9543  -26.3119 H   0  0  0  0  0  0  0  0  0  0  0  0
   -1.2446   26.7907  -24.1666 H   0  0  0  0  0  0  0  0  0  0  0  0
    0.7920   25.3462  -24.0554 H   0  0  0  0  0  0  0  0  0  0  0  0
   -0.5668   23.3892  -30.8390 H   0  0  0  0  0  0  0  0  0  0  0  0
   -1.4809   21.1462  -31.4415 H   0  0  0  0  0  0  0  0  0  0  0  0
   -1.5787   19.3317  -29.7290 H   0  0  0  0  0  0  0  0  0  0  0  0
   -0.7736   19.7649  -27.4046 H   0  0  0  0  0  0  0  0  0  0  0  0
    0.1359   22.0050  -26.7934 H   0  0  0  0  0  0  0  0  0  0  0  0
   -3.8142   22.6653  -31.7948 H   0  0  0  0  0  0  0  0  0  0  0  0
   -5.9423   21.4837  -32.3345 H   0  0  0  0  0  0  0  0  0  0  0  0
  1  2  1  0
  2  3  2  0
  3  4  1  0
  4  5  2  0
  5  6  1  0
  6  7  1  0
  7  8  2  0
  7  9  1  0
  9 10  1  0
 10 11  2  0
 11 12  1  0
 12 13  2  0
 13 14  1  0
 14 15  2  0
 15 16  1  0
 16 17  1  0
 17 18  2  0
 18 19  1  0
 19 20  2  0
 20 21  1  0
 21 22  2  0
  5 23  1  0
 23 24  2  0
 24  2  1  0
 15 10  1  0
 22 17  1  0
  1 25  1  0
  1 26  1  0
  1 27  1  0
  3 28  1  0
  4 29  1  0
  6 30  1  0
 11 31  1  0
 12 32  1  0
 13 33  1  0
 18 34  1  0
 19 35  1  0
 20 36  1  0
 21 37  1  0
 22 38  1  0
 23 39  1  0
 24 40  1  0
M  CHG  1   9  -1
M  END
>  <UniqueID>  (2) 
2

>  <SMILES>  (2) 
Cc1ccc(NC(=O)[N-]c2cccnc2Oc2ccccc2)cc1

>  <Energy>  (2) 
54.4427129668721

>  <Genealogy>  (2) 
Cc1ccc(NC(=O)[N-]c2cccnc2Oc2ccccc2)cc1 (protonated)
Cc1ccc(NC(=O)[N-]c2cccnc2Oc2ccccc2)cc1 (3D coordinates assigned)
Cc1ccc(NC(=O)[N-]c2cccnc2Oc2ccccc2)cc1 (optimized conformer: 54.4427129668721 kcal/mol)

>  <smiles>  (2) 
Cc1ccc(NC(=O)Nc2cccnc2Oc2ccccc2)cc1

>  <score_type>  (2) 
oracle

>  <origin>  (2) 
adg

>  <m_score__min__energy>  (2) 
-9.5600000000000005

>  <m_primary>  (2) 
energy

$$$$
2:0
     RDKit          3D

 52 54  0  0  0  0  0  0  0  0999 V2000
   -2.7210   20.4930  -27.7330 C   0  0  0  0  0  0  0  0  0  0  0  0
   -2.0510   21.8500  -27.9450 C   0  0  0  0  0  0  0  0  0  0  0  0
   -2.0550   22.2450  -29.3770 N   0  0  0  0  0  0  0  0  0  0  0  0
   -3.2400   21.6400  -30.0370 C   0  0  0  0  0  0  0  0  0  0  0  0
   -3.0540   21.4920  -31.5210 C   0  0  0  0  0  0  0  0  0  0  0  0
   -3.9740   21.7470  -32.5310 C   0  0  0  0  0  0  0  0  0  0  0  0
   -5.3850   22.2350  -32.3450 C   0  0  0  0  0  0  0  0  0  0  0  0
   -6.3730   21.0970  -32.3420 C   0  0  0  0  0  0  0  0  0  0  0  0
   -7.7090   21.3150  -31.9660 C   0  0  0  0  0  0  0  0  0  0  0  0
   -8.6320   20.2660  -32.0030 C   0  0  0  0  0  0  0  0  0  0  0  0
   -8.2300   18.9940  -32.4220 C   0  0  0  0  0  0  0  0  0  0  0  0
   -6.9050   18.7720  -32.8060 C   0  0  0  0  0  0  0  0  0  0  0  0
   -5.9790   19.8190  -32.7710 C   0  0  0  0  0  0  0  0  0  0  0  0
   -3.4480   21.3870  -33.7200 N   0  0  0  0  0  0  0  0  0  0  0  0
   -2.2230   20.9330  -33.4970 N   0  0  0  0  0  0  0  0  0  0  0  0
   -1.3620   20.3900  -34.5390 C   0  0  0  0  0  0  0  0  0  0  0  0
   -1.9600   20.9610  -32.1770 C   0  0  0  0  0  0  0  0  0  0  0  0
   -0.5210   20.2870  -31.4260 Cl  0  0  0  0  0  0  0  0  0  0  0  0
   -2.0650   23.7280  -29.4970 C   0  0  0  0  0  0  0  0  0  0  0  0
   -3.4640   24.2650  -29.6530 C   0  0  0  0  0  0  0  0  0  0  0  0
   -3.9650   24.6310  -30.8510 N   0  0  0  0  0  0  0  0  0  0  0  0
   -5.2150   25.0560  -30.5820 C   0  0  0  0  0  0  0  0  0  0  0  0
   -5.4610   24.9320  -29.2350 C   0  0  0  0  0  0  0  0  0  0  0  0
   -4.3630   24.4200  -28.6520 N   0  0  0  0  0  0  0  0  0  0  0  0
   -4.2300   24.1030  -27.2300 C   0  0  0  0  0  0  0  0  0  0  0  0
   -3.1450   24.9560  -26.5900 C   0  0  0  0  0  0  0  0  0  0  0  0
   -2.8181   20.2964  -26.6551 H   0  0  0  0  0  0  0  0  0  0  0  0
   -3.7189   20.5005  -28.1957 H   0  0  0  0  0  0  0  0  0  0  0  0
   -2.1083   19.7053  -28.1957 H   0  0  0  0  0  0  0  0  0  0  0  0
   -2.5931   22.6103  -27.3636 H   0  0  0  0  0  0  0  0  0  0  0  0
   -1.0052   21.7726  -27.6127 H   0  0  0  0  0  0  0  0  0  0  0  0
   -3.4176   20.6454  -29.6020 H   0  0  0  0  0  0  0  0  0  0  0  0
   -4.0961   22.3104  -29.8708 H   0  0  0  0  0  0  0  0  0  0  0  0
   -5.4538   22.7693  -31.3859 H   0  0  0  0  0  0  0  0  0  0  0  0
   -5.6311   22.9003  -33.1857 H   0  0  0  0  0  0  0  0  0  0  0  0
   -8.0301   22.3157  -31.6411 H   0  0  0  0  0  0  0  0  0  0  0  0
   -9.6755   20.4413  -31.7022 H   0  0  0  0  0  0  0  0  0  0  0  0
   -8.9565   18.1685  -32.4493 H   0  0  0  0  0  0  0  0  0  0  0  0
   -6.5897   17.7713  -33.1366 H   0  0  0  0  0  0  0  0  0  0  0  0
   -4.9385   19.6412  -33.0805 H   0  0  0  0  0  0  0  0  0  0  0  0
   -0.5178   19.8576  -34.0766 H   0  0  0  0  0  0  0  0  0  0  0  0
   -1.9381   19.6915  -35.1636 H   0  0  0  0  0  0  0  0  0  0  0  0
   -0.9799   21.2109  -35.1636 H   0  0  0  0  0  0  0  0  0  0  0  0
   -1.6155   24.1619  -28.5917 H   0  0  0  0  0  0  0  0  0  0  0  0
   -1.4900   24.0034  -30.3934 H   0  0  0  0  0  0  0  0  0  0  0  0
   -5.9282   25.4423  -31.3250 H   0  0  0  0  0  0  0  0  0  0  0  0
   -6.3953   25.2047  -28.7225 H   0  0  0  0  0  0  0  0  0  0  0  0
   -5.1877   24.2978  -26.7252 H   0  0  0  0  0  0  0  0  0  0  0  0
   -3.9542   23.0431  -27.1274 H   0  0  0  0  0  0  0  0  0  0  0  0
   -3.2265   24.8919  -25.4949 H   0  0  0  0  0  0  0  0  0  0  0  0
   -2.1569   24.5903  -26.9062 H   0  0  0  0  0  0  0  0  0  0  0  0
   -3.2671   26.0025  -26.9062 H   0  0  0  0  0  0  0  0  0  0  0  0
  1  2  1  0
  2  3  1  0
  3  4  1  0
  4  5  1  0
  5  6  1  0
  6  7  1  0
  7  8  1  0
  8  9  2  0
  9 10  1  0
 10 11  2  0
 11 12  1  0
 12 13  2  0
  6 14  2  0
 14 15  1  0
 15 16  1  0
 15 17  1  0
 17 18  1  0
  3 19  1  0
 19 20  1  0
 20 21  2  0
 21 22  1  0
 22 23  2  0
 23 24  1  0
 24 25  1  0
 25 26  1  0
 17  5  2  0
 24 20  1  0
 13  8  1  0
  1 27  1  0
  1 28  1  0
  1 29  1  0
  2 30  1  0
  2 31  1  0
  4 32  1  0
  4 33  1  0
  7 34  1  0
  7 35  1  0
  9 36  1  0
 10 37  1  0
 11 38  1  0
 12 39  1  0
 13 40  1  0
 16 41  1  0
 16 42  1  0
 16 43  1  0
 19 44  1  0
 19 45  1  0
 22 46  1  0
 23 47  1  0
 25 48  1  0
 25 49  1  0
 26 50  1  0
 26 51  1  0
 26 52  1  0
M  END
>  <UniqueID>  (3) 
3

>  <SMILES>  (3) 
CCN(Cc1c(Cc2ccccc2)nn(C)c1Cl)Cc1nccn1CC

>  <Energy>  (3) 
105.59137695263031

>  <Genealogy>  (3) 
CCN(Cc1c(Cc2ccccc2)nn(C)c1Cl)Cc1nccn1CC (3D coordinates assigned)
CCN(Cc1c(Cc2ccccc2)nn(C)c1Cl)Cc1nccn1CC (optimized conformer: 105.59137695263031 kcal/mol)

>  <smiles>  (3) 
CCN(Cc1c(Cc2ccccc2)nn(C)c1Cl)Cc1nccn1CC

>  <score_type>  (3) 
oracle

>  <origin>  (3) 
adg

>  <m_score__min__energy>  (3) 
-7.8700000000000001

>  <m_primary>  (3) 
energy

$$$$
3:0
     RDKit          3D

 24 25  0  0  0  0  0  0  0  0999 V2000
   -8.6130   21.9720  -31.5790 C   0  0  0  0  0  0  0  0  0  0  0  0
   -7.4190   22.8600  -31.5070 C   0  0  0  0  0  0  0  0  0  0  0  0
   -7.1570   23.6870  -30.4760 N   0  0  0  0  0  0  0  0  0  0  0  0
   -5.9830   24.2260  -30.8670 C   0  0  0  0  0  0  0  0  0  0  0  0
   -5.2600   25.2770  -30.0950 C   0  0  0  0  0  0  0  0  0  0  0  0
   -3.8620   25.3020  -30.5150 N   0  0  0  0  0  0  0  0  0  0  0  0
   -2.8810   24.4790  -29.3430 S   0  0  0  0  0  0  0  0  0  0  0  0
   -1.7170   25.3520  -28.9700 O   0  0  0  0  0  0  0  0  0  0  0  0
   -3.6880   24.1980  -28.1050 O   0  0  0  0  0  0  0  0  0  0  0  0
   -2.2730   22.9730  -30.0070 C   0  0  0  0  0  0  0  0  0  0  0  0
   -2.8870   22.2090  -30.9880 C   0  0  0  0  0  0  0  0  0  0  0  0
   -2.1460   21.0740  -31.3390 C   0  0  0  0  0  0  0  0  0  0  0  0
   -0.9510   20.9520  -30.6400 C   0  0  0  0  0  0  0  0  0  0  0  0
   -0.8140   22.2550  -29.5850 S   0  0  0  0  0  0  0  0  0  0  0  0
   -5.5700   23.7630  -32.0620 N   0  0  0  0  0  0  0  0  0  0  0  0
   -6.4830   22.9130  -32.4220 O   0  0  0  0  0  0  0  0  0  0  0  0
   -8.9471   21.7235  -30.5608 H   0  0  0  0  0  0  0  0  0  0  0  0
   -9.4228   22.4891  -32.1147 H   0  0  0  0  0  0  0  0  0  0  0  0
   -8.3508   21.0477  -32.1147 H   0  0  0  0  0  0  0  0  0  0  0  0
   -5.7200   26.2574  -30.2876 H   0  0  0  0  0  0  0  0  0  0  0  0
   -5.3198   25.0537  -29.0196 H   0  0  0  0  0  0  0  0  0  0  0  0
   -3.8547   22.4675  -31.4427 H   0  0  0  0  0  0  0  0  0  0  0  0
   -2.4780   20.3481  -32.0958 H   0  0  0  0  0  0  0  0  0  0  0  0
   -0.2181   20.1401  -30.7570 H   0  0  0  0  0  0  0  0  0  0  0  0
  1  2  1  0
  2  3  2  0
  3  4  1  0
  4  5  1  0
  5  6  1  0
  6  7  1  0
  7  8  2  0
  7  9  2  0
  7 10  1  0
 10 11  2  0
 11 12  1  0
 12 13  2  0
 13 14  1  0
  4 15  2  0
 15 16  1  0
 16  2  1  0
 14 10  1  0
  1 17  1  0
  1 18  1  0
  1 19  1  0
  5 20  1  0
  5 21  1  0
 11 22  1  0
 12 23  1  0
 13 24  1  0
M  CHG  1   6  -1
M  END
>  <UniqueID>  (4) 
4

>  <SMILES>  (4) 
Cc1nc(C[N-]S(=O)(=O)c2cccs2)no1

>  <Energy>  (4) 
78.32819987161545

>  <Genealogy>  (4) 
Cc1nc(C[N-]S(=O)(=O)c2cccs2)no1 (protonated)
Cc1nc(C[N-]S(=O)(=O)c2cccs2)no1 (3D coordinates assigned)
Cc1nc(C[N-]S(=O)(=O)c2cccs2)no1 (optimized conformer: 78.32819987161545 kcal/mol)

>  <smiles>  (4) 
Cc1nc(CNS(=O)(=O)c2cccs2)no1

>  <score_type>  (4) 
oracle

>  <origin>  (4) 
adg

>  <m_score__min__energy>  (4) 
-7.8799999999999999

>  <m_primary>  (4) 
energy

$$$$
4:0
     RDKit          3D

 40 42  0  0  0  0  0  0  0  0999 V2000
   -8.9390   21.4960  -30.7820 C   0  0  0  0  0  0  0  0  0  0  0  0
   -8.7140   21.6690  -32.2800 C   0  0  0  0  0  0  0  0  0  0  0  0
   -7.5250   20.9260  -32.7060 N   0  0  0  0  0  0  0  0  0  0  0  0
   -7.6240   19.7330  -33.2840 N   0  0  0  0  0  0  0  0  0  0  0  0
   -6.3940   19.2640  -33.5690 C   0  0  0  0  0  0  0  0  0  0  0  0
   -6.1100   17.9170  -34.1510 C   0  0  0  0  0  0  0  0  0  0  0  0
   -5.4750   20.1970  -33.1440 C   0  0  0  0  0  0  0  0  0  0  0  0
   -4.0870   20.1640  -33.1510 C   0  0  0  0  0  0  0  0  0  0  0  0
   -3.4070   21.2520  -32.5960 C   0  0  0  0  0  0  0  0  0  0  0  0
   -4.1180   22.3450  -32.0660 C   0  0  0  0  0  0  0  0  0  0  0  0
   -5.5380   22.3930  -32.0980 C   0  0  0  0  0  0  0  0  0  0  0  0
   -6.2670   23.5960  -31.5280 C   0  0  0  0  0  0  0  0  0  0  0  0
   -5.3610   24.7090  -31.2000 N   0  0  0  0  0  0  0  0  0  0  0  0
   -5.2440   24.9390  -29.7500 C   0  0  0  0  0  0  0  0  0  0  0  0
   -4.1150   24.1580  -29.1400 C   0  0  0  0  0  0  0  0  0  0  0  0
   -4.2400   23.0250  -28.3460 C   0  0  0  0  0  0  0  0  0  0  0  0
   -3.0100   22.5190  -27.9110 C   0  0  0  0  0  0  0  0  0  0  0  0
   -1.9160   23.2480  -28.3610 C   0  0  0  0  0  0  0  0  0  0  0  0
   -2.4810   24.5230  -29.3020 S   0  0  0  0  0  0  0  0  0  0  0  0
   -6.2020   21.2500  -32.6220 C   0  0  0  0  0  0  0  0  0  0  0  0
   -8.1853   22.0755  -30.2287 H   0  0  0  0  0  0  0  0  0  0  0  0
   -9.9445   21.8559  -30.5183 H   0  0  0  0  0  0  0  0  0  0  0  0
   -8.8495   20.4318  -30.5183 H   0  0  0  0  0  0  0  0  0  0  0  0
   -9.5920   21.2914  -32.8246 H   0  0  0  0  0  0  0  0  0  0  0  0
   -8.5651   22.7369  -32.4980 H   0  0  0  0  0  0  0  0  0  0  0  0
   -8.5250   19.2360  -33.4700 H   0  0  0  0  0  0  0  0  0  0  0  0
   -5.9570   17.1914  -33.3386 H   0  0  0  0  0  0  0  0  0  0  0  0
   -6.9608   17.5988  -34.7714 H   0  0  0  0  0  0  0  0  0  0  0  0
   -5.2032   17.9694  -34.7714 H   0  0  0  0  0  0  0  0  0  0  0  0
   -3.5408   19.3104  -33.5789 H   0  0  0  0  0  0  0  0  0  0  0  0
   -2.3072   21.2539  -32.5733 H   0  0  0  0  0  0  0  0  0  0  0  0
   -3.5619   23.1811  -31.6168 H   0  0  0  0  0  0  0  0  0  0  0  0
   -7.0002   23.9464  -32.2693 H   0  0  0  0  0  0  0  0  0  0  0  0
   -6.7521   23.2773  -30.5936 H   0  0  0  0  0  0  0  0  0  0  0  0
   -4.4130   24.5030  -31.5960 H   0  0  0  0  0  0  0  0  0  0  0  0
   -5.0686   26.0107  -29.5745 H   0  0  0  0  0  0  0  0  0  0  0  0
   -6.1796   24.6035  -29.2787 H   0  0  0  0  0  0  0  0  0  0  0  0
   -5.2078   22.5716  -28.0856 H   0  0  0  0  0  0  0  0  0  0  0  0
   -2.9178   21.6278  -27.2728 H   0  0  0  0  0  0  0  0  0  0  0  0
   -0.8610   23.0289  -28.1398 H   0  0  0  0  0  0  0  0  0  0  0  0
  1  2  1  0
  2  3  1  0
  3  4  1  0
  4  5  2  0
  5  6  1  0
  5  7  1  0
  7  8  2  0
  8  9  1  0
  9 10  2  0
 10 11  1  0
 11 12  1  0
 12 13  1  0
 13 14  1  0
 14 15  1  0
 15 16  2  0
 16 17  1  0
 17 18  2  0
 18 19  1  0
 11 20  2  0
 20  3  1  0
 20  7  1  0
 19 15  1  0
  1 21  1  0
  1 22  1  0
  1 23  1  0
  2 24  1  0
  2 25  1  0
  4 26  1  0
  6 27  1  0
  6 28  1  0
  6 29  1  0
  8 30  1  0
  9 31  1  0
 10 32  1  0
 12 33  1  0
 12 34  1  0
 13 35  1  0
 14 36  1  0
 14 37  1  0
 16 38  1  0
 17 39  1  0
 18 40  1  0
M  CHG  1   4   1
M  END
>  <UniqueID>  (5) 
5

>  <SMILES>  (5) 
CCn1[nH+]c(C)c2cccc(CNCc3cccs3)c21

>  <Energy>  (5) 
108.45087315572607

>  <Genealogy>  (5) 
CCn1[nH+]c(C)c2cccc(CNCc3cccs3)c21 (protonated)
CCn1[nH+]c(C)c2cccc(CNCc3cccs3)c21 (3D coordinates assigned)
CCn1[nH+]c(C)c2cccc(CNCc3cccs3)c21 (optimized conformer: 108.45087315572607 kcal/mol)

>  <smiles>  (5) 
CCn1nc(C)c2cccc(CNCc3cccs3)c21

>  <score_type>  (5) 
oracle

>  <origin>  (5) 
adg

>  <m_score__min__energy>  (5) 
-7.4000000000000004

>  <m_primary>  (5) 
energy

$$$$
5:0
     RDKit          3D

 47 49  0  0  0  0  0  0  0  0999 V2000
   -9.8740   20.7890  -32.3410 C   0  0  0  0  0  0  0  0  0  0  0  0
   -8.5290   21.3580  -31.9770 C   0  0  0  0  0  0  0  0  0  0  0  0
   -8.3910   22.7540  -31.9090 C   0  0  0  0  0  0  0  0  0  0  0  0
   -7.1710   23.3360  -31.5620 C   0  0  0  0  0  0  0  0  0  0  0  0
   -6.0570   22.5340  -31.2700 C   0  0  0  0  0  0  0  0  0  0  0  0
   -4.7580   23.1430  -30.8990 C   0  0  0  0  0  0  0  0  0  0  0  0
   -4.5190   24.3420  -31.2150 O   0  0  0  0  0  0  0  0  0  0  0  0
   -3.7420   22.3680  -30.2380 N   0  0  0  0  0  0  0  0  0  0  0  0
   -2.6030   22.9520  -29.5900 C   0  0  0  0  0  0  0  0  0  0  0  0
   -2.5800   24.3370  -29.3600 C   0  0  0  0  0  0  0  0  0  0  0  0
   -1.4800   24.9350  -28.7370 C   0  0  0  0  0  0  0  0  0  0  0  0
   -1.4700   26.2720  -28.5120 F   0  0  0  0  0  0  0  0  0  0  0  0
   -0.3880   24.1540  -28.3520 C   0  0  0  0  0  0  0  0  0  0  0  0
   -0.3890   22.7790  -28.5970 C   0  0  0  0  0  0  0  0  0  0  0  0
   -1.4900   22.1760  -29.2160 C   0  0  0  0  0  0  0  0  0  0  0  0
   -1.4430   20.8480  -29.4960 F   0  0  0  0  0  0  0  0  0  0  0  0
   -6.1830   21.1400  -31.3610 C   0  0  0  0  0  0  0  0  0  0  0  0
   -7.3970   20.5390  -31.7300 C   0  0  0  0  0  0  0  0  0  0  0  0
   -7.4250   18.7660  -31.8310 S   0  0  0  0  0  0  0  0  0  0  0  0
   -8.7390   18.1910  -31.3860 O   0  0  0  0  0  0  0  0  0  0  0  0
   -6.3420   18.2390  -30.9310 O   0  0  0  0  0  0  0  0  0  0  0  0
   -7.1040   18.2580  -33.4750 N   0  0  0  0  0  0  0  0  0  0  0  0
   -6.8580   16.8000  -33.5620 C   0  0  0  0  0  0  0  0  0  0  0  0
   -5.4570   16.3910  -33.0720 C   0  0  0  0  0  0  0  0  0  0  0  0
   -4.3520   17.3760  -33.4960 C   0  0  0  0  0  0  0  0  0  0  0  0
   -4.8270   18.3260  -34.5930 C   0  0  0  0  0  0  0  0  0  0  0  0
   -6.0650   19.1040  -34.1200 C   0  0  0  0  0  0  0  0  0  0  0  0
  -10.4327   20.5527  -31.4234 H   0  0  0  0  0  0  0  0  0  0  0  0
  -10.4361   21.5264  -32.9328 H   0  0  0  0  0  0  0  0  0  0  0  0
   -9.7362   19.8721  -32.9328 H   0  0  0  0  0  0  0  0  0  0  0  0
   -9.2554   23.3967  -32.1321 H   0  0  0  0  0  0  0  0  0  0  0  0
   -7.0819   24.4315  -31.5170 H   0  0  0  0  0  0  0  0  0  0  0  0
   -3.7450   21.3320  -30.3820 H   0  0  0  0  0  0  0  0  0  0  0  0
   -3.4337   24.9564  -29.6722 H   0  0  0  0  0  0  0  0  0  0  0  0
    0.4742   24.6226  -27.8550 H   0  0  0  0  0  0  0  0  0  0  0  0
    0.4775   22.1686  -28.3028 H   0  0  0  0  0  0  0  0  0  0  0  0
   -5.3129   20.5047  -31.1387 H   0  0  0  0  0  0  0  0  0  0  0  0
   -7.6085   16.2815  -32.9473 H   0  0  0  0  0  0  0  0  0  0  0  0
   -6.9279   16.5195  -34.6233 H   0  0  0  0  0  0  0  0  0  0  0  0
   -5.4734   16.3365  -31.9735 H   0  0  0  0  0  0  0  0  0  0  0  0
   -5.2217   15.4197  -33.5317 H   0  0  0  0  0  0  0  0  0  0  0  0
   -4.0478   17.9678  -32.6201 H   0  0  0  0  0  0  0  0  0  0  0  0
   -3.5082   16.7921  -33.8923 H   0  0  0  0  0  0  0  0  0  0  0  0
   -4.0216   19.0356  -34.8334 H   0  0  0  0  0  0  0  0  0  0  0  0
   -5.0899   17.7407  -35.4864 H   0  0  0  0  0  0  0  0  0  0  0  0
   -5.7391   19.8639  -33.3946 H   0  0  0  0  0  0  0  0  0  0  0  0
   -6.5256   19.5430  -35.0173 H   0  0  0  0  0  0  0  0  0  0  0  0
  1  2  1  0
  2  3  2  0
  3  4  1  0
  4  5  2  0
  5  6  1  0
  6  7  2  0
  6  8  1  0
  8  9  1  0
  9 10  2  0
 10 11  1  0
 11 12  1  0
 11 13  2  0
 13 14  1  0
 14 15  2  0
 15 16  1  0
  5 17  1  0
 17 18  2  0
 18 19  1  0
 19 20  2  0
 19 21  2  0
 19 22  1  0
 22 23  1  0
 23 24  1  0
 24 25  1  0
 25 26  1  0
 26 27  1  0
 18  2  1  0
 27 22  1  0
 15  9  1  0
  1 28  1  0
  1 29  1  0
  1 30  1  0
  3 31  1  0
  4 32  1  0
  8 33  1  0
 10 34  1  0
 13 35  1  0
 14 36  1  0
 17 37  1  0
 23 38  1  0
 23 39  1  0
 24 40  1  0
 24 41  1  0
 25 42  1  0
 25 43  1  0
 26 44  1  0
 26 45  1  0
 27 46  1  0
 27 47  1  0
M  END
>  <UniqueID>  (6) 
6

>  <SMILES>  (6) 
Cc1ccc(C(=O)Nc2cc(F)ccc2F)cc1S(=O)(=O)N1CCCCC1

>  <Energy>  (6) 
65.1448876805981

>  <Genealogy>  (6) 
Cc1ccc(C(=O)Nc2cc(F)ccc2F)cc1S(=O)(=O)N1CCCCC1 (3D coordinates assigned)
Cc1ccc(C(=O)Nc2cc(F)ccc2F)cc1S(=O)(=O)N1CCCCC1 (nonaromatic ring conformer: 65.1448876805981 kcal/mol)

>  <smiles>  (6) 
Cc1ccc(C(=O)Nc2cc(F)ccc2F)cc1S(=O)(=O)N1CCCCC1

>  <score_type>  (6) 
oracle

>  <origin>  (6) 
adg

>  <m_score__min__energy>  (6) 
-9.5099999999999998

>  <m_primary>  (6) 
energy

$$$$
6:0
     RDKit          3D

 40 43  0  0  0  0  0  0  0  0999 V2000
    1.4420   21.2680  -34.7220 C   0  0  0  0  0  0  0  0  0  0  0  0
    0.2070   21.2350  -33.9500 N   0  0  0  0  0  0  0  0  0  0  0  0
   -0.9910   20.8210  -34.4020 C   0  0  0  0  0  0  0  0  0  0  0  0
   -1.8710   20.8780  -33.3450 C   0  0  0  0  0  0  0  0  0  0  0  0
   -3.2600   20.5240  -33.3690 N   0  0  0  0  0  0  0  0  0  0  0  0
   -3.7840   19.3750  -33.8400 C   0  0  0  0  0  0  0  0  0  0  0  0
   -5.1510   19.4180  -33.6600 C   0  0  0  0  0  0  0  0  0  0  0  0
   -6.1030   18.2760  -33.8780 C   0  0  0  0  0  0  0  0  0  0  0  0
   -5.7320   17.1420  -33.0340 N   0  0  0  0  0  0  0  0  0  0  0  0
   -5.1890   15.9770  -33.4400 C   0  0  0  0  0  0  0  0  0  0  0  0
   -4.9710   15.1960  -32.3240 C   0  0  0  0  0  0  0  0  0  0  0  0
   -5.3810   15.8750  -31.2360 N   0  0  0  0  0  0  0  0  0  0  0  0
   -5.8400   17.0550  -31.6940 C   0  0  0  0  0  0  0  0  0  0  0  0
   -5.3910   20.6470  -33.0570 C   0  0  0  0  0  0  0  0  0  0  0  0
   -6.6810   21.1740  -32.5720 C   0  0  0  0  0  0  0  0  0  0  0  0
   -6.8280   22.5500  -32.3390 C   0  0  0  0  0  0  0  0  0  0  0  0
   -8.0430   23.0600  -31.8710 C   0  0  0  0  0  0  0  0  0  0  0  0
   -9.1220   22.2020  -31.6470 C   0  0  0  0  0  0  0  0  0  0  0  0
   -8.9920   20.8350  -31.8990 C   0  0  0  0  0  0  0  0  0  0  0  0
   -7.7780   20.3210  -32.3660 C   0  0  0  0  0  0  0  0  0  0  0  0
   -4.2210   21.2950  -32.8840 N   0  0  0  0  0  0  0  0  0  0  0  0
   -1.1380   21.3290  -32.2630 C   0  0  0  0  0  0  0  0  0  0  0  0
    0.1350   21.5320  -32.6600 N   0  0  0  0  0  0  0  0  0  0  0  0
    2.3022   21.2910  -34.0368 H   0  0  0  0  0  0  0  0  0  0  0  0
    1.5021   20.3711  -35.3561 H   0  0  0  0  0  0  0  0  0  0  0  0
    1.4542   22.1668  -35.3561 H   0  0  0  0  0  0  0  0  0  0  0  0
   -1.2241   20.4968  -35.4270 H   0  0  0  0  0  0  0  0  0  0  0  0
   -3.2189   18.5457  -34.2904 H   0  0  0  0  0  0  0  0  0  0  0  0
   -7.1231   18.5997  -33.6239 H   0  0  0  0  0  0  0  0  0  0  0  0
   -6.0587   17.9680  -34.9331 H   0  0  0  0  0  0  0  0  0  0  0  0
   -4.9599   15.6980  -34.4791 H   0  0  0  0  0  0  0  0  0  0  0  0
   -4.5347   14.1862  -32.3231 H   0  0  0  0  0  0  0  0  0  0  0  0
   -5.3460   15.5560  -30.2420 H   0  0  0  0  0  0  0  0  0  0  0  0
   -6.2519   17.8491  -31.0538 H   0  0  0  0  0  0  0  0  0  0  0  0
   -5.9839   23.2303  -32.5253 H   0  0  0  0  0  0  0  0  0  0  0  0
   -8.1490   24.1379  -31.6791 H   0  0  0  0  0  0  0  0  0  0  0  0
  -10.0749   22.6036  -31.2718 H   0  0  0  0  0  0  0  0  0  0  0  0
   -9.8452   20.1615  -31.7301 H   0  0  0  0  0  0  0  0  0  0  0  0
   -7.6818   19.2449  -32.5727 H   0  0  0  0  0  0  0  0  0  0  0  0
   -1.5279   21.4946  -31.2478 H   0  0  0  0  0  0  0  0  0  0  0  0
  1  2  1  0
  2  3  1  0
  3  4  2  0
  4  5  1  0
  5  6  1  0
  6  7  2  0
  7  8  1  0
  8  9  1  0
  9 10  1  0
 10 11  2  0
 11 12  1  0
 12 13  2  0
  7 14  1  0
 14 15  1  0
 15 16  2  0
 16 17  1  0
 17 18  2  0
 18 19  1  0
 19 20  2  0
 14 21  2  0
  4 22  1  0
 22 23  2  0
 23  2  1  0
 21  5  1  0
 13  9  1  0
 20 15  1  0
  1 24  1  0
  1 25  1  0
  1 26  1  0
  3 27  1  0
  6 28  1  0
  8 29  1  0
  8 30  1  0
 10 31  1  0
 11 32  1  0
 12 33  1  0
 13 34  1  0
 16 35  1  0
 17 36  1  0
 18 37  1  0
 19 38  1  0
 20 39  1  0
 22 40  1  0
M  CHG  1  12   1
M  END
>  <UniqueID>  (7) 
7

>  <SMILES>  (7) 
Cn1cc(-n2cc(Cn3cc[nH+]c3)c(-c3ccccc3)n2)cn1

>  <Energy>  (7) 
136.40154392998312

>  <Genealogy>  (7) 
Cn1cc(-n2cc(Cn3cc[nH+]c3)c(-c3ccccc3)n2)cn1 (protonated)
Cn1cc(-n2cc(Cn3cc[nH+]c3)c(-c3ccccc3)n2)cn1 (3D coordinates assigned)
Cn1cc(-n2cc(Cn3cc[nH+]c3)c(-c3ccccc3)n2)cn1 (optimized conformer: 136.40154392998312 kcal/mol)

>  <smiles>  (7) 
Cn1cc(-n2cc(Cn3ccnc3)c(-c3ccccc3)n2)cn1

>  <score_type>  (7) 
oracle

>  <origin>  (7) 
adg

>  <m_score__min__energy>  (7) 
-6.8499999999999996

>  <m_primary>  (7) 
energy

$$$$
7:0
     RDKit          3D

 45 48  0  0  0  0  0  0  0  0999 V2000
    0.6630   21.9460  -35.7620 C   0  0  0  0  0  0  0  0  0  0  0  0
    0.8730   20.4570  -35.5010 C   0  0  0  0  0  0  0  0  0  0  0  0
    0.4160   20.0860  -34.1520 N   0  0  0  0  0  0  0  0  0  0  0  0
    1.4080   19.6470  -33.1570 C   0  0  0  0  0  0  0  0  0  0  0  0
    0.7560   19.4460  -31.7920 C   0  0  0  0  0  0  0  0  0  0  0  0
   -0.9890   20.1550  -33.8160 C   0  0  0  0  0  0  0  0  0  0  0  0
   -1.8510   19.0860  -34.1280 C   0  0  0  0  0  0  0  0  0  0  0  0
   -3.2070   19.1430  -33.7950 C   0  0  0  0  0  0  0  0  0  0  0  0
   -3.7220   20.2670  -33.1470 C   0  0  0  0  0  0  0  0  0  0  0  0
   -5.0380   20.3370  -32.8340 N   0  0  0  0  0  0  0  0  0  0  0  0
   -5.5730   21.4180  -32.2040 C   0  0  0  0  0  0  0  0  0  0  0  0
   -7.0350   21.4460  -32.0130 C   0  0  0  0  0  0  0  0  0  0  0  0
   -7.8440   20.3260  -31.8520 C   0  0  0  0  0  0  0  0  0  0  0  0
   -9.2110   20.6290  -31.8110 C   0  0  0  0  0  0  0  0  0  0  0  0
   -9.4880   21.9800  -31.9680 C   0  0  0  0  0  0  0  0  0  0  0  0
   -8.0330   22.7970  -32.1620 S   0  0  0  0  0  0  0  0  0  0  0  0
   -4.7170   22.4880  -31.8360 C   0  0  0  0  0  0  0  0  0  0  0  0
   -5.1730   23.6360  -31.0230 C   0  0  0  0  0  0  0  0  0  0  0  0
   -6.0220   23.5890  -29.9300 C   0  0  0  0  0  0  0  0  0  0  0  0
   -6.1160   24.8870  -29.4770 C   0  0  0  0  0  0  0  0  0  0  0  0
   -5.3140   25.6420  -30.3080 C   0  0  0  0  0  0  0  0  0  0  0  0
   -4.7620   24.8690  -31.2130 O   0  0  0  0  0  0  0  0  0  0  0  0
   -3.3990   22.4300  -32.1890 N   0  0  0  0  0  0  0  0  0  0  0  0
   -2.8790   21.3460  -32.8300 C   0  0  0  0  0  0  0  0  0  0  0  0
   -1.5180   21.2880  -33.1660 C   0  0  0  0  0  0  0  0  0  0  0  0
    0.5878   22.4793  -34.8029 H   0  0  0  0  0  0  0  0  0  0  0  0
    1.5143   22.3413  -36.3356 H   0  0  0  0  0  0  0  0  0  0  0  0
   -0.2644   22.0905  -36.3356 H   0  0  0  0  0  0  0  0  0  0  0  0
    0.3052   19.8783  -36.2445 H   0  0  0  0  0  0  0  0  0  0  0  0
    1.9479   20.2368  -35.5786 H   0  0  0  0  0  0  0  0  0  0  0  0
    1.8534   18.6969  -33.4871 H   0  0  0  0  0  0  0  0  0  0  0  0
    2.1826   20.4227  -33.0663 H   0  0  0  0  0  0  0  0  0  0  0  0
    1.4858   19.6710  -31.0003 H   0  0  0  0  0  0  0  0  0  0  0  0
   -0.1085   20.1193  -31.6959 H   0  0  0  0  0  0  0  0  0  0  0  0
    0.4207   18.4028  -31.6959 H   0  0  0  0  0  0  0  0  0  0  0  0
   -1.4529   18.1970  -34.6391 H   0  0  0  0  0  0  0  0  0  0  0  0
   -3.8695   18.3009  -34.0439 H   0  0  0  0  0  0  0  0  0  0  0  0
   -7.4491   19.3030  -31.7654 H   0  0  0  0  0  0  0  0  0  0  0  0
   -9.9918   19.8676  -31.6678 H   0  0  0  0  0  0  0  0  0  0  0  0
  -10.4885   22.4372  -31.9658 H   0  0  0  0  0  0  0  0  0  0  0  0
   -6.5178   22.7010  -29.5109 H   0  0  0  0  0  0  0  0  0  0  0  0
   -6.7104   25.2483  -28.6249 H   0  0  0  0  0  0  0  0  0  0  0  0
   -5.1606   26.7280  -30.2243 H   0  0  0  0  0  0  0  0  0  0  0  0
   -2.7660   23.2210  -31.9270 H   0  0  0  0  0  0  0  0  0  0  0  0
   -0.8587   22.1335  -32.9201 H   0  0  0  0  0  0  0  0  0  0  0  0
  1  2  1  0
  2  3  1  0
  3  4  1  0
  4  5  1  0
  3  6  1  0
  6  7  2  0
  7  8  1  0
  8  9  2  0
  9 10  1  0
 10 11  2  0
 11 12  1  0
 12 13  2  0
 13 14  1  0
 14 15  2  0
 15 16  1  0
 11 17  1  0
 17 18  1  0
 18 19  2  0
 19 20  1  0
 20 21  2  0
 21 22  1  0
 17 23  2  0
 23 24  1  0
 24 25  2  0
 25  6  1  0
 24  9  1  0
 16 12  1  0
 22 18  1  0
  1 26  1  0
  1 27  1  0
  1 28  1  0
  2 29  1  0
  2 30  1  0
  4 31  1  0
  4 32  1  0
  5 33  1  0
  5 34  1  0
  5 35  1  0
  7 36  1  0
  8 37  1  0
 13 38  1  0
 14 39  1  0
 15 40  1  0
 19 41  1  0
 20 42  1  0
 21 43  1  0
 23 44  1  0
 25 45  1  0
M  CHG  1  23   1
M  END
>  <UniqueID>  (8) 
8

>  <SMILES>  (8) 
CCN(CC)c1ccc2nc(-c3cccs3)c(-c3ccco3)[nH+]c2c1

>  <Energy>  (8) 
111.58012143404247

>  <Genealogy>  (8) 
CCN(CC)c1ccc2nc(-c3cccs3)c(-c3ccco3)[nH+]c2c1 (protonated)
CCN(CC)c1ccc2nc(-c3cccs3)c(-c3ccco3)[nH+]c2c1 (3D coordinates assigned)
CCN(CC)c1ccc2nc(-c3cccs3)c(-c3ccco3)[nH+]c2c1 (optimized conformer: 111.58012143404247 kcal/mol)

>  <smiles>  (8) 
CCN(CC)c1ccc2nc(-c3cccs3)c(-c3ccco3)nc2c1

>  <score_type>  (8) 
oracle

>  <origin>  (8) 
adg

>  <m_score__min__energy>  (8) 
-6.8700000000000001

>  <m_primary>  (8) 
energy

$$$$
9:0
     RDKit          3D

 36 37  0  0  0  0  0  0  0  0999 V2000
   -5.2770   25.6180  -30.4580 C   0  0  0  0  0  0  0  0  0  0  0  0
   -3.8930   25.2880  -30.4620 O   0  0  0  0  0  0  0  0  0  0  0  0
   -3.3900   23.9780  -30.4640 C   0  0  0  0  0  0  0  0  0  0  0  0
   -2.3600   23.5650  -29.5990 C   0  0  0  0  0  0  0  0  0  0  0  0
   -1.8910   22.2510  -29.6450 C   0  0  0  0  0  0  0  0  0  0  0  0
   -2.4430   21.3370  -30.5460 C   0  0  0  0  0  0  0  0  0  0  0  0
   -3.4850   21.7260  -31.4070 C   0  0  0  0  0  0  0  0  0  0  0  0
   -4.0870   20.7920  -32.3980 C   0  0  0  0  0  0  0  0  0  0  0  0
   -3.4540   20.5900  -33.4710 O   0  0  0  0  0  0  0  0  0  0  0  0
   -5.3600   20.1190  -32.2080 N   0  0  0  0  0  0  0  0  0  0  0  0
   -5.6200   19.0630  -33.2100 C   0  0  0  0  0  0  0  0  0  0  0  0
   -6.8860   18.2560  -32.8430 C   0  0  0  0  0  0  0  0  0  0  0  0
   -7.7880   19.0130  -31.9460 N   0  0  0  0  0  0  0  0  0  0  0  0
   -9.1340   18.4220  -31.9530 C   0  0  0  0  0  0  0  0  0  0  0  0
   -7.8470   20.4330  -32.3340 C   0  0  0  0  0  0  0  0  0  0  0  0
   -6.4710   21.0950  -32.1140 C   0  0  0  0  0  0  0  0  0  0  0  0
   -3.9380   23.0570  -31.3640 C   0  0  0  0  0  0  0  0  0  0  0  0
   -5.6308   25.7024  -29.4199 H   0  0  0  0  0  0  0  0  0  0  0  0
   -5.4268   26.5770  -30.9755 H   0  0  0  0  0  0  0  0  0  0  0  0
   -5.8434   24.8297  -30.9755 H   0  0  0  0  0  0  0  0  0  0  0  0
   -1.9235   24.2790  -28.8851 H   0  0  0  0  0  0  0  0  0  0  0  0
   -1.0833   21.9338  -28.9689 H   0  0  0  0  0  0  0  0  0  0  0  0
   -2.0602   20.3064  -30.5823 H   0  0  0  0  0  0  0  0  0  0  0  0
   -5.2960   19.6320  -31.2810 H   0  0  0  0  0  0  0  0  0  0  0  0
   -5.7630   19.5292  -34.1960 H   0  0  0  0  0  0  0  0  0  0  0  0
   -4.7596   18.3779  -33.2308 H   0  0  0  0  0  0  0  0  0  0  0  0
   -7.4296   18.0093  -33.7669 H   0  0  0  0  0  0  0  0  0  0  0  0
   -6.5663   17.3465  -32.3132 H   0  0  0  0  0  0  0  0  0  0  0  0
   -9.4742   18.2726  -30.9177 H   0  0  0  0  0  0  0  0  0  0  0  0
   -9.8285   19.0979  -32.4733 H   0  0  0  0  0  0  0  0  0  0  0  0
   -9.1064   17.4532  -32.4733 H   0  0  0  0  0  0  0  0  0  0  0  0
   -8.1231   20.5098  -33.3960 H   0  0  0  0  0  0  0  0  0  0  0  0
   -8.5987   20.9463  -31.7164 H   0  0  0  0  0  0  0  0  0  0  0  0
   -6.3254   21.8725  -32.8784 H   0  0  0  0  0  0  0  0  0  0  0  0
   -6.4600   21.5234  -31.1009 H   0  0  0  0  0  0  0  0  0  0  0  0
   -4.7361   23.3792  -32.0490 H   0  0  0  0  0  0  0  0  0  0  0  0
  1  2  1  0
  2  3  1  0
  3  4  2  0
  4  5  1  0
  5  6  2  0
  6  7  1  0
  7  8  1  0
  8  9  2  0
  8 10  1  0
 10 11  1  0
 11 12  1  0
 12 13  1  0
 13 14  1  0
 13 15  1  0
 15 16  1  0
  7 17  2  0
 17  3  1  0
 16 10  1  0
  1 18  1  0
  1 19  1  0
  1 20  1  0
  4 21  1  0
  5 22  1  0
  6 23  1  0
 10 24  1  0
 11 25  1  0
 11 26  1  0
 12 27  1  0
 12 28  1  0
 14 29  1  0
 14 30  1  0
 14 31  1  0
 15 32  1  0
 15 33  1  0
 16 34  1  0
 16 35  1  0
 17 36  1  0
M  CHG  1  10   1
M  END
>  <UniqueID>  (9) 
9

>  <SMILES>  (9) 
COc1cccc(C(=O)[NH+]2CCN(C)CC2)c1

>  <Energy>  (9) 
51.51580823335754

>  <Genealogy>  (9) 
COc1cccc(C(=O)[NH+]2CCN(C)CC2)c1 (protonated)
COc1cccc(C(=O)[NH+]2CCN(C)CC2)c1 (3D coordinates assigned)
COc1cccc(C(=O)[NH+]2CCN(C)CC2)c1 (nonaromatic ring conformer: 51.51580823335754 kcal/mol)

>  <smiles>  (9) 
COc1cccc(C(=O)N2CCN(C)CC2)c1

>  <score_type>  (9) 
oracle

>  <origin>  (9) 
adg

>  <m_score__min__energy>  (9) 
-6.0999999999999996

>  <m_primary>  (9) 
energy

$$$$
10:0
     RDKit          3D

 30 31  0  0  0  0  0  0  0  0999 V2000
   -8.4166   22.9899  -31.1674 H   0  0  0  0  0  0  0  0  0  0  0  0
   -7.4620   22.5210  -31.4480 C   0  0  0  0  0  0  0  0  0  0  0  0
   -6.2970   23.1910  -31.2640 N   0  0  0  0  0  0  0  0  0  0  0  0
   -5.0810   22.6690  -31.5860 C   0  0  0  0  0  0  0  0  0  0  0  0
   -4.0350   23.4020  -31.3190 N   0  0  0  0  0  0  0  0  0  0  0  0
   -3.8950   24.5340  -30.4530 C   0  0  0  0  0  0  0  0  0  0  0  0
   -4.2650   25.6760  -30.8340 O   0  0  0  0  0  0  0  0  0  0  0  0
   -3.1120   24.3970  -29.1850 C   0  0  0  0  0  0  0  0  0  0  0  0
   -3.7573   24.6491  -28.3306 H   0  0  0  0  0  0  0  0  0  0  0  0
   -2.7555   23.3604  -29.0940 H   0  0  0  0  0  0  0  0  0  0  0  0
   -1.9630   25.2950  -29.2020 N   0  0  0  0  0  0  0  0  0  0  0  0
   -0.8160   25.1280  -28.3590 C   0  0  0  0  0  0  0  0  0  0  0  0
    0.2000   24.5220  -28.7980 O   0  0  0  0  0  0  0  0  0  0  0  0
   -0.8210   25.6630  -26.9780 C   0  0  0  0  0  0  0  0  0  0  0  0
   -0.8410   24.7920  -25.8720 C   0  0  0  0  0  0  0  0  0  0  0  0
   -0.8480   23.7039  -26.0334 H   0  0  0  0  0  0  0  0  0  0  0  0
   -0.8520   25.3010  -24.5700 C   0  0  0  0  0  0  0  0  0  0  0  0
   -0.8670   24.6128  -23.7120 H   0  0  0  0  0  0  0  0  0  0  0  0
   -0.8440   26.6810  -24.3560 C   0  0  0  0  0  0  0  0  0  0  0  0
   -0.8550   27.1720  -23.0920 F   0  0  0  0  0  0  0  0  0  0  0  0
   -0.8260   27.5560  -25.4450 C   0  0  0  0  0  0  0  0  0  0  0  0
   -0.8205   28.6430  -25.2762 H   0  0  0  0  0  0  0  0  0  0  0  0
   -0.8150   27.0520  -26.7490 C   0  0  0  0  0  0  0  0  0  0  0  0
   -0.8016   27.7459  -27.6024 H   0  0  0  0  0  0  0  0  0  0  0  0
   -5.0340   21.3830  -32.2010 C   0  0  0  0  0  0  0  0  0  0  0  0
   -3.4970   20.5920  -33.0430 Br  0  0  0  0  0  0  0  0  0  0  0  0
   -6.2330   20.6800  -32.3760 C   0  0  0  0  0  0  0  0  0  0  0  0
   -6.2139   19.6745  -32.8217 H   0  0  0  0  0  0  0  0  0  0  0  0
   -7.4490   21.2400  -31.9920 C   0  0  0  0  0  0  0  0  0  0  0  0
   -9.0810   20.2840  -32.2520 Br  0  0  0  0  0  0  0  0  0  0  0  0
  1  2  1  0
  2  3  1  0
  3  4  1  0
  4  5  2  0
  5  6  1  0
  6  7  2  0
  6  8  1  0
  8  9  1  0
  8 10  1  0
  8 11  1  0
 11 12  1  0
 12 13  2  0
 12 14  1  0
 14 15  2  0
 15 16  1  0
 15 17  1  0
 17 18  1  0
 17 19  2  0
 19 20  1  0
 19 21  1  0
 21 22  1  0
 21 23  2  0
 23 24  1  0
  4 25  1  0
 25 26  1  0
 25 27  2  0
 27 28  1  0
 27 29  1  0
 29 30  1  0
 29  2  2  0
 23 14  1  0
M  CHG  2   3  -1  11  -1
M  END
>  <UniqueID>  (10) 
10

>  <SMILES>  (10) 
O=C(C[N-]C(=O)c1ccc(F)cc1)/N=c1/[n-]cc(Br)cc1Br

>  <Energy>  (10) 
45.19621593717659

>  <Genealogy>  (10) 
O=C(C[N-]C(=O)c1ccc(F)cc1)N=c1[n-]cc(Br)cc1Br (protonated)
O=C(C[N-]C(=O)c1ccc(F)cc1)/N=c1/[n-]cc(Br)cc1Br (cis-trans isomerization)
O=C(C[N-]C(=O)c1ccc(F)cc1)/N=c1/[n-]cc(Br)cc1Br (3D coordinates assigned)
O=C(C[N-]C(=O)c1ccc(F)cc1)/N=c1/[n-]cc(Br)cc1Br (optimized conformer: 45.19621593717659 kcal/mol)

>  <smiles>  (10) 
O=C(CNC(=O)c1ccc(F)cc1)N=c1[nH]cc(Br)cc1Br

>  <score_type>  (10) 
oracle

>  <origin>  (10) 
adg

>  <m_score__min__energy>  (10) 
-11.119999999999999

>  <m_primary>  (10) 
energy

$$$$
11:0
     RDKit          3D

 26 27  0  0  0  0  0  0  0  0999 V2000
   -6.1110   24.1620  -31.2860 C   0  0  0  0  0  0  0  0  0  0  0  0
   -7.1890   23.3360  -30.5900 C   0  0  0  0  0  0  0  0  0  0  0  0
   -8.2680   22.9580  -31.5930 C   0  0  0  0  0  0  0  0  0  0  0  0
   -8.0290   21.5430  -31.9800 C   0  0  0  0  0  0  0  0  0  0  0  0
   -8.7840   20.4900  -31.5430 C   0  0  0  0  0  0  0  0  0  0  0  0
   -8.4590   19.2000  -31.9780 C   0  0  0  0  0  0  0  0  0  0  0  0
   -9.1420   18.1940  -31.5910 O   0  0  0  0  0  0  0  0  0  0  0  0
   -7.4090   19.0020  -32.8210 N   0  0  0  0  0  0  0  0  0  0  0  0
   -6.8790   17.9150  -33.3870 N   0  0  0  0  0  0  0  0  0  0  0  0
   -5.8310   18.2740  -34.1500 C   0  0  0  0  0  0  0  0  0  0  0  0
   -4.9260   17.4280  -34.9730 C   0  0  0  0  0  0  0  0  0  0  0  0
   -5.7160   19.6210  -34.0470 N   0  0  0  0  0  0  0  0  0  0  0  0
   -6.6970   20.0740  -33.2220 C   0  0  0  0  0  0  0  0  0  0  0  0
   -6.9780   21.3320  -32.8240 N   0  0  0  0  0  0  0  0  0  0  0  0
   -5.4765   24.6482  -30.5303 H   0  0  0  0  0  0  0  0  0  0  0  0
   -5.4934   23.5037  -31.9147 H   0  0  0  0  0  0  0  0  0  0  0  0
   -6.5860   24.9295  -31.9147 H   0  0  0  0  0  0  0  0  0  0  0  0
   -6.7390   22.4223  -30.1744 H   0  0  0  0  0  0  0  0  0  0  0  0
   -7.6360   23.9281  -29.7778 H   0  0  0  0  0  0  0  0  0  0  0  0
   -9.2624   23.0608  -31.1341 H   0  0  0  0  0  0  0  0  0  0  0  0
   -8.2316   23.6161  -32.4737 H   0  0  0  0  0  0  0  0  0  0  0  0
   -9.6318   20.6539  -30.8616 H   0  0  0  0  0  0  0  0  0  0  0  0
   -4.2837   16.8275  -34.3120 H   0  0  0  0  0  0  0  0  0  0  0  0
   -5.5258   16.7593  -35.6078 H   0  0  0  0  0  0  0  0  0  0  0  0
   -4.2992   18.0715  -35.6078 H   0  0  0  0  0  0  0  0  0  0  0  0
   -6.3950   22.1350  -33.1630 H   0  0  0  0  0  0  0  0  0  0  0  0
  1  2  1  0
  2  3  1  0
  3  4  1  0
  4  5  2  0
  5  6  1  0
  6  7  2  0
  6  8  1  0
  8  9  1  0
  9 10  2  0
 10 11  1  0
 10 12  1  0
 12 13  2  0
 13 14  1  0
 14  4  1  0
 13  8  1  0
  1 15  1  0
  1 16  1  0
  1 17  1  0
  2 18  1  0
  2 19  1  0
  3 20  1  0
  3 21  1  0
  5 22  1  0
 11 23  1  0
 11 24  1  0
 11 25  1  0
 14 26  1  0
M  END
>  <smiles>  (11) 
CCCc1cc(=O)n2nc(C)nc2[nH]1

>  <score_type>  (11) 
oracle

>  <origin>  (11) 
adg

>  <m_score__min__energy>  (11) 
-5.7800000000000002

>  <m_primary>  (11) 
energy

$$$$
12:0
     RDKit          3D

 48 51  0  0  0  0  0  0  0  0999 V2000
   -6.1442   23.8904  -31.0547 H   0  0  0  0  0  0  0  0  0  0  0  0
   -5.3940   23.0860  -31.0690 C   0  0  0  0  0  0  0  0  0  0  0  0
   -5.5000   22.1300  -31.9990 C   0  0  0  0  0  0  0  0  0  0  0  0
   -4.6472   21.9361  -32.6662 H   0  0  0  0  0  0  0  0  0  0  0  0
   -6.7330   21.3260  -32.1550 C   0  0  0  0  0  0  0  0  0  0  0  0
   -7.9440   21.9230  -31.7760 C   0  0  0  0  0  0  0  0  0  0  0  0
   -7.9562   22.9599  -31.4091 H   0  0  0  0  0  0  0  0  0  0  0  0
   -9.1300   21.2010  -31.8650 C   0  0  0  0  0  0  0  0  0  0  0  0
  -10.0821   21.6630  -31.5649 H   0  0  0  0  0  0  0  0  0  0  0  0
   -9.1060   19.8930  -32.3350 C   0  0  0  0  0  0  0  0  0  0  0  0
  -10.0353   19.3071  -32.3912 H   0  0  0  0  0  0  0  0  0  0  0  0
   -7.8940   19.3290  -32.7350 C   0  0  0  0  0  0  0  0  0  0  0  0
   -7.8735   18.2934  -33.1052 H   0  0  0  0  0  0  0  0  0  0  0  0
   -6.7300   20.0470  -32.6730 N   0  0  0  0  0  0  0  0  0  0  0  0
   -5.5010   19.4100  -33.1690 C   0  0  0  0  0  0  0  0  0  0  0  0
   -4.8840   19.0902  -32.3164 H   0  0  0  0  0  0  0  0  0  0  0  0
   -5.7631   18.5342  -33.7808 H   0  0  0  0  0  0  0  0  0  0  0  0
   -4.9365   20.1290  -33.7808 H   0  0  0  0  0  0  0  0  0  0  0  0
   -4.3110   23.1100  -30.0570 C   0  0  0  0  0  0  0  0  0  0  0  0
   -4.1310   21.9770  -29.2590 C   0  0  0  0  0  0  0  0  0  0  0  0
   -4.7917   21.1096  -29.4047 H   0  0  0  0  0  0  0  0  0  0  0  0
   -3.1550   21.9170  -28.3010 N   0  0  0  0  0  0  0  0  0  0  0  0
   -3.0560   20.6720  -27.5090 C   0  0  0  0  0  0  0  0  0  0  0  0
   -2.9655   20.9306  -26.4437 H   0  0  0  0  0  0  0  0  0  0  0  0
   -3.9612   20.0728  -27.6868 H   0  0  0  0  0  0  0  0  0  0  0  0
   -1.8540   19.8570  -27.9220 C   0  0  0  0  0  0  0  0  0  0  0  0
   -1.1880   20.1330  -29.1290 C   0  0  0  0  0  0  0  0  0  0  0  0
   -1.5521   20.9386  -29.7835 H   0  0  0  0  0  0  0  0  0  0  0  0
   -0.0650   19.3880  -29.5010 C   0  0  0  0  0  0  0  0  0  0  0  0
    0.4448   19.6013  -30.4521 H   0  0  0  0  0  0  0  0  0  0  0  0
    0.4110   18.3730  -28.6670 C   0  0  0  0  0  0  0  0  0  0  0  0
    1.2928   17.7858  -28.9633 H   0  0  0  0  0  0  0  0  0  0  0  0
   -0.2330   18.1040  -27.4570 C   0  0  0  0  0  0  0  0  0  0  0  0
    0.1441   17.3071  -26.7992 H   0  0  0  0  0  0  0  0  0  0  0  0
   -1.3570   18.8470  -27.0810 C   0  0  0  0  0  0  0  0  0  0  0  0
   -1.8543   18.6395  -26.1220 H   0  0  0  0  0  0  0  0  0  0  0  0
   -2.3230   22.9990  -28.0870 C   0  0  0  0  0  0  0  0  0  0  0  0
   -1.3000   22.9770  -27.1080 C   0  0  0  0  0  0  0  0  0  0  0  0
   -1.1489   22.0711  -26.5025 H   0  0  0  0  0  0  0  0  0  0  0  0
   -0.4810   24.0870  -26.9000 C   0  0  0  0  0  0  0  0  0  0  0  0
    0.3074   24.0498  -26.1338 H   0  0  0  0  0  0  0  0  0  0  0  0
   -0.6570   25.2420  -27.6580 C   0  0  0  0  0  0  0  0  0  0  0  0
   -0.0082   26.1141  -27.4892 H   0  0  0  0  0  0  0  0  0  0  0  0
   -1.6530   25.2940  -28.6290 C   0  0  0  0  0  0  0  0  0  0  0  0
   -1.7877   26.2099  -29.2231 H   0  0  0  0  0  0  0  0  0  0  0  0
   -2.4910   24.1830  -28.8580 C   0  0  0  0  0  0  0  0  0  0  0  0
   -3.5000   24.2340  -29.8340 C   0  0  0  0  0  0  0  0  0  0  0  0
   -3.6950   25.2960  -30.4880 O   0  0  0  0  0  0  0  0  0  0  0  0
  1  2  1  0
  2  3  2  0
  3  4  1  0
  3  5  1  0
  5  6  2  0
  6  7  1  0
  6  8  1  0
  8  9  1  0
  8 10  2  0
 10 11  1  0
 10 12  1  0
 12 13  1  0
 12 14  2  0
 14 15  1  0
 15 16  1  0
 15 17  1  0
 15 18  1  0
  2 19  1  0
 19 20  2  0
 20 21  1  0
 20 22  1  0
 22 23  1  0
 23 24  1  0
 23 25  1  0
 23 26  1  0
 26 27  2  0
 27 28  1  0
 27 29  1  0
 29 30  1  0
 29 31  2  0
 31 32  1  0
 31 33  1  0
 33 34  1  0
 33 35  2  0
 35 36  1  0
 22 37  1  0
 37 38  2  0
 38 39  1  0
 38 40  1  0
 40 41  1  0
 40 42  2  0
 42 43  1  0
 42 44  1  0
 44 45  1  0
 44 46  2  0
 46 47  1  0
 47 48  2  0
 14  5  1  0
 47 19  1  0
 35 26  1  0
 46 37  1  0
M  CHG  1  14   1
M  END
>  <UniqueID>  (12) 
11

>  <SMILES>  (12) 
C[n+]1ccccc1/C=C/c1cn(Cc2ccccc2)c2ccccc2c1=O

>  <Energy>  (12) 
74.82710728667628

>  <Genealogy>  (12) 
C[n+]1ccccc1/C=C/c1cn(Cc2ccccc2)c2ccccc2c1=O (cis-trans isomerization)
C[n+]1ccccc1/C=C/c1cn(Cc2ccccc2)c2ccccc2c1=O (3D coordinates assigned)
C[n+]1ccccc1/C=C/c1cn(Cc2ccccc2)c2ccccc2c1=O (optimized conformer: 74.82710728667628 kcal/mol)

>  <smiles>  (12) 
C[n+]1ccccc1C=Cc1cn(Cc2ccccc2)c2ccccc2c1=O

>  <score_type>  (12) 
oracle

>  <origin>  (12) 
adg

>  <m_score__min__energy>  (12) 
-8.4700000000000006

>  <m_primary>  (12) 
energy

$$$$
13:0
     RDKit          3D

 42 44  0  0  0  0  0  0  0  0999 V2000
   -5.4880   26.0480  -30.4640 C   0  0  0  0  0  0  0  0  0  0  0  0
   -5.3890   24.6560  -30.8780 N   0  0  0  0  0  0  0  0  0  0  0  0
   -6.4320   23.8480  -31.1750 C   0  0  0  0  0  0  0  0  0  0  0  0
   -5.9180   22.5910  -31.4500 C   0  0  0  0  0  0  0  0  0  0  0  0
   -4.5710   22.7280  -31.2840 C   0  0  0  0  0  0  0  0  0  0  0  0
   -3.7180   21.6590  -31.4730 C   0  0  0  0  0  0  0  0  0  0  0  0
   -4.2510   20.4540  -31.8290 N   0  0  0  0  0  0  0  0  0  0  0  0
   -5.6130   20.2560  -31.9960 C   0  0  0  0  0  0  0  0  0  0  0  0
   -6.4930   21.3610  -31.8140 C   0  0  0  0  0  0  0  0  0  0  0  0
   -7.8650   21.1790  -32.0110 C   0  0  0  0  0  0  0  0  0  0  0  0
   -8.6590   22.1510  -31.8730 O   0  0  0  0  0  0  0  0  0  0  0  0
   -8.3480   19.9520  -32.3670 N   0  0  0  0  0  0  0  0  0  0  0  0
   -9.7930   19.7770  -32.6120 C   0  0  0  0  0  0  0  0  0  0  0  0
   -7.4930   18.9000  -32.5720 C   0  0  0  0  0  0  0  0  0  0  0  0
   -7.9630   17.8010  -32.9850 O   0  0  0  0  0  0  0  0  0  0  0  0
   -6.1370   19.0220  -32.3410 N   0  0  0  0  0  0  0  0  0  0  0  0
   -5.2860   17.8080  -32.4910 C   0  0  0  0  0  0  0  0  0  0  0  0
   -5.1330   17.3180  -33.9700 C   0  0  0  0  0  0  0  0  0  0  0  0
   -3.6340   17.0700  -34.2450 C   0  0  0  0  0  0  0  0  0  0  0  0
   -5.8970   16.0050  -34.2290 C   0  0  0  0  0  0  0  0  0  0  0  0
   -5.6360   18.3880  -34.9610 C   0  0  0  0  0  0  0  0  0  0  0  0
   -4.2460   23.9820  -30.9280 N   0  0  0  0  0  0  0  0  0  0  0  0
   -5.4920   26.1044  -29.3655 H   0  0  0  0  0  0  0  0  0  0  0  0
   -4.6275   26.6095  -30.8568 H   0  0  0  0  0  0  0  0  0  0  0  0
   -6.4193   26.4820  -30.8568 H   0  0  0  0  0  0  0  0  0  0  0  0
   -7.4935   24.1358  -31.1946 H   0  0  0  0  0  0  0  0  0  0  0  0
   -2.6324   21.7759  -31.3396 H   0  0  0  0  0  0  0  0  0  0  0  0
   -3.5540   19.6980  -31.9680 H   0  0  0  0  0  0  0  0  0  0  0  0
  -10.3228   19.7128  -31.6502 H   0  0  0  0  0  0  0  0  0  0  0  0
  -10.1745   20.6355  -33.1842 H   0  0  0  0  0  0  0  0  0  0  0  0
   -9.9585   18.8522  -33.1842 H   0  0  0  0  0  0  0  0  0  0  0  0
   -4.2848   18.0362  -32.0967 H   0  0  0  0  0  0  0  0  0  0  0  0
   -5.7844   16.9989  -31.9370 H   0  0  0  0  0  0  0  0  0  0  0  0
   -3.0958   16.9810  -33.2898 H   0  0  0  0  0  0  0  0  0  0  0  0
   -3.5157   16.1401  -34.8206 H   0  0  0  0  0  0  0  0  0  0  0  0
   -3.2225   17.9123  -34.8206 H   0  0  0  0  0  0  0  0  0  0  0  0
   -6.1664   15.5419  -33.2683 H   0  0  0  0  0  0  0  0  0  0  0  0
   -6.8112   16.2196  -34.8018 H   0  0  0  0  0  0  0  0  0  0  0  0
   -5.2587   15.3162  -34.8018 H   0  0  0  0  0  0  0  0  0  0  0  0
   -6.0390   19.2452  -34.4017 H   0  0  0  0  0  0  0  0  0  0  0  0
   -4.8010   18.7230  -35.5939 H   0  0  0  0  0  0  0  0  0  0  0  0
   -6.4267   17.9588  -35.5939 H   0  0  0  0  0  0  0  0  0  0  0  0
  1  2  1  0
  2  3  1  0
  3  4  2  0
  4  5  1  0
  5  6  1  0
  6  7  2  0
  7  8  1  0
  8  9  2  0
  9 10  1  0
 10 11  2  0
 10 12  1  0
 12 13  1  0
 12 14  1  0
 14 15  2  0
 14 16  1  0
 16 17  1  0
 17 18  1  0
 18 19  1  0
 18 20  1  0
 18 21  1  0
  5 22  2  0
 22  2  1  0
  9  4  1  0
 16  8  1  0
  1 23  1  0
  1 24  1  0
  1 25  1  0
  3 26  1  0
  6 27  1  0
  7 28  1  0
 13 29  1  0
 13 30  1  0
 13 31  1  0
 17 32  1  0
 17 33  1  0
 19 34  1  0
 19 35  1  0
 19 36  1  0
 20 37  1  0
 20 38  1  0
 20 39  1  0
 21 40  1  0
 21 41  1  0
 21 42  1  0
M  CHG  1   7   1
M  END
>  <UniqueID>  (13) 
12

>  <SMILES>  (13) 
Cn1cc2c(c[nH+]c3c2c(=O)n(C)c(=O)n3CC(C)(C)C)n1

>  <Energy>  (13) 
95.98286729523672

>  <Genealogy>  (13) 
Cn1cc2c(c[nH+]c3c2c(=O)n(C)c(=O)n3CC(C)(C)C)n1 (protonated)
Cn1cc2c(c[nH+]c3c2c(=O)n(C)c(=O)n3CC(C)(C)C)n1 (3D coordinates assigned)
Cn1cc2c(c[nH+]c3c2c(=O)n(C)c(=O)n3CC(C)(C)C)n1 (optimized conformer: 95.98286729523672 kcal/mol)

>  <smiles>  (13) 
Cn1cc2c(cnc3c2c(=O)n(C)c(=O)n3CC(C)(C)C)n1

>  <score_type>  (13) 
oracle

>  <origin>  (13) 
adg

>  <m_score__min__energy>  (13) 
-7.1100000000000003

>  <m_primary>  (13) 
energy

$$$$
14:0
     RDKit          3D

 30 30  0  0  0  0  0  0  0  0999 V2000
   -7.2290   17.8490  -32.1700 C   0  0  0  0  0  0  0  0  0  0  0  0
   -8.3640   18.7710  -31.8970 C   0  0  0  0  0  0  0  0  0  0  0  0
   -8.3940   20.0310  -32.7260 C   0  0  0  0  0  0  0  0  0  0  0  0
   -7.9820   21.2140  -32.0420 N   0  0  0  0  0  0  0  0  0  0  0  0
   -8.9650   21.9140  -31.2310 C   0  0  0  0  0  0  0  0  0  0  0  0
   -6.6700   21.7640  -32.0810 C   0  0  0  0  0  0  0  0  0  0  0  0
   -6.3290   22.9470  -31.4500 C   0  0  0  0  0  0  0  0  0  0  0  0
   -5.0480   23.4720  -31.5020 C   0  0  0  0  0  0  0  0  0  0  0  0
   -4.7680   24.6730  -30.8410 O   0  0  0  0  0  0  0  0  0  0  0  0
   -5.7410   25.3640  -30.0810 C   0  0  0  0  0  0  0  0  0  0  0  0
   -4.0890   22.8160  -32.1900 N   0  0  0  0  0  0  0  0  0  0  0  0
   -4.4210   21.6540  -32.8120 C   0  0  0  0  0  0  0  0  0  0  0  0
   -3.4980   21.0220  -33.4750 N   0  0  0  0  0  0  0  0  0  0  0  0
   -5.6650   21.1510  -32.7570 N   0  0  0  0  0  0  0  0  0  0  0  0
   -6.8015   17.5017  -31.2178 H   0  0  0  0  0  0  0  0  0  0  0  0
   -7.5894   16.9846  -32.7470 H   0  0  0  0  0  0  0  0  0  0  0  0
   -6.4568   18.3789  -32.7470 H   0  0  0  0  0  0  0  0  0  0  0  0
   -9.2986   18.2214  -32.0826 H   0  0  0  0  0  0  0  0  0  0  0  0
   -8.2408   19.0995  -30.8545 H   0  0  0  0  0  0  0  0  0  0  0  0
   -7.7281   19.8870  -33.5896 H   0  0  0  0  0  0  0  0  0  0  0  0
   -9.4458   20.1890  -33.0064 H   0  0  0  0  0  0  0  0  0  0  0  0
   -8.7417   21.7550  -30.1657 H   0  0  0  0  0  0  0  0  0  0  0  0
   -8.9275   22.9899  -31.4569 H   0  0  0  0  0  0  0  0  0  0  0  0
   -9.9695   21.5267  -31.4569 H   0  0  0  0  0  0  0  0  0  0  0  0
   -7.1024   23.4900  -30.8870 H   0  0  0  0  0  0  0  0  0  0  0  0
   -5.5390   25.2205  -29.0093 H   0  0  0  0  0  0  0  0  0  0  0  0
   -5.7002   26.4366  -30.3214 H   0  0  0  0  0  0  0  0  0  0  0  0
   -6.7403   24.9721  -30.3214 H   0  0  0  0  0  0  0  0  0  0  0  0
   -3.0240   21.5410  -34.2370 H   0  0  0  0  0  0  0  0  0  0  0  0
   -5.8270   20.2550  -33.2630 H   0  0  0  0  0  0  0  0  0  0  0  0
  1  2  1  0
  2  3  1  0
  3  4  1  0
  4  5  1  0
  4  6  1  0
  6  7  2  0
  7  8  1  0
  8  9  1  0
  9 10  1  0
  8 11  2  0
 11 12  1  0
 12 13  2  3
 12 14  1  0
 14  6  1  0
  1 15  1  0
  1 16  1  0
  1 17  1  0
  2 18  1  0
  2 19  1  0
  3 20  1  0
  3 21  1  0
  5 22  1  0
  5 23  1  0
  5 24  1  0
  7 25  1  0
 10 26  1  0
 10 27  1  0
 10 28  1  0
 13 29  1  0
 14 30  1  0
M  END
>  <smiles>  (14) 
CCCN(C)c1cc(OC)nc(=N)[nH]1

>  <score_type>  (14) 
oracle

>  <origin>  (14) 
adg

>  <m_score__min__energy>  (14) 
-5.1699999999999999

>  <m_primary>  (14) 
energy

$$$$
15:0
     RDKit          3D

 22 22  0  0  0  0  0  0  0  0999 V2000
   -6.1681   25.6430  -29.9714 H   0  0  0  0  0  0  0  0  0  0  0  0
   -5.8640   24.8630  -30.6850 C   0  0  0  0  0  0  0  0  0  0  0  0
   -4.6690   24.8920  -31.1960 N   0  0  0  0  0  0  0  0  0  0  0  0
   -3.4950   24.9340  -30.4600 O   0  0  0  0  0  0  0  0  0  0  0  0
   -2.9620   23.8160  -29.7550 C   0  0  0  0  0  0  0  0  0  0  0  0
   -3.0456   23.9915  -28.6723 H   0  0  0  0  0  0  0  0  0  0  0  0
   -3.5252   22.9103  -30.0243 H   0  0  0  0  0  0  0  0  0  0  0  0
   -1.9038   23.6833  -30.0243 H   0  0  0  0  0  0  0  0  0  0  0  0
   -6.7910   23.8280  -31.0390 N   0  0  0  0  0  0  0  0  0  0  0  0
   -7.7960   23.9890  -30.7990 H   0  0  0  0  0  0  0  0  0  0  0  0
   -6.4340   22.6350  -31.7620 C   0  0  0  0  0  0  0  0  0  0  0  0
   -5.1090   22.4330  -32.1910 C   0  0  0  0  0  0  0  0  0  0  0  0
   -4.3485   23.2018  -31.9894 H   0  0  0  0  0  0  0  0  0  0  0  0
   -4.7490   21.2650  -32.8710 C   0  0  0  0  0  0  0  0  0  0  0  0
   -3.0800   21.0630  -33.3890 Cl  0  0  0  0  0  0  0  0  0  0  0  0
   -5.7120   20.2760  -33.1210 C   0  0  0  0  0  0  0  0  0  0  0  0
   -5.2990   18.7940  -33.9740 Cl  0  0  0  0  0  0  0  0  0  0  0  0
   -7.0280   20.4610  -32.6830 C   0  0  0  0  0  0  0  0  0  0  0  0
   -7.7822   19.6839  -32.8763 H   0  0  0  0  0  0  0  0  0  0  0  0
   -7.3920   21.6290  -32.0000 C   0  0  0  0  0  0  0  0  0  0  0  0
   -8.7610   21.7890  -31.5750 C   0  0  0  0  0  0  0  0  0  0  0  0
   -9.8590   21.9170  -31.2330 N   0  0  0  0  0  0  0  0  0  0  0  0
  1  2  1  0
  2  3  2  0
  3  4  1  0
  4  5  1  0
  5  6  1  0
  5  7  1  0
  5  8  1  0
  2  9  1  0
  9 10  1  0
  9 11  1  0
 11 12  2  0
 12 13  1  0
 12 14  1  0
 14 15  1  0
 14 16  2  0
 16 17  1  0
 16 18  1  0
 18 19  1  0
 18 20  2  0
 20 21  1  0
 21 22  3  0
 20 11  1  0
M  END
>  <UniqueID>  (15) 
13

>  <SMILES>  (15) 
CO/N=C/Nc1cc(Cl)c(Cl)cc1C#N

>  <Energy>  (15) 
25.051244705852884

>  <Genealogy>  (15) 
CO/N=C/Nc1cc(Cl)c(Cl)cc1C#N (cis-trans isomerization)
CO/N=C/Nc1cc(Cl)c(Cl)cc1C#N (3D coordinates assigned)
CO/N=C/Nc1cc(Cl)c(Cl)cc1C#N (optimized conformer: 25.051244705852884 kcal/mol)

>  <smiles>  (15) 
CON=CNc1cc(Cl)c(Cl)cc1C#N

>  <score_type>  (15) 
oracle

>  <origin>  (15) 
adg

>  <m_score__min__energy>  (15) 
-6.96

>  <m_primary>  (15) 
energy

$$$$
16:0
     RDKit          3D

 60 64  0  0  0  0  0  0  0  0999 V2000
    2.0920   24.5270  -27.6390 C   0  0  0  0  0  0  0  0  0  0  0  0
    0.7310   24.8510  -27.9060 O   0  0  0  0  0  0  0  0  0  0  0  0
   -0.1590   25.3880  -26.9620 C   0  0  0  0  0  0  0  0  0  0  0  0
    0.2390   26.3700  -26.0320 C   0  0  0  0  0  0  0  0  0  0  0  0
   -0.6720   26.8650  -25.0970 C   0  0  0  0  0  0  0  0  0  0  0  0
   -1.9840   26.3900  -25.0740 C   0  0  0  0  0  0  0  0  0  0  0  0
   -2.3910   25.4170  -25.9900 C   0  0  0  0  0  0  0  0  0  0  0  0
   -1.4850   24.9170  -26.9420 C   0  0  0  0  0  0  0  0  0  0  0  0
   -1.9130   23.9240  -27.8880 N   0  0  0  0  0  0  0  0  0  0  0  0
   -2.4570   22.6580  -27.3970 C   0  0  0  0  0  0  0  0  0  0  0  0
   -3.4460   22.0600  -28.4160 C   0  0  0  0  0  0  0  0  0  0  0  0
   -2.9350   22.0660  -29.8120 N   0  0  0  0  0  0  0  0  0  0  0  0
   -1.9120   21.0760  -30.1470 C   0  0  0  0  0  0  0  0  0  0  0  0
   -1.4890   20.3530  -29.2540 O   0  0  0  0  0  0  0  0  0  0  0  0
   -1.3580   20.8610  -31.5480 C   0  0  0  0  0  0  0  0  0  0  0  0
   -2.3140   20.0910  -32.4800 C   0  0  0  0  0  0  0  0  0  0  0  0
   -3.0890   20.9820  -33.4670 C   0  0  0  0  0  0  0  0  0  0  0  0
   -4.5150   21.0380  -33.1510 N   0  0  0  0  0  0  0  0  0  0  0  0
   -5.1740   22.0110  -32.3200 C   0  0  0  0  0  0  0  0  0  0  0  0
   -4.6700   23.1110  -31.9720 O   0  0  0  0  0  0  0  0  0  0  0  0
   -6.4950   21.5160  -31.9430 C   0  0  0  0  0  0  0  0  0  0  0  0
   -7.5290   22.0090  -31.1480 C   0  0  0  0  0  0  0  0  0  0  0  0
   -8.6790   21.1980  -30.9880 C   0  0  0  0  0  0  0  0  0  0  0  0
   -8.7650   19.9250  -31.6120 C   0  0  0  0  0  0  0  0  0  0  0  0
   -7.6930   19.4610  -32.3990 C   0  0  0  0  0  0  0  0  0  0  0  0
   -7.6390   18.2130  -33.0520 C   0  0  0  0  0  0  0  0  0  0  0  0
   -6.4850   17.8600  -33.7990 C   0  0  0  0  0  0  0  0  0  0  0  0
   -5.3840   18.7460  -33.8970 C   0  0  0  0  0  0  0  0  0  0  0  0
   -5.4720   19.9760  -33.2390 C   0  0  0  0  0  0  0  0  0  0  0  0
   -6.5970   20.2920  -32.5320 C   0  0  0  0  0  0  0  0  0  0  0  0
   -2.5100   23.4300  -30.2040 C   0  0  0  0  0  0  0  0  0  0  0  0
   -1.4320   23.9810  -29.2670 C   0  0  0  0  0  0  0  0  0  0  0  0
    2.2532   24.4886  -26.5516 H   0  0  0  0  0  0  0  0  0  0  0  0
    2.3289   23.5473  -28.0796 H   0  0  0  0  0  0  0  0  0  0  0  0
    2.7449   25.2948  -28.0796 H   0  0  0  0  0  0  0  0  0  0  0  0
    1.2720   26.7479  -26.0431 H   0  0  0  0  0  0  0  0  0  0  0  0
   -0.3544   27.6324  -24.3757 H   0  0  0  0  0  0  0  0  0  0  0  0
   -2.6978   26.7818  -24.3344 H   0  0  0  0  0  0  0  0  0  0  0  0
   -3.4243   25.0405  -25.9664 H   0  0  0  0  0  0  0  0  0  0  0  0
   -1.6319   21.9487  -27.2352 H   0  0  0  0  0  0  0  0  0  0  0  0
   -2.9902   22.8440  -26.4530 H   0  0  0  0  0  0  0  0  0  0  0  0
   -3.6573   21.0199  -28.1270 H   0  0  0  0  0  0  0  0  0  0  0  0
   -4.3481   22.6892  -28.3989 H   0  0  0  0  0  0  0  0  0  0  0  0
   -3.7580   21.8300  -30.4160 H   0  0  0  0  0  0  0  0  0  0  0  0
   -1.1539   21.8448  -31.9957 H   0  0  0  0  0  0  0  0  0  0  0  0
   -0.4487   20.2507  -31.4443 H   0  0  0  0  0  0  0  0  0  0  0  0
   -1.7218   19.3681  -33.0602 H   0  0  0  0  0  0  0  0  0  0  0  0
   -3.0633   19.6091  -31.8348 H   0  0  0  0  0  0  0  0  0  0  0  0
   -2.6759   22.0006  -33.4255 H   0  0  0  0  0  0  0  0  0  0  0  0
   -2.9807   20.5491  -34.4724 H   0  0  0  0  0  0  0  0  0  0  0  0
   -7.4542   22.9931  -30.6622 H   0  0  0  0  0  0  0  0  0  0  0  0
   -9.5163   21.5586  -30.3725 H   0  0  0  0  0  0  0  0  0  0  0  0
   -9.6640   19.3048  -31.4813 H   0  0  0  0  0  0  0  0  0  0  0  0
   -8.4872   17.5160  -32.9830 H   0  0  0  0  0  0  0  0  0  0  0  0
   -6.4450   16.8859  -34.3084 H   0  0  0  0  0  0  0  0  0  0  0  0
   -4.4873   18.4743  -34.4733 H   0  0  0  0  0  0  0  0  0  0  0  0
   -2.1091   23.3976  -31.2278 H   0  0  0  0  0  0  0  0  0  0  0  0
   -3.3865   24.0919  -30.1433 H   0  0  0  0  0  0  0  0  0  0  0  0
   -0.5184   23.3759  -29.3624 H   0  0  0  0  0  0  0  0  0  0  0  0
   -1.2092   25.0241  -29.5359 H   0  0  0  0  0  0  0  0  0  0  0  0
  1  2  1  0
  2  3  1  0
  3  4  2  0
  4  5  1  0
  5  6  2  0
  6  7  1  0
  7  8  2  0
  8  9  1  0
  9 10  1  0
 10 11  1  0
 11 12  1  0
 12 13  1  0
 13 14  2  0
 13 15  1  0
 15 16  1  0
 16 17  1  0
 17 18  1  0
 18 19  1  0
 19 20  2  0
 19 21  1  0
 21 22  1  0
 22 23  2  0
 23 24  1  0
 24 25  2  0
 25 26  1  0
 26 27  2  0
 27 28  1  0
 28 29  2  0
 29 30  1  0
 12 31  1  0
 31 32  1  0
  8  3  1  0
 32  9  1  0
 29 18  1  0
 30 21  2  0
 30 25  1  0
  1 33  1  0
  1 34  1  0
  1 35  1  0
  4 36  1  0
  5 37  1  0
  6 38  1  0
  7 39  1  0
 10 40  1  0
 10 41  1  0
 11 42  1  0
 11 43  1  0
 12 44  1  0
 15 45  1  0
 15 46  1  0
 16 47  1  0
 16 48  1  0
 17 49  1  0
 17 50  1  0
 22 51  1  0
 23 52  1  0
 24 53  1  0
 26 54  1  0
 27 55  1  0
 28 56  1  0
 31 57  1  0
 31 58  1  0
 32 59  1  0
 32 60  1  0
M  CHG  1  12   1
M  END
>  <UniqueID>  (16) 
14

>  <SMILES>  (16) 
COc1ccccc1N1CC[NH+](C(=O)CCCN2C(=O)c3cccc4cccc2c34)CC1

>  <Energy>  (16) 
115.67790554264819

>  <Genealogy>  (16) 
COc1ccccc1N1CC[NH+](C(=O)CCCN2C(=O)c3cccc4cccc2c34)CC1 (protonated)
COc1ccccc1N1CC[NH+](C(=O)CCCN2C(=O)c3cccc4cccc2c34)CC1 (3D coordinates assigned)
COc1ccccc1N1CC[NH+](C(=O)CCCN2C(=O)c3cccc4cccc2c34)CC1 (nonaromatic ring conformer: 115.67790554264819 kcal/mol)

>  <smiles>  (16) 
COc1ccccc1N1CCN(C(=O)CCCN2C(=O)c3cccc4cccc2c34)CC1

>  <score_type>  (16) 
oracle

>  <origin>  (16) 
adg

>  <m_score__min__energy>  (16) 
-9.9199999999999999

>  <m_primary>  (16) 
energy

$$$$
17:0
     RDKit          3D

 51 55  0  0  0  0  0  0  0  0999 V2000
   -2.5950   20.8490  -33.6680 C   0  0  0  0  0  0  0  0  0  0  0  0
   -1.8720   21.2720  -32.4350 C   0  0  0  0  0  0  0  0  0  0  0  0
   -0.8170   20.6300  -31.9090 N   0  0  0  0  0  0  0  0  0  0  0  0
   -0.4660   21.2770  -30.8120 N   0  0  0  0  0  0  0  0  0  0  0  0
   -1.3350   22.3050  -30.7000 C   0  0  0  0  0  0  0  0  0  0  0  0
   -1.3260   23.3180  -29.6130 C   0  0  0  0  0  0  0  0  0  0  0  0
   -0.1040   23.5900  -28.9690 C   0  0  0  0  0  0  0  0  0  0  0  0
   -0.0370   24.5100  -27.9220 C   0  0  0  0  0  0  0  0  0  0  0  0
   -1.1870   25.1740  -27.4980 C   0  0  0  0  0  0  0  0  0  0  0  0
   -2.4070   24.9260  -28.1270 C   0  0  0  0  0  0  0  0  0  0  0  0
   -2.4910   24.0100  -29.1890 C   0  0  0  0  0  0  0  0  0  0  0  0
   -3.8050   23.8320  -29.8420 C   0  0  0  0  0  0  0  0  0  0  0  0
   -4.4230   24.9460  -30.4320 C   0  0  0  0  0  0  0  0  0  0  0  0
   -5.6700   24.8190  -31.0450 C   0  0  0  0  0  0  0  0  0  0  0  0
   -6.3100   23.5780  -31.0820 C   0  0  0  0  0  0  0  0  0  0  0  0
   -7.9090   23.4180  -31.8770 S   0  0  0  0  0  0  0  0  0  0  0  0
   -7.7220   21.6480  -32.0950 C   0  0  0  0  0  0  0  0  0  0  0  0
   -8.4910   20.7650  -31.3290 C   0  0  0  0  0  0  0  0  0  0  0  0
   -8.3420   19.3840  -31.4850 C   0  0  0  0  0  0  0  0  0  0  0  0
   -7.4210   18.8750  -32.4120 C   0  0  0  0  0  0  0  0  0  0  0  0
   -7.2590   17.4900  -32.5770 C   0  0  0  0  0  0  0  0  0  0  0  0
   -6.3380   16.9960  -33.5040 C   0  0  0  0  0  0  0  0  0  0  0  0
   -5.5720   17.8770  -34.2730 C   0  0  0  0  0  0  0  0  0  0  0  0
   -5.7240   19.2590  -34.1200 C   0  0  0  0  0  0  0  0  0  0  0  0
   -6.6450   19.7680  -33.1930 C   0  0  0  0  0  0  0  0  0  0  0  0
   -6.8050   21.1520  -33.0280 C   0  0  0  0  0  0  0  0  0  0  0  0
   -5.7020   22.4600  -30.5030 C   0  0  0  0  0  0  0  0  0  0  0  0
   -4.4400   22.5690  -29.8950 C   0  0  0  0  0  0  0  0  0  0  0  0
   -3.8080   21.3510  -29.2750 C   0  0  0  0  0  0  0  0  0  0  0  0
   -2.1990   22.3030  -31.6940 O   0  0  0  0  0  0  0  0  0  0  0  0
   -3.5133   20.3118  -33.3885 H   0  0  0  0  0  0  0  0  0  0  0  0
   -2.8562   21.7368  -34.2627 H   0  0  0  0  0  0  0  0  0  0  0  0
   -1.9491   20.1863  -34.2627 H   0  0  0  0  0  0  0  0  0  0  0  0
   -0.3460   19.7730  -32.2770 H   0  0  0  0  0  0  0  0  0  0  0  0
    0.8093   23.0709  -29.2952 H   0  0  0  0  0  0  0  0  0  0  0  0
    0.9259   24.7118  -27.4299 H   0  0  0  0  0  0  0  0  0  0  0  0
   -1.1324   25.8933  -26.6676 H   0  0  0  0  0  0  0  0  0  0  0  0
   -3.3116   25.4524  -27.7885 H   0  0  0  0  0  0  0  0  0  0  0  0
   -3.9212   25.9247  -30.4109 H   0  0  0  0  0  0  0  0  0  0  0  0
   -6.1500   25.6979  -31.5000 H   0  0  0  0  0  0  0  0  0  0  0  0
   -9.2156   21.1592  -30.6013 H   0  0  0  0  0  0  0  0  0  0  0  0
   -8.9486   18.6948  -30.8792 H   0  0  0  0  0  0  0  0  0  0  0  0
   -7.8590   16.7920  -31.9746 H   0  0  0  0  0  0  0  0  0  0  0  0
   -6.2151   15.9101  -33.6293 H   0  0  0  0  0  0  0  0  0  0  0  0
   -4.8476   17.4822  -35.0006 H   0  0  0  0  0  0  0  0  0  0  0  0
   -5.1197   19.9482  -34.7282 H   0  0  0  0  0  0  0  0  0  0  0  0
   -6.2077   21.8492  -33.6340 H   0  0  0  0  0  0  0  0  0  0  0  0
   -6.2157   21.4875  -30.5236 H   0  0  0  0  0  0  0  0  0  0  0  0
   -3.8508   21.4334  -28.1789 H   0  0  0  0  0  0  0  0  0  0  0  0
   -4.3530   20.4512  -29.5966 H   0  0  0  0  0  0  0  0  0  0  0  0
   -2.7586   21.2785  -29.5966 H   0  0  0  0  0  0  0  0  0  0  0  0
  1  2  1  0
  2  3  2  0
  3  4  1  0
  4  5  2  0
  5  6  1  0
  6  7  2  0
  7  8  1  0
  8  9  2  0
  9 10  1  0
 10 11  2  0
 11 12  1  0
 12 13  2  0
 13 14  1  0
 14 15  2  0
 15 16  1  0
 16 17  1  0
 17 18  2  0
 18 19  1  0
 19 20  2  0
 20 21  1  0
 21 22  2  0
 22 23  1  0
 23 24  2  0
 24 25  1  0
 25 26  2  0
 15 27  1  0
 27 28  2  0
 28 29  1  0
  5 30  1  0
 30  2  1  0
 11  6  1  0
 28 12  1  0
 26 17  1  0
 25 20  1  0
  1 31  1  0
  1 32  1  0
  1 33  1  0
  3 34  1  0
  7 35  1  0
  8 36  1  0
  9 37  1  0
 10 38  1  0
 13 39  1  0
 14 40  1  0
 18 41  1  0
 19 42  1  0
 21 43  1  0
 22 44  1  0
 23 45  1  0
 24 46  1  0
 26 47  1  0
 27 48  1  0
 29 49  1  0
 29 50  1  0
 29 51  1  0
M  CHG  1   3   1
M  END
>  <UniqueID>  (17) 
15

>  <SMILES>  (17) 
Cc1[nH+]nc(-c2ccccc2-c2ccc(Sc3ccc4ccccc4c3)cc2C)o1

>  <Energy>  (17) 
99.28893915039389

>  <Genealogy>  (17) 
Cc1[nH+]nc(-c2ccccc2-c2ccc(Sc3ccc4ccccc4c3)cc2C)o1 (protonated)
Cc1[nH+]nc(-c2ccccc2-c2ccc(Sc3ccc4ccccc4c3)cc2C)o1 (3D coordinates assigned)
Cc1[nH+]nc(-c2ccccc2-c2ccc(Sc3ccc4ccccc4c3)cc2C)o1 (optimized conformer: 99.28893915039389 kcal/mol)

>  <smiles>  (17) 
Cc1nnc(-c2ccccc2-c2ccc(Sc3ccc4ccccc4c3)cc2C)o1

>  <score_type>  (17) 
oracle

>  <origin>  (17) 
adg

>  <m_score__min__energy>  (17) 
-9.6099999999999994

>  <m_primary>  (17) 
energy

$$$$
19:0
     RDKit          3D

 54 57  0  0  0  0  0  0  0  0999 V2000
   -4.5720   13.4000  -31.5420 C   0  0  0  0  0  0  0  0  0  0  0  0
   -3.4930   13.2290  -32.6090 C   0  0  0  0  0  0  0  0  0  0  0  0
   -4.1050   12.8670  -33.9070 N   0  0  0  0  0  0  0  0  0  0  0  0
   -3.5350   13.6480  -35.0250 C   0  0  0  0  0  0  0  0  0  0  0  0
   -3.8930   15.1400  -34.9080 C   0  0  0  0  0  0  0  0  0  0  0  0
   -5.2690   15.3050  -34.4330 N   0  0  0  0  0  0  0  0  0  0  0  0
   -5.7190   16.6030  -34.0060 C   0  0  0  0  0  0  0  0  0  0  0  0
   -5.0640   17.7160  -34.4370 N   0  0  0  0  0  0  0  0  0  0  0  0
   -5.4440   18.9590  -34.0480 C   0  0  0  0  0  0  0  0  0  0  0  0
   -6.5240   19.1150  -33.1780 C   0  0  0  0  0  0  0  0  0  0  0  0
   -6.9430   20.3820  -32.7490 C   0  0  0  0  0  0  0  0  0  0  0  0
   -8.0280   20.5000  -31.8690 C   0  0  0  0  0  0  0  0  0  0  0  0
   -8.5380   22.0870  -31.3030 S   0  0  0  0  0  0  0  0  0  0  0  0
   -9.3640   22.7690  -32.3580 O   0  0  0  0  0  0  0  0  0  0  0  0
   -9.3860   21.9380  -30.0700 O   0  0  0  0  0  0  0  0  0  0  0  0
   -7.1120   23.0520  -30.9420 C   0  0  0  0  0  0  0  0  0  0  0  0
   -7.2380   24.2480  -30.2240 C   0  0  0  0  0  0  0  0  0  0  0  0
   -6.1080   25.0260  -29.9560 C   0  0  0  0  0  0  0  0  0  0  0  0
   -4.8500   24.6180  -30.4060 C   0  0  0  0  0  0  0  0  0  0  0  0
   -4.7140   23.4210  -31.1380 C   0  0  0  0  0  0  0  0  0  0  0  0
   -3.4750   22.9700  -31.6180 O   0  0  0  0  0  0  0  0  0  0  0  0
   -3.2850   21.7610  -32.3450 C   0  0  0  0  0  0  0  0  0  0  0  0
   -5.8510   22.6480  -31.4030 C   0  0  0  0  0  0  0  0  0  0  0  0
   -8.6800   19.3480  -31.4070 C   0  0  0  0  0  0  0  0  0  0  0  0
   -8.2630   18.0830  -31.8320 C   0  0  0  0  0  0  0  0  0  0  0  0
   -7.1860   17.9570  -32.7220 C   0  0  0  0  0  0  0  0  0  0  0  0
   -6.7680   16.7280  -33.1400 N   0  0  0  0  0  0  0  0  0  0  0  0
   -6.1920   14.1710  -34.5430 C   0  0  0  0  0  0  0  0  0  0  0  0
   -5.5920   12.9200  -33.8720 C   0  0  0  0  0  0  0  0  0  0  0  0
   -4.1154   13.3276  -30.5439 H   0  0  0  0  0  0  0  0  0  0  0  0
   -5.0483   14.3848  -31.6568 H   0  0  0  0  0  0  0  0  0  0  0  0
   -5.3295   12.6107  -31.6568 H   0  0  0  0  0  0  0  0  0  0  0  0
   -2.9397   14.1732  -32.7198 H   0  0  0  0  0  0  0  0  0  0  0  0
   -2.8092   12.4247  -32.2998 H   0  0  0  0  0  0  0  0  0  0  0  0
   -2.4403   13.5408  -35.0148 H   0  0  0  0  0  0  0  0  0  0  0  0
   -3.9563   13.2638  -35.9657 H   0  0  0  0  0  0  0  0  0  0  0  0
   -3.2052   15.6221  -34.1977 H   0  0  0  0  0  0  0  0  0  0  0  0
   -3.8027   15.6050  -35.9008 H   0  0  0  0  0  0  0  0  0  0  0  0
   -4.9020   19.8420  -34.4176 H   0  0  0  0  0  0  0  0  0  0  0  0
   -6.4208   21.2832  -33.1026 H   0  0  0  0  0  0  0  0  0  0  0  0
   -8.2270   24.5753  -29.8707 H   0  0  0  0  0  0  0  0  0  0  0  0
   -6.2097   25.9629  -29.3887 H   0  0  0  0  0  0  0  0  0  0  0  0
   -3.9636   25.2321  -30.1887 H   0  0  0  0  0  0  0  0  0  0  0  0
   -3.1538   20.9263  -31.6406 H   0  0  0  0  0  0  0  0  0  0  0  0
   -4.1644   21.5718  -32.9781 H   0  0  0  0  0  0  0  0  0  0  0  0
   -2.3899   21.8506  -32.9781 H   0  0  0  0  0  0  0  0  0  0  0  0
   -5.7541   21.7153  -31.9781 H   0  0  0  0  0  0  0  0  0  0  0  0
   -9.5235   19.4398  -30.7069 H   0  0  0  0  0  0  0  0  0  0  0  0
   -8.7810   17.1837  -31.4674 H   0  0  0  0  0  0  0  0  0  0  0  0
   -7.2360   15.8730  -32.7650 H   0  0  0  0  0  0  0  0  0  0  0  0
   -7.1407   14.4271  -34.0487 H   0  0  0  0  0  0  0  0  0  0  0  0
   -6.3654   13.9552  -35.6076 H   0  0  0  0  0  0  0  0  0  0  0  0
   -5.9138   12.9040  -32.8202 H   0  0  0  0  0  0  0  0  0  0  0  0
   -5.9543   12.0503  -34.4398 H   0  0  0  0  0  0  0  0  0  0  0  0
  1  2  1  0
  2  3  1  0
  3  4  1  0
  4  5  1  0
  5  6  1  0
  6  7  1  0
  7  8  2  0
  8  9  1  0
  9 10  2  0
 10 11  1  0
 11 12  2  0
 12 13  1  0
 13 14  2  0
 13 15  2  0
 13 16  1  0
 16 17  2  0
 17 18  1  0
 18 19  2  0
 19 20  1  0
 20 21  1  0
 21 22  1  0
 20 23  2  0
 12 24  1  0
 24 25  2  0
 25 26  1  0
 26 27  2  0
  6 28  1  0
 28 29  1  0
 29  3  1  0
 27  7  1  0
 26 10  1  0
 23 16  1  0
  1 30  1  0
  1 31  1  0
  1 32  1  0
  2 33  1  0
  2 34  1  0
  4 35  1  0
  4 36  1  0
  5 37  1  0
  5 38  1  0
  9 39  1  0
 11 40  1  0
 17 41  1  0
 18 42  1  0
 19 43  1  0
 22 44  1  0
 22 45  1  0
 22 46  1  0
 23 47  1  0
 24 48  1  0
 25 49  1  0
 27 50  1  0
 28 51  1  0
 28 52  1  0
 29 53  1  0
 29 54  1  0
M  CHG  1  27   1
M  END
>  <UniqueID>  (18) 
16

>  <SMILES>  (18) 
CCN1CCN(c2ncc3cc(S(=O)(=O)c4cccc(OC)c4)ccc3[nH+]2)CC1

>  <Energy>  (18) 
70.64558770225779

>  <Genealogy>  (18) 
CCN1CCN(c2ncc3cc(S(=O)(=O)c4cccc(OC)c4)ccc3[nH+]2)CC1 (protonated)
CCN1CCN(c2ncc3cc(S(=O)(=O)c4cccc(OC)c4)ccc3[nH+]2)CC1 (3D coordinates assigned)
CCN1CCN(c2ncc3cc(S(=O)(=O)c4cccc(OC)c4)ccc3[nH+]2)CC1 (nonaromatic ring conformer: 70.64558770225779 kcal/mol)

>  <smiles>  (18) 
CCN1CCN(c2ncc3cc(S(=O)(=O)c4cccc(OC)c4)ccc3n2)CC1

>  <score_type>  (18) 
oracle

>  <origin>  (18) 
adg

>  <m_score__min__energy>  (18) 
-8.4700000000000006

>  <m_primary>  (18) 
energy

$$$$
20:0
     RDKit          3D

 49 51  0  0  0  0  0  0  0  0999 V2000
   -6.1210   16.7720  -34.2450 C   0  0  0  0  0  0  0  0  0  0  0  0
   -5.7580   18.0900  -34.9270 C   0  0  0  0  0  0  0  0  0  0  0  0
   -5.3430   19.1800  -33.9210 C   0  0  0  0  0  0  0  0  0  0  0  0
   -6.3910   20.2130  -33.7670 N   0  0  0  0  0  0  0  0  0  0  0  0
   -6.7760   20.4980  -32.3490 C   0  0  0  0  0  0  0  0  0  0  0  0
   -5.6340   21.2930  -31.6640 C   0  0  0  0  0  0  0  0  0  0  0  0
   -5.7140   22.6760  -31.3830 C   0  0  0  0  0  0  0  0  0  0  0  0
   -4.6710   23.3390  -30.7300 C   0  0  0  0  0  0  0  0  0  0  0  0
   -3.5170   22.6460  -30.3330 C   0  0  0  0  0  0  0  0  0  0  0  0
   -2.4120   23.3530  -29.6370 C   0  0  0  0  0  0  0  0  0  0  0  0
   -1.1100   22.8240  -29.6360 C   0  0  0  0  0  0  0  0  0  0  0  0
   -0.0860   23.5060  -28.9740 C   0  0  0  0  0  0  0  0  0  0  0  0
   -0.3470   24.6750  -28.3330 N   0  0  0  0  0  0  0  0  0  0  0  0
   -1.5940   25.2130  -28.3150 C   0  0  0  0  0  0  0  0  0  0  0  0
   -2.6480   24.5650  -28.9650 C   0  0  0  0  0  0  0  0  0  0  0  0
   -3.4270   21.2730  -30.6060 C   0  0  0  0  0  0  0  0  0  0  0  0
   -4.4670   20.6090  -31.2580 C   0  0  0  0  0  0  0  0  0  0  0  0
   -8.0660   21.4080  -32.3360 C   0  0  0  0  0  0  0  0  0  0  0  0
   -9.3910   20.6790  -32.0360 C   0  0  0  0  0  0  0  0  0  0  0  0
   -9.4420   19.2960  -32.6830 C   0  0  0  0  0  0  0  0  0  0  0  0
   -8.2910   18.3910  -32.2050 C   0  0  0  0  0  0  0  0  0  0  0  0
   -7.1080   19.1660  -31.5920 C   0  0  0  0  0  0  0  0  0  0  0  0
   -6.0852   16.9020  -33.1533 H   0  0  0  0  0  0  0  0  0  0  0  0
   -7.1355   16.4710  -34.5453 H   0  0  0  0  0  0  0  0  0  0  0  0
   -5.4037   15.9940  -34.5453 H   0  0  0  0  0  0  0  0  0  0  0  0
   -4.9212   17.9108  -35.6181 H   0  0  0  0  0  0  0  0  0  0  0  0
   -6.6518   18.4486  -35.4585 H   0  0  0  0  0  0  0  0  0  0  0  0
   -5.1591   18.7108  -32.9432 H   0  0  0  0  0  0  0  0  0  0  0  0
   -4.4342   19.6689  -34.3020 H   0  0  0  0  0  0  0  0  0  0  0  0
   -6.0670   21.0990  -34.2160 H   0  0  0  0  0  0  0  0  0  0  0  0
   -7.2260   19.9080  -34.3160 H   0  0  0  0  0  0  0  0  0  0  0  0
   -6.6103   23.2388  -31.6826 H   0  0  0  0  0  0  0  0  0  0  0  0
   -4.7557   24.4164  -30.5249 H   0  0  0  0  0  0  0  0  0  0  0  0
   -0.8981   21.8771  -30.1542 H   0  0  0  0  0  0  0  0  0  0  0  0
    0.9344   23.0953  -28.9718 H   0  0  0  0  0  0  0  0  0  0  0  0
   -1.7748   26.1612  -27.7875 H   0  0  0  0  0  0  0  0  0  0  0  0
   -3.6576   25.0014  -28.9508 H   0  0  0  0  0  0  0  0  0  0  0  0
   -2.5287   20.7148  -30.3035 H   0  0  0  0  0  0  0  0  0  0  0  0
   -4.3760   19.5315  -31.4597 H   0  0  0  0  0  0  0  0  0  0  0  0
   -7.9253   22.1840  -31.5692 H   0  0  0  0  0  0  0  0  0  0  0  0
   -8.1650   21.8053  -33.3570 H   0  0  0  0  0  0  0  0  0  0  0  0
   -9.4954   20.5657  -30.9468 H   0  0  0  0  0  0  0  0  0  0  0  0
  -10.2120   21.2802  -32.4538 H   0  0  0  0  0  0  0  0  0  0  0  0
  -10.3990   18.8188  -32.4254 H   0  0  0  0  0  0  0  0  0  0  0  0
   -9.3416   19.4265  -33.7706 H   0  0  0  0  0  0  0  0  0  0  0  0
   -8.6849   17.7002  -31.4450 H   0  0  0  0  0  0  0  0  0  0  0  0
   -7.9063   17.8647  -33.0910 H   0  0  0  0  0  0  0  0  0  0  0  0
   -7.3549   19.4105  -30.5483 H   0  0  0  0  0  0  0  0  0  0  0  0
   -6.2216   18.5193  -31.6695 H   0  0  0  0  0  0  0  0  0  0  0  0
  1  2  1  0
  2  3  1  0
  3  4  1  0
  4  5  1  0
  5  6  1  0
  6  7  2  0
  7  8  1  0
  8  9  2  0
  9 10  1  0
 10 11  2  0
 11 12  1  0
 12 13  2  0
 13 14  1  0
 14 15  2  0
  9 16  1  0
 16 17  2  0
  5 18  1  0
 18 19  1  0
 19 20  1  0
 20 21  1  0
 21 22  1  0
 22  5  1  0
 17  6  1  0
 15 10  1  0
  1 23  1  0
  1 24  1  0
  1 25  1  0
  2 26  1  0
  2 27  1  0
  3 28  1  0
  3 29  1  0
  4 30  1  0
  4 31  1  0
  7 32  1  0
  8 33  1  0
 11 34  1  0
 12 35  1  0
 14 36  1  0
 15 37  1  0
 16 38  1  0
 17 39  1  0
 18 40  1  0
 18 41  1  0
 19 42  1  0
 19 43  1  0
 20 44  1  0
 20 45  1  0
 21 46  1  0
 21 47  1  0
 22 48  1  0
 22 49  1  0
M  CHG  1   4   1
M  END
>  <UniqueID>  (19) 
17

>  <SMILES>  (19) 
CCC[NH2+]C1(c2ccc(-c3ccncc3)cc2)CCCCC1

>  <Energy>  (19) 
67.72204942249671

>  <Genealogy>  (19) 
CCC[NH2+]C1(c2ccc(-c3ccncc3)cc2)CCCCC1 (protonated)
CCC[NH2+]C1(c2ccc(-c3ccncc3)cc2)CCCCC1 (3D coordinates assigned)
CCC[NH2+]C1(c2ccc(-c3ccncc3)cc2)CCCCC1 (nonaromatic ring conformer: 67.72204942249671 kcal/mol)

>  <smiles>  (19) 
CCCNC1(c2ccc(-c3ccncc3)cc2)CCCCC1

>  <score_type>  (19) 
oracle

>  <origin>  (19) 
adg

>  <m_score__min__energy>  (19) 
-7.5800000000000001

>  <m_primary>  (19) 
energy

$$$$
21:0
     RDKit          3D

 34 35  0  0  0  0  0  0  0  0999 V2000
   -6.3330   25.3010  -29.9830 C   0  0  0  0  0  0  0  0  0  0  0  0
   -4.9900   24.5650  -29.9240 C   0  0  0  0  0  0  0  0  0  0  0  0
   -4.5940   24.0230  -31.2350 N   0  0  0  0  0  0  0  0  0  0  0  0
   -3.7560   22.8200  -31.1220 C   0  0  0  0  0  0  0  0  0  0  0  0
   -4.5460   21.5600  -31.4870 C   0  0  0  0  0  0  0  0  0  0  0  0
   -5.5450   21.8480  -32.4670 O   0  0  0  0  0  0  0  0  0  0  0  0
   -6.9380   21.7360  -32.3030 C   0  0  0  0  0  0  0  0  0  0  0  0
   -7.7280   22.8260  -31.8840 C   0  0  0  0  0  0  0  0  0  0  0  0
   -9.1010   22.6720  -31.6850 C   0  0  0  0  0  0  0  0  0  0  0  0
   -9.7050   21.4360  -31.9050 C   0  0  0  0  0  0  0  0  0  0  0  0
   -8.9420   20.3520  -32.3380 C   0  0  0  0  0  0  0  0  0  0  0  0
   -7.5600   20.4910  -32.5560 C   0  0  0  0  0  0  0  0  0  0  0  0
   -6.7840   19.3180  -33.0260 C   0  0  0  0  0  0  0  0  0  0  0  0
   -6.0450   19.2220  -34.2030 C   0  0  0  0  0  0  0  0  0  0  0  0
   -5.4440   17.9710  -34.3830 C   0  0  0  0  0  0  0  0  0  0  0  0
   -5.7070   17.0700  -33.3610 C   0  0  0  0  0  0  0  0  0  0  0  0
   -6.6940   17.8330  -32.2340 S   0  0  0  0  0  0  0  0  0  0  0  0
   -6.6893   25.4963  -28.9608 H   0  0  0  0  0  0  0  0  0  0  0  0
   -6.2052   26.2551  -30.5153 H   0  0  0  0  0  0  0  0  0  0  0  0
   -7.0684   24.6799  -30.5153 H   0  0  0  0  0  0  0  0  0  0  0  0
   -4.2157   25.2678  -29.5828 H   0  0  0  0  0  0  0  0  0  0  0  0
   -5.0986   23.7199  -29.2283 H   0  0  0  0  0  0  0  0  0  0  0  0
   -5.4480   23.7980  -31.7990 H   0  0  0  0  0  0  0  0  0  0  0  0
   -2.8974   22.9153  -31.8030 H   0  0  0  0  0  0  0  0  0  0  0  0
   -3.4156   22.7286  -30.0800 H   0  0  0  0  0  0  0  0  0  0  0  0
   -3.8541   20.8056  -31.8896 H   0  0  0  0  0  0  0  0  0  0  0  0
   -5.0425   21.1829  -30.5808 H   0  0  0  0  0  0  0  0  0  0  0  0
   -7.2585   23.8059  -31.7125 H   0  0  0  0  0  0  0  0  0  0  0  0
   -9.7072   23.5281  -31.3539 H   0  0  0  0  0  0  0  0  0  0  0  0
  -10.7853   21.3150  -31.7369 H   0  0  0  0  0  0  0  0  0  0  0  0
   -9.4258   19.3793  -32.5106 H   0  0  0  0  0  0  0  0  0  0  0  0
   -5.9437   20.0491  -34.9211 H   0  0  0  0  0  0  0  0  0  0  0  0
   -4.8202   17.7245  -35.2549 H   0  0  0  0  0  0  0  0  0  0  0  0
   -5.3347   16.0368  -33.2990 H   0  0  0  0  0  0  0  0  0  0  0  0
  1  2  1  0
  2  3  1  0
  3  4  1  0
  4  5  1  0
  5  6  1  0
  6  7  1  0
  7  8  2  0
  8  9  1  0
  9 10  2  0
 10 11  1  0
 11 12  2  0
 12 13  1  0
 13 14  2  0
 14 15  1  0
 15 16  2  0
 16 17  1  0
 12  7  1  0
 17 13  1  0
  1 18  1  0
  1 19  1  0
  1 20  1  0
  2 21  1  0
  2 22  1  0
  3 23  1  0
  4 24  1  0
  4 25  1  0
  5 26  1  0
  5 27  1  0
  8 28  1  0
  9 29  1  0
 10 30  1  0
 11 31  1  0
 14 32  1  0
 15 33  1  0
 16 34  1  0
M  END
>  <UniqueID>  (20) 
18

>  <SMILES>  (20) 
CCNCCOc1ccccc1-c1cccs1

>  <Energy>  (20) 
62.88439863252178

>  <Genealogy>  (20) 
CCNCCOc1ccccc1-c1cccs1 (3D coordinates assigned)
CCNCCOc1ccccc1-c1cccs1 (optimized conformer: 62.88439863252178 kcal/mol)

>  <smiles>  (20) 
CCNCCOc1ccccc1-c1cccs1

>  <score_type>  (20) 
oracle

>  <origin>  (20) 
adg

>  <m_score__min__energy>  (20) 
-6.7800000000000002

>  <m_primary>  (20) 
energy

$$$$
22:0
     RDKit          3D

 51 53  0  0  0  0  0  0  0  0999 V2000
   -3.9100   24.9840  -30.4790 O   0  0  0  0  0  0  0  0  0  0  0  0
   -3.9200   23.7610  -30.5170 C   0  0  0  0  0  0  0  0  0  0  0  0
   -2.8810   23.0030  -29.7220 C   0  0  0  0  0  0  0  0  0  0  0  0
   -2.9990   23.2630  -28.2120 C   0  0  0  0  0  0  0  0  0  0  0  0
   -2.6720   24.7190  -27.8160 C   0  0  0  0  0  0  0  0  0  0  0  0
   -2.6160   24.9430  -26.3080 C   0  0  0  0  0  0  0  0  0  0  0  0
   -1.6850   26.1310  -26.1020 C   0  0  0  0  0  0  0  0  0  0  0  0
   -0.8670   26.2790  -27.3850 C   0  0  0  0  0  0  0  0  0  0  0  0
   -1.3010   25.1550  -28.3160 C   0  0  0  0  0  0  0  0  0  0  0  0
   -4.9040   23.0610  -31.3280 N   0  0  2  0  0  0  0  0  0  0  0  0
   -6.1170   23.8950  -31.5250 C   0  0  0  0  0  0  0  0  0  0  0  0
   -7.2690   23.2330  -32.3060 C   0  0  0  0  0  0  0  0  0  0  0  0
   -8.0380   22.1200  -31.5740 C   0  0  0  0  0  0  0  0  0  0  0  0
   -7.3890   20.7890  -31.6170 N   0  0  0  0  0  0  0  0  0  0  0  0
   -8.0880   19.8530  -32.5220 C   0  0  0  0  0  0  0  0  0  0  0  0
   -7.1370   18.8210  -33.0450 C   0  0  0  0  0  0  0  0  0  0  0  0
   -6.9820   17.5310  -32.5530 C   0  0  0  0  0  0  0  0  0  0  0  0
   -6.0480   16.7780  -33.2740 C   0  0  0  0  0  0  0  0  0  0  0  0
   -5.4740   17.4680  -34.3340 C   0  0  0  0  0  0  0  0  0  0  0  0
   -6.1320   19.0160  -34.3770 S   0  0  0  0  0  0  0  0  0  0  0  0
   -5.9110   20.7650  -31.7960 C   0  0  0  0  0  0  0  0  0  0  0  0
   -5.1230   21.6740  -30.8280 C   0  0  0  0  0  0  0  0  0  0  0  0
   -3.0101   21.9264  -29.9068 H   0  0  0  0  0  0  0  0  0  0  0  0
   -1.8890   23.3500  -30.0470 H   0  0  0  0  0  0  0  0  0  0  0  0
   -4.0293   23.0388  -27.8985 H   0  0  0  0  0  0  0  0  0  0  0  0
   -2.2636   22.6160  -27.7114 H   0  0  0  0  0  0  0  0  0  0  0  0
   -3.4908   25.2949  -28.2719 H   0  0  0  0  0  0  0  0  0  0  0  0
   -3.6187   25.1691  -25.9164 H   0  0  0  0  0  0  0  0  0  0  0  0
   -2.2565   24.0488  -25.7778 H   0  0  0  0  0  0  0  0  0  0  0  0
   -2.2708   27.0439  -25.9190 H   0  0  0  0  0  0  0  0  0  0  0  0
   -1.0301   25.9730  -25.2324 H   0  0  0  0  0  0  0  0  0  0  0  0
   -1.0670   27.2551  -27.8510 H   0  0  0  0  0  0  0  0  0  0  0  0
    0.2111   26.2226  -27.1742 H   0  0  0  0  0  0  0  0  0  0  0  0
   -1.3673   25.5181  -29.3522 H   0  0  0  0  0  0  0  0  0  0  0  0
   -0.5820   24.3225  -28.3135 H   0  0  0  0  0  0  0  0  0  0  0  0
   -4.5030   22.9530  -32.2890 H   0  0  0  0  0  0  0  0  0  0  0  0
   -6.4994   24.1737  -30.5320 H   0  0  0  0  0  0  0  0  0  0  0  0
   -5.7945   24.7498  -32.1376 H   0  0  0  0  0  0  0  0  0  0  0  0
   -7.9902   24.0203  -32.5707 H   0  0  0  0  0  0  0  0  0  0  0  0
   -6.7944   22.7427  -33.1688 H   0  0  0  0  0  0  0  0  0  0  0  0
   -8.1465   22.4146  -30.5197 H   0  0  0  0  0  0  0  0  0  0  0  0
   -9.0012   22.0134  -32.0944 H   0  0  0  0  0  0  0  0  0  0  0  0
   -8.8977   19.3528  -31.9705 H   0  0  0  0  0  0  0  0  0  0  0  0
   -8.5005   20.4192  -33.3701 H   0  0  0  0  0  0  0  0  0  0  0  0
   -7.5361   17.1416  -31.6862 H   0  0  0  0  0  0  0  0  0  0  0  0
   -5.7926   15.7375  -33.0246 H   0  0  0  0  0  0  0  0  0  0  0  0
   -4.7181   17.0703  -35.0272 H   0  0  0  0  0  0  0  0  0  0  0  0
   -5.5661   19.7307  -31.6502 H   0  0  0  0  0  0  0  0  0  0  0  0
   -5.7169   21.1508  -32.8077 H   0  0  0  0  0  0  0  0  0  0  0  0
   -5.6799   21.7333  -29.8813 H   0  0  0  0  0  0  0  0  0  0  0  0
   -4.1274   21.2210  -30.7116 H   0  0  0  0  0  0  0  0  0  0  0  0
  1  2  2  0
  2  3  1  0
  3  4  1  0
  4  5  1  0
  5  6  1  0
  6  7  1  0
  7  8  1  0
  8  9  1  0
  2 10  1  0
 10 11  1  0
 11 12  1  0
 12 13  1  0
 13 14  1  0
 14 15  1  0
 15 16  1  0
 16 17  2  0
 17 18  1  0
 18 19  2  0
 19 20  1  0
 14 21  1  0
 21 22  1  0
  9  5  1  0
 22 10  1  0
 20 16  1  0
  3 23  1  0
  3 24  1  0
  4 25  1  0
  4 26  1  0
  5 27  1  0
  6 28  1  0
  6 29  1  0
  7 30  1  0
  7 31  1  0
  8 32  1  0
  8 33  1  0
  9 34  1  0
  9 35  1  0
 10 36  1  6
 11 37  1  0
 11 38  1  0
 12 39  1  0
 12 40  1  0
 13 41  1  0
 13 42  1  0
 15 43  1  0
 15 44  1  0
 17 45  1  0
 18 46  1  0
 19 47  1  0
 21 48  1  0
 21 49  1  0
 22 50  1  0
 22 51  1  0
M  CHG  1  10   1
M  END
>  <UniqueID>  (21) 
19

>  <SMILES>  (21) 
O=C(CCC1CCCC1)[N@@H+]1CCCN(Cc2cccs2)CC1

>  <Energy>  (21) 
93.61532451125973

>  <Genealogy>  (21) 
O=C(CCC1CCCC1)[NH+]1CCCN(Cc2cccs2)CC1 (protonated)
O=C(CCC1CCCC1)[N@@H+]1CCCN(Cc2cccs2)CC1 (chirality)
O=C(CCC1CCCC1)[N@@H+]1CCCN(Cc2cccs2)CC1 (3D coordinates assigned)
O=C(CCC1CCCC1)[N@@H+]1CCCN(Cc2cccs2)CC1 (nonaromatic ring conformer: 93.61532451125973 kcal/mol)

>  <smiles>  (21) 
O=C(CCC1CCCC1)N1CCCN(Cc2cccs2)CC1

>  <score_type>  (21) 
oracle

>  <origin>  (21) 
adg

>  <m_score__min__energy>  (21) 
-5.8700000000000001

>  <m_primary>  (21) 
energy

$$$$
23:0
     RDKit          3D

 31 33  0  0  0  0  0  0  0  0999 V2000
   -1.5350   25.6500  -27.1990 C   0  0  0  0  0  0  0  0  0  0  0  0
   -1.4060   25.4020  -28.5040 C   0  0  0  0  0  0  0  0  0  0  0  0
   -2.2140   24.3300  -29.1710 C   0  0  0  0  0  0  0  0  0  0  0  0
   -3.1270   24.9220  -30.0920 O   0  0  0  0  0  0  0  0  0  0  0  0
   -4.3590   24.3620  -30.4580 C   0  0  0  0  0  0  0  0  0  0  0  0
   -5.5520   25.1090  -30.4780 C   0  0  0  0  0  0  0  0  0  0  0  0
   -6.7580   24.5090  -30.8500 C   0  0  0  0  0  0  0  0  0  0  0  0
   -6.7920   23.1480  -31.2060 C   0  0  0  0  0  0  0  0  0  0  0  0
   -7.9830   22.5040  -31.5860 C   0  0  0  0  0  0  0  0  0  0  0  0
   -9.0720   23.1420  -31.6170 O   0  0  0  0  0  0  0  0  0  0  0  0
   -7.9460   21.1420  -31.9300 C   0  0  0  0  0  0  0  0  0  0  0  0
   -9.1010   20.4360  -32.3190 C   0  0  0  0  0  0  0  0  0  0  0  0
   -9.0150   19.0810  -32.6530 C   0  0  0  0  0  0  0  0  0  0  0  0
   -7.7850   18.4200  -32.6030 C   0  0  0  0  0  0  0  0  0  0  0  0
   -6.6320   19.1100  -32.2190 C   0  0  0  0  0  0  0  0  0  0  0  0
   -6.7040   20.4670  -31.8820 C   0  0  0  0  0  0  0  0  0  0  0  0
   -5.6000   21.1110  -31.5180 O   0  0  0  0  0  0  0  0  0  0  0  0
   -5.5950   22.3980  -31.1850 C   0  0  0  0  0  0  0  0  0  0  0  0
   -4.3930   23.0080  -30.8120 C   0  0  0  0  0  0  0  0  0  0  0  0
   -0.9333   26.4409  -26.7273 H   0  0  0  0  0  0  0  0  0  0  0  0
   -2.2430   25.0635  -26.5951 H   0  0  0  0  0  0  0  0  0  0  0  0
   -0.6954   25.9937  -29.0997 H   0  0  0  0  0  0  0  0  0  0  0  0
   -1.5414   23.6468  -29.7103 H   0  0  0  0  0  0  0  0  0  0  0  0
   -2.7757   23.7690  -28.4096 H   0  0  0  0  0  0  0  0  0  0  0  0
   -5.5348   26.1728  -30.1988 H   0  0  0  0  0  0  0  0  0  0  0  0
   -7.6839   25.1026  -30.8646 H   0  0  0  0  0  0  0  0  0  0  0  0
  -10.0720   20.9513  -32.3601 H   0  0  0  0  0  0  0  0  0  0  0  0
   -9.9193   18.5331  -32.9564 H   0  0  0  0  0  0  0  0  0  0  0  0
   -7.7241   17.3538  -32.8666 H   0  0  0  0  0  0  0  0  0  0  0  0
   -5.6657   18.5858  -32.1814 H   0  0  0  0  0  0  0  0  0  0  0  0
   -3.4649   22.4178  -30.7966 H   0  0  0  0  0  0  0  0  0  0  0  0
  1  2  2  0
  2  3  1  0
  3  4  1  0
  4  5  1  0
  5  6  2  0
  6  7  1  0
  7  8  2  0
  8  9  1  0
  9 10  2  0
  9 11  1  0
 11 12  2  0
 12 13  1  0
 13 14  2  0
 14 15  1  0
 15 16  2  0
 16 17  1  0
 17 18  1  0
 18 19  2  0
 19  5  1  0
 18  8  1  0
 16 11  1  0
  1 20  1  0
  1 21  1  0
  2 22  1  0
  3 23  1  0
  3 24  1  0
  6 25  1  0
  7 26  1  0
 12 27  1  0
 13 28  1  0
 14 29  1  0
 15 30  1  0
 19 31  1  0
M  END
>  <UniqueID>  (22) 
20

>  <SMILES>  (22) 
C=CCOc1ccc2c(=O)c3ccccc3oc2c1

>  <Energy>  (22) 
38.81267912712269

>  <Genealogy>  (22) 
C=CCOc1ccc2c(=O)c3ccccc3oc2c1 (3D coordinates assigned)
C=CCOc1ccc2c(=O)c3ccccc3oc2c1 (optimized conformer: 38.81267912712269 kcal/mol)

>  <smiles>  (22) 
C=CCOc1ccc2c(=O)c3ccccc3oc2c1

>  <score_type>  (22) 
oracle

>  <origin>  (22) 
adg

>  <m_score__min__energy>  (22) 
-7.9199999999999999

>  <m_primary>  (22) 
energy

$$$$
24:0
     RDKit          3D

 26 26  0  0  0  0  0  0  0  0999 V2000
   -4.2220   22.7800  -27.7840 C   0  0  0  0  0  0  0  0  0  0  0  0
   -3.3600   23.9590  -27.9340 N   0  0  0  0  0  0  0  0  0  0  0  0
   -3.0960   24.8280  -26.7830 C   0  0  0  0  0  0  0  0  0  0  0  0
   -2.7590   24.2810  -29.2080 C   0  0  0  0  0  0  0  0  0  0  0  0
   -2.0210   25.2980  -29.3140 O   0  0  0  0  0  0  0  0  0  0  0  0
   -2.9620   23.4170  -30.4200 C   0  0  0  0  0  0  0  0  0  0  0  0
   -4.0160   23.9560  -31.2110 O   0  0  0  0  0  0  0  0  0  0  0  0
   -5.2270   23.3000  -31.4810 C   0  0  0  0  0  0  0  0  0  0  0  0
   -5.2980   22.1790  -32.3310 C   0  0  0  0  0  0  0  0  0  0  0  0
   -6.5260   21.5550  -32.5730 C   0  0  0  0  0  0  0  0  0  0  0  0
   -7.6890   22.0400  -31.9730 C   0  0  0  0  0  0  0  0  0  0  0  0
   -8.8780   21.4320  -32.2090 F   0  0  0  0  0  0  0  0  0  0  0  0
   -7.6280   23.1510  -31.1280 C   0  0  0  0  0  0  0  0  0  0  0  0
   -6.4030   23.7810  -30.8810 C   0  0  0  0  0  0  0  0  0  0  0  0
   -6.3520   25.3030  -29.7240 Br  0  0  0  0  0  0  0  0  0  0  0  0
   -4.3747   22.5711  -26.7149 H   0  0  0  0  0  0  0  0  0  0  0  0
   -5.1936   22.9729  -28.2624 H   0  0  0  0  0  0  0  0  0  0  0  0
   -3.7435   21.9127  -28.2624 H   0  0  0  0  0  0  0  0  0  0  0  0
   -3.2666   24.2663  -25.8527 H   0  0  0  0  0  0  0  0  0  0  0  0
   -2.0523   25.1738  -26.8164 H   0  0  0  0  0  0  0  0  0  0  0  0
   -3.7710   25.6959  -26.8164 H   0  0  0  0  0  0  0  0  0  0  0  0
   -2.0351   23.3905  -31.0118 H   0  0  0  0  0  0  0  0  0  0  0  0
   -3.2228   22.3958  -30.1050 H   0  0  0  0  0  0  0  0  0  0  0  0
   -4.3841   21.7929  -32.8062 H   0  0  0  0  0  0  0  0  0  0  0  0
   -6.5753   20.6800  -33.2377 H   0  0  0  0  0  0  0  0  0  0  0  0
   -8.5455   23.5316  -30.6555 H   0  0  0  0  0  0  0  0  0  0  0  0
  1  2  1  0
  2  3  1  0
  2  4  1  0
  4  5  2  0
  4  6  1  0
  6  7  1  0
  7  8  1  0
  8  9  2  0
  9 10  1  0
 10 11  2  0
 11 12  1  0
 11 13  1  0
 13 14  2  0
 14 15  1  0
 14  8  1  0
  1 16  1  0
  1 17  1  0
  1 18  1  0
  3 19  1  0
  3 20  1  0
  3 21  1  0
  6 22  1  0
  6 23  1  0
  9 24  1  0
 10 25  1  0
 13 26  1  0
M  END
>  <UniqueID>  (23) 
21

>  <SMILES>  (23) 
CN(C)C(=O)COc1ccc(F)cc1Br

>  <Energy>  (23) 
20.189372558141024

>  <Genealogy>  (23) 
CN(C)C(=O)COc1ccc(F)cc1Br (3D coordinates assigned)
CN(C)C(=O)COc1ccc(F)cc1Br (optimized conformer: 20.189372558141024 kcal/mol)

>  <smiles>  (23) 
CN(C)C(=O)COc1ccc(F)cc1Br

>  <score_type>  (23) 
oracle

>  <origin>  (23) 
adg

>  <m_score__min__energy>  (23) 
-6.2400000000000002

>  <m_primary>  (23) 
energy

$$$$
25:0
     RDKit          3D

 45 48  0  0  0  0  0  0  0  0999 V2000
    1.1020   24.4600  -26.9450 C   0  0  0  0  0  0  0  0  0  0  0  0
    0.3590   25.3900  -26.0300 C   0  0  0  0  0  0  0  0  0  0  0  0
    0.7320   25.4440  -24.7210 N   0  0  0  0  0  0  0  0  0  0  0  0
    0.1220   26.2630  -23.8260 C   0  0  0  0  0  0  0  0  0  0  0  0
   -0.9240   27.0870  -24.2350 C   0  0  0  0  0  0  0  0  0  0  0  0
   -1.3300   27.0640  -25.5690 C   0  0  0  0  0  0  0  0  0  0  0  0
   -0.6900   26.2220  -26.4920 C   0  0  0  0  0  0  0  0  0  0  0  0
   -1.1410   26.2230  -27.9370 C   0  0  0  0  0  0  0  0  0  0  0  0
   -1.9740   25.0410  -28.2510 N   0  0  0  0  0  0  0  0  0  0  0  0
   -1.2990   24.0290  -29.1030 C   0  0  0  0  0  0  0  0  0  0  0  0
   -2.2250   22.9530  -29.6960 C   0  0  0  0  0  0  0  0  0  0  0  0
   -3.5950   23.4880  -29.9450 C   0  0  0  0  0  0  0  0  0  0  0  0
   -4.1530   23.5310  -31.1740 N   0  0  0  0  0  0  0  0  0  0  0  0
   -5.3790   24.0470  -30.9520 C   0  0  0  0  0  0  0  0  0  0  0  0
   -6.4250   24.1990  -32.0080 C   0  0  0  0  0  0  0  0  0  0  0  0
   -7.3690   23.0900  -31.9280 N   0  0  0  0  0  0  0  0  0  0  0  0
   -7.0780   21.7800  -31.9780 C   0  0  0  0  0  0  0  0  0  0  0  0
   -8.1990   21.0340  -31.9630 N   0  0  0  0  0  0  0  0  0  0  0  0
   -9.1720   21.9710  -31.9110 C   0  0  0  0  0  0  0  0  0  0  0  0
   -8.6810   23.2260  -31.8990 N   0  0  0  0  0  0  0  0  0  0  0  0
   -5.5550   24.2820  -29.6060 C   0  0  0  0  0  0  0  0  0  0  0  0
   -4.4270   23.9200  -28.9730 N   0  0  0  0  0  0  0  0  0  0  0  0
   -4.2010   24.0220  -27.5270 C   0  0  0  0  0  0  0  0  0  0  0  0
   -2.7830   24.4960  -27.1350 C   0  0  0  0  0  0  0  0  0  0  0  0
    1.6780   23.7391  -26.3462 H   0  0  0  0  0  0  0  0  0  0  0  0
    0.3845   23.9192  -27.5796 H   0  0  0  0  0  0  0  0  0  0  0  0
    1.7879   25.0404  -27.5796 H   0  0  0  0  0  0  0  0  0  0  0  0
    0.4541   26.2758  -22.7774 H   0  0  0  0  0  0  0  0  0  0  0  0
   -1.4246   27.7491  -23.5132 H   0  0  0  0  0  0  0  0  0  0  0  0
   -2.1568   27.7096  -25.8999 H   0  0  0  0  0  0  0  0  0  0  0  0
   -1.7283   27.1336  -28.1265 H   0  0  0  0  0  0  0  0  0  0  0  0
   -0.2460   26.1913  -28.5757 H   0  0  0  0  0  0  0  0  0  0  0  0
   -0.8113   24.5558  -29.9364 H   0  0  0  0  0  0  0  0  0  0  0  0
   -0.5931   23.4982  -28.4473 H   0  0  0  0  0  0  0  0  0  0  0  0
   -1.8003   22.6008  -30.6476 H   0  0  0  0  0  0  0  0  0  0  0  0
   -2.3028   22.1278  -28.9729 H   0  0  0  0  0  0  0  0  0  0  0  0
   -6.9615   25.1474  -31.8575 H   0  0  0  0  0  0  0  0  0  0  0  0
   -5.9458   24.1988  -32.9981 H   0  0  0  0  0  0  0  0  0  0  0  0
   -6.0582   21.3703  -32.0250 H   0  0  0  0  0  0  0  0  0  0  0  0
  -10.2460   21.7351  -31.8817 H   0  0  0  0  0  0  0  0  0  0  0  0
   -6.4592   24.6933  -29.1334 H   0  0  0  0  0  0  0  0  0  0  0  0
   -4.9289   24.7361  -27.1144 H   0  0  0  0  0  0  0  0  0  0  0  0
   -4.3173   23.0073  -27.1184 H   0  0  0  0  0  0  0  0  0  0  0  0
   -2.8846   25.2816  -26.3718 H   0  0  0  0  0  0  0  0  0  0  0  0
   -2.2492   23.6041  -26.7752 H   0  0  0  0  0  0  0  0  0  0  0  0
  1  2  1  0
  2  3  2  0
  3  4  1  0
  4  5  2  0
  5  6  1  0
  6  7  2  0
  7  8  1  0
  8  9  1  0
  9 10  1  0
 10 11  1  0
 11 12  1  0
 12 13  2  0
 13 14  1  0
 14 15  1  0
 15 16  1  0
 16 17  1  0
 17 18  2  0
 18 19  1  0
 19 20  2  0
 14 21  2  0
 21 22  1  0
 22 23  1  0
 23 24  1  0
  7  2  1  0
 24  9  1  0
 22 12  1  0
 20 16  1  0
  1 25  1  0
  1 26  1  0
  1 27  1  0
  4 28  1  0
  5 29  1  0
  6 30  1  0
  8 31  1  0
  8 32  1  0
 10 33  1  0
 10 34  1  0
 11 35  1  0
 11 36  1  0
 15 37  1  0
 15 38  1  0
 17 39  1  0
 19 40  1  0
 21 41  1  0
 23 42  1  0
 23 43  1  0
 24 44  1  0
 24 45  1  0
M  END
>  <UniqueID>  (24) 
22

>  <SMILES>  (24) 
Cc1ncccc1CN1CCc2nc(Cn3cncn3)cn2CC1

>  <Energy>  (24) 
121.84835563539943

>  <Genealogy>  (24) 
Cc1ncccc1CN1CCc2nc(Cn3cncn3)cn2CC1 (3D coordinates assigned)
Cc1ncccc1CN1CCc2nc(Cn3cncn3)cn2CC1 (nonaromatic ring conformer: 121.84835563539943 kcal/mol)

>  <smiles>  (24) 
Cc1ncccc1CN1CCc2nc(Cn3cncn3)cn2CC1

>  <score_type>  (24) 
oracle

>  <origin>  (24) 
adg

>  <m_score__min__energy>  (24) 
-5.6200000000000001

>  <m_primary>  (24) 
energy

$$$$
26:0
     RDKit          3D

 41 43  0  0  0  0  0  0  0  0999 V2000
   -4.3008   20.6255  -34.4129 H   0  0  0  0  0  0  0  0  0  0  0  0
   -4.5230   20.6550  -33.3360 C   0  0  0  0  0  0  0  0  0  0  0  0
   -3.4820   20.7090  -32.4910 C   0  0  0  0  0  0  0  0  0  0  0  0
   -2.6278   20.0471  -32.6963 H   0  0  0  0  0  0  0  0  0  0  0  0
   -3.3930   21.5880  -31.3060 C   0  0  0  0  0  0  0  0  0  0  0  0
   -3.1110   21.0670  -30.0360 C   0  0  0  0  0  0  0  0  0  0  0  0
   -2.9296   19.9888  -29.9152 H   0  0  0  0  0  0  0  0  0  0  0  0
   -3.0590   21.9070  -28.9250 C   0  0  0  0  0  0  0  0  0  0  0  0
   -2.8223   21.4878  -27.9359 H   0  0  0  0  0  0  0  0  0  0  0  0
   -3.3060   23.2840  -29.0560 C   0  0  0  0  0  0  0  0  0  0  0  0
   -3.2270   24.1340  -27.8960 N   0  0  0  0  0  0  0  0  0  0  0  0
   -2.1150   24.6450  -27.3270 C   0  0  0  0  0  0  0  0  0  0  0  0
   -1.0854   24.5110  -27.6903 H   0  0  0  0  0  0  0  0  0  0  0  0
   -2.4910   25.3640  -26.2120 C   0  0  0  0  0  0  0  0  0  0  0  0
   -1.8110   25.9051  -25.5376 H   0  0  0  0  0  0  0  0  0  0  0  0
   -3.8290   25.2930  -26.0870 N   0  0  0  0  0  0  0  0  0  0  0  0
   -4.4160   25.7290  -25.3420 H   0  0  0  0  0  0  0  0  0  0  0  0
   -4.2530   24.5380  -27.1170 C   0  0  0  0  0  0  0  0  0  0  0  0
   -5.3066   24.2814  -27.3017 H   0  0  0  0  0  0  0  0  0  0  0  0
   -3.6420   23.8110  -30.3220 C   0  0  0  0  0  0  0  0  0  0  0  0
   -3.9500   25.1770  -30.4330 O   0  0  0  0  0  0  0  0  0  0  0  0
   -5.2680   25.7130  -30.4570 C   0  0  0  0  0  0  0  0  0  0  0  0
   -5.6238   25.8577  -29.4262 H   0  0  0  0  0  0  0  0  0  0  0  0
   -5.2612   26.6798  -30.9817 H   0  0  0  0  0  0  0  0  0  0  0  0
   -5.9379   25.0158  -30.9817 H   0  0  0  0  0  0  0  0  0  0  0  0
   -3.6850   22.9520  -31.4400 C   0  0  0  0  0  0  0  0  0  0  0  0
   -3.9506   23.3571  -32.4276 H   0  0  0  0  0  0  0  0  0  0  0  0
   -5.9450   20.6320  -32.9330 C   0  0  0  0  0  0  0  0  0  0  0  0
   -6.7910   21.8980  -32.2030 S   0  0  0  0  0  0  0  0  0  0  0  0
   -8.2100   21.0390  -31.9360 C   0  0  0  0  0  0  0  0  0  0  0  0
   -9.4640   21.6080  -31.3660 C   0  0  0  0  0  0  0  0  0  0  0  0
   -9.4113   21.5841  -30.2675 H   0  0  0  0  0  0  0  0  0  0  0  0
   -9.5820   22.6478  -31.7049 H   0  0  0  0  0  0  0  0  0  0  0  0
  -10.3242   21.0120  -31.7049 H   0  0  0  0  0  0  0  0  0  0  0  0
   -8.0490   19.7450  -32.4120 C   0  0  0  0  0  0  0  0  0  0  0  0
   -8.8392   18.9811  -32.3675 H   0  0  0  0  0  0  0  0  0  0  0  0
   -6.7760   19.5090  -32.9560 C   0  0  0  0  0  0  0  0  0  0  0  0
   -6.3540   18.1710  -33.4840 C   0  0  0  0  0  0  0  0  0  0  0  0
   -6.1409   17.4954  -32.6425 H   0  0  0  0  0  0  0  0  0  0  0  0
   -7.1623   17.7478  -34.0985 H   0  0  0  0  0  0  0  0  0  0  0  0
   -5.4492   18.2881  -34.0985 H   0  0  0  0  0  0  0  0  0  0  0  0
  1  2  1  0
  2  3  2  0
  3  4  1  0
  3  5  1  0
  5  6  2  0
  6  7  1  0
  6  8  1  0
  8  9  1  0
  8 10  2  0
 10 11  1  0
 11 12  1  0
 12 13  1  0
 12 14  2  0
 14 15  1  0
 14 16  1  0
 16 17  1  0
 16 18  2  0
 18 19  1  0
 10 20  1  0
 20 21  1  0
 21 22  1  0
 22 23  1  0
 22 24  1  0
 22 25  1  0
 20 26  2  0
 26 27  1  0
  2 28  1  0
 28 29  1  0
 29 30  1  0
 30 31  1  0
 31 32  1  0
 31 33  1  0
 31 34  1  0
 30 35  2  0
 35 36  1  0
 35 37  1  0
 37 38  1  0
 38 39  1  0
 38 40  1  0
 38 41  1  0
 26  5  1  0
 37 28  2  0
 18 11  1  0
M  CHG  1  16   1
M  END
>  <UniqueID>  (25) 
23

>  <SMILES>  (25) 
COc1cc(/C=C\c2sc(C)cc2C)ccc1-n1cc[nH+]c1

>  <Energy>  (25) 
109.62829807803325

>  <Genealogy>  (25) 
COc1cc(C=Cc2sc(C)cc2C)ccc1-n1cc[nH+]c1 (protonated)
COc1cc(/C=C\c2sc(C)cc2C)ccc1-n1cc[nH+]c1 (cis-trans isomerization)
COc1cc(/C=C\c2sc(C)cc2C)ccc1-n1cc[nH+]c1 (3D coordinates assigned)
COc1cc(/C=C\c2sc(C)cc2C)ccc1-n1cc[nH+]c1 (optimized conformer: 109.62829807803325 kcal/mol)

>  <smiles>  (25) 
COc1cc(C=Cc2sc(C)cc2C)ccc1-n1ccnc1

>  <score_type>  (25) 
oracle

>  <origin>  (25) 
adg

>  <m_score__min__energy>  (25) 
-8.0399999999999991

>  <m_primary>  (25) 
energy

$$$$
27:0
     RDKit          3D

 54 58  0  0  0  0  0  0  0  0999 V2000
   -1.2160   20.4580  -31.2100 O   0  0  0  0  0  0  0  0  0  0  0  0
   -1.8280   21.1060  -30.3160 C   0  0  0  0  0  0  0  0  0  0  0  0
   -1.3390   21.0820  -28.9960 C   0  0  0  0  0  0  0  0  0  0  0  0
   -0.1450   20.2890  -28.6110 C   0  0  0  0  0  0  0  0  0  0  0  0
    1.0420   20.9310  -28.2190 C   0  0  0  0  0  0  0  0  0  0  0  0
    2.1710   20.1860  -27.8680 C   0  0  0  0  0  0  0  0  0  0  0  0
    2.1330   18.7850  -27.9090 C   0  0  0  0  0  0  0  0  0  0  0  0
    3.2620   18.0280  -27.5610 C   0  0  0  0  0  0  0  0  0  0  0  0
    3.2120   16.6320  -27.6070 C   0  0  0  0  0  0  0  0  0  0  0  0
    2.0380   15.9830  -27.9990 C   0  0  0  0  0  0  0  0  0  0  0  0
    0.9070   16.7260  -28.3510 C   0  0  0  0  0  0  0  0  0  0  0  0
    0.9450   18.1280  -28.3090 C   0  0  0  0  0  0  0  0  0  0  0  0
   -0.1850   18.8840  -28.6590 C   0  0  0  0  0  0  0  0  0  0  0  0
   -2.0170   21.8280  -28.0330 C   0  0  0  0  0  0  0  0  0  0  0  0
   -3.1170   22.5370  -28.3740 N   0  0  0  0  0  0  0  0  0  0  0  0
   -3.5870   22.5580  -29.6470 C   0  0  0  0  0  0  0  0  0  0  0  0
   -4.8070   23.3450  -29.9090 C   0  0  0  0  0  0  0  0  0  0  0  0
   -6.0630   22.7780  -29.6360 C   0  0  0  0  0  0  0  0  0  0  0  0
   -7.2300   23.5000  -29.8940 C   0  0  0  0  0  0  0  0  0  0  0  0
   -7.1530   24.7950  -30.4130 C   0  0  0  0  0  0  0  0  0  0  0  0
   -5.9060   25.3740  -30.6670 C   0  0  0  0  0  0  0  0  0  0  0  0
   -4.7290   24.6570  -30.4110 C   0  0  0  0  0  0  0  0  0  0  0  0
   -3.4860   25.2410  -30.6490 O   0  0  0  0  0  0  0  0  0  0  0  0
   -2.9490   21.8390  -30.6340 N   0  0  0  0  0  0  0  0  0  0  0  0
   -3.4900   21.8090  -32.0130 C   0  0  0  0  0  0  0  0  0  0  0  0
   -4.7840   21.0370  -32.0710 C   0  0  0  0  0  0  0  0  0  0  0  0
   -5.9410   21.6310  -32.5950 C   0  0  0  0  0  0  0  0  0  0  0  0
   -7.1350   20.9080  -32.6720 C   0  0  0  0  0  0  0  0  0  0  0  0
   -7.1880   19.5730  -32.2330 C   0  0  0  0  0  0  0  0  0  0  0  0
   -8.4870   18.8090  -32.2810 C   0  0  0  0  0  0  0  0  0  0  0  0
   -8.2380   17.5120  -32.6890 F   0  0  0  0  0  0  0  0  0  0  0  0
   -9.3730   19.3990  -33.1680 F   0  0  0  0  0  0  0  0  0  0  0  0
   -9.0810   18.7830  -31.0300 F   0  0  0  0  0  0  0  0  0  0  0  0
   -6.0400   18.9960  -31.6670 C   0  0  0  0  0  0  0  0  0  0  0  0
   -4.8470   19.7190  -31.5900 C   0  0  0  0  0  0  0  0  0  0  0  0
    1.0828   22.0298  -28.1882 H   0  0  0  0  0  0  0  0  0  0  0  0
    3.0927   20.7005  -27.5585 H   0  0  0  0  0  0  0  0  0  0  0  0
    4.1882   18.5342  -27.2514 H   0  0  0  0  0  0  0  0  0  0  0  0
    4.0995   16.0423  -27.3338 H   0  0  0  0  0  0  0  0  0  0  0  0
    2.0036   14.8840  -28.0307 H   0  0  0  0  0  0  0  0  0  0  0  0
   -0.0139   16.2106  -28.6613 H   0  0  0  0  0  0  0  0  0  0  0  0
   -1.1078   18.3741  -28.9728 H   0  0  0  0  0  0  0  0  0  0  0  0
   -1.6566   21.8400  -26.9938 H   0  0  0  0  0  0  0  0  0  0  0  0
   -6.1273   21.7626  -29.2179 H   0  0  0  0  0  0  0  0  0  0  0  0
   -8.2117   23.0485  -29.6883 H   0  0  0  0  0  0  0  0  0  0  0  0
   -8.0739   25.3592  -30.6218 H   0  0  0  0  0  0  0  0  0  0  0  0
   -5.8483   26.3962  -31.0693 H   0  0  0  0  0  0  0  0  0  0  0  0
   -3.1400   25.3880  -31.5900 H   0  0  0  0  0  0  0  0  0  0  0  0
   -3.6712   22.8401  -32.3505 H   0  0  0  0  0  0  0  0  0  0  0  0
   -2.7569   21.3123  -32.6655 H   0  0  0  0  0  0  0  0  0  0  0  0
   -5.9090   22.6724  -32.9477 H   0  0  0  0  0  0  0  0  0  0  0  0
   -8.0384   21.3862  -33.0784 H   0  0  0  0  0  0  0  0  0  0  0  0
   -6.0802   17.9667  -31.2812 H   0  0  0  0  0  0  0  0  0  0  0  0
   -3.9525   19.2536  -31.1504 H   0  0  0  0  0  0  0  0  0  0  0  0
  1  2  2  0
  2  3  1  0
  3  4  1  0
  4  5  2  0
  5  6  1  0
  6  7  2  0
  7  8  1  0
  8  9  2  0
  9 10  1  0
 10 11  2  0
 11 12  1  0
 12 13  2  0
  3 14  2  0
 14 15  1  0
 15 16  2  0
 16 17  1  0
 17 18  2  0
 18 19  1  0
 19 20  2  0
 20 21  1  0
 21 22  2  0
 22 23  1  0
 16 24  1  0
 24 25  1  0
 25 26  1  0
 26 27  2  0
 27 28  1  0
 28 29  2  0
 29 30  1  0
 30 31  1  0
 30 32  1  0
 30 33  1  0
 29 34  1  0
 34 35  2  0
 24  2  1  0
 35 26  1  0
 13  4  1  0
 22 17  1  0
 12  7  1  0
  5 36  1  0
  6 37  1  0
  8 38  1  0
  9 39  1  0
 10 40  1  0
 11 41  1  0
 13 42  1  0
 14 43  1  0
 18 44  1  0
 19 45  1  0
 20 46  1  0
 21 47  1  0
 23 48  1  0
 25 49  1  0
 25 50  1  0
 27 51  1  0
 28 52  1  0
 34 53  1  0
 35 54  1  0
M  END
>  <UniqueID>  (26) 
24

>  <SMILES>  (26) 
O=c1c(-c2ccc3ccccc3c2)cnc(-c2ccccc2O)n1Cc1ccc(C(F)(F)F)cc1

>  <Energy>  (26) 
81.4932376271047

>  <Genealogy>  (26) 
O=c1c(-c2ccc3ccccc3c2)cnc(-c2ccccc2O)n1Cc1ccc(C(F)(F)F)cc1 (3D coordinates assigned)
O=c1c(-c2ccc3ccccc3c2)cnc(-c2ccccc2O)n1Cc1ccc(C(F)(F)F)cc1 (optimized conformer: 81.4932376271047 kcal/mol)

>  <smiles>  (26) 
O=c1c(-c2ccc3ccccc3c2)cnc(-c2ccccc2O)n1Cc1ccc(C(F)(F)F)cc1

>  <score_type>  (26) 
oracle

>  <origin>  (26) 
adg

>  <m_score__min__energy>  (26) 
-10.26

>  <m_primary>  (26) 
energy

$$$$
28:0
     RDKit          3D

 37 40  0  0  0  0  0  0  0  0999 V2000
   -1.9260   16.6280  -32.8090 F   0  0  0  0  0  0  0  0  0  0  0  0
   -1.1540   17.0930  -33.8550 C   0  0  0  0  0  0  0  0  0  0  0  0
   -1.9140   17.0910  -35.0100 F   0  0  0  0  0  0  0  0  0  0  0  0
   -0.7200   18.4170  -33.5610 O   0  0  0  0  0  0  0  0  0  0  0  0
   -1.5570   19.4550  -33.1250 C   0  0  0  0  0  0  0  0  0  0  0  0
   -1.2310   20.1170  -31.9370 C   0  0  0  0  0  0  0  0  0  0  0  0
   -2.0290   21.1610  -31.4600 C   0  0  0  0  0  0  0  0  0  0  0  0
   -3.1700   21.5680  -32.1730 C   0  0  0  0  0  0  0  0  0  0  0  0
   -4.0360   22.6650  -31.6850 C   0  0  0  0  0  0  0  0  0  0  0  0
   -3.5710   23.8340  -31.1800 N   0  0  0  0  0  0  0  0  0  0  0  0
   -4.6190   24.5790  -30.8340 N   0  0  0  0  0  0  0  0  0  0  0  0
   -5.7070   23.8460  -31.1320 C   0  0  0  0  0  0  0  0  0  0  0  0
   -7.0410   24.1640  -30.9340 C   0  0  0  0  0  0  0  0  0  0  0  0
   -7.9690   23.2270  -31.2850 N   0  0  0  0  0  0  0  0  0  0  0  0
   -7.5910   22.0140  -31.8020 C   0  0  0  0  0  0  0  0  0  0  0  0
   -8.8290   20.8090  -32.2580 S   0  0  0  0  0  0  0  0  0  0  0  0
   -7.5950   19.5620  -32.6240 C   0  0  0  0  0  0  0  0  0  0  0  0
   -6.8540   19.6330  -33.8100 C   0  0  0  0  0  0  0  0  0  0  0  0
   -5.8850   18.6640  -34.0890 C   0  0  0  0  0  0  0  0  0  0  0  0
   -5.6570   17.6220  -33.1850 C   0  0  0  0  0  0  0  0  0  0  0  0
   -6.3980   17.5480  -32.0010 C   0  0  0  0  0  0  0  0  0  0  0  0
   -7.3670   18.5150  -31.7200 C   0  0  0  0  0  0  0  0  0  0  0  0
   -6.2680   21.7330  -31.9770 N   0  0  0  0  0  0  0  0  0  0  0  0
   -5.3800   22.6670  -31.6540 N   0  0  0  0  0  0  0  0  0  0  0  0
   -3.5050   20.8940  -33.3590 C   0  0  0  0  0  0  0  0  0  0  0  0
   -2.7060   19.8510  -33.8350 C   0  0  0  0  0  0  0  0  0  0  0  0
   -0.2752   16.4465  -33.9956 H   0  0  0  0  0  0  0  0  0  0  0  0
   -0.3374   19.8131  -31.3721 H   0  0  0  0  0  0  0  0  0  0  0  0
   -1.7623   21.6673  -30.5206 H   0  0  0  0  0  0  0  0  0  0  0  0
   -7.3404   25.1340  -30.5104 H   0  0  0  0  0  0  0  0  0  0  0  0
   -7.0342   20.4514  -34.5226 H   0  0  0  0  0  0  0  0  0  0  0  0
   -5.3020   18.7216  -35.0200 H   0  0  0  0  0  0  0  0  0  0  0  0
   -4.8946   16.8602  -33.4050 H   0  0  0  0  0  0  0  0  0  0  0  0
   -6.2179   16.7279  -31.2904 H   0  0  0  0  0  0  0  0  0  0  0  0
   -7.9508   18.4546  -30.7896 H   0  0  0  0  0  0  0  0  0  0  0  0
   -4.4047   21.1900  -33.9183 H   0  0  0  0  0  0  0  0  0  0  0  0
   -2.9764   19.3369  -34.7692 H   0  0  0  0  0  0  0  0  0  0  0  0
  1  2  1  0
  2  3  1  0
  2  4  1  0
  4  5  1  0
  5  6  2  0
  6  7  1  0
  7  8  2  0
  8  9  1  0
  9 10  2  0
 10 11  1  0
 11 12  2  0
 12 13  1  0
 13 14  2  0
 14 15  1  0
 15 16  1  0
 16 17  1  0
 17 18  2  0
 18 19  1  0
 19 20  2  0
 20 21  1  0
 21 22  2  0
 15 23  2  0
 23 24  1  0
  8 25  1  0
 25 26  2  0
 26  5  1  0
 24  9  1  0
 24 12  1  0
 22 17  1  0
  2 27  1  0
  6 28  1  0
  7 29  1  0
 13 30  1  0
 18 31  1  0
 19 32  1  0
 20 33  1  0
 21 34  1  0
 22 35  1  0
 25 36  1  0
 26 37  1  0
M  END
>  <UniqueID>  (27) 
25

>  <SMILES>  (27) 
FC(F)Oc1ccc(-c2nnc3cnc(Sc4ccccc4)nn23)cc1

>  <Energy>  (27) 
85.16755538245899

>  <Genealogy>  (27) 
FC(F)Oc1ccc(-c2nnc3cnc(Sc4ccccc4)nn23)cc1 (3D coordinates assigned)
FC(F)Oc1ccc(-c2nnc3cnc(Sc4ccccc4)nn23)cc1 (optimized conformer: 85.16755538245899 kcal/mol)

>  <smiles>  (27) 
FC(F)Oc1ccc(-c2nnc3cnc(Sc4ccccc4)nn23)cc1

>  <score_type>  (27) 
oracle

>  <origin>  (27) 
adg

>  <m_score__min__energy>  (27) 
-9.0199999999999996

>  <m_primary>  (27) 
energy

$$$$
29:0
     RDKit          3D

 46 48  0  0  0  0  0  0  0  0999 V2000
   -8.5290   19.3670  -31.2310 C   0  0  0  0  0  0  0  0  0  0  0  0
   -7.5590   18.9110  -32.2850 C   0  0  0  0  0  0  0  0  0  0  0  0
   -7.5990   17.5810  -32.7350 C   0  0  0  0  0  0  0  0  0  0  0  0
   -6.6930   17.1300  -33.7020 C   0  0  0  0  0  0  0  0  0  0  0  0
   -5.7370   18.0020  -34.2250 C   0  0  0  0  0  0  0  0  0  0  0  0
   -5.6740   19.3230  -33.7730 C   0  0  0  0  0  0  0  0  0  0  0  0
   -6.5680   19.7810  -32.7960 C   0  0  0  0  0  0  0  0  0  0  0  0
   -6.4430   21.1300  -32.3250 N   0  0  0  0  0  0  0  0  0  0  0  0
   -5.2170   21.5600  -31.6600 C   0  0  0  0  0  0  0  0  0  0  0  0
   -4.8640   22.9860  -32.0910 C   0  0  0  0  0  0  0  0  0  0  0  0
   -6.0170   23.9090  -32.0230 N   0  0  0  0  0  0  0  0  0  0  0  0
   -6.1670   24.6800  -30.7680 C   0  0  0  0  0  0  0  0  0  0  0  0
   -4.9030   24.7740  -29.9630 C   0  0  0  0  0  0  0  0  0  0  0  0
   -3.8720   25.2820  -30.4820 O   0  0  0  0  0  0  0  0  0  0  0  0
   -4.8710   24.3050  -28.6110 N   0  0  0  0  0  0  0  0  0  0  0  0
   -3.6190   24.2240  -27.8600 C   0  0  0  0  0  0  0  0  0  0  0  0
   -2.6550   23.3090  -28.5470 C   0  0  0  0  0  0  0  0  0  0  0  0
   -2.8480   21.9540  -28.7760 C   0  0  0  0  0  0  0  0  0  0  0  0
   -1.8200   21.3730  -29.5270 C   0  0  0  0  0  0  0  0  0  0  0  0
   -0.8300   22.2710  -29.9050 C   0  0  0  0  0  0  0  0  0  0  0  0
   -1.2290   23.7870  -29.3060 S   0  0  0  0  0  0  0  0  0  0  0  0
   -7.2620   23.4200  -32.6540 C   0  0  0  0  0  0  0  0  0  0  0  0
   -7.6220   21.9880  -32.2450 C   0  0  0  0  0  0  0  0  0  0  0  0
   -8.1075   19.1689  -30.2345 H   0  0  0  0  0  0  0  0  0  0  0  0
   -8.7125   20.4457  -31.3436 H   0  0  0  0  0  0  0  0  0  0  0  0
   -9.4767   18.8201  -31.3436 H   0  0  0  0  0  0  0  0  0  0  0  0
   -8.3483   16.8883  -32.3242 H   0  0  0  0  0  0  0  0  0  0  0  0
   -6.7345   16.0873  -34.0500 H   0  0  0  0  0  0  0  0  0  0  0  0
   -5.0329   17.6495  -34.9931 H   0  0  0  0  0  0  0  0  0  0  0  0
   -4.9183   20.0071  -34.1865 H   0  0  0  0  0  0  0  0  0  0  0  0
   -5.3647   21.5342  -30.5703 H   0  0  0  0  0  0  0  0  0  0  0  0
   -4.3963   20.8831  -31.9398 H   0  0  0  0  0  0  0  0  0  0  0  0
   -4.0706   23.3661  -31.4307 H   0  0  0  0  0  0  0  0  0  0  0  0
   -4.5370   22.9426  -33.1404 H   0  0  0  0  0  0  0  0  0  0  0  0
   -6.4928   25.6992  -31.0233 H   0  0  0  0  0  0  0  0  0  0  0  0
   -6.9036   24.1468  -30.1490 H   0  0  0  0  0  0  0  0  0  0  0  0
   -5.7670   23.9990  -28.1660 H   0  0  0  0  0  0  0  0  0  0  0  0
   -3.1755   25.2279  -27.7861 H   0  0  0  0  0  0  0  0  0  0  0  0
   -3.8312   23.8287  -26.8557 H   0  0  0  0  0  0  0  0  0  0  0  0
   -3.7194   21.3942  -28.4053 H   0  0  0  0  0  0  0  0  0  0  0  0
   -1.7980   20.3058  -29.7929 H   0  0  0  0  0  0  0  0  0  0  0  0
    0.0649   22.0292  -30.4972 H   0  0  0  0  0  0  0  0  0  0  0  0
   -8.0874   24.0855  -32.3612 H   0  0  0  0  0  0  0  0  0  0  0  0
   -7.0993   23.4188  -33.7419 H   0  0  0  0  0  0  0  0  0  0  0  0
   -8.0012   21.9893  -31.2124 H   0  0  0  0  0  0  0  0  0  0  0  0
   -8.3937   21.6027  -32.9276 H   0  0  0  0  0  0  0  0  0  0  0  0
  1  2  1  0
  2  3  2  0
  3  4  1  0
  4  5  2  0
  5  6  1  0
  6  7  2  0
  7  8  1  0
  8  9  1  0
  9 10  1  0
 10 11  1  0
 11 12  1  0
 12 13  1  0
 13 14  2  0
 13 15  1  0
 15 16  1  0
 16 17  1  0
 17 18  2  0
 18 19  1  0
 19 20  2  0
 20 21  1  0
 11 22  1  0
 22 23  1  0
  7  2  1  0
 23  8  1  0
 21 17  1  0
  1 24  1  0
  1 25  1  0
  1 26  1  0
  3 27  1  0
  4 28  1  0
  5 29  1  0
  6 30  1  0
  9 31  1  0
  9 32  1  0
 10 33  1  0
 10 34  1  0
 12 35  1  0
 12 36  1  0
 15 37  1  0
 16 38  1  0
 16 39  1  0
 18 40  1  0
 19 41  1  0
 20 42  1  0
 22 43  1  0
 22 44  1  0
 23 45  1  0
 23 46  1  0
M  END
>  <UniqueID>  (28) 
26

>  <SMILES>  (28) 
Cc1ccccc1N1CCN(CC(=O)NCc2cccs2)CC1

>  <Energy>  (28) 
80.85799776209238

>  <Genealogy>  (28) 
Cc1ccccc1N1CCN(CC(=O)NCc2cccs2)CC1 (3D coordinates assigned)
Cc1ccccc1N1CCN(CC(=O)NCc2cccs2)CC1 (nonaromatic ring conformer: 80.85799776209238 kcal/mol)

>  <smiles>  (28) 
Cc1ccccc1N1CCN(CC(=O)NCc2cccs2)CC1

>  <score_type>  (28) 
oracle

>  <origin>  (28) 
adg

>  <m_score__min__energy>  (28) 
-9.0800000000000001

>  <m_primary>  (28) 
energy

$$$$
30:0
     RDKit          3D

 51 54  0  0  0  0  0  0  0  0999 V2000
   -8.3060   19.3840  -31.8720 C   0  0  0  0  0  0  0  0  0  0  0  0
   -8.8020   20.7770  -32.2390 C   0  0  0  0  0  0  0  0  0  0  0  0
   -7.9080   21.8370  -31.6500 C   0  0  0  0  0  0  0  0  0  0  0  0
   -7.8810   22.0510  -30.2640 C   0  0  0  0  0  0  0  0  0  0  0  0
   -7.0390   23.0250  -29.7180 C   0  0  0  0  0  0  0  0  0  0  0  0
   -6.2300   23.8070  -30.5540 C   0  0  0  0  0  0  0  0  0  0  0  0
   -5.1580   25.0340  -29.8820 S   0  0  0  0  0  0  0  0  0  0  0  0
   -5.1500   24.8930  -28.3860 O   0  0  0  0  0  0  0  0  0  0  0  0
   -5.6530   26.4110  -30.2310 O   0  0  0  0  0  0  0  0  0  0  0  0
   -3.5360   24.8190  -30.4800 N   0  0  0  0  0  0  0  0  0  0  0  0
   -3.2890   23.4270  -30.8600 C   0  0  0  0  0  0  0  0  0  0  0  0
   -2.8590   22.6200  -29.6690 C   0  0  0  0  0  0  0  0  0  0  0  0
   -3.4770   21.4570  -29.3350 N   0  0  0  0  0  0  0  0  0  0  0  0
   -2.8110   21.0610  -28.2380 C   0  0  0  0  0  0  0  0  0  0  0  0
   -3.0480   19.9230  -27.4700 C   0  0  0  0  0  0  0  0  0  0  0  0
   -2.2440   19.7190  -26.3350 C   0  0  0  0  0  0  0  0  0  0  0  0
   -1.2320   20.6460  -26.0000 C   0  0  0  0  0  0  0  0  0  0  0  0
   -1.0100   21.7810  -26.8020 C   0  0  0  0  0  0  0  0  0  0  0  0
   -1.8290   21.9550  -27.9230 C   0  0  0  0  0  0  0  0  0  0  0  0
   -1.8400   22.9520  -28.8260 N   0  0  0  0  0  0  0  0  0  0  0  0
   -1.0010   24.1560  -28.8450 C   0  0  0  0  0  0  0  0  0  0  0  0
   -1.2210   24.9730  -27.5990 C   0  0  0  0  0  0  0  0  0  0  0  0
   -2.4350   24.8890  -26.8940 C   0  0  0  0  0  0  0  0  0  0  0  0
   -2.6300   25.6450  -25.7330 C   0  0  0  0  0  0  0  0  0  0  0  0
   -1.6200   26.4910  -25.2700 C   0  0  0  0  0  0  0  0  0  0  0  0
   -0.4130   26.5870  -25.9680 C   0  0  0  0  0  0  0  0  0  0  0  0
   -0.2140   25.8340  -27.1300 C   0  0  0  0  0  0  0  0  0  0  0  0
   -6.2750   23.6110  -31.9390 C   0  0  0  0  0  0  0  0  0  0  0  0
   -7.1140   22.6380  -32.4860 C   0  0  0  0  0  0  0  0  0  0  0  0
   -8.2704   19.2841  -30.7771 H   0  0  0  0  0  0  0  0  0  0  0  0
   -8.9908   18.6298  -32.2870 H   0  0  0  0  0  0  0  0  0  0  0  0
   -7.2986   19.2323  -32.2870 H   0  0  0  0  0  0  0  0  0  0  0  0
   -8.8098   20.8799  -33.3342 H   0  0  0  0  0  0  0  0  0  0  0  0
   -9.8165   20.9074  -31.8343 H   0  0  0  0  0  0  0  0  0  0  0  0
   -8.5245   21.4505  -29.6042 H   0  0  0  0  0  0  0  0  0  0  0  0
   -7.0115   23.1779  -28.6290 H   0  0  0  0  0  0  0  0  0  0  0  0
   -4.2128   22.9962  -31.2736 H   0  0  0  0  0  0  0  0  0  0  0  0
   -2.4866   23.4028  -31.6120 H   0  0  0  0  0  0  0  0  0  0  0  0
   -3.8380   19.2078  -27.7427 H   0  0  0  0  0  0  0  0  0  0  0  0
   -2.4038   18.8323  -25.7040 H   0  0  0  0  0  0  0  0  0  0  0  0
   -0.6131   20.4795  -25.1060 H   0  0  0  0  0  0  0  0  0  0  0  0
   -0.2201   22.5060  -26.5561 H   0  0  0  0  0  0  0  0  0  0  0  0
    0.0567   23.8591  -28.9010 H   0  0  0  0  0  0  0  0  0  0  0  0
   -1.2715   24.7639  -29.7209 H   0  0  0  0  0  0  0  0  0  0  0  0
   -3.2344   24.2262  -27.2568 H   0  0  0  0  0  0  0  0  0  0  0  0
   -3.5805   25.5729  -25.1840 H   0  0  0  0  0  0  0  0  0  0  0  0
   -1.7745   27.0822  -24.3553 H   0  0  0  0  0  0  0  0  0  0  0  0
    0.3811   27.2552  -25.6034 H   0  0  0  0  0  0  0  0  0  0  0  0
    0.7354   25.9162  -27.6794 H   0  0  0  0  0  0  0  0  0  0  0  0
   -5.6466   24.2263  -32.5997 H   0  0  0  0  0  0  0  0  0  0  0  0
   -7.1530   22.4985  -33.5764 H   0  0  0  0  0  0  0  0  0  0  0  0
  1  2  1  0
  2  3  1  0
  3  4  2  0
  4  5  1  0
  5  6  2  0
  6  7  1  0
  7  8  2  0
  7  9  2  0
  7 10  1  0
 10 11  1  0
 11 12  1  0
 12 13  2  0
 13 14  1  0
 14 15  2  0
 15 16  1  0
 16 17  2  0
 17 18  1  0
 18 19  2  0
 19 20  1  0
 20 21  1  0
 21 22  1  0
 22 23  2  0
 23 24  1  0
 24 25  2  0
 25 26  1  0
 26 27  2  0
  6 28  1  0
 28 29  2  0
 29  3  1  0
 20 12  1  0
 27 22  1  0
 19 14  1  0
  1 30  1  0
  1 31  1  0
  1 32  1  0
  2 33  1  0
  2 34  1  0
  4 35  1  0
  5 36  1  0
 11 37  1  0
 11 38  1  0
 15 39  1  0
 16 40  1  0
 17 41  1  0
 18 42  1  0
 21 43  1  0
 21 44  1  0
 23 45  1  0
 24 46  1  0
 25 47  1  0
 26 48  1  0
 27 49  1  0
 28 50  1  0
 29 51  1  0
M  CHG  1  10  -1
M  END
>  <UniqueID>  (29) 
27

>  <SMILES>  (29) 
CCc1ccc(S(=O)(=O)[N-]Cc2nc3ccccc3n2Cc2ccccc2)cc1

>  <Energy>  (29) 
80.81677990894927

>  <Genealogy>  (29) 
CCc1ccc(S(=O)(=O)[N-]Cc2nc3ccccc3n2Cc2ccccc2)cc1 (protonated)
CCc1ccc(S(=O)(=O)[N-]Cc2nc3ccccc3n2Cc2ccccc2)cc1 (3D coordinates assigned)
CCc1ccc(S(=O)(=O)[N-]Cc2nc3ccccc3n2Cc2ccccc2)cc1 (optimized conformer: 80.81677990894927 kcal/mol)

>  <smiles>  (29) 
CCc1ccc(S(=O)(=O)NCc2nc3ccccc3n2Cc2ccccc2)cc1

>  <score_type>  (29) 
oracle

>  <origin>  (29) 
adg

>  <m_score__min__energy>  (29) 
-11.140000000000001

>  <m_primary>  (29) 
energy

$$$$
31:0
     RDKit          3D

 38 40  0  0  0  0  0  0  0  0999 V2000
    2.3200   24.9300  -27.6450 C   0  0  0  0  0  0  0  0  0  0  0  0
    0.9130   24.9290  -27.8690 O   0  0  0  0  0  0  0  0  0  0  0  0
   -0.0380   25.4140  -26.9550 C   0  0  0  0  0  0  0  0  0  0  0  0
    0.3360   26.1840  -25.8350 C   0  0  0  0  0  0  0  0  0  0  0  0
   -0.6330   26.6600  -24.9490 C   0  0  0  0  0  0  0  0  0  0  0  0
   -1.9810   26.3760  -25.1660 C   0  0  0  0  0  0  0  0  0  0  0  0
   -2.3660   25.6130  -26.2690 C   0  0  0  0  0  0  0  0  0  0  0  0
   -1.4030   25.1260  -27.1720 C   0  0  0  0  0  0  0  0  0  0  0  0
   -1.8360   24.2870  -28.3450 C   0  0  0  0  0  0  0  0  0  0  0  0
   -2.4900   25.1270  -29.3420 N   0  0  0  0  0  0  0  0  0  0  0  0
   -3.6740   24.7750  -30.0690 C   0  0  0  0  0  0  0  0  0  0  0  0
   -4.2410   25.6580  -30.7640 O   0  0  0  0  0  0  0  0  0  0  0  0
   -4.2690   23.3950  -30.0260 C   0  0  0  0  0  0  0  0  0  0  0  0
   -3.8090   22.4440  -31.5140 S   0  0  0  0  0  0  0  0  0  0  0  0
   -5.4530   21.7910  -31.7870 C   0  0  0  0  0  0  0  0  0  0  0  0
   -6.5800   22.5280  -31.6010 N   0  0  0  0  0  0  0  0  0  0  0  0
   -7.5410   21.6440  -31.9160 C   0  0  0  0  0  0  0  0  0  0  0  0
   -8.9200   21.8350  -31.8970 C   0  0  0  0  0  0  0  0  0  0  0  0
   -9.7360   20.7490  -32.2680 C   0  0  0  0  0  0  0  0  0  0  0  0
   -9.1550   19.5150  -32.6470 C   0  0  0  0  0  0  0  0  0  0  0  0
   -7.7560   19.3590  -32.6570 C   0  0  0  0  0  0  0  0  0  0  0  0
   -6.9850   20.4530  -32.2750 C   0  0  0  0  0  0  0  0  0  0  0  0
   -5.6860   20.5530  -32.1890 O   0  0  0  0  0  0  0  0  0  0  0  0
    2.5190   24.9301  -26.5632 H   0  0  0  0  0  0  0  0  0  0  0  0
    2.7643   24.0322  -28.0994 H   0  0  0  0  0  0  0  0  0  0  0  0
    2.7630   25.8285  -28.0994 H   0  0  0  0  0  0  0  0  0  0  0  0
    1.3976   26.4113  -25.6578 H   0  0  0  0  0  0  0  0  0  0  0  0
   -0.3322   27.2604  -24.0778 H   0  0  0  0  0  0  0  0  0  0  0  0
   -2.7416   26.7539  -24.4669 H   0  0  0  0  0  0  0  0  0  0  0  0
   -3.4306   25.3905  -26.4339 H   0  0  0  0  0  0  0  0  0  0  0  0
   -0.9547   23.8063  -28.7946 H   0  0  0  0  0  0  0  0  0  0  0  0
   -2.5430   23.5185  -27.9991 H   0  0  0  0  0  0  0  0  0  0  0  0
   -3.8979   22.8700  -29.1335 H   0  0  0  0  0  0  0  0  0  0  0  0
   -5.3647   23.4846  -29.9897 H   0  0  0  0  0  0  0  0  0  0  0  0
   -9.3568   22.8006  -31.6024 H   0  0  0  0  0  0  0  0  0  0  0  0
  -10.8304   20.8601  -32.2633 H   0  0  0  0  0  0  0  0  0  0  0  0
   -9.8009   18.6726  -32.9355 H   0  0  0  0  0  0  0  0  0  0  0  0
   -7.2898   18.4084  -32.9554 H   0  0  0  0  0  0  0  0  0  0  0  0
  1  2  1  0
  2  3  1  0
  3  4  2  0
  4  5  1  0
  5  6  2  0
  6  7  1  0
  7  8  2  0
  8  9  1  0
  9 10  1  0
 10 11  1  0
 11 12  2  0
 11 13  1  0
 13 14  1  0
 14 15  1  0
 15 16  2  0
 16 17  1  0
 17 18  2  0
 18 19  1  0
 19 20  2  0
 20 21  1  0
 21 22  2  0
 22 23  1  0
  8  3  1  0
 23 15  1  0
 22 17  1  0
  1 24  1  0
  1 25  1  0
  1 26  1  0
  4 27  1  0
  5 28  1  0
  6 29  1  0
  7 30  1  0
  9 31  1  0
  9 32  1  0
 13 33  1  0
 13 34  1  0
 18 35  1  0
 19 36  1  0
 20 37  1  0
 21 38  1  0
M  CHG  1  10  -1
M  END
>  <UniqueID>  (30) 
28

>  <SMILES>  (30) 
COc1ccccc1C[N-]C(=O)CSc1nc2ccccc2o1

>  <Energy>  (30) 
68.94076500231499

>  <Genealogy>  (30) 
COc1ccccc1C[N-]C(=O)CSc1nc2ccccc2o1 (protonated)
COc1ccccc1C[N-]C(=O)CSc1nc2ccccc2o1 (3D coordinates assigned)
COc1ccccc1C[N-]C(=O)CSc1nc2ccccc2o1 (optimized conformer: 68.94076500231499 kcal/mol)

>  <smiles>  (30) 
COc1ccccc1CNC(=O)CSc1nc2ccccc2o1

>  <score_type>  (30) 
oracle

>  <origin>  (30) 
adg

>  <m_score__min__energy>  (30) 
-10.02

>  <m_primary>  (30) 
energy

$$$$
32:0
     RDKit          3D

 47 49  0  0  0  0  0  0  0  0999 V2000
   -9.1320   19.4590  -32.2590 C   0  0  0  0  0  0  0  0  0  0  0  0
   -8.2390   20.6650  -32.1240 C   0  0  0  0  0  0  0  0  0  0  0  0
   -8.7350   21.8240  -31.5050 C   0  0  0  0  0  0  0  0  0  0  0  0
   -7.9300   22.9550  -31.3650 C   0  0  0  0  0  0  0  0  0  0  0  0
   -6.6090   22.9500  -31.8340 C   0  0  0  0  0  0  0  0  0  0  0  0
   -5.7350   24.1800  -31.6800 C   0  0  0  0  0  0  0  0  0  0  0  0
   -4.6450   24.0260  -30.6910 N   0  0  0  0  0  0  0  0  0  0  0  0
   -5.1210   23.7870  -29.3190 C   0  0  0  0  0  0  0  0  0  0  0  0
   -3.9860   24.1040  -28.3390 C   0  0  0  0  0  0  0  0  0  0  0  0
   -2.6880   23.6820  -28.8880 N   0  0  0  0  0  0  0  0  0  0  0  0
   -1.4760   24.3460  -28.4810 C   0  0  0  0  0  0  0  0  0  0  0  0
   -0.5840   24.5940  -29.3390 O   0  0  0  0  0  0  0  0  0  0  0  0
   -1.2590   24.7640  -27.0790 C   0  0  0  0  0  0  0  0  0  0  0  0
   -0.6670   23.8770  -26.1610 C   0  0  0  0  0  0  0  0  0  0  0  0
   -0.4710   24.2640  -24.8310 C   0  0  0  0  0  0  0  0  0  0  0  0
   -0.8740   25.5320  -24.4040 C   0  0  0  0  0  0  0  0  0  0  0  0
   -1.4790   26.4130  -25.3040 C   0  0  0  0  0  0  0  0  0  0  0  0
   -1.6770   26.0300  -26.6340 C   0  0  0  0  0  0  0  0  0  0  0  0
   -2.6580   22.6720  -29.9520 C   0  0  0  0  0  0  0  0  0  0  0  0
   -3.6080   23.0540  -31.1080 C   0  0  0  0  0  0  0  0  0  0  0  0
   -6.1140   21.8020  -32.4710 C   0  0  0  0  0  0  0  0  0  0  0  0
   -6.9130   20.6560  -32.6180 C   0  0  0  0  0  0  0  0  0  0  0  0
   -6.3420   19.4390  -33.2980 C   0  0  0  0  0  0  0  0  0  0  0  0
   -9.4046   19.0908  -31.2589 H   0  0  0  0  0  0  0  0  0  0  0  0
  -10.0435   19.7373  -32.8083 H   0  0  0  0  0  0  0  0  0  0  0  0
   -8.5999   18.6684  -32.8083 H   0  0  0  0  0  0  0  0  0  0  0  0
   -9.7679   21.8403  -31.1270 H   0  0  0  0  0  0  0  0  0  0  0  0
   -8.3349   23.8571  -30.8831 H   0  0  0  0  0  0  0  0  0  0  0  0
   -5.2850   24.4087  -32.6573 H   0  0  0  0  0  0  0  0  0  0  0  0
   -6.3853   24.9875  -31.3126 H   0  0  0  0  0  0  0  0  0  0  0  0
   -5.9832   24.4369  -29.1085 H   0  0  0  0  0  0  0  0  0  0  0  0
   -5.4276   22.7364  -29.2079 H   0  0  0  0  0  0  0  0  0  0  0  0
   -3.9632   25.1878  -28.1521 H   0  0  0  0  0  0  0  0  0  0  0  0
   -4.1667   23.5573  -27.4018 H   0  0  0  0  0  0  0  0  0  0  0  0
   -0.3568   22.8745  -26.4907 H   0  0  0  0  0  0  0  0  0  0  0  0
    0.0009   23.5693  -24.1206 H   0  0  0  0  0  0  0  0  0  0  0  0
   -0.7149   25.8367  -23.3591 H   0  0  0  0  0  0  0  0  0  0  0  0
   -1.8000   27.4093  -24.9657 H   0  0  0  0  0  0  0  0  0  0  0  0
   -2.1627   26.7235  -27.3362 H   0  0  0  0  0  0  0  0  0  0  0  0
   -1.6325   22.5909  -30.3416 H   0  0  0  0  0  0  0  0  0  0  0  0
   -2.9887   21.7111  -29.5310 H   0  0  0  0  0  0  0  0  0  0  0  0
   -3.0143   23.4981  -31.9206 H   0  0  0  0  0  0  0  0  0  0  0  0
   -4.1207   22.1379  -31.4365 H   0  0  0  0  0  0  0  0  0  0  0  0
   -5.0854   21.7993  -32.8609 H   0  0  0  0  0  0  0  0  0  0  0  0
   -6.0042   18.7190  -32.5381 H   0  0  0  0  0  0  0  0  0  0  0  0
   -7.1155   18.9732  -33.9262 H   0  0  0  0  0  0  0  0  0  0  0  0
   -5.4893   19.7362  -33.9262 H   0  0  0  0  0  0  0  0  0  0  0  0
  1  2  1  0
  2  3  2  0
  3  4  1  0
  4  5  2  0
  5  6  1  0
  6  7  1  0
  7  8  1  0
  8  9  1  0
  9 10  1  0
 10 11  1  0
 11 12  2  0
 11 13  1  0
 13 14  2  0
 14 15  1  0
 15 16  2  0
 16 17  1  0
 17 18  2  0
 10 19  1  0
 19 20  1  0
  5 21  1  0
 21 22  2  0
 22 23  1  0
 22  2  1  0
 20  7  1  0
 18 13  1  0
  1 24  1  0
  1 25  1  0
  1 26  1  0
  3 27  1  0
  4 28  1  0
  6 29  1  0
  6 30  1  0
  8 31  1  0
  8 32  1  0
  9 33  1  0
  9 34  1  0
 14 35  1  0
 15 36  1  0
 16 37  1  0
 17 38  1  0
 18 39  1  0
 19 40  1  0
 19 41  1  0
 20 42  1  0
 20 43  1  0
 21 44  1  0
 23 45  1  0
 23 46  1  0
 23 47  1  0
M  END
>  <UniqueID>  (31) 
29

>  <SMILES>  (31) 
Cc1ccc(CN2CCN(C(=O)c3ccccc3)CC2)cc1C

>  <Energy>  (31) 
62.23937413325015

>  <Genealogy>  (31) 
Cc1ccc(CN2CCN(C(=O)c3ccccc3)CC2)cc1C (3D coordinates assigned)
Cc1ccc(CN2CCN(C(=O)c3ccccc3)CC2)cc1C (nonaromatic ring conformer: 62.23937413325015 kcal/mol)

>  <smiles>  (31) 
Cc1ccc(CN2CCN(C(=O)c3ccccc3)CC2)cc1C

>  <score_type>  (31) 
oracle

>  <origin>  (31) 
adg

>  <m_score__min__energy>  (31) 
-9.0999999999999996

>  <m_primary>  (31) 
energy

$$$$
33:0
     RDKit          3D

 47 50  0  0  0  0  0  0  0  0999 V2000
   -7.4170   23.7670  -33.0870 O   0  0  0  0  0  0  0  0  0  0  0  0
   -7.0740   22.9170  -32.2190 C   0  0  0  0  0  0  0  0  0  0  0  0
   -7.7450   21.5590  -32.2560 C   0  0  2  0  0  0  0  0  0  0  0  0
   -8.6980   21.2860  -31.0730 C   0  0  0  0  0  0  0  0  0  0  0  0
   -9.4880   20.1180  -31.2560 O   0  0  0  0  0  0  0  0  0  0  0  0
   -8.8330   19.0710  -31.9700 C   0  0  0  0  0  0  0  0  0  0  0  0
   -7.2890   19.0850  -31.8590 C   0  0  1  0  0  0  0  0  0  0  0  0
   -6.6380   18.0270  -32.7410 C   0  0  0  0  0  0  0  0  0  0  0  0
   -6.3220   18.6630  -34.0250 N   0  0  0  0  0  0  0  0  0  0  0  0
   -5.1540   18.0240  -34.6840 C   0  0  0  0  0  0  0  0  0  0  0  0
   -4.8040   16.6090  -34.2100 C   0  0  0  0  0  0  0  0  0  0  0  0
   -3.4520   17.1190  -33.7210 C   0  0  0  0  0  0  0  0  0  0  0  0
   -3.7970   18.5280  -34.1930 C   0  0  0  0  0  0  0  0  0  0  0  0
   -6.2670   20.1220  -33.8090 C   0  0  0  0  0  0  0  0  0  0  0  0
   -6.7170   20.4060  -32.3690 C   0  0  1  0  0  0  0  0  0  0  0  0
   -6.0960   23.2920  -31.2300 N   0  0  0  0  0  0  0  0  0  0  0  0
   -6.2480   24.5780  -30.5410 C   0  0  0  0  0  0  0  0  0  0  0  0
   -4.9600   24.9400  -29.8040 C   0  0  0  0  0  0  0  0  0  0  0  0
   -3.8610   24.6860  -30.6510 O   0  0  0  0  0  0  0  0  0  0  0  0
   -3.6430   23.2910  -30.7910 C   0  0  0  0  0  0  0  0  0  0  0  0
   -4.9360   22.4460  -30.9180 C   0  0  0  0  0  0  0  0  0  0  0  0
   -8.3641   21.5907  -33.1647 H   0  0  0  0  0  0  0  0  0  0  0  0
   -8.0973   21.1637  -30.1596 H   0  0  0  0  0  0  0  0  0  0  0  0
   -9.3859   22.1412  -30.9996 H   0  0  0  0  0  0  0  0  0  0  0  0
   -9.1966   18.1092  -31.5792 H   0  0  0  0  0  0  0  0  0  0  0  0
   -9.0711   19.2216  -33.0333 H   0  0  0  0  0  0  0  0  0  0  0  0
   -7.0774   18.9103  -30.7938 H   0  0  0  0  0  0  0  0  0  0  0  0
   -5.7167   17.6571  -32.2674 H   0  0  0  0  0  0  0  0  0  0  0  0
   -7.3141   17.1715  -32.8863 H   0  0  0  0  0  0  0  0  0  0  0  0
   -5.4736   18.1822  -35.7246 H   0  0  0  0  0  0  0  0  0  0  0  0
   -5.4571   16.2267  -33.4116 H   0  0  0  0  0  0  0  0  0  0  0  0
   -4.8643   15.7555  -34.9013 H   0  0  0  0  0  0  0  0  0  0  0  0
   -3.3090   17.0343  -32.6336 H   0  0  0  0  0  0  0  0  0  0  0  0
   -2.5240   16.6351  -34.0597 H   0  0  0  0  0  0  0  0  0  0  0  0
   -3.8586   19.2711  -33.3843 H   0  0  0  0  0  0  0  0  0  0  0  0
   -3.1231   19.0706  -34.8723 H   0  0  0  0  0  0  0  0  0  0  0  0
   -5.2383   20.4826  -33.9566 H   0  0  0  0  0  0  0  0  0  0  0  0
   -6.9243   20.6390  -34.5236 H   0  0  0  0  0  0  0  0  0  0  0  0
   -5.8674   20.7544  -31.7634 H   0  0  0  0  0  0  0  0  0  0  0  0
   -6.4757   25.3607  -31.2796 H   0  0  0  0  0  0  0  0  0  0  0  0
   -7.0674   24.4984  -29.8115 H   0  0  0  0  0  0  0  0  0  0  0  0
   -4.9776   26.0056  -29.5318 H   0  0  0  0  0  0  0  0  0  0  0  0
   -4.8723   24.3358  -28.8890 H   0  0  0  0  0  0  0  0  0  0  0  0
   -3.0360   23.1274  -31.6937 H   0  0  0  0  0  0  0  0  0  0  0  0
   -3.1428   22.9593  -29.8691 H   0  0  0  0  0  0  0  0  0  0  0  0
   -4.8041   21.7073  -31.7223 H   0  0  0  0  0  0  0  0  0  0  0  0
   -5.1197   21.9444  -29.9564 H   0  0  0  0  0  0  0  0  0  0  0  0
  1  2  2  0
  2  3  1  0
  3  4  1  0
  4  5  1  0
  5  6  1  0
  6  7  1  0
  7  8  1  0
  8  9  1  0
  9 10  1  0
 10 11  1  0
 11 12  1  0
 12 13  1  0
  9 14  1  0
 14 15  1  0
  2 16  1  0
 16 17  1  0
 17 18  1  0
 18 19  1  0
 19 20  1  0
 20 21  1  0
 15  3  1  0
 21 16  1  0
 15  7  1  0
 13 10  1  0
  3 22  1  6
  4 23  1  0
  4 24  1  0
  6 25  1  0
  6 26  1  0
  7 27  1  1
  8 28  1  0
  8 29  1  0
 10 30  1  0
 11 31  1  0
 11 32  1  0
 12 33  1  0
 12 34  1  0
 13 35  1  0
 13 36  1  0
 14 37  1  0
 14 38  1  0
 15 39  1  1
 17 40  1  0
 17 41  1  0
 18 42  1  0
 18 43  1  0
 20 44  1  0
 20 45  1  0
 21 46  1  0
 21 47  1  0
M  END
>  <UniqueID>  (32) 
30

>  <SMILES>  (32) 
O=C([C@@H]1COC[C@H]2CN(C3CCC3)CC21)N1CCOCC1

>  <Energy>  (32) 
139.6690545812763

>  <Genealogy>  (32) 
O=C([C@@H]1COC[C@H]2CN(C3CCC3)CC21)N1CCOCC1 (chirality)
O=C([C@@H]1COC[C@H]2CN(C3CCC3)CC21)N1CCOCC1 (3D coordinates assigned)
O=C([C@@H]1COC[C@H]2CN(C3CCC3)CC21)N1CCOCC1 (nonaromatic ring conformer: 139.6690545812763 kcal/mol)

>  <smiles>  (32) 
O=C(C1COCC2CN(C3CCC3)CC21)N1CCOCC1

>  <score_type>  (32) 
oracle

>  <origin>  (32) 
adg

>  <m_score__min__energy>  (32) 
-8.7400000000000002

>  <m_primary>  (32) 
energy

$$$$
34:0
     RDKit          3D

 38 39  0  0  0  0  0  0  0  0999 V2000
   -3.5280   25.2410  -30.4550 O   0  0  0  0  0  0  0  0  0  0  0  0
   -4.3890   24.3340  -30.3010 C   0  0  0  0  0  0  0  0  0  0  0  0
   -4.3650   23.5080  -29.0420 C   0  0  0  0  0  0  0  0  0  0  0  0
   -3.0060   22.9880  -28.7930 N   0  0  0  0  0  0  0  0  0  0  0  0
   -2.9520   22.3200  -27.4720 C   0  0  0  0  0  0  0  0  0  0  0  0
   -1.5670   22.3830  -26.8000 C   0  0  0  0  0  0  0  0  0  0  0  0
   -0.4340   22.8610  -27.7260 C   0  0  0  0  0  0  0  0  0  0  0  0
   -0.1470   21.9620  -28.9490 C   0  0  0  0  0  0  0  0  0  0  0  0
   -1.0430   22.2380  -30.1720 C   0  0  0  0  0  0  0  0  0  0  0  0
   -2.5610   22.0960  -29.8910 C   0  0  0  0  0  0  0  0  0  0  0  0
   -5.3300   24.0890  -31.3530 N   0  0  0  0  0  0  0  0  0  0  0  0
   -5.7400   22.8060  -31.8490 C   0  0  0  0  0  0  0  0  0  0  0  0
   -7.0720   22.3690  -31.7380 C   0  0  0  0  0  0  0  0  0  0  0  0
   -7.4630   21.1190  -32.2530 C   0  0  0  0  0  0  0  0  0  0  0  0
   -8.8250   20.6730  -32.1240 N   0  0  0  0  0  0  0  0  0  0  0  0
   -9.0810   19.4820  -31.8470 O   0  0  0  0  0  0  0  0  0  0  0  0
   -9.8690   21.5520  -32.2950 O   0  0  0  0  0  0  0  0  0  0  0  0
   -6.5030   20.3200  -32.9000 C   0  0  0  0  0  0  0  0  0  0  0  0
   -5.1870   20.7670  -33.0390 C   0  0  0  0  0  0  0  0  0  0  0  0
   -4.8080   22.0080  -32.5230 C   0  0  0  0  0  0  0  0  0  0  0  0
   -3.5260   22.4300  -32.6670 F   0  0  0  0  0  0  0  0  0  0  0  0
   -4.6749   24.1338  -28.1921 H   0  0  0  0  0  0  0  0  0  0  0  0
   -5.0556   22.6598  -29.1588 H   0  0  0  0  0  0  0  0  0  0  0  0
   -3.6823   22.8053  -26.8078 H   0  0  0  0  0  0  0  0  0  0  0  0
   -3.1783   21.2569  -27.6409 H   0  0  0  0  0  0  0  0  0  0  0  0
   -1.6293   23.0745  -25.9468 H   0  0  0  0  0  0  0  0  0  0  0  0
   -1.3157   21.3550  -26.5000 H   0  0  0  0  0  0  0  0  0  0  0  0
   -0.6996   23.8620  -28.0968 H   0  0  0  0  0  0  0  0  0  0  0  0
    0.4814   22.8407  -27.1164 H   0  0  0  0  0  0  0  0  0  0  0  0
    0.9001   22.1150  -29.2492 H   0  0  0  0  0  0  0  0  0  0  0  0
   -0.3588   20.9296  -28.6338 H   0  0  0  0  0  0  0  0  0  0  0  0
   -0.8503   23.2647  -30.5165 H   0  0  0  0  0  0  0  0  0  0  0  0
   -0.7887   21.4807  -30.9282 H   0  0  0  0  0  0  0  0  0  0  0  0
   -3.1173   22.3521  -30.8048 H   0  0  0  0  0  0  0  0  0  0  0  0
   -2.7555   21.0571  -29.5863 H   0  0  0  0  0  0  0  0  0  0  0  0
   -7.8160   23.0108  -31.2435 H   0  0  0  0  0  0  0  0  0  0  0  0
   -6.7907   19.3362  -33.2993 H   0  0  0  0  0  0  0  0  0  0  0  0
   -4.4467   20.1393  -33.5567 H   0  0  0  0  0  0  0  0  0  0  0  0
  1  2  2  0
  2  3  1  0
  3  4  1  0
  4  5  1  0
  5  6  1  0
  6  7  1  0
  7  8  1  0
  8  9  1  0
  9 10  1  0
  2 11  1  0
 11 12  1  0
 12 13  2  0
 13 14  1  0
 14 15  1  0
 15 16  2  0
 15 17  1  0
 14 18  2  0
 18 19  1  0
 19 20  2  0
 20 21  1  0
 10  4  1  0
 20 12  1  0
  3 22  1  0
  3 23  1  0
  5 24  1  0
  5 25  1  0
  6 26  1  0
  6 27  1  0
  7 28  1  0
  7 29  1  0
  8 30  1  0
  8 31  1  0
  9 32  1  0
  9 33  1  0
 10 34  1  0
 10 35  1  0
 13 36  1  0
 18 37  1  0
 19 38  1  0
M  CHG  3  11  -1  15   1  17  -1
M  END
>  <UniqueID>  (33) 
31

>  <SMILES>  (33) 
O=C(CN1CCCCCC1)[N-]c1cc([N+](=O)[O-])ccc1F

>  <Energy>  (33) 
52.078613377337305

>  <Genealogy>  (33) 
O=C(CN1CCCCCC1)[N-]c1cc([N+](=O)[O-])ccc1F (protonated)
O=C(CN1CCCCCC1)[N-]c1cc([N+](=O)[O-])ccc1F (3D coordinates assigned)
O=C(CN1CCCCCC1)[N-]c1cc([N+](=O)[O-])ccc1F (nonaromatic ring conformer: 52.078613377337305 kcal/mol)

>  <smiles>  (33) 
O=C(CN1CCCCCC1)Nc1cc([N+](=O)[O-])ccc1F

>  <score_type>  (33) 
oracle

>  <origin>  (33) 
adg

>  <m_score__min__energy>  (33) 
-6.3899999999999997

>  <m_primary>  (33) 
energy

$$$$
35:0
     RDKit          3D

 35 36  0  0  0  0  0  0  0  0999 V2000
   -0.8620   27.1070  -23.8750 C   0  0  0  0  0  0  0  0  0  0  0  0
   -0.9520   26.0880  -24.9120 N   0  0  0  0  0  0  0  0  0  0  0  0
   -0.7900   24.7620  -24.7340 C   0  0  0  0  0  0  0  0  0  0  0  0
   -0.8340   24.1250  -25.9580 C   0  0  0  0  0  0  0  0  0  0  0  0
   -0.5010   22.4230  -26.2320 Cl  0  0  0  0  0  0  0  0  0  0  0  0
   -1.0220   25.1100  -26.9130 C   0  0  0  0  0  0  0  0  0  0  0  0
   -1.0490   24.9450  -28.3730 C   0  0  0  0  0  0  0  0  0  0  0  0
   -0.0160   24.5320  -28.9620 O   0  0  0  0  0  0  0  0  0  0  0  0
   -2.2050   25.2800  -29.1490 N   0  0  0  0  0  0  0  0  0  0  0  0
   -3.4620   24.5440  -29.0950 C   0  0  0  0  0  0  0  0  0  0  0  0
   -3.7320   23.8890  -30.4540 C   0  0  0  0  0  0  0  0  0  0  0  0
   -4.8250   24.5320  -31.2190 N   0  0  0  0  0  0  0  0  0  0  0  0
   -5.4900   25.6570  -30.5270 C   0  0  0  0  0  0  0  0  0  0  0  0
   -6.7390   25.2230  -29.7220 C   0  0  0  0  0  0  0  0  0  0  0  0
   -7.1160   23.8780  -29.9490 O   0  0  0  0  0  0  0  0  0  0  0  0
   -7.1610   23.6270  -31.3340 C   0  0  0  0  0  0  0  0  0  0  0  0
   -5.7390   23.5940  -31.9090 C   0  0  0  0  0  0  0  0  0  0  0  0
   -1.0670   26.3140  -26.2360 C   0  0  0  0  0  0  0  0  0  0  0  0
   -0.9043   26.6280  -22.8856 H   0  0  0  0  0  0  0  0  0  0  0  0
    0.0878   27.6522  -23.9781 H   0  0  0  0  0  0  0  0  0  0  0  0
   -1.7015   27.8102  -23.9781 H   0  0  0  0  0  0  0  0  0  0  0  0
   -0.6452   24.2643  -23.7638 H   0  0  0  0  0  0  0  0  0  0  0  0
   -3.3980   23.7662  -28.3198 H   0  0  0  0  0  0  0  0  0  0  0  0
   -4.2815   25.2370  -28.8538 H   0  0  0  0  0  0  0  0  0  0  0  0
   -2.8113   23.9413  -31.0536 H   0  0  0  0  0  0  0  0  0  0  0  0
   -4.0454   22.8536  -30.2548 H   0  0  0  0  0  0  0  0  0  0  0  0
   -4.7696   26.1167  -29.8344 H   0  0  0  0  0  0  0  0  0  0  0  0
   -5.8275   26.3634  -31.2997 H   0  0  0  0  0  0  0  0  0  0  0  0
   -6.5239   25.3485  -28.6506 H   0  0  0  0  0  0  0  0  0  0  0  0
   -7.5754   25.8548  -30.0557 H   0  0  0  0  0  0  0  0  0  0  0  0
   -7.6485   22.6572  -31.5126 H   0  0  0  0  0  0  0  0  0  0  0  0
   -7.7309   24.4282  -31.8273 H   0  0  0  0  0  0  0  0  0  0  0  0
   -5.3407   22.5738  -31.8059 H   0  0  0  0  0  0  0  0  0  0  0  0
   -5.7984   23.9012  -32.9636 H   0  0  0  0  0  0  0  0  0  0  0  0
   -1.1792   27.3029  -26.7046 H   0  0  0  0  0  0  0  0  0  0  0  0
  1  2  1  0
  2  3  1  0
  3  4  2  0
  4  5  1  0
  4  6  1  0
  6  7  1  0
  7  8  2  0
  7  9  1  0
  9 10  1  0
 10 11  1  0
 11 12  1  0
 12 13  1  0
 13 14  1  0
 14 15  1  0
 15 16  1  0
 16 17  1  0
  6 18  2  0
 18  2  1  0
 17 12  1  0
  1 19  1  0
  1 20  1  0
  1 21  1  0
  3 22  1  0
 10 23  1  0
 10 24  1  0
 11 25  1  0
 11 26  1  0
 13 27  1  0
 13 28  1  0
 14 29  1  0
 14 30  1  0
 16 31  1  0
 16 32  1  0
 17 33  1  0
 17 34  1  0
 18 35  1  0
M  CHG  1   9  -1
M  END
>  <UniqueID>  (34) 
32

>  <SMILES>  (34) 
Cn1cc(Cl)c(C(=O)[N-]CCN2CCOCC2)c1

>  <Energy>  (34) 
76.72043666567636

>  <Genealogy>  (34) 
Cn1cc(Cl)c(C(=O)[N-]CCN2CCOCC2)c1 (protonated)
Cn1cc(Cl)c(C(=O)[N-]CCN2CCOCC2)c1 (3D coordinates assigned)
Cn1cc(Cl)c(C(=O)[N-]CCN2CCOCC2)c1 (nonaromatic ring conformer: 76.72043666567636 kcal/mol)

>  <smiles>  (34) 
Cn1cc(Cl)c(C(=O)NCCN2CCOCC2)c1

>  <score_type>  (34) 
oracle

>  <origin>  (34) 
adg

>  <m_score__min__energy>  (34) 
-8.0999999999999996

>  <m_primary>  (34) 
energy

$$$$
36:0
     RDKit          3D

 66 68  0  0  0  0  0  0  0  0999 V2000
   -2.5261   25.1119  -28.7122 H   0  0  0  0  0  0  0  0  0  0  0  0
   -3.3570   24.5730  -29.1910 C   0  0  0  0  0  0  0  0  0  0  0  0
   -3.9040   25.1110  -30.2450 N   0  0  0  0  0  0  0  0  0  0  0  0
   -5.1570   24.7490  -30.8390 C   0  0  0  0  0  0  0  0  0  0  0  0
   -6.0450   25.6380  -30.9490 O   0  0  0  0  0  0  0  0  0  0  0  0
   -5.3870   23.3930  -31.4130 C   0  0  0  0  0  0  0  0  0  0  0  0
   -6.6970   22.9170  -31.5660 C   0  0  0  0  0  0  0  0  0  0  0  0
   -7.5372   23.5503  -31.2452 H   0  0  0  0  0  0  0  0  0  0  0  0
   -6.9590   21.6850  -32.1040 N   0  0  0  0  0  0  0  0  0  0  0  0
   -8.3780   21.3000  -32.2380 C   0  0  0  0  0  0  0  0  0  0  0  0
   -9.0114   22.1639  -31.9881 H   0  0  0  0  0  0  0  0  0  0  0  0
   -8.5603   20.9791  -33.2742 H   0  0  0  0  0  0  0  0  0  0  0  0
   -8.7160   20.1430  -31.3000 C   0  0  0  0  0  0  0  0  0  0  0  0
   -8.6185   20.4766  -30.2563 H   0  0  0  0  0  0  0  0  0  0  0  0
   -9.7486   19.8114  -31.4840 H   0  0  0  0  0  0  0  0  0  0  0  0
   -8.0243   19.3077  -31.4840 H   0  0  0  0  0  0  0  0  0  0  0  0
   -5.9220   20.8470  -32.4670 C   0  0  0  0  0  0  0  0  0  0  0  0
   -4.5830   21.2890  -32.3260 C   0  0  0  0  0  0  0  0  0  0  0  0
   -3.5370   20.4360  -32.7100 C   0  0  0  0  0  0  0  0  0  0  0  0
   -2.4939   20.7728  -32.6174 H   0  0  0  0  0  0  0  0  0  0  0  0
   -3.8130   19.1670  -33.2070 C   0  0  0  0  0  0  0  0  0  0  0  0
   -2.7920   18.3660  -33.6020 F   0  0  0  0  0  0  0  0  0  0  0  0
   -5.1400   18.7440  -33.3160 C   0  0  0  0  0  0  0  0  0  0  0  0
   -5.4410   17.4260  -33.8080 N   0  0  0  0  0  0  0  0  0  0  0  0
   -6.7770   16.8680  -33.5740 C   0  0  0  0  0  0  0  0  0  0  0  0
   -6.9390   16.7633  -32.4910 H   0  0  0  0  0  0  0  0  0  0  0  0
   -7.5235   17.5482  -34.0100 H   0  0  0  0  0  0  0  0  0  0  0  0
   -6.9190   15.4980  -34.2360 C   0  0  0  0  0  0  0  0  0  0  0  0
   -7.7972   14.9786  -33.8251 H   0  0  0  0  0  0  0  0  0  0  0  0
   -7.0486   15.6202  -35.3215 H   0  0  0  0  0  0  0  0  0  0  0  0
   -5.7060   14.7090  -33.9640 N   0  0  0  0  0  0  0  0  0  0  0  0
   -5.9200   13.2900  -34.3210 C   0  0  0  0  0  0  0  0  0  0  0  0
   -5.1874   12.9990  -35.0882 H   0  0  0  0  0  0  0  0  0  0  0  0
   -5.7955   12.6807  -33.4136 H   0  0  0  0  0  0  0  0  0  0  0  0
   -7.3290   13.0620  -34.8660 C   0  0  0  0  0  0  0  0  0  0  0  0
   -8.0323   12.9482  -34.0279 H   0  0  0  0  0  0  0  0  0  0  0  0
   -7.6280   13.9234  -35.4812 H   0  0  0  0  0  0  0  0  0  0  0  0
   -7.3411   12.1502  -35.4812 H   0  0  0  0  0  0  0  0  0  0  0  0
   -4.5180   15.2760  -34.6540 C   0  0  0  0  0  0  0  0  0  0  0  0
   -3.6211   15.0104  -34.0751 H   0  0  0  0  0  0  0  0  0  0  0  0
   -4.5045   14.8524  -35.6691 H   0  0  0  0  0  0  0  0  0  0  0  0
   -4.5610   16.8120  -34.8080 C   0  0  0  0  0  0  0  0  0  0  0  0
   -3.5441   17.2127  -34.6840 H   0  0  0  0  0  0  0  0  0  0  0  0
   -4.9548   17.0487  -35.8074 H   0  0  0  0  0  0  0  0  0  0  0  0
   -6.1530   19.5830  -32.9550 N   0  0  0  0  0  0  0  0  0  0  0  0
   -7.1190   19.2050  -33.0370 H   0  0  0  0  0  0  0  0  0  0  0  0
   -4.3220   22.5660  -31.8030 C   0  0  0  0  0  0  0  0  0  0  0  0
   -3.1310   22.9700  -31.6890 O   0  0  0  0  0  0  0  0  0  0  0  0
   -3.7890   23.2560  -28.5820 C   0  0  0  0  0  0  0  0  0  0  0  0
   -4.5096   22.7796  -29.2630 H   0  0  0  0  0  0  0  0  0  0  0  0
   -4.2253   23.4872  -27.5990 H   0  0  0  0  0  0  0  0  0  0  0  0
   -2.6740   22.3080  -28.3450 N   0  0  0  0  0  0  0  0  0  0  0  0
   -1.5250   22.4100  -29.2710 C   0  0  0  0  0  0  0  0  0  0  0  0
   -1.8331   22.9614  -30.1716 H   0  0  0  0  0  0  0  0  0  0  0  0
   -1.1947   21.3966  -29.5429 H   0  0  0  0  0  0  0  0  0  0  0  0
   -0.3680   23.1450  -28.6030 C   0  0  0  0  0  0  0  0  0  0  0  0
   -0.4733   23.0781  -27.5101 H   0  0  0  0  0  0  0  0  0  0  0  0
    0.5836   22.6854  -28.9085 H   0  0  0  0  0  0  0  0  0  0  0  0
   -0.3796   24.2017  -28.9085 H   0  0  0  0  0  0  0  0  0  0  0  0
   -3.0700   20.9250  -28.0010 C   0  0  0  0  0  0  0  0  0  0  0  0
   -4.0504   20.9603  -27.5034 H   0  0  0  0  0  0  0  0  0  0  0  0
   -3.0911   20.3581  -28.9434 H   0  0  0  0  0  0  0  0  0  0  0  0
   -2.0860   20.2030  -27.0740 C   0  0  0  0  0  0  0  0  0  0  0  0
   -2.3563   20.4014  -26.0263 H   0  0  0  0  0  0  0  0  0  0  0  0
   -2.1290   19.1206  -27.2652 H   0  0  0  0  0  0  0  0  0  0  0  0
   -1.0664   20.5688  -27.2652 H   0  0  0  0  0  0  0  0  0  0  0  0
  1  2  1  0
  2  3  2  0
  3  4  1  0
  4  5  2  0
  4  6  1  0
  6  7  2  0
  7  8  1  0
  7  9  1  0
  9 10  1  0
 10 11  1  0
 10 12  1  0
 10 13  1  0
 13 14  1  0
 13 15  1  0
 13 16  1  0
  9 17  1  0
 17 18  2  0
 18 19  1  0
 19 20  1  0
 19 21  2  0
 21 22  1  0
 21 23  1  0
 23 24  1  0
 24 25  1  0
 25 26  1  0
 25 27  1  0
 25 28  1  0
 28 29  1  0
 28 30  1  0
 28 31  1  0
 31 32  1  0
 32 33  1  0
 32 34  1  0
 32 35  1  0
 35 36  1  0
 35 37  1  0
 35 38  1  0
 31 39  1  0
 39 40  1  0
 39 41  1  0
 39 42  1  0
 42 43  1  0
 42 44  1  0
 23 45  2  0
 45 46  1  0
 18 47  1  0
 47 48  2  0
  2 49  1  0
 49 50  1  0
 49 51  1  0
 49 52  1  0
 52 53  1  0
 53 54  1  0
 53 55  1  0
 53 56  1  0
 56 57  1  0
 56 58  1  0
 56 59  1  0
 52 60  1  0
 60 61  1  0
 60 62  1  0
 60 63  1  0
 63 64  1  0
 63 65  1  0
 63 66  1  0
 47  6  1  0
 45 17  1  0
 42 24  1  0
M  CHG  1  45   1
M  END
>  <UniqueID>  (35) 
33

>  <SMILES>  (35) 
CCN(CC)C/C=N\C(=O)c1cn(CC)c2[nH+]c(N3CCN(CC)CC3)c(F)cc2c1=O

>  <Energy>  (35) 
97.0218804210383

>  <Genealogy>  (35) 
CCN(CC)CC=NC(=O)c1cn(CC)c2[nH+]c(N3CCN(CC)CC3)c(F)cc2c1=O (protonated)
CCN(CC)C/C=N\C(=O)c1cn(CC)c2[nH+]c(N3CCN(CC)CC3)c(F)cc2c1=O (cis-trans isomerization)
CCN(CC)C/C=N\C(=O)c1cn(CC)c2[nH+]c(N3CCN(CC)CC3)c(F)cc2c1=O (3D coordinates assigned)
CCN(CC)C/C=N\C(=O)c1cn(CC)c2[nH+]c(N3CCN(CC)CC3)c(F)cc2c1=O (nonaromatic ring conformer: 97.0218804210383 kcal/mol)

>  <smiles>  (35) 
CCN(CC)CC=NC(=O)c1cn(CC)c2nc(N3CCN(CC)CC3)c(F)cc2c1=O

>  <score_type>  (35) 
oracle

>  <origin>  (35) 
adg

>  <m_score__min__energy>  (35) 
-7.3200000000000003

>  <m_primary>  (35) 
energy

$$$$
37:0
     RDKit          3D

 54 57  0  0  0  0  0  0  0  0999 V2000
    0.5960   17.1520  -27.4970 C   0  0  0  0  0  0  0  0  0  0  0  0
    0.4820   18.5130  -27.9000 O   0  0  0  0  0  0  0  0  0  0  0  0
    0.3610   18.9360  -29.2320 C   0  0  0  0  0  0  0  0  0  0  0  0
    1.4110   18.8280  -30.1610 C   0  0  0  0  0  0  0  0  0  0  0  0
    1.2380   19.2520  -31.4420 N   0  0  0  0  0  0  0  0  0  0  0  0
    0.0610   19.7870  -31.8640 C   0  0  0  0  0  0  0  0  0  0  0  0
   -1.0150   19.9180  -30.9750 C   0  0  0  0  0  0  0  0  0  0  0  0
   -2.2980   20.4940  -31.4290 C   0  0  0  0  0  0  0  0  0  0  0  0
   -3.2200   19.9300  -32.3170 C   0  0  0  0  0  0  0  0  0  0  0  0
   -3.0690   18.5940  -32.9860 C   0  0  0  0  0  0  0  0  0  0  0  0
   -4.2570   20.7860  -32.5280 N   0  0  0  0  0  0  0  0  0  0  0  0
   -5.3700   20.6010  -33.4700 C   0  0  0  0  0  0  0  0  0  0  0  0
   -6.5430   19.9620  -32.7750 C   0  0  0  0  0  0  0  0  0  0  0  0
   -7.6190   20.7510  -32.3360 C   0  0  0  0  0  0  0  0  0  0  0  0
   -8.7200   20.1560  -31.7120 C   0  0  0  0  0  0  0  0  0  0  0  0
   -8.7570   18.7720  -31.5270 C   0  0  0  0  0  0  0  0  0  0  0  0
   -7.6920   17.9790  -31.9630 C   0  0  0  0  0  0  0  0  0  0  0  0
   -6.5890   18.5710  -32.5850 C   0  0  0  0  0  0  0  0  0  0  0  0
   -3.9960   21.8810  -31.7750 C   0  0  0  0  0  0  0  0  0  0  0  0
   -4.7450   23.0570  -31.6710 C   0  0  0  0  0  0  0  0  0  0  0  0
   -4.2590   24.0990  -30.8450 C   0  0  0  0  0  0  0  0  0  0  0  0
   -4.9560   25.3090  -30.6910 O   0  0  0  0  0  0  0  0  0  0  0  0
   -6.1390   25.4640  -29.9150 C   0  0  0  0  0  0  0  0  0  0  0  0
   -3.0360   23.9410  -30.1510 C   0  0  0  0  0  0  0  0  0  0  0  0
   -2.5860   25.0000  -29.3480 O   0  0  0  0  0  0  0  0  0  0  0  0
   -2.2710   24.8850  -27.9640 C   0  0  0  0  0  0  0  0  0  0  0  0
   -2.3000   22.7400  -30.2820 C   0  0  0  0  0  0  0  0  0  0  0  0
   -2.8180   21.7300  -31.0920 C   0  0  0  0  0  0  0  0  0  0  0  0
   -0.8530   19.4830  -29.6530 C   0  0  0  0  0  0  0  0  0  0  0  0
    0.6009   17.0940  -26.3985 H   0  0  0  0  0  0  0  0  0  0  0  0
   -0.2574   16.5803  -27.8906 H   0  0  0  0  0  0  0  0  0  0  0  0
    1.5326   16.7303  -27.8906 H   0  0  0  0  0  0  0  0  0  0  0  0
    2.3754   18.3993  -29.8509 H   0  0  0  0  0  0  0  0  0  0  0  0
    2.0290   19.1670  -32.1180 H   0  0  0  0  0  0  0  0  0  0  0  0
   -0.0471   20.1183  -32.9073 H   0  0  0  0  0  0  0  0  0  0  0  0
   -2.9802   17.8087  -32.2208 H   0  0  0  0  0  0  0  0  0  0  0  0
   -3.9505   18.3965  -33.6136 H   0  0  0  0  0  0  0  0  0  0  0  0
   -2.1656   18.5982  -33.6136 H   0  0  0  0  0  0  0  0  0  0  0  0
   -5.6741   21.5799  -33.8690 H   0  0  0  0  0  0  0  0  0  0  0  0
   -5.0397   19.9458  -34.2895 H   0  0  0  0  0  0  0  0  0  0  0  0
   -7.5955   21.8408  -32.4836 H   0  0  0  0  0  0  0  0  0  0  0  0
   -9.5582   20.7789  -31.3663 H   0  0  0  0  0  0  0  0  0  0  0  0
   -9.6250   18.3059  -31.0378 H   0  0  0  0  0  0  0  0  0  0  0  0
   -7.7217   16.8892  -31.8167 H   0  0  0  0  0  0  0  0  0  0  0  0
   -5.7525   17.9442  -32.9275 H   0  0  0  0  0  0  0  0  0  0  0  0
   -5.6918   23.1702  -32.2194 H   0  0  0  0  0  0  0  0  0  0  0  0
   -5.8831   25.4305  -28.8457 H   0  0  0  0  0  0  0  0  0  0  0  0
   -6.6074   26.4312  -30.1498 H   0  0  0  0  0  0  0  0  0  0  0  0
   -6.8408   24.6501  -30.1498 H   0  0  0  0  0  0  0  0  0  0  0  0
   -3.1367   25.2010  -27.3634 H   0  0  0  0  0  0  0  0  0  0  0  0
   -2.0245   23.8389  -27.7298 H   0  0  0  0  0  0  0  0  0  0  0  0
   -1.4085   25.5262  -27.7298 H   0  0  0  0  0  0  0  0  0  0  0  0
   -1.3423   22.6061  -29.7576 H   0  0  0  0  0  0  0  0  0  0  0  0
   -1.6875   19.5729  -28.9421 H   0  0  0  0  0  0  0  0  0  0  0  0
  1  2  1  0
  2  3  1  0
  3  4  2  0
  4  5  1  0
  5  6  2  0
  6  7  1  0
  7  8  1  0
  8  9  2  0
  9 10  1  0
  9 11  1  0
 11 12  1  0
 12 13  1  0
 13 14  2  0
 14 15  1  0
 15 16  2  0
 16 17  1  0
 17 18  2  0
 11 19  1  0
 19 20  2  0
 20 21  1  0
 21 22  1  0
 22 23  1  0
 21 24  2  0
 24 25  1  0
 25 26  1  0
 24 27  1  0
 27 28  2  0
  7 29  2  0
 29  3  1  0
 28  8  1  0
 18 13  1  0
 28 19  1  0
  1 30  1  0
  1 31  1  0
  1 32  1  0
  4 33  1  0
  5 34  1  0
  6 35  1  0
 10 36  1  0
 10 37  1  0
 10 38  1  0
 12 39  1  0
 12 40  1  0
 14 41  1  0
 15 42  1  0
 16 43  1  0
 17 44  1  0
 18 45  1  0
 20 46  1  0
 23 47  1  0
 23 48  1  0
 23 49  1  0
 26 50  1  0
 26 51  1  0
 26 52  1  0
 27 53  1  0
 29 54  1  0
M  CHG  1   5   1
M  END
>  <UniqueID>  (36) 
34

>  <SMILES>  (36) 
COc1c[nH+]cc(-c2c(C)n(Cc3ccccc3)c3cc(OC)c(OC)cc23)c1

>  <Energy>  (36) 
93.45798026206539

>  <Genealogy>  (36) 
COc1c[nH+]cc(-c2c(C)n(Cc3ccccc3)c3cc(OC)c(OC)cc23)c1 (protonated)
COc1c[nH+]cc(-c2c(C)n(Cc3ccccc3)c3cc(OC)c(OC)cc23)c1 (3D coordinates assigned)
COc1c[nH+]cc(-c2c(C)n(Cc3ccccc3)c3cc(OC)c(OC)cc23)c1 (optimized conformer: 93.45798026206539 kcal/mol)

>  <smiles>  (36) 
COc1cncc(-c2c(C)n(Cc3ccccc3)c3cc(OC)c(OC)cc23)c1

>  <score_type>  (36) 
oracle

>  <origin>  (36) 
adg

>  <m_score__min__energy>  (36) 
-8.1600000000000001

>  <m_primary>  (36) 
energy

$$$$
38:0
     RDKit          3D

 49 51  0  0  0  0  0  0  0  0999 V2000
   -3.4320   24.1500  -27.7840 C   0  0  0  0  0  0  0  0  0  0  0  0
   -2.4450   24.6070  -28.8520 C   0  0  0  0  0  0  0  0  0  0  0  0
   -3.1200   24.9010  -30.0750 O   0  0  0  0  0  0  0  0  0  0  0  0
   -4.4000   24.4450  -30.4470 C   0  0  0  0  0  0  0  0  0  0  0  0
   -5.5480   25.2360  -30.2480 C   0  0  0  0  0  0  0  0  0  0  0  0
   -6.8070   24.7740  -30.6230 C   0  0  0  0  0  0  0  0  0  0  0  0
   -6.9590   23.5170  -31.2170 C   0  0  0  0  0  0  0  0  0  0  0  0
   -8.3470   23.0450  -31.5880 C   0  0  0  0  0  0  0  0  0  0  0  0
   -8.5310   21.6280  -31.2090 N   0  0  0  0  0  0  0  0  0  0  0  0
   -8.9940   20.8320  -32.3590 C   0  0  0  0  0  0  0  0  0  0  0  0
   -9.5080   21.5210  -30.1150 C   0  0  0  0  0  0  0  0  0  0  0  0
   -5.8260   22.7080  -31.4250 C   0  0  0  0  0  0  0  0  0  0  0  0
   -5.9710   21.5070  -31.9790 O   0  0  0  0  0  0  0  0  0  0  0  0
   -4.9600   20.6750  -32.2150 C   0  0  0  0  0  0  0  0  0  0  0  0
   -5.2510   19.3600  -32.8390 C   0  0  0  0  0  0  0  0  0  0  0  0
   -4.5160   18.8820  -33.9410 C   0  0  0  0  0  0  0  0  0  0  0  0
   -4.8190   17.6430  -34.5140 C   0  0  0  0  0  0  0  0  0  0  0  0
   -5.8690   16.8620  -34.0020 C   0  0  0  0  0  0  0  0  0  0  0  0
   -6.2100   15.6120  -34.5430 O   0  0  0  0  0  0  0  0  0  0  0  0
   -5.6180   14.3780  -34.1500 C   0  0  0  0  0  0  0  0  0  0  0  0
   -6.6090   17.3400  -32.9170 C   0  0  0  0  0  0  0  0  0  0  0  0
   -6.3090   18.5790  -32.3430 C   0  0  0  0  0  0  0  0  0  0  0  0
   -3.6590   21.0560  -31.8550 C   0  0  0  0  0  0  0  0  0  0  0  0
   -3.4460   22.3030  -31.2700 C   0  0  0  0  0  0  0  0  0  0  0  0
   -2.2720   22.6300  -30.9500 O   0  0  0  0  0  0  0  0  0  0  0  0
   -4.5400   23.1670  -31.0440 C   0  0  0  0  0  0  0  0  0  0  0  0
   -3.0100   24.3454  -26.7871 H   0  0  0  0  0  0  0  0  0  0  0  0
   -4.3765   24.7024  -27.8971 H   0  0  0  0  0  0  0  0  0  0  0  0
   -3.6217   23.0724  -27.8971 H   0  0  0  0  0  0  0  0  0  0  0  0
   -1.9263   25.5110  -28.5003 H   0  0  0  0  0  0  0  0  0  0  0  0
   -1.7232   23.7971  -29.0341 H   0  0  0  0  0  0  0  0  0  0  0  0
   -5.4489   26.2314  -29.7905 H   0  0  0  0  0  0  0  0  0  0  0  0
   -7.6916   25.4046  -30.4501 H   0  0  0  0  0  0  0  0  0  0  0  0
   -9.0913   23.6601  -31.0611 H   0  0  0  0  0  0  0  0  0  0  0  0
   -8.4765   23.1417  -32.6761 H   0  0  0  0  0  0  0  0  0  0  0  0
   -9.5163   19.9341  -31.9970 H   0  0  0  0  0  0  0  0  0  0  0  0
   -9.6821   21.4354  -32.9693 H   0  0  0  0  0  0  0  0  0  0  0  0
   -8.1294   20.5322  -32.9693 H   0  0  0  0  0  0  0  0  0  0  0  0
   -8.9847   21.5783  -29.1492 H   0  0  0  0  0  0  0  0  0  0  0  0
  -10.2328   22.3451  -30.1888 H   0  0  0  0  0  0  0  0  0  0  0  0
  -10.0373   20.5595  -30.1888 H   0  0  0  0  0  0  0  0  0  0  0  0
   -3.6967   19.4884  -34.3545 H   0  0  0  0  0  0  0  0  0  0  0  0
   -4.2324   17.2778  -35.3699 H   0  0  0  0  0  0  0  0  0  0  0  0
   -5.5894   14.3183  -33.0520 H   0  0  0  0  0  0  0  0  0  0  0  0
   -6.2134   13.5427  -34.5472 H   0  0  0  0  0  0  0  0  0  0  0  0
   -4.5939   14.3197  -34.5472 H   0  0  0  0  0  0  0  0  0  0  0  0
   -7.4343   16.7364  -32.5113 H   0  0  0  0  0  0  0  0  0  0  0  0
   -6.9065   18.9459  -31.4954 H   0  0  0  0  0  0  0  0  0  0  0  0
   -2.8131   20.3757  -32.0330 H   0  0  0  0  0  0  0  0  0  0  0  0
  1  2  1  0
  2  3  1  0
  3  4  1  0
  4  5  2  0
  5  6  1  0
  6  7  2  0
  7  8  1  0
  8  9  1  0
  9 10  1  0
  9 11  1  0
  7 12  1  0
 12 13  1  0
 13 14  1  0
 14 15  1  0
 15 16  2  0
 16 17  1  0
 17 18  2  0
 18 19  1  0
 19 20  1  0
 18 21  1  0
 21 22  2  0
 14 23  2  0
 23 24  1  0
 24 25  2  0
 24 26  1  0
 26  4  1  0
 26 12  2  0
 22 15  1  0
  1 27  1  0
  1 28  1  0
  1 29  1  0
  2 30  1  0
  2 31  1  0
  5 32  1  0
  6 33  1  0
  8 34  1  0
  8 35  1  0
 10 36  1  0
 10 37  1  0
 10 38  1  0
 11 39  1  0
 11 40  1  0
 11 41  1  0
 16 42  1  0
 17 43  1  0
 20 44  1  0
 20 45  1  0
 20 46  1  0
 21 47  1  0
 22 48  1  0
 23 49  1  0
M  END
>  <UniqueID>  (37) 
35

>  <SMILES>  (37) 
CCOc1ccc(CN(C)C)c2oc(-c3ccc(OC)cc3)cc(=O)c12

>  <Energy>  (37) 
58.19017220029427

>  <Genealogy>  (37) 
CCOc1ccc(CN(C)C)c2oc(-c3ccc(OC)cc3)cc(=O)c12 (3D coordinates assigned)
CCOc1ccc(CN(C)C)c2oc(-c3ccc(OC)cc3)cc(=O)c12 (optimized conformer: 58.19017220029427 kcal/mol)

>  <smiles>  (37) 
CCOc1ccc(CN(C)C)c2oc(-c3ccc(OC)cc3)cc(=O)c12

>  <score_type>  (37) 
oracle

>  <origin>  (37) 
adg

>  <m_score__min__energy>  (37) 
-8.1099999999999994

>  <m_primary>  (37) 
energy

$$$$
39:0
     RDKit          3D

 43 45  0  0  0  0  0  0  0  0999 V2000
   -9.8730   21.4770  -32.8550 H   0  0  0  0  0  0  0  0  0  0  0  0
   -9.0550   20.9080  -32.5410 N   0  0  0  0  0  0  0  0  0  0  0  0
   -7.9270   21.4570  -32.2180 C   0  0  0  0  0  0  0  0  0  0  0  0
   -7.9260   22.5310  -31.3890 N   0  0  0  0  0  0  0  0  0  0  0  0
   -6.7880   23.1580  -31.0060 C   0  0  0  0  0  0  0  0  0  0  0  0
   -6.8790   24.2590  -30.1490 C   0  0  0  0  0  0  0  0  0  0  0  0
   -7.8650   24.5986  -29.7992 H   0  0  0  0  0  0  0  0  0  0  0  0
   -5.7300   24.9290  -29.7350 C   0  0  0  0  0  0  0  0  0  0  0  0
   -5.8125   25.7935  -29.0599 H   0  0  0  0  0  0  0  0  0  0  0  0
   -4.4670   24.5040  -30.1770 C   0  0  0  0  0  0  0  0  0  0  0  0
   -3.2820   25.1470  -29.7890 O   0  0  0  0  0  0  0  0  0  0  0  0
   -2.3330   24.6040  -28.8770 C   0  0  0  0  0  0  0  0  0  0  0  0
   -2.6652   24.7941  -27.8457 H   0  0  0  0  0  0  0  0  0  0  0  0
   -2.2464   23.5197  -29.0403 H   0  0  0  0  0  0  0  0  0  0  0  0
   -1.3543   25.0788  -29.0403 H   0  0  0  0  0  0  0  0  0  0  0  0
   -4.3730   23.4010  -31.0350 C   0  0  0  0  0  0  0  0  0  0  0  0
   -3.3828   23.0685  -31.3797 H   0  0  0  0  0  0  0  0  0  0  0  0
   -5.5280   22.7060  -31.4670 C   0  0  0  0  0  0  0  0  0  0  0  0
   -5.4910   21.5790  -32.3390 C   0  0  0  0  0  0  0  0  0  0  0  0
   -4.2930   21.0420  -32.8530 C   0  0  0  0  0  0  0  0  0  0  0  0
   -3.3309   21.4992  -32.5786 H   0  0  0  0  0  0  0  0  0  0  0  0
   -4.3130   19.9410  -33.7030 C   0  0  0  0  0  0  0  0  0  0  0  0
   -3.3703   19.5311  -34.0946 H   0  0  0  0  0  0  0  0  0  0  0  0
   -5.5370   19.3530  -34.0610 C   0  0  0  0  0  0  0  0  0  0  0  0
   -5.6090   18.3230  -34.8610 N   0  0  0  0  0  0  0  0  0  0  0  0
   -5.4310   16.9090  -34.5230 C   0  0  0  0  0  0  0  0  0  0  0  0
   -5.7632   16.2920  -35.3709 H   0  0  0  0  0  0  0  0  0  0  0  0
   -4.3665   16.7311  -34.3103 H   0  0  0  0  0  0  0  0  0  0  0  0
   -6.2460   16.5340  -33.2810 C   0  0  0  0  0  0  0  0  0  0  0  0
   -6.4234   15.4484  -33.2764 H   0  0  0  0  0  0  0  0  0  0  0  0
   -5.6849   16.8255  -32.3809 H   0  0  0  0  0  0  0  0  0  0  0  0
   -7.5360   17.2370  -33.2920 N   0  0  0  0  0  0  0  0  0  0  0  0
   -7.4610   18.0250  -33.9790 H   0  0  0  0  0  0  0  0  0  0  0  0
   -7.8460   17.8150  -31.9770 C   0  0  0  0  0  0  0  0  0  0  0  0
   -8.1836   18.8537  -32.1079 H   0  0  0  0  0  0  0  0  0  0  0  0
   -8.6381   17.2176  -31.5020 H   0  0  0  0  0  0  0  0  0  0  0  0
   -6.6090   17.7970  -31.0840 C   0  0  0  0  0  0  0  0  0  0  0  0
   -6.9187   17.8015  -30.0285 H   0  0  0  0  0  0  0  0  0  0  0  0
   -6.0213   16.8902  -31.2898 H   0  0  0  0  0  0  0  0  0  0  0  0
   -5.9952   18.6863  -31.2898 H   0  0  0  0  0  0  0  0  0  0  0  0
   -6.6920   19.8680  -33.5550 N   0  0  0  0  0  0  0  0  0  0  0  0
   -7.5900   19.4090  -33.8320 H   0  0  0  0  0  0  0  0  0  0  0  0
   -6.7090   20.9510  -32.7150 C   0  0  0  0  0  0  0  0  0  0  0  0
  1  2  1  0
  2  3  2  0
  3  4  1  0
  4  5  1  0
  5  6  2  0
  6  7  1  0
  6  8  1  0
  8  9  1  0
  8 10  2  0
 10 11  1  0
 11 12  1  0
 12 13  1  0
 12 14  1  0
 12 15  1  0
 10 16  1  0
 16 17  1  0
 16 18  2  0
 18 19  1  0
 19 20  1  0
 20 21  1  0
 20 22  2  0
 22 23  1  0
 22 24  1  0
 24 25  2  0
 25 26  1  0
 26 27  1  0
 26 28  1  0
 26 29  1  0
 29 30  1  0
 29 31  1  0
 29 32  1  0
 32 33  1  0
 32 34  1  0
 34 35  1  0
 34 36  1  0
 34 37  1  0
 37 38  1  0
 37 39  1  0
 37 40  1  0
 24 41  1  0
 41 42  1  0
 41 43  1  0
 43  3  1  0
 18  5  1  0
 43 19  2  0
M  CHG  1   4  -1
M  END
>  <UniqueID>  (38) 
36

>  <SMILES>  (38) 
[H]/N=c1\[n-]c2ccc(OC)cc2c2cc/c(=N\CCNCC)[nH]c12

>  <Energy>  (38) 
53.97584084451619

>  <Genealogy>  (38) 
CCNCCN=c1ccc2c([nH]1)c(=N)[n-]c1ccc(OC)cc12 (protonated)
[H]/N=c1\[n-]c2ccc(OC)cc2c2cc/c(=N\CCNCC)[nH]c12 (cis-trans isomerization)
[H]/N=c1\[n-]c2ccc(OC)cc2c2cc/c(=N\CCNCC)[nH]c12 (3D coordinates assigned)
[H]/N=c1\[n-]c2ccc(OC)cc2c2cc/c(=N\CCNCC)[nH]c12 (optimized conformer: 53.97584084451619 kcal/mol)

>  <smiles>  (38) 
CCNCCN=c1ccc2c([nH]1)c(=N)[nH]c1ccc(OC)cc12

>  <score_type>  (38) 
oracle

>  <origin>  (38) 
adg

>  <m_score__min__energy>  (38) 
-8.3499999999999996

>  <m_primary>  (38) 
energy

$$$$
40:0
     RDKit          3D

 42 44  0  0  0  0  0  0  0  0999 V2000
   -2.5330   22.9430  -28.7570 C   0  0  0  0  0  0  0  0  0  0  0  0
   -3.5880   23.3260  -27.9270 C   0  0  0  0  0  0  0  0  0  0  0  0
   -4.5880   24.1680  -28.4170 C   0  0  0  0  0  0  0  0  0  0  0  0
   -4.5150   24.6230  -29.7420 C   0  0  0  0  0  0  0  0  0  0  0  0
   -5.6030   25.4850  -30.3190 C   0  0  0  0  0  0  0  0  0  0  0  0
   -6.9770   24.8060  -30.2220 C   0  0  0  0  0  0  0  0  0  0  0  0
   -7.0010   23.4890  -30.9540 C   0  0  0  0  0  0  0  0  0  0  0  0
   -7.8070   22.4360  -30.5030 C   0  0  0  0  0  0  0  0  0  0  0  0
   -7.7820   21.2060  -31.1590 C   0  0  0  0  0  0  0  0  0  0  0  0
   -6.9370   21.0260  -32.2650 C   0  0  0  0  0  0  0  0  0  0  0  0
   -6.9090   19.7660  -32.9630 N   0  0  0  0  0  0  0  0  0  0  0  0
   -6.1170   19.5960  -34.1900 C   0  0  0  0  0  0  0  0  0  0  0  0
   -5.1220   18.4370  -34.0290 C   0  0  0  0  0  0  0  0  0  0  0  0
   -5.6760   17.2630  -33.1910 C   0  0  0  0  0  0  0  0  0  0  0  0
   -7.2050   17.2990  -33.0640 C   0  0  0  0  0  0  0  0  0  0  0  0
   -7.6570   18.6200  -32.4240 C   0  0  0  0  0  0  0  0  0  0  0  0
   -6.1610   22.0660  -32.6910 N   0  0  0  0  0  0  0  0  0  0  0  0
   -6.1700   23.2730  -32.0620 C   0  0  0  0  0  0  0  0  0  0  0  0
   -3.4800   24.2270  -30.5340 N   0  0  0  0  0  0  0  0  0  0  0  0
   -2.4960   23.4090  -30.0730 C   0  0  0  0  0  0  0  0  0  0  0  0
   -1.7397   22.2815  -28.3787 H   0  0  0  0  0  0  0  0  0  0  0  0
   -3.6314   22.9651  -26.8888 H   0  0  0  0  0  0  0  0  0  0  0  0
   -5.4247   24.4716  -27.7707 H   0  0  0  0  0  0  0  0  0  0  0  0
   -5.6353   26.4357  -29.7666 H   0  0  0  0  0  0  0  0  0  0  0  0
   -5.3785   25.6545  -31.3824 H   0  0  0  0  0  0  0  0  0  0  0  0
   -7.2132   24.6292  -29.1623 H   0  0  0  0  0  0  0  0  0  0  0  0
   -7.7210   25.4699  -30.6864 H   0  0  0  0  0  0  0  0  0  0  0  0
   -8.4606   22.5797  -29.6300 H   0  0  0  0  0  0  0  0  0  0  0  0
   -8.4212   20.3810  -30.8115 H   0  0  0  0  0  0  0  0  0  0  0  0
   -6.7928   19.3794  -35.0305 H   0  0  0  0  0  0  0  0  0  0  0  0
   -5.5569   20.5226  -34.3843 H   0  0  0  0  0  0  0  0  0  0  0  0
   -4.8623   18.0593  -35.0289 H   0  0  0  0  0  0  0  0  0  0  0  0
   -4.2468   18.8331  -33.4932 H   0  0  0  0  0  0  0  0  0  0  0  0
   -5.3846   16.3179  -33.6726 H   0  0  0  0  0  0  0  0  0  0  0  0
   -5.2553   17.3486  -32.1783 H   0  0  0  0  0  0  0  0  0  0  0  0
   -7.6542   17.2081  -34.0640 H   0  0  0  0  0  0  0  0  0  0  0  0
   -7.5304   16.4635  -32.4267 H   0  0  0  0  0  0  0  0  0  0  0  0
   -8.7284   18.7662  -32.6256 H   0  0  0  0  0  0  0  0  0  0  0  0
   -7.4654   18.5618  -31.3424 H   0  0  0  0  0  0  0  0  0  0  0  0
   -5.5220   21.9400  -33.5070 H   0  0  0  0  0  0  0  0  0  0  0  0
   -5.5213   24.0837  -32.4253 H   0  0  0  0  0  0  0  0  0  0  0  0
   -1.6703   23.1142  -30.7373 H   0  0  0  0  0  0  0  0  0  0  0  0
  1  2  2  0
  2  3  1  0
  3  4  2  0
  4  5  1  0
  5  6  1  0
  6  7  1  0
  7  8  2  0
  8  9  1  0
  9 10  2  0
 10 11  1  0
 11 12  1  0
 12 13  1  0
 13 14  1  0
 14 15  1  0
 15 16  1  0
 10 17  1  0
 17 18  2  0
  4 19  1  0
 19 20  2  0
 20  1  1  0
 18  7  1  0
 16 11  1  0
  1 21  1  0
  2 22  1  0
  3 23  1  0
  5 24  1  0
  5 25  1  0
  6 26  1  0
  6 27  1  0
  8 28  1  0
  9 29  1  0
 12 30  1  0
 12 31  1  0
 13 32  1  0
 13 33  1  0
 14 34  1  0
 14 35  1  0
 15 36  1  0
 15 37  1  0
 16 38  1  0
 16 39  1  0
 17 40  1  0
 18 41  1  0
 20 42  1  0
M  CHG  1  17   1
M  END
>  <UniqueID>  (39) 
37

>  <SMILES>  (39) 
c1ccc(CCc2ccc(N3CCCCC3)[nH+]c2)nc1

>  <Energy>  (39) 
44.54185391297859

>  <Genealogy>  (39) 
c1ccc(CCc2ccc(N3CCCCC3)[nH+]c2)nc1 (protonated)
c1ccc(CCc2ccc(N3CCCCC3)[nH+]c2)nc1 (3D coordinates assigned)
c1ccc(CCc2ccc(N3CCCCC3)[nH+]c2)nc1 (nonaromatic ring conformer: 44.54185391297859 kcal/mol)

>  <smiles>  (39) 
c1ccc(CCc2ccc(N3CCCCC3)nc2)nc1

>  <score_type>  (39) 
oracle

>  <origin>  (39) 
adg

>  <m_score__min__energy>  (39) 
-7.46

>  <m_primary>  (39) 
energy

$$$$
41:0
     RDKit          3D

 44 45  0  0  0  0  0  0  0  0999 V2000
   -0.3190   23.7420  -28.5510 C   0  0  0  0  0  0  0  0  0  0  0  0
   -1.0730   22.9680  -29.5930 C   0  0  0  0  0  0  0  0  0  0  0  0
   -0.4700   21.8790  -30.1490 N   0  0  0  0  0  0  0  0  0  0  0  0
   -1.0750   21.1220  -31.1010 C   0  0  0  0  0  0  0  0  0  0  0  0
   -2.3560   21.4480  -31.5410 C   0  0  0  0  0  0  0  0  0  0  0  0
   -3.0020   22.5580  -30.9990 C   0  0  0  0  0  0  0  0  0  0  0  0
   -2.3660   23.3460  -30.0260 C   0  0  0  0  0  0  0  0  0  0  0  0
   -3.0860   24.5510  -29.4610 C   0  0  0  0  0  0  0  0  0  0  0  0
   -3.8590   25.2330  -30.4940 N   0  0  0  0  0  0  0  0  0  0  0  0
   -5.2620   25.0760  -30.7470 C   0  0  0  0  0  0  0  0  0  0  0  0
   -6.0730   25.7730  -30.0780 O   0  0  0  0  0  0  0  0  0  0  0  0
   -5.7880   24.1580  -31.8210 C   0  0  0  0  0  0  0  0  0  0  0  0
   -6.3320   22.8350  -31.2470 C   0  0  0  0  0  0  0  0  0  0  0  0
   -7.2740   22.1600  -32.1800 N   0  0  0  0  0  0  0  0  0  0  0  0
   -8.6400   22.0750  -31.5810 C   0  0  0  0  0  0  0  0  0  0  0  0
   -9.4390   20.8460  -32.0340 C   0  0  0  0  0  0  0  0  0  0  0  0
   -8.6990   19.5500  -31.6660 C   0  0  0  0  0  0  0  0  0  0  0  0
   -7.1690   19.6790  -31.7950 C   0  0  0  0  0  0  0  0  0  0  0  0
   -6.7870   20.8500  -32.7200 C   0  0  2  0  0  0  0  0  0  0  0  0
   -5.2890   20.8120  -33.0710 C   0  0  0  0  0  0  0  0  0  0  0  0
   -0.6372   23.4154  -27.5500 H   0  0  0  0  0  0  0  0  0  0  0  0
    0.7597   23.5622  -28.6697 H   0  0  0  0  0  0  0  0  0  0  0  0
   -0.5270   24.8156  -28.6697 H   0  0  0  0  0  0  0  0  0  0  0  0
   -0.5532   20.2512  -31.5247 H   0  0  0  0  0  0  0  0  0  0  0  0
   -2.8526   20.8358  -32.3082 H   0  0  0  0  0  0  0  0  0  0  0  0
   -4.0164   22.8183  -31.3356 H   0  0  0  0  0  0  0  0  0  0  0  0
   -3.7664   24.2211  -28.6621 H   0  0  0  0  0  0  0  0  0  0  0  0
   -2.3365   25.2521  -29.0653 H   0  0  0  0  0  0  0  0  0  0  0  0
   -6.5998   24.6707  -32.3578 H   0  0  0  0  0  0  0  0  0  0  0  0
   -4.9522   23.9140  -32.4932 H   0  0  0  0  0  0  0  0  0  0  0  0
   -5.4858   22.1606  -31.0494 H   0  0  0  0  0  0  0  0  0  0  0  0
   -6.8826   23.0696  -30.3241 H   0  0  0  0  0  0  0  0  0  0  0  0
   -8.5371   22.0377  -30.4865 H   0  0  0  0  0  0  0  0  0  0  0  0
   -9.1951   22.9615  -31.9215 H   0  0  0  0  0  0  0  0  0  0  0  0
  -10.4222   20.8528  -31.5407 H   0  0  0  0  0  0  0  0  0  0  0  0
   -9.5595   20.8860  -33.1267 H   0  0  0  0  0  0  0  0  0  0  0  0
   -8.9433   19.2891  -30.6257 H   0  0  0  0  0  0  0  0  0  0  0  0
   -9.0262   18.7705  -32.3697 H   0  0  0  0  0  0  0  0  0  0  0  0
   -6.7379   19.8533  -30.7981 H   0  0  0  0  0  0  0  0  0  0  0  0
   -6.7754   18.7481  -32.2292 H   0  0  0  0  0  0  0  0  0  0  0  0
   -7.3113   20.7329  -33.6799 H   0  0  0  0  0  0  0  0  0  0  0  0
   -4.6957   20.7969  -32.1449 H   0  0  0  0  0  0  0  0  0  0  0  0
   -5.0731   19.9081  -33.6595 H   0  0  0  0  0  0  0  0  0  0  0  0
   -5.0276   21.7038  -33.6595 H   0  0  0  0  0  0  0  0  0  0  0  0
  1  2  1  0
  2  3  2  0
  3  4  1  0
  4  5  2  0
  5  6  1  0
  6  7  2  0
  7  8  1  0
  8  9  1  0
  9 10  1  0
 10 11  2  0
 10 12  1  0
 12 13  1  0
 13 14  1  0
 14 15  1  0
 15 16  1  0
 16 17  1  0
 17 18  1  0
 18 19  1  0
 19 20  1  0
  7  2  1  0
 19 14  1  0
  1 21  1  0
  1 22  1  0
  1 23  1  0
  4 24  1  0
  5 25  1  0
  6 26  1  0
  8 27  1  0
  8 28  1  0
 12 29  1  0
 12 30  1  0
 13 31  1  0
 13 32  1  0
 15 33  1  0
 15 34  1  0
 16 35  1  0
 16 36  1  0
 17 37  1  0
 17 38  1  0
 18 39  1  0
 18 40  1  0
 19 41  1  6
 20 42  1  0
 20 43  1  0
 20 44  1  0
M  CHG  1   9  -1
M  END
>  <UniqueID>  (40) 
38

>  <SMILES>  (40) 
Cc1ncccc1C[N-]C(=O)CCN1CCCC[C@@H]1C

>  <Energy>  (40) 
52.476081016980274

>  <Genealogy>  (40) 
Cc1ncccc1C[N-]C(=O)CCN1CCCCC1C (protonated)
Cc1ncccc1C[N-]C(=O)CCN1CCCC[C@@H]1C (chirality)
Cc1ncccc1C[N-]C(=O)CCN1CCCC[C@@H]1C (3D coordinates assigned)
Cc1ncccc1C[N-]C(=O)CCN1CCCC[C@@H]1C (nonaromatic ring conformer: 52.476081016980274 kcal/mol)

>  <smiles>  (40) 
Cc1ncccc1CNC(=O)CCN1CCCCC1C

>  <score_type>  (40) 
oracle

>  <origin>  (40) 
adg

>  <m_score__min__energy>  (40) 
-9.3699999999999992

>  <m_primary>  (40) 
energy

$$$$
42:0
     RDKit          3D

 31 33  0  0  0  0  0  0  0  0999 V2000
   -2.2140   24.9090  -28.6520 C   0  0  0  0  0  0  0  0  0  0  0  0
   -3.1120   25.2210  -29.7120 O   0  0  0  0  0  0  0  0  0  0  0  0
   -4.1500   24.3820  -30.1440 C   0  0  0  0  0  0  0  0  0  0  0  0
   -5.4820   24.5480  -29.7180 C   0  0  0  0  0  0  0  0  0  0  0  0
   -6.4810   23.6860  -30.1780 C   0  0  0  0  0  0  0  0  0  0  0  0
   -6.1700   22.6490  -31.0720 C   0  0  0  0  0  0  0  0  0  0  0  0
   -7.2000   21.7590  -31.5350 N   0  0  0  0  0  0  0  0  0  0  0  0
   -8.4670   22.0500  -31.9500 C   0  0  0  0  0  0  0  0  0  0  0  0
   -9.0510   23.4280  -31.9860 C   0  0  0  0  0  0  0  0  0  0  0  0
   -9.1770   20.9530  -32.3340 N   0  0  0  0  0  0  0  0  0  0  0  0
   -8.3090   19.9460  -32.1320 C   0  0  0  0  0  0  0  0  0  0  0  0
   -8.4910   18.5880  -32.3650 C   0  0  0  0  0  0  0  0  0  0  0  0
   -7.4060   17.7360  -32.0860 C   0  0  0  0  0  0  0  0  0  0  0  0
   -6.1950   18.2780  -31.5940 C   0  0  0  0  0  0  0  0  0  0  0  0
   -6.0700   19.6230  -31.3850 N   0  0  0  0  0  0  0  0  0  0  0  0
   -7.1330   20.4250  -31.6500 C   0  0  0  0  0  0  0  0  0  0  0  0
   -4.8410   22.4800  -31.4870 C   0  0  0  0  0  0  0  0  0  0  0  0
   -3.8420   23.3430  -31.0280 C   0  0  0  0  0  0  0  0  0  0  0  0
   -2.7121   25.0820  -27.6866 H   0  0  0  0  0  0  0  0  0  0  0  0
   -1.9129   23.8536  -28.7252 H   0  0  0  0  0  0  0  0  0  0  0  0
   -1.3233   25.5504  -28.7252 H   0  0  0  0  0  0  0  0  0  0  0  0
   -5.7370   25.3594  -29.0204 H   0  0  0  0  0  0  0  0  0  0  0  0
   -7.5182   23.8208  -29.8374 H   0  0  0  0  0  0  0  0  0  0  0  0
   -9.2038   23.7885  -30.9580 H   0  0  0  0  0  0  0  0  0  0  0  0
   -8.3622   24.1045  -32.5132 H   0  0  0  0  0  0  0  0  0  0  0  0
  -10.0161   23.4036  -32.5132 H   0  0  0  0  0  0  0  0  0  0  0  0
   -9.4432   18.1955  -32.7513 H   0  0  0  0  0  0  0  0  0  0  0  0
   -7.4991   16.6523  -32.2499 H   0  0  0  0  0  0  0  0  0  0  0  0
   -5.3471   17.6114  -31.3779 H   0  0  0  0  0  0  0  0  0  0  0  0
   -4.5834   21.6636  -32.1777 H   0  0  0  0  0  0  0  0  0  0  0  0
   -2.8042   23.2037  -31.3651 H   0  0  0  0  0  0  0  0  0  0  0  0
  1  2  1  0
  2  3  1  0
  3  4  2  0
  4  5  1  0
  5  6  2  0
  6  7  1  0
  7  8  1  0
  8  9  1  0
  8 10  2  0
 10 11  1  0
 11 12  2  0
 12 13  1  0
 13 14  2  0
 14 15  1  0
 15 16  2  0
  6 17  1  0
 17 18  2  0
 18  3  1  0
 16  7  1  0
 16 11  1  0
  1 19  1  0
  1 20  1  0
  1 21  1  0
  4 22  1  0
  5 23  1  0
  9 24  1  0
  9 25  1  0
  9 26  1  0
 12 27  1  0
 13 28  1  0
 14 29  1  0
 17 30  1  0
 18 31  1  0
M  END
>  <UniqueID>  (41) 
39

>  <SMILES>  (41) 
COc1ccc(-n2c(C)nc3cccnc32)cc1

>  <Energy>  (41) 
77.22919293259774

>  <Genealogy>  (41) 
COc1ccc(-n2c(C)nc3cccnc32)cc1 (3D coordinates assigned)
COc1ccc(-n2c(C)nc3cccnc32)cc1 (optimized conformer: 77.22919293259774 kcal/mol)

>  <smiles>  (41) 
COc1ccc(-n2c(C)nc3cccnc32)cc1

>  <score_type>  (41) 
oracle

>  <origin>  (41) 
adg

>  <m_score__min__energy>  (41) 
-7.3600000000000003

>  <m_primary>  (41) 
energy

$$$$
43:0
     RDKit          3D

 42 44  0  0  0  0  0  0  0  0999 V2000
   -0.1420   23.0390  -24.1290 C   0  0  0  0  0  0  0  0  0  0  0  0
   -0.1280   22.6860  -25.5090 O   0  0  0  0  0  0  0  0  0  0  0  0
   -0.8690   23.3440  -26.5020 C   0  0  0  0  0  0  0  0  0  0  0  0
   -0.8420   24.7440  -26.6600 C   0  0  0  0  0  0  0  0  0  0  0  0
   -1.5970   25.3580  -27.6650 C   0  0  0  0  0  0  0  0  0  0  0  0
   -2.3870   24.5850  -28.5220 C   0  0  0  0  0  0  0  0  0  0  0  0
   -3.0990   25.1720  -29.4780 O   0  0  0  0  0  0  0  0  0  0  0  0
   -3.8690   24.4920  -30.3220 C   0  0  0  0  0  0  0  0  0  0  0  0
   -4.5050   25.1170  -31.2120 O   0  0  0  0  0  0  0  0  0  0  0  0
   -3.9700   23.0900  -30.2240 C   0  0  0  0  0  0  0  0  0  0  0  0
   -4.8070   22.2900  -31.1920 C   0  0  0  0  0  0  0  0  0  0  0  0
   -6.0730   22.9920  -31.4640 N   0  0  0  0  0  0  0  0  0  0  0  0
   -7.1610   22.1310  -31.9750 C   0  0  0  0  0  0  0  0  0  0  0  0
   -8.3000   21.9210  -30.9530 C   0  0  0  0  0  0  0  0  0  0  0  0
   -9.5060   21.2090  -31.5960 C   0  0  0  0  0  0  0  0  0  0  0  0
   -9.1120   20.2080  -32.7040 C   0  0  0  0  0  0  0  0  0  0  0  0
   -7.6940   19.6600  -32.5060 C   0  0  0  0  0  0  0  0  0  0  0  0
   -6.6390   20.7820  -32.5480 C   0  0  0  0  0  0  0  0  0  0  0  0
   -3.2190   22.4370  -29.2380 C   0  0  0  0  0  0  0  0  0  0  0  0
   -2.4210   23.1840  -28.3680 C   0  0  0  0  0  0  0  0  0  0  0  0
   -1.6610   22.5720  -27.3610 C   0  0  0  0  0  0  0  0  0  0  0  0
   -0.1058   22.1260  -23.5166 H   0  0  0  0  0  0  0  0  0  0  0  0
    0.7319   23.6674  -23.9024 H   0  0  0  0  0  0  0  0  0  0  0  0
   -1.0630   23.5962  -23.9024 H   0  0  0  0  0  0  0  0  0  0  0  0
   -0.2234   25.3579  -25.9889 H   0  0  0  0  0  0  0  0  0  0  0  0
   -1.5693   26.4515  -27.7815 H   0  0  0  0  0  0  0  0  0  0  0  0
   -4.2523   22.1616  -32.1332 H   0  0  0  0  0  0  0  0  0  0  0  0
   -5.0273   21.3066  -30.7512 H   0  0  0  0  0  0  0  0  0  0  0  0
   -5.9020   23.7520  -32.1660 H   0  0  0  0  0  0  0  0  0  0  0  0
   -7.6011   22.6854  -32.8170 H   0  0  0  0  0  0  0  0  0  0  0  0
   -7.9251   21.3087  -30.1196 H   0  0  0  0  0  0  0  0  0  0  0  0
   -8.6302   22.9070  -30.5941 H   0  0  0  0  0  0  0  0  0  0  0  0
  -10.0474   20.6626  -30.8097 H   0  0  0  0  0  0  0  0  0  0  0  0
  -10.1263   21.9855  -32.0674 H   0  0  0  0  0  0  0  0  0  0  0  0
   -9.8221   19.3680  -32.6924 H   0  0  0  0  0  0  0  0  0  0  0  0
   -9.1393   20.7392  -33.6668 H   0  0  0  0  0  0  0  0  0  0  0  0
   -7.6396   19.1558  -31.5299 H   0  0  0  0  0  0  0  0  0  0  0  0
   -7.4803   18.9573  -33.3248 H   0  0  0  0  0  0  0  0  0  0  0  0
   -5.7667   20.4648  -31.9577 H   0  0  0  0  0  0  0  0  0  0  0  0
   -6.3816   20.9514  -33.6040 H   0  0  0  0  0  0  0  0  0  0  0  0
   -3.2575   21.3413  -29.1492 H   0  0  0  0  0  0  0  0  0  0  0  0
   -1.6871   21.4784  -27.2450 H   0  0  0  0  0  0  0  0  0  0  0  0
  1  2  1  0
  2  3  1  0
  3  4  2  0
  4  5  1  0
  5  6  2  0
  6  7  1  0
  7  8  1  0
  8  9  2  0
  8 10  1  0
 10 11  1  0
 11 12  1  0
 12 13  1  0
 13 14  1  0
 14 15  1  0
 15 16  1  0
 16 17  1  0
 17 18  1  0
 10 19  2  0
 19 20  1  0
 20 21  2  0
 21  3  1  0
 20  6  1  0
 18 13  1  0
  1 22  1  0
  1 23  1  0
  1 24  1  0
  4 25  1  0
  5 26  1  0
 11 27  1  0
 11 28  1  0
 12 29  1  0
 13 30  1  0
 14 31  1  0
 14 32  1  0
 15 33  1  0
 15 34  1  0
 16 35  1  0
 16 36  1  0
 17 37  1  0
 17 38  1  0
 18 39  1  0
 18 40  1  0
 19 41  1  0
 21 42  1  0
M  END
>  <UniqueID>  (42) 
40

>  <SMILES>  (42) 
COc1ccc2oc(=O)c(CNC3CCCCC3)cc2c1

>  <Energy>  (42) 
52.485562339053615

>  <Genealogy>  (42) 
COc1ccc2oc(=O)c(CNC3CCCCC3)cc2c1 (3D coordinates assigned)
COc1ccc2oc(=O)c(CNC3CCCCC3)cc2c1 (nonaromatic ring conformer: 52.485562339053615 kcal/mol)

>  <smiles>  (42) 
COc1ccc2oc(=O)c(CNC3CCCCC3)cc2c1

>  <score_type>  (42) 
oracle

>  <origin>  (42) 
adg

>  <m_score__min__energy>  (42) 
-8.25

>  <m_primary>  (42) 
energy

$$$$
44:0
     RDKit          3D

 54 57  0  0  0  0  0  0  0  0999 V2000
   -5.2290   16.7340  -32.3420 C   0  0  0  0  0  0  0  0  0  0  0  0
   -6.0140   17.5590  -33.2690 N   0  0  0  0  0  0  0  0  0  0  0  0
   -7.4430   17.7820  -33.0070 C   0  0  0  0  0  0  0  0  0  0  0  0
   -7.6770   19.2130  -32.6200 C   0  0  0  0  0  0  0  0  0  0  0  0
   -8.9750   19.6790  -32.3650 C   0  0  0  0  0  0  0  0  0  0  0  0
   -9.1600   21.0050  -31.9680 C   0  0  0  0  0  0  0  0  0  0  0  0
   -8.0560   21.8490  -31.8250 C   0  0  0  0  0  0  0  0  0  0  0  0
   -6.7780   21.3490  -32.0810 C   0  0  0  0  0  0  0  0  0  0  0  0
   -6.6170   20.0550  -32.4660 N   0  0  0  0  0  0  0  0  0  0  0  0
   -5.3880   18.1740  -34.4210 C   0  0  0  0  0  0  0  0  0  0  0  0
   -6.1150   18.7200  -35.2940 O   0  0  0  0  0  0  0  0  0  0  0  0
   -3.8830   18.1030  -34.6210 C   0  0  0  0  0  0  0  0  0  0  0  0
   -3.0730   18.8680  -33.6470 N   0  0  0  0  0  0  0  0  0  0  0  0
   -1.6150   18.8270  -33.8960 C   0  0  0  0  0  0  0  0  0  0  0  0
   -0.8640   19.2580  -32.6280 C   0  0  0  0  0  0  0  0  0  0  0  0
   -1.4860   20.4580  -32.0720 N   0  0  0  0  0  0  0  0  0  0  0  0
   -1.0100   21.2800  -31.1250 C   0  0  0  0  0  0  0  0  0  0  0  0
   -1.9930   22.2160  -30.8680 C   0  0  0  0  0  0  0  0  0  0  0  0
   -1.8930   23.3330  -29.8750 C   0  0  0  0  0  0  0  0  0  0  0  0
   -3.1840   23.5440  -29.2220 N   0  0  0  0  0  0  0  0  0  0  0  0
   -4.1620   24.4650  -29.7450 C   0  0  0  0  0  0  0  0  0  0  0  0
   -3.8570   25.2050  -30.7180 O   0  0  0  0  0  0  0  0  0  0  0  0
   -5.5590   24.5870  -29.1820 C   0  0  0  0  0  0  0  0  0  0  0  0
   -6.7150   24.2300  -30.1060 C   0  0  0  0  0  0  0  0  0  0  0  0
   -6.4350   25.6890  -29.7590 C   0  0  0  0  0  0  0  0  0  0  0  0
   -3.0800   21.9830  -31.6380 N   0  0  0  0  0  0  0  0  0  0  0  0
   -2.7300   20.8880  -32.3460 C   0  0  0  0  0  0  0  0  0  0  0  0
   -3.5780   20.2350  -33.3920 C   0  0  0  0  0  0  0  0  0  0  0  0
   -5.4843   17.0023  -31.3062 H   0  0  0  0  0  0  0  0  0  0  0  0
   -5.4580   15.6717  -32.5127 H   0  0  0  0  0  0  0  0  0  0  0  0
   -4.1567   16.9099  -32.5127 H   0  0  0  0  0  0  0  0  0  0  0  0
   -8.0201   17.5511  -33.9146 H   0  0  0  0  0  0  0  0  0  0  0  0
   -7.7653   17.1280  -32.1833 H   0  0  0  0  0  0  0  0  0  0  0  0
   -9.8386   19.0068  -32.4766 H   0  0  0  0  0  0  0  0  0  0  0  0
  -10.1731   21.3842  -31.7683 H   0  0  0  0  0  0  0  0  0  0  0  0
   -8.1921   22.8954  -31.5143 H   0  0  0  0  0  0  0  0  0  0  0  0
   -5.9002   22.0027  -31.9711 H   0  0  0  0  0  0  0  0  0  0  0  0
   -3.5822   17.0469  -34.5563 H   0  0  0  0  0  0  0  0  0  0  0  0
   -3.6872   18.5611  -35.6017 H   0  0  0  0  0  0  0  0  0  0  0  0
   -1.3185   17.8030  -34.1669 H   0  0  0  0  0  0  0  0  0  0  0  0
   -1.3654   19.5124  -34.7193 H   0  0  0  0  0  0  0  0  0  0  0  0
   -0.9046   18.4474  -31.8855 H   0  0  0  0  0  0  0  0  0  0  0  0
    0.1844   19.4745  -32.8810 H   0  0  0  0  0  0  0  0  0  0  0  0
   -0.0227   21.2201  -30.6436 H   0  0  0  0  0  0  0  0  0  0  0  0
   -1.1390   23.0780  -29.1158 H   0  0  0  0  0  0  0  0  0  0  0  0
   -1.6006   24.2548  -30.3993 H   0  0  0  0  0  0  0  0  0  0  0  0
   -3.3830   22.9760  -28.3710 H   0  0  0  0  0  0  0  0  0  0  0  0
   -5.2532   24.2824  -28.1702 H   0  0  0  0  0  0  0  0  0  0  0  0
   -6.5132   23.8573  -31.1211 H   0  0  0  0  0  0  0  0  0  0  0  0
   -7.5906   23.5677  -30.0373 H   0  0  0  0  0  0  0  0  0  0  0  0
   -6.0315   26.3688  -30.5239 H   0  0  0  0  0  0  0  0  0  0  0  0
   -7.0253   26.5154  -29.3363 H   0  0  0  0  0  0  0  0  0  0  0  0
   -4.6192   20.1826  -33.0410 H   0  0  0  0  0  0  0  0  0  0  0  0
   -3.5357   20.8229  -34.3208 H   0  0  0  0  0  0  0  0  0  0  0  0
  1  2  1  0
  2  3  1  0
  3  4  1  0
  4  5  2  0
  5  6  1  0
  6  7  2  0
  7  8  1  0
  8  9  2  0
  2 10  1  0
 10 11  2  0
 10 12  1  0
 12 13  1  0
 13 14  1  0
 14 15  1  0
 15 16  1  0
 16 17  1  0
 17 18  2  0
 18 19  1  0
 19 20  1  0
 20 21  1  0
 21 22  2  0
 21 23  1  0
 23 24  1  0
 24 25  1  0
 18 26  1  0
 26 27  2  0
 27 28  1  0
  9  4  1  0
 28 13  1  0
 27 16  1  0
 25 23  1  0
  1 29  1  0
  1 30  1  0
  1 31  1  0
  3 32  1  0
  3 33  1  0
  5 34  1  0
  6 35  1  0
  7 36  1  0
  8 37  1  0
 12 38  1  0
 12 39  1  0
 14 40  1  0
 14 41  1  0
 15 42  1  0
 15 43  1  0
 17 44  1  0
 19 45  1  0
 19 46  1  0
 20 47  1  0
 23 48  1  0
 24 49  1  0
 24 50  1  0
 25 51  1  0
 25 52  1  0
 28 53  1  0
 28 54  1  0
M  END
>  <UniqueID>  (43) 
41

>  <SMILES>  (43) 
CN(Cc1ccccn1)C(=O)CN1CCn2cc(CNC(=O)C3CC3)nc2C1

>  <Energy>  (43) 
354.4541603596768

>  <Genealogy>  (43) 
CN(Cc1ccccn1)C(=O)CN1CCn2cc(CNC(=O)C3CC3)nc2C1 (3D coordinates assigned)
CN(Cc1ccccn1)C(=O)CN1CCn2cc(CNC(=O)C3CC3)nc2C1 (nonaromatic ring conformer: 354.4541603596768 kcal/mol)

>  <smiles>  (43) 
CN(Cc1ccccn1)C(=O)CN1CCn2cc(CNC(=O)C3CC3)nc2C1

>  <score_type>  (43) 
oracle

>  <origin>  (43) 
adg

>  <m_score__min__energy>  (43) 
-8.6699999999999999

>  <m_primary>  (43) 
energy

$$$$
45:0
     RDKit          3D

 28 29  0  0  0  0  0  0  0  0999 V2000
   -9.1100   18.1400  -31.9680 C   0  0  0  0  0  0  0  0  0  0  0  0
   -8.2290   19.3530  -31.9660 C   0  0  0  0  0  0  0  0  0  0  0  0
   -6.8330   19.2140  -31.9310 C   0  0  0  0  0  0  0  0  0  0  0  0
   -6.0120   20.3440  -31.8900 C   0  0  0  0  0  0  0  0  0  0  0  0
   -6.5730   21.6320  -31.8570 C   0  0  0  0  0  0  0  0  0  0  0  0
   -5.6810   22.8620  -31.8070 C   0  0  0  0  0  0  0  0  0  0  0  0
   -5.5670   23.4850  -30.4640 N   0  0  2  0  0  0  0  0  0  0  0  0
   -6.8710   23.8140  -29.8370 C   0  0  0  0  0  0  0  0  0  0  0  0
   -6.8920   25.3050  -29.6860 C   0  0  0  0  0  0  0  0  0  0  0  0
   -5.7460   25.8360  -30.0560 C   0  0  0  0  0  0  0  0  0  0  0  0
   -4.9050   24.7550  -30.5020 C   0  0  0  0  0  0  0  0  0  0  0  0
   -3.7010   24.8970  -30.8420 O   0  0  0  0  0  0  0  0  0  0  0  0
   -7.9710   21.7670  -31.8970 C   0  0  0  0  0  0  0  0  0  0  0  0
   -8.7920   20.6370  -31.9380 C   0  0  0  0  0  0  0  0  0  0  0  0
   -9.3263   17.8422  -30.9314 H   0  0  0  0  0  0  0  0  0  0  0  0
  -10.0518   18.3717  -32.4870 H   0  0  0  0  0  0  0  0  0  0  0  0
   -8.5984   17.3161  -32.4870 H   0  0  0  0  0  0  0  0  0  0  0  0
   -6.3827   18.2104  -31.9359 H   0  0  0  0  0  0  0  0  0  0  0  0
   -4.9185   20.2244  -31.8835 H   0  0  0  0  0  0  0  0  0  0  0  0
   -4.6732   22.5693  -32.1368 H   0  0  0  0  0  0  0  0  0  0  0  0
   -6.1464   23.6131  -32.4621 H   0  0  0  0  0  0  0  0  0  0  0  0
   -5.0250   22.8470  -29.8360 H   0  0  0  0  0  0  0  0  0  0  0  0
   -7.6991   23.4833  -30.4811 H   0  0  0  0  0  0  0  0  0  0  0  0
   -6.9907   23.3090  -28.8671 H   0  0  0  0  0  0  0  0  0  0  0  0
   -7.7528   25.8803  -29.3145 H   0  0  0  0  0  0  0  0  0  0  0  0
   -5.4807   26.9032  -30.0296 H   0  0  0  0  0  0  0  0  0  0  0  0
   -8.4227   22.7700  -31.8960 H   0  0  0  0  0  0  0  0  0  0  0  0
   -9.8856   20.7553  -31.9484 H   0  0  0  0  0  0  0  0  0  0  0  0
  1  2  1  0
  2  3  2  0
  3  4  1  0
  4  5  2  0
  5  6  1  0
  6  7  1  0
  7  8  1  0
  8  9  1  0
  9 10  2  0
 10 11  1  0
 11 12  2  0
  5 13  1  0
 13 14  2  0
 14  2  1  0
 11  7  1  0
  1 15  1  0
  1 16  1  0
  1 17  1  0
  3 18  1  0
  4 19  1  0
  6 20  1  0
  6 21  1  0
  7 22  1  1
  8 23  1  0
  8 24  1  0
  9 25  1  0
 10 26  1  0
 13 27  1  0
 14 28  1  0
M  CHG  1   7   1
M  END
>  <UniqueID>  (44) 
42

>  <SMILES>  (44) 
Cc1ccc(C[N@@H+]2CC=CC2=O)cc1

>  <Energy>  (44) 
42.469596636050476

>  <Genealogy>  (44) 
Cc1ccc(C[NH+]2CC=CC2=O)cc1 (protonated)
Cc1ccc(C[N@@H+]2CC=CC2=O)cc1 (chirality)
Cc1ccc(C[N@@H+]2CC=CC2=O)cc1 (3D coordinates assigned)
Cc1ccc(C[N@@H+]2CC=CC2=O)cc1 (nonaromatic ring conformer: 42.469596636050476 kcal/mol)

>  <smiles>  (44) 
Cc1ccc(CN2CC=CC2=O)cc1

>  <score_type>  (44) 
oracle

>  <origin>  (44) 
adg

>  <m_score__min__energy>  (44) 
-5.9800000000000004

>  <m_primary>  (44) 
energy

$$$$
