0:0
     RDKit          3D

 42 43  0  0  0  0  0  0  0  0999 V2000
   -2.6970   24.8990  -26.7200 C   0  0  0  0  0  0  0  0  0  0  0  0
   -4.2080   24.6370  -26.7560 C   0  0  0  0  0  0  0  0  0  0  0  0
   -4.6220   23.8730  -27.9640 N   0  0  0  0  0  0  0  0  0  0  0  0
   -4.2130   22.4440  -27.8630 C   0  0  0  0  0  0  0  0  0  0  0  0
   -3.3430   21.9370  -29.0250 C   0  0  0  0  0  0  0  0  0  0  0  0
   -4.1390   24.5330  -29.2070 C   0  0  0  0  0  0  0  0  0  0  0  0
   -5.2470   25.2380  -30.0130 C   0  0  0  0  0  0  0  0  0  0  0  0
   -5.3330   24.7110  -31.3410 O   0  0  0  0  0  0  0  0  0  0  0  0
   -5.5770   23.3750  -31.7010 C   0  0  0  0  0  0  0  0  0  0  0  0
   -4.5190   22.6490  -32.2600 C   0  0  0  0  0  0  0  0  0  0  0  0
   -4.6920   21.3200  -32.6540 C   0  0  0  0  0  0  0  0  0  0  0  0
   -5.9340   20.6920  -32.4860 C   0  0  0  0  0  0  0  0  0  0  0  0
   -6.1200   19.3590  -32.8830 C   0  0  0  0  0  0  0  0  0  0  0  0
   -7.3710   18.7310  -32.7100 C   0  0  0  0  0  0  0  0  0  0  0  0
   -7.6050   17.3700  -33.1030 N   0  0  0  0  0  0  0  0  0  0  0  0
   -6.6910   16.5750  -33.4960 C   0  0  0  0  0  0  0  0  0  0  0  0
   -5.5350   15.5700  -33.9940 S   0  0  0  0  0  0  0  0  0  0  0  0
   -8.4250   19.4530  -32.1380 C   0  0  0  0  0  0  0  0  0  0  0  0
   -8.2480   20.7800  -31.7390 C   0  0  0  0  0  0  0  0  0  0  0  0
   -7.0070   21.4090  -31.9100 C   0  0  0  0  0  0  0  0  0  0  0  0
   -6.8220   22.7430  -31.5130 C   0  0  0  0  0  0  0  0  0  0  0  0
   -2.3598   24.9575  -25.6746 H   0  0  0  0  0  0  0  0  0  0  0  0
   -2.1704   24.0788  -27.2298 H   0  0  0  0  0  0  0  0  0  0  0  0
   -2.4773   25.8486  -27.2298 H   0  0  0  0  0  0  0  0  0  0  0  0
   -4.4884   24.0622  -25.8610 H   0  0  0  0  0  0  0  0  0  0  0  0
   -4.7171   25.6117  -26.7845 H   0  0  0  0  0  0  0  0  0  0  0  0
   -5.6680   23.8680  -27.9810 H   0  0  0  0  0  0  0  0  0  0  0  0
   -3.6452   22.3161  -26.9296 H   0  0  0  0  0  0  0  0  0  0  0  0
   -5.1411   21.8542  -27.8917 H   0  0  0  0  0  0  0  0  0  0  0  0
   -2.4584   21.4215  -28.6229 H   0  0  0  0  0  0  0  0  0  0  0  0
   -3.9263   21.2374  -29.6417 H   0  0  0  0  0  0  0  0  0  0  0  0
   -3.0219   22.7894  -29.6417 H   0  0  0  0  0  0  0  0  0  0  0  0
   -3.3830   25.2823  -28.9295 H   0  0  0  0  0  0  0  0  0  0  0  0
   -3.7323   23.7397  -29.8513 H   0  0  0  0  0  0  0  0  0  0  0  0
   -6.2110   25.0895  -29.5044 H   0  0  0  0  0  0  0  0  0  0  0  0
   -5.0046   26.3090  -30.0772 H   0  0  0  0  0  0  0  0  0  0  0  0
   -3.5389   23.1310  -32.3907 H   0  0  0  0  0  0  0  0  0  0  0  0
   -3.8519   20.7651  -33.0970 H   0  0  0  0  0  0  0  0  0  0  0  0
   -5.2853   18.8006  -33.3318 H   0  0  0  0  0  0  0  0  0  0  0  0
   -9.4038   18.9700  -32.0011 H   0  0  0  0  0  0  0  0  0  0  0  0
   -9.0855   21.3333  -31.2890 H   0  0  0  0  0  0  0  0  0  0  0  0
   -7.6533   23.2974  -31.0529 H   0  0  0  0  0  0  0  0  0  0  0  0
  1  2  1  0
  2  3  1  0
  3  4  1  0
  4  5  1  0
  3  6  1  0
  6  7  1  0
  7  8  1  0
  8  9  1  0
  9 10  2  0
 10 11  1  0
 11 12  2  0
 12 13  1  0
 13 14  2  0
 14 15  1  0
 15 16  2  0
 16 17  2  0
 14 18  1  0
 18 19  2  0
 19 20  1  0
 20 21  2  0
 21  9  1  0
 20 12  1  0
  1 22  1  0
  1 23  1  0
  1 24  1  0
  2 25  1  0
  2 26  1  0
  3 27  1  0
  4 28  1  0
  4 29  1  0
  5 30  1  0
  5 31  1  0
  5 32  1  0
  6 33  1  0
  6 34  1  0
  7 35  1  0
  7 36  1  0
 10 37  1  0
 11 38  1  0
 13 39  1  0
 18 40  1  0
 19 41  1  0
 21 42  1  0
M  CHG  1   3   1
M  END
>  <UniqueID>  (1) 
1

>  <SMILES>  (1) 
CC[NH+](CC)CCOc1ccc2cc(N=C=S)ccc2c1

>  <Energy>  (1) 
50.7111904780144

>  <Genealogy>  (1) 
CC[NH+](CC)CCOc1ccc2cc(N=C=S)ccc2c1 (protonated)
CC[NH+](CC)CCOc1ccc2cc(N=C=S)ccc2c1 (3D coordinates assigned)
CC[NH+](CC)CCOc1ccc2cc(N=C=S)ccc2c1 (optimized conformer: 50.7111904780144 kcal/mol)

>  <smiles>  (1) 
CCN(CC)CCOc1ccc2cc(N=C=S)ccc2c1

>  <score_type>  (1) 
oracle

>  <origin>  (1) 
adg

>  <m_score__min__energy>  (1) 
-6.3899999999999997

>  <m_primary>  (1) 
energy

$$$$
1:0
     RDKit          3D

 42 44  0  0  0  0  0  0  0  0999 V2000
   -5.6770   25.7950  -30.4540 C   0  0  0  0  0  0  0  0  0  0  0  0
   -6.4130   24.8310  -29.8950 C   0  0  0  0  0  0  0  0  0  0  0  0
   -5.7870   23.5330  -29.4660 C   0  0  0  0  0  0  0  0  0  0  0  0
   -4.3760   23.7560  -28.9810 C   0  0  0  0  0  0  0  0  0  0  0  0
   -4.1390   23.9870  -27.6150 C   0  0  0  0  0  0  0  0  0  0  0  0
   -2.8370   24.1670  -27.1440 C   0  0  0  0  0  0  0  0  0  0  0  0
   -1.7590   24.1060  -28.0280 C   0  0  0  0  0  0  0  0  0  0  0  0
   -1.9790   23.8610  -29.3850 C   0  0  0  0  0  0  0  0  0  0  0  0
   -3.2870   23.6790  -29.8760 C   0  0  0  0  0  0  0  0  0  0  0  0
   -3.5410   23.4210  -31.2320 O   0  0  0  0  0  0  0  0  0  0  0  0
   -3.0280   22.3080  -31.9560 C   0  0  0  0  0  0  0  0  0  0  0  0
   -3.9810   21.1540  -31.8400 C   0  0  0  0  0  0  0  0  0  0  0  0
   -4.2010   20.6610  -30.7440 O   0  0  0  0  0  0  0  0  0  0  0  0
   -4.6450   20.5750  -33.0600 C   0  0  0  0  0  0  0  0  0  0  0  0
   -6.0260   20.1910  -32.7640 N   0  0  0  0  0  0  0  0  0  0  0  0
   -6.5310   18.9350  -32.8120 C   0  0  0  0  0  0  0  0  0  0  0  0
   -7.8920   18.9440  -32.5260 C   0  0  0  0  0  0  0  0  0  0  0  0
   -8.2080   20.2680  -32.3030 C   0  0  0  0  0  0  0  0  0  0  0  0
   -9.4270   20.8660  -31.9920 C   0  0  0  0  0  0  0  0  0  0  0  0
   -9.4520   22.2630  -31.8360 C   0  0  0  0  0  0  0  0  0  0  0  0
   -8.2720   23.0230  -31.9950 C   0  0  0  0  0  0  0  0  0  0  0  0
   -7.0540   22.3910  -32.3070 C   0  0  0  0  0  0  0  0  0  0  0  0
   -7.0580   21.0000  -32.4540 C   0  0  0  0  0  0  0  0  0  0  0  0
   -6.1498   26.7391  -30.7625 H   0  0  0  0  0  0  0  0  0  0  0  0
   -4.5979   25.6450  -30.6059 H   0  0  0  0  0  0  0  0  0  0  0  0
   -7.4915   24.9887  -29.7465 H   0  0  0  0  0  0  0  0  0  0  0  0
   -6.3838   23.0960  -28.6519 H   0  0  0  0  0  0  0  0  0  0  0  0
   -5.7608   22.8509  -30.3286 H   0  0  0  0  0  0  0  0  0  0  0  0
   -4.9846   24.0262  -26.9126 H   0  0  0  0  0  0  0  0  0  0  0  0
   -2.6608   24.3571  -26.0750 H   0  0  0  0  0  0  0  0  0  0  0  0
   -0.7343   24.2511  -27.6553 H   0  0  0  0  0  0  0  0  0  0  0  0
   -1.1246   23.8097  -30.0759 H   0  0  0  0  0  0  0  0  0  0  0  0
   -2.9107   22.5818  -33.0149 H   0  0  0  0  0  0  0  0  0  0  0  0
   -2.0506   22.0198  -31.5417 H   0  0  0  0  0  0  0  0  0  0  0  0
   -4.6434   21.3267  -33.8631 H   0  0  0  0  0  0  0  0  0  0  0  0
   -4.0885   19.6797  -33.3743 H   0  0  0  0  0  0  0  0  0  0  0  0
   -5.9459   18.0331  -33.0449 H   0  0  0  0  0  0  0  0  0  0  0  0
   -8.5714   18.0798  -32.4861 H   0  0  0  0  0  0  0  0  0  0  0  0
  -10.3404   20.2648  -31.8724 H   0  0  0  0  0  0  0  0  0  0  0  0
  -10.3974   22.7679  -31.5883 H   0  0  0  0  0  0  0  0  0  0  0  0
   -8.3054   24.1158  -31.8742 H   0  0  0  0  0  0  0  0  0  0  0  0
   -6.1284   22.9723  -32.4313 H   0  0  0  0  0  0  0  0  0  0  0  0
  1  2  2  0
  2  3  1  0
  3  4  1  0
  4  5  2  0
  5  6  1  0
  6  7  2  0
  7  8  1  0
  8  9  2  0
  9 10  1  0
 10 11  1  0
 11 12  1  0
 12 13  2  0
 12 14  1  0
 14 15  1  0
 15 16  1  0
 16 17  2  0
 17 18  1  0
 18 19  2  0
 19 20  1  0
 20 21  2  0
 21 22  1  0
 22 23  2  0
  9  4  1  0
 23 15  1  0
 23 18  1  0
  1 24  1  0
  1 25  1  0
  2 26  1  0
  3 27  1  0
  3 28  1  0
  5 29  1  0
  6 30  1  0
  7 31  1  0
  8 32  1  0
 11 33  1  0
 11 34  1  0
 14 35  1  0
 14 36  1  0
 16 37  1  0
 17 38  1  0
 19 39  1  0
 20 40  1  0
 21 41  1  0
 22 42  1  0
M  END
>  <UniqueID>  (2) 
2

>  <SMILES>  (2) 
C=CCc1ccccc1OCC(=O)Cn1ccc2ccccc21

>  <Energy>  (2) 
69.85954543560936

>  <Genealogy>  (2) 
C=CCc1ccccc1OCC(=O)Cn1ccc2ccccc21 (3D coordinates assigned)
C=CCc1ccccc1OCC(=O)Cn1ccc2ccccc21 (optimized conformer: 69.85954543560936 kcal/mol)

>  <smiles>  (2) 
C=CCc1ccccc1OCC(=O)Cn1ccc2ccccc21

>  <score_type>  (2) 
oracle

>  <origin>  (2) 
adg

>  <m_score__min__energy>  (2) 
-8.4100000000000001

>  <m_primary>  (2) 
energy

$$$$
2:0
     RDKit          3D

 51 52  0  0  0  0  0  0  0  0999 V2000
   -8.2690   18.1730  -31.9820 C   0  0  0  0  0  0  0  0  0  0  0  0
   -8.7450   19.4300  -31.2610 C   0  0  0  0  0  0  0  0  0  0  0  0
   -8.0570   20.6250  -31.8060 N   0  0  0  0  0  0  0  0  0  0  0  0
   -8.9650   21.7930  -31.8510 C   0  0  0  0  0  0  0  0  0  0  0  0
   -8.1610   23.0880  -31.9390 C   0  0  0  0  0  0  0  0  0  0  0  0
   -7.4450   20.3510  -33.1300 C   0  0  0  0  0  0  0  0  0  0  0  0
   -5.9330   20.5900  -33.0680 C   0  0  0  0  0  0  0  0  0  0  0  0
   -5.5590   21.3240  -31.8600 N   0  0  0  0  0  0  0  0  0  0  0  0
   -4.3560   22.1060  -31.7760 C   0  0  0  0  0  0  0  0  0  0  0  0
   -3.5780   22.1610  -32.7690 O   0  0  0  0  0  0  0  0  0  0  0  0
   -3.9930   22.8250  -30.5310 C   0  0  0  0  0  0  0  0  0  0  0  0
   -4.9320   22.9360  -29.4900 C   0  0  0  0  0  0  0  0  0  0  0  0
   -4.6110   23.6150  -28.3110 C   0  0  0  0  0  0  0  0  0  0  0  0
   -3.3380   24.1890  -28.1490 C   0  0  0  0  0  0  0  0  0  0  0  0
   -2.9680   24.8820  -26.9830 C   0  0  0  0  0  0  0  0  0  0  0  0
   -3.8030   25.0110  -26.0430 O   0  0  0  0  0  0  0  0  0  0  0  0
   -1.7060   25.4140  -26.8670 N   0  0  0  0  0  0  0  0  0  0  0  0
   -1.3200   26.1630  -25.6530 C   0  0  0  0  0  0  0  0  0  0  0  0
   -0.6550   25.2370  -24.6250 C   0  0  0  0  0  0  0  0  0  0  0  0
   -0.4300   23.9520  -25.1750 O   0  0  0  0  0  0  0  0  0  0  0  0
   -0.1840   23.0140  -24.1500 C   0  0  0  0  0  0  0  0  0  0  0  0
   -0.8140   25.2830  -27.9020 C   0  0  0  0  0  0  0  0  0  0  0  0
    0.3430   25.7800  -27.8250 O   0  0  0  0  0  0  0  0  0  0  0  0
   -1.1630   24.6170  -29.0320 N   0  0  0  0  0  0  0  0  0  0  0  0
   -2.3930   24.0700  -29.1810 C   0  0  0  0  0  0  0  0  0  0  0  0
   -2.7160   23.3900  -30.3610 C   0  0  0  0  0  0  0  0  0  0  0  0
   -7.9810   17.4124  -31.2414 H   0  0  0  0  0  0  0  0  0  0  0  0
   -9.0813   17.7820  -32.6123 H   0  0  0  0  0  0  0  0  0  0  0  0
   -7.4014   18.4181  -32.6123 H   0  0  0  0  0  0  0  0  0  0  0  0
   -9.8304   19.5402  -31.4013 H   0  0  0  0  0  0  0  0  0  0  0  0
   -8.5118   19.3392  -30.1898 H   0  0  0  0  0  0  0  0  0  0  0  0
   -9.6179   21.7110  -32.7325 H   0  0  0  0  0  0  0  0  0  0  0  0
   -9.5706   21.8102  -30.9329 H   0  0  0  0  0  0  0  0  0  0  0  0
   -7.9364   23.4498  -30.9248 H   0  0  0  0  0  0  0  0  0  0  0  0
   -7.2206   22.8999  -32.4778 H   0  0  0  0  0  0  0  0  0  0  0  0
   -8.7467   23.8473  -32.4778 H   0  0  0  0  0  0  0  0  0  0  0  0
   -7.6372   19.3049  -33.4107 H   0  0  0  0  0  0  0  0  0  0  0  0
   -7.8867   21.0253  -33.8784 H   0  0  0  0  0  0  0  0  0  0  0  0
   -5.4165   19.6188  -33.0712 H   0  0  0  0  0  0  0  0  0  0  0  0
   -5.6407   21.1898  -33.9425 H   0  0  0  0  0  0  0  0  0  0  0  0
   -6.1750   21.2200  -31.0250 H   0  0  0  0  0  0  0  0  0  0  0  0
   -5.9284   22.4843  -29.6046 H   0  0  0  0  0  0  0  0  0  0  0  0
   -5.3571   23.7005  -27.5072 H   0  0  0  0  0  0  0  0  0  0  0  0
   -0.6134   26.9590  -25.9306 H   0  0  0  0  0  0  0  0  0  0  0  0
   -2.2268   26.5933  -25.2029 H   0  0  0  0  0  0  0  0  0  0  0  0
    0.3080   25.6714  -24.3186 H   0  0  0  0  0  0  0  0  0  0  0  0
   -1.3239   25.1363  -23.7576 H   0  0  0  0  0  0  0  0  0  0  0  0
   -0.3112   23.4990  -23.1709 H   0  0  0  0  0  0  0  0  0  0  0  0
   -0.8933   22.1780  -24.2400 H   0  0  0  0  0  0  0  0  0  0  0  0
    0.8442   22.6337  -24.2400 H   0  0  0  0  0  0  0  0  0  0  0  0
   -1.9664   23.2968  -31.1606 H   0  0  0  0  0  0  0  0  0  0  0  0
  1  2  1  0
  2  3  1  0
  3  4  1  0
  4  5  1  0
  3  6  1  0
  6  7  1  0
  7  8  1  0
  8  9  1  0
  9 10  2  0
  9 11  1  0
 11 12  2  0
 12 13  1  0
 13 14  2  0
 14 15  1  0
 15 16  2  0
 15 17  1  0
 17 18  1  0
 18 19  1  0
 19 20  1  0
 20 21  1  0
 17 22  1  0
 22 23  2  0
 22 24  1  0
 24 25  1  0
 25 26  2  0
 26 11  1  0
 25 14  1  0
  1 27  1  0
  1 28  1  0
  1 29  1  0
  2 30  1  0
  2 31  1  0
  4 32  1  0
  4 33  1  0
  5 34  1  0
  5 35  1  0
  5 36  1  0
  6 37  1  0
  6 38  1  0
  7 39  1  0
  7 40  1  0
  8 41  1  0
 12 42  1  0
 13 43  1  0
 18 44  1  0
 18 45  1  0
 19 46  1  0
 19 47  1  0
 21 48  1  0
 21 49  1  0
 21 50  1  0
 26 51  1  0
M  CHG  1  24  -1
M  END
>  <UniqueID>  (3) 
3

>  <SMILES>  (3) 
CCN(CC)CCNC(=O)c1ccc2c(=O)n(CCOC)c(=O)[n-]c2c1

>  <Energy>  (3) 
56.46603440910155

>  <Genealogy>  (3) 
CCN(CC)CCNC(=O)c1ccc2c(=O)n(CCOC)c(=O)[n-]c2c1 (protonated)
CCN(CC)CCNC(=O)c1ccc2c(=O)n(CCOC)c(=O)[n-]c2c1 (3D coordinates assigned)
CCN(CC)CCNC(=O)c1ccc2c(=O)n(CCOC)c(=O)[n-]c2c1 (optimized conformer: 56.46603440910155 kcal/mol)

>  <smiles>  (3) 
CCN(CC)CCNC(=O)c1ccc2c(=O)n(CCOC)c(=O)[nH]c2c1

>  <score_type>  (3) 
oracle

>  <origin>  (3) 
adg

>  <m_score__min__energy>  (3) 
-7.6699999999999999

>  <m_primary>  (3) 
energy

$$$$
3:0
     RDKit          3D

 44 47  0  0  0  0  0  0  0  0999 V2000
   -9.4490   18.7220  -32.3160 C   0  0  0  0  0  0  0  0  0  0  0  0
   -8.8940   20.0670  -32.1890 N   0  0  0  0  0  0  0  0  0  0  0  0
   -9.6540   21.1730  -32.0470 C   0  0  0  0  0  0  0  0  0  0  0  0
   -8.8580   22.2870  -31.9000 C   0  0  0  0  0  0  0  0  0  0  0  0
   -7.5550   21.8450  -31.9510 C   0  0  0  0  0  0  0  0  0  0  0  0
   -7.5970   20.4710  -32.1330 C   0  0  0  0  0  0  0  0  0  0  0  0
   -6.3570   19.6500  -32.2850 C   0  0  0  0  0  0  0  0  0  0  0  0
   -6.0260   18.9290  -31.3010 O   0  0  0  0  0  0  0  0  0  0  0  0
   -5.4710   19.7490  -33.4380 N   0  0  2  0  0  0  0  0  0  0  0  0
   -4.6400   18.5240  -33.6660 C   0  0  0  0  0  0  0  0  0  0  0  0
   -3.1800   18.8370  -33.2290 C   0  0  0  0  0  0  0  0  0  0  0  0
   -3.3670   20.1270  -32.4750 C   0  0  1  0  0  0  0  0  0  0  0  0
   -2.3740   21.2570  -32.3390 C   0  0  0  0  0  0  0  0  0  0  0  0
   -3.2220   22.4670  -32.1610 N   0  0  0  0  0  0  0  0  0  0  0  0
   -3.1360   23.0650  -30.8080 C   0  0  0  0  0  0  0  0  0  0  0  0
   -4.2570   24.0250  -30.4920 C   0  0  0  0  0  0  0  0  0  0  0  0
   -5.4110   23.7240  -29.7950 C   0  0  0  0  0  0  0  0  0  0  0  0
   -6.1240   24.9010  -29.7280 C   0  0  0  0  0  0  0  0  0  0  0  0
   -5.3670   25.8440  -30.3950 C   0  0  0  0  0  0  0  0  0  0  0  0
   -4.2620   25.2920  -30.8390 O   0  0  0  0  0  0  0  0  0  0  0  0
   -4.6090   22.0960  -32.5580 C   0  0  0  0  0  0  0  0  0  0  0  0
   -4.4310   20.7720  -33.2800 C   0  0  2  0  0  0  0  0  0  0  0  0
   -9.6227   18.3010  -31.3147 H   0  0  0  0  0  0  0  0  0  0  0  0
  -10.4014   18.7686  -32.8645 H   0  0  0  0  0  0  0  0  0  0  0  0
   -8.7409   18.0834  -32.8645 H   0  0  0  0  0  0  0  0  0  0  0  0
  -10.7540   21.1832  -32.0485 H   0  0  0  0  0  0  0  0  0  0  0  0
   -9.1964   23.3253  -31.7679 H   0  0  0  0  0  0  0  0  0  0  0  0
   -6.6507   22.4652  -31.8638 H   0  0  0  0  0  0  0  0  0  0  0  0
   -6.0170   19.9140  -34.3070 H   0  0  0  0  0  0  0  0  0  0  0  0
   -5.0362   17.6892  -33.0692 H   0  0  0  0  0  0  0  0  0  0  0  0
   -4.6655   18.2406  -34.7286 H   0  0  0  0  0  0  0  0  0  0  0  0
   -2.7758   18.0463  -32.5799 H   0  0  0  0  0  0  0  0  0  0  0  0
   -2.4648   18.9022  -34.0623 H   0  0  0  0  0  0  0  0  0  0  0  0
   -3.4363   19.7713  -31.4364 H   0  0  0  0  0  0  0  0  0  0  0  0
   -1.7249   21.1031  -31.4644 H   0  0  0  0  0  0  0  0  0  0  0  0
   -1.7032   21.3359  -33.2072 H   0  0  0  0  0  0  0  0  0  0  0  0
   -3.1574   22.2517  -30.0677 H   0  0  0  0  0  0  0  0  0  0  0  0
   -2.2008   23.6431  -30.7729 H   0  0  0  0  0  0  0  0  0  0  0  0
   -5.7006   22.7474  -29.3797 H   0  0  0  0  0  0  0  0  0  0  0  0
   -7.0983   25.0578  -29.2420 H   0  0  0  0  0  0  0  0  0  0  0  0
   -5.6477   26.8985  -30.5333 H   0  0  0  0  0  0  0  0  0  0  0  0
   -5.2524   21.9778  -31.6737 H   0  0  0  0  0  0  0  0  0  0  0  0
   -5.0946   22.8612  -33.1814 H   0  0  0  0  0  0  0  0  0  0  0  0
   -4.3064   21.0725  -34.3308 H   0  0  0  0  0  0  0  0  0  0  0  0
  1  2  1  0
  2  3  1  0
  3  4  2  0
  4  5  1  0
  5  6  2  0
  6  7  1  0
  7  8  2  0
  7  9  1  0
  9 10  1  0
 10 11  1  0
 11 12  1  0
 12 13  1  0
 13 14  1  0
 14 15  1  0
 15 16  1  0
 16 17  2  0
 17 18  1  0
 18 19  2  0
 19 20  1  0
 14 21  1  0
 21 22  1  0
  6  2  1  0
 22  9  1  0
 22 12  1  0
 20 16  1  0
  1 23  1  0
  1 24  1  0
  1 25  1  0
  3 26  1  0
  4 27  1  0
  5 28  1  0
  9 29  1  6
 10 30  1  0
 10 31  1  0
 11 32  1  0
 11 33  1  0
 12 34  1  1
 13 35  1  0
 13 36  1  0
 15 37  1  0
 15 38  1  0
 17 39  1  0
 18 40  1  0
 19 41  1  0
 21 42  1  0
 21 43  1  0
 22 44  1  6
M  CHG  1   9   1
M  END
>  <UniqueID>  (4) 
4

>  <SMILES>  (4) 
Cn1cccc1C(=O)[N@@H+]1CC[C@H]2CN(Cc3ccco3)CC21

>  <Energy>  (4) 
144.91792353916114

>  <Genealogy>  (4) 
Cn1cccc1C(=O)[NH+]1CCC2CN(Cc3ccco3)CC21 (protonated)
Cn1cccc1C(=O)[N@@H+]1CC[C@H]2CN(Cc3ccco3)CC21 (chirality)
Cn1cccc1C(=O)[N@@H+]1CC[C@H]2CN(Cc3ccco3)CC21 (3D coordinates assigned)
Cn1cccc1C(=O)[N@@H+]1CC[C@H]2CN(Cc3ccco3)CC21 (nonaromatic ring conformer: 144.91792353916114 kcal/mol)

>  <smiles>  (4) 
Cn1cccc1C(=O)N1CCC2CN(Cc3ccco3)CC21

>  <score_type>  (4) 
oracle

>  <origin>  (4) 
adg

>  <m_score__min__energy>  (4) 
-7.6200000000000001

>  <m_primary>  (4) 
energy

$$$$
4:0
     RDKit          3D

 68 71  0  0  0  0  0  0  0  0999 V2000
   -2.3390   19.2090  -26.6420 C   0  0  0  0  0  0  0  0  0  0  0  0
   -3.1580   20.1500  -27.3240 O   0  0  0  0  0  0  0  0  0  0  0  0
   -2.6710   21.2700  -28.0130 C   0  0  0  0  0  0  0  0  0  0  0  0
   -1.2930   21.3660  -28.2310 C   0  0  0  0  0  0  0  0  0  0  0  0
   -0.7540   22.4900  -28.8580 C   0  0  0  0  0  0  0  0  0  0  0  0
   -1.5900   23.5190  -29.2950 C   0  0  0  0  0  0  0  0  0  0  0  0
   -2.9810   23.4180  -29.1400 C   0  0  0  0  0  0  0  0  0  0  0  0
   -3.8970   24.5180  -29.6360 C   0  0  0  0  0  0  0  0  0  0  0  0
   -4.6110   24.1830  -30.8880 N   0  0  0  0  0  0  0  0  0  0  0  0
   -4.2600   22.8730  -31.4790 C   0  0  0  0  0  0  0  0  0  0  0  0
   -5.3510   21.8100  -31.2810 C   0  0  0  0  0  0  0  0  0  0  0  0
   -6.6700   22.3030  -31.7070 N   0  0  0  0  0  0  0  0  0  0  0  0
   -7.7720   21.3920  -31.9370 C   0  0  0  0  0  0  0  0  0  0  0  0
   -8.8940   21.8450  -32.2990 O   0  0  0  0  0  0  0  0  0  0  0  0
   -7.6140   19.8980  -31.8260 C   0  0  0  0  0  0  0  0  0  0  0  0
   -7.7520   19.2140  -33.1210 N   0  0  0  0  0  0  0  0  0  0  0  0
   -6.9740   17.9720  -33.3960 C   0  0  0  0  0  0  0  0  0  0  0  0
   -6.2470   17.2900  -32.1950 C   0  0  0  0  0  0  0  0  0  0  0  0
   -4.8150   16.8930  -32.5500 C   0  0  0  0  0  0  0  0  0  0  0  0
   -4.1000   18.0910  -33.0210 N   0  0  0  0  0  0  0  0  0  0  0  0
   -2.6430   17.8530  -33.0770 C   0  0  0  0  0  0  0  0  0  0  0  0
   -1.8970   19.0820  -32.6290 C   0  0  0  0  0  0  0  0  0  0  0  0
   -0.8320   18.9790  -31.7200 C   0  0  0  0  0  0  0  0  0  0  0  0
   -0.1050   20.1150  -31.3530 C   0  0  0  0  0  0  0  0  0  0  0  0
   -0.4390   21.3620  -31.8880 C   0  0  0  0  0  0  0  0  0  0  0  0
   -1.5000   21.4740  -32.7900 C   0  0  0  0  0  0  0  0  0  0  0  0
   -2.2220   20.3380  -33.1680 C   0  0  0  0  0  0  0  0  0  0  0  0
   -4.6260   18.5980  -34.3140 C   0  0  0  0  0  0  0  0  0  0  0  0
   -6.0720   18.1660  -34.6330 C   0  0  0  0  0  0  0  0  0  0  0  0
   -6.8450   23.7460  -31.9290 C   0  0  0  0  0  0  0  0  0  0  0  0
   -6.0480   24.5370  -30.8860 C   0  0  0  0  0  0  0  0  0  0  0  0
   -3.5150   22.2970  -28.4790 C   0  0  0  0  0  0  0  0  0  0  0  0
   -2.4544   19.3416  -25.5561 H   0  0  0  0  0  0  0  0  0  0  0  0
   -2.6420   18.1890  -26.9211 H   0  0  0  0  0  0  0  0  0  0  0  0
   -1.2870   19.3683  -26.9211 H   0  0  0  0  0  0  0  0  0  0  0  0
   -0.6300   20.5505  -27.9062 H   0  0  0  0  0  0  0  0  0  0  0  0
    0.3331   22.5655  -29.0084 H   0  0  0  0  0  0  0  0  0  0  0  0
   -1.1557   24.4144  -29.7637 H   0  0  0  0  0  0  0  0  0  0  0  0
   -4.6442   24.7250  -28.8557 H   0  0  0  0  0  0  0  0  0  0  0  0
   -3.2618   25.3894  -29.8534 H   0  0  0  0  0  0  0  0  0  0  0  0
   -4.0954   23.0087  -32.5581 H   0  0  0  0  0  0  0  0  0  0  0  0
   -3.3557   22.5139  -30.9660 H   0  0  0  0  0  0  0  0  0  0  0  0
   -5.0940   20.9197  -31.8738 H   0  0  0  0  0  0  0  0  0  0  0  0
   -5.4040   21.5662  -30.2097 H   0  0  0  0  0  0  0  0  0  0  0  0
   -6.6165   19.6792  -31.4171 H   0  0  0  0  0  0  0  0  0  0  0  0
   -8.4140   19.5276  -31.1681 H   0  0  0  0  0  0  0  0  0  0  0  0
   -8.7710   19.0060  -33.2520 H   0  0  0  0  0  0  0  0  0  0  0  0
   -7.7409   17.2150  -33.6170 H   0  0  0  0  0  0  0  0  0  0  0  0
   -6.2224   17.9920  -31.3485 H   0  0  0  0  0  0  0  0  0  0  0  0
   -6.8007   16.3759  -31.9346 H   0  0  0  0  0  0  0  0  0  0  0  0
   -4.3115   16.4864  -31.6605 H   0  0  0  0  0  0  0  0  0  0  0  0
   -4.8215   16.1247  -33.3372 H   0  0  0  0  0  0  0  0  0  0  0  0
   -2.3868   17.0116  -32.4164 H   0  0  0  0  0  0  0  0  0  0  0  0
   -2.3576   17.6180  -34.1130 H   0  0  0  0  0  0  0  0  0  0  0  0
   -0.5684   17.9995  -31.2945 H   0  0  0  0  0  0  0  0  0  0  0  0
    0.7304   20.0274  -30.6428 H   0  0  0  0  0  0  0  0  0  0  0  0
    0.1336   22.2556  -31.5989 H   0  0  0  0  0  0  0  0  0  0  0  0
   -1.7677   22.4576  -33.2034 H   0  0  0  0  0  0  0  0  0  0  0  0
   -3.0472   20.4279  -33.8898 H   0  0  0  0  0  0  0  0  0  0  0  0
   -4.5937   19.6973  -34.2901 H   0  0  0  0  0  0  0  0  0  0  0  0
   -3.9906   18.1645  -35.1004 H   0  0  0  0  0  0  0  0  0  0  0  0
   -6.5272   18.9373  -35.2716 H   0  0  0  0  0  0  0  0  0  0  0  0
   -6.0021   17.1842  -35.1240 H   0  0  0  0  0  0  0  0  0  0  0  0
   -6.4860   24.0059  -32.9358 H   0  0  0  0  0  0  0  0  0  0  0  0
   -7.9115   23.9989  -31.8365 H   0  0  0  0  0  0  0  0  0  0  0  0
   -6.1479   25.6105  -31.1044 H   0  0  0  0  0  0  0  0  0  0  0  0
   -6.4537   24.2886  -29.8942 H   0  0  0  0  0  0  0  0  0  0  0  0
   -4.6015   22.2217  -28.3246 H   0  0  0  0  0  0  0  0  0  0  0  0
  1  2  1  0
  2  3  1  0
  3  4  2  0
  4  5  1  0
  5  6  2  0
  6  7  1  0
  7  8  1  0
  8  9  1  0
  9 10  1  0
 10 11  1  0
 11 12  1  0
 12 13  1  0
 13 14  2  0
 13 15  1  0
 15 16  1  0
 16 17  1  0
 17 18  1  0
 18 19  1  0
 19 20  1  0
 20 21  1  0
 21 22  1  0
 22 23  2  0
 23 24  1  0
 24 25  2  0
 25 26  1  0
 26 27  2  0
 20 28  1  0
 28 29  1  0
 12 30  1  0
 30 31  1  0
  7 32  2  0
 32  3  1  0
 31  9  1  0
 29 17  1  0
 27 22  1  0
  1 33  1  0
  1 34  1  0
  1 35  1  0
  4 36  1  0
  5 37  1  0
  6 38  1  0
  8 39  1  0
  8 40  1  0
 10 41  1  0
 10 42  1  0
 11 43  1  0
 11 44  1  0
 15 45  1  0
 15 46  1  0
 16 47  1  0
 17 48  1  0
 18 49  1  0
 18 50  1  0
 19 51  1  0
 19 52  1  0
 21 53  1  0
 21 54  1  0
 23 55  1  0
 24 56  1  0
 25 57  1  0
 26 58  1  0
 27 59  1  0
 28 60  1  0
 28 61  1  0
 29 62  1  0
 29 63  1  0
 30 64  1  0
 30 65  1  0
 31 66  1  0
 31 67  1  0
 32 68  1  0
M  END
>  <UniqueID>  (5) 
5

>  <SMILES>  (5) 
COc1cccc(CN2CCN(C(=O)CNC3CCN(Cc4ccccc4)CC3)CC2)c1

>  <Energy>  (5) 
92.26998386848724

>  <Genealogy>  (5) 
COc1cccc(CN2CCN(C(=O)CNC3CCN(Cc4ccccc4)CC3)CC2)c1 (3D coordinates assigned)
COc1cccc(CN2CCN(C(=O)CNC3CCN(Cc4ccccc4)CC3)CC2)c1 (nonaromatic ring conformer: 92.26998386848724 kcal/mol)

>  <smiles>  (5) 
COc1cccc(CN2CCN(C(=O)CNC3CCN(Cc4ccccc4)CC3)CC2)c1

>  <score_type>  (5) 
oracle

>  <origin>  (5) 
adg

>  <m_score__min__energy>  (5) 
-9.4100000000000001

>  <m_primary>  (5) 
energy

$$$$
5:0
     RDKit          3D

 35 36  0  0  0  0  0  0  0  0999 V2000
   -3.6020   24.9340  -30.4710 O   0  0  0  0  0  0  0  0  0  0  0  0
   -4.1610   24.3360  -29.5120 C   0  0  0  0  0  0  0  0  0  0  0  0
   -3.3210   23.6640  -28.4710 C   0  0  0  0  0  0  0  0  0  0  0  0
   -2.6180   24.6990  -27.6340 C   0  0  0  0  0  0  0  0  0  0  0  0
   -3.0370   24.9410  -26.3150 C   0  0  0  0  0  0  0  0  0  0  0  0
   -2.3640   25.8730  -25.5200 C   0  0  0  0  0  0  0  0  0  0  0  0
   -1.2640   26.5650  -26.0320 C   0  0  0  0  0  0  0  0  0  0  0  0
   -0.8320   26.3230  -27.3380 C   0  0  0  0  0  0  0  0  0  0  0  0
   -1.4990   25.3900  -28.1390 C   0  0  0  0  0  0  0  0  0  0  0  0
   -1.0550   25.1580  -29.3990 F   0  0  0  0  0  0  0  0  0  0  0  0
   -5.5920   24.2610  -29.4400 N   0  0  0  0  0  0  0  0  0  0  0  0
   -6.4600   24.7680  -30.5000 C   0  0  0  0  0  0  0  0  0  0  0  0
   -6.1650   24.0500  -31.8200 C   0  0  0  0  0  0  0  0  0  0  0  0
   -6.9940   22.8000  -31.9400 C   0  0  0  0  0  0  0  0  0  0  0  0
   -8.3740   22.8360  -31.6800 C   0  0  0  0  0  0  0  0  0  0  0  0
   -9.1490   21.6810  -31.8230 C   0  0  0  0  0  0  0  0  0  0  0  0
   -8.5530   20.4840  -32.2350 C   0  0  0  0  0  0  0  0  0  0  0  0
   -9.3050   19.3650  -32.3740 F   0  0  0  0  0  0  0  0  0  0  0  0
   -7.1830   20.4440  -32.5090 C   0  0  0  0  0  0  0  0  0  0  0  0
   -6.4050   21.5980  -32.3670 C   0  0  0  0  0  0  0  0  0  0  0  0
   -3.9640   23.0479  -27.8252 H   0  0  0  0  0  0  0  0  0  0  0  0
   -2.5719   23.0278  -28.9651 H   0  0  0  0  0  0  0  0  0  0  0  0
   -3.8992   24.3941  -25.9058 H   0  0  0  0  0  0  0  0  0  0  0  0
   -2.7010   26.0617  -24.4900 H   0  0  0  0  0  0  0  0  0  0  0  0
   -0.7377   27.3009  -25.4064 H   0  0  0  0  0  0  0  0  0  0  0  0
    0.0357   26.8679  -27.7381 H   0  0  0  0  0  0  0  0  0  0  0  0
   -6.0350   23.8440  -28.5900 H   0  0  0  0  0  0  0  0  0  0  0  0
   -7.5103   24.5972  -30.2213 H   0  0  0  0  0  0  0  0  0  0  0  0
   -6.2738   25.8443  -30.6297 H   0  0  0  0  0  0  0  0  0  0  0  0
   -6.4014   24.7223  -32.6579 H   0  0  0  0  0  0  0  0  0  0  0  0
   -5.1007   23.7731  -31.8428 H   0  0  0  0  0  0  0  0  0  0  0  0
   -8.8470   23.7770  -31.3625 H   0  0  0  0  0  0  0  0  0  0  0  0
  -10.2280   21.7134  -31.6115 H   0  0  0  0  0  0  0  0  0  0  0  0
   -6.7158   19.5037  -32.8368 H   0  0  0  0  0  0  0  0  0  0  0  0
   -5.3285   21.5642  -32.5904 H   0  0  0  0  0  0  0  0  0  0  0  0
  1  2  2  0
  2  3  1  0
  3  4  1  0
  4  5  2  0
  5  6  1  0
  6  7  2  0
  7  8  1  0
  8  9  2  0
  9 10  1  0
  2 11  1  0
 11 12  1  0
 12 13  1  0
 13 14  1  0
 14 15  2  0
 15 16  1  0
 16 17  2  0
 17 18  1  0
 17 19  1  0
 19 20  2  0
  9  4  1  0
 20 14  1  0
  3 21  1  0
  3 22  1  0
  5 23  1  0
  6 24  1  0
  7 25  1  0
  8 26  1  0
 11 27  1  0
 12 28  1  0
 12 29  1  0
 13 30  1  0
 13 31  1  0
 15 32  1  0
 16 33  1  0
 19 34  1  0
 20 35  1  0
M  END
>  <UniqueID>  (6) 
6

>  <SMILES>  (6) 
O=C(Cc1ccccc1F)NCCc1ccc(F)cc1

>  <Energy>  (6) 
28.433741581899255

>  <Genealogy>  (6) 
O=C(Cc1ccccc1F)NCCc1ccc(F)cc1 (3D coordinates assigned)
O=C(Cc1ccccc1F)NCCc1ccc(F)cc1 (optimized conformer: 28.433741581899255 kcal/mol)

>  <smiles>  (6) 
O=C(Cc1ccccc1F)NCCc1ccc(F)cc1

>  <score_type>  (6) 
oracle

>  <origin>  (6) 
adg

>  <m_score__min__energy>  (6) 
-7.9900000000000002

>  <m_primary>  (6) 
energy

$$$$
6:0
     RDKit          3D

 52 53  0  0  0  0  0  0  0  0999 V2000
   -5.3210   17.0010  -32.8480 C   0  0  0  0  0  0  0  0  0  0  0  0
   -6.1060   17.3950  -31.6040 C   0  0  0  0  0  0  0  0  0  0  0  0
   -7.3100   18.1460  -31.9740 C   0  0  0  0  0  0  0  0  0  0  0  0
   -8.2970   18.7680  -32.2760 C   0  0  0  0  0  0  0  0  0  0  0  0
   -9.4920   19.5330  -32.6490 C   0  0  0  0  0  0  0  0  0  0  0  0
   -9.1900   20.9280  -32.7030 O   0  0  0  0  0  0  0  0  0  0  0  0
   -8.1310   21.5550  -32.0260 C   0  0  0  0  0  0  0  0  0  0  0  0
   -8.2670   22.0930  -30.7320 C   0  0  0  0  0  0  0  0  0  0  0  0
   -7.1780   22.7030  -30.1040 C   0  0  0  0  0  0  0  0  0  0  0  0
   -5.9320   22.7690  -30.7460 C   0  0  0  0  0  0  0  0  0  0  0  0
   -4.5600   23.5530  -29.9470 S   0  0  0  0  0  0  0  0  0  0  0  0
   -4.0490   24.6550  -30.8330 O   0  0  0  0  0  0  0  0  0  0  0  0
   -5.0650   24.1920  -28.6830 O   0  0  0  0  0  0  0  0  0  0  0  0
   -3.2640   22.4440  -29.5120 N   0  0  0  0  0  0  0  0  0  0  0  0
   -2.1690   22.3610  -30.5000 C   0  0  0  0  0  0  0  0  0  0  0  0
   -0.8590   22.9980  -30.0350 C   0  0  0  0  0  0  0  0  0  0  0  0
   -1.1580   24.4210  -28.9480 S   0  0  0  0  0  0  0  0  0  0  0  0
   -1.8990   23.4620  -27.5650 C   0  0  0  0  0  0  0  0  0  0  0  0
   -0.7400   22.8890  -26.7110 C   0  0  0  0  0  0  0  0  0  0  0  0
   -2.6400   24.4790  -26.6720 C   0  0  0  0  0  0  0  0  0  0  0  0
   -2.9250   22.3580  -28.0680 C   0  0  2  0  0  0  0  0  0  0  0  0
   -2.5380   20.9370  -27.7150 C   0  0  0  0  0  0  0  0  0  0  0  0
   -1.3960   20.4880  -28.0070 O   0  0  0  0  0  0  0  0  0  0  0  0
   -3.4480   20.1400  -27.0130 O   0  0  0  0  0  0  0  0  0  0  0  0
   -3.0690   18.9290  -26.3720 C   0  0  0  0  0  0  0  0  0  0  0  0
   -5.8070   22.2610  -32.0460 C   0  0  0  0  0  0  0  0  0  0  0  0
   -6.8950   21.6490  -32.6740 C   0  0  0  0  0  0  0  0  0  0  0  0
   -4.3748   16.5261  -32.5494 H   0  0  0  0  0  0  0  0  0  0  0  0
   -5.9135   16.2934  -33.4466 H   0  0  0  0  0  0  0  0  0  0  0  0
   -5.1077   17.8989  -33.4466 H   0  0  0  0  0  0  0  0  0  0  0  0
   -6.3995   16.4863  -31.0581 H   0  0  0  0  0  0  0  0  0  0  0  0
   -5.4713   18.0302  -30.9687 H   0  0  0  0  0  0  0  0  0  0  0  0
   -9.8431   19.1991  -33.6365 H   0  0  0  0  0  0  0  0  0  0  0  0
  -10.2746   19.3650  -31.8945 H   0  0  0  0  0  0  0  0  0  0  0  0
   -9.2350   22.0328  -30.2130 H   0  0  0  0  0  0  0  0  0  0  0  0
   -7.2983   23.1345  -29.0993 H   0  0  0  0  0  0  0  0  0  0  0  0
   -1.9791   21.2994  -30.7168 H   0  0  0  0  0  0  0  0  0  0  0  0
   -2.4981   22.9233  -31.3863 H   0  0  0  0  0  0  0  0  0  0  0  0
   -0.2715   22.2469  -29.4866 H   0  0  0  0  0  0  0  0  0  0  0  0
   -0.3136   23.3512  -30.9226 H   0  0  0  0  0  0  0  0  0  0  0  0
   -0.9781   23.0067  -25.6436 H   0  0  0  0  0  0  0  0  0  0  0  0
   -0.6076   21.8216  -26.9416 H   0  0  0  0  0  0  0  0  0  0  0  0
    0.1885   23.4319  -26.9416 H   0  0  0  0  0  0  0  0  0  0  0  0
   -2.4626   24.2356  -25.6140 H   0  0  0  0  0  0  0  0  0  0  0  0
   -2.2669   25.4921  -26.8827 H   0  0  0  0  0  0  0  0  0  0  0  0
   -3.7187   24.4343  -26.8827 H   0  0  0  0  0  0  0  0  0  0  0  0
   -3.8324   22.6082  -27.4988 H   0  0  0  0  0  0  0  0  0  0  0  0
   -3.1109   19.0629  -25.2810 H   0  0  0  0  0  0  0  0  0  0  0  0
   -3.7586   18.1253  -26.6695 H   0  0  0  0  0  0  0  0  0  0  0  0
   -2.0443   18.6618  -26.6695 H   0  0  0  0  0  0  0  0  0  0  0  0
   -4.8464   22.3445  -32.5754 H   0  0  0  0  0  0  0  0  0  0  0  0
   -6.7783   21.2373  -33.6874 H   0  0  0  0  0  0  0  0  0  0  0  0
  1  2  1  0
  2  3  1  0
  3  4  3  0
  4  5  1  0
  5  6  1  0
  6  7  1  0
  7  8  2  0
  8  9  1  0
  9 10  2  0
 10 11  1  0
 11 12  2  0
 11 13  2  0
 11 14  1  0
 14 15  1  0
 15 16  1  0
 16 17  1  0
 17 18  1  0
 18 19  1  0
 18 20  1  0
 18 21  1  0
 21 22  1  0
 22 23  2  0
 22 24  1  0
 24 25  1  0
 10 26  1  0
 26 27  2  0
 27  7  1  0
 21 14  1  0
  1 28  1  0
  1 29  1  0
  1 30  1  0
  2 31  1  0
  2 32  1  0
  5 33  1  0
  5 34  1  0
  8 35  1  0
  9 36  1  0
 15 37  1  0
 15 38  1  0
 16 39  1  0
 16 40  1  0
 19 41  1  0
 19 42  1  0
 19 43  1  0
 20 44  1  0
 20 45  1  0
 20 46  1  0
 21 47  1  1
 25 48  1  0
 25 49  1  0
 25 50  1  0
 26 51  1  0
 27 52  1  0
M  END
>  <UniqueID>  (7) 
7

>  <SMILES>  (7) 
CCC#CCOc1ccc(S(=O)(=O)N2CCSC(C)(C)[C@@H]2C(=O)OC)cc1

>  <Energy>  (7) 
59.71576714818433

>  <Genealogy>  (7) 
CCC#CCOc1ccc(S(=O)(=O)N2CCSC(C)(C)[C@@H]2C(=O)OC)cc1 (chirality)
CCC#CCOc1ccc(S(=O)(=O)N2CCSC(C)(C)[C@@H]2C(=O)OC)cc1 (3D coordinates assigned)
CCC#CCOc1ccc(S(=O)(=O)N2CCSC(C)(C)[C@@H]2C(=O)OC)cc1 (nonaromatic ring conformer: 59.71576714818433 kcal/mol)

>  <smiles>  (7) 
CCC#CCOc1ccc(S(=O)(=O)N2CCSC(C)(C)C2C(=O)OC)cc1

>  <score_type>  (7) 
oracle

>  <origin>  (7) 
adg

>  <m_score__min__energy>  (7) 
-8.25

>  <m_primary>  (7) 
energy

$$$$
7:0
     RDKit          3D

 37 38  0  0  0  0  0  0  0  0999 V2000
   -9.1110   18.7930  -31.9890 C   0  0  0  0  0  0  0  0  0  0  0  0
   -7.7930   19.4300  -32.3210 C   0  0  0  0  0  0  0  0  0  0  0  0
   -6.6940   18.6350  -32.6650 C   0  0  0  0  0  0  0  0  0  0  0  0
   -5.4540   19.2220  -32.9260 C   0  0  0  0  0  0  0  0  0  0  0  0
   -5.2930   20.6140  -32.8480 C   0  0  0  0  0  0  0  0  0  0  0  0
   -3.9440   21.2190  -33.1320 C   0  0  0  0  0  0  0  0  0  0  0  0
   -6.3940   21.4230  -32.4860 C   0  0  0  0  0  0  0  0  0  0  0  0
   -6.2370   22.8460  -32.3420 N   0  0  0  0  0  0  0  0  0  0  0  0
   -6.3670   23.5370  -31.0890 C   0  0  0  0  0  0  0  0  0  0  0  0
   -6.7820   22.9340  -30.0630 O   0  0  0  0  0  0  0  0  0  0  0  0
   -6.0940   25.0050  -31.0210 C   0  0  0  0  0  0  0  0  0  0  0  0
   -4.6600   25.2220  -30.7900 N   0  0  0  0  0  0  0  0  0  0  0  0
   -4.0160   24.0180  -30.2530 C   0  0  0  0  0  0  0  0  0  0  0  0
   -3.2650   24.3480  -29.0000 C   0  0  0  0  0  0  0  0  0  0  0  0
   -3.7300   24.1850  -27.7010 C   0  0  0  0  0  0  0  0  0  0  0  0
   -2.7850   24.5370  -26.7320 C   0  0  0  0  0  0  0  0  0  0  0  0
   -1.5750   24.9680  -27.2620 C   0  0  0  0  0  0  0  0  0  0  0  0
   -1.6830   24.9110  -28.9400 S   0  0  0  0  0  0  0  0  0  0  0  0
   -7.6330   20.8190  -32.2110 C   0  0  0  0  0  0  0  0  0  0  0  0
   -9.2264   18.7372  -30.8965 H   0  0  0  0  0  0  0  0  0  0  0  0
   -9.9270   19.3961  -32.4136 H   0  0  0  0  0  0  0  0  0  0  0  0
   -9.1454   17.7788  -32.4136 H   0  0  0  0  0  0  0  0  0  0  0  0
   -6.8073   17.5428  -32.7301 H   0  0  0  0  0  0  0  0  0  0  0  0
   -4.5963   18.5880  -33.1950 H   0  0  0  0  0  0  0  0  0  0  0  0
   -3.4369   21.4464  -32.1827 H   0  0  0  0  0  0  0  0  0  0  0  0
   -3.3372   20.5068  -33.7104 H   0  0  0  0  0  0  0  0  0  0  0  0
   -4.0722   22.1458  -33.7104 H   0  0  0  0  0  0  0  0  0  0  0  0
   -6.0890   23.4240  -33.2000 H   0  0  0  0  0  0  0  0  0  0  0  0
   -6.3891   25.4779  -31.9693 H   0  0  0  0  0  0  0  0  0  0  0  0
   -6.6713   25.4493  -30.1968 H   0  0  0  0  0  0  0  0  0  0  0  0
   -4.5650   25.9800  -30.0750 H   0  0  0  0  0  0  0  0  0  0  0  0
   -4.7850   23.2644  -30.0279 H   0  0  0  0  0  0  0  0  0  0  0  0
   -3.3115   23.6242  -31.0004 H   0  0  0  0  0  0  0  0  0  0  0  0
   -4.7380   23.8169  -27.4594 H   0  0  0  0  0  0  0  0  0  0  0  0
   -2.9813   24.4782  -25.6513 H   0  0  0  0  0  0  0  0  0  0  0  0
   -0.6969   25.2911  -26.6836 H   0  0  0  0  0  0  0  0  0  0  0  0
   -8.4864   21.4425  -31.9062 H   0  0  0  0  0  0  0  0  0  0  0  0
  1  2  1  0
  2  3  2  0
  3  4  1  0
  4  5  2  0
  5  6  1  0
  5  7  1  0
  7  8  1  0
  8  9  1  0
  9 10  2  0
  9 11  1  0
 11 12  1  0
 12 13  1  0
 13 14  1  0
 14 15  2  0
 15 16  1  0
 16 17  2  0
 17 18  1  0
  7 19  2  0
 19  2  1  0
 18 14  1  0
  1 20  1  0
  1 21  1  0
  1 22  1  0
  3 23  1  0
  4 24  1  0
  6 25  1  0
  6 26  1  0
  6 27  1  0
  8 28  1  0
 11 29  1  0
 11 30  1  0
 12 31  1  0
 13 32  1  0
 13 33  1  0
 15 34  1  0
 16 35  1  0
 17 36  1  0
 19 37  1  0
M  END
>  <UniqueID>  (8) 
8

>  <SMILES>  (8) 
Cc1ccc(C)c(NC(=O)CNCc2cccs2)c1

>  <Energy>  (8) 
62.08931186981584

>  <Genealogy>  (8) 
Cc1ccc(C)c(NC(=O)CNCc2cccs2)c1 (3D coordinates assigned)
Cc1ccc(C)c(NC(=O)CNCc2cccs2)c1 (optimized conformer: 62.08931186981584 kcal/mol)

>  <smiles>  (8) 
Cc1ccc(C)c(NC(=O)CNCc2cccs2)c1

>  <score_type>  (8) 
oracle

>  <origin>  (8) 
adg

>  <m_score__min__energy>  (8) 
-8.0099999999999998

>  <m_primary>  (8) 
energy

$$$$
8:0
     RDKit          3D

 47 49  0  0  1  0  0  0  0  0999 V2000
   -4.0400   19.2560  -33.8210 C   0  0  0  0  0  0  0  0  0  0  0  0
   -4.3180   18.0120  -34.5060 N   0  0  0  0  0  0  0  0  0  0  0  0
   -3.7160   16.8790  -33.8540 C   0  0  0  0  0  0  0  0  0  0  0  0
   -5.6950   17.8390  -34.8310 C   0  0  0  0  0  0  0  0  0  0  0  0
   -6.3930   16.7760  -34.0890 C   0  0  0  0  0  0  0  0  0  0  0  0
   -7.2050   17.1100  -33.0980 C   0  0  0  0  0  0  0  0  0  0  0  0
   -6.9640   18.3670  -32.3620 C   0  0  0  0  0  0  0  0  0  0  0  0
   -6.4570   18.2720  -31.2450 O   0  0  0  0  0  0  0  0  0  0  0  0
   -7.3140   19.6070  -32.9460 N   0  0  0  0  0  0  0  0  0  0  0  0
   -7.1480   20.8760  -32.3740 C   0  0  0  0  0  0  0  0  0  0  0  0
   -8.2880   21.5630  -31.9700 C   0  0  0  0  0  0  0  0  0  0  0  0
   -8.2080   22.8130  -31.4010 C   0  0  0  0  0  0  0  0  0  0  0  0
   -7.0080   23.4580  -31.1960 C   0  0  0  0  0  0  0  0  0  0  0  0
   -6.9490   24.6790  -30.6380 N   0  0  0  0  0  0  0  0  0  0  0  0
   -5.7380   25.2760  -30.4560 C   0  0  0  0  0  0  0  0  0  0  0  0
   -4.6000   24.6410  -30.8360 N   0  0  0  0  0  0  0  0  0  0  0  0
   -4.6660   23.4180  -31.3940 C   0  0  0  0  0  0  0  0  0  0  0  0
   -3.5960   22.7760  -31.7720 N   0  0  0  0  0  0  0  0  0  0  0  0
   -2.9180   21.9580  -30.8160 C   0  0  0  0  0  0  0  0  0  0  0  0
   -3.4450   21.8970  -29.5420 C   0  0  0  0  0  0  0  0  0  0  0  0
   -2.8620   21.1310  -28.5390 C   0  0  0  0  0  0  0  0  0  0  0  0
   -1.7230   20.4300  -28.8790 C   0  0  0  0  0  0  0  0  0  0  0  0
   -0.8940   19.3680  -27.5320 Br  0  0  0  0  0  0  0  0  0  0  0  0
   -1.1950   20.4900  -30.1510 C   0  0  0  0  0  0  0  0  0  0  0  0
   -1.7770   21.2500  -31.1420 C   0  0  0  0  0  0  0  0  0  0  0  0
   -1.2720   21.3220  -32.3970 F   0  0  0  0  0  0  0  0  0  0  0  0
   -5.8670   22.7890  -31.5910 C   0  0  0  0  0  0  0  0  0  0  0  0
   -5.9540   21.5190  -32.1700 C   0  0  0  0  0  0  0  0  0  0  0  0
   -4.0766   19.0921  -32.7339 H   0  0  0  0  0  0  0  0  0  0  0  0
   -3.0395   19.6149  -34.1042 H   0  0  0  0  0  0  0  0  0  0  0  0
   -4.7926   20.0066  -34.1042 H   0  0  0  0  0  0  0  0  0  0  0  0
   -3.7831   17.0053  -32.7633 H   0  0  0  0  0  0  0  0  0  0  0  0
   -4.2455   15.9615  -34.1502 H   0  0  0  0  0  0  0  0  0  0  0  0
   -2.6593   16.8043  -34.1502 H   0  0  0  0  0  0  0  0  0  0  0  0
   -6.2125   18.7886  -34.6298 H   0  0  0  0  0  0  0  0  0  0  0  0
   -5.7199   17.5356  -35.8880 H   0  0  0  0  0  0  0  0  0  0  0  0
   -6.2420   15.7192  -34.3542 H   0  0  0  0  0  0  0  0  0  0  0  0
   -8.0489   16.4589  -32.8263 H   0  0  0  0  0  0  0  0  0  0  0  0
   -7.7430   19.5400  -33.9160 H   0  0  0  0  0  0  0  0  0  0  0  0
   -9.2747   21.0968  -32.1084 H   0  0  0  0  0  0  0  0  0  0  0  0
   -9.1378   23.3168  -31.0981 H   0  0  0  0  0  0  0  0  0  0  0  0
   -7.8430   25.1690  -30.3440 H   0  0  0  0  0  0  0  0  0  0  0  0
   -5.6822   26.2754  -29.9998 H   0  0  0  0  0  0  0  0  0  0  0  0
   -4.3543   22.4721  -29.3131 H   0  0  0  0  0  0  0  0  0  0  0  0
   -3.2872   21.0860  -27.5255 H   0  0  0  0  0  0  0  0  0  0  0  0
   -0.2852   19.9161  -30.3808 H   0  0  0  0  0  0  0  0  0  0  0  0
   -5.0253   21.0144  -32.4747 H   0  0  0  0  0  0  0  0  0  0  0  0
  1  2  1  0
  2  3  1  0
  2  4  1  0
  4  5  1  0
  5  6  2  0
  6  7  1  0
  7  8  2  0
  7  9  1  0
  9 10  1  0
 10 11  2  0
 11 12  1  0
 12 13  2  0
 13 14  1  0
 14 15  1  0
 15 16  2  0
 16 17  1  0
 17 18  2  0
 18 19  1  0
 19 20  2  0
 20 21  1  0
 21 22  2  0
 22 23  1  0
 22 24  1  0
 24 25  2  0
 25 26  1  0
 17 27  1  0
 27 28  2  0
 28 10  1  0
 27 13  1  0
 25 19  1  0
  1 29  1  0
  1 30  1  0
  1 31  1  0
  3 32  1  0
  3 33  1  0
  3 34  1  0
  4 35  1  0
  4 36  1  0
  5 37  1  0
  6 38  1  0
  9 39  1  0
 11 40  1  0
 12 41  1  0
 14 42  1  0
 15 43  1  0
 20 44  1  0
 21 45  1  0
 24 46  1  0
 28 47  1  0
M  END
>  <smiles>  (9) 
CN(C)CC=CC(=O)Nc1ccc2[nH]cnc(=Nc3ccc(Br)cc3F)c2c1

>  <score_type>  (9) 
oracle

>  <origin>  (9) 
adg

>  <m_score__min__energy>  (9) 
-8.7699999999999996

>  <m_primary>  (9) 
energy

$$$$
9:0
     RDKit          3D

 47 50  0  0  0  0  0  0  0  0999 V2000
    2.4120   25.1560  -36.8050 C   0  0  0  0  0  0  0  0  0  0  0  0
    2.2270   23.8050  -36.1840 C   0  0  0  0  0  0  0  0  0  0  0  0
    3.2650   22.9020  -36.0710 C   0  0  0  0  0  0  0  0  0  0  0  0
    3.1200   21.6500  -35.5030 C   0  0  0  0  0  0  0  0  0  0  0  0
    4.2100   20.6740  -35.3740 C   0  0  0  0  0  0  0  0  0  0  0  0
    1.8590   21.3190  -35.0350 C   0  0  0  0  0  0  0  0  0  0  0  0
    1.5710   20.1060  -34.4460 C   0  0  0  0  0  0  0  0  0  0  0  0
    2.4890   19.2390  -34.3170 N   0  0  0  0  0  0  0  0  0  0  0  0
    0.3260   19.8410  -34.0100 N   0  0  0  0  0  0  0  0  0  0  0  0
   -0.6700   20.7380  -34.1300 C   0  0  0  0  0  0  0  0  0  0  0  0
   -1.9610   20.4210  -33.6610 N   0  0  0  0  0  0  0  0  0  0  0  0
   -2.3500   19.0540  -33.4090 C   0  0  0  0  0  0  0  0  0  0  0  0
   -3.7370   18.8990  -34.0430 C   0  0  0  0  0  0  0  0  0  0  0  0
   -4.6310   19.6820  -33.2440 N   0  0  0  0  0  0  0  0  0  0  0  0
   -5.9640   19.2940  -32.9120 C   0  0  0  0  0  0  0  0  0  0  0  0
   -6.9970   20.2290  -32.8160 C   0  0  0  0  0  0  0  0  0  0  0  0
   -8.2870   19.8630  -32.4970 C   0  0  0  0  0  0  0  0  0  0  0  0
   -8.6040   18.5530  -32.2590 C   0  0  0  0  0  0  0  0  0  0  0  0
   -9.8630   18.1510  -31.9430 F   0  0  0  0  0  0  0  0  0  0  0  0
   -7.6110   17.6130  -32.3460 C   0  0  0  0  0  0  0  0  0  0  0  0
   -6.3230   17.9850  -32.6660 C   0  0  0  0  0  0  0  0  0  0  0  0
   -4.1600   20.9540  -32.7360 C   0  0  0  0  0  0  0  0  0  0  0  0
   -2.9210   21.4580  -33.4210 C   0  0  0  0  0  0  0  0  0  0  0  0
   -0.4200   21.9310  -34.7010 N   0  0  0  0  0  0  0  0  0  0  0  0
    0.8170   22.2180  -35.1450 C   0  0  0  0  0  0  0  0  0  0  0  0
    1.0240   23.4260  -35.7110 N   0  0  0  0  0  0  0  0  0  0  0  0
    2.5156   25.9125  -36.0131 H   0  0  0  0  0  0  0  0  0  0  0  0
    3.3180   25.1518  -37.4289 H   0  0  0  0  0  0  0  0  0  0  0  0
    1.5383   25.3955  -37.4289 H   0  0  0  0  0  0  0  0  0  0  0  0
    4.2554   23.1927  -36.4513 H   0  0  0  0  0  0  0  0  0  0  0  0
    4.4142   20.4911  -34.3087 H   0  0  0  0  0  0  0  0  0  0  0  0
    3.9169   19.7309  -35.8583 H   0  0  0  0  0  0  0  0  0  0  0  0
    5.1152   21.0691  -35.8583 H   0  0  0  0  0  0  0  0  0  0  0  0
    3.0220   19.0140  -33.4670 H   0  0  0  0  0  0  0  0  0  0  0  0
   -1.6351   18.3590  -33.8737 H   0  0  0  0  0  0  0  0  0  0  0  0
   -2.3655   18.8260  -32.3330 H   0  0  0  0  0  0  0  0  0  0  0  0
   -3.7266   19.2700  -35.0785 H   0  0  0  0  0  0  0  0  0  0  0  0
   -4.0475   17.8442  -34.0753 H   0  0  0  0  0  0  0  0  0  0  0  0
   -6.7742   21.2903  -33.0007 H   0  0  0  0  0  0  0  0  0  0  0  0
   -9.0705   20.6324  -32.4330 H   0  0  0  0  0  0  0  0  0  0  0  0
   -7.8433   16.5542  -32.1592 H   0  0  0  0  0  0  0  0  0  0  0  0
   -5.5492   17.2057  -32.7278 H   0  0  0  0  0  0  0  0  0  0  0  0
   -4.9584   21.6986  -32.8708 H   0  0  0  0  0  0  0  0  0  0  0  0
   -3.9020   20.8012  -31.6777 H   0  0  0  0  0  0  0  0  0  0  0  0
   -3.2081   21.9020  -34.3856 H   0  0  0  0  0  0  0  0  0  0  0  0
   -2.4515   22.1981  -32.7563 H   0  0  0  0  0  0  0  0  0  0  0  0
   -1.1880   22.6400  -34.8020 H   0  0  0  0  0  0  0  0  0  0  0  0
  1  2  1  0
  2  3  2  0
  3  4  1  0
  4  5  1  0
  4  6  2  0
  6  7  1  0
  7  8  2  3
  7  9  1  0
  9 10  2  0
 10 11  1  0
 11 12  1  0
 12 13  1  0
 13 14  1  0
 14 15  1  0
 15 16  2  0
 16 17  1  0
 17 18  2  0
 18 19  1  0
 18 20  1  0
 20 21  2  0
 14 22  1  0
 22 23  1  0
 10 24  1  0
 24 25  1  0
 25 26  2  0
 26  2  1  0
 25  6  1  0
 23 11  1  0
 21 15  1  0
  1 27  1  0
  1 28  1  0
  1 29  1  0
  3 30  1  0
  5 31  1  0
  5 32  1  0
  5 33  1  0
  8 34  1  0
 12 35  1  0
 12 36  1  0
 13 37  1  0
 13 38  1  0
 16 39  1  0
 17 40  1  0
 20 41  1  0
 21 42  1  0
 22 43  1  0
 22 44  1  0
 23 45  1  0
 23 46  1  0
 24 47  1  0
M  END
>  <smiles>  (10) 
Cc1cc(C)c2c(=N)nc(N3CCN(c4ccc(F)cc4)CC3)[nH]c2n1

>  <score_type>  (10) 
oracle

>  <origin>  (10) 
adg

>  <m_score__min__energy>  (10) 
-7.3899999999999997

>  <m_primary>  (10) 
energy

$$$$
10:0
     RDKit          3D

 40 42  0  0  0  0  0  0  0  0999 V2000
   -3.4510   20.8400  -33.0830 C   0  0  0  0  0  0  0  0  0  0  0  0
   -4.8050   21.1120  -33.4270 O   0  0  0  0  0  0  0  0  0  0  0  0
   -5.9030   20.3330  -33.0250 C   0  0  0  0  0  0  0  0  0  0  0  0
   -6.0990   19.0260  -33.5160 C   0  0  0  0  0  0  0  0  0  0  0  0
   -7.1700   18.2530  -33.0650 C   0  0  0  0  0  0  0  0  0  0  0  0
   -8.0560   18.7680  -32.1200 C   0  0  0  0  0  0  0  0  0  0  0  0
   -7.8800   20.0630  -31.6300 C   0  0  0  0  0  0  0  0  0  0  0  0
   -6.8190   20.8630  -32.0870 C   0  0  0  0  0  0  0  0  0  0  0  0
   -6.6760   22.1990  -31.5700 N   0  0  0  0  0  0  0  0  0  0  0  0
   -5.5270   22.8900  -31.4200 C   0  0  0  0  0  0  0  0  0  0  0  0
   -5.8430   24.1440  -30.9420 C   0  0  0  0  0  0  0  0  0  0  0  0
   -4.9150   25.2420  -30.6390 C   0  0  0  0  0  0  0  0  0  0  0  0
   -5.3610   26.4110  -30.4910 O   0  0  0  0  0  0  0  0  0  0  0  0
   -3.5200   24.9630  -30.4660 N   0  0  0  0  0  0  0  0  0  0  0  0
   -2.9480   23.9190  -29.6650 C   0  0  0  0  0  0  0  0  0  0  0  0
   -3.2530   23.8780  -28.2980 C   0  0  0  0  0  0  0  0  0  0  0  0
   -2.7330   22.8660  -27.4860 C   0  0  0  0  0  0  0  0  0  0  0  0
   -1.9180   21.8740  -28.0380 C   0  0  0  0  0  0  0  0  0  0  0  0
   -1.2490   20.5750  -26.9960 S   0  0  0  0  0  0  0  0  0  0  0  0
   -2.7640   19.5700  -27.0660 C   0  0  0  0  0  0  0  0  0  0  0  0
   -1.6240   21.8950  -29.4060 C   0  0  0  0  0  0  0  0  0  0  0  0
   -2.1420   22.9070  -30.2200 C   0  0  0  0  0  0  0  0  0  0  0  0
   -7.2190   24.1560  -30.8300 C   0  0  0  0  0  0  0  0  0  0  0  0
   -7.7040   22.9630  -31.2250 N   0  0  0  0  0  0  0  0  0  0  0  0
   -3.3479   20.8193  -31.9880 H   0  0  0  0  0  0  0  0  0  0  0  0
   -3.1562   19.8647  -33.4975 H   0  0  0  0  0  0  0  0  0  0  0  0
   -2.8024   21.6258  -33.4975 H   0  0  0  0  0  0  0  0  0  0  0  0
   -5.4025   18.6123  -34.2602 H   0  0  0  0  0  0  0  0  0  0  0  0
   -7.3153   17.2352  -33.4561 H   0  0  0  0  0  0  0  0  0  0  0  0
   -8.8944   18.1534  -31.7603 H   0  0  0  0  0  0  0  0  0  0  0  0
   -8.5783   20.4611  -30.8791 H   0  0  0  0  0  0  0  0  0  0  0  0
   -4.5155   22.5181  -31.6404 H   0  0  0  0  0  0  0  0  0  0  0  0
   -3.9062   24.6476  -27.8608 H   0  0  0  0  0  0  0  0  0  0  0  0
   -2.9656   22.8504  -26.4110 H   0  0  0  0  0  0  0  0  0  0  0  0
   -3.1026   19.3454  -26.0438 H   0  0  0  0  0  0  0  0  0  0  0  0
   -3.5492   20.1269  -27.5983 H   0  0  0  0  0  0  0  0  0  0  0  0
   -2.5562   18.6300  -27.5983 H   0  0  0  0  0  0  0  0  0  0  0  0
   -0.9840   21.1137  -29.8419 H   0  0  0  0  0  0  0  0  0  0  0  0
   -1.9191   22.9124  -31.2972 H   0  0  0  0  0  0  0  0  0  0  0  0
   -7.8228   25.0042  -30.4750 H   0  0  0  0  0  0  0  0  0  0  0  0
  1  2  1  0
  2  3  1  0
  3  4  2  0
  4  5  1  0
  5  6  2  0
  6  7  1  0
  7  8  2  0
  8  9  1  0
  9 10  1  0
 10 11  2  0
 11 12  1  0
 12 13  2  0
 12 14  1  0
 14 15  1  0
 15 16  2  0
 16 17  1  0
 17 18  2  0
 18 19  1  0
 19 20  1  0
 18 21  1  0
 21 22  2  0
 11 23  1  0
 23 24  2  0
  8  3  1  0
 24  9  1  0
 22 15  1  0
  1 25  1  0
  1 26  1  0
  1 27  1  0
  4 28  1  0
  5 29  1  0
  6 30  1  0
  7 31  1  0
 10 32  1  0
 16 33  1  0
 17 34  1  0
 20 35  1  0
 20 36  1  0
 20 37  1  0
 21 38  1  0
 22 39  1  0
 23 40  1  0
M  CHG  1  14  -1
M  END
>  <UniqueID>  (11) 
9

>  <SMILES>  (11) 
COc1ccccc1-n1cc(C(=O)[N-]c2ccc(SC)cc2)cn1

>  <Energy>  (11) 
75.14842778986626

>  <Genealogy>  (11) 
COc1ccccc1-n1cc(C(=O)[N-]c2ccc(SC)cc2)cn1 (protonated)
COc1ccccc1-n1cc(C(=O)[N-]c2ccc(SC)cc2)cn1 (3D coordinates assigned)
COc1ccccc1-n1cc(C(=O)[N-]c2ccc(SC)cc2)cn1 (optimized conformer: 75.14842778986626 kcal/mol)

>  <smiles>  (11) 
COc1ccccc1-n1cc(C(=O)Nc2ccc(SC)cc2)cn1

>  <score_type>  (11) 
oracle

>  <origin>  (11) 
adg

>  <m_score__min__energy>  (11) 
-9.6600000000000001

>  <m_primary>  (11) 
energy

$$$$
11:0
     RDKit          3D

 36 38  0  0  0  0  0  0  0  0999 V2000
   -1.6470   24.6460  -28.4430 C   0  0  0  0  0  0  0  0  0  0  0  0
   -2.5530   25.2710  -29.3460 O   0  0  0  0  0  0  0  0  0  0  0  0
   -3.7450   24.6880  -29.8010 C   0  0  0  0  0  0  0  0  0  0  0  0
   -4.7710   25.4390  -30.4050 C   0  0  0  0  0  0  0  0  0  0  0  0
   -5.9410   24.8110  -30.8420 C   0  0  0  0  0  0  0  0  0  0  0  0
   -6.1070   23.4240  -30.6860 C   0  0  0  0  0  0  0  0  0  0  0  0
   -7.3470   22.7620  -31.1450 C   0  0  0  0  0  0  0  0  0  0  0  0
   -8.4240   23.4260  -31.6130 N   0  0  0  0  0  0  0  0  0  0  0  0
   -9.2800   22.5010  -31.9230 O   0  0  0  0  0  0  0  0  0  0  0  0
   -8.7690   21.3250  -31.6590 C   0  0  0  0  0  0  0  0  0  0  0  0
   -9.4610   20.0230  -31.9320 C   0  0  0  0  0  0  0  0  0  0  0  0
   -8.9170   19.3630  -33.1290 N   0  0  0  0  0  0  0  0  0  0  0  0
   -7.5780   18.8730  -32.8980 C   0  0  0  0  0  0  0  0  0  0  0  0
   -6.4870   19.4020  -33.6060 C   0  0  0  0  0  0  0  0  0  0  0  0
   -5.1940   18.9440  -33.3440 C   0  0  0  0  0  0  0  0  0  0  0  0
   -5.0010   17.9600  -32.3720 C   0  0  0  0  0  0  0  0  0  0  0  0
   -6.0640   17.4580  -31.6900 N   0  0  0  0  0  0  0  0  0  0  0  0
   -7.3320   17.8880  -31.9260 C   0  0  0  0  0  0  0  0  0  0  0  0
   -7.5230   21.4230  -31.1570 N   0  0  0  0  0  0  0  0  0  0  0  0
   -5.0800   22.6780  -30.0830 C   0  0  0  0  0  0  0  0  0  0  0  0
   -3.9110   23.3080  -29.6460 C   0  0  0  0  0  0  0  0  0  0  0  0
   -1.9551   24.8586  -27.4087 H   0  0  0  0  0  0  0  0  0  0  0  0
   -1.6529   23.5590  -28.6113 H   0  0  0  0  0  0  0  0  0  0  0  0
   -0.6329   25.0376  -28.6113 H   0  0  0  0  0  0  0  0  0  0  0  0
   -4.6516   26.5249  -30.5337 H   0  0  0  0  0  0  0  0  0  0  0  0
   -6.7377   25.4068  -31.3114 H   0  0  0  0  0  0  0  0  0  0  0  0
   -9.3270   19.3586  -31.0656 H   0  0  0  0  0  0  0  0  0  0  0  0
  -10.5273   20.2292  -32.1066 H   0  0  0  0  0  0  0  0  0  0  0  0
   -9.5360   18.5570  -33.3790 H   0  0  0  0  0  0  0  0  0  0  0  0
   -8.9300   20.0270  -33.9400 H   0  0  0  0  0  0  0  0  0  0  0  0
   -6.6509   20.1782  -34.3680 H   0  0  0  0  0  0  0  0  0  0  0  0
   -4.3364   19.3541  -33.8975 H   0  0  0  0  0  0  0  0  0  0  0  0
   -3.9872   17.5907  -32.1581 H   0  0  0  0  0  0  0  0  0  0  0  0
   -8.1695   17.4629  -31.3534 H   0  0  0  0  0  0  0  0  0  0  0  0
   -5.1966   21.5918  -29.9541 H   0  0  0  0  0  0  0  0  0  0  0  0
   -3.1143   22.7128  -29.1759 H   0  0  0  0  0  0  0  0  0  0  0  0
  1  2  1  0
  2  3  1  0
  3  4  2  0
  4  5  1  0
  5  6  2  0
  6  7  1  0
  7  8  2  0
  8  9  1  0
  9 10  1  0
 10 11  1  0
 11 12  1  0
 12 13  1  0
 13 14  2  0
 14 15  1  0
 15 16  2  0
 16 17  1  0
 17 18  2  0
 10 19  2  0
  6 20  1  0
 20 21  2  0
 21  3  1  0
 19  7  1  0
 18 13  1  0
  1 22  1  0
  1 23  1  0
  1 24  1  0
  4 25  1  0
  5 26  1  0
 11 27  1  0
 11 28  1  0
 12 29  1  0
 12 30  1  0
 14 31  1  0
 15 32  1  0
 16 33  1  0
 18 34  1  0
 20 35  1  0
 21 36  1  0
M  CHG  1  12   1
M  END
>  <UniqueID>  (12) 
10

>  <SMILES>  (12) 
COc1ccc(-c2noc(C[NH2+]c3cccnc3)n2)cc1

>  <Energy>  (12) 
71.69010745742641

>  <Genealogy>  (12) 
COc1ccc(-c2noc(C[NH2+]c3cccnc3)n2)cc1 (protonated)
COc1ccc(-c2noc(C[NH2+]c3cccnc3)n2)cc1 (3D coordinates assigned)
COc1ccc(-c2noc(C[NH2+]c3cccnc3)n2)cc1 (optimized conformer: 71.69010745742641 kcal/mol)

>  <smiles>  (12) 
COc1ccc(-c2noc(CNc3cccnc3)n2)cc1

>  <score_type>  (12) 
oracle

>  <origin>  (12) 
adg

>  <m_score__min__energy>  (12) 
-7.4100000000000001

>  <m_primary>  (12) 
energy

$$$$
12:0
     RDKit          3D

 39 41  0  0  0  0  0  0  0  0999 V2000
   -7.2170   17.5320  -32.6860 C   0  0  0  0  0  0  0  0  0  0  0  0
   -6.2410   17.8170  -33.8310 C   0  0  0  0  0  0  0  0  0  0  0  0
   -6.3830   19.1830  -34.3650 N   0  0  0  0  0  0  0  0  0  0  0  0
   -7.1570   20.0560  -33.4660 C   0  0  0  0  0  0  0  0  0  0  0  0
   -6.2340   20.8300  -32.5610 C   0  0  0  0  0  0  0  0  0  0  0  0
   -6.7560   21.6290  -31.5330 C   0  0  0  0  0  0  0  0  0  0  0  0
   -5.9020   22.3760  -30.7160 C   0  0  0  0  0  0  0  0  0  0  0  0
   -4.5120   22.3410  -30.9180 C   0  0  0  0  0  0  0  0  0  0  0  0
   -3.6090   23.1440  -30.0550 C   0  0  0  0  0  0  0  0  0  0  0  0
   -2.7710   22.5030  -29.1300 C   0  0  0  0  0  0  0  0  0  0  0  0
   -1.9300   23.2620  -28.3140 C   0  0  0  0  0  0  0  0  0  0  0  0
   -1.0830   22.6590  -27.3710 C   0  0  0  0  0  0  0  0  0  0  0  0
   -0.2560   23.4530  -26.5690 C   0  0  0  0  0  0  0  0  0  0  0  0
   -0.2720   24.8450  -26.7040 C   0  0  0  0  0  0  0  0  0  0  0  0
   -1.1140   25.4520  -27.6420 C   0  0  0  0  0  0  0  0  0  0  0  0
   -1.9450   24.6660  -28.4490 C   0  0  0  0  0  0  0  0  0  0  0  0
   -2.7440   25.2430  -29.3410 O   0  0  0  0  0  0  0  0  0  0  0  0
   -3.5560   24.5520  -30.1340 C   0  0  0  0  0  0  0  0  0  0  0  0
   -4.2640   25.1740  -30.9710 O   0  0  0  0  0  0  0  0  0  0  0  0
   -3.9940   21.5580  -31.9640 C   0  0  0  0  0  0  0  0  0  0  0  0
   -4.8480   20.8110  -32.7800 C   0  0  0  0  0  0  0  0  0  0  0  0
   -6.7063   17.6811  -31.7232 H   0  0  0  0  0  0  0  0  0  0  0  0
   -8.0747   18.2172  -32.7561 H   0  0  0  0  0  0  0  0  0  0  0  0
   -7.5711   16.4929  -32.7561 H   0  0  0  0  0  0  0  0  0  0  0  0
   -5.2137   17.6882  -33.4595 H   0  0  0  0  0  0  0  0  0  0  0  0
   -6.4667   17.1137  -34.6462 H   0  0  0  0  0  0  0  0  0  0  0  0
   -5.4380   19.5990  -34.5400 H   0  0  0  0  0  0  0  0  0  0  0  0
   -6.8850   19.1180  -35.2820 H   0  0  0  0  0  0  0  0  0  0  0  0
   -7.7498   20.7609  -34.0674 H   0  0  0  0  0  0  0  0  0  0  0  0
   -7.8213   19.4331  -32.8491 H   0  0  0  0  0  0  0  0  0  0  0  0
   -7.8430   21.6681  -31.3688 H   0  0  0  0  0  0  0  0  0  0  0  0
   -6.3213   22.9954  -29.9094 H   0  0  0  0  0  0  0  0  0  0  0  0
   -2.7766   21.4061  -29.0480 H   0  0  0  0  0  0  0  0  0  0  0  0
   -1.0695   21.5644  -27.2628 H   0  0  0  0  0  0  0  0  0  0  0  0
    0.4086   22.9812  -25.8303 H   0  0  0  0  0  0  0  0  0  0  0  0
    0.3797   25.4647  -26.0705 H   0  0  0  0  0  0  0  0  0  0  0  0
   -1.1230   26.5471  -27.7454 H   0  0  0  0  0  0  0  0  0  0  0  0
   -2.9087   21.5330  -32.1416 H   0  0  0  0  0  0  0  0  0  0  0  0
   -4.4316   20.2050  -33.5982 H   0  0  0  0  0  0  0  0  0  0  0  0
  1  2  1  0
  2  3  1  0
  3  4  1  0
  4  5  1  0
  5  6  2  0
  6  7  1  0
  7  8  2  0
  8  9  1  0
  9 10  2  0
 10 11  1  0
 11 12  2  0
 12 13  1  0
 13 14  2  0
 14 15  1  0
 15 16  2  0
 16 17  1  0
 17 18  1  0
 18 19  2  0
  8 20  1  0
 20 21  2  0
 21  5  1  0
 18  9  1  0
 16 11  1  0
  1 22  1  0
  1 23  1  0
  1 24  1  0
  2 25  1  0
  2 26  1  0
  3 27  1  0
  3 28  1  0
  4 29  1  0
  4 30  1  0
  6 31  1  0
  7 32  1  0
 10 33  1  0
 12 34  1  0
 13 35  1  0
 14 36  1  0
 15 37  1  0
 20 38  1  0
 21 39  1  0
M  CHG  1   3   1
M  END
>  <UniqueID>  (13) 
11

>  <SMILES>  (13) 
CC[NH2+]Cc1ccc(-c2cc3ccccc3oc2=O)cc1

>  <Energy>  (13) 
49.55729620114471

>  <Genealogy>  (13) 
CC[NH2+]Cc1ccc(-c2cc3ccccc3oc2=O)cc1 (protonated)
CC[NH2+]Cc1ccc(-c2cc3ccccc3oc2=O)cc1 (3D coordinates assigned)
CC[NH2+]Cc1ccc(-c2cc3ccccc3oc2=O)cc1 (optimized conformer: 49.55729620114471 kcal/mol)

>  <smiles>  (13) 
CCNCc1ccc(-c2cc3ccccc3oc2=O)cc1

>  <score_type>  (13) 
oracle

>  <origin>  (13) 
adg

>  <m_score__min__energy>  (13) 
-8.3900000000000006

>  <m_primary>  (13) 
energy

$$$$
13:0
     RDKit          3D

 35 37  0  0  0  0  0  0  0  0999 V2000
   -6.2150   25.2910  -29.6760 C   0  0  0  0  0  0  0  0  0  0  0  0
   -5.4030   25.2960  -30.9650 C   0  0  0  0  0  0  0  0  0  0  0  0
   -4.2570   24.4580  -30.8410 O   0  0  0  0  0  0  0  0  0  0  0  0
   -4.3220   23.1010  -30.5070 C   0  0  0  0  0  0  0  0  0  0  0  0
   -4.4870   22.7490  -29.3080 O   0  0  0  0  0  0  0  0  0  0  0  0
   -4.1940   22.0810  -31.5670 C   0  0  0  0  0  0  0  0  0  0  0  0
   -5.2310   21.4940  -32.3030 C   0  0  0  0  0  0  0  0  0  0  0  0
   -6.6880   21.6380  -32.1010 C   0  0  0  0  0  0  0  0  0  0  0  0
   -7.4990   20.5080  -31.8990 C   0  0  0  0  0  0  0  0  0  0  0  0
   -8.8790   20.6530  -31.7250 C   0  0  0  0  0  0  0  0  0  0  0  0
   -9.4610   21.9230  -31.7650 C   0  0  0  0  0  0  0  0  0  0  0  0
   -8.6640   23.0500  -31.9840 C   0  0  0  0  0  0  0  0  0  0  0  0
   -7.2840   22.9090  -32.1580 C   0  0  0  0  0  0  0  0  0  0  0  0
   -4.6430   20.6730  -33.2580 C   0  0  0  0  0  0  0  0  0  0  0  0
   -3.3070   20.7330  -33.1250 N   0  0  0  0  0  0  0  0  0  0  0  0
   -2.3590   20.0920  -33.8560 C   0  0  0  0  0  0  0  0  0  0  0  0
   -1.0110   20.3250  -33.5520 C   0  0  0  0  0  0  0  0  0  0  0  0
   -0.6800   21.2100  -32.5120 C   0  0  0  0  0  0  0  0  0  0  0  0
   -1.6900   21.8530  -31.7790 C   0  0  0  0  0  0  0  0  0  0  0  0
   -3.0200   21.5750  -32.1140 C   0  0  0  0  0  0  0  0  0  0  0  0
   -5.5330   25.2952  -28.8130 H   0  0  0  0  0  0  0  0  0  0  0  0
   -6.8547   26.1852  -29.6422 H   0  0  0  0  0  0  0  0  0  0  0  0
   -6.8436   24.3890  -29.6422 H   0  0  0  0  0  0  0  0  0  0  0  0
   -6.0317   24.9285  -31.7894 H   0  0  0  0  0  0  0  0  0  0  0  0
   -5.0692   26.3241  -31.1691 H   0  0  0  0  0  0  0  0  0  0  0  0
   -7.0465   19.5056  -31.8777 H   0  0  0  0  0  0  0  0  0  0  0  0
   -9.5074   19.7661  -31.5564 H   0  0  0  0  0  0  0  0  0  0  0  0
  -10.5461   22.0355  -31.6241 H   0  0  0  0  0  0  0  0  0  0  0  0
   -9.1230   24.0490  -32.0195 H   0  0  0  0  0  0  0  0  0  0  0  0
   -6.6618   23.7976  -32.3404 H   0  0  0  0  0  0  0  0  0  0  0  0
   -5.1841   20.0710  -34.0028 H   0  0  0  0  0  0  0  0  0  0  0  0
   -2.6425   19.4059  -34.6677 H   0  0  0  0  0  0  0  0  0  0  0  0
   -0.2184   19.8192  -34.1229 H   0  0  0  0  0  0  0  0  0  0  0  0
    0.3763   21.4000  -32.2709 H   0  0  0  0  0  0  0  0  0  0  0  0
   -1.4438   22.5531  -30.9671 H   0  0  0  0  0  0  0  0  0  0  0  0
  1  2  1  0
  2  3  1  0
  3  4  1  0
  4  5  2  0
  4  6  1  0
  6  7  1  0
  7  8  1  0
  8  9  2  0
  9 10  1  0
 10 11  2  0
 11 12  1  0
 12 13  2  0
  7 14  2  0
 14 15  1  0
 15 16  1  0
 16 17  2  0
 17 18  1  0
 18 19  2  0
 19 20  1  0
 20  6  2  0
 13  8  1  0
 20 15  1  0
  1 21  1  0
  1 22  1  0
  1 23  1  0
  2 24  1  0
  2 25  1  0
  9 26  1  0
 10 27  1  0
 11 28  1  0
 12 29  1  0
 13 30  1  0
 14 31  1  0
 16 32  1  0
 17 33  1  0
 18 34  1  0
 19 35  1  0
M  END
>  <UniqueID>  (14) 
12

>  <SMILES>  (14) 
CCOC(=O)c1c(-c2ccccc2)cn2ccccc12

>  <Energy>  (14) 
71.55472529131356

>  <Genealogy>  (14) 
CCOC(=O)c1c(-c2ccccc2)cn2ccccc12 (3D coordinates assigned)
CCOC(=O)c1c(-c2ccccc2)cn2ccccc12 (optimized conformer: 71.55472529131356 kcal/mol)

>  <smiles>  (14) 
CCOC(=O)c1c(-c2ccccc2)cn2ccccc12

>  <score_type>  (14) 
oracle

>  <origin>  (14) 
adg

>  <m_score__min__energy>  (14) 
-7.3200000000000003

>  <m_primary>  (14) 
energy

$$$$
14:0
     RDKit          3D

 33 34  0  0  0  0  0  0  0  0999 V2000
   -2.7390   19.4750  -33.5880 C   0  0  0  0  0  0  0  0  0  0  0  0
   -3.6440   20.6990  -33.4660 C   0  0  0  0  0  0  0  0  0  0  0  0
   -4.9300   20.3450  -32.8450 N   0  0  0  0  0  0  0  0  0  0  0  0
   -5.4120   18.9600  -32.8990 C   0  0  0  0  0  0  0  0  0  0  0  0
   -6.1070   18.6760  -34.2260 C   0  0  0  0  0  0  0  0  0  0  0  0
   -5.8020   21.3700  -32.3360 C   0  0  0  0  0  0  0  0  0  0  0  0
   -7.1590   21.2000  -32.3710 N   0  0  0  0  0  0  0  0  0  0  0  0
   -8.0210   22.1590  -31.9040 C   0  0  0  0  0  0  0  0  0  0  0  0
   -9.4920   21.9100  -31.9300 C   0  0  0  0  0  0  0  0  0  0  0  0
   -7.5350   23.3150  -31.3570 N   0  0  0  0  0  0  0  0  0  0  0  0
   -6.1930   23.4880  -31.3210 C   0  0  0  0  0  0  0  0  0  0  0  0
   -5.3220   22.5550  -31.7840 C   0  0  0  0  0  0  0  0  0  0  0  0
   -4.0680   23.0480  -31.4740 C   0  0  0  0  0  0  0  0  0  0  0  0
   -4.2200   24.2460  -30.8520 N   0  0  0  0  0  0  0  0  0  0  0  0
   -5.5190   24.5140  -30.7780 N   0  0  0  0  0  0  0  0  0  0  0  0
   -6.0820   25.6680  -30.0910 C   0  0  0  0  0  0  0  0  0  0  0  0
   -2.4725   19.1145  -32.5835 H   0  0  0  0  0  0  0  0  0  0  0  0
   -3.2685   18.6805  -34.1342 H   0  0  0  0  0  0  0  0  0  0  0  0
   -1.8242   19.7484  -34.1342 H   0  0  0  0  0  0  0  0  0  0  0  0
   -3.1421   21.4570  -32.8466 H   0  0  0  0  0  0  0  0  0  0  0  0
   -3.8388   21.0924  -34.4746 H   0  0  0  0  0  0  0  0  0  0  0  0
   -4.5572   18.2768  -32.7869 H   0  0  0  0  0  0  0  0  0  0  0  0
   -6.1354   18.8081  -32.0844 H   0  0  0  0  0  0  0  0  0  0  0  0
   -7.1097   18.2663  -34.0344 H   0  0  0  0  0  0  0  0  0  0  0  0
   -6.1961   19.6098  -34.8005 H   0  0  0  0  0  0  0  0  0  0  0  0
   -5.5166   17.9470  -34.8005 H   0  0  0  0  0  0  0  0  0  0  0  0
   -9.8713   21.8458  -30.8995 H   0  0  0  0  0  0  0  0  0  0  0  0
   -9.9945   22.7359  -32.4549 H   0  0  0  0  0  0  0  0  0  0  0  0
   -9.6947   20.9648  -32.4549 H   0  0  0  0  0  0  0  0  0  0  0  0
   -3.1100   22.5540  -31.6937 H   0  0  0  0  0  0  0  0  0  0  0  0
   -6.0092   25.5188  -29.0036 H   0  0  0  0  0  0  0  0  0  0  0  0
   -5.5238   26.5722  -30.3752 H   0  0  0  0  0  0  0  0  0  0  0  0
   -7.1382   25.7846  -30.3752 H   0  0  0  0  0  0  0  0  0  0  0  0
  1  2  1  0
  2  3  1  0
  3  4  1  0
  4  5  1  0
  3  6  1  0
  6  7  2  0
  7  8  1  0
  8  9  1  0
  8 10  2  0
 10 11  1  0
 11 12  2  0
 12 13  1  0
 13 14  2  0
 14 15  1  0
 15 16  1  0
 12  6  1  0
 15 11  1  0
  1 17  1  0
  1 18  1  0
  1 19  1  0
  2 20  1  0
  2 21  1  0
  4 22  1  0
  4 23  1  0
  5 24  1  0
  5 25  1  0
  5 26  1  0
  9 27  1  0
  9 28  1  0
  9 29  1  0
 13 30  1  0
 16 31  1  0
 16 32  1  0
 16 33  1  0
M  END
>  <UniqueID>  (15) 
13

>  <SMILES>  (15) 
CCN(CC)c1nc(C)nc2c1cnn2C

>  <Energy>  (15) 
69.94092053016949

>  <Genealogy>  (15) 
CCN(CC)c1nc(C)nc2c1cnn2C (3D coordinates assigned)
CCN(CC)c1nc(C)nc2c1cnn2C (optimized conformer: 69.94092053016949 kcal/mol)

>  <smiles>  (15) 
CCN(CC)c1nc(C)nc2c1cnn2C

>  <score_type>  (15) 
oracle

>  <origin>  (15) 
adg

>  <m_score__min__energy>  (15) 
-5.8300000000000001

>  <m_primary>  (15) 
energy

$$$$
15:0
     RDKit          3D

 28 30  0  0  0  0  0  0  0  0999 V2000
    0.2380   24.5700  -28.5380 N   0  0  0  0  0  0  0  0  0  0  0  0
   -0.7880   24.2030  -28.9270 C   0  0  0  0  0  0  0  0  0  0  0  0
   -2.0650   23.7470  -29.4110 C   0  0  0  0  0  0  0  0  0  0  0  0
   -3.2030   24.5390  -29.2440 C   0  0  0  0  0  0  0  0  0  0  0  0
   -4.4450   24.0980  -29.7120 C   0  0  0  0  0  0  0  0  0  0  0  0
   -4.5720   22.8490  -30.3620 C   0  0  0  0  0  0  0  0  0  0  0  0
   -5.8810   22.3370  -30.8800 C   0  0  0  0  0  0  0  0  0  0  0  0
   -7.0010   23.1710  -31.0960 C   0  0  0  0  0  0  0  0  0  0  0  0
   -8.1930   22.6280  -31.5820 C   0  0  0  0  0  0  0  0  0  0  0  0
   -8.2770   21.2610  -31.8540 C   0  0  0  0  0  0  0  0  0  0  0  0
   -9.4510   20.6760  -32.3410 C   0  0  0  0  0  0  0  0  0  0  0  0
   -9.4850   19.3050  -32.5980 C   0  0  0  0  0  0  0  0  0  0  0  0
   -8.3440   18.5330  -32.3630 C   0  0  0  0  0  0  0  0  0  0  0  0
   -7.2060   19.1130  -31.8890 N   0  0  0  0  0  0  0  0  0  0  0  0
   -7.1480   20.4500  -31.6310 C   0  0  0  0  0  0  0  0  0  0  0  0
   -6.0010   21.0050  -31.1580 N   0  0  0  0  0  0  0  0  0  0  0  0
   -3.4090   22.0640  -30.5220 C   0  0  0  0  0  0  0  0  0  0  0  0
   -2.1700   22.5100  -30.0520 C   0  0  0  0  0  0  0  0  0  0  0  0
   -3.1222   25.5144  -28.7419 H   0  0  0  0  0  0  0  0  0  0  0  0
   -5.3339   24.7307  -29.5726 H   0  0  0  0  0  0  0  0  0  0  0  0
   -6.9344   24.2478  -30.8815 H   0  0  0  0  0  0  0  0  0  0  0  0
   -9.0650   23.2771  -31.7503 H   0  0  0  0  0  0  0  0  0  0  0  0
  -10.3431   21.2941  -32.5204 H   0  0  0  0  0  0  0  0  0  0  0  0
  -10.4025   18.8356  -32.9825 H   0  0  0  0  0  0  0  0  0  0  0  0
   -8.3648   17.4513  -32.5618 H   0  0  0  0  0  0  0  0  0  0  0  0
   -6.3650   18.5160  -31.7220 H   0  0  0  0  0  0  0  0  0  0  0  0
   -3.4789   21.0875  -31.0236 H   0  0  0  0  0  0  0  0  0  0  0  0
   -1.2750   21.8850  -30.1873 H   0  0  0  0  0  0  0  0  0  0  0  0
  1  2  3  0
  2  3  1  0
  3  4  2  0
  4  5  1  0
  5  6  2  0
  6  7  1  0
  7  8  2  0
  8  9  1  0
  9 10  2  0
 10 11  1  0
 11 12  2  0
 12 13  1  0
 13 14  2  0
 14 15  1  0
 15 16  2  0
  6 17  1  0
 17 18  2  0
 18  3  1  0
 16  7  1  0
 15 10  1  0
  4 19  1  0
  5 20  1  0
  8 21  1  0
  9 22  1  0
 11 23  1  0
 12 24  1  0
 13 25  1  0
 14 26  1  0
 17 27  1  0
 18 28  1  0
M  CHG  1  14   1
M  END
>  <UniqueID>  (16) 
14

>  <SMILES>  (16) 
N#Cc1ccc(-c2ccc3ccc[nH+]c3n2)cc1

>  <Energy>  (16) 
38.23934826124958

>  <Genealogy>  (16) 
N#Cc1ccc(-c2ccc3ccc[nH+]c3n2)cc1 (protonated)
N#Cc1ccc(-c2ccc3ccc[nH+]c3n2)cc1 (3D coordinates assigned)
N#Cc1ccc(-c2ccc3ccc[nH+]c3n2)cc1 (optimized conformer: 38.23934826124958 kcal/mol)

>  <smiles>  (16) 
N#Cc1ccc(-c2ccc3cccnc3n2)cc1

>  <score_type>  (16) 
oracle

>  <origin>  (16) 
adg

>  <m_score__min__energy>  (16) 
-6.3300000000000001

>  <m_primary>  (16) 
energy

$$$$
16:0
     RDKit          3D

 47 50  0  0  0  0  0  0  0  0999 V2000
   -4.0470   24.5310  -27.0510 C   0  0  0  0  0  0  0  0  0  0  0  0
   -4.6070   23.7820  -28.1240 O   0  0  0  0  0  0  0  0  0  0  0  0
   -3.8560   23.0740  -29.0760 C   0  0  0  0  0  0  0  0  0  0  0  0
   -3.4370   21.7470  -28.8580 C   0  0  0  0  0  0  0  0  0  0  0  0
   -2.6970   21.0720  -29.8310 C   0  0  0  0  0  0  0  0  0  0  0  0
   -2.3760   21.7010  -31.0410 C   0  0  0  0  0  0  0  0  0  0  0  0
   -1.6040   20.9860  -32.0820 C   0  0  0  0  0  0  0  0  0  0  0  0
   -0.2730   21.1070  -32.2350 N   0  0  0  0  0  0  0  0  0  0  0  0
    0.1110   20.2820  -33.1960 N   0  0  0  0  0  0  0  0  0  0  0  0
   -1.0040   19.6590  -33.6290 C   0  0  0  0  0  0  0  0  0  0  0  0
   -2.0970   20.0800  -32.9570 N   0  0  0  0  0  0  0  0  0  0  0  0
   -3.4600   19.7070  -33.2260 C   0  0  0  0  0  0  0  0  0  0  0  0
   -3.7400   18.5310  -33.9370 C   0  0  0  0  0  0  0  0  0  0  0  0
   -5.0630   18.1550  -34.1850 C   0  0  0  0  0  0  0  0  0  0  0  0
   -6.1160   18.9520  -33.7310 C   0  0  0  0  0  0  0  0  0  0  0  0
   -5.8560   20.1460  -33.0380 C   0  0  0  0  0  0  0  0  0  0  0  0
   -6.9730   20.9860  -32.5450 C   0  0  0  0  0  0  0  0  0  0  0  0
   -8.2440   20.4160  -32.3430 C   0  0  0  0  0  0  0  0  0  0  0  0
   -9.3010   21.1950  -31.8640 C   0  0  0  0  0  0  0  0  0  0  0  0
   -9.1040   22.5480  -31.5840 C   0  0  0  0  0  0  0  0  0  0  0  0
   -7.8500   23.1280  -31.7860 C   0  0  0  0  0  0  0  0  0  0  0  0
   -6.7860   22.3550  -32.2650 C   0  0  0  0  0  0  0  0  0  0  0  0
   -5.5870   22.9530  -32.4860 F   0  0  0  0  0  0  0  0  0  0  0  0
   -4.5230   20.5200  -32.7970 C   0  0  0  0  0  0  0  0  0  0  0  0
   -2.7730   23.0290  -31.2520 C   0  0  0  0  0  0  0  0  0  0  0  0
   -3.5190   23.7190  -30.2760 C   0  0  0  0  0  0  0  0  0  0  0  0
   -3.9450   25.0430  -30.4620 O   0  0  0  0  0  0  0  0  0  0  0  0
   -5.3070   25.4590  -30.4760 C   0  0  0  0  0  0  0  0  0  0  0  0
   -4.3709   24.0978  -26.0932 H   0  0  0  0  0  0  0  0  0  0  0  0
   -2.9493   24.4992  -27.1153 H   0  0  0  0  0  0  0  0  0  0  0  0
   -4.3880   25.5748  -27.1153 H   0  0  0  0  0  0  0  0  0  0  0  0
   -3.6940   21.2398  -27.9164 H   0  0  0  0  0  0  0  0  0  0  0  0
   -2.3640   20.0400  -29.6463 H   0  0  0  0  0  0  0  0  0  0  0  0
    0.3730   21.7160  -31.6860 H   0  0  0  0  0  0  0  0  0  0  0  0
   -1.0209   18.9036  -34.4284 H   0  0  0  0  0  0  0  0  0  0  0  0
   -2.9145   17.9017  -34.3011 H   0  0  0  0  0  0  0  0  0  0  0  0
   -5.2754   17.2289  -34.7392 H   0  0  0  0  0  0  0  0  0  0  0  0
   -7.1552   18.6430  -33.9171 H   0  0  0  0  0  0  0  0  0  0  0  0
   -8.4065   19.3506  -32.5635 H   0  0  0  0  0  0  0  0  0  0  0  0
  -10.2904   20.7406  -31.7073 H   0  0  0  0  0  0  0  0  0  0  0  0
   -9.9370   23.1577  -31.2040 H   0  0  0  0  0  0  0  0  0  0  0  0
   -7.6979   24.1954  -31.5681 H   0  0  0  0  0  0  0  0  0  0  0  0
   -4.3092   21.4597  -32.2666 H   0  0  0  0  0  0  0  0  0  0  0  0
   -2.4994   23.5371  -32.1885 H   0  0  0  0  0  0  0  0  0  0  0  0
   -5.6674   25.5691  -29.4426 H   0  0  0  0  0  0  0  0  0  0  0  0
   -5.3904   26.4236  -30.9981 H   0  0  0  0  0  0  0  0  0  0  0  0
   -5.9151   24.7056  -30.9981 H   0  0  0  0  0  0  0  0  0  0  0  0
  1  2  1  0
  2  3  1  0
  3  4  2  0
  4  5  1  0
  5  6  2  0
  6  7  1  0
  7  8  2  0
  8  9  1  0
  9 10  2  0
 10 11  1  0
 11 12  1  0
 12 13  2  0
 13 14  1  0
 14 15  2  0
 15 16  1  0
 16 17  1  0
 17 18  2  0
 18 19  1  0
 19 20  2  0
 20 21  1  0
 21 22  2  0
 22 23  1  0
 16 24  2  0
  6 25  1  0
 25 26  2  0
 26 27  1  0
 27 28  1  0
 26  3  1  0
 11  7  1  0
 24 12  1  0
 22 17  1  0
  1 29  1  0
  1 30  1  0
  1 31  1  0
  4 32  1  0
  5 33  1  0
  8 34  1  0
 10 35  1  0
 13 36  1  0
 14 37  1  0
 15 38  1  0
 18 39  1  0
 19 40  1  0
 20 41  1  0
 21 42  1  0
 24 43  1  0
 25 44  1  0
 28 45  1  0
 28 46  1  0
 28 47  1  0
M  CHG  1   8   1
M  END
>  <UniqueID>  (17) 
15

>  <SMILES>  (17) 
COc1ccc(-c2[nH+]ncn2-c2cccc(-c3ccccc3F)c2)cc1OC

>  <Energy>  (17) 
99.89340386273179

>  <Genealogy>  (17) 
COc1ccc(-c2[nH+]ncn2-c2cccc(-c3ccccc3F)c2)cc1OC (protonated)
COc1ccc(-c2[nH+]ncn2-c2cccc(-c3ccccc3F)c2)cc1OC (3D coordinates assigned)
COc1ccc(-c2[nH+]ncn2-c2cccc(-c3ccccc3F)c2)cc1OC (optimized conformer: 99.89340386273179 kcal/mol)

>  <smiles>  (17) 
COc1ccc(-c2nncn2-c2cccc(-c3ccccc3F)c2)cc1OC

>  <score_type>  (17) 
oracle

>  <origin>  (17) 
adg

>  <m_score__min__energy>  (17) 
-8.2799999999999994

>  <m_primary>  (17) 
energy

$$$$
17:0
     RDKit          3D

 50 53  0  0  0  0  0  0  0  0999 V2000
   -6.7830   24.7230  -29.8140 C   0  0  0  0  0  0  0  0  0  0  0  0
   -7.6150   24.1800  -30.8350 O   0  0  0  0  0  0  0  0  0  0  0  0
   -7.5280   22.8610  -31.3160 C   0  0  0  0  0  0  0  0  0  0  0  0
   -8.5990   21.9570  -31.1920 C   0  0  0  0  0  0  0  0  0  0  0  0
   -8.5060   20.6720  -31.7330 C   0  0  0  0  0  0  0  0  0  0  0  0
   -7.3440   20.2660  -32.4020 C   0  0  0  0  0  0  0  0  0  0  0  0
   -7.2630   18.9010  -33.0210 C   0  0  0  0  0  0  0  0  0  0  0  0
   -6.2760   21.1640  -32.5350 C   0  0  0  0  0  0  0  0  0  0  0  0
   -6.3430   22.4410  -31.9580 C   0  0  0  0  0  0  0  0  0  0  0  0
   -5.2160   23.3170  -32.1040 N   0  0  0  0  0  0  0  0  0  0  0  0
   -4.0950   23.4200  -31.2120 C   0  0  0  0  0  0  0  0  0  0  0  0
   -3.8200   24.5440  -30.7150 O   0  0  0  0  0  0  0  0  0  0  0  0
   -3.2030   22.2430  -30.9020 C   0  0  0  0  0  0  0  0  0  0  0  0
   -1.8090   22.7030  -30.4580 C   0  0  0  0  0  0  0  0  0  0  0  0
   -1.7670   22.9450  -29.0050 N   0  0  0  0  0  0  0  0  0  0  0  0
   -1.6070   24.2990  -28.5130 C   0  0  0  0  0  0  0  0  0  0  0  0
   -1.7900   25.2690  -29.3000 O   0  0  0  0  0  0  0  0  0  0  0  0
   -1.2550   24.5950  -27.0990 C   0  0  0  0  0  0  0  0  0  0  0  0
   -1.9160   25.6430  -26.4340 C   0  0  0  0  0  0  0  0  0  0  0  0
   -1.6420   25.9160  -25.0900 C   0  0  0  0  0  0  0  0  0  0  0  0
   -0.6980   25.1540  -24.3990 C   0  0  0  0  0  0  0  0  0  0  0  0
   -0.0160   24.1240  -25.0520 C   0  0  0  0  0  0  0  0  0  0  0  0
   -0.2740   23.8530  -26.4030 C   0  0  0  0  0  0  0  0  0  0  0  0
    0.6570   22.5510  -27.2210 S   0  0  0  0  0  0  0  0  0  0  0  0
   -0.7960   21.5160  -27.2370 C   0  0  0  0  0  0  0  0  0  0  0  0
   -0.9000   20.4830  -26.3580 N   0  0  0  0  0  0  0  0  0  0  0  0
   -2.0140   19.7070  -26.2990 C   0  0  0  0  0  0  0  0  0  0  0  0
   -3.0980   19.9770  -27.1360 C   0  0  0  0  0  0  0  0  0  0  0  0
   -3.0220   21.0430  -28.0330 C   0  0  0  0  0  0  0  0  0  0  0  0
   -1.8580   21.8230  -28.1020 C   0  0  0  0  0  0  0  0  0  0  0  0
   -7.1913   24.4565  -28.8280 H   0  0  0  0  0  0  0  0  0  0  0  0
   -5.7668   24.3137  -29.9128 H   0  0  0  0  0  0  0  0  0  0  0  0
   -6.7485   25.8180  -29.9128 H   0  0  0  0  0  0  0  0  0  0  0  0
   -9.5151   22.2637  -30.6660 H   0  0  0  0  0  0  0  0  0  0  0  0
   -9.3508   19.9746  -31.6329 H   0  0  0  0  0  0  0  0  0  0  0  0
   -7.2179   18.1406  -32.2274 H   0  0  0  0  0  0  0  0  0  0  0  0
   -8.1524   18.7278  -33.6446 H   0  0  0  0  0  0  0  0  0  0  0  0
   -6.3593   18.8342  -33.6446 H   0  0  0  0  0  0  0  0  0  0  0  0
   -5.3784   20.8651  -33.0962 H   0  0  0  0  0  0  0  0  0  0  0  0
   -3.6589   21.6505  -30.0951 H   0  0  0  0  0  0  0  0  0  0  0  0
   -3.0952   21.6387  -31.8148 H   0  0  0  0  0  0  0  0  0  0  0  0
   -1.0755   21.9241  -30.7137 H   0  0  0  0  0  0  0  0  0  0  0  0
   -1.5707   23.6440  -30.9755 H   0  0  0  0  0  0  0  0  0  0  0  0
   -2.6544   26.2529  -26.9752 H   0  0  0  0  0  0  0  0  0  0  0  0
   -2.1711   26.7324  -24.5765 H   0  0  0  0  0  0  0  0  0  0  0  0
   -0.4909   25.3647  -23.3394 H   0  0  0  0  0  0  0  0  0  0  0  0
    0.7256   23.5240  -24.5043 H   0  0  0  0  0  0  0  0  0  0  0  0
   -2.0615   18.8660  -25.5916 H   0  0  0  0  0  0  0  0  0  0  0  0
   -4.0040   19.3549  -27.0888 H   0  0  0  0  0  0  0  0  0  0  0  0
   -3.8762   21.2722  -28.6871 H   0  0  0  0  0  0  0  0  0  0  0  0
  1  2  1  0
  2  3  1  0
  3  4  2  0
  4  5  1  0
  5  6  2  0
  6  7  1  0
  6  8  1  0
  8  9  2  0
  9 10  1  0
 10 11  1  0
 11 12  2  0
 11 13  1  0
 13 14  1  0
 14 15  1  0
 15 16  1  0
 16 17  2  0
 16 18  1  0
 18 19  2  0
 19 20  1  0
 20 21  2  0
 21 22  1  0
 22 23  2  0
 23 24  1  0
 24 25  1  0
 25 26  2  0
 26 27  1  0
 27 28  2  0
 28 29  1  0
 29 30  2  0
  9  3  1  0
 30 15  1  0
 23 18  1  0
 30 25  1  0
  1 31  1  0
  1 32  1  0
  1 33  1  0
  4 34  1  0
  5 35  1  0
  7 36  1  0
  7 37  1  0
  7 38  1  0
  8 39  1  0
 13 40  1  0
 13 41  1  0
 14 42  1  0
 14 43  1  0
 19 44  1  0
 20 45  1  0
 21 46  1  0
 22 47  1  0
 27 48  1  0
 28 49  1  0
 29 50  1  0
M  CHG  1  10  -1
M  END
>  <UniqueID>  (18) 
16

>  <SMILES>  (18) 
COc1ccc(C)cc1[N-]C(=O)CCN1C(=O)c2ccccc2Sc2ncccc21

>  <Energy>  (18) 
71.66853386022031

>  <Genealogy>  (18) 
COc1ccc(C)cc1[N-]C(=O)CCN1C(=O)c2ccccc2Sc2ncccc21 (protonated)
COc1ccc(C)cc1[N-]C(=O)CCN1C(=O)c2ccccc2Sc2ncccc21 (3D coordinates assigned)
COc1ccc(C)cc1[N-]C(=O)CCN1C(=O)c2ccccc2Sc2ncccc21 (nonaromatic ring conformer: 71.66853386022031 kcal/mol)

>  <smiles>  (18) 
COc1ccc(C)cc1NC(=O)CCN1C(=O)c2ccccc2Sc2ncccc21

>  <score_type>  (18) 
oracle

>  <origin>  (18) 
adg

>  <m_score__min__energy>  (18) 
-10.43

>  <m_primary>  (18) 
energy

$$$$
18:0
     RDKit          3D

 56 60  0  0  0  0  0  0  0  0999 V2000
   -5.3600   18.2510  -34.1690 C   0  0  0  0  0  0  0  0  0  0  0  0
   -5.3840   19.6370  -33.8480 O   0  0  0  0  0  0  0  0  0  0  0  0
   -4.3840   20.3340  -33.1510 C   0  0  0  0  0  0  0  0  0  0  0  0
   -3.0140   20.0490  -33.2960 C   0  0  0  0  0  0  0  0  0  0  0  0
   -2.4990   19.1220  -34.0720 O   0  0  0  0  0  0  0  0  0  0  0  0
   -1.2010   19.1560  -33.9190 C   0  0  0  0  0  0  0  0  0  0  0  0
   -0.2780   18.3380  -34.5640 C   0  0  0  0  0  0  0  0  0  0  0  0
    1.0820   18.5220  -34.2770 C   0  0  0  0  0  0  0  0  0  0  0  0
    1.4870   19.5120  -33.3620 C   0  0  0  0  0  0  0  0  0  0  0  0
    2.8070   19.6820  -33.0980 F   0  0  0  0  0  0  0  0  0  0  0  0
    0.5370   20.3270  -32.7220 C   0  0  0  0  0  0  0  0  0  0  0  0
   -0.8230   20.1310  -33.0140 C   0  0  0  0  0  0  0  0  0  0  0  0
   -2.0180   20.7350  -32.5930 C   0  0  0  0  0  0  0  0  0  0  0  0
   -2.3390   21.7830  -31.6860 C   0  0  0  0  0  0  0  0  0  0  0  0
   -1.2990   22.4930  -30.8440 C   0  0  0  0  0  0  0  0  0  0  0  0
   -0.8700   21.6820  -29.6820 N   0  0  0  0  0  0  0  0  0  0  0  0
   -1.9350   20.7990  -29.1780 C   0  0  0  0  0  0  0  0  0  0  0  0
   -0.4160   22.5660  -28.5960 C   0  0  0  0  0  0  0  0  0  0  0  0
   -3.7250   22.0900  -31.5690 C   0  0  0  0  0  0  0  0  0  0  0  0
   -4.4120   23.0130  -30.7780 C   0  0  0  0  0  0  0  0  0  0  0  0
   -3.9100   24.0810  -29.9080 C   0  0  0  0  0  0  0  0  0  0  0  0
   -3.7210   23.8680  -28.6830 O   0  0  0  0  0  0  0  0  0  0  0  0
   -3.5290   25.2980  -30.4580 O   0  0  0  0  0  0  0  0  0  0  0  0
   -5.7580   22.8000  -30.9940 C   0  0  0  0  0  0  0  0  0  0  0  0
   -5.9520   21.8130  -31.8940 N   0  0  0  0  0  0  0  0  0  0  0  0
   -7.2930   21.3770  -32.3280 C   0  0  0  0  0  0  0  0  0  0  0  0
   -8.3930   22.3410  -31.8230 C   0  0  0  0  0  0  0  0  0  0  0  0
   -9.7730   21.6730  -31.7070 C   0  0  0  0  0  0  0  0  0  0  0  0
   -9.8460   20.4860  -32.4710 O   0  0  0  0  0  0  0  0  0  0  0  0
   -9.0060   19.5100  -31.8890 C   0  0  0  0  0  0  0  0  0  0  0  0
   -7.5200   19.8740  -32.0390 C   0  0  0  0  0  0  0  0  0  0  0  0
   -4.7130   21.3730  -32.2530 C   0  0  0  0  0  0  0  0  0  0  0  0
   -5.3498   17.6599  -33.2414 H   0  0  0  0  0  0  0  0  0  0  0  0
   -6.2539   17.9953  -34.7569 H   0  0  0  0  0  0  0  0  0  0  0  0
   -4.4578   18.0264  -34.7569 H   0  0  0  0  0  0  0  0  0  0  0  0
   -0.6062   17.5689  -35.2787 H   0  0  0  0  0  0  0  0  0  0  0  0
    1.8359   17.8899  -34.7691 H   0  0  0  0  0  0  0  0  0  0  0  0
    0.8520   21.1019  -32.0076 H   0  0  0  0  0  0  0  0  0  0  0  0
   -0.4206   22.7054  -31.4711 H   0  0  0  0  0  0  0  0  0  0  0  0
   -1.7511   23.4195  -30.4602 H   0  0  0  0  0  0  0  0  0  0  0  0
   -1.9269   20.8057  -28.0780 H   0  0  0  0  0  0  0  0  0  0  0  0
   -2.9101   21.1572  -29.5397 H   0  0  0  0  0  0  0  0  0  0  0  0
   -1.7636   19.7744  -29.5397 H   0  0  0  0  0  0  0  0  0  0  0  0
   -0.6525   22.1056  -27.6254 H   0  0  0  0  0  0  0  0  0  0  0  0
    0.6708   22.7162  -28.6756 H   0  0  0  0  0  0  0  0  0  0  0  0
   -0.9271   23.5368  -28.6756 H   0  0  0  0  0  0  0  0  0  0  0  0
   -6.5652   23.3598  -30.4989 H   0  0  0  0  0  0  0  0  0  0  0  0
   -7.3626   21.4487  -33.4234 H   0  0  0  0  0  0  0  0  0  0  0  0
   -8.1012   22.7164  -30.8311 H   0  0  0  0  0  0  0  0  0  0  0  0
   -8.4821   23.1524  -32.5604 H   0  0  0  0  0  0  0  0  0  0  0  0
   -9.9634   21.4296  -30.6513 H   0  0  0  0  0  0  0  0  0  0  0  0
  -10.5270   22.3752  -32.0923 H   0  0  0  0  0  0  0  0  0  0  0  0
   -9.2459   19.4260  -30.8188 H   0  0  0  0  0  0  0  0  0  0  0  0
   -9.1788   18.5560  -32.4086 H   0  0  0  0  0  0  0  0  0  0  0  0
   -6.9992   19.6137  -31.1057 H   0  0  0  0  0  0  0  0  0  0  0  0
   -7.1278   19.3103  -32.8984 H   0  0  0  0  0  0  0  0  0  0  0  0
  1  2  1  0
  2  3  1  0
  3  4  2  0
  4  5  1  0
  5  6  1  0
  6  7  2  0
  7  8  1  0
  8  9  2  0
  9 10  1  0
  9 11  1  0
 11 12  2  0
 12 13  1  0
 13 14  2  0
 14 15  1  0
 15 16  1  0
 16 17  1  0
 16 18  1  0
 14 19  1  0
 19 20  1  0
 20 21  1  0
 21 22  2  0
 21 23  1  0
 20 24  2  0
 24 25  1  0
 25 26  1  0
 26 27  1  0
 27 28  1  0
 28 29  1  0
 29 30  1  0
 30 31  1  0
 25 32  1  0
 32  3  1  0
 13  4  1  0
 32 19  2  0
 12  6  1  0
 31 26  1  0
  1 33  1  0
  1 34  1  0
  1 35  1  0
  7 36  1  0
  8 37  1  0
 11 38  1  0
 15 39  1  0
 15 40  1  0
 17 41  1  0
 17 42  1  0
 17 43  1  0
 18 44  1  0
 18 45  1  0
 18 46  1  0
 24 47  1  0
 26 48  1  0
 27 49  1  0
 27 50  1  0
 28 51  1  0
 28 52  1  0
 30 53  1  0
 30 54  1  0
 31 55  1  0
 31 56  1  0
M  CHG  1  23  -1
M  END
>  <UniqueID>  (19) 
17

>  <SMILES>  (19) 
COc1c2oc3ccc(F)cc3c2c(CN(C)C)c2c(C(=O)[O-])cn(C3CCOCC3)c12

>  <Energy>  (19) 
161.26733529754821

>  <Genealogy>  (19) 
COc1c2oc3ccc(F)cc3c2c(CN(C)C)c2c(C(=O)[O-])cn(C3CCOCC3)c12 (protonated)
COc1c2oc3ccc(F)cc3c2c(CN(C)C)c2c(C(=O)[O-])cn(C3CCOCC3)c12 (3D coordinates assigned)
COc1c2oc3ccc(F)cc3c2c(CN(C)C)c2c(C(=O)[O-])cn(C3CCOCC3)c12 (nonaromatic ring conformer: 161.26733529754821 kcal/mol)

>  <smiles>  (19) 
COc1c2oc3ccc(F)cc3c2c(CN(C)C)c2c(C(=O)O)cn(C3CCOCC3)c12

>  <score_type>  (19) 
oracle

>  <origin>  (19) 
adg

>  <m_score__min__energy>  (19) 
-9.9900000000000002

>  <m_primary>  (19) 
energy

$$$$
19:0
     RDKit          3D

 34 34  0  0  0  0  0  0  0  0999 V2000
  -10.4566   21.4912  -31.6307 H   0  0  0  0  0  0  0  0  0  0  0  0
   -9.4700   21.1110  -31.9340 C   0  0  0  0  0  0  0  0  0  0  0  0
   -9.3280   19.8090  -32.2980 N   0  0  0  0  0  0  0  0  0  0  0  0
   -8.1250   19.3050  -32.6810 C   0  0  0  0  0  0  0  0  0  0  0  0
   -8.0401   18.2471  -32.9703 H   0  0  0  0  0  0  0  0  0  0  0  0
   -6.9960   20.1280  -32.7080 C   0  0  0  0  0  0  0  0  0  0  0  0
   -6.0240   19.7223  -33.0253 H   0  0  0  0  0  0  0  0  0  0  0  0
   -7.1080   21.4760  -32.3280 C   0  0  0  0  0  0  0  0  0  0  0  0
   -5.9200   22.3650  -32.3550 C   0  0  0  0  0  0  0  0  0  0  0  0
   -4.7820   21.8790  -32.5950 O   0  0  0  0  0  0  0  0  0  0  0  0
   -6.0440   23.7860  -32.1910 N   0  0  0  0  0  0  0  0  0  0  0  0
   -5.9820   24.4050  -31.0750 N   0  0  0  0  0  0  0  0  0  0  0  0
   -4.7770   24.6820  -30.3440 C   0  0  0  0  0  0  0  0  0  0  0  0
   -3.8640   25.3850  -30.8540 O   0  0  0  0  0  0  0  0  0  0  0  0
   -4.6230   24.1640  -28.9490 C   0  0  0  0  0  0  0  0  0  0  0  0
   -4.9832   23.1257  -28.9017 H   0  0  0  0  0  0  0  0  0  0  0  0
   -5.2105   24.7881  -28.2595 H   0  0  0  0  0  0  0  0  0  0  0  0
   -3.1960   24.2090  -28.5600 N   0  0  0  0  0  0  0  0  0  0  0  0
   -3.0300   24.1960  -27.0890 C   0  0  0  0  0  0  0  0  0  0  0  0
   -2.0824   24.6933  -26.8346 H   0  0  0  0  0  0  0  0  0  0  0  0
   -3.0319   23.1473  -26.7571 H   0  0  0  0  0  0  0  0  0  0  0  0
   -4.1730   24.9180  -26.3750 C   0  0  0  0  0  0  0  0  0  0  0  0
   -4.0376   24.8325  -25.2867 H   0  0  0  0  0  0  0  0  0  0  0  0
   -4.1722   25.9798  -26.6623 H   0  0  0  0  0  0  0  0  0  0  0  0
   -5.1315   24.4611  -26.6623 H   0  0  0  0  0  0  0  0  0  0  0  0
   -2.3810   23.1960  -29.2760 C   0  0  0  0  0  0  0  0  0  0  0  0
   -2.1287   23.5944  -30.2698 H   0  0  0  0  0  0  0  0  0  0  0  0
   -1.4913   23.0077  -28.6572 H   0  0  0  0  0  0  0  0  0  0  0  0
   -3.0870   21.8460  -29.4620 C   0  0  0  0  0  0  0  0  0  0  0  0
   -3.3139   21.4121  -28.4770 H   0  0  0  0  0  0  0  0  0  0  0  0
   -4.0224   21.9954  -30.0212 H   0  0  0  0  0  0  0  0  0  0  0  0
   -2.4307   21.1629  -30.0212 H   0  0  0  0  0  0  0  0  0  0  0  0
   -8.3670   21.9670  -31.9440 C   0  0  0  0  0  0  0  0  0  0  0  0
   -8.4833   23.0213  -31.6525 H   0  0  0  0  0  0  0  0  0  0  0  0
  1  2  1  0
  2  3  2  0
  3  4  1  0
  4  5  1  0
  4  6  2  0
  6  7  1  0
  6  8  1  0
  8  9  1  0
  9 10  2  0
  9 11  1  0
 11 12  2  0
 12 13  1  0
 13 14  2  0
 13 15  1  0
 15 16  1  0
 15 17  1  0
 15 18  1  0
 18 19  1  0
 19 20  1  0
 19 21  1  0
 19 22  1  0
 22 23  1  0
 22 24  1  0
 22 25  1  0
 18 26  1  0
 26 27  1  0
 26 28  1  0
 26 29  1  0
 29 30  1  0
 29 31  1  0
 29 32  1  0
  8 33  2  0
 33 34  1  0
 33  2  1  0
M  END
>  <UniqueID>  (20) 
18

>  <SMILES>  (20) 
CCN(CC)CC(=O)/N=N\C(=O)c1ccncc1

>  <Energy>  (20) 
44.68910831769706

>  <Genealogy>  (20) 
CCN(CC)CC(=O)/N=N\C(=O)c1ccncc1 (cis-trans isomerization)
CCN(CC)CC(=O)/N=N\C(=O)c1ccncc1 (3D coordinates assigned)
CCN(CC)CC(=O)/N=N\C(=O)c1ccncc1 (optimized conformer: 44.68910831769706 kcal/mol)

>  <smiles>  (20) 
CCN(CC)CC(=O)N=NC(=O)c1ccncc1

>  <score_type>  (20) 
oracle

>  <origin>  (20) 
adg

>  <m_score__min__energy>  (20) 
-6.46

>  <m_primary>  (20) 
energy

$$$$
20:0
     RDKit          3D

 45 47  0  0  0  0  0  0  0  0999 V2000
   -2.0410   15.2670  -33.2670 C   0  0  0  0  0  0  0  0  0  0  0  0
   -3.3570   15.3650  -32.7330 O   0  0  0  0  0  0  0  0  0  0  0  0
   -4.2540   16.4050  -33.0220 C   0  0  0  0  0  0  0  0  0  0  0  0
   -5.6250   16.1810  -33.2380 C   0  0  0  0  0  0  0  0  0  0  0  0
   -6.4740   17.2480  -33.5330 C   0  0  0  0  0  0  0  0  0  0  0  0
   -5.9720   18.5580  -33.6250 C   0  0  0  0  0  0  0  0  0  0  0  0
   -6.8210   19.6370  -33.9180 O   0  0  0  0  0  0  0  0  0  0  0  0
   -7.5100   20.4070  -32.9700 C   0  0  0  0  0  0  0  0  0  0  0  0
   -8.8570   20.1780  -32.6590 C   0  0  0  0  0  0  0  0  0  0  0  0
   -9.4860   20.9890  -31.7170 C   0  0  0  0  0  0  0  0  0  0  0  0
   -8.7650   22.0200  -31.1180 C   0  0  0  0  0  0  0  0  0  0  0  0
   -7.4660   22.2210  -31.4690 N   0  0  0  0  0  0  0  0  0  0  0  0
   -6.8630   21.4390  -32.3680 N   0  0  0  0  0  0  0  0  0  0  0  0
   -4.6050   18.7920  -33.3820 C   0  0  0  0  0  0  0  0  0  0  0  0
   -4.0160   20.1800  -33.4870 C   0  0  0  0  0  0  0  0  0  0  0  0
   -3.9610   20.8340  -32.1620 N   0  0  0  0  0  0  0  0  0  0  0  0
   -2.7920   20.3550  -31.3950 C   0  0  0  0  0  0  0  0  0  0  0  0
   -3.9030   22.3030  -32.3180 C   0  0  0  0  0  0  0  0  0  0  0  0
   -4.6640   22.9760  -31.2190 C   0  0  0  0  0  0  0  0  0  0  0  0
   -5.0470   22.3510  -30.0880 N   0  0  0  0  0  0  0  0  0  0  0  0
   -5.6440   23.2680  -29.3900 O   0  0  0  0  0  0  0  0  0  0  0  0
   -5.6280   24.4010  -30.0480 C   0  0  0  0  0  0  0  0  0  0  0  0
   -6.2230   25.6720  -29.5460 C   0  0  0  0  0  0  0  0  0  0  0  0
   -5.0070   24.2820  -31.2360 N   0  0  0  0  0  0  0  0  0  0  0  0
   -3.7560   17.7100  -33.0980 C   0  0  0  0  0  0  0  0  0  0  0  0
   -1.3141   15.2129  -32.4432 H   0  0  0  0  0  0  0  0  0  0  0  0
   -1.9627   14.3605  -33.8852 H   0  0  0  0  0  0  0  0  0  0  0  0
   -1.8293   16.1519  -33.8852 H   0  0  0  0  0  0  0  0  0  0  0  0
   -6.0300   15.1603  -33.1741 H   0  0  0  0  0  0  0  0  0  0  0  0
   -7.5461   17.0626  -33.6951 H   0  0  0  0  0  0  0  0  0  0  0  0
   -9.4116   19.3668  -33.1532 H   0  0  0  0  0  0  0  0  0  0  0  0
  -10.5391   20.8176  -31.4493 H   0  0  0  0  0  0  0  0  0  0  0  0
   -9.2425   22.6665  -30.3670 H   0  0  0  0  0  0  0  0  0  0  0  0
   -6.9310   23.0010  -31.0290 H   0  0  0  0  0  0  0  0  0  0  0  0
   -2.9971   20.1084  -33.8954 H   0  0  0  0  0  0  0  0  0  0  0  0
   -4.6551   20.7827  -34.1490 H   0  0  0  0  0  0  0  0  0  0  0  0
   -3.0000   20.4402  -30.3182 H   0  0  0  0  0  0  0  0  0  0  0  0
   -2.5935   19.3030  -31.6480 H   0  0  0  0  0  0  0  0  0  0  0  0
   -1.9124   20.9652  -31.6480 H   0  0  0  0  0  0  0  0  0  0  0  0
   -2.8532   22.6297  -32.2844 H   0  0  0  0  0  0  0  0  0  0  0  0
   -4.3540   22.5769  -33.2832 H   0  0  0  0  0  0  0  0  0  0  0  0
   -6.2213   25.6683  -28.4460 H   0  0  0  0  0  0  0  0  0  0  0  0
   -5.6300   26.5236  -29.9108 H   0  0  0  0  0  0  0  0  0  0  0  0
   -7.2568   25.7621  -29.9108 H   0  0  0  0  0  0  0  0  0  0  0  0
   -2.6837   17.8913  -32.9329 H   0  0  0  0  0  0  0  0  0  0  0  0
  1  2  1  0
  2  3  1  0
  3  4  2  0
  4  5  1  0
  5  6  2  0
  6  7  1  0
  7  8  1  0
  8  9  2  0
  9 10  1  0
 10 11  2  0
 11 12  1  0
 12 13  2  0
  6 14  1  0
 14 15  1  0
 15 16  1  0
 16 17  1  0
 16 18  1  0
 18 19  1  0
 19 20  2  0
 20 21  1  0
 21 22  1  0
 22 23  1  0
 22 24  2  0
 14 25  2  0
 25  3  1  0
 13  8  1  0
 24 19  1  0
  1 26  1  0
  1 27  1  0
  1 28  1  0
  4 29  1  0
  5 30  1  0
  9 31  1  0
 10 32  1  0
 11 33  1  0
 12 34  1  0
 15 35  1  0
 15 36  1  0
 17 37  1  0
 17 38  1  0
 17 39  1  0
 18 40  1  0
 18 41  1  0
 23 42  1  0
 23 43  1  0
 23 44  1  0
 25 45  1  0
M  CHG  1  12   1
M  END
>  <UniqueID>  (21) 
19

>  <SMILES>  (21) 
COc1ccc(Oc2ccc[nH+]n2)c(CN(C)Cc2noc(C)n2)c1

>  <Energy>  (21) 
84.87406849539073

>  <Genealogy>  (21) 
COc1ccc(Oc2ccc[nH+]n2)c(CN(C)Cc2noc(C)n2)c1 (protonated)
COc1ccc(Oc2ccc[nH+]n2)c(CN(C)Cc2noc(C)n2)c1 (3D coordinates assigned)
COc1ccc(Oc2ccc[nH+]n2)c(CN(C)Cc2noc(C)n2)c1 (optimized conformer: 84.87406849539073 kcal/mol)

>  <smiles>  (21) 
COc1ccc(Oc2cccnn2)c(CN(C)Cc2noc(C)n2)c1

>  <score_type>  (21) 
oracle

>  <origin>  (21) 
adg

>  <m_score__min__energy>  (21) 
-7.5999999999999996

>  <m_primary>  (21) 
energy

$$$$
21:0
     RDKit          3D

 28 30  0  0  0  0  0  0  0  0999 V2000
   -6.4740   17.0720  -34.2580 C   0  0  0  0  0  0  0  0  0  0  0  0
   -6.1760   18.3430  -33.5860 N   0  0  0  0  0  0  0  0  0  0  0  0
   -4.9110   18.8840  -33.6880 C   0  0  0  0  0  0  0  0  0  0  0  0
   -4.6080   20.0730  -33.0900 N   0  0  0  0  0  0  0  0  0  0  0  0
   -5.5770   20.7100  -32.3950 C   0  0  0  0  0  0  0  0  0  0  0  0
   -5.5450   21.9130  -31.7300 C   0  0  0  0  0  0  0  0  0  0  0  0
   -4.5260   22.8450  -31.5530 C   0  0  0  0  0  0  0  0  0  0  0  0
   -4.8250   24.0080  -30.8240 C   0  0  0  0  0  0  0  0  0  0  0  0
   -3.8570   24.9390  -30.6290 F   0  0  0  0  0  0  0  0  0  0  0  0
   -6.1230   24.2130  -30.3000 C   0  0  0  0  0  0  0  0  0  0  0  0
   -6.4870   25.6730  -29.3960 Cl  0  0  0  0  0  0  0  0  0  0  0  0
   -7.1350   23.2530  -30.5000 C   0  0  0  0  0  0  0  0  0  0  0  0
   -6.8170   22.0960  -31.2230 C   0  0  0  0  0  0  0  0  0  0  0  0
   -7.6270   21.0490  -31.5400 N   0  0  0  0  0  0  0  0  0  0  0  0
   -9.0470   20.8770  -31.2240 C   0  0  0  0  0  0  0  0  0  0  0  0
   -6.8450   20.2130  -32.2720 C   0  0  0  0  0  0  0  0  0  0  0  0
   -7.1630   19.0010  -32.8890 C   0  0  0  0  0  0  0  0  0  0  0  0
   -8.3280   18.5250  -32.8140 O   0  0  0  0  0  0  0  0  0  0  0  0
   -6.6568   16.2925  -33.5037 H   0  0  0  0  0  0  0  0  0  0  0  0
   -7.3687   17.1907  -34.8869 H   0  0  0  0  0  0  0  0  0  0  0  0
   -5.6198   16.7806  -34.8869 H   0  0  0  0  0  0  0  0  0  0  0  0
   -4.1366   18.3503  -34.2586 H   0  0  0  0  0  0  0  0  0  0  0  0
   -3.6490   20.4790  -33.1760 H   0  0  0  0  0  0  0  0  0  0  0  0
   -3.5219   22.6766  -31.9694 H   0  0  0  0  0  0  0  0  0  0  0  0
   -8.1476   23.4080  -30.0991 H   0  0  0  0  0  0  0  0  0  0  0  0
   -9.1803   20.8609  -30.1322 H   0  0  0  0  0  0  0  0  0  0  0  0
   -9.6215   21.7121  -31.6512 H   0  0  0  0  0  0  0  0  0  0  0  0
   -9.4055   19.9289  -31.6512 H   0  0  0  0  0  0  0  0  0  0  0  0
  1  2  1  0
  2  3  1  0
  3  4  2  0
  4  5  1  0
  5  6  1  0
  6  7  2  0
  7  8  1  0
  8  9  1  0
  8 10  2  0
 10 11  1  0
 10 12  1  0
 12 13  2  0
 13 14  1  0
 14 15  1  0
 14 16  1  0
 16 17  1  0
 17 18  2  0
 17  2  1  0
 16  5  2  0
 13  6  1  0
  1 19  1  0
  1 20  1  0
  1 21  1  0
  3 22  1  0
  4 23  1  0
  7 24  1  0
 12 25  1  0
 15 26  1  0
 15 27  1  0
 15 28  1  0
M  CHG  1   4   1
M  END
>  <UniqueID>  (22) 
20

>  <SMILES>  (22) 
Cn1c[nH+]c2c3cc(F)c(Cl)cc3n(C)c2c1=O

>  <Energy>  (22) 
77.67211477645604

>  <Genealogy>  (22) 
Cn1c[nH+]c2c3cc(F)c(Cl)cc3n(C)c2c1=O (protonated)
Cn1c[nH+]c2c3cc(F)c(Cl)cc3n(C)c2c1=O (3D coordinates assigned)
Cn1c[nH+]c2c3cc(F)c(Cl)cc3n(C)c2c1=O (optimized conformer: 77.67211477645604 kcal/mol)

>  <smiles>  (22) 
Cn1cnc2c3cc(F)c(Cl)cc3n(C)c2c1=O

>  <score_type>  (22) 
oracle

>  <origin>  (22) 
adg

>  <m_score__min__energy>  (22) 
-6.5300000000000002

>  <m_primary>  (22) 
energy

$$$$
22:0
     RDKit          3D

 27 28  0  0  0  0  0  0  0  0999 V2000
   -7.1920   23.7970  -32.7680 O   0  0  0  0  0  0  0  0  0  0  0  0
   -7.6190   23.0830  -31.8160 C   0  0  0  0  0  0  0  0  0  0  0  0
   -8.7640   22.1650  -31.9700 C   0  0  0  0  0  0  0  0  0  0  0  0
   -8.3080   20.7630  -32.1980 C   0  0  0  0  0  0  0  0  0  0  0  0
   -9.0110   19.7540  -31.5920 C   0  0  0  0  0  0  0  0  0  0  0  0
   -8.6550   18.4180  -31.7510 C   0  0  0  0  0  0  0  0  0  0  0  0
   -7.5550   18.0940  -32.5480 C   0  0  0  0  0  0  0  0  0  0  0  0
   -6.8520   19.1180  -33.1550 C   0  0  0  0  0  0  0  0  0  0  0  0
   -5.6760   18.8160  -34.0110 C   0  0  0  0  0  0  0  0  0  0  0  0
   -5.1820   17.5570  -33.8370 F   0  0  0  0  0  0  0  0  0  0  0  0
   -4.6890   19.7630  -33.8400 F   0  0  0  0  0  0  0  0  0  0  0  0
   -6.0680   18.9100  -35.3420 F   0  0  0  0  0  0  0  0  0  0  0  0
   -7.2260   20.4510  -32.9830 C   0  0  0  0  0  0  0  0  0  0  0  0
   -6.9920   23.1500  -30.5440 N   0  0  0  0  0  0  0  0  0  0  0  0
   -5.9190   23.7970  -30.3120 C   0  0  0  0  0  0  0  0  0  0  0  0
   -4.9980   24.0590  -31.2740 N   0  0  0  0  0  0  0  0  0  0  0  0
   -4.0250   24.7350  -30.7110 N   0  0  0  0  0  0  0  0  0  0  0  0
   -4.2790   24.9230  -29.4240 N   0  0  0  0  0  0  0  0  0  0  0  0
   -5.4400   24.3450  -29.1920 N   0  0  0  0  0  0  0  0  0  0  0  0
   -9.3757   22.1987  -31.0564 H   0  0  0  0  0  0  0  0  0  0  0  0
   -9.3509   22.4855  -32.8434 H   0  0  0  0  0  0  0  0  0  0  0  0
   -9.8783   20.0067  -30.9643 H   0  0  0  0  0  0  0  0  0  0  0  0
   -9.2340   17.6256  -31.2541 H   0  0  0  0  0  0  0  0  0  0  0  0
   -7.2541   17.0455  -32.6899 H   0  0  0  0  0  0  0  0  0  0  0  0
   -6.6544   21.2512  -33.4759 H   0  0  0  0  0  0  0  0  0  0  0  0
   -3.6430   25.4340  -28.7840 H   0  0  0  0  0  0  0  0  0  0  0  0
   -5.9010   24.3260  -28.2720 H   0  0  0  0  0  0  0  0  0  0  0  0
  1  2  2  0
  2  3  1  0
  3  4  1  0
  4  5  2  0
  5  6  1  0
  6  7  2  0
  7  8  1  0
  8  9  1  0
  9 10  1  0
  9 11  1  0
  9 12  1  0
  8 13  2  0
  2 14  1  0
 14 15  2  3
 15 16  1  0
 16 17  2  0
 17 18  1  0
 18 19  1  0
 13  4  1  0
 19 15  1  0
  3 20  1  0
  3 21  1  0
  5 22  1  0
  6 23  1  0
  7 24  1  0
 13 25  1  0
 18 26  1  0
 19 27  1  0
M  END
>  <smiles>  (23) 
O=C(Cc1cccc(C(F)(F)F)c1)N=c1nn[nH][nH]1

>  <score_type>  (23) 
oracle

>  <origin>  (23) 
adg

>  <m_score__min__energy>  (23) 
-7.9900000000000002

>  <m_primary>  (23) 
energy

$$$$
23:0
     RDKit          3D

 45 47  0  0  0  0  0  0  0  0999 V2000
   -2.7598   20.8654  -32.4763 H   0  0  0  0  0  0  0  0  0  0  0  0
   -3.1970   21.6640  -31.8590 C   0  0  0  0  0  0  0  0  0  0  0  0
   -2.4250   22.2810  -30.8830 C   0  0  0  0  0  0  0  0  0  0  0  0
   -0.7650   21.7750  -30.6270 Cl  0  0  0  0  0  0  0  0  0  0  0  0
   -2.9640   23.3220  -30.1320 C   0  0  0  0  0  0  0  0  0  0  0  0
   -2.3447   23.8262  -29.3755 H   0  0  0  0  0  0  0  0  0  0  0  0
   -4.2920   23.7340  -30.3320 C   0  0  0  0  0  0  0  0  0  0  0  0
   -5.1280   23.0560  -31.2730 C   0  0  0  0  0  0  0  0  0  0  0  0
   -4.5230   22.0490  -32.0630 C   0  0  0  0  0  0  0  0  0  0  0  0
   -5.1102   21.5598  -32.8541 H   0  0  0  0  0  0  0  0  0  0  0  0
   -6.4990   23.4810  -31.3800 C   0  0  0  0  0  0  0  0  0  0  0  0
   -7.4630   22.8690  -32.0260 N   0  0  0  0  0  0  0  0  0  0  0  0
   -8.9220   22.9000  -31.9500 C   0  0  0  0  0  0  0  0  0  0  0  0
   -9.3346   22.9055  -32.9697 H   0  0  0  0  0  0  0  0  0  0  0  0
   -9.2239   23.8067  -31.4053 H   0  0  0  0  0  0  0  0  0  0  0  0
   -9.4640   21.6750  -31.1960 C   0  0  0  0  0  0  0  0  0  0  0  0
  -10.4941   21.8825  -30.8706 H   0  0  0  0  0  0  0  0  0  0  0  0
   -8.8110   21.4851  -30.3314 H   0  0  0  0  0  0  0  0  0  0  0  0
   -9.4640   20.4240  -32.0830 C   0  0  0  0  0  0  0  0  0  0  0  0
   -9.1001   20.6987  -33.0841 H   0  0  0  0  0  0  0  0  0  0  0  0
  -10.4932   20.0380  -32.1251 H   0  0  0  0  0  0  0  0  0  0  0  0
   -8.5650   19.3150  -31.5160 C   0  0  0  0  0  0  0  0  0  0  0  0
   -9.1918   18.4601  -31.2225 H   0  0  0  0  0  0  0  0  0  0  0  0
   -8.0239   19.7161  -30.6464 H   0  0  0  0  0  0  0  0  0  0  0  0
   -7.5780   18.8670  -32.5130 N   0  0  0  0  0  0  0  0  0  0  0  0
   -6.8640   19.7900  -33.2260 C   0  0  0  0  0  0  0  0  0  0  0  0
   -7.0023   20.8623  -33.0234 H   0  0  0  0  0  0  0  0  0  0  0  0
   -5.9620   19.3820  -34.2080 C   0  0  0  0  0  0  0  0  0  0  0  0
   -5.3947   20.1291  -34.7824 H   0  0  0  0  0  0  0  0  0  0  0  0
   -5.7830   18.0220  -34.4580 C   0  0  0  0  0  0  0  0  0  0  0  0
   -4.9700   17.6500  -35.3450 O   0  0  0  0  0  0  0  0  0  0  0  0
   -6.5060   17.0760  -33.7230 C   0  0  0  0  0  0  0  0  0  0  0  0
   -6.3090   15.7130  -33.9940 O   0  0  0  0  0  0  0  0  0  0  0  0
   -5.1730   14.9640  -33.5740 C   0  0  0  0  0  0  0  0  0  0  0  0
   -5.1359   14.9395  -32.4749 H   0  0  0  0  0  0  0  0  0  0  0  0
   -5.2472   13.9371  -33.9613 H   0  0  0  0  0  0  0  0  0  0  0  0
   -4.2584   15.4368  -33.9613 H   0  0  0  0  0  0  0  0  0  0  0  0
   -7.4110   17.5290  -32.7430 C   0  0  0  0  0  0  0  0  0  0  0  0
   -7.9891   16.7994  -32.1569 H   0  0  0  0  0  0  0  0  0  0  0  0
   -6.8960   24.6230  -30.6730 C   0  0  0  0  0  0  0  0  0  0  0  0
   -7.9145   25.0159  -30.8078 H   0  0  0  0  0  0  0  0  0  0  0  0
   -6.0250   25.2670  -29.8050 C   0  0  0  0  0  0  0  0  0  0  0  0
   -6.3593   26.1605  -29.2574 H   0  0  0  0  0  0  0  0  0  0  0  0
   -4.7660   24.8010  -29.6290 N   0  0  0  0  0  0  0  0  0  0  0  0
   -4.1480   25.3000  -28.9490 H   0  0  0  0  0  0  0  0  0  0  0  0
  1  2  1  0
  2  3  2  0
  3  4  1  0
  3  5  1  0
  5  6  1  0
  5  7  2  0
  7  8  1  0
  8  9  2  0
  9 10  1  0
  8 11  1  0
 11 12  2  0
 12 13  1  0
 13 14  1  0
 13 15  1  0
 13 16  1  0
 16 17  1  0
 16 18  1  0
 16 19  1  0
 19 20  1  0
 19 21  1  0
 19 22  1  0
 22 23  1  0
 22 24  1  0
 22 25  1  0
 25 26  1  0
 26 27  1  0
 26 28  2  0
 28 29  1  0
 28 30  1  0
 30 31  2  0
 30 32  1  0
 32 33  1  0
 33 34  1  0
 34 35  1  0
 34 36  1  0
 34 37  1  0
 32 38  2  0
 38 39  1  0
 11 40  1  0
 40 41  1  0
 40 42  2  0
 42 43  1  0
 42 44  1  0
 44 45  1  0
  9  2  1  0
 38 25  1  0
 44  7  1  0
M  END
>  <UniqueID>  (24) 
21

>  <SMILES>  (24) 
COc1cn(CCCC/N=c2/cc[nH]c3cc(Cl)ccc23)ccc1=O

>  <Energy>  (24) 
59.00203029271648

>  <Genealogy>  (24) 
COc1cn(CCCC/N=c2/cc[nH]c3cc(Cl)ccc23)ccc1=O (cis-trans isomerization)
COc1cn(CCCC/N=c2/cc[nH]c3cc(Cl)ccc23)ccc1=O (3D coordinates assigned)
COc1cn(CCCC/N=c2/cc[nH]c3cc(Cl)ccc23)ccc1=O (optimized conformer: 59.00203029271648 kcal/mol)

>  <smiles>  (24) 
COc1cn(CCCCN=c2cc[nH]c3cc(Cl)ccc23)ccc1=O

>  <score_type>  (24) 
oracle

>  <origin>  (24) 
adg

>  <m_score__min__energy>  (24) 
-8.1999999999999993

>  <m_primary>  (24) 
energy

$$$$
24:0
     RDKit          3D

 34 37  0  0  0  0  0  0  0  0999 V2000
   -8.5010   12.5380  -35.7500 C   0  0  0  0  0  0  0  0  0  0  0  0
   -7.3920   13.3300  -35.1380 C   0  0  0  0  0  0  0  0  0  0  0  0
   -6.0960   12.8410  -35.0100 C   0  0  0  0  0  0  0  0  0  0  0  0
   -5.1600   14.0590  -34.3280 S   0  0  0  0  0  0  0  0  0  0  0  0
   -6.4350   15.1590  -34.2330 C   0  0  0  0  0  0  0  0  0  0  0  0
   -6.3520   16.5400  -33.7050 C   0  0  0  0  0  0  0  0  0  0  0  0
   -5.4060   17.4520  -34.2060 C   0  0  0  0  0  0  0  0  0  0  0  0
   -5.3370   18.7530  -33.7000 C   0  0  0  0  0  0  0  0  0  0  0  0
   -6.2040   19.1690  -32.6780 C   0  0  0  0  0  0  0  0  0  0  0  0
   -6.1290   20.5140  -32.1720 N   0  0  0  0  0  0  0  0  0  0  0  0
   -7.4350   21.5250  -31.9150 S   0  0  0  0  0  0  0  0  0  0  0  0
   -6.6070   22.8560  -31.3500 C   0  0  0  0  0  0  0  0  0  0  0  0
   -7.0780   24.0970  -30.9350 C   0  0  0  0  0  0  0  0  0  0  0  0
   -6.1360   25.0460  -30.5090 C   0  0  0  0  0  0  0  0  0  0  0  0
   -4.7590   24.7350  -30.5110 C   0  0  0  0  0  0  0  0  0  0  0  0
   -3.8600   25.6630  -30.0990 F   0  0  0  0  0  0  0  0  0  0  0  0
   -4.3120   23.4720  -30.9390 C   0  0  0  0  0  0  0  0  0  0  0  0
   -5.2580   22.5300  -31.3570 C   0  0  0  0  0  0  0  0  0  0  0  0
   -5.0120   21.2210  -31.8250 C   0  0  0  0  0  0  0  0  0  0  0  0
   -3.8480   20.7520  -31.9420 O   0  0  0  0  0  0  0  0  0  0  0  0
   -7.1570   18.2630  -32.1840 C   0  0  0  0  0  0  0  0  0  0  0  0
   -7.2280   16.9620  -32.6900 C   0  0  0  0  0  0  0  0  0  0  0  0
   -7.5740   14.6120  -34.7180 N   0  0  0  0  0  0  0  0  0  0  0  0
   -9.1189   12.0967  -34.9541 H   0  0  0  0  0  0  0  0  0  0  0  0
   -9.1223   13.1980  -36.3732 H   0  0  0  0  0  0  0  0  0  0  0  0
   -8.0784   11.7362  -36.3732 H   0  0  0  0  0  0  0  0  0  0  0  0
   -5.7473   11.8394  -35.3020 H   0  0  0  0  0  0  0  0  0  0  0  0
   -4.7149   17.1389  -35.0024 H   0  0  0  0  0  0  0  0  0  0  0  0
   -4.5963   19.4573  -34.1066 H   0  0  0  0  0  0  0  0  0  0  0  0
   -8.1536   24.3272  -30.9405 H   0  0  0  0  0  0  0  0  0  0  0  0
   -6.4724   26.0375  -30.1717 H   0  0  0  0  0  0  0  0  0  0  0  0
   -3.2391   23.2296  -30.9449 H   0  0  0  0  0  0  0  0  0  0  0  0
   -7.8527   18.5798  -31.3930 H   0  0  0  0  0  0  0  0  0  0  0  0
   -7.9763   16.2619  -32.2902 H   0  0  0  0  0  0  0  0  0  0  0  0
  1  2  1  0
  2  3  2  0
  3  4  1  0
  4  5  1  0
  5  6  1  0
  6  7  2  0
  7  8  1  0
  8  9  2  0
  9 10  1  0
 10 11  1  0
 11 12  1  0
 12 13  2  0
 13 14  1  0
 14 15  2  0
 15 16  1  0
 15 17  1  0
 17 18  2  0
 18 19  1  0
 19 20  2  0
  9 21  1  0
 21 22  2  0
  5 23  2  0
 23  2  1  0
 22  6  1  0
 19 10  1  0
 18 12  1  0
  1 24  1  0
  1 25  1  0
  1 26  1  0
  3 27  1  0
  7 28  1  0
  8 29  1  0
 13 30  1  0
 14 31  1  0
 17 32  1  0
 21 33  1  0
 22 34  1  0
M  END
>  <UniqueID>  (25) 
22

>  <SMILES>  (25) 
Cc1csc(-c2ccc(-n3sc4ccc(F)cc4c3=O)cc2)n1

>  <Energy>  (25) 
112.53309656722158

>  <Genealogy>  (25) 
Cc1csc(-c2ccc(-n3sc4ccc(F)cc4c3=O)cc2)n1 (3D coordinates assigned)
Cc1csc(-c2ccc(-n3sc4ccc(F)cc4c3=O)cc2)n1 (optimized conformer: 112.53309656722158 kcal/mol)

>  <smiles>  (25) 
Cc1csc(-c2ccc(-n3sc4ccc(F)cc4c3=O)cc2)n1

>  <score_type>  (25) 
oracle

>  <origin>  (25) 
adg

>  <m_score__min__energy>  (25) 
-7.8799999999999999

>  <m_primary>  (25) 
energy

$$$$
25:0
     RDKit          3D

 39 41  0  0  0  0  0  0  0  0999 V2000
   -1.6880   24.9020  -28.5880 C   0  0  0  0  0  0  0  0  0  0  0  0
   -2.3400   23.9480  -27.5890 C   0  0  0  0  0  0  0  0  0  0  0  0
   -3.8530   24.1780  -27.4580 C   0  0  0  0  0  0  0  0  0  0  0  0
   -4.5730   23.9540  -28.7630 C   0  0  0  0  0  0  0  0  0  0  0  0
   -4.4090   22.7490  -29.4620 C   0  0  0  0  0  0  0  0  0  0  0  0
   -5.0970   22.5260  -30.6580 C   0  0  0  0  0  0  0  0  0  0  0  0
   -5.9560   23.5080  -31.1760 C   0  0  0  0  0  0  0  0  0  0  0  0
   -6.7250   23.2530  -32.4450 C   0  0  0  0  0  0  0  0  0  0  0  0
   -7.7640   22.1900  -32.2110 C   0  0  0  0  0  0  0  0  0  0  0  0
   -9.0040   22.5150  -31.7700 N   0  0  0  0  0  0  0  0  0  0  0  0
   -9.6570   21.3810  -31.5760 N   0  0  0  0  0  0  0  0  0  0  0  0
   -8.8190   20.3870  -31.8920 C   0  0  0  0  0  0  0  0  0  0  0  0
   -9.1110   19.0670  -31.8140 N   0  0  0  0  0  0  0  0  0  0  0  0
   -8.1600   18.1610  -32.1670 C   0  0  0  0  0  0  0  0  0  0  0  0
   -6.9010   18.5900  -32.6130 C   0  0  0  0  0  0  0  0  0  0  0  0
   -6.6260   19.9710  -32.6880 C   0  0  0  0  0  0  0  0  0  0  0  0
   -5.2990   20.4190  -33.2260 C   0  0  0  0  0  0  0  0  0  0  0  0
   -7.6190   20.8350  -32.3020 N   0  0  0  0  0  0  0  0  0  0  0  0
   -6.1330   24.7080  -30.4670 C   0  0  0  0  0  0  0  0  0  0  0  0
   -5.4450   24.9300  -29.2720 C   0  0  0  0  0  0  0  0  0  0  0  0
   -1.1488   25.6910  -28.0433 H   0  0  0  0  0  0  0  0  0  0  0  0
   -0.9813   24.3442  -29.2201 H   0  0  0  0  0  0  0  0  0  0  0  0
   -2.4644   25.3578  -29.2201 H   0  0  0  0  0  0  0  0  0  0  0  0
   -2.1679   22.9145  -27.9241 H   0  0  0  0  0  0  0  0  0  0  0  0
   -1.8869   24.1343  -26.6041 H   0  0  0  0  0  0  0  0  0  0  0  0
   -4.2544   23.4818  -26.7069 H   0  0  0  0  0  0  0  0  0  0  0  0
   -4.0130   25.2238  -27.1567 H   0  0  0  0  0  0  0  0  0  0  0  0
   -3.7349   21.9749  -29.0665 H   0  0  0  0  0  0  0  0  0  0  0  0
   -4.9646   21.5759  -31.1963 H   0  0  0  0  0  0  0  0  0  0  0  0
   -7.2197   24.1821  -32.7644 H   0  0  0  0  0  0  0  0  0  0  0  0
   -6.0299   22.9133  -33.2269 H   0  0  0  0  0  0  0  0  0  0  0  0
  -10.6400   21.3030  -31.2330 H   0  0  0  0  0  0  0  0  0  0  0  0
   -8.3794   17.0850  -32.1024 H   0  0  0  0  0  0  0  0  0  0  0  0
   -6.1349   17.8554  -32.9017 H   0  0  0  0  0  0  0  0  0  0  0  0
   -4.6224   20.6474  -32.3894 H   0  0  0  0  0  0  0  0  0  0  0  0
   -4.8636   19.6181  -33.8415 H   0  0  0  0  0  0  0  0  0  0  0  0
   -5.4382   21.3200  -33.8415 H   0  0  0  0  0  0  0  0  0  0  0  0
   -6.8172   25.4769  -30.8552 H   0  0  0  0  0  0  0  0  0  0  0  0
   -5.5870   25.8746  -28.7265 H   0  0  0  0  0  0  0  0  0  0  0  0
  1  2  1  0
  2  3  1  0
  3  4  1  0
  4  5  2  0
  5  6  1  0
  6  7  2  0
  7  8  1  0
  8  9  1  0
  9 10  2  0
 10 11  1  0
 11 12  2  0
 12 13  1  0
 13 14  2  0
 14 15  1  0
 15 16  2  0
 16 17  1  0
 16 18  1  0
  7 19  1  0
 19 20  2  0
 20  4  1  0
 18  9  1  0
 18 12  1  0
  1 21  1  0
  1 22  1  0
  1 23  1  0
  2 24  1  0
  2 25  1  0
  3 26  1  0
  3 27  1  0
  5 28  1  0
  6 29  1  0
  8 30  1  0
  8 31  1  0
 11 32  1  0
 14 33  1  0
 15 34  1  0
 17 35  1  0
 17 36  1  0
 17 37  1  0
 19 38  1  0
 20 39  1  0
M  CHG  1  11   1
M  END
>  <UniqueID>  (26) 
23

>  <SMILES>  (26) 
CCCc1ccc(Cc2n[nH+]c3nccc(C)n23)cc1

>  <Energy>  (26) 
82.77044483291562

>  <Genealogy>  (26) 
CCCc1ccc(Cc2n[nH+]c3nccc(C)n23)cc1 (protonated)
CCCc1ccc(Cc2n[nH+]c3nccc(C)n23)cc1 (3D coordinates assigned)
CCCc1ccc(Cc2n[nH+]c3nccc(C)n23)cc1 (optimized conformer: 82.77044483291562 kcal/mol)

>  <smiles>  (26) 
CCCc1ccc(Cc2nnc3nccc(C)n23)cc1

>  <score_type>  (26) 
oracle

>  <origin>  (26) 
adg

>  <m_score__min__energy>  (26) 
-7.2800000000000002

>  <m_primary>  (26) 
energy

$$$$
26:0
     RDKit          3D

 40 41  0  0  0  0  0  0  0  0999 V2000
   -1.2780   25.2290  -28.1140 C   0  0  0  0  0  0  0  0  0  0  0  0
   -2.0190   25.3010  -29.3270 O   0  0  0  0  0  0  0  0  0  0  0  0
   -3.0380   24.4080  -29.6880 C   0  0  0  0  0  0  0  0  0  0  0  0
   -2.8610   23.0490  -29.4070 C   0  0  0  0  0  0  0  0  0  0  0  0
   -3.8530   22.1230  -29.7320 C   0  0  0  0  0  0  0  0  0  0  0  0
   -5.0330   22.5460  -30.3470 C   0  0  0  0  0  0  0  0  0  0  0  0
   -5.2260   23.9020  -30.6480 C   0  0  0  0  0  0  0  0  0  0  0  0
   -6.5240   24.3710  -31.2550 C   0  0  0  0  0  0  0  0  0  0  0  0
   -7.5630   23.2480  -31.2690 C   0  0  0  0  0  0  0  0  0  0  0  0
   -7.2680   22.3080  -32.3650 N   0  0  0  0  0  0  0  0  0  0  0  0
   -8.1590   21.1410  -32.3520 C   0  0  0  0  0  0  0  0  0  0  0  0
   -7.4010   19.8980  -32.7660 C   0  0  0  0  0  0  0  0  0  0  0  0
   -6.2320   20.0380  -33.5370 C   0  0  0  0  0  0  0  0  0  0  0  0
   -5.5250   18.9140  -33.9670 C   0  0  0  0  0  0  0  0  0  0  0  0
   -5.9720   17.6370  -33.6340 C   0  0  0  0  0  0  0  0  0  0  0  0
   -7.1280   17.4770  -32.8690 C   0  0  0  0  0  0  0  0  0  0  0  0
   -7.8580   18.5970  -32.4330 C   0  0  0  0  0  0  0  0  0  0  0  0
   -9.0910   18.3860  -31.5930 C   0  0  0  0  0  0  0  0  0  0  0  0
   -4.2270   24.8330  -30.3140 C   0  0  0  0  0  0  0  0  0  0  0  0
   -1.9668   25.2959  -27.2590 H   0  0  0  0  0  0  0  0  0  0  0  0
   -0.7341   24.2738  -28.0727 H   0  0  0  0  0  0  0  0  0  0  0  0
   -0.5604   26.0616  -28.0727 H   0  0  0  0  0  0  0  0  0  0  0  0
   -1.9325   22.7077  -28.9260 H   0  0  0  0  0  0  0  0  0  0  0  0
   -3.7050   21.0573  -29.5032 H   0  0  0  0  0  0  0  0  0  0  0  0
   -5.8142   21.8128  -30.5963 H   0  0  0  0  0  0  0  0  0  0  0  0
   -6.9133   25.2133  -30.6642 H   0  0  0  0  0  0  0  0  0  0  0  0
   -6.3322   24.6825  -32.2924 H   0  0  0  0  0  0  0  0  0  0  0  0
   -7.5331   22.7110  -30.3095 H   0  0  0  0  0  0  0  0  0  0  0  0
   -8.5629   23.6805  -31.4210 H   0  0  0  0  0  0  0  0  0  0  0  0
   -7.3980   22.8120  -33.2740 H   0  0  0  0  0  0  0  0  0  0  0  0
   -8.5591   21.0010  -31.3370 H   0  0  0  0  0  0  0  0  0  0  0  0
   -8.9826   21.3112  -33.0610 H   0  0  0  0  0  0  0  0  0  0  0  0
   -5.8721   21.0428  -33.8033 H   0  0  0  0  0  0  0  0  0  0  0  0
   -4.6132   19.0366  -34.5699 H   0  0  0  0  0  0  0  0  0  0  0  0
   -5.4126   16.7533  -33.9748 H   0  0  0  0  0  0  0  0  0  0  0  0
   -7.4712   16.4659  -32.6047 H   0  0  0  0  0  0  0  0  0  0  0  0
   -8.8212   18.4322  -30.5276 H   0  0  0  0  0  0  0  0  0  0  0  0
   -9.8275   19.1712  -31.8191 H   0  0  0  0  0  0  0  0  0  0  0  0
   -9.5245   17.4006  -31.8191 H   0  0  0  0  0  0  0  0  0  0  0  0
   -4.3741   25.8989  -30.5425 H   0  0  0  0  0  0  0  0  0  0  0  0
  1  2  1  0
  2  3  1  0
  3  4  2  0
  4  5  1  0
  5  6  2  0
  6  7  1  0
  7  8  1  0
  8  9  1  0
  9 10  1  0
 10 11  1  0
 11 12  1  0
 12 13  2  0
 13 14  1  0
 14 15  2  0
 15 16  1  0
 16 17  2  0
 17 18  1  0
  7 19  2  0
 19  3  1  0
 17 12  1  0
  1 20  1  0
  1 21  1  0
  1 22  1  0
  4 23  1  0
  5 24  1  0
  6 25  1  0
  8 26  1  0
  8 27  1  0
  9 28  1  0
  9 29  1  0
 10 30  1  0
 11 31  1  0
 11 32  1  0
 13 33  1  0
 14 34  1  0
 15 35  1  0
 16 36  1  0
 18 37  1  0
 18 38  1  0
 18 39  1  0
 19 40  1  0
M  END
>  <UniqueID>  (27) 
24

>  <SMILES>  (27) 
COc1cccc(CCNCc2ccccc2C)c1

>  <Energy>  (27) 
31.837572671620602

>  <Genealogy>  (27) 
COc1cccc(CCNCc2ccccc2C)c1 (3D coordinates assigned)
COc1cccc(CCNCc2ccccc2C)c1 (optimized conformer: 31.837572671620602 kcal/mol)

>  <smiles>  (27) 
COc1cccc(CCNCc2ccccc2C)c1

>  <score_type>  (27) 
oracle

>  <origin>  (27) 
adg

>  <m_score__min__energy>  (27) 
-7.5899999999999999

>  <m_primary>  (27) 
energy

$$$$
27:0
     RDKit          3D

 38 40  0  0  0  0  0  0  0  0999 V2000
   -9.1500   20.8000  -31.9620 C   0  0  0  0  0  0  0  0  0  0  0  0
   -8.3870   19.6730  -32.6810 C   0  0  0  0  0  0  0  0  0  0  0  0
   -6.9150   19.8620  -32.7470 N   0  0  0  0  0  0  0  0  0  0  0  0
   -6.2100   19.2900  -31.5830 C   0  0  0  0  0  0  0  0  0  0  0  0
   -4.7340   19.7350  -31.5730 C   0  0  0  0  0  0  0  0  0  0  0  0
   -4.1210   19.7950  -32.9260 N   0  0  0  0  0  0  0  0  0  0  0  0
   -3.8660   21.1800  -33.3810 C   0  0  0  0  0  0  0  0  0  0  0  0
   -4.5400   22.1660  -32.4780 C   0  0  0  0  0  0  0  0  0  0  0  0
   -3.8480   23.0610  -31.7250 N   0  0  0  0  0  0  0  0  0  0  0  0
   -4.8280   23.7410  -31.1120 C   0  0  0  0  0  0  0  0  0  0  0  0
   -4.7020   24.7940  -30.2100 C   0  0  0  0  0  0  0  0  0  0  0  0
   -3.4830   25.2600  -29.8380 F   0  0  0  0  0  0  0  0  0  0  0  0
   -5.8830   25.3620  -29.6950 C   0  0  0  0  0  0  0  0  0  0  0  0
   -7.1460   24.8660  -30.0950 C   0  0  0  0  0  0  0  0  0  0  0  0
   -7.2330   23.8000  -31.0100 C   0  0  0  0  0  0  0  0  0  0  0  0
   -6.0430   23.2640  -31.4960 C   0  0  0  0  0  0  0  0  0  0  0  0
   -5.8920   22.2590  -32.3690 N   0  0  0  0  0  0  0  0  0  0  0  0
   -4.8550   18.9870  -33.9240 C   0  0  0  0  0  0  0  0  0  0  0  0
   -6.3440   19.3870  -34.0350 C   0  0  0  0  0  0  0  0  0  0  0  0
   -9.0602   20.6673  -30.8737 H   0  0  0  0  0  0  0  0  0  0  0  0
   -8.7238   21.7726  -32.2492 H   0  0  0  0  0  0  0  0  0  0  0  0
  -10.2113   20.7655  -32.2492 H   0  0  0  0  0  0  0  0  0  0  0  0
   -8.5877   18.7308  -32.1500 H   0  0  0  0  0  0  0  0  0  0  0  0
   -8.7461   19.6697  -33.7207 H   0  0  0  0  0  0  0  0  0  0  0  0
   -6.7700   20.8990  -32.7080 H   0  0  0  0  0  0  0  0  0  0  0  0
   -6.6981   19.6342  -30.6593 H   0  0  0  0  0  0  0  0  0  0  0  0
   -6.2501   18.1926  -31.6470 H   0  0  0  0  0  0  0  0  0  0  0  0
   -4.6756   20.7358  -31.1201 H   0  0  0  0  0  0  0  0  0  0  0  0
   -4.1742   18.9823  -30.9985 H   0  0  0  0  0  0  0  0  0  0  0  0
   -2.7822   21.3680  -33.3761 H   0  0  0  0  0  0  0  0  0  0  0  0
   -4.2691   21.2983  -34.3976 H   0  0  0  0  0  0  0  0  0  0  0  0
   -5.8233   26.1947  -28.9788 H   0  0  0  0  0  0  0  0  0  0  0  0
   -8.0643   25.3155  -29.6891 H   0  0  0  0  0  0  0  0  0  0  0  0
   -8.2078   23.4037  -31.3304 H   0  0  0  0  0  0  0  0  0  0  0  0
   -4.3794   19.1238  -34.9064 H   0  0  0  0  0  0  0  0  0  0  0  0
   -4.8158   17.9376  -33.5964 H   0  0  0  0  0  0  0  0  0  0  0  0
   -6.4361   20.1931  -34.7778 H   0  0  0  0  0  0  0  0  0  0  0  0
   -6.9049   18.4887  -34.3325 H   0  0  0  0  0  0  0  0  0  0  0  0
  1  2  1  0
  2  3  1  0
  3  4  1  0
  4  5  1  0
  5  6  1  0
  6  7  1  0
  7  8  1  0
  8  9  2  0
  9 10  1  0
 10 11  2  0
 11 12  1  0
 11 13  1  0
 13 14  2  0
 14 15  1  0
 15 16  2  0
 16 17  1  0
  6 18  1  0
 18 19  1  0
 19  3  1  0
 17  8  1  0
 16 10  1  0
  1 20  1  0
  1 21  1  0
  1 22  1  0
  2 23  1  0
  2 24  1  0
  3 25  1  0
  4 26  1  0
  4 27  1  0
  5 28  1  0
  5 29  1  0
  7 30  1  0
  7 31  1  0
 13 32  1  0
 14 33  1  0
 15 34  1  0
 18 35  1  0
 18 36  1  0
 19 37  1  0
 19 38  1  0
M  CHG  2   3   1  17  -1
M  END
>  <UniqueID>  (28) 
25

>  <SMILES>  (28) 
CC[NH+]1CCN(Cc2nc3c(F)cccc3[n-]2)CC1

>  <Energy>  (28) 
88.13192274706704

>  <Genealogy>  (28) 
CC[NH+]1CCN(Cc2nc3c(F)cccc3[n-]2)CC1 (protonated)
CC[NH+]1CCN(Cc2nc3c(F)cccc3[n-]2)CC1 (3D coordinates assigned)
CC[NH+]1CCN(Cc2nc3c(F)cccc3[n-]2)CC1 (nonaromatic ring conformer: 88.13192274706704 kcal/mol)

>  <smiles>  (28) 
CCN1CCN(Cc2nc3c(F)cccc3[nH]2)CC1

>  <score_type>  (28) 
oracle

>  <origin>  (28) 
adg

>  <m_score__min__energy>  (28) 
-6.4100000000000001

>  <m_primary>  (28) 
energy

$$$$
28:0
     RDKit          3D

 40 42  0  0  0  0  0  0  0  0999 V2000
   -5.7440   19.2140  -34.5990 C   0  0  0  0  0  0  0  0  0  0  0  0
   -4.8290   19.8880  -33.6860 N   0  0  0  0  0  0  0  0  0  0  0  0
   -3.5110   19.8220  -33.7990 N   0  0  0  0  0  0  0  0  0  0  0  0
   -2.9750   20.6350  -32.8690 C   0  0  0  0  0  0  0  0  0  0  0  0
   -3.9860   21.2520  -32.1540 C   0  0  0  0  0  0  0  0  0  0  0  0
   -3.7960   22.3280  -31.1210 C   0  0  0  0  0  0  0  0  0  0  0  0
   -4.3840   21.9290  -29.9350 F   0  0  0  0  0  0  0  0  0  0  0  0
   -4.4000   23.4940  -31.5510 F   0  0  0  0  0  0  0  0  0  0  0  0
   -2.4560   22.5730  -30.8870 F   0  0  0  0  0  0  0  0  0  0  0  0
   -5.1560   20.7480  -32.6980 C   0  0  0  0  0  0  0  0  0  0  0  0
   -6.5370   21.0900  -32.3060 C   0  0  0  0  0  0  0  0  0  0  0  0
   -6.9320   22.4350  -32.3050 C   0  0  0  0  0  0  0  0  0  0  0  0
   -8.2220   22.7910  -31.9030 C   0  0  0  0  0  0  0  0  0  0  0  0
   -9.1250   21.8050  -31.5010 C   0  0  0  0  0  0  0  0  0  0  0  0
   -8.7460   20.4600  -31.5080 C   0  0  0  0  0  0  0  0  0  0  0  0
   -7.4540   20.0890  -31.9160 C   0  0  0  0  0  0  0  0  0  0  0  0
   -7.0940   18.6980  -31.9640 N   0  0  0  0  0  0  0  0  0  0  0  0
   -6.0410   18.1860  -31.0820 C   0  0  0  0  0  0  0  0  0  0  0  0
   -5.7380   16.7150  -31.3980 C   0  0  0  0  0  0  0  0  0  0  0  0
   -5.7530   16.4920  -32.8500 N   0  0  0  0  0  0  0  0  0  0  0  0
   -7.0860   16.7130  -33.4500 C   0  0  0  0  0  0  0  0  0  0  0  0
   -7.9420   17.7520  -32.6960 C   0  0  0  0  0  0  0  0  0  0  0  0
   -6.4971   18.6592  -34.0201 H   0  0  0  0  0  0  0  0  0  0  0  0
   -6.2453   19.9602  -35.2329 H   0  0  0  0  0  0  0  0  0  0  0  0
   -5.1800   18.5139  -35.2329 H   0  0  0  0  0  0  0  0  0  0  0  0
   -1.8980   20.7855  -32.7031 H   0  0  0  0  0  0  0  0  0  0  0  0
   -6.2230   23.2139  -32.6222 H   0  0  0  0  0  0  0  0  0  0  0  0
   -8.5261   23.8481  -31.9033 H   0  0  0  0  0  0  0  0  0  0  0  0
  -10.1377   22.0877  -31.1778 H   0  0  0  0  0  0  0  0  0  0  0  0
   -9.4630   19.6878  -31.1924 H   0  0  0  0  0  0  0  0  0  0  0  0
   -5.1277   18.7820  -31.2259 H   0  0  0  0  0  0  0  0  0  0  0  0
   -6.3846   18.2608  -30.0397 H   0  0  0  0  0  0  0  0  0  0  0  0
   -4.7454   16.4556  -31.0012 H   0  0  0  0  0  0  0  0  0  0  0  0
   -6.5075   16.0828  -30.9309 H   0  0  0  0  0  0  0  0  0  0  0  0
   -5.0580   17.1290  -33.3040 H   0  0  0  0  0  0  0  0  0  0  0  0
   -5.4530   15.5080  -33.0430 H   0  0  0  0  0  0  0  0  0  0  0  0
   -6.9477   17.0618  -34.4840 H   0  0  0  0  0  0  0  0  0  0  0  0
   -7.6243   15.7551  -33.3982 H   0  0  0  0  0  0  0  0  0  0  0  0
   -8.5568   18.3060  -33.4207 H   0  0  0  0  0  0  0  0  0  0  0  0
   -8.5814   17.2227  -31.9742 H   0  0  0  0  0  0  0  0  0  0  0  0
  1  2  1  0
  2  3  1  0
  3  4  2  0
  4  5  1  0
  5  6  1  0
  6  7  1  0
  6  8  1  0
  6  9  1  0
  5 10  2  0
 10 11  1  0
 11 12  2  0
 12 13  1  0
 13 14  2  0
 14 15  1  0
 15 16  2  0
 16 17  1  0
 17 18  1  0
 18 19  1  0
 19 20  1  0
 20 21  1  0
 21 22  1  0
 10  2  1  0
 16 11  1  0
 22 17  1  0
  1 23  1  0
  1 24  1  0
  1 25  1  0
  4 26  1  0
 12 27  1  0
 13 28  1  0
 14 29  1  0
 15 30  1  0
 18 31  1  0
 18 32  1  0
 19 33  1  0
 19 34  1  0
 20 35  1  0
 20 36  1  0
 21 37  1  0
 21 38  1  0
 22 39  1  0
 22 40  1  0
M  CHG  1  20   1
M  END
>  <UniqueID>  (29) 
26

>  <SMILES>  (29) 
Cn1ncc(C(F)(F)F)c1-c1ccccc1N1CC[NH2+]CC1

>  <Energy>  (29) 
84.57682482320922

>  <Genealogy>  (29) 
Cn1ncc(C(F)(F)F)c1-c1ccccc1N1CC[NH2+]CC1 (protonated)
Cn1ncc(C(F)(F)F)c1-c1ccccc1N1CC[NH2+]CC1 (3D coordinates assigned)
Cn1ncc(C(F)(F)F)c1-c1ccccc1N1CC[NH2+]CC1 (nonaromatic ring conformer: 84.57682482320922 kcal/mol)

>  <smiles>  (29) 
Cn1ncc(C(F)(F)F)c1-c1ccccc1N1CCNCC1

>  <score_type>  (29) 
oracle

>  <origin>  (29) 
adg

>  <m_score__min__energy>  (29) 
-5.2599999999999998

>  <m_primary>  (29) 
energy

$$$$
29:0
     RDKit          3D

 69 73  0  0  1  0  0  0  0  0999 V2000
   -0.9530   19.6910  -30.0280 C   0  0  0  0  0  0  0  0  0  0  0  0
   -1.1080   19.7660  -31.5050 C   0  0  0  0  0  0  0  0  0  0  0  0
   -0.8560   18.6580  -32.2900 C   0  0  0  0  0  0  0  0  0  0  0  0
   -0.9900   18.6850  -33.6760 C   0  0  0  0  0  0  0  0  0  0  0  0
   -0.7250   17.5270  -34.4550 N   0  0  0  0  0  0  0  0  0  0  0  0
   -0.0040   17.5480  -35.7100 C   0  0  0  0  0  0  0  0  0  0  0  0
    0.8420   16.2840  -35.7870 C   0  0  0  0  0  0  0  0  0  0  0  0
   -0.0060   15.1310  -35.8300 N   0  0  0  0  0  0  0  0  0  0  0  0
   -1.2850   15.3390  -35.2180 C   0  0  0  0  0  0  0  0  0  0  0  0
   -1.1980   16.2380  -33.9880 C   0  0  0  0  0  0  0  0  0  0  0  0
   -1.3880   19.8860  -34.2210 C   0  0  0  0  0  0  0  0  0  0  0  0
   -1.6450   21.0130  -33.4440 C   0  0  0  0  0  0  0  0  0  0  0  0
   -1.5050   20.9590  -32.0730 C   0  0  0  0  0  0  0  0  0  0  0  0
   -6.1580   21.9720  -32.7570 N   0  0  0  0  0  0  0  0  0  0  0  0
   -5.2340   22.4490  -32.0270 C   0  0  0  0  0  0  0  0  0  0  0  0
   -3.2930   23.5270  -30.4200 N   0  0  0  0  0  0  0  0  0  0  0  0
   -4.5690   24.0090  -30.3440 C   0  0  0  0  0  0  0  0  0  0  0  0
   -5.5550   23.4690  -31.1520 C   0  0  0  0  0  0  0  0  0  0  0  0
   -2.9920   22.5330  -31.2750 C   0  0  0  0  0  0  0  0  0  0  0  0
   -1.7740   22.1250  -31.2990 N   0  0  0  0  0  0  0  0  0  0  0  0
   -7.0330   20.9720  -32.2450 C   0  0  0  0  0  0  0  0  0  0  0  0
   -8.2560   21.2810  -31.6700 C   0  0  0  0  0  0  0  0  0  0  0  0
   -9.1110   20.3340  -31.1710 C   0  0  0  0  0  0  0  0  0  0  0  0
   -8.7120   19.0100  -31.2550 C   0  0  0  0  0  0  0  0  0  0  0  0
   -7.5010   18.6550  -31.8190 C   0  0  0  0  0  0  0  0  0  0  0  0
   -6.6480   19.6280  -32.3190 C   0  0  0  0  0  0  0  0  0  0  0  0
   -5.1220   19.1840  -33.0300 S   0  0  0  0  0  0  0  0  0  0  0  0
   -4.0530   19.2460  -31.9710 O   0  0  0  0  0  0  0  0  0  0  0  0
   -4.8610   20.1430  -34.1580 O   0  0  0  0  0  0  0  0  0  0  0  0
   -5.1140   17.5460  -33.7040 C   0  0  0  0  0  0  0  0  0  0  0  0
   -4.6080   16.5310  -32.7030 C   0  0  0  0  0  0  0  0  0  0  0  0
   -4.3350   17.4500  -34.9770 C   0  0  0  0  0  0  0  0  0  0  0  0
   -3.9680   22.0220  -32.0530 N   0  0  0  0  0  0  0  0  0  0  0  0
   -6.8270   24.1610  -30.8750 C   0  0  0  0  0  0  0  0  0  0  0  0
   -6.5240   25.0710  -29.7060 C   0  0  0  0  0  0  0  0  0  0  0  0
   -5.0930   25.0370  -29.5230 N   0  0  0  0  0  0  0  0  0  0  0  0
   -1.8420   20.1212  -29.5437 H   0  0  0  0  0  0  0  0  0  0  0  0
   -0.8423   18.6397  -29.7238 H   0  0  0  0  0  0  0  0  0  0  0  0
   -0.0599   20.2566  -29.7238 H   0  0  0  0  0  0  0  0  0  0  0  0
   -0.5390   17.7233  -31.8045 H   0  0  0  0  0  0  0  0  0  0  0  0
   -0.7151   17.5731  -36.5488 H   0  0  0  0  0  0  0  0  0  0  0  0
    0.6360   18.4407  -35.7685 H   0  0  0  0  0  0  0  0  0  0  0  0
    1.4618   16.3149  -36.6953 H   0  0  0  0  0  0  0  0  0  0  0  0
    1.4872   16.2257  -34.8980 H   0  0  0  0  0  0  0  0  0  0  0  0
    0.4810   14.2930  -35.4400 H   0  0  0  0  0  0  0  0  0  0  0  0
   -1.9567   15.8078  -35.9522 H   0  0  0  0  0  0  0  0  0  0  0  0
   -1.6664   14.3597  -34.8933 H   0  0  0  0  0  0  0  0  0  0  0  0
   -2.1891   16.3424  -33.5224 H   0  0  0  0  0  0  0  0  0  0  0  0
   -0.5202   15.8147  -33.2321 H   0  0  0  0  0  0  0  0  0  0  0  0
   -1.5075   19.9577  -35.3121 H   0  0  0  0  0  0  0  0  0  0  0  0
   -1.9609   21.9500  -33.9258 H   0  0  0  0  0  0  0  0  0  0  0  0
   -2.5480   23.9340  -29.8090 H   0  0  0  0  0  0  0  0  0  0  0  0
   -8.5545   22.3381  -31.6116 H   0  0  0  0  0  0  0  0  0  0  0  0
  -10.0754   20.6136  -30.7218 H   0  0  0  0  0  0  0  0  0  0  0  0
   -9.3740   18.2233  -30.8640 H   0  0  0  0  0  0  0  0  0  0  0  0
   -7.2120   17.5949  -31.8716 H   0  0  0  0  0  0  0  0  0  0  0  0
   -6.1628   17.3123  -33.9395 H   0  0  0  0  0  0  0  0  0  0  0  0
   -4.7915   16.8992  -31.6828 H   0  0  0  0  0  0  0  0  0  0  0  0
   -5.1361   15.5772  -32.8491 H   0  0  0  0  0  0  0  0  0  0  0  0
   -3.5285   16.3786  -32.8491 H   0  0  0  0  0  0  0  0  0  0  0  0
   -3.2679   17.3185  -34.7448 H   0  0  0  0  0  0  0  0  0  0  0  0
   -4.6919   16.5890  -35.5613 H   0  0  0  0  0  0  0  0  0  0  0  0
   -4.4722   18.3719  -35.5613 H   0  0  0  0  0  0  0  0  0  0  0  0
   -3.7140   21.2510  -32.7110 H   0  0  0  0  0  0  0  0  0  0  0  0
   -7.1481   24.7466  -31.7491 H   0  0  0  0  0  0  0  0  0  0  0  0
   -7.6431   23.4575  -30.6534 H   0  0  0  0  0  0  0  0  0  0  0  0
   -6.8550   26.0966  -29.9265 H   0  0  0  0  0  0  0  0  0  0  0  0
   -7.0500   24.7417  -28.7977 H   0  0  0  0  0  0  0  0  0  0  0  0
   -4.5690   25.6610  -28.9000 H   0  0  0  0  0  0  0  0  0  0  0  0
  1  2  1  0
  2  3  2  0
  3  4  1  0
  4  5  1  0
  5  6  1  0
  6  7  1  0
  7  8  1  0
  8  9  1  0
  9 10  1  0
  4 11  2  0
 11 12  1  0
 12 13  2  0
 13 14  1  0
 14 15  2  0
 15 16  1  0
 16 17  1  0
 17 18  2  0
 18 19  1  0
 19 20  2  0
 20 21  1  0
 21 22  2  0
 22 23  1  0
 23 24  2  0
 24 25  1  0
 25 26  2  0
 26 27  1  0
 27 28  2  0
 27 29  2  0
 27 30  1  0
 30 31  1  0
 30 32  1  0
 19 33  1  0
 18 34  1  0
 34 35  1  0
 35 36  1  0
 13  2  1  0
 33 15  1  0
 10  5  1  0
 36 17  1  0
 26 21  1  0
  1 37  1  0
  1 38  1  0
  1 39  1  0
  3 40  1  0
  6 41  1  0
  6 42  1  0
  7 43  1  0
  7 44  1  0
  8 45  1  0
  9 46  1  0
  9 47  1  0
 10 48  1  0
 10 49  1  0
 11 50  1  0
 12 51  1  0
 16 52  1  0
 22 53  1  0
 23 54  1  0
 24 55  1  0
 25 56  1  0
 30 57  1  0
 31 58  1  0
 31 59  1  0
 31 60  1  0
 32 61  1  0
 32 62  1  0
 32 63  1  0
 33 64  1  0
 34 65  1  0
 34 66  1  0
 35 67  1  0
 35 68  1  0
 36 69  1  0
M  END
>  <smiles>  (30) 
Cc1cc(N2CCNCC2)ccc1N=c1[nH]c2c(c(=Nc3ccccc3S(=O)(=O)C(C)C)[nH]1)CCN2

>  <score_type>  (30) 
oracle

>  <origin>  (30) 
adg

>  <m_score__min__energy>  (30) 
-10.69

>  <m_primary>  (30) 
energy

$$$$
30:0
     RDKit          3D

 65 70  0  0  0  0  0  0  0  0999 V2000
   -0.8460   29.7570  -25.2270 C   0  0  0  0  0  0  0  0  0  0  0  0
   -0.8920   28.5560  -24.4630 O   0  0  0  0  0  0  0  0  0  0  0  0
   -0.7800   27.2670  -25.0070 C   0  0  0  0  0  0  0  0  0  0  0  0
   -0.6040   26.1220  -24.2080 C   0  0  0  0  0  0  0  0  0  0  0  0
   -0.4960   24.8590  -24.7990 C   0  0  0  0  0  0  0  0  0  0  0  0
   -0.5670   24.7130  -26.1980 C   0  0  0  0  0  0  0  0  0  0  0  0
   -0.4400   23.4100  -26.8130 N   0  0  0  0  0  0  0  0  0  0  0  0
    0.8990   22.9040  -27.1590 C   0  0  0  0  0  0  0  0  0  0  0  0
    0.8650   21.4080  -27.4760 C   0  0  0  0  0  0  0  0  0  0  0  0
   -0.1940   21.1380  -28.4620 N   0  0  0  0  0  0  0  0  0  0  0  0
    0.0990   20.3680  -29.6560 C   0  0  0  0  0  0  0  0  0  0  0  0
    1.2910   20.0310  -29.9020 O   0  0  0  0  0  0  0  0  0  0  0  0
   -0.9720   20.0090  -30.6690 C   0  0  0  0  0  0  0  0  0  0  0  0
   -0.4510   18.9850  -31.6990 C   0  0  0  0  0  0  0  0  0  0  0  0
   -1.5990   18.5180  -32.6060 C   0  0  0  0  0  0  0  0  0  0  0  0
   -2.5170   19.6210  -32.9140 N   0  0  0  0  0  0  0  0  0  0  0  0
   -3.8140   19.3210  -33.4480 C   0  0  0  0  0  0  0  0  0  0  0  0
   -3.9480   18.4050  -34.4490 N   0  0  0  0  0  0  0  0  0  0  0  0
   -5.1740   18.0740  -34.9550 C   0  0  0  0  0  0  0  0  0  0  0  0
   -6.3080   18.6430  -34.4540 N   0  0  0  0  0  0  0  0  0  0  0  0
   -6.2110   19.5460  -33.4410 C   0  0  0  0  0  0  0  0  0  0  0  0
   -4.9710   19.8980  -32.9300 C   0  0  0  0  0  0  0  0  0  0  0  0
   -5.1530   20.9890  -31.6490 S   0  0  0  0  0  0  0  0  0  0  0  0
   -6.8370   21.0240  -31.7630 C   0  0  0  0  0  0  0  0  0  0  0  0
   -7.7260   21.7500  -30.9760 C   0  0  0  0  0  0  0  0  0  0  0  0
   -9.0990   21.6220  -31.2320 C   0  0  0  0  0  0  0  0  0  0  0  0
   -9.5570   20.7740  -32.2590 C   0  0  0  0  0  0  0  0  0  0  0  0
   -8.6450   20.0480  -33.0440 C   0  0  0  0  0  0  0  0  0  0  0  0
   -7.2750   20.1840  -32.7870 C   0  0  0  0  0  0  0  0  0  0  0  0
   -2.0630   21.0110  -32.7840 C   0  0  0  0  0  0  0  0  0  0  0  0
   -1.5030   21.2820  -31.3750 C   0  0  0  0  0  0  0  0  0  0  0  0
   -1.5390   21.6910  -28.2220 C   0  0  0  0  0  0  0  0  0  0  0  0
   -1.6090   22.5230  -26.9320 C   0  0  0  0  0  0  0  0  0  0  0  0
   -0.7470   25.8630  -26.9880 C   0  0  0  0  0  0  0  0  0  0  0  0
   -0.8500   27.1240  -26.3970 C   0  0  0  0  0  0  0  0  0  0  0  0
   -0.8129   30.6222  -24.5485 H   0  0  0  0  0  0  0  0  0  0  0  0
    0.0527   29.7539  -25.8613 H   0  0  0  0  0  0  0  0  0  0  0  0
   -1.7423   29.8226  -25.8613 H   0  0  0  0  0  0  0  0  0  0  0  0
   -0.5511   26.2208  -23.1137 H   0  0  0  0  0  0  0  0  0  0  0  0
   -0.3543   23.9712  -24.1651 H   0  0  0  0  0  0  0  0  0  0  0  0
    1.2708   23.4482  -28.0397 H   0  0  0  0  0  0  0  0  0  0  0  0
    1.5621   23.0601  -26.2954 H   0  0  0  0  0  0  0  0  0  0  0  0
    1.8368   21.0986  -27.8881 H   0  0  0  0  0  0  0  0  0  0  0  0
    0.6600   20.8431  -26.5546 H   0  0  0  0  0  0  0  0  0  0  0  0
   -1.8061   19.5395  -30.1269 H   0  0  0  0  0  0  0  0  0  0  0  0
    0.3312   19.4536  -32.3143 H   0  0  0  0  0  0  0  0  0  0  0  0
   -0.0374   18.1164  -31.1656 H   0  0  0  0  0  0  0  0  0  0  0  0
   -1.1784   18.1289  -33.5450 H   0  0  0  0  0  0  0  0  0  0  0  0
   -2.1622   17.7344  -32.0780 H   0  0  0  0  0  0  0  0  0  0  0  0
   -5.2467   17.3425  -35.7733 H   0  0  0  0  0  0  0  0  0  0  0  0
   -7.2350   18.3680  -34.8480 H   0  0  0  0  0  0  0  0  0  0  0  0
   -7.3610   22.4077  -30.1734 H   0  0  0  0  0  0  0  0  0  0  0  0
   -9.8228   22.1875  -30.6268 H   0  0  0  0  0  0  0  0  0  0  0  0
  -10.6365   20.6792  -32.4481 H   0  0  0  0  0  0  0  0  0  0  0  0
   -9.0009   19.3847  -33.8461 H   0  0  0  0  0  0  0  0  0  0  0  0
   -1.2746   21.2024  -33.5269 H   0  0  0  0  0  0  0  0  0  0  0  0
   -2.9226   21.6765  -32.9523 H   0  0  0  0  0  0  0  0  0  0  0  0
   -0.6771   22.0035  -31.4608 H   0  0  0  0  0  0  0  0  0  0  0  0
   -2.3320   21.6700  -30.7650 H   0  0  0  0  0  0  0  0  0  0  0  0
   -1.8137   22.3332  -29.0718 H   0  0  0  0  0  0  0  0  0  0  0  0
   -2.2346   20.8458  -28.1139 H   0  0  0  0  0  0  0  0  0  0  0  0
   -2.5239   23.1335  -26.9467 H   0  0  0  0  0  0  0  0  0  0  0  0
   -1.6177   21.8370  -26.0722 H   0  0  0  0  0  0  0  0  0  0  0  0
   -0.8072   25.7680  -28.0822 H   0  0  0  0  0  0  0  0  0  0  0  0
   -0.9874   28.0130  -27.0301 H   0  0  0  0  0  0  0  0  0  0  0  0
  1  2  1  0
  2  3  1  0
  3  4  2  0
  4  5  1  0
  5  6  2  0
  6  7  1  0
  7  8  1  0
  8  9  1  0
  9 10  1  0
 10 11  1  0
 11 12  2  0
 11 13  1  0
 13 14  1  0
 14 15  1  0
 15 16  1  0
 16 17  1  0
 17 18  2  0
 18 19  1  0
 19 20  2  0
 20 21  1  0
 21 22  2  0
 22 23  1  0
 23 24  1  0
 24 25  2  0
 25 26  1  0
 26 27  2  0
 27 28  1  0
 28 29  2  0
 16 30  1  0
 30 31  1  0
 10 32  1  0
 32 33  1  0
  6 34  1  0
 34 35  2  0
 35  3  1  0
 33  7  1  0
 31 13  1  0
 22 17  1  0
 29 24  1  0
 29 21  1  0
  1 36  1  0
  1 37  1  0
  1 38  1  0
  4 39  1  0
  5 40  1  0
  8 41  1  0
  8 42  1  0
  9 43  1  0
  9 44  1  0
 13 45  1  0
 14 46  1  0
 14 47  1  0
 15 48  1  0
 15 49  1  0
 19 50  1  0
 20 51  1  0
 25 52  1  0
 26 53  1  0
 27 54  1  0
 28 55  1  0
 30 56  1  0
 30 57  1  0
 31 58  1  0
 31 59  1  0
 32 60  1  0
 32 61  1  0
 33 62  1  0
 33 63  1  0
 34 64  1  0
 35 65  1  0
M  CHG  1  20   1
M  END
>  <UniqueID>  (31) 
27

>  <SMILES>  (31) 
COc1ccc(N2CCN(C(=O)C3CCN(c4nc[nH+]c5c4sc4ccccc45)CC3)CC2)cc1

>  <Energy>  (31) 
120.0179323802541

>  <Genealogy>  (31) 
COc1ccc(N2CCN(C(=O)C3CCN(c4nc[nH+]c5c4sc4ccccc45)CC3)CC2)cc1 (protonated)
COc1ccc(N2CCN(C(=O)C3CCN(c4nc[nH+]c5c4sc4ccccc45)CC3)CC2)cc1 (3D coordinates assigned)
COc1ccc(N2CCN(C(=O)C3CCN(c4nc[nH+]c5c4sc4ccccc45)CC3)CC2)cc1 (nonaromatic ring conformer: 120.0179323802541 kcal/mol)

>  <smiles>  (31) 
COc1ccc(N2CCN(C(=O)C3CCN(c4ncnc5c4sc4ccccc45)CC3)CC2)cc1

>  <score_type>  (31) 
oracle

>  <origin>  (31) 
adg

>  <m_score__min__energy>  (31) 
-8.75

>  <m_primary>  (31) 
energy

$$$$
31:0
     RDKit          3D

 57 60  0  0  0  0  0  0  0  0999 V2000
   -6.1150   18.9280  -35.6590 O   0  0  0  0  0  0  0  0  0  0  0  0
   -5.9020   18.5670  -34.4700 C   0  0  0  0  0  0  0  0  0  0  0  0
   -6.7360   19.1510  -33.4030 C   0  0  0  0  0  0  0  0  0  0  0  0
   -7.6420   18.3530  -32.6880 C   0  0  0  0  0  0  0  0  0  0  0  0
   -8.4410   18.9180  -31.6920 C   0  0  0  0  0  0  0  0  0  0  0  0
   -8.3400   20.2810  -31.3990 C   0  0  0  0  0  0  0  0  0  0  0  0
   -7.4320   21.0900  -32.0990 C   0  0  0  0  0  0  0  0  0  0  0  0
   -7.2890   22.5580  -31.7640 C   0  0  0  0  0  0  0  0  0  0  0  0
   -6.5570   22.8130  -30.5010 N   0  0  0  0  0  0  0  0  0  0  0  0
   -6.7700   24.1500  -29.9120 C   0  0  0  0  0  0  0  0  0  0  0  0
   -5.7380   25.1940  -30.4070 C   0  0  0  0  0  0  0  0  0  0  0  0
   -4.6940   24.6290  -31.1750 O   0  0  0  0  0  0  0  0  0  0  0  0
   -4.1500   23.5230  -30.4930 C   0  0  0  0  0  0  0  0  0  0  0  0
   -5.1490   22.3560  -30.4840 C   0  0  0  0  0  0  0  0  0  0  0  0
   -6.6490   20.5210  -33.1180 C   0  0  0  0  0  0  0  0  0  0  0  0
   -4.8430   17.6260  -34.1810 N   0  0  0  0  0  0  0  0  0  0  0  0
   -4.4120   16.7300  -35.2680 C   0  0  0  0  0  0  0  0  0  0  0  0
   -3.1080   15.9820  -34.9820 C   0  0  0  0  0  0  0  0  0  0  0  0
   -2.2290   16.6970  -34.0520 N   0  0  0  0  0  0  0  0  0  0  0  0
   -1.3650   17.7610  -34.6110 C   0  0  0  0  0  0  0  0  0  0  0  0
   -1.4340   19.0800  -33.8750 C   0  0  0  0  0  0  0  0  0  0  0  0
   -2.4760   19.9880  -34.1350 C   0  0  0  0  0  0  0  0  0  0  0  0
   -2.5350   21.2090  -33.4580 C   0  0  0  0  0  0  0  0  0  0  0  0
   -1.5400   21.5500  -32.5380 C   0  0  0  0  0  0  0  0  0  0  0  0
   -0.4760   20.6750  -32.3070 C   0  0  0  0  0  0  0  0  0  0  0  0
   -0.4190   19.4470  -32.9750 C   0  0  0  0  0  0  0  0  0  0  0  0
   -2.8540   16.9490  -32.7500 C   0  0  0  0  0  0  0  0  0  0  0  0
   -4.2230   17.6470  -32.8430 C   0  0  0  0  0  0  0  0  0  0  0  0
   -7.7230   17.2793  -32.9128 H   0  0  0  0  0  0  0  0  0  0  0  0
   -9.1519   18.2888  -31.1364 H   0  0  0  0  0  0  0  0  0  0  0  0
   -8.9751   20.7214  -30.6162 H   0  0  0  0  0  0  0  0  0  0  0  0
   -6.7468   23.0502  -32.5849 H   0  0  0  0  0  0  0  0  0  0  0  0
   -8.3053   22.9579  -31.6325 H   0  0  0  0  0  0  0  0  0  0  0  0
   -7.7783   24.4968  -30.1822 H   0  0  0  0  0  0  0  0  0  0  0  0
   -6.6499   24.0556  -28.8227 H   0  0  0  0  0  0  0  0  0  0  0  0
   -6.2627   25.9376  -31.0249 H   0  0  0  0  0  0  0  0  0  0  0  0
   -5.2785   25.6454  -29.5153 H   0  0  0  0  0  0  0  0  0  0  0  0
   -3.2255   23.2050  -30.9972 H   0  0  0  0  0  0  0  0  0  0  0  0
   -3.9327   23.8151  -29.4550 H   0  0  0  0  0  0  0  0  0  0  0  0
   -4.9702   21.7321  -31.3721 H   0  0  0  0  0  0  0  0  0  0  0  0
   -4.9930   21.7905  -29.5534 H   0  0  0  0  0  0  0  0  0  0  0  0
   -5.9621   21.1559  -33.6968 H   0  0  0  0  0  0  0  0  0  0  0  0
   -5.2056   15.9877  -35.4388 H   0  0  0  0  0  0  0  0  0  0  0  0
   -4.2270   17.3646  -36.1472 H   0  0  0  0  0  0  0  0  0  0  0  0
   -3.3543   15.0017  -34.5479 H   0  0  0  0  0  0  0  0  0  0  0  0
   -2.5685   15.8853  -35.9357 H   0  0  0  0  0  0  0  0  0  0  0  0
   -0.3239   17.4071  -34.5838 H   0  0  0  0  0  0  0  0  0  0  0  0
   -1.7288   17.9540  -35.6310 H   0  0  0  0  0  0  0  0  0  0  0  0
   -3.2491   19.7356  -34.8756 H   0  0  0  0  0  0  0  0  0  0  0  0
   -3.3665   21.9032  -33.6497 H   0  0  0  0  0  0  0  0  0  0  0  0
   -1.5946   22.5060  -31.9966 H   0  0  0  0  0  0  0  0  0  0  0  0
    0.3186   20.9519  -31.5985 H   0  0  0  0  0  0  0  0  0  0  0  0
    0.4250   18.7650  -32.7947 H   0  0  0  0  0  0  0  0  0  0  0  0
   -2.9903   15.9849  -32.2382 H   0  0  0  0  0  0  0  0  0  0  0  0
   -2.1853   17.6270  -32.1993 H   0  0  0  0  0  0  0  0  0  0  0  0
   -4.9084   17.1491  -32.1413 H   0  0  0  0  0  0  0  0  0  0  0  0
   -4.0456   18.7057  -32.6026 H   0  0  0  0  0  0  0  0  0  0  0  0
  1  2  2  0
  2  3  1  0
  3  4  2  0
  4  5  1  0
  5  6  2  0
  6  7  1  0
  7  8  1  0
  8  9  1  0
  9 10  1  0
 10 11  1  0
 11 12  1  0
 12 13  1  0
 13 14  1  0
  7 15  2  0
  2 16  1  0
 16 17  1  0
 17 18  1  0
 18 19  1  0
 19 20  1  0
 20 21  1  0
 21 22  2  0
 22 23  1  0
 23 24  2  0
 24 25  1  0
 25 26  2  0
 19 27  1  0
 27 28  1  0
 15  3  1  0
 28 16  1  0
 14  9  1  0
 26 21  1  0
  4 29  1  0
  5 30  1  0
  6 31  1  0
  8 32  1  0
  8 33  1  0
 10 34  1  0
 10 35  1  0
 11 36  1  0
 11 37  1  0
 13 38  1  0
 13 39  1  0
 14 40  1  0
 14 41  1  0
 15 42  1  0
 17 43  1  0
 17 44  1  0
 18 45  1  0
 18 46  1  0
 20 47  1  0
 20 48  1  0
 22 49  1  0
 23 50  1  0
 24 51  1  0
 25 52  1  0
 26 53  1  0
 27 54  1  0
 27 55  1  0
 28 56  1  0
 28 57  1  0
M  END
>  <UniqueID>  (32) 
28

>  <SMILES>  (32) 
O=C(c1cccc(CN2CCOCC2)c1)N1CCN(Cc2ccccc2)CC1

>  <Energy>  (32) 
88.9252029314656

>  <Genealogy>  (32) 
O=C(c1cccc(CN2CCOCC2)c1)N1CCN(Cc2ccccc2)CC1 (3D coordinates assigned)
O=C(c1cccc(CN2CCOCC2)c1)N1CCN(Cc2ccccc2)CC1 (nonaromatic ring conformer: 88.9252029314656 kcal/mol)

>  <smiles>  (32) 
O=C(c1cccc(CN2CCOCC2)c1)N1CCN(Cc2ccccc2)CC1

>  <score_type>  (32) 
oracle

>  <origin>  (32) 
adg

>  <m_score__min__energy>  (32) 
-9.6199999999999992

>  <m_primary>  (32) 
energy

$$$$
32:0
     RDKit          3D

 49 52  0  0  0  0  0  0  0  0999 V2000
   -4.6870   16.3760  -34.4760 C   0  0  0  0  0  0  0  0  0  0  0  0
   -5.3870   17.5200  -33.8680 N   0  0  0  0  0  0  0  0  0  0  0  0
   -4.7840   18.7580  -33.8460 C   0  0  0  0  0  0  0  0  0  0  0  0
   -3.6490   18.9340  -34.3630 O   0  0  0  0  0  0  0  0  0  0  0  0
   -5.4730   19.8180  -33.2580 C   0  0  0  0  0  0  0  0  0  0  0  0
   -6.7300   19.6330  -32.7970 C   0  0  0  0  0  0  0  0  0  0  0  0
   -7.2470   20.7870  -32.3430 N   0  0  0  0  0  0  0  0  0  0  0  0
   -6.2440   21.6780  -32.5480 C   0  0  0  0  0  0  0  0  0  0  0  0
   -6.4420   23.1500  -32.2640 C   0  0  0  0  0  0  0  0  0  0  0  0
   -6.2790   23.5010  -30.8360 N   0  0  0  0  0  0  0  0  0  0  0  0
   -5.0360   23.0010  -30.2150 C   0  0  0  0  0  0  0  0  0  0  0  0
   -3.8520   23.9890  -30.3560 C   0  0  0  0  0  0  0  0  0  0  0  0
   -4.2400   25.2730  -30.8110 O   0  0  0  0  0  0  0  0  0  0  0  0
   -5.3660   25.7160  -30.0910 C   0  0  0  0  0  0  0  0  0  0  0  0
   -6.6060   24.9040  -30.4950 C   0  0  0  0  0  0  0  0  0  0  0  0
   -5.1220   21.1120  -33.0880 N   0  0  0  0  0  0  0  0  0  0  0  0
   -3.8390   21.7500  -33.4260 C   0  0  0  0  0  0  0  0  0  0  0  0
   -2.7340   21.3020  -32.5060 C   0  0  0  0  0  0  0  0  0  0  0  0
   -2.9790   21.1910  -31.2750 O   0  0  0  0  0  0  0  0  0  0  0  0
   -1.3830   20.9660  -32.9910 C   0  0  0  0  0  0  0  0  0  0  0  0
   -0.8830   21.1330  -34.2790 C   0  0  0  0  0  0  0  0  0  0  0  0
    0.4450   20.7100  -34.4190 C   0  0  0  0  0  0  0  0  0  0  0  0
    0.9970   20.2040  -33.2510 C   0  0  0  0  0  0  0  0  0  0  0  0
   -0.1700   20.2830  -32.0440 S   0  0  0  0  0  0  0  0  0  0  0  0
   -7.3670   18.4320  -32.8660 N   0  0  0  0  0  0  0  0  0  0  0  0
   -8.7300   18.2730  -32.3400 C   0  0  0  0  0  0  0  0  0  0  0  0
   -6.6760   17.3630  -33.3890 C   0  0  0  0  0  0  0  0  0  0  0  0
   -7.2310   16.2280  -33.4400 O   0  0  0  0  0  0  0  0  0  0  0  0
   -4.2892   15.7259  -33.6828 H   0  0  0  0  0  0  0  0  0  0  0  0
   -5.3906   15.8050  -35.0997 H   0  0  0  0  0  0  0  0  0  0  0  0
   -3.8583   16.7425  -35.0997 H   0  0  0  0  0  0  0  0  0  0  0  0
   -5.7054   23.7200  -32.8492 H   0  0  0  0  0  0  0  0  0  0  0  0
   -7.4769   23.3977  -32.5428 H   0  0  0  0  0  0  0  0  0  0  0  0
   -5.2232   22.8280  -29.1449 H   0  0  0  0  0  0  0  0  0  0  0  0
   -4.7562   22.0740  -30.7368 H   0  0  0  0  0  0  0  0  0  0  0  0
   -3.3707   24.0985  -29.3730 H   0  0  0  0  0  0  0  0  0  0  0  0
   -3.1690   23.5707  -31.1100 H   0  0  0  0  0  0  0  0  0  0  0  0
   -5.1824   25.5876  -29.0140 H   0  0  0  0  0  0  0  0  0  0  0  0
   -5.5424   26.7779  -30.3175 H   0  0  0  0  0  0  0  0  0  0  0  0
   -7.3178   24.9064  -29.6563 H   0  0  0  0  0  0  0  0  0  0  0  0
   -7.0357   25.3743  -31.3918 H   0  0  0  0  0  0  0  0  0  0  0  0
   -3.5711   21.4860  -34.4597 H   0  0  0  0  0  0  0  0  0  0  0  0
   -3.9575   22.8379  -33.3148 H   0  0  0  0  0  0  0  0  0  0  0  0
   -1.4727   21.5556  -35.1058 H   0  0  0  0  0  0  0  0  0  0  0  0
    0.9990   20.7731  -35.3672 H   0  0  0  0  0  0  0  0  0  0  0  0
    2.0206   19.8182  -33.1351 H   0  0  0  0  0  0  0  0  0  0  0  0
   -8.7014   18.2763  -31.2404 H   0  0  0  0  0  0  0  0  0  0  0  0
   -9.3585   19.1039  -32.6930 H   0  0  0  0  0  0  0  0  0  0  0  0
   -9.1504   17.3197  -32.6930 H   0  0  0  0  0  0  0  0  0  0  0  0
  1  2  1  0
  2  3  1  0
  3  4  2  0
  3  5  1  0
  5  6  2  0
  6  7  1  0
  7  8  2  0
  8  9  1  0
  9 10  1  0
 10 11  1  0
 11 12  1  0
 12 13  1  0
 13 14  1  0
 14 15  1  0
  8 16  1  0
 16 17  1  0
 17 18  1  0
 18 19  2  0
 18 20  1  0
 20 21  2  0
 21 22  1  0
 22 23  2  0
 23 24  1  0
  6 25  1  0
 25 26  1  0
 25 27  1  0
 27 28  2  0
 27  2  1  0
 16  5  1  0
 24 20  1  0
 15 10  1  0
  1 29  1  0
  1 30  1  0
  1 31  1  0
  9 32  1  0
  9 33  1  0
 11 34  1  0
 11 35  1  0
 12 36  1  0
 12 37  1  0
 14 38  1  0
 14 39  1  0
 15 40  1  0
 15 41  1  0
 17 42  1  0
 17 43  1  0
 21 44  1  0
 22 45  1  0
 23 46  1  0
 26 47  1  0
 26 48  1  0
 26 49  1  0
M  END
>  <UniqueID>  (33) 
29

>  <SMILES>  (33) 
Cn1c(=O)c2c(nc(CN3CCOCC3)n2CC(=O)c2cccs2)n(C)c1=O

>  <Energy>  (33) 
137.39274345417363

>  <Genealogy>  (33) 
Cn1c(=O)c2c(nc(CN3CCOCC3)n2CC(=O)c2cccs2)n(C)c1=O (3D coordinates assigned)
Cn1c(=O)c2c(nc(CN3CCOCC3)n2CC(=O)c2cccs2)n(C)c1=O (nonaromatic ring conformer: 137.39274345417363 kcal/mol)

>  <smiles>  (33) 
Cn1c(=O)c2c(nc(CN3CCOCC3)n2CC(=O)c2cccs2)n(C)c1=O

>  <score_type>  (33) 
oracle

>  <origin>  (33) 
adg

>  <m_score__min__energy>  (33) 
-8.3499999999999996

>  <m_primary>  (33) 
energy

$$$$
33:0
     RDKit          3D

 49 51  0  0  0  0  0  0  0  0999 V2000
   -6.9593   24.5011  -32.2637 H   0  0  0  0  0  0  0  0  0  0  0  0
   -6.2030   23.7700  -31.9420 C   0  0  0  0  0  0  0  0  0  0  0  0
   -5.0700   24.2220  -31.4830 N   0  0  0  0  0  0  0  0  0  0  0  0
   -4.3960   23.8070  -30.2830 C   0  0  0  0  0  0  0  0  0  0  0  0
   -4.8840   24.1690  -29.0130 C   0  0  0  0  0  0  0  0  0  0  0  0
   -5.7867   24.7922  -28.9307 H   0  0  0  0  0  0  0  0  0  0  0  0
   -4.2280   23.7410  -27.8580 C   0  0  0  0  0  0  0  0  0  0  0  0
   -4.6028   24.0432  -26.8690 H   0  0  0  0  0  0  0  0  0  0  0  0
   -3.0970   22.9300  -27.9570 C   0  0  0  0  0  0  0  0  0  0  0  0
   -2.5778   22.5991  -27.0454 H   0  0  0  0  0  0  0  0  0  0  0  0
   -2.6220   22.5370  -29.2110 C   0  0  0  0  0  0  0  0  0  0  0  0
   -1.7357   21.8895  -29.2828 H   0  0  0  0  0  0  0  0  0  0  0  0
   -3.2740   22.9670  -30.3840 C   0  0  0  0  0  0  0  0  0  0  0  0
   -2.8300   22.5930  -31.6630 O   0  0  0  0  0  0  0  0  0  0  0  0
   -1.8810   21.5620  -31.9190 C   0  0  0  0  0  0  0  0  0  0  0  0
   -1.0254   21.6735  -31.2367 H   0  0  0  0  0  0  0  0  0  0  0  0
   -1.5319   21.6350  -32.9596 H   0  0  0  0  0  0  0  0  0  0  0  0
   -2.5330   20.2070  -31.6970 C   0  0  0  0  0  0  0  0  0  0  0  0
   -2.6246   20.0166  -30.6175 H   0  0  0  0  0  0  0  0  0  0  0  0
   -3.5324   20.2013  -32.1564 H   0  0  0  0  0  0  0  0  0  0  0  0
   -1.9138   19.4225  -32.1564 H   0  0  0  0  0  0  0  0  0  0  0  0
   -6.5320   22.3350  -32.0560 C   0  0  0  0  0  0  0  0  0  0  0  0
   -7.6900   21.6630  -31.6690 C   0  0  0  0  0  0  0  0  0  0  0  0
   -8.9230   22.2770  -31.0720 C   0  0  0  0  0  0  0  0  0  0  0  0
   -8.8550   22.2431  -29.9746 H   0  0  0  0  0  0  0  0  0  0  0  0
   -9.0084   23.3229  -31.4020 H   0  0  0  0  0  0  0  0  0  0  0  0
   -9.8091   21.7149  -31.4020 H   0  0  0  0  0  0  0  0  0  0  0  0
   -7.5650   20.3520  -32.0000 N   0  0  0  0  0  0  0  0  0  0  0  0
   -8.6240   19.3440  -31.8910 C   0  0  0  0  0  0  0  0  0  0  0  0
   -8.8330   19.1451  -30.8295 H   0  0  0  0  0  0  0  0  0  0  0  0
   -9.5360   19.7159  -32.3809 H   0  0  0  0  0  0  0  0  0  0  0  0
   -8.2976   18.4148  -32.3809 H   0  0  0  0  0  0  0  0  0  0  0  0
   -6.4050   20.1820  -32.6260 N   0  0  0  0  0  0  0  0  0  0  0  0
   -5.9200   18.9520  -33.1870 C   0  0  0  0  0  0  0  0  0  0  0  0
   -5.7390   18.8300  -34.5710 C   0  0  0  0  0  0  0  0  0  0  0  0
   -5.9449   19.6876  -35.2284 H   0  0  0  0  0  0  0  0  0  0  0  0
   -5.2980   17.6230  -35.1190 C   0  0  0  0  0  0  0  0  0  0  0  0
   -5.1543   17.5333  -36.2059 H   0  0  0  0  0  0  0  0  0  0  0  0
   -5.0390   16.5290  -34.2880 C   0  0  0  0  0  0  0  0  0  0  0  0
   -4.6985   15.5781  -34.7237 H   0  0  0  0  0  0  0  0  0  0  0  0
   -5.2120   16.6400  -32.9000 C   0  0  0  0  0  0  0  0  0  0  0  0
   -4.9780   15.4540  -32.0110 C   0  0  0  0  0  0  0  0  0  0  0  0
   -5.0398   15.7670  -30.9583 H   0  0  0  0  0  0  0  0  0  0  0  0
   -5.7425   14.6889  -32.2115 H   0  0  0  0  0  0  0  0  0  0  0  0
   -3.9802   15.0366  -32.2115 H   0  0  0  0  0  0  0  0  0  0  0  0
   -5.6710   17.8490  -32.3560 C   0  0  0  0  0  0  0  0  0  0  0  0
   -5.8367   17.9328  -31.2718 H   0  0  0  0  0  0  0  0  0  0  0  0
   -5.7720   21.3700  -32.6790 C   0  0  0  0  0  0  0  0  0  0  0  0
   -4.6460   21.5540  -33.2140 O   0  0  0  0  0  0  0  0  0  0  0  0
  1  2  1  0
  2  3  2  0
  3  4  1  0
  4  5  2  0
  5  6  1  0
  5  7  1  0
  7  8  1  0
  7  9  2  0
  9 10  1  0
  9 11  1  0
 11 12  1  0
 11 13  2  0
 13 14  1  0
 14 15  1  0
 15 16  1  0
 15 17  1  0
 15 18  1  0
 18 19  1  0
 18 20  1  0
 18 21  1  0
  2 22  1  0
 22 23  2  0
 23 24  1  0
 24 25  1  0
 24 26  1  0
 24 27  1  0
 23 28  1  0
 28 29  1  0
 29 30  1  0
 29 31  1  0
 29 32  1  0
 28 33  1  0
 33 34  1  0
 34 35  2  0
 35 36  1  0
 35 37  1  0
 37 38  1  0
 37 39  2  0
 39 40  1  0
 39 41  1  0
 41 42  1  0
 42 43  1  0
 42 44  1  0
 42 45  1  0
 41 46  2  0
 46 47  1  0
 33 48  1  0
 48 49  2  0
 13  4  1  0
 48 22  1  0
 46 34  1  0
M  END
>  <UniqueID>  (34) 
30

>  <SMILES>  (34) 
CCOc1ccccc1/N=C\c1c(C)n(C)n(-c2cccc(C)c2)c1=O

>  <Energy>  (34) 
97.64665622713173

>  <Genealogy>  (34) 
CCOc1ccccc1/N=C\c1c(C)n(C)n(-c2cccc(C)c2)c1=O (cis-trans isomerization)
CCOc1ccccc1/N=C\c1c(C)n(C)n(-c2cccc(C)c2)c1=O (3D coordinates assigned)
CCOc1ccccc1/N=C\c1c(C)n(C)n(-c2cccc(C)c2)c1=O (optimized conformer: 97.64665622713173 kcal/mol)

>  <smiles>  (34) 
CCOc1ccccc1N=Cc1c(C)n(C)n(-c2cccc(C)c2)c1=O

>  <score_type>  (34) 
oracle

>  <origin>  (34) 
adg

>  <m_score__min__energy>  (34) 
-9.1699999999999999

>  <m_primary>  (34) 
energy

$$$$
34:0
     RDKit          3D

 29 30  0  0  0  0  0  0  0  0999 V2000
   -5.6550   25.6660  -30.4790 C   0  0  0  0  0  0  0  0  0  0  0  0
   -4.3970   25.1080  -30.8420 O   0  0  0  0  0  0  0  0  0  0  0  0
   -3.9490   23.8330  -30.4630 C   0  0  0  0  0  0  0  0  0  0  0  0
   -3.0460   23.6520  -29.3950 C   0  0  0  0  0  0  0  0  0  0  0  0
   -2.6150   22.3720  -29.0420 C   0  0  0  0  0  0  0  0  0  0  0  0
   -3.0760   21.2590  -29.7460 C   0  0  0  0  0  0  0  0  0  0  0  0
   -3.9700   21.4230  -30.8050 C   0  0  0  0  0  0  0  0  0  0  0  0
   -4.4170   22.7050  -31.1710 C   0  0  0  0  0  0  0  0  0  0  0  0
   -5.3660   22.8600  -32.3380 C   0  0  0  0  0  0  0  0  0  0  0  0
   -6.5810   22.0420  -32.1420 N   0  0  0  0  0  0  0  0  0  0  0  0
   -7.6300   22.6290  -31.4800 C   0  0  0  0  0  0  0  0  0  0  0  0
   -8.8100   21.9300  -31.2340 C   0  0  0  0  0  0  0  0  0  0  0  0
   -8.9340   20.6200  -31.6750 C   0  0  0  0  0  0  0  0  0  0  0  0
   -7.8830   20.0230  -32.3640 C   0  0  0  0  0  0  0  0  0  0  0  0
   -6.7040   20.7430  -32.6020 C   0  0  0  0  0  0  0  0  0  0  0  0
   -5.5180   19.9890  -33.4590 S   0  0  0  0  0  0  0  0  0  0  0  0
   -5.7373   25.7025  -29.3827 H   0  0  0  0  0  0  0  0  0  0  0  0
   -5.7358   26.6844  -30.8869 H   0  0  0  0  0  0  0  0  0  0  0  0
   -6.4642   25.0424  -30.8869 H   0  0  0  0  0  0  0  0  0  0  0  0
   -2.6787   24.5255  -28.8363 H   0  0  0  0  0  0  0  0  0  0  0  0
   -1.9107   22.2406  -28.2073 H   0  0  0  0  0  0  0  0  0  0  0  0
   -2.7345   20.2515  -29.4661 H   0  0  0  0  0  0  0  0  0  0  0  0
   -4.3280   20.5421  -31.3580 H   0  0  0  0  0  0  0  0  0  0  0  0
   -5.6547   23.9175  -32.4294 H   0  0  0  0  0  0  0  0  0  0  0  0
   -4.8573   22.5202  -33.2522 H   0  0  0  0  0  0  0  0  0  0  0  0
   -7.5376   23.6702  -31.1374 H   0  0  0  0  0  0  0  0  0  0  0  0
   -9.6376   22.4132  -30.6940 H   0  0  0  0  0  0  0  0  0  0  0  0
   -9.8585   20.0565  -31.4808 H   0  0  0  0  0  0  0  0  0  0  0  0
   -7.9771   18.9870  -32.7216 H   0  0  0  0  0  0  0  0  0  0  0  0
  1  2  1  0
  2  3  1  0
  3  4  2  0
  4  5  1  0
  5  6  2  0
  6  7  1  0
  7  8  2  0
  8  9  1  0
  9 10  1  0
 10 11  1  0
 11 12  2  0
 12 13  1  0
 13 14  2  0
 14 15  1  0
 15 16  2  0
  8  3  1  0
 15 10  1  0
  1 17  1  0
  1 18  1  0
  1 19  1  0
  4 20  1  0
  5 21  1  0
  6 22  1  0
  7 23  1  0
  9 24  1  0
  9 25  1  0
 11 26  1  0
 12 27  1  0
 13 28  1  0
 14 29  1  0
M  END
>  <UniqueID>  (35) 
31

>  <SMILES>  (35) 
COc1ccccc1Cn1ccccc1=S

>  <Energy>  (35) 
34.61106951736108

>  <Genealogy>  (35) 
COc1ccccc1Cn1ccccc1=S (3D coordinates assigned)
COc1ccccc1Cn1ccccc1=S (optimized conformer: 34.61106951736108 kcal/mol)

>  <smiles>  (35) 
COc1ccccc1Cn1ccccc1=S

>  <score_type>  (35) 
oracle

>  <origin>  (35) 
adg

>  <m_score__min__energy>  (35) 
-6.54

>  <m_primary>  (35) 
energy

$$$$
35:0
     RDKit          3D

 39 41  0  0  0  0  0  0  0  0999 V2000
   -2.1300   26.1446  -25.9275 H   0  0  0  0  0  0  0  0  0  0  0  0
   -1.7040   25.1360  -25.8210 C   0  0  0  0  0  0  0  0  0  0  0  0
   -0.8790   24.7410  -24.8330 N   0  0  0  0  0  0  0  0  0  0  0  0
   -0.5710   23.4740  -25.0520 N   0  0  0  0  0  0  0  0  0  0  0  0
    0.2550   22.6730  -24.1580 C   0  0  0  0  0  0  0  0  0  0  0  0
    0.0061   22.9144  -23.1141 H   0  0  0  0  0  0  0  0  0  0  0  0
    0.0660   21.6052  -24.3425 H   0  0  0  0  0  0  0  0  0  0  0  0
    1.3165   22.8947  -24.3425 H   0  0  0  0  0  0  0  0  0  0  0  0
   -1.1980   23.0270  -26.1540 C   0  0  0  0  0  0  0  0  0  0  0  0
   -1.1370   22.0076  -26.5628 H   0  0  0  0  0  0  0  0  0  0  0  0
   -1.9340   24.0730  -26.6850 C   0  0  0  0  0  0  0  0  0  0  0  0
   -2.7880   24.0580  -27.9010 C   0  0  0  0  0  0  0  0  0  0  0  0
   -3.8630   23.1610  -28.0160 C   0  0  0  0  0  0  0  0  0  0  0  0
   -4.0801   22.4587  -27.1977 H   0  0  0  0  0  0  0  0  0  0  0  0
   -4.6560   23.1570  -29.1630 C   0  0  0  0  0  0  0  0  0  0  0  0
   -5.4977   22.4540  -29.2488 H   0  0  0  0  0  0  0  0  0  0  0  0
   -4.3790   24.0480  -30.2030 C   0  0  0  0  0  0  0  0  0  0  0  0
   -5.1320   24.0180  -31.2680 N   0  0  0  0  0  0  0  0  0  0  0  0
   -5.1780   22.9640  -32.2820 C   0  0  0  0  0  0  0  0  0  0  0  0
   -4.3284   22.2824  -32.1283 H   0  0  0  0  0  0  0  0  0  0  0  0
   -5.1258   23.4362  -33.2741 H   0  0  0  0  0  0  0  0  0  0  0  0
   -6.4690   22.1700  -32.1990 C   0  0  0  0  0  0  0  0  0  0  0  0
   -7.6210   22.7980  -31.6890 C   0  0  0  0  0  0  0  0  0  0  0  0
   -7.5655   23.8440  -31.3532 H   0  0  0  0  0  0  0  0  0  0  0  0
   -8.8320   22.1110  -31.6040 C   0  0  0  0  0  0  0  0  0  0  0  0
   -9.7197   22.6110  -31.1893 H   0  0  0  0  0  0  0  0  0  0  0  0
   -8.9180   20.7920  -32.0440 C   0  0  0  0  0  0  0  0  0  0  0  0
   -9.8707   20.2479  -31.9645 H   0  0  0  0  0  0  0  0  0  0  0  0
   -7.7990   20.1600  -32.5850 C   0  0  0  0  0  0  0  0  0  0  0  0
   -7.8773   19.1203  -32.9356 H   0  0  0  0  0  0  0  0  0  0  0  0
   -6.5700   20.8390  -32.6870 C   0  0  0  0  0  0  0  0  0  0  0  0
   -5.3960   20.1260  -33.3050 C   0  0  0  0  0  0  0  0  0  0  0  0
   -4.7465   19.7315  -32.5097 H   0  0  0  0  0  0  0  0  0  0  0  0
   -5.7583   19.2952  -33.9283 H   0  0  0  0  0  0  0  0  0  0  0  0
   -4.8258   20.8305  -33.9283 H   0  0  0  0  0  0  0  0  0  0  0  0
   -3.3300   24.9200  -30.0800 N   0  0  0  0  0  0  0  0  0  0  0  0
   -3.1000   25.5990  -30.8360 H   0  0  0  0  0  0  0  0  0  0  0  0
   -2.5450   24.9390  -28.9680 C   0  0  0  0  0  0  0  0  0  0  0  0
   -1.7104   25.6527  -28.9041 H   0  0  0  0  0  0  0  0  0  0  0  0
  1  2  1  0
  2  3  2  0
  3  4  1  0
  4  5  1  0
  5  6  1  0
  5  7  1  0
  5  8  1  0
  4  9  1  0
  9 10  1  0
  9 11  2  0
 11 12  1  0
 12 13  1  0
 13 14  1  0
 13 15  2  0
 15 16  1  0
 15 17  1  0
 17 18  2  0
 18 19  1  0
 19 20  1  0
 19 21  1  0
 19 22  1  0
 22 23  2  0
 23 24  1  0
 23 25  1  0
 25 26  1  0
 25 27  2  0
 27 28  1  0
 27 29  1  0
 29 30  1  0
 29 31  2  0
 31 32  1  0
 32 33  1  0
 32 34  1  0
 32 35  1  0
 17 36  1  0
 36 37  1  0
 36 38  1  0
 38 39  1  0
 11  2  1  0
 38 12  2  0
 31 22  1  0
M  END
>  <UniqueID>  (36) 
32

>  <SMILES>  (36) 
Cc1ccccc1C/N=c1/ccc(-c2cnn(C)c2)c[nH]1

>  <Energy>  (36) 
75.27556150551648

>  <Genealogy>  (36) 
Cc1ccccc1C/N=c1/ccc(-c2cnn(C)c2)c[nH]1 (cis-trans isomerization)
Cc1ccccc1C/N=c1/ccc(-c2cnn(C)c2)c[nH]1 (3D coordinates assigned)
Cc1ccccc1C/N=c1/ccc(-c2cnn(C)c2)c[nH]1 (optimized conformer: 75.27556150551648 kcal/mol)

>  <smiles>  (36) 
Cc1ccccc1CN=c1ccc(-c2cnn(C)c2)c[nH]1

>  <score_type>  (36) 
oracle

>  <origin>  (36) 
adg

>  <m_score__min__energy>  (36) 
-7.7599999999999998

>  <m_primary>  (36) 
energy

$$$$
36:0
     RDKit          3D

 43 45  0  0  0  0  0  0  0  0999 V2000
   -5.5950   25.6960  -30.3940 C   0  0  0  0  0  0  0  0  0  0  0  0
   -4.1850   25.5370  -30.5030 O   0  0  0  0  0  0  0  0  0  0  0  0
   -3.5160   24.3020  -30.4680 C   0  0  0  0  0  0  0  0  0  0  0  0
   -3.9770   23.1880  -31.1890 C   0  0  0  0  0  0  0  0  0  0  0  0
   -3.2770   21.9710  -31.1700 C   0  0  0  0  0  0  0  0  0  0  0  0
   -3.7670   20.7760  -31.9160 C   0  0  0  0  0  0  0  0  0  0  0  0
   -2.9370   20.0160  -32.4890 O   0  0  0  0  0  0  0  0  0  0  0  0
   -5.2000   20.4150  -31.9840 C   0  0  0  0  0  0  0  0  0  0  0  0
   -6.2310   21.2890  -31.6260 C   0  0  0  0  0  0  0  0  0  0  0  0
   -7.7080   20.5010  -31.8440 S   0  0  0  0  0  0  0  0  0  0  0  0
   -7.0550   19.0660  -32.4310 C   0  0  0  0  0  0  0  0  0  0  0  0
   -5.6670   19.1610  -32.4280 C   0  0  0  0  0  0  0  0  0  0  0  0
   -4.8190   18.1020  -32.9240 N   0  0  0  0  0  0  0  0  0  0  0  0
   -5.4700   16.7800  -32.8130 C   0  0  0  0  0  0  0  0  0  0  0  0
   -6.8870   16.7890  -33.4260 C   0  0  0  0  0  0  0  0  0  0  0  0
   -7.7990   17.7980  -32.7080 C   0  0  0  0  0  0  0  0  0  0  0  0
   -2.1120   21.8790  -30.3900 C   0  0  0  0  0  0  0  0  0  0  0  0
   -1.6460   22.9750  -29.6370 C   0  0  0  0  0  0  0  0  0  0  0  0
   -0.4790   22.8700  -28.8580 O   0  0  0  0  0  0  0  0  0  0  0  0
   -0.2400   21.8630  -27.8790 C   0  0  0  0  0  0  0  0  0  0  0  0
   -2.3620   24.1980  -29.6770 C   0  0  0  0  0  0  0  0  0  0  0  0
   -1.9840   25.3470  -28.9540 O   0  0  0  0  0  0  0  0  0  0  0  0
   -1.6120   25.3990  -27.5790 C   0  0  0  0  0  0  0  0  0  0  0  0
   -5.8793   25.7281  -29.3319 H   0  0  0  0  0  0  0  0  0  0  0  0
   -5.8971   26.6339  -30.8829 H   0  0  0  0  0  0  0  0  0  0  0  0
   -6.0984   24.8489  -30.8829 H   0  0  0  0  0  0  0  0  0  0  0  0
   -4.9021   23.2705  -31.7785 H   0  0  0  0  0  0  0  0  0  0  0  0
   -6.1012   22.3191  -31.2626 H   0  0  0  0  0  0  0  0  0  0  0  0
   -4.5900   18.2980  -33.9260 H   0  0  0  0  0  0  0  0  0  0  0  0
   -3.9310   18.0760  -32.3760 H   0  0  0  0  0  0  0  0  0  0  0  0
   -4.8573   16.0352  -33.3420 H   0  0  0  0  0  0  0  0  0  0  0  0
   -5.5593   16.5299  -31.7455 H   0  0  0  0  0  0  0  0  0  0  0  0
   -6.8160   17.0631  -34.4889 H   0  0  0  0  0  0  0  0  0  0  0  0
   -7.3216   15.7850  -33.3117 H   0  0  0  0  0  0  0  0  0  0  0  0
   -8.6679   18.0191  -33.3453 H   0  0  0  0  0  0  0  0  0  0  0  0
   -8.1319   17.3632  -31.7540 H   0  0  0  0  0  0  0  0  0  0  0  0
   -1.5524   20.9323  -30.3667 H   0  0  0  0  0  0  0  0  0  0  0  0
   -0.3431   22.2972  -26.8736 H   0  0  0  0  0  0  0  0  0  0  0  0
   -0.9701   21.0497  -28.0037 H   0  0  0  0  0  0  0  0  0  0  0  0
    0.7777   21.4645  -28.0037 H   0  0  0  0  0  0  0  0  0  0  0  0
   -2.5071   25.2739  -26.9520 H   0  0  0  0  0  0  0  0  0  0  0  0
   -0.8966   24.5921  -27.3619 H   0  0  0  0  0  0  0  0  0  0  0  0
   -1.1452   26.3711  -27.3619 H   0  0  0  0  0  0  0  0  0  0  0  0
  1  2  1  0
  2  3  1  0
  3  4  2  0
  4  5  1  0
  5  6  1  0
  6  7  2  0
  6  8  1  0
  8  9  2  0
  9 10  1  0
 10 11  1  0
 11 12  2  0
 12 13  1  0
 13 14  1  0
 14 15  1  0
 15 16  1  0
  5 17  2  0
 17 18  1  0
 18 19  1  0
 19 20  1  0
 18 21  2  0
 21 22  1  0
 22 23  1  0
 21  3  1  0
 12  8  1  0
 16 11  1  0
  1 24  1  0
  1 25  1  0
  1 26  1  0
  4 27  1  0
  9 28  1  0
 13 29  1  0
 13 30  1  0
 14 31  1  0
 14 32  1  0
 15 33  1  0
 15 34  1  0
 16 35  1  0
 16 36  1  0
 17 37  1  0
 20 38  1  0
 20 39  1  0
 20 40  1  0
 23 41  1  0
 23 42  1  0
 23 43  1  0
M  CHG  1  13   1
M  END
>  <UniqueID>  (37) 
33

>  <SMILES>  (37) 
COc1cc(C(=O)c2csc3c2[NH2+]CCC3)cc(OC)c1OC

>  <Energy>  (37) 
81.83827040664302

>  <Genealogy>  (37) 
COc1cc(C(=O)c2csc3c2[NH2+]CCC3)cc(OC)c1OC (protonated)
COc1cc(C(=O)c2csc3c2[NH2+]CCC3)cc(OC)c1OC (3D coordinates assigned)
COc1cc(C(=O)c2csc3c2[NH2+]CCC3)cc(OC)c1OC (nonaromatic ring conformer: 81.83827040664302 kcal/mol)

>  <smiles>  (37) 
COc1cc(C(=O)c2csc3c2NCCC3)cc(OC)c1OC

>  <score_type>  (37) 
oracle

>  <origin>  (37) 
adg

>  <m_score__min__energy>  (37) 
-6.9500000000000002

>  <m_primary>  (37) 
energy

$$$$
37:0
     RDKit          3D

 32 33  0  0  0  0  0  0  0  0999 V2000
   -2.6680   24.5500  -29.3400 C   0  0  0  0  0  0  0  0  0  0  0  0
   -3.4980   24.9990  -30.4070 O   0  0  0  0  0  0  0  0  0  0  0  0
   -4.7740   24.4880  -30.6860 C   0  0  0  0  0  0  0  0  0  0  0  0
   -5.9440   25.0300  -30.1250 C   0  0  0  0  0  0  0  0  0  0  0  0
   -7.1930   24.4870  -30.4390 C   0  0  0  0  0  0  0  0  0  0  0  0
   -7.3040   23.3990  -31.3250 C   0  0  0  0  0  0  0  0  0  0  0  0
   -8.6530   22.8720  -31.6710 C   0  0  0  0  0  0  0  0  0  0  0  0
   -9.3730   23.5150  -32.4820 O   0  0  0  0  0  0  0  0  0  0  0  0
   -9.1710   21.5490  -31.1630 C   0  0  0  0  0  0  0  0  0  0  0  0
   -9.4560   20.5730  -32.3120 C   0  0  0  0  0  0  0  0  0  0  0  0
   -8.3500   19.6330  -32.4970 N   0  0  0  0  0  0  0  0  0  0  0  0
   -8.2680   18.3910  -31.9830 C   0  0  0  0  0  0  0  0  0  0  0  0
   -7.0560   17.8270  -32.3230 C   0  0  0  0  0  0  0  0  0  0  0  0
   -6.3770   18.7700  -33.0720 C   0  0  0  0  0  0  0  0  0  0  0  0
   -7.2030   19.8720  -33.1610 C   0  0  0  0  0  0  0  0  0  0  0  0
   -6.1260   22.8530  -31.8700 C   0  0  0  0  0  0  0  0  0  0  0  0
   -4.8780   23.3970  -31.5540 C   0  0  0  0  0  0  0  0  0  0  0  0
   -3.1376   24.8041  -28.3783 H   0  0  0  0  0  0  0  0  0  0  0  0
   -2.5400   23.4596  -29.4089 H   0  0  0  0  0  0  0  0  0  0  0  0
   -1.6854   25.0396  -29.4089 H   0  0  0  0  0  0  0  0  0  0  0  0
   -5.8759   25.8849  -29.4362 H   0  0  0  0  0  0  0  0  0  0  0  0
   -8.1004   24.9152  -29.9882 H   0  0  0  0  0  0  0  0  0  0  0  0
   -8.4185   21.1040  -30.4954 H   0  0  0  0  0  0  0  0  0  0  0  0
  -10.1138   21.7326  -30.6268 H   0  0  0  0  0  0  0  0  0  0  0  0
  -10.3720   20.0083  -32.0837 H   0  0  0  0  0  0  0  0  0  0  0  0
   -9.5776   21.1532  -33.2386 H   0  0  0  0  0  0  0  0  0  0  0  0
   -9.0489   17.9007  -31.3831 H   0  0  0  0  0  0  0  0  0  0  0  0
   -6.6992   16.8226  -32.0512 H   0  0  0  0  0  0  0  0  0  0  0  0
   -5.3742   18.6629  -33.5112 H   0  0  0  0  0  0  0  0  0  0  0  0
   -6.9613   20.8038  -33.6933 H   0  0  0  0  0  0  0  0  0  0  0  0
   -6.1886   21.9909  -32.5503 H   0  0  0  0  0  0  0  0  0  0  0  0
   -3.9679   22.9621  -31.9929 H   0  0  0  0  0  0  0  0  0  0  0  0
  1  2  1  0
  2  3  1  0
  3  4  2  0
  4  5  1  0
  5  6  2  0
  6  7  1  0
  7  8  2  0
  7  9  1  0
  9 10  1  0
 10 11  1  0
 11 12  1  0
 12 13  2  0
 13 14  1  0
 14 15  2  0
  6 16  1  0
 16 17  2  0
 17  3  1  0
 15 11  1  0
  1 18  1  0
  1 19  1  0
  1 20  1  0
  4 21  1  0
  5 22  1  0
  9 23  1  0
  9 24  1  0
 10 25  1  0
 10 26  1  0
 12 27  1  0
 13 28  1  0
 14 29  1  0
 15 30  1  0
 16 31  1  0
 17 32  1  0
M  END
>  <UniqueID>  (38) 
34

>  <SMILES>  (38) 
COc1ccc(C(=O)CCn2cccc2)cc1

>  <Energy>  (38) 
54.32617752711814

>  <Genealogy>  (38) 
COc1ccc(C(=O)CCn2cccc2)cc1 (3D coordinates assigned)
COc1ccc(C(=O)CCn2cccc2)cc1 (optimized conformer: 54.32617752711814 kcal/mol)

>  <smiles>  (38) 
COc1ccc(C(=O)CCn2cccc2)cc1

>  <score_type>  (38) 
oracle

>  <origin>  (38) 
adg

>  <m_score__min__energy>  (38) 
-7.2199999999999998

>  <m_primary>  (38) 
energy

$$$$
38:0
     RDKit          3D

 31 33  0  0  0  0  0  0  0  0999 V2000
   -4.4060   14.4860  -34.6480 C   0  0  0  0  0  0  0  0  0  0  0  0
   -4.8990   15.8330  -34.2080 C   0  0  0  0  0  0  0  0  0  0  0  0
   -4.5800   16.9790  -34.9500 C   0  0  0  0  0  0  0  0  0  0  0  0
   -5.0690   18.2310  -34.5630 C   0  0  0  0  0  0  0  0  0  0  0  0
   -5.8980   18.3540  -33.4330 C   0  0  0  0  0  0  0  0  0  0  0  0
   -6.4310   19.6660  -33.0000 C   0  0  0  0  0  0  0  0  0  0  0  0
   -7.6630   20.1450  -33.2630 N   0  0  0  0  0  0  0  0  0  0  0  0
   -7.7530   21.3410  -32.7080 N   0  0  0  0  0  0  0  0  0  0  0  0
   -6.5610   21.5590  -32.1180 C   0  0  0  0  0  0  0  0  0  0  0  0
   -6.2090   22.7820  -31.3710 C   0  0  0  0  0  0  0  0  0  0  0  0
   -7.2130   23.6190  -30.8520 C   0  0  0  0  0  0  0  0  0  0  0  0
   -6.8700   24.7760  -30.1450 C   0  0  0  0  0  0  0  0  0  0  0  0
   -5.5270   25.1070  -29.9510 C   0  0  0  0  0  0  0  0  0  0  0  0
   -4.5230   24.2820  -30.4630 C   0  0  0  0  0  0  0  0  0  0  0  0
   -4.8600   23.1240  -31.1720 C   0  0  0  0  0  0  0  0  0  0  0  0
   -5.7490   20.5380  -32.2930 O   0  0  0  0  0  0  0  0  0  0  0  0
   -6.2300   17.1980  -32.7050 C   0  0  0  0  0  0  0  0  0  0  0  0
   -5.7400   15.9480  -33.0920 C   0  0  0  0  0  0  0  0  0  0  0  0
   -4.1810   13.8712  -33.7640 H   0  0  0  0  0  0  0  0  0  0  0  0
   -5.1812   13.9909  -35.2513 H   0  0  0  0  0  0  0  0  0  0  0  0
   -3.4944   14.6083  -35.2513 H   0  0  0  0  0  0  0  0  0  0  0  0
   -3.9415   16.8930  -35.8416 H   0  0  0  0  0  0  0  0  0  0  0  0
   -4.8037   19.1253  -35.1460 H   0  0  0  0  0  0  0  0  0  0  0  0
   -8.4330   19.6910  -33.8010 H   0  0  0  0  0  0  0  0  0  0  0  0
   -8.2721   23.3627  -31.0027 H   0  0  0  0  0  0  0  0  0  0  0  0
   -7.6596   25.4266  -29.7409 H   0  0  0  0  0  0  0  0  0  0  0  0
   -5.2600   26.0177  -29.3948 H   0  0  0  0  0  0  0  0  0  0  0  0
   -3.4657   24.5432  -30.3085 H   0  0  0  0  0  0  0  0  0  0  0  0
   -4.0661   22.4783  -31.5755 H   0  0  0  0  0  0  0  0  0  0  0  0
   -6.8816   17.2783  -31.8224 H   0  0  0  0  0  0  0  0  0  0  0  0
   -6.0152   15.0504  -32.5187 H   0  0  0  0  0  0  0  0  0  0  0  0
  1  2  1  0
  2  3  2  0
  3  4  1  0
  4  5  2  0
  5  6  1  0
  6  7  2  0
  7  8  1  0
  8  9  2  0
  9 10  1  0
 10 11  2  0
 11 12  1  0
 12 13  2  0
 13 14  1  0
 14 15  2  0
  9 16  1  0
  5 17  1  0
 17 18  2  0
 18  2  1  0
 16  6  1  0
 15 10  1  0
  1 19  1  0
  1 20  1  0
  1 21  1  0
  3 22  1  0
  4 23  1  0
  7 24  1  0
 11 25  1  0
 12 26  1  0
 13 27  1  0
 14 28  1  0
 15 29  1  0
 17 30  1  0
 18 31  1  0
M  CHG  1   7   1
M  END
>  <UniqueID>  (39) 
35

>  <SMILES>  (39) 
Cc1ccc(-c2[nH+]nc(-c3ccccc3)o2)cc1

>  <Energy>  (39) 
69.2246860074368

>  <Genealogy>  (39) 
Cc1ccc(-c2[nH+]nc(-c3ccccc3)o2)cc1 (protonated)
Cc1ccc(-c2[nH+]nc(-c3ccccc3)o2)cc1 (3D coordinates assigned)
Cc1ccc(-c2[nH+]nc(-c3ccccc3)o2)cc1 (optimized conformer: 69.2246860074368 kcal/mol)

>  <smiles>  (39) 
Cc1ccc(-c2nnc(-c3ccccc3)o2)cc1

>  <score_type>  (39) 
oracle

>  <origin>  (39) 
adg

>  <m_score__min__energy>  (39) 
-6.5899999999999999

>  <m_primary>  (39) 
energy

$$$$
39:0
     RDKit          3D

 41 44  0  0  0  0  0  0  0  0999 V2000
    1.0280   19.5620  -28.1150 C   0  0  0  0  0  0  0  0  0  0  0  0
    0.7540   20.9170  -27.7790 O   0  0  0  0  0  0  0  0  0  0  0  0
   -0.3020   21.6370  -28.3440 C   0  0  0  0  0  0  0  0  0  0  0  0
   -1.1500   22.3570  -27.5630 N   0  0  0  0  0  0  0  0  0  0  0  0
   -2.1870   23.0580  -28.0910 C   0  0  0  0  0  0  0  0  0  0  0  0
   -3.0220   23.8950  -27.1560 C   0  0  0  0  0  0  0  0  0  0  0  0
   -2.1480   24.7010  -26.2420 C   0  0  0  0  0  0  0  0  0  0  0  0
   -2.3100   26.0570  -25.9650 C   0  0  0  0  0  0  0  0  0  0  0  0
   -1.2690   26.3710  -25.1190 C   0  0  0  0  0  0  0  0  0  0  0  0
   -0.9100   27.5750  -24.5250 C   0  0  0  0  0  0  0  0  0  0  0  0
    0.2340   27.5700  -23.7060 C   0  0  0  0  0  0  0  0  0  0  0  0
    0.9490   26.4140  -23.5150 N   0  0  0  0  0  0  0  0  0  0  0  0
    0.5860   25.2360  -24.1080 C   0  0  0  0  0  0  0  0  0  0  0  0
   -0.5450   25.2300  -24.9190 C   0  0  0  0  0  0  0  0  0  0  0  0
   -1.0680   24.1960  -25.5970 N   0  0  0  0  0  0  0  0  0  0  0  0
   -2.3890   23.0440  -29.4920 C   0  0  0  0  0  0  0  0  0  0  0  0
   -3.4790   23.7970  -30.1440 C   0  0  0  0  0  0  0  0  0  0  0  0
   -4.4870   23.2740  -30.9210 C   0  0  0  0  0  0  0  0  0  0  0  0
   -5.2600   24.2800  -31.3620 N   0  0  0  0  0  0  0  0  0  0  0  0
   -4.6920   25.3870  -30.8420 C   0  0  0  0  0  0  0  0  0  0  0  0
   -3.5940   25.1350  -30.0980 N   0  0  0  0  0  0  0  0  0  0  0  0
   -1.4880   22.3080  -30.2810 C   0  0  0  0  0  0  0  0  0  0  0  0
   -1.6430   22.2740  -31.6710 O   0  0  0  0  0  0  0  0  0  0  0  0
   -2.1940   21.1580  -32.3600 C   0  0  0  0  0  0  0  0  0  0  0  0
   -0.4750   21.6220  -29.6880 N   0  0  0  0  0  0  0  0  0  0  0  0
    1.1472   18.9727  -27.1938 H   0  0  0  0  0  0  0  0  0  0  0  0
    0.1940   19.1548  -28.7055 H   0  0  0  0  0  0  0  0  0  0  0  0
    1.9547   19.5108  -28.7055 H   0  0  0  0  0  0  0  0  0  0  0  0
   -3.6521   24.5763  -27.7466 H   0  0  0  0  0  0  0  0  0  0  0  0
   -3.6487   23.2266  -26.5473 H   0  0  0  0  0  0  0  0  0  0  0  0
   -3.0962   26.7290  -26.3395 H   0  0  0  0  0  0  0  0  0  0  0  0
   -1.4949   28.4922  -24.6881 H   0  0  0  0  0  0  0  0  0  0  0  0
    0.5579   28.4995  -23.2150 H   0  0  0  0  0  0  0  0  0  0  0  0
    1.7950   26.4340  -22.9040 H   0  0  0  0  0  0  0  0  0  0  0  0
    1.1718   24.3188  -23.9483 H   0  0  0  0  0  0  0  0  0  0  0  0
   -0.7120   23.2150  -25.6310 H   0  0  0  0  0  0  0  0  0  0  0  0
   -4.6354   22.2072  -31.1443 H   0  0  0  0  0  0  0  0  0  0  0  0
   -5.0863   26.4003  -31.0084 H   0  0  0  0  0  0  0  0  0  0  0  0
   -2.5584   20.4200  -31.6302 H   0  0  0  0  0  0  0  0  0  0  0  0
   -3.0302   21.4932  -32.9913 H   0  0  0  0  0  0  0  0  0  0  0  0
   -1.4195   20.6979  -32.9913 H   0  0  0  0  0  0  0  0  0  0  0  0
  1  2  1  0
  2  3  1  0
  3  4  2  0
  4  5  1  0
  5  6  1  0
  6  7  1  0
  7  8  2  0
  8  9  1  0
  9 10  2  0
 10 11  1  0
 11 12  2  0
 12 13  1  0
 13 14  2  0
 14 15  1  0
  5 16  2  0
 16 17  1  0
 17 18  2  0
 18 19  1  0
 19 20  1  0
 20 21  2  0
 16 22  1  0
 22 23  1  0
 23 24  1  0
 22 25  2  0
 25  3  1  0
 15  7  1  0
 21 17  1  0
 14  9  1  0
  1 26  1  0
  1 27  1  0
  1 28  1  0
  6 29  1  0
  6 30  1  0
  8 31  1  0
 10 32  1  0
 11 33  1  0
 12 34  1  0
 13 35  1  0
 15 36  1  0
 18 37  1  0
 20 38  1  0
 24 39  1  0
 24 40  1  0
 24 41  1  0
M  CHG  2  12   1  19  -1
M  END
>  <UniqueID>  (40) 
36

>  <SMILES>  (40) 
COc1nc(Cc2cc3cc[nH+]cc3[nH]2)c(-c2c[n-]cn2)c(OC)n1

>  <Energy>  (40) 
107.07991207657969

>  <Genealogy>  (40) 
COc1nc(Cc2cc3cc[nH+]cc3[nH]2)c(-c2c[n-]cn2)c(OC)n1 (protonated)
COc1nc(Cc2cc3cc[nH+]cc3[nH]2)c(-c2c[n-]cn2)c(OC)n1 (3D coordinates assigned)
COc1nc(Cc2cc3cc[nH+]cc3[nH]2)c(-c2c[n-]cn2)c(OC)n1 (optimized conformer: 107.07991207657969 kcal/mol)

>  <smiles>  (40) 
COc1nc(Cc2cc3ccncc3[nH]2)c(-c2c[nH]cn2)c(OC)n1

>  <score_type>  (40) 
oracle

>  <origin>  (40) 
adg

>  <m_score__min__energy>  (40) 
-7.54

>  <m_primary>  (40) 
energy

$$$$
40:0
     RDKit          3D

 36 38  0  0  0  0  0  0  0  0999 V2000
   -3.0820   24.4330  -28.8190 C   0  0  0  0  0  0  0  0  0  0  0  0
   -4.1700   24.2100  -29.8260 C   0  0  0  0  0  0  0  0  0  0  0  0
   -5.3780   24.9160  -29.7300 C   0  0  0  0  0  0  0  0  0  0  0  0
   -6.4080   24.6810  -30.6460 C   0  0  0  0  0  0  0  0  0  0  0  0
   -6.2460   23.7310  -31.6690 C   0  0  0  0  0  0  0  0  0  0  0  0
   -7.3190   23.4670  -32.5960 N   0  0  0  0  0  0  0  0  0  0  0  0
   -8.3420   22.6290  -31.9540 C   0  0  0  0  0  0  0  0  0  0  0  0
   -8.0480   21.1730  -32.1820 C   0  0  0  0  0  0  0  0  0  0  0  0
   -8.8120   20.1820  -31.5500 C   0  0  0  0  0  0  0  0  0  0  0  0
   -8.5440   18.8360  -31.8040 C   0  0  0  0  0  0  0  0  0  0  0  0
   -7.5210   18.4860  -32.6930 C   0  0  0  0  0  0  0  0  0  0  0  0
   -7.2240   17.1440  -32.9730 C   0  0  0  0  0  0  0  0  0  0  0  0
   -6.1980   16.8270  -33.8700 C   0  0  0  0  0  0  0  0  0  0  0  0
   -5.4670   17.8450  -34.4910 C   0  0  0  0  0  0  0  0  0  0  0  0
   -5.7560   19.1860  -34.2180 C   0  0  0  0  0  0  0  0  0  0  0  0
   -6.7790   19.5130  -33.3210 C   0  0  0  0  0  0  0  0  0  0  0  0
   -7.0640   20.8150  -33.0530 N   0  0  0  0  0  0  0  0  0  0  0  0
   -5.0460   23.0030  -31.7440 C   0  0  0  0  0  0  0  0  0  0  0  0
   -4.0170   23.2400  -30.8270 C   0  0  0  0  0  0  0  0  0  0  0  0
   -3.4983   24.3477  -27.8044 H   0  0  0  0  0  0  0  0  0  0  0  0
   -2.2943   23.6776  -28.9569 H   0  0  0  0  0  0  0  0  0  0  0  0
   -2.6550   25.4373  -28.9569 H   0  0  0  0  0  0  0  0  0  0  0  0
   -5.5159   25.6584  -28.9301 H   0  0  0  0  0  0  0  0  0  0  0  0
   -7.3503   25.2428  -30.5655 H   0  0  0  0  0  0  0  0  0  0  0  0
   -7.7470   24.3710  -32.9070 H   0  0  0  0  0  0  0  0  0  0  0  0
   -6.9430   22.9790  -33.4420 H   0  0  0  0  0  0  0  0  0  0  0  0
   -8.3500   22.8318  -30.8729 H   0  0  0  0  0  0  0  0  0  0  0  0
   -9.3229   22.8668  -32.3914 H   0  0  0  0  0  0  0  0  0  0  0  0
   -9.6187   20.4638  -30.8573 H   0  0  0  0  0  0  0  0  0  0  0  0
   -9.1350   18.0526  -31.3070 H   0  0  0  0  0  0  0  0  0  0  0  0
   -7.7977   16.3408  -32.4874 H   0  0  0  0  0  0  0  0  0  0  0  0
   -5.9656   15.7740  -34.0874 H   0  0  0  0  0  0  0  0  0  0  0  0
   -4.6623   17.5902  -35.1963 H   0  0  0  0  0  0  0  0  0  0  0  0
   -5.1790   19.9838  -34.7085 H   0  0  0  0  0  0  0  0  0  0  0  0
   -4.9155   22.2427  -32.5282 H   0  0  0  0  0  0  0  0  0  0  0  0
   -3.0829   22.6626  -30.8913 H   0  0  0  0  0  0  0  0  0  0  0  0
  1  2  1  0
  2  3  2  0
  3  4  1  0
  4  5  2  0
  5  6  1  0
  6  7  1  0
  7  8  1  0
  8  9  2  0
  9 10  1  0
 10 11  2  0
 11 12  1  0
 12 13  2  0
 13 14  1  0
 14 15  2  0
 15 16  1  0
 16 17  2  0
  5 18  1  0
 18 19  2  0
 19  2  1  0
 17  8  1  0
 16 11  1  0
  1 20  1  0
  1 21  1  0
  1 22  1  0
  3 23  1  0
  4 24  1  0
  6 25  1  0
  6 26  1  0
  7 27  1  0
  7 28  1  0
  9 29  1  0
 10 30  1  0
 12 31  1  0
 13 32  1  0
 14 33  1  0
 15 34  1  0
 18 35  1  0
 19 36  1  0
M  CHG  1   6   1
M  END
>  <UniqueID>  (41) 
37

>  <SMILES>  (41) 
Cc1ccc([NH2+]Cc2ccc3ccccc3n2)cc1

>  <Energy>  (41) 
40.42478289469567

>  <Genealogy>  (41) 
Cc1ccc([NH2+]Cc2ccc3ccccc3n2)cc1 (protonated)
Cc1ccc([NH2+]Cc2ccc3ccccc3n2)cc1 (3D coordinates assigned)
Cc1ccc([NH2+]Cc2ccc3ccccc3n2)cc1 (optimized conformer: 40.42478289469567 kcal/mol)

>  <smiles>  (41) 
Cc1ccc(NCc2ccc3ccccc3n2)cc1

>  <score_type>  (41) 
oracle

>  <origin>  (41) 
adg

>  <m_score__min__energy>  (41) 
-7.5

>  <m_primary>  (41) 
energy

$$$$
41:0
     RDKit          3D

 25 27  0  0  0  0  0  0  0  0999 V2000
   -5.2960   16.9680  -33.5230 C   0  0  0  0  0  0  0  0  0  0  0  0
   -5.3930   16.5510  -32.1940 C   0  0  0  0  0  0  0  0  0  0  0  0
   -6.2070   17.2140  -31.3310 N   0  0  0  0  0  0  0  0  0  0  0  0
   -6.9470   18.2850  -31.7240 C   0  0  0  0  0  0  0  0  0  0  0  0
   -6.8900   18.7350  -33.0540 C   0  0  0  0  0  0  0  0  0  0  0  0
   -7.6450   19.8880  -33.4750 N   0  0  0  0  0  0  0  0  0  0  0  0
   -7.2300   21.0400  -32.7150 C   0  0  0  0  0  0  0  0  0  0  0  0
   -8.1900   21.8160  -32.0050 C   0  0  0  0  0  0  0  0  0  0  0  0
   -7.8000   22.9620  -31.2850 C   0  0  0  0  0  0  0  0  0  0  0  0
   -6.4530   23.2990  -31.3040 C   0  0  0  0  0  0  0  0  0  0  0  0
   -5.8300   24.3280  -30.7130 N   0  0  0  0  0  0  0  0  0  0  0  0
   -4.5720   24.1850  -31.0530 O   0  0  0  0  0  0  0  0  0  0  0  0
   -4.3330   23.1460  -31.8160 N   0  0  0  0  0  0  0  0  0  0  0  0
   -5.5330   22.5720  -31.9800 C   0  0  0  0  0  0  0  0  0  0  0  0
   -5.8690   21.4350  -32.7060 C   0  0  0  0  0  0  0  0  0  0  0  0
   -6.0440   18.0640  -33.9530 C   0  0  0  0  0  0  0  0  0  0  0  0
   -4.6357   16.4370  -34.2245 H   0  0  0  0  0  0  0  0  0  0  0  0
   -4.8104   15.6855  -31.8454 H   0  0  0  0  0  0  0  0  0  0  0  0
   -7.5926   18.8010  -30.9981 H   0  0  0  0  0  0  0  0  0  0  0  0
   -7.5000   20.0600  -34.4970 H   0  0  0  0  0  0  0  0  0  0  0  0
   -8.6690   19.7170  -33.3380 H   0  0  0  0  0  0  0  0  0  0  0  0
   -9.2485   21.5169  -32.0190 H   0  0  0  0  0  0  0  0  0  0  0  0
   -8.5330   23.5658  -30.7299 H   0  0  0  0  0  0  0  0  0  0  0  0
   -5.1059   20.8626  -33.2537 H   0  0  0  0  0  0  0  0  0  0  0  0
   -5.9715   18.4033  -34.9968 H   0  0  0  0  0  0  0  0  0  0  0  0
  1  2  2  0
  2  3  1  0
  3  4  2  0
  4  5  1  0
  5  6  1  0
  6  7  1  0
  7  8  1  0
  8  9  2  0
  9 10  1  0
 10 11  2  0
 11 12  1  0
 12 13  1  0
 13 14  2  0
 14 15  1  0
  5 16  2  0
 16  1  1  0
 15  7  2  0
 14 10  1  0
  1 17  1  0
  2 18  1  0
  4 19  1  0
  6 20  1  0
  6 21  1  0
  8 22  1  0
  9 23  1  0
 15 24  1  0
 16 25  1  0
M  CHG  1   6   1
M  END
>  <UniqueID>  (42) 
38

>  <SMILES>  (42) 
c1cncc([NH2+]c2ccc3nonc3c2)c1

>  <Energy>  (42) 
73.4538337530398

>  <Genealogy>  (42) 
c1cncc([NH2+]c2ccc3nonc3c2)c1 (protonated)
c1cncc([NH2+]c2ccc3nonc3c2)c1 (3D coordinates assigned)
c1cncc([NH2+]c2ccc3nonc3c2)c1 (optimized conformer: 73.4538337530398 kcal/mol)

>  <smiles>  (42) 
c1cncc(Nc2ccc3nonc3c2)c1

>  <score_type>  (42) 
oracle

>  <origin>  (42) 
adg

>  <m_score__min__energy>  (42) 
-6.9500000000000002

>  <m_primary>  (42) 
energy

$$$$
42:0
     RDKit          3D

 27 28  0  0  0  0  0  0  0  0999 V2000
   -9.5260   21.5680  -31.5900 C   0  0  0  0  0  0  0  0  0  0  0  0
   -8.2020   20.9860  -31.8390 N   0  0  0  0  0  0  0  0  0  0  0  0
   -8.0650   19.5330  -31.9960 C   0  0  0  0  0  0  0  0  0  0  0  0
   -7.0460   21.8510  -31.9410 C   0  0  0  0  0  0  0  0  0  0  0  0
   -5.8440   21.4420  -32.3240 C   0  0  0  0  0  0  0  0  0  0  0  0
   -4.8510   22.5430  -32.3670 C   0  0  0  0  0  0  0  0  0  0  0  0
   -5.6700   23.8040  -32.0490 C   0  0  2  0  0  0  0  0  0  0  0  0
   -5.1660   24.5350  -30.8590 C   0  0  0  0  0  0  0  0  0  0  0  0
   -4.0920   25.1180  -30.8430 O   0  0  0  0  0  0  0  0  0  0  0  0
   -6.0880   24.5220  -29.7020 C   0  0  0  0  0  0  0  0  0  0  0  0
   -7.2380   23.6150  -30.1360 C   0  0  0  0  0  0  0  0  0  0  0  0
   -7.0640   23.3190  -31.6430 C   0  0  2  0  0  0  0  0  0  0  0  0
   -9.6957   21.6426  -30.5057 H   0  0  0  0  0  0  0  0  0  0  0  0
   -9.5759   22.5710  -32.0388 H   0  0  0  0  0  0  0  0  0  0  0  0
  -10.2988   20.9266  -32.0388 H   0  0  0  0  0  0  0  0  0  0  0  0
   -8.0204   19.0596  -31.0041 H   0  0  0  0  0  0  0  0  0  0  0  0
   -8.9302   19.1410  -32.5508 H   0  0  0  0  0  0  0  0  0  0  0  0
   -7.1418   19.3096  -32.5508 H   0  0  0  0  0  0  0  0  0  0  0  0
   -5.6088   20.3989  -32.5819 H   0  0  0  0  0  0  0  0  0  0  0  0
   -4.0647   22.3885  -31.6134 H   0  0  0  0  0  0  0  0  0  0  0  0
   -4.3373   22.6086  -33.3374 H   0  0  0  0  0  0  0  0  0  0  0  0
   -5.6308   24.4637  -32.9284 H   0  0  0  0  0  0  0  0  0  0  0  0
   -5.5874   24.1150  -28.8111 H   0  0  0  0  0  0  0  0  0  0  0  0
   -6.4319   25.5312  -29.4313 H   0  0  0  0  0  0  0  0  0  0  0  0
   -7.2097   22.6755  -29.5645 H   0  0  0  0  0  0  0  0  0  0  0  0
   -8.2050   24.1053  -29.9501 H   0  0  0  0  0  0  0  0  0  0  0  0
   -7.8987   23.8049  -32.1694 H   0  0  0  0  0  0  0  0  0  0  0  0
  1  2  1  0
  2  3  1  0
  2  4  1  0
  4  5  2  0
  5  6  1  0
  6  7  1  0
  7  8  1  0
  8  9  2  0
  8 10  1  0
 10 11  1  0
 11 12  1  0
 12  4  1  0
 12  7  1  0
  1 13  1  0
  1 14  1  0
  1 15  1  0
  3 16  1  0
  3 17  1  0
  3 18  1  0
  5 19  1  0
  6 20  1  0
  6 21  1  0
  7 22  1  6
 10 23  1  0
 10 24  1  0
 11 25  1  0
 11 26  1  0
 12 27  1  6
M  END
>  <UniqueID>  (43) 
39

>  <SMILES>  (43) 
CN(C)C1=CC[C@@H]2C(=O)CC[C@H]12

>  <Energy>  (43) 
29.055412378549146

>  <Genealogy>  (43) 
CN(C)C1=CC[C@@H]2C(=O)CC[C@H]12 (chirality)
CN(C)C1=CC[C@@H]2C(=O)CC[C@H]12 (3D coordinates assigned)
CN(C)C1=CC[C@@H]2C(=O)CC[C@H]12 (nonaromatic ring conformer: 29.055412378549146 kcal/mol)

>  <smiles>  (43) 
CN(C)C1=CCC2C(=O)CCC12

>  <score_type>  (43) 
oracle

>  <origin>  (43) 
adg

>  <m_score__min__energy>  (43) 
-6.5599999999999996

>  <m_primary>  (43) 
energy

$$$$
43:0
     RDKit          3D

 36 38  0  0  0  0  0  0  0  0999 V2000
   -3.7370   21.7690  -33.4170 F   0  0  0  0  0  0  0  0  0  0  0  0
   -3.9150   20.4360  -33.0950 C   0  0  0  0  0  0  0  0  0  0  0  0
   -3.4230   19.6530  -34.1260 F   0  0  0  0  0  0  0  0  0  0  0  0
   -3.1910   20.1490  -31.9510 F   0  0  0  0  0  0  0  0  0  0  0  0
   -5.3840   20.1690  -32.8790 C   0  0  0  0  0  0  0  0  0  0  0  0
   -5.9360   18.9190  -33.2070 C   0  0  0  0  0  0  0  0  0  0  0  0
   -7.2840   18.6540  -32.9560 C   0  0  0  0  0  0  0  0  0  0  0  0
   -8.0920   19.6250  -32.3620 C   0  0  0  0  0  0  0  0  0  0  0  0
   -7.5570   20.8750  -32.0180 C   0  0  0  0  0  0  0  0  0  0  0  0
   -8.4120   21.9030  -31.3290 C   0  0  0  0  0  0  0  0  0  0  0  0
   -7.6120   22.6170  -30.3250 N   0  0  0  0  0  0  0  0  0  0  0  0
   -7.2600   23.9730  -30.7700 C   0  0  0  0  0  0  0  0  0  0  0  0
   -5.7920   24.2510  -30.6170 C   0  0  0  0  0  0  0  0  0  0  0  0
   -5.1720   25.4660  -30.8000 C   0  0  0  0  0  0  0  0  0  0  0  0
   -3.9020   25.3010  -30.5270 O   0  0  0  0  0  0  0  0  0  0  0  0
   -3.7400   24.0430  -30.1810 C   0  0  0  0  0  0  0  0  0  0  0  0
   -2.4470   23.4670  -29.7970 C   0  0  0  0  0  0  0  0  0  0  0  0
   -1.9390   22.2490  -30.2300 C   0  0  0  0  0  0  0  0  0  0  0  0
   -0.6780   21.9590  -29.6960 C   0  0  0  0  0  0  0  0  0  0  0  0
   -0.1920   22.9430  -28.8460 C   0  0  0  0  0  0  0  0  0  0  0  0
   -1.3330   24.1770  -28.7580 S   0  0  0  0  0  0  0  0  0  0  0  0
   -4.8900   23.3360  -30.2150 N   0  0  0  0  0  0  0  0  0  0  0  0
   -6.1970   21.1330  -32.2570 C   0  0  0  0  0  0  0  0  0  0  0  0
   -5.3025   18.1446  -33.6642 H   0  0  0  0  0  0  0  0  0  0  0  0
   -7.7104   17.6770  -33.2273 H   0  0  0  0  0  0  0  0  0  0  0  0
   -9.1521   19.4090  -32.1630 H   0  0  0  0  0  0  0  0  0  0  0  0
   -8.7922   22.6200  -32.0715 H   0  0  0  0  0  0  0  0  0  0  0  0
   -9.2572   21.4025  -30.8339 H   0  0  0  0  0  0  0  0  0  0  0  0
   -8.1600   22.6790  -29.4340 H   0  0  0  0  0  0  0  0  0  0  0  0
   -7.5336   24.0813  -31.8299 H   0  0  0  0  0  0  0  0  0  0  0  0
   -7.8093   24.6903  -30.1425 H   0  0  0  0  0  0  0  0  0  0  0  0
   -5.6542   26.4025  -31.1170 H   0  0  0  0  0  0  0  0  0  0  0  0
   -2.4729   21.5808  -30.9217 H   0  0  0  0  0  0  0  0  0  0  0  0
   -0.1240   21.0375  -29.9282 H   0  0  0  0  0  0  0  0  0  0  0  0
    0.7738   22.9201  -28.3199 H   0  0  0  0  0  0  0  0  0  0  0  0
   -5.7641   22.0980  -31.9548 H   0  0  0  0  0  0  0  0  0  0  0  0
  1  2  1  0
  2  3  1  0
  2  4  1  0
  2  5  1  0
  5  6  2  0
  6  7  1  0
  7  8  2  0
  8  9  1  0
  9 10  1  0
 10 11  1  0
 11 12  1  0
 12 13  1  0
 13 14  2  0
 14 15  1  0
 15 16  1  0
 16 17  1  0
 17 18  2  0
 18 19  1  0
 19 20  2  0
 20 21  1  0
 16 22  2  0
  9 23  2  0
 23  5  1  0
 22 13  1  0
 21 17  1  0
  6 24  1  0
  7 25  1  0
  8 26  1  0
 10 27  1  0
 10 28  1  0
 11 29  1  0
 12 30  1  0
 12 31  1  0
 14 32  1  0
 18 33  1  0
 19 34  1  0
 20 35  1  0
 23 36  1  0
M  END
>  <UniqueID>  (44) 
40

>  <SMILES>  (44) 
FC(F)(F)c1cccc(CNCc2coc(-c3cccs3)n2)c1

>  <Energy>  (44) 
91.53166685355505

>  <Genealogy>  (44) 
FC(F)(F)c1cccc(CNCc2coc(-c3cccs3)n2)c1 (3D coordinates assigned)
FC(F)(F)c1cccc(CNCc2coc(-c3cccs3)n2)c1 (optimized conformer: 91.53166685355505 kcal/mol)

>  <smiles>  (44) 
FC(F)(F)c1cccc(CNCc2coc(-c3cccs3)n2)c1

>  <score_type>  (44) 
oracle

>  <origin>  (44) 
adg

>  <m_score__min__energy>  (44) 
-8.0700000000000003

>  <m_primary>  (44) 
energy

$$$$
44:0
     RDKit          3D

 45 47  0  0  0  0  0  0  0  0999 V2000
   -0.6260   21.6910  -30.6690 C   0  0  0  0  0  0  0  0  0  0  0  0
   -1.3030   21.7170  -29.3360 C   0  0  0  0  0  0  0  0  0  0  0  0
   -1.6000   20.6310  -28.6590 O   0  0  0  0  0  0  0  0  0  0  0  0
   -2.1870   20.9760  -27.5360 C   0  0  0  0  0  0  0  0  0  0  0  0
   -2.2840   22.3510  -27.4620 C   0  0  0  0  0  0  0  0  0  0  0  0
   -1.7130   22.8360  -28.6230 C   0  0  0  0  0  0  0  0  0  0  0  0
   -1.5890   24.2580  -28.9920 C   0  0  0  0  0  0  0  0  0  0  0  0
   -0.4570   24.8090  -28.9580 O   0  0  0  0  0  0  0  0  0  0  0  0
   -2.7380   24.9910  -29.4380 N   0  0  0  0  0  0  0  0  0  0  0  0
   -3.8380   24.4770  -30.2030 C   0  0  0  0  0  0  0  0  0  0  0  0
   -5.1450   24.9730  -30.0560 C   0  0  0  0  0  0  0  0  0  0  0  0
   -6.1920   24.4240  -30.7990 C   0  0  0  0  0  0  0  0  0  0  0  0
   -5.9490   23.3730  -31.6870 C   0  0  0  0  0  0  0  0  0  0  0  0
   -4.6510   22.8600  -31.8390 C   0  0  0  0  0  0  0  0  0  0  0  0
   -4.3930   21.7250  -32.7530 C   0  0  0  0  0  0  0  0  0  0  0  0
   -3.5960   21.8720  -33.7180 O   0  0  0  0  0  0  0  0  0  0  0  0
   -5.0170   20.4470  -32.5460 N   0  0  0  0  0  0  0  0  0  0  0  0
   -4.7630   19.7180  -31.3000 C   0  0  0  0  0  0  0  0  0  0  0  0
   -6.0050   19.9620  -33.5170 C   0  0  0  0  0  0  0  0  0  0  0  0
   -7.2600   19.5470  -32.8030 C   0  0  0  0  0  0  0  0  0  0  0  0
   -8.3110   20.3800  -32.4800 C   0  0  0  0  0  0  0  0  0  0  0  0
   -9.2710   19.5370  -31.9520 C   0  0  0  0  0  0  0  0  0  0  0  0
   -8.8210   18.2670  -31.9730 N   0  0  0  0  0  0  0  0  0  0  0  0
   -7.6020   18.2800  -32.4900 N   0  0  0  0  0  0  0  0  0  0  0  0
   -6.8120   17.0760  -32.7200 C   0  0  0  0  0  0  0  0  0  0  0  0
   -3.6040   23.4070  -31.0760 C   0  0  0  0  0  0  0  0  0  0  0  0
    0.4639   21.6491  -30.5260 H   0  0  0  0  0  0  0  0  0  0  0  0
   -0.9564   20.8049  -31.2308 H   0  0  0  0  0  0  0  0  0  0  0  0
   -0.8874   22.5998  -31.2308 H   0  0  0  0  0  0  0  0  0  0  0  0
   -2.5474   20.2744  -26.7692 H   0  0  0  0  0  0  0  0  0  0  0  0
   -2.7259   22.9405  -26.6452 H   0  0  0  0  0  0  0  0  0  0  0  0
   -5.3435   25.7960  -29.3536 H   0  0  0  0  0  0  0  0  0  0  0  0
   -7.2117   24.8203  -30.6848 H   0  0  0  0  0  0  0  0  0  0  0  0
   -6.7784   22.9456  -32.2696 H   0  0  0  0  0  0  0  0  0  0  0  0
   -4.9895   20.3682  -30.4421 H   0  0  0  0  0  0  0  0  0  0  0  0
   -5.4026   18.8239  -31.2614 H   0  0  0  0  0  0  0  0  0  0  0  0
   -3.7063   19.4149  -31.2614 H   0  0  0  0  0  0  0  0  0  0  0  0
   -6.2398   20.7651  -34.2310 H   0  0  0  0  0  0  0  0  0  0  0  0
   -5.5906   19.0967  -34.0550 H   0  0  0  0  0  0  0  0  0  0  0  0
   -8.3716   21.4703  -32.6128 H   0  0  0  0  0  0  0  0  0  0  0  0
  -10.2533   19.8547  -31.5723 H   0  0  0  0  0  0  0  0  0  0  0  0
   -6.5236   16.6365  -31.7537 H   0  0  0  0  0  0  0  0  0  0  0  0
   -7.4092   16.3489  -33.2899 H   0  0  0  0  0  0  0  0  0  0  0  0
   -5.9073   17.3344  -33.2899 H   0  0  0  0  0  0  0  0  0  0  0  0
   -2.5901   22.9899  -31.1658 H   0  0  0  0  0  0  0  0  0  0  0  0
  1  2  1  0
  2  3  1  0
  3  4  1  0
  4  5  2  0
  5  6  1  0
  6  7  1  0
  7  8  2  0
  7  9  1  0
  9 10  1  0
 10 11  2  0
 11 12  1  0
 12 13  2  0
 13 14  1  0
 14 15  1  0
 15 16  2  0
 15 17  1  0
 17 18  1  0
 17 19  1  0
 19 20  1  0
 20 21  2  0
 21 22  1  0
 22 23  2  0
 23 24  1  0
 24 25  1  0
 14 26  2  0
  6  2  2  0
 26 10  1  0
 24 20  1  0
  1 27  1  0
  1 28  1  0
  1 29  1  0
  4 30  1  0
  5 31  1  0
 11 32  1  0
 12 33  1  0
 13 34  1  0
 18 35  1  0
 18 36  1  0
 18 37  1  0
 19 38  1  0
 19 39  1  0
 21 40  1  0
 22 41  1  0
 25 42  1  0
 25 43  1  0
 25 44  1  0
 26 45  1  0
M  CHG  1   9  -1
M  END
>  <UniqueID>  (45) 
41

>  <SMILES>  (45) 
Cc1occc1C(=O)[N-]c1cccc(C(=O)N(C)Cc2ccnn2C)c1

>  <Energy>  (45) 
105.97430411751436

>  <Genealogy>  (45) 
Cc1occc1C(=O)[N-]c1cccc(C(=O)N(C)Cc2ccnn2C)c1 (protonated)
Cc1occc1C(=O)[N-]c1cccc(C(=O)N(C)Cc2ccnn2C)c1 (3D coordinates assigned)
Cc1occc1C(=O)[N-]c1cccc(C(=O)N(C)Cc2ccnn2C)c1 (optimized conformer: 105.97430411751436 kcal/mol)

>  <smiles>  (45) 
Cc1occc1C(=O)Nc1cccc(C(=O)N(C)Cc2ccnn2C)c1

>  <score_type>  (45) 
oracle

>  <origin>  (45) 
adg

>  <m_score__min__energy>  (45) 
-9.5

>  <m_primary>  (45) 
energy

$$$$
45:0
     RDKit          3D

 38 39  0  0  0  0  0  0  0  0999 V2000
   -0.4740   21.4350  -32.0720 C   0  0  0  0  0  0  0  0  0  0  0  0
   -1.7030   20.9670  -31.4240 N   0  0  0  0  0  0  0  0  0  0  0  0
   -2.8470   20.5510  -32.2040 C   0  0  0  0  0  0  0  0  0  0  0  0
   -2.7090   19.6410  -33.0670 O   0  0  0  0  0  0  0  0  0  0  0  0
   -4.1370   21.1700  -32.0190 N   0  0  0  0  0  0  0  0  0  0  0  0
   -5.3170   20.7890  -32.7480 C   0  0  0  0  0  0  0  0  0  0  0  0
   -5.2270   20.0340  -33.7560 O   0  0  0  0  0  0  0  0  0  0  0  0
   -6.6480   21.3020  -32.3460 C   0  0  0  0  0  0  0  0  0  0  0  0
   -7.6940   20.4150  -32.0190 C   0  0  0  0  0  0  0  0  0  0  0  0
   -7.5250   19.0710  -32.1090 F   0  0  0  0  0  0  0  0  0  0  0  0
   -8.9460   20.9120  -31.6400 C   0  0  0  0  0  0  0  0  0  0  0  0
   -9.1700   22.2890  -31.5900 C   0  0  0  0  0  0  0  0  0  0  0  0
   -8.1450   23.1760  -31.9250 C   0  0  0  0  0  0  0  0  0  0  0  0
   -6.8900   22.6900  -32.3050 C   0  0  0  0  0  0  0  0  0  0  0  0
   -5.9080   23.5780  -32.6050 F   0  0  0  0  0  0  0  0  0  0  0  0
   -1.7880   20.9790  -29.9870 C   0  0  0  0  0  0  0  0  0  0  0  0
   -1.2510   19.9460  -29.2790 N   0  0  0  0  0  0  0  0  0  0  0  0
   -1.3040   19.8940  -27.9240 C   0  0  0  0  0  0  0  0  0  0  0  0
   -1.9230   20.9190  -27.2100 C   0  0  0  0  0  0  0  0  0  0  0  0
   -2.4780   21.9960  -27.9020 C   0  0  0  0  0  0  0  0  0  0  0  0
   -2.4140   22.0420  -29.3050 C   0  0  0  0  0  0  0  0  0  0  0  0
   -2.9340   23.1510  -30.0540 N   0  0  0  0  0  0  0  0  0  0  0  0
   -4.4530   23.9430  -29.7830 S   0  0  0  0  0  0  0  0  0  0  0  0
   -4.5270   24.5480  -28.1650 N   0  0  0  0  0  0  0  0  0  0  0  0
   -5.5580   22.9450  -29.9800 O   0  0  0  0  0  0  0  0  0  0  0  0
   -4.6350   25.0650  -30.7660 O   0  0  0  0  0  0  0  0  0  0  0  0
    0.2618   21.7152  -31.3038 H   0  0  0  0  0  0  0  0  0  0  0  0
   -0.0612   20.6311  -32.6992 H   0  0  0  0  0  0  0  0  0  0  0  0
   -0.7004   22.3098  -32.6992 H   0  0  0  0  0  0  0  0  0  0  0  0
   -4.2250   21.9660  -31.3530 H   0  0  0  0  0  0  0  0  0  0  0  0
   -9.7566   20.2151  -31.3805 H   0  0  0  0  0  0  0  0  0  0  0  0
  -10.1542   22.6753  -31.2866 H   0  0  0  0  0  0  0  0  0  0  0  0
   -8.3253   24.2606  -31.8899 H   0  0  0  0  0  0  0  0  0  0  0  0
   -0.8583   19.0426  -27.3887 H   0  0  0  0  0  0  0  0  0  0  0  0
   -1.9734   20.8791  -26.1119 H   0  0  0  0  0  0  0  0  0  0  0  0
   -2.9668   22.8110  -27.3480 H   0  0  0  0  0  0  0  0  0  0  0  0
   -5.3980   24.1740  -27.7290 H   0  0  0  0  0  0  0  0  0  0  0  0
   -4.6460   25.5830  -28.2330 H   0  0  0  0  0  0  0  0  0  0  0  0
  1  2  1  0
  2  3  1  0
  3  4  2  0
  3  5  1  0
  5  6  1  0
  6  7  2  0
  6  8  1  0
  8  9  2  0
  9 10  1  0
  9 11  1  0
 11 12  2  0
 12 13  1  0
 13 14  2  0
 14 15  1  0
  2 16  1  0
 16 17  2  0
 17 18  1  0
 18 19  2  0
 19 20  1  0
 20 21  2  0
 21 22  1  0
 22 23  1  0
 23 24  1  0
 23 25  2  0
 23 26  2  0
 14  8  1  0
 21 16  1  0
  1 27  1  0
  1 28  1  0
  1 29  1  0
  5 30  1  0
 11 31  1  0
 12 32  1  0
 13 33  1  0
 18 34  1  0
 19 35  1  0
 20 36  1  0
 24 37  1  0
 24 38  1  0
M  CHG  1  22  -1
M  END
>  <UniqueID>  (46) 
42

>  <SMILES>  (46) 
CN(C(=O)NC(=O)c1c(F)cccc1F)c1ncccc1[N-]S(N)(=O)=O

>  <Energy>  (46) 
51.20969121228185

>  <Genealogy>  (46) 
CN(C(=O)NC(=O)c1c(F)cccc1F)c1ncccc1[N-]S(N)(=O)=O (protonated)
CN(C(=O)NC(=O)c1c(F)cccc1F)c1ncccc1[N-]S(N)(=O)=O (3D coordinates assigned)
CN(C(=O)NC(=O)c1c(F)cccc1F)c1ncccc1[N-]S(N)(=O)=O (optimized conformer: 51.20969121228185 kcal/mol)

>  <smiles>  (46) 
CN(C(=O)NC(=O)c1c(F)cccc1F)c1ncccc1NS(N)(=O)=O

>  <score_type>  (46) 
oracle

>  <origin>  (46) 
adg

>  <m_score__min__energy>  (46) 
-8.7699999999999996

>  <m_primary>  (46) 
energy

$$$$
46:0
     RDKit          3D

 35 36  0  0  0  0  0  0  0  0999 V2000
   -8.8210   20.1350  -31.7120 C   0  0  0  0  0  0  0  0  0  0  0  0
   -7.3940   20.3780  -32.1010 C   0  0  0  0  0  0  0  0  0  0  0  0
   -6.5360   19.4490  -32.6680 C   0  0  0  0  0  0  0  0  0  0  0  0
   -6.9060   17.6220  -33.0960 Br  0  0  0  0  0  0  0  0  0  0  0  0
   -5.3510   20.1380  -32.8690 C   0  0  0  0  0  0  0  0  0  0  0  0
   -4.0940   19.5840  -33.4700 C   0  0  0  0  0  0  0  0  0  0  0  0
   -4.3820   18.8440  -34.6030 F   0  0  0  0  0  0  0  0  0  0  0  0
   -3.2480   20.6210  -33.8160 F   0  0  0  0  0  0  0  0  0  0  0  0
   -3.4630   18.7680  -32.5500 F   0  0  0  0  0  0  0  0  0  0  0  0
   -5.5090   21.4090  -32.4530 N   0  0  0  0  0  0  0  0  0  0  0  0
   -6.7470   21.5640  -32.0090 N   0  0  0  0  0  0  0  0  0  0  0  0
   -7.2590   22.8220  -31.4590 C   0  0  0  0  0  0  0  0  0  0  0  0
   -6.1500   23.8160  -31.2210 C   0  0  0  0  0  0  0  0  0  0  0  0
   -5.4570   24.1750  -32.2130 O   0  0  0  0  0  0  0  0  0  0  0  0
   -5.8520   24.3570  -29.9130 N   0  0  0  0  0  0  0  0  0  0  0  0
   -6.4820   25.6220  -29.5190 C   0  0  0  0  0  0  0  0  0  0  0  0
   -4.9670   23.6640  -28.9630 C   0  0  0  0  0  0  0  0  0  0  0  0
   -3.7290   23.1800  -29.6470 C   0  0  0  0  0  0  0  0  0  0  0  0
   -3.7220   22.2030  -30.5810 N   0  0  0  0  0  0  0  0  0  0  0  0
   -2.4610   21.9160  -31.0010 C   0  0  0  0  0  0  0  0  0  0  0  0
   -1.4520   22.6540  -30.3920 C   0  0  0  0  0  0  0  0  0  0  0  0
   -2.1700   23.6990  -29.2880 S   0  0  0  0  0  0  0  0  0  0  0  0
   -8.9047   20.1207  -30.6153 H   0  0  0  0  0  0  0  0  0  0  0  0
   -9.4535   20.9384  -32.1176 H   0  0  0  0  0  0  0  0  0  0  0  0
   -9.1520   19.1676  -32.1176 H   0  0  0  0  0  0  0  0  0  0  0  0
   -4.7870   22.1640  -32.4780 H   0  0  0  0  0  0  0  0  0  0  0  0
   -7.9799   23.2545  -32.1684 H   0  0  0  0  0  0  0  0  0  0  0  0
   -7.7396   22.6051  -30.4936 H   0  0  0  0  0  0  0  0  0  0  0  0
   -6.5153   25.6888  -28.4215 H   0  0  0  0  0  0  0  0  0  0  0  0
   -5.8976   26.4632  -29.9200 H   0  0  0  0  0  0  0  0  0  0  0  0
   -7.5055   25.6624  -29.9200 H   0  0  0  0  0  0  0  0  0  0  0  0
   -4.6860   24.3597  -28.1586 H   0  0  0  0  0  0  0  0  0  0  0  0
   -5.5033   22.7971  -28.5496 H   0  0  0  0  0  0  0  0  0  0  0  0
   -2.2539   21.1547  -31.7675 H   0  0  0  0  0  0  0  0  0  0  0  0
   -0.3745   22.5691  -30.5965 H   0  0  0  0  0  0  0  0  0  0  0  0
  1  2  1  0
  2  3  2  0
  3  4  1  0
  3  5  1  0
  5  6  1  0
  6  7  1  0
  6  8  1  0
  6  9  1  0
  5 10  2  0
 10 11  1  0
 11 12  1  0
 12 13  1  0
 13 14  2  0
 13 15  1  0
 15 16  1  0
 15 17  1  0
 17 18  1  0
 18 19  2  0
 19 20  1  0
 20 21  2  0
 21 22  1  0
 11  2  1  0
 22 18  1  0
  1 23  1  0
  1 24  1  0
  1 25  1  0
 10 26  1  0
 12 27  1  0
 12 28  1  0
 16 29  1  0
 16 30  1  0
 16 31  1  0
 17 32  1  0
 17 33  1  0
 20 34  1  0
 21 35  1  0
M  CHG  1  10   1
M  END
>  <UniqueID>  (47) 
43

>  <SMILES>  (47) 
Cc1c(Br)c(C(F)(F)F)[nH+]n1CC(=O)N(C)Cc1nccs1

>  <Energy>  (47) 
89.68667719134432

>  <Genealogy>  (47) 
Cc1c(Br)c(C(F)(F)F)[nH+]n1CC(=O)N(C)Cc1nccs1 (protonated)
Cc1c(Br)c(C(F)(F)F)[nH+]n1CC(=O)N(C)Cc1nccs1 (3D coordinates assigned)
Cc1c(Br)c(C(F)(F)F)[nH+]n1CC(=O)N(C)Cc1nccs1 (optimized conformer: 89.68667719134432 kcal/mol)

>  <smiles>  (47) 
Cc1c(Br)c(C(F)(F)F)nn1CC(=O)N(C)Cc1nccs1

>  <score_type>  (47) 
oracle

>  <origin>  (47) 
adg

>  <m_score__min__energy>  (47) 
-6.7599999999999998

>  <m_primary>  (47) 
energy

$$$$
