0:0
     RDKit          3D

 51 54  0  0  0  0  0  0  0  0999 V2000
   -4.2280   25.6640  -30.8140 O   0  0  0  0  0  0  0  0  0  0  0  0
   -4.6580   24.7580  -30.0510 C   0  0  0  0  0  0  0  0  0  0  0  0
   -6.1370   24.4920  -30.0390 C   0  0  0  0  0  0  0  0  0  0  0  0
   -6.4400   23.1950  -30.6440 N   0  0  0  0  0  0  0  0  0  0  0  0
   -7.8110   22.2850  -30.3660 S   0  0  0  0  0  0  0  0  0  0  0  0
   -7.5070   21.0570  -31.4520 C   0  0  0  0  0  0  0  0  0  0  0  0
   -8.2480   19.9230  -31.7610 C   0  0  0  0  0  0  0  0  0  0  0  0
   -7.7380   19.0530  -32.7390 C   0  0  0  0  0  0  0  0  0  0  0  0
   -6.5150   19.3360  -33.3800 C   0  0  0  0  0  0  0  0  0  0  0  0
   -5.7910   20.4960  -33.0540 C   0  0  0  0  0  0  0  0  0  0  0  0
   -6.3020   21.3550  -32.0760 C   0  0  0  0  0  0  0  0  0  0  0  0
   -5.7310   22.5600  -31.6200 C   0  0  0  0  0  0  0  0  0  0  0  0
   -4.6530   23.0230  -32.0830 O   0  0  0  0  0  0  0  0  0  0  0  0
   -3.7270   24.0130  -29.2350 N   0  0  0  0  0  0  0  0  0  0  0  0
   -2.2840   24.1700  -29.4930 C   0  0  0  0  0  0  0  0  0  0  0  0
   -1.4440   23.1540  -28.7070 C   0  0  0  0  0  0  0  0  0  0  0  0
   -2.1190   21.7740  -28.7520 C   0  0  0  0  0  0  0  0  0  0  0  0
   -1.2370   20.7080  -28.1290 C   0  0  0  0  0  0  0  0  0  0  0  0
   -1.7040   20.0190  -27.2310 O   0  0  0  0  0  0  0  0  0  0  0  0
    0.1250   20.4810  -28.5940 N   0  0  0  0  0  0  0  0  0  0  0  0
    0.1720   20.2600  -30.0610 C   0  0  0  0  0  0  0  0  0  0  0  0
    0.2060   18.7680  -30.4410 C   0  0  0  0  0  0  0  0  0  0  0  0
   -0.4630   17.9950  -29.4720 O   0  0  0  0  0  0  0  0  0  0  0  0
    0.2780   17.9860  -28.2660 C   0  0  0  0  0  0  0  0  0  0  0  0
    0.7790   19.3890  -27.8420 C   0  0  0  0  0  0  0  0  0  0  0  0
   -3.5340   21.7990  -28.1190 C   0  0  0  0  0  0  0  0  0  0  0  0
   -4.1580   23.2060  -28.0800 C   0  0  0  0  0  0  0  0  0  0  0  0
   -6.4951   24.4965  -28.9989 H   0  0  0  0  0  0  0  0  0  0  0  0
   -6.6397   25.2775  -30.6224 H   0  0  0  0  0  0  0  0  0  0  0  0
   -9.2027   19.7133  -31.2564 H   0  0  0  0  0  0  0  0  0  0  0  0
   -8.2972   18.1443  -33.0065 H   0  0  0  0  0  0  0  0  0  0  0  0
   -6.1243   18.6442  -34.1408 H   0  0  0  0  0  0  0  0  0  0  0  0
   -4.8405   20.7237  -33.5587 H   0  0  0  0  0  0  0  0  0  0  0  0
   -2.0982   24.0281  -30.5679 H   0  0  0  0  0  0  0  0  0  0  0  0
   -1.9890   25.1783  -29.1671 H   0  0  0  0  0  0  0  0  0  0  0  0
   -0.4416   23.0849  -29.1547 H   0  0  0  0  0  0  0  0  0  0  0  0
   -1.3610   23.4836  -27.6608 H   0  0  0  0  0  0  0  0  0  0  0  0
   -2.2536   21.5098  -29.8113 H   0  0  0  0  0  0  0  0  0  0  0  0
    0.6810   21.3460  -28.3990 H   0  0  0  0  0  0  0  0  0  0  0  0
   -0.7201   20.7173  -30.5137 H   0  0  0  0  0  0  0  0  0  0  0  0
    1.1002   20.7172  -30.4343 H   0  0  0  0  0  0  0  0  0  0  0  0
   -0.2861   18.6316  -31.4153 H   0  0  0  0  0  0  0  0  0  0  0  0
    1.2543   18.4394  -30.4954 H   0  0  0  0  0  0  0  0  0  0  0  0
   -0.3632   17.5880  -27.4657 H   0  0  0  0  0  0  0  0  0  0  0  0
    1.1671   17.3610  -28.4356 H   0  0  0  0  0  0  0  0  0  0  0  0
    0.5725   19.5272  -26.7704 H   0  0  0  0  0  0  0  0  0  0  0  0
    1.8564   19.4360  -28.0587 H   0  0  0  0  0  0  0  0  0  0  0  0
   -4.1913   21.1415  -28.7069 H   0  0  0  0  0  0  0  0  0  0  0  0
   -3.4317   21.4586  -27.0780 H   0  0  0  0  0  0  0  0  0  0  0  0
   -5.2539   23.1129  -28.0964 H   0  0  0  0  0  0  0  0  0  0  0  0
   -3.8249   23.7091  -27.1602 H   0  0  0  0  0  0  0  0  0  0  0  0
  1  2  2  0
  2  3  1  0
  3  4  1  0
  4  5  1  0
  5  6  1  0
  6  7  2  0
  7  8  1  0
  8  9  2  0
  9 10  1  0
 10 11  2  0
 11 12  1  0
 12 13  2  0
  2 14  1  0
 14 15  1  0
 15 16  1  0
 16 17  1  0
 17 18  1  0
 18 19  2  0
 18 20  1  0
 20 21  1  0
 21 22  1  0
 22 23  1  0
 23 24  1  0
 24 25  1  0
 17 26  1  0
 26 27  1  0
 12  4  1  0
 27 14  1  0
 11  6  1  0
 25 20  1  0
  3 28  1  0
  3 29  1  0
  7 30  1  0
  8 31  1  0
  9 32  1  0
 10 33  1  0
 15 34  1  0
 15 35  1  0
 16 36  1  0
 16 37  1  0
 17 38  1  0
 20 39  1  0
 21 40  1  0
 21 41  1  0
 22 42  1  0
 22 43  1  0
 24 44  1  0
 24 45  1  0
 25 46  1  0
 25 47  1  0
 26 48  1  0
 26 49  1  0
 27 50  1  0
 27 51  1  0
M  CHG  1  20   1
M  END
>  <UniqueID>  (1) 
1

>  <SMILES>  (1) 
O=C(Cn1sc2ccccc2c1=O)N1CCC(C(=O)[NH+]2CCOCC2)CC1

>  <Energy>  (1) 
107.71752844988067

>  <Genealogy>  (1) 
O=C(Cn1sc2ccccc2c1=O)N1CCC(C(=O)[NH+]2CCOCC2)CC1 (protonated)
O=C(Cn1sc2ccccc2c1=O)N1CCC(C(=O)[NH+]2CCOCC2)CC1 (3D coordinates assigned)
O=C(Cn1sc2ccccc2c1=O)N1CCC(C(=O)[NH+]2CCOCC2)CC1 (nonaromatic ring conformer: 107.71752844988067 kcal/mol)

>  <smiles>  (1) 
O=C(Cn1sc2ccccc2c1=O)N1CCC(C(=O)N2CCOCC2)CC1

>  <score_type>  (1) 
oracle

>  <origin>  (1) 
adg

>  <m_score__min__energy>  (1) 
-9.1199999999999992

>  <m_primary>  (1) 
energy

$$$$
1:0
     RDKit          3D

 48 50  0  0  0  0  0  0  0  0999 V2000
   -2.1250   20.7790  -33.4530 C   0  0  0  0  0  0  0  0  0  0  0  0
   -1.2670   19.5390  -33.6720 C   0  0  0  0  0  0  0  0  0  0  0  0
   -2.1150   18.3840  -33.9460 N   0  0  0  0  0  0  0  0  0  0  0  0
   -3.2710   18.0890  -33.3220 C   0  0  0  0  0  0  0  0  0  0  0  0
   -3.8250   16.9970  -33.9540 C   0  0  0  0  0  0  0  0  0  0  0  0
   -5.1370   16.3350  -33.6400 C   0  0  0  0  0  0  0  0  0  0  0  0
   -6.2900   17.2550  -33.7390 N   0  0  0  0  0  0  0  0  0  0  0  0
   -6.1080   18.4170  -34.6440 C   0  0  0  0  0  0  0  0  0  0  0  0
   -6.4730   19.7610  -33.9970 C   0  0  0  0  0  0  0  0  0  0  0  0
   -5.9260   19.8160  -32.5670 C   0  0  0  0  0  0  0  0  0  0  0  0
   -6.0900   21.1940  -31.9510 C   0  0  0  0  0  0  0  0  0  0  0  0
   -7.3490   21.8220  -31.9590 C   0  0  0  0  0  0  0  0  0  0  0  0
   -7.5060   23.0990  -31.4190 C   0  0  0  0  0  0  0  0  0  0  0  0
   -6.4140   23.7670  -30.8630 C   0  0  0  0  0  0  0  0  0  0  0  0
   -5.1510   23.1570  -30.8380 C   0  0  0  0  0  0  0  0  0  0  0  0
   -3.9620   23.8950  -30.2780 C   0  0  0  0  0  0  0  0  0  0  0  0
   -4.0410   25.3220  -30.5800 N   0  0  0  0  0  0  0  0  0  0  0  0
   -4.9920   21.8780  -31.3950 C   0  0  0  0  0  0  0  0  0  0  0  0
   -6.5720   18.7250  -31.6890 C   0  0  0  0  0  0  0  0  0  0  0  0
   -7.0400   17.4870  -32.4850 C   0  0  0  0  0  0  0  0  0  0  0  0
   -2.9340   16.6660  -34.9580 C   0  0  0  0  0  0  0  0  0  0  0  0
   -1.9050   17.5360  -34.9410 N   0  0  0  0  0  0  0  0  0  0  0  0
   -2.2467   20.9548  -32.3740 H   0  0  0  0  0  0  0  0  0  0  0  0
   -1.6353   21.6497  -33.9135 H   0  0  0  0  0  0  0  0  0  0  0  0
   -3.1125   20.6276  -33.9135 H   0  0  0  0  0  0  0  0  0  0  0  0
   -0.5951   19.7078  -34.5265 H   0  0  0  0  0  0  0  0  0  0  0  0
   -0.6769   19.3449  -32.7642 H   0  0  0  0  0  0  0  0  0  0  0  0
   -3.6974   18.6244  -32.4609 H   0  0  0  0  0  0  0  0  0  0  0  0
   -5.2889   15.5062  -34.3472 H   0  0  0  0  0  0  0  0  0  0  0  0
   -5.0861   15.9843  -32.5986 H   0  0  0  0  0  0  0  0  0  0  0  0
   -5.0533   18.4549  -34.9540 H   0  0  0  0  0  0  0  0  0  0  0  0
   -6.7886   18.2729  -35.4961 H   0  0  0  0  0  0  0  0  0  0  0  0
   -6.0360   20.5804  -34.5866 H   0  0  0  0  0  0  0  0  0  0  0  0
   -7.5677   19.8652  -33.9706 H   0  0  0  0  0  0  0  0  0  0  0  0
   -4.8457   19.6152  -32.6179 H   0  0  0  0  0  0  0  0  0  0  0  0
   -8.2156   21.3026  -32.3940 H   0  0  0  0  0  0  0  0  0  0  0  0
   -8.4946   23.5812  -31.4316 H   0  0  0  0  0  0  0  0  0  0  0  0
   -6.5441   24.7753  -30.4429 H   0  0  0  0  0  0  0  0  0  0  0  0
   -3.9359   23.7593  -29.1867 H   0  0  0  0  0  0  0  0  0  0  0  0
   -3.0493   23.4895  -30.7391 H   0  0  0  0  0  0  0  0  0  0  0  0
   -4.3620   25.8310  -29.7250 H   0  0  0  0  0  0  0  0  0  0  0  0
   -3.0810   25.6690  -30.8150 H   0  0  0  0  0  0  0  0  0  0  0  0
   -3.9988   21.4052  -31.3970 H   0  0  0  0  0  0  0  0  0  0  0  0
   -5.8345   18.3989  -30.9408 H   0  0  0  0  0  0  0  0  0  0  0  0
   -7.4667   19.1695  -31.2287 H   0  0  0  0  0  0  0  0  0  0  0  0
   -6.9240   16.6004  -31.8443 H   0  0  0  0  0  0  0  0  0  0  0  0
   -8.0861   17.6712  -32.7710 H   0  0  0  0  0  0  0  0  0  0  0  0
   -3.0471   15.8260  -35.6592 H   0  0  0  0  0  0  0  0  0  0  0  0
  1  2  1  0
  2  3  1  0
  3  4  1  0
  4  5  2  0
  5  6  1  0
  6  7  1  0
  7  8  1  0
  8  9  1  0
  9 10  1  0
 10 11  1  0
 11 12  2  0
 12 13  1  0
 13 14  2  0
 14 15  1  0
 15 16  1  0
 16 17  1  0
 15 18  2  0
 10 19  1  0
 19 20  1  0
  5 21  1  0
 21 22  2  0
 22  3  1  0
 20  7  1  0
 18 11  1  0
  1 23  1  0
  1 24  1  0
  1 25  1  0
  2 26  1  0
  2 27  1  0
  4 28  1  0
  6 29  1  0
  6 30  1  0
  8 31  1  0
  8 32  1  0
  9 33  1  0
  9 34  1  0
 10 35  1  0
 12 36  1  0
 13 37  1  0
 14 38  1  0
 16 39  1  0
 16 40  1  0
 17 41  1  0
 17 42  1  0
 18 43  1  0
 19 44  1  0
 19 45  1  0
 20 46  1  0
 20 47  1  0
 21 48  1  0
M  END
>  <UniqueID>  (2) 
2

>  <SMILES>  (2) 
CCn1cc(CN2CCC(c3cccc(CN)c3)CC2)cn1

>  <Energy>  (2) 
84.19238447078801

>  <Genealogy>  (2) 
CCn1cc(CN2CCC(c3cccc(CN)c3)CC2)cn1 (3D coordinates assigned)
CCn1cc(CN2CCC(c3cccc(CN)c3)CC2)cn1 (nonaromatic ring conformer: 84.19238447078801 kcal/mol)

>  <smiles>  (2) 
CCn1cc(CN2CCC(c3cccc(CN)c3)CC2)cn1

>  <score_type>  (2) 
oracle

>  <origin>  (2) 
adg

>  <m_score__min__energy>  (2) 
-8.3399999999999999

>  <m_primary>  (2) 
energy

$$$$
2:0
     RDKit          3D

 46 48  0  0  0  0  0  0  0  0999 V2000
   -6.2300   17.1839  -31.2355 H   0  0  0  0  0  0  0  0  0  0  0  0
   -6.3380   17.7390  -32.1790 C   0  0  0  0  0  0  0  0  0  0  0  0
   -7.5700   17.8980  -32.6790 C   0  0  0  0  0  0  0  0  0  0  0  0
   -7.8593   17.3348  -33.5785 H   0  0  0  0  0  0  0  0  0  0  0  0
   -8.5700   18.8270  -32.0430 C   0  0  0  0  0  0  0  0  0  0  0  0
   -8.2961   18.9644  -30.9865 H   0  0  0  0  0  0  0  0  0  0  0  0
   -9.5619   18.3656  -32.1576 H   0  0  0  0  0  0  0  0  0  0  0  0
   -8.6280   20.1570  -32.6900 N   0  0  0  0  0  0  0  0  0  0  0  0
   -9.6380   21.0790  -32.1280 C   0  0  0  0  0  0  0  0  0  0  0  0
  -10.5103   20.4887  -31.8107 H   0  0  0  0  0  0  0  0  0  0  0  0
   -9.8896   21.8035  -32.9165 H   0  0  0  0  0  0  0  0  0  0  0  0
   -9.1260   21.8870  -30.9140 C   0  0  0  0  0  0  0  0  0  0  0  0
   -9.5991   21.4948  -30.0016 H   0  0  0  0  0  0  0  0  0  0  0  0
   -9.3864   22.9435  -31.0754 H   0  0  0  0  0  0  0  0  0  0  0  0
   -7.6620   21.7970  -30.7670 N   0  0  0  0  0  0  0  0  0  0  0  0
   -7.1220   22.6610  -29.6940 C   0  0  0  0  0  0  0  0  0  0  0  0
   -6.5875   22.0239  -28.9740 H   0  0  0  0  0  0  0  0  0  0  0  0
   -7.9804   23.1826  -29.2456 H   0  0  0  0  0  0  0  0  0  0  0  0
   -6.1680   23.7310  -30.1810 C   0  0  0  0  0  0  0  0  0  0  0  0
   -6.4940   25.0630  -30.3540 C   0  0  0  0  0  0  0  0  0  0  0  0
   -7.4682   25.5440  -30.1823 H   0  0  0  0  0  0  0  0  0  0  0  0
   -5.3260   25.6560  -30.7900 C   0  0  0  0  0  0  0  0  0  0  0  0
   -5.2110   26.7209  -31.0404 H   0  0  0  0  0  0  0  0  0  0  0  0
   -4.3490   24.7320  -30.8620 N   0  0  0  0  0  0  0  0  0  0  0  0
   -4.8560   23.5720  -30.4780 N   0  0  0  0  0  0  0  0  0  0  0  0
   -4.0700   22.3420  -30.4480 C   0  0  0  0  0  0  0  0  0  0  0  0
   -3.8841   22.0511  -29.4036 H   0  0  0  0  0  0  0  0  0  0  0  0
   -4.6237   21.5405  -30.9589 H   0  0  0  0  0  0  0  0  0  0  0  0
   -3.1100   22.5077  -30.9589 H   0  0  0  0  0  0  0  0  0  0  0  0
   -6.9790   21.9620  -32.0560 C   0  0  0  0  0  0  0  0  0  0  0  0
   -5.8920   21.9972  -31.8908 H   0  0  0  0  0  0  0  0  0  0  0  0
   -7.3145   22.8982  -32.5261 H   0  0  0  0  0  0  0  0  0  0  0  0
   -7.3160   20.7810  -32.9830 C   0  0  0  0  0  0  0  0  0  0  0  0
   -6.5336   20.0160  -32.8712 H   0  0  0  0  0  0  0  0  0  0  0  0
   -7.3672   21.1776  -34.0077 H   0  0  0  0  0  0  0  0  0  0  0  0
   -5.1110   18.2670  -32.8220 C   0  0  0  0  0  0  0  0  0  0  0  0
   -4.5200   19.4280  -32.2910 C   0  0  0  0  0  0  0  0  0  0  0  0
   -4.9845   19.9314  -31.4302 H   0  0  0  0  0  0  0  0  0  0  0  0
   -3.3490   19.9470  -32.8470 C   0  0  0  0  0  0  0  0  0  0  0  0
   -2.9011   20.8607  -32.4293 H   0  0  0  0  0  0  0  0  0  0  0  0
   -2.7450   19.3080  -33.9330 C   0  0  0  0  0  0  0  0  0  0  0  0
   -1.8245   19.7202  -34.3721 H   0  0  0  0  0  0  0  0  0  0  0  0
   -3.3110   18.1460  -34.4600 C   0  0  0  0  0  0  0  0  0  0  0  0
   -2.8314   17.6398  -35.3107 H   0  0  0  0  0  0  0  0  0  0  0  0
   -4.4860   17.6230  -33.9100 C   0  0  0  0  0  0  0  0  0  0  0  0
   -4.9247   16.7050  -34.3281 H   0  0  0  0  0  0  0  0  0  0  0  0
  1  2  1  0
  2  3  2  0
  3  4  1  0
  3  5  1  0
  5  6  1  0
  5  7  1  0
  5  8  1  0
  8  9  1  0
  9 10  1  0
  9 11  1  0
  9 12  1  0
 12 13  1  0
 12 14  1  0
 12 15  1  0
 15 16  1  0
 16 17  1  0
 16 18  1  0
 16 19  1  0
 19 20  2  0
 20 21  1  0
 20 22  1  0
 22 23  1  0
 22 24  2  0
 24 25  1  0
 25 26  1  0
 26 27  1  0
 26 28  1  0
 26 29  1  0
 15 30  1  0
 30 31  1  0
 30 32  1  0
 30 33  1  0
 33 34  1  0
 33 35  1  0
  2 36  1  0
 36 37  2  0
 37 38  1  0
 37 39  1  0
 39 40  1  0
 39 41  2  0
 41 42  1  0
 41 43  1  0
 43 44  1  0
 43 45  2  0
 45 46  1  0
 33  8  1  0
 45 36  1  0
 25 19  1  0
M  END
>  <UniqueID>  (3) 
3

>  <SMILES>  (3) 
Cn1nccc1CN1CCN(C/C=C/c2ccccc2)CC1

>  <Energy>  (3) 
92.5686236899895

>  <Genealogy>  (3) 
Cn1nccc1CN1CCN(C/C=C/c2ccccc2)CC1 (cis-trans isomerization)
Cn1nccc1CN1CCN(C/C=C/c2ccccc2)CC1 (3D coordinates assigned)
Cn1nccc1CN1CCN(C/C=C/c2ccccc2)CC1 (nonaromatic ring conformer: 92.5686236899895 kcal/mol)

>  <smiles>  (3) 
Cn1nccc1CN1CCN(CC=Cc2ccccc2)CC1

>  <score_type>  (3) 
oracle

>  <origin>  (3) 
adg

>  <m_score__min__energy>  (3) 
-8

>  <m_primary>  (3) 
energy

$$$$
3:0
     RDKit          3D

 34 37  0  0  0  0  0  0  0  0999 V2000
   -2.3280   24.4100  -29.0420 C   0  0  0  0  0  0  0  0  0  0  0  0
   -3.1450   24.9270  -30.0890 O   0  0  0  0  0  0  0  0  0  0  0  0
   -4.5150   24.6570  -30.2450 C   0  0  0  0  0  0  0  0  0  0  0  0
   -5.4930   25.5260  -29.7240 C   0  0  0  0  0  0  0  0  0  0  0  0
   -6.8470   25.2410  -29.8760 C   0  0  0  0  0  0  0  0  0  0  0  0
   -7.2510   24.0910  -30.5480 C   0  0  0  0  0  0  0  0  0  0  0  0
   -6.2980   23.2040  -31.0740 C   0  0  0  0  0  0  0  0  0  0  0  0
   -4.9230   23.4860  -30.9330 C   0  0  0  0  0  0  0  0  0  0  0  0
   -3.9380   22.5430  -31.5280 C   0  0  0  0  0  0  0  0  0  0  0  0
   -2.7190   22.8600  -31.6020 O   0  0  0  0  0  0  0  0  0  0  0  0
   -4.3830   21.2190  -32.0350 C   0  0  0  0  0  0  0  0  0  0  0  0
   -3.4280   20.2860  -32.4620 C   0  0  0  0  0  0  0  0  0  0  0  0
   -3.8130   19.0270  -32.9100 C   0  0  0  0  0  0  0  0  0  0  0  0
   -5.1580   18.6510  -32.8880 C   0  0  0  0  0  0  0  0  0  0  0  0
   -5.5190   17.3540  -33.2880 C   0  0  0  0  0  0  0  0  0  0  0  0
   -6.8480   16.9400  -33.2160 C   0  0  0  0  0  0  0  0  0  0  0  0
   -7.8220   17.8050  -32.7250 C   0  0  0  0  0  0  0  0  0  0  0  0
   -7.4820   19.1010  -32.3300 C   0  0  0  0  0  0  0  0  0  0  0  0
   -6.1500   19.5680  -32.4420 C   0  0  0  0  0  0  0  0  0  0  0  0
   -5.7600   20.8950  -32.0810 C   0  0  0  0  0  0  0  0  0  0  0  0
   -6.7340   21.9910  -31.8020 C   0  0  0  0  0  0  0  0  0  0  0  0
   -7.9040   21.9480  -32.2670 O   0  0  0  0  0  0  0  0  0  0  0  0
   -2.7616   24.6844  -28.0690 H   0  0  0  0  0  0  0  0  0  0  0  0
   -2.2761   23.3143  -29.1244 H   0  0  0  0  0  0  0  0  0  0  0  0
   -1.3156   24.8322  -29.1244 H   0  0  0  0  0  0  0  0  0  0  0  0
   -5.1842   26.4381  -29.1922 H   0  0  0  0  0  0  0  0  0  0  0  0
   -7.6009   25.9275  -29.4633 H   0  0  0  0  0  0  0  0  0  0  0  0
   -8.3231   23.8758  -30.6677 H   0  0  0  0  0  0  0  0  0  0  0  0
   -2.3611   20.5529  -32.4425 H   0  0  0  0  0  0  0  0  0  0  0  0
   -3.0543   18.3236  -33.2836 H   0  0  0  0  0  0  0  0  0  0  0  0
   -4.7493   16.6617  -33.6598 H   0  0  0  0  0  0  0  0  0  0  0  0
   -7.1274   15.9290  -33.5474 H   0  0  0  0  0  0  0  0  0  0  0  0
   -8.8656   17.4659  -32.6476 H   0  0  0  0  0  0  0  0  0  0  0  0
   -8.2589   19.7672  -31.9268 H   0  0  0  0  0  0  0  0  0  0  0  0
  1  2  1  0
  2  3  1  0
  3  4  2  0
  4  5  1  0
  5  6  2  0
  6  7  1  0
  7  8  2  0
  8  9  1  0
  9 10  2  0
  9 11  1  0
 11 12  2  0
 12 13  1  0
 13 14  2  0
 14 15  1  0
 15 16  2  0
 16 17  1  0
 17 18  2  0
 18 19  1  0
 19 20  2  0
 20 21  1  0
 21 22  2  0
  8  3  1  0
 20 11  1  0
 21  7  1  0
 19 14  1  0
  1 23  1  0
  1 24  1  0
  1 25  1  0
  4 26  1  0
  5 27  1  0
  6 28  1  0
 12 29  1  0
 13 30  1  0
 15 31  1  0
 16 32  1  0
 17 33  1  0
 18 34  1  0
M  END
>  <UniqueID>  (4) 
4

>  <SMILES>  (4) 
COc1cccc2c1C(=O)c1ccc3ccccc3c1C2=O

>  <Energy>  (4) 
56.63609719990896

>  <Genealogy>  (4) 
COc1cccc2c1C(=O)c1ccc3ccccc3c1C2=O (3D coordinates assigned)
COc1cccc2c1C(=O)c1ccc3ccccc3c1C2=O (nonaromatic ring conformer: 56.63609719990896 kcal/mol)

>  <smiles>  (4) 
COc1cccc2c1C(=O)c1ccc3ccccc3c1C2=O

>  <score_type>  (4) 
oracle

>  <origin>  (4) 
adg

>  <m_score__min__energy>  (4) 
-9.0500000000000007

>  <m_primary>  (4) 
energy

$$$$
4:0
     RDKit          3D

 37 39  0  0  0  0  0  0  0  0999 V2000
   -8.5980   21.5420  -30.8360 C   0  0  0  0  0  0  0  0  0  0  0  0
   -7.8070   20.6480  -31.7590 C   0  0  0  0  0  0  0  0  0  0  0  0
   -8.3410   19.3690  -32.0070 C   0  0  0  0  0  0  0  0  0  0  0  0
   -7.6210   18.4160  -32.7180 C   0  0  0  0  0  0  0  0  0  0  0  0
   -6.3430   18.7060  -33.1780 C   0  0  0  0  0  0  0  0  0  0  0  0
   -5.7910   19.9770  -32.9740 C   0  0  0  0  0  0  0  0  0  0  0  0
   -4.4920   20.2380  -33.4160 C   0  0  0  0  0  0  0  0  0  0  0  0
   -3.9530   21.4650  -33.2340 N   0  0  0  0  0  0  0  0  0  0  0  0
   -4.6610   22.4570  -32.7000 N   0  0  0  0  0  0  0  0  0  0  0  0
   -5.9370   22.2920  -32.2630 C   0  0  0  0  0  0  0  0  0  0  0  0
   -6.8080   23.8000  -31.7990 S   0  0  0  0  0  0  0  0  0  0  0  0
   -5.8710   24.0840  -30.2510 C   0  0  0  0  0  0  0  0  0  0  0  0
   -4.9000   25.2160  -30.3790 C   0  0  0  0  0  0  0  0  0  0  0  0
   -5.3320   26.3970  -30.4680 O   0  0  0  0  0  0  0  0  0  0  0  0
   -3.4970   24.9430  -30.4570 N   0  0  0  0  0  0  0  0  0  0  0  0
   -2.7760   23.9400  -29.7250 C   0  0  0  0  0  0  0  0  0  0  0  0
   -2.4900   24.0720  -28.3520 C   0  0  0  0  0  0  0  0  0  0  0  0
   -1.8340   23.0450  -27.6680 C   0  0  0  0  0  0  0  0  0  0  0  0
   -1.4660   21.8770  -28.3410 C   0  0  0  0  0  0  0  0  0  0  0  0
   -0.8340   20.8800  -27.6740 F   0  0  0  0  0  0  0  0  0  0  0  0
   -1.7610   21.7330  -29.6990 C   0  0  0  0  0  0  0  0  0  0  0  0
   -2.4200   22.7570  -30.3860 C   0  0  0  0  0  0  0  0  0  0  0  0
   -6.5350   20.9980  -32.3190 C   0  0  0  0  0  0  0  0  0  0  0  0
   -8.3698   21.2841  -29.7913 H   0  0  0  0  0  0  0  0  0  0  0  0
   -8.3277   22.5919  -31.0219 H   0  0  0  0  0  0  0  0  0  0  0  0
   -9.6730   21.4016  -31.0219 H   0  0  0  0  0  0  0  0  0  0  0  0
   -9.3446   19.1198  -31.6319 H   0  0  0  0  0  0  0  0  0  0  0  0
   -8.0647   17.4293  -32.9169 H   0  0  0  0  0  0  0  0  0  0  0  0
   -5.7621   17.9345  -33.7046 H   0  0  0  0  0  0  0  0  0  0  0  0
   -3.9088   19.4475  -33.9109 H   0  0  0  0  0  0  0  0  0  0  0  0
   -2.9760   21.6500  -33.5530 H   0  0  0  0  0  0  0  0  0  0  0  0
   -6.5816   24.3160  -29.4440 H   0  0  0  0  0  0  0  0  0  0  0  0
   -5.2989   23.1710  -30.0295 H   0  0  0  0  0  0  0  0  0  0  0  0
   -2.7841   24.9867  -27.8164 H   0  0  0  0  0  0  0  0  0  0  0  0
   -1.6068   23.1563  -26.5975 H   0  0  0  0  0  0  0  0  0  0  0  0
   -1.4743   20.8125  -30.2286 H   0  0  0  0  0  0  0  0  0  0  0  0
   -2.6605   22.6331  -31.4522 H   0  0  0  0  0  0  0  0  0  0  0  0
  1  2  1  0
  2  3  2  0
  3  4  1  0
  4  5  2  0
  5  6  1  0
  6  7  2  0
  7  8  1  0
  8  9  2  0
  9 10  1  0
 10 11  1  0
 11 12  1  0
 12 13  1  0
 13 14  2  0
 13 15  1  0
 15 16  1  0
 16 17  2  0
 17 18  1  0
 18 19  2  0
 19 20  1  0
 19 21  1  0
 21 22  2  0
 10 23  2  0
 23  2  1  0
 23  6  1  0
 22 16  1  0
  1 24  1  0
  1 25  1  0
  1 26  1  0
  3 27  1  0
  4 28  1  0
  5 29  1  0
  7 30  1  0
  8 31  1  0
 12 32  1  0
 12 33  1  0
 17 34  1  0
 18 35  1  0
 21 36  1  0
 22 37  1  0
M  CHG  2   8   1  15  -1
M  END
>  <UniqueID>  (5) 
5

>  <SMILES>  (5) 
Cc1cccc2c[nH+]nc(SCC(=O)[N-]c3ccc(F)cc3)c12

>  <Energy>  (5) 
48.8775264517744

>  <Genealogy>  (5) 
Cc1cccc2c[nH+]nc(SCC(=O)[N-]c3ccc(F)cc3)c12 (protonated)
Cc1cccc2c[nH+]nc(SCC(=O)[N-]c3ccc(F)cc3)c12 (3D coordinates assigned)
Cc1cccc2c[nH+]nc(SCC(=O)[N-]c3ccc(F)cc3)c12 (optimized conformer: 48.8775264517744 kcal/mol)

>  <smiles>  (5) 
Cc1cccc2cnnc(SCC(=O)Nc3ccc(F)cc3)c12

>  <score_type>  (5) 
oracle

>  <origin>  (5) 
adg

>  <m_score__min__energy>  (5) 
-10.15

>  <m_primary>  (5) 
energy

$$$$
5:0
     RDKit          3D

 68 73  0  0  0  0  0  0  0  0999 V2000
   -5.8700   17.8100  -34.5470 C   0  0  0  0  0  0  0  0  0  0  0  0
   -5.3870   18.8080  -33.5380 C   0  0  0  0  0  0  0  0  0  0  0  0
   -6.2450   19.2620  -32.5250 C   0  0  0  0  0  0  0  0  0  0  0  0
   -5.8070   20.2190  -31.6050 C   0  0  0  0  0  0  0  0  0  0  0  0
   -4.5070   20.7340  -31.6910 C   0  0  0  0  0  0  0  0  0  0  0  0
   -4.0550   21.7630  -30.7300 C   0  0  0  0  0  0  0  0  0  0  0  0
   -3.1930   21.3790  -29.7460 N   0  0  0  0  0  0  0  0  0  0  0  0
   -2.7130   22.2680  -28.8290 C   0  0  0  0  0  0  0  0  0  0  0  0
   -1.8200   21.8780  -27.8010 C   0  0  0  0  0  0  0  0  0  0  0  0
   -1.3700   20.4720  -27.7010 C   0  0  0  0  0  0  0  0  0  0  0  0
   -2.0320   19.5790  -26.8450 C   0  0  0  0  0  0  0  0  0  0  0  0
   -1.6010   18.2530  -26.7450 C   0  0  0  0  0  0  0  0  0  0  0  0
   -0.5080   17.8130  -27.4990 C   0  0  0  0  0  0  0  0  0  0  0  0
    0.1540   18.6980  -28.3540 C   0  0  0  0  0  0  0  0  0  0  0  0
   -0.2740   20.0260  -28.4560 C   0  0  0  0  0  0  0  0  0  0  0  0
   -1.3620   22.8480  -26.8750 C   0  0  0  0  0  0  0  0  0  0  0  0
   -0.4670   22.5360  -25.8330 C   0  0  0  0  0  0  0  0  0  0  0  0
   -0.0510   23.4960  -24.9690 N   0  0  0  0  0  0  0  0  0  0  0  0
   -0.4680   24.7840  -25.0660 C   0  0  0  0  0  0  0  0  0  0  0  0
   -0.0060   25.7340  -24.1480 C   0  0  0  0  0  0  0  0  0  0  0  0
   -0.4290   27.0630  -24.2420 C   0  0  0  0  0  0  0  0  0  0  0  0
   -1.3120   27.4490  -25.2530 C   0  0  0  0  0  0  0  0  0  0  0  0
   -1.7800   26.5080  -26.1760 C   0  0  0  0  0  0  0  0  0  0  0  0
   -1.3630   25.1650  -26.0930 C   0  0  0  0  0  0  0  0  0  0  0  0
   -1.8090   24.1850  -27.0010 C   0  0  0  0  0  0  0  0  0  0  0  0
   -2.6640   24.5160  -28.0060 N   0  0  0  0  0  0  0  0  0  0  0  0
   -3.1190   23.6080  -28.9060 C   0  0  0  0  0  0  0  0  0  0  0  0
   -3.9950   23.9960  -29.9220 C   0  0  0  0  0  0  0  0  0  0  0  0
   -4.3390   25.2090  -30.0050 O   0  0  0  0  0  0  0  0  0  0  0  0
   -4.4690   23.0740  -30.8230 N   0  0  0  0  0  0  0  0  0  0  0  0
   -5.3440   23.5250  -31.9280 C   0  0  0  0  0  0  0  0  0  0  0  0
   -6.7920   23.6630  -31.4390 C   0  0  0  0  0  0  0  0  0  0  0  0
   -7.7780   22.9020  -32.3370 C   0  0  0  0  0  0  0  0  0  0  0  0
   -8.8070   22.1950  -31.5400 N   0  0  0  0  0  0  0  0  0  0  0  0
   -8.3020   21.9310  -30.1830 C   0  0  0  0  0  0  0  0  0  0  0  0
   -9.1910   20.9230  -32.1760 C   0  0  0  0  0  0  0  0  0  0  0  0
   -3.6590   20.3090  -32.7240 C   0  0  0  0  0  0  0  0  0  0  0  0
   -4.0970   19.3520  -33.6430 C   0  0  0  0  0  0  0  0  0  0  0  0
   -6.2922   16.9376  -34.0268 H   0  0  0  0  0  0  0  0  0  0  0  0
   -6.6445   18.2713  -35.1773 H   0  0  0  0  0  0  0  0  0  0  0  0
   -5.0277   17.4888  -35.1773 H   0  0  0  0  0  0  0  0  0  0  0  0
   -7.2676   18.8628  -32.4544 H   0  0  0  0  0  0  0  0  0  0  0  0
   -6.4845   20.5684  -30.8119 H   0  0  0  0  0  0  0  0  0  0  0  0
   -2.9110   20.3740  -29.7070 H   0  0  0  0  0  0  0  0  0  0  0  0
   -2.8918   19.9230  -26.2514 H   0  0  0  0  0  0  0  0  0  0  0  0
   -2.1217   17.5550  -26.0729 H   0  0  0  0  0  0  0  0  0  0  0  0
   -0.1694   16.7695  -27.4188 H   0  0  0  0  0  0  0  0  0  0  0  0
    1.0124   18.3502  -28.9474 H   0  0  0  0  0  0  0  0  0  0  0  0
    0.2491   20.7216  -29.1288 H   0  0  0  0  0  0  0  0  0  0  0  0
   -0.1020   21.5047  -25.7187 H   0  0  0  0  0  0  0  0  0  0  0  0
    0.6909   25.4345  -23.3514 H   0  0  0  0  0  0  0  0  0  0  0  0
   -0.0655   27.8068  -23.5178 H   0  0  0  0  0  0  0  0  0  0  0  0
   -1.6404   28.4964  -25.3236 H   0  0  0  0  0  0  0  0  0  0  0  0
   -2.4761   26.8177  -26.9694 H   0  0  0  0  0  0  0  0  0  0  0  0
   -4.9908   24.4997  -32.2957 H   0  0  0  0  0  0  0  0  0  0  0  0
   -5.3094   22.7814  -32.7378 H   0  0  0  0  0  0  0  0  0  0  0  0
   -6.8612   23.2627  -30.4168 H   0  0  0  0  0  0  0  0  0  0  0  0
   -7.0600   24.7295  -31.4680 H   0  0  0  0  0  0  0  0  0  0  0  0
   -8.2755   23.6179  -33.0078 H   0  0  0  0  0  0  0  0  0  0  0  0
   -7.2129   22.1531  -32.9113 H   0  0  0  0  0  0  0  0  0  0  0  0
   -9.0236   22.3082  -29.4434 H   0  0  0  0  0  0  0  0  0  0  0  0
   -8.1686   20.8478  -30.0457 H   0  0  0  0  0  0  0  0  0  0  0  0
   -7.3364   22.4397  -30.0457 H   0  0  0  0  0  0  0  0  0  0  0  0
   -9.4160   20.1777  -31.3989 H   0  0  0  0  0  0  0  0  0  0  0  0
  -10.0817   21.0803  -32.8020 H   0  0  0  0  0  0  0  0  0  0  0  0
   -8.3621   20.5611  -32.8020 H   0  0  0  0  0  0  0  0  0  0  0  0
   -2.6465   20.7301  -32.8109 H   0  0  0  0  0  0  0  0  0  0  0  0
   -3.4283   19.0234  -34.4522 H   0  0  0  0  0  0  0  0  0  0  0  0
  1  2  1  0
  2  3  2  0
  3  4  1  0
  4  5  2  0
  5  6  1  0
  6  7  2  0
  7  8  1  0
  8  9  2  0
  9 10  1  0
 10 11  2  0
 11 12  1  0
 12 13  2  0
 13 14  1  0
 14 15  2  0
  9 16  1  0
 16 17  2  0
 17 18  1  0
 18 19  2  0
 19 20  1  0
 20 21  2  0
 21 22  1  0
 22 23  2  0
 23 24  1  0
 24 25  2  0
 25 26  1  0
 26 27  2  0
 27 28  1  0
 28 29  2  0
 28 30  1  0
 30 31  1  0
 31 32  1  0
 32 33  1  0
 33 34  1  0
 34 35  1  0
 34 36  1  0
  5 37  1  0
 37 38  2  0
 38  2  1  0
 30  6  1  0
 27  8  1  0
 15 10  1  0
 25 16  1  0
 24 19  1  0
  1 39  1  0
  1 40  1  0
  1 41  1  0
  3 42  1  0
  4 43  1  0
  7 44  1  0
 11 45  1  0
 12 46  1  0
 13 47  1  0
 14 48  1  0
 15 49  1  0
 17 50  1  0
 20 51  1  0
 21 52  1  0
 22 53  1  0
 23 54  1  0
 31 55  1  0
 31 56  1  0
 32 57  1  0
 32 58  1  0
 33 59  1  0
 33 60  1  0
 35 61  1  0
 35 62  1  0
 35 63  1  0
 36 64  1  0
 36 65  1  0
 36 66  1  0
 37 67  1  0
 38 68  1  0
M  CHG  1   7   1
M  END
>  <UniqueID>  (6) 
6

>  <SMILES>  (6) 
Cc1ccc(-c2[nH+]c3c(-c4ccccc4)c4cnc5ccccc5c4nc3c(=O)n2CCCN(C)C)cc1

>  <Energy>  (6) 
104.56822638100871

>  <Genealogy>  (6) 
Cc1ccc(-c2[nH+]c3c(-c4ccccc4)c4cnc5ccccc5c4nc3c(=O)n2CCCN(C)C)cc1 (protonated)
Cc1ccc(-c2[nH+]c3c(-c4ccccc4)c4cnc5ccccc5c4nc3c(=O)n2CCCN(C)C)cc1 (3D coordinates assigned)
Cc1ccc(-c2[nH+]c3c(-c4ccccc4)c4cnc5ccccc5c4nc3c(=O)n2CCCN(C)C)cc1 (optimized conformer: 104.56822638100871 kcal/mol)

>  <smiles>  (6) 
Cc1ccc(-c2nc3c(-c4ccccc4)c4cnc5ccccc5c4nc3c(=O)n2CCCN(C)C)cc1

>  <score_type>  (6) 
oracle

>  <origin>  (6) 
adg

>  <m_score__min__energy>  (6) 
-10.210000000000001

>  <m_primary>  (6) 
energy

$$$$
6:0
     RDKit          3D

 59 62  0  0  0  0  0  0  0  0999 V2000
   -3.2080   18.6660  -26.4070 C   0  0  0  0  0  0  0  0  0  0  0  0
   -1.9020   19.0130  -26.0070 O   0  0  0  0  0  0  0  0  0  0  0  0
   -1.0040   18.7790  -27.0730 C   0  0  0  0  0  0  0  0  0  0  0  0
   -0.8630   20.0520  -27.9250 C   0  0  1  0  0  0  0  0  0  0  0  0
    0.5580   20.5680  -27.8160 C   0  0  0  0  0  0  0  0  0  0  0  0
    1.5030   19.7620  -27.5940 O   0  0  0  0  0  0  0  0  0  0  0  0
    0.8230   21.9700  -27.9760 N   0  0  0  0  0  0  0  0  0  0  0  0
    0.4550   23.0200  -27.0690 C   0  0  0  0  0  0  0  0  0  0  0  0
    0.3170   24.3230  -27.5670 C   0  0  0  0  0  0  0  0  0  0  0  0
   -0.0560   25.3680  -26.7170 C   0  0  0  0  0  0  0  0  0  0  0  0
   -0.3240   25.1150  -25.3690 C   0  0  0  0  0  0  0  0  0  0  0  0
   -0.8530   26.5420  -24.2130 Br  0  0  0  0  0  0  0  0  0  0  0  0
   -0.2100   23.8150  -24.8670 C   0  0  0  0  0  0  0  0  0  0  0  0
    0.1670   22.7670  -25.7140 C   0  0  0  0  0  0  0  0  0  0  0  0
   -1.2210   19.7420  -29.4010 C   0  0  0  0  0  0  0  0  0  0  0  0
   -1.2520   21.0220  -30.2480 C   0  0  0  0  0  0  0  0  0  0  0  0
   -2.0720   22.1010  -29.5910 C   0  0  0  0  0  0  0  0  0  0  0  0
   -2.5800   23.1640  -30.3530 C   0  0  0  0  0  0  0  0  0  0  0  0
   -3.3420   24.1760  -29.7430 C   0  0  0  0  0  0  0  0  0  0  0  0
   -3.8640   25.2790  -30.4950 N   0  0  0  0  0  0  0  0  0  0  0  0
   -5.2400   25.6710  -30.5930 C   0  0  0  0  0  0  0  0  0  0  0  0
   -5.5380   26.8820  -30.4180 O   0  0  0  0  0  0  0  0  0  0  0  0
   -6.3400   24.6720  -30.8360 C   0  0  0  0  0  0  0  0  0  0  0  0
   -5.9750   23.7230  -31.9820 C   0  0  0  0  0  0  0  0  0  0  0  0
   -6.9220   22.5530  -32.0210 C   0  0  0  0  0  0  0  0  0  0  0  0
   -6.4760   21.2980  -32.4680 C   0  0  0  0  0  0  0  0  0  0  0  0
   -7.3630   20.2200  -32.5390 C   0  0  0  0  0  0  0  0  0  0  0  0
   -8.7010   20.3880  -32.1680 C   0  0  0  0  0  0  0  0  0  0  0  0
   -9.1540   21.6350  -31.7310 C   0  0  0  0  0  0  0  0  0  0  0  0
   -8.2720   22.7170  -31.6620 C   0  0  0  0  0  0  0  0  0  0  0  0
   -3.5350   24.1500  -28.3570 C   0  0  0  0  0  0  0  0  0  0  0  0
   -3.0140   23.1050  -27.5890 C   0  0  0  0  0  0  0  0  0  0  0  0
   -2.2810   22.0830  -28.1990 C   0  0  0  0  0  0  0  0  0  0  0  0
   -1.7740   21.0360  -27.4170 O   0  0  0  0  0  0  0  0  0  0  0  0
   -3.8323   18.5001  -25.5166 H   0  0  0  0  0  0  0  0  0  0  0  0
   -3.6362   19.4815  -27.0083 H   0  0  0  0  0  0  0  0  0  0  0  0
   -3.1749   17.7455  -27.0083 H   0  0  0  0  0  0  0  0  0  0  0  0
   -0.0203   18.5004  -26.6672 H   0  0  0  0  0  0  0  0  0  0  0  0
   -1.3907   17.9629  -27.7010 H   0  0  0  0  0  0  0  0  0  0  0  0
    0.5032   24.5242  -28.6323 H   0  0  0  0  0  0  0  0  0  0  0  0
   -0.1388   26.3920  -27.1101 H   0  0  0  0  0  0  0  0  0  0  0  0
   -0.4169   23.6159  -23.8051 H   0  0  0  0  0  0  0  0  0  0  0  0
    0.2386   21.7424  -25.3202 H   0  0  0  0  0  0  0  0  0  0  0  0
   -0.4679   19.0559  -29.8159 H   0  0  0  0  0  0  0  0  0  0  0  0
   -2.2208   19.2841  -29.4270 H   0  0  0  0  0  0  0  0  0  0  0  0
   -0.2229   21.3869  -30.3815 H   0  0  0  0  0  0  0  0  0  0  0  0
   -1.7123   20.7821  -31.2178 H   0  0  0  0  0  0  0  0  0  0  0  0
   -2.3809   23.2059  -31.4340 H   0  0  0  0  0  0  0  0  0  0  0  0
   -6.5017   24.0847  -29.9200 H   0  0  0  0  0  0  0  0  0  0  0  0
   -7.2551   25.2174  -31.1100 H   0  0  0  0  0  0  0  0  0  0  0  0
   -6.0337   24.2680  -32.9357 H   0  0  0  0  0  0  0  0  0  0  0  0
   -4.9534   23.3481  -31.8212 H   0  0  0  0  0  0  0  0  0  0  0  0
   -5.4250   21.1632  -32.7632 H   0  0  0  0  0  0  0  0  0  0  0  0
   -7.0083   19.2386  -32.8870 H   0  0  0  0  0  0  0  0  0  0  0  0
   -9.3969   19.5377  -32.2204 H   0  0  0  0  0  0  0  0  0  0  0  0
  -10.2069   21.7657  -31.4406 H   0  0  0  0  0  0  0  0  0  0  0  0
   -8.6347   23.6996  -31.3260 H   0  0  0  0  0  0  0  0  0  0  0  0
   -4.1005   24.9574  -27.8689 H   0  0  0  0  0  0  0  0  0  0  0  0
   -3.1812   23.0867  -26.5019 H   0  0  0  0  0  0  0  0  0  0  0  0
  1  2  1  0
  2  3  1  0
  4  3  1  1
  4  5  1  0
  5  6  2  0
  5  7  1  0
  7  8  1  0
  8  9  2  0
  9 10  1  0
 10 11  2  0
 11 12  1  0
 11 13  1  0
 13 14  2  0
  4 15  1  0
 15 16  1  0
 16 17  1  0
 17 18  2  0
 18 19  1  0
 19 20  1  0
 20 21  1  0
 21 22  2  0
 21 23  1  0
 23 24  1  0
 24 25  1  0
 25 26  2  0
 26 27  1  0
 27 28  2  0
 28 29  1  0
 29 30  2  0
 19 31  2  0
 31 32  1  0
 32 33  2  0
 33 34  1  0
 34  4  1  0
 14  8  1  0
 33 17  1  0
 30 25  1  0
  1 35  1  0
  1 36  1  0
  1 37  1  0
  3 38  1  0
  3 39  1  0
  9 40  1  0
 10 41  1  0
 13 42  1  0
 14 43  1  0
 15 44  1  0
 15 45  1  0
 16 46  1  0
 16 47  1  0
 18 48  1  0
 23 49  1  0
 23 50  1  0
 24 51  1  0
 24 52  1  0
 26 53  1  0
 27 54  1  0
 28 55  1  0
 29 56  1  0
 30 57  1  0
 31 58  1  0
 32 59  1  0
M  CHG  2   7  -1  20  -1
M  END
>  <UniqueID>  (7) 
7

>  <SMILES>  (7) 
COC[C@@]1(C(=O)[N-]c2ccc(Br)cc2)CCc2cc([N-]C(=O)CCc3ccccc3)ccc2O1

>  <Energy>  (7) 
67.27442508318063

>  <Genealogy>  (7) 
COCC1(C(=O)[N-]c2ccc(Br)cc2)CCc2cc([N-]C(=O)CCc3ccccc3)ccc2O1 (protonated)
COC[C@@]1(C(=O)[N-]c2ccc(Br)cc2)CCc2cc([N-]C(=O)CCc3ccccc3)ccc2O1 (chirality)
COC[C@@]1(C(=O)[N-]c2ccc(Br)cc2)CCc2cc([N-]C(=O)CCc3ccccc3)ccc2O1 (3D coordinates assigned)
COC[C@@]1(C(=O)[N-]c2ccc(Br)cc2)CCc2cc([N-]C(=O)CCc3ccccc3)ccc2O1 (nonaromatic ring conformer: 67.27442508318063 kcal/mol)

>  <smiles>  (7) 
COCC1(C(=O)Nc2ccc(Br)cc2)CCc2cc(NC(=O)CCc3ccccc3)ccc2O1

>  <score_type>  (7) 
oracle

>  <origin>  (7) 
adg

>  <m_score__min__energy>  (7) 
-11.94

>  <m_primary>  (7) 
energy

$$$$
7:0
     RDKit          3D

 57 59  0  0  0  0  0  0  0  0999 V2000
   -1.1740   25.9120  -27.5650 C   0  0  0  0  0  0  0  0  0  0  0  0
   -1.6170   25.6990  -28.9010 O   0  0  0  0  0  0  0  0  0  0  0  0
   -2.2960   24.5520  -29.3410 C   0  0  0  0  0  0  0  0  0  0  0  0
   -3.7000   24.4810  -29.3970 C   0  0  0  0  0  0  0  0  0  0  0  0
   -4.3300   23.3170  -29.8520 C   0  0  0  0  0  0  0  0  0  0  0  0
   -3.5700   22.2100  -30.2620 C   0  0  0  0  0  0  0  0  0  0  0  0
   -4.2510   20.9560  -30.7780 C   0  0  0  0  0  0  0  0  0  0  0  0
   -4.7390   21.0780  -32.1740 N   0  0  0  0  0  0  0  0  0  0  0  0
   -3.6230   21.1210  -33.1400 C   0  0  0  0  0  0  0  0  0  0  0  0
   -5.6840   22.2110  -32.3420 C   0  0  0  0  0  0  0  0  0  0  0  0
   -7.1740   21.7770  -32.3530 C   0  0  2  0  0  0  0  0  0  0  0  0
   -7.8190   21.7950  -30.9560 C   0  0  0  0  0  0  0  0  0  0  0  0
   -9.3260   21.4900  -31.0230 C   0  0  0  0  0  0  0  0  0  0  0  0
   -9.7240   20.6760  -32.2710 C   0  0  0  0  0  0  0  0  0  0  0  0
   -8.6660   19.7360  -32.6920 N   0  0  0  0  0  0  0  0  0  0  0  0
   -8.4520   18.6400  -31.7200 C   0  0  0  0  0  0  0  0  0  0  0  0
   -6.9630   18.5210  -31.3900 C   0  0  0  0  0  0  0  0  0  0  0  0
   -6.2420   17.7660  -32.4690 C   0  0  0  0  0  0  0  0  0  0  0  0
   -6.8700   16.7120  -33.1460 C   0  0  0  0  0  0  0  0  0  0  0  0
   -6.1810   16.0470  -34.1630 C   0  0  0  0  0  0  0  0  0  0  0  0
   -4.8860   16.4450  -34.5040 C   0  0  0  0  0  0  0  0  0  0  0  0
   -4.2990   17.5110  -33.8190 C   0  0  0  0  0  0  0  0  0  0  0  0
   -4.9820   18.1430  -32.8270 N   0  0  0  0  0  0  0  0  0  0  0  0
   -7.4080   20.4240  -33.0840 C   0  0  0  0  0  0  0  0  0  0  0  0
   -2.1690   22.2790  -30.1910 C   0  0  0  0  0  0  0  0  0  0  0  0
   -1.5410   23.4420  -29.7370 C   0  0  0  0  0  0  0  0  0  0  0  0
   -1.9371   25.5451  -26.8628 H   0  0  0  0  0  0  0  0  0  0  0  0
   -0.2321   25.3683  -27.3999 H   0  0  0  0  0  0  0  0  0  0  0  0
   -1.0105   26.9872  -27.3999 H   0  0  0  0  0  0  0  0  0  0  0  0
   -4.3051   25.3439  -29.0819 H   0  0  0  0  0  0  0  0  0  0  0  0
   -5.4283   23.2691  -29.8886 H   0  0  0  0  0  0  0  0  0  0  0  0
   -3.5314   20.1253  -30.7323 H   0  0  0  0  0  0  0  0  0  0  0  0
   -5.1314   20.7815  -30.1421 H   0  0  0  0  0  0  0  0  0  0  0  0
   -2.6679   21.1578  -32.5955 H   0  0  0  0  0  0  0  0  0  0  0  0
   -3.6503   20.2211  -33.7721 H   0  0  0  0  0  0  0  0  0  0  0  0
   -3.7194   22.0161  -33.7721 H   0  0  0  0  0  0  0  0  0  0  0  0
   -5.5329   22.9166  -31.5118 H   0  0  0  0  0  0  0  0  0  0  0  0
   -5.4723   22.6670  -33.3204 H   0  0  0  0  0  0  0  0  0  0  0  0
   -7.6930   22.5457  -32.9444 H   0  0  0  0  0  0  0  0  0  0  0  0
   -7.3292   21.0371  -30.3270 H   0  0  0  0  0  0  0  0  0  0  0  0
   -7.6905   22.8014  -30.5310 H   0  0  0  0  0  0  0  0  0  0  0  0
   -9.6073   20.9171  -30.1271 H   0  0  0  0  0  0  0  0  0  0  0  0
   -9.8534   22.4537  -31.0783 H   0  0  0  0  0  0  0  0  0  0  0  0
  -10.6350   20.1032  -32.0432 H   0  0  0  0  0  0  0  0  0  0  0  0
   -9.8890   21.3856  -33.0952 H   0  0  0  0  0  0  0  0  0  0  0  0
   -9.0138   18.8543  -30.7989 H   0  0  0  0  0  0  0  0  0  0  0  0
   -8.8030   17.6938  -32.1576 H   0  0  0  0  0  0  0  0  0  0  0  0
   -6.5303   19.5285  -31.3027 H   0  0  0  0  0  0  0  0  0  0  0  0
   -6.8523   17.9761  -30.4409 H   0  0  0  0  0  0  0  0  0  0  0  0
   -7.8941   16.4116  -32.8795 H   0  0  0  0  0  0  0  0  0  0  0  0
   -6.6578   15.2105  -34.6950 H   0  0  0  0  0  0  0  0  0  0  0  0
   -4.3356   15.9252  -35.3021 H   0  0  0  0  0  0  0  0  0  0  0  0
   -3.2829   17.8400  -34.0821 H   0  0  0  0  0  0  0  0  0  0  0  0
   -6.5634   19.7571  -32.8565 H   0  0  0  0  0  0  0  0  0  0  0  0
   -7.4901   20.6515  -34.1571 H   0  0  0  0  0  0  0  0  0  0  0  0
   -1.5627   21.4128  -30.4944 H   0  0  0  0  0  0  0  0  0  0  0  0
   -0.4428   23.4854  -29.6904 H   0  0  0  0  0  0  0  0  0  0  0  0
  1  2  1  0
  2  3  1  0
  3  4  2  0
  4  5  1  0
  5  6  2  0
  6  7  1  0
  7  8  1  0
  8  9  1  0
  8 10  1  0
 10 11  1  0
 11 12  1  0
 12 13  1  0
 13 14  1  0
 14 15  1  0
 15 16  1  0
 16 17  1  0
 17 18  1  0
 18 19  2  0
 19 20  1  0
 20 21  2  0
 21 22  1  0
 22 23  2  0
 15 24  1  0
  6 25  1  0
 25 26  2  0
 26  3  1  0
 24 11  1  0
 23 18  1  0
  1 27  1  0
  1 28  1  0
  1 29  1  0
  4 30  1  0
  5 31  1  0
  7 32  1  0
  7 33  1  0
  9 34  1  0
  9 35  1  0
  9 36  1  0
 10 37  1  0
 10 38  1  0
 11 39  1  6
 12 40  1  0
 12 41  1  0
 13 42  1  0
 13 43  1  0
 14 44  1  0
 14 45  1  0
 16 46  1  0
 16 47  1  0
 17 48  1  0
 17 49  1  0
 19 50  1  0
 20 51  1  0
 21 52  1  0
 22 53  1  0
 24 54  1  0
 24 55  1  0
 25 56  1  0
 26 57  1  0
M  END
>  <UniqueID>  (8) 
8

>  <SMILES>  (8) 
COc1ccc(CN(C)C[C@@H]2CCCN(CCc3ccccn3)C2)cc1

>  <Energy>  (8) 
70.08699670834773

>  <Genealogy>  (8) 
COc1ccc(CN(C)C[C@@H]2CCCN(CCc3ccccn3)C2)cc1 (chirality)
COc1ccc(CN(C)C[C@@H]2CCCN(CCc3ccccn3)C2)cc1 (3D coordinates assigned)
COc1ccc(CN(C)C[C@@H]2CCCN(CCc3ccccn3)C2)cc1 (nonaromatic ring conformer: 70.08699670834773 kcal/mol)

>  <smiles>  (8) 
COc1ccc(CN(C)CC2CCCN(CCc3ccccn3)C2)cc1

>  <score_type>  (8) 
oracle

>  <origin>  (8) 
adg

>  <m_score__min__energy>  (8) 
-8.5

>  <m_primary>  (8) 
energy

$$$$
8:0
     RDKit          3D

 51 51  0  0  0  0  0  0  0  0999 V2000
   -1.6385   21.6023  -29.5467 H   0  0  0  0  0  0  0  0  0  0  0  0
   -2.2550   22.4380  -29.1840 C   0  0  0  0  0  0  0  0  0  0  0  0
   -2.5150   22.5750  -27.8220 C   0  0  0  0  0  0  0  0  0  0  0  0
   -2.1101   21.8477  -27.1030 H   0  0  0  0  0  0  0  0  0  0  0  0
   -3.2940   23.6440  -27.3800 C   0  0  0  0  0  0  0  0  0  0  0  0
   -3.5003   23.7627  -26.3061 H   0  0  0  0  0  0  0  0  0  0  0  0
   -3.8010   24.5420  -28.2700 N   0  0  0  0  0  0  0  0  0  0  0  0
   -4.3670   25.3280  -27.8830 H   0  0  0  0  0  0  0  0  0  0  0  0
   -3.5690   24.4220  -29.6160 C   0  0  0  0  0  0  0  0  0  0  0  0
   -4.0630   25.2600  -30.4830 N   0  0  0  0  0  0  0  0  0  0  0  0
   -5.4570   25.6930  -30.6100 C   0  0  0  0  0  0  0  0  0  0  0  0
   -5.5937   26.1662  -31.5936 H   0  0  0  0  0  0  0  0  0  0  0  0
   -5.6684   26.4009  -29.7950 H   0  0  0  0  0  0  0  0  0  0  0  0
   -6.4410   24.5150  -30.4840 C   0  0  0  0  0  0  0  0  0  0  0  0
   -7.4307   24.9110  -30.2127 H   0  0  0  0  0  0  0  0  0  0  0  0
   -6.0483   23.8359  -29.7128 H   0  0  0  0  0  0  0  0  0  0  0  0
   -6.5740   23.7110  -31.7840 C   0  0  0  0  0  0  0  0  0  0  0  0
   -7.0712   24.3292  -32.5460 H   0  0  0  0  0  0  0  0  0  0  0  0
   -7.1705   22.8071  -31.5914 H   0  0  0  0  0  0  0  0  0  0  0  0
   -5.2420   23.3180  -32.2680 N   0  0  0  0  0  0  0  0  0  0  0  0
   -4.5120   23.7940  -31.6850 H   0  0  0  0  0  0  0  0  0  0  0  0
   -5.0240   21.8600  -32.2530 C   0  0  2  0  0  0  0  0  0  0  0  0
   -4.7958   21.5391  -31.2259 H   0  0  0  0  0  0  0  0  0  0  0  0
   -3.8190   21.4720  -33.1310 C   0  0  0  0  0  0  0  0  0  0  0  0
   -2.9696   21.1985  -32.4878 H   0  0  0  0  0  0  0  0  0  0  0  0
   -4.0888   20.6153  -33.7661 H   0  0  0  0  0  0  0  0  0  0  0  0
   -3.5382   22.3252  -33.7661 H   0  0  0  0  0  0  0  0  0  0  0  0
   -6.3160   21.1480  -32.7360 C   0  0  0  0  0  0  0  0  0  0  0  0
   -6.7963   21.7795  -33.4979 H   0  0  0  0  0  0  0  0  0  0  0  0
   -6.9519   21.0010  -31.8505 H   0  0  0  0  0  0  0  0  0  0  0  0
   -6.0660   19.7580  -33.3450 C   0  0  0  0  0  0  0  0  0  0  0  0
   -5.0087   19.6888  -33.6404 H   0  0  0  0  0  0  0  0  0  0  0  0
   -6.7390   19.6489  -34.2082 H   0  0  0  0  0  0  0  0  0  0  0  0
   -6.3780   18.6160  -32.3690 C   0  0  0  0  0  0  0  0  0  0  0  0
   -6.1427   18.9433  -31.3455 H   0  0  0  0  0  0  0  0  0  0  0  0
   -5.7679   17.7432  -32.6447 H   0  0  0  0  0  0  0  0  0  0  0  0
   -7.8600   18.2190  -32.4410 C   0  0  0  0  0  0  0  0  0  0  0  0
   -7.9651   17.1789  -32.0986 H   0  0  0  0  0  0  0  0  0  0  0  0
   -8.1895   18.3325  -33.4843 H   0  0  0  0  0  0  0  0  0  0  0  0
   -8.7500   19.1240  -31.5620 C   0  0  0  0  0  0  0  0  0  0  0  0
   -8.1198   19.5827  -30.7858 H   0  0  0  0  0  0  0  0  0  0  0  0
   -9.5390   18.4855  -31.1380 H   0  0  0  0  0  0  0  0  0  0  0  0
   -9.4510   20.2460  -32.3440 C   0  0  0  0  0  0  0  0  0  0  0  0
  -10.4862   19.9357  -32.5490 H   0  0  0  0  0  0  0  0  0  0  0  0
   -8.8784   20.4079  -33.2692 H   0  0  0  0  0  0  0  0  0  0  0  0
   -9.4820   21.5750  -31.5890 C   0  0  0  0  0  0  0  0  0  0  0  0
   -9.4775   21.3817  -30.5061 H   0  0  0  0  0  0  0  0  0  0  0  0
   -8.5975   22.1707  -31.8588 H   0  0  0  0  0  0  0  0  0  0  0  0
  -10.3933   22.1288  -31.8588 H   0  0  0  0  0  0  0  0  0  0  0  0
   -2.7790   23.3640  -30.0860 C   0  0  0  0  0  0  0  0  0  0  0  0
   -2.5730   23.2643  -31.1619 H   0  0  0  0  0  0  0  0  0  0  0  0
  1  2  1  0
  2  3  1  0
  3  4  1  0
  3  5  2  0
  5  6  1  0
  5  7  1  0
  7  8  1  0
  7  9  1  0
  9 10  2  0
 10 11  1  0
 11 12  1  0
 11 13  1  0
 11 14  1  0
 14 15  1  0
 14 16  1  0
 14 17  1  0
 17 18  1  0
 17 19  1  0
 17 20  1  0
 20 21  1  0
 20 22  1  0
 22 23  1  1
 22 24  1  0
 24 25  1  0
 24 26  1  0
 24 27  1  0
 22 28  1  0
 28 29  1  0
 28 30  1  0
 28 31  1  0
 31 32  1  0
 31 33  1  0
 31 34  1  0
 34 35  1  0
 34 36  1  0
 34 37  1  0
 37 38  1  0
 37 39  1  0
 37 40  1  0
 40 41  1  0
 40 42  1  0
 40 43  1  0
 43 44  1  0
 43 45  1  0
 43 46  1  0
 46 47  1  0
 46 48  1  0
 46 49  1  0
  9 50  1  0
 50 51  1  0
 50  2  2  0
M  END
>  <UniqueID>  (9) 
9

>  <SMILES>  (9) 
CCCCCCC[C@@H](C)NCCC/N=c1/cccc[nH]1

>  <Energy>  (9) 
36.87697225038766

>  <Genealogy>  (9) 
CCCCCCC[C@@H](C)NCCCN=c1cccc[nH]1 (chirality)
CCCCCCC[C@@H](C)NCCC/N=c1/cccc[nH]1 (cis-trans isomerization)
CCCCCCC[C@@H](C)NCCC/N=c1/cccc[nH]1 (3D coordinates assigned)
CCCCCCC[C@@H](C)NCCC/N=c1/cccc[nH]1 (optimized conformer: 36.87697225038766 kcal/mol)

>  <smiles>  (9) 
CCCCCCCC(C)NCCCN=c1cccc[nH]1

>  <score_type>  (9) 
oracle

>  <origin>  (9) 
adg

>  <m_score__min__energy>  (9) 
-7.4000000000000004

>  <m_primary>  (9) 
energy

$$$$
9:0
     RDKit          3D

 53 56  0  0  0  0  0  0  0  0999 V2000
   -9.0880   18.5740  -31.2530 C   0  0  0  0  0  0  0  0  0  0  0  0
   -8.8490   19.4260  -32.4960 C   0  0  0  0  0  0  0  0  0  0  0  0
   -7.4150   19.3140  -32.9580 C   0  0  0  0  0  0  0  0  0  0  0  0
   -6.9940   18.1340  -33.5030 N   0  0  0  0  0  0  0  0  0  0  0  0
   -5.7110   17.9550  -33.9100 C   0  0  0  0  0  0  0  0  0  0  0  0
   -4.7950   19.0000  -33.7840 C   0  0  0  0  0  0  0  0  0  0  0  0
   -3.3560   18.8160  -34.1670 C   0  0  0  0  0  0  0  0  0  0  0  0
   -2.6550   20.1080  -34.2130 N   0  0  0  0  0  0  0  0  0  0  0  0
   -1.5540   20.2000  -33.2230 C   0  0  1  0  0  0  0  0  0  0  0  0
   -0.5490   19.0470  -33.4550 C   0  0  0  0  0  0  0  0  0  0  0  0
    0.1020   19.1160  -34.8490 C   0  0  0  0  0  0  0  0  0  0  0  0
    0.5120   20.5210  -35.1660 C   0  0  0  0  0  0  0  0  0  0  0  0
    1.3220   20.8790  -36.1810 N   0  0  0  0  0  0  0  0  0  0  0  0
    1.3190   22.2300  -36.0760 C   0  0  0  0  0  0  0  0  0  0  0  0
    0.5420   22.6740  -35.0640 N   0  0  0  0  0  0  0  0  0  0  0  0
    0.0270   21.5890  -34.5200 N   0  0  0  0  0  0  0  0  0  0  0  0
   -0.8090   21.5540  -33.3220 C   0  0  0  0  0  0  0  0  0  0  0  0
   -5.2070   20.1780  -33.2520 N   0  0  0  0  0  0  0  0  0  0  0  0
   -6.4870   20.3800  -32.8410 C   0  0  0  0  0  0  0  0  0  0  0  0
   -6.8430   21.7080  -32.2920 C   0  0  0  0  0  0  0  0  0  0  0  0
   -8.0550   22.0510  -32.2560 O   0  0  0  0  0  0  0  0  0  0  0  0
   -5.8280   22.6310  -31.8420 N   0  0  0  0  0  0  0  0  0  0  0  0
   -6.0560   24.0770  -31.9500 C   0  0  0  0  0  0  0  0  0  0  0  0
   -5.2890   24.8160  -30.8490 C   0  0  0  0  0  0  0  0  0  0  0  0
   -3.9300   24.4270  -30.8350 O   0  0  0  0  0  0  0  0  0  0  0  0
   -3.8300   23.0650  -30.4720 C   0  0  0  0  0  0  0  0  0  0  0  0
   -4.4670   22.1690  -31.5390 C   0  0  0  0  0  0  0  0  0  0  0  0
   -8.9172   19.1827  -30.3528 H   0  0  0  0  0  0  0  0  0  0  0  0
  -10.1243   18.2051  -31.2550 H   0  0  0  0  0  0  0  0  0  0  0  0
   -8.3948   17.7199  -31.2550 H   0  0  0  0  0  0  0  0  0  0  0  0
   -9.5149   19.0828  -33.3015 H   0  0  0  0  0  0  0  0  0  0  0  0
   -9.0574   20.4771  -32.2474 H   0  0  0  0  0  0  0  0  0  0  0  0
   -7.6630   17.3380  -33.6030 H   0  0  0  0  0  0  0  0  0  0  0  0
   -5.3955   16.9915  -34.3367 H   0  0  0  0  0  0  0  0  0  0  0  0
   -2.8664   18.1670  -33.4260 H   0  0  0  0  0  0  0  0  0  0  0  0
   -3.3145   18.3582  -35.1664 H   0  0  0  0  0  0  0  0  0  0  0  0
   -3.3730   20.8500  -34.0380 H   0  0  0  0  0  0  0  0  0  0  0  0
   -1.9967   20.1236  -32.2189 H   0  0  0  0  0  0  0  0  0  0  0  0
    0.2408   19.1062  -32.6916 H   0  0  0  0  0  0  0  0  0  0  0  0
   -1.1011   18.0981  -33.3862 H   0  0  0  0  0  0  0  0  0  0  0  0
    0.9898   18.4668  -34.8667 H   0  0  0  0  0  0  0  0  0  0  0  0
   -0.6279   18.7797  -35.6001 H   0  0  0  0  0  0  0  0  0  0  0  0
    1.8882   22.8939  -36.7432 H   0  0  0  0  0  0  0  0  0  0  0  0
   -0.1742   21.6843  -32.4331 H   0  0  0  0  0  0  0  0  0  0  0  0
   -1.5495   22.3653  -33.3798 H   0  0  0  0  0  0  0  0  0  0  0  0
   -5.7085   24.4274  -32.9331 H   0  0  0  0  0  0  0  0  0  0  0  0
   -7.1311   24.2807  -31.8378 H   0  0  0  0  0  0  0  0  0  0  0  0
   -5.3521   25.8991  -31.0305 H   0  0  0  0  0  0  0  0  0  0  0  0
   -5.7377   24.5634  -29.8769 H   0  0  0  0  0  0  0  0  0  0  0  0
   -2.7685   22.7977  -30.3636 H   0  0  0  0  0  0  0  0  0  0  0  0
   -4.3622   22.9137  -29.5213 H   0  0  0  0  0  0  0  0  0  0  0  0
   -3.8585   22.2054  -32.4547 H   0  0  0  0  0  0  0  0  0  0  0  0
   -4.5139   21.1373  -31.1603 H   0  0  0  0  0  0  0  0  0  0  0  0
  1  2  1  0
  2  3  1  0
  3  4  2  0
  4  5  1  0
  5  6  2  0
  6  7  1  0
  7  8  1  0
  8  9  1  0
  9 10  1  0
 10 11  1  0
 11 12  1  0
 12 13  2  0
 13 14  1  0
 14 15  2  0
 15 16  1  0
 16 17  1  0
  6 18  1  0
 18 19  2  0
 19 20  1  0
 20 21  2  0
 20 22  1  0
 22 23  1  0
 23 24  1  0
 24 25  1  0
 25 26  1  0
 26 27  1  0
 19  3  1  0
 27 22  1  0
 17  9  1  0
 16 12  1  0
  1 28  1  0
  1 29  1  0
  1 30  1  0
  2 31  1  0
  2 32  1  0
  4 33  1  0
  5 34  1  0
  7 35  1  0
  7 36  1  0
  8 37  1  0
  9 38  1  1
 10 39  1  0
 10 40  1  0
 11 41  1  0
 11 42  1  0
 14 43  1  0
 17 44  1  0
 17 45  1  0
 23 46  1  0
 23 47  1  0
 24 48  1  0
 24 49  1  0
 26 50  1  0
 26 51  1  0
 27 52  1  0
 27 53  1  0
M  CHG  1   4   1
M  END
>  <UniqueID>  (10) 
10

>  <SMILES>  (10) 
CCc1[nH+]cc(CN[C@H]2CCc3ncnn3C2)nc1C(=O)N1CCOCC1

>  <Energy>  (10) 
92.8884159511482

>  <Genealogy>  (10) 
CCc1[nH+]cc(CNC2CCc3ncnn3C2)nc1C(=O)N1CCOCC1 (protonated)
CCc1[nH+]cc(CN[C@H]2CCc3ncnn3C2)nc1C(=O)N1CCOCC1 (chirality)
CCc1[nH+]cc(CN[C@H]2CCc3ncnn3C2)nc1C(=O)N1CCOCC1 (3D coordinates assigned)
CCc1[nH+]cc(CN[C@H]2CCc3ncnn3C2)nc1C(=O)N1CCOCC1 (nonaromatic ring conformer: 92.8884159511482 kcal/mol)

>  <smiles>  (10) 
CCc1ncc(CNC2CCc3ncnn3C2)nc1C(=O)N1CCOCC1

>  <score_type>  (10) 
oracle

>  <origin>  (10) 
adg

>  <m_score__min__energy>  (10) 
-8.4700000000000006

>  <m_primary>  (10) 
energy

$$$$
10:0
     RDKit          3D

 34 35  0  0  0  0  0  0  0  0999 V2000
   -2.3820   24.7910  -28.5840 C   0  0  0  0  0  0  0  0  0  0  0  0
   -3.1280   25.2750  -29.6960 O   0  0  0  0  0  0  0  0  0  0  0  0
   -4.0030   24.4930  -30.4640 C   0  0  0  0  0  0  0  0  0  0  0  0
   -3.5760   23.2260  -30.8720 C   0  0  0  0  0  0  0  0  0  0  0  0
   -4.4110   22.4060  -31.6340 C   0  0  0  0  0  0  0  0  0  0  0  0
   -5.7090   22.8270  -31.9800 C   0  0  0  0  0  0  0  0  0  0  0  0
   -6.5670   21.9810  -32.7890 N   0  0  0  0  0  0  0  0  0  0  0  0
   -7.3420   20.9460  -32.0430 C   0  0  0  0  0  0  0  0  0  0  0  0
   -7.8770   21.5870  -30.8170 C   0  0  0  0  0  0  0  0  0  0  0  0
   -8.2950   22.0880  -29.8610 N   0  0  0  0  0  0  0  0  0  0  0  0
   -6.4520   19.7460  -31.5920 C   0  0  0  0  0  0  0  0  0  0  0  0
   -6.6610   18.5230  -32.5010 C   0  0  0  0  0  0  0  0  0  0  0  0
   -7.9950   18.0280  -32.4800 O   0  0  0  0  0  0  0  0  0  0  0  0
   -8.9940   19.0370  -32.3560 C   0  0  0  0  0  0  0  0  0  0  0  0
   -8.5600   20.4240  -32.8640 C   0  0  0  0  0  0  0  0  0  0  0  0
   -6.1190   24.1210  -31.6050 C   0  0  0  0  0  0  0  0  0  0  0  0
   -5.2810   24.9400  -30.8430 C   0  0  0  0  0  0  0  0  0  0  0  0
   -2.8694   25.1072  -27.6499 H   0  0  0  0  0  0  0  0  0  0  0  0
   -2.3390   23.6925  -28.6215 H   0  0  0  0  0  0  0  0  0  0  0  0
   -1.3613   25.1994  -28.6215 H   0  0  0  0  0  0  0  0  0  0  0  0
   -2.5734   22.8717  -30.5904 H   0  0  0  0  0  0  0  0  0  0  0  0
   -4.0509   21.4214  -31.9671 H   0  0  0  0  0  0  0  0  0  0  0  0
   -7.2310   22.5950  -33.3180 H   0  0  0  0  0  0  0  0  0  0  0  0
   -5.9780   21.5090  -33.5150 H   0  0  0  0  0  0  0  0  0  0  0  0
   -5.3951   20.0478  -31.6346 H   0  0  0  0  0  0  0  0  0  0  0  0
   -6.7364   19.4689  -30.5661 H   0  0  0  0  0  0  0  0  0  0  0  0
   -6.4106   18.8084  -33.5334 H   0  0  0  0  0  0  0  0  0  0  0  0
   -6.0097   17.7210  -32.1233 H   0  0  0  0  0  0  0  0  0  0  0  0
   -9.8768   18.7203  -32.9308 H   0  0  0  0  0  0  0  0  0  0  0  0
   -9.2003   19.1456  -31.2810 H   0  0  0  0  0  0  0  0  0  0  0  0
   -8.2773   20.3496  -33.9245 H   0  0  0  0  0  0  0  0  0  0  0  0
   -9.3982   21.1263  -32.7450 H   0  0  0  0  0  0  0  0  0  0  0  0
   -7.1077   24.4906  -31.9146 H   0  0  0  0  0  0  0  0  0  0  0  0
   -5.6233   25.9399  -30.5381 H   0  0  0  0  0  0  0  0  0  0  0  0
  1  2  1  0
  2  3  1  0
  3  4  2  0
  4  5  1  0
  5  6  2  0
  6  7  1  0
  7  8  1  0
  8  9  1  0
  9 10  3  0
  8 11  1  0
 11 12  1  0
 12 13  1  0
 13 14  1  0
 14 15  1  0
  6 16  1  0
 16 17  2  0
 17  3  1  0
 15  8  1  0
  1 18  1  0
  1 19  1  0
  1 20  1  0
  4 21  1  0
  5 22  1  0
  7 23  1  0
  7 24  1  0
 11 25  1  0
 11 26  1  0
 12 27  1  0
 12 28  1  0
 14 29  1  0
 14 30  1  0
 15 31  1  0
 15 32  1  0
 16 33  1  0
 17 34  1  0
M  CHG  1   7   1
M  END
>  <UniqueID>  (11) 
11

>  <SMILES>  (11) 
COc1ccc([NH2+]C2(C#N)CCOCC2)cc1

>  <Energy>  (11) 
51.44446932064204

>  <Genealogy>  (11) 
COc1ccc([NH2+]C2(C#N)CCOCC2)cc1 (protonated)
COc1ccc([NH2+]C2(C#N)CCOCC2)cc1 (3D coordinates assigned)
COc1ccc([NH2+]C2(C#N)CCOCC2)cc1 (nonaromatic ring conformer: 51.44446932064204 kcal/mol)

>  <smiles>  (11) 
COc1ccc(NC2(C#N)CCOCC2)cc1

>  <score_type>  (11) 
oracle

>  <origin>  (11) 
adg

>  <m_score__min__energy>  (11) 
-5.9500000000000002

>  <m_primary>  (11) 
energy

$$$$
11:0
     RDKit          3D

 37 38  0  0  0  0  0  0  0  0999 V2000
   -9.3600   21.6170  -30.9070 C   0  0  0  0  0  0  0  0  0  0  0  0
   -8.7430   22.5200  -31.9710 C   0  0  0  0  0  0  0  0  0  0  0  0
   -7.3140   22.7200  -31.7100 N   0  0  0  0  0  0  0  0  0  0  0  0
   -6.8200   23.6280  -30.8460 C   0  0  0  0  0  0  0  0  0  0  0  0
   -5.4400   23.6020  -30.8790 C   0  0  0  0  0  0  0  0  0  0  0  0
   -4.5880   24.3980  -30.0440 N   0  0  0  0  0  0  0  0  0  0  0  0
   -3.8550   25.2810  -30.5340 O   0  0  0  0  0  0  0  0  0  0  0  0
   -4.4680   24.0990  -28.7070 O   0  0  0  0  0  0  0  0  0  0  0  0
   -5.0620   22.6360  -31.8060 C   0  0  0  0  0  0  0  0  0  0  0  0
   -3.6900   22.3030  -32.2320 C   0  0  0  0  0  0  0  0  0  0  0  0
   -2.7090   22.6940  -31.5430 O   0  0  0  0  0  0  0  0  0  0  0  0
   -3.4810   21.5590  -33.3960 O   0  0  0  0  0  0  0  0  0  0  0  0
   -2.3220   20.7590  -33.5970 C   0  0  0  0  0  0  0  0  0  0  0  0
   -6.2560   22.1080  -32.3010 C   0  0  0  0  0  0  0  0  0  0  0  0
   -6.3710   21.1340  -33.3620 N   0  0  0  0  0  0  0  0  0  0  0  0
   -6.4100   19.7940  -32.8270 C   0  0  0  0  0  0  0  0  0  0  0  0
   -7.6070   19.2670  -32.3050 C   0  0  0  0  0  0  0  0  0  0  0  0
   -7.6460   17.9650  -31.7970 C   0  0  0  0  0  0  0  0  0  0  0  0
   -6.4980   17.1710  -31.8180 C   0  0  0  0  0  0  0  0  0  0  0  0
   -5.3090   17.6740  -32.3540 C   0  0  0  0  0  0  0  0  0  0  0  0
   -5.2650   18.9750  -32.8630 C   0  0  0  0  0  0  0  0  0  0  0  0
   -9.1003   21.9971  -29.9080 H   0  0  0  0  0  0  0  0  0  0  0  0
  -10.4538   21.6081  -31.0230 H   0  0  0  0  0  0  0  0  0  0  0  0
   -8.9707   20.5948  -31.0230 H   0  0  0  0  0  0  0  0  0  0  0  0
   -8.8685   22.0530  -32.9590 H   0  0  0  0  0  0  0  0  0  0  0  0
   -9.2490   23.4964  -31.9456 H   0  0  0  0  0  0  0  0  0  0  0  0
   -7.4252   24.2906  -30.2098 H   0  0  0  0  0  0  0  0  0  0  0  0
   -1.9027   20.4696  -32.6221 H   0  0  0  0  0  0  0  0  0  0  0  0
   -2.5938   19.8553  -34.1622 H   0  0  0  0  0  0  0  0  0  0  0  0
   -1.5734   21.3336  -34.1622 H   0  0  0  0  0  0  0  0  0  0  0  0
   -5.5690   21.2570  -34.0230 H   0  0  0  0  0  0  0  0  0  0  0  0
   -7.2370   21.2870  -33.9220 H   0  0  0  0  0  0  0  0  0  0  0  0
   -8.5176   19.8840  -32.2969 H   0  0  0  0  0  0  0  0  0  0  0  0
   -8.5825   17.5658  -31.3803 H   0  0  0  0  0  0  0  0  0  0  0  0
   -6.5291   16.1489  -31.4125 H   0  0  0  0  0  0  0  0  0  0  0  0
   -4.4068   17.0451  -32.3752 H   0  0  0  0  0  0  0  0  0  0  0  0
   -4.3299   19.3616  -33.2945 H   0  0  0  0  0  0  0  0  0  0  0  0
  1  2  1  0
  2  3  1  0
  3  4  1  0
  4  5  2  0
  5  6  1  0
  6  7  2  0
  6  8  1  0
  5  9  1  0
  9 10  1  0
 10 11  2  0
 10 12  1  0
 12 13  1  0
  9 14  2  0
 14 15  1  0
 15 16  1  0
 16 17  2  0
 17 18  1  0
 18 19  2  0
 19 20  1  0
 20 21  2  0
 14  3  1  0
 21 16  1  0
  1 22  1  0
  1 23  1  0
  1 24  1  0
  2 25  1  0
  2 26  1  0
  4 27  1  0
 13 28  1  0
 13 29  1  0
 13 30  1  0
 15 31  1  0
 15 32  1  0
 17 33  1  0
 18 34  1  0
 19 35  1  0
 20 36  1  0
 21 37  1  0
M  CHG  3   6   1   8  -1  15   1
M  END
>  <UniqueID>  (12) 
12

>  <SMILES>  (12) 
CCn1cc([N+](=O)[O-])c(C(=O)OC)c1[NH2+]c1ccccc1

>  <Energy>  (12) 
66.48215365618675

>  <Genealogy>  (12) 
CCn1cc([N+](=O)[O-])c(C(=O)OC)c1[NH2+]c1ccccc1 (protonated)
CCn1cc([N+](=O)[O-])c(C(=O)OC)c1[NH2+]c1ccccc1 (3D coordinates assigned)
CCn1cc([N+](=O)[O-])c(C(=O)OC)c1[NH2+]c1ccccc1 (optimized conformer: 66.48215365618675 kcal/mol)

>  <smiles>  (12) 
CCn1cc([N+](=O)[O-])c(C(=O)OC)c1Nc1ccccc1

>  <score_type>  (12) 
oracle

>  <origin>  (12) 
adg

>  <m_score__min__energy>  (12) 
-6.46

>  <m_primary>  (12) 
energy

$$$$
12:0
     RDKit          3D

 32 33  0  0  0  0  0  0  0  0999 V2000
   -7.2480   25.6800  -29.3410 N   0  0  0  0  0  0  0  0  0  0  0  0
   -6.4090   25.0510  -30.0880 C   0  0  0  0  0  0  0  0  0  0  0  0
   -5.1300   25.3650  -30.3970 N   0  0  0  0  0  0  0  0  0  0  0  0
   -4.6150   24.4440  -31.2040 N   0  0  0  0  0  0  0  0  0  0  0  0
   -5.5250   23.4900  -31.4590 C   0  0  0  0  0  0  0  0  0  0  0  0
   -5.4770   22.3430  -32.2240 C   0  0  0  0  0  0  0  0  0  0  0  0
   -4.2880   21.9600  -32.9520 N   0  0  0  0  0  0  0  0  0  0  0  0
   -3.3110   21.2110  -32.2500 C   0  0  0  0  0  0  0  0  0  0  0  0
   -2.1910   22.0260  -31.7250 C   0  0  0  0  0  0  0  0  0  0  0  0
   -2.4330   23.0160  -30.8460 O   0  0  0  0  0  0  0  0  0  0  0  0
   -2.1860   22.8660  -29.5260 C   0  0  0  0  0  0  0  0  0  0  0  0
   -2.6640   24.0850  -28.7110 C   0  0  0  0  0  0  0  0  0  0  0  0
   -2.3700   25.2460  -29.3970 F   0  0  0  0  0  0  0  0  0  0  0  0
   -6.6260   21.5780  -32.2610 C   0  0  0  0  0  0  0  0  0  0  0  0
   -7.7670   21.9300  -31.5730 C   0  0  0  0  0  0  0  0  0  0  0  0
   -7.7870   23.0810  -30.8150 C   0  0  0  0  0  0  0  0  0  0  0  0
   -6.6530   23.8700  -30.7590 C   0  0  0  0  0  0  0  0  0  0  0  0
   -6.8790   26.5110  -28.8090 H   0  0  0  0  0  0  0  0  0  0  0  0
   -4.6650   26.2290  -30.0220 H   0  0  0  0  0  0  0  0  0  0  0  0
   -3.6410   24.4610  -31.5850 H   0  0  0  0  0  0  0  0  0  0  0  0
   -4.2550   22.2990  -33.9330 H   0  0  0  0  0  0  0  0  0  0  0  0
   -3.8018   20.7104  -31.4024 H   0  0  0  0  0  0  0  0  0  0  0  0
   -2.8780   20.4994  -32.9684 H   0  0  0  0  0  0  0  0  0  0  0  0
   -1.4942   21.3299  -31.2352 H   0  0  0  0  0  0  0  0  0  0  0  0
   -1.8291   22.5614  -32.6152 H   0  0  0  0  0  0  0  0  0  0  0  0
   -2.7106   21.9689  -29.1654 H   0  0  0  0  0  0  0  0  0  0  0  0
   -1.0986   22.7697  -29.3907 H   0  0  0  0  0  0  0  0  0  0  0  0
   -3.7508   24.0174  -28.5550 H   0  0  0  0  0  0  0  0  0  0  0  0
   -2.1517   24.0967  -27.7376 H   0  0  0  0  0  0  0  0  0  0  0  0
   -6.6307   20.6557  -32.8604 H   0  0  0  0  0  0  0  0  0  0  0  0
   -8.6617   21.2925  -31.6288 H   0  0  0  0  0  0  0  0  0  0  0  0
   -8.6934   23.3681  -30.2618 H   0  0  0  0  0  0  0  0  0  0  0  0
  1  2  2  3
  2  3  1  0
  3  4  1  0
  4  5  1  0
  5  6  2  0
  6  7  1  0
  7  8  1  0
  8  9  1  0
  9 10  1  0
 10 11  1  0
 11 12  1  0
 12 13  1  0
  6 14  1  0
 14 15  2  0
 15 16  1  0
 16 17  2  0
 17  2  1  0
 17  5  1  0
  1 18  1  0
  3 19  1  0
  4 20  1  0
  7 21  1  0
  8 22  1  0
  8 23  1  0
  9 24  1  0
  9 25  1  0
 11 26  1  0
 11 27  1  0
 12 28  1  0
 12 29  1  0
 14 30  1  0
 15 31  1  0
 16 32  1  0
M  END
>  <smiles>  (13) 
N=c1[nH][nH]c2c(NCCOCCF)cccc12

>  <score_type>  (13) 
oracle

>  <origin>  (13) 
adg

>  <m_score__min__energy>  (13) 
-6.4199999999999999

>  <m_primary>  (13) 
energy

$$$$
13:0
     RDKit          3D

 54 56  0  0  0  0  0  0  0  0999 V2000
   -2.1390   19.4390  -33.8330 C   0  0  0  0  0  0  0  0  0  0  0  0
   -2.4670   19.3110  -32.3500 C   0  0  0  0  0  0  0  0  0  0  0  0
   -2.7950   20.6160  -31.7810 N   0  0  0  0  0  0  0  0  0  0  0  0
   -1.9230   21.2960  -30.8610 C   0  0  0  0  0  0  0  0  0  0  0  0
   -0.8980   20.6990  -30.4290 O   0  0  0  0  0  0  0  0  0  0  0  0
   -2.2030   22.6460  -30.4310 N   0  0  0  0  0  0  0  0  0  0  0  0
   -1.2450   23.3740  -29.5830 C   0  0  0  0  0  0  0  0  0  0  0  0
   -1.8830   24.6230  -28.9610 C   0  0  0  0  0  0  0  0  0  0  0  0
   -3.2900   24.2820  -28.4580 C   0  0  0  0  0  0  0  0  0  0  0  0
   -4.2560   23.8310  -29.6100 C   0  0  0  0  0  0  0  0  0  0  0  0
   -5.1310   25.0420  -30.0370 C   0  0  0  0  0  0  0  0  0  0  0  0
   -6.1160   24.6730  -31.1600 C   0  0  0  0  0  0  0  0  0  0  0  0
   -6.6850   23.3320  -30.9650 N   0  0  0  0  0  0  0  0  0  0  0  0
   -7.5500   22.7920  -31.9840 C   0  0  0  0  0  0  0  0  0  0  0  0
   -8.2460   23.5780  -32.6810 O   0  0  0  0  0  0  0  0  0  0  0  0
   -7.6290   21.3340  -32.2510 C   0  0  0  0  0  0  0  0  0  0  0  0
   -8.6810   20.5620  -31.7300 C   0  0  0  0  0  0  0  0  0  0  0  0
   -8.7320   19.1860  -31.9630 C   0  0  0  0  0  0  0  0  0  0  0  0
   -7.7350   18.5640  -32.7170 C   0  0  0  0  0  0  0  0  0  0  0  0
   -6.6800   19.3190  -33.2490 C   0  0  0  0  0  0  0  0  0  0  0  0
   -5.5840   18.6440  -34.0200 C   0  0  0  0  0  0  0  0  0  0  0  0
   -6.6200   20.6980  -32.9970 C   0  0  0  0  0  0  0  0  0  0  0  0
   -6.6280   22.7210  -29.6310 C   0  0  0  0  0  0  0  0  0  0  0  0
   -5.1850   22.6810  -29.0880 C   0  0  0  0  0  0  0  0  0  0  0  0
   -3.4370   23.3310  -30.8470 C   0  0  0  0  0  0  0  0  0  0  0  0
   -1.1201   19.8366  -33.9502 H   0  0  0  0  0  0  0  0  0  0  0  0
   -2.2036   18.4497  -34.3095 H   0  0  0  0  0  0  0  0  0  0  0  0
   -2.8566   20.1231  -34.3095 H   0  0  0  0  0  0  0  0  0  0  0  0
   -3.3272   18.6365  -32.2270 H   0  0  0  0  0  0  0  0  0  0  0  0
   -1.5882   18.9067  -31.8262 H   0  0  0  0  0  0  0  0  0  0  0  0
   -3.7310   21.0210  -32.0090 H   0  0  0  0  0  0  0  0  0  0  0  0
   -0.9027   22.7081  -28.7771 H   0  0  0  0  0  0  0  0  0  0  0  0
   -0.4005   23.6935  -30.2112 H   0  0  0  0  0  0  0  0  0  0  0  0
   -1.2662   24.9687  -28.1183 H   0  0  0  0  0  0  0  0  0  0  0  0
   -1.9474   25.4177  -29.7189 H   0  0  0  0  0  0  0  0  0  0  0  0
   -3.2127   23.4658  -27.7246 H   0  0  0  0  0  0  0  0  0  0  0  0
   -3.7116   25.1943  -28.0109 H   0  0  0  0  0  0  0  0  0  0  0  0
   -5.7020   25.3929  -29.1647 H   0  0  0  0  0  0  0  0  0  0  0  0
   -4.4617   25.8282  -30.4164 H   0  0  0  0  0  0  0  0  0  0  0  0
   -6.9336   25.4087  -31.1730 H   0  0  0  0  0  0  0  0  0  0  0  0
   -5.5667   24.6772  -32.1130 H   0  0  0  0  0  0  0  0  0  0  0  0
   -9.4699   21.0448  -31.1345 H   0  0  0  0  0  0  0  0  0  0  0  0
   -9.5601   18.5904  -31.5513 H   0  0  0  0  0  0  0  0  0  0  0  0
   -7.7773   17.4792  -32.8941 H   0  0  0  0  0  0  0  0  0  0  0  0
   -4.8624   18.1996  -33.3187 H   0  0  0  0  0  0  0  0  0  0  0  0
   -6.0140   17.8540  -34.6533 H   0  0  0  0  0  0  0  0  0  0  0  0
   -5.0721   19.3835  -34.6533 H   0  0  0  0  0  0  0  0  0  0  0  0
   -5.7765   21.2871  -33.3862 H   0  0  0  0  0  0  0  0  0  0  0  0
   -7.2529   23.3083  -28.9420 H   0  0  0  0  0  0  0  0  0  0  0  0
   -6.9958   21.6873  -29.7092 H   0  0  0  0  0  0  0  0  0  0  0  0
   -5.2298   22.7482  -27.9910 H   0  0  0  0  0  0  0  0  0  0  0  0
   -4.7444   21.7390  -29.4465 H   0  0  0  0  0  0  0  0  0  0  0  0
   -4.0565   22.6317  -31.4277 H   0  0  0  0  0  0  0  0  0  0  0  0
   -3.1604   24.2044  -31.4557 H   0  0  0  0  0  0  0  0  0  0  0  0
  1  2  1  0
  2  3  1  0
  3  4  1  0
  4  5  2  0
  4  6  1  0
  6  7  1  0
  7  8  1  0
  8  9  1  0
  9 10  1  0
 10 11  1  0
 11 12  1  0
 12 13  1  0
 13 14  1  0
 14 15  2  0
 14 16  1  0
 16 17  2  0
 17 18  1  0
 18 19  2  0
 19 20  1  0
 20 21  1  0
 20 22  2  0
 13 23  1  0
 23 24  1  0
 10 25  1  0
 25  6  1  0
 24 10  1  0
 22 16  1  0
  1 26  1  0
  1 27  1  0
  1 28  1  0
  2 29  1  0
  2 30  1  0
  3 31  1  0
  7 32  1  0
  7 33  1  0
  8 34  1  0
  8 35  1  0
  9 36  1  0
  9 37  1  0
 11 38  1  0
 11 39  1  0
 12 40  1  0
 12 41  1  0
 17 42  1  0
 18 43  1  0
 19 44  1  0
 21 45  1  0
 21 46  1  0
 21 47  1  0
 22 48  1  0
 23 49  1  0
 23 50  1  0
 24 51  1  0
 24 52  1  0
 25 53  1  0
 25 54  1  0
M  END
>  <UniqueID>  (14) 
13

>  <SMILES>  (14) 
CCNC(=O)N1CCCC2(CCN(C(=O)c3cccc(C)c3)CC2)C1

>  <Energy>  (14) 
61.92747589066428

>  <Genealogy>  (14) 
CCNC(=O)N1CCCC2(CCN(C(=O)c3cccc(C)c3)CC2)C1 (3D coordinates assigned)
CCNC(=O)N1CCCC2(CCN(C(=O)c3cccc(C)c3)CC2)C1 (nonaromatic ring conformer: 61.92747589066428 kcal/mol)

>  <smiles>  (14) 
CCNC(=O)N1CCCC2(CCN(C(=O)c3cccc(C)c3)CC2)C1

>  <score_type>  (14) 
oracle

>  <origin>  (14) 
adg

>  <m_score__min__energy>  (14) 
-8.25

>  <m_primary>  (14) 
energy

$$$$
14:0
     RDKit          3D

 37 38  0  0  0  0  0  0  0  0999 V2000
   -2.4920   23.4180  -29.7730 C   0  0  0  0  0  0  0  0  0  0  0  0
   -3.8620   23.2680  -29.2450 N   0  0  0  0  0  0  0  0  0  0  0  0
   -3.8710   22.2400  -28.1880 C   0  0  0  0  0  0  0  0  0  0  0  0
   -4.3860   24.5470  -28.7060 C   0  0  0  0  0  0  0  0  0  0  0  0
   -5.7290   24.9480  -29.3430 C   0  0  0  0  0  0  0  0  0  0  0  0
   -5.5530   25.3030  -30.8230 C   0  0  0  0  0  0  0  0  0  0  0  0
   -5.3420   24.1260  -31.6030 O   0  0  0  0  0  0  0  0  0  0  0  0
   -6.2550   23.0680  -31.7510 C   0  0  0  0  0  0  0  0  0  0  0  0
   -7.6290   23.2030  -31.4680 C   0  0  0  0  0  0  0  0  0  0  0  0
   -8.4950   22.1180  -31.6310 C   0  0  0  0  0  0  0  0  0  0  0  0
   -8.0050   20.8830  -32.0770 C   0  0  0  0  0  0  0  0  0  0  0  0
   -8.8670   19.7880  -32.2440 C   0  0  0  0  0  0  0  0  0  0  0  0
   -8.3640   18.5610  -32.6860 C   0  0  0  0  0  0  0  0  0  0  0  0
   -7.0020   18.4190  -32.9650 C   0  0  0  0  0  0  0  0  0  0  0  0
   -6.1330   19.5020  -32.8020 C   0  0  0  0  0  0  0  0  0  0  0  0
   -6.6260   20.7390  -32.3580 C   0  0  0  0  0  0  0  0  0  0  0  0
   -5.7650   21.8330  -32.1900 C   0  0  0  0  0  0  0  0  0  0  0  0
   -1.7828   23.4956  -28.9357 H   0  0  0  0  0  0  0  0  0  0  0  0
   -2.2383   22.5423  -30.3884 H   0  0  0  0  0  0  0  0  0  0  0  0
   -2.4338   24.3279  -30.3884 H   0  0  0  0  0  0  0  0  0  0  0  0
   -4.4840   22.9340  -30.0190 H   0  0  0  0  0  0  0  0  0  0  0  0
   -3.8667   22.7278  -27.2021 H   0  0  0  0  0  0  0  0  0  0  0  0
   -4.7746   21.6205  -28.2867 H   0  0  0  0  0  0  0  0  0  0  0  0
   -2.9784   21.6048  -28.2867 H   0  0  0  0  0  0  0  0  0  0  0  0
   -4.5281   24.4407  -27.6204 H   0  0  0  0  0  0  0  0  0  0  0  0
   -3.6551   25.3343  -28.9426 H   0  0  0  0  0  0  0  0  0  0  0  0
   -6.4330   24.1072  -29.2564 H   0  0  0  0  0  0  0  0  0  0  0  0
   -6.1160   25.8321  -28.8152 H   0  0  0  0  0  0  0  0  0  0  0  0
   -6.4576   25.8161  -31.1812 H   0  0  0  0  0  0  0  0  0  0  0  0
   -4.6757   25.9583  -30.9274 H   0  0  0  0  0  0  0  0  0  0  0  0
   -8.0224   24.1683  -31.1166 H   0  0  0  0  0  0  0  0  0  0  0  0
   -9.5659   22.2340  -31.4082 H   0  0  0  0  0  0  0  0  0  0  0  0
   -9.9400   19.8956  -32.0267 H   0  0  0  0  0  0  0  0  0  0  0  0
   -9.0423   17.7046  -32.8146 H   0  0  0  0  0  0  0  0  0  0  0  0
   -6.6122   17.4515  -33.3142 H   0  0  0  0  0  0  0  0  0  0  0  0
   -5.0616   19.3846  -33.0220 H   0  0  0  0  0  0  0  0  0  0  0  0
   -4.6924   21.7191  -32.4057 H   0  0  0  0  0  0  0  0  0  0  0  0
  1  2  1  0
  2  3  1  0
  2  4  1  0
  4  5  1  0
  5  6  1  0
  6  7  1  0
  7  8  1  0
  8  9  2  0
  9 10  1  0
 10 11  2  0
 11 12  1  0
 12 13  2  0
 13 14  1  0
 14 15  2  0
 15 16  1  0
 16 17  2  0
 17  8  1  0
 16 11  1  0
  1 18  1  0
  1 19  1  0
  1 20  1  0
  2 21  1  0
  3 22  1  0
  3 23  1  0
  3 24  1  0
  4 25  1  0
  4 26  1  0
  5 27  1  0
  5 28  1  0
  6 29  1  0
  6 30  1  0
  9 31  1  0
 10 32  1  0
 12 33  1  0
 13 34  1  0
 14 35  1  0
 15 36  1  0
 17 37  1  0
M  CHG  1   2   1
M  END
>  <UniqueID>  (15) 
14

>  <SMILES>  (15) 
C[NH+](C)CCCOc1ccc2ccccc2c1

>  <Energy>  (15) 
37.752287991349974

>  <Genealogy>  (15) 
C[NH+](C)CCCOc1ccc2ccccc2c1 (protonated)
C[NH+](C)CCCOc1ccc2ccccc2c1 (3D coordinates assigned)
C[NH+](C)CCCOc1ccc2ccccc2c1 (optimized conformer: 37.752287991349974 kcal/mol)

>  <smiles>  (15) 
CN(C)CCCOc1ccc2ccccc2c1

>  <score_type>  (15) 
oracle

>  <origin>  (15) 
adg

>  <m_score__min__energy>  (15) 
-6.4500000000000002

>  <m_primary>  (15) 
energy

$$$$
15:0
     RDKit          3D

 42 44  0  0  0  0  0  0  0  0999 V2000
   -4.7640   17.1580  -34.9190 C   0  0  0  0  0  0  0  0  0  0  0  0
   -5.7220   17.8350  -33.9850 C   0  0  0  0  0  0  0  0  0  0  0  0
   -6.0880   19.1730  -34.1930 C   0  0  0  0  0  0  0  0  0  0  0  0
   -6.9530   19.8140  -33.3020 C   0  0  0  0  0  0  0  0  0  0  0  0
   -7.4560   19.1370  -32.1850 C   0  0  0  0  0  0  0  0  0  0  0  0
   -8.3270   19.8270  -31.3260 O   0  0  0  0  0  0  0  0  0  0  0  0
   -8.9370   21.0860  -31.6070 C   0  0  0  0  0  0  0  0  0  0  0  0
   -7.9930   22.2200  -31.3040 C   0  0  0  0  0  0  0  0  0  0  0  0
   -7.4200   22.9560  -32.3510 C   0  0  0  0  0  0  0  0  0  0  0  0
   -6.5390   24.0070  -32.0780 C   0  0  0  0  0  0  0  0  0  0  0  0
   -6.2080   24.3340  -30.7500 C   0  0  0  0  0  0  0  0  0  0  0  0
   -5.2790   25.4510  -30.4580 C   0  0  0  0  0  0  0  0  0  0  0  0
   -5.7310   26.5730  -30.1050 O   0  0  0  0  0  0  0  0  0  0  0  0
   -3.8630   25.2590  -30.5720 N   0  0  0  0  0  0  0  0  0  0  0  0
   -3.1190   24.2640  -29.8100 C   0  0  0  0  0  0  0  0  0  0  0  0
   -2.2920   24.9300  -28.7590 C   0  0  0  0  0  0  0  0  0  0  0  0
   -2.1670   24.5160  -27.4480 C   0  0  0  0  0  0  0  0  0  0  0  0
   -1.2960   25.4070  -26.8600 C   0  0  0  0  0  0  0  0  0  0  0  0
   -0.9420   26.3050  -27.8460 C   0  0  0  0  0  0  0  0  0  0  0  0
   -1.5510   25.9940  -28.9680 O   0  0  0  0  0  0  0  0  0  0  0  0
   -6.7750   23.5830  -29.7050 C   0  0  0  0  0  0  0  0  0  0  0  0
   -7.6550   22.5330  -29.9800 C   0  0  0  0  0  0  0  0  0  0  0  0
   -7.0700   17.8000  -31.9630 C   0  0  0  0  0  0  0  0  0  0  0  0
   -6.2050   17.1590  -32.8550 C   0  0  0  0  0  0  0  0  0  0  0  0
   -4.0022   16.6196  -34.3361 H   0  0  0  0  0  0  0  0  0  0  0  0
   -5.3118   16.4454  -35.5531 H   0  0  0  0  0  0  0  0  0  0  0  0
   -4.2752   17.9123  -35.5531 H   0  0  0  0  0  0  0  0  0  0  0  0
   -5.6924   19.7202  -35.0614 H   0  0  0  0  0  0  0  0  0  0  0  0
   -7.2413   20.8605  -33.4802 H   0  0  0  0  0  0  0  0  0  0  0  0
   -9.2141   21.1225  -32.6709 H   0  0  0  0  0  0  0  0  0  0  0  0
   -9.8299   21.1932  -30.9736 H   0  0  0  0  0  0  0  0  0  0  0  0
   -7.6651   22.7050  -33.3936 H   0  0  0  0  0  0  0  0  0  0  0  0
   -6.1016   24.5823  -32.9073 H   0  0  0  0  0  0  0  0  0  0  0  0
   -3.8258   23.5706  -29.3307 H   0  0  0  0  0  0  0  0  0  0  0  0
   -2.4554   23.7126  -30.4923 H   0  0  0  0  0  0  0  0  0  0  0  0
   -2.6596   23.6551  -26.9724 H   0  0  0  0  0  0  0  0  0  0  0  0
   -0.9521   25.4032  -25.8151 H   0  0  0  0  0  0  0  0  0  0  0  0
   -0.2541   27.1529  -27.7129 H   0  0  0  0  0  0  0  0  0  0  0  0
   -6.5235   23.8243  -28.6617 H   0  0  0  0  0  0  0  0  0  0  0  0
   -8.0849   21.9488  -29.1530 H   0  0  0  0  0  0  0  0  0  0  0  0
   -7.4507   17.2585  -31.0844 H   0  0  0  0  0  0  0  0  0  0  0  0
   -5.9014   16.1181  -32.6694 H   0  0  0  0  0  0  0  0  0  0  0  0
  1  2  1  0
  2  3  2  0
  3  4  1  0
  4  5  2  0
  5  6  1  0
  6  7  1  0
  7  8  1  0
  8  9  2  0
  9 10  1  0
 10 11  2  0
 11 12  1  0
 12 13  2  0
 12 14  1  0
 14 15  1  0
 15 16  1  0
 16 17  2  0
 17 18  1  0
 18 19  2  0
 19 20  1  0
 11 21  1  0
 21 22  2  0
  5 23  1  0
 23 24  2  0
 24  2  1  0
 22  8  1  0
 20 16  1  0
  1 25  1  0
  1 26  1  0
  1 27  1  0
  3 28  1  0
  4 29  1  0
  7 30  1  0
  7 31  1  0
  9 32  1  0
 10 33  1  0
 15 34  1  0
 15 35  1  0
 17 36  1  0
 18 37  1  0
 19 38  1  0
 21 39  1  0
 22 40  1  0
 23 41  1  0
 24 42  1  0
M  CHG  1  14  -1
M  END
>  <UniqueID>  (16) 
15

>  <SMILES>  (16) 
Cc1ccc(OCc2ccc(C(=O)[N-]Cc3ccco3)cc2)cc1

>  <Energy>  (16) 
66.8557025950576

>  <Genealogy>  (16) 
Cc1ccc(OCc2ccc(C(=O)[N-]Cc3ccco3)cc2)cc1 (protonated)
Cc1ccc(OCc2ccc(C(=O)[N-]Cc3ccco3)cc2)cc1 (3D coordinates assigned)
Cc1ccc(OCc2ccc(C(=O)[N-]Cc3ccco3)cc2)cc1 (optimized conformer: 66.8557025950576 kcal/mol)

>  <smiles>  (16) 
Cc1ccc(OCc2ccc(C(=O)NCc3ccco3)cc2)cc1

>  <score_type>  (16) 
oracle

>  <origin>  (16) 
adg

>  <m_score__min__energy>  (16) 
-11.49

>  <m_primary>  (16) 
energy

$$$$
16:0
     RDKit          3D

 38 40  0  0  0  0  0  0  0  0999 V2000
   -6.5710   13.4000  -34.5450 C   0  0  0  0  0  0  0  0  0  0  0  0
   -5.5670   14.4020  -34.6650 O   0  0  0  0  0  0  0  0  0  0  0  0
   -5.7460   15.7100  -34.2070 C   0  0  0  0  0  0  0  0  0  0  0  0
   -4.8440   16.6840  -34.5040 N   0  0  0  0  0  0  0  0  0  0  0  0
   -5.0140   17.9570  -34.0640 C   0  0  0  0  0  0  0  0  0  0  0  0
   -6.1310   18.2900  -33.2840 C   0  0  0  0  0  0  0  0  0  0  0  0
   -6.3390   19.6750  -32.7880 C   0  0  0  0  0  0  0  0  0  0  0  0
   -7.6240   20.2430  -32.7600 C   0  0  0  0  0  0  0  0  0  0  0  0
   -7.8130   21.5110  -32.3040 N   0  0  0  0  0  0  0  0  0  0  0  0
   -6.7740   22.2740  -31.8610 C   0  0  0  0  0  0  0  0  0  0  0  0
   -6.9940   23.5790  -31.3960 C   0  0  0  0  0  0  0  0  0  0  0  0
   -5.9200   24.3670  -30.9400 C   0  0  0  0  0  0  0  0  0  0  0  0
   -6.1060   25.6770  -30.4680 O   0  0  0  0  0  0  0  0  0  0  0  0
   -6.4930   26.0080  -29.1380 C   0  0  0  0  0  0  0  0  0  0  0  0
   -4.6180   23.8430  -30.9490 C   0  0  0  0  0  0  0  0  0  0  0  0
   -3.5710   24.6570  -30.4870 O   0  0  0  0  0  0  0  0  0  0  0  0
   -2.7860   24.3850  -29.3310 C   0  0  0  0  0  0  0  0  0  0  0  0
   -4.3950   22.5330  -31.4150 C   0  0  0  0  0  0  0  0  0  0  0  0
   -5.4650   21.7490  -31.8680 C   0  0  0  0  0  0  0  0  0  0  0  0
   -5.2570   20.4460  -32.3340 C   0  0  0  0  0  0  0  0  0  0  0  0
   -7.0460   17.2680  -32.9890 C   0  0  0  0  0  0  0  0  0  0  0  0
   -6.8360   16.0090  -33.4560 N   0  0  0  0  0  0  0  0  0  0  0  0
   -6.7677   13.2037  -33.4807 H   0  0  0  0  0  0  0  0  0  0  0  0
   -7.4950   13.7467  -35.0308 H   0  0  0  0  0  0  0  0  0  0  0  0
   -6.2261   12.4753  -35.0308 H   0  0  0  0  0  0  0  0  0  0  0  0
   -4.2737   18.7293  -34.3199 H   0  0  0  0  0  0  0  0  0  0  0  0
   -8.4861   19.6564  -33.1104 H   0  0  0  0  0  0  0  0  0  0  0  0
   -8.7860   21.8940  -32.2970 H   0  0  0  0  0  0  0  0  0  0  0  0
   -8.0142   23.9902  -31.3875 H   0  0  0  0  0  0  0  0  0  0  0  0
   -5.8566   25.4637  -28.4247 H   0  0  0  0  0  0  0  0  0  0  0  0
   -6.3769   27.0905  -28.9810 H   0  0  0  0  0  0  0  0  0  0  0  0
   -7.5444   25.7254  -28.9810 H   0  0  0  0  0  0  0  0  0  0  0  0
   -3.3796   24.5907  -28.4280 H   0  0  0  0  0  0  0  0  0  0  0  0
   -2.4800   23.3284  -29.3359 H   0  0  0  0  0  0  0  0  0  0  0  0
   -1.8919   25.0257  -29.3359 H   0  0  0  0  0  0  0  0  0  0  0  0
   -3.3746   22.1223  -31.4236 H   0  0  0  0  0  0  0  0  0  0  0  0
   -4.2413   20.0239  -32.3447 H   0  0  0  0  0  0  0  0  0  0  0  0
   -7.9348   17.4861  -32.3787 H   0  0  0  0  0  0  0  0  0  0  0  0
  1  2  1  0
  2  3  1  0
  3  4  2  0
  4  5  1  0
  5  6  2  0
  6  7  1  0
  7  8  2  0
  8  9  1  0
  9 10  2  0
 10 11  1  0
 11 12  2  0
 12 13  1  0
 13 14  1  0
 12 15  1  0
 15 16  1  0
 16 17  1  0
 15 18  2  0
 18 19  1  0
 19 20  2  0
  6 21  1  0
 21 22  2  0
 22  3  1  0
 20  7  1  0
 19 10  1  0
  1 23  1  0
  1 24  1  0
  1 25  1  0
  5 26  1  0
  8 27  1  0
  9 28  1  0
 11 29  1  0
 14 30  1  0
 14 31  1  0
 14 32  1  0
 17 33  1  0
 17 34  1  0
 17 35  1  0
 18 36  1  0
 20 37  1  0
 21 38  1  0
M  CHG  1   9   1
M  END
>  <UniqueID>  (17) 
16

>  <SMILES>  (17) 
COc1ncc(-c2c[nH+]c3cc(OC)c(OC)cc3c2)cn1

>  <Energy>  (17) 
46.709068615543586

>  <Genealogy>  (17) 
COc1ncc(-c2c[nH+]c3cc(OC)c(OC)cc3c2)cn1 (protonated)
COc1ncc(-c2c[nH+]c3cc(OC)c(OC)cc3c2)cn1 (3D coordinates assigned)
COc1ncc(-c2c[nH+]c3cc(OC)c(OC)cc3c2)cn1 (optimized conformer: 46.709068615543586 kcal/mol)

>  <smiles>  (17) 
COc1ncc(-c2cnc3cc(OC)c(OC)cc3c2)cn1

>  <score_type>  (17) 
oracle

>  <origin>  (17) 
adg

>  <m_score__min__energy>  (17) 
-6.0199999999999996

>  <m_primary>  (17) 
energy

$$$$
17:0
     RDKit          3D

 44 46  0  0  0  0  0  0  0  0999 V2000
    1.7580   24.3830  -27.1430 C   0  0  0  0  0  0  0  0  0  0  0  0
    0.6660   24.1900  -28.1080 N   0  0  0  0  0  0  0  0  0  0  0  0
   -0.5410   24.9210  -27.6660 C   0  0  0  0  0  0  0  0  0  0  0  0
   -1.6270   24.8980  -28.7580 C   0  0  0  0  0  0  0  0  0  0  0  0
   -1.7780   23.5240  -29.3620 C   0  0  0  0  0  0  0  0  0  0  0  0
   -0.8010   22.5590  -29.1600 C   0  0  0  0  0  0  0  0  0  0  0  0
   -1.1850   21.1680  -30.0120 S   0  0  0  0  0  0  0  0  0  0  0  0
   -2.5830   21.7970  -30.7170 C   0  0  0  0  0  0  0  0  0  0  0  0
   -3.4930   21.0500  -31.5420 N   0  0  0  0  0  0  0  0  0  0  0  0
   -3.1390   19.8420  -32.2320 C   0  0  0  0  0  0  0  0  0  0  0  0
   -1.9380   19.4640  -32.2930 O   0  0  0  0  0  0  0  0  0  0  0  0
   -4.1910   19.0620  -32.9600 C   0  0  0  0  0  0  0  0  0  0  0  0
   -5.2270   20.0060  -33.5750 C   0  0  0  0  0  0  0  0  0  0  0  0
   -6.5600   19.8440  -32.8950 C   0  0  0  0  0  0  0  0  0  0  0  0
   -7.0760   18.5610  -32.6440 C   0  0  0  0  0  0  0  0  0  0  0  0
   -8.3010   18.4120  -31.9830 C   0  0  0  0  0  0  0  0  0  0  0  0
   -9.0110   19.5400  -31.5620 C   0  0  0  0  0  0  0  0  0  0  0  0
   -8.4970   20.8180  -31.7970 C   0  0  0  0  0  0  0  0  0  0  0  0
   -7.2740   20.9720  -32.4560 C   0  0  0  0  0  0  0  0  0  0  0  0
   -2.7860   23.1110  -30.2680 C   0  0  0  0  0  0  0  0  0  0  0  0
   -3.8810   23.9780  -30.7620 C   0  0  0  0  0  0  0  0  0  0  0  0
   -3.8640   25.3830  -30.5310 N   0  0  0  0  0  0  0  0  0  0  0  0
   -4.8460   23.4740  -31.3970 O   0  0  0  0  0  0  0  0  0  0  0  0
    0.3750   22.7490  -28.2560 C   0  0  0  0  0  0  0  0  0  0  0  0
    1.3600   24.3127  -26.1200 H   0  0  0  0  0  0  0  0  0  0  0  0
    2.5219   23.6059  -27.2935 H   0  0  0  0  0  0  0  0  0  0  0  0
    2.2093   25.3748  -27.2935 H   0  0  0  0  0  0  0  0  0  0  0  0
   -0.9358   24.4472  -26.7551 H   0  0  0  0  0  0  0  0  0  0  0  0
   -0.2653   25.9669  -27.4659 H   0  0  0  0  0  0  0  0  0  0  0  0
   -2.5868   25.2000  -28.3134 H   0  0  0  0  0  0  0  0  0  0  0  0
   -1.3275   25.5936  -29.5558 H   0  0  0  0  0  0  0  0  0  0  0  0
   -4.4740   21.3930  -31.6380 H   0  0  0  0  0  0  0  0  0  0  0  0
   -3.7173   18.4736  -33.7596 H   0  0  0  0  0  0  0  0  0  0  0  0
   -4.6965   18.3940  -32.2471 H   0  0  0  0  0  0  0  0  0  0  0  0
   -4.8848   21.0447  -33.4571 H   0  0  0  0  0  0  0  0  0  0  0  0
   -5.3407   19.7619  -34.6415 H   0  0  0  0  0  0  0  0  0  0  0  0
   -6.5157   17.6715  -32.9678 H   0  0  0  0  0  0  0  0  0  0  0  0
   -8.7051   17.4064  -31.7948 H   0  0  0  0  0  0  0  0  0  0  0  0
   -9.9749   19.4216  -31.0454 H   0  0  0  0  0  0  0  0  0  0  0  0
   -9.0559   21.7045  -31.4627 H   0  0  0  0  0  0  0  0  0  0  0  0
   -6.8690   21.9796  -32.6316 H   0  0  0  0  0  0  0  0  0  0  0  0
   -3.4830   26.0410  -31.2470 H   0  0  0  0  0  0  0  0  0  0  0  0
    0.1499   22.3188  -27.2689 H   0  0  0  0  0  0  0  0  0  0  0  0
    1.2511   22.2446  -28.6896 H   0  0  0  0  0  0  0  0  0  0  0  0
  1  2  1  0
  2  3  1  0
  3  4  1  0
  4  5  1  0
  5  6  2  0
  6  7  1  0
  7  8  1  0
  8  9  1  0
  9 10  1  0
 10 11  2  0
 10 12  1  0
 12 13  1  0
 13 14  1  0
 14 15  2  0
 15 16  1  0
 16 17  2  0
 17 18  1  0
 18 19  2  0
  8 20  2  0
 20 21  1  0
 21 22  1  0
 21 23  2  0
  6 24  1  0
 24  2  1  0
 20  5  1  0
 19 14  1  0
  1 25  1  0
  1 26  1  0
  1 27  1  0
  3 28  1  0
  3 29  1  0
  4 30  1  0
  4 31  1  0
  9 32  1  0
 12 33  1  0
 12 34  1  0
 13 35  1  0
 13 36  1  0
 15 37  1  0
 16 38  1  0
 17 39  1  0
 18 40  1  0
 19 41  1  0
 22 42  1  0
 24 43  1  0
 24 44  1  0
M  CHG  1  22  -1
M  END
>  <UniqueID>  (18) 
17

>  <SMILES>  (18) 
CN1CCc2c(sc(NC(=O)CCc3ccccc3)c2C([NH-])=O)C1

>  <Energy>  (18) 
75.54451868355564

>  <Genealogy>  (18) 
CN1CCc2c(sc(NC(=O)CCc3ccccc3)c2C([NH-])=O)C1 (protonated)
CN1CCc2c(sc(NC(=O)CCc3ccccc3)c2C([NH-])=O)C1 (3D coordinates assigned)
CN1CCc2c(sc(NC(=O)CCc3ccccc3)c2C([NH-])=O)C1 (nonaromatic ring conformer: 75.54451868355564 kcal/mol)

>  <smiles>  (18) 
CN1CCc2c(sc(NC(=O)CCc3ccccc3)c2C(N)=O)C1

>  <score_type>  (18) 
oracle

>  <origin>  (18) 
adg

>  <m_score__min__energy>  (18) 
-11.08

>  <m_primary>  (18) 
energy

$$$$
18:0
     RDKit          3D

 43 46  0  0  0  0  0  0  0  0999 V2000
   -6.7018   24.8917  -30.2975 H   0  0  0  0  0  0  0  0  0  0  0  0
   -6.0080   24.3390  -30.9480 C   0  0  0  0  0  0  0  0  0  0  0  0
   -4.5800   24.3260  -30.5540 C   0  0  0  0  0  0  0  0  0  0  0  0
   -3.8790   25.3350  -30.8310 O   0  0  0  0  0  0  0  0  0  0  0  0
   -3.9380   23.1790  -29.8740 C   0  0  0  0  0  0  0  0  0  0  0  0
   -3.2310   22.2100  -30.6060 C   0  0  0  0  0  0  0  0  0  0  0  0
   -3.1199   22.3194  -31.6949 H   0  0  0  0  0  0  0  0  0  0  0  0
   -2.6680   21.1070  -29.9560 C   0  0  0  0  0  0  0  0  0  0  0  0
   -2.1236   20.3470  -30.5356 H   0  0  0  0  0  0  0  0  0  0  0  0
   -2.7960   20.9690  -28.5720 C   0  0  0  0  0  0  0  0  0  0  0  0
   -2.3602   20.0963  -28.0636 H   0  0  0  0  0  0  0  0  0  0  0  0
   -3.4780   21.9400  -27.8330 C   0  0  0  0  0  0  0  0  0  0  0  0
   -3.5740   21.8334  -26.7424 H   0  0  0  0  0  0  0  0  0  0  0  0
   -4.0380   23.0460  -28.4780 C   0  0  0  0  0  0  0  0  0  0  0  0
   -4.5595   23.8161  -27.8907 H   0  0  0  0  0  0  0  0  0  0  0  0
   -6.5320   23.7360  -32.0290 C   0  0  0  0  0  0  0  0  0  0  0  0
   -6.3318   24.1933  -33.0092 H   0  0  0  0  0  0  0  0  0  0  0  0
   -7.3570   22.5060  -32.0080 C   0  0  0  0  0  0  0  0  0  0  0  0
   -8.6900   22.6310  -31.5900 C   0  0  0  0  0  0  0  0  0  0  0  0
   -9.0525   23.5977  -31.2105 H   0  0  0  0  0  0  0  0  0  0  0  0
   -9.5600   21.5450  -31.6500 C   0  0  0  0  0  0  0  0  0  0  0  0
  -10.6042   21.6605  -31.3239 H   0  0  0  0  0  0  0  0  0  0  0  0
   -9.1120   20.3120  -32.1220 C   0  0  0  0  0  0  0  0  0  0  0  0
   -9.8110   19.4658  -32.1956 H   0  0  0  0  0  0  0  0  0  0  0  0
   -7.7730   20.1480  -32.5030 C   0  0  0  0  0  0  0  0  0  0  0  0
   -7.3210   18.9130  -32.9720 C   0  0  0  0  0  0  0  0  0  0  0  0
   -8.0193   18.0666  -33.0503 H   0  0  0  0  0  0  0  0  0  0  0  0
   -5.9840   18.7500  -33.3420 C   0  0  0  0  0  0  0  0  0  0  0  0
   -5.5320   17.5170  -33.8300 C   0  0  0  0  0  0  0  0  0  0  0  0
   -6.2333   16.6750  -33.9259 H   0  0  0  0  0  0  0  0  0  0  0  0
   -4.1980   17.3540  -34.1940 C   0  0  0  0  0  0  0  0  0  0  0  0
   -3.8489   16.3836  -34.5766 H   0  0  0  0  0  0  0  0  0  0  0  0
   -3.3020   18.4180  -34.0750 C   0  0  0  0  0  0  0  0  0  0  0  0
   -2.2501   18.2782  -34.3648 H   0  0  0  0  0  0  0  0  0  0  0  0
   -3.7290   19.6660  -33.5890 C   0  0  0  0  0  0  0  0  0  0  0  0
   -2.7270   20.7870  -33.4930 C   0  0  0  0  0  0  0  0  0  0  0  0
   -2.5272   21.0105  -32.4347 H   0  0  0  0  0  0  0  0  0  0  0  0
   -1.7915   20.4859  -33.9871 H   0  0  0  0  0  0  0  0  0  0  0  0
   -3.1308   21.6830  -33.9871 H   0  0  0  0  0  0  0  0  0  0  0  0
   -5.0870   19.8390  -33.2120 C   0  0  0  0  0  0  0  0  0  0  0  0
   -5.5510   21.0360  -32.7330 N   0  0  0  0  0  0  0  0  0  0  0  0
   -4.8810   21.8210  -32.5940 H   0  0  0  0  0  0  0  0  0  0  0  0
   -6.8690   21.2340  -32.4180 C   0  0  0  0  0  0  0  0  0  0  0  0
  1  2  1  0
  2  3  1  0
  3  4  2  0
  3  5  1  0
  5  6  2  0
  6  7  1  0
  6  8  1  0
  8  9  1  0
  8 10  2  0
 10 11  1  0
 10 12  1  0
 12 13  1  0
 12 14  2  0
 14 15  1  0
  2 16  2  0
 16 17  1  0
 16 18  1  0
 18 19  2  0
 19 20  1  0
 19 21  1  0
 21 22  1  0
 21 23  2  0
 23 24  1  0
 23 25  1  0
 25 26  2  0
 26 27  1  0
 26 28  1  0
 28 29  2  0
 29 30  1  0
 29 31  1  0
 31 32  1  0
 31 33  2  0
 33 34  1  0
 33 35  1  0
 35 36  1  0
 36 37  1  0
 36 38  1  0
 36 39  1  0
 35 40  2  0
 40 41  1  0
 41 42  1  0
 41 43  2  0
 14  5  1  0
 43 18  1  0
 43 25  1  0
 40 28  1  0
M  CHG  1  41   1
M  END
>  <UniqueID>  (19) 
18

>  <SMILES>  (19) 
Cc1cccc2cc3cccc(/C=C\C(=O)c4ccccc4)c3[nH+]c12

>  <Energy>  (19) 
66.19172624344422

>  <Genealogy>  (19) 
Cc1cccc2cc3cccc(C=CC(=O)c4ccccc4)c3[nH+]c12 (protonated)
Cc1cccc2cc3cccc(/C=C\C(=O)c4ccccc4)c3[nH+]c12 (cis-trans isomerization)
Cc1cccc2cc3cccc(/C=C\C(=O)c4ccccc4)c3[nH+]c12 (3D coordinates assigned)
Cc1cccc2cc3cccc(/C=C\C(=O)c4ccccc4)c3[nH+]c12 (optimized conformer: 66.19172624344422 kcal/mol)

>  <smiles>  (19) 
Cc1cccc2cc3cccc(C=CC(=O)c4ccccc4)c3nc12

>  <score_type>  (19) 
oracle

>  <origin>  (19) 
adg

>  <m_score__min__energy>  (19) 
-9.9100000000000001

>  <m_primary>  (19) 
energy

$$$$
19:0
     RDKit          3D

 32 32  0  0  0  0  0  0  0  0999 V2000
    1.2780   23.2440  -36.0340 C   0  0  0  0  0  0  0  0  0  0  0  0
    0.2400   22.5770  -35.2450 N   0  0  0  0  0  0  0  0  0  0  0  0
    0.5950   21.1790  -34.9560 C   0  0  0  0  0  0  0  0  0  0  0  0
   -0.5220   20.4490  -34.1840 C   0  0  0  0  0  0  0  0  0  0  0  0
   -1.8120   21.1650  -34.1710 N   0  0  0  0  0  0  0  0  0  0  0  0
   -2.6030   21.0090  -32.9340 C   0  0  0  0  0  0  0  0  0  0  0  0
   -3.8210   21.9570  -32.8530 C   0  0  0  0  0  0  0  0  0  0  0  0
   -5.1330   21.2230  -32.7170 C   0  0  0  0  0  0  0  0  0  0  0  0
   -5.2240   19.8670  -33.0710 C   0  0  0  0  0  0  0  0  0  0  0  0
   -6.4370   19.1840  -32.9490 C   0  0  0  0  0  0  0  0  0  0  0  0
   -7.5780   19.8500  -32.4870 C   0  0  0  0  0  0  0  0  0  0  0  0
   -9.0850   18.9560  -32.3430 Cl  0  0  0  0  0  0  0  0  0  0  0  0
   -7.5030   21.2130  -32.1550 C   0  0  0  0  0  0  0  0  0  0  0  0
   -8.9150   22.0890  -31.5820 Cl  0  0  0  0  0  0  0  0  0  0  0  0
   -6.2870   21.8940  -32.2800 C   0  0  0  0  0  0  0  0  0  0  0  0
    2.0079   23.7130  -35.3578 H   0  0  0  0  0  0  0  0  0  0  0  0
    1.7884   22.5044  -36.6684 H   0  0  0  0  0  0  0  0  0  0  0  0
    0.8173   24.0156  -36.6684 H   0  0  0  0  0  0  0  0  0  0  0  0
   -0.6320   22.5690  -35.8250 H   0  0  0  0  0  0  0  0  0  0  0  0
    0.7723   20.6536  -35.9060 H   0  0  0  0  0  0  0  0  0  0  0  0
    1.4982   21.1799  -34.3282 H   0  0  0  0  0  0  0  0  0  0  0  0
   -0.6778   19.4649  -34.6501 H   0  0  0  0  0  0  0  0  0  0  0  0
   -0.1892   20.3757  -33.1381 H   0  0  0  0  0  0  0  0  0  0  0  0
   -2.3910   20.8390  -34.9790 H   0  0  0  0  0  0  0  0  0  0  0  0
   -1.6260   22.1840  -34.3290 H   0  0  0  0  0  0  0  0  0  0  0  0
   -2.9658   19.9719  -32.8820 H   0  0  0  0  0  0  0  0  0  0  0  0
   -1.9403   21.2638  -32.0938 H   0  0  0  0  0  0  0  0  0  0  0  0
   -3.6955   22.6148  -31.9804 H   0  0  0  0  0  0  0  0  0  0  0  0
   -3.8584   22.5251  -33.7942 H   0  0  0  0  0  0  0  0  0  0  0  0
   -4.3349   19.3393  -33.4466 H   0  0  0  0  0  0  0  0  0  0  0  0
   -6.4953   18.1188  -33.2171 H   0  0  0  0  0  0  0  0  0  0  0  0
   -6.2343   22.9648  -32.0337 H   0  0  0  0  0  0  0  0  0  0  0  0
  1  2  1  0
  2  3  1  0
  3  4  1  0
  4  5  1  0
  5  6  1  0
  6  7  1  0
  7  8  1  0
  8  9  2  0
  9 10  1  0
 10 11  2  0
 11 12  1  0
 11 13  1  0
 13 14  1  0
 13 15  2  0
 15  8  1  0
  1 16  1  0
  1 17  1  0
  1 18  1  0
  2 19  1  0
  3 20  1  0
  3 21  1  0
  4 22  1  0
  4 23  1  0
  5 24  1  0
  5 25  1  0
  6 26  1  0
  6 27  1  0
  7 28  1  0
  7 29  1  0
  9 30  1  0
 10 31  1  0
 15 32  1  0
M  CHG  1   5   1
M  END
>  <UniqueID>  (20) 
19

>  <SMILES>  (20) 
CNCC[NH2+]CCc1ccc(Cl)c(Cl)c1

>  <Energy>  (20) 
30.037592921856405

>  <Genealogy>  (20) 
CNCC[NH2+]CCc1ccc(Cl)c(Cl)c1 (protonated)
CNCC[NH2+]CCc1ccc(Cl)c(Cl)c1 (3D coordinates assigned)
CNCC[NH2+]CCc1ccc(Cl)c(Cl)c1 (optimized conformer: 30.037592921856405 kcal/mol)

>  <smiles>  (20) 
CNCCNCCc1ccc(Cl)c(Cl)c1

>  <score_type>  (20) 
oracle

>  <origin>  (20) 
adg

>  <m_score__min__energy>  (20) 
-6.5300000000000002

>  <m_primary>  (20) 
energy

$$$$
20:0
     RDKit          3D

 28 29  0  0  0  0  0  0  0  0999 V2000
   -3.8080   24.5530  -27.0780 C   0  0  0  0  0  0  0  0  0  0  0  0
   -3.2650   23.5360  -28.0810 C   0  0  0  0  0  0  0  0  0  0  0  0
   -2.4710   24.2010  -29.2110 C   0  0  0  0  0  0  0  0  0  0  0  0
   -3.3690   24.7660  -30.2180 N   0  0  0  0  0  0  0  0  0  0  0  0
   -4.6540   24.2030  -30.5280 C   0  0  0  0  0  0  0  0  0  0  0  0
   -5.8220   24.8380  -30.0850 C   0  0  0  0  0  0  0  0  0  0  0  0
   -7.0680   24.2810  -30.3810 C   0  0  0  0  0  0  0  0  0  0  0  0
   -7.1430   23.0930  -31.1180 C   0  0  0  0  0  0  0  0  0  0  0  0
   -8.3760   22.5050  -31.4320 C   0  0  0  0  0  0  0  0  0  0  0  0
   -8.4160   21.3160  -32.1670 C   0  0  0  0  0  0  0  0  0  0  0  0
   -7.2280   20.7110  -32.5910 C   0  0  0  0  0  0  0  0  0  0  0  0
   -5.9940   21.2910  -32.2830 C   0  0  0  0  0  0  0  0  0  0  0  0
   -5.9440   22.4800  -31.5470 C   0  0  0  0  0  0  0  0  0  0  0  0
   -4.7460   23.0470  -31.2440 N   0  0  0  0  0  0  0  0  0  0  0  0
   -3.6177   24.1965  -26.0549 H   0  0  0  0  0  0  0  0  0  0  0  0
   -3.3063   25.5203  -27.2285 H   0  0  0  0  0  0  0  0  0  0  0  0
   -4.8909   24.6742  -27.2285 H   0  0  0  0  0  0  0  0  0  0  0  0
   -2.6051   22.8337  -27.5507 H   0  0  0  0  0  0  0  0  0  0  0  0
   -4.1234   23.0172  -28.5327 H   0  0  0  0  0  0  0  0  0  0  0  0
   -1.8504   25.0057  -28.7898 H   0  0  0  0  0  0  0  0  0  0  0  0
   -1.8390   23.4396  -29.6915 H   0  0  0  0  0  0  0  0  0  0  0  0
   -3.0920   25.6710  -30.6610 H   0  0  0  0  0  0  0  0  0  0  0  0
   -5.7577   25.7714  -29.5065 H   0  0  0  0  0  0  0  0  0  0  0  0
   -7.9885   24.7746  -30.0359 H   0  0  0  0  0  0  0  0  0  0  0  0
   -9.3118   22.9786  -31.1004 H   0  0  0  0  0  0  0  0  0  0  0  0
   -9.3842   20.8552  -32.4124 H   0  0  0  0  0  0  0  0  0  0  0  0
   -7.2651   19.7757  -33.1687 H   0  0  0  0  0  0  0  0  0  0  0  0
   -5.0622   20.8127  -32.6192 H   0  0  0  0  0  0  0  0  0  0  0  0
  1  2  1  0
  2  3  1  0
  3  4  1  0
  4  5  1  0
  5  6  2  0
  6  7  1  0
  7  8  2  0
  8  9  1  0
  9 10  2  0
 10 11  1  0
 11 12  2  0
 12 13  1  0
 13 14  2  0
 14  5  1  0
 13  8  1  0
  1 15  1  0
  1 16  1  0
  1 17  1  0
  2 18  1  0
  2 19  1  0
  3 20  1  0
  3 21  1  0
  4 22  1  0
  6 23  1  0
  7 24  1  0
  9 25  1  0
 10 26  1  0
 11 27  1  0
 12 28  1  0
M  END
>  <UniqueID>  (21) 
20

>  <SMILES>  (21) 
CCCNc1ccc2ccccc2n1

>  <Energy>  (21) 
25.129562773072042

>  <Genealogy>  (21) 
CCCNc1ccc2ccccc2n1 (3D coordinates assigned)
CCCNc1ccc2ccccc2n1 (optimized conformer: 25.129562773072042 kcal/mol)

>  <smiles>  (21) 
CCCNc1ccc2ccccc2n1

>  <score_type>  (21) 
oracle

>  <origin>  (21) 
adg

>  <m_score__min__energy>  (21) 
-6.4900000000000002

>  <m_primary>  (21) 
energy

$$$$
21:0
     RDKit          3D

 45 48  0  0  0  0  0  0  0  0999 V2000
   -1.4920   21.6300  -32.0320 C   0  0  0  0  0  0  0  0  0  0  0  0
   -2.9700   21.5370  -32.2410 C   0  0  0  0  0  0  0  0  0  0  0  0
   -3.5610   20.3220  -32.6500 C   0  0  0  0  0  0  0  0  0  0  0  0
   -4.9590   20.2290  -32.7920 C   0  0  0  0  0  0  0  0  0  0  0  0
   -5.5940   18.9460  -33.1640 C   0  0  0  0  0  0  0  0  0  0  0  0
   -6.6460   18.4190  -32.3940 C   0  0  0  0  0  0  0  0  0  0  0  0
   -7.2300   17.1970  -32.7410 C   0  0  0  0  0  0  0  0  0  0  0  0
   -6.7640   16.4870  -33.8500 C   0  0  0  0  0  0  0  0  0  0  0  0
   -5.7080   16.9960  -34.6130 C   0  0  0  0  0  0  0  0  0  0  0  0
   -5.1220   18.2190  -34.2700 C   0  0  0  0  0  0  0  0  0  0  0  0
   -5.6980   21.3900  -32.5330 C   0  0  0  0  0  0  0  0  0  0  0  0
   -7.0370   21.5500  -32.5850 N   0  0  0  0  0  0  0  0  0  0  0  0
   -7.2480   22.8310  -32.1970 C   0  0  0  0  0  0  0  0  0  0  0  0
   -8.6030   23.4270  -31.9800 C   0  0  0  0  0  0  0  0  0  0  0  0
   -6.0260   23.4360  -31.9200 C   0  0  0  0  0  0  0  0  0  0  0  0
   -5.7870   24.7810  -31.2980 C   0  0  0  0  0  0  0  0  0  0  0  0
   -6.0500   24.7280  -29.4890 S   0  0  0  0  0  0  0  0  0  0  0  0
   -4.4770   23.9450  -29.1110 C   0  0  0  0  0  0  0  0  0  0  0  0
   -3.2780   24.5300  -29.5370 C   0  0  0  0  0  0  0  0  0  0  0  0
   -2.0580   23.8950  -29.2790 C   0  0  0  0  0  0  0  0  0  0  0  0
   -2.0350   22.6790  -28.5870 C   0  0  0  0  0  0  0  0  0  0  0  0
   -3.2300   22.1010  -28.1480 C   0  0  0  0  0  0  0  0  0  0  0  0
   -4.4490   22.7360  -28.4030 C   0  0  0  0  0  0  0  0  0  0  0  0
   -5.0760   22.5150  -32.1510 N   0  0  0  0  0  0  0  0  0  0  0  0
   -3.7600   22.6180  -31.9890 N   0  0  0  0  0  0  0  0  0  0  0  0
   -1.2743   21.6437  -30.9538 H   0  0  0  0  0  0  0  0  0  0  0  0
   -1.0009   20.7610  -32.4942 H   0  0  0  0  0  0  0  0  0  0  0  0
   -1.1137   22.5537  -32.4942 H   0  0  0  0  0  0  0  0  0  0  0  0
   -2.9285   19.4464  -32.8581 H   0  0  0  0  0  0  0  0  0  0  0  0
   -7.0110   18.9705  -31.5150 H   0  0  0  0  0  0  0  0  0  0  0  0
   -8.0581   16.7939  -32.1395 H   0  0  0  0  0  0  0  0  0  0  0  0
   -7.2275   15.5276  -34.1233 H   0  0  0  0  0  0  0  0  0  0  0  0
   -5.3381   16.4342  -35.4834 H   0  0  0  0  0  0  0  0  0  0  0  0
   -4.2878   18.6134  -34.8688 H   0  0  0  0  0  0  0  0  0  0  0  0
   -7.7630   20.8440  -32.8410 H   0  0  0  0  0  0  0  0  0  0  0  0
   -8.7974   23.5125  -30.9007 H   0  0  0  0  0  0  0  0  0  0  0  0
   -8.6423   24.4255  -32.4399 H   0  0  0  0  0  0  0  0  0  0  0  0
   -9.3655   22.7812  -32.4399 H   0  0  0  0  0  0  0  0  0  0  0  0
   -4.7515   25.0916  -31.5013 H   0  0  0  0  0  0  0  0  0  0  0  0
   -6.4990   25.4978  -31.7330 H   0  0  0  0  0  0  0  0  0  0  0  0
   -3.2953   25.4894  -30.0748 H   0  0  0  0  0  0  0  0  0  0  0  0
   -1.1172   24.3517  -29.6201 H   0  0  0  0  0  0  0  0  0  0  0  0
   -1.0763   22.1776  -28.3883 H   0  0  0  0  0  0  0  0  0  0  0  0
   -3.2110   21.1464  -27.6018 H   0  0  0  0  0  0  0  0  0  0  0  0
   -5.3876   22.2860  -28.0474 H   0  0  0  0  0  0  0  0  0  0  0  0
  1  2  1  0
  2  3  1  0
  3  4  2  0
  4  5  1  0
  5  6  2  0
  6  7  1  0
  7  8  2  0
  8  9  1  0
  9 10  2  0
  4 11  1  0
 11 12  2  0
 12 13  1  0
 13 14  1  0
 13 15  2  0
 15 16  1  0
 16 17  1  0
 17 18  1  0
 18 19  2  0
 19 20  1  0
 20 21  2  0
 21 22  1  0
 22 23  2  0
 15 24  1  0
 24 25  1  0
 25  2  2  0
 10  5  1  0
 24 11  1  0
 23 18  1  0
  1 26  1  0
  1 27  1  0
  1 28  1  0
  3 29  1  0
  6 30  1  0
  7 31  1  0
  8 32  1  0
  9 33  1  0
 10 34  1  0
 12 35  1  0
 14 36  1  0
 14 37  1  0
 14 38  1  0
 16 39  1  0
 16 40  1  0
 19 41  1  0
 20 42  1  0
 21 43  1  0
 22 44  1  0
 23 45  1  0
M  CHG  1  12   1
M  END
>  <UniqueID>  (22) 
21

>  <SMILES>  (22) 
Cc1cc(-c2ccccc2)c2[nH+]c(C)c(CSc3ccccc3)n2n1

>  <Energy>  (22) 
82.46533431121044

>  <Genealogy>  (22) 
Cc1cc(-c2ccccc2)c2[nH+]c(C)c(CSc3ccccc3)n2n1 (protonated)
Cc1cc(-c2ccccc2)c2[nH+]c(C)c(CSc3ccccc3)n2n1 (3D coordinates assigned)
Cc1cc(-c2ccccc2)c2[nH+]c(C)c(CSc3ccccc3)n2n1 (optimized conformer: 82.46533431121044 kcal/mol)

>  <smiles>  (22) 
Cc1cc(-c2ccccc2)c2nc(C)c(CSc3ccccc3)n2n1

>  <score_type>  (22) 
oracle

>  <origin>  (22) 
adg

>  <m_score__min__energy>  (22) 
-8.8800000000000008

>  <m_primary>  (22) 
energy

$$$$
22:0
     RDKit          3D

 43 45  0  0  1  0  0  0  0  0999 V2000
   -0.3910   27.5370  -23.9220 C   0  0  0  0  0  0  0  0  0  0  0  0
   -0.7410   26.2120  -24.5460 C   0  0  0  0  0  0  0  0  0  0  0  0
   -1.6810   26.2110  -25.5490 C   0  0  0  0  0  0  0  0  0  0  0  0
   -1.9940   24.9910  -26.1120 C   0  0  0  0  0  0  0  0  0  0  0  0
   -2.8550   24.8430  -27.0600 N   0  0  0  0  0  0  0  0  0  0  0  0
   -2.2870   24.4310  -28.6210 S   0  0  0  0  0  0  0  0  0  0  0  0
   -1.4470   23.1620  -28.5510 O   0  0  0  0  0  0  0  0  0  0  0  0
   -1.5100   25.5270  -29.2860 O   0  0  0  0  0  0  0  0  0  0  0  0
   -3.6340   24.0340  -29.6970 C   0  0  0  0  0  0  0  0  0  0  0  0
   -4.7740   24.8090  -29.7440 C   0  0  0  0  0  0  0  0  0  0  0  0
   -5.8200   24.4950  -30.5870 C   0  0  0  0  0  0  0  0  0  0  0  0
   -5.7520   23.3810  -31.4170 C   0  0  0  0  0  0  0  0  0  0  0  0
   -6.8330   23.0640  -32.2860 N   0  0  0  0  0  0  0  0  0  0  0  0
   -8.2110   22.1510  -31.7520 S   0  0  0  0  0  0  0  0  0  0  0  0
   -8.3090   22.3340  -30.2660 O   0  0  0  0  0  0  0  0  0  0  0  0
   -9.4380   22.7990  -32.3430 O   0  0  0  0  0  0  0  0  0  0  0  0
   -8.0370   20.4870  -32.1420 C   0  0  0  0  0  0  0  0  0  0  0  0
   -8.7370   19.3670  -31.8520 C   0  0  0  0  0  0  0  0  0  0  0  0
   -8.3360   18.1850  -32.3180 C   0  0  0  0  0  0  0  0  0  0  0  0
   -7.2030   18.1280  -33.0960 C   0  0  0  0  0  0  0  0  0  0  0  0
   -6.6370   19.9210  -33.1860 S   0  0  0  0  0  0  0  0  0  0  0  0
   -4.6120   22.6070  -31.3700 C   0  0  0  0  0  0  0  0  0  0  0  0
   -3.5520   22.9100  -30.5270 C   0  0  0  0  0  0  0  0  0  0  0  0
   -1.3800   23.8860  -25.6620 N   0  0  0  0  0  0  0  0  0  0  0  0
   -0.4630   23.9120  -24.6780 C   0  0  0  0  0  0  0  0  0  0  0  0
    0.2200   22.6820  -24.1780 C   0  0  0  0  0  0  0  0  0  0  0  0
   -0.1330   25.0980  -24.1040 N   0  0  0  0  0  0  0  0  0  0  0  0
   -0.4155   27.4441  -22.8262 H   0  0  0  0  0  0  0  0  0  0  0  0
    0.6175   27.8380  -24.2420 H   0  0  0  0  0  0  0  0  0  0  0  0
   -1.1193   28.2968  -24.2420 H   0  0  0  0  0  0  0  0  0  0  0  0
   -2.1618   27.1407  -25.8874 H   0  0  0  0  0  0  0  0  0  0  0  0
   -4.8507   25.6950  -29.0965 H   0  0  0  0  0  0  0  0  0  0  0  0
   -6.7167   25.1320  -30.6029 H   0  0  0  0  0  0  0  0  0  0  0  0
   -6.7540   23.4150  -33.2720 H   0  0  0  0  0  0  0  0  0  0  0  0
   -9.6411   19.4321  -31.2289 H   0  0  0  0  0  0  0  0  0  0  0  0
   -8.9011   17.2706  -32.0847 H   0  0  0  0  0  0  0  0  0  0  0  0
   -6.7379   17.2439  -33.5565 H   0  0  0  0  0  0  0  0  0  0  0  0
   -4.5405   21.7227  -32.0203 H   0  0  0  0  0  0  0  0  0  0  0  0
   -2.6556   22.2726  -30.5113 H   0  0  0  0  0  0  0  0  0  0  0  0
    0.2191   22.6836  -23.0780 H   0  0  0  0  0  0  0  0  0  0  0  0
   -0.3132   21.7921  -24.5438 H   0  0  0  0  0  0  0  0  0  0  0  0
    1.2572   22.6641  -24.5438 H   0  0  0  0  0  0  0  0  0  0  0  0
    0.5870   25.1040  -23.3340 H   0  0  0  0  0  0  0  0  0  0  0  0
  1  2  1  0
  2  3  2  0
  3  4  1  0
  4  5  2  0
  5  6  1  0
  6  7  2  0
  6  8  2  0
  6  9  1  0
  9 10  2  0
 10 11  1  0
 11 12  2  0
 12 13  1  0
 13 14  1  0
 14 15  2  0
 14 16  2  0
 14 17  1  0
 17 18  2  0
 18 19  1  0
 19 20  2  0
 20 21  1  0
 12 22  1  0
 22 23  2  0
  4 24  1  0
 24 25  2  0
 25 26  1  0
 25 27  1  0
 27  2  1  0
 23  9  1  0
 21 17  1  0
  1 28  1  0
  1 29  1  0
  1 30  1  0
  3 31  1  0
 10 32  1  0
 11 33  1  0
 13 34  1  0
 18 35  1  0
 19 36  1  0
 20 37  1  0
 22 38  1  0
 23 39  1  0
 26 40  1  0
 26 41  1  0
 26 42  1  0
 27 43  1  0
M  END
>  <smiles>  (23) 
Cc1cc(=NS(=O)(=O)c2ccc(NS(=O)(=O)c3cccs3)cc2)nc(C)[nH]1

>  <score_type>  (23) 
oracle

>  <origin>  (23) 
adg

>  <m_score__min__energy>  (23) 
-9.8800000000000008

>  <m_primary>  (23) 
energy

$$$$
23:0
     RDKit          3D

 43 45  0  0  1  0  0  0  0  0999 V2000
   -8.0080   22.1150  -30.2850 C   0  0  0  0  0  0  0  0  0  0  0  0
   -8.4610   22.1240  -31.6410 N   0  0  0  0  0  0  0  0  0  0  0  0
   -8.7630   23.4140  -32.1800 C   0  0  0  0  0  0  0  0  0  0  0  0
   -9.4820   21.1380  -31.9360 C   0  0  0  0  0  0  0  0  0  0  0  0
   -8.9550   19.7510  -31.5880 C   0  0  0  0  0  0  0  0  0  0  0  0
   -8.2800   19.1540  -32.7240 N   0  0  0  0  0  0  0  0  0  0  0  0
   -7.0430   19.3890  -33.0030 C   0  0  0  0  0  0  0  0  0  0  0  0
   -6.5180   20.6160  -32.8040 N   0  0  0  0  0  0  0  0  0  0  0  0
   -5.2190   20.7720  -33.1230 C   0  0  0  0  0  0  0  0  0  0  0  0
   -4.6770   22.0360  -32.9180 O   0  0  0  0  0  0  0  0  0  0  0  0
   -4.5370   22.5870  -31.6470 C   0  0  0  0  0  0  0  0  0  0  0  0
   -5.2190   23.7270  -31.2520 C   0  0  0  0  0  0  0  0  0  0  0  0
   -5.0100   24.1980  -29.9570 C   0  0  0  0  0  0  0  0  0  0  0  0
   -4.1420   23.5370  -29.0920 C   0  0  0  0  0  0  0  0  0  0  0  0
   -3.8620   24.1820  -27.3330 Br  0  0  0  0  0  0  0  0  0  0  0  0
   -3.4620   22.4020  -29.4810 C   0  0  0  0  0  0  0  0  0  0  0  0
   -3.6720   21.9370  -30.7690 C   0  0  0  0  0  0  0  0  0  0  0  0
   -4.4610   19.7710  -33.6170 N   0  0  0  0  0  0  0  0  0  0  0  0
   -4.9620   18.5250  -33.8280 C   0  0  0  0  0  0  0  0  0  0  0  0
   -4.1640   17.5190  -34.3350 C   0  0  0  0  0  0  0  0  0  0  0  0
   -4.7350   16.2810  -34.5230 C   0  0  0  0  0  0  0  0  0  0  0  0
   -6.0650   16.0440  -34.2190 C   0  0  0  0  0  0  0  0  0  0  0  0
   -6.8340   17.0770  -33.7140 C   0  0  0  0  0  0  0  0  0  0  0  0
   -6.2920   18.3470  -33.5070 C   0  0  0  0  0  0  0  0  0  0  0  0
   -8.8753   22.1322  -29.6086 H   0  0  0  0  0  0  0  0  0  0  0  0
   -7.4179   21.2050  -30.1016 H   0  0  0  0  0  0  0  0  0  0  0  0
   -7.3823   23.0009  -30.1016 H   0  0  0  0  0  0  0  0  0  0  0  0
   -8.9295   24.1252  -31.3575 H   0  0  0  0  0  0  0  0  0  0  0  0
   -7.9214   23.7592  -32.7985 H   0  0  0  0  0  0  0  0  0  0  0  0
   -9.6704   23.3497  -32.7985 H   0  0  0  0  0  0  0  0  0  0  0  0
  -10.3815   21.3501  -31.3394 H   0  0  0  0  0  0  0  0  0  0  0  0
   -9.7370   21.1788  -33.0053 H   0  0  0  0  0  0  0  0  0  0  0  0
   -8.2461   19.8346  -30.7510 H   0  0  0  0  0  0  0  0  0  0  0  0
   -9.8055   19.1117  -31.3087 H   0  0  0  0  0  0  0  0  0  0  0  0
   -7.1180   21.3760  -32.4220 H   0  0  0  0  0  0  0  0  0  0  0  0
   -5.9043   24.2443  -31.9396 H   0  0  0  0  0  0  0  0  0  0  0  0
   -5.5363   25.1013  -29.6148 H   0  0  0  0  0  0  0  0  0  0  0  0
   -2.7773   21.8844  -28.7931 H   0  0  0  0  0  0  0  0  0  0  0  0
   -3.1434   21.0333  -31.1065 H   0  0  0  0  0  0  0  0  0  0  0  0
   -3.1073   17.7008  -34.5805 H   0  0  0  0  0  0  0  0  0  0  0  0
   -4.1209   15.4611  -34.9239 H   0  0  0  0  0  0  0  0  0  0  0  0
   -6.5040   15.0479  -34.3769 H   0  0  0  0  0  0  0  0  0  0  0  0
   -7.8913   16.8947  -33.4712 H   0  0  0  0  0  0  0  0  0  0  0  0
  1  2  1  0
  2  3  1  0
  2  4  1  0
  4  5  1  0
  5  6  1  0
  6  7  2  0
  7  8  1  0
  8  9  1  0
  9 10  1  0
 10 11  1  0
 11 12  2  0
 12 13  1  0
 13 14  2  0
 14 15  1  0
 14 16  1  0
 16 17  2  0
  9 18  2  0
 18 19  1  0
 19 20  2  0
 20 21  1  0
 21 22  2  0
 22 23  1  0
 23 24  2  0
 24  7  1  0
 17 11  1  0
 24 19  1  0
  1 25  1  0
  1 26  1  0
  1 27  1  0
  3 28  1  0
  3 29  1  0
  3 30  1  0
  4 31  1  0
  4 32  1  0
  5 33  1  0
  5 34  1  0
  8 35  1  0
 12 36  1  0
 13 37  1  0
 16 38  1  0
 17 39  1  0
 20 40  1  0
 21 41  1  0
 22 42  1  0
 23 43  1  0
M  END
>  <smiles>  (24) 
CN(C)CCN=c1[nH]c(Oc2ccc(Br)cc2)nc2ccccc12

>  <score_type>  (24) 
oracle

>  <origin>  (24) 
adg

>  <m_score__min__energy>  (24) 
-8.8100000000000005

>  <m_primary>  (24) 
energy

$$$$
24:0
     RDKit          3D

 53 57  0  0  0  0  0  0  0  0999 V2000
   -6.0840   24.1840  -31.8450 O   0  0  0  0  0  0  0  0  0  0  0  0
   -5.9670   22.9840  -32.2160 C   0  0  0  0  0  0  0  0  0  0  0  0
   -4.6160   22.5220  -32.7110 C   0  0  0  0  0  0  0  0  0  0  0  0
   -3.7560   22.0520  -31.6130 N   0  0  0  0  0  0  0  0  0  0  0  0
   -3.1370   20.8420  -31.4970 C   0  0  0  0  0  0  0  0  0  0  0  0
   -3.2830   19.7080  -32.4320 C   0  0  0  0  0  0  0  0  0  0  0  0
   -2.2360   19.3550  -33.2990 C   0  0  0  0  0  0  0  0  0  0  0  0
   -2.3890   18.2870  -34.1890 C   0  0  0  0  0  0  0  0  0  0  0  0
   -3.5910   17.5740  -34.2300 C   0  0  0  0  0  0  0  0  0  0  0  0
   -3.7790   16.2340  -35.3460 Cl  0  0  0  0  0  0  0  0  0  0  0  0
   -4.6460   17.9350  -33.3850 C   0  0  0  0  0  0  0  0  0  0  0  0
   -4.4970   19.0030  -32.4960 C   0  0  0  0  0  0  0  0  0  0  0  0
   -2.3440   20.7970  -30.3540 C   0  0  0  0  0  0  0  0  0  0  0  0
   -2.5270   22.0140  -29.7400 C   0  0  0  0  0  0  0  0  0  0  0  0
   -2.0040   22.4970  -28.5430 C   0  0  0  0  0  0  0  0  0  0  0  0
   -2.3920   23.7870  -28.1140 C   0  0  0  0  0  0  0  0  0  0  0  0
   -1.8600   24.3460  -26.8460 C   0  0  0  0  0  0  0  0  0  0  0  0
   -0.8700   23.6650  -26.1160 C   0  0  0  0  0  0  0  0  0  0  0  0
   -0.3790   24.2040  -24.9260 C   0  0  0  0  0  0  0  0  0  0  0  0
   -0.8800   25.4230  -24.4690 C   0  0  0  0  0  0  0  0  0  0  0  0
   -1.8380   26.0740  -25.1800 N   0  0  0  0  0  0  0  0  0  0  0  0
   -2.3320   25.5720  -26.3430 C   0  0  0  0  0  0  0  0  0  0  0  0
   -3.3020   24.5360  -28.9050 C   0  0  0  0  0  0  0  0  0  0  0  0
   -3.8130   24.0160  -30.1070 C   0  0  0  0  0  0  0  0  0  0  0  0
   -3.3920   22.7460  -30.5100 C   0  0  0  0  0  0  0  0  0  0  0  0
   -7.1000   22.0910  -32.0970 N   0  0  0  0  0  0  0  0  0  0  0  0
   -8.1550   22.4440  -31.1310 C   0  0  0  0  0  0  0  0  0  0  0  0
   -9.4170   21.6000  -31.3210 C   0  0  0  0  0  0  0  0  0  0  0  0
   -9.0870   20.2380  -31.4730 O   0  0  0  0  0  0  0  0  0  0  0  0
   -8.4240   20.0650  -32.7050 C   0  0  0  0  0  0  0  0  0  0  0  0
   -7.0530   20.7470  -32.6950 C   0  0  0  0  0  0  0  0  0  0  0  0
   -4.7624   21.6979  -33.4247 H   0  0  0  0  0  0  0  0  0  0  0  0
   -4.1185   23.3791  -33.1883 H   0  0  0  0  0  0  0  0  0  0  0  0
   -1.2926   19.9203  -33.2780 H   0  0  0  0  0  0  0  0  0  0  0  0
   -1.5619   18.0074  -34.8581 H   0  0  0  0  0  0  0  0  0  0  0  0
   -5.5937   17.3777  -33.4204 H   0  0  0  0  0  0  0  0  0  0  0  0
   -5.3337   19.2931  -31.8435 H   0  0  0  0  0  0  0  0  0  0  0  0
   -1.7076   19.9664  -30.0146 H   0  0  0  0  0  0  0  0  0  0  0  0
   -1.3068   21.8902  -27.9466 H   0  0  0  0  0  0  0  0  0  0  0  0
   -0.4811   22.7041  -26.4841 H   0  0  0  0  0  0  0  0  0  0  0  0
    0.3958   23.6726  -24.3538 H   0  0  0  0  0  0  0  0  0  0  0  0
   -0.4996   25.8575  -23.5328 H   0  0  0  0  0  0  0  0  0  0  0  0
   -3.1052   26.1277  -26.8938 H   0  0  0  0  0  0  0  0  0  0  0  0
   -3.6118   25.5378  -28.5727 H   0  0  0  0  0  0  0  0  0  0  0  0
   -4.5255   24.5936  -30.7142 H   0  0  0  0  0  0  0  0  0  0  0  0
   -7.7713   22.2835  -30.1127 H   0  0  0  0  0  0  0  0  0  0  0  0
   -8.4250   23.4977  -31.2951 H   0  0  0  0  0  0  0  0  0  0  0  0
  -10.0664   21.7182  -30.4411 H   0  0  0  0  0  0  0  0  0  0  0  0
   -9.9376   21.9412  -32.2279 H   0  0  0  0  0  0  0  0  0  0  0  0
   -8.2887   18.9895  -32.8920 H   0  0  0  0  0  0  0  0  0  0  0  0
   -9.0352   20.5218  -33.4973 H   0  0  0  0  0  0  0  0  0  0  0  0
   -6.3539   20.1265  -32.1152 H   0  0  0  0  0  0  0  0  0  0  0  0
   -6.7244   20.8555  -33.7392 H   0  0  0  0  0  0  0  0  0  0  0  0
  1  2  2  0
  2  3  1  0
  3  4  1  0
  4  5  1  0
  5  6  1  0
  6  7  2  0
  7  8  1  0
  8  9  2  0
  9 10  1  0
  9 11  1  0
 11 12  2  0
  5 13  2  0
 13 14  1  0
 14 15  2  0
 15 16  1  0
 16 17  1  0
 17 18  2  0
 18 19  1  0
 19 20  2  0
 20 21  1  0
 21 22  2  0
 16 23  2  0
 23 24  1  0
 24 25  2  0
  2 26  1  0
 26 27  1  0
 27 28  1  0
 28 29  1  0
 29 30  1  0
 30 31  1  0
 25  4  1  0
 31 26  1  0
 12  6  1  0
 25 14  1  0
 22 17  1  0
  3 32  1  0
  3 33  1  0
  7 34  1  0
  8 35  1  0
 11 36  1  0
 12 37  1  0
 13 38  1  0
 15 39  1  0
 18 40  1  0
 19 41  1  0
 20 42  1  0
 22 43  1  0
 23 44  1  0
 24 45  1  0
 27 46  1  0
 27 47  1  0
 28 48  1  0
 28 49  1  0
 30 50  1  0
 30 51  1  0
 31 52  1  0
 31 53  1  0
M  END
>  <UniqueID>  (25) 
22

>  <SMILES>  (25) 
O=C(Cn1c(-c2ccc(Cl)cc2)cc2cc(-c3cccnc3)ccc21)N1CCOCC1

>  <Energy>  (25) 
105.7512193174093

>  <Genealogy>  (25) 
O=C(Cn1c(-c2ccc(Cl)cc2)cc2cc(-c3cccnc3)ccc21)N1CCOCC1 (3D coordinates assigned)
O=C(Cn1c(-c2ccc(Cl)cc2)cc2cc(-c3cccnc3)ccc21)N1CCOCC1 (nonaromatic ring conformer: 105.7512193174093 kcal/mol)

>  <smiles>  (25) 
O=C(Cn1c(-c2ccc(Cl)cc2)cc2cc(-c3cccnc3)ccc21)N1CCOCC1

>  <score_type>  (25) 
oracle

>  <origin>  (25) 
adg

>  <m_score__min__energy>  (25) 
-8.9900000000000002

>  <m_primary>  (25) 
energy

$$$$
25:0
     RDKit          3D

 38 41  0  0  0  0  0  0  0  0999 V2000
    2.2710   25.8220  -26.8670 C   0  0  0  0  0  0  0  0  0  0  0  0
    1.3590   25.2910  -27.8220 O   0  0  0  0  0  0  0  0  0  0  0  0
   -0.0180   25.1400  -27.6050 C   0  0  0  0  0  0  0  0  0  0  0  0
   -0.5620   25.6390  -26.4170 C   0  0  0  0  0  0  0  0  0  0  0  0
   -1.9280   25.5110  -26.1540 C   0  0  0  0  0  0  0  0  0  0  0  0
   -2.7650   24.8850  -27.0790 C   0  0  0  0  0  0  0  0  0  0  0  0
   -2.2430   24.3830  -28.2840 C   0  0  0  0  0  0  0  0  0  0  0  0
   -3.1010   23.7290  -29.2380 N   0  0  0  0  0  0  0  0  0  0  0  0
   -3.3110   22.3900  -29.3310 C   0  0  0  0  0  0  0  0  0  0  0  0
   -4.1910   22.1590  -30.3670 C   0  0  0  0  0  0  0  0  0  0  0  0
   -4.6870   20.9870  -30.8280 N   0  0  0  0  0  0  0  0  0  0  0  0
   -5.5530   21.0130  -31.8910 C   0  0  0  0  0  0  0  0  0  0  0  0
   -6.1160   19.7400  -32.4210 C   0  0  0  0  0  0  0  0  0  0  0  0
   -7.2730   19.1870  -31.8340 C   0  0  0  0  0  0  0  0  0  0  0  0
   -7.8170   17.9940  -32.3160 C   0  0  0  0  0  0  0  0  0  0  0  0
   -7.2200   17.3350  -33.3900 C   0  0  0  0  0  0  0  0  0  0  0  0
   -6.0750   17.8680  -33.9840 C   0  0  0  0  0  0  0  0  0  0  0  0
   -5.5210   19.0610  -33.5100 C   0  0  0  0  0  0  0  0  0  0  0  0
   -4.4070   19.5400  -34.1200 F   0  0  0  0  0  0  0  0  0  0  0  0
   -5.8910   22.2180  -32.4610 N   0  0  0  0  0  0  0  0  0  0  0  0
   -5.3920   23.4020  -31.9990 C   0  0  0  0  0  0  0  0  0  0  0  0
   -4.5220   23.3540  -30.9210 C   0  0  0  0  0  0  0  0  0  0  0  0
   -3.8390   24.3160  -30.2170 C   0  0  0  0  0  0  0  0  0  0  0  0
   -3.8660   25.6810  -30.4830 O   0  0  0  0  0  0  0  0  0  0  0  0
   -0.8650   24.5080  -28.5370 C   0  0  0  0  0  0  0  0  0  0  0  0
    1.9046   25.6087  -25.8520 H   0  0  0  0  0  0  0  0  0  0  0  0
    3.2585   25.3577  -27.0055 H   0  0  0  0  0  0  0  0  0  0  0  0
    2.3547   26.9100  -27.0055 H   0  0  0  0  0  0  0  0  0  0  0  0
    0.0907   26.1360  -25.6842 H   0  0  0  0  0  0  0  0  0  0  0  0
   -2.3451   25.9046  -25.2153 H   0  0  0  0  0  0  0  0  0  0  0  0
   -3.8390   24.7839  -26.8640 H   0  0  0  0  0  0  0  0  0  0  0  0
   -2.8564   21.6211  -28.6891 H   0  0  0  0  0  0  0  0  0  0  0  0
   -7.7522   19.7006  -30.9875 H   0  0  0  0  0  0  0  0  0  0  0  0
   -8.7187   17.5734  -31.8470 H   0  0  0  0  0  0  0  0  0  0  0  0
   -7.6508   16.3964  -33.7686 H   0  0  0  0  0  0  0  0  0  0  0  0
   -5.6053   17.3460  -34.8307 H   0  0  0  0  0  0  0  0  0  0  0  0
   -5.6702   24.3587  -32.4651 H   0  0  0  0  0  0  0  0  0  0  0  0
   -0.4445   24.1085  -29.4716 H   0  0  0  0  0  0  0  0  0  0  0  0
  1  2  1  0
  2  3  1  0
  3  4  2  0
  4  5  1  0
  5  6  2  0
  6  7  1  0
  7  8  1  0
  8  9  1  0
  9 10  2  0
 10 11  1  0
 11 12  2  0
 12 13  1  0
 13 14  2  0
 14 15  1  0
 15 16  2  0
 16 17  1  0
 17 18  2  0
 18 19  1  0
 12 20  1  0
 20 21  2  0
 21 22  1  0
 22 23  2  0
 23 24  1  0
  7 25  2  0
 25  3  1  0
 23  8  1  0
 22 10  1  0
 18 13  1  0
  1 26  1  0
  1 27  1  0
  1 28  1  0
  4 29  1  0
  5 30  1  0
  6 31  1  0
  9 32  1  0
 14 33  1  0
 15 34  1  0
 16 35  1  0
 17 36  1  0
 21 37  1  0
 25 38  1  0
M  CHG  1  24  -1
M  END
>  <UniqueID>  (26) 
23

>  <SMILES>  (26) 
COc1cccc(-n2cc3nc(-c4ccccc4F)ncc3c2[O-])c1

>  <Energy>  (26) 
89.08476990048526

>  <Genealogy>  (26) 
COc1cccc(-n2cc3nc(-c4ccccc4F)ncc3c2[O-])c1 (protonated)
COc1cccc(-n2cc3nc(-c4ccccc4F)ncc3c2[O-])c1 (3D coordinates assigned)
COc1cccc(-n2cc3nc(-c4ccccc4F)ncc3c2[O-])c1 (optimized conformer: 89.08476990048526 kcal/mol)

>  <smiles>  (26) 
COc1cccc(-n2cc3nc(-c4ccccc4F)ncc3c2O)c1

>  <score_type>  (26) 
oracle

>  <origin>  (26) 
adg

>  <m_score__min__energy>  (26) 
-11.050000000000001

>  <m_primary>  (26) 
energy

$$$$
26:0
     RDKit          3D

 36 38  0  0  0  0  0  0  0  0999 V2000
   -3.2990   11.7540  -32.3090 C   0  0  0  0  0  0  0  0  0  0  0  0
   -3.3580   12.5760  -33.4700 O   0  0  0  0  0  0  0  0  0  0  0  0
   -3.8740   13.8800  -33.4910 C   0  0  0  0  0  0  0  0  0  0  0  0
   -3.7970   14.7050  -34.6300 C   0  0  0  0  0  0  0  0  0  0  0  0
   -4.3260   15.9980  -34.6000 C   0  0  0  0  0  0  0  0  0  0  0  0
   -4.9410   16.4900  -33.4370 C   0  0  0  0  0  0  0  0  0  0  0  0
   -5.5000   17.8540  -33.4010 C   0  0  0  0  0  0  0  0  0  0  0  0
   -4.9960   18.8660  -32.6610 N   0  0  0  0  0  0  0  0  0  0  0  0
   -5.8340   19.8830  -32.9630 C   0  0  0  0  0  0  0  0  0  0  0  0
   -5.7040   21.2460  -32.3930 C   0  0  0  0  0  0  0  0  0  0  0  0
   -4.5010   21.6350  -31.7750 C   0  0  0  0  0  0  0  0  0  0  0  0
   -4.3590   22.9150  -31.2340 C   0  0  0  0  0  0  0  0  0  0  0  0
   -5.4140   23.8360  -31.3080 C   0  0  0  0  0  0  0  0  0  0  0  0
   -5.2740   25.2010  -30.6930 C   0  0  0  0  0  0  0  0  0  0  0  0
   -3.9470   25.6410  -30.7950 O   0  0  0  0  0  0  0  0  0  0  0  0
   -6.6200   23.4510  -31.9080 C   0  0  0  0  0  0  0  0  0  0  0  0
   -6.7650   22.1710  -32.4510 C   0  0  0  0  0  0  0  0  0  0  0  0
   -6.7830   19.4900  -33.8360 N   0  0  0  0  0  0  0  0  0  0  0  0
   -6.5510   18.2400  -34.0870 O   0  0  0  0  0  0  0  0  0  0  0  0
   -5.0160   15.6650  -32.3040 C   0  0  0  0  0  0  0  0  0  0  0  0
   -4.4860   14.3720  -32.3330 C   0  0  0  0  0  0  0  0  0  0  0  0
   -3.3444   12.3858  -31.4097 H   0  0  0  0  0  0  0  0  0  0  0  0
   -4.1494   11.0562  -32.3101 H   0  0  0  0  0  0  0  0  0  0  0  0
   -2.3577   11.1848  -32.3101 H   0  0  0  0  0  0  0  0  0  0  0  0
   -3.3186   14.3300  -35.5468 H   0  0  0  0  0  0  0  0  0  0  0  0
   -4.2603   16.6354  -35.4941 H   0  0  0  0  0  0  0  0  0  0  0  0
   -3.6639   20.9238  -31.7174 H   0  0  0  0  0  0  0  0  0  0  0  0
   -3.4151   23.2020  -30.7476 H   0  0  0  0  0  0  0  0  0  0  0  0
   -5.9329   25.9068  -31.2199 H   0  0  0  0  0  0  0  0  0  0  0  0
   -5.5554   25.1482  -29.6309 H   0  0  0  0  0  0  0  0  0  0  0  0
   -3.8630   26.4280  -30.1950 H   0  0  0  0  0  0  0  0  0  0  0  0
   -7.4590   24.1611  -31.9522 H   0  0  0  0  0  0  0  0  0  0  0  0
   -7.7143   21.8840  -32.9269 H   0  0  0  0  0  0  0  0  0  0  0  0
   -7.5610   20.0440  -34.2530 H   0  0  0  0  0  0  0  0  0  0  0  0
   -5.4951   16.0385  -31.3870 H   0  0  0  0  0  0  0  0  0  0  0  0
   -4.5506   13.7359  -31.4379 H   0  0  0  0  0  0  0  0  0  0  0  0
  1  2  1  0
  2  3  1  0
  3  4  2  0
  4  5  1  0
  5  6  2  0
  6  7  1  0
  7  8  2  0
  8  9  1  0
  9 10  1  0
 10 11  2  0
 11 12  1  0
 12 13  2  0
 13 14  1  0
 14 15  1  0
 13 16  1  0
 16 17  2  0
  9 18  2  0
 18 19  1  0
  6 20  1  0
 20 21  2  0
 21  3  1  0
 19  7  1  0
 17 10  1  0
  1 22  1  0
  1 23  1  0
  1 24  1  0
  4 25  1  0
  5 26  1  0
 11 27  1  0
 12 28  1  0
 14 29  1  0
 14 30  1  0
 15 31  1  0
 16 32  1  0
 17 33  1  0
 18 34  1  0
 20 35  1  0
 21 36  1  0
M  CHG  1  18   1
M  END
>  <UniqueID>  (27) 
24

>  <SMILES>  (27) 
COc1ccc(-c2nc(-c3ccc(CO)cc3)[nH+]o2)cc1

>  <Energy>  (27) 
72.8503831021314

>  <Genealogy>  (27) 
COc1ccc(-c2nc(-c3ccc(CO)cc3)[nH+]o2)cc1 (protonated)
COc1ccc(-c2nc(-c3ccc(CO)cc3)[nH+]o2)cc1 (3D coordinates assigned)
COc1ccc(-c2nc(-c3ccc(CO)cc3)[nH+]o2)cc1 (optimized conformer: 72.8503831021314 kcal/mol)

>  <smiles>  (27) 
COc1ccc(-c2nc(-c3ccc(CO)cc3)no2)cc1

>  <score_type>  (27) 
oracle

>  <origin>  (27) 
adg

>  <m_score__min__energy>  (27) 
-7.3600000000000003

>  <m_primary>  (27) 
energy

$$$$
27:0
     RDKit          3D

 29 31  0  0  0  0  0  0  0  0999 V2000
   -1.2440   25.5780  -27.7720 C   0  0  0  0  0  0  0  0  0  0  0  0
   -2.0050   25.6340  -28.9740 O   0  0  0  0  0  0  0  0  0  0  0  0
   -2.7090   24.5480  -29.5160 C   0  0  0  0  0  0  0  0  0  0  0  0
   -2.1730   23.2480  -29.5630 C   0  0  0  0  0  0  0  0  0  0  0  0
   -2.9140   22.1980  -30.1140 C   0  0  0  0  0  0  0  0  0  0  0  0
   -4.2020   22.4280  -30.6270 C   0  0  0  0  0  0  0  0  0  0  0  0
   -4.9790   21.3150  -31.2070 C   0  0  0  0  0  0  0  0  0  0  0  0
   -4.4090   20.2140  -31.7690 N   0  0  0  0  0  0  0  0  0  0  0  0
   -5.4840   19.5000  -32.1450 C   0  0  0  0  0  0  0  0  0  0  0  0
   -5.5080   18.2630  -32.7830 C   0  0  0  0  0  0  0  0  0  0  0  0
   -6.7710   17.7060  -33.0800 C   0  0  0  0  0  0  0  0  0  0  0  0
   -6.8530   16.4290  -33.7380 C   0  0  0  0  0  0  0  0  0  0  0  0
   -6.9190   15.4020  -34.2670 N   0  0  0  0  0  0  0  0  0  0  0  0
   -7.9570   18.4000  -32.7310 C   0  0  0  0  0  0  0  0  0  0  0  0
   -7.8880   19.6490  -32.0870 C   0  0  0  0  0  0  0  0  0  0  0  0
   -6.6240   20.1630  -31.8130 C   0  0  0  0  0  0  0  0  0  0  0  0
   -6.3030   21.2860  -31.2310 O   0  0  0  0  0  0  0  0  0  0  0  0
   -4.7340   23.7270  -30.5790 C   0  0  0  0  0  0  0  0  0  0  0  0
   -3.9920   24.7750  -30.0270 C   0  0  0  0  0  0  0  0  0  0  0  0
   -1.9212   25.6278  -26.9066 H   0  0  0  0  0  0  0  0  0  0  0  0
   -0.6773   24.6357  -27.7404 H   0  0  0  0  0  0  0  0  0  0  0  0
   -0.5455   26.4272  -27.7404 H   0  0  0  0  0  0  0  0  0  0  0  0
   -1.1658   23.0566  -29.1642 H   0  0  0  0  0  0  0  0  0  0  0  0
   -2.4859   21.1852  -30.1461 H   0  0  0  0  0  0  0  0  0  0  0  0
   -4.5774   17.7388  -33.0461 H   0  0  0  0  0  0  0  0  0  0  0  0
   -8.9372   17.9592  -32.9652 H   0  0  0  0  0  0  0  0  0  0  0  0
   -8.7995   20.1990  -31.8103 H   0  0  0  0  0  0  0  0  0  0  0  0
   -5.7405   23.9207  -30.9782 H   0  0  0  0  0  0  0  0  0  0  0  0
   -4.4204   25.7876  -29.9939 H   0  0  0  0  0  0  0  0  0  0  0  0
  1  2  1  0
  2  3  1  0
  3  4  2  0
  4  5  1  0
  5  6  2  0
  6  7  1  0
  7  8  2  0
  8  9  1  0
  9 10  2  0
 10 11  1  0
 11 12  1  0
 12 13  3  0
 11 14  2  0
 14 15  1  0
 15 16  2  0
 16 17  1  0
  6 18  1  0
 18 19  2  0
 19  3  1  0
 17  7  1  0
 16  9  1  0
  1 20  1  0
  1 21  1  0
  1 22  1  0
  4 23  1  0
  5 24  1  0
 10 25  1  0
 14 26  1  0
 15 27  1  0
 18 28  1  0
 19 29  1  0
M  END
>  <UniqueID>  (28) 
25

>  <SMILES>  (28) 
COc1ccc(-c2nc3cc(C#N)ccc3o2)cc1

>  <Energy>  (28) 
67.83219230115004

>  <Genealogy>  (28) 
COc1ccc(-c2nc3cc(C#N)ccc3o2)cc1 (3D coordinates assigned)
COc1ccc(-c2nc3cc(C#N)ccc3o2)cc1 (optimized conformer: 67.83219230115004 kcal/mol)

>  <smiles>  (28) 
COc1ccc(-c2nc3cc(C#N)ccc3o2)cc1

>  <score_type>  (28) 
oracle

>  <origin>  (28) 
adg

>  <m_score__min__energy>  (28) 
-6.3399999999999999

>  <m_primary>  (28) 
energy

$$$$
28:0
     RDKit          3D

 43 46  0  0  0  0  0  0  0  0999 V2000
   -7.2560   25.0630  -30.1240 F   0  0  0  0  0  0  0  0  0  0  0  0
   -6.0820   24.4100  -30.3070 C   0  0  0  0  0  0  0  0  0  0  0  0
   -5.0680   24.5610  -29.3550 C   0  0  0  0  0  0  0  0  0  0  0  0
   -3.8400   23.8960  -29.5050 C   0  0  0  0  0  0  0  0  0  0  0  0
   -2.7930   24.0670  -28.5300 N   0  0  0  0  0  0  0  0  0  0  0  0
   -3.0820   23.9970  -27.0920 C   0  0  0  0  0  0  0  0  0  0  0  0
   -2.6310   25.2880  -26.3900 C   0  0  0  0  0  0  0  0  0  0  0  0
   -1.3270   25.8780  -26.9720 C   0  0  0  0  0  0  0  0  0  0  0  0
   -0.5470   24.8680  -27.8220 C   0  0  0  0  0  0  0  0  0  0  0  0
   -1.4190   24.3550  -28.9770 C   0  0  0  0  0  0  0  0  0  0  0  0
   -3.6390   23.0820  -30.6320 C   0  0  0  0  0  0  0  0  0  0  0  0
   -4.6490   22.9280  -31.5840 C   0  0  0  0  0  0  0  0  0  0  0  0
   -5.8780   23.5900  -31.4320 C   0  0  0  0  0  0  0  0  0  0  0  0
   -6.9440   23.4270  -32.4850 C   0  0  0  0  0  0  0  0  0  0  0  0
   -7.8230   22.3090  -32.1430 N   0  0  0  0  0  0  0  0  0  0  0  0
   -8.9870   22.4190  -31.5090 N   0  0  0  0  0  0  0  0  0  0  0  0
   -9.5330   21.2310  -31.2620 N   0  0  0  0  0  0  0  0  0  0  0  0
   -8.6630   20.3330  -31.7630 C   0  0  0  0  0  0  0  0  0  0  0  0
   -8.7440   18.9440  -31.7550 C   0  0  0  0  0  0  0  0  0  0  0  0
   -7.6770   18.2300  -32.3350 C   0  0  0  0  0  0  0  0  0  0  0  0
   -6.5740   18.9170  -32.8970 C   0  0  0  0  0  0  0  0  0  0  0  0
   -6.5250   20.3240  -32.8850 C   0  0  0  0  0  0  0  0  0  0  0  0
   -7.6010   20.9940  -32.3050 C   0  0  0  0  0  0  0  0  0  0  0  0
   -5.2341   25.2070  -28.4803 H   0  0  0  0  0  0  0  0  0  0  0  0
   -4.1642   23.8644  -26.9461 H   0  0  0  0  0  0  0  0  0  0  0  0
   -2.5346   23.1465  -26.6596 H   0  0  0  0  0  0  0  0  0  0  0  0
   -3.4293   26.0379  -26.4921 H   0  0  0  0  0  0  0  0  0  0  0  0
   -2.4321   25.0340  -25.3384 H   0  0  0  0  0  0  0  0  0  0  0  0
   -1.5826   26.7437  -27.6007 H   0  0  0  0  0  0  0  0  0  0  0  0
   -0.6857   26.1645  -26.1255 H   0  0  0  0  0  0  0  0  0  0  0  0
    0.3491   25.3557  -28.2332 H   0  0  0  0  0  0  0  0  0  0  0  0
   -0.2567   24.0169  -27.1885 H   0  0  0  0  0  0  0  0  0  0  0  0
   -1.4530   25.1204  -29.7663 H   0  0  0  0  0  0  0  0  0  0  0  0
   -0.9765   23.4216  -29.3551 H   0  0  0  0  0  0  0  0  0  0  0  0
   -2.6789   22.5620  -30.7656 H   0  0  0  0  0  0  0  0  0  0  0  0
   -4.4806   22.2834  -32.4593 H   0  0  0  0  0  0  0  0  0  0  0  0
   -7.5380   24.3507  -32.5472 H   0  0  0  0  0  0  0  0  0  0  0  0
   -6.4643   23.2239  -33.4539 H   0  0  0  0  0  0  0  0  0  0  0  0
   -9.4210   23.3260  -31.2250 H   0  0  0  0  0  0  0  0  0  0  0  0
   -9.6069   18.4240  -31.3133 H   0  0  0  0  0  0  0  0  0  0  0  0
   -7.7010   17.1304  -32.3513 H   0  0  0  0  0  0  0  0  0  0  0  0
   -5.7481   18.3465  -33.3469 H   0  0  0  0  0  0  0  0  0  0  0  0
   -5.6735   20.8715  -33.3152 H   0  0  0  0  0  0  0  0  0  0  0  0
  1  2  1  0
  2  3  2  0
  3  4  1  0
  4  5  1  0
  5  6  1  0
  6  7  1  0
  7  8  1  0
  8  9  1  0
  9 10  1  0
  4 11  2  0
 11 12  1  0
 12 13  2  0
 13 14  1  0
 14 15  1  0
 15 16  1  0
 16 17  2  0
 17 18  1  0
 18 19  2  0
 19 20  1  0
 20 21  2  0
 21 22  1  0
 22 23  2  0
 13  2  1  0
 23 15  1  0
 10  5  1  0
 23 18  1  0
  3 24  1  0
  6 25  1  0
  6 26  1  0
  7 27  1  0
  7 28  1  0
  8 29  1  0
  8 30  1  0
  9 31  1  0
  9 32  1  0
 10 33  1  0
 10 34  1  0
 11 35  1  0
 12 36  1  0
 14 37  1  0
 14 38  1  0
 16 39  1  0
 19 40  1  0
 20 41  1  0
 21 42  1  0
 22 43  1  0
M  CHG  1  16   1
M  END
>  <UniqueID>  (29) 
26

>  <SMILES>  (29) 
Fc1cc(N2CCCCC2)ccc1Cn1[nH+]nc2ccccc21

>  <Energy>  (29) 
94.89488322608987

>  <Genealogy>  (29) 
Fc1cc(N2CCCCC2)ccc1Cn1[nH+]nc2ccccc21 (protonated)
Fc1cc(N2CCCCC2)ccc1Cn1[nH+]nc2ccccc21 (3D coordinates assigned)
Fc1cc(N2CCCCC2)ccc1Cn1[nH+]nc2ccccc21 (nonaromatic ring conformer: 94.89488322608987 kcal/mol)

>  <smiles>  (29) 
Fc1cc(N2CCCCC2)ccc1Cn1nnc2ccccc21

>  <score_type>  (29) 
oracle

>  <origin>  (29) 
adg

>  <m_score__min__energy>  (29) 
-8.3599999999999994

>  <m_primary>  (29) 
energy

$$$$
29:0
     RDKit          3D

 43 45  0  0  0  0  0  0  0  0999 V2000
   -6.2923   18.0387  -34.1585 H   0  0  0  0  0  0  0  0  0  0  0  0
   -6.1470   19.0160  -33.6750 C   0  0  0  0  0  0  0  0  0  0  0  0
   -4.9090   19.5770  -33.6360 N   0  0  0  0  0  0  0  0  0  0  0  0
   -4.6850   20.7830  -33.0430 C   0  0  0  0  0  0  0  0  0  0  0  0
   -3.3070   21.3740  -33.0510 C   0  0  0  0  0  0  0  0  0  0  0  0
   -3.3493   22.3862  -33.4796 H   0  0  0  0  0  0  0  0  0  0  0  0
   -2.6481   20.7341  -33.6563 H   0  0  0  0  0  0  0  0  0  0  0  0
   -2.7890   21.4470  -31.7240 O   0  0  0  0  0  0  0  0  0  0  0  0
   -2.8130   22.6130  -30.9480 C   0  0  0  0  0  0  0  0  0  0  0  0
   -3.7260   23.5890  -31.2010 N   0  0  0  0  0  0  0  0  0  0  0  0
   -3.7690   24.7290  -30.4670 C   0  0  0  0  0  0  0  0  0  0  0  0
   -4.6700   25.6270  -30.7380 N   0  0  0  0  0  0  0  0  0  0  0  0
   -6.0180   25.6740  -30.1680 C   0  0  0  0  0  0  0  0  0  0  0  0
   -6.5098   26.6049  -30.4866 H   0  0  0  0  0  0  0  0  0  0  0  0
   -5.9338   25.6347  -29.0719 H   0  0  0  0  0  0  0  0  0  0  0  0
   -6.8600   24.4790  -30.6330 C   0  0  0  0  0  0  0  0  0  0  0  0
   -6.5851   24.2382  -31.6705 H   0  0  0  0  0  0  0  0  0  0  0  0
   -7.9182   24.7667  -30.5467 H   0  0  0  0  0  0  0  0  0  0  0  0
   -6.6510   23.2350  -29.7720 C   0  0  0  0  0  0  0  0  0  0  0  0
   -6.6977   23.5129  -28.7087 H   0  0  0  0  0  0  0  0  0  0  0  0
   -7.4381   22.4992  -29.9936 H   0  0  0  0  0  0  0  0  0  0  0  0
   -5.6667   22.7969  -29.9936 H   0  0  0  0  0  0  0  0  0  0  0  0
   -2.8730   24.9140  -29.4620 N   0  0  0  0  0  0  0  0  0  0  0  0
   -1.9280   23.9840  -29.1710 C   0  0  0  0  0  0  0  0  0  0  0  0
   -1.8910   22.7780  -29.9020 C   0  0  0  0  0  0  0  0  0  0  0  0
   -0.8280   21.7310  -29.6510 C   0  0  0  0  0  0  0  0  0  0  0  0
   -0.0564   21.8191  -30.4301 H   0  0  0  0  0  0  0  0  0  0  0  0
   -1.3190   20.7469  -29.6740 H   0  0  0  0  0  0  0  0  0  0  0  0
   -0.1600   21.8830  -28.2800 C   0  0  0  0  0  0  0  0  0  0  0  0
    0.7419   21.2542  -28.2453 H   0  0  0  0  0  0  0  0  0  0  0  0
   -0.8714   21.5701  -27.5016 H   0  0  0  0  0  0  0  0  0  0  0  0
    0.2330   23.3400  -28.0330 C   0  0  0  0  0  0  0  0  0  0  0  0
    0.8979   23.6784  -28.8413 H   0  0  0  0  0  0  0  0  0  0  0  0
    0.7499   23.4118  -27.0647 H   0  0  0  0  0  0  0  0  0  0  0  0
   -1.0140   24.2290  -27.9990 C   0  0  0  0  0  0  0  0  0  0  0  0
   -0.6971   25.2823  -28.0127 H   0  0  0  0  0  0  0  0  0  0  0  0
   -1.5725   23.9872  -27.0827 H   0  0  0  0  0  0  0  0  0  0  0  0
   -5.7540   21.4780  -32.4600 C   0  0  0  0  0  0  0  0  0  0  0  0
   -5.5869   22.4549  -31.9828 H   0  0  0  0  0  0  0  0  0  0  0  0
   -7.0330   20.9180  -32.4910 C   0  0  0  0  0  0  0  0  0  0  0  0
   -7.8799   21.4518  -32.0351 H   0  0  0  0  0  0  0  0  0  0  0  0
   -7.2340   19.6790  -33.1020 C   0  0  0  0  0  0  0  0  0  0  0  0
   -8.2377   19.2300  -33.1317 H   0  0  0  0  0  0  0  0  0  0  0  0
  1  2  1  0
  2  3  2  0
  3  4  1  0
  4  5  1  0
  5  6  1  0
  5  7  1  0
  5  8  1  0
  8  9  1  0
  9 10  2  0
 10 11  1  0
 11 12  2  0
 12 13  1  0
 13 14  1  0
 13 15  1  0
 13 16  1  0
 16 17  1  0
 16 18  1  0
 16 19  1  0
 19 20  1  0
 19 21  1  0
 19 22  1  0
 11 23  1  0
 23 24  1  0
 24 25  2  0
 25 26  1  0
 26 27  1  0
 26 28  1  0
 26 29  1  0
 29 30  1  0
 29 31  1  0
 29 32  1  0
 32 33  1  0
 32 34  1  0
 32 35  1  0
 35 36  1  0
 35 37  1  0
  4 38  2  0
 38 39  1  0
 38 40  1  0
 40 41  1  0
 40 42  2  0
 42 43  1  0
 42  2  1  0
 25  9  1  0
 35 24  1  0
M  CHG  1  23  -1
M  END
>  <UniqueID>  (30) 
27

>  <SMILES>  (30) 
CCC/N=c1/nc(OCc2ccccn2)c2c([n-]1)CCCC2

>  <Energy>  (30) 
38.11441355366447

>  <Genealogy>  (30) 
CCCN=c1nc(OCc2ccccn2)c2c([n-]1)CCCC2 (protonated)
CCC/N=c1/nc(OCc2ccccn2)c2c([n-]1)CCCC2 (cis-trans isomerization)
CCC/N=c1/nc(OCc2ccccn2)c2c([n-]1)CCCC2 (3D coordinates assigned)
CCC/N=c1/nc(OCc2ccccn2)c2c([n-]1)CCCC2 (nonaromatic ring conformer: 38.11441355366447 kcal/mol)

>  <smiles>  (30) 
CCCN=c1nc(OCc2ccccn2)c2c([nH]1)CCCC2

>  <score_type>  (30) 
oracle

>  <origin>  (30) 
adg

>  <m_score__min__energy>  (30) 
-8.6099999999999994

>  <m_primary>  (30) 
energy

$$$$
30:0
     RDKit          3D

 43 44  0  0  0  0  0  0  0  0999 V2000
   -4.6380   23.1540  -28.3070 C   0  0  0  0  0  0  0  0  0  0  0  0
   -4.1110   24.2150  -29.1900 N   0  0  1  0  0  0  0  0  0  0  0  0
   -2.8950   23.7750  -29.9180 C   0  0  0  0  0  0  0  0  0  0  0  0
   -1.6040   24.3250  -29.2950 C   0  0  0  0  0  0  0  0  0  0  0  0
   -1.7930   25.6700  -28.9470 O   0  0  0  0  0  0  0  0  0  0  0  0
   -5.1560   24.7160  -30.1200 C   0  0  0  0  0  0  0  0  0  0  0  0
   -6.1180   23.6470  -30.5980 C   0  0  0  0  0  0  0  0  0  0  0  0
   -5.9190   23.0140  -31.8370 C   0  0  0  0  0  0  0  0  0  0  0  0
   -6.8030   22.0230  -32.2750 C   0  0  0  0  0  0  0  0  0  0  0  0
   -7.8950   21.6460  -31.4780 C   0  0  0  0  0  0  0  0  0  0  0  0
   -8.8670   20.6060  -31.9670 C   0  0  0  0  0  0  0  0  0  0  0  0
   -8.3140   19.8830  -33.1140 N   0  0  0  0  0  0  0  0  0  0  0  0
   -7.2160   18.9570  -33.0090 C   0  0  0  0  0  0  0  0  0  0  0  0
   -6.1790   18.9220  -33.9630 C   0  0  0  0  0  0  0  0  0  0  0  0
   -5.1270   18.0100  -33.8300 C   0  0  0  0  0  0  0  0  0  0  0  0
   -5.0990   17.1240  -32.7510 C   0  0  0  0  0  0  0  0  0  0  0  0
   -6.1220   17.1480  -31.8000 C   0  0  0  0  0  0  0  0  0  0  0  0
   -7.1750   18.0600  -31.9280 C   0  0  0  0  0  0  0  0  0  0  0  0
   -8.1090   22.2940  -30.2520 C   0  0  0  0  0  0  0  0  0  0  0  0
   -7.2260   23.2850  -29.8150 C   0  0  0  0  0  0  0  0  0  0  0  0
   -4.4931   23.4458  -27.2564 H   0  0  0  0  0  0  0  0  0  0  0  0
   -5.7110   23.0127  -28.5036 H   0  0  0  0  0  0  0  0  0  0  0  0
   -4.1023   22.2136  -28.5036 H   0  0  0  0  0  0  0  0  0  0  0  0
   -3.8530   25.0260  -28.5800 H   0  0  0  0  0  0  0  0  0  0  0  0
   -2.8534   22.6759  -29.9028 H   0  0  0  0  0  0  0  0  0  0  0  0
   -2.9619   24.1636  -30.9449 H   0  0  0  0  0  0  0  0  0  0  0  0
   -1.3542   23.7443  -28.3948 H   0  0  0  0  0  0  0  0  0  0  0  0
   -0.7816   24.2446  -30.0210 H   0  0  0  0  0  0  0  0  0  0  0  0
   -1.4620   25.7630  -28.0160 H   0  0  0  0  0  0  0  0  0  0  0  0
   -5.7343   25.4959  -29.6030 H   0  0  0  0  0  0  0  0  0  0  0  0
   -4.6343   25.0966  -31.0105 H   0  0  0  0  0  0  0  0  0  0  0  0
   -5.0629   23.2998  -32.4658 H   0  0  0  0  0  0  0  0  0  0  0  0
   -6.6418   21.5368  -33.2485 H   0  0  0  0  0  0  0  0  0  0  0  0
   -9.0724   19.8929  -31.1550 H   0  0  0  0  0  0  0  0  0  0  0  0
   -9.7959   21.1067  -32.2776 H   0  0  0  0  0  0  0  0  0  0  0  0
   -8.7330   20.0430  -34.0590 H   0  0  0  0  0  0  0  0  0  0  0  0
   -6.1972   19.6156  -34.8166 H   0  0  0  0  0  0  0  0  0  0  0  0
   -4.3198   17.9906  -34.5771 H   0  0  0  0  0  0  0  0  0  0  0  0
   -4.2711   16.4069  -32.6498 H   0  0  0  0  0  0  0  0  0  0  0  0
   -6.0995   16.4497  -30.9504 H   0  0  0  0  0  0  0  0  0  0  0  0
   -7.9777   18.0751  -31.1761 H   0  0  0  0  0  0  0  0  0  0  0  0
   -8.9757   22.0207  -29.6321 H   0  0  0  0  0  0  0  0  0  0  0  0
   -7.4001   23.7850  -28.8508 H   0  0  0  0  0  0  0  0  0  0  0  0
  1  2  1  0
  2  3  1  0
  3  4  1  0
  4  5  1  0
  2  6  1  0
  6  7  1  0
  7  8  2  0
  8  9  1  0
  9 10  2  0
 10 11  1  0
 11 12  1  0
 12 13  1  0
 13 14  2  0
 14 15  1  0
 15 16  2  0
 16 17  1  0
 17 18  2  0
 10 19  1  0
 19 20  2  0
 20  7  1  0
 18 13  1  0
  1 21  1  0
  1 22  1  0
  1 23  1  0
  2 24  1  1
  3 25  1  0
  3 26  1  0
  4 27  1  0
  4 28  1  0
  5 29  1  0
  6 30  1  0
  6 31  1  0
  8 32  1  0
  9 33  1  0
 11 34  1  0
 11 35  1  0
 12 36  1  0
 14 37  1  0
 15 38  1  0
 16 39  1  0
 17 40  1  0
 18 41  1  0
 19 42  1  0
 20 43  1  0
M  CHG  1   2   1
M  END
>  <UniqueID>  (31) 
28

>  <SMILES>  (31) 
C[N@@H+](CCO)Cc1ccc(CNc2ccccc2)cc1

>  <Energy>  (31) 
43.83067387722843

>  <Genealogy>  (31) 
C[NH+](CCO)Cc1ccc(CNc2ccccc2)cc1 (protonated)
C[N@@H+](CCO)Cc1ccc(CNc2ccccc2)cc1 (chirality)
C[N@@H+](CCO)Cc1ccc(CNc2ccccc2)cc1 (3D coordinates assigned)
C[N@@H+](CCO)Cc1ccc(CNc2ccccc2)cc1 (optimized conformer: 43.83067387722843 kcal/mol)

>  <smiles>  (31) 
CN(CCO)Cc1ccc(CNc2ccccc2)cc1

>  <score_type>  (31) 
oracle

>  <origin>  (31) 
adg

>  <m_score__min__energy>  (31) 
-6.3399999999999999

>  <m_primary>  (31) 
energy

$$$$
31:0
     RDKit          3D

 41 44  0  0  0  0  0  0  0  0999 V2000
   -8.7350   18.6610  -31.3550 C   0  0  0  0  0  0  0  0  0  0  0  0
   -8.9510   19.6740  -32.4760 C   0  0  0  0  0  0  0  0  0  0  0  0
   -9.1790   21.1220  -31.9920 C   0  0  0  0  0  0  0  0  0  0  0  0
   -7.9260   21.9670  -31.5940 C   0  0  2  0  0  0  0  0  0  0  0  0
   -7.9740   23.3240  -32.3420 C   0  0  0  0  0  0  0  0  0  0  0  0
   -6.8130   24.1570  -31.9770 N   0  0  0  0  0  0  0  0  0  0  0  0
   -5.5660   23.4520  -32.3340 C   0  0  0  0  0  0  0  0  0  0  0  0
   -5.4500   22.1730  -31.5980 N   0  0  0  0  0  0  0  0  0  0  0  0
   -6.5800   21.2940  -31.9700 C   0  0  0  0  0  0  0  0  0  0  0  0
   -5.4880   22.4100  -30.1310 C   0  0  1  0  0  0  0  0  0  0  0  0
   -4.2250   23.0880  -29.6130 C   0  0  0  0  0  0  0  0  0  0  0  0
   -4.2530   23.8470  -28.4280 C   0  0  0  0  0  0  0  0  0  0  0  0
   -3.0720   24.4030  -27.9310 C   0  0  0  0  0  0  0  0  0  0  0  0
   -1.8930   24.1860  -28.5700 N   0  0  0  0  0  0  0  0  0  0  0  0
   -1.8230   23.4250  -29.6930 C   0  0  0  0  0  0  0  0  0  0  0  0
   -2.9800   22.8500  -30.2240 C   0  0  0  0  0  0  0  0  0  0  0  0
   -6.7250   23.1470  -29.7630 N   0  0  0  0  0  0  0  0  0  0  0  0
   -6.8220   24.4130  -30.5240 C   0  0  0  0  0  0  0  0  0  0  0  0
   -7.8990   22.3030  -30.0780 C   0  0  0  0  0  0  0  0  0  0  0  0
   -8.8420   19.1626  -30.3819 H   0  0  0  0  0  0  0  0  0  0  0  0
   -9.4821   17.8579  -31.4376 H   0  0  0  0  0  0  0  0  0  0  0  0
   -7.7253   18.2324  -31.4376 H   0  0  0  0  0  0  0  0  0  0  0  0
   -8.0626   19.6639  -33.1246 H   0  0  0  0  0  0  0  0  0  0  0  0
   -9.8688   19.3703  -33.0009 H   0  0  0  0  0  0  0  0  0  0  0  0
   -9.6934   21.6606  -32.8015 H   0  0  0  0  0  0  0  0  0  0  0  0
   -9.7465   21.0133  -31.0560 H   0  0  0  0  0  0  0  0  0  0  0  0
   -7.9608   23.1401  -33.4264 H   0  0  0  0  0  0  0  0  0  0  0  0
   -8.8951   23.8540  -32.0581 H   0  0  0  0  0  0  0  0  0  0  0  0
   -4.7068   24.0911  -32.0822 H   0  0  0  0  0  0  0  0  0  0  0  0
   -5.5824   23.2354  -33.4123 H   0  0  0  0  0  0  0  0  0  0  0  0
   -6.5559   21.1098  -33.0542 H   0  0  0  0  0  0  0  0  0  0  0  0
   -6.4895   20.3421  -31.4262 H   0  0  0  0  0  0  0  0  0  0  0  0
   -5.5154   21.4309  -29.6304 H   0  0  0  0  0  0  0  0  0  0  0  0
   -5.2025   24.0019  -27.8947 H   0  0  0  0  0  0  0  0  0  0  0  0
   -3.0967   25.0184  -27.0196 H   0  0  0  0  0  0  0  0  0  0  0  0
   -0.8531   23.2612  -30.1853 H   0  0  0  0  0  0  0  0  0  0  0  0
   -2.9180   22.2123  -31.1182 H   0  0  0  0  0  0  0  0  0  0  0  0
   -5.9664   25.0544  -30.2662 H   0  0  0  0  0  0  0  0  0  0  0  0
   -7.7678   24.9092  -30.2608 H   0  0  0  0  0  0  0  0  0  0  0  0
   -7.8409   21.3691  -29.4997 H   0  0  0  0  0  0  0  0  0  0  0  0
   -8.8160   22.8507  -29.8151 H   0  0  0  0  0  0  0  0  0  0  0  0
  1  2  1  0
  2  3  1  0
  4  3  1  1
  4  5  1  0
  5  6  1  0
  6  7  1  0
  8  7  1  0
  8  9  1  0
  8 10  1  0
 10 11  1  0
 11 12  2  0
 12 13  1  0
 13 14  2  0
 14 15  1  0
 15 16  2  0
 17 10  1  0
 17 18  1  0
 17 19  1  0
  9  4  1  0
 16 11  1  0
 19  4  1  0
 18  6  1  0
  1 20  1  0
  1 21  1  0
  1 22  1  0
  2 23  1  0
  2 24  1  0
  3 25  1  0
  3 26  1  0
  5 27  1  0
  5 28  1  0
  7 29  1  0
  7 30  1  0
  9 31  1  0
  9 32  1  0
 10 33  1  1
 12 34  1  0
 13 35  1  0
 15 36  1  0
 16 37  1  0
 18 38  1  0
 18 39  1  0
 19 40  1  0
 19 41  1  0
M  END
>  <UniqueID>  (32) 
29

>  <SMILES>  (32) 
CCCC12CN3C[N@](C1)C(c1ccncc1)[N@@](C3)C2

>  <Energy>  (32) 
60.92655630214498

>  <Genealogy>  (32) 
CCCC12CN3C[N@](C1)C(c1ccncc1)[N@@](C3)C2 (chirality)
CCCC12CN3C[N@](C1)C(c1ccncc1)[N@@](C3)C2 (3D coordinates assigned)
CCCC12CN3C[N@](C1)C(c1ccncc1)[N@@](C3)C2 (nonaromatic ring conformer: 60.92655630214498 kcal/mol)

>  <smiles>  (32) 
CCCC12CN3CN(C1)C(c1ccncc1)N(C3)C2

>  <score_type>  (32) 
oracle

>  <origin>  (32) 
adg

>  <m_score__min__energy>  (32) 
-6.6699999999999999

>  <m_primary>  (32) 
energy

$$$$
32:0
     RDKit          3D

 28 28  0  0  0  0  0  0  0  0999 V2000
   -3.1780   23.7880  -29.9910 C   0  0  0  0  0  0  0  0  0  0  0  0
   -3.7460   25.0030  -30.4650 O   0  0  0  0  0  0  0  0  0  0  0  0
   -5.1240   25.2430  -30.4600 C   0  0  0  0  0  0  0  0  0  0  0  0
   -5.5690   26.4230  -30.4600 O   0  0  0  0  0  0  0  0  0  0  0  0
   -6.0800   24.0930  -30.4000 C   0  0  0  0  0  0  0  0  0  0  0  0
   -6.3490   23.5850  -31.7050 O   0  0  0  0  0  0  0  0  0  0  0  0
   -6.6170   22.2450  -32.0300 C   0  0  0  0  0  0  0  0  0  0  0  0
   -5.6760   21.3660  -32.5290 C   0  0  0  0  0  0  0  0  0  0  0  0
   -4.2580   21.6900  -32.8620 C   0  0  0  0  0  0  0  0  0  0  0  0
   -6.2490   20.1700  -32.7590 N   0  0  0  0  0  0  0  0  0  0  0  0
   -7.5220   20.2570  -32.4000 N   0  0  0  0  0  0  0  0  0  0  0  0
   -8.4480   19.1330  -32.4880 C   0  0  0  0  0  0  0  0  0  0  0  0
   -7.7920   21.5040  -31.9460 C   0  0  0  0  0  0  0  0  0  0  0  0
   -9.1170   21.9400  -31.3890 C   0  0  0  0  0  0  0  0  0  0  0  0
   -3.1779   23.7879  -28.8910 H   0  0  0  0  0  0  0  0  0  0  0  0
   -3.7720   22.9379  -30.3577 H   0  0  0  0  0  0  0  0  0  0  0  0
   -2.1448   23.6987  -30.3577 H   0  0  0  0  0  0  0  0  0  0  0  0
   -5.6422   23.2927  -29.7854 H   0  0  0  0  0  0  0  0  0  0  0  0
   -7.0243   24.4442  -29.9585 H   0  0  0  0  0  0  0  0  0  0  0  0
   -3.6839   21.8212  -31.9329 H   0  0  0  0  0  0  0  0  0  0  0  0
   -3.8223   20.8683  -33.4493 H   0  0  0  0  0  0  0  0  0  0  0  0
   -4.2224   22.6194  -33.4493 H   0  0  0  0  0  0  0  0  0  0  0  0
   -8.7205   18.8022  -31.4749 H   0  0  0  0  0  0  0  0  0  0  0  0
   -9.3540   19.4457  -33.0277 H   0  0  0  0  0  0  0  0  0  0  0  0
   -7.9676   18.3036  -33.0277 H   0  0  0  0  0  0  0  0  0  0  0  0
   -9.0751   21.9262  -30.2899 H   0  0  0  0  0  0  0  0  0  0  0  0
   -9.3424   22.9597  -31.7346 H   0  0  0  0  0  0  0  0  0  0  0  0
   -9.9039   21.2534  -31.7346 H   0  0  0  0  0  0  0  0  0  0  0  0
  1  2  1  0
  2  3  1  0
  3  4  2  0
  3  5  1  0
  5  6  1  0
  6  7  1  0
  7  8  1  0
  8  9  1  0
  8 10  2  0
 10 11  1  0
 11 12  1  0
 11 13  1  0
 13 14  1  0
 13  7  2  0
  1 15  1  0
  1 16  1  0
  1 17  1  0
  5 18  1  0
  5 19  1  0
  9 20  1  0
  9 21  1  0
  9 22  1  0
 12 23  1  0
 12 24  1  0
 12 25  1  0
 14 26  1  0
 14 27  1  0
 14 28  1  0
M  END
>  <UniqueID>  (33) 
30

>  <SMILES>  (33) 
COC(=O)COc1c(C)nn(C)c1C

>  <Energy>  (33) 
53.13558102184303

>  <Genealogy>  (33) 
COC(=O)COc1c(C)nn(C)c1C (3D coordinates assigned)
COC(=O)COc1c(C)nn(C)c1C (optimized conformer: 53.13558102184303 kcal/mol)

>  <smiles>  (33) 
COC(=O)COc1c(C)nn(C)c1C

>  <score_type>  (33) 
oracle

>  <origin>  (33) 
adg

>  <m_score__min__energy>  (33) 
-5.4299999999999997

>  <m_primary>  (33) 
energy

$$$$
33:0
     RDKit          3D

 50 52  0  0  0  0  0  0  0  0999 V2000
   -8.7423   19.7863  -32.7243 H   0  0  0  0  0  0  0  0  0  0  0  0
   -8.1780   20.6200  -32.2810 C   0  0  0  0  0  0  0  0  0  0  0  0
   -8.8570   21.7140  -31.7470 C   0  0  0  0  0  0  0  0  0  0  0  0
   -9.9567   21.7375  -31.7605 H   0  0  0  0  0  0  0  0  0  0  0  0
   -8.1440   22.7800  -31.1950 C   0  0  0  0  0  0  0  0  0  0  0  0
   -8.6871   23.6387  -30.7735 H   0  0  0  0  0  0  0  0  0  0  0  0
   -6.7400   22.7660  -31.1730 C   0  0  0  0  0  0  0  0  0  0  0  0
   -5.8890   24.1820  -30.5280 S   0  0  0  0  0  0  0  0  0  0  0  0
   -6.8630   25.2290  -30.0640 O   0  0  0  0  0  0  0  0  0  0  0  0
   -5.0130   24.7630  -31.6020 O   0  0  0  0  0  0  0  0  0  0  0  0
   -4.8960   23.7240  -29.1840 N   0  0  0  0  0  0  0  0  0  0  0  0
   -3.6650   24.1140  -29.0680 C   0  0  0  0  0  0  0  0  0  0  0  0
   -3.1570   25.1750  -29.6490 O   0  0  0  0  0  0  0  0  0  0  0  0
   -1.8940   25.3000  -29.3560 N   0  0  0  0  0  0  0  0  0  0  0  0
   -1.5710   24.2650  -28.5500 C   0  0  0  0  0  0  0  0  0  0  0  0
   -0.2060   24.0380  -27.9900 C   0  0  0  0  0  0  0  0  0  0  0  0
   -0.2545   24.0461  -26.8911 H   0  0  0  0  0  0  0  0  0  0  0  0
    0.1738   23.0644  -28.3331 H   0  0  0  0  0  0  0  0  0  0  0  0
    0.4685   24.8363  -28.3331 H   0  0  0  0  0  0  0  0  0  0  0  0
   -2.6920   23.4870  -28.3240 C   0  0  0  0  0  0  0  0  0  0  0  0
   -2.7910   22.2040  -27.5600 C   0  0  0  0  0  0  0  0  0  0  0  0
   -2.7745   22.4175  -26.4811 H   0  0  0  0  0  0  0  0  0  0  0  0
   -3.7311   21.6948  -27.8187 H   0  0  0  0  0  0  0  0  0  0  0  0
   -1.9401   21.5566  -27.8187 H   0  0  0  0  0  0  0  0  0  0  0  0
   -6.0510   21.6400  -31.6910 C   0  0  0  0  0  0  0  0  0  0  0  0
   -4.5790   21.5320  -31.6510 C   0  0  0  0  0  0  0  0  0  0  0  0
   -3.9450   20.9580  -30.5390 C   0  0  0  0  0  0  0  0  0  0  0  0
   -4.5467   20.5944  -29.6930 H   0  0  0  0  0  0  0  0  0  0  0  0
   -2.5530   20.8460  -30.5010 C   0  0  0  0  0  0  0  0  0  0  0  0
   -2.0642   20.3840  -29.6306 H   0  0  0  0  0  0  0  0  0  0  0  0
   -1.7750   21.3210  -31.5700 C   0  0  0  0  0  0  0  0  0  0  0  0
   -0.2750   21.1690  -31.5510 C   0  0  0  0  0  0  0  0  0  0  0  0
    0.1836   22.1655  -31.6328 H   0  0  0  0  0  0  0  0  0  0  0  0
    0.0039   20.6777  -30.6072 H   0  0  0  0  0  0  0  0  0  0  0  0
    0.2340   20.2900  -32.7130 C   0  0  0  0  0  0  0  0  0  0  0  0
    1.2193   19.8940  -32.4259 H   0  0  0  0  0  0  0  0  0  0  0  0
   -0.7340   19.1240  -32.9570 C   0  0  0  0  0  0  0  0  0  0  0  0
   -1.0705   18.7186  -31.9914 H   0  0  0  0  0  0  0  0  0  0  0  0
   -1.6036   19.4826  -33.5272 H   0  0  0  0  0  0  0  0  0  0  0  0
   -0.2215   18.3352  -33.5272 H   0  0  0  0  0  0  0  0  0  0  0  0
    0.4110   21.1040  -34.0040 C   0  0  0  0  0  0  0  0  0  0  0  0
    0.6384   22.1498  -33.7498 H   0  0  0  0  0  0  0  0  0  0  0  0
    1.2383   20.6817  -34.5932 H   0  0  0  0  0  0  0  0  0  0  0  0
   -0.5170   21.0633  -34.5932 H   0  0  0  0  0  0  0  0  0  0  0  0
   -2.4090   21.9070  -32.6770 C   0  0  0  0  0  0  0  0  0  0  0  0
   -1.8075   22.2801  -33.5190 H   0  0  0  0  0  0  0  0  0  0  0  0
   -3.8020   22.0180  -32.7130 C   0  0  0  0  0  0  0  0  0  0  0  0
   -4.2913   22.4888  -33.5784 H   0  0  0  0  0  0  0  0  0  0  0  0
   -6.7830   20.5810  -32.2540 C   0  0  0  0  0  0  0  0  0  0  0  0
   -6.2528   19.7148  -32.6766 H   0  0  0  0  0  0  0  0  0  0  0  0
  1  2  1  0
  2  3  2  0
  3  4  1  0
  3  5  1  0
  5  6  1  0
  5  7  2  0
  7  8  1  0
  8  9  2  0
  8 10  2  0
  8 11  1  0
 11 12  2  0
 12 13  1  0
 13 14  1  0
 14 15  1  0
 15 16  1  0
 16 17  1  0
 16 18  1  0
 16 19  1  0
 15 20  2  0
 20 21  1  0
 21 22  1  0
 21 23  1  0
 21 24  1  0
  7 25  1  0
 25 26  1  0
 26 27  2  0
 27 28  1  0
 27 29  1  0
 29 30  1  0
 29 31  2  0
 31 32  1  0
 32 33  1  0
 32 34  1  0
 32 35  1  0
 35 36  1  0
 35 37  1  0
 37 38  1  0
 37 39  1  0
 37 40  1  0
 35 41  1  0
 41 42  1  0
 41 43  1  0
 41 44  1  0
 31 45  1  0
 45 46  1  0
 45 47  2  0
 47 48  1  0
 25 49  2  0
 49 50  1  0
 49  2  1  0
 20 12  1  0
 47 26  1  0
M  CHG  1  14  -1
M  END
>  <UniqueID>  (34) 
31

>  <SMILES>  (34) 
Cc1[n-]o/c(=N\S(=O)(=O)c2ccccc2-c2ccc(CC(C)C)cc2)c1C

>  <Energy>  (34) 
85.96633839818166

>  <Genealogy>  (34) 
Cc1[n-]oc(=NS(=O)(=O)c2ccccc2-c2ccc(CC(C)C)cc2)c1C (protonated)
Cc1[n-]o/c(=N\S(=O)(=O)c2ccccc2-c2ccc(CC(C)C)cc2)c1C (cis-trans isomerization)
Cc1[n-]o/c(=N\S(=O)(=O)c2ccccc2-c2ccc(CC(C)C)cc2)c1C (3D coordinates assigned)
Cc1[n-]o/c(=N\S(=O)(=O)c2ccccc2-c2ccc(CC(C)C)cc2)c1C (optimized conformer: 85.96633839818166 kcal/mol)

>  <smiles>  (34) 
Cc1[nH]oc(=NS(=O)(=O)c2ccccc2-c2ccc(CC(C)C)cc2)c1C

>  <score_type>  (34) 
oracle

>  <origin>  (34) 
adg

>  <m_score__min__energy>  (34) 
-11.859999999999999

>  <m_primary>  (34) 
energy

$$$$
34:0
     RDKit          3D

 49 52  0  0  0  0  0  0  0  0999 V2000
   -2.5310   25.3090  -26.3300 C   0  0  0  0  0  0  0  0  0  0  0  0
   -1.4910   26.0710  -27.1440 C   0  0  0  0  0  0  0  0  0  0  0  0
   -1.5850   25.7290  -28.5260 O   0  0  0  0  0  0  0  0  0  0  0  0
   -1.1400   24.5100  -29.0510 C   0  0  0  0  0  0  0  0  0  0  0  0
    0.0690   24.1690  -28.9350 O   0  0  0  0  0  0  0  0  0  0  0  0
   -2.1070   23.6200  -29.7160 C   0  0  0  0  0  0  0  0  0  0  0  0
   -1.7410   22.0430  -30.1840 S   0  0  0  0  0  0  0  0  0  0  0  0
   -3.2440   21.7350  -30.8550 C   0  0  0  0  0  0  0  0  0  0  0  0
   -3.6380   20.5620  -31.3960 N   0  0  0  0  0  0  0  0  0  0  0  0
   -4.9130   20.4080  -31.8480 C   0  0  0  0  0  0  0  0  0  0  0  0
   -5.2930   19.1450  -32.4200 N   0  0  0  0  0  0  0  0  0  0  0  0
   -4.8440   18.7760  -33.7610 C   0  0  0  0  0  0  0  0  0  0  0  0
   -6.0090   18.1380  -34.5250 C   0  0  0  0  0  0  0  0  0  0  0  0
   -6.5860   17.0840  -33.7740 O   0  0  0  0  0  0  0  0  0  0  0  0
   -7.1730   17.5980  -32.5920 C   0  0  0  0  0  0  0  0  0  0  0  0
   -6.1030   18.1870  -31.6670 C   0  0  0  0  0  0  0  0  0  0  0  0
   -5.8450   21.4730  -31.7310 C   0  0  0  0  0  0  0  0  0  0  0  0
   -5.4130   22.7350  -31.2220 C   0  0  0  0  0  0  0  0  0  0  0  0
   -4.0790   22.8390  -30.7500 C   0  0  0  0  0  0  0  0  0  0  0  0
   -3.4270   23.9180  -30.0940 C   0  0  0  0  0  0  0  0  0  0  0  0
   -4.0450   25.1670  -29.7730 N   0  0  0  0  0  0  0  0  0  0  0  0
   -6.3750   23.9060  -31.1190 C   0  0  0  0  0  0  0  0  0  0  0  0
   -7.7400   23.6690  -31.7760 C   0  0  0  0  0  0  0  0  0  0  0  0
   -8.2360   22.2560  -31.5150 C   0  0  0  0  0  0  0  0  0  0  0  0
   -7.2820   21.2570  -32.1630 C   0  0  0  0  0  0  0  0  0  0  0  0
   -2.3345   25.4530  -25.2573 H   0  0  0  0  0  0  0  0  0  0  0  0
   -3.5352   25.6866  -26.5727 H   0  0  0  0  0  0  0  0  0  0  0  0
   -2.4736   24.2377  -26.5727 H   0  0  0  0  0  0  0  0  0  0  0  0
   -1.6610   27.1514  -27.0267 H   0  0  0  0  0  0  0  0  0  0  0  0
   -0.4887   25.8014  -26.7796 H   0  0  0  0  0  0  0  0  0  0  0  0
   -2.9610   19.7680  -31.4600 H   0  0  0  0  0  0  0  0  0  0  0  0
   -4.5024   19.6750  -34.2949 H   0  0  0  0  0  0  0  0  0  0  0  0
   -4.0132   18.0588  -33.6881 H   0  0  0  0  0  0  0  0  0  0  0  0
   -6.7748   18.9033  -34.7197 H   0  0  0  0  0  0  0  0  0  0  0  0
   -5.6275   17.7285  -35.4720 H   0  0  0  0  0  0  0  0  0  0  0  0
   -7.8924   18.3860  -32.8594 H   0  0  0  0  0  0  0  0  0  0  0  0
   -7.6829   16.7779  -32.0652 H   0  0  0  0  0  0  0  0  0  0  0  0
   -6.5875   18.6983  -30.8222 H   0  0  0  0  0  0  0  0  0  0  0  0
   -5.4610   17.3806  -31.2827 H   0  0  0  0  0  0  0  0  0  0  0  0
   -4.9880   25.1840  -29.3260 H   0  0  0  0  0  0  0  0  0  0  0  0
   -3.4770   26.0400  -29.7290 H   0  0  0  0  0  0  0  0  0  0  0  0
   -6.5399   24.1221  -30.0531 H   0  0  0  0  0  0  0  0  0  0  0  0
   -5.9085   24.7419  -31.6610 H   0  0  0  0  0  0  0  0  0  0  0  0
   -8.4658   24.3860  -31.3648 H   0  0  0  0  0  0  0  0  0  0  0  0
   -7.6331   23.8063  -32.8621 H   0  0  0  0  0  0  0  0  0  0  0  0
   -8.2758   22.0753  -30.4307 H   0  0  0  0  0  0  0  0  0  0  0  0
   -9.2420   22.1345  -31.9429 H   0  0  0  0  0  0  0  0  0  0  0  0
   -7.5881   20.2394  -31.8786 H   0  0  0  0  0  0  0  0  0  0  0  0
   -7.3319   21.4008  -33.2524 H   0  0  0  0  0  0  0  0  0  0  0  0
  1  2  1  0
  2  3  1  0
  3  4  1  0
  4  5  2  0
  4  6  1  0
  6  7  1  0
  7  8  1  0
  8  9  2  0
  9 10  1  0
 10 11  1  0
 11 12  1  0
 12 13  1  0
 13 14  1  0
 14 15  1  0
 15 16  1  0
 10 17  2  0
 17 18  1  0
 18 19  2  0
 19 20  1  0
 20 21  1  0
 18 22  1  0
 22 23  1  0
 23 24  1  0
 24 25  1  0
 20  6  2  0
 19  8  1  0
 16 11  1  0
 25 17  1  0
  1 26  1  0
  1 27  1  0
  1 28  1  0
  2 29  1  0
  2 30  1  0
  9 31  1  0
 12 32  1  0
 12 33  1  0
 13 34  1  0
 13 35  1  0
 15 36  1  0
 15 37  1  0
 16 38  1  0
 16 39  1  0
 21 40  1  0
 21 41  1  0
 22 42  1  0
 22 43  1  0
 23 44  1  0
 23 45  1  0
 24 46  1  0
 24 47  1  0
 25 48  1  0
 25 49  1  0
M  CHG  1   9   1
M  END
>  <UniqueID>  (35) 
32

>  <SMILES>  (35) 
CCOC(=O)c1sc2[nH+]c(N3CCOCC3)c3c(c2c1N)CCCC3

>  <Energy>  (35) 
95.34489175427717

>  <Genealogy>  (35) 
CCOC(=O)c1sc2[nH+]c(N3CCOCC3)c3c(c2c1N)CCCC3 (protonated)
CCOC(=O)c1sc2[nH+]c(N3CCOCC3)c3c(c2c1N)CCCC3 (3D coordinates assigned)
CCOC(=O)c1sc2[nH+]c(N3CCOCC3)c3c(c2c1N)CCCC3 (nonaromatic ring conformer: 95.34489175427717 kcal/mol)

>  <smiles>  (35) 
CCOC(=O)c1sc2nc(N3CCOCC3)c3c(c2c1N)CCCC3

>  <score_type>  (35) 
oracle

>  <origin>  (35) 
adg

>  <m_score__min__energy>  (35) 
-8.6799999999999997

>  <m_primary>  (35) 
energy

$$$$
35:0
     RDKit          3D

 54 55  0  0  0  0  0  0  0  0999 V2000
   -6.1330   17.2190  -31.7530 C   0  0  0  0  0  0  0  0  0  0  0  0
   -6.5760   18.0030  -32.9870 C   0  0  0  0  0  0  0  0  0  0  0  0
   -6.5890   19.4570  -32.7140 N   0  0  0  0  0  0  0  0  0  0  0  0
   -7.9580   20.0240  -32.7870 C   0  0  0  0  0  0  0  0  0  0  0  0
   -8.9550   19.1730  -32.0020 C   0  0  0  0  0  0  0  0  0  0  0  0
   -5.5880   20.1960  -33.5290 C   0  0  0  0  0  0  0  0  0  0  0  0
   -4.1590   20.1040  -33.0080 C   0  0  0  0  0  0  0  0  0  0  0  0
   -3.1160   19.8280  -33.9030 C   0  0  0  0  0  0  0  0  0  0  0  0
   -1.8050   19.7480  -33.4490 C   0  0  0  0  0  0  0  0  0  0  0  0
   -1.5310   19.9570  -32.1000 C   0  0  0  0  0  0  0  0  0  0  0  0
   -2.5380   20.2470  -31.2200 N   0  0  0  0  0  0  0  0  0  0  0  0
   -2.1960   20.5080  -29.8110 C   0  0  0  0  0  0  0  0  0  0  0  0
   -1.9210   21.9760  -29.6020 C   0  0  0  0  0  0  0  0  0  0  0  0
   -2.8900   22.9230  -29.9450 C   0  0  0  0  0  0  0  0  0  0  0  0
   -2.6630   24.2920  -29.7200 C   0  0  0  0  0  0  0  0  0  0  0  0
   -3.6210   25.2640  -30.0510 O   0  0  0  0  0  0  0  0  0  0  0  0
   -5.0150   25.0100  -30.1970 C   0  0  0  0  0  0  0  0  0  0  0  0
   -1.4530   24.7210  -29.1470 C   0  0  0  0  0  0  0  0  0  0  0  0
   -1.3020   26.1080  -28.9570 O   0  0  0  0  0  0  0  0  0  0  0  0
   -0.8520   26.7580  -27.7730 C   0  0  0  0  0  0  0  0  0  0  0  0
   -0.4650   23.7650  -28.7960 C   0  0  0  0  0  0  0  0  0  0  0  0
    0.7460   24.1850  -28.2240 O   0  0  0  0  0  0  0  0  0  0  0  0
    1.2200   23.8010  -26.9370 C   0  0  0  0  0  0  0  0  0  0  0  0
   -0.7160   22.3990  -29.0280 C   0  0  0  0  0  0  0  0  0  0  0  0
   -3.8390   20.3420  -31.6540 C   0  0  0  0  0  0  0  0  0  0  0  0
   -4.7500   20.6640  -30.8430 O   0  0  0  0  0  0  0  0  0  0  0  0
   -6.4388   17.7602  -30.8455 H   0  0  0  0  0  0  0  0  0  0  0  0
   -6.6026   16.2243  -31.7625 H   0  0  0  0  0  0  0  0  0  0  0  0
   -5.0387   17.1080  -31.7625 H   0  0  0  0  0  0  0  0  0  0  0  0
   -5.8789   17.7981  -33.8129 H   0  0  0  0  0  0  0  0  0  0  0  0
   -7.5949   17.6875  -33.2559 H   0  0  0  0  0  0  0  0  0  0  0  0
   -7.9473   21.0410  -32.3679 H   0  0  0  0  0  0  0  0  0  0  0  0
   -8.2708   20.0403  -33.8415 H   0  0  0  0  0  0  0  0  0  0  0  0
   -8.7890   19.3147  -30.9239 H   0  0  0  0  0  0  0  0  0  0  0  0
   -9.9800   19.4789  -32.2585 H   0  0  0  0  0  0  0  0  0  0  0  0
   -8.8138   18.1127  -32.2585 H   0  0  0  0  0  0  0  0  0  0  0  0
   -5.6084   19.7889  -34.5507 H   0  0  0  0  0  0  0  0  0  0  0  0
   -5.8701   21.2583  -33.4844 H   0  0  0  0  0  0  0  0  0  0  0  0
   -3.3363   19.6740  -34.9697 H   0  0  0  0  0  0  0  0  0  0  0  0
   -0.9890   19.5210  -34.1509 H   0  0  0  0  0  0  0  0  0  0  0  0
   -0.4946   19.8883  -31.7380 H   0  0  0  0  0  0  0  0  0  0  0  0
   -3.0365   20.2016  -29.1709 H   0  0  0  0  0  0  0  0  0  0  0  0
   -1.2944   19.9345  -29.5497 H   0  0  0  0  0  0  0  0  0  0  0  0
   -3.8384   22.5943  -30.3949 H   0  0  0  0  0  0  0  0  0  0  0  0
   -5.4784   24.9256  -29.2030 H   0  0  0  0  0  0  0  0  0  0  0  0
   -5.4825   25.8377  -30.7504 H   0  0  0  0  0  0  0  0  0  0  0  0
   -5.1605   24.0705  -30.7504 H   0  0  0  0  0  0  0  0  0  0  0  0
   -1.2270   26.2163  -26.8922 H   0  0  0  0  0  0  0  0  0  0  0  0
    0.2478   26.7687  -27.7560 H   0  0  0  0  0  0  0  0  0  0  0  0
   -1.2291   27.7912  -27.7560 H   0  0  0  0  0  0  0  0  0  0  0  0
    0.6138   24.2921  -26.1615 H   0  0  0  0  0  0  0  0  0  0  0  0
    1.1408   22.7093  -26.8278 H   0  0  0  0  0  0  0  0  0  0  0  0
    2.2715   24.1051  -26.8278 H   0  0  0  0  0  0  0  0  0  0  0  0
    0.0454   21.6537  -28.7544 H   0  0  0  0  0  0  0  0  0  0  0  0
  1  2  1  0
  2  3  1  0
  3  4  1  0
  4  5  1  0
  3  6  1  0
  6  7  1  0
  7  8  2  0
  8  9  1  0
  9 10  2  0
 10 11  1  0
 11 12  1  0
 12 13  1  0
 13 14  2  0
 14 15  1  0
 15 16  1  0
 16 17  1  0
 15 18  2  0
 18 19  1  0
 19 20  1  0
 18 21  1  0
 21 22  1  0
 22 23  1  0
 21 24  2  0
 11 25  1  0
 25 26  2  0
 25  7  1  0
 24 13  1  0
  1 27  1  0
  1 28  1  0
  1 29  1  0
  2 30  1  0
  2 31  1  0
  4 32  1  0
  4 33  1  0
  5 34  1  0
  5 35  1  0
  5 36  1  0
  6 37  1  0
  6 38  1  0
  8 39  1  0
  9 40  1  0
 10 41  1  0
 12 42  1  0
 12 43  1  0
 14 44  1  0
 17 45  1  0
 17 46  1  0
 17 47  1  0
 20 48  1  0
 20 49  1  0
 20 50  1  0
 23 51  1  0
 23 52  1  0
 23 53  1  0
 24 54  1  0
M  END
>  <UniqueID>  (36) 
33

>  <SMILES>  (36) 
CCN(CC)Cc1cccn(Cc2cc(OC)c(OC)c(OC)c2)c1=O

>  <Energy>  (36) 
59.14723718971117

>  <Genealogy>  (36) 
CCN(CC)Cc1cccn(Cc2cc(OC)c(OC)c(OC)c2)c1=O (3D coordinates assigned)
CCN(CC)Cc1cccn(Cc2cc(OC)c(OC)c(OC)c2)c1=O (optimized conformer: 59.14723718971117 kcal/mol)

>  <smiles>  (36) 
CCN(CC)Cc1cccn(Cc2cc(OC)c(OC)c(OC)c2)c1=O

>  <score_type>  (36) 
oracle

>  <origin>  (36) 
adg

>  <m_score__min__energy>  (36) 
-7.5700000000000003

>  <m_primary>  (36) 
energy

$$$$
36:0
     RDKit          3D

 21 21  0  0  0  0  0  0  0  0999 V2000
   -9.4550   21.5420  -30.7230 C   0  0  0  0  0  0  0  0  0  0  0  0
   -8.9730   22.3060  -31.9510 C   0  0  0  0  0  0  0  0  0  0  0  0
   -7.5470   22.6320  -31.8210 N   0  0  0  0  0  0  0  0  0  0  0  0
   -7.1080   23.7860  -31.2440 C   0  0  0  0  0  0  0  0  0  0  0  0
   -5.7250   23.9450  -31.2510 C   0  0  0  0  0  0  0  0  0  0  0  0
   -4.9880   25.0870  -30.7000 C   0  0  0  0  0  0  0  0  0  0  0  0
   -5.5990   26.1590  -30.4350 O   0  0  0  0  0  0  0  0  0  0  0  0
   -3.6130   24.9790  -30.4710 O   0  0  0  0  0  0  0  0  0  0  0  0
   -3.0520   23.9820  -29.6270 C   0  0  0  0  0  0  0  0  0  0  0  0
   -5.0360   22.6100  -32.0140 S   0  0  0  0  0  0  0  0  0  0  0  0
   -6.5220   21.8810  -32.3020 C   0  0  0  0  0  0  0  0  0  0  0  0
   -6.6870   20.4500  -33.0850 S   0  0  0  0  0  0  0  0  0  0  0  0
   -9.1252   22.0648  -29.8131 H   0  0  0  0  0  0  0  0  0  0  0  0
  -10.5534   21.4842  -30.7349 H   0  0  0  0  0  0  0  0  0  0  0  0
   -9.0342   20.5257  -30.7349 H   0  0  0  0  0  0  0  0  0  0  0  0
   -9.1232   21.6853  -32.8466 H   0  0  0  0  0  0  0  0  0  0  0  0
   -9.5471   23.2402  -32.0394 H   0  0  0  0  0  0  0  0  0  0  0  0
   -7.7905   24.5307  -30.8085 H   0  0  0  0  0  0  0  0  0  0  0  0
   -3.2092   24.2614  -28.5748 H   0  0  0  0  0  0  0  0  0  0  0  0
   -3.5391   23.0161  -29.8266 H   0  0  0  0  0  0  0  0  0  0  0  0
   -1.9736   23.8970  -29.8266 H   0  0  0  0  0  0  0  0  0  0  0  0
  1  2  1  0
  2  3  1  0
  3  4  1  0
  4  5  2  0
  5  6  1  0
  6  7  2  0
  6  8  1  0
  8  9  1  0
  5 10  1  0
 10 11  1  0
 11 12  2  0
 11  3  1  0
  1 13  1  0
  1 14  1  0
  1 15  1  0
  2 16  1  0
  2 17  1  0
  4 18  1  0
  9 19  1  0
  9 20  1  0
  9 21  1  0
M  END
>  <UniqueID>  (37) 
34

>  <SMILES>  (37) 
CCn1cc(C(=O)OC)sc1=S

>  <Energy>  (37) 
43.80272434648132

>  <Genealogy>  (37) 
CCn1cc(C(=O)OC)sc1=S (3D coordinates assigned)
CCn1cc(C(=O)OC)sc1=S (optimized conformer: 43.80272434648132 kcal/mol)

>  <smiles>  (37) 
CCn1cc(C(=O)OC)sc1=S

>  <score_type>  (37) 
oracle

>  <origin>  (37) 
adg

>  <m_score__min__energy>  (37) 
-5.4699999999999998

>  <m_primary>  (37) 
energy

$$$$
37:0
     RDKit          3D

 32 34  0  0  0  0  0  0  0  0999 V2000
   -6.1160   25.6660  -29.6560 C   0  0  0  0  0  0  0  0  0  0  0  0
   -5.7660   24.3790  -30.3350 C   0  0  0  0  0  0  0  0  0  0  0  0
   -6.7590   23.5470  -30.7440 N   0  0  0  0  0  0  0  0  0  0  0  0
   -6.4970   22.3660  -31.3670 C   0  0  0  0  0  0  0  0  0  0  0  0
   -7.6300   21.5050  -31.7870 C   0  0  0  0  0  0  0  0  0  0  0  0
   -8.9880   21.8750  -31.7270 C   0  0  0  0  0  0  0  0  0  0  0  0
   -9.8570   20.8870  -32.1700 C   0  0  0  0  0  0  0  0  0  0  0  0
   -8.9470   19.5550  -32.6310 S   0  0  0  0  0  0  0  0  0  0  0  0
   -7.4430   20.2110  -32.2760 C   0  0  0  0  0  0  0  0  0  0  0  0
   -5.1980   22.0020  -31.5870 N   0  0  0  0  0  0  0  0  0  0  0  0
   -4.1720   22.8030  -31.1950 C   0  0  0  0  0  0  0  0  0  0  0  0
   -4.4300   24.0140  -30.5400 C   0  0  0  0  0  0  0  0  0  0  0  0
   -3.3990   24.8760  -30.1340 O   0  0  0  0  0  0  0  0  0  0  0  0
   -2.6810   24.7770  -28.9320 C   0  0  0  0  0  0  0  0  0  0  0  0
   -3.3210   24.5500  -27.6990 C   0  0  0  0  0  0  0  0  0  0  0  0
   -2.5700   24.4750  -26.5220 C   0  0  0  0  0  0  0  0  0  0  0  0
   -1.1820   24.6380  -26.5630 C   0  0  0  0  0  0  0  0  0  0  0  0
   -0.5440   24.8830  -27.7820 C   0  0  0  0  0  0  0  0  0  0  0  0
    0.8010   25.0510  -27.8210 F   0  0  0  0  0  0  0  0  0  0  0  0
   -1.2930   24.9580  -28.9620 C   0  0  0  0  0  0  0  0  0  0  0  0
   -6.0783   25.5273  -28.5654 H   0  0  0  0  0  0  0  0  0  0  0  0
   -5.3968   26.4440  -29.9518 H   0  0  0  0  0  0  0  0  0  0  0  0
   -7.1302   25.9726  -29.9518 H   0  0  0  0  0  0  0  0  0  0  0  0
   -9.3283   22.8557  -31.3630 H   0  0  0  0  0  0  0  0  0  0  0  0
  -10.9535   20.9642  -32.2116 H   0  0  0  0  0  0  0  0  0  0  0  0
   -6.4742   19.7066  -32.4066 H   0  0  0  0  0  0  0  0  0  0  0  0
   -4.9600   21.1000  -32.0530 H   0  0  0  0  0  0  0  0  0  0  0  0
   -3.1337   22.4986  -31.3932 H   0  0  0  0  0  0  0  0  0  0  0  0
   -4.4139   24.4314  -27.6614 H   0  0  0  0  0  0  0  0  0  0  0  0
   -3.0723   24.2873  -25.5616 H   0  0  0  0  0  0  0  0  0  0  0  0
   -0.5926   24.5734  -25.6365 H   0  0  0  0  0  0  0  0  0  0  0  0
   -0.7883   25.1603  -29.9182 H   0  0  0  0  0  0  0  0  0  0  0  0
  1  2  1  0
  2  3  2  0
  3  4  1  0
  4  5  1  0
  5  6  1  0
  6  7  2  0
  7  8  1  0
  8  9  1  0
  4 10  2  0
 10 11  1  0
 11 12  2  0
 12 13  1  0
 13 14  1  0
 14 15  2  0
 15 16  1  0
 16 17  2  0
 17 18  1  0
 18 19  1  0
 18 20  2  0
 12  2  1  0
 20 14  1  0
  9  5  2  0
  1 21  1  0
  1 22  1  0
  1 23  1  0
  6 24  1  0
  7 25  1  0
  9 26  1  0
 10 27  1  0
 11 28  1  0
 15 29  1  0
 16 30  1  0
 17 31  1  0
 20 32  1  0
M  CHG  1  10   1
M  END
>  <UniqueID>  (38) 
35

>  <SMILES>  (38) 
Cc1nc(-c2ccsc2)[nH+]cc1Oc1cccc(F)c1

>  <Energy>  (38) 
67.81263581511053

>  <Genealogy>  (38) 
Cc1nc(-c2ccsc2)[nH+]cc1Oc1cccc(F)c1 (protonated)
Cc1nc(-c2ccsc2)[nH+]cc1Oc1cccc(F)c1 (3D coordinates assigned)
Cc1nc(-c2ccsc2)[nH+]cc1Oc1cccc(F)c1 (optimized conformer: 67.81263581511053 kcal/mol)

>  <smiles>  (38) 
Cc1nc(-c2ccsc2)ncc1Oc1cccc(F)c1

>  <score_type>  (38) 
oracle

>  <origin>  (38) 
adg

>  <m_score__min__energy>  (38) 
-6.5499999999999998

>  <m_primary>  (38) 
energy

$$$$
38:0
     RDKit          3D

 47 50  0  0  0  0  0  0  0  0999 V2000
   -8.9850   23.2270  -31.9830 C   0  0  0  0  0  0  0  0  0  0  0  0
   -7.6390   23.4550  -32.6660 C   0  0  0  0  0  0  0  0  0  0  0  0
   -6.4780   23.2740  -31.7210 C   0  0  0  0  0  0  0  0  0  0  0  0
   -6.1610   24.1880  -30.7680 N   0  0  0  0  0  0  0  0  0  0  0  0
   -5.0340   23.6950  -30.2300 C   0  0  0  0  0  0  0  0  0  0  0  0
   -4.2830   24.2520  -29.2070 C   0  0  0  0  0  0  0  0  0  0  0  0
   -3.1200   23.5700  -28.8170 C   0  0  0  0  0  0  0  0  0  0  0  0
   -2.7400   22.4000  -29.4380 N   0  0  0  0  0  0  0  0  0  0  0  0
   -1.5250   21.7140  -28.9670 C   0  0  0  0  0  0  0  0  0  0  0  0
   -1.8910   20.5820  -28.0440 C   0  0  0  0  0  0  0  0  0  0  0  0
   -0.9980   19.5220  -27.8310 C   0  0  0  0  0  0  0  0  0  0  0  0
   -1.3330   18.4950  -26.9480 C   0  0  0  0  0  0  0  0  0  0  0  0
   -2.5570   18.5400  -26.2780 C   0  0  0  0  0  0  0  0  0  0  0  0
   -3.4120   19.5780  -26.4850 N   0  0  0  0  0  0  0  0  0  0  0  0
   -3.1060   20.5910  -27.3420 C   0  0  0  0  0  0  0  0  0  0  0  0
   -3.5040   21.8600  -30.4500 C   0  0  0  0  0  0  0  0  0  0  0  0
   -3.1610   20.7830  -31.0080 O   0  0  0  0  0  0  0  0  0  0  0  0
   -4.6710   22.5350  -30.8420 C   0  0  0  0  0  0  0  0  0  0  0  0
   -5.5820   22.2470  -31.7990 N   0  0  0  0  0  0  0  0  0  0  0  0
   -5.5770   21.1590  -32.7880 C   0  0  0  0  0  0  0  0  0  0  0  0
   -6.5920   20.1090  -32.4210 C   0  0  0  0  0  0  0  0  0  0  0  0
   -7.9560   20.3170  -32.6870 C   0  0  0  0  0  0  0  0  0  0  0  0
   -8.9000   19.3500  -32.3320 C   0  0  0  0  0  0  0  0  0  0  0  0
   -8.4920   18.1680  -31.7090 C   0  0  0  0  0  0  0  0  0  0  0  0
   -7.1370   17.9510  -31.4410 C   0  0  0  0  0  0  0  0  0  0  0  0
   -6.1890   18.9160  -31.7940 C   0  0  0  0  0  0  0  0  0  0  0  0
   -8.8508   23.2497  -30.8915 H   0  0  0  0  0  0  0  0  0  0  0  0
   -9.6871   24.0190  -32.2827 H   0  0  0  0  0  0  0  0  0  0  0  0
   -9.3871   22.2480  -32.2827 H   0  0  0  0  0  0  0  0  0  0  0  0
   -7.5365   22.7374  -33.4934 H   0  0  0  0  0  0  0  0  0  0  0  0
   -7.6181   24.4933  -33.0287 H   0  0  0  0  0  0  0  0  0  0  0  0
   -4.5862   25.1907  -28.7204 H   0  0  0  0  0  0  0  0  0  0  0  0
   -2.5019   23.9759  -28.0026 H   0  0  0  0  0  0  0  0  0  0  0  0
   -0.9752   21.3143  -29.8318 H   0  0  0  0  0  0  0  0  0  0  0  0
   -0.8960   22.4327  -28.4213 H   0  0  0  0  0  0  0  0  0  0  0  0
   -0.0337   19.5002  -28.3599 H   0  0  0  0  0  0  0  0  0  0  0  0
   -0.6393   17.6578  -26.7813 H   0  0  0  0  0  0  0  0  0  0  0  0
   -2.8309   17.7343  -25.5810 H   0  0  0  0  0  0  0  0  0  0  0  0
   -4.3220   19.5990  -25.9730 H   0  0  0  0  0  0  0  0  0  0  0  0
   -3.8145   21.4202  -27.4847 H   0  0  0  0  0  0  0  0  0  0  0  0
   -5.8223   21.5691  -33.7788 H   0  0  0  0  0  0  0  0  0  0  0  0
   -4.5783   20.6982  -32.8054 H   0  0  0  0  0  0  0  0  0  0  0  0
   -8.2823   21.2460  -33.1773 H   0  0  0  0  0  0  0  0  0  0  0  0
   -9.9661   19.5197  -32.5434 H   0  0  0  0  0  0  0  0  0  0  0  0
   -9.2366   17.4082  -31.4294 H   0  0  0  0  0  0  0  0  0  0  0  0
   -6.8164   17.0195  -30.9516 H   0  0  0  0  0  0  0  0  0  0  0  0
   -5.1241   18.7417  -31.5807 H   0  0  0  0  0  0  0  0  0  0  0  0
  1  2  1  0
  2  3  1  0
  3  4  2  0
  4  5  1  0
  5  6  1  0
  6  7  2  0
  7  8  1  0
  8  9  1  0
  9 10  1  0
 10 11  2  0
 11 12  1  0
 12 13  2  0
 13 14  1  0
 14 15  2  0
  8 16  1  0
 16 17  2  0
 16 18  1  0
 18 19  1  0
 19 20  1  0
 20 21  1  0
 21 22  2  0
 22 23  1  0
 23 24  2  0
 24 25  1  0
 25 26  2  0
 19  3  1  0
 26 21  1  0
 18  5  2  0
 15 10  1  0
  1 27  1  0
  1 28  1  0
  1 29  1  0
  2 30  1  0
  2 31  1  0
  6 32  1  0
  7 33  1  0
  9 34  1  0
  9 35  1  0
 11 36  1  0
 12 37  1  0
 13 38  1  0
 14 39  1  0
 15 40  1  0
 20 41  1  0
 20 42  1  0
 22 43  1  0
 23 44  1  0
 24 45  1  0
 25 46  1  0
 26 47  1  0
M  CHG  1  14   1
M  END
>  <UniqueID>  (39) 
36

>  <SMILES>  (39) 
CCc1nc2ccn(Cc3ccc[nH+]c3)c(=O)c2n1Cc1ccccc1

>  <Energy>  (39) 
88.741969864685

>  <Genealogy>  (39) 
CCc1nc2ccn(Cc3ccc[nH+]c3)c(=O)c2n1Cc1ccccc1 (protonated)
CCc1nc2ccn(Cc3ccc[nH+]c3)c(=O)c2n1Cc1ccccc1 (3D coordinates assigned)
CCc1nc2ccn(Cc3ccc[nH+]c3)c(=O)c2n1Cc1ccccc1 (optimized conformer: 88.741969864685 kcal/mol)

>  <smiles>  (39) 
CCc1nc2ccn(Cc3cccnc3)c(=O)c2n1Cc1ccccc1

>  <score_type>  (39) 
oracle

>  <origin>  (39) 
adg

>  <m_score__min__energy>  (39) 
-7.9100000000000001

>  <m_primary>  (39) 
energy

$$$$
39:0
     RDKit          3D

 29 31  0  0  0  0  0  0  0  0999 V2000
   -6.4610   23.8140  -31.2560 C   0  0  0  0  0  0  0  0  0  0  0  0
   -6.5450   24.6790  -30.1620 C   0  0  0  0  0  0  0  0  0  0  0  0
   -5.4190   24.9150  -29.3660 C   0  0  0  0  0  0  0  0  0  0  0  0
   -4.1970   24.2840  -29.6610 C   0  0  0  0  0  0  0  0  0  0  0  0
   -3.0030   24.5270  -28.8260 C   0  0  0  0  0  0  0  0  0  0  0  0
   -2.8130   23.9730  -27.6080 N   0  0  0  0  0  0  0  0  0  0  0  0
   -1.6230   24.4730  -27.2290 C   0  0  0  0  0  0  0  0  0  0  0  0
   -0.9220   24.0980  -25.9630 C   0  0  0  0  0  0  0  0  0  0  0  0
   -0.9270   25.2300  -25.0420 N   0  0  0  0  0  0  0  0  0  0  0  0
   -1.5000   26.4290  -25.2590 C   0  0  0  0  0  0  0  0  0  0  0  0
   -1.2120   27.2510  -24.1860 C   0  0  0  0  0  0  0  0  0  0  0  0
   -0.4370   26.4780  -23.3410 C   0  0  0  0  0  0  0  0  0  0  0  0
   -0.2770   25.2610  -23.8910 N   0  0  0  0  0  0  0  0  0  0  0  0
   -1.1230   25.2850  -28.2210 C   0  0  0  0  0  0  0  0  0  0  0  0
   -2.0040   25.3030  -29.1900 O   0  0  0  0  0  0  0  0  0  0  0  0
   -4.1220   23.4160  -30.7640 C   0  0  0  0  0  0  0  0  0  0  0  0
   -5.2510   23.1830  -31.5560 C   0  0  0  0  0  0  0  0  0  0  0  0
   -7.3473   23.6298  -31.8810 H   0  0  0  0  0  0  0  0  0  0  0  0
   -7.4980   25.1752  -29.9262 H   0  0  0  0  0  0  0  0  0  0  0  0
   -5.4896   25.5969  -28.5058 H   0  0  0  0  0  0  0  0  0  0  0  0
   -1.4393   23.2461  -25.4976 H   0  0  0  0  0  0  0  0  0  0  0  0
    0.1174   23.8200  -26.1917 H   0  0  0  0  0  0  0  0  0  0  0  0
   -2.0961   26.7071  -26.1407 H   0  0  0  0  0  0  0  0  0  0  0  0
   -1.5301   28.2934  -24.0366 H   0  0  0  0  0  0  0  0  0  0  0  0
   -0.0198   26.8048  -22.3771 H   0  0  0  0  0  0  0  0  0  0  0  0
    0.2770   24.4700  -23.4930 H   0  0  0  0  0  0  0  0  0  0  0  0
   -0.1619   25.8197  -28.2035 H   0  0  0  0  0  0  0  0  0  0  0  0
   -3.1714   22.9179  -31.0053 H   0  0  0  0  0  0  0  0  0  0  0  0
   -5.1862   22.5015  -32.4170 H   0  0  0  0  0  0  0  0  0  0  0  0
  1  2  2  0
  2  3  1  0
  3  4  2  0
  4  5  1  0
  5  6  2  0
  6  7  1  0
  7  8  1  0
  8  9  1  0
  9 10  1  0
 10 11  2  0
 11 12  1  0
 12 13  2  0
  7 14  2  0
 14 15  1  0
  4 16  1  0
 16 17  2  0
 17  1  1  0
 15  5  1  0
 13  9  1  0
  1 18  1  0
  2 19  1  0
  3 20  1  0
  8 21  1  0
  8 22  1  0
 10 23  1  0
 11 24  1  0
 12 25  1  0
 13 26  1  0
 14 27  1  0
 16 28  1  0
 17 29  1  0
M  CHG  1  13   1
M  END
>  <UniqueID>  (40) 
37

>  <SMILES>  (40) 
c1ccc(-c2nc(Cn3ccc[nH+]3)co2)cc1

>  <Energy>  (40) 
88.61611240884065

>  <Genealogy>  (40) 
c1ccc(-c2nc(Cn3ccc[nH+]3)co2)cc1 (protonated)
c1ccc(-c2nc(Cn3ccc[nH+]3)co2)cc1 (3D coordinates assigned)
c1ccc(-c2nc(Cn3ccc[nH+]3)co2)cc1 (optimized conformer: 88.61611240884065 kcal/mol)

>  <smiles>  (40) 
c1ccc(-c2nc(Cn3cccn3)co2)cc1

>  <score_type>  (40) 
oracle

>  <origin>  (40) 
adg

>  <m_score__min__energy>  (40) 
-7.0199999999999996

>  <m_primary>  (40) 
energy

$$$$
40:0
     RDKit          3D

 39 41  0  0  1  0  0  0  0  0999 V2000
   -6.4080   16.7720  -33.7720 C   0  0  0  0  0  0  0  0  0  0  0  0
   -7.2370   17.1710  -32.7120 O   0  0  0  0  0  0  0  0  0  0  0  0
   -7.5130   18.4970  -32.5200 C   0  0  0  0  0  0  0  0  0  0  0  0
   -8.8520   18.8430  -32.3280 C   0  0  0  0  0  0  0  0  0  0  0  0
   -9.2310   20.1480  -32.1270 C   0  0  0  0  0  0  0  0  0  0  0  0
   -8.3100   21.1660  -32.1050 C   0  0  0  0  0  0  0  0  0  0  0  0
   -8.6770   22.4540  -31.9080 N   0  0  0  0  0  0  0  0  0  0  0  0
   -7.7490   23.4210  -31.8950 C   0  0  0  0  0  0  0  0  0  0  0  0
   -6.4300   23.1460  -32.0750 N   0  0  0  0  0  0  0  0  0  0  0  0
   -6.0770   21.8720  -32.2690 C   0  0  0  0  0  0  0  0  0  0  0  0
   -4.8320   21.6170  -32.4320 N   0  0  0  0  0  0  0  0  0  0  0  0
   -3.7270   22.4380  -32.0180 C   0  0  0  0  0  0  0  0  0  0  0  0
   -3.6000   22.6270  -30.5630 C   0  0  0  0  0  0  0  0  0  0  0  0
   -3.2250   21.6270  -29.6900 C   0  0  0  0  0  0  0  0  0  0  0  0
   -3.1140   21.8110  -28.3270 C   0  0  0  0  0  0  0  0  0  0  0  0
   -3.3820   23.0370  -27.7520 C   0  0  0  0  0  0  0  0  0  0  0  0
   -3.7600   24.0530  -28.6100 C   0  0  0  0  0  0  0  0  0  0  0  0
   -3.8700   23.8660  -29.9740 C   0  0  0  0  0  0  0  0  0  0  0  0
   -4.2480   24.8820  -30.8430 O   0  0  0  0  0  0  0  0  0  0  0  0
   -5.3690   25.6880  -30.5390 C   0  0  0  0  0  0  0  0  0  0  0  0
   -6.9710   20.8180  -32.2960 C   0  0  0  0  0  0  0  0  0  0  0  0
   -6.5820   19.5100  -32.5000 C   0  0  0  0  0  0  0  0  0  0  0  0
   -5.4857   16.3281  -33.3691 H   0  0  0  0  0  0  0  0  0  0  0  0
   -6.9338   16.0283  -34.3888 H   0  0  0  0  0  0  0  0  0  0  0  0
   -6.1548   17.6469  -34.3888 H   0  0  0  0  0  0  0  0  0  0  0  0
   -9.6190   18.0546  -32.3379 H   0  0  0  0  0  0  0  0  0  0  0  0
  -10.2957   20.3825  -31.9805 H   0  0  0  0  0  0  0  0  0  0  0  0
   -8.0626   24.4631  -31.7347 H   0  0  0  0  0  0  0  0  0  0  0  0
   -5.7310   23.8920  -32.0650 H   0  0  0  0  0  0  0  0  0  0  0  0
   -2.8002   21.9715  -32.3832 H   0  0  0  0  0  0  0  0  0  0  0  0
   -3.9114   23.4362  -32.4417 H   0  0  0  0  0  0  0  0  0  0  0  0
   -3.0030   20.6314  -30.1017 H   0  0  0  0  0  0  0  0  0  0  0  0
   -2.8075   20.9686  -27.6895 H   0  0  0  0  0  0  0  0  0  0  0  0
   -3.2991   23.1973  -26.6669 H   0  0  0  0  0  0  0  0  0  0  0  0
   -3.9811   25.0459  -28.1913 H   0  0  0  0  0  0  0  0  0  0  0  0
   -5.4787   25.7669  -29.4473 H   0  0  0  0  0  0  0  0  0  0  0  0
   -5.2260   26.6914  -30.9666 H   0  0  0  0  0  0  0  0  0  0  0  0
   -6.2746   25.2329  -30.9666 H   0  0  0  0  0  0  0  0  0  0  0  0
   -5.5177   19.2749  -32.6480 H   0  0  0  0  0  0  0  0  0  0  0  0
  1  2  1  0
  2  3  1  0
  3  4  2  0
  4  5  1  0
  5  6  2  0
  6  7  1  0
  7  8  2  0
  8  9  1  0
  9 10  1  0
 10 11  2  0
 11 12  1  0
 12 13  1  0
 13 14  2  0
 14 15  1  0
 15 16  2  0
 16 17  1  0
 17 18  2  0
 18 19  1  0
 19 20  1  0
 10 21  1  0
 21 22  2  0
 22  3  1  0
 21  6  1  0
 18 13  1  0
  1 23  1  0
  1 24  1  0
  1 25  1  0
  4 26  1  0
  5 27  1  0
  8 28  1  0
  9 29  1  0
 12 30  1  0
 12 31  1  0
 14 32  1  0
 15 33  1  0
 16 34  1  0
 17 35  1  0
 20 36  1  0
 20 37  1  0
 20 38  1  0
 22 39  1  0
M  END
>  <smiles>  (41) 
COc1ccc2nc[nH]c(=NCc3ccccc3OC)c2c1

>  <score_type>  (41) 
oracle

>  <origin>  (41) 
adg

>  <m_score__min__energy>  (41) 
-7.3600000000000003

>  <m_primary>  (41) 
energy

$$$$
41:0
     RDKit          3D

 39 42  0  0  0  0  0  0  0  0999 V2000
   -7.9729   21.4275  -32.1805 H   0  0  0  0  0  0  0  0  0  0  0  0
   -7.4840   22.2560  -31.6470 C   0  0  0  0  0  0  0  0  0  0  0  0
   -6.5190   23.4430  -32.3440 S   0  0  0  0  0  0  0  0  0  0  0  0
   -6.1660   24.2570  -30.9130 C   0  0  0  0  0  0  0  0  0  0  0  0
   -5.3840   25.5340  -30.7960 C   0  0  0  0  0  0  0  0  0  0  0  0
   -5.6372   26.0226  -29.8436 H   0  0  0  0  0  0  0  0  0  0  0  0
   -5.6456   26.1792  -31.6476 H   0  0  0  0  0  0  0  0  0  0  0  0
   -3.9460   25.2840  -30.8340 N   0  0  0  0  0  0  0  0  0  0  0  0
   -3.1780   24.5390  -30.0850 C   0  0  0  0  0  0  0  0  0  0  0  0
   -2.6460   25.1150  -28.9690 N   0  0  0  0  0  0  0  0  0  0  0  0
   -1.8010   24.4670  -28.1090 C   0  0  0  0  0  0  0  0  0  0  0  0
   -1.2810   25.1840  -26.9180 C   0  0  0  0  0  0  0  0  0  0  0  0
   -0.8540   26.5240  -26.9940 C   0  0  0  0  0  0  0  0  0  0  0  0
   -0.8978   27.0566  -27.9555 H   0  0  0  0  0  0  0  0  0  0  0  0
   -0.3750   27.1830  -25.8580 C   0  0  0  0  0  0  0  0  0  0  0  0
   -0.0313   28.2251  -25.9349 H   0  0  0  0  0  0  0  0  0  0  0  0
   -0.3300   26.5250  -24.6230 C   0  0  0  0  0  0  0  0  0  0  0  0
    0.2210   27.2210  -23.4130 C   0  0  0  0  0  0  0  0  0  0  0  0
   -0.1634   26.7354  -22.5039 H   0  0  0  0  0  0  0  0  0  0  0  0
    1.3193   27.1614  -23.4241 H   0  0  0  0  0  0  0  0  0  0  0  0
   -0.0890   28.2763  -23.4241 H   0  0  0  0  0  0  0  0  0  0  0  0
   -0.7470   25.1890  -24.5400 C   0  0  0  0  0  0  0  0  0  0  0  0
   -0.6961   24.6585  -23.5777 H   0  0  0  0  0  0  0  0  0  0  0  0
   -1.2270   24.5280  -25.6740 C   0  0  0  0  0  0  0  0  0  0  0  0
   -1.5660   23.4846  -25.5934 H   0  0  0  0  0  0  0  0  0  0  0  0
   -1.4670   23.1290  -28.3780 C   0  0  0  0  0  0  0  0  0  0  0  0
   -0.7960   22.5658  -27.7127 H   0  0  0  0  0  0  0  0  0  0  0  0
   -1.9990   22.5560  -29.4840 N   0  0  0  0  0  0  0  0  0  0  0  0
   -1.8480   21.3000  -29.9340 C   0  0  0  0  0  0  0  0  0  0  0  0
   -1.2310   20.5124  -29.4768 H   0  0  0  0  0  0  0  0  0  0  0  0
   -2.6120   21.1820  -31.0780 C   0  0  0  0  0  0  0  0  0  0  0  0
   -2.7046   20.2727  -31.6901 H   0  0  0  0  0  0  0  0  0  0  0  0
   -3.2280   22.3580  -31.3280 N   0  0  0  0  0  0  0  0  0  0  0  0
   -3.8790   22.5130  -32.1200 H   0  0  0  0  0  0  0  0  0  0  0  0
   -2.8290   23.1870  -30.3340 C   0  0  0  0  0  0  0  0  0  0  0  0
   -6.8330   23.6260  -29.8710 C   0  0  0  0  0  0  0  0  0  0  0  0
   -6.7955   23.9748  -28.8284 H   0  0  0  0  0  0  0  0  0  0  0  0
   -7.5580   22.5010  -30.2820 C   0  0  0  0  0  0  0  0  0  0  0  0
   -8.1328   21.8699  -29.5883 H   0  0  0  0  0  0  0  0  0  0  0  0
  1  2  1  0
  2  3  1  0
  3  4  1  0
  4  5  1  0
  5  6  1  0
  5  7  1  0
  5  8  1  0
  8  9  2  0
  9 10  1  0
 10 11  1  0
 11 12  1  0
 12 13  2  0
 13 14  1  0
 13 15  1  0
 15 16  1  0
 15 17  2  0
 17 18  1  0
 18 19  1  0
 18 20  1  0
 18 21  1  0
 17 22  1  0
 22 23  1  0
 22 24  2  0
 24 25  1  0
 11 26  2  0
 26 27  1  0
 26 28  1  0
 28 29  1  0
 29 30  1  0
 29 31  2  0
 31 32  1  0
 31 33  1  0
 33 34  1  0
 33 35  2  0
  4 36  2  0
 36 37  1  0
 36 38  1  0
 38 39  1  0
 38  2  2  0
 35  9  1  0
 24 12  1  0
 35 28  1  0
M  CHG  2  10  -1  33   1
M  END
>  <UniqueID>  (42) 
38

>  <SMILES>  (42) 
Cc1ccc(-c2cn3cc[nH+]c3/c(=N\Cc3cccs3)[n-]2)cc1

>  <Energy>  (42) 
116.99049092670013

>  <Genealogy>  (42) 
Cc1ccc(-c2cn3cc[nH+]c3c(=NCc3cccs3)[n-]2)cc1 (protonated)
Cc1ccc(-c2cn3cc[nH+]c3/c(=N\Cc3cccs3)[n-]2)cc1 (cis-trans isomerization)
Cc1ccc(-c2cn3cc[nH+]c3/c(=N\Cc3cccs3)[n-]2)cc1 (3D coordinates assigned)
Cc1ccc(-c2cn3cc[nH+]c3/c(=N\Cc3cccs3)[n-]2)cc1 (optimized conformer: 116.99049092670013 kcal/mol)

>  <smiles>  (42) 
Cc1ccc(-c2cn3ccnc3c(=NCc3cccs3)[nH]2)cc1

>  <score_type>  (42) 
oracle

>  <origin>  (42) 
adg

>  <m_score__min__energy>  (42) 
-8.25

>  <m_primary>  (42) 
energy

$$$$
42:0
     RDKit          3D

 54 57  0  0  0  0  0  0  0  0999 V2000
   -1.6600   19.3980  -27.0340 C   0  0  0  0  0  0  0  0  0  0  0  0
   -0.6880   19.7980  -27.9750 O   0  0  0  0  0  0  0  0  0  0  0  0
   -0.0750   21.0050  -27.5670 C   0  0  0  0  0  0  0  0  0  0  0  0
   -0.1150   22.0310  -28.7070 C   0  0  0  0  0  0  0  0  0  0  0  0
   -1.3050   21.8350  -29.5630 N   0  0  0  0  0  0  0  0  0  0  0  0
   -2.5840   22.0730  -29.0890 C   0  0  0  0  0  0  0  0  0  0  0  0
   -2.8990   22.8390  -27.4870 S   0  0  0  0  0  0  0  0  0  0  0  0
   -3.8780   24.2430  -28.1410 C   0  0  0  0  0  0  0  0  0  0  0  0
   -3.1750   24.9050  -29.2890 C   0  0  0  0  0  0  0  0  0  0  0  0
   -1.9420   25.1390  -29.1890 O   0  0  0  0  0  0  0  0  0  0  0  0
   -3.8470   25.2600  -30.5060 N   0  0  0  0  0  0  0  0  0  0  0  0
   -5.2450   25.6600  -30.6090 C   0  0  0  0  0  0  0  0  0  0  0  0
   -6.1000   24.4470  -30.8320 C   0  0  0  0  0  0  0  0  0  0  0  0
   -6.3930   24.0140  -32.1370 C   0  0  0  0  0  0  0  0  0  0  0  0
   -7.2020   22.8920  -32.3430 C   0  0  0  0  0  0  0  0  0  0  0  0
   -7.7340   22.2040  -31.2500 C   0  0  0  0  0  0  0  0  0  0  0  0
   -7.4610   22.6370  -29.9500 C   0  0  0  0  0  0  0  0  0  0  0  0
   -6.6500   23.7570  -29.7390 C   0  0  0  0  0  0  0  0  0  0  0  0
   -3.6690   21.7580  -29.8500 N   0  0  0  0  0  0  0  0  0  0  0  0
   -3.4910   21.2700  -31.0950 C   0  0  0  0  0  0  0  0  0  0  0  0
   -4.6910   20.9560  -32.2210 S   0  0  0  0  0  0  0  0  0  0  0  0
   -3.6140   20.5690  -33.4650 C   0  0  0  0  0  0  0  0  0  0  0  0
   -2.3020   20.6810  -32.9930 C   0  0  0  0  0  0  0  0  0  0  0  0
   -1.1370   20.4560  -33.8660 C   0  0  0  0  0  0  0  0  0  0  0  0
   -0.7330   19.1510  -34.1910 C   0  0  0  0  0  0  0  0  0  0  0  0
    0.3720   18.9470  -35.0220 C   0  0  0  0  0  0  0  0  0  0  0  0
    1.0740   20.0400  -35.5380 C   0  0  0  0  0  0  0  0  0  0  0  0
    0.6690   21.3420  -35.2260 C   0  0  0  0  0  0  0  0  0  0  0  0
   -0.4370   21.5500  -34.3970 C   0  0  0  0  0  0  0  0  0  0  0  0
   -2.2450   21.0880  -31.6430 C   0  0  0  0  0  0  0  0  0  0  0  0
   -1.1260   21.3680  -30.8490 C   0  0  0  0  0  0  0  0  0  0  0  0
    0.0360   21.2060  -31.3140 O   0  0  0  0  0  0  0  0  0  0  0  0
   -1.2729   19.5573  -26.0168 H   0  0  0  0  0  0  0  0  0  0  0  0
   -2.5743   19.9930  -27.1758 H   0  0  0  0  0  0  0  0  0  0  0  0
   -1.8907   18.3318  -27.1758 H   0  0  0  0  0  0  0  0  0  0  0  0
   -0.6116   21.4087  -26.6958 H   0  0  0  0  0  0  0  0  0  0  0  0
    0.9734   20.8035  -27.3019 H   0  0  0  0  0  0  0  0  0  0  0  0
   -0.1450   23.0432  -28.2775 H   0  0  0  0  0  0  0  0  0  0  0  0
    0.7845   21.8982  -29.3261 H   0  0  0  0  0  0  0  0  0  0  0  0
   -4.8544   23.8707  -28.4845 H   0  0  0  0  0  0  0  0  0  0  0  0
   -4.0066   24.9829  -27.3373 H   0  0  0  0  0  0  0  0  0  0  0  0
   -5.5527   26.1588  -29.6781 H   0  0  0  0  0  0  0  0  0  0  0  0
   -5.3656   26.3528  -31.4549 H   0  0  0  0  0  0  0  0  0  0  0  0
   -5.9841   24.5601  -32.9999 H   0  0  0  0  0  0  0  0  0  0  0  0
   -7.4194   22.5512  -33.3660 H   0  0  0  0  0  0  0  0  0  0  0  0
   -8.3686   21.3204  -31.4129 H   0  0  0  0  0  0  0  0  0  0  0  0
   -7.8846   22.0962  -29.0909 H   0  0  0  0  0  0  0  0  0  0  0  0
   -6.4423   24.0984  -28.7142 H   0  0  0  0  0  0  0  0  0  0  0  0
   -3.9000   20.2751  -34.4857 H   0  0  0  0  0  0  0  0  0  0  0  0
   -1.2867   18.2887  -33.7912 H   0  0  0  0  0  0  0  0  0  0  0  0
    0.6900   17.9237  -35.2706 H   0  0  0  0  0  0  0  0  0  0  0  0
    1.9450   19.8763  -36.1895 H   0  0  0  0  0  0  0  0  0  0  0  0
    1.2208   22.2021  -35.6330 H   0  0  0  0  0  0  0  0  0  0  0  0
   -0.7596   22.5746  -34.1601 H   0  0  0  0  0  0  0  0  0  0  0  0
  1  2  1  0
  2  3  1  0
  3  4  1  0
  4  5  1  0
  5  6  1  0
  6  7  1  0
  7  8  1  0
  8  9  1  0
  9 10  2  0
  9 11  1  0
 11 12  1  0
 12 13  1  0
 13 14  2  0
 14 15  1  0
 15 16  2  0
 16 17  1  0
 17 18  2  0
  6 19  2  0
 19 20  1  0
 20 21  1  0
 21 22  1  0
 22 23  2  0
 23 24  1  0
 24 25  2  0
 25 26  1  0
 26 27  2  0
 27 28  1  0
 28 29  2  0
 23 30  1  0
 30 31  1  0
 31 32  2  0
 31  5  1  0
 18 13  1  0
 30 20  2  0
 29 24  1  0
  1 33  1  0
  1 34  1  0
  1 35  1  0
  3 36  1  0
  3 37  1  0
  4 38  1  0
  4 39  1  0
  8 40  1  0
  8 41  1  0
 12 42  1  0
 12 43  1  0
 14 44  1  0
 15 45  1  0
 16 46  1  0
 17 47  1  0
 18 48  1  0
 22 49  1  0
 25 50  1  0
 26 51  1  0
 27 52  1  0
 28 53  1  0
 29 54  1  0
M  CHG  1  11  -1
M  END
>  <UniqueID>  (43) 
39

>  <SMILES>  (43) 
COCCn1c(SCC(=O)[N-]Cc2ccccc2)nc2scc(-c3ccccc3)c2c1=O

>  <Energy>  (43) 
94.34590698470416

>  <Genealogy>  (43) 
COCCn1c(SCC(=O)[N-]Cc2ccccc2)nc2scc(-c3ccccc3)c2c1=O (protonated)
COCCn1c(SCC(=O)[N-]Cc2ccccc2)nc2scc(-c3ccccc3)c2c1=O (3D coordinates assigned)
COCCn1c(SCC(=O)[N-]Cc2ccccc2)nc2scc(-c3ccccc3)c2c1=O (optimized conformer: 94.34590698470416 kcal/mol)

>  <smiles>  (43) 
COCCn1c(SCC(=O)NCc2ccccc2)nc2scc(-c3ccccc3)c2c1=O

>  <score_type>  (43) 
oracle

>  <origin>  (43) 
adg

>  <m_score__min__energy>  (43) 
-11.41

>  <m_primary>  (43) 
energy

$$$$
43:0
     RDKit          3D

 36 38  0  0  0  0  0  0  0  0999 V2000
   -9.5280   21.6730  -31.4320 C   0  0  0  0  0  0  0  0  0  0  0  0
   -8.1950   21.2330  -31.8770 N   0  0  0  0  0  0  0  0  0  0  0  0
   -7.0960   22.0370  -31.6560 C   0  0  0  0  0  0  0  0  0  0  0  0
   -7.2280   23.6220  -30.8130 S   0  0  0  0  0  0  0  0  0  0  0  0
   -5.7230   24.2940  -31.5880 C   0  0  0  0  0  0  0  0  0  0  0  0
   -5.1060   25.3020  -30.6770 C   0  0  0  0  0  0  0  0  0  0  0  0
   -5.8190   26.2210  -30.1920 O   0  0  0  0  0  0  0  0  0  0  0  0
   -3.6910   25.2700  -30.4500 N   0  0  0  0  0  0  0  0  0  0  0  0
   -3.0070   24.5290  -29.4290 C   0  0  0  0  0  0  0  0  0  0  0  0
   -1.7500   24.9230  -28.9330 C   0  0  0  0  0  0  0  0  0  0  0  0
   -1.1290   24.1830  -27.9210 C   0  0  0  0  0  0  0  0  0  0  0  0
   -1.7610   23.0560  -27.3890 C   0  0  0  0  0  0  0  0  0  0  0  0
   -1.1580   22.3410  -26.4070 F   0  0  0  0  0  0  0  0  0  0  0  0
   -3.0190   22.6730  -27.8600 C   0  0  0  0  0  0  0  0  0  0  0  0
   -3.6430   23.4110  -28.8710 C   0  0  0  0  0  0  0  0  0  0  0  0
   -5.8620   21.6440  -32.0790 N   0  0  0  0  0  0  0  0  0  0  0  0
   -5.6960   20.4520  -32.6970 C   0  0  0  0  0  0  0  0  0  0  0  0
   -6.7550   19.6100  -32.8870 C   0  0  0  0  0  0  0  0  0  0  0  0
   -8.0270   20.0070  -32.4800 C   0  0  0  0  0  0  0  0  0  0  0  0
   -9.0060   19.2320  -32.6650 O   0  0  0  0  0  0  0  0  0  0  0  0
   -6.3500   18.0760  -33.6910 S   0  0  0  0  0  0  0  0  0  0  0  0
   -4.7180   18.7870  -34.1400 C   0  0  0  0  0  0  0  0  0  0  0  0
   -4.3940   19.9570  -33.2000 C   0  0  0  0  0  0  0  0  0  0  0  0
   -9.5623   21.6843  -30.3326 H   0  0  0  0  0  0  0  0  0  0  0  0
   -9.7272   22.6846  -31.8155 H   0  0  0  0  0  0  0  0  0  0  0  0
  -10.2902   20.9788  -31.8155 H   0  0  0  0  0  0  0  0  0  0  0  0
   -5.0083   23.4780  -31.7708 H   0  0  0  0  0  0  0  0  0  0  0  0
   -5.9833   24.7722  -32.5438 H   0  0  0  0  0  0  0  0  0  0  0  0
   -1.2543   25.8156  -29.3424 H   0  0  0  0  0  0  0  0  0  0  0  0
   -0.1420   24.4887  -27.5437 H   0  0  0  0  0  0  0  0  0  0  0  0
   -3.5194   21.7902  -27.4354 H   0  0  0  0  0  0  0  0  0  0  0  0
   -4.6388   23.1125  -29.2305 H   0  0  0  0  0  0  0  0  0  0  0  0
   -3.9419   18.0134  -34.0437 H   0  0  0  0  0  0  0  0  0  0  0  0
   -4.7484   19.1483  -35.1785 H   0  0  0  0  0  0  0  0  0  0  0  0
   -3.7675   19.6128  -32.3639 H   0  0  0  0  0  0  0  0  0  0  0  0
   -3.8370   20.7493  -33.7215 H   0  0  0  0  0  0  0  0  0  0  0  0
  1  2  1  0
  2  3  1  0
  3  4  1  0
  4  5  1  0
  5  6  1  0
  6  7  2  0
  6  8  1  0
  8  9  1  0
  9 10  2  0
 10 11  1  0
 11 12  2  0
 12 13  1  0
 12 14  1  0
 14 15  2  0
  3 16  2  0
 16 17  1  0
 17 18  2  0
 18 19  1  0
 19 20  2  0
 18 21  1  0
 21 22  1  0
 22 23  1  0
 19  2  1  0
 15  9  1  0
 23 17  1  0
  1 24  1  0
  1 25  1  0
  1 26  1  0
  5 27  1  0
  5 28  1  0
 10 29  1  0
 11 30  1  0
 14 31  1  0
 15 32  1  0
 22 33  1  0
 22 34  1  0
 23 35  1  0
 23 36  1  0
M  CHG  1   8  -1
M  END
>  <UniqueID>  (44) 
40

>  <SMILES>  (44) 
Cn1c(SCC(=O)[N-]c2ccc(F)cc2)nc2c(c1=O)SCC2

>  <Energy>  (44) 
48.52871936330254

>  <Genealogy>  (44) 
Cn1c(SCC(=O)[N-]c2ccc(F)cc2)nc2c(c1=O)SCC2 (protonated)
Cn1c(SCC(=O)[N-]c2ccc(F)cc2)nc2c(c1=O)SCC2 (3D coordinates assigned)
Cn1c(SCC(=O)[N-]c2ccc(F)cc2)nc2c(c1=O)SCC2 (nonaromatic ring conformer: 48.52871936330254 kcal/mol)

>  <smiles>  (44) 
Cn1c(SCC(=O)Nc2ccc(F)cc2)nc2c(c1=O)SCC2

>  <score_type>  (44) 
oracle

>  <origin>  (44) 
adg

>  <m_score__min__energy>  (44) 
-9.9800000000000004

>  <m_primary>  (44) 
energy

$$$$
44:0
     RDKit          3D

 42 44  0  0  0  0  0  0  0  0999 V2000
   -5.7340   25.8850  -30.1230 C   0  0  0  0  0  0  0  0  0  0  0  0
   -4.5810   25.4270  -30.8230 O   0  0  0  0  0  0  0  0  0  0  0  0
   -4.1230   24.0990  -30.8300 C   0  0  0  0  0  0  0  0  0  0  0  0
   -4.7880   23.0910  -31.5520 C   0  0  0  0  0  0  0  0  0  0  0  0
   -4.3160   21.7730  -31.5430 C   0  0  0  0  0  0  0  0  0  0  0  0
   -5.0030   20.7440  -32.2850 N   0  0  0  0  0  0  0  0  0  0  0  0
   -6.1030   20.8890  -33.0560 C   0  0  0  0  0  0  0  0  0  0  0  0
   -6.4860   19.7250  -33.6110 N   0  0  0  0  0  0  0  0  0  0  0  0
   -5.6000   18.8040  -33.1760 C   0  0  0  0  0  0  0  0  0  0  0  0
   -5.6310   17.3620  -33.5290 C   0  0  0  0  0  0  0  0  0  0  0  0
   -4.4500   16.5960  -33.5170 C   0  0  0  0  0  0  0  0  0  0  0  0
   -4.4820   15.2370  -33.8500 C   0  0  0  0  0  0  0  0  0  0  0  0
   -5.6890   14.6290  -34.1990 C   0  0  0  0  0  0  0  0  0  0  0  0
   -6.8680   15.3770  -34.2140 C   0  0  0  0  0  0  0  0  0  0  0  0
   -6.8430   16.7350  -33.8820 C   0  0  0  0  0  0  0  0  0  0  0  0
   -4.6810   19.4350  -32.3550 C   0  0  0  0  0  0  0  0  0  0  0  0
   -3.1650   21.4670  -30.8020 C   0  0  0  0  0  0  0  0  0  0  0  0
   -2.4830   22.4600  -30.0710 C   0  0  0  0  0  0  0  0  0  0  0  0
   -1.3300   22.1450  -29.3330 O   0  0  0  0  0  0  0  0  0  0  0  0
   -1.2690   21.1940  -28.2750 C   0  0  0  0  0  0  0  0  0  0  0  0
   -2.9720   23.7910  -30.0890 C   0  0  0  0  0  0  0  0  0  0  0  0
   -2.3660   24.8560  -29.3940 O   0  0  0  0  0  0  0  0  0  0  0  0
   -1.9880   24.8680  -28.0210 C   0  0  0  0  0  0  0  0  0  0  0  0
   -5.5571   25.8148  -29.0396 H   0  0  0  0  0  0  0  0  0  0  0  0
   -5.9360   26.9317  -30.3944 H   0  0  0  0  0  0  0  0  0  0  0  0
   -6.5992   25.2623  -30.3944 H   0  0  0  0  0  0  0  0  0  0  0  0
   -5.6895   23.3415  -32.1304 H   0  0  0  0  0  0  0  0  0  0  0  0
   -6.6236   21.8454  -33.2114 H   0  0  0  0  0  0  0  0  0  0  0  0
   -7.3120   19.5830  -34.2310 H   0  0  0  0  0  0  0  0  0  0  0  0
   -3.4951   17.0690  -33.2439 H   0  0  0  0  0  0  0  0  0  0  0  0
   -3.5539   14.6467  -33.8367 H   0  0  0  0  0  0  0  0  0  0  0  0
   -5.7114   13.5612  -34.4621 H   0  0  0  0  0  0  0  0  0  0  0  0
   -7.8190   14.8966  -34.4877 H   0  0  0  0  0  0  0  0  0  0  0  0
   -7.7756   17.3181  -33.8964 H   0  0  0  0  0  0  0  0  0  0  0  0
   -3.8334   18.9522  -31.8467 H   0  0  0  0  0  0  0  0  0  0  0  0
   -2.7881   20.4336  -30.7914 H   0  0  0  0  0  0  0  0  0  0  0  0
   -1.3026   21.7181  -27.3085 H   0  0  0  0  0  0  0  0  0  0  0  0
   -2.1249   20.5071  -28.3496 H   0  0  0  0  0  0  0  0  0  0  0  0
   -0.3323   20.6221  -28.3496 H   0  0  0  0  0  0  0  0  0  0  0  0
   -2.8900   24.8394  -27.3921 H   0  0  0  0  0  0  0  0  0  0  0  0
   -1.3625   23.9893  -27.8052 H   0  0  0  0  0  0  0  0  0  0  0  0
   -1.4195   25.7846  -27.8052 H   0  0  0  0  0  0  0  0  0  0  0  0
  1  2  1  0
  2  3  1  0
  3  4  2  0
  4  5  1  0
  5  6  1  0
  6  7  1  0
  7  8  2  0
  8  9  1  0
  9 10  1  0
 10 11  2  0
 11 12  1  0
 12 13  2  0
 13 14  1  0
 14 15  2  0
  9 16  2  0
  5 17  2  0
 17 18  1  0
 18 19  1  0
 19 20  1  0
 18 21  2  0
 21 22  1  0
 22 23  1  0
 21  3  1  0
 16  6  1  0
 15 10  1  0
  1 24  1  0
  1 25  1  0
  1 26  1  0
  4 27  1  0
  7 28  1  0
  8 29  1  0
 11 30  1  0
 12 31  1  0
 13 32  1  0
 14 33  1  0
 15 34  1  0
 16 35  1  0
 17 36  1  0
 20 37  1  0
 20 38  1  0
 20 39  1  0
 23 40  1  0
 23 41  1  0
 23 42  1  0
M  CHG  1   8   1
M  END
>  <UniqueID>  (45) 
41

>  <SMILES>  (45) 
COc1cc(-n2c[nH+]c(-c3ccccc3)c2)cc(OC)c1OC

>  <Energy>  (45) 
82.18127096546722

>  <Genealogy>  (45) 
COc1cc(-n2c[nH+]c(-c3ccccc3)c2)cc(OC)c1OC (protonated)
COc1cc(-n2c[nH+]c(-c3ccccc3)c2)cc(OC)c1OC (3D coordinates assigned)
COc1cc(-n2c[nH+]c(-c3ccccc3)c2)cc(OC)c1OC (optimized conformer: 82.18127096546722 kcal/mol)

>  <smiles>  (45) 
COc1cc(-n2cnc(-c3ccccc3)c2)cc(OC)c1OC

>  <score_type>  (45) 
oracle

>  <origin>  (45) 
adg

>  <m_score__min__energy>  (45) 
-6.6500000000000004

>  <m_primary>  (45) 
energy

$$$$
45:0
     RDKit          3D

 44 48  0  0  0  0  0  0  0  0999 V2000
    0.8710   23.6360  -27.5790 C   0  0  0  0  0  0  0  0  0  0  0  0
    0.2500   24.1040  -28.7720 O   0  0  0  0  0  0  0  0  0  0  0  0
   -0.9030   23.5410  -29.3420 C   0  0  0  0  0  0  0  0  0  0  0  0
   -0.9350   22.2110  -29.8030 C   0  0  0  0  0  0  0  0  0  0  0  0
   -2.0980   21.6860  -30.3680 C   0  0  0  0  0  0  0  0  0  0  0  0
   -3.2490   22.4780  -30.4930 C   0  0  0  0  0  0  0  0  0  0  0  0
   -4.4780   21.8990  -31.0860 C   0  0  0  0  0  0  0  0  0  0  0  0
   -5.6950   22.2720  -30.6010 N   0  0  0  0  0  0  0  0  0  0  0  0
   -6.8600   21.7900  -31.1180 C   0  0  0  0  0  0  0  0  0  0  0  0
   -8.0870   22.2410  -30.6320 C   0  0  0  0  0  0  0  0  0  0  0  0
   -9.2680   21.8120  -31.2360 C   0  0  0  0  0  0  0  0  0  0  0  0
   -9.2030   20.9640  -32.3430 C   0  0  0  0  0  0  0  0  0  0  0  0
   -8.0000   20.5240  -32.8080 N   0  0  0  0  0  0  0  0  0  0  0  0
   -6.8300   20.8600  -32.1850 C   0  0  0  0  0  0  0  0  0  0  0  0
   -5.6020   20.4090  -32.5950 N   0  0  0  0  0  0  0  0  0  0  0  0
   -4.4480   20.9360  -32.1070 C   0  0  0  0  0  0  0  0  0  0  0  0
   -3.3240   20.3850  -32.6270 N   0  0  0  0  0  0  0  0  0  0  0  0
   -3.8130   19.4560  -33.4700 C   0  0  0  0  0  0  0  0  0  0  0  0
   -3.0690   18.5430  -34.2120 C   0  0  0  0  0  0  0  0  0  0  0  0
   -3.7650   17.5530  -34.9250 C   0  0  0  0  0  0  0  0  0  0  0  0
   -5.1700   17.4760  -34.8450 C   0  0  0  0  0  0  0  0  0  0  0  0
   -5.8970   18.4030  -34.0770 C   0  0  0  0  0  0  0  0  0  0  0  0
   -5.1870   19.4340  -33.4400 C   0  0  0  0  0  0  0  0  0  0  0  0
   -3.2250   23.8000  -30.0150 C   0  0  0  0  0  0  0  0  0  0  0  0
   -2.0540   24.3370  -29.4450 C   0  0  0  0  0  0  0  0  0  0  0  0
   -1.9950   25.6560  -28.9670 O   0  0  0  0  0  0  0  0  0  0  0  0
   -1.5510   26.0230  -27.6640 C   0  0  0  0  0  0  0  0  0  0  0  0
    0.3370   24.0384  -26.7055 H   0  0  0  0  0  0  0  0  0  0  0  0
    0.8373   22.5368  -27.5550 H   0  0  0  0  0  0  0  0  0  0  0  0
    1.9184   23.9713  -27.5550 H   0  0  0  0  0  0  0  0  0  0  0  0
   -0.0371   21.5814  -29.7172 H   0  0  0  0  0  0  0  0  0  0  0  0
   -2.1123   20.6433  -30.7180 H   0  0  0  0  0  0  0  0  0  0  0  0
   -8.1227   22.9316  -29.7766 H   0  0  0  0  0  0  0  0  0  0  0  0
  -10.2424   22.1388  -30.8438 H   0  0  0  0  0  0  0  0  0  0  0  0
  -10.1301   20.6485  -32.8439 H   0  0  0  0  0  0  0  0  0  0  0  0
   -8.0090   19.9970  -33.7020 H   0  0  0  0  0  0  0  0  0  0  0  0
   -1.9706   18.5952  -34.2391 H   0  0  0  0  0  0  0  0  0  0  0  0
   -3.2115   16.8351  -35.5481 H   0  0  0  0  0  0  0  0  0  0  0  0
   -5.7035   16.6826  -35.3889 H   0  0  0  0  0  0  0  0  0  0  0  0
   -6.9896   18.3230  -33.9780 H   0  0  0  0  0  0  0  0  0  0  0  0
   -4.1299   24.4213  -30.0868 H   0  0  0  0  0  0  0  0  0  0  0  0
   -2.1678   25.5131  -26.9093 H   0  0  0  0  0  0  0  0  0  0  0  0
   -0.4990   25.7273  -27.5383 H   0  0  0  0  0  0  0  0  0  0  0  0
   -1.6434   27.1119  -27.5383 H   0  0  0  0  0  0  0  0  0  0  0  0
  1  2  1  0
  2  3  1  0
  3  4  2  0
  4  5  1  0
  5  6  2  0
  6  7  1  0
  7  8  2  0
  8  9  1  0
  9 10  2  0
 10 11  1  0
 11 12  2  0
 12 13  1  0
 13 14  2  0
 14 15  1  0
 15 16  1  0
 16 17  2  0
 17 18  1  0
 18 19  2  0
 19 20  1  0
 20 21  2  0
 21 22  1  0
 22 23  2  0
  6 24  1  0
 24 25  2  0
 25 26  1  0
 26 27  1  0
 25  3  1  0
 16  7  1  0
 23 18  1  0
 14  9  1  0
 23 15  1  0
  1 28  1  0
  1 29  1  0
  1 30  1  0
  4 31  1  0
  5 32  1  0
 10 33  1  0
 11 34  1  0
 12 35  1  0
 13 36  1  0
 19 37  1  0
 20 38  1  0
 21 39  1  0
 22 40  1  0
 24 41  1  0
 27 42  1  0
 27 43  1  0
 27 44  1  0
M  CHG  1  13   1
M  END
>  <UniqueID>  (46) 
42

>  <SMILES>  (46) 
COc1ccc(-c2nc3ccc[nH+]c3n3c2nc2ccccc23)cc1OC

>  <Energy>  (46) 
109.9362262246453

>  <Genealogy>  (46) 
COc1ccc(-c2nc3ccc[nH+]c3n3c2nc2ccccc23)cc1OC (protonated)
COc1ccc(-c2nc3ccc[nH+]c3n3c2nc2ccccc23)cc1OC (3D coordinates assigned)
COc1ccc(-c2nc3ccc[nH+]c3n3c2nc2ccccc23)cc1OC (optimized conformer: 109.9362262246453 kcal/mol)

>  <smiles>  (46) 
COc1ccc(-c2nc3cccnc3n3c2nc2ccccc23)cc1OC

>  <score_type>  (46) 
oracle

>  <origin>  (46) 
adg

>  <m_score__min__energy>  (46) 
-8.6600000000000001

>  <m_primary>  (46) 
energy

$$$$
46:0
     RDKit          3D

 38 39  0  0  0  0  0  0  0  0999 V2000
   -7.8400   20.4090  -32.1730 C   0  0  0  0  0  0  0  0  0  0  0  0
   -7.2060   21.6800  -31.6900 C   0  0  0  0  0  0  0  0  0  0  0  0
   -7.6870   22.3160  -30.5360 C   0  0  0  0  0  0  0  0  0  0  0  0
   -7.0720   23.4800  -30.0650 C   0  0  0  0  0  0  0  0  0  0  0  0
   -5.9540   24.0100  -30.7270 C   0  0  0  0  0  0  0  0  0  0  0  0
   -5.2980   25.2700  -30.2280 C   0  0  0  0  0  0  0  0  0  0  0  0
   -3.8620   25.2530  -30.4940 N   0  0  0  0  0  0  0  0  0  0  0  0
   -2.8670   24.5770  -29.7150 C   0  0  0  0  0  0  0  0  0  0  0  0
   -1.9840   25.2720  -29.1450 O   0  0  0  0  0  0  0  0  0  0  0  0
   -2.8960   23.0690  -29.5060 C   0  0  1  0  0  0  0  0  0  0  0  0
   -1.4980   22.4180  -29.3890 C   0  0  0  0  0  0  0  0  0  0  0  0
   -1.6980   21.2890  -28.5010 N   0  0  0  0  0  0  0  0  0  0  0  0
   -1.0260   20.0060  -28.6650 C   0  0  0  0  0  0  0  0  0  0  0  0
   -2.9920   21.4310  -27.9420 C   0  0  0  0  0  0  0  0  0  0  0  0
   -3.5020   20.5620  -27.1830 O   0  0  0  0  0  0  0  0  0  0  0  0
   -3.6870   22.6170  -28.3290 N   0  0  1  0  0  0  0  0  0  0  0  0
   -3.6960   23.5590  -27.1960 C   0  0  0  0  0  0  0  0  0  0  0  0
   -5.4720   23.3700  -31.8810 C   0  0  0  0  0  0  0  0  0  0  0  0
   -6.0880   22.2080  -32.3520 C   0  0  0  0  0  0  0  0  0  0  0  0
   -8.1440   19.7996  -31.3092 H   0  0  0  0  0  0  0  0  0  0  0  0
   -8.7241   20.6487  -32.7820 H   0  0  0  0  0  0  0  0  0  0  0  0
   -7.1167   19.8468  -32.7820 H   0  0  0  0  0  0  0  0  0  0  0  0
   -8.5513   21.8974  -29.9996 H   0  0  0  0  0  0  0  0  0  0  0  0
   -7.4669   23.9833  -29.1702 H   0  0  0  0  0  0  0  0  0  0  0  0
   -5.7478   26.1355  -30.7365 H   0  0  0  0  0  0  0  0  0  0  0  0
   -5.4523   25.3387  -29.1411 H   0  0  0  0  0  0  0  0  0  0  0  0
   -3.3915   22.7327  -30.4287 H   0  0  0  0  0  0  0  0  0  0  0  0
   -1.1424   22.0803  -30.3736 H   0  0  0  0  0  0  0  0  0  0  0  0
   -0.7397   23.1193  -29.0107 H   0  0  0  0  0  0  0  0  0  0  0  0
   -0.8028   19.5799  -27.6758 H   0  0  0  0  0  0  0  0  0  0  0  0
   -1.6796   19.3182  -29.2215 H   0  0  0  0  0  0  0  0  0  0  0  0
   -0.0884   20.1517  -29.2215 H   0  0  0  0  0  0  0  0  0  0  0  0
   -4.6680   22.3750  -28.6070 H   0  0  0  0  0  0  0  0  0  0  0  0
   -3.6906   22.9960  -26.2510 H   0  0  0  0  0  0  0  0  0  0  0  0
   -2.8039   24.2007  -27.2456 H   0  0  0  0  0  0  0  0  0  0  0  0
   -4.6002   24.1835  -27.2456 H   0  0  0  0  0  0  0  0  0  0  0  0
   -4.6056   23.7858  -32.4162 H   0  0  0  0  0  0  0  0  0  0  0  0
   -5.6940   21.7044  -33.2470 H   0  0  0  0  0  0  0  0  0  0  0  0
  1  2  1  0
  2  3  2  0
  3  4  1  0
  4  5  2  0
  5  6  1  0
  6  7  1  0
  7  8  1  0
  8  9  2  0
  8 10  1  0
 10 11  1  0
 11 12  1  0
 12 13  1  0
 12 14  1  0
 14 15  2  0
 14 16  1  0
 16 17  1  0
  5 18  1  0
 18 19  2  0
 19  2  1  0
 16 10  1  0
  1 20  1  0
  1 21  1  0
  1 22  1  0
  3 23  1  0
  4 24  1  0
  6 25  1  0
  6 26  1  0
 10 27  1  6
 11 28  1  0
 11 29  1  0
 13 30  1  0
 13 31  1  0
 13 32  1  0
 16 33  1  6
 17 34  1  0
 17 35  1  0
 17 36  1  0
 18 37  1  0
 19 38  1  0
M  CHG  2   7  -1  16   1
M  END
>  <UniqueID>  (47) 
43

>  <SMILES>  (47) 
Cc1ccc(C[N-]C(=O)[C@H]2CN(C)C(=O)[N@H+]2C)cc1

>  <Energy>  (47) 
48.39636156344877

>  <Genealogy>  (47) 
Cc1ccc(C[N-]C(=O)C2CN(C)C(=O)[NH+]2C)cc1 (protonated)
Cc1ccc(C[N-]C(=O)[C@H]2CN(C)C(=O)[N@H+]2C)cc1 (chirality)
Cc1ccc(C[N-]C(=O)[C@H]2CN(C)C(=O)[N@H+]2C)cc1 (3D coordinates assigned)
Cc1ccc(C[N-]C(=O)[C@H]2CN(C)C(=O)[N@H+]2C)cc1 (nonaromatic ring conformer: 48.39636156344877 kcal/mol)

>  <smiles>  (47) 
Cc1ccc(CNC(=O)C2CN(C)C(=O)N2C)cc1

>  <score_type>  (47) 
oracle

>  <origin>  (47) 
adg

>  <m_score__min__energy>  (47) 
-7.6799999999999997

>  <m_primary>  (47) 
energy

$$$$
47:0
     RDKit          3D

 32 33  0  0  0  0  0  0  0  0999 V2000
   -3.3096   19.9374  -33.5205 H   0  0  0  0  0  0  0  0  0  0  0  0
   -4.4050   19.8970  -33.4280 C   0  0  0  0  0  0  0  0  0  0  0  0
   -5.1010   18.8130  -33.9470 C   0  0  0  0  0  0  0  0  0  0  0  0
   -4.5591   18.0037  -34.4583 H   0  0  0  0  0  0  0  0  0  0  0  0
   -6.4830   18.7530  -33.8190 C   0  0  0  0  0  0  0  0  0  0  0  0
   -7.0306   17.8893  -34.2241 H   0  0  0  0  0  0  0  0  0  0  0  0
   -7.1880   19.7850  -33.1770 C   0  0  0  0  0  0  0  0  0  0  0  0
   -6.4970   20.9280  -32.6630 C   0  0  0  0  0  0  0  0  0  0  0  0
   -5.0860   20.9370  -32.7890 C   0  0  0  0  0  0  0  0  0  0  0  0
   -4.5141   21.7805  -32.3751 H   0  0  0  0  0  0  0  0  0  0  0  0
   -7.2840   21.9580  -32.0350 C   0  0  0  0  0  0  0  0  0  0  0  0
   -6.8580   23.1080  -31.5710 N   0  0  0  0  0  0  0  0  0  0  0  0
   -7.2230   23.9820  -30.4590 C   0  0  0  0  0  0  0  0  0  0  0  0
   -7.8552   23.4198  -29.7560 H   0  0  0  0  0  0  0  0  0  0  0  0
   -7.7630   24.8493  -30.8667 H   0  0  0  0  0  0  0  0  0  0  0  0
   -5.9800   24.4980  -29.7100 C   0  0  0  0  0  0  0  0  0  0  0  0
   -5.2883   23.6574  -29.5523 H   0  0  0  0  0  0  0  0  0  0  0  0
   -6.3178   24.9265  -28.7549 H   0  0  0  0  0  0  0  0  0  0  0  0
   -5.2480   25.5990  -30.4830 C   0  0  0  0  0  0  0  0  0  0  0  0
   -5.3904   26.5617  -29.9702 H   0  0  0  0  0  0  0  0  0  0  0  0
   -5.6551   25.6586  -31.5031 H   0  0  0  0  0  0  0  0  0  0  0  0
   -3.8690   25.3020  -30.5480 O   0  0  0  0  0  0  0  0  0  0  0  0
   -3.6650   23.9530  -30.1940 C   0  0  0  0  0  0  0  0  0  0  0  0
   -3.6509   23.8596  -29.0981 H   0  0  0  0  0  0  0  0  0  0  0  0
   -4.4805   23.3390  -30.6038 H   0  0  0  0  0  0  0  0  0  0  0  0
   -2.7044   23.6076  -30.6038 H   0  0  0  0  0  0  0  0  0  0  0  0
   -8.6650   21.7560  -31.9100 C   0  0  0  0  0  0  0  0  0  0  0  0
   -9.2774   22.5143  -31.4002 H   0  0  0  0  0  0  0  0  0  0  0  0
   -9.2740   20.6180  -32.4170 C   0  0  0  0  0  0  0  0  0  0  0  0
  -10.3605   20.4846  -32.3088 H   0  0  0  0  0  0  0  0  0  0  0  0
   -8.5390   19.6710  -33.0440 N   0  0  0  0  0  0  0  0  0  0  0  0
   -9.0380   18.8320  -33.4190 H   0  0  0  0  0  0  0  0  0  0  0  0
  1  2  1  0
  2  3  2  0
  3  4  1  0
  3  5  1  0
  5  6  1  0
  5  7  2  0
  7  8  1  0
  8  9  2  0
  9 10  1  0
  8 11  1  0
 11 12  2  0
 12 13  1  0
 13 14  1  0
 13 15  1  0
 13 16  1  0
 16 17  1  0
 16 18  1  0
 16 19  1  0
 19 20  1  0
 19 21  1  0
 19 22  1  0
 22 23  1  0
 23 24  1  0
 23 25  1  0
 23 26  1  0
 11 27  1  0
 27 28  1  0
 27 29  2  0
 29 30  1  0
 29 31  1  0
 31 32  1  0
  9  2  1  0
 31  7  1  0
M  END
>  <UniqueID>  (48) 
44

>  <SMILES>  (48) 
COCCC/N=c1/cc[nH]c2ccccc12

>  <Energy>  (48) 
50.46305169118742

>  <Genealogy>  (48) 
COCCC/N=c1/cc[nH]c2ccccc12 (cis-trans isomerization)
COCCC/N=c1/cc[nH]c2ccccc12 (3D coordinates assigned)
COCCC/N=c1/cc[nH]c2ccccc12 (optimized conformer: 50.46305169118742 kcal/mol)

>  <smiles>  (48) 
COCCCN=c1cc[nH]c2ccccc12

>  <score_type>  (48) 
oracle

>  <origin>  (48) 
adg

>  <m_score__min__energy>  (48) 
-7.0999999999999996

>  <m_primary>  (48) 
energy

$$$$
