0:0
     RDKit          3D

 63 66  0  0  0  0  0  0  0  0999 V2000
    0.0360   24.9430  -25.0350 C   0  0  0  0  0  0  0  0  0  0  0  0
   -1.2400   25.6660  -24.6800 C   0  0  0  0  0  0  0  0  0  0  0  0
   -0.9100   26.7840  -23.7320 C   0  0  0  0  0  0  0  0  0  0  0  0
   -1.8770   26.1100  -25.8830 N   0  0  0  0  0  0  0  0  0  0  0  0
   -2.8280   25.1600  -26.4080 C   0  0  0  0  0  0  0  0  0  0  0  0
   -2.1060   24.0590  -27.1540 C   0  0  0  0  0  0  0  0  0  0  0  0
   -1.4930   24.7780  -28.3700 C   0  0  0  0  0  0  0  0  0  0  0  0
   -2.4800   25.2960  -29.1990 O   0  0  0  0  0  0  0  0  0  0  0  0
   -3.5300   24.6270  -29.7750 C   0  0  0  0  0  0  0  0  0  0  0  0
   -4.8570   24.9320  -29.6330 C   0  0  0  0  0  0  0  0  0  0  0  0
   -5.8740   24.2070  -30.2540 C   0  0  0  0  0  0  0  0  0  0  0  0
   -5.5550   23.1310  -31.0560 C   0  0  0  0  0  0  0  0  0  0  0  0
   -6.5330   22.3350  -31.7730 C   0  0  0  0  0  0  0  0  0  0  0  0
   -7.5600   22.9800  -32.1900 O   0  0  0  0  0  0  0  0  0  0  0  0
   -6.4430   20.9580  -32.0370 N   0  0  0  0  0  0  0  0  0  0  0  0
   -5.3610   20.0880  -31.6320 C   0  0  0  0  0  0  0  0  0  0  0  0
   -5.7840   18.6410  -31.8110 C   0  0  0  0  0  0  0  0  0  0  0  0
   -6.2240   18.3310  -33.1340 N   0  0  0  0  0  0  0  0  0  0  0  0
   -7.1730   17.2390  -33.0880 C   0  0  0  0  0  0  0  0  0  0  0  0
   -6.5780   15.9930  -33.6260 C   0  0  0  0  0  0  0  0  0  0  0  0
   -5.2210   15.7070  -33.4920 C   0  0  0  0  0  0  0  0  0  0  0  0
   -5.0080   14.4780  -34.1050 C   0  0  0  0  0  0  0  0  0  0  0  0
   -6.2050   14.0820  -34.5710 N   0  0  0  0  0  0  0  0  0  0  0  0
   -7.1420   14.9740  -34.2910 N   0  0  0  0  0  0  0  0  0  0  0  0
   -6.7920   19.4660  -33.8380 C   0  0  0  0  0  0  0  0  0  0  0  0
   -7.5250   20.3100  -32.7970 C   0  0  0  0  0  0  0  0  0  0  0  0
   -4.2130   22.8080  -31.2110 C   0  0  0  0  0  0  0  0  0  0  0  0
   -3.2070   23.5360  -30.5860 C   0  0  0  0  0  0  0  0  0  0  0  0
   -0.5160   25.8230  -27.9220 C   0  0  0  0  0  0  0  0  0  0  0  0
   -1.0580   26.7270  -26.8490 C   0  0  0  0  0  0  0  0  0  0  0  0
    0.5583   24.6470  -24.1133 H   0  0  0  0  0  0  0  0  0  0  0  0
   -0.2028   24.0460  -25.6253 H   0  0  0  0  0  0  0  0  0  0  0  0
    0.6827   25.6089  -25.6253 H   0  0  0  0  0  0  0  0  0  0  0  0
   -1.9541   25.0040  -24.1683 H   0  0  0  0  0  0  0  0  0  0  0  0
   -1.0147   26.4293  -22.6961 H   0  0  0  0  0  0  0  0  0  0  0  0
    0.1246   27.1164  -23.9030 H   0  0  0  0  0  0  0  0  0  0  0  0
   -1.5982   27.6249  -23.9030 H   0  0  0  0  0  0  0  0  0  0  0  0
   -3.4006   24.7216  -25.5774 H   0  0  0  0  0  0  0  0  0  0  0  0
   -3.5087   25.6773  -27.1002 H   0  0  0  0  0  0  0  0  0  0  0  0
   -1.3209   23.6109  -26.5272 H   0  0  0  0  0  0  0  0  0  0  0  0
   -2.7726   23.2323  -27.4408 H   0  0  0  0  0  0  0  0  0  0  0  0
   -0.9361   24.0428  -28.9694 H   0  0  0  0  0  0  0  0  0  0  0  0
   -5.1339   25.7881  -29.0002 H   0  0  0  0  0  0  0  0  0  0  0  0
   -6.9259   24.4921  -30.1048 H   0  0  0  0  0  0  0  0  0  0  0  0
   -4.4752   20.2909  -32.2519 H   0  0  0  0  0  0  0  0  0  0  0  0
   -5.1175   20.2717  -30.5751 H   0  0  0  0  0  0  0  0  0  0  0  0
   -4.9260   17.9960  -31.5703 H   0  0  0  0  0  0  0  0  0  0  0  0
   -6.6386   18.4705  -31.1397 H   0  0  0  0  0  0  0  0  0  0  0  0
   -7.4769   17.0707  -32.0443 H   0  0  0  0  0  0  0  0  0  0  0  0
   -8.0434   17.5059  -33.7055 H   0  0  0  0  0  0  0  0  0  0  0  0
   -4.4643   16.3331  -32.9966 H   0  0  0  0  0  0  0  0  0  0  0  0
   -4.0532   13.9386  -34.1913 H   0  0  0  0  0  0  0  0  0  0  0  0
   -6.3350   13.1760  -35.0840 H   0  0  0  0  0  0  0  0  0  0  0  0
   -5.9933   20.0569  -34.3102 H   0  0  0  0  0  0  0  0  0  0  0  0
   -7.4781   19.1349  -34.6315 H   0  0  0  0  0  0  0  0  0  0  0  0
   -8.1653   21.0609  -33.2830 H   0  0  0  0  0  0  0  0  0  0  0  0
   -8.1903   19.7104  -32.1584 H   0  0  0  0  0  0  0  0  0  0  0  0
   -3.9387   21.9526  -31.8458 H   0  0  0  0  0  0  0  0  0  0  0  0
   -2.1540   23.2524  -30.7303 H   0  0  0  0  0  0  0  0  0  0  0  0
    0.3804   25.3181  -27.5326 H   0  0  0  0  0  0  0  0  0  0  0  0
   -0.2920   26.4535  -28.7951 H   0  0  0  0  0  0  0  0  0  0  0  0
   -0.2030   27.1807  -26.3264 H   0  0  0  0  0  0  0  0  0  0  0  0
   -1.7022   27.4526  -27.3672 H   0  0  0  0  0  0  0  0  0  0  0  0
  1  2  1  0
  2  3  1  0
  2  4  1  0
  4  5  1  0
  5  6  1  0
  6  7  1  0
  7  8  1  0
  8  9  1  0
  9 10  2  0
 10 11  1  0
 11 12  2  0
 12 13  1  0
 13 14  2  0
 13 15  1  0
 15 16  1  0
 16 17  1  0
 17 18  1  0
 18 19  1  0
 19 20  1  0
 20 21  1  0
 21 22  2  0
 22 23  1  0
 23 24  1  0
 18 25  1  0
 25 26  1  0
 12 27  1  0
 27 28  2  0
  7 29  1  0
 29 30  1  0
 30  4  1  0
 28  9  1  0
 26 15  1  0
 24 20  2  0
  1 31  1  0
  1 32  1  0
  1 33  1  0
  2 34  1  0
  3 35  1  0
  3 36  1  0
  3 37  1  0
  5 38  1  0
  5 39  1  0
  6 40  1  0
  6 41  1  0
  7 42  1  0
 10 43  1  0
 11 44  1  0
 16 45  1  0
 16 46  1  0
 17 47  1  0
 17 48  1  0
 19 49  1  0
 19 50  1  0
 21 51  1  0
 22 52  1  0
 23 53  1  0
 25 54  1  0
 25 55  1  0
 26 56  1  0
 26 57  1  0
 27 58  1  0
 28 59  1  0
 29 60  1  0
 29 61  1  0
 30 62  1  0
 30 63  1  0
M  END
>  <smiles>  (1) 
CC(C)N1CCC(Oc2ccc(C(=O)N3CCN(Cc4cc[nH]n4)CC3)cc2)CC1

>  <score_type>  (1) 
oracle

>  <origin>  (1) 
adg

>  <m_score__min__energy>  (1) 
-9.5199999999999996

>  <m_primary>  (1) 
energy

$$$$
1:0
     RDKit          3D

 72 75  0  0  0  0  0  0  0  0999 V2000
    0.0092   25.6323  -28.8980 H   0  0  0  0  0  0  0  0  0  0  0  0
   -0.8350   24.9300  -28.8330 C   0  0  0  0  0  0  0  0  0  0  0  0
   -2.0460   25.2860  -29.3110 N   0  0  0  0  0  0  0  0  0  0  0  0
   -3.1150   24.4490  -29.2670 C   0  0  0  0  0  0  0  0  0  0  0  0
   -4.3280   24.9020  -29.8010 C   0  0  0  0  0  0  0  0  0  0  0  0
   -4.3958   25.9169  -30.2198 H   0  0  0  0  0  0  0  0  0  0  0  0
   -5.4480   24.0760  -29.8050 C   0  0  0  0  0  0  0  0  0  0  0  0
   -6.9660   24.6540  -30.4710 Cl  0  0  0  0  0  0  0  0  0  0  0  0
   -5.3600   22.7890  -29.2790 C   0  0  0  0  0  0  0  0  0  0  0  0
   -6.2444   22.1349  -29.2873 H   0  0  0  0  0  0  0  0  0  0  0  0
   -4.1560   22.3210  -28.7400 C   0  0  0  0  0  0  0  0  0  0  0  0
   -4.1065   21.2983  -28.3380 H   0  0  0  0  0  0  0  0  0  0  0  0
   -2.9970   23.1410  -28.7020 C   0  0  0  0  0  0  0  0  0  0  0  0
   -1.7130   22.7620  -28.1620 C   0  0  0  0  0  0  0  0  0  0  0  0
   -1.4030   21.6340  -27.5690 N   0  0  0  0  0  0  0  0  0  0  0  0
   -1.4510   20.2290  -27.9540 C   0  0  0  0  0  0  0  0  0  0  0  0
   -2.3598   19.7729  -27.5345 H   0  0  0  0  0  0  0  0  0  0  0  0
   -0.5513   19.7303  -27.5644 H   0  0  0  0  0  0  0  0  0  0  0  0
   -1.4710   20.0720  -29.4800 C   0  0  0  0  0  0  0  0  0  0  0  0
   -1.9361   20.9636  -29.9258 H   0  0  0  0  0  0  0  0  0  0  0  0
   -2.0458   19.1676  -29.7282 H   0  0  0  0  0  0  0  0  0  0  0  0
   -0.0460   19.9130  -30.0460 C   0  0  0  0  0  0  0  0  0  0  0  0
    0.6334   19.6319  -29.2279 H   0  0  0  0  0  0  0  0  0  0  0  0
    0.2540   20.8713  -30.4951 H   0  0  0  0  0  0  0  0  0  0  0  0
    0.0120   18.8630  -31.1060 N   0  0  2  0  0  0  0  0  0  0  0  0
   -0.9130   18.8420  -31.6030 H   0  0  0  0  0  0  0  0  0  0  0  0
    0.1950   17.4960  -30.5550 C   0  0  0  0  0  0  0  0  0  0  0  0
    0.9175   16.9552  -31.1839 H   0  0  0  0  0  0  0  0  0  0  0  0
   -0.7871   17.0005  -30.5530 H   0  0  0  0  0  0  0  0  0  0  0  0
    0.7140   17.5130  -29.1110 C   0  0  0  0  0  0  0  0  0  0  0  0
   -0.1374   17.4851  -28.4150 H   0  0  0  0  0  0  0  0  0  0  0  0
    1.3551   16.6354  -28.9414 H   0  0  0  0  0  0  0  0  0  0  0  0
    1.2963   18.4307  -28.9414 H   0  0  0  0  0  0  0  0  0  0  0  0
    0.9920   19.1950  -32.1830 C   0  0  0  0  0  0  0  0  0  0  0  0
    1.9505   19.4317  -31.6980 H   0  0  0  0  0  0  0  0  0  0  0  0
    1.0088   18.3103  -32.8364 H   0  0  0  0  0  0  0  0  0  0  0  0
    0.6350   20.3830  -33.1210 C   0  0  0  0  0  0  0  0  0  0  0  0
    0.8895   21.3150  -32.5951 H   0  0  0  0  0  0  0  0  0  0  0  0
    1.2097   20.2148  -34.0437 H   0  0  0  0  0  0  0  0  0  0  0  0
   -0.8400   20.4780  -33.5620 C   0  0  0  0  0  0  0  0  0  0  0  0
   -1.4531   20.7146  -32.6799 H   0  0  0  0  0  0  0  0  0  0  0  0
   -0.8989   21.2616  -34.3317 H   0  0  0  0  0  0  0  0  0  0  0  0
   -1.3730   19.1830  -34.1920 C   0  0  0  0  0  0  0  0  0  0  0  0
   -1.8753   19.4160  -35.1425 H   0  0  0  0  0  0  0  0  0  0  0  0
   -0.5373   18.4934  -34.3819 H   0  0  0  0  0  0  0  0  0  0  0  0
   -2.3380   18.5510  -33.2640 N   0  0  0  0  0  0  0  0  0  0  0  0
   -1.9140   17.1860  -32.9090 C   0  0  0  0  0  0  0  0  0  0  0  0
   -1.8826   17.0849  -31.8141 H   0  0  0  0  0  0  0  0  0  0  0  0
   -2.6291   16.4604  -33.3239 H   0  0  0  0  0  0  0  0  0  0  0  0
   -0.9136   16.9932  -33.3239 H   0  0  0  0  0  0  0  0  0  0  0  0
   -3.7140   18.5380  -33.7990 C   0  0  0  0  0  0  0  0  0  0  0  0
   -3.6748   18.5597  -34.8981 H   0  0  0  0  0  0  0  0  0  0  0  0
   -4.2200   17.6241  -33.4545 H   0  0  0  0  0  0  0  0  0  0  0  0
   -4.4900   19.7430  -33.3040 C   0  0  0  0  0  0  0  0  0  0  0  0
   -3.8160   20.9740  -33.1900 C   0  0  0  0  0  0  0  0  0  0  0  0
   -2.7545   21.0402  -33.4709 H   0  0  0  0  0  0  0  0  0  0  0  0
   -4.4780   22.1110  -32.7250 C   0  0  0  0  0  0  0  0  0  0  0  0
   -3.9416   23.0695  -32.6650 H   0  0  0  0  0  0  0  0  0  0  0  0
   -5.8150   22.0400  -32.3360 C   0  0  0  0  0  0  0  0  0  0  0  0
   -6.3220   22.9364  -31.9496 H   0  0  0  0  0  0  0  0  0  0  0  0
   -6.5160   20.8280  -32.4360 C   0  0  0  0  0  0  0  0  0  0  0  0
   -7.8610   20.7610  -32.0300 C   0  0  0  0  0  0  0  0  0  0  0  0
   -8.3514   21.6515  -31.6099 H   0  0  0  0  0  0  0  0  0  0  0  0
   -8.5760   19.5690  -32.1580 C   0  0  0  0  0  0  0  0  0  0  0  0
   -9.6249   19.5208  -31.8300 H   0  0  0  0  0  0  0  0  0  0  0  0
   -7.9640   18.4380  -32.7010 C   0  0  0  0  0  0  0  0  0  0  0  0
   -8.5366   17.5054  -32.8123 H   0  0  0  0  0  0  0  0  0  0  0  0
   -6.6260   18.4860  -33.1040 C   0  0  0  0  0  0  0  0  0  0  0  0
   -6.1571   17.5929  -33.5428 H   0  0  0  0  0  0  0  0  0  0  0  0
   -5.8690   19.6720  -32.9530 C   0  0  0  0  0  0  0  0  0  0  0  0
   -0.6530   23.6780  -28.2590 C   0  0  0  0  0  0  0  0  0  0  0  0
    0.3389   23.3993  -27.8737 H   0  0  0  0  0  0  0  0  0  0  0  0
  1  2  1  0
  2  3  1  0
  3  4  1  0
  4  5  2  0
  5  6  1  0
  5  7  1  0
  7  8  1  0
  7  9  2  0
  9 10  1  0
  9 11  1  0
 11 12  1  0
 11 13  2  0
 13 14  1  0
 14 15  2  0
 15 16  1  0
 16 17  1  0
 16 18  1  0
 16 19  1  0
 19 20  1  0
 19 21  1  0
 19 22  1  0
 22 23  1  0
 22 24  1  0
 22 25  1  0
 25 26  1  6
 25 27  1  0
 27 28  1  0
 27 29  1  0
 27 30  1  0
 30 31  1  0
 30 32  1  0
 30 33  1  0
 25 34  1  0
 34 35  1  0
 34 36  1  0
 34 37  1  0
 37 38  1  0
 37 39  1  0
 37 40  1  0
 40 41  1  0
 40 42  1  0
 40 43  1  0
 43 44  1  0
 43 45  1  0
 43 46  1  0
 46 47  1  0
 47 48  1  0
 47 49  1  0
 47 50  1  0
 46 51  1  0
 51 52  1  0
 51 53  1  0
 51 54  1  0
 54 55  2  0
 55 56  1  0
 55 57  1  0
 57 58  1  0
 57 59  2  0
 59 60  1  0
 59 61  1  0
 61 62  2  0
 62 63  1  0
 62 64  1  0
 64 65  1  0
 64 66  2  0
 66 67  1  0
 66 68  1  0
 68 69  1  0
 68 70  2  0
 14 71  1  0
 71 72  1  0
 71  2  2  0
 13  4  1  0
 70 54  1  0
 70 61  1  0
M  CHG  2   3  -1  25   1
M  END
>  <UniqueID>  (2) 
1

>  <SMILES>  (2) 
CC[N@H+](CCCCN(C)Cc1cccc2ccccc12)CCC/N=c1/cc[n-]c2cc(Cl)ccc12

>  <Energy>  (2) 
104.72313050107029

>  <Genealogy>  (2) 
CC[NH+](CCCCN(C)Cc1cccc2ccccc12)CCCN=c1cc[n-]c2cc(Cl)ccc12 (protonated)
CC[N@H+](CCCCN(C)Cc1cccc2ccccc12)CCCN=c1cc[n-]c2cc(Cl)ccc12 (chirality)
CC[N@H+](CCCCN(C)Cc1cccc2ccccc12)CCC/N=c1/cc[n-]c2cc(Cl)ccc12 (cis-trans isomerization)
CC[N@H+](CCCCN(C)Cc1cccc2ccccc12)CCC/N=c1/cc[n-]c2cc(Cl)ccc12 (3D coordinates assigned)
CC[N@H+](CCCCN(C)Cc1cccc2ccccc12)CCC/N=c1/cc[n-]c2cc(Cl)ccc12 (optimized conformer: 104.72313050107029 kcal/mol)

>  <smiles>  (2) 
CCN(CCCCN(C)Cc1cccc2ccccc12)CCCN=c1cc[nH]c2cc(Cl)ccc12

>  <score_type>  (2) 
oracle

>  <origin>  (2) 
adg

>  <m_score__min__energy>  (2) 
-10.24

>  <m_primary>  (2) 
energy

$$$$
2:0
     RDKit          3D

 35 37  0  0  0  0  0  0  0  0999 V2000
   -5.3540   26.4230  -30.4800 O   0  0  0  0  0  0  0  0  0  0  0  0
   -4.9630   25.2330  -30.6140 C   0  0  0  0  0  0  0  0  0  0  0  0
   -3.5670   24.9490  -30.4480 N   0  0  0  0  0  0  0  0  0  0  0  0
   -3.0080   23.8570  -29.7050 C   0  0  0  0  0  0  0  0  0  0  0  0
   -2.4210   22.7920  -30.3940 C   0  0  0  0  0  0  0  0  0  0  0  0
   -1.8870   21.7130  -29.6910 C   0  0  0  0  0  0  0  0  0  0  0  0
   -1.9590   21.7010  -28.2970 C   0  0  0  0  0  0  0  0  0  0  0  0
   -2.5530   22.7320  -27.6350 N   0  0  0  0  0  0  0  0  0  0  0  0
   -3.0800   23.7950  -28.3020 C   0  0  0  0  0  0  0  0  0  0  0  0
   -5.9570   24.1670  -30.8790 C   0  0  0  0  0  0  0  0  0  0  0  0
   -6.5940   23.4940  -29.8220 C   0  0  0  0  0  0  0  0  0  0  0  0
   -7.5320   22.4920  -30.0820 C   0  0  0  0  0  0  0  0  0  0  0  0
   -7.8510   22.1460  -31.4020 C   0  0  0  0  0  0  0  0  0  0  0  0
   -8.8920   21.0980  -31.6810 C   0  0  0  0  0  0  0  0  0  0  0  0
   -8.2500   19.8670  -32.1320 N   0  0  0  0  0  0  0  0  0  0  0  0
   -7.2540   19.7570  -33.0250 C   0  0  0  0  0  0  0  0  0  0  0  0
   -6.8950   18.4300  -33.0940 C   0  0  0  0  0  0  0  0  0  0  0  0
   -7.6530   17.7110  -32.2390 N   0  0  0  0  0  0  0  0  0  0  0  0
   -8.4660   18.6220  -31.6660 C   0  0  0  0  0  0  0  0  0  0  0  0
   -7.2420   22.8360  -32.4610 C   0  0  0  0  0  0  0  0  0  0  0  0
   -6.3030   23.8380  -32.2020 C   0  0  0  0  0  0  0  0  0  0  0  0
   -2.3803   22.8052  -31.4932 H   0  0  0  0  0  0  0  0  0  0  0  0
   -1.4134   20.8790  -30.2297 H   0  0  0  0  0  0  0  0  0  0  0  0
   -1.5352   20.8574  -27.7325 H   0  0  0  0  0  0  0  0  0  0  0  0
   -2.6110   22.7030  -26.5920 H   0  0  0  0  0  0  0  0  0  0  0  0
   -3.5639   24.6085  -27.7416 H   0  0  0  0  0  0  0  0  0  0  0  0
   -6.3520   23.7584  -28.7820 H   0  0  0  0  0  0  0  0  0  0  0  0
   -8.0228   21.9718  -29.2462 H   0  0  0  0  0  0  0  0  0  0  0  0
   -9.4620   20.8965  -30.7620 H   0  0  0  0  0  0  0  0  0  0  0  0
   -9.5700   21.4616  -32.4672 H   0  0  0  0  0  0  0  0  0  0  0  0
   -6.8047   20.5806  -33.5993 H   0  0  0  0  0  0  0  0  0  0  0  0
   -6.1105   18.0183  -33.7460 H   0  0  0  0  0  0  0  0  0  0  0  0
   -9.2203   18.3759  -30.9041 H   0  0  0  0  0  0  0  0  0  0  0  0
   -7.5048   22.5871  -33.4997 H   0  0  0  0  0  0  0  0  0  0  0  0
   -5.8310   24.3734  -33.0390 H   0  0  0  0  0  0  0  0  0  0  0  0
  1  2  2  0
  2  3  1  0
  3  4  1  0
  4  5  2  0
  5  6  1  0
  6  7  2  0
  7  8  1  0
  8  9  2  0
  2 10  1  0
 10 11  2  0
 11 12  1  0
 12 13  2  0
 13 14  1  0
 14 15  1  0
 15 16  1  0
 16 17  2  0
 17 18  1  0
 18 19  2  0
 13 20  1  0
 20 21  2  0
  9  4  1  0
 21 10  1  0
 19 15  1  0
  5 22  1  0
  6 23  1  0
  7 24  1  0
  8 25  1  0
  9 26  1  0
 11 27  1  0
 12 28  1  0
 14 29  1  0
 14 30  1  0
 16 31  1  0
 17 32  1  0
 19 33  1  0
 20 34  1  0
 21 35  1  0
M  CHG  2   3  -1   8   1
M  END
>  <UniqueID>  (3) 
2

>  <SMILES>  (3) 
O=C([N-]c1ccc[nH+]c1)c1ccc(Cn2ccnc2)cc1

>  <Energy>  (3) 
71.74141681929986

>  <Genealogy>  (3) 
O=C([N-]c1ccc[nH+]c1)c1ccc(Cn2ccnc2)cc1 (protonated)
O=C([N-]c1ccc[nH+]c1)c1ccc(Cn2ccnc2)cc1 (3D coordinates assigned)
O=C([N-]c1ccc[nH+]c1)c1ccc(Cn2ccnc2)cc1 (optimized conformer: 71.74141681929986 kcal/mol)

>  <smiles>  (3) 
O=C(Nc1cccnc1)c1ccc(Cn2ccnc2)cc1

>  <score_type>  (3) 
oracle

>  <origin>  (3) 
adg

>  <m_score__min__energy>  (3) 
-8.4800000000000004

>  <m_primary>  (3) 
energy

$$$$
3:0
     RDKit          3D

 75 77  0  0  0  0  0  0  0  0999 V2000
   -2.9130   19.1950  -26.6810 C   0  0  0  0  0  0  0  0  0  0  0  0
   -2.3800   20.0620  -27.8290 C   0  0  0  0  0  0  0  0  0  0  0  0
   -3.0870   21.4250  -27.8920 C   0  0  0  0  0  0  0  0  0  0  0  0
   -2.1360   22.6020  -27.6130 C   0  0  0  0  0  0  0  0  0  0  0  0
   -2.8740   23.9520  -27.6190 C   0  0  0  0  0  0  0  0  0  0  0  0
   -2.2220   24.9530  -28.5840 C   0  0  0  0  0  0  0  0  0  0  0  0
   -3.1040   25.2660  -29.6620 O   0  0  0  0  0  0  0  0  0  0  0  0
   -4.1530   24.4510  -30.1180 C   0  0  0  0  0  0  0  0  0  0  0  0
   -5.4650   24.8850  -29.9030 C   0  0  0  0  0  0  0  0  0  0  0  0
   -6.5530   24.1090  -30.3210 C   0  0  0  0  0  0  0  0  0  0  0  0
   -6.3420   22.8820  -30.9670 C   0  0  0  0  0  0  0  0  0  0  0  0
   -7.4910   22.0660  -31.4120 C   0  0  0  0  0  0  0  0  0  0  0  0
   -7.4040   20.7540  -31.7200 N   0  0  0  0  0  0  0  0  0  0  0  0
   -8.6630   20.4410  -32.0790 C   0  0  0  0  0  0  0  0  0  0  0  0
   -9.1060   19.0640  -32.4880 C   0  0  0  0  0  0  0  0  0  0  0  0
   -8.3610   18.0150  -31.7700 N   0  0  0  0  0  0  0  0  0  0  0  0
   -7.2600   17.4380  -32.5750 C   0  0  2  0  0  0  0  0  0  0  0  0
   -6.0720   17.1310  -31.6410 C   0  0  0  0  0  0  0  0  0  0  0  0
   -5.8470   18.1970  -30.7610 O   0  0  0  0  0  0  0  0  0  0  0  0
   -6.8620   18.4250  -33.7100 C   0  0  0  0  0  0  0  0  0  0  0  0
   -5.7980   17.9130  -34.7060 C   0  0  0  0  0  0  0  0  0  0  0  0
   -4.3370   18.1970  -34.3080 C   0  0  0  0  0  0  0  0  0  0  0  0
   -4.1030   19.4700  -33.4520 C   0  0  0  0  0  0  0  0  0  0  0  0
   -2.8210   20.1860  -33.6800 N   0  0  0  0  0  0  0  0  0  0  0  0
   -2.4120   21.0680  -32.5660 C   0  0  0  0  0  0  0  0  0  0  0  0
   -0.9470   21.5290  -32.7100 C   0  0  0  0  0  0  0  0  0  0  0  0
   -0.5570   21.6020  -34.1220 N   0  0  0  0  0  0  0  0  0  0  0  0
   -0.5980   20.2740  -34.7630 C   0  0  0  0  0  0  0  0  0  0  0  0
   -1.7210   19.3680  -34.2160 C   0  0  0  0  0  0  0  0  0  0  0  0
   -9.4650   21.5530  -31.9680 C   0  0  0  0  0  0  0  0  0  0  0  0
   -8.7100   22.5410  -31.5580 O   0  0  0  0  0  0  0  0  0  0  0  0
   -5.0240   22.4460  -31.1900 C   0  0  0  0  0  0  0  0  0  0  0  0
   -3.9380   23.2210  -30.7690 C   0  0  0  0  0  0  0  0  0  0  0  0
   -2.6340   19.6489  -25.7186 H   0  0  0  0  0  0  0  0  0  0  0  0
   -4.0087   19.1276  -26.7506 H   0  0  0  0  0  0  0  0  0  0  0  0
   -2.4785   18.1869  -26.7506 H   0  0  0  0  0  0  0  0  0  0  0  0
   -1.3026   20.2265  -27.6801 H   0  0  0  0  0  0  0  0  0  0  0  0
   -2.5729   19.5333  -28.7741 H   0  0  0  0  0  0  0  0  0  0  0  0
   -3.5181   21.5515  -28.8961 H   0  0  0  0  0  0  0  0  0  0  0  0
   -3.8624   21.4329  -27.1118 H   0  0  0  0  0  0  0  0  0  0  0  0
   -1.6699   22.4562  -26.6273 H   0  0  0  0  0  0  0  0  0  0  0  0
   -1.3793   22.6244  -28.4111 H   0  0  0  0  0  0  0  0  0  0  0  0
   -3.9166   23.7866  -27.9281 H   0  0  0  0  0  0  0  0  0  0  0  0
   -2.8251   24.3734  -26.6041 H   0  0  0  0  0  0  0  0  0  0  0  0
   -1.9796   25.8759  -28.0368 H   0  0  0  0  0  0  0  0  0  0  0  0
   -1.3078   24.5010  -28.9963 H   0  0  0  0  0  0  0  0  0  0  0  0
   -5.6442   25.8467  -29.3999 H   0  0  0  0  0  0  0  0  0  0  0  0
   -7.5787   24.4636  -30.1418 H   0  0  0  0  0  0  0  0  0  0  0  0
  -10.1780   18.9543  -32.2671 H   0  0  0  0  0  0  0  0  0  0  0  0
   -8.9108   18.9470  -33.5642 H   0  0  0  0  0  0  0  0  0  0  0  0
   -8.0140   18.4170  -30.8700 H   0  0  0  0  0  0  0  0  0  0  0  0
   -7.5814   16.5004  -33.0521 H   0  0  0  0  0  0  0  0  0  0  0  0
   -6.2942   16.2237  -31.0601 H   0  0  0  0  0  0  0  0  0  0  0  0
   -5.1703   16.9805  -32.2528 H   0  0  0  0  0  0  0  0  0  0  0  0
   -6.5160   18.8940  -30.9900 H   0  0  0  0  0  0  0  0  0  0  0  0
   -7.7706   18.6658  -34.2814 H   0  0  0  0  0  0  0  0  0  0  0  0
   -6.4067   19.2904  -33.2063 H   0  0  0  0  0  0  0  0  0  0  0  0
   -5.9188   16.8240  -34.8031 H   0  0  0  0  0  0  0  0  0  0  0  0
   -5.9705   18.4595  -35.6449 H   0  0  0  0  0  0  0  0  0  0  0  0
   -3.9699   17.3331  -33.7346 H   0  0  0  0  0  0  0  0  0  0  0  0
   -3.7996   18.3701  -35.2520 H   0  0  0  0  0  0  0  0  0  0  0  0
   -4.9224   20.1726  -33.6641 H   0  0  0  0  0  0  0  0  0  0  0  0
   -4.0647   19.1214  -32.4094 H   0  0  0  0  0  0  0  0  0  0  0  0
   -3.0646   21.9534  -32.5546 H   0  0  0  0  0  0  0  0  0  0  0  0
   -2.5015   20.4995  -31.6286 H   0  0  0  0  0  0  0  0  0  0  0  0
   -0.8362   22.5239  -32.2540 H   0  0  0  0  0  0  0  0  0  0  0  0
   -0.2979   20.7994  -32.2037 H   0  0  0  0  0  0  0  0  0  0  0  0
   -1.2240   22.2400  -34.6210 H   0  0  0  0  0  0  0  0  0  0  0  0
   -0.7553   20.4120  -35.8429 H   0  0  0  0  0  0  0  0  0  0  0  0
    0.3584   19.7764  -34.5443 H   0  0  0  0  0  0  0  0  0  0  0  0
   -2.1035   18.7331  -35.0288 H   0  0  0  0  0  0  0  0  0  0  0  0
   -1.3143   18.7415  -33.4085 H   0  0  0  0  0  0  0  0  0  0  0  0
  -10.5424   21.6030  -32.1840 H   0  0  0  0  0  0  0  0  0  0  0  0
   -4.8453   21.4877  -31.6996 H   0  0  0  0  0  0  0  0  0  0  0  0
   -2.9116   22.8679  -30.9473 H   0  0  0  0  0  0  0  0  0  0  0  0
  1  2  1  0
  2  3  1  0
  3  4  1  0
  4  5  1  0
  5  6  1  0
  6  7  1  0
  7  8  1  0
  8  9  2  0
  9 10  1  0
 10 11  2  0
 11 12  1  0
 12 13  2  0
 13 14  1  0
 14 15  1  0
 15 16  1  0
 16 17  1  0
 17 18  1  0
 18 19  1  0
 17 20  1  0
 20 21  1  0
 21 22  1  0
 22 23  1  0
 23 24  1  0
 24 25  1  0
 25 26  1  0
 26 27  1  0
 27 28  1  0
 28 29  1  0
 14 30  2  0
 30 31  1  0
 11 32  1  0
 32 33  2  0
 33  8  1  0
 31 12  1  0
 29 24  1  0
  1 34  1  0
  1 35  1  0
  1 36  1  0
  2 37  1  0
  2 38  1  0
  3 39  1  0
  3 40  1  0
  4 41  1  0
  4 42  1  0
  5 43  1  0
  5 44  1  0
  6 45  1  0
  6 46  1  0
  9 47  1  0
 10 48  1  0
 15 49  1  0
 15 50  1  0
 16 51  1  0
 17 52  1  6
 18 53  1  0
 18 54  1  0
 19 55  1  0
 20 56  1  0
 20 57  1  0
 21 58  1  0
 21 59  1  0
 22 60  1  0
 22 61  1  0
 23 62  1  0
 23 63  1  0
 25 64  1  0
 25 65  1  0
 26 66  1  0
 26 67  1  0
 27 68  1  0
 28 69  1  0
 28 70  1  0
 29 71  1  0
 29 72  1  0
 30 73  1  0
 32 74  1  0
 33 75  1  0
M  END
>  <UniqueID>  (4) 
3

>  <SMILES>  (4) 
CCCCCCOc1ccc(-c2nc(CN[C@H](CO)CCCCN3CCNCC3)co2)cc1

>  <Energy>  (4) 
107.25023028331589

>  <Genealogy>  (4) 
CCCCCCOc1ccc(-c2nc(CN[C@H](CO)CCCCN3CCNCC3)co2)cc1 (chirality)
CCCCCCOc1ccc(-c2nc(CN[C@H](CO)CCCCN3CCNCC3)co2)cc1 (3D coordinates assigned)
CCCCCCOc1ccc(-c2nc(CN[C@H](CO)CCCCN3CCNCC3)co2)cc1 (nonaromatic ring conformer: 107.25023028331589 kcal/mol)

>  <smiles>  (4) 
CCCCCCOc1ccc(-c2nc(CNC(CO)CCCCN3CCNCC3)co2)cc1

>  <score_type>  (4) 
oracle

>  <origin>  (4) 
adg

>  <m_score__min__energy>  (4) 
-8.8100000000000005

>  <m_primary>  (4) 
energy

$$$$
4:0
     RDKit          3D

 45 48  0  0  0  0  0  0  0  0999 V2000
    1.1180   23.4750  -26.5420 C   0  0  0  0  0  0  0  0  0  0  0  0
    0.1540   24.4530  -26.0450 N   0  0  0  0  0  0  0  0  0  0  0  0
    0.3670   25.4450  -25.1400 C   0  0  0  0  0  0  0  0  0  0  0  0
    1.5700   25.8060  -24.5280 C   0  0  0  0  0  0  0  0  0  0  0  0
    1.5460   26.8600  -23.5950 C   0  0  0  0  0  0  0  0  0  0  0  0
    0.3360   27.5220  -23.2850 C   0  0  0  0  0  0  0  0  0  0  0  0
   -0.8680   27.1400  -23.9020 C   0  0  0  0  0  0  0  0  0  0  0  0
   -0.8140   26.1000  -24.8270 C   0  0  0  0  0  0  0  0  0  0  0  0
   -1.7860   25.4720  -25.5630 C   0  0  0  0  0  0  0  0  0  0  0  0
   -3.1250   25.6460  -25.6090 N   0  0  0  0  0  0  0  0  0  0  0  0
   -3.8420   24.8230  -26.3860 N   0  0  0  0  0  0  0  0  0  0  0  0
   -3.2460   23.8220  -27.1140 C   0  0  0  0  0  0  0  0  0  0  0  0
   -4.2480   22.7120  -28.0980 S   0  0  0  0  0  0  0  0  0  0  0  0
   -3.3810   23.0780  -29.6640 C   0  0  0  0  0  0  0  0  0  0  0  0
   -3.3420   24.5510  -29.9130 C   0  0  0  0  0  0  0  0  0  0  0  0
   -2.4610   25.2570  -29.3510 O   0  0  0  0  0  0  0  0  0  0  0  0
   -4.2670   25.1380  -30.8350 N   0  0  0  0  0  0  0  0  0  0  0  0
   -5.6430   24.6840  -31.0150 C   0  0  0  0  0  0  0  0  0  0  0  0
   -5.7690   23.7810  -32.2460 C   0  0  0  0  0  0  0  0  0  0  0  0
   -6.8150   22.7140  -32.0590 C   0  0  0  0  0  0  0  0  0  0  0  0
   -6.5130   21.3700  -32.3390 C   0  0  0  0  0  0  0  0  0  0  0  0
   -7.4930   20.3840  -32.2000 C   0  0  0  0  0  0  0  0  0  0  0  0
   -8.7810   20.7310  -31.7840 C   0  0  0  0  0  0  0  0  0  0  0  0
   -9.0920   22.0650  -31.5090 C   0  0  0  0  0  0  0  0  0  0  0  0
   -8.1150   23.0550  -31.6460 C   0  0  0  0  0  0  0  0  0  0  0  0
   -1.8910   23.6480  -27.0630 N   0  0  0  0  0  0  0  0  0  0  0  0
   -1.1760   24.4870  -26.2790 C   0  0  0  0  0  0  0  0  0  0  0  0
    1.6078   22.9781  -25.6916 H   0  0  0  0  0  0  0  0  0  0  0  0
    0.5965   22.7246  -27.1544 H   0  0  0  0  0  0  0  0  0  0  0  0
    1.8758   23.9856  -27.1544 H   0  0  0  0  0  0  0  0  0  0  0  0
    2.5073   25.2826  -24.7679 H   0  0  0  0  0  0  0  0  0  0  0  0
    2.4786   27.1717  -23.1020 H   0  0  0  0  0  0  0  0  0  0  0  0
    0.3366   28.3439  -22.5540 H   0  0  0  0  0  0  0  0  0  0  0  0
   -1.8166   27.6432  -23.6634 H   0  0  0  0  0  0  0  0  0  0  0  0
   -2.3518   22.6941  -29.6055 H   0  0  0  0  0  0  0  0  0  0  0  0
   -3.9221   22.5934  -30.4900 H   0  0  0  0  0  0  0  0  0  0  0  0
   -5.9552   24.1211  -30.1230 H   0  0  0  0  0  0  0  0  0  0  0  0
   -6.2854   25.5649  -31.1606 H   0  0  0  0  0  0  0  0  0  0  0  0
   -6.0437   24.3994  -33.1133 H   0  0  0  0  0  0  0  0  0  0  0  0
   -4.8006   23.2833  -32.4025 H   0  0  0  0  0  0  0  0  0  0  0  0
   -5.5008   21.0934  -32.6690 H   0  0  0  0  0  0  0  0  0  0  0  0
   -7.2504   19.3335  -32.4183 H   0  0  0  0  0  0  0  0  0  0  0  0
   -9.5508   19.9531  -31.6729 H   0  0  0  0  0  0  0  0  0  0  0  0
  -10.1073   22.3365  -31.1842 H   0  0  0  0  0  0  0  0  0  0  0  0
   -8.3640   24.1045  -31.4300 H   0  0  0  0  0  0  0  0  0  0  0  0
  1  2  1  0
  2  3  1  0
  3  4  2  0
  4  5  1  0
  5  6  2  0
  6  7  1  0
  7  8  2  0
  8  9  1  0
  9 10  2  0
 10 11  1  0
 11 12  2  0
 12 13  1  0
 13 14  1  0
 14 15  1  0
 15 16  2  0
 15 17  1  0
 17 18  1  0
 18 19  1  0
 19 20  1  0
 20 21  2  0
 21 22  1  0
 22 23  2  0
 23 24  1  0
 24 25  2  0
 12 26  1  0
 26 27  2  0
 27  2  1  0
  8  3  1  0
 27  9  1  0
 25 20  1  0
  1 28  1  0
  1 29  1  0
  1 30  1  0
  4 31  1  0
  5 32  1  0
  6 33  1  0
  7 34  1  0
 14 35  1  0
 14 36  1  0
 18 37  1  0
 18 38  1  0
 19 39  1  0
 19 40  1  0
 21 41  1  0
 22 42  1  0
 23 43  1  0
 24 44  1  0
 25 45  1  0
M  CHG  1  17  -1
M  END
>  <UniqueID>  (5) 
4

>  <SMILES>  (5) 
Cn1c2ccccc2c2nnc(SCC(=O)[N-]CCc3ccccc3)nc21

>  <Energy>  (5) 
86.32623987913195

>  <Genealogy>  (5) 
Cn1c2ccccc2c2nnc(SCC(=O)[N-]CCc3ccccc3)nc21 (protonated)
Cn1c2ccccc2c2nnc(SCC(=O)[N-]CCc3ccccc3)nc21 (3D coordinates assigned)
Cn1c2ccccc2c2nnc(SCC(=O)[N-]CCc3ccccc3)nc21 (optimized conformer: 86.32623987913195 kcal/mol)

>  <smiles>  (5) 
Cn1c2ccccc2c2nnc(SCC(=O)NCCc3ccccc3)nc21

>  <score_type>  (5) 
oracle

>  <origin>  (5) 
adg

>  <m_score__min__energy>  (5) 
-11.220000000000001

>  <m_primary>  (5) 
energy

$$$$
5:0
     RDKit          3D

 44 46  0  0  0  0  0  0  0  0999 V2000
   -2.4100   18.7780  -26.5710 C   0  0  0  0  0  0  0  0  0  0  0  0
   -1.5650   19.2700  -27.7530 C   0  0  0  0  0  0  0  0  0  0  0  0
   -1.8870   20.6660  -28.1410 N   0  0  0  0  0  0  0  0  0  0  0  0
   -0.7570   21.5600  -27.7880 C   0  0  0  0  0  0  0  0  0  0  0  0
   -1.1310   23.0620  -27.7380 C   0  0  0  0  0  0  0  0  0  0  0  0
   -2.4320   23.3500  -28.3660 N   0  0  0  0  0  0  0  0  0  0  0  0
   -2.6460   24.6250  -29.0120 C   0  0  0  0  0  0  0  0  0  0  0  0
   -1.7410   25.5060  -28.9800 O   0  0  0  0  0  0  0  0  0  0  0  0
   -3.9370   24.9250  -29.7280 C   0  0  0  0  0  0  0  0  0  0  0  0
   -3.9680   24.2850  -31.0390 N   0  0  0  0  0  0  0  0  0  0  0  0
   -4.0160   22.8670  -31.2350 C   0  0  0  0  0  0  0  0  0  0  0  0
   -2.9580   22.1960  -31.1210 O   0  0  0  0  0  0  0  0  0  0  0  0
   -5.2750   22.1710  -31.5260 C   0  0  0  0  0  0  0  0  0  0  0  0
   -6.8080   22.8290  -31.2490 S   0  0  0  0  0  0  0  0  0  0  0  0
   -7.6470   21.4730  -31.7750 C   0  0  0  0  0  0  0  0  0  0  0  0
   -9.0250   21.2870  -31.8320 C   0  0  0  0  0  0  0  0  0  0  0  0
   -9.5090   20.0540  -32.2940 C   0  0  0  0  0  0  0  0  0  0  0  0
   -8.6130   19.0390  -32.6830 C   0  0  0  0  0  0  0  0  0  0  0  0
   -7.2260   19.2490  -32.6130 C   0  0  0  0  0  0  0  0  0  0  0  0
   -6.7490   20.4840  -32.1560 C   0  0  0  0  0  0  0  0  0  0  0  0
   -5.4080   20.8660  -32.0130 C   0  0  0  0  0  0  0  0  0  0  0  0
   -4.0480   19.7880  -32.3060 Cl  0  0  0  0  0  0  0  0  0  0  0  0
   -3.5740   22.4560  -28.1210 C   0  0  0  0  0  0  0  0  0  0  0  0
   -3.1270   21.1350  -27.4910 C   0  0  0  0  0  0  0  0  0  0  0  0
   -1.9214   19.0625  -25.6274 H   0  0  0  0  0  0  0  0  0  0  0  0
   -3.4092   19.2355  -26.6190 H   0  0  0  0  0  0  0  0  0  0  0  0
   -2.5053   17.6832  -26.6190 H   0  0  0  0  0  0  0  0  0  0  0  0
   -0.5026   19.2181  -27.4727 H   0  0  0  0  0  0  0  0  0  0  0  0
   -1.7884   18.6240  -28.6148 H   0  0  0  0  0  0  0  0  0  0  0  0
   -2.0100   20.7030  -29.1820 H   0  0  0  0  0  0  0  0  0  0  0  0
   -0.3793   21.2649  -26.7979 H   0  0  0  0  0  0  0  0  0  0  0  0
   -0.0033   21.4470  -28.5812 H   0  0  0  0  0  0  0  0  0  0  0  0
   -1.1716   23.3787  -26.6854 H   0  0  0  0  0  0  0  0  0  0  0  0
   -0.3633   23.6123  -28.3018 H   0  0  0  0  0  0  0  0  0  0  0  0
   -4.7780   24.5515  -29.1253 H   0  0  0  0  0  0  0  0  0  0  0  0
   -4.0163   26.0133  -29.8670 H   0  0  0  0  0  0  0  0  0  0  0  0
   -9.7160   22.0852  -31.5231 H   0  0  0  0  0  0  0  0  0  0  0  0
  -10.5934   19.8789  -32.3528 H   0  0  0  0  0  0  0  0  0  0  0  0
   -9.0022   18.0755  -33.0440 H   0  0  0  0  0  0  0  0  0  0  0  0
   -6.5252   18.4558  -32.9125 H   0  0  0  0  0  0  0  0  0  0  0  0
   -4.2796   22.9556  -27.4409 H   0  0  0  0  0  0  0  0  0  0  0  0
   -4.0516   22.2337  -29.0866 H   0  0  0  0  0  0  0  0  0  0  0  0
   -2.9419   21.2865  -26.4173 H   0  0  0  0  0  0  0  0  0  0  0  0
   -3.9166   20.3815  -27.6279 H   0  0  0  0  0  0  0  0  0  0  0  0
  1  2  1  0
  2  3  1  0
  3  4  1  0
  4  5  1  0
  5  6  1  0
  6  7  1  0
  7  8  2  0
  7  9  1  0
  9 10  1  0
 10 11  1  0
 11 12  2  0
 11 13  1  0
 13 14  1  0
 14 15  1  0
 15 16  2  0
 16 17  1  0
 17 18  2  0
 18 19  1  0
 19 20  2  0
 20 21  1  0
 21 22  1  0
  6 23  1  0
 23 24  1  0
 24  3  1  0
 21 13  2  0
 20 15  1  0
  1 25  1  0
  1 26  1  0
  1 27  1  0
  2 28  1  0
  2 29  1  0
  3 30  1  0
  4 31  1  0
  4 32  1  0
  5 33  1  0
  5 34  1  0
  9 35  1  0
  9 36  1  0
 16 37  1  0
 17 38  1  0
 18 39  1  0
 19 40  1  0
 23 41  1  0
 23 42  1  0
 24 43  1  0
 24 44  1  0
M  CHG  2   3   1  10  -1
M  END
>  <UniqueID>  (6) 
5

>  <SMILES>  (6) 
CC[NH+]1CCN(C(=O)C[N-]C(=O)c2sc3ccccc3c2Cl)CC1

>  <Energy>  (6) 
86.8894214981796

>  <Genealogy>  (6) 
CC[NH+]1CCN(C(=O)C[N-]C(=O)c2sc3ccccc3c2Cl)CC1 (protonated)
CC[NH+]1CCN(C(=O)C[N-]C(=O)c2sc3ccccc3c2Cl)CC1 (3D coordinates assigned)
CC[NH+]1CCN(C(=O)C[N-]C(=O)c2sc3ccccc3c2Cl)CC1 (nonaromatic ring conformer: 86.8894214981796 kcal/mol)

>  <smiles>  (6) 
CCN1CCN(C(=O)CNC(=O)c2sc3ccccc3c2Cl)CC1

>  <score_type>  (6) 
oracle

>  <origin>  (6) 
adg

>  <m_score__min__energy>  (6) 
-10.289999999999999

>  <m_primary>  (6) 
energy

$$$$
6:0
     RDKit          3D

 45 47  0  0  0  0  0  0  0  0999 V2000
    1.6770   21.0350  -35.2090 C   0  0  0  0  0  0  0  0  0  0  0  0
    0.9630   19.8990  -34.7940 O   0  0  0  0  0  0  0  0  0  0  0  0
   -0.3160   20.0280  -34.2740 C   0  0  0  0  0  0  0  0  0  0  0  0
   -0.9050   21.2360  -33.9820 C   0  0  0  0  0  0  0  0  0  0  0  0
   -2.1890   21.2960  -33.4640 C   0  0  0  0  0  0  0  0  0  0  0  0
   -2.8640   20.1050  -33.2480 C   0  0  0  0  0  0  0  0  0  0  0  0
   -4.2160   20.0600  -32.7070 C   0  0  0  0  0  0  0  0  0  0  0  0
   -5.2320   19.2190  -33.0080 N   0  0  0  0  0  0  0  0  0  0  0  0
   -6.3090   19.5340  -32.2690 C   0  0  0  0  0  0  0  0  0  0  0  0
   -7.8870   18.7110  -32.3140 S   0  0  0  0  0  0  0  0  0  0  0  0
   -9.2510   19.8760  -32.3210 C   0  0  0  0  0  0  0  0  0  0  0  0
   -6.0190   20.5780  -31.4780 N   0  0  0  0  0  0  0  0  0  0  0  0
   -4.7390   20.9050  -31.7420 C   0  0  0  0  0  0  0  0  0  0  0  0
   -4.0570   22.0030  -31.0740 C   0  0  0  0  0  0  0  0  0  0  0  0
   -2.9050   21.7000  -30.3830 C   0  0  0  0  0  0  0  0  0  0  0  0
   -2.2520   22.7450  -29.7440 C   0  0  0  0  0  0  0  0  0  0  0  0
   -2.7210   24.0470  -29.7860 C   0  0  0  0  0  0  0  0  0  0  0  0
   -2.0560   25.0580  -29.1450 O   0  0  0  0  0  0  0  0  0  0  0  0
   -1.6480   25.0810  -27.8080 C   0  0  0  0  0  0  0  0  0  0  0  0
   -3.8750   24.3470  -30.4780 C   0  0  0  0  0  0  0  0  0  0  0  0
   -4.3170   25.6550  -30.5010 O   0  0  0  0  0  0  0  0  0  0  0  0
   -5.6560   26.0550  -30.3370 C   0  0  0  0  0  0  0  0  0  0  0  0
   -4.5170   23.3030  -31.1100 C   0  0  0  0  0  0  0  0  0  0  0  0
   -2.2790   18.8770  -33.5410 C   0  0  0  0  0  0  0  0  0  0  0  0
   -1.0180   18.8500  -34.0480 C   0  0  0  0  0  0  0  0  0  0  0  0
    2.0265   21.5910  -34.3266 H   0  0  0  0  0  0  0  0  0  0  0  0
    2.5423   20.7239  -35.8127 H   0  0  0  0  0  0  0  0  0  0  0  0
    1.0215   21.6798  -35.8127 H   0  0  0  0  0  0  0  0  0  0  0  0
   -0.3490   22.1679  -34.1622 H   0  0  0  0  0  0  0  0  0  0  0  0
   -2.6596   22.2625  -33.2307 H   0  0  0  0  0  0  0  0  0  0  0  0
   -9.5329   20.1168  -31.2853 H   0  0  0  0  0  0  0  0  0  0  0  0
   -8.9450   20.7958  -32.8410 H   0  0  0  0  0  0  0  0  0  0  0  0
  -10.1116   19.4299  -32.8410 H   0  0  0  0  0  0  0  0  0  0  0  0
   -6.6570   21.0630  -30.7790 H   0  0  0  0  0  0  0  0  0  0  0  0
   -2.5179   20.6713  -30.3392 H   0  0  0  0  0  0  0  0  0  0  0  0
   -1.3294   22.5312  -29.1845 H   0  0  0  0  0  0  0  0  0  0  0  0
   -2.5312   25.0312  -27.1542 H   0  0  0  0  0  0  0  0  0  0  0  0
   -0.9953   24.2182  -27.6089 H   0  0  0  0  0  0  0  0  0  0  0  0
   -1.0964   26.0117  -27.6089 H   0  0  0  0  0  0  0  0  0  0  0  0
   -5.8891   26.1246  -29.2642 H   0  0  0  0  0  0  0  0  0  0  0  0
   -5.8058   27.0371  -30.8093 H   0  0  0  0  0  0  0  0  0  0  0  0
   -6.3199   25.3160  -30.8093 H   0  0  0  0  0  0  0  0  0  0  0  0
   -5.4397   23.5170  -31.6694 H   0  0  0  0  0  0  0  0  0  0  0  0
   -2.8293   17.9410  -33.3648 H   0  0  0  0  0  0  0  0  0  0  0  0
   -0.5474   17.8838  -34.2823 H   0  0  0  0  0  0  0  0  0  0  0  0
  1  2  1  0
  2  3  1  0
  3  4  2  0
  4  5  1  0
  5  6  2  0
  6  7  1  0
  7  8  1  0
  8  9  2  0
  9 10  1  0
 10 11  1  0
  9 12  1  0
 12 13  1  0
 13 14  1  0
 14 15  2  0
 15 16  1  0
 16 17  2  0
 17 18  1  0
 18 19  1  0
 17 20  1  0
 20 21  1  0
 21 22  1  0
 20 23  2  0
  6 24  1  0
 24 25  2  0
 25  3  1  0
 13  7  2  0
 23 14  1  0
  1 26  1  0
  1 27  1  0
  1 28  1  0
  4 29  1  0
  5 30  1  0
 11 31  1  0
 11 32  1  0
 11 33  1  0
 12 34  1  0
 15 35  1  0
 16 36  1  0
 19 37  1  0
 19 38  1  0
 19 39  1  0
 22 40  1  0
 22 41  1  0
 22 42  1  0
 23 43  1  0
 24 44  1  0
 25 45  1  0
M  END
>  <smiles>  (7) 
COc1ccc(-c2nc(SC)[nH]c2-c2ccc(OC)c(OC)c2)cc1

>  <score_type>  (7) 
oracle

>  <origin>  (7) 
adg

>  <m_score__min__energy>  (7) 
-7.4199999999999999

>  <m_primary>  (7) 
energy

$$$$
7:0
     RDKit          3D

 46 48  0  0  1  0  0  0  0  0999 V2000
   -6.3520   25.3720  -29.3550 C   0  0  0  0  0  0  0  0  0  0  0  0
   -6.4930   24.9300  -30.7730 C   0  0  0  0  0  0  0  0  0  0  0  0
   -5.7160   23.7740  -31.1160 N   0  0  0  0  0  0  0  0  0  0  0  0
   -4.3640   23.8060  -31.1420 C   0  0  0  0  0  0  0  0  0  0  0  0
   -3.8030   24.9140  -30.8480 N   0  0  0  0  0  0  0  0  0  0  0  0
   -3.6820   22.7180  -31.4640 N   0  0  0  0  0  0  0  0  0  0  0  0
   -4.3100   21.5750  -31.7670 C   0  0  0  0  0  0  0  0  0  0  0  0
   -3.6120   20.5600  -32.0690 N   0  0  0  0  0  0  0  0  0  0  0  0
   -3.3220   20.0470  -33.3730 C   0  0  0  0  0  0  0  0  0  0  0  0
   -4.1140   18.8140  -33.6600 C   0  0  0  0  0  0  0  0  0  0  0  0
   -3.7920   17.5800  -33.1450 C   0  0  0  0  0  0  0  0  0  0  0  0
   -4.5200   16.4390  -33.4090 C   0  0  0  0  0  0  0  0  0  0  0  0
   -5.6230   16.4990  -34.2170 C   0  0  0  0  0  0  0  0  0  0  0  0
   -5.9810   17.7150  -34.7550 C   0  0  0  0  0  0  0  0  0  0  0  0
   -5.2460   18.8490  -34.4840 C   0  0  0  0  0  0  0  0  0  0  0  0
   -5.6720   21.5010  -31.7530 C   0  0  0  0  0  0  0  0  0  0  0  0
   -6.3800   20.3570  -32.0540 C   0  0  0  0  0  0  0  0  0  0  0  0
   -7.7650   20.3330  -32.0240 C   0  0  0  0  0  0  0  0  0  0  0  0
   -8.4710   19.1010  -32.3500 C   0  0  0  0  0  0  0  0  0  0  0  0
   -7.9120   17.7910  -31.9330 C   0  0  0  0  0  0  0  0  0  0  0  0
   -9.5560   19.1350  -32.9850 O   0  0  0  0  0  0  0  0  0  0  0  0
   -8.4010   21.4930  -31.6840 C   0  0  0  0  0  0  0  0  0  0  0  0
   -9.8720   21.5350  -31.6330 C   0  0  0  0  0  0  0  0  0  0  0  0
   -7.7200   22.6110  -31.3890 N   0  0  0  0  0  0  0  0  0  0  0  0
   -6.3890   22.6290  -31.4190 C   0  0  0  0  0  0  0  0  0  0  0  0
   -6.6169   24.5416  -28.6840 H   0  0  0  0  0  0  0  0  0  0  0  0
   -5.3119   25.6772  -29.1678 H   0  0  0  0  0  0  0  0  0  0  0  0
   -7.0232   26.2231  -29.1678 H   0  0  0  0  0  0  0  0  0  0  0  0
   -7.5526   24.6987  -30.9570 H   0  0  0  0  0  0  0  0  0  0  0  0
   -6.1182   25.7551  -31.3965 H   0  0  0  0  0  0  0  0  0  0  0  0
   -3.6770   25.6290  -31.5900 H   0  0  0  0  0  0  0  0  0  0  0  0
   -2.6510   22.7420  -31.4850 H   0  0  0  0  0  0  0  0  0  0  0  0
   -3.5684   20.8136  -34.1225 H   0  0  0  0  0  0  0  0  0  0  0  0
   -2.2532   19.7905  -33.4152 H   0  0  0  0  0  0  0  0  0  0  0  0
   -2.9112   17.4994  -32.4910 H   0  0  0  0  0  0  0  0  0  0  0  0
   -4.2135   15.4785  -32.9692 H   0  0  0  0  0  0  0  0  0  0  0  0
   -6.2113   15.5948  -34.4322 H   0  0  0  0  0  0  0  0  0  0  0  0
   -6.8634   17.7821  -35.4083 H   0  0  0  0  0  0  0  0  0  0  0  0
   -5.5567   19.8069  -34.9266 H   0  0  0  0  0  0  0  0  0  0  0  0
   -5.8326   19.4420  -32.3243 H   0  0  0  0  0  0  0  0  0  0  0  0
   -7.8883   17.7354  -30.8347 H   0  0  0  0  0  0  0  0  0  0  0  0
   -8.5428   16.9808  -32.3276 H   0  0  0  0  0  0  0  0  0  0  0  0
   -6.8906   17.6858  -32.3276 H   0  0  0  0  0  0  0  0  0  0  0  0
  -10.2024   21.5444  -30.5838 H   0  0  0  0  0  0  0  0  0  0  0  0
  -10.2306   22.4438  -32.1385 H   0  0  0  0  0  0  0  0  0  0  0  0
  -10.2819   20.6482  -32.1385 H   0  0  0  0  0  0  0  0  0  0  0  0
  1  2  1  0
  2  3  1  0
  3  4  1  0
  4  5  2  3
  4  6  1  0
  6  7  1  0
  7  8  2  0
  8  9  1  0
  9 10  1  0
 10 11  2  0
 11 12  1  0
 12 13  2  0
 13 14  1  0
 14 15  2  0
  7 16  1  0
 16 17  2  0
 17 18  1  0
 18 19  1  0
 19 20  1  0
 19 21  2  0
 18 22  2  0
 22 23  1  0
 22 24  1  0
 24 25  2  0
 25  3  1  0
 15 10  1  0
 25 16  1  0
  1 26  1  0
  1 27  1  0
  1 28  1  0
  2 29  1  0
  2 30  1  0
  5 31  1  0
  6 32  1  0
  9 33  1  0
  9 34  1  0
 11 35  1  0
 12 36  1  0
 13 37  1  0
 14 38  1  0
 15 39  1  0
 17 40  1  0
 20 41  1  0
 20 42  1  0
 20 43  1  0
 23 44  1  0
 23 45  1  0
 23 46  1  0
M  END
>  <smiles>  (8) 
CCn1c(=N)[nH]c(=NCc2ccccc2)c2cc(C(C)=O)c(C)nc21

>  <score_type>  (8) 
oracle

>  <origin>  (8) 
adg

>  <m_score__min__energy>  (8) 
-8.7100000000000009

>  <m_primary>  (8) 
energy

$$$$
8:0
     RDKit          3D

 56 60  0  0  0  0  0  0  0  0999 V2000
    0.3150   24.9770  -26.9470 C   0  0  0  0  0  0  0  0  0  0  0  0
    0.4190   24.4130  -28.2500 O   0  0  0  0  0  0  0  0  0  0  0  0
   -0.6570   23.8660  -28.9670 C   0  0  0  0  0  0  0  0  0  0  0  0
   -0.7040   22.5090  -29.3300 C   0  0  0  0  0  0  0  0  0  0  0  0
   -1.8000   21.9900  -30.0410 C   0  0  0  0  0  0  0  0  0  0  0  0
   -1.7890   20.5160  -30.4440 C   0  0  1  0  0  0  0  0  0  0  0  0
   -2.8300   20.2150  -31.5090 C   0  0  0  0  0  0  0  0  0  0  0  0
   -4.1970   20.1860  -31.1500 C   0  0  0  0  0  0  0  0  0  0  0  0
   -5.1350   19.9720  -32.1520 C   0  0  0  0  0  0  0  0  0  0  0  0
   -4.7760   19.7970  -33.4470 C   0  0  0  0  0  0  0  0  0  0  0  0
   -3.4470   19.8230  -33.8520 C   0  0  0  0  0  0  0  0  0  0  0  0
   -2.4550   20.0470  -32.8740 C   0  0  0  0  0  0  0  0  0  0  0  0
   -1.0090   20.0250  -33.2880 C   0  0  0  0  0  0  0  0  0  0  0  0
   -0.0650   20.5530  -32.1980 C   0  0  0  0  0  0  0  0  0  0  0  0
   -0.4220   20.0720  -30.8390 N   0  0  2  0  0  0  0  0  0  0  0  0
   -0.2730   18.6000  -30.6880 C   0  0  0  0  0  0  0  0  0  0  0  0
    0.6600   18.2270  -29.5570 C   0  0  0  0  0  0  0  0  0  0  0  0
    0.2550   17.3160  -28.5670 C   0  0  0  0  0  0  0  0  0  0  0  0
    1.1290   16.9630  -27.5340 C   0  0  0  0  0  0  0  0  0  0  0  0
    2.4110   17.5170  -27.4810 C   0  0  0  0  0  0  0  0  0  0  0  0
    2.8200   18.4260  -28.4600 C   0  0  0  0  0  0  0  0  0  0  0  0
    1.9500   18.7810  -29.4950 C   0  0  0  0  0  0  0  0  0  0  0  0
   -5.9070   19.6040  -34.2170 O   0  0  0  0  0  0  0  0  0  0  0  0
   -7.0480   19.6640  -33.3490 C   0  0  0  0  0  0  0  0  0  0  0  0
   -6.5100   19.9000  -32.0410 O   0  0  0  0  0  0  0  0  0  0  0  0
   -2.8430   22.8600  -30.4100 C   0  0  0  0  0  0  0  0  0  0  0  0
   -2.8090   24.2190  -30.0510 C   0  0  0  0  0  0  0  0  0  0  0  0
   -3.8370   25.1110  -30.3960 O   0  0  0  0  0  0  0  0  0  0  0  0
   -5.2230   24.8660  -30.1790 C   0  0  0  0  0  0  0  0  0  0  0  0
   -1.7140   24.7110  -29.3280 C   0  0  0  0  0  0  0  0  0  0  0  0
   -1.6760   26.0540  -28.9680 O   0  0  0  0  0  0  0  0  0  0  0  0
    0.4603   24.1888  -26.1936 H   0  0  0  0  0  0  0  0  0  0  0  0
    1.0854   25.7519  -26.8203 H   0  0  0  0  0  0  0  0  0  0  0  0
   -0.6811   25.4261  -26.8203 H   0  0  0  0  0  0  0  0  0  0  0  0
    0.1279   21.8443  -29.0541 H   0  0  0  0  0  0  0  0  0  0  0  0
   -2.0720   19.9260  -29.5598 H   0  0  0  0  0  0  0  0  0  0  0  0
   -4.5096   20.3291  -30.1051 H   0  0  0  0  0  0  0  0  0  0  0  0
   -3.1755   19.6729  -34.9073 H   0  0  0  0  0  0  0  0  0  0  0  0
   -0.7275   18.9880  -33.5234 H   0  0  0  0  0  0  0  0  0  0  0  0
   -0.9064   20.6864  -34.1609 H   0  0  0  0  0  0  0  0  0  0  0  0
    0.9581   20.2218  -32.4296 H   0  0  0  0  0  0  0  0  0  0  0  0
   -0.1498   21.6497  -32.1919 H   0  0  0  0  0  0  0  0  0  0  0  0
    0.2570   20.5130  -30.1720 H   0  0  0  0  0  0  0  0  0  0  0  0
   -1.2627   18.1636  -30.4878 H   0  0  0  0  0  0  0  0  0  0  0  0
    0.1589   18.2095  -31.6213 H   0  0  0  0  0  0  0  0  0  0  0  0
   -0.7536   16.8787  -28.6046 H   0  0  0  0  0  0  0  0  0  0  0  0
    0.8071   16.2484  -26.7622 H   0  0  0  0  0  0  0  0  0  0  0  0
    3.0979   17.2374  -26.6686 H   0  0  0  0  0  0  0  0  0  0  0  0
    3.8285   18.8631  -28.4163 H   0  0  0  0  0  0  0  0  0  0  0  0
    2.2764   19.4968  -30.2639 H   0  0  0  0  0  0  0  0  0  0  0  0
   -7.7163   20.4858  -33.6458 H   0  0  0  0  0  0  0  0  0  0  0  0
   -7.6452   18.7411  -33.3888 H   0  0  0  0  0  0  0  0  0  0  0  0
   -3.6956   22.4718  -30.9866 H   0  0  0  0  0  0  0  0  0  0  0  0
   -5.4242   24.8304  -29.0981 H   0  0  0  0  0  0  0  0  0  0  0  0
   -5.8140   25.6736  -30.6356 H   0  0  0  0  0  0  0  0  0  0  0  0
   -5.5013   23.9047  -30.6356 H   0  0  0  0  0  0  0  0  0  0  0  0
  1  2  1  0
  2  3  1  0
  3  4  2  0
  4  5  1  0
  5  6  1  0
  6  7  1  0
  7  8  2  0
  8  9  1  0
  9 10  2  0
 10 11  1  0
 11 12  2  0
 12 13  1  0
 13 14  1  0
 14 15  1  0
 15 16  1  0
 16 17  1  0
 17 18  2  0
 18 19  1  0
 19 20  2  0
 20 21  1  0
 21 22  2  0
 10 23  1  0
 23 24  1  0
 24 25  1  0
  5 26  2  0
 26 27  1  0
 27 28  1  0
 28 29  1  0
 27 30  2  0
 30 31  1  0
 30  3  1  0
 15  6  1  0
 22 17  1  0
 12  7  1  0
 25  9  1  0
  1 32  1  0
  1 33  1  0
  1 34  1  0
  4 35  1  0
  6 36  1  1
  8 37  1  0
 11 38  1  0
 13 39  1  0
 13 40  1  0
 14 41  1  0
 14 42  1  0
 15 43  1  1
 16 44  1  0
 16 45  1  0
 18 46  1  0
 19 47  1  0
 20 48  1  0
 21 49  1  0
 22 50  1  0
 24 51  1  0
 24 52  1  0
 26 53  1  0
 29 54  1  0
 29 55  1  0
 29 56  1  0
M  CHG  2  15   1  31  -1
M  END
>  <UniqueID>  (9) 
6

>  <SMILES>  (9) 
COc1cc([C@H]2c3cc4c(cc3CC[N@@H+]2Cc2ccccc2)OCO4)cc(OC)c1[O-]

>  <Energy>  (9) 
97.23415404066145

>  <Genealogy>  (9) 
COc1cc(C2c3cc4c(cc3CC[NH+]2Cc2ccccc2)OCO4)cc(OC)c1[O-] (protonated)
COc1cc([C@H]2c3cc4c(cc3CC[N@@H+]2Cc2ccccc2)OCO4)cc(OC)c1[O-] (chirality)
COc1cc([C@H]2c3cc4c(cc3CC[N@@H+]2Cc2ccccc2)OCO4)cc(OC)c1[O-] (3D coordinates assigned)
COc1cc([C@H]2c3cc4c(cc3CC[N@@H+]2Cc2ccccc2)OCO4)cc(OC)c1[O-] (nonaromatic ring conformer: 97.23415404066145 kcal/mol)

>  <smiles>  (9) 
COc1cc(C2c3cc4c(cc3CCN2Cc2ccccc2)OCO4)cc(OC)c1O

>  <score_type>  (9) 
oracle

>  <origin>  (9) 
adg

>  <m_score__min__energy>  (9) 
-10.34

>  <m_primary>  (9) 
energy

$$$$
9:0
     RDKit          3D

 47 49  0  0  0  0  0  0  0  0999 V2000
   -3.2550   14.3080  -34.9720 C   0  0  0  0  0  0  0  0  0  0  0  0
   -3.0180   15.6980  -34.5500 N   0  0  0  0  0  0  0  0  0  0  0  0
   -3.7860   16.6780  -35.3640 C   0  0  0  0  0  0  0  0  0  0  0  0
   -4.9340   17.3700  -34.6030 C   0  0  0  0  0  0  0  0  0  0  0  0
   -5.6510   16.3760  -33.6760 C   0  0  0  0  0  0  0  0  0  0  0  0
   -6.8450   17.0360  -32.9680 C   0  0  0  0  0  0  0  0  0  0  0  0
   -7.1660   18.2660  -33.6120 O   0  0  0  0  0  0  0  0  0  0  0  0
   -6.9190   19.5450  -33.0900 C   0  0  0  0  0  0  0  0  0  0  0  0
   -5.6830   20.0930  -33.1440 N   0  0  0  0  0  0  0  0  0  0  0  0
   -5.8130   21.2640  -32.4970 C   0  0  0  0  0  0  0  0  0  0  0  0
   -7.0930   21.4220  -32.0760 C   0  0  0  0  0  0  0  0  0  0  0  0
   -7.4370   22.5430  -31.3210 C   0  0  0  0  0  0  0  0  0  0  0  0
   -8.6030   22.6770  -30.8580 O   0  0  0  0  0  0  0  0  0  0  0  0
   -6.4670   23.4850  -31.0660 N   0  0  0  0  0  0  0  0  0  0  0  0
   -6.7920   24.6700  -30.2560 C   0  0  0  0  0  0  0  0  0  0  0  0
   -5.1660   23.2850  -31.4970 C   0  0  0  0  0  0  0  0  0  0  0  0
   -4.2730   24.1290  -31.2010 O   0  0  0  0  0  0  0  0  0  0  0  0
   -4.8310   22.1710  -32.2360 N   0  0  0  0  0  0  0  0  0  0  0  0
   -3.4590   21.9230  -32.6970 C   0  0  0  0  0  0  0  0  0  0  0  0
   -7.8280   20.3520  -32.4650 N   0  0  0  0  0  0  0  0  0  0  0  0
   -9.2700   20.1480  -32.3220 C   0  0  0  0  0  0  0  0  0  0  0  0
   -4.6630   15.7720  -32.6480 C   0  0  0  0  0  0  0  0  0  0  0  0
   -3.1900   15.8700  -33.0920 C   0  0  0  0  0  0  0  0  0  0  0  0
   -3.3640   13.6686  -34.0836 H   0  0  0  0  0  0  0  0  0  0  0  0
   -4.1744   14.2592  -35.5739 H   0  0  0  0  0  0  0  0  0  0  0  0
   -2.4037   13.9573  -35.5739 H   0  0  0  0  0  0  0  0  0  0  0  0
   -3.0902   17.4531  -35.7177 H   0  0  0  0  0  0  0  0  0  0  0  0
   -4.2480   16.1123  -36.1865 H   0  0  0  0  0  0  0  0  0  0  0  0
   -4.5226   18.1930  -34.0002 H   0  0  0  0  0  0  0  0  0  0  0  0
   -5.6593   17.7565  -35.3342 H   0  0  0  0  0  0  0  0  0  0  0  0
   -6.0421   15.5573  -34.2979 H   0  0  0  0  0  0  0  0  0  0  0  0
   -7.7138   16.3627  -33.0120 H   0  0  0  0  0  0  0  0  0  0  0  0
   -6.5824   17.2325  -31.9180 H   0  0  0  0  0  0  0  0  0  0  0  0
   -4.8230   19.6670  -33.5540 H   0  0  0  0  0  0  0  0  0  0  0  0
   -6.7220   24.4148  -29.1883 H   0  0  0  0  0  0  0  0  0  0  0  0
   -6.0823   25.4780  -30.4871 H   0  0  0  0  0  0  0  0  0  0  0  0
   -7.8146   25.0029  -30.4871 H   0  0  0  0  0  0  0  0  0  0  0  0
   -2.7960   21.8032  -31.8274 H   0  0  0  0  0  0  0  0  0  0  0  0
   -3.4364   21.0062  -33.3044 H   0  0  0  0  0  0  0  0  0  0  0  0
   -3.1169   22.7739  -33.3044 H   0  0  0  0  0  0  0  0  0  0  0  0
   -9.5310   20.1111  -31.2540 H   0  0  0  0  0  0  0  0  0  0  0  0
   -9.8073   20.9791  -32.8022 H   0  0  0  0  0  0  0  0  0  0  0  0
   -9.5557   19.2005  -32.8022 H   0  0  0  0  0  0  0  0  0  0  0  0
   -4.7776   16.3097  -31.6952 H   0  0  0  0  0  0  0  0  0  0  0  0
   -4.9049   14.7033  -32.5508 H   0  0  0  0  0  0  0  0  0  0  0  0
   -2.8021   16.8590  -32.8067 H   0  0  0  0  0  0  0  0  0  0  0  0
   -2.6400   15.0569  -32.5957 H   0  0  0  0  0  0  0  0  0  0  0  0
  1  2  1  0
  2  3  1  0
  3  4  1  0
  4  5  1  0
  5  6  1  0
  6  7  1  0
  7  8  1  0
  8  9  2  0
  9 10  1  0
 10 11  2  0
 11 12  1  0
 12 13  2  0
 12 14  1  0
 14 15  1  0
 14 16  1  0
 16 17  2  0
 16 18  1  0
 18 19  1  0
 11 20  1  0
 20 21  1  0
  5 22  1  0
 22 23  1  0
 23  2  1  0
 20  8  1  0
 18 10  1  0
  1 24  1  0
  1 25  1  0
  1 26  1  0
  3 27  1  0
  3 28  1  0
  4 29  1  0
  4 30  1  0
  5 31  1  0
  6 32  1  0
  6 33  1  0
  9 34  1  0
 15 35  1  0
 15 36  1  0
 15 37  1  0
 19 38  1  0
 19 39  1  0
 19 40  1  0
 21 41  1  0
 21 42  1  0
 21 43  1  0
 22 44  1  0
 22 45  1  0
 23 46  1  0
 23 47  1  0
M  CHG  1   9   1
M  END
>  <UniqueID>  (10) 
7

>  <SMILES>  (10) 
CN1CCC(COc2[nH+]c3c(c(=O)n(C)c(=O)n3C)n2C)CC1

>  <Energy>  (10) 
106.77613732618418

>  <Genealogy>  (10) 
CN1CCC(COc2[nH+]c3c(c(=O)n(C)c(=O)n3C)n2C)CC1 (protonated)
CN1CCC(COc2[nH+]c3c(c(=O)n(C)c(=O)n3C)n2C)CC1 (3D coordinates assigned)
CN1CCC(COc2[nH+]c3c(c(=O)n(C)c(=O)n3C)n2C)CC1 (nonaromatic ring conformer: 106.77613732618418 kcal/mol)

>  <smiles>  (10) 
CN1CCC(COc2nc3c(c(=O)n(C)c(=O)n3C)n2C)CC1

>  <score_type>  (10) 
oracle

>  <origin>  (10) 
adg

>  <m_score__min__energy>  (10) 
-6.7999999999999998

>  <m_primary>  (10) 
energy

$$$$
10:0
     RDKit          3D

 31 32  0  0  0  0  0  0  0  0999 V2000
   -9.0018   22.3132  -30.2609 H   0  0  0  0  0  0  0  0  0  0  0  0
   -8.3340   22.3050  -31.1350 C   0  0  0  0  0  0  0  0  0  0  0  0
   -7.9380   23.4510  -31.6120 N   0  0  0  0  0  0  0  0  0  0  0  0
   -6.8060   24.1630  -31.1760 N   0  0  0  0  0  0  0  0  0  0  0  0
   -5.5490   23.9880  -31.6160 C   0  0  0  0  0  0  0  0  0  0  0  0
   -5.2727   23.3787  -32.4892 H   0  0  0  0  0  0  0  0  0  0  0  0
   -4.6710   24.6600  -30.8430 N   0  0  0  0  0  0  0  0  0  0  0  0
   -5.3850   25.2430  -29.8910 N   0  0  0  0  0  0  0  0  0  0  0  0
   -4.9870   25.8180  -29.1150 H   0  0  0  0  0  0  0  0  0  0  0  0
   -6.6780   24.9260  -30.0740 C   0  0  0  0  0  0  0  0  0  0  0  0
   -7.5061   25.2419  -29.4225 H   0  0  0  0  0  0  0  0  0  0  0  0
   -7.9420   20.9950  -31.6950 C   0  0  0  0  0  0  0  0  0  0  0  0
   -8.7730   19.8690  -31.5720 C   0  0  0  0  0  0  0  0  0  0  0  0
   -9.7245   19.9482  -31.0258 H   0  0  0  0  0  0  0  0  0  0  0  0
   -8.3970   18.6490  -32.1400 C   0  0  0  0  0  0  0  0  0  0  0  0
   -9.0497   17.7703  -32.0308 H   0  0  0  0  0  0  0  0  0  0  0  0
   -7.1910   18.5390  -32.8490 C   0  0  0  0  0  0  0  0  0  0  0  0
   -6.8030   17.2340  -33.4910 C   0  0  0  0  0  0  0  0  0  0  0  0
   -7.7056   16.7403  -33.8803 H   0  0  0  0  0  0  0  0  0  0  0  0
   -6.3169   16.5984  -32.7362 H   0  0  0  0  0  0  0  0  0  0  0  0
   -5.8220   17.4700  -34.6430 C   0  0  0  0  0  0  0  0  0  0  0  0
   -5.8382   18.5356  -34.9156 H   0  0  0  0  0  0  0  0  0  0  0  0
   -6.1295   16.8471  -35.4959 H   0  0  0  0  0  0  0  0  0  0  0  0
   -4.4010   17.0790  -34.2460 C   0  0  0  0  0  0  0  0  0  0  0  0
   -4.3197   17.0566  -33.1492 H   0  0  0  0  0  0  0  0  0  0  0  0
   -4.1679   16.0833  -34.6513 H   0  0  0  0  0  0  0  0  0  0  0  0
   -3.6913   17.8153  -34.6513 H   0  0  0  0  0  0  0  0  0  0  0  0
   -6.3830   19.6750  -33.0100 C   0  0  0  0  0  0  0  0  0  0  0  0
   -5.4487   19.6047  -33.5864 H   0  0  0  0  0  0  0  0  0  0  0  0
   -6.7590   20.8950  -32.4420 C   0  0  0  0  0  0  0  0  0  0  0  0
   -6.1237   21.7821  -32.5815 H   0  0  0  0  0  0  0  0  0  0  0  0
  1  2  1  0
  2  3  2  0
  3  4  1  0
  4  5  1  0
  5  6  1  0
  5  7  2  0
  7  8  1  0
  8  9  1  0
  8 10  2  0
 10 11  1  0
  2 12  1  0
 12 13  2  0
 13 14  1  0
 13 15  1  0
 15 16  1  0
 15 17  2  0
 17 18  1  0
 18 19  1  0
 18 20  1  0
 18 21  1  0
 21 22  1  0
 21 23  1  0
 21 24  1  0
 24 25  1  0
 24 26  1  0
 24 27  1  0
 17 28  1  0
 28 29  1  0
 28 30  2  0
 30 31  1  0
 10  4  1  0
 30 12  1  0
M  CHG  1   8   1
M  END
>  <UniqueID>  (11) 
8

>  <SMILES>  (11) 
CCCc1ccc(/C=N\n2cn[nH+]c2)cc1

>  <Energy>  (11) 
71.45943488014272

>  <Genealogy>  (11) 
CCCc1ccc(C=Nn2cn[nH+]c2)cc1 (protonated)
CCCc1ccc(/C=N\n2cn[nH+]c2)cc1 (cis-trans isomerization)
CCCc1ccc(/C=N\n2cn[nH+]c2)cc1 (3D coordinates assigned)
CCCc1ccc(/C=N\n2cn[nH+]c2)cc1 (optimized conformer: 71.45943488014272 kcal/mol)

>  <smiles>  (11) 
CCCc1ccc(C=Nn2cnnc2)cc1

>  <score_type>  (11) 
oracle

>  <origin>  (11) 
adg

>  <m_score__min__energy>  (11) 
-6.6799999999999997

>  <m_primary>  (11) 
energy

$$$$
11:0
     RDKit          3D

 29 31  0  0  0  0  0  0  0  0999 V2000
   -2.2900   24.2490  -29.3280 C   0  0  0  0  0  0  0  0  0  0  0  0
   -3.2020   24.9150  -30.1940 O   0  0  0  0  0  0  0  0  0  0  0  0
   -4.5490   24.5550  -30.3580 C   0  0  0  0  0  0  0  0  0  0  0  0
   -5.6060   25.3730  -29.9080 C   0  0  0  0  0  0  0  0  0  0  0  0
   -6.9360   24.9790  -30.0930 C   0  0  0  0  0  0  0  0  0  0  0  0
   -7.2300   23.7680  -30.7250 C   0  0  0  0  0  0  0  0  0  0  0  0
   -6.1930   22.9470  -31.1740 C   0  0  0  0  0  0  0  0  0  0  0  0
   -6.4630   21.7670  -31.7900 N   0  0  0  0  0  0  0  0  0  0  0  0
   -5.4720   20.9460  -32.2340 C   0  0  0  0  0  0  0  0  0  0  0  0
   -5.8290   19.6670  -32.9040 C   0  0  0  0  0  0  0  0  0  0  0  0
   -5.1160   19.1970  -34.0220 C   0  0  0  0  0  0  0  0  0  0  0  0
   -5.4790   17.9860  -34.6160 C   0  0  0  0  0  0  0  0  0  0  0  0
   -6.5130   17.2620  -34.1140 N   0  0  0  0  0  0  0  0  0  0  0  0
   -7.2170   17.6830  -33.0310 C   0  0  0  0  0  0  0  0  0  0  0  0
   -6.8870   18.8870  -32.4050 C   0  0  0  0  0  0  0  0  0  0  0  0
   -4.1350   21.3470  -32.0580 C   0  0  0  0  0  0  0  0  0  0  0  0
   -3.8610   22.5280  -31.4440 N   0  0  0  0  0  0  0  0  0  0  0  0
   -4.8520   23.3400  -30.9920 C   0  0  0  0  0  0  0  0  0  0  0  0
   -2.5647   24.4496  -28.2819 H   0  0  0  0  0  0  0  0  0  0  0  0
   -2.3299   23.1660  -29.5164 H   0  0  0  0  0  0  0  0  0  0  0  0
   -1.2705   24.6166  -29.5164 H   0  0  0  0  0  0  0  0  0  0  0  0
   -5.3835   26.3273  -29.4082 H   0  0  0  0  0  0  0  0  0  0  0  0
   -7.7531   25.6251  -29.7395 H   0  0  0  0  0  0  0  0  0  0  0  0
   -8.2766   23.4616  -30.8687 H   0  0  0  0  0  0  0  0  0  0  0  0
   -4.2761   19.7808  -34.4267 H   0  0  0  0  0  0  0  0  0  0  0  0
   -4.9261   17.6176  -35.4927 H   0  0  0  0  0  0  0  0  0  0  0  0
   -8.0486   17.0743  -32.6464 H   0  0  0  0  0  0  0  0  0  0  0  0
   -7.4531   19.2241  -31.5242 H   0  0  0  0  0  0  0  0  0  0  0  0
   -3.3148   20.7073  -32.4159 H   0  0  0  0  0  0  0  0  0  0  0  0
  1  2  1  0
  2  3  1  0
  3  4  2  0
  4  5  1  0
  5  6  2  0
  6  7  1  0
  7  8  2  0
  8  9  1  0
  9 10  1  0
 10 11  2  0
 11 12  1  0
 12 13  2  0
 13 14  1  0
 14 15  2  0
  9 16  2  0
 16 17  1  0
 17 18  2  0
 18  3  1  0
 18  7  1  0
 15 10  1  0
  1 19  1  0
  1 20  1  0
  1 21  1  0
  4 22  1  0
  5 23  1  0
  6 24  1  0
 11 25  1  0
 12 26  1  0
 14 27  1  0
 15 28  1  0
 16 29  1  0
M  END
>  <UniqueID>  (12) 
9

>  <SMILES>  (12) 
COc1cccc2nc(-c3ccncc3)cnc12

>  <Energy>  (12) 
40.02556505880261

>  <Genealogy>  (12) 
COc1cccc2nc(-c3ccncc3)cnc12 (3D coordinates assigned)
COc1cccc2nc(-c3ccncc3)cnc12 (optimized conformer: 40.02556505880261 kcal/mol)

>  <smiles>  (12) 
COc1cccc2nc(-c3ccncc3)cnc12

>  <score_type>  (12) 
oracle

>  <origin>  (12) 
adg

>  <m_score__min__energy>  (12) 
-7.1799999999999997

>  <m_primary>  (12) 
energy

$$$$
12:0
     RDKit          3D

 35 36  0  0  0  0  0  0  0  0999 V2000
   -2.8050   24.5030  -29.2980 C   0  0  0  0  0  0  0  0  0  0  0  0
   -3.6900   24.9330  -30.3260 O   0  0  0  0  0  0  0  0  0  0  0  0
   -4.8070   24.2310  -30.8160 C   0  0  0  0  0  0  0  0  0  0  0  0
   -6.0660   24.7220  -30.4500 C   0  0  0  0  0  0  0  0  0  0  0  0
   -7.2340   24.1010  -30.8870 C   0  0  0  0  0  0  0  0  0  0  0  0
   -7.1670   22.9730  -31.7120 C   0  0  0  0  0  0  0  0  0  0  0  0
   -8.4300   22.2820  -32.1520 C   0  0  0  0  0  0  0  0  0  0  0  0
   -8.3100   20.8000  -31.9320 C   0  0  0  0  0  0  0  0  0  0  0  0
   -8.4260   20.3580  -30.7950 O   0  0  0  0  0  0  0  0  0  0  0  0
   -8.0870   19.9080  -33.0550 N   0  0  0  0  0  0  0  0  0  0  0  0
   -6.6840   19.8360  -33.4880 C   0  0  0  0  0  0  0  0  0  0  0  0
   -6.5640   18.3720  -33.0940 C   0  0  0  0  0  0  0  0  0  0  0  0
   -8.0190   18.4920  -32.6670 C   0  0  0  0  0  0  0  0  0  0  0  0
   -5.9140   22.4610  -32.0780 C   0  0  0  0  0  0  0  0  0  0  0  0
   -4.7240   23.0790  -31.6410 C   0  0  0  0  0  0  0  0  0  0  0  0
   -3.4690   22.5720  -32.0130 O   0  0  0  0  0  0  0  0  0  0  0  0
   -3.2590   21.5060  -32.9340 C   0  0  0  0  0  0  0  0  0  0  0  0
   -3.2508   24.7196  -28.3160 H   0  0  0  0  0  0  0  0  0  0  0  0
   -2.6325   23.4207  -29.3917 H   0  0  0  0  0  0  0  0  0  0  0  0
   -1.8475   25.0363  -29.3917 H   0  0  0  0  0  0  0  0  0  0  0  0
   -6.1340   25.6121  -29.8073 H   0  0  0  0  0  0  0  0  0  0  0  0
   -8.2130   24.4992  -30.5821 H   0  0  0  0  0  0  0  0  0  0  0  0
   -9.2788   22.6690  -31.5691 H   0  0  0  0  0  0  0  0  0  0  0  0
   -8.5927   22.4756  -33.2225 H   0  0  0  0  0  0  0  0  0  0  0  0
   -8.7410   20.0600  -33.8590 H   0  0  0  0  0  0  0  0  0  0  0  0
   -6.5478   20.0129  -34.5651 H   0  0  0  0  0  0  0  0  0  0  0  0
   -5.9624   20.5587  -33.0794 H   0  0  0  0  0  0  0  0  0  0  0  0
   -6.3782   17.6784  -33.9273 H   0  0  0  0  0  0  0  0  0  0  0  0
   -5.7755   17.9980  -32.4243 H   0  0  0  0  0  0  0  0  0  0  0  0
   -8.6994   17.8466  -33.2418 H   0  0  0  0  0  0  0  0  0  0  0  0
   -8.2990   18.2061  -31.6424 H   0  0  0  0  0  0  0  0  0  0  0  0
   -5.8585   21.5655  -32.7144 H   0  0  0  0  0  0  0  0  0  0  0  0
   -3.0753   20.5736  -32.3800 H   0  0  0  0  0  0  0  0  0  0  0  0
   -4.1510   21.3870  -33.5666 H   0  0  0  0  0  0  0  0  0  0  0  0
   -2.3885   21.7342  -33.5666 H   0  0  0  0  0  0  0  0  0  0  0  0
  1  2  1  0
  2  3  1  0
  3  4  2  0
  4  5  1  0
  5  6  2  0
  6  7  1  0
  7  8  1  0
  8  9  2  0
  8 10  1  0
 10 11  1  0
 11 12  1  0
 12 13  1  0
  6 14  1  0
 14 15  2  0
 15 16  1  0
 16 17  1  0
 15  3  1  0
 13 10  1  0
  1 18  1  0
  1 19  1  0
  1 20  1  0
  4 21  1  0
  5 22  1  0
  7 23  1  0
  7 24  1  0
 10 25  1  0
 11 26  1  0
 11 27  1  0
 12 28  1  0
 12 29  1  0
 13 30  1  0
 13 31  1  0
 14 32  1  0
 17 33  1  0
 17 34  1  0
 17 35  1  0
M  CHG  1  10   1
M  END
>  <UniqueID>  (13) 
10

>  <SMILES>  (13) 
COc1ccc(CC(=O)[NH+]2CCC2)cc1OC

>  <Energy>  (13) 
106.18431853628131

>  <Genealogy>  (13) 
COc1ccc(CC(=O)[NH+]2CCC2)cc1OC (protonated)
COc1ccc(CC(=O)[NH+]2CCC2)cc1OC (3D coordinates assigned)
COc1ccc(CC(=O)[NH+]2CCC2)cc1OC (nonaromatic ring conformer: 106.18431853628131 kcal/mol)

>  <smiles>  (13) 
COc1ccc(CC(=O)N2CCC2)cc1OC

>  <score_type>  (13) 
oracle

>  <origin>  (13) 
adg

>  <m_score__min__energy>  (13) 
-6.0899999999999999

>  <m_primary>  (13) 
energy

$$$$
13:0
     RDKit          3D

 53 56  0  0  0  0  0  0  0  0999 V2000
   -8.6850   23.0160  -31.9550 C   0  0  0  0  0  0  0  0  0  0  0  0
   -9.0820   21.6340  -31.4470 C   0  0  0  0  0  0  0  0  0  0  0  0
   -7.9880   20.7390  -31.5170 O   0  0  0  0  0  0  0  0  0  0  0  0
   -8.4130   19.4060  -31.7410 C   0  0  0  0  0  0  0  0  0  0  0  0
   -7.2540   18.4310  -31.5210 C   0  0  0  0  0  0  0  0  0  0  0  0
   -6.7850   17.8840  -32.7910 N   0  0  0  0  0  0  0  0  0  0  0  0
   -6.9220   16.6220  -33.1590 N   0  0  0  0  0  0  0  0  0  0  0  0
   -6.4190   16.4780  -34.3760 N   0  0  0  0  0  0  0  0  0  0  0  0
   -5.9560   17.6400  -34.8170 N   0  0  0  0  0  0  0  0  0  0  0  0
   -6.2020   18.5170  -33.8270 C   0  0  0  0  0  0  0  0  0  0  0  0
   -5.7880   19.9620  -33.8620 C   0  0  0  0  0  0  0  0  0  0  0  0
   -4.5160   20.1690  -33.1410 N   0  0  0  0  0  0  0  0  0  0  0  0
   -3.6470   18.9850  -33.2500 C   0  0  0  0  0  0  0  0  0  0  0  0
   -2.4500   19.1270  -32.2990 C   0  0  0  0  0  0  0  0  0  0  0  0
   -2.0120   20.5290  -32.1200 N   0  0  0  0  0  0  0  0  0  0  0  0
   -2.1760   21.0860  -30.7600 C   0  0  0  0  0  0  0  0  0  0  0  0
   -3.3420   22.0370  -30.6270 C   0  0  0  0  0  0  0  0  0  0  0  0
   -4.6640   21.5380  -30.4870 C   0  0  0  0  0  0  0  0  0  0  0  0
   -5.7500   22.4200  -30.3400 C   0  0  0  0  0  0  0  0  0  0  0  0
   -5.4830   23.7850  -30.3430 C   0  0  0  0  0  0  0  0  0  0  0  0
   -4.2230   24.2700  -30.4640 C   0  0  0  0  0  0  0  0  0  0  0  0
   -3.1190   23.4330  -30.5960 C   0  0  0  0  0  0  0  0  0  0  0  0
   -4.2550   25.6510  -30.4300 O   0  0  0  0  0  0  0  0  0  0  0  0
   -5.6230   26.0580  -30.2850 C   0  0  0  0  0  0  0  0  0  0  0  0
   -6.3720   24.8360  -30.2330 O   0  0  0  0  0  0  0  0  0  0  0  0
   -2.3430   21.4450  -33.2300 C   0  0  0  0  0  0  0  0  0  0  0  0
   -3.8160   21.3490  -33.6910 C   0  0  0  0  0  0  0  0  0  0  0  0
   -8.4942   23.6803  -31.0993 H   0  0  0  0  0  0  0  0  0  0  0  0
   -7.7740   22.9343  -32.5661 H   0  0  0  0  0  0  0  0  0  0  0  0
   -9.5005   23.4302  -32.5661 H   0  0  0  0  0  0  0  0  0  0  0  0
   -9.4145   21.7159  -30.4017 H   0  0  0  0  0  0  0  0  0  0  0  0
   -9.8952   21.2466  -32.0785 H   0  0  0  0  0  0  0  0  0  0  0  0
   -9.2278   19.1635  -31.0430 H   0  0  0  0  0  0  0  0  0  0  0  0
   -8.7640   19.3137  -32.7794 H   0  0  0  0  0  0  0  0  0  0  0  0
   -6.4253   18.9617  -31.0295 H   0  0  0  0  0  0  0  0  0  0  0  0
   -7.6072   17.6019  -30.8903 H   0  0  0  0  0  0  0  0  0  0  0  0
   -5.6621   20.2742  -34.9092 H   0  0  0  0  0  0  0  0  0  0  0  0
   -6.5691   20.5609  -33.3708 H   0  0  0  0  0  0  0  0  0  0  0  0
   -4.2208   18.0854  -32.9826 H   0  0  0  0  0  0  0  0  0  0  0  0
   -3.2805   18.8982  -34.2835 H   0  0  0  0  0  0  0  0  0  0  0  0
   -2.7335   18.7210  -31.3168 H   0  0  0  0  0  0  0  0  0  0  0  0
   -1.6095   18.5761  -32.7463 H   0  0  0  0  0  0  0  0  0  0  0  0
   -2.3274   20.2516  -30.0595 H   0  0  0  0  0  0  0  0  0  0  0  0
   -1.2657   21.6623  -30.5380 H   0  0  0  0  0  0  0  0  0  0  0  0
   -4.8405   20.4523  -30.4935 H   0  0  0  0  0  0  0  0  0  0  0  0
   -6.7769   22.0424  -30.2264 H   0  0  0  0  0  0  0  0  0  0  0  0
   -2.1023   23.8455  -30.6740 H   0  0  0  0  0  0  0  0  0  0  0  0
   -5.7585   26.6339  -29.3577 H   0  0  0  0  0  0  0  0  0  0  0  0
   -5.9499   26.7074  -31.1105 H   0  0  0  0  0  0  0  0  0  0  0  0
   -2.1479   22.4762  -32.9004 H   0  0  0  0  0  0  0  0  0  0  0  0
   -1.7165   21.1550  -34.0864 H   0  0  0  0  0  0  0  0  0  0  0  0
   -4.3459   22.2555  -33.3634 H   0  0  0  0  0  0  0  0  0  0  0  0
   -3.8128   21.2495  -34.7865 H   0  0  0  0  0  0  0  0  0  0  0  0
  1  2  1  0
  2  3  1  0
  3  4  1  0
  4  5  1  0
  5  6  1  0
  6  7  1  0
  7  8  2  0
  8  9  1  0
  9 10  2  0
 10 11  1  0
 11 12  1  0
 12 13  1  0
 13 14  1  0
 14 15  1  0
 15 16  1  0
 16 17  1  0
 17 18  2  0
 18 19  1  0
 19 20  2  0
 20 21  1  0
 21 22  2  0
 21 23  1  0
 23 24  1  0
 24 25  1  0
 15 26  1  0
 26 27  1  0
 10  6  1  0
 27 12  1  0
 22 17  1  0
 25 20  1  0
  1 28  1  0
  1 29  1  0
  1 30  1  0
  2 31  1  0
  2 32  1  0
  4 33  1  0
  4 34  1  0
  5 35  1  0
  5 36  1  0
 11 37  1  0
 11 38  1  0
 13 39  1  0
 13 40  1  0
 14 41  1  0
 14 42  1  0
 16 43  1  0
 16 44  1  0
 18 45  1  0
 19 46  1  0
 22 47  1  0
 24 48  1  0
 24 49  1  0
 26 50  1  0
 26 51  1  0
 27 52  1  0
 27 53  1  0
M  END
>  <UniqueID>  (14) 
11

>  <SMILES>  (14) 
CCOCCn1nnnc1CN1CCN(Cc2ccc3c(c2)OCO3)CC1

>  <Energy>  (14) 
132.40535419844483

>  <Genealogy>  (14) 
CCOCCn1nnnc1CN1CCN(Cc2ccc3c(c2)OCO3)CC1 (3D coordinates assigned)
CCOCCn1nnnc1CN1CCN(Cc2ccc3c(c2)OCO3)CC1 (nonaromatic ring conformer: 132.40535419844483 kcal/mol)

>  <smiles>  (14) 
CCOCCn1nnnc1CN1CCN(Cc2ccc3c(c2)OCO3)CC1

>  <score_type>  (14) 
oracle

>  <origin>  (14) 
adg

>  <m_score__min__energy>  (14) 
-8.3200000000000003

>  <m_primary>  (14) 
energy

$$$$
14:0
     RDKit          3D

 49 52  0  0  0  0  0  0  0  0999 V2000
   -2.0174   20.2018  -32.3864 H   0  0  0  0  0  0  0  0  0  0  0  0
   -1.2610   20.1890  -33.1850 C   0  0  0  0  0  0  0  0  0  0  0  0
   -0.8710   21.3560  -33.7640 N   0  0  0  0  0  0  0  0  0  0  0  0
    0.0560   21.3880  -34.7550 C   0  0  0  0  0  0  0  0  0  0  0  0
    0.4250   22.5710  -35.3070 N   0  0  0  0  0  0  0  0  0  0  0  0
    1.3470   22.6240  -36.3100 C   0  0  0  0  0  0  0  0  0  0  0  0
    1.7200   23.7590  -36.8260 N   0  0  0  0  0  0  0  0  0  0  0  0
    1.3250   25.0740  -36.3980 C   0  0  0  0  0  0  0  0  0  0  0  0
    2.2450   25.9880  -35.8550 C   0  0  0  0  0  0  0  0  0  0  0  0
    3.3071   25.7132  -35.7743 H   0  0  0  0  0  0  0  0  0  0  0  0
    1.8160   27.2450  -35.4170 C   0  0  0  0  0  0  0  0  0  0  0  0
    2.5462   27.9590  -35.0083 H   0  0  0  0  0  0  0  0  0  0  0  0
    0.4590   27.6030  -35.4950 C   0  0  0  0  0  0  0  0  0  0  0  0
    0.0100   28.9340  -35.0320 C   0  0  0  0  0  0  0  0  0  0  0  0
    0.4810   29.9840  -35.5450 O   0  0  0  0  0  0  0  0  0  0  0  0
   -0.9390   29.0450  -34.0210 O   0  0  0  0  0  0  0  0  0  0  0  0
   -0.4610   26.6730  -36.0100 C   0  0  0  0  0  0  0  0  0  0  0  0
   -1.5275   26.9357  -36.0702 H   0  0  0  0  0  0  0  0  0  0  0  0
   -0.0300   25.4170  -36.4460 C   0  0  0  0  0  0  0  0  0  0  0  0
   -0.7627   24.6921  -36.8302 H   0  0  0  0  0  0  0  0  0  0  0  0
    1.9230   21.4740  -36.7540 N   0  0  0  0  0  0  0  0  0  0  0  0
    1.5860   20.2660  -36.2330 C   0  0  0  0  0  0  0  0  0  0  0  0
    2.0597   19.3489  -36.6132 H   0  0  0  0  0  0  0  0  0  0  0  0
    0.6350   20.1930  -35.2120 C   0  0  0  0  0  0  0  0  0  0  0  0
    0.2480   18.9790  -34.6340 C   0  0  0  0  0  0  0  0  0  0  0  0
    0.6887   18.0356  -34.9887 H   0  0  0  0  0  0  0  0  0  0  0  0
   -0.7040   18.9650  -33.6000 C   0  0  0  0  0  0  0  0  0  0  0  0
   -1.1180   17.6800  -32.9880 C   0  0  0  0  0  0  0  0  0  0  0  0
   -0.7970   17.4350  -31.7920 O   0  0  0  0  0  0  0  0  0  0  0  0
   -1.8930   16.7190  -33.7250 N   0  0  0  0  0  0  0  0  0  0  0  0
   -2.2780   16.9680  -34.6630 H   0  0  0  0  0  0  0  0  0  0  0  0
   -2.2510   15.4150  -33.1710 C   0  0  0  0  0  0  0  0  0  0  0  0
   -2.1413   15.4428  -32.0768 H   0  0  0  0  0  0  0  0  0  0  0  0
   -1.5851   14.6499  -33.5966 H   0  0  0  0  0  0  0  0  0  0  0  0
   -3.6750   15.0740  -33.5190 C   0  0  0  0  0  0  0  0  0  0  0  0
   -4.6120   16.0880  -33.7740 C   0  0  0  0  0  0  0  0  0  0  0  0
   -4.3092   17.1432  -33.7044 H   0  0  0  0  0  0  0  0  0  0  0  0
   -5.9280   15.7630  -34.1160 C   0  0  0  0  0  0  0  0  0  0  0  0
   -6.6565   16.5638  -34.3110 H   0  0  0  0  0  0  0  0  0  0  0  0
   -6.3250   14.4170  -34.2120 C   0  0  0  0  0  0  0  0  0  0  0  0
   -7.6330   14.0390  -34.5520 O   0  0  0  0  0  0  0  0  0  0  0  0
   -7.9560   12.9800  -35.4480 C   0  0  0  0  0  0  0  0  0  0  0  0
   -8.2295   12.0833  -34.8725 H   0  0  0  0  0  0  0  0  0  0  0  0
   -8.8031   13.2814  -36.0818 H   0  0  0  0  0  0  0  0  0  0  0  0
   -7.0849   12.7574  -36.0818 H   0  0  0  0  0  0  0  0  0  0  0  0
   -5.3870   13.4090  -33.9600 C   0  0  0  0  0  0  0  0  0  0  0  0
   -5.6884   12.3535  -34.0316 H   0  0  0  0  0  0  0  0  0  0  0  0
   -4.0700   13.7320  -33.6180 C   0  0  0  0  0  0  0  0  0  0  0  0
   -3.3414   12.9306  -33.4260 H   0  0  0  0  0  0  0  0  0  0  0  0
  1  2  1  0
  2  3  2  0
  3  4  1  0
  4  5  2  0
  5  6  1  0
  6  7  2  0
  7  8  1  0
  8  9  2  0
  9 10  1  0
  9 11  1  0
 11 12  1  0
 11 13  2  0
 13 14  1  0
 14 15  2  0
 14 16  1  0
 13 17  1  0
 17 18  1  0
 17 19  2  0
 19 20  1  0
  6 21  1  0
 21 22  1  0
 22 23  1  0
 22 24  2  0
 24 25  1  0
 25 26  1  0
 25 27  2  0
 27 28  1  0
 28 29  2  0
 28 30  1  0
 30 31  1  0
 30 32  1  0
 32 33  1  0
 32 34  1  0
 32 35  1  0
 35 36  2  0
 36 37  1  0
 36 38  1  0
 38 39  1  0
 38 40  2  0
 40 41  1  0
 41 42  1  0
 42 43  1  0
 42 44  1  0
 42 45  1  0
 40 46  1  0
 46 47  1  0
 46 48  2  0
 48 49  1  0
 27  2  1  0
 48 35  1  0
 24  4  1  0
 19  8  1  0
M  CHG  2  16  -1  21  -1
M  END
>  <UniqueID>  (15) 
12

>  <SMILES>  (15) 
COc1ccc(CNC(=O)c2cnc3n/c(=N\c4ccc(C(=O)[O-])cc4)[n-]cc3c2)cc1

>  <Energy>  (15) 
64.61265772923953

>  <Genealogy>  (15) 
COc1ccc(CNC(=O)c2cnc3nc(=Nc4ccc(C(=O)[O-])cc4)[n-]cc3c2)cc1 (protonated)
COc1ccc(CNC(=O)c2cnc3n/c(=N\c4ccc(C(=O)[O-])cc4)[n-]cc3c2)cc1 (cis-trans isomerization)
COc1ccc(CNC(=O)c2cnc3n/c(=N\c4ccc(C(=O)[O-])cc4)[n-]cc3c2)cc1 (3D coordinates assigned)
COc1ccc(CNC(=O)c2cnc3n/c(=N\c4ccc(C(=O)[O-])cc4)[n-]cc3c2)cc1 (optimized conformer: 64.61265772923953 kcal/mol)

>  <smiles>  (15) 
COc1ccc(CNC(=O)c2cnc3nc(=Nc4ccc(C(=O)O)cc4)[nH]cc3c2)cc1

>  <score_type>  (15) 
oracle

>  <origin>  (15) 
adg

>  <m_score__min__energy>  (15) 
-9.7200000000000006

>  <m_primary>  (15) 
energy

$$$$
15:0
     RDKit          3D

 25 27  0  0  0  0  0  0  0  0999 V2000
   -7.3456   24.5043  -31.1020 H   0  0  0  0  0  0  0  0  0  0  0  0
   -6.3770   24.0020  -31.2420 C   0  0  0  0  0  0  0  0  0  0  0  0
   -5.1840   24.7160  -30.8730 C   0  0  0  0  0  0  0  0  0  0  0  0
   -4.2230   25.2960  -30.5880 N   0  0  0  0  0  0  0  0  0  0  0  0
   -6.3770   22.7590  -31.7470 C   0  0  0  0  0  0  0  0  0  0  0  0
   -7.5690   21.9110  -31.9150 C   0  0  0  0  0  0  0  0  0  0  0  0
   -8.9090   22.1750  -31.6090 C   0  0  0  0  0  0  0  0  0  0  0  0
   -9.2070   23.1395  -31.1721 H   0  0  0  0  0  0  0  0  0  0  0  0
   -9.8650   21.1790  -31.8730 C   0  0  0  0  0  0  0  0  0  0  0  0
  -10.9245   21.3640  -31.6421 H   0  0  0  0  0  0  0  0  0  0  0  0
   -9.4760   19.9460  -32.4310 C   0  0  0  0  0  0  0  0  0  0  0  0
  -10.2335   19.1744  -32.6332 H   0  0  0  0  0  0  0  0  0  0  0  0
   -8.1270   19.6950  -32.7310 C   0  0  0  0  0  0  0  0  0  0  0  0
   -7.8142   18.7343  -33.1660 H   0  0  0  0  0  0  0  0  0  0  0  0
   -7.1940   20.6980  -32.4620 C   0  0  0  0  0  0  0  0  0  0  0  0
   -5.7530   20.7100  -32.6700 C   0  0  0  0  0  0  0  0  0  0  0  0
   -4.9290   19.7150  -33.1960 C   0  0  0  0  0  0  0  0  0  0  0  0
   -5.3468   18.7522  -33.5255 H   0  0  0  0  0  0  0  0  0  0  0  0
   -3.5530   19.9740  -33.2940 C   0  0  0  0  0  0  0  0  0  0  0  0
   -2.4790   18.7510  -33.9490 Cl  0  0  0  0  0  0  0  0  0  0  0  0
   -3.0310   21.2110  -32.8690 C   0  0  0  0  0  0  0  0  0  0  0  0
   -1.9510   21.4038  -32.9495 H   0  0  0  0  0  0  0  0  0  0  0  0
   -3.8780   22.2010  -32.3430 C   0  0  0  0  0  0  0  0  0  0  0  0
   -3.4717   23.1679  -32.0113 H   0  0  0  0  0  0  0  0  0  0  0  0
   -5.2510   21.9330  -32.2490 C   0  0  0  0  0  0  0  0  0  0  0  0
  1  2  1  0
  2  3  1  0
  3  4  3  0
  2  5  2  0
  5  6  1  0
  6  7  2  0
  7  8  1  0
  7  9  1  0
  9 10  1  0
  9 11  2  0
 11 12  1  0
 11 13  1  0
 13 14  1  0
 13 15  2  0
 15 16  1  0
 16 17  2  0
 17 18  1  0
 17 19  1  0
 19 20  1  0
 19 21  2  0
 21 22  1  0
 21 23  1  0
 23 24  1  0
 23 25  2  0
 25  5  1  0
 15  6  1  0
 25 16  1  0
M  END
>  <UniqueID>  (16) 
13

>  <SMILES>  (16) 
N#C/C=C1/c2ccccc2-c2cc(Cl)ccc21

>  <Energy>  (16) 
61.43977789837534

>  <Genealogy>  (16) 
N#C/C=C1/c2ccccc2-c2cc(Cl)ccc21 (cis-trans isomerization)
N#C/C=C1/c2ccccc2-c2cc(Cl)ccc21 (3D coordinates assigned)
N#C/C=C1/c2ccccc2-c2cc(Cl)ccc21 (nonaromatic ring conformer: 61.43977789837534 kcal/mol)

>  <smiles>  (16) 
N#CC=C1c2ccccc2-c2cc(Cl)ccc21

>  <score_type>  (16) 
oracle

>  <origin>  (16) 
adg

>  <m_score__min__energy>  (16) 
-8.25

>  <m_primary>  (16) 
energy

$$$$
16:0
     RDKit          3D

 80 82  0  0  0  0  0  0  0  0999 V2000
    0.2880   17.9420  -31.3970 C   0  0  0  0  0  0  0  0  0  0  0  0
    0.6160   17.0580  -32.5940 C   0  0  0  0  0  0  0  0  0  0  0  0
   -0.4590   16.0800  -32.7980 N   0  0  0  0  0  0  0  0  0  0  0  0
   -0.2530   14.8310  -32.0430 C   0  0  0  0  0  0  0  0  0  0  0  0
   -1.4960   13.9130  -31.9730 C   0  0  0  0  0  0  0  0  0  0  0  0
   -2.1830   13.6560  -33.3350 C   0  0  0  0  0  0  0  0  0  0  0  0
   -2.7040   14.8900  -33.9550 N   0  0  0  0  0  0  0  0  0  0  0  0
   -3.8570   15.4390  -33.2230 C   0  0  0  0  0  0  0  0  0  0  0  0
   -3.7440   16.9660  -33.1370 C   0  0  0  0  0  0  0  0  0  0  0  0
   -2.6270   17.4550  -33.9570 N   0  0  0  0  0  0  0  0  0  0  0  0
   -2.3460   18.8360  -33.6380 C   0  0  0  0  0  0  0  0  0  0  0  0
   -3.2700   19.5850  -32.8860 C   0  0  0  0  0  0  0  0  0  0  0  0
   -3.0400   20.9420  -32.5990 C   0  0  0  0  0  0  0  0  0  0  0  0
   -3.9990   21.7030  -31.8400 N   0  0  0  0  0  0  0  0  0  0  0  0
   -3.6630   22.1790  -30.4920 C   0  0  0  0  0  0  0  0  0  0  0  0
   -4.6510   23.2560  -30.0320 C   0  0  0  0  0  0  0  0  0  0  0  0
   -4.9860   24.1240  -31.1750 N   0  0  0  0  0  0  0  0  0  0  0  0
   -5.7170   25.3150  -30.7180 C   0  0  0  0  0  0  0  0  0  0  0  0
   -5.7740   23.4000  -32.2000 C   0  0  0  0  0  0  0  0  0  0  0  0
   -5.3580   21.9210  -32.3530 C   0  0  0  0  0  0  0  0  0  0  0  0
   -1.8600   21.5510  -33.0570 C   0  0  0  0  0  0  0  0  0  0  0  0
   -0.9400   20.8250  -33.8170 C   0  0  0  0  0  0  0  0  0  0  0  0
    0.1890   21.4220  -34.2830 N   0  0  0  0  0  0  0  0  0  0  0  0
    1.0850   20.7380  -35.0420 C   0  0  0  0  0  0  0  0  0  0  0  0
    0.8430   19.3940  -35.3590 C   0  0  0  0  0  0  0  0  0  0  0  0
    1.8020   18.6040  -36.2020 C   0  0  0  0  0  0  0  0  0  0  0  0
    1.5080   17.1550  -36.1200 N   0  0  0  0  0  0  0  0  0  0  0  0
    2.7280   16.3230  -35.9270 C   0  0  0  0  0  0  0  0  0  0  0  0
    2.5390   15.0570  -35.0620 C   0  0  0  0  0  0  0  0  0  0  0  0
    1.2020   14.9270  -34.6700 O   0  0  0  0  0  0  0  0  0  0  0  0
    0.6350   16.7170  -37.2320 C   0  0  0  0  0  0  0  0  0  0  0  0
   -0.5330   15.8560  -36.7320 C   0  0  0  0  0  0  0  0  0  0  0  0
   -0.9990   16.3410  -35.5030 O   0  0  0  0  0  0  0  0  0  0  0  0
   -0.2830   18.7960  -34.8870 N   0  0  0  0  0  0  0  0  0  0  0  0
   -1.1820   19.4700  -34.1210 C   0  0  0  0  0  0  0  0  0  0  0  0
    0.4925   17.3909  -30.4672 H   0  0  0  0  0  0  0  0  0  0  0  0
    0.9094   18.8491  -31.4298 H   0  0  0  0  0  0  0  0  0  0  0  0
   -0.7747   18.2242  -31.4298 H   0  0  0  0  0  0  0  0  0  0  0  0
    0.7165   17.6833  -33.4934 H   0  0  0  0  0  0  0  0  0  0  0  0
    1.5603   16.5263  -32.4054 H   0  0  0  0  0  0  0  0  0  0  0  0
   -0.5610   15.8790  -33.8170 H   0  0  0  0  0  0  0  0  0  0  0  0
    0.5624   14.2697  -32.5227 H   0  0  0  0  0  0  0  0  0  0  0  0
   -0.0215   15.1246  -31.0085 H   0  0  0  0  0  0  0  0  0  0  0  0
   -1.1838   12.9435  -31.5576 H   0  0  0  0  0  0  0  0  0  0  0  0
   -2.2336   14.4336  -31.3446 H   0  0  0  0  0  0  0  0  0  0  0  0
   -1.4501   13.2019  -34.0181 H   0  0  0  0  0  0  0  0  0  0  0  0
   -3.0392   12.9897  -33.1534 H   0  0  0  0  0  0  0  0  0  0  0  0
   -1.9530   15.6180  -34.0100 H   0  0  0  0  0  0  0  0  0  0  0  0
   -4.7845   15.1714  -33.7504 H   0  0  0  0  0  0  0  0  0  0  0  0
   -3.8723   15.0199  -32.2061 H   0  0  0  0  0  0  0  0  0  0  0  0
   -4.6802   17.4175  -33.4972 H   0  0  0  0  0  0  0  0  0  0  0  0
   -3.5609   17.2469  -32.0894 H   0  0  0  0  0  0  0  0  0  0  0  0
   -2.8570   17.3610  -34.9760 H   0  0  0  0  0  0  0  0  0  0  0  0
   -1.7780   16.8690  -33.7720 H   0  0  0  0  0  0  0  0  0  0  0  0
   -4.1864   19.1013  -32.5170 H   0  0  0  0  0  0  0  0  0  0  0  0
   -3.7007   21.3322  -29.7909 H   0  0  0  0  0  0  0  0  0  0  0  0
   -2.6529   22.6140  -30.5138 H   0  0  0  0  0  0  0  0  0  0  0  0
   -5.5660   22.7781  -29.6519 H   0  0  0  0  0  0  0  0  0  0  0  0
   -4.1966   23.8575  -29.2310 H   0  0  0  0  0  0  0  0  0  0  0  0
   -5.7307   25.3373  -29.6183 H   0  0  0  0  0  0  0  0  0  0  0  0
   -5.2182   26.2192  -31.0969 H   0  0  0  0  0  0  0  0  0  0  0  0
   -6.7491   25.2796  -31.0969 H   0  0  0  0  0  0  0  0  0  0  0  0
   -6.8359   23.4370  -31.9155 H   0  0  0  0  0  0  0  0  0  0  0  0
   -5.5879   23.8939  -33.1651 H   0  0  0  0  0  0  0  0  0  0  0  0
   -6.0610   21.2891  -31.7904 H   0  0  0  0  0  0  0  0  0  0  0  0
   -5.3766   21.6594  -33.4213 H   0  0  0  0  0  0  0  0  0  0  0  0
   -1.6594   22.6053  -32.8159 H   0  0  0  0  0  0  0  0  0  0  0  0
    1.9956   21.2364  -35.4058 H   0  0  0  0  0  0  0  0  0  0  0  0
    1.7146   18.9305  -37.2488 H   0  0  0  0  0  0  0  0  0  0  0  0
    2.8224   18.7771  -35.8293 H   0  0  0  0  0  0  0  0  0  0  0  0
    3.0826   16.0060  -36.9189 H   0  0  0  0  0  0  0  0  0  0  0  0
    3.4432   16.9571  -35.3825 H   0  0  0  0  0  0  0  0  0  0  0  0
    2.8328   14.1723  -35.6459 H   0  0  0  0  0  0  0  0  0  0  0  0
    3.1668   15.1432  -34.1629 H   0  0  0  0  0  0  0  0  0  0  0  0
    0.8650   15.8500  -34.5320 H   0  0  0  0  0  0  0  0  0  0  0  0
    0.2311   17.6056  -37.7393 H   0  0  0  0  0  0  0  0  0  0  0  0
    1.2382   16.1089  -37.9222 H   0  0  0  0  0  0  0  0  0  0  0  0
   -1.3494   15.8878  -37.4685 H   0  0  0  0  0  0  0  0  0  0  0  0
   -0.1859   14.8204  -36.6013 H   0  0  0  0  0  0  0  0  0  0  0  0
   -0.1970   16.6120  -34.9830 H   0  0  0  0  0  0  0  0  0  0  0  0
  1  2  1  0
  2  3  1  0
  3  4  1  0
  4  5  1  0
  5  6  1  0
  6  7  1  0
  7  8  1  0
  8  9  1  0
  9 10  1  0
 10 11  1  0
 11 12  2  0
 12 13  1  0
 13 14  1  0
 14 15  1  0
 15 16  1  0
 16 17  1  0
 17 18  1  0
 17 19  1  0
 19 20  1  0
 13 21  2  0
 21 22  1  0
 22 23  2  0
 23 24  1  0
 24 25  2  0
 25 26  1  0
 26 27  1  0
 27 28  1  0
 28 29  1  0
 29 30  1  0
 27 31  1  0
 31 32  1  0
 32 33  1  0
 25 34  1  0
 34 35  2  0
 35 11  1  0
 20 14  1  0
 35 22  1  0
  1 36  1  0
  1 37  1  0
  1 38  1  0
  2 39  1  0
  2 40  1  0
  3 41  1  0
  4 42  1  0
  4 43  1  0
  5 44  1  0
  5 45  1  0
  6 46  1  0
  6 47  1  0
  7 48  1  0
  8 49  1  0
  8 50  1  0
  9 51  1  0
  9 52  1  0
 10 53  1  0
 10 54  1  0
 12 55  1  0
 15 56  1  0
 15 57  1  0
 16 58  1  0
 16 59  1  0
 18 60  1  0
 18 61  1  0
 18 62  1  0
 19 63  1  0
 19 64  1  0
 20 65  1  0
 20 66  1  0
 21 67  1  0
 24 68  1  0
 26 69  1  0
 26 70  1  0
 28 71  1  0
 28 72  1  0
 29 73  1  0
 29 74  1  0
 30 75  1  0
 31 76  1  0
 31 77  1  0
 32 78  1  0
 32 79  1  0
 33 80  1  0
M  CHG  1  10   1
M  END
>  <UniqueID>  (17) 
14

>  <SMILES>  (17) 
CCNCCCNCC[NH2+]c1cc(N2CCN(C)CC2)cc2ncc(CN(CCO)CCO)nc12

>  <Energy>  (17) 
93.86921993176517

>  <Genealogy>  (17) 
CCNCCCNCC[NH2+]c1cc(N2CCN(C)CC2)cc2ncc(CN(CCO)CCO)nc12 (protonated)
CCNCCCNCC[NH2+]c1cc(N2CCN(C)CC2)cc2ncc(CN(CCO)CCO)nc12 (3D coordinates assigned)
CCNCCCNCC[NH2+]c1cc(N2CCN(C)CC2)cc2ncc(CN(CCO)CCO)nc12 (nonaromatic ring conformer: 93.86921993176517 kcal/mol)

>  <smiles>  (17) 
CCNCCCNCCNc1cc(N2CCN(C)CC2)cc2ncc(CN(CCO)CCO)nc12

>  <score_type>  (17) 
oracle

>  <origin>  (17) 
adg

>  <m_score__min__energy>  (17) 
-4

>  <m_primary>  (17) 
energy

$$$$
17:0
     RDKit          3D

 56 59  0  0  0  0  0  0  0  0999 V2000
   -5.2280   25.3000  -30.5360 C   0  0  0  0  0  0  0  0  0  0  0  0
   -3.8390   25.0630  -30.4770 O   0  0  0  0  0  0  0  0  0  0  0  0
   -3.5580   23.9560  -29.6430 C   0  0  0  0  0  0  0  0  0  0  0  0
   -2.3990   23.0630  -30.1870 C   0  0  1  0  0  0  0  0  0  0  0  0
   -1.4570   22.7180  -28.9880 C   0  0  0  0  0  0  0  0  0  0  0  0
   -1.2590   21.3240  -28.8100 O   0  0  0  0  0  0  0  0  0  0  0  0
   -1.0220   20.4990  -29.8980 C   0  0  0  0  0  0  0  0  0  0  0  0
   -0.1320   19.4230  -29.7720 C   0  0  0  0  0  0  0  0  0  0  0  0
    0.4630   19.1890  -28.5230 O   0  0  0  0  0  0  0  0  0  0  0  0
   -0.1460   18.4540  -27.4660 C   0  0  0  0  0  0  0  0  0  0  0  0
    0.1420   18.6260  -30.8950 C   0  0  0  0  0  0  0  0  0  0  0  0
   -0.4660   18.9070  -32.1160 C   0  0  0  0  0  0  0  0  0  0  0  0
   -1.3720   19.9630  -32.2260 C   0  0  0  0  0  0  0  0  0  0  0  0
   -1.6820   20.7730  -31.1070 C   0  0  0  0  0  0  0  0  0  0  0  0
   -2.8360   21.8090  -31.0730 C   0  0  0  0  0  0  0  0  0  0  0  0
   -4.0810   21.1070  -30.4510 C   0  0  0  0  0  0  0  0  0  0  0  0
   -4.5980   19.9290  -31.3030 C   0  0  0  0  0  0  0  0  0  0  0  0
   -4.3070   20.0900  -32.7490 N   0  0  0  0  0  0  0  0  0  0  0  0
   -5.1880   19.2460  -33.5800 C   0  0  0  0  0  0  0  0  0  0  0  0
   -6.5940   19.2700  -33.0370 C   0  0  0  0  0  0  0  0  0  0  0  0
   -7.3510   20.4520  -33.0630 C   0  0  0  0  0  0  0  0  0  0  0  0
   -8.6390   20.4730  -32.5180 C   0  0  0  0  0  0  0  0  0  0  0  0
   -9.1730   19.3180  -31.9370 C   0  0  0  0  0  0  0  0  0  0  0  0
   -8.4210   18.1410  -31.9010 C   0  0  0  0  0  0  0  0  0  0  0  0
   -7.1360   18.1150  -32.4480 C   0  0  0  0  0  0  0  0  0  0  0  0
   -4.3570   21.5000  -33.1690 C   0  0  0  0  0  0  0  0  0  0  0  0
   -3.2040   22.2960  -32.5230 C   0  0  0  0  0  0  0  0  0  0  0  0
   -5.6319   25.3689  -29.5152 H   0  0  0  0  0  0  0  0  0  0  0  0
   -5.4167   26.2433  -31.0694 H   0  0  0  0  0  0  0  0  0  0  0  0
   -5.7188   24.4726  -31.0694 H   0  0  0  0  0  0  0  0  0  0  0  0
   -3.2755   24.3295  -28.6476 H   0  0  0  0  0  0  0  0  0  0  0  0
   -4.4640   23.3333  -29.6052 H   0  0  0  0  0  0  0  0  0  0  0  0
   -1.8446   23.6448  -30.9381 H   0  0  0  0  0  0  0  0  0  0  0  0
   -0.4791   23.1892  -29.1660 H   0  0  0  0  0  0  0  0  0  0  0  0
   -1.9408   23.0965  -28.0755 H   0  0  0  0  0  0  0  0  0  0  0  0
    0.1883   18.8575  -26.4988 H   0  0  0  0  0  0  0  0  0  0  0  0
   -1.2399   18.5415  -27.5414 H   0  0  0  0  0  0  0  0  0  0  0  0
    0.1433   17.3954  -27.5414 H   0  0  0  0  0  0  0  0  0  0  0  0
    0.8379   17.7784  -30.8102 H   0  0  0  0  0  0  0  0  0  0  0  0
   -0.2310   18.2935  -32.9983 H   0  0  0  0  0  0  0  0  0  0  0  0
   -1.8513   20.1685  -33.1945 H   0  0  0  0  0  0  0  0  0  0  0  0
   -3.8079   20.7263  -29.4558 H   0  0  0  0  0  0  0  0  0  0  0  0
   -4.8872   21.8535  -30.3984 H   0  0  0  0  0  0  0  0  0  0  0  0
   -4.1193   19.0038  -30.9497 H   0  0  0  0  0  0  0  0  0  0  0  0
   -5.6915   19.8941  -31.1885 H   0  0  0  0  0  0  0  0  0  0  0  0
   -5.1901   19.6281  -34.6115 H   0  0  0  0  0  0  0  0  0  0  0  0
   -4.8142   18.2116  -33.5639 H   0  0  0  0  0  0  0  0  0  0  0  0
   -6.9304   21.3634  -33.5129 H   0  0  0  0  0  0  0  0  0  0  0  0
   -9.2326   21.3987  -32.5463 H   0  0  0  0  0  0  0  0  0  0  0  0
  -10.1858   19.3364  -31.5081 H   0  0  0  0  0  0  0  0  0  0  0  0
   -8.8412   17.2342  -31.4416 H   0  0  0  0  0  0  0  0  0  0  0  0
   -6.5462   17.1870  -32.4176 H   0  0  0  0  0  0  0  0  0  0  0  0
   -4.2664   21.5553  -34.2639 H   0  0  0  0  0  0  0  0  0  0  0  0
   -5.3146   21.9343  -32.8460 H   0  0  0  0  0  0  0  0  0  0  0  0
   -2.3128   22.1957  -33.1600 H   0  0  0  0  0  0  0  0  0  0  0  0
   -3.5417   23.3393  -32.4364 H   0  0  0  0  0  0  0  0  0  0  0  0
  1  2  1  0
  2  3  1  0
  3  4  1  0
  4  5  1  0
  5  6  1  0
  6  7  1  0
  7  8  2  0
  8  9  1  0
  9 10  1  0
  8 11  1  0
 11 12  2  0
 12 13  1  0
 13 14  2  0
 14 15  1  0
 15 16  1  0
 16 17  1  0
 17 18  1  0
 18 19  1  0
 19 20  1  0
 20 21  2  0
 21 22  1  0
 22 23  2  0
 23 24  1  0
 24 25  2  0
 18 26  1  0
 26 27  1  0
 15  4  1  0
 25 20  1  0
 14  7  1  0
 27 15  1  0
  1 28  1  0
  1 29  1  0
  1 30  1  0
  3 31  1  0
  3 32  1  0
  4 33  1  6
  5 34  1  0
  5 35  1  0
 10 36  1  0
 10 37  1  0
 10 38  1  0
 11 39  1  0
 12 40  1  0
 13 41  1  0
 16 42  1  0
 16 43  1  0
 17 44  1  0
 17 45  1  0
 19 46  1  0
 19 47  1  0
 21 48  1  0
 22 49  1  0
 23 50  1  0
 24 51  1  0
 25 52  1  0
 26 53  1  0
 26 54  1  0
 27 55  1  0
 27 56  1  0
M  END
>  <UniqueID>  (18) 
15

>  <SMILES>  (18) 
COC[C@H]1COc2c(OC)cccc2C12CCN(Cc1ccccc1)CC2

>  <Energy>  (18) 
87.97364965085586

>  <Genealogy>  (18) 
COC[C@H]1COc2c(OC)cccc2C12CCN(Cc1ccccc1)CC2 (chirality)
COC[C@H]1COc2c(OC)cccc2C12CCN(Cc1ccccc1)CC2 (3D coordinates assigned)
COC[C@H]1COc2c(OC)cccc2C12CCN(Cc1ccccc1)CC2 (nonaromatic ring conformer: 87.97364965085586 kcal/mol)

>  <smiles>  (18) 
COCC1COc2c(OC)cccc2C12CCN(Cc1ccccc1)CC2

>  <score_type>  (18) 
oracle

>  <origin>  (18) 
adg

>  <m_score__min__energy>  (18) 
-8.0600000000000005

>  <m_primary>  (18) 
energy

$$$$
18:0
     RDKit          3D

 46 46  0  0  0  0  0  0  0  0999 V2000
   -6.4990   25.7310  -29.3880 C   0  0  0  0  0  0  0  0  0  0  0  0
   -5.5940   25.4990  -30.5960 C   0  0  0  0  0  0  0  0  0  0  0  0
   -5.3380   24.0110  -30.8510 C   0  0  0  0  0  0  0  0  0  0  0  0
   -3.8800   23.7430  -30.8770 N   0  0  0  0  0  0  0  0  0  0  0  0
   -3.2340   24.0310  -29.5760 C   0  0  0  0  0  0  0  0  0  0  0  0
   -3.9670   23.3610  -28.4140 C   0  0  0  0  0  0  0  0  0  0  0  0
   -3.5490   22.4210  -31.4620 C   0  0  0  0  0  0  0  0  0  0  0  0
   -4.3440   22.0870  -32.7410 C   0  0  0  0  0  0  0  0  0  0  0  0
   -3.7520   20.8630  -33.4500 C   0  0  0  0  0  0  0  0  0  0  0  0
   -4.3860   19.6380  -32.9700 N   0  0  0  0  0  0  0  0  0  0  0  0
   -5.5390   19.0650  -33.6030 C   0  0  0  0  0  0  0  0  0  0  0  0
   -6.0840   19.6430  -34.5820 O   0  0  0  0  0  0  0  0  0  0  0  0
   -6.1360   17.8030  -33.0710 C   0  0  0  0  0  0  0  0  0  0  0  0
   -6.5380   18.0230  -31.3070 S   0  0  0  0  0  0  0  0  0  0  0  0
   -7.5290   19.4900  -31.5940 C   0  0  0  0  0  0  0  0  0  0  0  0
   -8.8330   19.3700  -32.0950 C   0  0  0  0  0  0  0  0  0  0  0  0
   -9.6060   20.5130  -32.3170 C   0  0  0  0  0  0  0  0  0  0  0  0
   -9.0800   21.7790  -32.0350 C   0  0  0  0  0  0  0  0  0  0  0  0
   -7.7810   21.9020  -31.5320 C   0  0  0  0  0  0  0  0  0  0  0  0
   -7.0070   20.7580  -31.3090 C   0  0  0  0  0  0  0  0  0  0  0  0
   -5.9216   25.5830  -28.4635 H   0  0  0  0  0  0  0  0  0  0  0  0
   -6.8906   26.7586  -29.4152 H   0  0  0  0  0  0  0  0  0  0  0  0
   -7.3367   25.0186  -29.4152 H   0  0  0  0  0  0  0  0  0  0  0  0
   -6.0730   25.9334  -31.4859 H   0  0  0  0  0  0  0  0  0  0  0  0
   -4.6253   25.9771  -30.3884 H   0  0  0  0  0  0  0  0  0  0  0  0
   -5.8027   23.4190  -30.0488 H   0  0  0  0  0  0  0  0  0  0  0  0
   -5.7732   23.7316  -31.8218 H   0  0  0  0  0  0  0  0  0  0  0  0
   -2.1985   23.6610  -29.6037 H   0  0  0  0  0  0  0  0  0  0  0  0
   -3.2628   25.1188  -29.4149 H   0  0  0  0  0  0  0  0  0  0  0  0
   -3.5609   23.7322  -27.4615 H   0  0  0  0  0  0  0  0  0  0  0  0
   -5.0398   23.5973  -28.4721 H   0  0  0  0  0  0  0  0  0  0  0  0
   -3.8278   22.2714  -28.4721 H   0  0  0  0  0  0  0  0  0  0  0  0
   -2.4768   22.4096  -31.7077 H   0  0  0  0  0  0  0  0  0  0  0  0
   -3.8183   21.6632  -30.7115 H   0  0  0  0  0  0  0  0  0  0  0  0
   -5.3891   21.8759  -32.4705 H   0  0  0  0  0  0  0  0  0  0  0  0
   -4.2899   22.9483  -33.4231 H   0  0  0  0  0  0  0  0  0  0  0  0
   -3.9185   20.9564  -34.5333 H   0  0  0  0  0  0  0  0  0  0  0  0
   -2.6743   20.8138  -33.2350 H   0  0  0  0  0  0  0  0  0  0  0  0
   -4.0140   19.1920  -32.1010 H   0  0  0  0  0  0  0  0  0  0  0  0
   -7.0533   17.5664  -33.6301 H   0  0  0  0  0  0  0  0  0  0  0  0
   -5.4165   16.9787  -33.1847 H   0  0  0  0  0  0  0  0  0  0  0  0
   -9.2481   18.3751  -32.3136 H   0  0  0  0  0  0  0  0  0  0  0  0
  -10.6277   20.4177  -32.7133 H   0  0  0  0  0  0  0  0  0  0  0  0
   -9.6891   22.6782  -32.2092 H   0  0  0  0  0  0  0  0  0  0  0  0
   -7.3680   22.8975  -31.3118 H   0  0  0  0  0  0  0  0  0  0  0  0
   -5.9868   20.8546  -30.9092 H   0  0  0  0  0  0  0  0  0  0  0  0
  1  2  1  0
  2  3  1  0
  3  4  1  0
  4  5  1  0
  5  6  1  0
  4  7  1  0
  7  8  1  0
  8  9  1  0
  9 10  1  0
 10 11  1  0
 11 12  2  0
 11 13  1  0
 13 14  1  0
 14 15  1  0
 15 16  2  0
 16 17  1  0
 17 18  2  0
 18 19  1  0
 19 20  2  0
 20 15  1  0
  1 21  1  0
  1 22  1  0
  1 23  1  0
  2 24  1  0
  2 25  1  0
  3 26  1  0
  3 27  1  0
  5 28  1  0
  5 29  1  0
  6 30  1  0
  6 31  1  0
  6 32  1  0
  7 33  1  0
  7 34  1  0
  8 35  1  0
  8 36  1  0
  9 37  1  0
  9 38  1  0
 10 39  1  0
 13 40  1  0
 13 41  1  0
 16 42  1  0
 17 43  1  0
 18 44  1  0
 19 45  1  0
 20 46  1  0
M  END
>  <UniqueID>  (19) 
16

>  <SMILES>  (19) 
CCCN(CC)CCCNC(=O)CSc1ccccc1

>  <Energy>  (19) 
32.21953453573773

>  <Genealogy>  (19) 
CCCN(CC)CCCNC(=O)CSc1ccccc1 (3D coordinates assigned)
CCCN(CC)CCCNC(=O)CSc1ccccc1 (optimized conformer: 32.21953453573773 kcal/mol)

>  <smiles>  (19) 
CCCN(CC)CCCNC(=O)CSc1ccccc1

>  <score_type>  (19) 
oracle

>  <origin>  (19) 
adg

>  <m_score__min__energy>  (19) 
-7.2599999999999998

>  <m_primary>  (19) 
energy

$$$$
19:0
     RDKit          3D

 36 38  0  0  0  0  0  0  0  0999 V2000
   -9.4640   19.9220  -32.8640 O   0  0  0  0  0  0  0  0  0  0  0  0
   -8.3330   19.9750  -32.3080 C   0  0  0  0  0  0  0  0  0  0  0  0
   -8.0620   21.0060  -31.3420 N   0  0  0  0  0  0  0  0  0  0  0  0
   -8.8880   22.2100  -31.2380 C   0  0  0  0  0  0  0  0  0  0  0  0
   -8.1600   23.4220  -31.8340 C   0  0  0  0  0  0  0  0  0  0  0  0
   -6.9380   23.7790  -31.0350 C   0  0  0  0  0  0  0  0  0  0  0  0
   -6.8260   24.8250  -30.1230 C   0  0  0  0  0  0  0  0  0  0  0  0
   -5.5470   24.9520  -29.7050 N   0  0  0  0  0  0  0  0  0  0  0  0
   -4.8460   24.0060  -30.3560 C   0  0  0  0  0  0  0  0  0  0  0  0
   -3.4700   23.7880  -30.3010 C   0  0  0  0  0  0  0  0  0  0  0  0
   -2.9310   22.7800  -31.1190 C   0  0  0  0  0  0  0  0  0  0  0  0
   -3.7680   22.0200  -31.9670 C   0  0  0  0  0  0  0  0  0  0  0  0
   -3.0140   20.6800  -33.0980 Br  0  0  0  0  0  0  0  0  0  0  0  0
   -5.1540   22.2630  -32.0010 C   0  0  0  0  0  0  0  0  0  0  0  0
   -5.6610   23.2700  -31.1760 C   0  0  0  0  0  0  0  0  0  0  0  0
   -7.2800   19.0150  -32.7170 C   0  0  0  0  0  0  0  0  0  0  0  0
   -6.4930   19.2890  -33.8510 C   0  0  0  0  0  0  0  0  0  0  0  0
   -5.4650   18.4190  -34.2250 C   0  0  0  0  0  0  0  0  0  0  0  0
   -5.2190   17.2630  -33.4820 C   0  0  0  0  0  0  0  0  0  0  0  0
   -6.0040   16.9730  -32.3640 C   0  0  0  0  0  0  0  0  0  0  0  0
   -7.0320   17.8420  -31.9810 C   0  0  0  0  0  0  0  0  0  0  0  0
   -7.1320   21.0370  -30.8680 H   0  0  0  0  0  0  0  0  0  0  0  0
   -9.8293   22.0501  -31.7842 H   0  0  0  0  0  0  0  0  0  0  0  0
   -9.0914   22.4079  -30.1752 H   0  0  0  0  0  0  0  0  0  0  0  0
   -7.8566   23.1853  -32.8645 H   0  0  0  0  0  0  0  0  0  0  0  0
   -8.8473   24.2806  -31.8152 H   0  0  0  0  0  0  0  0  0  0  0  0
   -7.6609   25.4588  -29.7896 H   0  0  0  0  0  0  0  0  0  0  0  0
   -5.1750   25.6660  -29.0410 H   0  0  0  0  0  0  0  0  0  0  0  0
   -2.8267   24.3858  -29.6386 H   0  0  0  0  0  0  0  0  0  0  0  0
   -1.8493   22.5812  -31.0990 H   0  0  0  0  0  0  0  0  0  0  0  0
   -5.8168   21.6787  -32.6562 H   0  0  0  0  0  0  0  0  0  0  0  0
   -6.6880   20.1931  -34.4465 H   0  0  0  0  0  0  0  0  0  0  0  0
   -4.8482   18.6458  -35.1071 H   0  0  0  0  0  0  0  0  0  0  0  0
   -4.4077   16.5813  -33.7769 H   0  0  0  0  0  0  0  0  0  0  0  0
   -5.8138   16.0588  -31.7826 H   0  0  0  0  0  0  0  0  0  0  0  0
   -7.6486   17.6069  -31.1009 H   0  0  0  0  0  0  0  0  0  0  0  0
  1  2  2  0
  2  3  1  0
  3  4  1  0
  4  5  1  0
  5  6  1  0
  6  7  2  0
  7  8  1  0
  8  9  1  0
  9 10  2  0
 10 11  1  0
 11 12  2  0
 12 13  1  0
 12 14  1  0
 14 15  2  0
  2 16  1  0
 16 17  2  0
 17 18  1  0
 18 19  2  0
 19 20  1  0
 20 21  2  0
 15  6  1  0
 21 16  1  0
 15  9  1  0
  3 22  1  0
  4 23  1  0
  4 24  1  0
  5 25  1  0
  5 26  1  0
  7 27  1  0
  8 28  1  0
 10 29  1  0
 11 30  1  0
 14 31  1  0
 17 32  1  0
 18 33  1  0
 19 34  1  0
 20 35  1  0
 21 36  1  0
M  END
>  <UniqueID>  (20) 
17

>  <SMILES>  (20) 
O=C(NCCc1c[nH]c2ccc(Br)cc12)c1ccccc1

>  <Energy>  (20) 
65.18966398134275

>  <Genealogy>  (20) 
O=C(NCCc1c[nH]c2ccc(Br)cc12)c1ccccc1 (3D coordinates assigned)
O=C(NCCc1c[nH]c2ccc(Br)cc12)c1ccccc1 (optimized conformer: 65.18966398134275 kcal/mol)

>  <smiles>  (20) 
O=C(NCCc1c[nH]c2ccc(Br)cc12)c1ccccc1

>  <score_type>  (20) 
oracle

>  <origin>  (20) 
adg

>  <m_score__min__energy>  (20) 
-9

>  <m_primary>  (20) 
energy

$$$$
20:0
     RDKit          3D

 50 53  0  0  0  0  0  0  0  0999 V2000
   -1.5570   24.6050  -27.3430 C   0  0  0  0  0  0  0  0  0  0  0  0
   -2.6320   24.1840  -28.2980 C   0  0  0  0  0  0  0  0  0  0  0  0
   -3.9800   24.5460  -28.0570 C   0  0  0  0  0  0  0  0  0  0  0  0
   -5.0010   24.1260  -28.9290 C   0  0  0  0  0  0  0  0  0  0  0  0
   -4.6490   23.3220  -30.0210 C   0  0  0  0  0  0  0  0  0  0  0  0
   -3.3520   22.9780  -30.2480 C   0  0  0  0  0  0  0  0  0  0  0  0
   -2.3140   23.3760  -29.4100 C   0  0  0  0  0  0  0  0  0  0  0  0
   -3.2530   22.2470  -31.3610 N   0  0  0  0  0  0  0  0  0  0  0  0
   -4.5350   22.1520  -31.8040 C   0  0  0  0  0  0  0  0  0  0  0  0
   -4.7970   21.4020  -33.0820 C   0  0  0  0  0  0  0  0  0  0  0  0
   -4.8310   19.8680  -32.8990 C   0  0  0  0  0  0  0  0  0  0  0  0
   -5.9250   19.1960  -33.6570 N   0  0  0  0  0  0  0  0  0  0  0  0
   -6.0940   17.7920  -33.2470 C   0  0  0  0  0  0  0  0  0  0  0  0
   -7.0690   17.7780  -32.0830 C   0  0  0  0  0  0  0  0  0  0  0  0
   -7.8910   19.0440  -32.2460 C   0  0  0  0  0  0  0  0  0  0  0  0
   -7.2400   19.8100  -33.3940 C   0  0  0  0  0  0  0  0  0  0  0  0
   -5.4410   22.8030  -30.9890 N   0  0  0  0  0  0  0  0  0  0  0  0
   -6.9150   23.0030  -31.0100 C   0  0  0  0  0  0  0  0  0  0  0  0
   -7.6760   21.7770  -30.5090 C   0  0  0  0  0  0  0  0  0  0  0  0
   -9.0960   21.9190  -31.0640 C   0  0  0  0  0  0  0  0  0  0  0  0
   -9.0650   23.0960  -32.0410 C   0  0  0  0  0  0  0  0  0  0  0  0
   -7.5930   23.3290  -32.3340 C   0  0  0  0  0  0  0  0  0  0  0  0
   -1.9094   24.4670  -26.3102 H   0  0  0  0  0  0  0  0  0  0  0  0
   -0.6586   23.9923  -27.5088 H   0  0  0  0  0  0  0  0  0  0  0  0
   -1.3137   25.6649  -27.5088 H   0  0  0  0  0  0  0  0  0  0  0  0
   -4.2308   25.1610  -27.1802 H   0  0  0  0  0  0  0  0  0  0  0  0
   -6.0469   24.4208  -28.7581 H   0  0  0  0  0  0  0  0  0  0  0  0
   -1.2765   23.0695  -29.6090 H   0  0  0  0  0  0  0  0  0  0  0  0
   -5.7683   21.7266  -33.4836 H   0  0  0  0  0  0  0  0  0  0  0  0
   -3.9665   21.6284  -33.7668 H   0  0  0  0  0  0  0  0  0  0  0  0
   -3.8694   19.4566  -33.2398 H   0  0  0  0  0  0  0  0  0  0  0  0
   -5.0161   19.6765  -31.8317 H   0  0  0  0  0  0  0  0  0  0  0  0
   -5.7270   19.2180  -34.6810 H   0  0  0  0  0  0  0  0  0  0  0  0
   -6.4967   17.2012  -34.0829 H   0  0  0  0  0  0  0  0  0  0  0  0
   -5.1294   17.3523  -32.9535 H   0  0  0  0  0  0  0  0  0  0  0  0
   -7.7147   16.8887  -32.1298 H   0  0  0  0  0  0  0  0  0  0  0  0
   -6.5537   17.7413  -31.1119 H   0  0  0  0  0  0  0  0  0  0  0  0
   -8.9339   18.7958  -32.4925 H   0  0  0  0  0  0  0  0  0  0  0  0
   -7.9123   19.6379  -31.3203 H   0  0  0  0  0  0  0  0  0  0  0  0
   -7.8704   19.7439  -34.2930 H   0  0  0  0  0  0  0  0  0  0  0  0
   -7.1227   20.8714  -33.1301 H   0  0  0  0  0  0  0  0  0  0  0  0
   -6.9732   23.8905  -30.3627 H   0  0  0  0  0  0  0  0  0  0  0  0
   -7.2077   20.8548  -30.8835 H   0  0  0  0  0  0  0  0  0  0  0  0
   -7.6723   21.7163  -29.4107 H   0  0  0  0  0  0  0  0  0  0  0  0
   -9.3932   20.9983  -31.5875 H   0  0  0  0  0  0  0  0  0  0  0  0
   -9.8232   22.0912  -30.2568 H   0  0  0  0  0  0  0  0  0  0  0  0
   -9.6076   22.8456  -32.9645 H   0  0  0  0  0  0  0  0  0  0  0  0
   -9.5486   23.9912  -31.6230 H   0  0  0  0  0  0  0  0  0  0  0  0
   -7.2397   22.6601  -33.1326 H   0  0  0  0  0  0  0  0  0  0  0  0
   -7.3809   24.3494  -32.6858 H   0  0  0  0  0  0  0  0  0  0  0  0
  1  2  1  0
  2  3  2  0
  3  4  1  0
  4  5  2  0
  5  6  1  0
  6  7  2  0
  6  8  1  0
  8  9  2  0
  9 10  1  0
 10 11  1  0
 11 12  1  0
 12 13  1  0
 13 14  1  0
 14 15  1  0
 15 16  1  0
  9 17  1  0
 17 18  1  0
 18 19  1  0
 19 20  1  0
 20 21  1  0
 21 22  1  0
  7  2  1  0
 16 12  1  0
 22 18  1  0
 17  5  1  0
  1 23  1  0
  1 24  1  0
  1 25  1  0
  3 26  1  0
  4 27  1  0
  7 28  1  0
 10 29  1  0
 10 30  1  0
 11 31  1  0
 11 32  1  0
 12 33  1  0
 13 34  1  0
 13 35  1  0
 14 36  1  0
 14 37  1  0
 15 38  1  0
 15 39  1  0
 16 40  1  0
 16 41  1  0
 18 42  1  0
 19 43  1  0
 19 44  1  0
 20 45  1  0
 20 46  1  0
 21 47  1  0
 21 48  1  0
 22 49  1  0
 22 50  1  0
M  CHG  1  12   1
M  END
>  <UniqueID>  (21) 
18

>  <SMILES>  (21) 
Cc1ccc2c(c1)nc(CC[NH+]1CCCC1)n2C1CCCC1

>  <Energy>  (21) 
106.55345890647935

>  <Genealogy>  (21) 
Cc1ccc2c(c1)nc(CC[NH+]1CCCC1)n2C1CCCC1 (protonated)
Cc1ccc2c(c1)nc(CC[NH+]1CCCC1)n2C1CCCC1 (3D coordinates assigned)
Cc1ccc2c(c1)nc(CC[NH+]1CCCC1)n2C1CCCC1 (nonaromatic ring conformer: 106.55345890647935 kcal/mol)

>  <smiles>  (21) 
Cc1ccc2c(c1)nc(CCN1CCCC1)n2C1CCCC1

>  <score_type>  (21) 
oracle

>  <origin>  (21) 
adg

>  <m_score__min__energy>  (21) 
-7.4400000000000004

>  <m_primary>  (21) 
energy

$$$$
21:0
     RDKit          3D

 41 43  0  0  0  0  0  0  0  0999 V2000
   -9.1830   20.0410  -32.2990 C   0  0  0  0  0  0  0  0  0  0  0  0
   -7.7990   19.6180  -32.6700 C   0  0  0  0  0  0  0  0  0  0  0  0
   -7.4850   18.2710  -32.8160 C   0  0  0  0  0  0  0  0  0  0  0  0
   -6.1680   17.9080  -33.1260 C   0  0  0  0  0  0  0  0  0  0  0  0
   -5.8490   16.4630  -33.2060 C   0  0  0  0  0  0  0  0  0  0  0  0
   -4.9280   15.8910  -32.3120 C   0  0  0  0  0  0  0  0  0  0  0  0
   -4.6350   14.5250  -32.3820 C   0  0  0  0  0  0  0  0  0  0  0  0
   -5.2650   13.7220  -33.3360 C   0  0  0  0  0  0  0  0  0  0  0  0
   -6.1920   14.2820  -34.2200 C   0  0  0  0  0  0  0  0  0  0  0  0
   -6.4870   15.6470  -34.1540 C   0  0  0  0  0  0  0  0  0  0  0  0
   -5.2130   18.8840  -33.3170 N   0  0  0  0  0  0  0  0  0  0  0  0
   -3.8560   18.5220  -33.7670 C   0  0  0  0  0  0  0  0  0  0  0  0
   -5.5400   20.2000  -33.0830 C   0  0  0  0  0  0  0  0  0  0  0  0
   -4.3190   21.5250  -33.1470 S   0  0  0  0  0  0  0  0  0  0  0  0
   -4.1860   21.7120  -31.3330 C   0  0  0  0  0  0  0  0  0  0  0  0
   -5.0310   22.8630  -30.8410 C   0  0  0  0  0  0  0  0  0  0  0  0
   -6.3700   22.9380  -31.2630 C   0  0  0  0  0  0  0  0  0  0  0  0
   -7.1850   23.9960  -30.8560 C   0  0  0  0  0  0  0  0  0  0  0  0
   -6.6750   24.9900  -30.0210 C   0  0  0  0  0  0  0  0  0  0  0  0
   -5.3490   24.9280  -29.5900 C   0  0  0  0  0  0  0  0  0  0  0  0
   -4.5200   23.8730  -29.9920 C   0  0  0  0  0  0  0  0  0  0  0  0
   -2.7130   23.8780  -29.3440 Br  0  0  0  0  0  0  0  0  0  0  0  0
   -6.8180   20.5450  -32.7820 N   0  0  0  0  0  0  0  0  0  0  0  0
   -9.2764   20.0695  -31.2033 H   0  0  0  0  0  0  0  0  0  0  0  0
   -9.3833   21.0414  -32.7102 H   0  0  0  0  0  0  0  0  0  0  0  0
   -9.9083   19.3235  -32.7102 H   0  0  0  0  0  0  0  0  0  0  0  0
   -8.2604   17.5010  -32.6898 H   0  0  0  0  0  0  0  0  0  0  0  0
   -4.4360   16.5193  -31.5549 H   0  0  0  0  0  0  0  0  0  0  0  0
   -3.9078   14.0826  -31.6852 H   0  0  0  0  0  0  0  0  0  0  0  0
   -5.0315   12.6485  -33.3916 H   0  0  0  0  0  0  0  0  0  0  0  0
   -6.6899   13.6479  -34.9684 H   0  0  0  0  0  0  0  0  0  0  0  0
   -7.2214   16.0832  -34.8471 H   0  0  0  0  0  0  0  0  0  0  0  0
   -3.2129   18.3504  -32.8912 H   0  0  0  0  0  0  0  0  0  0  0  0
   -3.9030   17.6050  -34.3727 H   0  0  0  0  0  0  0  0  0  0  0  0
   -3.4400   19.3406  -34.3727 H   0  0  0  0  0  0  0  0  0  0  0  0
   -4.5269   20.7842  -30.8504 H   0  0  0  0  0  0  0  0  0  0  0  0
   -3.1354   21.9167  -31.0793 H   0  0  0  0  0  0  0  0  0  0  0  0
   -6.7792   22.1561  -31.9197 H   0  0  0  0  0  0  0  0  0  0  0  0
   -8.2305   24.0457  -31.1943 H   0  0  0  0  0  0  0  0  0  0  0  0
   -7.3183   25.8233  -29.7020 H   0  0  0  0  0  0  0  0  0  0  0  0
   -4.9521   25.7133  -28.9299 H   0  0  0  0  0  0  0  0  0  0  0  0
  1  2  1  0
  2  3  2  0
  3  4  1  0
  4  5  1  0
  5  6  2  0
  6  7  1  0
  7  8  2  0
  8  9  1  0
  9 10  2  0
  4 11  2  0
 11 12  1  0
 11 13  1  0
 13 14  1  0
 14 15  1  0
 15 16  1  0
 16 17  2  0
 17 18  1  0
 18 19  2  0
 19 20  1  0
 20 21  2  0
 21 22  1  0
 13 23  2  0
 23  2  1  0
 10  5  1  0
 21 16  1  0
  1 24  1  0
  1 25  1  0
  1 26  1  0
  3 27  1  0
  6 28  1  0
  7 29  1  0
  8 30  1  0
  9 31  1  0
 10 32  1  0
 12 33  1  0
 12 34  1  0
 12 35  1  0
 15 36  1  0
 15 37  1  0
 17 38  1  0
 18 39  1  0
 19 40  1  0
 20 41  1  0
M  CHG  1  11   1
M  END
>  <UniqueID>  (22) 
19

>  <SMILES>  (22) 
Cc1cc(-c2ccccc2)[n+](C)c(SCc2ccccc2Br)n1

>  <Energy>  (22) 
48.42353040273474

>  <Genealogy>  (22) 
Cc1cc(-c2ccccc2)[n+](C)c(SCc2ccccc2Br)n1 (3D coordinates assigned)
Cc1cc(-c2ccccc2)[n+](C)c(SCc2ccccc2Br)n1 (optimized conformer: 48.42353040273474 kcal/mol)

>  <smiles>  (22) 
Cc1cc(-c2ccccc2)[n+](C)c(SCc2ccccc2Br)n1

>  <score_type>  (22) 
oracle

>  <origin>  (22) 
adg

>  <m_score__min__energy>  (22) 
-8.25

>  <m_primary>  (22) 
energy

$$$$
22:0
     RDKit          3D

 52 55  0  0  0  0  0  0  0  0999 V2000
   -1.9830   20.6200  -31.2560 C   0  0  0  0  0  0  0  0  0  0  0  0
   -3.2270   20.9470  -30.6460 O   0  0  0  0  0  0  0  0  0  0  0  0
   -4.4460   21.1050  -31.3260 C   0  0  0  0  0  0  0  0  0  0  0  0
   -4.8420   20.1770  -32.3100 C   0  0  0  0  0  0  0  0  0  0  0  0
   -6.0460   20.3280  -32.9910 C   0  0  0  0  0  0  0  0  0  0  0  0
   -6.8810   21.4030  -32.7090 C   0  0  0  0  0  0  0  0  0  0  0  0
   -6.5190   22.3440  -31.7370 C   0  0  0  0  0  0  0  0  0  0  0  0
   -7.3770   23.4220  -31.4710 C   0  0  0  0  0  0  0  0  0  0  0  0
   -7.0380   24.3700  -30.5100 C   0  0  0  0  0  0  0  0  0  0  0  0
   -5.8450   24.2540  -29.8040 C   0  0  0  0  0  0  0  0  0  0  0  0
   -4.9680   23.1890  -30.0440 C   0  0  0  0  0  0  0  0  0  0  0  0
   -3.7580   23.1360  -29.2750 N   0  0  0  0  0  0  0  0  0  0  0  0
   -2.5220   23.7130  -29.8190 C   0  0  0  0  0  0  0  0  0  0  0  0
   -1.8100   24.6210  -28.7910 C   0  0  0  0  0  0  0  0  0  0  0  0
   -2.2760   24.4170  -27.3980 N   0  0  0  0  0  0  0  0  0  0  0  0
   -1.3070   24.9730  -26.4310 C   0  0  0  0  0  0  0  0  0  0  0  0
   -1.9780   26.0430  -25.5610 C   0  0  0  0  0  0  0  0  0  0  0  0
   -0.9490   26.8100  -24.7750 C   0  0  0  0  0  0  0  0  0  0  0  0
   -0.6040   28.1200  -25.1360 C   0  0  0  0  0  0  0  0  0  0  0  0
    0.3760   28.8060  -24.4180 C   0  0  0  0  0  0  0  0  0  0  0  0
    1.0120   28.1720  -23.3500 C   0  0  0  0  0  0  0  0  0  0  0  0
    0.6790   26.8950  -23.0170 N   0  0  0  0  0  0  0  0  0  0  0  0
   -0.2750   26.2070  -23.7030 C   0  0  0  0  0  0  0  0  0  0  0  0
   -2.5470   22.9910  -27.1380 C   0  0  0  0  0  0  0  0  0  0  0  0
   -3.8000   22.5910  -27.9130 C   0  0  0  0  0  0  0  0  0  0  0  0
   -5.2910   22.2090  -31.0260 C   0  0  0  0  0  0  0  0  0  0  0  0
   -1.2328   20.4228  -30.4761 H   0  0  0  0  0  0  0  0  0  0  0  0
   -2.1058   19.7236  -31.8816 H   0  0  0  0  0  0  0  0  0  0  0  0
   -1.6491   21.4609  -31.8816 H   0  0  0  0  0  0  0  0  0  0  0  0
   -4.1905   19.3218  -32.5428 H   0  0  0  0  0  0  0  0  0  0  0  0
   -6.3383   19.5935  -33.7559 H   0  0  0  0  0  0  0  0  0  0  0  0
   -7.8310   21.5151  -33.2521 H   0  0  0  0  0  0  0  0  0  0  0  0
   -8.3225   23.5183  -32.0249 H   0  0  0  0  0  0  0  0  0  0  0  0
   -7.7151   25.2131  -30.3082 H   0  0  0  0  0  0  0  0  0  0  0  0
   -5.5870   25.0091  -29.0469 H   0  0  0  0  0  0  0  0  0  0  0  0
   -1.8426   22.8957  -30.1026 H   0  0  0  0  0  0  0  0  0  0  0  0
   -2.7876   24.3280  -30.6915 H   0  0  0  0  0  0  0  0  0  0  0  0
   -0.7307   24.4124  -28.8310 H   0  0  0  0  0  0  0  0  0  0  0  0
   -2.0445   25.6612  -29.0613 H   0  0  0  0  0  0  0  0  0  0  0  0
   -0.9323   24.1640  -25.7868 H   0  0  0  0  0  0  0  0  0  0  0  0
   -0.4734   25.4316  -26.9831 H   0  0  0  0  0  0  0  0  0  0  0  0
   -2.5316   26.7396  -26.2078 H   0  0  0  0  0  0  0  0  0  0  0  0
   -2.6644   25.5485  -24.8579 H   0  0  0  0  0  0  0  0  0  0  0  0
   -1.1059   28.6069  -25.9852 H   0  0  0  0  0  0  0  0  0  0  0  0
    0.6448   29.8371  -24.6913 H   0  0  0  0  0  0  0  0  0  0  0  0
    1.7841   28.7054  -22.7760 H   0  0  0  0  0  0  0  0  0  0  0  0
    1.1680   26.4310  -22.2190 H   0  0  0  0  0  0  0  0  0  0  0  0
   -0.5182   25.1736  -23.4151 H   0  0  0  0  0  0  0  0  0  0  0  0
   -1.6932   22.3833  -27.4724 H   0  0  0  0  0  0  0  0  0  0  0  0
   -2.6987   22.8247  -26.0613 H   0  0  0  0  0  0  0  0  0  0  0  0
   -3.8593   21.4938  -27.9639 H   0  0  0  0  0  0  0  0  0  0  0  0
   -4.6825   22.9949  -27.3953 H   0  0  0  0  0  0  0  0  0  0  0  0
  1  2  1  0
  2  3  1  0
  3  4  2  0
  4  5  1  0
  5  6  2  0
  6  7  1  0
  7  8  2  0
  8  9  1  0
  9 10  2  0
 10 11  1  0
 11 12  1  0
 12 13  1  0
 13 14  1  0
 14 15  1  0
 15 16  1  0
 16 17  1  0
 17 18  1  0
 18 19  2  0
 19 20  1  0
 20 21  2  0
 21 22  1  0
 22 23  2  0
 15 24  1  0
 24 25  1  0
 11 26  2  0
 26  3  1  0
 26  7  1  0
 25 12  1  0
 23 18  1  0
  1 27  1  0
  1 28  1  0
  1 29  1  0
  4 30  1  0
  5 31  1  0
  6 32  1  0
  8 33  1  0
  9 34  1  0
 10 35  1  0
 13 36  1  0
 13 37  1  0
 14 38  1  0
 14 39  1  0
 16 40  1  0
 16 41  1  0
 17 42  1  0
 17 43  1  0
 19 44  1  0
 20 45  1  0
 21 46  1  0
 22 47  1  0
 23 48  1  0
 24 49  1  0
 24 50  1  0
 25 51  1  0
 25 52  1  0
M  CHG  1  22   1
M  END
>  <UniqueID>  (23) 
20

>  <SMILES>  (23) 
COc1cccc2cccc(N3CCN(CCc4ccc[nH+]c4)CC3)c12

>  <Energy>  (23) 
70.94742184072807

>  <Genealogy>  (23) 
COc1cccc2cccc(N3CCN(CCc4ccc[nH+]c4)CC3)c12 (protonated)
COc1cccc2cccc(N3CCN(CCc4ccc[nH+]c4)CC3)c12 (3D coordinates assigned)
COc1cccc2cccc(N3CCN(CCc4ccc[nH+]c4)CC3)c12 (nonaromatic ring conformer: 70.94742184072807 kcal/mol)

>  <smiles>  (23) 
COc1cccc2cccc(N3CCN(CCc4cccnc4)CC3)c12

>  <score_type>  (23) 
oracle

>  <origin>  (23) 
adg

>  <m_score__min__energy>  (23) 
-8.4900000000000002

>  <m_primary>  (23) 
energy

$$$$
23:0
     RDKit          3D

 47 49  0  0  0  0  0  0  0  0999 V2000
   -8.2120   21.9820  -30.4820 C   0  0  0  0  0  0  0  0  0  0  0  0
   -7.6430   22.9270  -31.5410 C   0  0  0  0  0  0  0  0  0  0  0  0
   -6.1670   23.2860  -31.2830 C   0  0  0  0  0  0  0  0  0  0  0  0
   -5.2180   22.8860  -32.4250 C   0  0  0  0  0  0  0  0  0  0  0  0
   -4.0160   22.2040  -31.9270 N   0  0  0  0  0  0  0  0  0  0  0  0
   -3.5730   20.9690  -32.2880 C   0  0  0  0  0  0  0  0  0  0  0  0
   -4.3310   19.9580  -33.5660 S   0  0  0  0  0  0  0  0  0  0  0  0
   -5.0880   18.7740  -32.3960 C   0  0  0  0  0  0  0  0  0  0  0  0
   -6.5870   18.8950  -32.3970 C   0  0  0  0  0  0  0  0  0  0  0  0
   -7.2180   19.9130  -33.1330 C   0  0  0  0  0  0  0  0  0  0  0  0
   -8.6080   20.0560  -33.0860 C   0  0  0  0  0  0  0  0  0  0  0  0
   -9.3760   19.1860  -32.3080 C   0  0  0  0  0  0  0  0  0  0  0  0
   -8.7560   18.1710  -31.5740 C   0  0  0  0  0  0  0  0  0  0  0  0
   -7.3650   18.0260  -31.6150 C   0  0  0  0  0  0  0  0  0  0  0  0
   -2.4670   20.5680  -31.6160 N   0  0  0  0  0  0  0  0  0  0  0  0
   -2.2150   21.6140  -30.8080 C   0  0  0  0  0  0  0  0  0  0  0  0
   -3.1280   22.6000  -30.9880 C   0  0  0  0  0  0  0  0  0  0  0  0
   -3.0300   23.7810  -30.2540 C   0  0  0  0  0  0  0  0  0  0  0  0
   -3.8540   24.7200  -30.4270 O   0  0  0  0  0  0  0  0  0  0  0  0
   -2.0040   23.9040  -29.3450 N   0  0  0  0  0  0  0  0  0  0  0  0
   -1.8510   25.1520  -28.5790 C   0  0  0  0  0  0  0  0  0  0  0  0
   -1.0690   22.8920  -29.2070 C   0  0  0  0  0  0  0  0  0  0  0  0
   -0.0900   23.0450  -28.4220 O   0  0  0  0  0  0  0  0  0  0  0  0
   -1.1870   21.7220  -29.9220 N   0  0  0  0  0  0  0  0  0  0  0  0
   -0.1880   20.6510  -29.8000 C   0  0  0  0  0  0  0  0  0  0  0  0
   -7.9780   22.3707  -29.4799 H   0  0  0  0  0  0  0  0  0  0  0  0
   -9.3031   21.9110  -30.6021 H   0  0  0  0  0  0  0  0  0  0  0  0
   -7.7642   20.9845  -30.6021 H   0  0  0  0  0  0  0  0  0  0  0  0
   -7.7207   22.4413  -32.5249 H   0  0  0  0  0  0  0  0  0  0  0  0
   -8.2245   23.8599  -31.5021 H   0  0  0  0  0  0  0  0  0  0  0  0
   -6.0956   24.3742  -31.1389 H   0  0  0  0  0  0  0  0  0  0  0  0
   -5.8521   22.7198  -30.3940 H   0  0  0  0  0  0  0  0  0  0  0  0
   -5.7514   22.2108  -33.1102 H   0  0  0  0  0  0  0  0  0  0  0  0
   -4.8994   23.8043  -32.9400 H   0  0  0  0  0  0  0  0  0  0  0  0
   -4.8100   17.7511  -32.6898 H   0  0  0  0  0  0  0  0  0  0  0  0
   -4.7201   18.9992  -31.3841 H   0  0  0  0  0  0  0  0  0  0  0  0
   -6.6165   20.5989  -33.7476 H   0  0  0  0  0  0  0  0  0  0  0  0
   -9.0977   20.8547  -33.6624 H   0  0  0  0  0  0  0  0  0  0  0  0
  -10.4695   19.3000  -32.2731 H   0  0  0  0  0  0  0  0  0  0  0  0
   -9.3622   17.4855  -30.9635 H   0  0  0  0  0  0  0  0  0  0  0  0
   -6.8794   17.2289  -31.0329 H   0  0  0  0  0  0  0  0  0  0  0  0
   -1.8786   24.9272  -27.5026 H   0  0  0  0  0  0  0  0  0  0  0  0
   -0.8886   25.6213  -28.8311 H   0  0  0  0  0  0  0  0  0  0  0  0
   -2.6715   25.8399  -28.8311 H   0  0  0  0  0  0  0  0  0  0  0  0
    0.0025   20.4468  -28.7360 H   0  0  0  0  0  0  0  0  0  0  0  0
   -0.5662   19.7397  -30.2863 H   0  0  0  0  0  0  0  0  0  0  0  0
    0.7474   20.9649  -30.2863 H   0  0  0  0  0  0  0  0  0  0  0  0
  1  2  1  0
  2  3  1  0
  3  4  1  0
  4  5  1  0
  5  6  1  0
  6  7  1  0
  7  8  1  0
  8  9  1  0
  9 10  2  0
 10 11  1  0
 11 12  2  0
 12 13  1  0
 13 14  2  0
  6 15  2  0
 15 16  1  0
 16 17  2  0
 17 18  1  0
 18 19  2  0
 18 20  1  0
 20 21  1  0
 20 22  1  0
 22 23  2  0
 22 24  1  0
 24 25  1  0
 17  5  1  0
 14  9  1  0
 24 16  1  0
  1 26  1  0
  1 27  1  0
  1 28  1  0
  2 29  1  0
  2 30  1  0
  3 31  1  0
  3 32  1  0
  4 33  1  0
  4 34  1  0
  8 35  1  0
  8 36  1  0
 10 37  1  0
 11 38  1  0
 12 39  1  0
 13 40  1  0
 14 41  1  0
 21 42  1  0
 21 43  1  0
 21 44  1  0
 25 45  1  0
 25 46  1  0
 25 47  1  0
M  END
>  <UniqueID>  (24) 
21

>  <SMILES>  (24) 
CCCCn1c(SCc2ccccc2)nc2c1c(=O)n(C)c(=O)n2C

>  <Energy>  (24) 
83.78973754376996

>  <Genealogy>  (24) 
CCCCn1c(SCc2ccccc2)nc2c1c(=O)n(C)c(=O)n2C (3D coordinates assigned)
CCCCn1c(SCc2ccccc2)nc2c1c(=O)n(C)c(=O)n2C (optimized conformer: 83.78973754376996 kcal/mol)

>  <smiles>  (24) 
CCCCn1c(SCc2ccccc2)nc2c1c(=O)n(C)c(=O)n2C

>  <score_type>  (24) 
oracle

>  <origin>  (24) 
adg

>  <m_score__min__energy>  (24) 
-7.6299999999999999

>  <m_primary>  (24) 
energy

$$$$
24:0
     RDKit          3D

 32 33  0  0  0  0  0  0  0  0999 V2000
   -3.8880   25.2960  -30.6070 O   0  0  0  0  0  0  0  0  0  0  0  0
   -4.5430   24.5740  -29.8080 C   0  0  0  0  0  0  0  0  0  0  0  0
   -5.9740   24.2540  -30.1110 C   0  0  0  0  0  0  0  0  0  0  0  0
   -6.1820   23.8010  -31.8710 S   0  0  0  0  0  0  0  0  0  0  0  0
   -7.8380   23.0340  -31.7230 C   0  0  0  0  0  0  0  0  0  0  0  0
   -7.7740   21.5530  -31.9760 C   0  0  0  0  0  0  0  0  0  0  0  0
   -8.8020   20.7130  -31.5170 C   0  0  0  0  0  0  0  0  0  0  0  0
   -8.7400   19.3350  -31.7430 C   0  0  0  0  0  0  0  0  0  0  0  0
   -7.6530   18.7850  -32.4280 C   0  0  0  0  0  0  0  0  0  0  0  0
   -7.5940   17.4480  -32.6440 F   0  0  0  0  0  0  0  0  0  0  0  0
   -6.6250   19.6140  -32.8890 C   0  0  0  0  0  0  0  0  0  0  0  0
   -6.6840   20.9930  -32.6650 C   0  0  0  0  0  0  0  0  0  0  0  0
   -3.9190   24.0270  -28.6370 N   0  0  0  0  0  0  0  0  0  0  0  0
   -2.6710   24.4960  -28.0960 C   0  0  0  0  0  0  0  0  0  0  0  0
   -2.5570   24.9240  -26.7620 C   0  0  0  0  0  0  0  0  0  0  0  0
   -1.3240   25.3470  -26.2670 C   0  0  0  0  0  0  0  0  0  0  0  0
   -0.2070   25.3280  -27.1050 C   0  0  0  0  0  0  0  0  0  0  0  0
   -0.3250   24.8910  -28.3870 N   0  0  0  0  0  0  0  0  0  0  0  0
   -1.5180   24.4730  -28.8920 C   0  0  0  0  0  0  0  0  0  0  0  0
   -6.2958   23.4112  -29.4816 H   0  0  0  0  0  0  0  0  0  0  0  0
   -6.5854   25.1443  -29.9023 H   0  0  0  0  0  0  0  0  0  0  0  0
   -8.2253   23.2086  -30.7083 H   0  0  0  0  0  0  0  0  0  0  0  0
   -8.5014   23.4881  -32.4738 H   0  0  0  0  0  0  0  0  0  0  0  0
   -9.6595   21.1414  -30.9774 H   0  0  0  0  0  0  0  0  0  0  0  0
   -9.5481   18.6823  -31.3811 H   0  0  0  0  0  0  0  0  0  0  0  0
   -5.7696   19.1808  -33.4281 H   0  0  0  0  0  0  0  0  0  0  0  0
   -5.8743   21.6423  -33.0294 H   0  0  0  0  0  0  0  0  0  0  0  0
   -4.3730   23.2010  -28.1830 H   0  0  0  0  0  0  0  0  0  0  0  0
   -3.4414   24.9252  -26.1079 H   0  0  0  0  0  0  0  0  0  0  0  0
   -1.2320   25.6923  -25.2267 H   0  0  0  0  0  0  0  0  0  0  0  0
    0.7691   25.6669  -26.7275 H   0  0  0  0  0  0  0  0  0  0  0  0
   -1.5772   24.1152  -29.9305 H   0  0  0  0  0  0  0  0  0  0  0  0
  1  2  2  0
  2  3  1  0
  3  4  1  0
  4  5  1  0
  5  6  1  0
  6  7  2  0
  7  8  1  0
  8  9  2  0
  9 10  1  0
  9 11  1  0
 11 12  2  0
  2 13  1  0
 13 14  1  0
 14 15  2  0
 15 16  1  0
 16 17  2  0
 17 18  1  0
 18 19  2  0
 12  6  1  0
 19 14  1  0
  3 20  1  0
  3 21  1  0
  5 22  1  0
  5 23  1  0
  7 24  1  0
  8 25  1  0
 11 26  1  0
 12 27  1  0
 13 28  1  0
 15 29  1  0
 16 30  1  0
 17 31  1  0
 19 32  1  0
M  END
>  <UniqueID>  (25) 
22

>  <SMILES>  (25) 
O=C(CSCc1ccc(F)cc1)Nc1cccnc1

>  <Energy>  (25) 
31.627716152266856

>  <Genealogy>  (25) 
O=C(CSCc1ccc(F)cc1)Nc1cccnc1 (3D coordinates assigned)
O=C(CSCc1ccc(F)cc1)Nc1cccnc1 (optimized conformer: 31.627716152266856 kcal/mol)

>  <smiles>  (25) 
O=C(CSCc1ccc(F)cc1)Nc1cccnc1

>  <score_type>  (25) 
oracle

>  <origin>  (25) 
adg

>  <m_score__min__energy>  (25) 
-7.8099999999999996

>  <m_primary>  (25) 
energy

$$$$
25:0
     RDKit          3D

 49 52  0  0  0  0  0  0  0  0999 V2000
   -1.9830   25.2060  -29.2680 O   0  0  0  0  0  0  0  0  0  0  0  0
   -1.9940   23.9460  -29.3080 C   0  0  0  0  0  0  0  0  0  0  0  0
   -2.7630   23.2690  -30.3780 C   0  0  0  0  0  0  0  0  0  0  0  0
   -2.1010   22.3020  -31.1450 C   0  0  0  0  0  0  0  0  0  0  0  0
   -2.7750   21.5900  -32.1310 C   0  0  0  0  0  0  0  0  0  0  0  0
   -4.1340   21.8200  -32.3860 C   0  0  0  0  0  0  0  0  0  0  0  0
   -4.8180   21.0240  -33.3710 N   0  0  0  0  0  0  0  0  0  0  0  0
   -5.1090   19.6050  -33.1740 C   0  0  0  0  0  0  0  0  0  0  0  0
   -6.5460   19.4280  -32.7670 C   0  0  0  0  0  0  0  0  0  0  0  0
   -6.9430   18.3050  -32.0260 C   0  0  0  0  0  0  0  0  0  0  0  0
   -8.2760   18.1820  -31.6270 C   0  0  0  0  0  0  0  0  0  0  0  0
   -9.1750   19.1510  -31.9440 N   0  0  0  0  0  0  0  0  0  0  0  0
   -8.8140   20.2560  -32.6480 C   0  0  0  0  0  0  0  0  0  0  0  0
   -7.4920   20.4190  -33.0680 C   0  0  0  0  0  0  0  0  0  0  0  0
   -4.8210   22.8110  -31.6420 C   0  0  0  0  0  0  0  0  0  0  0  0
   -6.1730   23.1180  -31.9080 C   0  0  0  0  0  0  0  0  0  0  0  0
   -6.8350   24.1100  -31.1870 C   0  0  0  0  0  0  0  0  0  0  0  0
   -6.1620   24.8260  -30.2010 C   0  0  0  0  0  0  0  0  0  0  0  0
   -4.8220   24.5550  -29.9270 C   0  0  0  0  0  0  0  0  0  0  0  0
   -4.1310   23.5430  -30.6300 C   0  0  0  0  0  0  0  0  0  0  0  0
   -1.3290   23.1930  -28.2740 N   0  0  0  0  0  0  0  0  0  0  0  0
   -1.0880   23.8310  -26.9700 C   0  0  0  0  0  0  0  0  0  0  0  0
   -0.4960   22.8430  -25.9550 C   0  0  0  0  0  0  0  0  0  0  0  0
   -1.2390   21.5030  -26.0230 C   0  0  0  0  0  0  0  0  0  0  0  0
   -1.2000   20.8700  -27.4310 C   0  0  0  0  0  0  0  0  0  0  0  0
   -0.7790   21.8540  -28.5350 C   0  0  0  0  0  0  0  0  0  0  0  0
   -1.0342   22.1032  -30.9651 H   0  0  0  0  0  0  0  0  0  0  0  0
   -2.2336   20.8349  -32.7198 H   0  0  0  0  0  0  0  0  0  0  0  0
   -5.2570   21.5070  -34.1870 H   0  0  0  0  0  0  0  0  0  0  0  0
   -4.9264   19.0616  -34.1128 H   0  0  0  0  0  0  0  0  0  0  0  0
   -4.4571   19.2086  -32.3816 H   0  0  0  0  0  0  0  0  0  0  0  0
   -6.2108   17.5279  -31.7614 H   0  0  0  0  0  0  0  0  0  0  0  0
   -8.5988   17.2994  -31.0553 H   0  0  0  0  0  0  0  0  0  0  0  0
   -9.5646   21.0236  -32.8875 H   0  0  0  0  0  0  0  0  0  0  0  0
   -7.1952   21.3168  -33.6300 H   0  0  0  0  0  0  0  0  0  0  0  0
   -6.7106   22.5674  -32.6941 H   0  0  0  0  0  0  0  0  0  0  0  0
   -7.8924   24.3279  -31.3977 H   0  0  0  0  0  0  0  0  0  0  0  0
   -6.6894   25.6086  -29.6358 H   0  0  0  0  0  0  0  0  0  0  0  0
   -4.2968   25.1359  -29.1545 H   0  0  0  0  0  0  0  0  0  0  0  0
   -0.3851   24.6661  -27.1062 H   0  0  0  0  0  0  0  0  0  0  0  0
   -2.0525   24.1872  -26.5792 H   0  0  0  0  0  0  0  0  0  0  0  0
    0.5675   22.6806  -26.1842 H   0  0  0  0  0  0  0  0  0  0  0  0
   -0.6031   23.2613  -24.9433 H   0  0  0  0  0  0  0  0  0  0  0  0
   -0.7732   20.8059  -25.3109 H   0  0  0  0  0  0  0  0  0  0  0  0
   -2.2932   21.6950  -25.7744 H   0  0  0  0  0  0  0  0  0  0  0  0
   -0.4841   20.0349  -27.4175 H   0  0  0  0  0  0  0  0  0  0  0  0
   -2.2227   20.5394  -27.6653 H   0  0  0  0  0  0  0  0  0  0  0  0
    0.3189   21.9141  -28.5659 H   0  0  0  0  0  0  0  0  0  0  0  0
   -1.1682   21.4929  -29.4984 H   0  0  0  0  0  0  0  0  0  0  0  0
  1  2  2  0
  2  3  1  0
  3  4  2  0
  4  5  1  0
  5  6  2  0
  6  7  1  0
  7  8  1  0
  8  9  1  0
  9 10  2  0
 10 11  1  0
 11 12  2  0
 12 13  1  0
 13 14  2  0
  6 15  1  0
 15 16  2  0
 16 17  1  0
 17 18  2  0
 18 19  1  0
 19 20  2  0
  2 21  1  0
 21 22  1  0
 22 23  1  0
 23 24  1  0
 24 25  1  0
 25 26  1  0
 20  3  1  0
 26 21  1  0
 14  9  1  0
 20 15  1  0
  4 27  1  0
  5 28  1  0
  7 29  1  0
  8 30  1  0
  8 31  1  0
 10 32  1  0
 11 33  1  0
 13 34  1  0
 14 35  1  0
 16 36  1  0
 17 37  1  0
 18 38  1  0
 19 39  1  0
 22 40  1  0
 22 41  1  0
 23 42  1  0
 23 43  1  0
 24 44  1  0
 24 45  1  0
 25 46  1  0
 25 47  1  0
 26 48  1  0
 26 49  1  0
M  END
>  <UniqueID>  (26) 
23

>  <SMILES>  (26) 
O=C(c1ccc(NCc2ccncc2)c2ccccc12)N1CCCCC1

>  <Energy>  (26) 
69.40582104780466

>  <Genealogy>  (26) 
O=C(c1ccc(NCc2ccncc2)c2ccccc12)N1CCCCC1 (3D coordinates assigned)
O=C(c1ccc(NCc2ccncc2)c2ccccc12)N1CCCCC1 (nonaromatic ring conformer: 69.40582104780466 kcal/mol)

>  <smiles>  (26) 
O=C(c1ccc(NCc2ccncc2)c2ccccc12)N1CCCCC1

>  <score_type>  (26) 
oracle

>  <origin>  (26) 
adg

>  <m_score__min__energy>  (26) 
-9.4600000000000009

>  <m_primary>  (26) 
energy

$$$$
26:0
     RDKit          3D

 44 46  0  0  0  0  0  0  0  0999 V2000
   -5.0740   14.9820  -33.7310 C   0  0  0  0  0  0  0  0  0  0  0  0
   -5.6100   16.0600  -34.4880 O   0  0  0  0  0  0  0  0  0  0  0  0
   -6.1950   17.2060  -33.9280 C   0  0  0  0  0  0  0  0  0  0  0  0
   -5.7650   18.5190  -34.2600 C   0  0  0  0  0  0  0  0  0  0  0  0
   -6.3770   19.6440  -33.6810 C   0  0  0  0  0  0  0  0  0  0  0  0
   -7.4010   19.4310  -32.7560 C   0  0  0  0  0  0  0  0  0  0  0  0
   -8.1980   20.3100  -32.0390 C   0  0  0  0  0  0  0  0  0  0  0  0
   -8.1610   21.7860  -32.0170 C   0  0  0  0  0  0  0  0  0  0  0  0
   -9.2050   22.4170  -32.3370 O   0  0  0  0  0  0  0  0  0  0  0  0
   -6.9520   22.5440  -31.6120 C   0  0  0  0  0  0  0  0  0  0  0  0
   -7.0590   23.8250  -31.0570 C   0  0  0  0  0  0  0  0  0  0  0  0
   -5.9160   24.5420  -30.6530 C   0  0  0  0  0  0  0  0  0  0  0  0
   -6.0350   25.8120  -30.0670 O   0  0  0  0  0  0  0  0  0  0  0  0
   -6.4930   26.0610  -28.7400 C   0  0  0  0  0  0  0  0  0  0  0  0
   -4.6340   23.9650  -30.8450 C   0  0  0  0  0  0  0  0  0  0  0  0
   -3.4310   24.5940  -30.4690 O   0  0  0  0  0  0  0  0  0  0  0  0
   -2.5930   24.2360  -29.3750 C   0  0  0  0  0  0  0  0  0  0  0  0
   -4.5240   22.6960  -31.4360 C   0  0  0  0  0  0  0  0  0  0  0  0
   -3.2370   22.1630  -31.6240 O   0  0  0  0  0  0  0  0  0  0  0  0
   -2.9420   21.0240  -32.4260 C   0  0  0  0  0  0  0  0  0  0  0  0
   -5.6800   21.9930  -31.8170 C   0  0  0  0  0  0  0  0  0  0  0  0
   -9.1010   19.5120  -31.3420 C   0  0  0  0  0  0  0  0  0  0  0  0
   -8.8640   18.2040  -31.5870 N   0  0  0  0  0  0  0  0  0  0  0  0
   -7.8320   18.1660  -32.4480 C   0  0  0  0  0  0  0  0  0  0  0  0
   -7.2510   17.0320  -33.0120 C   0  0  0  0  0  0  0  0  0  0  0  0
   -5.1816   15.1984  -32.6579 H   0  0  0  0  0  0  0  0  0  0  0  0
   -5.6171   14.0570  -33.9748 H   0  0  0  0  0  0  0  0  0  0  0  0
   -4.0087   14.8568  -33.9748 H   0  0  0  0  0  0  0  0  0  0  0  0
   -4.9436   18.6566  -34.9785 H   0  0  0  0  0  0  0  0  0  0  0  0
   -6.0586   20.6623  -33.9487 H   0  0  0  0  0  0  0  0  0  0  0  0
   -8.0532   24.2794  -30.9343 H   0  0  0  0  0  0  0  0  0  0  0  0
   -5.7627   25.6640  -28.0195 H   0  0  0  0  0  0  0  0  0  0  0  0
   -6.6058   27.1446  -28.5883 H   0  0  0  0  0  0  0  0  0  0  0  0
   -7.4638   25.5665  -28.5883 H   0  0  0  0  0  0  0  0  0  0  0  0
   -3.1100   24.4569  -28.4295 H   0  0  0  0  0  0  0  0  0  0  0  0
   -2.3636   23.1613  -29.4251 H   0  0  0  0  0  0  0  0  0  0  0  0
   -1.6580   24.8132  -29.4251 H   0  0  0  0  0  0  0  0  0  0  0  0
   -2.7196   20.1652  -31.7756 H   0  0  0  0  0  0  0  0  0  0  0  0
   -3.8087   20.7882  -33.0610 H   0  0  0  0  0  0  0  0  0  0  0  0
   -2.0698   21.2386  -33.0610 H   0  0  0  0  0  0  0  0  0  0  0  0
   -5.5852   21.0001  -32.2809 H   0  0  0  0  0  0  0  0  0  0  0  0
   -9.8961   19.8926  -30.6840 H   0  0  0  0  0  0  0  0  0  0  0  0
   -9.3850   17.3910  -31.1910 H   0  0  0  0  0  0  0  0  0  0  0  0
   -7.6082   16.0255  -32.7484 H   0  0  0  0  0  0  0  0  0  0  0  0
  1  2  1  0
  2  3  1  0
  3  4  2  0
  4  5  1  0
  5  6  2  0
  6  7  1  0
  7  8  1  0
  8  9  2  0
  8 10  1  0
 10 11  2  0
 11 12  1  0
 12 13  1  0
 13 14  1  0
 12 15  2  0
 15 16  1  0
 16 17  1  0
 15 18  1  0
 18 19  1  0
 19 20  1  0
 18 21  2  0
  7 22  2  0
 22 23  1  0
 23 24  1  0
 24 25  2  0
 25  3  1  0
 24  6  1  0
 21 10  1  0
  1 26  1  0
  1 27  1  0
  1 28  1  0
  4 29  1  0
  5 30  1  0
 11 31  1  0
 14 32  1  0
 14 33  1  0
 14 34  1  0
 17 35  1  0
 17 36  1  0
 17 37  1  0
 20 38  1  0
 20 39  1  0
 20 40  1  0
 21 41  1  0
 22 42  1  0
 23 43  1  0
 25 44  1  0
M  END
>  <UniqueID>  (27) 
24

>  <SMILES>  (27) 
COc1ccc2c(C(=O)c3cc(OC)c(OC)c(OC)c3)c[nH]c2c1

>  <Energy>  (27) 
85.13915956094358

>  <Genealogy>  (27) 
COc1ccc2c(C(=O)c3cc(OC)c(OC)c(OC)c3)c[nH]c2c1 (3D coordinates assigned)
COc1ccc2c(C(=O)c3cc(OC)c(OC)c(OC)c3)c[nH]c2c1 (optimized conformer: 85.13915956094358 kcal/mol)

>  <smiles>  (27) 
COc1ccc2c(C(=O)c3cc(OC)c(OC)c(OC)c3)c[nH]c2c1

>  <score_type>  (27) 
oracle

>  <origin>  (27) 
adg

>  <m_score__min__energy>  (27) 
-7.79

>  <m_primary>  (27) 
energy

$$$$
27:0
     RDKit          3D

 45 47  0  0  0  0  0  0  0  0999 V2000
    1.2660   24.5600  -27.4810 C   0  0  0  0  0  0  0  0  0  0  0  0
    0.1160   24.9940  -28.1980 O   0  0  0  0  0  0  0  0  0  0  0  0
   -1.2030   24.8830  -27.7290 C   0  0  0  0  0  0  0  0  0  0  0  0
   -1.6050   25.4280  -26.4940 C   0  0  0  0  0  0  0  0  0  0  0  0
   -2.9260   25.2960  -26.0610 C   0  0  0  0  0  0  0  0  0  0  0  0
   -3.8570   24.6230  -26.8510 C   0  0  0  0  0  0  0  0  0  0  0  0
   -3.4710   24.0780  -28.0780 C   0  0  0  0  0  0  0  0  0  0  0  0
   -2.1400   24.2040  -28.5260 C   0  0  0  0  0  0  0  0  0  0  0  0
   -1.7080   23.6720  -29.7530 O   0  0  0  0  0  0  0  0  0  0  0  0
   -1.3190   22.3140  -29.9690 C   0  0  0  0  0  0  0  0  0  0  0  0
   -1.5710   21.8910  -31.3950 C   0  0  0  0  0  0  0  0  0  0  0  0
   -0.5890   21.5260  -32.0980 O   0  0  0  0  0  0  0  0  0  0  0  0
   -2.9080   21.8320  -31.9410 N   0  0  0  0  0  0  0  0  0  0  0  0
   -4.0310   22.4650  -31.2270 C   0  0  0  0  0  0  0  0  0  0  0  0
   -5.3390   22.3530  -32.0120 C   0  0  0  0  0  0  0  0  0  0  0  0
   -5.5010   20.9790  -32.5050 N   0  0  0  0  0  0  0  0  0  0  0  0
   -6.7460   20.2690  -32.3650 C   0  0  0  0  0  0  0  0  0  0  0  0
   -7.9740   20.9530  -32.3190 C   0  0  0  0  0  0  0  0  0  0  0  0
   -9.1580   20.2300  -32.1620 C   0  0  0  0  0  0  0  0  0  0  0  0
   -9.1140   18.8410  -32.0410 C   0  0  0  0  0  0  0  0  0  0  0  0
   -7.8790   18.1930  -32.0720 C   0  0  0  0  0  0  0  0  0  0  0  0
   -6.7360   18.9120  -32.2260 N   0  0  0  0  0  0  0  0  0  0  0  0
   -4.3950   20.3390  -33.2330 C   0  0  0  0  0  0  0  0  0  0  0  0
   -3.1420   21.2260  -33.2640 C   0  0  0  0  0  0  0  0  0  0  0  0
    1.0734   24.6327  -26.4004 H   0  0  0  0  0  0  0  0  0  0  0  0
    1.4896   23.5156  -27.7442 H   0  0  0  0  0  0  0  0  0  0  0  0
    2.1239   25.1962  -27.7442 H   0  0  0  0  0  0  0  0  0  0  0  0
   -0.8745   25.9604  -25.8672 H   0  0  0  0  0  0  0  0  0  0  0  0
   -3.2326   25.7237  -25.0950 H   0  0  0  0  0  0  0  0  0  0  0  0
   -4.8970   24.5210  -26.5076 H   0  0  0  0  0  0  0  0  0  0  0  0
   -4.2091   23.5479  -28.6978 H   0  0  0  0  0  0  0  0  0  0  0  0
   -0.2464   22.2093  -29.7486 H   0  0  0  0  0  0  0  0  0  0  0  0
   -1.9175   21.6721  -29.3059 H   0  0  0  0  0  0  0  0  0  0  0  0
   -4.1572   21.9706  -30.2525 H   0  0  0  0  0  0  0  0  0  0  0  0
   -3.7980   23.5327  -31.1016 H   0  0  0  0  0  0  0  0  0  0  0  0
   -6.1834   22.6082  -31.3549 H   0  0  0  0  0  0  0  0  0  0  0  0
   -5.3139   23.0469  -32.8652 H   0  0  0  0  0  0  0  0  0  0  0  0
   -8.0014   22.0492  -32.4061 H   0  0  0  0  0  0  0  0  0  0  0  0
  -10.1242   20.7550  -32.1338 H   0  0  0  0  0  0  0  0  0  0  0  0
  -10.0425   18.2632  -31.9225 H   0  0  0  0  0  0  0  0  0  0  0  0
   -7.8302   17.0987  -31.9717 H   0  0  0  0  0  0  0  0  0  0  0  0
   -4.1460   19.3887  -32.7381 H   0  0  0  0  0  0  0  0  0  0  0  0
   -4.7206   20.1719  -34.2703 H   0  0  0  0  0  0  0  0  0  0  0  0
   -2.2713   20.6136  -33.5412 H   0  0  0  0  0  0  0  0  0  0  0  0
   -3.2909   22.0278  -34.0022 H   0  0  0  0  0  0  0  0  0  0  0  0
  1  2  1  0
  2  3  1  0
  3  4  2  0
  4  5  1  0
  5  6  2  0
  6  7  1  0
  7  8  2  0
  8  9  1  0
  9 10  1  0
 10 11  1  0
 11 12  2  0
 11 13  1  0
 13 14  1  0
 14 15  1  0
 15 16  1  0
 16 17  1  0
 17 18  2  0
 18 19  1  0
 19 20  2  0
 20 21  1  0
 21 22  2  0
 16 23  1  0
 23 24  1  0
  8  3  1  0
 24 13  1  0
 22 17  1  0
  1 25  1  0
  1 26  1  0
  1 27  1  0
  4 28  1  0
  5 29  1  0
  6 30  1  0
  7 31  1  0
 10 32  1  0
 10 33  1  0
 14 34  1  0
 14 35  1  0
 15 36  1  0
 15 37  1  0
 18 38  1  0
 19 39  1  0
 20 40  1  0
 21 41  1  0
 23 42  1  0
 23 43  1  0
 24 44  1  0
 24 45  1  0
M  END
>  <UniqueID>  (28) 
25

>  <SMILES>  (28) 
COc1ccccc1OCC(=O)N1CCN(c2ccccn2)CC1

>  <Energy>  (28) 
50.9406847194072

>  <Genealogy>  (28) 
COc1ccccc1OCC(=O)N1CCN(c2ccccn2)CC1 (3D coordinates assigned)
COc1ccccc1OCC(=O)N1CCN(c2ccccn2)CC1 (nonaromatic ring conformer: 50.9406847194072 kcal/mol)

>  <smiles>  (28) 
COc1ccccc1OCC(=O)N1CCN(c2ccccn2)CC1

>  <score_type>  (28) 
oracle

>  <origin>  (28) 
adg

>  <m_score__min__energy>  (28) 
-8.1699999999999999

>  <m_primary>  (28) 
energy

$$$$
28:0
     RDKit          3D

 37 39  0  0  0  0  0  0  0  0999 V2000
   -3.7200   14.3740  -35.3610 C   0  0  0  0  0  0  0  0  0  0  0  0
   -5.1080   14.3040  -34.2520 S   0  0  0  0  0  0  0  0  0  0  0  0
   -6.2790   13.6740  -34.9520 O   0  0  0  0  0  0  0  0  0  0  0  0
   -4.7540   13.4660  -33.0550 O   0  0  0  0  0  0  0  0  0  0  0  0
   -5.5270   15.9340  -33.7370 C   0  0  0  0  0  0  0  0  0  0  0  0
   -4.5340   16.9160  -33.6280 C   0  0  0  0  0  0  0  0  0  0  0  0
   -4.8660   18.2140  -33.2330 C   0  0  0  0  0  0  0  0  0  0  0  0
   -6.2030   18.5580  -32.9480 C   0  0  0  0  0  0  0  0  0  0  0  0
   -6.5820   19.9310  -32.5240 C   0  0  0  0  0  0  0  0  0  0  0  0
   -7.8930   20.4190  -32.5010 C   0  0  0  0  0  0  0  0  0  0  0  0
   -7.8520   22.0060  -31.9470 S   0  0  0  0  0  0  0  0  0  0  0  0
   -6.1790   22.0170  -31.7560 C   0  0  0  0  0  0  0  0  0  0  0  0
   -5.3980   23.1290  -31.2770 N   0  0  0  0  0  0  0  0  0  0  0  0
   -3.9540   22.9760  -31.0570 C   0  0  0  0  0  0  0  0  0  0  0  0
   -3.4440   24.0380  -30.0770 C   0  0  0  0  0  0  0  0  0  0  0  0
   -3.8650   25.3290  -30.4690 O   0  0  0  0  0  0  0  0  0  0  0  0
   -5.2720   25.4150  -30.3650 C   0  0  0  0  0  0  0  0  0  0  0  0
   -5.9490   24.4860  -31.3750 C   0  0  0  0  0  0  0  0  0  0  0  0
   -5.6430   20.8260  -32.1050 N   0  0  0  0  0  0  0  0  0  0  0  0
   -7.1930   17.5630  -33.0620 C   0  0  0  0  0  0  0  0  0  0  0  0
   -6.8580   16.2650  -33.4580 C   0  0  0  0  0  0  0  0  0  0  0  0
   -2.7877   14.4210  -34.7791 H   0  0  0  0  0  0  0  0  0  0  0  0
   -3.7115   13.4751  -35.9950 H   0  0  0  0  0  0  0  0  0  0  0  0
   -3.8020   15.2691  -35.9950 H   0  0  0  0  0  0  0  0  0  0  0  0
   -3.4876   16.6637  -33.8546 H   0  0  0  0  0  0  0  0  0  0  0  0
   -4.0767   18.9749  -33.1435 H   0  0  0  0  0  0  0  0  0  0  0  0
   -8.7944   19.8611  -32.7945 H   0  0  0  0  0  0  0  0  0  0  0  0
   -3.7550   21.9764  -30.6432 H   0  0  0  0  0  0  0  0  0  0  0  0
   -3.4331   23.0997  -32.0179 H   0  0  0  0  0  0  0  0  0  0  0  0
   -3.8373   23.8202  -29.0730 H   0  0  0  0  0  0  0  0  0  0  0  0
   -2.3443   24.0130  -30.0724 H   0  0  0  0  0  0  0  0  0  0  0  0
   -5.5769   25.1260  -29.3484 H   0  0  0  0  0  0  0  0  0  0  0  0
   -5.5787   26.4499  -30.5769 H   0  0  0  0  0  0  0  0  0  0  0  0
   -7.0291   24.4536  -31.1693 H   0  0  0  0  0  0  0  0  0  0  0  0
   -5.7669   24.8709  -32.3892 H   0  0  0  0  0  0  0  0  0  0  0  0
   -8.2411   17.8099  -32.8370 H   0  0  0  0  0  0  0  0  0  0  0  0
   -7.6436   15.5006  -33.5507 H   0  0  0  0  0  0  0  0  0  0  0  0
  1  2  1  0
  2  3  2  0
  2  4  2  0
  2  5  1  0
  5  6  2  0
  6  7  1  0
  7  8  2  0
  8  9  1  0
  9 10  2  0
 10 11  1  0
 11 12  1  0
 12 13  1  0
 13 14  1  0
 14 15  1  0
 15 16  1  0
 16 17  1  0
 17 18  1  0
 12 19  2  0
  8 20  1  0
 20 21  2  0
 21  5  1  0
 19  9  1  0
 18 13  1  0
  1 22  1  0
  1 23  1  0
  1 24  1  0
  6 25  1  0
  7 26  1  0
 10 27  1  0
 14 28  1  0
 14 29  1  0
 15 30  1  0
 15 31  1  0
 17 32  1  0
 17 33  1  0
 18 34  1  0
 18 35  1  0
 20 36  1  0
 21 37  1  0
M  END
>  <UniqueID>  (29) 
26

>  <SMILES>  (29) 
CS(=O)(=O)c1ccc(-c2csc(N3CCOCC3)n2)cc1

>  <Energy>  (29) 
69.09725510059114

>  <Genealogy>  (29) 
CS(=O)(=O)c1ccc(-c2csc(N3CCOCC3)n2)cc1 (3D coordinates assigned)
CS(=O)(=O)c1ccc(-c2csc(N3CCOCC3)n2)cc1 (nonaromatic ring conformer: 69.09725510059114 kcal/mol)

>  <smiles>  (29) 
CS(=O)(=O)c1ccc(-c2csc(N3CCOCC3)n2)cc1

>  <score_type>  (29) 
oracle

>  <origin>  (29) 
adg

>  <m_score__min__energy>  (29) 
-7.8700000000000001

>  <m_primary>  (29) 
energy

$$$$
29:0
     RDKit          3D

 48 50  0  0  0  0  0  0  0  0999 V2000
   -0.3630   24.6180  -27.3990 C   0  0  0  0  0  0  0  0  0  0  0  0
   -1.7210   24.7860  -28.1000 C   0  0  0  0  0  0  0  0  0  0  0  0
   -2.8190   25.0190  -27.0410 C   0  0  0  0  0  0  0  0  0  0  0  0
   -1.6330   25.9140  -28.9370 O   0  0  0  0  0  0  0  0  0  0  0  0
   -2.0400   23.5370  -28.9560 C   0  0  0  0  0  0  0  0  0  0  0  0
   -2.5820   23.9160  -30.2600 N   0  0  0  0  0  0  0  0  0  0  0  0
   -3.8990   24.4340  -30.4810 C   0  0  0  0  0  0  0  0  0  0  0  0
   -4.1010   25.6650  -30.3130 O   0  0  0  0  0  0  0  0  0  0  0  0
   -5.0140   23.5800  -30.9360 C   0  0  0  0  0  0  0  0  0  0  0  0
   -6.2760   23.6600  -30.3300 C   0  0  0  0  0  0  0  0  0  0  0  0
   -7.3280   22.8560  -30.7780 C   0  0  0  0  0  0  0  0  0  0  0  0
   -7.1370   21.9770  -31.8600 C   0  0  0  0  0  0  0  0  0  0  0  0
   -8.1830   21.1170  -32.3360 N   0  0  0  0  0  0  0  0  0  0  0  0
   -8.3060   19.7080  -32.0990 C   0  0  0  0  0  0  0  0  0  0  0  0
   -9.3490   19.2360  -31.5740 O   0  0  0  0  0  0  0  0  0  0  0  0
   -7.2540   18.8250  -32.5110 N   0  0  0  0  0  0  0  0  0  0  0  0
   -6.8330   17.6490  -31.7480 C   0  0  0  0  0  0  0  0  0  0  0  0
   -5.7340   17.0950  -32.5750 C   0  0  0  0  0  0  0  0  0  0  0  0
   -4.9620   15.9600  -32.3230 C   0  0  0  0  0  0  0  0  0  0  0  0
   -3.9630   15.6090  -33.2460 C   0  0  0  0  0  0  0  0  0  0  0  0
   -3.7530   16.3940  -34.4000 C   0  0  0  0  0  0  0  0  0  0  0  0
   -2.7280   16.0290  -35.3410 C   0  0  0  0  0  0  0  0  0  0  0  0
   -1.9020   15.7350  -36.0970 N   0  0  0  0  0  0  0  0  0  0  0  0
   -4.5460   17.5340  -34.6310 C   0  0  0  0  0  0  0  0  0  0  0  0
   -5.5320   17.8610  -33.7000 C   0  0  0  0  0  0  0  0  0  0  0  0
   -6.4750   19.0050  -33.7370 C   0  0  0  0  0  0  0  0  0  0  0  0
   -5.8760   21.8960  -32.4600 C   0  0  0  0  0  0  0  0  0  0  0  0
   -4.8250   22.7020  -32.0140 C   0  0  0  0  0  0  0  0  0  0  0  0
   -0.5084   24.6360  -26.3088 H   0  0  0  0  0  0  0  0  0  0  0  0
    0.0852   23.6576  -27.6933 H   0  0  0  0  0  0  0  0  0  0  0  0
    0.3058   25.4403  -27.6933 H   0  0  0  0  0  0  0  0  0  0  0  0
   -2.3837   24.9266  -26.0350 H   0  0  0  0  0  0  0  0  0  0  0  0
   -3.2416   26.0268  -27.1665 H   0  0  0  0  0  0  0  0  0  0  0  0
   -3.6144   24.2696  -27.1665 H   0  0  0  0  0  0  0  0  0  0  0  0
   -1.9960   25.6660  -29.8280 H   0  0  0  0  0  0  0  0  0  0  0  0
   -1.1164   22.9586  -29.1054 H   0  0  0  0  0  0  0  0  0  0  0  0
   -2.7928   22.9343  -28.4269 H   0  0  0  0  0  0  0  0  0  0  0  0
   -6.4391   24.3597  -29.4970 H   0  0  0  0  0  0  0  0  0  0  0  0
   -8.3088   22.9107  -30.2829 H   0  0  0  0  0  0  0  0  0  0  0  0
   -6.4717   17.9338  -30.7488 H   0  0  0  0  0  0  0  0  0  0  0  0
   -7.6476   16.9315  -31.5702 H   0  0  0  0  0  0  0  0  0  0  0  0
   -5.1321   15.3535  -31.4212 H   0  0  0  0  0  0  0  0  0  0  0  0
   -3.3418   14.7187  -33.0687 H   0  0  0  0  0  0  0  0  0  0  0  0
   -4.3914   18.1537  -35.5266 H   0  0  0  0  0  0  0  0  0  0  0  0
   -5.9353   19.9635  -33.7261 H   0  0  0  0  0  0  0  0  0  0  0  0
   -7.0941   19.0290  -34.6460 H   0  0  0  0  0  0  0  0  0  0  0  0
   -5.7103   21.1925  -33.2892 H   0  0  0  0  0  0  0  0  0  0  0  0
   -3.8449   22.6478  -32.5105 H   0  0  0  0  0  0  0  0  0  0  0  0
  1  2  1  0
  2  3  1  0
  2  4  1  0
  2  5  1  0
  5  6  1  0
  6  7  1  0
  7  8  2  0
  7  9  1  0
  9 10  2  0
 10 11  1  0
 11 12  2  0
 12 13  1  0
 13 14  1  0
 14 15  2  0
 14 16  1  0
 16 17  1  0
 17 18  1  0
 18 19  2  0
 19 20  1  0
 20 21  2  0
 21 22  1  0
 22 23  3  0
 21 24  1  0
 24 25  2  0
 25 26  1  0
 12 27  1  0
 27 28  2  0
 28  9  1  0
 26 16  1  0
 25 18  1  0
  1 29  1  0
  1 30  1  0
  1 31  1  0
  3 32  1  0
  3 33  1  0
  3 34  1  0
  4 35  1  0
  5 36  1  0
  5 37  1  0
 10 38  1  0
 11 39  1  0
 17 40  1  0
 17 41  1  0
 19 42  1  0
 20 43  1  0
 24 44  1  0
 26 45  1  0
 26 46  1  0
 27 47  1  0
 28 48  1  0
M  CHG  2   6  -1  13  -1
M  END
>  <UniqueID>  (30) 
27

>  <SMILES>  (30) 
CC(C)(O)C[N-]C(=O)c1ccc([N-]C(=O)N2Cc3ccc(C#N)cc3C2)cc1

>  <Energy>  (30) 
61.594799737023266

>  <Genealogy>  (30) 
CC(C)(O)C[N-]C(=O)c1ccc([N-]C(=O)N2Cc3ccc(C#N)cc3C2)cc1 (protonated)
CC(C)(O)C[N-]C(=O)c1ccc([N-]C(=O)N2Cc3ccc(C#N)cc3C2)cc1 (3D coordinates assigned)
CC(C)(O)C[N-]C(=O)c1ccc([N-]C(=O)N2Cc3ccc(C#N)cc3C2)cc1 (nonaromatic ring conformer: 61.594799737023266 kcal/mol)

>  <smiles>  (30) 
CC(C)(O)CNC(=O)c1ccc(NC(=O)N2Cc3ccc(C#N)cc3C2)cc1

>  <score_type>  (30) 
oracle

>  <origin>  (30) 
adg

>  <m_score__min__energy>  (30) 
-11.76

>  <m_primary>  (30) 
energy

$$$$
30:0
     RDKit          3D

 36 38  0  0  0  0  0  0  0  0999 V2000
   -8.3923   24.0097  -32.7658 H   0  0  0  0  0  0  0  0  0  0  0  0
   -8.0110   23.3780  -31.9500 C   0  0  0  0  0  0  0  0  0  0  0  0
   -8.7370   22.2980  -31.6140 C   0  0  0  0  0  0  0  0  0  0  0  0
   -9.6731   22.4702  -31.0627 H   0  0  0  0  0  0  0  0  0  0  0  0
   -8.3800   20.8970  -31.9250 C   0  0  0  0  0  0  0  0  0  0  0  0
   -9.0910   19.8160  -31.3680 C   0  0  0  0  0  0  0  0  0  0  0  0
   -9.9444   20.0094  -30.7015 H   0  0  0  0  0  0  0  0  0  0  0  0
   -8.7200   18.4990  -31.6560 C   0  0  0  0  0  0  0  0  0  0  0  0
   -9.2903   17.6603  -31.2302 H   0  0  0  0  0  0  0  0  0  0  0  0
   -7.6230   18.2500  -32.4860 C   0  0  0  0  0  0  0  0  0  0  0  0
   -7.2500   16.9780  -32.7760 N   0  0  0  0  0  0  0  0  0  0  0  0
   -6.1800   16.7140  -33.5760 C   0  0  0  0  0  0  0  0  0  0  0  0
   -5.8190   15.2850  -33.8590 C   0  0  0  0  0  0  0  0  0  0  0  0
   -5.6829   14.7463  -32.9097 H   0  0  0  0  0  0  0  0  0  0  0  0
   -6.6255   14.8107  -34.4374 H   0  0  0  0  0  0  0  0  0  0  0  0
   -4.8840   15.2507  -34.4374 H   0  0  0  0  0  0  0  0  0  0  0  0
   -5.4430   17.7920  -34.1150 C   0  0  0  0  0  0  0  0  0  0  0  0
   -4.2540   17.5740  -35.0030 C   0  0  0  0  0  0  0  0  0  0  0  0
   -3.3594   17.4100  -34.3843 H   0  0  0  0  0  0  0  0  0  0  0  0
   -4.4273   16.6927  -35.6380 H   0  0  0  0  0  0  0  0  0  0  0  0
   -4.1033   18.4595  -35.6380 H   0  0  0  0  0  0  0  0  0  0  0  0
   -5.8220   19.0650  -33.8210 N   0  0  0  0  0  0  0  0  0  0  0  0
   -6.8900   19.3240  -33.0230 C   0  0  0  0  0  0  0  0  0  0  0  0
   -7.2620   20.6410  -32.7340 C   0  0  0  0  0  0  0  0  0  0  0  0
   -6.6768   21.4784  -33.1419 H   0  0  0  0  0  0  0  0  0  0  0  0
   -6.7400   23.7860  -31.3110 C   0  0  0  0  0  0  0  0  0  0  0  0
   -6.6690   24.9060  -30.4600 C   0  0  0  0  0  0  0  0  0  0  0  0
   -7.5778   25.4857  -30.2407 H   0  0  0  0  0  0  0  0  0  0  0  0
   -5.4490   25.2840  -29.8930 C   0  0  0  0  0  0  0  0  0  0  0  0
   -5.4026   26.1503  -29.2167 H   0  0  0  0  0  0  0  0  0  0  0  0
   -4.2880   24.5630  -30.1840 C   0  0  0  0  0  0  0  0  0  0  0  0
   -3.1050   24.9330  -29.6330 F   0  0  0  0  0  0  0  0  0  0  0  0
   -4.3440   23.4680  -31.0510 C   0  0  0  0  0  0  0  0  0  0  0  0
   -3.4280   22.9060  -31.2860 H   0  0  0  0  0  0  0  0  0  0  0  0
   -5.5630   23.0860  -31.6200 C   0  0  0  0  0  0  0  0  0  0  0  0
   -5.5998   22.2327  -32.3132 H   0  0  0  0  0  0  0  0  0  0  0  0
  1  2  1  0
  2  3  2  0
  3  4  1  0
  3  5  1  0
  5  6  2  0
  6  7  1  0
  6  8  1  0
  8  9  1  0
  8 10  2  0
 10 11  1  0
 11 12  2  0
 12 13  1  0
 13 14  1  0
 13 15  1  0
 13 16  1  0
 12 17  1  0
 17 18  1  0
 18 19  1  0
 18 20  1  0
 18 21  1  0
 17 22  2  0
 22 23  1  0
 23 24  2  0
 24 25  1  0
  2 26  1  0
 26 27  2  0
 27 28  1  0
 27 29  1  0
 29 30  1  0
 29 31  2  0
 31 32  1  0
 31 33  1  0
 33 34  1  0
 33 35  2  0
 35 36  1  0
 24  5  1  0
 35 26  1  0
 23 10  1  0
M  END
>  <UniqueID>  (31) 
28

>  <SMILES>  (31) 
Cc1nc2ccc(/C=C\c3ccc(F)cc3)cc2nc1C

>  <Energy>  (31) 
50.37969456339949

>  <Genealogy>  (31) 
Cc1nc2ccc(/C=C\c3ccc(F)cc3)cc2nc1C (cis-trans isomerization)
Cc1nc2ccc(/C=C\c3ccc(F)cc3)cc2nc1C (3D coordinates assigned)
Cc1nc2ccc(/C=C\c3ccc(F)cc3)cc2nc1C (optimized conformer: 50.37969456339949 kcal/mol)

>  <smiles>  (31) 
Cc1nc2ccc(C=Cc3ccc(F)cc3)cc2nc1C

>  <score_type>  (31) 
oracle

>  <origin>  (31) 
adg

>  <m_score__min__energy>  (31) 
-8.9600000000000009

>  <m_primary>  (31) 
energy

$$$$
31:0
     RDKit          3D

 31 32  0  0  0  0  0  0  0  0999 V2000
   -5.2374   22.8158  -32.7326 H   0  0  0  0  0  0  0  0  0  0  0  0
   -6.1960   22.9780  -32.2180 C   0  0  0  0  0  0  0  0  0  0  0  0
   -6.4070   24.1660  -31.6350 C   0  0  0  0  0  0  0  0  0  0  0  0
   -7.2417   24.7868  -31.9926 H   0  0  0  0  0  0  0  0  0  0  0  0
   -5.5900   24.6640  -30.5630 N   0  0  0  0  0  0  0  0  0  0  0  0
   -6.1230   25.6660  -29.6370 C   0  0  0  0  0  0  0  0  0  0  0  0
   -5.9485   25.3380  -28.6016 H   0  0  0  0  0  0  0  0  0  0  0  0
   -5.6174   26.6280  -29.8070 H   0  0  0  0  0  0  0  0  0  0  0  0
   -7.2033   25.7844  -29.8070 H   0  0  0  0  0  0  0  0  0  0  0  0
   -4.4650   23.8450  -30.1180 C   0  0  0  0  0  0  0  0  0  0  0  0
   -4.4380   23.8254  -29.0185 H   0  0  0  0  0  0  0  0  0  0  0  0
   -4.5836   22.8204  -30.5002 H   0  0  0  0  0  0  0  0  0  0  0  0
   -3.5263   24.2726  -30.5002 H   0  0  0  0  0  0  0  0  0  0  0  0
   -7.1770   21.8740  -32.2090 C   0  0  0  0  0  0  0  0  0  0  0  0
   -8.5160   22.1260  -31.8280 C   0  0  0  0  0  0  0  0  0  0  0  0
   -8.8048   23.1350  -31.4987 H   0  0  0  0  0  0  0  0  0  0  0  0
   -9.4850   21.1040  -31.8640 C   0  0  0  0  0  0  0  0  0  0  0  0
  -10.5192   21.3205  -31.5580 H   0  0  0  0  0  0  0  0  0  0  0  0
   -9.1400   19.8140  -32.2870 C   0  0  0  0  0  0  0  0  0  0  0  0
   -9.8893   19.0093  -32.3202 H   0  0  0  0  0  0  0  0  0  0  0  0
   -7.8210   19.5810  -32.6640 C   0  0  0  0  0  0  0  0  0  0  0  0
   -7.2250   18.4150  -33.0900 C   0  0  0  0  0  0  0  0  0  0  0  0
   -7.7042   17.4358  -33.2370 H   0  0  0  0  0  0  0  0  0  0  0  0
   -5.8930   18.7380  -33.2940 C   0  0  0  0  0  0  0  0  0  0  0  0
   -5.1253   18.0319  -33.6432 H   0  0  0  0  0  0  0  0  0  0  0  0
   -5.6650   20.0410  -33.0050 N   0  0  0  0  0  0  0  0  0  0  0  0
   -4.3590   20.6930  -33.0810 C   0  0  0  0  0  0  0  0  0  0  0  0
   -3.9831   20.8806  -32.0644 H   0  0  0  0  0  0  0  0  0  0  0  0
   -3.6543   20.0409  -33.6179 H   0  0  0  0  0  0  0  0  0  0  0  0
   -4.4567   21.6481  -33.6179 H   0  0  0  0  0  0  0  0  0  0  0  0
   -6.8580   20.5650  -32.6310 C   0  0  0  0  0  0  0  0  0  0  0  0
  1  2  1  0
  2  3  2  0
  3  4  1  0
  3  5  1  0
  5  6  1  0
  6  7  1  0
  6  8  1  0
  6  9  1  0
  5 10  1  0
 10 11  1  0
 10 12  1  0
 10 13  1  0
  2 14  1  0
 14 15  2  0
 15 16  1  0
 15 17  1  0
 17 18  1  0
 17 19  2  0
 19 20  1  0
 19 21  1  0
 21 22  1  0
 22 23  1  0
 22 24  2  0
 24 25  1  0
 24 26  1  0
 26 27  1  0
 27 28  1  0
 27 29  1  0
 27 30  1  0
 26 31  1  0
 31 14  1  0
 31 21  2  0
M  END
>  <UniqueID>  (32) 
29

>  <SMILES>  (32) 
CN(C)/C=C\c1cccc2ccn(C)c12

>  <Energy>  (32) 
72.35678378802073

>  <Genealogy>  (32) 
CN(C)/C=C\c1cccc2ccn(C)c12 (cis-trans isomerization)
CN(C)/C=C\c1cccc2ccn(C)c12 (3D coordinates assigned)
CN(C)/C=C\c1cccc2ccn(C)c12 (optimized conformer: 72.35678378802073 kcal/mol)

>  <smiles>  (32) 
CN(C)C=Cc1cccc2ccn(C)c12

>  <score_type>  (32) 
oracle

>  <origin>  (32) 
adg

>  <m_score__min__energy>  (32) 
-6.2000000000000002

>  <m_primary>  (32) 
energy

$$$$
32:0
     RDKit          3D

 70 74  0  0  0  0  0  0  0  0999 V2000
   -7.4380   13.8040  -34.3260 C   0  0  0  0  0  0  0  0  0  0  0  0
   -6.3500   14.6200  -33.9030 O   0  0  0  0  0  0  0  0  0  0  0  0
   -5.1240   14.7250  -34.5760 C   0  0  0  0  0  0  0  0  0  0  0  0
   -4.5580   13.6370  -35.2710 C   0  0  0  0  0  0  0  0  0  0  0  0
   -3.3530   13.7890  -35.9640 C   0  0  0  0  0  0  0  0  0  0  0  0
   -2.6990   15.0210  -35.9670 C   0  0  0  0  0  0  0  0  0  0  0  0
   -3.2430   16.1060  -35.2710 C   0  0  0  0  0  0  0  0  0  0  0  0
   -4.4550   15.9660  -34.5760 C   0  0  0  0  0  0  0  0  0  0  0  0
   -5.0240   17.0950  -33.8960 N   0  0  0  0  0  0  0  0  0  0  0  0
   -5.5950   18.1950  -34.6810 C   0  0  0  0  0  0  0  0  0  0  0  0
   -6.0430   19.3690  -33.7930 C   0  0  0  0  0  0  0  0  0  0  0  0
   -6.7670   18.8950  -32.5990 N   0  0  0  0  0  0  0  0  0  0  0  0
   -7.8430   19.6580  -31.9960 C   0  0  0  0  0  0  0  0  0  0  0  0
   -8.5660   19.1020  -31.1230 O   0  0  0  0  0  0  0  0  0  0  0  0
   -8.0460   21.1430  -32.2750 C   0  0  0  0  0  0  0  0  0  0  0  0
   -6.6930   21.7890  -32.6450 C   0  0  0  0  0  0  0  0  0  0  0  0
   -6.7400   23.3100  -32.4330 C   0  0  0  0  0  0  0  0  0  0  0  0
   -7.0100   23.6790  -31.0230 N   0  0  0  0  0  0  0  0  0  0  0  0
   -5.6190   24.3240  -30.1590 S   0  0  0  0  0  0  0  0  0  0  0  0
   -6.1280   25.3280  -29.1630 O   0  0  0  0  0  0  0  0  0  0  0  0
   -4.7170   25.0650  -31.1060 O   0  0  0  0  0  0  0  0  0  0  0  0
   -4.6650   23.1160  -29.2660 C   0  0  0  0  0  0  0  0  0  0  0  0
   -4.1040   23.2830  -28.0020 C   0  0  0  0  0  0  0  0  0  0  0  0
   -4.2320   24.4710  -27.1010 C   0  0  0  0  0  0  0  0  0  0  0  0
   -3.2110   22.3030  -27.7710 N   0  0  0  0  0  0  0  0  0  0  0  0
   -3.1870   21.5470  -28.8280 O   0  0  0  0  0  0  0  0  0  0  0  0
   -4.0100   21.9810  -29.7520 C   0  0  0  0  0  0  0  0  0  0  0  0
   -4.0860   21.3390  -31.0760 C   0  0  0  0  0  0  0  0  0  0  0  0
   -3.3170   21.7130  -32.0990 C   0  0  0  0  0  0  0  0  0  0  0  0
   -2.4770   20.7840  -32.8740 C   0  0  0  0  0  0  0  0  0  0  0  0
   -2.7070   19.4330  -33.1410 C   0  0  0  0  0  0  0  0  0  0  0  0
   -1.7250   18.8560  -33.9550 C   0  0  0  0  0  0  0  0  0  0  0  0
   -0.7200   19.7390  -34.3300 C   0  0  0  0  0  0  0  0  0  0  0  0
   -1.0560   21.2400  -33.6500 S   0  0  0  0  0  0  0  0  0  0  0  0
   -7.7210   22.6490  -30.2360 C   0  0  0  0  0  0  0  0  0  0  0  0
   -8.7370   21.8860  -31.0970 C   0  0  0  0  0  0  0  0  0  0  0  0
   -6.3200   17.6740  -31.9050 C   0  0  0  0  0  0  0  0  0  0  0  0
   -4.9740   17.1780  -32.4340 C   0  0  0  0  0  0  0  0  0  0  0  0
   -7.9645   13.4091  -33.4446 H   0  0  0  0  0  0  0  0  0  0  0  0
   -8.1338   14.4048  -34.9300 H   0  0  0  0  0  0  0  0  0  0  0  0
   -7.0560   12.9678  -34.9300 H   0  0  0  0  0  0  0  0  0  0  0  0
   -5.0675   12.6621  -35.2682 H   0  0  0  0  0  0  0  0  0  0  0  0
   -2.9204   12.9360  -36.5074 H   0  0  0  0  0  0  0  0  0  0  0  0
   -1.7541   15.1397  -36.5174 H   0  0  0  0  0  0  0  0  0  0  0  0
   -2.7188   17.0731  -35.2683 H   0  0  0  0  0  0  0  0  0  0  0  0
   -4.8354   18.5563  -35.3898 H   0  0  0  0  0  0  0  0  0  0  0  0
   -6.4815   17.8109  -35.2069 H   0  0  0  0  0  0  0  0  0  0  0  0
   -5.1554   19.9342  -33.4724 H   0  0  0  0  0  0  0  0  0  0  0  0
   -6.7215   20.0067  -34.3787 H   0  0  0  0  0  0  0  0  0  0  0  0
   -8.7335   21.2378  -33.1284 H   0  0  0  0  0  0  0  0  0  0  0  0
   -5.9030   21.3605  -32.0107 H   0  0  0  0  0  0  0  0  0  0  0  0
   -6.4834   21.5866  -33.7057 H   0  0  0  0  0  0  0  0  0  0  0  0
   -5.7710   23.7376  -32.7301 H   0  0  0  0  0  0  0  0  0  0  0  0
   -7.5626   23.7074  -33.0457 H   0  0  0  0  0  0  0  0  0  0  0  0
   -4.1965   24.1413  -26.0522 H   0  0  0  0  0  0  0  0  0  0  0  0
   -3.4038   25.1687  -27.2943 H   0  0  0  0  0  0  0  0  0  0  0  0
   -5.1898   24.9763  -27.2943 H   0  0  0  0  0  0  0  0  0  0  0  0
   -4.8046   20.5198  -31.2262 H   0  0  0  0  0  0  0  0  0  0  0  0
   -3.3095   22.7764  -32.3803 H   0  0  0  0  0  0  0  0  0  0  0  0
   -3.5728   18.8778  -32.7510 H   0  0  0  0  0  0  0  0  0  0  0  0
   -1.7470   17.8018  -34.2685 H   0  0  0  0  0  0  0  0  0  0  0  0
    0.1467   19.4977  -34.9630 H   0  0  0  0  0  0  0  0  0  0  0  0
   -6.9863   21.9360  -29.8337 H   0  0  0  0  0  0  0  0  0  0  0  0
   -8.2654   23.1507  -29.4224 H   0  0  0  0  0  0  0  0  0  0  0  0
   -9.2573   21.1497  -30.4668 H   0  0  0  0  0  0  0  0  0  0  0  0
   -9.4461   22.6138  -31.5182 H   0  0  0  0  0  0  0  0  0  0  0  0
   -6.2219   17.8910  -30.8311 H   0  0  0  0  0  0  0  0  0  0  0  0
   -7.0675   16.8871  -32.0839 H   0  0  0  0  0  0  0  0  0  0  0  0
   -4.1812   17.8788  -32.1335 H   0  0  0  0  0  0  0  0  0  0  0  0
   -4.7608   16.1825  -32.0175 H   0  0  0  0  0  0  0  0  0  0  0  0
  1  2  1  0
  2  3  1  0
  3  4  2  0
  4  5  1  0
  5  6  2  0
  6  7  1  0
  7  8  2  0
  8  9  1  0
  9 10  1  0
 10 11  1  0
 11 12  1  0
 12 13  1  0
 13 14  2  0
 13 15  1  0
 15 16  1  0
 16 17  1  0
 17 18  1  0
 18 19  1  0
 19 20  2  0
 19 21  2  0
 19 22  1  0
 22 23  1  0
 23 24  1  0
 23 25  2  0
 25 26  1  0
 26 27  1  0
 27 28  1  0
 28 29  2  3
 29 30  1  0
 30 31  2  0
 31 32  1  0
 32 33  2  0
 33 34  1  0
 18 35  1  0
 35 36  1  0
 12 37  1  0
 37 38  1  0
  8  3  1  0
 38  9  1  0
 36 15  1  0
 27 22  2  0
 34 30  1  0
  1 39  1  0
  1 40  1  0
  1 41  1  0
  4 42  1  0
  5 43  1  0
  6 44  1  0
  7 45  1  0
 10 46  1  0
 10 47  1  0
 11 48  1  0
 11 49  1  0
 15 50  1  0
 16 51  1  0
 16 52  1  0
 17 53  1  0
 17 54  1  0
 24 55  1  0
 24 56  1  0
 24 57  1  0
 28 58  1  0
 29 59  1  0
 31 60  1  0
 32 61  1  0
 33 62  1  0
 35 63  1  0
 35 64  1  0
 36 65  1  0
 36 66  1  0
 37 67  1  0
 37 68  1  0
 38 69  1  0
 38 70  1  0
M  END
>  <UniqueID>  (33) 
30

>  <SMILES>  (33) 
COc1ccccc1N1CCN(C(=O)C2CCN(S(=O)(=O)c3c(C)noc3C=Cc3cccs3)CC2)CC1

>  <Energy>  (33) 
152.32376761480106

>  <Genealogy>  (33) 
COc1ccccc1N1CCN(C(=O)C2CCN(S(=O)(=O)c3c(C)noc3C=Cc3cccs3)CC2)CC1 (3D coordinates assigned)
COc1ccccc1N1CCN(C(=O)C2CCN(S(=O)(=O)c3c(C)noc3C=Cc3cccs3)CC2)CC1 (nonaromatic ring conformer: 152.32376761480106 kcal/mol)

>  <smiles>  (33) 
COc1ccccc1N1CCN(C(=O)C2CCN(S(=O)(=O)c3c(C)noc3C=Cc3cccs3)CC2)CC1

>  <score_type>  (33) 
oracle

>  <origin>  (33) 
adg

>  <m_score__min__energy>  (33) 
-10.76

>  <m_primary>  (33) 
energy

$$$$
33:0
     RDKit          3D

 37 39  0  0  1  0  0  0  0  0999 V2000
   -5.6780   19.2680  -33.8000 C   0  0  0  0  0  0  0  0  0  0  0  0
   -5.3140   20.5170  -33.1070 C   0  0  0  0  0  0  0  0  0  0  0  0
   -3.9830   20.9260  -33.2630 C   0  0  0  0  0  0  0  0  0  0  0  0
   -3.4880   22.0080  -32.6380 N   0  0  0  0  0  0  0  0  0  0  0  0
   -4.3540   22.6700  -31.8540 C   0  0  0  0  0  0  0  0  0  0  0  0
   -3.8740   23.7210  -31.2430 N   0  0  0  0  0  0  0  0  0  0  0  0
   -3.5820   23.6320  -29.8360 C   0  0  0  0  0  0  0  0  0  0  0  0
   -2.4440   22.9590  -29.3840 C   0  0  0  0  0  0  0  0  0  0  0  0
   -2.2150   22.9060  -28.0240 C   0  0  0  0  0  0  0  0  0  0  0  0
   -3.1140   23.5160  -27.1730 C   0  0  0  0  0  0  0  0  0  0  0  0
   -4.2400   24.1830  -27.6110 C   0  0  0  0  0  0  0  0  0  0  0  0
   -4.4690   24.2350  -28.9680 C   0  0  0  0  0  0  0  0  0  0  0  0
   -5.8740   25.0650  -29.5640 Cl  0  0  0  0  0  0  0  0  0  0  0  0
   -5.6360   22.3090  -31.6800 N   0  0  0  0  0  0  0  0  0  0  0  0
   -6.1810   21.2140  -32.2980 C   0  0  0  0  0  0  0  0  0  0  0  0
   -7.5280   20.8860  -31.9800 C   0  0  0  0  0  0  0  0  0  0  0  0
   -8.5810   21.8150  -31.9210 C   0  0  0  0  0  0  0  0  0  0  0  0
   -8.5410   23.2920  -32.0350 C   0  0  0  0  0  0  0  0  0  0  0  0
   -9.7390   21.1540  -31.6970 N   0  0  0  0  0  0  0  0  0  0  0  0
   -9.4790   19.8960  -31.6150 O   0  0  0  0  0  0  0  0  0  0  0  0
   -8.1820   19.6730  -31.7760 C   0  0  0  0  0  0  0  0  0  0  0  0
   -7.6340   18.2970  -31.7310 C   0  0  0  0  0  0  0  0  0  0  0  0
   -5.9050   18.4892  -33.0571 H   0  0  0  0  0  0  0  0  0  0  0  0
   -6.5626   19.4427  -34.4300 H   0  0  0  0  0  0  0  0  0  0  0  0
   -4.8381   18.9401  -34.4300 H   0  0  0  0  0  0  0  0  0  0  0  0
   -3.3209   20.3419  -33.9191 H   0  0  0  0  0  0  0  0  0  0  0  0
   -1.7495   22.4843  -30.0928 H   0  0  0  0  0  0  0  0  0  0  0  0
   -1.3312   22.3865  -27.6253 H   0  0  0  0  0  0  0  0  0  0  0  0
   -2.9234   23.4682  -26.0907 H   0  0  0  0  0  0  0  0  0  0  0  0
   -4.9319   24.6575  -26.8996 H   0  0  0  0  0  0  0  0  0  0  0  0
   -6.1960   22.9300  -31.0590 H   0  0  0  0  0  0  0  0  0  0  0  0
   -8.5289   23.7372  -31.0292 H   0  0  0  0  0  0  0  0  0  0  0  0
   -7.6344   23.5933  -32.5802 H   0  0  0  0  0  0  0  0  0  0  0  0
   -9.4300   23.6419  -32.5802 H   0  0  0  0  0  0  0  0  0  0  0  0
   -7.5101   17.9858  -30.6833 H   0  0  0  0  0  0  0  0  0  0  0  0
   -8.3270   17.6096  -32.2382 H   0  0  0  0  0  0  0  0  0  0  0  0
   -6.6582   18.2742  -32.2382 H   0  0  0  0  0  0  0  0  0  0  0  0
  1  2  1  0
  2  3  1  0
  3  4  2  0
  4  5  1  0
  5  6  2  0
  6  7  1  0
  7  8  2  0
  8  9  1  0
  9 10  2  0
 10 11  1  0
 11 12  2  0
 12 13  1  0
  5 14  1  0
 14 15  1  0
 15 16  1  0
 16 17  1  0
 17 18  1  0
 17 19  2  0
 19 20  1  0
 20 21  1  0
 21 22  1  0
 15  2  2  0
 21 16  2  0
 12  7  1  0
  1 23  1  0
  1 24  1  0
  1 25  1  0
  3 26  1  0
  8 27  1  0
  9 28  1  0
 10 29  1  0
 11 30  1  0
 14 31  1  0
 18 32  1  0
 18 33  1  0
 18 34  1  0
 22 35  1  0
 22 36  1  0
 22 37  1  0
M  END
>  <smiles>  (34) 
Cc1cnc(=Nc2ccccc2Cl)[nH]c1-c1c(C)noc1C

>  <score_type>  (34) 
oracle

>  <origin>  (34) 
adg

>  <m_score__min__energy>  (34) 
-8.5099999999999998

>  <m_primary>  (34) 
energy

$$$$
34:0
     RDKit          3D

 90 96  0  0  0  0  0  0  0  0999 V2000
   -1.1169   14.0950  -34.8266 H   0  0  0  0  0  0  0  0  0  0  0  0
   -1.1370   15.0310  -34.2490 C   0  0  0  0  0  0  0  0  0  0  0  0
   -0.4990   15.1020  -33.0540 N   0  0  0  0  0  0  0  0  0  0  0  0
   -0.4770   16.2450  -32.3200 C   0  0  0  0  0  0  0  0  0  0  0  0
    0.2020   16.2670  -31.1000 C   0  0  0  0  0  0  0  0  0  0  0  0
    0.6989   15.3567  -30.7334 H   0  0  0  0  0  0  0  0  0  0  0  0
    0.2530   17.4400  -30.3430 C   0  0  0  0  0  0  0  0  0  0  0  0
    0.7804   17.4420  -29.3777 H   0  0  0  0  0  0  0  0  0  0  0  0
   -0.3630   18.6190  -30.8020 C   0  0  0  0  0  0  0  0  0  0  0  0
   -0.2490   19.8850  -30.0250 C   0  0  0  0  0  0  0  0  0  0  0  0
   -0.5410   21.1240  -30.6240 C   0  0  0  0  0  0  0  0  0  0  0  0
   -0.8235   21.1615  -31.6864 H   0  0  0  0  0  0  0  0  0  0  0  0
   -0.4760   22.3090  -29.8830 C   0  0  0  0  0  0  0  0  0  0  0  0
   -0.6949   23.2712  -30.3690 H   0  0  0  0  0  0  0  0  0  0  0  0
   -0.1340   22.2760  -28.5270 C   0  0  0  0  0  0  0  0  0  0  0  0
   -0.1500   23.7600  -27.5680 S   0  0  0  0  0  0  0  0  0  0  0  0
    1.0040   24.6250  -27.9900 O   0  0  0  0  0  0  0  0  0  0  0  0
    0.0390   23.4100  -26.1190 O   0  0  0  0  0  0  0  0  0  0  0  0
   -1.6350   24.6650  -27.7540 N   0  0  0  0  0  0  0  0  0  0  0  0
   -2.6190   23.9420  -28.5720 C   0  0  0  0  0  0  0  0  0  0  0  0
   -2.8637   24.5305  -29.4685 H   0  0  0  0  0  0  0  0  0  0  0  0
   -2.2110   22.9718  -28.8918 H   0  0  0  0  0  0  0  0  0  0  0  0
   -3.8690   23.7380  -27.7320 C   0  0  0  0  0  0  0  0  0  0  0  0
   -4.7740   23.8878  -28.3391 H   0  0  0  0  0  0  0  0  0  0  0  0
   -3.9359   22.7192  -27.3225 H   0  0  0  0  0  0  0  0  0  0  0  0
   -3.7730   24.7860  -26.6500 C   0  0  0  0  0  0  0  0  0  0  0  0
   -4.2516   25.7238  -26.9686 H   0  0  0  0  0  0  0  0  0  0  0  0
   -4.2827   24.4885  -25.7217 H   0  0  0  0  0  0  0  0  0  0  0  0
   -2.2730   24.9770  -26.4650 C   0  0  2  0  0  0  0  0  0  0  0  0
   -1.9065   24.3054  -25.6746 H   0  0  0  0  0  0  0  0  0  0  0  0
   -1.9140   26.4050  -25.9870 C   0  0  0  0  0  0  0  0  0  0  0  0
   -2.5408   27.1242  -26.5346 H   0  0  0  0  0  0  0  0  0  0  0  0
   -2.0935   26.4400  -24.9023 H   0  0  0  0  0  0  0  0  0  0  0  0
   -0.4770   26.7610  -26.2100 N   0  0  0  0  0  0  0  0  0  0  0  0
    0.0420   25.9150  -26.5450 H   0  0  0  0  0  0  0  0  0  0  0  0
    0.1900   27.1860  -24.9580 C   0  0  0  0  0  0  0  0  0  0  0  0
    0.0015   26.4276  -24.1839 H   0  0  0  0  0  0  0  0  0  0  0  0
    1.2638   27.2902  -25.1725 H   0  0  0  0  0  0  0  0  0  0  0  0
   -0.3190   28.5540  -24.4450 C   0  0  0  0  0  0  0  0  0  0  0  0
   -0.9162   28.3928  -23.5354 H   0  0  0  0  0  0  0  0  0  0  0  0
    0.5562   29.1874  -24.2379 H   0  0  0  0  0  0  0  0  0  0  0  0
   -1.1540   29.2420  -25.4480 N   0  0  0  0  0  0  0  0  0  0  0  0
   -1.4160   30.6270  -25.0270 C   0  0  0  0  0  0  0  0  0  0  0  0
   -1.4261   30.6806  -23.9284 H   0  0  0  0  0  0  0  0  0  0  0  0
   -0.6264   31.2850  -25.4189 H   0  0  0  0  0  0  0  0  0  0  0  0
   -2.3914   30.9511  -25.4189 H   0  0  0  0  0  0  0  0  0  0  0  0
   -0.4920   29.2290  -26.7620 C   0  0  0  0  0  0  0  0  0  0  0  0
   -1.1118   29.7833  -27.4822 H   0  0  0  0  0  0  0  0  0  0  0  0
    0.4967   29.7003  -26.6601 H   0  0  0  0  0  0  0  0  0  0  0  0
   -0.2970   27.7850  -27.2710 C   0  0  0  0  0  0  0  0  0  0  0  0
   -1.0294   27.5938  -28.0692 H   0  0  0  0  0  0  0  0  0  0  0  0
    0.7388   27.7029  -27.6321 H   0  0  0  0  0  0  0  0  0  0  0  0
    0.1570   21.0480  -27.9210 C   0  0  0  0  0  0  0  0  0  0  0  0
    0.4171   21.0135  -26.8528 H   0  0  0  0  0  0  0  0  0  0  0  0
    0.1190   19.8660  -28.6650 C   0  0  0  0  0  0  0  0  0  0  0  0
    0.3789   18.9113  -28.1844 H   0  0  0  0  0  0  0  0  0  0  0  0
   -1.0650   18.5880  -32.0230 C   0  0  0  0  0  0  0  0  0  0  0  0
   -1.5635   19.4994  -32.3848 H   0  0  0  0  0  0  0  0  0  0  0  0
   -1.1380   17.4060  -32.7880 C   0  0  0  0  0  0  0  0  0  0  0  0
   -1.8550   17.3420  -34.0060 C   0  0  0  0  0  0  0  0  0  0  0  0
   -2.5180   18.3900  -34.4220 N   0  0  0  0  0  0  0  0  0  0  0  0
   -3.7460   18.9200  -33.8930 C   0  0  0  0  0  0  0  0  0  0  0  0
   -4.9480   18.2860  -34.2230 C   0  0  0  0  0  0  0  0  0  0  0  0
   -4.9314   17.3724  -34.8354 H   0  0  0  0  0  0  0  0  0  0  0  0
   -6.1690   18.8010  -33.7830 C   0  0  0  0  0  0  0  0  0  0  0  0
   -7.1045   18.2843  -34.0436 H   0  0  0  0  0  0  0  0  0  0  0  0
   -6.2130   19.9740  -33.0100 C   0  0  0  0  0  0  0  0  0  0  0  0
   -7.4780   20.5090  -32.5570 N   0  0  0  0  0  0  0  0  0  0  0  0
   -8.7410   19.7870  -32.6180 C   0  0  0  0  0  0  0  0  0  0  0  0
   -8.9323   19.4344  -33.6422 H   0  0  0  0  0  0  0  0  0  0  0  0
   -8.7337   18.8998  -31.9677 H   0  0  0  0  0  0  0  0  0  0  0  0
   -9.8070   20.7870  -32.1930 C   0  0  0  0  0  0  0  0  0  0  0  0
  -10.3151   21.2061  -33.0740 H   0  0  0  0  0  0  0  0  0  0  0  0
  -10.5834   20.3185  -31.5703 H   0  0  0  0  0  0  0  0  0  0  0  0
   -9.0590   21.8770  -31.4410 C   0  0  0  0  0  0  0  0  0  0  0  0
   -9.5112   22.8601  -31.6384 H   0  0  0  0  0  0  0  0  0  0  0  0
   -9.0950   21.7208  -30.3527 H   0  0  0  0  0  0  0  0  0  0  0  0
   -7.6350   21.8310  -31.9710 C   0  0  0  0  0  0  0  0  0  0  0  0
   -7.4838   22.6093  -32.7334 H   0  0  0  0  0  0  0  0  0  0  0  0
   -6.8983   22.0132  -31.1747 H   0  0  0  0  0  0  0  0  0  0  0  0
   -5.0050   20.6320  -32.7100 C   0  0  0  0  0  0  0  0  0  0  0  0
   -5.0248   21.5581  -32.1167 H   0  0  0  0  0  0  0  0  0  0  0  0
   -3.7710   20.1210  -33.1590 C   0  0  0  0  0  0  0  0  0  0  0  0
   -2.5590   20.7870  -32.9050 O   0  0  0  0  0  0  0  0  0  0  0  0
   -1.6160   21.1680  -33.8990 C   0  0  0  0  0  0  0  0  0  0  0  0
   -0.7008   21.5378  -33.4136 H   0  0  0  0  0  0  0  0  0  0  0  0
   -1.3725   20.2977  -34.5261 H   0  0  0  0  0  0  0  0  0  0  0  0
   -2.0454   21.9632  -34.5261 H   0  0  0  0  0  0  0  0  0  0  0  0
   -1.8190   16.1420  -34.7480 C   0  0  0  0  0  0  0  0  0  0  0  0
   -2.3290   16.0822  -35.7208 H   0  0  0  0  0  0  0  0  0  0  0  0
  1  2  1  0
  2  3  1  0
  3  4  1  0
  4  5  2  0
  5  6  1  0
  5  7  1  0
  7  8  1  0
  7  9  2  0
  9 10  1  0
 10 11  2  0
 11 12  1  0
 11 13  1  0
 13 14  1  0
 13 15  2  0
 15 16  1  0
 16 17  2  0
 16 18  2  0
 16 19  1  0
 19 20  1  0
 20 21  1  0
 20 22  1  0
 20 23  1  0
 23 24  1  0
 23 25  1  0
 23 26  1  0
 26 27  1  0
 26 28  1  0
 26 29  1  0
 29 30  1  1
 29 31  1  0
 31 32  1  0
 31 33  1  0
 31 34  1  0
 34 35  1  0
 34 36  1  0
 36 37  1  0
 36 38  1  0
 36 39  1  0
 39 40  1  0
 39 41  1  0
 39 42  1  0
 42 43  1  0
 43 44  1  0
 43 45  1  0
 43 46  1  0
 42 47  1  0
 47 48  1  0
 47 49  1  0
 47 50  1  0
 50 51  1  0
 50 52  1  0
 15 53  1  0
 53 54  1  0
 53 55  2  0
 55 56  1  0
  9 57  1  0
 57 58  1  0
 57 59  2  0
 59 60  1  0
 60 61  2  0
 61 62  1  0
 62 63  2  0
 63 64  1  0
 63 65  1  0
 65 66  1  0
 65 67  2  0
 67 68  1  0
 68 69  1  0
 69 70  1  0
 69 71  1  0
 69 72  1  0
 72 73  1  0
 72 74  1  0
 72 75  1  0
 75 76  1  0
 75 77  1  0
 75 78  1  0
 78 79  1  0
 78 80  1  0
 67 81  1  0
 81 82  1  0
 81 83  2  0
 83 84  1  0
 84 85  1  0
 85 86  1  0
 85 87  1  0
 85 88  1  0
 60 89  1  0
 89 90  1  0
 89  2  2  0
 59  4  1  0
 83 62  1  0
 55 10  1  0
 78 68  1  0
 29 19  1  0
 50 34  1  0
M  CHG  2   3  -1  34   1
M  END
>  <UniqueID>  (35) 
31

>  <SMILES>  (35) 
COc1cc(N2CCCC2)ccc1/N=c1\cc[n-]c2ccc(-c3ccc(S(=O)(=O)N4CCC[C@@H]4C[NH+]4CCN(C)CC4)cc3)cc12

>  <Energy>  (35) 
132.93958188351044

>  <Genealogy>  (35) 
COc1cc(N2CCCC2)ccc1N=c1cc[n-]c2ccc(-c3ccc(S(=O)(=O)N4CCCC4C[NH+]4CCN(C)CC4)cc3)cc12 (protonated)
COc1cc(N2CCCC2)ccc1N=c1cc[n-]c2ccc(-c3ccc(S(=O)(=O)N4CCC[C@@H]4C[NH+]4CCN(C)CC4)cc3)cc12 (chirality)
COc1cc(N2CCCC2)ccc1/N=c1\cc[n-]c2ccc(-c3ccc(S(=O)(=O)N4CCC[C@@H]4C[NH+]4CCN(C)CC4)cc3)cc12 (cis-trans isomerization)
COc1cc(N2CCCC2)ccc1/N=c1\cc[n-]c2ccc(-c3ccc(S(=O)(=O)N4CCC[C@@H]4C[NH+]4CCN(C)CC4)cc3)cc12 (3D coordinates assigned)
COc1cc(N2CCCC2)ccc1/N=c1\cc[n-]c2ccc(-c3ccc(S(=O)(=O)N4CCC[C@@H]4C[NH+]4CCN(C)CC4)cc3)cc12 (nonaromatic ring conformer: 132.93958188351044 kcal/mol)

>  <smiles>  (35) 
COc1cc(N2CCCC2)ccc1N=c1cc[nH]c2ccc(-c3ccc(S(=O)(=O)N4CCCC4CN4CCN(C)CC4)cc3)cc12

>  <score_type>  (35) 
oracle

>  <origin>  (35) 
adg

>  <m_score__min__energy>  (35) 
-10.779999999999999

>  <m_primary>  (35) 
energy

$$$$
36:0
     RDKit          3D

 39 41  0  0  0  0  0  0  0  0999 V2000
   -5.7810   24.9140  -29.3820 C   0  0  0  0  0  0  0  0  0  0  0  0
   -6.4530   24.7280  -30.7400 C   0  0  0  0  0  0  0  0  0  0  0  0
   -6.1300   23.3980  -31.3100 N   0  0  0  0  0  0  0  0  0  0  0  0
   -4.8050   23.0740  -31.4850 C   0  0  0  0  0  0  0  0  0  0  0  0
   -3.9040   23.9190  -31.2120 O   0  0  0  0  0  0  0  0  0  0  0  0
   -4.4200   21.8170  -31.9810 C   0  0  0  0  0  0  0  0  0  0  0  0
   -2.9770   21.5220  -32.1720 C   0  0  0  0  0  0  0  0  0  0  0  0
   -2.1210   21.4350  -31.0650 C   0  0  0  0  0  0  0  0  0  0  0  0
   -0.7680   21.1470  -31.2640 C   0  0  0  0  0  0  0  0  0  0  0  0
   -0.2890   20.9550  -32.5220 N   0  0  0  0  0  0  0  0  0  0  0  0
   -1.0960   21.0390  -33.6130 C   0  0  0  0  0  0  0  0  0  0  0  0
   -2.4540   21.3270  -33.4590 C   0  0  0  0  0  0  0  0  0  0  0  0
   -5.4070   20.8730  -32.3240 C   0  0  0  0  0  0  0  0  0  0  0  0
   -4.9920   19.5460  -32.8410 C   0  0  0  0  0  0  0  0  0  0  0  0
   -4.6200   18.6440  -32.0400 O   0  0  0  0  0  0  0  0  0  0  0  0
   -5.0660   19.2880  -34.2130 O   0  0  0  0  0  0  0  0  0  0  0  0
   -5.7250   18.1460  -34.7440 C   0  0  0  0  0  0  0  0  0  0  0  0
   -6.7710   21.2120  -32.1690 C   0  0  0  0  0  0  0  0  0  0  0  0
   -7.7970   20.2830  -32.4610 C   0  0  0  0  0  0  0  0  0  0  0  0
   -9.1380   20.6370  -32.3410 C   0  0  0  0  0  0  0  0  0  0  0  0
   -9.4870   21.9150  -31.9270 C   0  0  0  0  0  0  0  0  0  0  0  0
   -8.4980   22.8400  -31.6010 C   0  0  0  0  0  0  0  0  0  0  0  0
   -7.1210   22.5060  -31.6850 C   0  0  0  0  0  0  0  0  0  0  0  0
   -6.5087   24.7126  -28.5821 H   0  0  0  0  0  0  0  0  0  0  0  0
   -4.9354   24.2161  -29.2927 H   0  0  0  0  0  0  0  0  0  0  0  0
   -5.4146   25.9473  -29.2927 H   0  0  0  0  0  0  0  0  0  0  0  0
   -7.5429   24.8128  -30.6176 H   0  0  0  0  0  0  0  0  0  0  0  0
   -6.0829   25.5045  -31.4256 H   0  0  0  0  0  0  0  0  0  0  0  0
   -2.5110   21.5921  -30.0485 H   0  0  0  0  0  0  0  0  0  0  0  0
   -0.0893   21.0755  -30.4013 H   0  0  0  0  0  0  0  0  0  0  0  0
   -0.6788   20.8799  -34.6183 H   0  0  0  0  0  0  0  0  0  0  0  0
   -3.1084   21.4003  -34.3401 H   0  0  0  0  0  0  0  0  0  0  0  0
   -6.0886   17.5158  -33.9190 H   0  0  0  0  0  0  0  0  0  0  0  0
   -6.5761   18.4681  -35.3620 H   0  0  0  0  0  0  0  0  0  0  0  0
   -5.0203   17.5703  -35.3620 H   0  0  0  0  0  0  0  0  0  0  0  0
   -7.5315   19.2667  -32.7874 H   0  0  0  0  0  0  0  0  0  0  0  0
   -9.9226   19.9024  -32.5748 H   0  0  0  0  0  0  0  0  0  0  0  0
  -10.5476   22.1981  -31.8562 H   0  0  0  0  0  0  0  0  0  0  0  0
   -8.7896   23.8484  -31.2722 H   0  0  0  0  0  0  0  0  0  0  0  0
  1  2  1  0
  2  3  1  0
  3  4  1  0
  4  5  2  0
  4  6  1  0
  6  7  1  0
  7  8  2  0
  8  9  1  0
  9 10  2  0
 10 11  1  0
 11 12  2  0
  6 13  2  0
 13 14  1  0
 14 15  2  0
 14 16  1  0
 16 17  1  0
 13 18  1  0
 18 19  2  0
 19 20  1  0
 20 21  2  0
 21 22  1  0
 22 23  2  0
 23  3  1  0
 12  7  1  0
 23 18  1  0
  1 24  1  0
  1 25  1  0
  1 26  1  0
  2 27  1  0
  2 28  1  0
  8 29  1  0
  9 30  1  0
 11 31  1  0
 12 32  1  0
 17 33  1  0
 17 34  1  0
 17 35  1  0
 19 36  1  0
 20 37  1  0
 21 38  1  0
 22 39  1  0
M  END
>  <UniqueID>  (36) 
32

>  <SMILES>  (36) 
CCn1c(=O)c(-c2ccncc2)c(C(=O)OC)c2ccccc21

>  <Energy>  (36) 
65.80043710779907

>  <Genealogy>  (36) 
CCn1c(=O)c(-c2ccncc2)c(C(=O)OC)c2ccccc21 (3D coordinates assigned)
CCn1c(=O)c(-c2ccncc2)c(C(=O)OC)c2ccccc21 (optimized conformer: 65.80043710779907 kcal/mol)

>  <smiles>  (36) 
CCn1c(=O)c(-c2ccncc2)c(C(=O)OC)c2ccccc21

>  <score_type>  (36) 
oracle

>  <origin>  (36) 
adg

>  <m_score__min__energy>  (36) 
-7.7999999999999998

>  <m_primary>  (36) 
energy

$$$$
37:0
     RDKit          3D

 56 59  0  0  0  0  0  0  0  0999 V2000
   -9.5070   22.6580  -31.6200 C   0  0  0  0  0  0  0  0  0  0  0  0
   -8.6760   21.5450  -32.1040 N   0  0  0  0  0  0  0  0  0  0  0  0
   -9.5060   20.3360  -32.2950 C   0  0  0  0  0  0  0  0  0  0  0  0
   -8.6680   19.1150  -32.7410 C   0  0  0  0  0  0  0  0  0  0  0  0
   -7.1890   19.4750  -32.9650 C   0  0  2  0  0  0  0  0  0  0  0  0
   -6.3880   18.2450  -33.3740 C   0  0  0  0  0  0  0  0  0  0  0  0
   -6.5020   17.0290  -32.6710 C   0  0  0  0  0  0  0  0  0  0  0  0
   -5.7480   15.9170  -33.0530 C   0  0  0  0  0  0  0  0  0  0  0  0
   -4.8810   15.9980  -34.1440 C   0  0  0  0  0  0  0  0  0  0  0  0
   -4.7710   17.1920  -34.8590 C   0  0  0  0  0  0  0  0  0  0  0  0
   -5.5210   18.3090  -34.4800 C   0  0  0  0  0  0  0  0  0  0  0  0
   -6.6140   20.1780  -31.7040 C   0  0  1  0  0  0  0  0  0  0  0  0
   -5.1600   20.6140  -31.9060 C   0  0  0  0  0  0  0  0  0  0  0  0
   -4.3120   19.9550  -31.3170 O   0  0  0  0  0  0  0  0  0  0  0  0
   -4.7550   21.7980  -32.6750 N   0  0  2  0  0  0  0  0  0  0  0  0
   -3.3150   22.1160  -32.5650 C   0  0  0  0  0  0  0  0  0  0  0  0
   -2.9480   22.6460  -31.2070 C   0  0  0  0  0  0  0  0  0  0  0  0
   -3.8160   23.3460  -30.4580 C   0  0  0  0  0  0  0  0  0  0  0  0
   -3.3790   23.9130  -29.1530 C   0  0  0  0  0  0  0  0  0  0  0  0
   -2.0560   24.3570  -28.9680 C   0  0  0  0  0  0  0  0  0  0  0  0
   -1.6520   24.8980  -27.7440 C   0  0  0  0  0  0  0  0  0  0  0  0
   -2.5600   24.9950  -26.6860 C   0  0  0  0  0  0  0  0  0  0  0  0
   -2.1660   25.5200  -25.4990 F   0  0  0  0  0  0  0  0  0  0  0  0
   -3.8740   24.5490  -26.8530 C   0  0  0  0  0  0  0  0  0  0  0  0
   -4.2820   24.0100  -28.0760 C   0  0  0  0  0  0  0  0  0  0  0  0
   -5.2610   23.4950  -30.8860 C   0  0  0  0  0  0  0  0  0  0  0  0
   -5.5310   23.0140  -32.3280 C   0  0  0  0  0  0  0  0  0  0  0  0
   -7.5730   21.2790  -31.1590 C   0  0  0  0  0  0  0  0  0  0  0  0
   -9.5100   22.6620  -30.5200 H   0  0  0  0  0  0  0  0  0  0  0  0
   -9.0966   23.6095  -31.9890 H   0  0  0  0  0  0  0  0  0  0  0  0
  -10.5359   22.5348  -31.9890 H   0  0  0  0  0  0  0  0  0  0  0  0
  -10.0045   20.0951  -31.3445 H   0  0  0  0  0  0  0  0  0  0  0  0
  -10.2373   20.5509  -33.0881 H   0  0  0  0  0  0  0  0  0  0  0  0
   -8.7299   18.3398  -31.9631 H   0  0  0  0  0  0  0  0  0  0  0  0
   -9.0766   18.7564  -33.6973 H   0  0  0  0  0  0  0  0  0  0  0  0
   -7.1096   20.1880  -33.7988 H   0  0  0  0  0  0  0  0  0  0  0  0
   -7.1895   16.9550  -31.8155 H   0  0  0  0  0  0  0  0  0  0  0  0
   -5.8377   14.9748  -32.4925 H   0  0  0  0  0  0  0  0  0  0  0  0
   -4.2851   15.1220  -34.4400 H   0  0  0  0  0  0  0  0  0  0  0  0
   -4.0925   17.2539  -35.7226 H   0  0  0  0  0  0  0  0  0  0  0  0
   -5.4326   19.2451  -35.0509 H   0  0  0  0  0  0  0  0  0  0  0  0
   -6.5649   19.4395  -30.8903 H   0  0  0  0  0  0  0  0  0  0  0  0
   -4.9630   21.6040  -33.6800 H   0  0  0  0  0  0  0  0  0  0  0  0
   -2.7354   21.2007  -32.7556 H   0  0  0  0  0  0  0  0  0  0  0  0
   -3.0866   22.8984  -33.3037 H   0  0  0  0  0  0  0  0  0  0  0  0
   -1.9382   22.4548  -30.8148 H   0  0  0  0  0  0  0  0  0  0  0  0
   -1.3338   24.2775  -29.7939 H   0  0  0  0  0  0  0  0  0  0  0  0
   -0.6174   25.2481  -27.6133 H   0  0  0  0  0  0  0  0  0  0  0  0
   -4.5885   24.6224  -26.0199 H   0  0  0  0  0  0  0  0  0  0  0  0
   -5.3170   23.6585  -28.1988 H   0  0  0  0  0  0  0  0  0  0  0  0
   -5.8892   22.9077  -30.2001 H   0  0  0  0  0  0  0  0  0  0  0  0
   -5.4978   24.5687  -30.8543 H   0  0  0  0  0  0  0  0  0  0  0  0
   -6.6030   22.7897  -32.4303 H   0  0  0  0  0  0  0  0  0  0  0  0
   -5.2191   23.8167  -33.0124 H   0  0  0  0  0  0  0  0  0  0  0  0
   -7.9955   20.9438  -30.2003 H   0  0  0  0  0  0  0  0  0  0  0  0
   -6.9972   22.2069  -31.0271 H   0  0  0  0  0  0  0  0  0  0  0  0
  1  2  1  0
  2  3  1  0
  3  4  1  0
  4  5  1  0
  5  6  1  0
  6  7  2  0
  7  8  1  0
  8  9  2  0
  9 10  1  0
 10 11  2  0
  5 12  1  0
 12 13  1  0
 13 14  2  0
 13 15  1  0
 15 16  1  0
 16 17  1  0
 17 18  2  0
 18 19  1  0
 19 20  2  0
 20 21  1  0
 21 22  2  0
 22 23  1  0
 22 24  1  0
 24 25  2  0
 18 26  1  0
 26 27  1  0
 12 28  1  0
 28  2  1  0
 11  6  1  0
 27 15  1  0
 25 19  1  0
  1 29  1  0
  1 30  1  0
  1 31  1  0
  3 32  1  0
  3 33  1  0
  4 34  1  0
  4 35  1  0
  5 36  1  6
  7 37  1  0
  8 38  1  0
  9 39  1  0
 10 40  1  0
 11 41  1  0
 12 42  1  1
 15 43  1  6
 16 44  1  0
 16 45  1  0
 17 46  1  0
 20 47  1  0
 21 48  1  0
 24 49  1  0
 25 50  1  0
 26 51  1  0
 26 52  1  0
 27 53  1  0
 27 54  1  0
 28 55  1  0
 28 56  1  0
M  CHG  1  15   1
M  END
>  <UniqueID>  (37) 
33

>  <SMILES>  (37) 
CN1CC[C@H](c2ccccc2)[C@@H](C(=O)[NH+]2CC=C(c3ccc(F)cc3)CC2)C1

>  <Energy>  (37) 
80.49759833104076

>  <Genealogy>  (37) 
CN1CCC(c2ccccc2)C(C(=O)[NH+]2CC=C(c3ccc(F)cc3)CC2)C1 (protonated)
CN1CC[C@H](c2ccccc2)[C@@H](C(=O)[NH+]2CC=C(c3ccc(F)cc3)CC2)C1 (chirality)
CN1CC[C@H](c2ccccc2)[C@@H](C(=O)[NH+]2CC=C(c3ccc(F)cc3)CC2)C1 (3D coordinates assigned)
CN1CC[C@H](c2ccccc2)[C@@H](C(=O)[NH+]2CC=C(c3ccc(F)cc3)CC2)C1 (nonaromatic ring conformer: 80.49759833104076 kcal/mol)

>  <smiles>  (37) 
CN1CCC(c2ccccc2)C(C(=O)N2CC=C(c3ccc(F)cc3)CC2)C1

>  <score_type>  (37) 
oracle

>  <origin>  (37) 
adg

>  <m_score__min__energy>  (37) 
-8.9900000000000002

>  <m_primary>  (37) 
energy

$$$$
38:0
     RDKit          3D

 18 19  0  0  0  0  0  0  0  0999 V2000
   -4.2410   21.7680  -33.2120 O   0  0  0  0  0  0  0  0  0  0  0  0
   -4.6710   22.3820  -32.1990 C   0  0  0  0  0  0  0  0  0  0  0  0
   -3.8010   23.3160  -31.5660 N   0  0  0  0  0  0  0  0  0  0  0  0
   -4.2870   24.2030  -30.1810 S   0  0  0  0  0  0  0  0  0  0  0  0
   -4.2450   25.6740  -30.4830 O   0  0  0  0  0  0  0  0  0  0  0  0
   -3.3790   23.8790  -29.0280 O   0  0  0  0  0  0  0  0  0  0  0  0
   -5.8970   23.7370  -29.7970 N   0  0  0  0  0  0  0  0  0  0  0  0
   -6.6180   22.7650  -30.5690 C   0  0  0  0  0  0  0  0  0  0  0  0
   -7.9290   22.4530  -30.1730 C   0  0  0  0  0  0  0  0  0  0  0  0
   -8.6860   21.5170  -30.8760 C   0  0  0  0  0  0  0  0  0  0  0  0
   -8.1440   20.8790  -31.9880 C   0  0  0  0  0  0  0  0  0  0  0  0
   -6.8440   21.1710  -32.3990 C   0  0  0  0  0  0  0  0  0  0  0  0
   -6.0560   22.1140  -31.7050 C   0  0  0  0  0  0  0  0  0  0  0  0
   -6.3480   24.1900  -28.9710 H   0  0  0  0  0  0  0  0  0  0  0  0
   -8.3644   22.9542  -29.2960 H   0  0  0  0  0  0  0  0  0  0  0  0
   -9.7108   21.2828  -30.5522 H   0  0  0  0  0  0  0  0  0  0  0  0
   -8.7428   20.1426  -32.5440 H   0  0  0  0  0  0  0  0  0  0  0  0
   -6.4261   20.6583  -33.2779 H   0  0  0  0  0  0  0  0  0  0  0  0
  1  2  2  0
  2  3  1  0
  3  4  1  0
  4  5  2  0
  4  6  2  0
  4  7  1  0
  7  8  1  0
  8  9  2  0
  9 10  1  0
 10 11  2  0
 11 12  1  0
 12 13  2  0
 13  2  1  0
 13  8  1  0
  7 14  1  0
  9 15  1  0
 10 16  1  0
 11 17  1  0
 12 18  1  0
M  CHG  1   3  -1
M  END
>  <UniqueID>  (38) 
34

>  <SMILES>  (38) 
O=C1[N-]S(=O)(=O)Nc2ccccc21

>  <Energy>  (38) 
25.02123303947314

>  <Genealogy>  (38) 
O=C1[N-]S(=O)(=O)Nc2ccccc21 (protonated)
O=C1[N-]S(=O)(=O)Nc2ccccc21 (3D coordinates assigned)
O=C1[N-]S(=O)(=O)Nc2ccccc21 (nonaromatic ring conformer: 25.02123303947314 kcal/mol)

>  <smiles>  (38) 
O=C1NS(=O)(=O)Nc2ccccc21

>  <score_type>  (38) 
oracle

>  <origin>  (38) 
adg

>  <m_score__min__energy>  (38) 
-7

>  <m_primary>  (38) 
energy

$$$$
39:0
     RDKit          3D

 42 43  0  0  0  0  0  0  0  0999 V2000
   -6.9640   18.8130  -33.0570 C   0  0  0  0  0  0  0  0  0  0  0  0
   -7.5050   20.1290  -33.0080 O   0  0  0  0  0  0  0  0  0  0  0  0
   -6.8920   21.2180  -32.3660 C   0  0  0  0  0  0  0  0  0  0  0  0
   -5.4980   21.4130  -32.4020 C   0  0  0  0  0  0  0  0  0  0  0  0
   -4.9180   22.5020  -31.7490 C   0  0  0  0  0  0  0  0  0  0  0  0
   -5.7180   23.4130  -31.0510 C   0  0  0  0  0  0  0  0  0  0  0  0
   -4.9830   24.7540  -30.1730 S   0  0  0  0  0  0  0  0  0  0  0  0
   -4.2250   25.6380  -31.1240 O   0  0  0  0  0  0  0  0  0  0  0  0
   -6.0670   25.5720  -29.5270 O   0  0  0  0  0  0  0  0  0  0  0  0
   -3.9060   24.1620  -28.9410 N   0  0  0  0  0  0  0  0  0  0  0  0
   -2.5040   24.4470  -29.2680 C   0  0  0  0  0  0  0  0  0  0  0  0
   -1.8350   25.0490  -28.0220 C   0  0  0  0  0  0  0  0  0  0  0  0
   -2.0050   24.1950  -26.7530 C   0  0  0  0  0  0  0  0  0  0  0  0
   -1.4030   22.7900  -26.9130 C   0  0  0  0  0  0  0  0  0  0  0  0
   -2.3350   21.7720  -27.5940 C   0  0  0  0  0  0  0  0  0  0  0  0
   -2.4770   21.8900  -29.1220 C   0  0  0  0  0  0  0  0  0  0  0  0
   -1.8190   23.1410  -29.7290 C   0  0  0  0  0  0  0  0  0  0  0  0
   -7.1040   23.2270  -31.0100 C   0  0  0  0  0  0  0  0  0  0  0  0
   -7.6980   22.1370  -31.6670 C   0  0  0  0  0  0  0  0  0  0  0  0
   -9.1870   21.9410  -31.6040 C   0  0  0  0  0  0  0  0  0  0  0  0
   -6.8111   18.4411  -32.0331 H   0  0  0  0  0  0  0  0  0  0  0  0
   -7.6621   18.1491  -33.5879 H   0  0  0  0  0  0  0  0  0  0  0  0
   -6.0008   18.8321  -33.5879 H   0  0  0  0  0  0  0  0  0  0  0  0
   -4.8613   20.7019  -32.9487 H   0  0  0  0  0  0  0  0  0  0  0  0
   -3.8278   22.6443  -31.7834 H   0  0  0  0  0  0  0  0  0  0  0  0
   -2.4181   25.1720  -30.0908 H   0  0  0  0  0  0  0  0  0  0  0  0
   -0.7594   25.1591  -28.2246 H   0  0  0  0  0  0  0  0  0  0  0  0
   -2.3272   26.0134  -27.8280 H   0  0  0  0  0  0  0  0  0  0  0  0
   -1.5036   24.7018  -25.9153 H   0  0  0  0  0  0  0  0  0  0  0  0
   -3.0828   24.0809  -26.5650 H   0  0  0  0  0  0  0  0  0  0  0  0
   -0.4871   22.8749  -27.5162 H   0  0  0  0  0  0  0  0  0  0  0  0
   -1.2144   22.4121  -25.8973 H   0  0  0  0  0  0  0  0  0  0  0  0
   -1.9519   20.7655  -27.3702 H   0  0  0  0  0  0  0  0  0  0  0  0
   -3.3374   21.9778  -27.1905 H   0  0  0  0  0  0  0  0  0  0  0  0
   -2.0152   21.0026  -29.5795 H   0  0  0  0  0  0  0  0  0  0  0  0
   -3.5540   21.9704  -29.3309 H   0  0  0  0  0  0  0  0  0  0  0  0
   -0.7628   23.1687  -29.4231 H   0  0  0  0  0  0  0  0  0  0  0  0
   -1.9194   23.0766  -30.8225 H   0  0  0  0  0  0  0  0  0  0  0  0
   -7.7339   23.9405  -30.4585 H   0  0  0  0  0  0  0  0  0  0  0  0
   -9.5071   21.8989  -30.5525 H   0  0  0  0  0  0  0  0  0  0  0  0
   -9.6890   22.7808  -32.1067 H   0  0  0  0  0  0  0  0  0  0  0  0
   -9.4545   20.9999  -32.1067 H   0  0  0  0  0  0  0  0  0  0  0  0
  1  2  1  0
  2  3  1  0
  3  4  2  0
  4  5  1  0
  5  6  2  0
  6  7  1  0
  7  8  2  0
  7  9  2  0
  7 10  1  0
 10 11  1  0
 11 12  1  0
 12 13  1  0
 13 14  1  0
 14 15  1  0
 15 16  1  0
 16 17  1  0
  6 18  1  0
 18 19  2  0
 19 20  1  0
 19  3  1  0
 17 11  1  0
  1 21  1  0
  1 22  1  0
  1 23  1  0
  4 24  1  0
  5 25  1  0
 11 26  1  0
 12 27  1  0
 12 28  1  0
 13 29  1  0
 13 30  1  0
 14 31  1  0
 14 32  1  0
 15 33  1  0
 15 34  1  0
 16 35  1  0
 16 36  1  0
 17 37  1  0
 17 38  1  0
 18 39  1  0
 20 40  1  0
 20 41  1  0
 20 42  1  0
M  CHG  1  10  -1
M  END
>  <UniqueID>  (39) 
35

>  <SMILES>  (39) 
COc1ccc(S(=O)(=O)[N-]C2CCCCCC2)cc1C

>  <Energy>  (39) 
39.241508368817115

>  <Genealogy>  (39) 
COc1ccc(S(=O)(=O)[N-]C2CCCCCC2)cc1C (protonated)
COc1ccc(S(=O)(=O)[N-]C2CCCCCC2)cc1C (3D coordinates assigned)
COc1ccc(S(=O)(=O)[N-]C2CCCCCC2)cc1C (nonaromatic ring conformer: 39.241508368817115 kcal/mol)

>  <smiles>  (39) 
COc1ccc(S(=O)(=O)NC2CCCCCC2)cc1C

>  <score_type>  (39) 
oracle

>  <origin>  (39) 
adg

>  <m_score__min__energy>  (39) 
-6.8499999999999996

>  <m_primary>  (39) 
energy

$$$$
40:0
     RDKit          3D

 65 68  0  0  0  0  0  0  0  0999 V2000
   -2.8280   22.1090  -28.9970 C   0  0  0  0  0  0  0  0  0  0  0  0
   -2.3940   23.4470  -29.5770 C   0  0  0  0  0  0  0  0  0  0  0  0
   -3.1430   24.5370  -28.9100 N   0  0  0  0  0  0  0  0  0  0  0  0
   -2.5750   24.9120  -27.5950 C   0  0  0  0  0  0  0  0  0  0  0  0
   -1.2380   25.6640  -27.6910 C   0  0  0  0  0  0  0  0  0  0  0  0
   -4.6050   24.3140  -28.8680 C   0  0  0  0  0  0  0  0  0  0  0  0
   -5.3300   25.1990  -29.8910 C   0  0  0  0  0  0  0  0  0  0  0  0
   -5.1380   24.7200  -31.2220 O   0  0  0  0  0  0  0  0  0  0  0  0
   -5.2520   23.3840  -31.6370 C   0  0  0  0  0  0  0  0  0  0  0  0
   -4.1500   22.6200  -32.0650 C   0  0  0  0  0  0  0  0  0  0  0  0
   -4.3240   21.2890  -32.4570 C   0  0  0  0  0  0  0  0  0  0  0  0
   -5.6010   20.6980  -32.4380 C   0  0  0  0  0  0  0  0  0  0  0  0
   -5.7880   19.2830  -32.8520 C   0  0  0  0  0  0  0  0  0  0  0  0
   -5.9930   18.2750  -31.8930 C   0  0  0  0  0  0  0  0  0  0  0  0
   -6.1690   16.9440  -32.2870 C   0  0  0  0  0  0  0  0  0  0  0  0
   -6.1320   16.5890  -33.6460 C   0  0  0  0  0  0  0  0  0  0  0  0
   -6.3250   15.1680  -34.0430 C   0  0  0  0  0  0  0  0  0  0  0  0
   -7.4630   14.8000  -34.4480 O   0  0  0  0  0  0  0  0  0  0  0  0
   -5.2360   14.2070  -34.0050 N   0  0  2  0  0  0  0  0  0  0  0  0
   -4.7610   14.0340  -32.5940 C   0  0  0  0  0  0  0  0  0  0  0  0
   -3.2360   13.9160  -32.4570 C   0  0  0  0  0  0  0  0  0  0  0  0
   -2.5970   15.0740  -33.1600 C   0  0  0  0  0  0  0  0  0  0  0  0
   -1.5210   15.7820  -32.6060 C   0  0  0  0  0  0  0  0  0  0  0  0
   -0.9550   16.8480  -33.3110 C   0  0  0  0  0  0  0  0  0  0  0  0
   -1.4510   17.2000  -34.5720 C   0  0  0  0  0  0  0  0  0  0  0  0
   -2.5150   16.4840  -35.1320 C   0  0  0  0  0  0  0  0  0  0  0  0
   -3.0970   15.4260  -34.4180 C   0  0  0  0  0  0  0  0  0  0  0  0
   -4.1900   14.5720  -35.0050 C   0  0  0  0  0  0  0  0  0  0  0  0
   -5.9350   17.5970  -34.6040 C   0  0  0  0  0  0  0  0  0  0  0  0
   -5.7650   18.9270  -34.2110 C   0  0  0  0  0  0  0  0  0  0  0  0
   -6.6990   21.4710  -32.0210 C   0  0  0  0  0  0  0  0  0  0  0  0
   -6.5230   22.8000  -31.6270 C   0  0  0  0  0  0  0  0  0  0  0  0
   -2.8106   22.1626  -27.8984 H   0  0  0  0  0  0  0  0  0  0  0  0
   -3.8479   21.8756  -29.3366 H   0  0  0  0  0  0  0  0  0  0  0  0
   -2.1393   21.3214  -29.3366 H   0  0  0  0  0  0  0  0  0  0  0  0
   -1.3157   23.5870  -29.4105 H   0  0  0  0  0  0  0  0  0  0  0  0
   -2.6021   23.4648  -30.6570 H   0  0  0  0  0  0  0  0  0  0  0  0
   -3.2992   25.5563  -27.0749 H   0  0  0  0  0  0  0  0  0  0  0  0
   -2.3791   23.9763  -27.0509 H   0  0  0  0  0  0  0  0  0  0  0  0
   -0.8626   25.8752  -26.6788 H   0  0  0  0  0  0  0  0  0  0  0  0
   -0.5070   25.0447  -28.2314 H   0  0  0  0  0  0  0  0  0  0  0  0
   -1.3876   26.6103  -28.2314 H   0  0  0  0  0  0  0  0  0  0  0  0
   -4.8137   23.2581  -29.0950 H   0  0  0  0  0  0  0  0  0  0  0  0
   -4.9686   24.5733  -27.8627 H   0  0  0  0  0  0  0  0  0  0  0  0
   -6.4061   25.2016  -29.6632 H   0  0  0  0  0  0  0  0  0  0  0  0
   -4.9150   26.2156  -29.8254 H   0  0  0  0  0  0  0  0  0  0  0  0
   -3.1475   23.0719  -32.0912 H   0  0  0  0  0  0  0  0  0  0  0  0
   -3.4550   20.6987  -32.7831 H   0  0  0  0  0  0  0  0  0  0  0  0
   -6.0152   18.5351  -30.8244 H   0  0  0  0  0  0  0  0  0  0  0  0
   -6.3379   16.1682  -31.5257 H   0  0  0  0  0  0  0  0  0  0  0  0
   -5.6100   13.2820  -34.3270 H   0  0  0  0  0  0  0  0  0  0  0  0
   -5.0945   14.9031  -32.0080 H   0  0  0  0  0  0  0  0  0  0  0  0
   -5.1869   13.0877  -32.2292 H   0  0  0  0  0  0  0  0  0  0  0  0
   -2.9582   13.9306  -31.3928 H   0  0  0  0  0  0  0  0  0  0  0  0
   -2.8926   12.9716  -32.9044 H   0  0  0  0  0  0  0  0  0  0  0  0
   -1.1236   15.4995  -31.6199 H   0  0  0  0  0  0  0  0  0  0  0  0
   -0.1177   17.4118  -32.8739 H   0  0  0  0  0  0  0  0  0  0  0  0
   -1.0038   18.0404  -35.1232 H   0  0  0  0  0  0  0  0  0  0  0  0
   -2.8941   16.7502  -36.1297 H   0  0  0  0  0  0  0  0  0  0  0  0
   -4.6669   15.1266  -35.8266 H   0  0  0  0  0  0  0  0  0  0  0  0
   -3.7283   13.6383  -35.3585 H   0  0  0  0  0  0  0  0  0  0  0  0
   -5.9144   17.3372  -35.6727 H   0  0  0  0  0  0  0  0  0  0  0  0
   -5.6114   19.7041  -34.9742 H   0  0  0  0  0  0  0  0  0  0  0  0
   -7.7048   21.0259  -32.0048 H   0  0  0  0  0  0  0  0  0  0  0  0
   -7.3923   23.3926  -31.3059 H   0  0  0  0  0  0  0  0  0  0  0  0
  1  2  1  0
  2  3  1  0
  3  4  1  0
  4  5  1  0
  3  6  1  0
  6  7  1  0
  7  8  1  0
  8  9  1  0
  9 10  2  0
 10 11  1  0
 11 12  2  0
 12 13  1  0
 13 14  2  0
 14 15  1  0
 15 16  2  0
 16 17  1  0
 17 18  2  0
 17 19  1  0
 19 20  1  0
 20 21  1  0
 21 22  1  0
 22 23  2  0
 23 24  1  0
 24 25  2  0
 25 26  1  0
 26 27  2  0
 27 28  1  0
 16 29  1  0
 29 30  2  0
 12 31  1  0
 31 32  2  0
 32  9  1  0
 30 13  1  0
 28 19  1  0
 27 22  1  0
  1 33  1  0
  1 34  1  0
  1 35  1  0
  2 36  1  0
  2 37  1  0
  4 38  1  0
  4 39  1  0
  5 40  1  0
  5 41  1  0
  5 42  1  0
  6 43  1  0
  6 44  1  0
  7 45  1  0
  7 46  1  0
 10 47  1  0
 11 48  1  0
 14 49  1  0
 15 50  1  0
 19 51  1  6
 20 52  1  0
 20 53  1  0
 21 54  1  0
 21 55  1  0
 23 56  1  0
 24 57  1  0
 25 58  1  0
 26 59  1  0
 28 60  1  0
 28 61  1  0
 29 62  1  0
 30 63  1  0
 31 64  1  0
 32 65  1  0
M  CHG  1  19   1
M  END
>  <UniqueID>  (40) 
36

>  <SMILES>  (40) 
CCN(CC)CCOc1ccc(-c2ccc(C(=O)[N@@H+]3CCc4ccccc4C3)cc2)cc1

>  <Energy>  (40) 
89.84226038264035

>  <Genealogy>  (40) 
CCN(CC)CCOc1ccc(-c2ccc(C(=O)[NH+]3CCc4ccccc4C3)cc2)cc1 (protonated)
CCN(CC)CCOc1ccc(-c2ccc(C(=O)[N@@H+]3CCc4ccccc4C3)cc2)cc1 (chirality)
CCN(CC)CCOc1ccc(-c2ccc(C(=O)[N@@H+]3CCc4ccccc4C3)cc2)cc1 (3D coordinates assigned)
CCN(CC)CCOc1ccc(-c2ccc(C(=O)[N@@H+]3CCc4ccccc4C3)cc2)cc1 (nonaromatic ring conformer: 89.84226038264035 kcal/mol)

>  <smiles>  (40) 
CCN(CC)CCOc1ccc(-c2ccc(C(=O)N3CCc4ccccc4C3)cc2)cc1

>  <score_type>  (40) 
oracle

>  <origin>  (40) 
adg

>  <m_score__min__energy>  (40) 
-9.1199999999999992

>  <m_primary>  (40) 
energy

$$$$
41:0
     RDKit          3D

 43 44  0  0  0  0  0  0  0  0999 V2000
   -6.1260   19.2470  -34.0320 C   0  0  0  0  0  0  0  0  0  0  0  0
   -5.5200   18.7440  -32.7230 C   0  0  0  0  0  0  0  0  0  0  0  0
   -6.5330   17.9810  -31.8550 C   0  0  0  0  0  0  0  0  0  0  0  0
   -7.9810   18.1620  -32.3440 C   0  0  0  0  0  0  0  0  0  0  0  0
   -8.7200   19.2830  -31.5970 C   0  0  0  0  0  0  0  0  0  0  0  0
   -9.0950   20.4530  -32.5140 C   0  0  0  0  0  0  0  0  0  0  0  0
   -9.0780   21.9950  -31.6160 S   0  0  0  0  0  0  0  0  0  0  0  0
   -9.9730   21.8960  -30.4130 O   0  0  0  0  0  0  0  0  0  0  0  0
   -9.5750   23.1080  -32.4980 O   0  0  0  0  0  0  0  0  0  0  0  0
   -7.4300   22.3400  -31.1020 C   0  0  0  0  0  0  0  0  0  0  0  0
   -7.1820   22.8330  -29.8170 C   0  0  0  0  0  0  0  0  0  0  0  0
   -5.8730   23.0900  -29.4020 C   0  0  0  0  0  0  0  0  0  0  0  0
   -4.7910   22.8560  -30.2680 C   0  0  0  0  0  0  0  0  0  0  0  0
   -3.4180   23.1520  -29.8010 C   0  0  0  0  0  0  0  0  0  0  0  0
   -2.4150   22.1700  -29.8610 C   0  0  0  0  0  0  0  0  0  0  0  0
   -1.1150   22.4610  -29.4370 C   0  0  0  0  0  0  0  0  0  0  0  0
   -0.8050   23.7360  -28.9550 C   0  0  0  0  0  0  0  0  0  0  0  0
   -1.7930   24.7230  -28.9040 C   0  0  0  0  0  0  0  0  0  0  0  0
   -3.0940   24.4350  -29.3280 C   0  0  0  0  0  0  0  0  0  0  0  0
   -5.0420   22.3380  -31.5580 C   0  0  0  0  0  0  0  0  0  0  0  0
   -3.7360   21.9280  -32.6670 Cl  0  0  0  0  0  0  0  0  0  0  0  0
   -6.3580   22.0840  -31.9650 C   0  0  0  0  0  0  0  0  0  0  0  0
   -6.9552   19.9353  -33.8115 H   0  0  0  0  0  0  0  0  0  0  0  0
   -5.3559   19.7750  -34.6135 H   0  0  0  0  0  0  0  0  0  0  0  0
   -6.5032   18.3929  -34.6135 H   0  0  0  0  0  0  0  0  0  0  0  0
   -4.6818   18.0718  -32.9587 H   0  0  0  0  0  0  0  0  0  0  0  0
   -5.1881   19.6231  -32.1511 H   0  0  0  0  0  0  0  0  0  0  0  0
   -6.2833   16.9100  -31.8801 H   0  0  0  0  0  0  0  0  0  0  0  0
   -6.4714   18.3863  -30.8343 H   0  0  0  0  0  0  0  0  0  0  0  0
   -7.9630   18.4054  -33.4166 H   0  0  0  0  0  0  0  0  0  0  0  0
   -8.5183   17.2218  -32.1509 H   0  0  0  0  0  0  0  0  0  0  0  0
   -9.6405   18.8684  -31.1602 H   0  0  0  0  0  0  0  0  0  0  0  0
   -8.0426   19.6704  -30.8217 H   0  0  0  0  0  0  0  0  0  0  0  0
   -8.3713   20.5093  -33.3405 H   0  0  0  0  0  0  0  0  0  0  0  0
  -10.1097   20.2837  -32.9034 H   0  0  0  0  0  0  0  0  0  0  0  0
   -8.0209   23.0192  -29.1303 H   0  0  0  0  0  0  0  0  0  0  0  0
   -5.6877   23.4785  -28.3897 H   0  0  0  0  0  0  0  0  0  0  0  0
   -2.6539   21.1668  -30.2437 H   0  0  0  0  0  0  0  0  0  0  0  0
   -0.3356   21.6862  -29.4827 H   0  0  0  0  0  0  0  0  0  0  0  0
    0.2166   23.9624  -28.6159 H   0  0  0  0  0  0  0  0  0  0  0  0
   -1.5469   25.7277  -28.5298 H   0  0  0  0  0  0  0  0  0  0  0  0
   -3.8674   25.2163  -29.2911 H   0  0  0  0  0  0  0  0  0  0  0  0
   -6.5505   21.6804  -32.9700 H   0  0  0  0  0  0  0  0  0  0  0  0
  1  2  1  0
  2  3  1  0
  3  4  1  0
  4  5  1  0
  5  6  1  0
  6  7  1  0
  7  8  2  0
  7  9  2  0
  7 10  1  0
 10 11  2  0
 11 12  1  0
 12 13  2  0
 13 14  1  0
 14 15  2  0
 15 16  1  0
 16 17  2  0
 17 18  1  0
 18 19  2  0
 13 20  1  0
 20 21  1  0
 20 22  2  0
 22 10  1  0
 19 14  1  0
  1 23  1  0
  1 24  1  0
  1 25  1  0
  2 26  1  0
  2 27  1  0
  3 28  1  0
  3 29  1  0
  4 30  1  0
  4 31  1  0
  5 32  1  0
  5 33  1  0
  6 34  1  0
  6 35  1  0
 11 36  1  0
 12 37  1  0
 15 38  1  0
 16 39  1  0
 17 40  1  0
 18 41  1  0
 19 42  1  0
 22 43  1  0
M  END
>  <UniqueID>  (41) 
37

>  <SMILES>  (41) 
CCCCCCS(=O)(=O)c1ccc(-c2ccccc2)c(Cl)c1

>  <Energy>  (41) 
38.587952833232144

>  <Genealogy>  (41) 
CCCCCCS(=O)(=O)c1ccc(-c2ccccc2)c(Cl)c1 (3D coordinates assigned)
CCCCCCS(=O)(=O)c1ccc(-c2ccccc2)c(Cl)c1 (optimized conformer: 38.587952833232144 kcal/mol)

>  <smiles>  (41) 
CCCCCCS(=O)(=O)c1ccc(-c2ccccc2)c(Cl)c1

>  <score_type>  (41) 
oracle

>  <origin>  (41) 
adg

>  <m_score__min__energy>  (41) 
-9.1999999999999993

>  <m_primary>  (41) 
energy

$$$$
42:0
     RDKit          3D

 43 43  0  0  0  0  0  0  0  0999 V2000
   -3.6100   19.4050  -33.6690 C   0  0  0  0  0  0  0  0  0  0  0  0
   -4.9550   19.8320  -33.1790 C   0  0  0  0  0  0  0  0  0  0  0  0
   -6.0520   19.0500  -33.2260 N   0  0  0  0  0  0  0  0  0  0  0  0
   -7.0650   19.7500  -32.7390 N   0  0  0  0  0  0  0  0  0  0  0  0
   -8.4180   19.2150  -32.5960 C   0  0  0  0  0  0  0  0  0  0  0  0
   -8.6880   18.9540  -31.2650 F   0  0  0  0  0  0  0  0  0  0  0  0
   -9.3320   20.1350  -33.0750 F   0  0  0  0  0  0  0  0  0  0  0  0
   -6.6330   20.9710  -32.3500 C   0  0  0  0  0  0  0  0  0  0  0  0
   -7.5020   22.0500  -31.7720 C   0  0  0  0  0  0  0  0  0  0  0  0
   -5.2860   21.0710  -32.6540 C   0  0  0  0  0  0  0  0  0  0  0  0
   -4.3640   22.2280  -32.3970 C   0  0  0  0  0  0  0  0  0  0  0  0
   -3.4830   21.9540  -31.1760 C   0  0  0  0  0  0  0  0  0  0  0  0
   -2.6280   23.1010  -30.8970 N   0  0  0  0  0  0  0  0  0  0  0  0
   -2.5340   23.7230  -29.6100 C   0  0  0  0  0  0  0  0  0  0  0  0
   -2.1420   24.9180  -29.5130 O   0  0  0  0  0  0  0  0  0  0  0  0
   -2.9150   22.9280  -28.3910 C   0  0  0  0  0  0  0  0  0  0  0  0
   -4.3850   23.0940  -27.9810 C   0  0  0  0  0  0  0  0  0  0  0  0
   -4.9520   24.3230  -28.5550 N   0  0  0  0  0  0  0  0  0  0  0  0
   -5.8510   24.0390  -29.6900 C   0  0  0  0  0  0  0  0  0  0  0  0
   -5.5760   24.9310  -30.9180 C   0  0  0  0  0  0  0  0  0  0  0  0
   -4.2760   25.5970  -30.8430 N   0  0  0  0  0  0  0  0  0  0  0  0
   -2.9556   19.1973  -32.8096 H   0  0  0  0  0  0  0  0  0  0  0  0
   -3.7137   18.4956  -34.2791 H   0  0  0  0  0  0  0  0  0  0  0  0
   -3.1702   20.2077  -34.2791 H   0  0  0  0  0  0  0  0  0  0  0  0
   -8.4947   18.2802  -33.1707 H   0  0  0  0  0  0  0  0  0  0  0  0
   -7.4638   22.0026  -30.6737 H   0  0  0  0  0  0  0  0  0  0  0  0
   -7.1400   23.0324  -32.1094 H   0  0  0  0  0  0  0  0  0  0  0  0
   -8.5390   21.9057  -32.1094 H   0  0  0  0  0  0  0  0  0  0  0  0
   -3.7233   22.3822  -33.2778 H   0  0  0  0  0  0  0  0  0  0  0  0
   -4.9682   23.1267  -32.2038 H   0  0  0  0  0  0  0  0  0  0  0  0
   -4.1238   21.7592  -30.3034 H   0  0  0  0  0  0  0  0  0  0  0  0
   -2.8491   21.0792  -31.3832 H   0  0  0  0  0  0  0  0  0  0  0  0
   -2.7304   21.8637  -28.5988 H   0  0  0  0  0  0  0  0  0  0  0  0
   -2.3041   23.3048  -27.5574 H   0  0  0  0  0  0  0  0  0  0  0  0
   -4.9600   22.2287  -28.3423 H   0  0  0  0  0  0  0  0  0  0  0  0
   -4.4397   23.1595  -26.8843 H   0  0  0  0  0  0  0  0  0  0  0  0
   -4.1740   24.9620  -28.8440 H   0  0  0  0  0  0  0  0  0  0  0  0
   -5.7207   22.9873  -29.9851 H   0  0  0  0  0  0  0  0  0  0  0  0
   -6.8777   24.2490  -29.3556 H   0  0  0  0  0  0  0  0  0  0  0  0
   -5.6006   24.3049  -31.8221 H   0  0  0  0  0  0  0  0  0  0  0  0
   -6.3513   25.7108  -30.9467 H   0  0  0  0  0  0  0  0  0  0  0  0
   -3.5360   24.9510  -31.2010 H   0  0  0  0  0  0  0  0  0  0  0  0
   -4.0630   25.8220  -29.8450 H   0  0  0  0  0  0  0  0  0  0  0  0
  1  2  1  0
  2  3  2  0
  3  4  1  0
  4  5  1  0
  5  6  1  0
  5  7  1  0
  4  8  1  0
  8  9  1  0
  8 10  2  0
 10 11  1  0
 11 12  1  0
 12 13  1  0
 13 14  1  0
 14 15  2  0
 14 16  1  0
 16 17  1  0
 17 18  1  0
 18 19  1  0
 19 20  1  0
 20 21  1  0
 10  2  1  0
  1 22  1  0
  1 23  1  0
  1 24  1  0
  5 25  1  0
  9 26  1  0
  9 27  1  0
  9 28  1  0
 11 29  1  0
 11 30  1  0
 12 31  1  0
 12 32  1  0
 16 33  1  0
 16 34  1  0
 17 35  1  0
 17 36  1  0
 18 37  1  0
 19 38  1  0
 19 39  1  0
 20 40  1  0
 20 41  1  0
 21 42  1  0
 21 43  1  0
M  CHG  1  13  -1
M  END
>  <UniqueID>  (42) 
38

>  <SMILES>  (42) 
Cc1nn(C(F)F)c(C)c1CC[N-]C(=O)CCNCCN

>  <Energy>  (42) 
61.0031715181901

>  <Genealogy>  (42) 
Cc1nn(C(F)F)c(C)c1CC[N-]C(=O)CCNCCN (protonated)
Cc1nn(C(F)F)c(C)c1CC[N-]C(=O)CCNCCN (3D coordinates assigned)
Cc1nn(C(F)F)c(C)c1CC[N-]C(=O)CCNCCN (optimized conformer: 61.0031715181901 kcal/mol)

>  <smiles>  (42) 
Cc1nn(C(F)F)c(C)c1CCNC(=O)CCNCCN

>  <score_type>  (42) 
oracle

>  <origin>  (42) 
adg

>  <m_score__min__energy>  (42) 
-7.46

>  <m_primary>  (42) 
energy

$$$$
43:0
     RDKit          3D

 48 50  0  0  0  0  0  0  0  0999 V2000
   -2.1380   21.0100  -29.6880 C   0  0  0  0  0  0  0  0  0  0  0  0
   -3.1900   20.4570  -30.6430 C   0  0  0  0  0  0  0  0  0  0  0  0
   -2.6330   20.3590  -32.0120 N   0  0  0  0  0  0  0  0  0  0  0  0
   -2.9870   21.5260  -32.8470 C   0  0  0  0  0  0  0  0  0  0  0  0
   -4.4940   21.5700  -33.1860 C   0  0  0  0  0  0  0  0  0  0  0  0
   -5.1260   20.2450  -33.0310 N   0  0  0  0  0  0  0  0  0  0  0  0
   -6.5050   20.1920  -33.5610 C   0  0  0  0  0  0  0  0  0  0  0  0
   -7.5160   19.6770  -32.5660 C   0  0  0  0  0  0  0  0  0  0  0  0
   -7.6030   18.3880  -32.1840 N   0  0  0  0  0  0  0  0  0  0  0  0
   -8.6000   18.3670  -31.3110 N   0  0  0  0  0  0  0  0  0  0  0  0
   -9.1110   19.5760  -31.1450 N   0  0  0  0  0  0  0  0  0  0  0  0
   -8.4530   20.4120  -31.9280 N   0  0  0  0  0  0  0  0  0  0  0  0
   -8.6730   21.8570  -31.9580 C   0  0  0  0  0  0  0  0  0  0  0  0
   -7.4190   22.5860  -31.5550 C   0  0  0  0  0  0  0  0  0  0  0  0
   -6.7420   22.2250  -30.3800 C   0  0  0  0  0  0  0  0  0  0  0  0
   -5.5710   22.8890  -30.0060 C   0  0  0  0  0  0  0  0  0  0  0  0
   -5.0600   23.9320  -30.8020 C   0  0  0  0  0  0  0  0  0  0  0  0
   -3.8890   24.6290  -30.4700 O   0  0  0  0  0  0  0  0  0  0  0  0
   -3.0420   24.3020  -29.3730 C   0  0  0  0  0  0  0  0  0  0  0  0
   -5.7410   24.2940  -31.9710 C   0  0  0  0  0  0  0  0  0  0  0  0
   -6.9120   23.6290  -32.3460 C   0  0  0  0  0  0  0  0  0  0  0  0
   -4.2590   19.1710  -33.5410 C   0  0  0  0  0  0  0  0  0  0  0  0
   -2.9800   19.0810  -32.6830 C   0  0  0  0  0  0  0  0  0  0  0  0
   -2.4600   20.8407  -28.6499 H   0  0  0  0  0  0  0  0  0  0  0  0
   -1.1796   20.4991  -29.8625 H   0  0  0  0  0  0  0  0  0  0  0  0
   -2.0154   22.0891  -29.8625 H   0  0  0  0  0  0  0  0  0  0  0  0
   -3.4999   19.4575  -30.3038 H   0  0  0  0  0  0  0  0  0  0  0  0
   -4.0572   21.1337  -30.6546 H   0  0  0  0  0  0  0  0  0  0  0  0
   -2.7200   22.4440  -32.3030 H   0  0  0  0  0  0  0  0  0  0  0  0
   -2.4319   21.4433  -33.7930 H   0  0  0  0  0  0  0  0  0  0  0  0
   -4.9907   22.2832  -32.5117 H   0  0  0  0  0  0  0  0  0  0  0  0
   -4.6010   21.8810  -34.2357 H   0  0  0  0  0  0  0  0  0  0  0  0
   -6.8006   21.2076  -33.8630 H   0  0  0  0  0  0  0  0  0  0  0  0
   -6.4983   19.4889  -34.4069 H   0  0  0  0  0  0  0  0  0  0  0  0
   -8.9320   17.5120  -30.8140 H   0  0  0  0  0  0  0  0  0  0  0  0
   -8.9569   22.1596  -32.9768 H   0  0  0  0  0  0  0  0  0  0  0  0
   -9.4767   22.1108  -31.2512 H   0  0  0  0  0  0  0  0  0  0  0  0
   -7.1357   21.4142  -29.7495 H   0  0  0  0  0  0  0  0  0  0  0  0
   -5.0457   22.5955  -29.0852 H   0  0  0  0  0  0  0  0  0  0  0  0
   -3.5692   24.5055  -28.4293 H   0  0  0  0  0  0  0  0  0  0  0  0
   -2.7747   23.2361  -29.4212 H   0  0  0  0  0  0  0  0  0  0  0  0
   -2.1278   24.9118  -29.4212 H   0  0  0  0  0  0  0  0  0  0  0  0
   -5.3512   25.1084  -32.5993 H   0  0  0  0  0  0  0  0  0  0  0  0
   -7.4387   23.9244  -33.2654 H   0  0  0  0  0  0  0  0  0  0  0  0
   -4.7981   18.2133  -33.4947 H   0  0  0  0  0  0  0  0  0  0  0  0
   -3.9830   19.3906  -34.5829 H   0  0  0  0  0  0  0  0  0  0  0  0
   -3.1301   18.3111  -31.9118 H   0  0  0  0  0  0  0  0  0  0  0  0
   -2.1497   18.8322  -33.3603 H   0  0  0  0  0  0  0  0  0  0  0  0
  1  2  1  0
  2  3  1  0
  3  4  1  0
  4  5  1  0
  5  6  1  0
  6  7  1  0
  7  8  1  0
  8  9  2  0
  9 10  1  0
 10 11  2  0
 11 12  1  0
 12 13  1  0
 13 14  1  0
 14 15  2  0
 15 16  1  0
 16 17  2  0
 17 18  1  0
 18 19  1  0
 17 20  1  0
 20 21  2  0
  6 22  1  0
 22 23  1  0
 23  3  1  0
 12  8  1  0
 21 14  1  0
  1 24  1  0
  1 25  1  0
  1 26  1  0
  2 27  1  0
  2 28  1  0
  4 29  1  0
  4 30  1  0
  5 31  1  0
  5 32  1  0
  7 33  1  0
  7 34  1  0
 10 35  1  0
 13 36  1  0
 13 37  1  0
 15 38  1  0
 16 39  1  0
 19 40  1  0
 19 41  1  0
 19 42  1  0
 20 43  1  0
 21 44  1  0
 22 45  1  0
 22 46  1  0
 23 47  1  0
 23 48  1  0
M  CHG  1  10   1
M  END
>  <UniqueID>  (43) 
39

>  <SMILES>  (43) 
CCN1CCN(Cc2n[nH+]nn2Cc2ccc(OC)cc2)CC1

>  <Energy>  (43) 
97.77128190415563

>  <Genealogy>  (43) 
CCN1CCN(Cc2n[nH+]nn2Cc2ccc(OC)cc2)CC1 (protonated)
CCN1CCN(Cc2n[nH+]nn2Cc2ccc(OC)cc2)CC1 (3D coordinates assigned)
CCN1CCN(Cc2n[nH+]nn2Cc2ccc(OC)cc2)CC1 (nonaromatic ring conformer: 97.77128190415563 kcal/mol)

>  <smiles>  (43) 
CCN1CCN(Cc2nnnn2Cc2ccc(OC)cc2)CC1

>  <score_type>  (43) 
oracle

>  <origin>  (43) 
adg

>  <m_score__min__energy>  (43) 
-7.9500000000000002

>  <m_primary>  (43) 
energy

$$$$
44:0
     RDKit          3D

 52 54  0  0  0  0  0  0  0  0999 V2000
   -9.6060   21.8600  -30.9240 C   0  0  0  0  0  0  0  0  0  0  0  0
   -9.0910   22.8450  -31.9730 C   0  0  0  0  0  0  0  0  0  0  0  0
   -7.5970   23.1650  -31.8110 C   0  0  0  0  0  0  0  0  0  0  0  0
   -7.1330   23.0820  -30.3460 C   0  0  0  0  0  0  0  0  0  0  0  0
   -6.1440   24.1980  -29.9770 C   0  0  0  0  0  0  0  0  0  0  0  0
   -5.2320   24.5990  -31.1470 C   0  0  0  0  0  0  0  0  0  0  0  0
   -3.8550   24.1580  -30.8850 N   0  0  0  0  0  0  0  0  0  0  0  0
   -3.7080   22.6980  -30.9980 C   0  0  0  0  0  0  0  0  0  0  0  0
   -4.3560   22.2110  -32.2950 C   0  0  0  0  0  0  0  0  0  0  0  0
   -3.7880   20.8750  -32.7060 C   0  0  0  0  0  0  0  0  0  0  0  0
   -4.4860   19.6820  -32.9460 C   0  0  0  0  0  0  0  0  0  0  0  0
   -5.9140   19.4300  -32.6770 C   0  0  0  0  0  0  0  0  0  0  0  0
   -6.8950   20.1920  -33.3330 C   0  0  0  0  0  0  0  0  0  0  0  0
   -8.2510   19.9610  -33.0850 C   0  0  0  0  0  0  0  0  0  0  0  0
   -8.6390   18.9580  -32.1920 C   0  0  0  0  0  0  0  0  0  0  0  0
   -7.6700   18.1800  -31.5520 C   0  0  0  0  0  0  0  0  0  0  0  0
   -6.3120   18.4100  -31.7960 C   0  0  0  0  0  0  0  0  0  0  0  0
   -3.6840   18.7770  -33.5560 N   0  0  0  0  0  0  0  0  0  0  0  0
   -2.4950   19.3790  -33.7110 C   0  0  0  0  0  0  0  0  0  0  0  0
   -1.3640   18.8570  -34.3380 C   0  0  0  0  0  0  0  0  0  0  0  0
   -0.2340   19.6860  -34.4530 C   0  0  0  0  0  0  0  0  0  0  0  0
   -0.2630   21.0070  -33.9530 C   0  0  0  0  0  0  0  0  0  0  0  0
   -1.4210   21.5080  -33.3310 C   0  0  0  0  0  0  0  0  0  0  0  0
   -2.5200   20.6570  -33.2150 C   0  0  0  0  0  0  0  0  0  0  0  0
   -9.3997   22.2545  -29.9181 H   0  0  0  0  0  0  0  0  0  0  0  0
  -10.6904   21.7244  -31.0495 H   0  0  0  0  0  0  0  0  0  0  0  0
   -9.0985   20.8921  -31.0495 H   0  0  0  0  0  0  0  0  0  0  0  0
   -9.2505   22.4102  -32.9708 H   0  0  0  0  0  0  0  0  0  0  0  0
   -9.6459   23.7858  -31.8426 H   0  0  0  0  0  0  0  0  0  0  0  0
   -7.0154   22.4460  -32.4067 H   0  0  0  0  0  0  0  0  0  0  0  0
   -7.4367   24.1975  -32.1548 H   0  0  0  0  0  0  0  0  0  0  0  0
   -8.0140   23.1612  -29.6921 H   0  0  0  0  0  0  0  0  0  0  0  0
   -6.6156   22.1203  -30.2137 H   0  0  0  0  0  0  0  0  0  0  0  0
   -6.7154   25.0822  -29.6582 H   0  0  0  0  0  0  0  0  0  0  0  0
   -5.4995   23.8153  -29.1719 H   0  0  0  0  0  0  0  0  0  0  0  0
   -5.5962   24.1265  -32.0712 H   0  0  0  0  0  0  0  0  0  0  0  0
   -5.2459   25.6934  -31.2569 H   0  0  0  0  0  0  0  0  0  0  0  0
   -3.2230   24.6050  -31.5880 H   0  0  0  0  0  0  0  0  0  0  0  0
   -2.6392   22.4379  -31.0037 H   0  0  0  0  0  0  0  0  0  0  0  0
   -4.2022   22.2158  -30.1417 H   0  0  0  0  0  0  0  0  0  0  0  0
   -5.4405   22.1104  -32.1412 H   0  0  0  0  0  0  0  0  0  0  0  0
   -4.1495   22.9427  -33.0899 H   0  0  0  0  0  0  0  0  0  0  0  0
   -6.5945   20.9744  -34.0454 H   0  0  0  0  0  0  0  0  0  0  0  0
   -9.0138   20.5692  -33.5932 H   0  0  0  0  0  0  0  0  0  0  0  0
   -9.7063   18.7811  -31.9930 H   0  0  0  0  0  0  0  0  0  0  0  0
   -7.9759   17.3856  -30.8553 H   0  0  0  0  0  0  0  0  0  0  0  0
   -5.5528   17.7902  -31.2965 H   0  0  0  0  0  0  0  0  0  0  0  0
   -3.9450   17.8150  -33.8700 H   0  0  0  0  0  0  0  0  0  0  0  0
   -1.3561   17.8293  -34.7302 H   0  0  0  0  0  0  0  0  0  0  0  0
    0.6778   19.3037  -34.9351 H   0  0  0  0  0  0  0  0  0  0  0  0
    0.6256   21.6479  -34.0507 H   0  0  0  0  0  0  0  0  0  0  0  0
   -1.4586   22.5385  -32.9481 H   0  0  0  0  0  0  0  0  0  0  0  0
  1  2  1  0
  2  3  1  0
  3  4  1  0
  4  5  1  0
  5  6  1  0
  6  7  1  0
  7  8  1  0
  8  9  1  0
  9 10  1  0
 10 11  2  0
 11 12  1  0
 12 13  2  0
 13 14  1  0
 14 15  2  0
 15 16  1  0
 16 17  2  0
 11 18  1  0
 18 19  1  0
 19 20  2  0
 20 21  1  0
 21 22  2  0
 22 23  1  0
 23 24  2  0
 24 10  1  0
 17 12  1  0
 24 19  1  0
  1 25  1  0
  1 26  1  0
  1 27  1  0
  2 28  1  0
  2 29  1  0
  3 30  1  0
  3 31  1  0
  4 32  1  0
  4 33  1  0
  5 34  1  0
  5 35  1  0
  6 36  1  0
  6 37  1  0
  7 38  1  0
  8 39  1  0
  8 40  1  0
  9 41  1  0
  9 42  1  0
 13 43  1  0
 14 44  1  0
 15 45  1  0
 16 46  1  0
 17 47  1  0
 18 48  1  0
 20 49  1  0
 21 50  1  0
 22 51  1  0
 23 52  1  0
M  END
>  <UniqueID>  (44) 
40

>  <SMILES>  (44) 
CCCCCCNCCc1c(-c2ccccc2)[nH]c2ccccc12

>  <Energy>  (44) 
77.49642187062753

>  <Genealogy>  (44) 
CCCCCCNCCc1c(-c2ccccc2)[nH]c2ccccc12 (3D coordinates assigned)
CCCCCCNCCc1c(-c2ccccc2)[nH]c2ccccc12 (optimized conformer: 77.49642187062753 kcal/mol)

>  <smiles>  (44) 
CCCCCCNCCc1c(-c2ccccc2)[nH]c2ccccc12

>  <score_type>  (44) 
oracle

>  <origin>  (44) 
adg

>  <m_score__min__energy>  (44) 
-8.3499999999999996

>  <m_primary>  (44) 
energy

$$$$
45:0
     RDKit          3D

 18 18  0  0  0  0  0  0  0  0999 V2000
    0.6600   27.5530  -22.4230 N   0  0  0  0  0  0  0  0  0  0  0  0
    0.3890   27.1880  -23.8140 C   0  0  0  0  0  0  0  0  0  0  0  0
   -1.0850   26.8150  -24.0320 C   0  0  0  0  0  0  0  0  0  0  0  0
   -1.3170   26.2360  -25.3940 C   0  0  0  0  0  0  0  0  0  0  0  0
   -2.3120   25.3290  -25.7340 C   0  0  0  0  0  0  0  0  0  0  0  0
   -2.2590   24.9310  -27.0750 C   0  0  0  0  0  0  0  0  0  0  0  0
   -1.2220   25.5170  -27.7900 C   0  0  0  0  0  0  0  0  0  0  0  0
   -0.3690   26.5290  -26.7520 S   0  0  0  0  0  0  0  0  0  0  0  0
    1.6880   27.5230  -22.2330 H   0  0  0  0  0  0  0  0  0  0  0  0
    0.1600   26.9030  -21.7740 H   0  0  0  0  0  0  0  0  0  0  0  0
    0.3140   28.5240  -22.2520 H   0  0  0  0  0  0  0  0  0  0  0  0
    0.6391   28.0419  -24.4608 H   0  0  0  0  0  0  0  0  0  0  0  0
    1.0030   26.3095  -24.0615 H   0  0  0  0  0  0  0  0  0  0  0  0
   -1.3803   26.0736  -23.2750 H   0  0  0  0  0  0  0  0  0  0  0  0
   -1.6863   27.7318  -23.9434 H   0  0  0  0  0  0  0  0  0  0  0  0
   -3.0652   24.9607  -25.0220 H   0  0  0  0  0  0  0  0  0  0  0  0
   -2.9714   24.2211  -27.5207 H   0  0  0  0  0  0  0  0  0  0  0  0
   -0.9971   25.3480  -28.8534 H   0  0  0  0  0  0  0  0  0  0  0  0
  1  2  1  0
  2  3  1  0
  3  4  1  0
  4  5  2  0
  5  6  1  0
  6  7  2  0
  7  8  1  0
  8  4  1  0
  1  9  1  0
  1 10  1  0
  1 11  1  0
  2 12  1  0
  2 13  1  0
  3 14  1  0
  3 15  1  0
  5 16  1  0
  6 17  1  0
  7 18  1  0
M  CHG  1   1   1
M  END
>  <UniqueID>  (45) 
41

>  <SMILES>  (45) 
[NH3+]CCc1cccs1

>  <Energy>  (45) 
37.609436266072414

>  <Genealogy>  (45) 
[NH3+]CCc1cccs1 (protonated)
[NH3+]CCc1cccs1 (3D coordinates assigned)
[NH3+]CCc1cccs1 (optimized conformer: 37.609436266072414 kcal/mol)

>  <smiles>  (45) 
NCCc1cccs1

>  <score_type>  (45) 
oracle

>  <origin>  (45) 
adg

>  <m_score__min__energy>  (45) 
-4.1799999999999997

>  <m_primary>  (45) 
energy

$$$$
46:0
     RDKit          3D

 41 42  0  0  0  0  0  0  0  0999 V2000
   -2.3530   25.3880  -26.3120 C   0  0  0  0  0  0  0  0  0  0  0  0
   -2.6510   24.3480  -27.3810 C   0  0  0  0  0  0  0  0  0  0  0  0
   -1.9070   24.7720  -28.9500 S   0  0  0  0  0  0  0  0  0  0  0  0
   -1.2230   26.1010  -28.8020 O   0  0  0  0  0  0  0  0  0  0  0  0
   -0.8690   23.7560  -29.3400 O   0  0  0  0  0  0  0  0  0  0  0  0
   -3.1180   24.9230  -30.1850 N   0  0  0  0  0  0  0  0  0  0  0  0
   -4.4870   24.4860  -30.1390 C   0  0  0  0  0  0  0  0  0  0  0  0
   -5.5580   25.3980  -30.2080 C   0  0  0  0  0  0  0  0  0  0  0  0
   -6.8790   24.9480  -30.1660 C   0  0  0  0  0  0  0  0  0  0  0  0
   -7.1530   23.5860  -30.0600 C   0  0  0  0  0  0  0  0  0  0  0  0
   -6.1050   22.6680  -29.9950 C   0  0  0  0  0  0  0  0  0  0  0  0
   -4.7680   23.1020  -30.0300 C   0  0  0  0  0  0  0  0  0  0  0  0
   -3.6630   22.0650  -29.9490 C   0  0  0  0  0  0  0  0  0  0  0  0
   -2.6690   22.2100  -31.0430 N   0  0  0  0  0  0  0  0  0  0  0  0
   -3.3170   22.2190  -32.3890 C   0  0  0  0  0  0  0  0  0  0  0  0
   -3.3040   20.8410  -33.0640 C   0  0  0  0  0  0  0  0  0  0  0  0
   -1.8630   20.3490  -33.2810 C   0  0  0  0  0  0  0  0  0  0  0  0
   -0.8880   20.8910  -32.2210 C   0  0  0  0  0  0  0  0  0  0  0  0
   -1.6170   21.1650  -30.8990 C   0  0  0  0  0  0  0  0  0  0  0  0
   -2.4819   24.9380  -25.3166 H   0  0  0  0  0  0  0  0  0  0  0  0
   -1.3174   25.7417  -26.4231 H   0  0  0  0  0  0  0  0  0  0  0  0
   -3.0442   26.2365  -26.4231 H   0  0  0  0  0  0  0  0  0  0  0  0
   -2.2558   23.3759  -27.0512 H   0  0  0  0  0  0  0  0  0  0  0  0
   -3.7412   24.3062  -27.5211 H   0  0  0  0  0  0  0  0  0  0  0  0
   -5.3518   26.4749  -30.2958 H   0  0  0  0  0  0  0  0  0  0  0  0
   -7.7063   25.6712  -30.2168 H   0  0  0  0  0  0  0  0  0  0  0  0
   -8.1950   23.2350  -30.0276 H   0  0  0  0  0  0  0  0  0  0  0  0
   -6.3267   21.5935  -29.9155 H   0  0  0  0  0  0  0  0  0  0  0  0
   -3.1454   22.1749  -28.9846 H   0  0  0  0  0  0  0  0  0  0  0  0
   -4.1268   21.0724  -30.0468 H   0  0  0  0  0  0  0  0  0  0  0  0
   -2.1890   23.1330  -30.9240 H   0  0  0  0  0  0  0  0  0  0  0  0
   -4.3615   22.5443  -32.2741 H   0  0  0  0  0  0  0  0  0  0  0  0
   -2.7436   22.9065  -33.0282 H   0  0  0  0  0  0  0  0  0  0  0  0
   -3.8375   20.1220  -32.4249 H   0  0  0  0  0  0  0  0  0  0  0  0
   -3.7976   20.9250  -34.0434 H   0  0  0  0  0  0  0  0  0  0  0  0
   -1.8555   19.2499  -33.2377 H   0  0  0  0  0  0  0  0  0  0  0  0
   -1.5285   20.7181  -34.2618 H   0  0  0  0  0  0  0  0  0  0  0  0
   -0.0945   20.1491  -32.0481 H   0  0  0  0  0  0  0  0  0  0  0  0
   -0.4572   21.8343  -32.5880 H   0  0  0  0  0  0  0  0  0  0  0  0
   -2.0884   20.2328  -30.5545 H   0  0  0  0  0  0  0  0  0  0  0  0
   -0.8752   21.5301  -30.1735 H   0  0  0  0  0  0  0  0  0  0  0  0
  1  2  1  0
  2  3  1  0
  3  4  2  0
  3  5  2  0
  3  6  1  0
  6  7  1  0
  7  8  2  0
  8  9  1  0
  9 10  2  0
 10 11  1  0
 11 12  2  0
 12 13  1  0
 13 14  1  0
 14 15  1  0
 15 16  1  0
 16 17  1  0
 17 18  1  0
 18 19  1  0
 12  7  1  0
 19 14  1  0
  1 20  1  0
  1 21  1  0
  1 22  1  0
  2 23  1  0
  2 24  1  0
  8 25  1  0
  9 26  1  0
 10 27  1  0
 11 28  1  0
 13 29  1  0
 13 30  1  0
 14 31  1  0
 15 32  1  0
 15 33  1  0
 16 34  1  0
 16 35  1  0
 17 36  1  0
 17 37  1  0
 18 38  1  0
 18 39  1  0
 19 40  1  0
 19 41  1  0
M  CHG  2   6  -1  14   1
M  END
>  <UniqueID>  (46) 
42

>  <SMILES>  (46) 
CCS(=O)(=O)[N-]c1ccccc1C[NH+]1CCCCC1

>  <Energy>  (46) 
46.467825216865606

>  <Genealogy>  (46) 
CCS(=O)(=O)[N-]c1ccccc1C[NH+]1CCCCC1 (protonated)
CCS(=O)(=O)[N-]c1ccccc1C[NH+]1CCCCC1 (3D coordinates assigned)
CCS(=O)(=O)[N-]c1ccccc1C[NH+]1CCCCC1 (nonaromatic ring conformer: 46.467825216865606 kcal/mol)

>  <smiles>  (46) 
CCS(=O)(=O)Nc1ccccc1CN1CCCCC1

>  <score_type>  (46) 
oracle

>  <origin>  (46) 
adg

>  <m_score__min__energy>  (46) 
-7.2599999999999998

>  <m_primary>  (46) 
energy

$$$$
47:0
     RDKit          3D

 30 31  0  0  0  0  0  0  0  0999 V2000
  -10.1186   22.6099  -32.2664 H   0  0  0  0  0  0  0  0  0  0  0  0
   -9.2870   21.9770  -31.9230 C   0  0  0  0  0  0  0  0  0  0  0  0
   -9.4700   20.6480  -31.9540 C   0  0  0  0  0  0  0  0  0  0  0  0
  -10.4676   20.2698  -31.6861 H   0  0  0  0  0  0  0  0  0  0  0  0
   -8.4430   19.6510  -32.3180 C   0  0  0  0  0  0  0  0  0  0  0  0
   -8.3010   18.3580  -31.8360 C   0  0  0  0  0  0  0  0  0  0  0  0
   -8.9841   17.8293  -31.1550 H   0  0  0  0  0  0  0  0  0  0  0  0
   -7.1320   17.8670  -32.3810 C   0  0  0  0  0  0  0  0  0  0  0  0
   -6.7240   16.8611  -32.2030 H   0  0  0  0  0  0  0  0  0  0  0  0
   -6.5660   18.8060  -33.1640 N   0  0  0  0  0  0  0  0  0  0  0  0
   -5.2720   18.7000  -33.8270 C   0  0  0  0  0  0  0  0  0  0  0  0
   -4.4765   18.6348  -33.0701 H   0  0  0  0  0  0  0  0  0  0  0  0
   -5.2549   17.7974  -34.4556 H   0  0  0  0  0  0  0  0  0  0  0  0
   -5.1082   19.5877  -34.4556 H   0  0  0  0  0  0  0  0  0  0  0  0
   -7.3410   19.9040  -33.1110 C   0  0  0  0  0  0  0  0  0  0  0  0
   -7.1298   20.8559  -33.6203 H   0  0  0  0  0  0  0  0  0  0  0  0
   -8.0590   22.6590  -31.4650 C   0  0  0  0  0  0  0  0  0  0  0  0
   -7.6120   22.4580  -30.1510 C   0  0  0  0  0  0  0  0  0  0  0  0
   -8.1913   21.8198  -29.4675 H   0  0  0  0  0  0  0  0  0  0  0  0
   -6.4330   23.0650  -29.7050 C   0  0  0  0  0  0  0  0  0  0  0  0
   -6.0920   22.9055  -28.6714 H   0  0  0  0  0  0  0  0  0  0  0  0
   -5.6840   23.8760  -30.5700 C   0  0  0  0  0  0  0  0  0  0  0  0
   -4.4000   24.4950  -30.1010 C   0  0  0  0  0  0  0  0  0  0  0  0
   -4.3782   24.5055  -29.0013 H   0  0  0  0  0  0  0  0  0  0  0  0
   -3.5502   23.9076  -30.4790 H   0  0  0  0  0  0  0  0  0  0  0  0
   -4.3303   25.5257  -30.4790 H   0  0  0  0  0  0  0  0  0  0  0  0
   -6.1040   24.0380  -31.8980 C   0  0  0  0  0  0  0  0  0  0  0  0
   -5.5042   24.6458  -32.5914 H   0  0  0  0  0  0  0  0  0  0  0  0
   -7.2810   23.4310  -32.3450 C   0  0  0  0  0  0  0  0  0  0  0  0
   -7.5999   23.5580  -33.3901 H   0  0  0  0  0  0  0  0  0  0  0  0
  1  2  1  0
  2  3  2  0
  3  4  1  0
  3  5  1  0
  5  6  1  0
  6  7  1  0
  6  8  2  0
  8  9  1  0
  8 10  1  0
 10 11  1  0
 11 12  1  0
 11 13  1  0
 11 14  1  0
 10 15  1  0
 15 16  1  0
  2 17  1  0
 17 18  2  0
 18 19  1  0
 18 20  1  0
 20 21  1  0
 20 22  2  0
 22 23  1  0
 23 24  1  0
 23 25  1  0
 23 26  1  0
 22 27  1  0
 27 28  1  0
 27 29  2  0
 29 30  1  0
 15  5  2  0
 29 17  1  0
M  END
>  <UniqueID>  (47) 
43

>  <SMILES>  (47) 
Cc1ccc(/C=C\c2ccn(C)c2)cc1

>  <Energy>  (47) 
62.03191727196306

>  <Genealogy>  (47) 
Cc1ccc(/C=C\c2ccn(C)c2)cc1 (cis-trans isomerization)
Cc1ccc(/C=C\c2ccn(C)c2)cc1 (3D coordinates assigned)
Cc1ccc(/C=C\c2ccn(C)c2)cc1 (optimized conformer: 62.03191727196306 kcal/mol)

>  <smiles>  (47) 
Cc1ccc(C=Cc2ccn(C)c2)cc1

>  <score_type>  (47) 
oracle

>  <origin>  (47) 
adg

>  <m_score__min__energy>  (47) 
-6.54

>  <m_primary>  (47) 
energy

$$$$
