1:0
     RDKit          3D

 58 61  0  0  0  0  0  0  0  0999 V2000
   -2.9940   21.5020  -33.0450 C   0  0  0  0  0  0  0  0  0  0  0  0
   -4.2680   20.6740  -33.0410 C   0  0  0  0  0  0  0  0  0  0  0  0
   -5.4260   21.4560  -32.8850 O   0  0  0  0  0  0  0  0  0  0  0  0
   -6.6600   20.9770  -32.4670 C   0  0  0  0  0  0  0  0  0  0  0  0
   -6.8930   19.6280  -32.3300 C   0  0  0  0  0  0  0  0  0  0  0  0
   -8.1080   19.1220  -31.9180 C   0  0  0  0  0  0  0  0  0  0  0  0
   -9.1060   20.0330  -31.6410 C   0  0  0  0  0  0  0  0  0  0  0  0
   -8.8760   21.4040  -31.7770 C   0  0  0  0  0  0  0  0  0  0  0  0
   -7.6560   21.9000  -32.1910 C   0  0  0  0  0  0  0  0  0  0  0  0
   -7.3880   23.3530  -32.3450 C   0  0  0  0  0  0  0  0  0  0  0  0
   -7.1090   23.8940  -31.0460 N   0  0  0  0  0  0  0  0  0  0  0  0
   -6.8490   22.8740  -30.0540 C   0  0  0  0  0  0  0  0  0  0  0  0
   -5.3750   22.5850  -29.9050 C   0  0  0  0  0  0  0  0  0  0  0  0
   -4.6100   23.7760  -29.6100 N   0  0  0  0  0  0  0  0  0  0  0  0
   -3.4400   23.7870  -30.4280 C   0  0  0  0  0  0  0  0  0  0  0  0
   -2.1490   23.9510  -29.6580 C   0  0  0  0  0  0  0  0  0  0  0  0
   -1.9250   25.2700  -29.2550 O   0  0  0  0  0  0  0  0  0  0  0  0
   -1.6040   25.6500  -27.9590 C   0  0  0  0  0  0  0  0  0  0  0  0
   -2.2880   25.0110  -26.9410 C   0  0  0  0  0  0  0  0  0  0  0  0
   -2.0690   25.2930  -25.6010 C   0  0  0  0  0  0  0  0  0  0  0  0
   -1.1180   26.2590  -25.3200 C   0  0  0  0  0  0  0  0  0  0  0  0
   -0.9030   26.5380  -23.9870 C   0  0  0  0  0  0  0  0  0  0  0  0
    0.0420   27.5000  -23.6650 C   0  0  0  0  0  0  0  0  0  0  0  0
    0.7040   28.1150  -24.7320 C   0  0  0  0  0  0  0  0  0  0  0  0
    1.5690   28.9960  -24.4830 O   0  0  0  0  0  0  0  0  0  0  0  0
    0.4450   27.7990  -25.9780 O   0  0  0  0  0  0  0  0  0  0  0  0
   -0.4400   26.8930  -26.3410 C   0  0  0  0  0  0  0  0  0  0  0  0
   -0.6580   26.6140  -27.6780 C   0  0  0  0  0  0  0  0  0  0  0  0
   -5.4270   24.9430  -29.7320 C   0  0  0  0  0  0  0  0  0  0  0  0
   -6.1110   24.9150  -31.0830 C   0  0  0  0  0  0  0  0  0  0  0  0
   -2.6843   21.7033  -32.0089 H   0  0  0  0  0  0  0  0  0  0  0  0
   -2.1983   20.9480  -33.5645 H   0  0  0  0  0  0  0  0  0  0  0  0
   -3.1771   22.4541  -33.5645 H   0  0  0  0  0  0  0  0  0  0  0  0
   -4.3369   20.1306  -33.9949 H   0  0  0  0  0  0  0  0  0  0  0  0
   -4.2140   19.9877  -32.1831 H   0  0  0  0  0  0  0  0  0  0  0  0
   -6.0780   18.9253  -32.5581 H   0  0  0  0  0  0  0  0  0  0  0  0
   -8.2739   18.0395  -31.8148 H   0  0  0  0  0  0  0  0  0  0  0  0
  -10.0925   19.6764  -31.3098 H   0  0  0  0  0  0  0  0  0  0  0  0
   -9.6896   22.1080  -31.5479 H   0  0  0  0  0  0  0  0  0  0  0  0
   -6.5220   23.5046  -33.0061 H   0  0  0  0  0  0  0  0  0  0  0  0
   -8.2594   23.8567  -32.7889 H   0  0  0  0  0  0  0  0  0  0  0  0
   -7.2429   23.2140  -29.0849 H   0  0  0  0  0  0  0  0  0  0  0  0
   -7.3425   21.9482  -30.3847 H   0  0  0  0  0  0  0  0  0  0  0  0
   -5.2368   21.8638  -29.0860 H   0  0  0  0  0  0  0  0  0  0  0  0
   -5.0127   22.1804  -30.8616 H   0  0  0  0  0  0  0  0  0  0  0  0
   -3.3950   22.8360  -30.9790 H   0  0  0  0  0  0  0  0  0  0  0  0
   -3.5259   24.6597  -31.0921 H   0  0  0  0  0  0  0  0  0  0  0  0
   -2.1891   23.3118  -28.7637 H   0  0  0  0  0  0  0  0  0  0  0  0
   -1.3245   23.6636  -30.3270 H   0  0  0  0  0  0  0  0  0  0  0  0
   -3.0357   24.2485  -27.2047 H   0  0  0  0  0  0  0  0  0  0  0  0
   -2.6221   24.7761  -24.8030 H   0  0  0  0  0  0  0  0  0  0  0  0
   -1.4653   26.0122  -23.2013 H   0  0  0  0  0  0  0  0  0  0  0  0
    0.2604   27.7666  -22.6204 H   0  0  0  0  0  0  0  0  0  0  0  0
   -0.1061   27.1334  -28.4753 H   0  0  0  0  0  0  0  0  0  0  0  0
   -6.1837   24.9507  -28.9336 H   0  0  0  0  0  0  0  0  0  0  0  0
   -4.8065   25.8470  -29.6436 H   0  0  0  0  0  0  0  0  0  0  0  0
   -6.5798   25.8893  -31.2853 H   0  0  0  0  0  0  0  0  0  0  0  0
   -5.3805   24.7096  -31.8793 H   0  0  0  0  0  0  0  0  0  0  0  0
  1  2  1  0
  2  3  1  0
  3  4  1  0
  4  5  2  0
  5  6  1  0
  6  7  2  0
  7  8  1  0
  8  9  2  0
  9 10  1  0
 10 11  1  0
 11 12  1  0
 12 13  1  0
 13 14  1  0
 14 15  1  0
 15 16  1  0
 16 17  1  0
 17 18  1  0
 18 19  2  0
 19 20  1  0
 20 21  2  0
 21 22  1  0
 22 23  2  0
 23 24  1  0
 24 25  2  0
 24 26  1  0
 26 27  1  0
 27 28  2  0
 14 29  1  0
 29 30  1  0
  9  4  1  0
 30 11  1  0
 28 18  1  0
 27 21  1  0
  1 31  1  0
  1 32  1  0
  1 33  1  0
  2 34  1  0
  2 35  1  0
  5 36  1  0
  6 37  1  0
  7 38  1  0
  8 39  1  0
 10 40  1  0
 10 41  1  0
 12 42  1  0
 12 43  1  0
 13 44  1  0
 13 45  1  0
 15 46  1  0
 15 47  1  0
 16 48  1  0
 16 49  1  0
 19 50  1  0
 20 51  1  0
 22 52  1  0
 23 53  1  0
 28 54  1  0
 29 55  1  0
 29 56  1  0
 30 57  1  0
 30 58  1  0
M  END
>  <smiles>  (1) 
CCOc1ccccc1CN1CCN(CCOc2ccc3ccc(=O)oc3c2)CC1

>  <score_type>  (1) 
oracle

>  <origin>  (1) 
adg

>  <m_score__min__energy>  (1) 
-9.5999999999999996

>  <m_primary>  (1) 
energy

$$$$
2:0
     RDKit          3D

 43 44  0  0  0  0  0  0  0  0999 V2000
   -1.8380   21.5160  -31.6640 C   0  0  0  0  0  0  0  0  0  0  0  0
   -1.2830   22.2610  -30.4700 C   0  0  0  0  0  0  0  0  0  0  0  0
   -2.0490   22.1200  -29.3010 N   0  0  0  0  0  0  0  0  0  0  0  0
   -3.1200   21.2100  -29.2620 C   0  0  0  0  0  0  0  0  0  0  0  0
   -2.0580   23.2010  -28.3640 C   0  0  0  0  0  0  0  0  0  0  0  0
   -2.0470   24.5490  -28.9740 C   0  0  0  0  0  0  0  0  0  0  0  0
   -3.1130   24.9590  -29.6920 O   0  0  0  0  0  0  0  0  0  0  0  0
   -4.3470   24.4880  -29.3610 C   0  0  0  0  0  0  0  0  0  0  0  0
   -5.3470   25.2200  -30.2630 C   0  0  0  0  0  0  0  0  0  0  0  0
   -5.3420   24.7280  -31.5790 O   0  0  0  0  0  0  0  0  0  0  0  0
   -5.8250   23.4360  -31.8730 C   0  0  0  0  0  0  0  0  0  0  0  0
   -4.9890   22.4480  -32.3540 C   0  0  0  0  0  0  0  0  0  0  0  0
   -5.4840   21.1750  -32.6390 C   0  0  0  0  0  0  0  0  0  0  0  0
   -6.8030   20.8940  -32.4440 C   0  0  0  0  0  0  0  0  0  0  0  0
   -7.3320   19.6460  -32.7140 C   0  0  0  0  0  0  0  0  0  0  0  0
   -8.6660   19.3710  -32.5130 C   0  0  0  0  0  0  0  0  0  0  0  0
   -9.4620   20.3940  -32.0280 C   0  0  0  0  0  0  0  0  0  0  0  0
   -8.9640   21.6440  -31.7510 C   0  0  0  0  0  0  0  0  0  0  0  0
   -7.6270   21.8870  -31.9640 C   0  0  0  0  0  0  0  0  0  0  0  0
   -7.1470   23.1390  -31.6810 C   0  0  0  0  0  0  0  0  0  0  0  0
   -2.4615   20.6790  -31.3165 H   0  0  0  0  0  0  0  0  0  0  0  0
   -2.4483   22.2002  -32.2718 H   0  0  0  0  0  0  0  0  0  0  0  0
   -1.0078   21.1271  -32.2718 H   0  0  0  0  0  0  0  0  0  0  0  0
   -0.2700   21.8833  -30.2672 H   0  0  0  0  0  0  0  0  0  0  0  0
   -1.2930   23.3299  -30.7296 H   0  0  0  0  0  0  0  0  0  0  0  0
   -3.3774   20.9913  -28.2151 H   0  0  0  0  0  0  0  0  0  0  0  0
   -3.9918   21.6478  -29.7702 H   0  0  0  0  0  0  0  0  0  0  0  0
   -2.8287   20.2789  -29.7702 H   0  0  0  0  0  0  0  0  0  0  0  0
   -2.9642   23.1117  -27.7468 H   0  0  0  0  0  0  0  0  0  0  0  0
   -1.1279   23.1157  -27.7829 H   0  0  0  0  0  0  0  0  0  0  0  0
   -1.9158   25.2707  -28.1543 H   0  0  0  0  0  0  0  0  0  0  0  0
   -1.2393   24.4907  -29.7184 H   0  0  0  0  0  0  0  0  0  0  0  0
   -4.3997   23.4034  -29.5366 H   0  0  0  0  0  0  0  0  0  0  0  0
   -4.5679   24.6624  -28.2976 H   0  0  0  0  0  0  0  0  0  0  0  0
   -6.3565   25.0969  -29.8438 H   0  0  0  0  0  0  0  0  0  0  0  0
   -5.0520   26.2790  -30.3001 H   0  0  0  0  0  0  0  0  0  0  0  0
   -3.9229   22.6665  -32.5140 H   0  0  0  0  0  0  0  0  0  0  0  0
   -4.8079   20.3964  -33.0220 H   0  0  0  0  0  0  0  0  0  0  0  0
   -6.6721   18.8543  -33.0983 H   0  0  0  0  0  0  0  0  0  0  0  0
   -9.0831   18.3764  -32.7296 H   0  0  0  0  0  0  0  0  0  0  0  0
  -10.5313   20.1993  -31.8583 H   0  0  0  0  0  0  0  0  0  0  0  0
   -9.6226   22.4363  -31.3658 H   0  0  0  0  0  0  0  0  0  0  0  0
   -7.8296   23.9112  -31.2965 H   0  0  0  0  0  0  0  0  0  0  0  0
  1  2  1  0
  2  3  1  0
  3  4  1  0
  3  5  1  0
  5  6  1  0
  6  7  1  0
  7  8  1  0
  8  9  1  0
  9 10  1  0
 10 11  1  0
 11 12  2  0
 12 13  1  0
 13 14  2  0
 14 15  1  0
 15 16  2  0
 16 17  1  0
 17 18  2  0
 18 19  1  0
 19 20  2  0
 20 11  1  0
 19 14  1  0
  1 21  1  0
  1 22  1  0
  1 23  1  0
  2 24  1  0
  2 25  1  0
  4 26  1  0
  4 27  1  0
  4 28  1  0
  5 29  1  0
  5 30  1  0
  6 31  1  0
  6 32  1  0
  8 33  1  0
  8 34  1  0
  9 35  1  0
  9 36  1  0
 12 37  1  0
 13 38  1  0
 15 39  1  0
 16 40  1  0
 17 41  1  0
 18 42  1  0
 20 43  1  0
M  END
>  <smiles>  (2) 
CCN(C)CCOCCOc1ccc2ccccc2c1

>  <score_type>  (2) 
oracle

>  <origin>  (2) 
adg

>  <m_score__min__energy>  (2) 
-7.4400000000000004

>  <m_primary>  (2) 
energy

$$$$
3:0
     RDKit          3D

 49 52  0  0  0  0  0  0  0  0999 V2000
   -0.4310   24.3460  -24.4700 C   0  0  0  0  0  0  0  0  0  0  0  0
   -0.7540   25.8170  -24.1870 C   0  0  0  0  0  0  0  0  0  0  0  0
   -1.3470   26.3550  -25.3660 N   0  0  0  0  0  0  0  0  0  0  0  0
   -2.5020   25.6590  -25.8370 C   0  0  0  0  0  0  0  0  0  0  0  0
   -0.4570   26.8050  -26.3800 C   0  0  0  0  0  0  0  0  0  0  0  0
   -0.8600   26.4970  -27.7890 C   0  0  0  0  0  0  0  0  0  0  0  0
   -0.3670   25.2510  -28.2360 O   0  0  0  0  0  0  0  0  0  0  0  0
   -1.1940   24.3580  -28.8970 C   0  0  0  0  0  0  0  0  0  0  0  0
   -0.5550   23.2420  -29.4490 C   0  0  0  0  0  0  0  0  0  0  0  0
   -1.2750   22.2770  -30.1340 C   0  0  0  0  0  0  0  0  0  0  0  0
   -2.6250   22.4310  -30.2610 C   0  0  0  0  0  0  0  0  0  0  0  0
   -3.3430   21.4620  -30.9420 C   0  0  0  0  0  0  0  0  0  0  0  0
   -4.6980   21.5580  -31.0980 C   0  0  0  0  0  0  0  0  0  0  0  0
   -5.3020   22.6850  -30.5310 C   0  0  0  0  0  0  0  0  0  0  0  0
   -4.5990   23.6220  -29.8730 N   0  0  0  0  0  0  0  0  0  0  0  0
   -3.2660   23.5400  -29.7130 C   0  0  0  0  0  0  0  0  0  0  0  0
   -2.5580   24.5200  -29.0210 C   0  0  0  0  0  0  0  0  0  0  0  0
   -6.6340   22.8710  -30.6200 N   0  0  0  0  0  0  0  0  0  0  0  0
   -7.3800   21.9460  -31.2660 C   0  0  0  0  0  0  0  0  0  0  0  0
   -8.7360   22.1830  -31.3190 C   0  0  0  0  0  0  0  0  0  0  0  0
   -9.5510   21.2610  -31.9640 C   0  0  0  0  0  0  0  0  0  0  0  0
   -8.9480   20.1520  -32.5200 C   0  0  0  0  0  0  0  0  0  0  0  0
   -7.5770   19.9330  -32.4550 C   0  0  0  0  0  0  0  0  0  0  0  0
   -6.7670   20.8460  -31.8160 C   0  0  0  0  0  0  0  0  0  0  0  0
   -5.4430   20.6220  -31.7520 N   0  0  0  0  0  0  0  0  0  0  0  0
   -4.7830   19.4810  -32.3370 C   0  0  0  0  0  0  0  0  0  0  0  0
   -0.3126   23.8070  -23.5185 H   0  0  0  0  0  0  0  0  0  0  0  0
   -1.2515   23.8949  -25.0473 H   0  0  0  0  0  0  0  0  0  0  0  0
    0.5030   24.2802  -25.0473 H   0  0  0  0  0  0  0  0  0  0  0  0
   -1.4566   25.8927  -23.3440 H   0  0  0  0  0  0  0  0  0  0  0  0
    0.1579   26.3719  -23.9216 H   0  0  0  0  0  0  0  0  0  0  0  0
   -3.0914   25.3038  -24.9788 H   0  0  0  0  0  0  0  0  0  0  0  0
   -3.1156   26.3379  -26.4475 H   0  0  0  0  0  0  0  0  0  0  0  0
   -2.1885   24.7993  -26.4475 H   0  0  0  0  0  0  0  0  0  0  0  0
   -0.3650   27.8972  -26.2870 H   0  0  0  0  0  0  0  0  0  0  0  0
    0.4835   26.2592  -26.2137 H   0  0  0  0  0  0  0  0  0  0  0  0
   -1.9584   26.4819  -27.8458 H   0  0  0  0  0  0  0  0  0  0  0  0
   -0.4304   27.2762  -28.4358 H   0  0  0  0  0  0  0  0  0  0  0  0
    0.5335   23.1296  -29.3374 H   0  0  0  0  0  0  0  0  0  0  0  0
   -0.7678   21.4025  -30.5677 H   0  0  0  0  0  0  0  0  0  0  0  0
   -2.8121   20.5971  -31.3662 H   0  0  0  0  0  0  0  0  0  0  0  0
   -3.0691   25.3928  -28.5885 H   0  0  0  0  0  0  0  0  0  0  0  0
   -9.1655   23.0853  -30.8593 H   0  0  0  0  0  0  0  0  0  0  0  0
  -10.6389   21.4102  -32.0290 H   0  0  0  0  0  0  0  0  0  0  0  0
   -9.5772   19.4114  -33.0354 H   0  0  0  0  0  0  0  0  0  0  0  0
   -7.1399   19.0332  -32.9125 H   0  0  0  0  0  0  0  0  0  0  0  0
   -4.4045   18.8267  -31.5378 H   0  0  0  0  0  0  0  0  0  0  0  0
   -5.4980   18.9233  -32.9597 H   0  0  0  0  0  0  0  0  0  0  0  0
   -3.9431   19.8227  -32.9597 H   0  0  0  0  0  0  0  0  0  0  0  0
  1  2  1  0
  2  3  1  0
  3  4  1  0
  3  5  1  0
  5  6  1  0
  6  7  1  0
  7  8  1  0
  8  9  2  0
  9 10  1  0
 10 11  2  0
 11 12  1  0
 12 13  2  0
 13 14  1  0
 14 15  2  0
 15 16  1  0
 16 17  2  0
 14 18  1  0
 18 19  2  0
 19 20  1  0
 20 21  2  0
 21 22  1  0
 22 23  2  0
 23 24  1  0
 24 25  2  0
 25 26  1  0
 17  8  1  0
 24 19  1  0
 16 11  1  0
 25 13  1  0
  1 27  1  0
  1 28  1  0
  1 29  1  0
  2 30  1  0
  2 31  1  0
  4 32  1  0
  4 33  1  0
  4 34  1  0
  5 35  1  0
  5 36  1  0
  6 37  1  0
  6 38  1  0
  9 39  1  0
 10 40  1  0
 12 41  1  0
 17 42  1  0
 20 43  1  0
 21 44  1  0
 22 45  1  0
 23 46  1  0
 26 47  1  0
 26 48  1  0
 26 49  1  0
M  CHG  1  25   1
M  END
>  <smiles>  (3) 
CCN(C)CCOc1ccc2cc3c(nc2c1)nc1ccccc1[n+]3C

>  <score_type>  (3) 
oracle

>  <origin>  (3) 
adg

>  <m_score__min__energy>  (3) 
-7.8799999999999999

>  <m_primary>  (3) 
energy

$$$$
4:0
     RDKit          3D

 45 48  0  0  0  0  0  0  0  0999 V2000
   -1.5910   24.8970  -26.0540 C   0  0  0  0  0  0  0  0  0  0  0  0
   -1.6340   23.5320  -26.7280 C   0  0  0  0  0  0  0  0  0  0  0  0
   -2.3180   23.5880  -27.9730 N   0  0  0  0  0  3  0  0  0  0  0  0
   -3.5280   24.3730  -27.9050 C   0  0  0  0  0  0  0  0  0  0  0  0
   -4.0280   24.5340  -29.3510 C   0  0  0  0  0  0  0  0  0  0  0  0
   -4.3350   23.2020  -29.8900 N   0  0  0  0  0  0  0  0  0  0  0  0
   -5.0570   23.1630  -31.0910 C   0  0  0  0  0  0  0  0  0  0  0  0
   -5.3680   24.3000  -31.5950 O   0  0  0  0  0  0  0  0  0  0  0  0
   -5.4890   22.0070  -31.8220 C   0  0  0  0  0  0  0  0  0  0  0  0
   -4.5580   21.2280  -32.4840 C   0  0  0  0  0  0  0  0  0  0  0  0
   -3.2020   21.5680  -32.4570 C   0  0  0  0  0  0  0  0  0  0  0  0
   -2.3000   20.7930  -33.1050 C   0  0  0  0  0  0  0  0  0  0  0  0
   -2.6310   19.6420  -33.8230 C   0  0  0  0  0  0  0  0  0  0  0  0
   -3.9920   19.2940  -33.8550 C   0  0  0  0  0  0  0  0  0  0  0  0
   -4.8900   20.0920  -33.1920 C   0  0  0  0  0  0  0  0  0  0  0  0
   -6.1910   19.7260  -33.2370 N   0  0  0  0  0  0  0  0  0  0  0  0
   -7.1710   20.4390  -32.6110 C   0  0  0  0  0  0  0  0  0  0  0  0
   -8.4660   20.0150  -32.6940 C   0  0  0  0  0  0  0  0  0  0  0  0
   -9.4520   20.7560  -32.0440 C   0  0  0  0  0  0  0  0  0  0  0  0
   -9.1240   21.9130  -31.3220 C   0  0  0  0  0  0  0  0  0  0  0  0
   -7.7930   22.3050  -31.2680 C   0  0  0  0  0  0  0  0  0  0  0  0
   -6.8070   21.5810  -31.9050 C   0  0  0  0  0  0  0  0  0  0  0  0
   -3.8660   22.0770  -29.1240 C   0  0  0  0  0  0  0  0  0  0  0  0
   -2.4180   22.3810  -28.7160 C   0  0  0  0  0  0  0  0  0  0  0  0
   -1.5951   24.7669  -24.9617 H   0  0  0  0  0  0  0  0  0  0  0  0
   -0.6757   25.4267  -26.3567 H   0  0  0  0  0  0  0  0  0  0  0  0
   -2.4711   25.4833  -26.3567 H   0  0  0  0  0  0  0  0  0  0  0  0
   -0.6043   23.1860  -26.9010 H   0  0  0  0  0  0  0  0  0  0  0  0
   -2.1743   22.8375  -26.0678 H   0  0  0  0  0  0  0  0  0  0  0  0
   -4.2838   23.8538  -27.2974 H   0  0  0  0  0  0  0  0  0  0  0  0
   -3.3410   25.3513  -27.4382 H   0  0  0  0  0  0  0  0  0  0  0  0
   -4.9346   25.1569  -29.3628 H   0  0  0  0  0  0  0  0  0  0  0  0
   -3.2551   25.0196  -29.9648 H   0  0  0  0  0  0  0  0  0  0  0  0
   -2.8687   22.4627  -31.9108 H   0  0  0  0  0  0  0  0  0  0  0  0
   -1.2413   21.0885  -33.0631 H   0  0  0  0  0  0  0  0  0  0  0  0
   -1.8669   19.0397  -34.3363 H   0  0  0  0  0  0  0  0  0  0  0  0
   -4.3305   18.4005  -34.4001 H   0  0  0  0  0  0  0  0  0  0  0  0
   -8.7257   19.1089  -33.2611 H   0  0  0  0  0  0  0  0  0  0  0  0
  -10.5009   20.4290  -32.0981 H   0  0  0  0  0  0  0  0  0  0  0  0
   -9.9035   22.4965  -30.8102 H   0  0  0  0  0  0  0  0  0  0  0  0
   -7.5197   23.2105  -30.7063 H   0  0  0  0  0  0  0  0  0  0  0  0
   -4.4904   21.9438  -28.2282 H   0  0  0  0  0  0  0  0  0  0  0  0
   -3.9200   21.1510  -29.7152 H   0  0  0  0  0  0  0  0  0  0  0  0
   -2.0410   21.5518  -28.0994 H   0  0  0  0  0  0  0  0  0  0  0  0
   -1.8227   22.4960  -29.6338 H   0  0  0  0  0  0  0  0  0  0  0  0
  1  2  1  0
  2  3  1  0
  3  4  1  0
  4  5  1  0
  5  6  1  0
  6  7  1  0
  7  8  2  0
  7  9  1  0
  9 10  1  0
 10 11  2  0
 11 12  1  0
 12 13  2  0
 13 14  1  0
 14 15  2  0
 15 16  1  0
 16 17  2  0
 17 18  1  0
 18 19  2  0
 19 20  1  0
 20 21  2  0
 21 22  1  0
  6 23  1  0
 23 24  1  0
 24  3  1  0
 22  9  2  0
 15 10  1  0
 22 17  1  0
  1 25  1  0
  1 26  1  0
  1 27  1  0
  2 28  1  0
  2 29  1  0
  4 30  1  0
  4 31  1  0
  5 32  1  0
  5 33  1  0
 11 34  1  0
 12 35  1  0
 13 36  1  0
 14 37  1  0
 18 38  1  0
 19 39  1  0
 20 40  1  0
 21 41  1  0
 23 42  1  0
 23 43  1  0
 24 44  1  0
 24 45  1  0
M  CHG  1   3   1
M  RAD  1   3   2
M  END
>  <smiles>  (4) 
CC[N+]1CCN(C(=O)c2c3ccccc3nc3ccccc23)CC1

>  <score_type>  (4) 
oracle

>  <origin>  (4) 
adg

>  <m_score__min__energy>  (4) 
-7.8499999999999996

>  <m_primary>  (4) 
energy

$$$$
5:0
     RDKit          3D

 55 58  0  0  0  0  0  0  0  0999 V2000
   -2.7180   20.8240  -28.4350 C   0  0  0  0  0  0  0  0  0  0  0  0
   -2.3710   22.1060  -27.7650 C   0  0  0  0  0  0  0  0  0  0  0  0
   -2.5440   23.2310  -28.5820 N   0  0  0  0  0  0  0  0  0  0  0  0
   -3.3740   24.2720  -28.1110 C   0  0  0  0  0  0  0  0  0  0  0  0
   -4.6440   24.4200  -28.9470 C   0  0  0  0  0  0  0  0  0  0  0  0
   -4.2170   24.6330  -30.3180 N   0  0  0  0  0  0  0  0  0  0  0  0
   -5.3690   24.7110  -31.2130 C   0  0  0  0  0  0  0  0  0  0  0  0
   -6.1530   23.4550  -31.2540 C   0  0  0  0  0  0  0  0  0  0  0  0
   -6.0470   22.8080  -32.5420 N   0  0  0  0  0  0  0  0  0  0  0  0
   -5.8480   21.4300  -32.6980 C   0  0  0  0  0  0  0  0  0  0  0  0
   -4.6820   20.7980  -33.0340 C   0  0  0  0  0  0  0  0  0  0  0  0
   -3.5410   21.5530  -33.1770 C   0  0  0  0  0  0  0  0  0  0  0  0
   -2.3200   21.0220  -33.5020 C   0  0  0  0  0  0  0  0  0  0  0  0
   -2.2400   19.6650  -33.6920 C   0  0  0  0  0  0  0  0  0  0  0  0
   -3.3780   18.8880  -33.5510 C   0  0  0  0  0  0  0  0  0  0  0  0
   -4.6120   19.4170  -33.2240 C   0  0  0  0  0  0  0  0  0  0  0  0
   -5.7150   18.6290  -33.0780 N   0  0  0  0  0  0  0  0  0  0  0  0
   -5.5410   17.2280  -33.2800 C   0  0  0  0  0  0  0  0  0  0  0  0
   -6.8580   19.2380  -32.7470 C   0  0  0  0  0  0  0  0  0  0  0  0
   -7.9950   18.4740  -32.5890 C   0  0  0  0  0  0  0  0  0  0  0  0
   -9.2150   19.0650  -32.2410 C   0  0  0  0  0  0  0  0  0  0  0  0
   -9.3410   20.4210  -32.0430 C   0  0  0  0  0  0  0  0  0  0  0  0
   -8.1930   21.1790  -32.2050 C   0  0  0  0  0  0  0  0  0  0  0  0
   -6.9720   20.6070  -32.5500 C   0  0  0  0  0  0  0  0  0  0  0  0
   -3.5000   23.4270  -30.7520 C   0  0  0  0  0  0  0  0  0  0  0  0
   -2.2390   23.1940  -29.9470 C   0  0  0  0  0  0  0  0  0  0  0  0
   -2.9256   20.0571  -27.6742 H   0  0  0  0  0  0  0  0  0  0  0  0
   -3.6095   20.9681  -29.0631 H   0  0  0  0  0  0  0  0  0  0  0  0
   -1.8756   20.4988  -29.0631 H   0  0  0  0  0  0  0  0  0  0  0  0
   -3.0112   22.2190  -26.8776 H   0  0  0  0  0  0  0  0  0  0  0  0
   -1.3029   22.0561  -27.5069 H   0  0  0  0  0  0  0  0  0  0  0  0
   -3.6579   24.0555  -27.0706 H   0  0  0  0  0  0  0  0  0  0  0  0
   -2.8097   25.2134  -28.1842 H   0  0  0  0  0  0  0  0  0  0  0  0
   -5.2529   23.5066  -28.8769 H   0  0  0  0  0  0  0  0  0  0  0  0
   -5.2587   25.2589  -28.5886 H   0  0  0  0  0  0  0  0  0  0  0  0
   -6.0259   25.5238  -30.8696 H   0  0  0  0  0  0  0  0  0  0  0  0
   -4.9867   24.8948  -32.2279 H   0  0  0  0  0  0  0  0  0  0  0  0
   -5.7755   22.7722  -30.4786 H   0  0  0  0  0  0  0  0  0  0  0  0
   -7.2103   23.7014  -31.0768 H   0  0  0  0  0  0  0  0  0  0  0  0
   -6.1210   23.3770  -33.4270 H   0  0  0  0  0  0  0  0  0  0  0  0
   -3.6123   22.6397  -33.0224 H   0  0  0  0  0  0  0  0  0  0  0  0
   -1.4323   21.6630  -33.6072 H   0  0  0  0  0  0  0  0  0  0  0  0
   -1.2792   19.1980  -33.9543 H   0  0  0  0  0  0  0  0  0  0  0  0
   -3.2958   17.8021  -33.7061 H   0  0  0  0  0  0  0  0  0  0  0  0
   -5.4782   16.7220  -32.3053 H   0  0  0  0  0  0  0  0  0  0  0  0
   -6.3966   16.8300  -33.8453 H   0  0  0  0  0  0  0  0  0  0  0  0
   -4.6140   17.0514  -33.8453 H   0  0  0  0  0  0  0  0  0  0  0  0
   -7.9424   17.3855  -32.7385 H   0  0  0  0  0  0  0  0  0  0  0  0
  -10.1017   18.4250  -32.1219 H   0  0  0  0  0  0  0  0  0  0  0  0
  -10.3032   20.8791  -31.7703 H   0  0  0  0  0  0  0  0  0  0  0  0
   -8.2481   22.2675  -32.0563 H   0  0  0  0  0  0  0  0  0  0  0  0
   -4.1631   22.5576  -30.6322 H   0  0  0  0  0  0  0  0  0  0  0  0
   -3.2098   23.5653  -31.8040 H   0  0  0  0  0  0  0  0  0  0  0  0
   -1.8175   22.2105  -30.2021 H   0  0  0  0  0  0  0  0  0  0  0  0
   -1.5046   23.9791  -30.1802 H   0  0  0  0  0  0  0  0  0  0  0  0
  1  2  1  0
  2  3  1  0
  3  4  1  0
  4  5  1  0
  5  6  1  0
  6  7  1  0
  7  8  1  0
  8  9  1  0
  9 10  1  0
 10 11  1  0
 11 12  2  0
 12 13  1  0
 13 14  2  0
 14 15  1  0
 15 16  2  0
 16 17  1  0
 17 18  1  0
 17 19  2  0
 19 20  1  0
 20 21  2  0
 21 22  1  0
 22 23  2  0
 23 24  1  0
  6 25  1  0
 25 26  1  0
 26  3  1  0
 24 10  2  0
 16 11  1  0
 24 19  1  0
  1 27  1  0
  1 28  1  0
  1 29  1  0
  2 30  1  0
  2 31  1  0
  4 32  1  0
  4 33  1  0
  5 34  1  0
  5 35  1  0
  7 36  1  0
  7 37  1  0
  8 38  1  0
  8 39  1  0
  9 40  1  0
 12 41  1  0
 13 42  1  0
 14 43  1  0
 15 44  1  0
 18 45  1  0
 18 46  1  0
 18 47  1  0
 20 48  1  0
 21 49  1  0
 22 50  1  0
 23 51  1  0
 25 52  1  0
 25 53  1  0
 26 54  1  0
 26 55  1  0
M  CHG  1  17   1
M  END
>  <smiles>  (5) 
CCN1CCN(CCNc2c3ccccc3[n+](C)c3ccccc23)CC1

>  <score_type>  (5) 
oracle

>  <origin>  (5) 
adg

>  <m_score__min__energy>  (5) 
-8.9199999999999999

>  <m_primary>  (5) 
energy

$$$$
7:0
     RDKit          3D

 48 50  0  0  0  0  0  0  0  0999 V2000
   -4.6190   13.0980  -30.8680 C   0  0  0  0  0  0  0  0  0  0  0  0
   -3.8610   12.3760  -31.9370 C   0  0  0  0  0  0  0  0  0  0  0  0
   -3.2190   13.3440  -32.8390 N   0  0  0  0  0  0  0  0  0  0  0  0
   -1.7880   13.1210  -32.7460 C   0  0  0  0  0  0  0  0  0  0  0  0
   -3.6500   13.0090  -34.1770 C   0  0  0  0  0  0  0  0  0  0  0  0
   -5.0540   13.4980  -34.4640 C   0  0  0  0  0  0  0  0  0  0  0  0
   -5.1530   14.8980  -34.0820 N   0  0  0  0  0  0  0  0  0  0  0  0
   -6.3960   15.5830  -34.1750 C   0  0  0  0  0  0  0  0  0  0  0  0
   -7.3760   14.9120  -34.5980 O   0  0  0  0  0  0  0  0  0  0  0  0
   -6.5030   16.9790  -33.7960 C   0  0  0  0  0  0  0  0  0  0  0  0
   -7.2240   17.2660  -32.6480 C   0  0  0  0  0  0  0  0  0  0  0  0
   -7.3830   18.5700  -32.2050 C   0  0  0  0  0  0  0  0  0  0  0  0
   -6.8110   19.6150  -32.9200 C   0  0  0  0  0  0  0  0  0  0  0  0
   -6.9950   20.9580  -32.4320 C   0  0  0  0  0  0  0  0  0  0  0  0
   -5.9260   21.8550  -32.3400 C   0  0  0  0  0  0  0  0  0  0  0  0
   -6.1210   23.1520  -31.8650 C   0  0  0  0  0  0  0  0  0  0  0  0
   -7.3710   23.5640  -31.4780 C   0  0  0  0  0  0  0  0  0  0  0  0
   -8.4270   22.6690  -31.5710 C   0  0  0  0  0  0  0  0  0  0  0  0
   -8.2510   21.3830  -32.0400 C   0  0  0  0  0  0  0  0  0  0  0  0
   -6.0980   19.3240  -34.0590 C   0  0  0  0  0  0  0  0  0  0  0  0
   -5.9340   18.0130  -34.5100 C   0  0  0  0  0  0  0  0  0  0  0  0
   -3.9310   15.5290  -33.6140 C   0  0  0  0  0  0  0  0  0  0  0  0
   -3.4790   14.6890  -32.4370 C   0  0  0  0  0  0  0  0  0  0  0  0
   -4.2682   12.7639  -29.8804 H   0  0  0  0  0  0  0  0  0  0  0  0
   -4.4536   14.1808  -30.9688 H   0  0  0  0  0  0  0  0  0  0  0  0
   -5.6925   12.8801  -30.9688 H   0  0  0  0  0  0  0  0  0  0  0  0
   -3.0899   11.7435  -31.4730 H   0  0  0  0  0  0  0  0  0  0  0  0
   -4.5579   11.7511  -32.5147 H   0  0  0  0  0  0  0  0  0  0  0  0
   -1.4921   13.0749  -31.6875 H   0  0  0  0  0  0  0  0  0  0  0  0
   -1.5319   12.1721  -33.2400 H   0  0  0  0  0  0  0  0  0  0  0  0
   -1.2553   13.9470  -33.2400 H   0  0  0  0  0  0  0  0  0  0  0  0
   -2.9595   13.4711  -34.8979 H   0  0  0  0  0  0  0  0  0  0  0  0
   -3.6486   11.9128  -34.2681 H   0  0  0  0  0  0  0  0  0  0  0  0
   -5.2696   13.3921  -35.5375 H   0  0  0  0  0  0  0  0  0  0  0  0
   -5.7802   12.9031  -33.8906 H   0  0  0  0  0  0  0  0  0  0  0  0
   -7.6790   16.4432  -32.0771 H   0  0  0  0  0  0  0  0  0  0  0  0
   -7.9596   18.7765  -31.2913 H   0  0  0  0  0  0  0  0  0  0  0  0
   -4.9193   21.5339  -32.6459 H   0  0  0  0  0  0  0  0  0  0  0  0
   -5.2702   23.8463  -31.8006 H   0  0  0  0  0  0  0  0  0  0  0  0
   -7.5330   24.5846  -31.1011 H   0  0  0  0  0  0  0  0  0  0  0  0
   -9.4319   22.9932  -31.2625 H   0  0  0  0  0  0  0  0  0  0  0  0
   -9.1087   20.6971  -32.1019 H   0  0  0  0  0  0  0  0  0  0  0  0
   -5.6442   20.1469  -34.6307 H   0  0  0  0  0  0  0  0  0  0  0  0
   -5.3578   17.8070  -35.4241 H   0  0  0  0  0  0  0  0  0  0  0  0
   -3.1675   15.5268  -34.4059 H   0  0  0  0  0  0  0  0  0  0  0  0
   -4.0915   16.5802  -33.3327 H   0  0  0  0  0  0  0  0  0  0  0  0
   -2.5597   15.1231  -32.0170 H   0  0  0  0  0  0  0  0  0  0  0  0
   -4.2803   14.6812  -31.6834 H   0  0  0  0  0  0  0  0  0  0  0  0
  1  2  1  0
  2  3  1  0
  3  4  1  0
  3  5  1  0
  5  6  1  0
  6  7  1  0
  7  8  1  0
  8  9  2  0
  8 10  1  0
 10 11  2  0
 11 12  1  0
 12 13  2  0
 13 14  1  0
 14 15  2  0
 15 16  1  0
 16 17  2  0
 17 18  1  0
 18 19  2  0
 13 20  1  0
 20 21  2  0
  7 22  1  0
 22 23  1  0
 23  3  1  0
 21 10  1  0
 19 14  1  0
  1 24  1  0
  1 25  1  0
  1 26  1  0
  2 27  1  0
  2 28  1  0
  4 29  1  0
  4 30  1  0
  4 31  1  0
  5 32  1  0
  5 33  1  0
  6 34  1  0
  6 35  1  0
 11 36  1  0
 12 37  1  0
 15 38  1  0
 16 39  1  0
 17 40  1  0
 18 41  1  0
 19 42  1  0
 20 43  1  0
 21 44  1  0
 22 45  1  0
 22 46  1  0
 23 47  1  0
 23 48  1  0
M  CHG  1   3   1
M  END
>  <smiles>  (6) 
CC[N+]1(C)CCN(C(=O)c2ccc(-c3ccccc3)cc2)CC1

>  <score_type>  (6) 
oracle

>  <origin>  (6) 
adg

>  <m_score__min__energy>  (6) 
-7.1399999999999997

>  <m_primary>  (6) 
energy

$$$$
9:0
     RDKit          3D

 72 75  0  0  0  0  0  0  0  0999 V2000
   -0.4860   20.7720  -34.6930 C   0  0  0  0  0  0  0  0  0  0  0  0
   -1.8060   20.8070  -34.1170 N   0  0  0  0  0  0  0  0  0  0  0  0
   -1.8180   20.7040  -32.6730 C   0  0  0  0  0  0  0  0  0  0  0  0
   -3.1440   20.8740  -32.0320 C   0  0  0  0  0  0  0  0  0  0  0  0
   -4.2380   21.1840  -32.9650 N   0  0  0  0  0  0  0  0  0  0  0  0
   -5.5330   21.2230  -32.3510 C   0  0  0  0  0  0  0  0  0  0  0  0
   -5.7910   22.3900  -31.6200 C   0  0  0  0  0  0  0  0  0  0  0  0
   -4.8730   23.4200  -31.5590 C   0  0  0  0  0  0  0  0  0  0  0  0
   -5.0980   24.5800  -30.8510 C   0  0  0  0  0  0  0  0  0  0  0  0
   -6.2930   24.6880  -30.1880 C   0  0  0  0  0  0  0  0  0  0  0  0
   -7.2390   23.6590  -30.2340 C   0  0  0  0  0  0  0  0  0  0  0  0
   -6.9840   22.5130  -30.9520 C   0  0  0  0  0  0  0  0  0  0  0  0
   -7.8940   21.5290  -30.9960 N   0  0  0  0  0  0  0  0  0  0  0  0
   -9.1720   21.5690  -30.3310 C   0  0  0  0  0  0  0  0  0  0  0  0
   -7.6330   20.3960  -31.7160 C   0  0  0  0  0  0  0  0  0  0  0  0
   -8.5760   19.3960  -31.7610 C   0  0  0  0  0  0  0  0  0  0  0  0
   -8.3860   18.2340  -32.4730 C   0  0  0  0  0  0  0  0  0  0  0  0
   -7.1950   18.1050  -33.1510 C   0  0  0  0  0  0  0  0  0  0  0  0
   -6.1990   19.0550  -33.1560 C   0  0  0  0  0  0  0  0  0  0  0  0
   -5.0890   18.9260  -33.8060 O   0  0  0  0  0  0  0  0  0  0  0  0
   -4.1450   18.3680  -34.5330 C   0  0  0  0  0  0  0  0  0  0  0  0
   -3.1090   17.4550  -34.0080 C   0  0  0  0  0  0  0  0  0  0  0  0
   -3.3380   16.0550  -33.9520 N   0  0  0  0  0  0  0  0  0  0  0  0
   -3.2230   15.3780  -35.1960 C   0  0  0  0  0  0  0  0  0  0  0  0
   -4.7530   15.9070  -33.5390 C   0  0  0  0  0  0  0  0  0  0  0  0
   -4.9190   15.0010  -32.3620 C   0  0  0  0  0  0  0  0  0  0  0  0
   -4.2080   13.7640  -32.4430 N   0  0  0  0  0  0  0  0  0  0  0  0
   -4.3700   13.0930  -31.1510 C   0  0  0  0  0  0  0  0  0  0  0  0
   -4.6800   12.8520  -33.4430 C   0  0  0  0  0  0  0  0  0  0  0  0
   -2.7980   14.0220  -32.6610 C   0  0  0  0  0  0  0  0  0  0  0  0
   -2.5820   15.4770  -32.8750 C   0  0  0  0  0  0  0  0  0  0  0  0
   -6.4550   20.2180  -32.4060 C   0  0  0  0  0  0  0  0  0  0  0  0
    0.2645   20.7521  -33.8890 H   0  0  0  0  0  0  0  0  0  0  0  0
   -0.3811   19.8708  -35.3149 H   0  0  0  0  0  0  0  0  0  0  0  0
   -0.3335   21.6664  -35.3149 H   0  0  0  0  0  0  0  0  0  0  0  0
   -2.3990   21.5780  -34.4880 H   0  0  0  0  0  0  0  0  0  0  0  0
   -1.4351   19.7093  -32.4010 H   0  0  0  0  0  0  0  0  0  0  0  0
   -1.1965   21.5340  -32.3059 H   0  0  0  0  0  0  0  0  0  0  0  0
   -3.3942   19.9400  -31.5075 H   0  0  0  0  0  0  0  0  0  0  0  0
   -3.0559   21.7371  -31.3558 H   0  0  0  0  0  0  0  0  0  0  0  0
   -4.0780   21.3570  -33.9770 H   0  0  0  0  0  0  0  0  0  0  0  0
   -3.9211   23.3093  -32.0991 H   0  0  0  0  0  0  0  0  0  0  0  0
   -4.3501   25.3860  -30.8190 H   0  0  0  0  0  0  0  0  0  0  0  0
   -6.5113   25.5985  -29.6106 H   0  0  0  0  0  0  0  0  0  0  0  0
   -8.1912   23.7661  -29.6938 H   0  0  0  0  0  0  0  0  0  0  0  0
   -9.0188   21.5642  -29.2417 H   0  0  0  0  0  0  0  0  0  0  0  0
   -9.7082   22.4844  -30.6219 H   0  0  0  0  0  0  0  0  0  0  0  0
   -9.7644   20.6890  -30.6219 H   0  0  0  0  0  0  0  0  0  0  0  0
   -9.5170   19.5300  -31.2073 H   0  0  0  0  0  0  0  0  0  0  0  0
   -9.1511   17.4441  -32.4992 H   0  0  0  0  0  0  0  0  0  0  0  0
   -7.0283   17.1824  -33.7264 H   0  0  0  0  0  0  0  0  0  0  0  0
   -4.6714   17.7990  -35.3134 H   0  0  0  0  0  0  0  0  0  0  0  0
   -3.5326   19.2482  -34.7786 H   0  0  0  0  0  0  0  0  0  0  0  0
   -2.2149   17.6025  -34.6316 H   0  0  0  0  0  0  0  0  0  0  0  0
   -3.0492   17.7365  -32.9463 H   0  0  0  0  0  0  0  0  0  0  0  0
   -3.0413   14.3082  -35.0158 H   0  0  0  0  0  0  0  0  0  0  0  0
   -4.1548   15.5005  -35.7676 H   0  0  0  0  0  0  0  0  0  0  0  0
   -2.3839   15.8013  -35.7676 H   0  0  0  0  0  0  0  0  0  0  0  0
   -5.1489   16.8995  -33.2776 H   0  0  0  0  0  0  0  0  0  0  0  0
   -5.3000   15.4597  -34.3821 H   0  0  0  0  0  0  0  0  0  0  0  0
   -4.5690   15.5371  -31.4675 H   0  0  0  0  0  0  0  0  0  0  0  0
   -5.9866   14.7384  -32.3262 H   0  0  0  0  0  0  0  0  0  0  0  0
   -4.1959   13.8142  -30.3389 H   0  0  0  0  0  0  0  0  0  0  0  0
   -5.3909   12.6912  -31.0719 H   0  0  0  0  0  0  0  0  0  0  0  0
   -3.6448   12.2697  -31.0719 H   0  0  0  0  0  0  0  0  0  0  0  0
   -5.1333   11.9761  -32.9558 H   0  0  0  0  0  0  0  0  0  0  0  0
   -5.4321   13.3528  -34.0703 H   0  0  0  0  0  0  0  0  0  0  0  0
   -3.8368   12.5272  -34.0703 H   0  0  0  0  0  0  0  0  0  0  0  0
   -2.2258   13.6930  -31.7811 H   0  0  0  0  0  0  0  0  0  0  0  0
   -2.4597   13.4690  -33.5497 H   0  0  0  0  0  0  0  0  0  0  0  0
   -2.8548   16.0018  -31.9475 H   0  0  0  0  0  0  0  0  0  0  0  0
   -1.5229   15.5918  -33.1489 H   0  0  0  0  0  0  0  0  0  0  0  0
  1  2  1  0
  2  3  1  0
  3  4  1  0
  4  5  1  0
  5  6  1  0
  6  7  2  0
  7  8  1  0
  8  9  2  0
  9 10  1  0
 10 11  2  0
 11 12  1  0
 12 13  2  0
 13 14  1  0
 13 15  1  0
 15 16  2  0
 16 17  1  0
 17 18  2  0
 18 19  1  0
 19 20  1  0
 20 21  1  0
 21 22  1  0
 22 23  1  0
 23 24  1  0
 23 25  1  0
 25 26  1  0
 26 27  1  0
 27 28  1  0
 27 29  1  0
 27 30  1  0
 30 31  1  0
 19 32  2  0
 32  6  1  0
 12  7  1  0
 32 15  1  0
 31 23  1  0
  1 33  1  0
  1 34  1  0
  1 35  1  0
  2 36  1  0
  3 37  1  0
  3 38  1  0
  4 39  1  0
  4 40  1  0
  5 41  1  0
  8 42  1  0
  9 43  1  0
 10 44  1  0
 11 45  1  0
 14 46  1  0
 14 47  1  0
 14 48  1  0
 16 49  1  0
 17 50  1  0
 18 51  1  0
 21 52  1  0
 21 53  1  0
 22 54  1  0
 22 55  1  0
 24 56  1  0
 24 57  1  0
 24 58  1  0
 25 59  1  0
 25 60  1  0
 26 61  1  0
 26 62  1  0
 28 63  1  0
 28 64  1  0
 28 65  1  0
 29 66  1  0
 29 67  1  0
 29 68  1  0
 30 69  1  0
 30 70  1  0
 31 71  1  0
 31 72  1  0
M  CHG  3  13   1  23   1  27   1
M  END
>  <smiles>  (7) 
CNCCNc1c2ccccc2[n+](C)c2cccc(OCC[N+]3(C)CC[N+](C)(C)CC3)c12

>  <score_type>  (7) 
oracle

>  <origin>  (7) 
adg

>  <m_score__min__energy>  (7) 
-8.2400000000000002

>  <m_primary>  (7) 
energy

$$$$
10:0
     RDKit          3D

 49 51  0  0  0  0  0  0  0  0999 V2000
    0.3460   23.6610  -27.9590 C   0  0  0  0  0  0  0  0  0  0  0  0
   -0.9030   23.2120  -28.0390 C   0  0  0  0  0  0  0  0  0  0  0  0
   -1.2020   21.9070  -27.3800 C   0  0  0  0  0  0  0  0  0  0  0  0
   -1.9990   23.9060  -28.7280 C   0  0  0  0  0  0  0  0  0  0  0  0
   -3.1750   24.0320  -27.7810 C   0  0  0  0  0  0  0  0  0  0  0  0
   -4.4080   24.5440  -28.4890 C   0  0  0  0  0  0  0  0  0  0  0  0
   -4.1350   24.8970  -29.8670 N   0  0  0  0  0  0  0  0  0  0  0  0
   -5.3970   25.2690  -30.4770 C   0  0  0  0  0  0  0  0  0  0  0  0
   -6.2610   24.1270  -30.8120 C   0  0  0  0  0  0  0  0  0  0  0  0
   -6.9300   23.3560  -29.8840 C   0  0  0  0  0  0  0  0  0  0  0  0
   -7.7250   22.2920  -30.3220 C   0  0  0  0  0  0  0  0  0  0  0  0
   -7.8450   22.0090  -31.6740 C   0  0  0  0  0  0  0  0  0  0  0  0
   -8.6660   20.9030  -32.2030 C   0  0  0  0  0  0  0  0  0  0  0  0
   -7.8690   19.7260  -32.6170 C   0  0  0  0  0  0  0  0  0  0  0  0
   -6.8620   19.9140  -33.5650 C   0  0  0  0  0  0  0  0  0  0  0  0
   -6.0700   18.8760  -34.0080 C   0  0  0  0  0  0  0  0  0  0  0  0
   -6.2740   17.6150  -33.5050 C   0  0  0  0  0  0  0  0  0  0  0  0
   -7.2790   17.4100  -32.5550 C   0  0  0  0  0  0  0  0  0  0  0  0
   -8.0710   18.4560  -32.1120 C   0  0  0  0  0  0  0  0  0  0  0  0
   -7.1750   22.7840  -32.5760 N   0  0  0  0  0  0  0  0  0  0  0  0
   -6.4070   23.8110  -32.1680 C   0  0  0  0  0  0  0  0  0  0  0  0
   -3.5970   23.7770  -30.6130 C   0  0  0  0  0  0  0  0  0  0  0  0
   -2.4790   23.0880  -29.9090 C   0  0  0  0  0  0  0  0  0  0  0  0
    0.6175   24.6181  -28.4283 H   0  0  0  0  0  0  0  0  0  0  0  0
    1.1077   23.0754  -27.4235 H   0  0  0  0  0  0  0  0  0  0  0  0
   -1.1732   22.0328  -26.2876 H   0  0  0  0  0  0  0  0  0  0  0  0
   -2.2021   21.5637  -27.6833 H   0  0  0  0  0  0  0  0  0  0  0  0
   -0.4512   21.1625  -27.6833 H   0  0  0  0  0  0  0  0  0  0  0  0
   -1.6323   24.8884  -29.0603 H   0  0  0  0  0  0  0  0  0  0  0  0
   -3.3948   23.0435  -27.3515 H   0  0  0  0  0  0  0  0  0  0  0  0
   -2.9068   24.7520  -26.9938 H   0  0  0  0  0  0  0  0  0  0  0  0
   -5.1799   23.7606  -28.4693 H   0  0  0  0  0  0  0  0  0  0  0  0
   -4.7479   25.4506  -27.9669 H   0  0  0  0  0  0  0  0  0  0  0  0
   -5.9408   25.9200  -29.7766 H   0  0  0  0  0  0  0  0  0  0  0  0
   -5.1553   25.7729  -31.4244 H   0  0  0  0  0  0  0  0  0  0  0  0
   -6.8390   23.5760  -28.8101 H   0  0  0  0  0  0  0  0  0  0  0  0
   -8.2604   21.6735  -29.5866 H   0  0  0  0  0  0  0  0  0  0  0  0
   -9.3727   20.5882  -31.4210 H   0  0  0  0  0  0  0  0  0  0  0  0
   -9.1796   21.2796  -33.0999 H   0  0  0  0  0  0  0  0  0  0  0  0
   -6.6949   20.9223  -33.9716 H   0  0  0  0  0  0  0  0  0  0  0  0
   -5.2837   19.0562  -34.7559 H   0  0  0  0  0  0  0  0  0  0  0  0
   -5.6526   16.7739  -33.8462 H   0  0  0  0  0  0  0  0  0  0  0  0
   -7.4436   16.3997  -32.1522 H   0  0  0  0  0  0  0  0  0  0  0  0
   -8.8561   18.2768  -31.3627 H   0  0  0  0  0  0  0  0  0  0  0  0
   -5.8804   24.4178  -32.9193 H   0  0  0  0  0  0  0  0  0  0  0  0
   -4.4045   23.0497  -30.7832 H   0  0  0  0  0  0  0  0  0  0  0  0
   -3.1947   24.1746  -31.5564 H   0  0  0  0  0  0  0  0  0  0  0  0
   -2.8282   22.1084  -29.5506 H   0  0  0  0  0  0  0  0  0  0  0  0
   -1.6434   22.9635  -30.6135 H   0  0  0  0  0  0  0  0  0  0  0  0
  1  2  2  0
  2  3  1  0
  2  4  1  0
  4  5  1  0
  5  6  1  0
  6  7  1  0
  7  8  1  0
  8  9  1  0
  9 10  2  0
 10 11  1  0
 11 12  2  0
 12 13  1  0
 13 14  1  0
 14 15  2  0
 15 16  1  0
 16 17  2  0
 17 18  1  0
 18 19  2  0
 12 20  1  0
 20 21  2  0
  7 22  1  0
 22 23  1  0
 23  4  1  0
 21  9  1  0
 19 14  1  0
  1 24  1  0
  1 25  1  0
  3 26  1  0
  3 27  1  0
  3 28  1  0
  4 29  1  0
  5 30  1  0
  5 31  1  0
  6 32  1  0
  6 33  1  0
  8 34  1  0
  8 35  1  0
 10 36  1  0
 11 37  1  0
 13 38  1  0
 13 39  1  0
 15 40  1  0
 16 41  1  0
 17 42  1  0
 18 43  1  0
 19 44  1  0
 21 45  1  0
 22 46  1  0
 22 47  1  0
 23 48  1  0
 23 49  1  0
M  END
>  <smiles>  (8) 
C=C(C)C1CCN(Cc2ccc(Cc3ccccc3)nc2)CC1

>  <score_type>  (8) 
oracle

>  <origin>  (8) 
adg

>  <m_score__min__energy>  (8) 
-8.8300000000000001

>  <m_primary>  (8) 
energy

$$$$
11:0
     RDKit          3D

 58 61  0  0  0  0  0  0  0  0999 V2000
   -5.9950   25.3210  -30.0480 C   0  0  0  0  0  0  0  0  0  0  0  0
   -4.8170   24.3810  -29.8200 C   0  0  0  0  0  0  0  0  0  0  0  0
   -4.1000   24.1480  -31.0470 N   0  0  0  0  0  0  0  0  0  0  0  0
   -3.1940   23.0010  -30.8370 C   0  0  0  0  0  0  0  0  0  0  0  0
   -3.1590   22.1550  -32.0840 C   0  0  0  0  0  0  0  0  0  0  0  0
   -4.4030   22.1000  -32.7850 N   0  0  0  0  0  0  0  0  0  0  0  0
   -5.4260   21.1520  -32.6850 C   0  0  0  0  0  0  0  0  0  0  0  0
   -5.1670   19.8010  -32.9910 C   0  0  0  0  0  0  0  0  0  0  0  0
   -6.1760   18.8510  -32.9140 C   0  0  0  0  0  0  0  0  0  0  0  0
   -7.4310   19.1470  -32.5360 N   0  0  0  0  0  0  0  0  0  0  0  0
   -8.4480   18.1920  -32.2350 C   0  0  0  0  0  0  0  0  0  0  0  0
   -7.7110   20.4550  -32.2380 C   0  0  0  0  0  0  0  0  0  0  0  0
   -9.0010   20.8360  -31.8970 C   0  0  0  0  0  0  0  0  0  0  0  0
   -9.3280   22.1690  -31.6290 C   0  0  0  0  0  0  0  0  0  0  0  0
   -8.3520   23.1310  -31.7030 C   0  0  0  0  0  0  0  0  0  0  0  0
   -7.0830   22.7190  -32.0470 C   0  0  0  0  0  0  0  0  0  0  0  0
   -6.7260   21.4210  -32.3160 C   0  0  0  0  0  0  0  0  0  0  0  0
   -5.8230   17.5050  -33.3740 C   0  0  0  0  0  0  0  0  0  0  0  0
   -6.7610   16.5030  -33.4400 C   0  0  0  0  0  0  0  0  0  0  0  0
   -6.4510   15.2230  -33.9500 C   0  0  0  0  0  0  0  0  0  0  0  0
   -5.1990   14.9640  -34.3940 C   0  0  0  0  0  0  0  0  0  0  0  0
   -4.8830   13.7180  -34.8930 O   0  0  0  0  0  0  0  0  0  0  0  0
   -3.7980   13.3590  -35.6780 C   0  0  0  0  0  0  0  0  0  0  0  0
   -2.5320   13.0470  -34.9490 C   0  0  0  0  0  0  0  0  0  0  0  0
   -4.2380   15.9320  -34.3510 C   0  0  0  0  0  0  0  0  0  0  0  0
   -4.5620   17.1940  -33.8410 C   0  0  0  0  0  0  0  0  0  0  0  0
   -3.4590   18.1790  -33.8880 C   0  0  0  0  0  0  0  0  0  0  0  0
   -3.7630   19.4960  -33.3290 C   0  0  0  0  0  0  0  0  0  0  0  0
   -6.3996   25.6439  -29.0774 H   0  0  0  0  0  0  0  0  0  0  0  0
   -5.6576   26.2008  -30.6156 H   0  0  0  0  0  0  0  0  0  0  0  0
   -6.7779   24.7967  -30.6156 H   0  0  0  0  0  0  0  0  0  0  0  0
   -4.1345   24.8310  -29.0840 H   0  0  0  0  0  0  0  0  0  0  0  0
   -5.2016   23.4192  -29.4498 H   0  0  0  0  0  0  0  0  0  0  0  0
   -3.4820   24.9650  -31.2180 H   0  0  0  0  0  0  0  0  0  0  0  0
   -2.1815   23.3691  -30.6148 H   0  0  0  0  0  0  0  0  0  0  0  0
   -3.5570   22.3961  -29.9930 H   0  0  0  0  0  0  0  0  0  0  0  0
   -2.3982   22.5695  -32.7618 H   0  0  0  0  0  0  0  0  0  0  0  0
   -2.9282   21.1279  -31.7650 H   0  0  0  0  0  0  0  0  0  0  0  0
   -4.5810   22.8900  -33.4840 H   0  0  0  0  0  0  0  0  0  0  0  0
   -8.5498   18.0964  -31.1439 H   0  0  0  0  0  0  0  0  0  0  0  0
   -9.4038   18.5265  -32.6646 H   0  0  0  0  0  0  0  0  0  0  0  0
   -8.1742   17.2171  -32.6646 H   0  0  0  0  0  0  0  0  0  0  0  0
   -9.7873   20.0691  -31.8359 H   0  0  0  0  0  0  0  0  0  0  0  0
  -10.3588   22.4441  -31.3611 H   0  0  0  0  0  0  0  0  0  0  0  0
   -8.5739   24.1883  -31.4960 H   0  0  0  0  0  0  0  0  0  0  0  0
   -6.2979   23.4869  -32.1108 H   0  0  0  0  0  0  0  0  0  0  0  0
   -7.7828   16.7036  -33.0854 H   0  0  0  0  0  0  0  0  0  0  0  0
   -7.2232   14.4405  -33.9862 H   0  0  0  0  0  0  0  0  0  0  0  0
   -4.0818   12.4666  -36.2551 H   0  0  0  0  0  0  0  0  0  0  0  0
   -3.5738   14.2430  -36.2930 H   0  0  0  0  0  0  0  0  0  0  0  0
   -2.7127   13.0915  -33.8649 H   0  0  0  0  0  0  0  0  0  0  0  0
   -2.1905   12.0378  -35.2227 H   0  0  0  0  0  0  0  0  0  0  0  0
   -1.7606   13.7819  -35.2227 H   0  0  0  0  0  0  0  0  0  0  0  0
   -3.2206   15.7226  -34.7130 H   0  0  0  0  0  0  0  0  0  0  0  0
   -2.6088   17.7619  -33.3283 H   0  0  0  0  0  0  0  0  0  0  0  0
   -3.2503   18.3461  -34.9550 H   0  0  0  0  0  0  0  0  0  0  0  0
   -3.1743   19.6027  -32.4059 H   0  0  0  0  0  0  0  0  0  0  0  0
   -3.5174   20.1997  -34.1380 H   0  0  0  0  0  0  0  0  0  0  0  0
  1  2  1  0
  2  3  1  0
  3  4  1  0
  4  5  1  0
  5  6  1  0
  6  7  1  0
  7  8  2  0
  8  9  1  0
  9 10  2  0
 10 11  1  0
 10 12  1  0
 12 13  2  0
 13 14  1  0
 14 15  2  0
 15 16  1  0
 16 17  2  0
  9 18  1  0
 18 19  2  0
 19 20  1  0
 20 21  2  0
 21 22  1  0
 22 23  1  0
 23 24  1  0
 21 25  1  0
 25 26  2  0
 26 27  1  0
 27 28  1  0
 17  7  1  0
 26 18  1  0
 28  8  1  0
 17 12  1  0
  1 29  1  0
  1 30  1  0
  1 31  1  0
  2 32  1  0
  2 33  1  0
  3 34  1  0
  4 35  1  0
  4 36  1  0
  5 37  1  0
  5 38  1  0
  6 39  1  0
 11 40  1  0
 11 41  1  0
 11 42  1  0
 13 43  1  0
 14 44  1  0
 15 45  1  0
 16 46  1  0
 19 47  1  0
 20 48  1  0
 23 49  1  0
 23 50  1  0
 24 51  1  0
 24 52  1  0
 24 53  1  0
 25 54  1  0
 27 55  1  0
 27 56  1  0
 28 57  1  0
 28 58  1  0
M  CHG  1  10   1
M  END
>  <smiles>  (9) 
CCNCCNc1c2c([n+](C)c3ccccc13)-c1ccc(OCC)cc1CC2

>  <score_type>  (9) 
oracle

>  <origin>  (9) 
adg

>  <m_score__min__energy>  (9) 
-9.3100000000000005

>  <m_primary>  (9) 
energy

$$$$
12:0
     RDKit          3D

 42 42  0  0  0  0  0  0  0  0999 V2000
   -8.7570   18.5460  -31.9880 C   0  0  0  0  0  0  0  0  0  0  0  0
   -7.3030   19.0090  -32.0320 C   0  0  0  0  0  0  0  0  0  0  0  0
   -7.1140   19.9650  -33.0870 N   0  0  0  0  0  0  0  0  0  0  0  0
   -5.7280   19.9270  -33.5510 C   0  0  0  0  0  0  0  0  0  0  0  0
   -4.9750   21.1170  -33.0580 C   0  0  0  0  0  0  0  0  0  0  0  0
   -5.3690   21.5240  -31.8240 O   0  0  0  0  0  0  0  0  0  0  0  0
   -5.3050   22.7240  -31.2310 C   0  0  0  0  0  0  0  0  0  0  0  0
   -4.1940   23.3900  -30.7730 C   0  0  0  0  0  0  0  0  0  0  0  0
   -4.2650   24.6510  -30.1700 C   0  0  0  0  0  0  0  0  0  0  0  0
   -3.1010   25.2860  -29.7180 O   0  0  0  0  0  0  0  0  0  0  0  0
   -2.3160   24.8040  -28.6720 C   0  0  0  0  0  0  0  0  0  0  0  0
   -3.2330   24.4780  -27.5070 C   0  0  0  0  0  0  0  0  0  0  0  0
   -5.4730   25.2930  -30.0070 C   0  0  0  0  0  0  0  0  0  0  0  0
   -6.5950   24.6420  -30.4610 C   0  0  0  0  0  0  0  0  0  0  0  0
   -6.5220   23.4060  -31.0510 C   0  0  0  0  0  0  0  0  0  0  0  0
   -7.7650   22.7730  -31.5110 C   0  0  0  0  0  0  0  0  0  0  0  0
   -8.1920   22.9140  -32.6860 O   0  0  0  0  0  0  0  0  0  0  0  0
   -8.5640   21.9340  -30.5870 C   0  0  0  0  0  0  0  0  0  0  0  0
   -9.8590   21.5530  -31.3040 C   0  0  0  0  0  0  0  0  0  0  0  0
   -9.0777   18.4439  -30.9408 H   0  0  0  0  0  0  0  0  0  0  0  0
   -9.3930   19.2861  -32.4958 H   0  0  0  0  0  0  0  0  0  0  0  0
   -8.8480   17.5745  -32.4958 H   0  0  0  0  0  0  0  0  0  0  0  0
   -7.0414   19.4742  -31.0701 H   0  0  0  0  0  0  0  0  0  0  0  0
   -6.6568   18.1387  -32.2189 H   0  0  0  0  0  0  0  0  0  0  0  0
   -7.2580   20.9380  -32.7230 H   0  0  0  0  0  0  0  0  0  0  0  0
   -5.2458   19.0129  -33.1743 H   0  0  0  0  0  0  0  0  0  0  0  0
   -5.7225   19.9353  -34.6510 H   0  0  0  0  0  0  0  0  0  0  0  0
   -3.9057   20.8623  -33.0176 H   0  0  0  0  0  0  0  0  0  0  0  0
   -5.1759   21.9437  -33.7553 H   0  0  0  0  0  0  0  0  0  0  0  0
   -3.2091   22.9130  -30.8847 H   0  0  0  0  0  0  0  0  0  0  0  0
   -1.7834   23.8966  -28.9928 H   0  0  0  0  0  0  0  0  0  0  0  0
   -1.5733   25.5584  -28.3734 H   0  0  0  0  0  0  0  0  0  0  0  0
   -2.7046   24.6659  -26.5607 H   0  0  0  0  0  0  0  0  0  0  0  0
   -4.1303   25.1122  -27.5580 H   0  0  0  0  0  0  0  0  0  0  0  0
   -3.5286   23.4197  -27.5580 H   0  0  0  0  0  0  0  0  0  0  0  0
   -5.5367   26.2840  -29.5338 H   0  0  0  0  0  0  0  0  0  0  0  0
   -7.5770   25.1247  -30.3483 H   0  0  0  0  0  0  0  0  0  0  0  0
   -8.0009   21.0264  -30.3239 H   0  0  0  0  0  0  0  0  0  0  0  0
   -8.7851   22.4853  -29.6612 H   0  0  0  0  0  0  0  0  0  0  0  0
  -10.6364   21.3243  -30.5601 H   0  0  0  0  0  0  0  0  0  0  0  0
  -10.1898   22.3919  -31.9340 H   0  0  0  0  0  0  0  0  0  0  0  0
   -9.6828   20.6686  -31.9340 H   0  0  0  0  0  0  0  0  0  0  0  0
  1  2  1  0
  2  3  1  0
  3  4  1  0
  4  5  1  0
  5  6  1  0
  6  7  1  0
  7  8  2  0
  8  9  1  0
  9 10  1  0
 10 11  1  0
 11 12  1  0
  9 13  2  0
 13 14  1  0
 14 15  2  0
 15 16  1  0
 16 17  2  0
 16 18  1  0
 18 19  1  0
 15  7  1  0
  1 20  1  0
  1 21  1  0
  1 22  1  0
  2 23  1  0
  2 24  1  0
  3 25  1  0
  4 26  1  0
  4 27  1  0
  5 28  1  0
  5 29  1  0
  8 30  1  0
 11 31  1  0
 11 32  1  0
 12 33  1  0
 12 34  1  0
 12 35  1  0
 13 36  1  0
 14 37  1  0
 18 38  1  0
 18 39  1  0
 19 40  1  0
 19 41  1  0
 19 42  1  0
M  END
>  <smiles>  (10) 
CCNCCOc1cc(OCC)ccc1C(=O)CC

>  <score_type>  (10) 
oracle

>  <origin>  (10) 
adg

>  <m_score__min__energy>  (10) 
-6.1299999999999999

>  <m_primary>  (10) 
energy

$$$$
13:0
     RDKit          3D

 34 35  0  0  0  0  0  0  0  0999 V2000
   -2.4470   20.6520  -27.5280 C   0  0  0  0  0  0  0  0  0  0  0  0
   -2.8290   21.9010  -28.2490 C   0  0  0  0  0  0  0  0  0  0  0  0
   -2.7750   21.9320  -29.6300 C   0  0  0  0  0  0  0  0  0  0  0  0
   -3.1240   23.0680  -30.3310 C   0  0  0  0  0  0  0  0  0  0  0  0
   -3.5430   24.2300  -29.6850 C   0  0  0  0  0  0  0  0  0  0  0  0
   -3.8650   25.2990  -30.4690 O   0  0  0  0  0  0  0  0  0  0  0  0
   -5.1740   25.6720  -30.7670 C   0  0  0  0  0  0  0  0  0  0  0  0
   -6.1980   24.7930  -30.1160 C   0  0  0  0  0  0  0  0  0  0  0  0
   -6.3180   23.4820  -30.7390 N   0  0  0  0  0  0  0  0  0  0  0  0
   -7.1960   22.7100  -29.8830 C   0  0  0  0  0  0  0  0  0  0  0  0
   -8.1010   21.8930  -30.7720 C   0  0  0  0  0  0  0  0  0  0  0  0
   -8.2420   22.7880  -31.9820 C   0  0  0  0  0  0  0  0  0  0  0  0
   -6.9840   23.5810  -32.0250 C   0  0  0  0  0  0  0  0  0  0  0  0
   -3.5930   24.1900  -28.3140 C   0  0  0  0  0  0  0  0  0  0  0  0
   -3.2420   23.0430  -27.5970 C   0  0  0  0  0  0  0  0  0  0  0  0
   -2.4997   20.8243  -26.4429 H   0  0  0  0  0  0  0  0  0  0  0  0
   -3.1387   19.8427  -27.8048 H   0  0  0  0  0  0  0  0  0  0  0  0
   -1.4209   20.3681  -27.8048 H   0  0  0  0  0  0  0  0  0  0  0  0
   -2.4485   21.0364  -30.1789 H   0  0  0  0  0  0  0  0  0  0  0  0
   -3.0701   23.0564  -31.4296 H   0  0  0  0  0  0  0  0  0  0  0  0
   -5.3304   26.7053  -30.4237 H   0  0  0  0  0  0  0  0  0  0  0  0
   -5.3030   25.5757  -31.8552 H   0  0  0  0  0  0  0  0  0  0  0  0
   -5.9173   24.6532  -29.0616 H   0  0  0  0  0  0  0  0  0  0  0  0
   -7.1713   25.2938  -30.2254 H   0  0  0  0  0  0  0  0  0  0  0  0
   -6.6019   22.0441  -29.2399 H   0  0  0  0  0  0  0  0  0  0  0  0
   -7.7882   23.3756  -29.2377 H   0  0  0  0  0  0  0  0  0  0  0  0
   -7.6383   20.9311  -31.0378 H   0  0  0  0  0  0  0  0  0  0  0  0
   -9.0596   21.6251  -30.3037 H   0  0  0  0  0  0  0  0  0  0  0  0
   -8.3511   22.1868  -32.8967 H   0  0  0  0  0  0  0  0  0  0  0  0
   -9.1327   23.4304  -31.9184 H   0  0  0  0  0  0  0  0  0  0  0  0
   -6.3257   23.1856  -32.8125 H   0  0  0  0  0  0  0  0  0  0  0  0
   -7.2160   24.6339  -32.2430 H   0  0  0  0  0  0  0  0  0  0  0  0
   -3.9184   25.0856  -27.7644 H   0  0  0  0  0  0  0  0  0  0  0  0
   -3.2960   23.0516  -26.4984 H   0  0  0  0  0  0  0  0  0  0  0  0
  1  2  1  0
  2  3  2  0
  3  4  1  0
  4  5  2  0
  5  6  1  0
  6  7  1  0
  7  8  1  0
  8  9  1  0
  9 10  1  0
 10 11  1  0
 11 12  1  0
 12 13  1  0
  5 14  1  0
 14 15  2  0
 15  2  1  0
 13  9  1  0
  1 16  1  0
  1 17  1  0
  1 18  1  0
  3 19  1  0
  4 20  1  0
  7 21  1  0
  7 22  1  0
  8 23  1  0
  8 24  1  0
 10 25  1  0
 10 26  1  0
 11 27  1  0
 11 28  1  0
 12 29  1  0
 12 30  1  0
 13 31  1  0
 13 32  1  0
 14 33  1  0
 15 34  1  0
M  END
>  <smiles>  (11) 
Cc1ccc(OCCN2CCCC2)cc1

>  <score_type>  (11) 
oracle

>  <origin>  (11) 
adg

>  <m_score__min__energy>  (11) 
-6.4000000000000004

>  <m_primary>  (11) 
energy

$$$$
14:0
     RDKit          3D

 44 45  0  0  1  0  0  0  0  0999 V2000
   -9.0960   21.0280  -30.9510 C   0  0  0  0  0  0  0  0  0  0  0  0
   -9.6590   20.8260  -32.3320 C   0  0  0  0  0  0  0  0  0  0  0  0
   -9.4870   19.4880  -32.8210 N   0  0  0  0  0  0  0  0  0  0  0  0
   -8.3030   18.8440  -32.3180 C   0  0  0  0  0  0  0  0  0  0  0  0
   -7.0310   19.3350  -32.9760 C   0  0  2  0  0  0  0  0  0  0  0  0
   -6.3840   18.1240  -33.6160 C   0  0  0  0  0  0  0  0  0  0  0  0
   -5.0930   18.6040  -34.2480 C   0  0  0  0  0  0  0  0  0  0  0  0
   -4.2130   19.0500  -33.0750 C   0  0  0  0  0  0  0  0  0  0  0  0
   -4.7910   20.1620  -32.3770 N   0  0  0  0  0  0  0  0  0  0  0  0
   -4.4220   21.4250  -32.9240 C   0  0  0  0  0  0  0  0  0  0  0  0
   -4.4000   22.5460  -31.9800 C   0  0  0  0  0  0  0  0  0  0  0  0
   -3.3910   23.0550  -31.1890 C   0  0  0  0  0  0  0  0  0  0  0  0
   -3.8490   24.1110  -30.4720 N   0  0  0  0  0  0  0  0  0  0  0  0
   -5.1480   24.2700  -30.8100 C   0  0  0  0  0  0  0  0  0  0  0  0
   -6.1090   25.2970  -30.3010 C   0  0  0  0  0  0  0  0  0  0  0  0
   -5.4790   23.3340  -31.7130 N   0  0  0  0  0  0  0  0  0  0  0  0
   -6.8000   23.1750  -32.3250 C   0  0  0  0  0  0  0  0  0  0  0  0
   -6.1360   19.9960  -31.9680 C   0  0  0  0  0  0  0  0  0  0  0  0
   -9.8546   20.7558  -30.2024 H   0  0  0  0  0  0  0  0  0  0  0  0
   -8.2076   20.3925  -30.8206 H   0  0  0  0  0  0  0  0  0  0  0  0
   -8.8143   22.0833  -30.8206 H   0  0  0  0  0  0  0  0  0  0  0  0
  -10.7348   21.0542  -32.3081 H   0  0  0  0  0  0  0  0  0  0  0  0
   -9.1103   21.4957  -33.0105 H   0  0  0  0  0  0  0  0  0  0  0  0
   -9.6430   19.3530  -33.8240 H   0  0  0  0  0  0  0  0  0  0  0  0
   -8.2336   19.0353  -31.2370 H   0  0  0  0  0  0  0  0  0  0  0  0
   -8.3941   17.7711  -32.5431 H   0  0  0  0  0  0  0  0  0  0  0  0
   -7.2357   20.0992  -33.7403 H   0  0  0  0  0  0  0  0  0  0  0  0
   -6.1719   17.3600  -32.8536 H   0  0  0  0  0  0  0  0  0  0  0  0
   -7.0479   17.6708  -34.3669 H   0  0  0  0  0  0  0  0  0  0  0  0
   -4.6092   17.7878  -34.8047 H   0  0  0  0  0  0  0  0  0  0  0  0
   -5.2650   19.4193  -34.9662 H   0  0  0  0  0  0  0  0  0  0  0  0
   -4.0977   18.2094  -32.3749 H   0  0  0  0  0  0  0  0  0  0  0  0
   -3.2374   19.3631  -33.4751 H   0  0  0  0  0  0  0  0  0  0  0  0
   -3.4143   21.3255  -33.3536 H   0  0  0  0  0  0  0  0  0  0  0  0
   -5.2001   21.6704  -33.6618 H   0  0  0  0  0  0  0  0  0  0  0  0
   -2.3646   22.6617  -31.1461 H   0  0  0  0  0  0  0  0  0  0  0  0
   -6.1034   25.2911  -29.2010 H   0  0  0  0  0  0  0  0  0  0  0  0
   -5.8093   26.2913  -30.6638 H   0  0  0  0  0  0  0  0  0  0  0  0
   -7.1209   25.0639  -30.6638 H   0  0  0  0  0  0  0  0  0  0  0  0
   -7.5610   23.0834  -31.5360 H   0  0  0  0  0  0  0  0  0  0  0  0
   -7.0229   24.0528  -32.9493 H   0  0  0  0  0  0  0  0  0  0  0  0
   -6.8083   22.2694  -32.9493 H   0  0  0  0  0  0  0  0  0  0  0  0
   -6.1412   19.3837  -31.0542 H   0  0  0  0  0  0  0  0  0  0  0  0
   -6.5381   21.0089  -31.8188 H   0  0  0  0  0  0  0  0  0  0  0  0
  1  2  1  0
  2  3  1  0
  3  4  1  0
  4  5  1  0
  5  6  1  0
  6  7  1  0
  7  8  1  0
  8  9  1  0
  9 10  1  0
 10 11  1  0
 11 12  2  0
 12 13  1  0
 13 14  2  0
 14 15  1  0
 14 16  1  0
 16 17  1  0
  9 18  1  0
 18  5  1  0
 16 11  1  0
  1 19  1  0
  1 20  1  0
  1 21  1  0
  2 22  1  0
  2 23  1  0
  3 24  1  0
  4 25  1  0
  4 26  1  0
  5 27  1  6
  6 28  1  0
  6 29  1  0
  7 30  1  0
  7 31  1  0
  8 32  1  0
  8 33  1  0
 10 34  1  0
 10 35  1  0
 12 36  1  0
 15 37  1  0
 15 38  1  0
 15 39  1  0
 17 40  1  0
 17 41  1  0
 17 42  1  0
 18 43  1  0
 18 44  1  0
M  END
>  <smiles>  (12) 
CCNCC1CCCN(Cc2cnc(C)n2C)C1

>  <score_type>  (12) 
oracle

>  <origin>  (12) 
adg

>  <m_score__min__energy>  (12) 
-7.4699999999999998

>  <m_primary>  (12) 
energy

$$$$
15:0
     RDKit          3D

 35 37  0  0  0  0  0  0  0  0999 V2000
   -2.1290   24.9270  -27.0880 C   0  0  0  0  0  0  0  0  0  0  0  0
   -1.5660   24.8840  -28.5070 C   0  0  0  0  0  0  0  0  0  0  0  0
   -2.5780   25.2980  -29.3590 O   0  0  0  0  0  0  0  0  0  0  0  0
   -3.5720   24.5610  -29.9420 C   0  0  0  0  0  0  0  0  0  0  0  0
   -4.7250   25.2510  -30.3290 C   0  0  0  0  0  0  0  0  0  0  0  0
   -5.7710   24.5480  -30.9290 C   0  0  0  0  0  0  0  0  0  0  0  0
   -5.6210   23.2060  -31.1130 C   0  0  0  0  0  0  0  0  0  0  0  0
   -6.5120   22.3030  -31.6800 C   0  0  0  0  0  0  0  0  0  0  0  0
   -5.8710   21.0700  -31.6220 C   0  0  0  0  0  0  0  0  0  0  0  0
   -6.4750   19.8410  -32.1230 C   0  0  0  0  0  0  0  0  0  0  0  0
   -7.7840   19.4780  -31.8300 C   0  0  0  0  0  0  0  0  0  0  0  0
   -8.3510   18.3310  -32.2960 C   0  0  0  0  0  0  0  0  0  0  0  0
   -7.6180   17.4830  -33.0880 C   0  0  0  0  0  0  0  0  0  0  0  0
   -6.3130   17.7960  -33.4080 C   0  0  0  0  0  0  0  0  0  0  0  0
   -5.5200   16.8810  -34.2630 C   0  0  0  0  0  0  0  0  0  0  0  0
   -4.2650   16.7230  -33.7330 F   0  0  0  0  0  0  0  0  0  0  0  0
   -6.0890   15.6410  -34.3850 F   0  0  0  0  0  0  0  0  0  0  0  0
   -5.3540   17.5080  -35.4880 F   0  0  0  0  0  0  0  0  0  0  0  0
   -5.7670   18.9670  -32.9210 C   0  0  0  0  0  0  0  0  0  0  0  0
   -4.6850   21.2400  -31.0590 O   0  0  0  0  0  0  0  0  0  0  0  0
   -4.5000   22.4940  -30.7430 C   0  0  0  0  0  0  0  0  0  0  0  0
   -3.4580   23.1890  -30.1460 C   0  0  0  0  0  0  0  0  0  0  0  0
   -1.3034   24.8639  -26.3639 H   0  0  0  0  0  0  0  0  0  0  0  0
   -2.6762   25.8696  -26.9390 H   0  0  0  0  0  0  0  0  0  0  0  0
   -2.8130   24.0785  -26.9390 H   0  0  0  0  0  0  0  0  0  0  0  0
   -0.7020   25.5596  -28.5909 H   0  0  0  0  0  0  0  0  0  0  0  0
   -1.2282   23.8692  -28.7639 H   0  0  0  0  0  0  0  0  0  0  0  0
   -4.8068   26.3353  -30.1625 H   0  0  0  0  0  0  0  0  0  0  0  0
   -6.6905   25.0627  -31.2445 H   0  0  0  0  0  0  0  0  0  0  0  0
   -7.5109   22.5175  -32.0876 H   0  0  0  0  0  0  0  0  0  0  0  0
   -8.3868   20.1445  -31.1957 H   0  0  0  0  0  0  0  0  0  0  0  0
   -9.3919   18.0852  -32.0388 H   0  0  0  0  0  0  0  0  0  0  0  0
   -8.0705   16.5549  -33.4672 H   0  0  0  0  0  0  0  0  0  0  0  0
   -4.7264   19.2124  -33.1797 H   0  0  0  0  0  0  0  0  0  0  0  0
   -2.5461   22.6581  -29.8354 H   0  0  0  0  0  0  0  0  0  0  0  0
  1  2  1  0
  2  3  1  0
  3  4  1  0
  4  5  2  0
  5  6  1  0
  6  7  2  0
  7  8  1  0
  8  9  2  0
  9 10  1  0
 10 11  2  0
 11 12  1  0
 12 13  2  0
 13 14  1  0
 14 15  1  0
 15 16  1  0
 15 17  1  0
 15 18  1  0
 14 19  2  0
  9 20  1  0
 20 21  1  0
 21 22  2  0
 22  4  1  0
 21  7  1  0
 19 10  1  0
  1 23  1  0
  1 24  1  0
  1 25  1  0
  2 26  1  0
  2 27  1  0
  5 28  1  0
  6 29  1  0
  8 30  1  0
 11 31  1  0
 12 32  1  0
 13 33  1  0
 19 34  1  0
 22 35  1  0
M  END
>  <smiles>  (13) 
CCOc1ccc2cc(-c3cccc(C(F)(F)F)c3)oc2c1

>  <score_type>  (13) 
oracle

>  <origin>  (13) 
adg

>  <m_score__min__energy>  (13) 
-7.3700000000000001

>  <m_primary>  (13) 
energy

$$$$
16:0
     RDKit          3D

 47 49  0  0  0  0  0  0  0  0999 V2000
   -3.0980   20.8370  -31.6630 C   0  0  0  0  0  0  0  0  0  0  0  0
   -1.9450   21.6800  -31.1630 C   0  0  0  0  0  0  0  0  0  0  0  0
   -2.1660   22.3230  -29.9320 N   0  0  0  0  0  0  0  0  0  0  0  0
   -3.4480   22.8520  -29.6650 C   0  0  0  0  0  0  0  0  0  0  0  0
   -3.4730   24.3360  -29.5100 C   0  0  0  0  0  0  0  0  0  0  0  0
   -3.8630   24.9820  -30.7670 N   0  0  0  0  0  0  0  0  0  0  0  0
   -5.2750   25.2770  -30.8300 C   0  0  0  0  0  0  0  0  0  0  0  0
   -5.9510   24.0130  -31.2730 C   0  0  0  0  0  0  0  0  0  0  0  0
   -7.2430   23.6890  -31.0240 C   0  0  0  0  0  0  0  0  0  0  0  0
   -7.5050   22.4620  -31.5830 C   0  0  0  0  0  0  0  0  0  0  0  0
   -8.6560   21.7060  -31.6050 C   0  0  0  0  0  0  0  0  0  0  0  0
   -8.6160   20.4730  -32.2650 C   0  0  0  0  0  0  0  0  0  0  0  0
   -7.4360   20.0870  -32.8510 C   0  0  0  0  0  0  0  0  0  0  0  0
   -6.2840   20.8450  -32.8260 C   0  0  0  0  0  0  0  0  0  0  0  0
   -6.3180   22.0690  -32.1730 C   0  0  0  0  0  0  0  0  0  0  0  0
   -5.4090   23.0150  -31.9720 O   0  0  0  0  0  0  0  0  0  0  0  0
   -1.2350   22.1970  -28.8890 C   0  0  0  0  0  0  0  0  0  0  0  0
   -1.5080   20.9320  -28.1290 C   0  0  0  0  0  0  0  0  0  0  0  0
   -2.7050   20.7330  -27.4500 C   0  0  0  0  0  0  0  0  0  0  0  0
   -2.9460   19.5600  -26.7620 C   0  0  0  0  0  0  0  0  0  0  0  0
   -1.9960   18.5470  -26.7300 C   0  0  0  0  0  0  0  0  0  0  0  0
   -0.8260   18.7430  -27.3930 C   0  0  0  0  0  0  0  0  0  0  0  0
   -0.5630   19.9200  -28.0930 C   0  0  0  0  0  0  0  0  0  0  0  0
   -3.6540   20.4305  -30.8053 H   0  0  0  0  0  0  0  0  0  0  0  0
   -3.7692   21.4589  -32.2736 H   0  0  0  0  0  0  0  0  0  0  0  0
   -2.7090   20.0088  -32.2736 H   0  0  0  0  0  0  0  0  0  0  0  0
   -1.0673   21.0261  -31.0532 H   0  0  0  0  0  0  0  0  0  0  0  0
   -1.8055   22.4795  -31.9055 H   0  0  0  0  0  0  0  0  0  0  0  0
   -4.1143   22.5800  -30.4969 H   0  0  0  0  0  0  0  0  0  0  0  0
   -3.7736   22.4265  -28.7043 H   0  0  0  0  0  0  0  0  0  0  0  0
   -4.1964   24.6050  -28.7262 H   0  0  0  0  0  0  0  0  0  0  0  0
   -2.4653   24.6797  -29.2337 H   0  0  0  0  0  0  0  0  0  0  0  0
   -3.6800   24.3120  -31.5610 H   0  0  0  0  0  0  0  0  0  0  0  0
   -5.6452   25.5797  -29.8394 H   0  0  0  0  0  0  0  0  0  0  0  0
   -5.4795   26.1042  -31.5256 H   0  0  0  0  0  0  0  0  0  0  0  0
   -7.9628   24.3064  -30.4665 H   0  0  0  0  0  0  0  0  0  0  0  0
   -9.5772   22.0602  -31.1193 H   0  0  0  0  0  0  0  0  0  0  0  0
   -9.5069   19.8296  -32.3131 H   0  0  0  0  0  0  0  0  0  0  0  0
   -7.4077   19.1177  -33.3702 H   0  0  0  0  0  0  0  0  0  0  0  0
   -5.3630   20.4889  -33.3107 H   0  0  0  0  0  0  0  0  0  0  0  0
   -0.2180   22.1622  -29.3067 H   0  0  0  0  0  0  0  0  0  0  0  0
   -1.3223   23.0593  -28.2117 H   0  0  0  0  0  0  0  0  0  0  0  0
   -3.4716   21.5218  -27.4610 H   0  0  0  0  0  0  0  0  0  0  0  0
   -3.9013   19.4263  -26.2332 H   0  0  0  0  0  0  0  0  0  0  0  0
   -2.1856   17.6117  -26.1829 H   0  0  0  0  0  0  0  0  0  0  0  0
   -0.0640   17.9498  -27.3770 H   0  0  0  0  0  0  0  0  0  0  0  0
    0.3960   20.0449  -28.6172 H   0  0  0  0  0  0  0  0  0  0  0  0
  1  2  1  0
  2  3  1  0
  3  4  1  0
  4  5  1  0
  5  6  1  0
  6  7  1  0
  7  8  1  0
  8  9  2  0
  9 10  1  0
 10 11  2  0
 11 12  1  0
 12 13  2  0
 13 14  1  0
 14 15  2  0
 15 16  1  0
  3 17  1  0
 17 18  1  0
 18 19  2  0
 19 20  1  0
 20 21  2  0
 21 22  1  0
 22 23  2  0
 16  8  1  0
 23 18  1  0
 15 10  1  0
  1 24  1  0
  1 25  1  0
  1 26  1  0
  2 27  1  0
  2 28  1  0
  4 29  1  0
  4 30  1  0
  5 31  1  0
  5 32  1  0
  6 33  1  0
  7 34  1  0
  7 35  1  0
  9 36  1  0
 11 37  1  0
 12 38  1  0
 13 39  1  0
 14 40  1  0
 17 41  1  0
 17 42  1  0
 19 43  1  0
 20 44  1  0
 21 45  1  0
 22 46  1  0
 23 47  1  0
M  END
>  <smiles>  (14) 
CCN(CCNCc1cc2ccccc2o1)Cc1ccccc1

>  <score_type>  (14) 
oracle

>  <origin>  (14) 
adg

>  <m_score__min__energy>  (14) 
-9.2799999999999994

>  <m_primary>  (14) 
energy

$$$$
17:0
     RDKit          3D

 41 42  0  0  0  0  0  0  0  0999 V2000
   -3.9090   23.7280  -28.5680 C   0  0  0  0  0  0  0  0  0  0  0  0
   -3.3070   24.1300  -29.8690 C   0  0  0  0  0  0  0  0  0  0  0  0
   -3.8500   25.2430  -30.4730 O   0  0  0  0  0  0  0  0  0  0  0  0
   -5.1770   25.4950  -30.1440 C   0  0  0  0  0  0  0  0  0  0  0  0
   -6.1290   24.9210  -31.1750 C   0  0  0  0  0  0  0  0  0  0  0  0
   -6.2800   23.4940  -31.1190 N   0  0  0  0  0  0  0  0  0  0  0  0
   -7.0870   23.0870  -29.9750 C   0  0  0  0  0  0  0  0  0  0  0  0
   -7.9550   21.8880  -30.3180 C   0  0  0  0  0  0  0  0  0  0  0  0
   -8.9890   22.2790  -31.2430 N   0  0  0  0  0  0  0  0  0  0  0  0
   -9.5770   21.2170  -31.9990 C   0  0  0  0  0  0  0  0  0  0  0  0
   -8.5750   20.1870  -32.3980 C   0  0  0  0  0  0  0  0  0  0  0  0
   -7.6110   20.0220  -33.0850 N   0  0  0  0  0  0  0  0  0  0  0  0
   -6.8700   18.9500  -33.2280 C   0  0  0  0  0  0  0  0  0  0  0  0
   -5.6800   18.8890  -34.1500 C   0  0  0  0  0  0  0  0  0  0  0  0
   -7.2630   17.8800  -32.4870 C   0  0  0  0  0  0  0  0  0  0  0  0
   -8.7290   18.4480  -31.5730 S   0  0  0  0  0  0  0  0  0  0  0  0
   -8.4430   23.2790  -32.1530 C   0  0  0  0  0  0  0  0  0  0  0  0
   -6.9710   23.0170  -32.2960 C   0  0  0  0  0  0  0  0  0  0  0  0
   -3.3036   24.1323  -27.7434 H   0  0  0  0  0  0  0  0  0  0  0  0
   -4.9329   24.1243  -28.4997 H   0  0  0  0  0  0  0  0  0  0  0  0
   -3.9353   22.6304  -28.4997 H   0  0  0  0  0  0  0  0  0  0  0  0
   -2.2389   24.3290  -29.6972 H   0  0  0  0  0  0  0  0  0  0  0  0
   -3.5075   23.2950  -30.5564 H   0  0  0  0  0  0  0  0  0  0  0  0
   -5.3943   25.0406  -29.1661 H   0  0  0  0  0  0  0  0  0  0  0  0
   -5.3216   26.5850  -30.1130 H   0  0  0  0  0  0  0  0  0  0  0  0
   -7.1180   25.3772  -31.0206 H   0  0  0  0  0  0  0  0  0  0  0  0
   -5.6975   25.1508  -32.1604 H   0  0  0  0  0  0  0  0  0  0  0  0
   -6.4205   22.8214  -29.1412 H   0  0  0  0  0  0  0  0  0  0  0  0
   -7.7425   23.9244  -29.6937 H   0  0  0  0  0  0  0  0  0  0  0  0
   -7.3320   21.1061  -30.7767 H   0  0  0  0  0  0  0  0  0  0  0  0
   -8.4190   21.5021  -29.3983 H   0  0  0  0  0  0  0  0  0  0  0  0
  -10.3552   20.7361  -31.3881 H   0  0  0  0  0  0  0  0  0  0  0  0
   -9.9996   21.6504  -32.9175 H   0  0  0  0  0  0  0  0  0  0  0  0
   -4.7566   18.8417  -33.5542 H   0  0  0  0  0  0  0  0  0  0  0  0
   -5.7533   17.9934  -34.7845 H   0  0  0  0  0  0  0  0  0  0  0  0
   -5.6613   19.7874  -34.7845 H   0  0  0  0  0  0  0  0  0  0  0  0
   -6.7951   16.8852  -32.4486 H   0  0  0  0  0  0  0  0  0  0  0  0
   -8.9340   23.1995  -33.1341 H   0  0  0  0  0  0  0  0  0  0  0  0
   -8.6159   24.2913  -31.7589 H   0  0  0  0  0  0  0  0  0  0  0  0
   -6.8002   21.9362  -32.4087 H   0  0  0  0  0  0  0  0  0  0  0  0
   -6.5895   23.5430  -33.1836 H   0  0  0  0  0  0  0  0  0  0  0  0
  1  2  1  0
  2  3  1  0
  3  4  1  0
  4  5  1  0
  5  6  1  0
  6  7  1  0
  7  8  1  0
  8  9  1  0
  9 10  1  0
 10 11  1  0
 11 12  2  0
 12 13  1  0
 13 14  1  0
 13 15  2  0
 15 16  1  0
  9 17  1  0
 17 18  1  0
 18  6  1  0
 16 11  1  0
  1 19  1  0
  1 20  1  0
  1 21  1  0
  2 22  1  0
  2 23  1  0
  4 24  1  0
  4 25  1  0
  5 26  1  0
  5 27  1  0
  7 28  1  0
  7 29  1  0
  8 30  1  0
  8 31  1  0
 10 32  1  0
 10 33  1  0
 14 34  1  0
 14 35  1  0
 14 36  1  0
 15 37  1  0
 17 38  1  0
 17 39  1  0
 18 40  1  0
 18 41  1  0
M  END
>  <smiles>  (15) 
CCOCCN1CCN(Cc2nc(C)cs2)CC1

>  <score_type>  (15) 
oracle

>  <origin>  (15) 
adg

>  <m_score__min__energy>  (15) 
-7.4500000000000002

>  <m_primary>  (15) 
energy

$$$$
18:0
     RDKit          3D

 53 55  0  0  0  0  0  0  0  0999 V2000
   -6.0840   25.4380  -29.4530 C   0  0  0  0  0  0  0  0  0  0  0  0
   -5.3120   25.5070  -30.7320 C   0  0  0  0  0  0  0  0  0  0  0  0
   -3.9070   25.2980  -30.4390 N   0  0  0  0  0  0  0  0  0  0  0  0
   -3.7080   23.8910  -30.1830 C   0  0  0  0  0  0  0  0  0  0  0  0
   -4.5840   23.0230  -31.0490 C   0  0  0  0  0  0  0  0  0  0  0  0
   -4.0100   21.6750  -31.3500 C   0  0  0  0  0  0  0  0  0  0  0  0
   -3.8600   21.6070  -32.9020 C   0  0  0  0  0  0  0  0  0  0  0  0
   -4.6800   20.6900  -33.4740 N   0  0  0  0  0  0  0  0  0  0  0  0
   -5.2540   19.6310  -33.3460 C   0  0  0  0  0  0  0  0  0  0  0  0
   -6.5570   19.6630  -32.7920 C   0  0  0  0  0  0  0  0  0  0  0  0
   -7.0960   20.8580  -32.4410 C   0  0  0  0  0  0  0  0  0  0  0  0
   -8.3770   20.9610  -31.8910 C   0  0  0  0  0  0  0  0  0  0  0  0
   -8.8540   22.2010  -31.5620 O   0  0  0  0  0  0  0  0  0  0  0  0
   -8.1920   23.4220  -31.7650 C   0  0  0  0  0  0  0  0  0  0  0  0
   -9.1030   19.7980  -31.7060 C   0  0  0  0  0  0  0  0  0  0  0  0
   -8.5690   18.5560  -32.0600 C   0  0  0  0  0  0  0  0  0  0  0  0
   -7.2880   18.5180  -32.6030 C   0  0  0  0  0  0  0  0  0  0  0  0
   -6.8100   17.3230  -32.9290 N   0  0  0  0  0  0  0  0  0  0  0  0
   -5.5900   17.2270  -33.4540 C   0  0  0  0  0  0  0  0  0  0  0  0
   -5.1500   15.9380  -33.7730 C   0  0  0  0  0  0  0  0  0  0  0  0
   -3.8880   15.8500  -34.3140 C   0  0  0  0  0  0  0  0  0  0  0  0
   -3.0970   16.9380  -34.5350 C   0  0  0  0  0  0  0  0  0  0  0  0
   -1.8480   16.7630  -35.0780 O   0  0  0  0  0  0  0  0  0  0  0  0
   -0.7800   17.6380  -34.8410 C   0  0  0  0  0  0  0  0  0  0  0  0
   -3.5800   18.1790  -34.2030 C   0  0  0  0  0  0  0  0  0  0  0  0
   -4.8250   18.3460  -33.6610 C   0  0  0  0  0  0  0  0  0  0  0  0
   -5.3899   25.5000  -28.6019 H   0  0  0  0  0  0  0  0  0  0  0  0
   -6.7949   26.2762  -29.4082 H   0  0  0  0  0  0  0  0  0  0  0  0
   -6.6350   24.4870  -29.4082 H   0  0  0  0  0  0  0  0  0  0  0  0
   -5.6666   24.7262  -31.4209 H   0  0  0  0  0  0  0  0  0  0  0  0
   -5.4543   26.4908  -31.2030 H   0  0  0  0  0  0  0  0  0  0  0  0
   -3.5150   25.9260  -29.7290 H   0  0  0  0  0  0  0  0  0  0  0  0
   -2.6554   23.6407  -30.3813 H   0  0  0  0  0  0  0  0  0  0  0  0
   -3.9757   23.6986  -29.1336 H   0  0  0  0  0  0  0  0  0  0  0  0
   -5.5452   22.8808  -30.5335 H   0  0  0  0  0  0  0  0  0  0  0  0
   -4.6884   23.5431  -32.0126 H   0  0  0  0  0  0  0  0  0  0  0  0
   -3.0288   21.5608  -30.8660 H   0  0  0  0  0  0  0  0  0  0  0  0
   -4.6562   20.8689  -30.9724 H   0  0  0  0  0  0  0  0  0  0  0  0
   -4.0949   22.5968  -33.3206 H   0  0  0  0  0  0  0  0  0  0  0  0
   -2.8251   21.3042  -33.1197 H   0  0  0  0  0  0  0  0  0  0  0  0
   -6.5065   21.7740  -32.5941 H   0  0  0  0  0  0  0  0  0  0  0  0
   -7.9476   23.8728  -30.7918 H   0  0  0  0  0  0  0  0  0  0  0  0
   -7.2653   23.2469  -32.3311 H   0  0  0  0  0  0  0  0  0  0  0  0
   -8.8444   24.1031  -32.3311 H   0  0  0  0  0  0  0  0  0  0  0  0
  -10.1135   19.8515  -31.2747 H   0  0  0  0  0  0  0  0  0  0  0  0
   -9.1467   17.6315  -31.9132 H   0  0  0  0  0  0  0  0  0  0  0  0
   -7.3840   16.4640  -32.7780 H   0  0  0  0  0  0  0  0  0  0  0  0
   -5.7748   15.0490  -33.6018 H   0  0  0  0  0  0  0  0  0  0  0  0
   -3.4995   14.8560  -34.5804 H   0  0  0  0  0  0  0  0  0  0  0  0
   -0.6362   17.7558  -33.7568 H   0  0  0  0  0  0  0  0  0  0  0  0
    0.1366   17.2279  -35.2900 H   0  0  0  0  0  0  0  0  0  0  0  0
   -1.0018   18.6174  -35.2900 H   0  0  0  0  0  0  0  0  0  0  0  0
   -2.9492   19.0631  -34.3774 H   0  0  0  0  0  0  0  0  0  0  0  0
  1  2  1  0
  2  3  1  0
  3  4  1  0
  4  5  1  0
  5  6  1  0
  6  7  1  0
  7  8  1  0
  8  9  2  3
  9 10  1  0
 10 11  2  0
 11 12  1  0
 12 13  1  0
 13 14  1  0
 12 15  2  0
 15 16  1  0
 16 17  2  0
 17 18  1  0
 18 19  1  0
 19 20  2  0
 20 21  1  0
 21 22  2  0
 22 23  1  0
 23 24  1  0
 22 25  1  0
 25 26  2  0
 26  9  1  0
 17 10  1  0
 26 19  1  0
  1 27  1  0
  1 28  1  0
  1 29  1  0
  2 30  1  0
  2 31  1  0
  3 32  1  0
  4 33  1  0
  4 34  1  0
  5 35  1  0
  5 36  1  0
  6 37  1  0
  6 38  1  0
  7 39  1  0
  7 40  1  0
 11 41  1  0
 14 42  1  0
 14 43  1  0
 14 44  1  0
 15 45  1  0
 16 46  1  0
 18 47  1  0
 20 48  1  0
 21 49  1  0
 24 50  1  0
 24 51  1  0
 24 52  1  0
 25 53  1  0
M  END
>  <smiles>  (16) 
CCNCCCCN=c1c2cc(OC)ccc2[nH]c2ccc(OC)cc12

>  <score_type>  (16) 
oracle

>  <origin>  (16) 
adg

>  <m_score__min__energy>  (16) 
-8.75

>  <m_primary>  (16) 
energy

$$$$
