0:0
     RDKit          3D

 67 70  0  0  0  0  0  0  0  0999 V2000
   -2.8540   23.1270  -30.1760 C   0  0  0  0  0  0  0  0  0  0  0  0
   -3.4840   24.5100  -30.0360 C   0  0  0  0  0  0  0  0  0  0  0  0
   -4.4430   24.7480  -31.1280 N   0  0  0  0  0  0  0  0  0  0  0  0
   -5.8460   24.6930  -30.6820 C   0  0  0  0  0  0  0  0  0  0  0  0
   -6.5890   23.4610  -31.2330 C   0  0  0  0  0  0  0  0  0  0  0  0
   -6.1420   23.1530  -32.6010 N   0  0  0  0  0  0  0  0  0  0  0  0
   -5.8930   21.7350  -32.7380 C   0  0  0  0  0  0  0  0  0  0  0  0
   -6.9040   20.7470  -32.5620 C   0  0  0  0  0  0  0  0  0  0  0  0
   -6.5730   19.3650  -32.7210 C   0  0  0  0  0  0  0  0  0  0  0  0
   -5.2990   18.9810  -33.1090 N   0  0  0  0  0  0  0  0  0  0  0  0
   -5.0040   17.6060  -33.5370 C   0  0  0  0  0  0  0  0  0  0  0  0
   -4.3240   19.9410  -33.1380 C   0  0  0  0  0  0  0  0  0  0  0  0
   -4.6010   21.2790  -32.9830 C   0  0  0  0  0  0  0  0  0  0  0  0
   -3.5120   22.0090  -33.0970 O   0  0  0  0  0  0  0  0  0  0  0  0
   -2.5140   21.1780  -33.3050 C   0  0  0  0  0  0  0  0  0  0  0  0
   -1.1740   21.5120  -33.4610 C   0  0  0  0  0  0  0  0  0  0  0  0
   -0.2320   20.4740  -33.6160 C   0  0  0  0  0  0  0  0  0  0  0  0
    1.1580   20.8140  -33.7720 N   0  0  0  0  0  0  0  0  0  0  0  0
    1.9110   20.6990  -35.0240 C   0  0  0  0  0  0  0  0  0  0  0  0
    1.4370   21.7380  -36.0480 C   0  0  0  0  0  0  0  0  0  0  0  0
    1.3640   23.0860  -35.4410 N   0  0  0  0  0  0  0  0  0  0  0  0
    0.3430   23.9070  -36.1060 C   0  0  0  0  0  0  0  0  0  0  0  0
    2.6690   23.7650  -35.4980 C   0  0  0  0  0  0  0  0  0  0  0  0
   -0.6790   19.1260  -33.6230 C   0  0  0  0  0  0  0  0  0  0  0  0
   -2.0390   18.8130  -33.4630 C   0  0  0  0  0  0  0  0  0  0  0  0
   -2.9490   19.8680  -33.3330 C   0  0  0  0  0  0  0  0  0  0  0  0
   -7.6640   18.3510  -32.4370 C   0  0  0  0  0  0  0  0  0  0  0  0
   -8.4640   18.7800  -31.2080 C   0  0  0  0  0  0  0  0  0  0  0  0
   -9.1080   20.1660  -31.3780 C   0  0  0  0  0  0  0  0  0  0  0  0
   -8.3610   21.1150  -32.3400 C   0  0  0  0  0  0  0  0  0  0  0  0
   -2.6632   22.7082  -29.1769 H   0  0  0  0  0  0  0  0  0  0  0  0
   -3.5397   22.4657  -30.7260 H   0  0  0  0  0  0  0  0  0  0  0  0
   -1.9050   23.2103  -30.7260 H   0  0  0  0  0  0  0  0  0  0  0  0
   -4.0092   24.5735  -29.0716 H   0  0  0  0  0  0  0  0  0  0  0  0
   -2.6910   25.2708  -30.0842 H   0  0  0  0  0  0  0  0  0  0  0  0
   -4.2470   25.6810  -31.5640 H   0  0  0  0  0  0  0  0  0  0  0  0
   -5.8661   24.6554  -29.5828 H   0  0  0  0  0  0  0  0  0  0  0  0
   -6.3549   25.5904  -31.0638 H   0  0  0  0  0  0  0  0  0  0  0  0
   -6.3862   22.5966  -30.5836 H   0  0  0  0  0  0  0  0  0  0  0  0
   -7.6672   23.6781  -31.2536 H   0  0  0  0  0  0  0  0  0  0  0  0
   -5.2620   23.6850  -32.8000 H   0  0  0  0  0  0  0  0  0  0  0  0
   -6.8430   23.4730  -33.3060 H   0  0  0  0  0  0  0  0  0  0  0  0
   -4.8671   16.9678  -32.6516 H   0  0  0  0  0  0  0  0  0  0  0  0
   -5.8402   17.2222  -34.1398 H   0  0  0  0  0  0  0  0  0  0  0  0
   -4.0839   17.5990  -34.1398 H   0  0  0  0  0  0  0  0  0  0  0  0
   -0.8546   22.5646  -33.4635 H   0  0  0  0  0  0  0  0  0  0  0  0
    1.6950   21.0950  -32.9200 H   0  0  0  0  0  0  0  0  0  0  0  0
    2.9794   20.8592  -34.8172 H   0  0  0  0  0  0  0  0  0  0  0  0
    1.7456   19.6948  -35.4414 H   0  0  0  0  0  0  0  0  0  0  0  0
    2.1435   21.7608  -36.8908 H   0  0  0  0  0  0  0  0  0  0  0  0
    0.4323   21.4550  -36.3950 H   0  0  0  0  0  0  0  0  0  0  0  0
   -0.2776   24.4060  -35.3472 H   0  0  0  0  0  0  0  0  0  0  0  0
    0.8339   24.6647  -36.7343 H   0  0  0  0  0  0  0  0  0  0  0  0
   -0.2917   23.2649  -36.7343 H   0  0  0  0  0  0  0  0  0  0  0  0
    3.0296   23.9526  -34.4759 H   0  0  0  0  0  0  0  0  0  0  0  0
    3.3908   23.1281  -36.0304 H   0  0  0  0  0  0  0  0  0  0  0  0
    2.5617   24.7216  -36.0304 H   0  0  0  0  0  0  0  0  0  0  0  0
    0.0513   18.3142  -33.7558 H   0  0  0  0  0  0  0  0  0  0  0  0
   -2.3793   17.7672  -33.4405 H   0  0  0  0  0  0  0  0  0  0  0  0
   -8.3361   18.2853  -33.3053 H   0  0  0  0  0  0  0  0  0  0  0  0
   -7.2059   17.3691  -32.2469 H   0  0  0  0  0  0  0  0  0  0  0  0
   -9.2592   18.0412  -31.0293 H   0  0  0  0  0  0  0  0  0  0  0  0
   -7.7668   18.8376  -30.3591 H   0  0  0  0  0  0  0  0  0  0  0  0
  -10.1289   20.0239  -31.7621 H   0  0  0  0  0  0  0  0  0  0  0  0
   -9.0787   20.6440  -30.3877 H   0  0  0  0  0  0  0  0  0  0  0  0
   -8.8747   21.0965  -33.3125 H   0  0  0  0  0  0  0  0  0  0  0  0
   -8.3706   22.1120  -31.8753 H   0  0  0  0  0  0  0  0  0  0  0  0
  1  2  1  0
  2  3  1  0
  3  4  1  0
  4  5  1  0
  5  6  1  0
  6  7  1  0
  7  8  2  0
  8  9  1  0
  9 10  2  0
 10 11  1  0
 10 12  1  0
 12 13  2  0
 13 14  1  0
 14 15  1  0
 15 16  2  0
 16 17  1  0
 17 18  1  0
 18 19  1  0
 19 20  1  0
 20 21  1  0
 21 22  1  0
 21 23  1  0
 17 24  2  0
 24 25  1  0
 25 26  2  0
  9 27  1  0
 27 28  1  0
 28 29  1  0
 29 30  1  0
 13  7  1  0
 26 15  1  0
 30  8  1  0
 26 12  1  0
  1 31  1  0
  1 32  1  0
  1 33  1  0
  2 34  1  0
  2 35  1  0
  3 36  1  0
  4 37  1  0
  4 38  1  0
  5 39  1  0
  5 40  1  0
  6 41  1  0
  6 42  1  0
 11 43  1  0
 11 44  1  0
 11 45  1  0
 16 46  1  0
 18 47  1  0
 19 48  1  0
 19 49  1  0
 20 50  1  0
 20 51  1  0
 22 52  1  0
 22 53  1  0
 22 54  1  0
 23 55  1  0
 23 56  1  0
 23 57  1  0
 24 58  1  0
 25 59  1  0
 27 60  1  0
 27 61  1  0
 28 62  1  0
 28 63  1  0
 29 64  1  0
 29 65  1  0
 30 66  1  0
 30 67  1  0
M  CHG  2   6   1  10   1
M  END
>  <UniqueID>  (1) 
1

>  <SMILES>  (1) 
CCNCC[NH2+]c1c2c([n+](C)c3c1oc1cc(NCCN(C)C)ccc13)CCCC2

>  <Energy>  (1) 
123.67817917571169

>  <Genealogy>  (1) 
CCNCC[NH2+]c1c2c([n+](C)c3c1oc1cc(NCCN(C)C)ccc13)CCCC2 (protonated)
CCNCC[NH2+]c1c2c([n+](C)c3c1oc1cc(NCCN(C)C)ccc13)CCCC2 (3D coordinates assigned)
CCNCC[NH2+]c1c2c([n+](C)c3c1oc1cc(NCCN(C)C)ccc13)CCCC2 (nonaromatic ring conformer: 123.67817917571169 kcal/mol)

>  <smiles>  (1) 
CCNCCNc1c2c([n+](C)c3c1oc1cc(NCCN(C)C)ccc13)CCCC2

>  <score_type>  (1) 
oracle

>  <origin>  (1) 
adg

>  <m_score__min__energy>  (1) 
-8.7899999999999991

>  <m_primary>  (1) 
energy

$$$$
1:0
     RDKit          3D

 40 43  0  0  0  0  0  0  0  0999 V2000
   -5.5130   16.5730  -33.6500 C   0  0  0  0  0  0  0  0  0  0  0  0
   -5.5950   18.0410  -33.3450 C   0  0  0  0  0  0  0  0  0  0  0  0
   -4.4780   18.8000  -33.5100 N   0  0  0  0  0  0  0  0  0  0  0  0
   -4.4770   20.1320  -33.2500 C   0  0  0  0  0  0  0  0  0  0  0  0
   -2.9770   21.0800  -33.4670 S   0  0  0  0  0  0  0  0  0  0  0  0
   -3.4450   22.2490  -32.1900 C   0  0  0  0  0  0  0  0  0  0  0  0
   -4.5420   23.0200  -32.2520 N   0  0  0  0  0  0  0  0  0  0  0  0
   -4.5770   23.7730  -31.1650 N   0  0  0  0  0  0  0  0  0  0  0  0
   -3.4910   23.4390  -30.4360 C   0  0  0  0  0  0  0  0  0  0  0  0
   -3.1760   24.0680  -29.1350 C   0  0  0  0  0  0  0  0  0  0  0  0
   -1.9430   24.7040  -28.9110 C   0  0  0  0  0  0  0  0  0  0  0  0
   -1.6590   25.2750  -27.6670 C   0  0  0  0  0  0  0  0  0  0  0  0
   -2.5960   25.2050  -26.6340 C   0  0  0  0  0  0  0  0  0  0  0  0
   -3.8160   24.5570  -26.8400 C   0  0  0  0  0  0  0  0  0  0  0  0
   -4.1030   23.9840  -28.0820 C   0  0  0  0  0  0  0  0  0  0  0  0
   -2.7480   22.4940  -31.0640 N   0  0  0  0  0  0  0  0  0  0  0  0
   -1.4880   21.8800  -30.6450 C   0  0  0  0  0  0  0  0  0  0  0  0
   -5.6070   20.7430  -32.8170 N   0  0  0  0  0  0  0  0  0  0  0  0
   -6.7550   20.0420  -32.6310 C   0  0  0  0  0  0  0  0  0  0  0  0
   -7.9060   20.6980  -32.1790 C   0  0  0  0  0  0  0  0  0  0  0  0
   -9.0890   19.9820  -31.9830 C   0  0  0  0  0  0  0  0  0  0  0  0
   -9.1280   18.6080  -32.2380 C   0  0  0  0  0  0  0  0  0  0  0  0
   -7.9840   17.9420  -32.6900 C   0  0  0  0  0  0  0  0  0  0  0  0
   -6.7840   18.6520  -32.8920 C   0  0  0  0  0  0  0  0  0  0  0  0
   -5.4812   16.0042  -32.7090 H   0  0  0  0  0  0  0  0  0  0  0  0
   -6.3956   16.2696  -34.2322 H   0  0  0  0  0  0  0  0  0  0  0  0
   -4.6021   16.3698  -34.2322 H   0  0  0  0  0  0  0  0  0  0  0  0
   -5.2510   23.0460  -33.0190 H   0  0  0  0  0  0  0  0  0  0  0  0
   -1.1977   24.7528  -29.7185 H   0  0  0  0  0  0  0  0  0  0  0  0
   -0.6960   25.7802  -27.5016 H   0  0  0  0  0  0  0  0  0  0  0  0
   -2.3732   25.6603  -25.6578 H   0  0  0  0  0  0  0  0  0  0  0  0
   -4.5514   24.4976  -26.0242 H   0  0  0  0  0  0  0  0  0  0  0  0
   -5.0601   23.4642  -28.2363 H   0  0  0  0  0  0  0  0  0  0  0  0
   -1.4392   21.8562  -29.5463 H   0  0  0  0  0  0  0  0  0  0  0  0
   -1.4321   20.8537  -31.0368 H   0  0  0  0  0  0  0  0  0  0  0  0
   -0.6452   22.4684  -31.0368 H   0  0  0  0  0  0  0  0  0  0  0  0
   -7.8787   21.7791  -31.9779 H   0  0  0  0  0  0  0  0  0  0  0  0
   -9.9918   20.5002  -31.6273 H   0  0  0  0  0  0  0  0  0  0  0  0
  -10.0621   18.0483  -32.0826 H   0  0  0  0  0  0  0  0  0  0  0  0
   -8.0214   16.8607  -32.8883 H   0  0  0  0  0  0  0  0  0  0  0  0
  1  2  1  0
  2  3  2  0
  3  4  1  0
  4  5  1  0
  5  6  1  0
  6  7  2  0
  7  8  1  0
  8  9  2  0
  9 10  1  0
 10 11  2  0
 11 12  1  0
 12 13  2  0
 13 14  1  0
 14 15  2  0
  9 16  1  0
 16 17  1  0
  4 18  2  0
 18 19  1  0
 19 20  2  0
 20 21  1  0
 21 22  2  0
 22 23  1  0
 23 24  2  0
 24  2  1  0
 16  6  1  0
 24 19  1  0
 15 10  1  0
  1 25  1  0
  1 26  1  0
  1 27  1  0
  7 28  1  0
 11 29  1  0
 12 30  1  0
 13 31  1  0
 14 32  1  0
 15 33  1  0
 17 34  1  0
 17 35  1  0
 17 36  1  0
 20 37  1  0
 21 38  1  0
 22 39  1  0
 23 40  1  0
M  CHG  1   7   1
M  END
>  <UniqueID>  (2) 
2

>  <SMILES>  (2) 
Cc1nc(Sc2[nH+]nc(-c3ccccc3)n2C)nc2ccccc12

>  <Energy>  (2) 
83.77551513177684

>  <Genealogy>  (2) 
Cc1nc(Sc2[nH+]nc(-c3ccccc3)n2C)nc2ccccc12 (protonated)
Cc1nc(Sc2[nH+]nc(-c3ccccc3)n2C)nc2ccccc12 (3D coordinates assigned)
Cc1nc(Sc2[nH+]nc(-c3ccccc3)n2C)nc2ccccc12 (optimized conformer: 83.77551513177684 kcal/mol)

>  <smiles>  (2) 
Cc1nc(Sc2nnc(-c3ccccc3)n2C)nc2ccccc12

>  <score_type>  (2) 
oracle

>  <origin>  (2) 
adg

>  <m_score__min__energy>  (2) 
-8.3800000000000008

>  <m_primary>  (2) 
energy

$$$$
2:0
     RDKit          3D

 46 47  0  0  0  0  0  0  0  0999 V2000
   -6.7990   24.5890  -30.4000 C   0  0  0  0  0  0  0  0  0  0  0  0
   -6.2700   23.4860  -31.2570 C   0  0  0  0  0  0  0  0  0  0  0  0
   -5.0060   23.4330  -31.7170 N   0  0  0  0  0  0  0  0  0  0  0  0
   -4.8730   22.3060  -32.4020 N   0  0  0  0  0  0  0  0  0  0  0  0
   -3.6250   21.9170  -33.0660 C   0  0  0  0  0  0  0  0  0  0  0  0
   -2.4470   21.8670  -32.0670 C   0  0  2  0  0  0  0  0  0  0  0  0
   -1.2360   21.1690  -32.6990 C   0  0  0  0  0  0  0  0  0  0  0  0
   -2.8290   21.2110  -30.7210 C   0  0  0  0  0  0  0  0  0  0  0  0
   -3.1910   22.2220  -29.7150 N   0  0  0  0  0  0  0  0  0  0  0  0
   -2.0120   22.8610  -29.1060 C   0  0  0  0  0  0  0  0  0  0  0  0
   -1.9900   24.4010  -29.2940 C   0  0  1  0  0  0  0  0  0  0  0  0
   -3.0970   24.8730  -30.0270 O   0  0  0  0  0  0  0  0  0  0  0  0
   -1.8890   25.1160  -27.9590 C   0  0  0  0  0  0  0  0  0  0  0  0
   -0.8240   26.0100  -27.7320 C   0  0  0  0  0  0  0  0  0  0  0  0
   -0.7010   26.6740  -26.5080 C   0  0  0  0  0  0  0  0  0  0  0  0
   -1.6330   26.4520  -25.4940 C   0  0  0  0  0  0  0  0  0  0  0  0
   -2.6900   25.5630  -25.7000 C   0  0  0  0  0  0  0  0  0  0  0  0
   -2.8220   24.8940  -26.9210 C   0  0  0  0  0  0  0  0  0  0  0  0
   -3.8550   24.0300  -27.0770 F   0  0  0  0  0  0  0  0  0  0  0  0
   -6.0510   21.6390  -32.4050 C   0  0  0  0  0  0  0  0  0  0  0  0
   -6.3050   20.3220  -33.0760 C   0  0  0  0  0  0  0  0  0  0  0  0
   -6.9640   22.3620  -31.6610 C   0  0  0  0  0  0  0  0  0  0  0  0
   -8.7810   21.9160  -31.2600 Br  0  0  0  0  0  0  0  0  0  0  0  0
   -6.6715   24.3232  -29.3402 H   0  0  0  0  0  0  0  0  0  0  0  0
   -6.2477   25.5164  -30.6143 H   0  0  0  0  0  0  0  0  0  0  0  0
   -7.8674   24.7397  -30.6143 H   0  0  0  0  0  0  0  0  0  0  0  0
   -3.7545   20.9220  -33.5168 H   0  0  0  0  0  0  0  0  0  0  0  0
   -3.3941   22.6674  -33.8364 H   0  0  0  0  0  0  0  0  0  0  0  0
   -2.1766   22.9081  -31.8367 H   0  0  0  0  0  0  0  0  0  0  0  0
   -0.5764   20.7888  -31.9051 H   0  0  0  0  0  0  0  0  0  0  0  0
   -1.5801   20.3307  -33.3226 H   0  0  0  0  0  0  0  0  0  0  0  0
   -0.6831   21.8870  -33.3226 H   0  0  0  0  0  0  0  0  0  0  0  0
   -3.6869   20.5411  -30.8800 H   0  0  0  0  0  0  0  0  0  0  0  0
   -1.9589   20.6494  -30.3501 H   0  0  0  0  0  0  0  0  0  0  0  0
   -3.7900   22.9550  -30.1570 H   0  0  0  0  0  0  0  0  0  0  0  0
   -2.0111   22.6397  -28.0285 H   0  0  0  0  0  0  0  0  0  0  0  0
   -1.1221   22.4560  -29.6100 H   0  0  0  0  0  0  0  0  0  0  0  0
   -1.0901   24.6299  -29.8838 H   0  0  0  0  0  0  0  0  0  0  0  0
   -3.3700   24.1720  -30.6720 H   0  0  0  0  0  0  0  0  0  0  0  0
   -0.0826   26.1871  -28.5251 H   0  0  0  0  0  0  0  0  0  0  0  0
    0.1324   27.3730  -26.3441 H   0  0  0  0  0  0  0  0  0  0  0  0
   -1.5353   26.9771  -24.5324 H   0  0  0  0  0  0  0  0  0  0  0  0
   -3.4223   25.3881  -24.8981 H   0  0  0  0  0  0  0  0  0  0  0  0
   -6.4550   19.5444  -32.3125 H   0  0  0  0  0  0  0  0  0  0  0  0
   -7.2051   20.3979  -33.7038 H   0  0  0  0  0  0  0  0  0  0  0  0
   -5.4413   20.0577  -33.7038 H   0  0  0  0  0  0  0  0  0  0  0  0
  1  2  1  0
  2  3  2  0
  3  4  1  0
  4  5  1  0
  5  6  1  0
  6  7  1  0
  6  8  1  0
  8  9  1  0
  9 10  1  0
 10 11  1  0
 11 12  1  0
 11 13  1  0
 13 14  2  0
 14 15  1  0
 15 16  2  0
 16 17  1  0
 17 18  2  0
 18 19  1  0
  4 20  1  0
 20 21  1  0
 20 22  2  0
 22 23  1  0
 22  2  1  0
 18 13  1  0
  1 24  1  0
  1 25  1  0
  1 26  1  0
  5 27  1  0
  5 28  1  0
  6 29  1  1
  7 30  1  0
  7 31  1  0
  7 32  1  0
  8 33  1  0
  8 34  1  0
  9 35  1  0
 10 36  1  0
 10 37  1  0
 11 38  1  6
 12 39  1  0
 14 40  1  0
 15 41  1  0
 16 42  1  0
 17 43  1  0
 21 44  1  0
 21 45  1  0
 21 46  1  0
M  END
>  <UniqueID>  (3) 
3

>  <SMILES>  (3) 
Cc1nn(C[C@H](C)CNC[C@@H](O)c2ccccc2F)c(C)c1Br

>  <Energy>  (3) 
71.49845429757802

>  <Genealogy>  (3) 
Cc1nn(C[C@H](C)CNC[C@@H](O)c2ccccc2F)c(C)c1Br (chirality)
Cc1nn(C[C@H](C)CNC[C@@H](O)c2ccccc2F)c(C)c1Br (3D coordinates assigned)
Cc1nn(C[C@H](C)CNC[C@@H](O)c2ccccc2F)c(C)c1Br (optimized conformer: 71.49845429757802 kcal/mol)

>  <smiles>  (3) 
Cc1nn(CC(C)CNCC(O)c2ccccc2F)c(C)c1Br

>  <score_type>  (3) 
oracle

>  <origin>  (3) 
adg

>  <m_score__min__energy>  (3) 
-9.0500000000000007

>  <m_primary>  (3) 
energy

$$$$
3:0
     RDKit          3D

 57 59  0  0  0  0  0  0  0  0999 V2000
   -5.7410   25.6580  -30.4920 C   0  0  0  0  0  0  0  0  0  0  0  0
   -5.1270   24.4280  -29.8140 C   0  0  0  0  0  0  0  0  0  0  0  0
   -4.9360   24.6180  -28.3650 N   0  0  0  0  0  0  0  0  0  0  0  0
   -3.6580   24.0590  -27.8920 C   0  0  0  0  0  0  0  0  0  0  0  0
   -3.8290   22.5910  -27.4750 C   0  0  0  0  0  0  0  0  0  0  0  0
   -3.0750   21.6540  -28.4180 C   0  0  0  0  0  0  0  0  0  0  0  0
   -3.3170   22.0500  -29.7520 O   0  0  0  0  0  0  0  0  0  0  0  0
   -2.4040   21.4000  -30.6090 C   0  0  0  0  0  0  0  0  0  0  0  0
   -3.1770   20.4860  -31.5610 C   0  0  0  0  0  0  0  0  0  0  0  0
   -3.1260   20.9810  -33.0130 C   0  0  0  0  0  0  0  0  0  0  0  0
   -4.4620   21.3400  -33.4930 N   0  0  0  0  0  0  0  0  0  0  0  0
   -5.6260   20.5650  -33.1550 C   0  0  0  0  0  0  0  0  0  0  0  0
   -5.6790   19.1920  -33.4560 C   0  0  0  0  0  0  0  0  0  0  0  0
   -4.6540   18.5750  -34.2060 C   0  0  0  0  0  0  0  0  0  0  0  0
   -4.7260   17.2240  -34.5340 C   0  0  0  0  0  0  0  0  0  0  0  0
   -5.8280   16.4710  -34.1460 C   0  0  0  0  0  0  0  0  0  0  0  0
   -6.8590   17.0610  -33.4160 C   0  0  0  0  0  0  0  0  0  0  0  0
   -6.7990   18.4260  -33.0340 C   0  0  0  0  0  0  0  0  0  0  0  0
   -7.8050   19.0180  -32.2940 N   0  0  0  0  0  0  0  0  0  0  0  0
   -8.8120   18.1780  -31.6070 C   0  0  0  0  0  0  0  0  0  0  0  0
   -7.8590   20.3940  -32.1780 C   0  0  0  0  0  0  0  0  0  0  0  0
   -9.0070   21.0540  -31.6700 C   0  0  0  0  0  0  0  0  0  0  0  0
   -9.0240   22.4380  -31.4940 C   0  0  0  0  0  0  0  0  0  0  0  0
   -7.9090   23.1970  -31.8280 C   0  0  0  0  0  0  0  0  0  0  0  0
   -6.7830   22.5840  -32.3710 C   0  0  0  0  0  0  0  0  0  0  0  0
   -6.7510   21.1870  -32.5780 C   0  0  0  0  0  0  0  0  0  0  0  0
   -6.0928   26.3627  -29.7241 H   0  0  0  0  0  0  0  0  0  0  0  0
   -4.9818   26.1482  -31.1192 H   0  0  0  0  0  0  0  0  0  0  0  0
   -6.5890   25.3459  -31.1192 H   0  0  0  0  0  0  0  0  0  0  0  0
   -5.7947   23.5682  -29.9719 H   0  0  0  0  0  0  0  0  0  0  0  0
   -4.1367   24.2591  -30.2621 H   0  0  0  0  0  0  0  0  0  0  0  0
   -4.9880   25.6360  -28.1300 H   0  0  0  0  0  0  0  0  0  0  0  0
   -5.7220   24.1270  -27.8740 H   0  0  0  0  0  0  0  0  0  0  0  0
   -2.9155   24.1204  -28.7012 H   0  0  0  0  0  0  0  0  0  0  0  0
   -3.3202   24.6375  -27.0195 H   0  0  0  0  0  0  0  0  0  0  0  0
   -3.4402   22.4609  -26.4543 H   0  0  0  0  0  0  0  0  0  0  0  0
   -4.8991   22.3402  -27.5190 H   0  0  0  0  0  0  0  0  0  0  0  0
   -1.9968   21.7083  -28.2072 H   0  0  0  0  0  0  0  0  0  0  0  0
   -3.4209   20.6205  -28.2691 H   0  0  0  0  0  0  0  0  0  0  0  0
   -1.8458   22.1493  -31.1895 H   0  0  0  0  0  0  0  0  0  0  0  0
   -1.6969   20.8033  -30.0141 H   0  0  0  0  0  0  0  0  0  0  0  0
   -2.7404   19.4774  -31.5155 H   0  0  0  0  0  0  0  0  0  0  0  0
   -4.2301   20.4824  -31.2433 H   0  0  0  0  0  0  0  0  0  0  0  0
   -2.4742   21.8654  -33.0687 H   0  0  0  0  0  0  0  0  0  0  0  0
   -2.7326   20.1714  -33.6453 H   0  0  0  0  0  0  0  0  0  0  0  0
   -4.5880   22.2830  -33.9210 H   0  0  0  0  0  0  0  0  0  0  0  0
   -3.7885   19.1688  -34.5350 H   0  0  0  0  0  0  0  0  0  0  0  0
   -3.9100   16.7519  -35.1008 H   0  0  0  0  0  0  0  0  0  0  0  0
   -5.8869   15.4062  -34.4157 H   0  0  0  0  0  0  0  0  0  0  0  0
   -7.7338   16.4579  -33.1314 H   0  0  0  0  0  0  0  0  0  0  0  0
   -8.6918   18.2782  -30.5182 H   0  0  0  0  0  0  0  0  0  0  0  0
   -9.8215   18.5055  -31.8962 H   0  0  0  0  0  0  0  0  0  0  0  0
   -8.6709   17.1261  -31.8962 H   0  0  0  0  0  0  0  0  0  0  0  0
   -9.8989   20.4649  -31.4104 H   0  0  0  0  0  0  0  0  0  0  0  0
   -9.9216   22.9291  -31.0901 H   0  0  0  0  0  0  0  0  0  0  0  0
   -7.9160   24.2845  -31.6630 H   0  0  0  0  0  0  0  0  0  0  0  0
   -5.9087   23.1942  -32.6418 H   0  0  0  0  0  0  0  0  0  0  0  0
  1  2  1  0
  2  3  1  0
  3  4  1  0
  4  5  1  0
  5  6  1  0
  6  7  1  0
  7  8  1  0
  8  9  1  0
  9 10  1  0
 10 11  1  0
 11 12  1  0
 12 13  2  0
 13 14  1  0
 14 15  2  0
 15 16  1  0
 16 17  2  0
 17 18  1  0
 18 19  2  0
 19 20  1  0
 19 21  1  0
 21 22  2  0
 22 23  1  0
 23 24  2  0
 24 25  1  0
 25 26  2  0
 26 12  1  0
 18 13  1  0
 26 21  1  0
  1 27  1  0
  1 28  1  0
  1 29  1  0
  2 30  1  0
  2 31  1  0
  3 32  1  0
  3 33  1  0
  4 34  1  0
  4 35  1  0
  5 36  1  0
  5 37  1  0
  6 38  1  0
  6 39  1  0
  8 40  1  0
  8 41  1  0
  9 42  1  0
  9 43  1  0
 10 44  1  0
 10 45  1  0
 11 46  1  0
 14 47  1  0
 15 48  1  0
 16 49  1  0
 17 50  1  0
 20 51  1  0
 20 52  1  0
 20 53  1  0
 22 54  1  0
 23 55  1  0
 24 56  1  0
 25 57  1  0
M  CHG  2   3   1  19   1
M  END
>  <UniqueID>  (4) 
4

>  <SMILES>  (4) 
CC[NH2+]CCCOCCCNc1c2ccccc2[n+](C)c2ccccc12

>  <Energy>  (4) 
74.53375003255412

>  <Genealogy>  (4) 
CC[NH2+]CCCOCCCNc1c2ccccc2[n+](C)c2ccccc12 (protonated)
CC[NH2+]CCCOCCCNc1c2ccccc2[n+](C)c2ccccc12 (3D coordinates assigned)
CC[NH2+]CCCOCCCNc1c2ccccc2[n+](C)c2ccccc12 (optimized conformer: 74.53375003255412 kcal/mol)

>  <smiles>  (4) 
CCNCCCOCCCNc1c2ccccc2[n+](C)c2ccccc12

>  <score_type>  (4) 
oracle

>  <origin>  (4) 
adg

>  <m_score__min__energy>  (4) 
-8.9199999999999999

>  <m_primary>  (4) 
energy

$$$$
4:0
     RDKit          3D

 46 48  0  0  0  0  0  0  0  0999 V2000
   -2.7840   18.9000  -26.3880 C   0  0  0  0  0  0  0  0  0  0  0  0
   -2.7830   20.2520  -27.1050 C   0  0  0  0  0  0  0  0  0  0  0  0
   -1.7320   20.3270  -28.1460 N   0  0  0  0  0  0  0  0  0  0  0  0
   -0.5490   19.5010  -27.8410 C   0  0  0  0  0  0  0  0  0  0  0  0
   -0.0680   18.6930  -29.0540 C   0  0  0  0  0  0  0  0  0  0  0  0
   -0.6780   19.1850  -30.2330 O   0  0  0  0  0  0  0  0  0  0  0  0
    0.2120   20.0220  -30.9420 C   0  0  0  0  0  0  0  0  0  0  0  0
   -0.5440   21.2490  -31.4340 C   0  0  0  0  0  0  0  0  0  0  0  0
   -1.6180   21.5560  -30.4970 N   0  0  0  0  0  0  0  0  0  0  0  0
   -2.1650   22.6750  -30.0850 C   0  0  0  0  0  0  0  0  0  0  0  0
   -1.3750   23.4810  -29.2210 C   0  0  0  0  0  0  0  0  0  0  0  0
   -0.1280   23.0380  -28.7180 C   0  0  0  0  0  0  0  0  0  0  0  0
    0.6380   23.8580  -27.8860 C   0  0  0  0  0  0  0  0  0  0  0  0
    0.1830   25.1320  -27.5460 C   0  0  0  0  0  0  0  0  0  0  0  0
   -1.0410   25.5900  -28.0360 C   0  0  0  0  0  0  0  0  0  0  0  0
   -1.8190   24.7730  -28.8660 C   0  0  0  0  0  0  0  0  0  0  0  0
   -2.9960   25.2400  -29.3340 N   0  0  0  0  0  0  0  0  0  0  0  0
   -3.8110   24.4990  -30.1210 C   0  0  0  0  0  0  0  0  0  0  0  0
   -5.0230   25.0650  -30.5340 C   0  0  0  0  0  0  0  0  0  0  0  0
   -5.9250   24.3230  -31.2900 C   0  0  0  0  0  0  0  0  0  0  0  0
   -5.6330   23.0040  -31.6150 C   0  0  0  0  0  0  0  0  0  0  0  0
   -4.4240   22.4270  -31.2140 C   0  0  0  0  0  0  0  0  0  0  0  0
   -3.4530   23.1710  -30.4960 C   0  0  0  0  0  0  0  0  0  0  0  0
   -2.7839   19.0620  -25.3000 H   0  0  0  0  0  0  0  0  0  0  0  0
   -3.6826   18.3338  -26.6743 H   0  0  0  0  0  0  0  0  0  0  0  0
   -1.8863   18.3325  -26.6743 H   0  0  0  0  0  0  0  0  0  0  0  0
   -3.7640   20.4033  -27.5791 H   0  0  0  0  0  0  0  0  0  0  0  0
   -2.5776   21.0328  -26.3579 H   0  0  0  0  0  0  0  0  0  0  0  0
   -1.4330   21.3150  -28.3270 H   0  0  0  0  0  0  0  0  0  0  0  0
   -2.1360   19.9690  -29.0420 H   0  0  0  0  0  0  0  0  0  0  0  0
    0.2666   20.1612  -27.5109 H   0  0  0  0  0  0  0  0  0  0  0  0
   -0.8340   18.7863  -27.0549 H   0  0  0  0  0  0  0  0  0  0  0  0
    1.0246   18.7844  -29.1432 H   0  0  0  0  0  0  0  0  0  0  0  0
   -0.3428   17.6366  -28.9177 H   0  0  0  0  0  0  0  0  0  0  0  0
    1.0309   20.3356  -30.2779 H   0  0  0  0  0  0  0  0  0  0  0  0
    0.6308   19.4757  -31.8000 H   0  0  0  0  0  0  0  0  0  0  0  0
    0.1445   22.1045  -31.4981 H   0  0  0  0  0  0  0  0  0  0  0  0
   -0.9671   21.0487  -32.4294 H   0  0  0  0  0  0  0  0  0  0  0  0
    0.2418   22.0371  -28.9853 H   0  0  0  0  0  0  0  0  0  0  0  0
    1.6024   23.4982  -27.4980 H   0  0  0  0  0  0  0  0  0  0  0  0
    0.7890   25.7758  -26.8916 H   0  0  0  0  0  0  0  0  0  0  0  0
   -1.3960   26.5964  -27.7693 H   0  0  0  0  0  0  0  0  0  0  0  0
   -5.2636   26.1026  -30.2592 H   0  0  0  0  0  0  0  0  0  0  0  0
   -6.8666   24.7792  -31.6294 H   0  0  0  0  0  0  0  0  0  0  0  0
   -6.3575   22.4099  -32.1914 H   0  0  0  0  0  0  0  0  0  0  0  0
   -4.2218   21.3742  -31.4605 H   0  0  0  0  0  0  0  0  0  0  0  0
  1  2  1  0
  2  3  1  0
  3  4  1  0
  4  5  1  0
  5  6  1  0
  6  7  1  0
  7  8  1  0
  8  9  1  0
  9 10  2  3
 10 11  1  0
 11 12  2  0
 12 13  1  0
 13 14  2  0
 14 15  1  0
 15 16  2  0
 16 17  1  0
 17 18  1  0
 18 19  2  0
 19 20  1  0
 20 21  2  0
 21 22  1  0
 22 23  2  0
 23 10  1  0
 16 11  1  0
 23 18  1  0
  1 24  1  0
  1 25  1  0
  1 26  1  0
  2 27  1  0
  2 28  1  0
  3 29  1  0
  3 30  1  0
  4 31  1  0
  4 32  1  0
  5 33  1  0
  5 34  1  0
  7 35  1  0
  7 36  1  0
  8 37  1  0
  8 38  1  0
 12 39  1  0
 13 40  1  0
 14 41  1  0
 15 42  1  0
 19 43  1  0
 20 44  1  0
 21 45  1  0
 22 46  1  0
M  CHG  2   3   1  17  -1
M  END
>  <UniqueID>  (5) 
5

>  <SMILES>  (5) 
CC[NH2+]CCOCCN=c1c2ccccc2[n-]c2ccccc12

>  <Energy>  (5) 
70.05603169687294

>  <Genealogy>  (5) 
CC[NH2+]CCOCCN=c1c2ccccc2[n-]c2ccccc12 (protonated)
CC[NH2+]CCOCCN=c1c2ccccc2[n-]c2ccccc12 (3D coordinates assigned)
CC[NH2+]CCOCCN=c1c2ccccc2[n-]c2ccccc12 (optimized conformer: 70.05603169687294 kcal/mol)

>  <smiles>  (5) 
CCNCCOCCN=c1c2ccccc2[nH]c2ccccc12

>  <score_type>  (5) 
oracle

>  <origin>  (5) 
adg

>  <m_score__min__energy>  (5) 
-7.6299999999999999

>  <m_primary>  (5) 
energy

$$$$
5:0
     RDKit          3D

 76 79  0  0  0  0  0  0  0  0999 V2000
   -2.5670   19.4160  -26.7800 C   0  0  0  0  0  0  0  0  0  0  0  0
   -2.7190   20.3880  -27.9440 C   0  0  0  0  0  0  0  0  0  0  0  0
   -1.3980   20.8520  -28.3860 N   0  0  0  0  0  0  0  0  0  0  0  0
   -0.9890   20.1960  -29.6380 C   0  0  0  0  0  0  0  0  0  0  0  0
   -0.8370   21.2220  -30.7610 C   0  0  0  0  0  0  0  0  0  0  0  0
   -1.8960   22.1530  -30.6900 O   0  0  0  0  0  0  0  0  0  0  0  0
   -3.1030   21.5940  -31.1800 C   0  0  0  0  0  0  0  0  0  0  0  0
   -3.0880   21.5290  -32.7110 C   0  0  0  0  0  0  0  0  0  0  0  0
   -4.4250   21.7300  -33.2740 N   0  0  0  0  0  0  0  0  0  0  0  0
   -5.5360   20.9020  -32.8800 C   0  0  0  0  0  0  0  0  0  0  0  0
   -5.4390   19.5050  -33.0280 C   0  0  0  0  0  0  0  0  0  0  0  0
   -4.2270   18.9020  -33.4290 C   0  0  0  0  0  0  0  0  0  0  0  0
   -4.1480   17.5300  -33.6510 C   0  0  0  0  0  0  0  0  0  0  0  0
   -5.2740   16.7350  -33.4880 C   0  0  0  0  0  0  0  0  0  0  0  0
   -6.4770   17.3020  -33.0680 C   0  0  0  0  0  0  0  0  0  0  0  0
   -6.5770   18.6910  -32.7890 C   0  0  0  0  0  0  0  0  0  0  0  0
   -7.7480   19.2540  -32.3260 N   0  0  0  0  0  0  0  0  0  0  0  0
   -8.8330   18.3820  -31.8190 C   0  0  0  0  0  0  0  0  0  0  0  0
   -7.8910   20.6290  -32.2830 C   0  0  0  0  0  0  0  0  0  0  0  0
   -9.1570   21.2270  -32.0720 C   0  0  0  0  0  0  0  0  0  0  0  0
   -9.2850   22.6010  -31.9180 C   0  0  0  0  0  0  0  0  0  0  0  0
   -8.1670   23.4170  -31.9550 C   0  0  0  0  0  0  0  0  0  0  0  0
   -6.8940   22.8790  -32.2180 C   0  0  0  0  0  0  0  0  0  0  0  0
   -5.7500   23.6970  -32.1910 O   0  0  0  0  0  0  0  0  0  0  0  0
   -5.3630   24.5830  -31.1400 C   0  0  0  0  0  0  0  0  0  0  0  0
   -5.8520   24.0610  -29.7810 C   0  0  0  0  0  0  0  0  0  0  0  0
   -4.6970   23.6860  -28.8420 C   0  0  0  0  0  0  0  0  0  0  0  0
   -3.3760   24.3960  -29.2180 C   0  0  0  0  0  0  0  0  0  0  0  0
   -2.1870   23.9030  -28.4870 N   0  0  0  0  0  0  0  0  0  0  0  0
   -0.9300   24.5760  -28.8550 C   0  0  0  0  0  0  0  0  0  0  0  0
    0.2610   23.8350  -28.2130 C   0  0  0  0  0  0  0  0  0  0  0  0
   -0.1410   22.9170  -27.2080 O   0  0  0  0  0  0  0  0  0  0  0  0
   -1.0420   23.5410  -26.3140 C   0  0  0  0  0  0  0  0  0  0  0  0
   -2.3730   23.8620  -27.0230 C   0  0  0  0  0  0  0  0  0  0  0  0
   -6.7630   21.4800  -32.4690 C   0  0  0  0  0  0  0  0  0  0  0  0
   -2.6528   19.9647  -25.8305 H   0  0  0  0  0  0  0  0  0  0  0  0
   -3.3566   18.6521  -26.8347 H   0  0  0  0  0  0  0  0  0  0  0  0
   -1.5819   18.9296  -26.8347 H   0  0  0  0  0  0  0  0  0  0  0  0
   -3.2250   19.8807  -28.7786 H   0  0  0  0  0  0  0  0  0  0  0  0
   -3.3149   21.2529  -27.6170 H   0  0  0  0  0  0  0  0  0  0  0  0
   -1.4730   21.8800  -28.5760 H   0  0  0  0  0  0  0  0  0  0  0  0
   -0.0265   19.6870  -29.4813 H   0  0  0  0  0  0  0  0  0  0  0  0
   -1.7629   19.4690  -29.9255 H   0  0  0  0  0  0  0  0  0  0  0  0
    0.1226   21.7482  -30.6504 H   0  0  0  0  0  0  0  0  0  0  0  0
   -0.8621   20.7093  -31.7339 H   0  0  0  0  0  0  0  0  0  0  0  0
   -3.2199   20.5773  -30.7766 H   0  0  0  0  0  0  0  0  0  0  0  0
   -3.9420   22.2300  -30.8614 H   0  0  0  0  0  0  0  0  0  0  0  0
   -2.4180   22.3125  -33.0947 H   0  0  0  0  0  0  0  0  0  0  0  0
   -2.7368   20.5300  -33.0087 H   0  0  0  0  0  0  0  0  0  0  0  0
   -4.6050   22.5670  -33.8720 H   0  0  0  0  0  0  0  0  0  0  0  0
   -3.3317   19.5257  -33.5681 H   0  0  0  0  0  0  0  0  0  0  0  0
   -3.1934   17.0760  -33.9555 H   0  0  0  0  0  0  0  0  0  0  0  0
   -5.2174   15.6553  -33.6905 H   0  0  0  0  0  0  0  0  0  0  0  0
   -7.3640   16.6621  -32.9508 H   0  0  0  0  0  0  0  0  0  0  0  0
   -8.8249   18.3885  -30.7190 H   0  0  0  0  0  0  0  0  0  0  0  0
   -9.8025   18.7551  -32.1807 H   0  0  0  0  0  0  0  0  0  0  0  0
   -8.6772   17.3549  -32.1807 H   0  0  0  0  0  0  0  0  0  0  0  0
  -10.0544   20.5923  -32.0294 H   0  0  0  0  0  0  0  0  0  0  0  0
  -10.2804   23.0438  -31.7657 H   0  0  0  0  0  0  0  0  0  0  0  0
   -8.2753   24.4971  -31.7769 H   0  0  0  0  0  0  0  0  0  0  0  0
   -4.2662   24.6642  -31.1220 H   0  0  0  0  0  0  0  0  0  0  0  0
   -5.8162   25.5683  -31.3238 H   0  0  0  0  0  0  0  0  0  0  0  0
   -6.4570   24.8437  -29.3000 H   0  0  0  0  0  0  0  0  0  0  0  0
   -6.4399   23.1499  -29.9662 H   0  0  0  0  0  0  0  0  0  0  0  0
   -4.9705   23.9699  -27.8151 H   0  0  0  0  0  0  0  0  0  0  0  0
   -4.5317   22.6021  -28.9307 H   0  0  0  0  0  0  0  0  0  0  0  0
   -3.2022   24.2517  -30.2946 H   0  0  0  0  0  0  0  0  0  0  0  0
   -3.4983   25.4536  -28.9413 H   0  0  0  0  0  0  0  0  0  0  0  0
   -0.8182   24.5697  -29.9493 H   0  0  0  0  0  0  0  0  0  0  0  0
   -0.9521   25.6145  -28.4930 H   0  0  0  0  0  0  0  0  0  0  0  0
    0.7970   23.2832  -28.9993 H   0  0  0  0  0  0  0  0  0  0  0  0
    0.9028   24.5899  -27.7352 H   0  0  0  0  0  0  0  0  0  0  0  0
   -1.2367   22.8665  -25.4672 H   0  0  0  0  0  0  0  0  0  0  0  0
   -0.5945   24.4801  -25.9566 H   0  0  0  0  0  0  0  0  0  0  0  0
   -3.1112   23.0854  -26.7743 H   0  0  0  0  0  0  0  0  0  0  0  0
   -2.7264   24.8468  -26.6834 H   0  0  0  0  0  0  0  0  0  0  0  0
  1  2  1  0
  2  3  1  0
  3  4  1  0
  4  5  1  0
  5  6  1  0
  6  7  1  0
  7  8  1  0
  8  9  1  0
  9 10  1  0
 10 11  2  0
 11 12  1  0
 12 13  2  0
 13 14  1  0
 14 15  2  0
 15 16  1  0
 16 17  2  0
 17 18  1  0
 17 19  1  0
 19 20  2  0
 20 21  1  0
 21 22  2  0
 22 23  1  0
 23 24  1  0
 24 25  1  0
 25 26  1  0
 26 27  1  0
 27 28  1  0
 28 29  1  0
 29 30  1  0
 30 31  1  0
 31 32  1  0
 32 33  1  0
 33 34  1  0
 23 35  2  0
 35 10  1  0
 16 11  1  0
 35 19  1  0
 34 29  1  0
  1 36  1  0
  1 37  1  0
  1 38  1  0
  2 39  1  0
  2 40  1  0
  3 41  1  0
  4 42  1  0
  4 43  1  0
  5 44  1  0
  5 45  1  0
  7 46  1  0
  7 47  1  0
  8 48  1  0
  8 49  1  0
  9 50  1  0
 12 51  1  0
 13 52  1  0
 14 53  1  0
 15 54  1  0
 18 55  1  0
 18 56  1  0
 18 57  1  0
 20 58  1  0
 21 59  1  0
 22 60  1  0
 25 61  1  0
 25 62  1  0
 26 63  1  0
 26 64  1  0
 27 65  1  0
 27 66  1  0
 28 67  1  0
 28 68  1  0
 30 69  1  0
 30 70  1  0
 31 71  1  0
 31 72  1  0
 33 73  1  0
 33 74  1  0
 34 75  1  0
 34 76  1  0
M  CHG  1  17   1
M  END
>  <UniqueID>  (6) 
6

>  <SMILES>  (6) 
CCNCCOCCNc1c2ccccc2[n+](C)c2cccc(OCCCCN3CCOCC3)c12

>  <Energy>  (6) 
113.18048626785243

>  <Genealogy>  (6) 
CCNCCOCCNc1c2ccccc2[n+](C)c2cccc(OCCCCN3CCOCC3)c12 (3D coordinates assigned)
CCNCCOCCNc1c2ccccc2[n+](C)c2cccc(OCCCCN3CCOCC3)c12 (nonaromatic ring conformer: 113.18048626785243 kcal/mol)

>  <smiles>  (6) 
CCNCCOCCNc1c2ccccc2[n+](C)c2cccc(OCCCCN3CCOCC3)c12

>  <score_type>  (6) 
oracle

>  <origin>  (6) 
adg

>  <m_score__min__energy>  (6) 
-10.210000000000001

>  <m_primary>  (6) 
energy

$$$$
6:0
     RDKit          3D

 42 43  0  0  0  0  0  0  0  0999 V2000
   -8.8240   19.4010  -32.2200 C   0  0  0  0  0  0  0  0  0  0  0  0
   -7.4220   19.8440  -32.5300 C   0  0  0  0  0  0  0  0  0  0  0  0
   -7.0750   21.2020  -32.4160 C   0  0  0  0  0  0  0  0  0  0  0  0
   -5.7680   21.6350  -32.6970 C   0  0  0  0  0  0  0  0  0  0  0  0
   -5.4290   23.0350  -32.6180 N   0  0  0  0  0  0  0  0  0  0  0  0
   -6.5570   23.7900  -32.0530 C   0  0  0  0  0  0  0  0  0  0  0  0
   -6.1090   24.6120  -30.8380 C   0  0  0  0  0  0  0  0  0  0  0  0
   -4.6590   24.8740  -30.8950 N   0  0  0  0  0  0  0  0  0  0  0  0
   -3.9810   24.6230  -29.6110 C   0  0  0  0  0  0  0  0  0  0  0  0
   -2.8520   23.6300  -29.7820 C   0  0  0  0  0  0  0  0  0  0  0  0
   -3.1080   22.4590  -30.5170 C   0  0  0  0  0  0  0  0  0  0  0  0
   -2.1190   21.4890  -30.6830 C   0  0  0  0  0  0  0  0  0  0  0  0
   -0.8580   21.6750  -30.1200 C   0  0  0  0  0  0  0  0  0  0  0  0
   -0.5790   22.8330  -29.3920 C   0  0  0  0  0  0  0  0  0  0  0  0
   -1.5640   23.8230  -29.2150 C   0  0  0  0  0  0  0  0  0  0  0  0
   -1.2200   25.0520  -28.4160 C   0  0  0  0  0  0  0  0  0  0  0  0
   -4.8120   20.6980  -33.1210 C   0  0  0  0  0  0  0  0  0  0  0  0
   -5.1490   19.3490  -33.2380 C   0  0  0  0  0  0  0  0  0  0  0  0
   -6.4450   18.9150  -32.9440 C   0  0  0  0  0  0  0  0  0  0  0  0
   -6.8420   17.0470  -33.1290 Br  0  0  0  0  0  0  0  0  0  0  0  0
   -8.9621   19.3574  -31.1296 H   0  0  0  0  0  0  0  0  0  0  0  0
   -9.5387   20.1171  -32.6517 H   0  0  0  0  0  0  0  0  0  0  0  0
   -8.9975   18.4043  -32.6517 H   0  0  0  0  0  0  0  0  0  0  0  0
   -7.8350   21.9333  -32.1035 H   0  0  0  0  0  0  0  0  0  0  0  0
   -5.2050   23.3950  -33.5750 H   0  0  0  0  0  0  0  0  0  0  0  0
   -4.5810   23.1610  -32.0160 H   0  0  0  0  0  0  0  0  0  0  0  0
   -6.9566   24.4693  -32.8204 H   0  0  0  0  0  0  0  0  0  0  0  0
   -7.3312   23.0782  -31.7307 H   0  0  0  0  0  0  0  0  0  0  0  0
   -6.6495   25.5700  -30.8304 H   0  0  0  0  0  0  0  0  0  0  0  0
   -6.3309   24.0428  -29.9233 H   0  0  0  0  0  0  0  0  0  0  0  0
   -4.5310   25.8910  -31.1130 H   0  0  0  0  0  0  0  0  0  0  0  0
   -3.5729   25.5700  -29.2280 H   0  0  0  0  0  0  0  0  0  0  0  0
   -4.7121   24.2056  -28.9030 H   0  0  0  0  0  0  0  0  0  0  0  0
   -4.1001   22.3058  -30.9666 H   0  0  0  0  0  0  0  0  0  0  0  0
   -2.3348   20.5768  -31.2587 H   0  0  0  0  0  0  0  0  0  0  0  0
   -0.0806   20.9076  -30.2495 H   0  0  0  0  0  0  0  0  0  0  0  0
    0.4197   22.9732  -28.9526 H   0  0  0  0  0  0  0  0  0  0  0  0
   -1.2846   24.8213  -27.3424 H   0  0  0  0  0  0  0  0  0  0  0  0
   -0.1972   25.3742  -28.6609 H   0  0  0  0  0  0  0  0  0  0  0  0
   -1.9270   25.8584  -28.6609 H   0  0  0  0  0  0  0  0  0  0  0  0
   -3.7913   21.0294  -33.3624 H   0  0  0  0  0  0  0  0  0  0  0  0
   -4.3901   18.6224  -33.5636 H   0  0  0  0  0  0  0  0  0  0  0  0
  1  2  1  0
  2  3  2  0
  3  4  1  0
  4  5  1  0
  5  6  1  0
  6  7  1  0
  7  8  1  0
  8  9  1  0
  9 10  1  0
 10 11  2  0
 11 12  1  0
 12 13  2  0
 13 14  1  0
 14 15  2  0
 15 16  1  0
  4 17  2  0
 17 18  1  0
 18 19  2  0
 19 20  1  0
 19  2  1  0
 15 10  1  0
  1 21  1  0
  1 22  1  0
  1 23  1  0
  3 24  1  0
  5 25  1  0
  5 26  1  0
  6 27  1  0
  6 28  1  0
  7 29  1  0
  7 30  1  0
  8 31  1  0
  9 32  1  0
  9 33  1  0
 11 34  1  0
 12 35  1  0
 13 36  1  0
 14 37  1  0
 16 38  1  0
 16 39  1  0
 16 40  1  0
 17 41  1  0
 18 42  1  0
M  CHG  1   5   1
M  END
>  <UniqueID>  (7) 
7

>  <SMILES>  (7) 
Cc1cc([NH2+]CCNCc2ccccc2C)ccc1Br

>  <Energy>  (7) 
41.74921978104342

>  <Genealogy>  (7) 
Cc1cc([NH2+]CCNCc2ccccc2C)ccc1Br (protonated)
Cc1cc([NH2+]CCNCc2ccccc2C)ccc1Br (3D coordinates assigned)
Cc1cc([NH2+]CCNCc2ccccc2C)ccc1Br (optimized conformer: 41.74921978104342 kcal/mol)

>  <smiles>  (7) 
Cc1cc(NCCNCc2ccccc2C)ccc1Br

>  <score_type>  (7) 
oracle

>  <origin>  (7) 
adg

>  <m_score__min__energy>  (7) 
-7.4800000000000004

>  <m_primary>  (7) 
energy

$$$$
7:0
     RDKit          3D

 55 55  0  0  0  0  0  0  0  0999 V2000
   -8.1040   23.0250  -31.6390 C   0  0  0  0  0  0  0  0  0  0  0  0
   -6.9960   23.3690  -32.6210 C   0  0  0  0  0  0  0  0  0  0  0  0
   -5.8000   23.5930  -31.9050 O   0  0  0  0  0  0  0  0  0  0  0  0
   -6.0580   24.3090  -30.7110 C   0  0  0  0  0  0  0  0  0  0  0  0
   -5.0350   25.4270  -30.5210 C   0  0  0  0  0  0  0  0  0  0  0  0
   -3.7380   24.8700  -30.4870 O   0  0  0  0  0  0  0  0  0  0  0  0
   -3.3720   24.5350  -29.1610 C   0  0  0  0  0  0  0  0  0  0  0  0
   -3.2190   23.0150  -28.9820 C   0  0  0  0  0  0  0  0  0  0  0  0
   -3.7950   22.2730  -30.1140 N   0  0  0  0  0  0  0  0  0  0  0  0
   -2.8320   21.3160  -30.6780 C   0  0  0  0  0  0  0  0  0  0  0  0
   -2.2240   21.8550  -31.9820 C   0  0  0  0  0  0  0  0  0  0  0  0
   -3.0740   21.6110  -33.2490 C   0  0  0  0  0  0  0  0  0  0  0  0
   -4.5290   21.5630  -33.0070 N   0  0  0  0  0  0  0  0  0  0  0  0
   -5.1230   20.2640  -33.3810 C   0  0  0  0  0  0  0  0  0  0  0  0
   -6.3880   19.9380  -32.5510 C   0  0  0  0  0  0  0  0  0  0  0  0
   -6.2630   18.5220  -31.9260 C   0  0  0  0  0  0  0  0  0  0  0  0
   -7.6190   17.8670  -31.5900 C   0  0  0  0  0  0  0  0  0  0  0  0
   -8.7010   18.9120  -31.3100 C   0  0  0  0  0  0  0  0  0  0  0  0
   -8.9420   19.8150  -32.5350 C   0  0  0  0  0  0  0  0  0  0  0  0
   -7.6790   20.0480  -33.3900 C   0  0  0  0  0  0  0  0  0  0  0  0
   -7.7314   23.1407  -30.6105 H   0  0  0  0  0  0  0  0  0  0  0  0
   -8.9575   23.7004  -31.7979 H   0  0  0  0  0  0  0  0  0  0  0  0
   -8.4249   21.9849  -31.7979 H   0  0  0  0  0  0  0  0  0  0  0  0
   -6.8542   22.5349  -33.3240 H   0  0  0  0  0  0  0  0  0  0  0  0
   -7.2667   24.2741  -33.1844 H   0  0  0  0  0  0  0  0  0  0  0  0
   -7.0659   24.7466  -30.7628 H   0  0  0  0  0  0  0  0  0  0  0  0
   -5.9867   23.6156  -29.8601 H   0  0  0  0  0  0  0  0  0  0  0  0
   -5.1080   26.1382  -31.3570 H   0  0  0  0  0  0  0  0  0  0  0  0
   -5.2353   25.9540  -29.5764 H   0  0  0  0  0  0  0  0  0  0  0  0
   -2.4145   25.0207  -28.9216 H   0  0  0  0  0  0  0  0  0  0  0  0
   -4.1685   24.8821  -28.4864 H   0  0  0  0  0  0  0  0  0  0  0  0
   -2.1492   22.7712  -28.9034 H   0  0  0  0  0  0  0  0  0  0  0  0
   -3.7584   22.7212  -28.0695 H   0  0  0  0  0  0  0  0  0  0  0  0
   -4.0140   22.9780  -30.8560 H   0  0  0  0  0  0  0  0  0  0  0  0
   -2.0264   21.1437  -29.9491 H   0  0  0  0  0  0  0  0  0  0  0  0
   -3.3585   20.3755  -30.8978 H   0  0  0  0  0  0  0  0  0  0  0  0
   -2.0828   22.9401  -31.8696 H   0  0  0  0  0  0  0  0  0  0  0  0
   -1.2832   21.3052  -32.1326 H   0  0  0  0  0  0  0  0  0  0  0  0
   -2.8704   22.4238  -33.9617 H   0  0  0  0  0  0  0  0  0  0  0  0
   -2.7869   20.6213  -33.6339 H   0  0  0  0  0  0  0  0  0  0  0  0
   -4.6760   21.7260  -31.9830 H   0  0  0  0  0  0  0  0  0  0  0  0
   -4.9950   22.3420  -33.5220 H   0  0  0  0  0  0  0  0  0  0  0  0
   -5.3961   20.2931  -34.4462 H   0  0  0  0  0  0  0  0  0  0  0  0
   -4.3766   19.4814  -33.1799 H   0  0  0  0  0  0  0  0  0  0  0  0
   -6.4609   20.6855  -31.7473 H   0  0  0  0  0  0  0  0  0  0  0  0
   -5.7322   17.8740  -32.6389 H   0  0  0  0  0  0  0  0  0  0  0  0
   -5.7196   18.6380  -30.9767 H   0  0  0  0  0  0  0  0  0  0  0  0
   -7.9353   17.2463  -32.4413 H   0  0  0  0  0  0  0  0  0  0  0  0
   -7.4891   17.2579  -30.6833 H   0  0  0  0  0  0  0  0  0  0  0  0
   -9.6388   18.3966  -31.0555 H   0  0  0  0  0  0  0  0  0  0  0  0
   -8.3636   19.5441  -30.4754 H   0  0  0  0  0  0  0  0  0  0  0  0
   -9.7085   19.3444  -33.1683 H   0  0  0  0  0  0  0  0  0  0  0  0
   -9.2587   20.7971  -32.1539 H   0  0  0  0  0  0  0  0  0  0  0  0
   -7.6478   19.2948  -34.1911 H   0  0  0  0  0  0  0  0  0  0  0  0
   -7.7307   21.0656  -33.8045 H   0  0  0  0  0  0  0  0  0  0  0  0
  1  2  1  0
  2  3  1  0
  3  4  1  0
  4  5  1  0
  5  6  1  0
  6  7  1  0
  7  8  1  0
  8  9  1  0
  9 10  1  0
 10 11  1  0
 11 12  1  0
 12 13  1  0
 13 14  1  0
 14 15  1  0
 15 16  1  0
 16 17  1  0
 17 18  1  0
 18 19  1  0
 19 20  1  0
 20 15  1  0
  1 21  1  0
  1 22  1  0
  1 23  1  0
  2 24  1  0
  2 25  1  0
  4 26  1  0
  4 27  1  0
  5 28  1  0
  5 29  1  0
  7 30  1  0
  7 31  1  0
  8 32  1  0
  8 33  1  0
  9 34  1  0
 10 35  1  0
 10 36  1  0
 11 37  1  0
 11 38  1  0
 12 39  1  0
 12 40  1  0
 13 41  1  0
 13 42  1  0
 14 43  1  0
 14 44  1  0
 15 45  1  0
 16 46  1  0
 16 47  1  0
 17 48  1  0
 17 49  1  0
 18 50  1  0
 18 51  1  0
 19 52  1  0
 19 53  1  0
 20 54  1  0
 20 55  1  0
M  CHG  1  13   1
M  END
>  <UniqueID>  (8) 
8

>  <SMILES>  (8) 
CCOCCOCCNCCC[NH2+]CC1CCCCC1

>  <Energy>  (8) 
46.28301545439635

>  <Genealogy>  (8) 
CCOCCOCCNCCC[NH2+]CC1CCCCC1 (protonated)
CCOCCOCCNCCC[NH2+]CC1CCCCC1 (3D coordinates assigned)
CCOCCOCCNCCC[NH2+]CC1CCCCC1 (nonaromatic ring conformer: 46.28301545439635 kcal/mol)

>  <smiles>  (8) 
CCOCCOCCNCCCNCC1CCCCC1

>  <score_type>  (8) 
oracle

>  <origin>  (8) 
adg

>  <m_score__min__energy>  (8) 
-5.2699999999999996

>  <m_primary>  (8) 
energy

$$$$
8:0
     RDKit          3D

 71 74  0  0  0  0  0  0  0  0999 V2000
   -2.7080   20.7890  -28.7230 C   0  0  0  0  0  0  0  0  0  0  0  0
   -1.6340   20.4560  -29.7640 C   0  0  0  0  0  0  0  0  0  0  0  0
   -2.1470   20.4410  -31.1460 N   0  0  0  0  0  0  0  0  0  0  0  0
   -1.4440   21.3470  -32.0710 C   0  0  0  0  0  0  0  0  0  0  0  0
   -2.0880   21.3540  -33.4680 C   0  0  0  0  0  0  0  0  0  0  0  0
   -3.6090   21.5870  -33.4180 C   0  0  0  0  0  0  0  0  0  0  0  0
   -4.3090   20.5380  -32.6450 N   0  0  0  0  0  0  0  0  0  0  0  0
   -5.5070   21.0640  -32.0010 C   0  0  0  0  0  0  0  0  0  0  0  0
   -5.5040   22.3470  -31.4090 C   0  0  0  0  0  0  0  0  0  0  0  0
   -4.3130   22.9410  -30.9410 C   0  0  0  0  0  0  0  0  0  0  0  0
   -4.3300   24.2010  -30.3470 C   0  0  0  0  0  0  0  0  0  0  0  0
   -5.5320   24.8820  -30.1930 C   0  0  0  0  0  0  0  0  0  0  0  0
   -6.7230   24.3130  -30.6410 C   0  0  0  0  0  0  0  0  0  0  0  0
   -6.7330   23.0460  -31.2760 C   0  0  0  0  0  0  0  0  0  0  0  0
   -7.8950   22.4880  -31.7670 N   0  0  0  0  0  0  0  0  0  0  0  0
   -9.0890   23.3340  -31.9830 C   0  0  0  0  0  0  0  0  0  0  0  0
   -7.9440   21.1310  -32.0260 C   0  0  0  0  0  0  0  0  0  0  0  0
   -9.1740   20.4620  -32.2340 C   0  0  0  0  0  0  0  0  0  0  0  0
   -9.2160   19.0890  -32.4530 C   0  0  0  0  0  0  0  0  0  0  0  0
   -8.0550   18.3340  -32.3810 C   0  0  0  0  0  0  0  0  0  0  0  0
   -6.8200   18.9450  -32.1270 C   0  0  0  0  0  0  0  0  0  0  0  0
   -5.7060   18.1230  -31.7280 N   0  0  0  0  0  0  0  0  0  0  0  0
   -5.8150   16.6720  -31.5680 C   0  0  0  0  0  0  0  0  0  0  0  0
   -5.3730   15.9260  -32.8380 C   0  0  0  0  0  0  0  0  0  0  0  0
   -3.9500   15.3560  -32.7340 C   0  0  0  0  0  0  0  0  0  0  0  0
   -3.1390   15.7520  -33.9120 N   0  0  0  0  0  0  0  0  0  0  0  0
   -1.7960   16.2300  -33.5300 C   0  0  0  0  0  0  0  0  0  0  0  0
   -1.8550   17.6140  -32.8430 C   0  0  0  0  0  0  0  0  0  0  0  0
   -3.1000   18.2680  -33.0180 O   0  0  0  0  0  0  0  0  0  0  0  0
   -3.4960   18.1980  -34.3700 C   0  0  0  0  0  0  0  0  0  0  0  0
   -3.8280   16.7440  -34.7680 C   0  0  0  0  0  0  0  0  0  0  0  0
   -6.7420   20.3680  -32.0600 C   0  0  0  0  0  0  0  0  0  0  0  0
   -2.2920   20.6600  -27.7129 H   0  0  0  0  0  0  0  0  0  0  0  0
   -3.0355   21.8309  -28.8544 H   0  0  0  0  0  0  0  0  0  0  0  0
   -3.5675   20.1152  -28.8544 H   0  0  0  0  0  0  0  0  0  0  0  0
   -0.8359   21.2099  -29.6959 H   0  0  0  0  0  0  0  0  0  0  0  0
   -1.2671   19.4432  -29.5414 H   0  0  0  0  0  0  0  0  0  0  0  0
   -2.0630   19.4660  -31.5190 H   0  0  0  0  0  0  0  0  0  0  0  0
   -1.4737   22.3672  -31.6607 H   0  0  0  0  0  0  0  0  0  0  0  0
   -0.4083   20.9912  -32.1750 H   0  0  0  0  0  0  0  0  0  0  0  0
   -1.6282   22.1562  -34.0638 H   0  0  0  0  0  0  0  0  0  0  0  0
   -1.9172   20.3651  -33.9184 H   0  0  0  0  0  0  0  0  0  0  0  0
   -3.8028   22.5624  -32.9480 H   0  0  0  0  0  0  0  0  0  0  0  0
   -3.9896   21.5575  -34.4496 H   0  0  0  0  0  0  0  0  0  0  0  0
   -3.6780   20.1160  -31.9280 H   0  0  0  0  0  0  0  0  0  0  0  0
   -4.5520   19.7990  -33.3380 H   0  0  0  0  0  0  0  0  0  0  0  0
   -3.3595   22.4028  -31.0464 H   0  0  0  0  0  0  0  0  0  0  0  0
   -3.3914   24.6574  -29.9995 H   0  0  0  0  0  0  0  0  0  0  0  0
   -5.5433   25.8732  -29.7160 H   0  0  0  0  0  0  0  0  0  0  0  0
   -7.6694   24.8555  -30.4996 H   0  0  0  0  0  0  0  0  0  0  0  0
   -9.5085   23.6313  -31.0106 H   0  0  0  0  0  0  0  0  0  0  0  0
   -8.8039   24.2328  -32.5495 H   0  0  0  0  0  0  0  0  0  0  0  0
   -9.8424   22.7671  -32.5495 H   0  0  0  0  0  0  0  0  0  0  0  0
  -10.1116   21.0371  -32.2223 H   0  0  0  0  0  0  0  0  0  0  0  0
  -10.1739   18.6002  -32.6842 H   0  0  0  0  0  0  0  0  0  0  0  0
   -8.1042   17.2445  -32.5247 H   0  0  0  0  0  0  0  0  0  0  0  0
   -4.7660   18.5780  -31.6540 H   0  0  0  0  0  0  0  0  0  0  0  0
   -5.1773   16.3568  -30.7290 H   0  0  0  0  0  0  0  0  0  0  0  0
   -6.8696   16.4261  -31.3749 H   0  0  0  0  0  0  0  0  0  0  0  0
   -6.0713   15.0952  -33.0176 H   0  0  0  0  0  0  0  0  0  0  0  0
   -5.3775   16.6517  -33.6646 H   0  0  0  0  0  0  0  0  0  0  0  0
   -3.4726   15.7412  -31.8209 H   0  0  0  0  0  0  0  0  0  0  0  0
   -4.0104   14.2582  -32.6991 H   0  0  0  0  0  0  0  0  0  0  0  0
   -1.3443   15.5063  -32.8355 H   0  0  0  0  0  0  0  0  0  0  0  0
   -1.1936   16.3271  -34.4453 H   0  0  0  0  0  0  0  0  0  0  0  0
   -1.6792   17.4780  -31.7657 H   0  0  0  0  0  0  0  0  0  0  0  0
   -1.0841   18.2452  -33.3092 H   0  0  0  0  0  0  0  0  0  0  0  0
   -4.3875   18.8251  -34.5178 H   0  0  0  0  0  0  0  0  0  0  0  0
   -2.6681   18.5561  -34.9995 H   0  0  0  0  0  0  0  0  0  0  0  0
   -4.9140   16.5929  -34.6795 H   0  0  0  0  0  0  0  0  0  0  0  0
   -3.4822   16.5924  -35.8012 H   0  0  0  0  0  0  0  0  0  0  0  0
  1  2  1  0
  2  3  1  0
  3  4  1  0
  4  5  1  0
  5  6  1  0
  6  7  1  0
  7  8  1  0
  8  9  2  0
  9 10  1  0
 10 11  2  0
 11 12  1  0
 12 13  2  0
 13 14  1  0
 14 15  2  0
 15 16  1  0
 15 17  1  0
 17 18  2  0
 18 19  1  0
 19 20  2  0
 20 21  1  0
 21 22  1  0
 22 23  1  0
 23 24  1  0
 24 25  1  0
 25 26  1  0
 26 27  1  0
 27 28  1  0
 28 29  1  0
 29 30  1  0
 30 31  1  0
 21 32  2  0
 32  8  1  0
 14  9  1  0
 32 17  1  0
 31 26  1  0
  1 33  1  0
  1 34  1  0
  1 35  1  0
  2 36  1  0
  2 37  1  0
  3 38  1  0
  4 39  1  0
  4 40  1  0
  5 41  1  0
  5 42  1  0
  6 43  1  0
  6 44  1  0
  7 45  1  0
  7 46  1  0
 10 47  1  0
 11 48  1  0
 12 49  1  0
 13 50  1  0
 16 51  1  0
 16 52  1  0
 16 53  1  0
 18 54  1  0
 19 55  1  0
 20 56  1  0
 22 57  1  0
 23 58  1  0
 23 59  1  0
 24 60  1  0
 24 61  1  0
 25 62  1  0
 25 63  1  0
 27 64  1  0
 27 65  1  0
 28 66  1  0
 28 67  1  0
 30 68  1  0
 30 69  1  0
 31 70  1  0
 31 71  1  0
M  CHG  2   7   1  15   1
M  END
>  <UniqueID>  (9) 
9

>  <SMILES>  (9) 
CCNCCC[NH2+]c1c2ccccc2[n+](C)c2cccc(NCCCN3CCOCC3)c12

>  <Energy>  (9) 
118.38046347841906

>  <Genealogy>  (9) 
CCNCCC[NH2+]c1c2ccccc2[n+](C)c2cccc(NCCCN3CCOCC3)c12 (protonated)
CCNCCC[NH2+]c1c2ccccc2[n+](C)c2cccc(NCCCN3CCOCC3)c12 (3D coordinates assigned)
CCNCCC[NH2+]c1c2ccccc2[n+](C)c2cccc(NCCCN3CCOCC3)c12 (nonaromatic ring conformer: 118.38046347841906 kcal/mol)

>  <smiles>  (9) 
CCNCCCNc1c2ccccc2[n+](C)c2cccc(NCCCN3CCOCC3)c12

>  <score_type>  (9) 
oracle

>  <origin>  (9) 
adg

>  <m_score__min__energy>  (9) 
-9.0099999999999998

>  <m_primary>  (9) 
energy

$$$$
9:0
     RDKit          3D

 42 44  0  0  0  0  0  0  0  0999 V2000
   -1.6630   24.5620  -28.9380 C   0  0  0  0  0  0  0  0  0  0  0  0
   -2.4600   23.4380  -29.6260 C   0  0  1  0  0  0  0  0  0  0  0  0
   -1.5890   22.1600  -29.8110 C   0  0  0  0  0  0  0  0  0  0  0  0
   -1.9800   20.9960  -28.8840 C   0  0  0  0  0  0  0  0  0  0  0  0
   -2.3410   21.4960  -27.4850 C   0  0  0  0  0  0  0  0  0  0  0  0
   -3.5270   22.4840  -27.5020 C   0  0  0  0  0  0  0  0  0  0  0  0
   -3.7940   23.1270  -28.8880 C   0  0  1  0  0  0  0  0  0  0  0  0
   -4.6320   24.3310  -28.7210 N   0  0  0  0  0  0  0  0  0  0  0  0
   -5.5220   24.7400  -30.1660 S   0  0  0  0  0  0  0  0  0  0  0  0
   -6.6420   25.6710  -29.8000 O   0  0  0  0  0  0  0  0  0  0  0  0
   -4.6150   25.4580  -31.1260 O   0  0  0  0  0  0  0  0  0  0  0  0
   -6.2150   23.3120  -30.9350 C   0  0  0  0  0  0  0  0  0  0  0  0
   -7.5890   23.0130  -30.7890 C   0  0  0  0  0  0  0  0  0  0  0  0
   -8.1490   21.8970  -31.4290 C   0  0  0  0  0  0  0  0  0  0  0  0
   -7.3110   21.1070  -32.2080 C   0  0  0  0  0  0  0  0  0  0  0  0
   -7.6450   19.7330  -33.0940 S   0  0  0  0  0  0  0  0  0  0  0  0
   -6.1120   19.4660  -33.6930 N   0  0  0  0  0  0  0  0  0  0  0  0
   -5.7130   18.3630  -34.5580 C   0  0  0  0  0  0  0  0  0  0  0  0
   -5.3080   20.4490  -33.2020 C   0  0  0  0  0  0  0  0  0  0  0  0
   -4.0780   20.5110  -33.4740 O   0  0  0  0  0  0  0  0  0  0  0  0
   -5.9590   21.3810  -32.3680 C   0  0  0  0  0  0  0  0  0  0  0  0
   -5.3920   22.4890  -31.7320 C   0  0  0  0  0  0  0  0  0  0  0  0
   -1.7412   24.4517  -27.8463 H   0  0  0  0  0  0  0  0  0  0  0  0
   -0.6066   24.4991  -29.2381 H   0  0  0  0  0  0  0  0  0  0  0  0
   -2.0719   25.5381  -29.2381 H   0  0  0  0  0  0  0  0  0  0  0  0
   -2.7338   23.8008  -30.6277 H   0  0  0  0  0  0  0  0  0  0  0  0
   -1.6891   21.8211  -30.8527 H   0  0  0  0  0  0  0  0  0  0  0  0
   -0.5566   22.4387  -29.5533 H   0  0  0  0  0  0  0  0  0  0  0  0
   -2.8477   20.4729  -29.3124 H   0  0  0  0  0  0  0  0  0  0  0  0
   -1.1190   20.3168  -28.7981 H   0  0  0  0  0  0  0  0  0  0  0  0
   -2.6096   20.6321  -26.8593 H   0  0  0  0  0  0  0  0  0  0  0  0
   -1.4664   22.0281  -27.0826 H   0  0  0  0  0  0  0  0  0  0  0  0
   -4.4327   21.9422  -27.1920 H   0  0  0  0  0  0  0  0  0  0  0  0
   -3.2675   23.3038  -26.8160 H   0  0  0  0  0  0  0  0  0  0  0  0
   -4.3426   22.4134  -29.5203 H   0  0  0  0  0  0  0  0  0  0  0  0
   -5.3550   24.1280  -27.9930 H   0  0  0  0  0  0  0  0  0  0  0  0
   -8.2248   23.6612  -30.1680 H   0  0  0  0  0  0  0  0  0  0  0  0
   -9.2163   21.6550  -31.3181 H   0  0  0  0  0  0  0  0  0  0  0  0
   -5.4032   17.5067  -33.9409 H   0  0  0  0  0  0  0  0  0  0  0  0
   -6.5619   18.0694  -35.1930 H   0  0  0  0  0  0  0  0  0  0  0  0
   -4.8727   18.6804  -35.1930 H   0  0  0  0  0  0  0  0  0  0  0  0
   -4.3221   22.7154  -31.8510 H   0  0  0  0  0  0  0  0  0  0  0  0
  1  2  1  0
  2  3  1  0
  3  4  1  0
  4  5  1  0
  5  6  1  0
  6  7  1  0
  7  8  1  0
  8  9  1  0
  9 10  2  0
  9 11  2  0
  9 12  1  0
 12 13  2  0
 13 14  1  0
 14 15  2  0
 15 16  1  0
 16 17  1  0
 17 18  1  0
 17 19  1  0
 19 20  2  0
 19 21  1  0
 21 22  2  0
  7  2  1  0
 22 12  1  0
 21 15  1  0
  1 23  1  0
  1 24  1  0
  1 25  1  0
  2 26  1  6
  3 27  1  0
  3 28  1  0
  4 29  1  0
  4 30  1  0
  5 31  1  0
  5 32  1  0
  6 33  1  0
  6 34  1  0
  7 35  1  6
  8 36  1  0
 13 37  1  0
 14 38  1  0
 18 39  1  0
 18 40  1  0
 18 41  1  0
 22 42  1  0
M  END
>  <UniqueID>  (10) 
10

>  <SMILES>  (10) 
C[C@H]1CCCC[C@H]1NS(=O)(=O)c1ccc2sn(C)c(=O)c2c1

>  <Energy>  (10) 
83.97862643226915

>  <Genealogy>  (10) 
C[C@H]1CCCC[C@H]1NS(=O)(=O)c1ccc2sn(C)c(=O)c2c1 (chirality)
C[C@H]1CCCC[C@H]1NS(=O)(=O)c1ccc2sn(C)c(=O)c2c1 (3D coordinates assigned)
C[C@H]1CCCC[C@H]1NS(=O)(=O)c1ccc2sn(C)c(=O)c2c1 (nonaromatic ring conformer: 83.97862643226915 kcal/mol)

>  <smiles>  (10) 
CC1CCCCC1NS(=O)(=O)c1ccc2sn(C)c(=O)c2c1

>  <score_type>  (10) 
oracle

>  <origin>  (10) 
adg

>  <m_score__min__energy>  (10) 
-9.6500000000000004

>  <m_primary>  (10) 
energy

$$$$
10:0
     RDKit          3D

 31 33  0  0  1  0  0  0  0  0999 V2000
   -3.6850   19.7710  -33.4570 C   0  0  0  0  0  0  0  0  0  0  0  0
   -4.5750   20.6200  -32.6540 N   0  0  0  0  0  0  0  0  0  0  0  0
   -6.8060   19.8250  -33.4310 C   0  0  0  0  0  0  0  0  0  0  0  0
   -2.9630   21.7860  -31.5290 O   0  0  0  0  0  0  0  0  0  0  0  0
   -5.2780   22.1180  -31.2310 N   0  0  0  0  0  0  0  0  0  0  0  0
   -5.1890   23.1560  -30.2400 C   0  0  2  0  0  0  0  0  0  0  0  0
   -6.2860   24.1330  -30.2380 C   0  0  0  0  0  0  0  0  0  0  0  0
   -5.5800   25.4790  -30.0530 C   0  0  0  0  0  0  0  0  0  0  0  0
   -4.2750   25.3230  -30.6530 N   0  0  0  0  0  0  0  0  0  0  0  0
   -3.9060   23.9360  -30.4950 C   0  0  0  0  0  0  0  0  0  0  0  0
   -6.3410   21.5340  -31.7960 C   0  0  0  0  0  0  0  0  0  0  0  0
   -7.6390   21.7200  -31.6300 N   0  0  0  0  0  0  0  0  0  0  0  0
   -8.5120   20.9820  -32.3410 C   0  0  0  0  0  0  0  0  0  0  0  0
   -9.8390   21.2140  -32.1310 F   0  0  0  0  0  0  0  0  0  0  0  0
   -8.1190   20.0450  -33.2320 N   0  0  0  0  0  0  0  0  0  0  0  0
   -4.1880   21.5340  -31.7800 C   0  0  0  0  0  0  0  0  0  0  0  0
   -6.4360   18.9370  -34.2750 N   0  0  0  0  0  0  0  0  0  0  0  0
   -5.9170   20.5850  -32.6980 C   0  0  0  0  0  0  0  0  0  0  0  0
   -3.0526   19.1678  -32.7890 H   0  0  0  0  0  0  0  0  0  0  0  0
   -4.2879   19.1049  -34.0917 H   0  0  0  0  0  0  0  0  0  0  0  0
   -3.0480   20.4046  -34.0917 H   0  0  0  0  0  0  0  0  0  0  0  0
   -5.2273   22.6394  -29.2696 H   0  0  0  0  0  0  0  0  0  0  0  0
   -6.8352   24.1068  -31.1908 H   0  0  0  0  0  0  0  0  0  0  0  0
   -7.0306   23.9332  -29.4534 H   0  0  0  0  0  0  0  0  0  0  0  0
   -6.1411   26.2788  -30.5584 H   0  0  0  0  0  0  0  0  0  0  0  0
   -5.5075   25.7563  -28.9910 H   0  0  0  0  0  0  0  0  0  0  0  0
   -4.2240   25.6670  -31.6390 H   0  0  0  0  0  0  0  0  0  0  0  0
   -3.4173   23.5693  -31.4097 H   0  0  0  0  0  0  0  0  0  0  0  0
   -3.2005   23.8118  -29.6602 H   0  0  0  0  0  0  0  0  0  0  0  0
   -8.8460   19.4900  -33.7670 H   0  0  0  0  0  0  0  0  0  0  0  0
   -6.8430   18.9880  -35.2350 H   0  0  0  0  0  0  0  0  0  0  0  0
  1  2  1  0
  2  3  1  0
  3  4  2  0
  3  5  1  0
  5  6  1  0
  6  7  1  0
  7  8  1  0
  8  9  1  0
  9 10  1  0
  5 11  1  0
 11 12  1  0
 12 13  2  0
 13 14  1  0
 13 15  1  0
 15 16  1  0
 16 17  2  3
 16 18  1  0
 18  2  1  0
 10  6  1  0
 18 11  2  0
  1 19  1  0
  1 20  1  0
  1 21  1  0
  6 22  1  1
  7 23  1  0
  7 24  1  0
  8 25  1  0
  8 26  1  0
  9 27  1  0
 10 28  1  0
 10 29  1  0
 15 30  1  0
 17 31  1  0
M  END
>  <smiles>  (11) 
Cn1c(=O)n(C2CCNC2)c2nc(F)[nH]c(=N)c21

>  <score_type>  (11) 
oracle

>  <origin>  (11) 
adg

>  <m_score__min__energy>  (11) 
-7.5599999999999996

>  <m_primary>  (11) 
energy

$$$$
11:0
     RDKit          3D

 37 37  0  0  0  0  0  0  0  0999 V2000
   -6.0910   18.1870  -34.0490 C   0  0  0  0  0  0  0  0  0  0  0  0
   -5.1390   19.2730  -33.5720 C   0  0  0  0  0  0  0  0  0  0  0  0
   -5.7980   20.0830  -32.6210 O   0  0  0  0  0  0  0  0  0  0  0  0
   -7.1980   19.8840  -32.6830 C   0  0  0  0  0  0  0  0  0  0  0  0
   -7.9290   21.1920  -32.3430 C   0  0  0  0  0  0  0  0  0  0  0  0
   -7.0090   22.3270  -32.1300 N   0  0  0  0  0  0  0  0  0  0  0  0
   -7.5770   23.4660  -31.3810 C   0  0  0  0  0  0  0  0  0  0  0  0
   -6.6020   24.1350  -30.3920 C   0  0  0  0  0  0  0  0  0  0  0  0
   -4.8800   23.9640  -30.8570 S   0  0  0  0  0  0  0  0  0  0  0  0
   -4.7990   23.4100  -32.2510 O   0  0  0  0  0  0  0  0  0  0  0  0
   -4.2100   25.3110  -30.8380 O   0  0  0  0  0  0  0  0  0  0  0  0
   -4.0530   22.8540  -29.7650 C   0  0  0  0  0  0  0  0  0  0  0  0
   -3.4390   21.7040  -30.2810 C   0  0  0  0  0  0  0  0  0  0  0  0
   -2.8020   20.8010  -29.4240 C   0  0  0  0  0  0  0  0  0  0  0  0
   -2.7690   21.0470  -28.0480 C   0  0  0  0  0  0  0  0  0  0  0  0
   -1.9040   19.8100  -26.8780 Br  0  0  0  0  0  0  0  0  0  0  0  0
   -3.3720   22.1970  -27.5300 C   0  0  0  0  0  0  0  0  0  0  0  0
   -4.0100   23.1010  -28.3840 C   0  0  0  0  0  0  0  0  0  0  0  0
   -6.5349   17.6806  -33.1792 H   0  0  0  0  0  0  0  0  0  0  0  0
   -6.8887   18.6395  -34.6564 H   0  0  0  0  0  0  0  0  0  0  0  0
   -5.5379   17.4554  -34.6564 H   0  0  0  0  0  0  0  0  0  0  0  0
   -4.2541   18.8101  -33.1109 H   0  0  0  0  0  0  0  0  0  0  0  0
   -4.8229   19.8891  -34.4267 H   0  0  0  0  0  0  0  0  0  0  0  0
   -7.4761   19.5643  -33.6981 H   0  0  0  0  0  0  0  0  0  0  0  0
   -7.4857   19.1096  -31.9566 H   0  0  0  0  0  0  0  0  0  0  0  0
   -8.6069   21.4409  -33.1728 H   0  0  0  0  0  0  0  0  0  0  0  0
   -8.4752   21.0294  -31.4021 H   0  0  0  0  0  0  0  0  0  0  0  0
   -6.6630   22.6590  -33.0580 H   0  0  0  0  0  0  0  0  0  0  0  0
   -6.1700   21.9810  -31.6090 H   0  0  0  0  0  0  0  0  0  0  0  0
   -7.9037   24.2251  -32.1070 H   0  0  0  0  0  0  0  0  0  0  0  0
   -8.4032   23.0612  -30.7780 H   0  0  0  0  0  0  0  0  0  0  0  0
   -6.8428   25.2069  -30.3375 H   0  0  0  0  0  0  0  0  0  0  0  0
   -6.7267   23.6287  -29.4234 H   0  0  0  0  0  0  0  0  0  0  0  0
   -3.4584   21.5114  -31.3638 H   0  0  0  0  0  0  0  0  0  0  0  0
   -2.3268   19.8970  -29.8325 H   0  0  0  0  0  0  0  0  0  0  0  0
   -3.3443   22.3909  -26.4476 H   0  0  0  0  0  0  0  0  0  0  0  0
   -4.4790   24.0072  -27.9732 H   0  0  0  0  0  0  0  0  0  0  0  0
  1  2  1  0
  2  3  1  0
  3  4  1  0
  4  5  1  0
  5  6  1  0
  6  7  1  0
  7  8  1  0
  8  9  1  0
  9 10  2  0
  9 11  2  0
  9 12  1  0
 12 13  2  0
 13 14  1  0
 14 15  2  0
 15 16  1  0
 15 17  1  0
 17 18  2  0
 18 12  1  0
  1 19  1  0
  1 20  1  0
  1 21  1  0
  2 22  1  0
  2 23  1  0
  4 24  1  0
  4 25  1  0
  5 26  1  0
  5 27  1  0
  6 28  1  0
  6 29  1  0
  7 30  1  0
  7 31  1  0
  8 32  1  0
  8 33  1  0
 13 34  1  0
 14 35  1  0
 17 36  1  0
 18 37  1  0
M  CHG  1   6   1
M  END
>  <UniqueID>  (12) 
11

>  <SMILES>  (12) 
CCOCC[NH2+]CCS(=O)(=O)c1ccc(Br)cc1

>  <Energy>  (12) 
30.441102102948694

>  <Genealogy>  (12) 
CCOCC[NH2+]CCS(=O)(=O)c1ccc(Br)cc1 (protonated)
CCOCC[NH2+]CCS(=O)(=O)c1ccc(Br)cc1 (3D coordinates assigned)
CCOCC[NH2+]CCS(=O)(=O)c1ccc(Br)cc1 (optimized conformer: 30.441102102948694 kcal/mol)

>  <smiles>  (12) 
CCOCCNCCS(=O)(=O)c1ccc(Br)cc1

>  <score_type>  (12) 
oracle

>  <origin>  (12) 
adg

>  <m_score__min__energy>  (12) 
-6.7699999999999996

>  <m_primary>  (12) 
energy

$$$$
12:0
     RDKit          3D

 50 52  0  0  0  0  0  0  0  0999 V2000
    0.6730   25.1620  -36.1380 C   0  0  0  0  0  0  0  0  0  0  0  0
    1.0730   23.6890  -36.0100 C   0  0  0  0  0  0  0  0  0  0  0  0
   -0.0740   22.8080  -35.7210 N   0  0  0  0  0  0  0  0  0  0  0  0
    0.2260   21.3610  -35.7590 C   0  0  0  0  0  0  0  0  0  0  0  0
   -0.2780   20.5610  -34.5330 C   0  0  0  0  0  0  0  0  0  0  0  0
   -1.2000   21.3010  -33.6550 N   0  0  0  0  0  0  0  0  0  0  0  0
   -1.9520   20.4240  -32.7490 C   0  0  0  0  0  0  0  0  0  0  0  0
   -3.3170   21.0290  -32.4730 C   0  0  0  0  0  0  0  0  0  0  0  0
   -3.3300   22.2880  -31.8610 C   0  0  0  0  0  0  0  0  0  0  0  0
   -4.5270   22.9390  -31.6370 C   0  0  0  0  0  0  0  0  0  0  0  0
   -5.7280   22.2830  -31.8850 C   0  0  0  0  0  0  0  0  0  0  0  0
   -6.9330   22.9720  -31.7040 C   0  0  0  0  0  0  0  0  0  0  0  0
   -8.1460   22.3340  -31.9150 C   0  0  0  0  0  0  0  0  0  0  0  0
   -8.1820   20.9630  -32.1780 C   0  0  0  0  0  0  0  0  0  0  0  0
   -9.4220   20.3070  -32.2420 C   0  0  0  0  0  0  0  0  0  0  0  0
   -9.4790   18.9190  -32.3390 C   0  0  0  0  0  0  0  0  0  0  0  0
   -8.3020   18.1760  -32.3290 C   0  0  0  0  0  0  0  0  0  0  0  0
   -7.0630   18.8190  -32.2860 C   0  0  0  0  0  0  0  0  0  0  0  0
   -6.9690   20.2280  -32.3100 C   0  0  0  0  0  0  0  0  0  0  0  0
   -5.7140   20.9310  -32.3260 C   0  0  0  0  0  0  0  0  0  0  0  0
   -4.5100   20.3860  -32.7730 N   0  0  0  0  0  0  0  0  0  0  0  0
   -4.4970   19.3330  -33.8220 C   0  0  0  0  0  0  0  0  0  0  0  0
   -4.0750   17.9560  -33.2860 C   0  0  0  0  0  0  0  0  0  0  0  0
    0.5545   25.5983  -35.1352 H   0  0  0  0  0  0  0  0  0  0  0  0
    1.4554   25.7082  -36.6854 H   0  0  0  0  0  0  0  0  0  0  0  0
   -0.2782   25.2374  -36.6854 H   0  0  0  0  0  0  0  0  0  0  0  0
    1.5342   23.3667  -36.9552 H   0  0  0  0  0  0  0  0  0  0  0  0
    1.7734   23.6083  -35.1656 H   0  0  0  0  0  0  0  0  0  0  0  0
   -0.8270   23.0010  -36.4230 H   0  0  0  0  0  0  0  0  0  0  0  0
   -0.4710   23.0600  -34.7880 H   0  0  0  0  0  0  0  0  0  0  0  0
   -0.2425   20.9379  -36.6598 H   0  0  0  0  0  0  0  0  0  0  0  0
    1.3224   21.2719  -35.7574 H   0  0  0  0  0  0  0  0  0  0  0  0
   -0.7987   19.6639  -34.8992 H   0  0  0  0  0  0  0  0  0  0  0  0
    0.6097   20.3274  -33.9268 H   0  0  0  0  0  0  0  0  0  0  0  0
   -1.8620   21.8760  -34.2230 H   0  0  0  0  0  0  0  0  0  0  0  0
   -2.0769   19.4358  -33.2157 H   0  0  0  0  0  0  0  0  0  0  0  0
   -1.4013   20.3168  -31.8028 H   0  0  0  0  0  0  0  0  0  0  0  0
   -2.3839   22.7601  -31.5577 H   0  0  0  0  0  0  0  0  0  0  0  0
   -4.5306   23.9736  -31.2634 H   0  0  0  0  0  0  0  0  0  0  0  0
   -6.9176   24.0268  -31.3922 H   0  0  0  0  0  0  0  0  0  0  0  0
   -9.0826   22.9095  -31.8751 H   0  0  0  0  0  0  0  0  0  0  0  0
  -10.3529   20.8924  -32.2154 H   0  0  0  0  0  0  0  0  0  0  0  0
  -10.4512   18.4113  -32.4233 H   0  0  0  0  0  0  0  0  0  0  0  0
   -8.3480   17.0773  -32.3551 H   0  0  0  0  0  0  0  0  0  0  0  0
   -6.1438   18.2172  -32.2325 H   0  0  0  0  0  0  0  0  0  0  0  0
   -5.5082   19.2489  -34.2467 H   0  0  0  0  0  0  0  0  0  0  0  0
   -3.7570   19.6321  -34.5790 H   0  0  0  0  0  0  0  0  0  0  0  0
   -4.0803   17.9733  -32.1861 H   0  0  0  0  0  0  0  0  0  0  0  0
   -4.7800   17.1913  -33.6441 H   0  0  0  0  0  0  0  0  0  0  0  0
   -3.0626   17.7177  -33.6441 H   0  0  0  0  0  0  0  0  0  0  0  0
  1  2  1  0
  2  3  1  0
  3  4  1  0
  4  5  1  0
  5  6  1  0
  6  7  1  0
  7  8  1  0
  8  9  2  0
  9 10  1  0
 10 11  2  0
 11 12  1  0
 12 13  2  0
 13 14  1  0
 14 15  2  0
 15 16  1  0
 16 17  2  0
 17 18  1  0
 18 19  2  0
 19 20  1  0
 20 21  2  0
 21 22  1  0
 22 23  1  0
 21  8  1  0
 20 11  1  0
 19 14  1  0
  1 24  1  0
  1 25  1  0
  1 26  1  0
  2 27  1  0
  2 28  1  0
  3 29  1  0
  3 30  1  0
  4 31  1  0
  4 32  1  0
  5 33  1  0
  5 34  1  0
  6 35  1  0
  7 36  1  0
  7 37  1  0
  9 38  1  0
 10 39  1  0
 12 40  1  0
 13 41  1  0
 15 42  1  0
 16 43  1  0
 17 44  1  0
 18 45  1  0
 22 46  1  0
 22 47  1  0
 23 48  1  0
 23 49  1  0
 23 50  1  0
M  CHG  2   3   1  21   1
M  END
>  <UniqueID>  (13) 
12

>  <SMILES>  (13) 
CC[NH2+]CCNCc1ccc2ccc3ccccc3c2[n+]1CC

>  <Energy>  (13) 
84.48941020654198

>  <Genealogy>  (13) 
CC[NH2+]CCNCc1ccc2ccc3ccccc3c2[n+]1CC (protonated)
CC[NH2+]CCNCc1ccc2ccc3ccccc3c2[n+]1CC (3D coordinates assigned)
CC[NH2+]CCNCc1ccc2ccc3ccccc3c2[n+]1CC (optimized conformer: 84.48941020654198 kcal/mol)

>  <smiles>  (13) 
CCNCCNCc1ccc2ccc3ccccc3c2[n+]1CC

>  <score_type>  (13) 
oracle

>  <origin>  (13) 
adg

>  <m_score__min__energy>  (13) 
-7.0800000000000001

>  <m_primary>  (13) 
energy

$$$$
13:0
     RDKit          3D

 44 46  0  0  0  0  0  0  0  0999 V2000
   -6.4000   22.5380  -32.3110 C   0  0  0  0  0  0  0  0  0  0  0  0
   -5.1560   21.6590  -32.2530 C   0  0  0  0  0  0  0  0  0  0  0  0
   -3.9960   22.4290  -32.5140 O   0  0  0  0  0  0  0  0  0  0  0  0
   -3.1420   22.4650  -31.3850 C   0  0  0  0  0  0  0  0  0  0  0  0
   -3.5180   23.5920  -30.4560 C   0  0  0  0  0  0  0  0  0  0  0  0
   -4.4090   24.4080  -30.8190 O   0  0  0  0  0  0  0  0  0  0  0  0
   -2.8660   23.7710  -29.1810 N   0  0  0  0  0  0  0  0  0  0  0  0
   -1.5770   23.1210  -28.8870 C   0  0  0  0  0  0  0  0  0  0  0  0
   -0.7010   24.0250  -28.0130 C   0  0  0  0  0  0  0  0  0  0  0  0
   -1.4550   24.5820  -26.8840 N   0  0  0  0  0  0  0  0  0  0  0  0
   -0.7830   25.4110  -25.9280 C   0  0  0  0  0  0  0  0  0  0  0  0
   -0.6860   26.7480  -26.1580 N   0  0  0  0  0  0  0  0  0  0  0  0
   -0.0620   27.5750  -25.2800 C   0  0  0  0  0  0  0  0  0  0  0  0
    0.0290   28.9460  -25.5410 C   0  0  0  0  0  0  0  0  0  0  0  0
    0.6760   29.7870  -24.6290 C   0  0  0  0  0  0  0  0  0  0  0  0
    1.2310   29.2600  -23.4580 C   0  0  0  0  0  0  0  0  0  0  0  0
    1.1420   27.8900  -23.1910 C   0  0  0  0  0  0  0  0  0  0  0  0
    0.4950   27.0390  -24.1010 C   0  0  0  0  0  0  0  0  0  0  0  0
    0.3910   25.7010  -23.8610 N   0  0  0  0  0  0  0  0  0  0  0  0
   -0.2380   24.8750  -24.7450 C   0  0  0  0  0  0  0  0  0  0  0  0
   -0.3670   23.4700  -24.4400 C   0  0  0  0  0  0  0  0  0  0  0  0
   -0.4690   22.3440  -24.1950 N   0  0  0  0  0  0  0  0  0  0  0  0
   -2.9000   24.3730  -26.7700 C   0  0  0  0  0  0  0  0  0  0  0  0
   -3.5630   24.5410  -28.1390 C   0  0  0  0  0  0  0  0  0  0  0  0
   -6.7315   22.7722  -31.2886 H   0  0  0  0  0  0  0  0  0  0  0  0
   -6.1648   23.4716  -32.8431 H   0  0  0  0  0  0  0  0  0  0  0  0
   -7.2014   22.0045  -32.8431 H   0  0  0  0  0  0  0  0  0  0  0  0
   -5.0756   21.2100  -31.2521 H   0  0  0  0  0  0  0  0  0  0  0  0
   -5.2401   20.8701  -33.0149 H   0  0  0  0  0  0  0  0  0  0  0  0
   -3.2220   21.5110  -30.8433 H   0  0  0  0  0  0  0  0  0  0  0  0
   -2.1108   22.6272  -31.7318 H   0  0  0  0  0  0  0  0  0  0  0  0
   -1.7622   22.1754  -28.3564 H   0  0  0  0  0  0  0  0  0  0  0  0
   -1.0528   22.9304  -29.8351 H   0  0  0  0  0  0  0  0  0  0  0  0
    0.1420   23.4357  -27.6230 H   0  0  0  0  0  0  0  0  0  0  0  0
   -0.3437   24.8604  -28.6330 H   0  0  0  0  0  0  0  0  0  0  0  0
   -0.4071   29.3621  -26.4611 H   0  0  0  0  0  0  0  0  0  0  0  0
    0.7484   30.8654  -24.8333 H   0  0  0  0  0  0  0  0  0  0  0  0
    1.7392   29.9255  -22.7447 H   0  0  0  0  0  0  0  0  0  0  0  0
    1.5787   27.4796  -22.2686 H   0  0  0  0  0  0  0  0  0  0  0  0
    0.7950   25.2990  -22.9830 H   0  0  0  0  0  0  0  0  0  0  0  0
   -3.0926   23.3573  -26.3942 H   0  0  0  0  0  0  0  0  0  0  0  0
   -3.3181   25.1143  -26.0730 H   0  0  0  0  0  0  0  0  0  0  0  0
   -4.6045   24.1929  -28.0755 H   0  0  0  0  0  0  0  0  0  0  0  0
   -3.5183   25.6055  -28.4126 H   0  0  0  0  0  0  0  0  0  0  0  0
  1  2  1  0
  2  3  1  0
  3  4  1  0
  4  5  1  0
  5  6  2  0
  5  7  1  0
  7  8  1  0
  8  9  1  0
  9 10  1  0
 10 11  1  0
 11 12  2  0
 12 13  1  0
 13 14  2  0
 14 15  1  0
 15 16  2  0
 16 17  1  0
 17 18  2  0
 18 19  1  0
 19 20  2  0
 20 21  1  0
 21 22  3  0
 10 23  1  0
 23 24  1  0
 24  7  1  0
 20 11  1  0
 18 13  1  0
  1 25  1  0
  1 26  1  0
  1 27  1  0
  2 28  1  0
  2 29  1  0
  4 30  1  0
  4 31  1  0
  8 32  1  0
  8 33  1  0
  9 34  1  0
  9 35  1  0
 14 36  1  0
 15 37  1  0
 16 38  1  0
 17 39  1  0
 19 40  1  0
 23 41  1  0
 23 42  1  0
 24 43  1  0
 24 44  1  0
M  CHG  1  19   1
M  END
>  <UniqueID>  (14) 
13

>  <SMILES>  (14) 
CCOCC(=O)N1CCN(c2nc3ccccc3[nH+]c2C#N)CC1

>  <Energy>  (14) 
55.20239874917608

>  <Genealogy>  (14) 
CCOCC(=O)N1CCN(c2nc3ccccc3[nH+]c2C#N)CC1 (protonated)
CCOCC(=O)N1CCN(c2nc3ccccc3[nH+]c2C#N)CC1 (3D coordinates assigned)
CCOCC(=O)N1CCN(c2nc3ccccc3[nH+]c2C#N)CC1 (nonaromatic ring conformer: 55.20239874917608 kcal/mol)

>  <smiles>  (14) 
CCOCC(=O)N1CCN(c2nc3ccccc3nc2C#N)CC1

>  <score_type>  (14) 
oracle

>  <origin>  (14) 
adg

>  <m_score__min__energy>  (14) 
-6.9199999999999999

>  <m_primary>  (14) 
energy

$$$$
14:0
     RDKit          3D

 26 27  0  0  0  0  0  0  0  0999 V2000
   -9.1090   18.5560  -31.5360 C   0  0  0  0  0  0  0  0  0  0  0  0
   -7.5700   17.8140  -32.1600 S   0  0  0  0  0  0  0  0  0  0  0  0
   -6.7450   19.3960  -32.3400 C   0  0  0  0  0  0  0  0  0  0  0  0
   -6.8390   20.3900  -31.4320 N   0  0  0  0  0  0  0  0  0  0  0  0
   -6.0920   21.3720  -31.9910 C   0  0  0  0  0  0  0  0  0  0  0  0
   -5.8950   22.7030  -31.3660 C   0  0  0  0  0  0  0  0  0  0  0  0
   -7.0130   23.4990  -31.0500 C   0  0  0  0  0  0  0  0  0  0  0  0
   -6.8450   24.7560  -30.4590 C   0  0  0  0  0  0  0  0  0  0  0  0
   -5.5630   25.2310  -30.1750 C   0  0  0  0  0  0  0  0  0  0  0  0
   -4.4470   24.4510  -30.4790 C   0  0  0  0  0  0  0  0  0  0  0  0
   -4.6070   23.1930  -31.0710 C   0  0  0  0  0  0  0  0  0  0  0  0
   -5.5750   20.9880  -33.1780 N   0  0  0  0  0  0  0  0  0  0  0  0
   -5.9760   19.7480  -33.3860 N   0  0  0  0  0  0  0  0  0  0  0  0
   -5.7020   18.9730  -34.5910 C   0  0  0  0  0  0  0  0  0  0  0  0
   -9.0988   18.5511  -30.4361 H   0  0  0  0  0  0  0  0  0  0  0  0
   -9.1894   19.5919  -31.8973 H   0  0  0  0  0  0  0  0  0  0  0  0
   -9.9695   17.9738  -31.8973 H   0  0  0  0  0  0  0  0  0  0  0  0
   -8.0257   23.1298  -31.2694 H   0  0  0  0  0  0  0  0  0  0  0  0
   -7.7244   25.3712  -30.2177 H   0  0  0  0  0  0  0  0  0  0  0  0
   -5.4330   26.2201  -29.7116 H   0  0  0  0  0  0  0  0  0  0  0  0
   -3.4380   24.8260  -30.2526 H   0  0  0  0  0  0  0  0  0  0  0  0
   -3.7225   22.5833  -31.3074 H   0  0  0  0  0  0  0  0  0  0  0  0
   -4.9880   21.5410  -33.8410 H   0  0  0  0  0  0  0  0  0  0  0  0
   -5.3476   17.9705  -34.3095 H   0  0  0  0  0  0  0  0  0  0  0  0
   -6.6227   18.8827  -35.1861 H   0  0  0  0  0  0  0  0  0  0  0  0
   -4.9291   19.4814  -35.1861 H   0  0  0  0  0  0  0  0  0  0  0  0
  1  2  1  0
  2  3  1  0
  3  4  2  0
  4  5  1  0
  5  6  1  0
  6  7  2  0
  7  8  1  0
  8  9  2  0
  9 10  1  0
 10 11  2  0
  5 12  2  0
 12 13  1  0
 13 14  1  0
 13  3  1  0
 11  6  1  0
  1 15  1  0
  1 16  1  0
  1 17  1  0
  7 18  1  0
  8 19  1  0
  9 20  1  0
 10 21  1  0
 11 22  1  0
 12 23  1  0
 14 24  1  0
 14 25  1  0
 14 26  1  0
M  CHG  1  12   1
M  END
>  <UniqueID>  (15) 
14

>  <SMILES>  (15) 
CSc1nc(-c2ccccc2)[nH+]n1C

>  <Energy>  (15) 
56.9335541903026

>  <Genealogy>  (15) 
CSc1nc(-c2ccccc2)[nH+]n1C (protonated)
CSc1nc(-c2ccccc2)[nH+]n1C (3D coordinates assigned)
CSc1nc(-c2ccccc2)[nH+]n1C (optimized conformer: 56.9335541903026 kcal/mol)

>  <smiles>  (15) 
CSc1nc(-c2ccccc2)nn1C

>  <score_type>  (15) 
oracle

>  <origin>  (15) 
adg

>  <m_score__min__energy>  (15) 
-5.6299999999999999

>  <m_primary>  (15) 
energy

$$$$
15:0
     RDKit          3D

 48 50  0  0  0  0  0  0  0  0999 V2000
   -4.2510   24.8990  -30.4670 C   0  0  0  0  0  0  0  0  0  0  0  0
   -4.5490   23.5020  -30.8210 N   0  0  0  0  0  0  0  0  0  0  0  0
   -5.4640   22.8840  -29.8510 C   0  0  0  0  0  0  0  0  0  0  0  0
   -3.3380   22.6930  -31.0860 C   0  0  0  0  0  0  0  0  0  0  0  0
   -3.4790   21.6360  -32.2140 C   0  0  0  0  0  0  0  0  0  0  0  0
   -4.5900   21.9480  -33.1350 N   0  0  0  0  0  0  0  0  0  0  0  0
   -5.6940   21.0210  -32.9460 C   0  0  0  0  0  0  0  0  0  0  0  0
   -5.5520   19.6450  -33.2550 C   0  0  0  0  0  0  0  0  0  0  0  0
   -6.5920   18.7480  -32.9360 C   0  0  0  0  0  0  0  0  0  0  0  0
   -7.7050   19.1780  -32.2510 N   0  0  0  0  0  0  0  0  0  0  0  0
   -8.6080   18.1880  -31.6280 C   0  0  0  0  0  0  0  0  0  0  0  0
   -7.9660   20.5300  -32.1510 C   0  0  0  0  0  0  0  0  0  0  0  0
   -9.2390   21.0070  -31.7460 C   0  0  0  0  0  0  0  0  0  0  0  0
   -9.4960   22.3710  -31.6360 C   0  0  0  0  0  0  0  0  0  0  0  0
   -8.5080   23.2940  -31.9480 C   0  0  0  0  0  0  0  0  0  0  0  0
   -7.2570   22.8600  -32.3810 C   0  0  0  0  0  0  0  0  0  0  0  0
   -6.9590   21.4790  -32.4890 C   0  0  0  0  0  0  0  0  0  0  0  0
   -6.4450   17.3240  -33.4540 C   0  0  0  0  0  0  0  0  0  0  0  0
   -5.0680   16.7560  -33.0890 C   0  0  0  0  0  0  0  0  0  0  0  0
   -3.9050   17.7440  -33.3470 C   0  0  0  0  0  0  0  0  0  0  0  0
   -4.3510   19.0680  -33.9900 C   0  0  0  0  0  0  0  0  0  0  0  0
   -4.2288   25.0031  -29.3722 H   0  0  0  0  0  0  0  0  0  0  0  0
   -3.2723   25.1817  -30.8821 H   0  0  0  0  0  0  0  0  0  0  0  0
   -5.0291   25.5564  -30.8821 H   0  0  0  0  0  0  0  0  0  0  0  0
   -5.1251   23.1129  -28.8299 H   0  0  0  0  0  0  0  0  0  0  0  0
   -6.4786   23.2826  -29.9986 H   0  0  0  0  0  0  0  0  0  0  0  0
   -5.4732   21.7940  -29.9986 H   0  0  0  0  0  0  0  0  0  0  0  0
   -2.5248   23.3797  -31.3637 H   0  0  0  0  0  0  0  0  0  0  0  0
   -3.1422   22.1278  -30.1628 H   0  0  0  0  0  0  0  0  0  0  0  0
   -2.5413   21.6035  -32.7882 H   0  0  0  0  0  0  0  0  0  0  0  0
   -3.6936   20.6656  -31.7425 H   0  0  0  0  0  0  0  0  0  0  0  0
   -4.9110   22.9310  -33.0110 H   0  0  0  0  0  0  0  0  0  0  0  0
   -4.2700   21.9260  -34.1280 H   0  0  0  0  0  0  0  0  0  0  0  0
   -8.5374   18.2654  -30.5330 H   0  0  0  0  0  0  0  0  0  0  0  0
   -9.6430   18.3861  -31.9436 H   0  0  0  0  0  0  0  0  0  0  0  0
   -8.3158   17.1756  -31.9436 H   0  0  0  0  0  0  0  0  0  0  0  0
  -10.0374   20.2865  -31.5147 H   0  0  0  0  0  0  0  0  0  0  0  0
  -10.4847   22.7178  -31.3009 H   0  0  0  0  0  0  0  0  0  0  0  0
   -8.7130   24.3706  -31.8533 H   0  0  0  0  0  0  0  0  0  0  0  0
   -6.4880   23.6015  -32.6433 H   0  0  0  0  0  0  0  0  0  0  0  0
   -7.2266   16.6936  -33.0050 H   0  0  0  0  0  0  0  0  0  0  0  0
   -6.5458   17.3330  -34.5493 H   0  0  0  0  0  0  0  0  0  0  0  0
   -5.0715   16.4936  -32.0208 H   0  0  0  0  0  0  0  0  0  0  0  0
   -4.8979   15.8805  -33.7329 H   0  0  0  0  0  0  0  0  0  0  0  0
   -3.4215   17.9703  -32.3852 H   0  0  0  0  0  0  0  0  0  0  0  0
   -3.2198   17.2565  -34.0561 H   0  0  0  0  0  0  0  0  0  0  0  0
   -3.5208   19.7883  -33.9465 H   0  0  0  0  0  0  0  0  0  0  0  0
   -4.6349   18.8757  -35.0352 H   0  0  0  0  0  0  0  0  0  0  0  0
  1  2  1  0
  2  3  1  0
  2  4  1  0
  4  5  1  0
  5  6  1  0
  6  7  1  0
  7  8  2  0
  8  9  1  0
  9 10  2  0
 10 11  1  0
 10 12  1  0
 12 13  2  0
 13 14  1  0
 14 15  2  0
 15 16  1  0
 16 17  2  0
  9 18  1  0
 18 19  1  0
 19 20  1  0
 20 21  1  0
 17  7  1  0
 21  8  1  0
 17 12  1  0
  1 22  1  0
  1 23  1  0
  1 24  1  0
  3 25  1  0
  3 26  1  0
  3 27  1  0
  4 28  1  0
  4 29  1  0
  5 30  1  0
  5 31  1  0
  6 32  1  0
  6 33  1  0
 11 34  1  0
 11 35  1  0
 11 36  1  0
 13 37  1  0
 14 38  1  0
 15 39  1  0
 16 40  1  0
 18 41  1  0
 18 42  1  0
 19 43  1  0
 19 44  1  0
 20 45  1  0
 20 46  1  0
 21 47  1  0
 21 48  1  0
M  CHG  2   6   1  10   1
M  END
>  <UniqueID>  (16) 
15

>  <SMILES>  (16) 
CN(C)CC[NH2+]c1c2c([n+](C)c3ccccc13)CCCC2

>  <Energy>  (16) 
81.6420572870767

>  <Genealogy>  (16) 
CN(C)CC[NH2+]c1c2c([n+](C)c3ccccc13)CCCC2 (protonated)
CN(C)CC[NH2+]c1c2c([n+](C)c3ccccc13)CCCC2 (3D coordinates assigned)
CN(C)CC[NH2+]c1c2c([n+](C)c3ccccc13)CCCC2 (nonaromatic ring conformer: 81.6420572870767 kcal/mol)

>  <smiles>  (16) 
CN(C)CCNc1c2c([n+](C)c3ccccc13)CCCC2

>  <score_type>  (16) 
oracle

>  <origin>  (16) 
adg

>  <m_score__min__energy>  (16) 
-7.5800000000000001

>  <m_primary>  (16) 
energy

$$$$
16:0
     RDKit          3D

 66 68  0  0  0  0  0  0  0  0999 V2000
   -3.3400   21.5410  -29.5190 C   0  0  0  0  0  0  0  0  0  0  0  0
   -4.4320   22.6130  -29.5260 C   0  0  0  0  0  0  0  0  0  0  0  0
   -3.9620   23.9380  -29.9870 N   0  0  0  0  0  0  0  0  0  0  0  0
   -2.9020   24.5470  -29.1410 C   0  0  0  0  0  0  0  0  0  0  0  0
   -3.1430   24.4530  -27.6270 C   0  0  0  0  0  0  0  0  0  0  0  0
   -5.0440   24.8320  -30.4550 C   0  0  0  0  0  0  0  0  0  0  0  0
   -6.3670   24.0650  -30.5890 C   0  0  0  0  0  0  0  0  0  0  0  0
   -6.6840   23.7020  -32.0460 C   0  0  0  0  0  0  0  0  0  0  0  0
   -6.4450   22.2760  -32.3080 N   0  0  0  0  0  0  0  0  0  0  0  0
   -5.2850   21.6850  -32.6850 C   0  0  0  0  0  0  0  0  0  0  0  0
   -4.0410   22.2930  -32.8850 C   0  0  0  0  0  0  0  0  0  0  0  0
   -2.9620   21.4910  -33.2830 C   0  0  0  0  0  0  0  0  0  0  0  0
   -3.1290   20.0990  -33.4790 C   0  0  0  0  0  0  0  0  0  0  0  0
   -1.9510   19.2360  -33.8700 C   0  0  0  0  0  0  0  0  0  0  0  0
   -0.7800   19.4470  -32.9790 N   0  0  0  0  0  0  0  0  0  0  0  0
    0.0150   20.6000  -33.4750 C   0  0  0  0  0  0  0  0  0  0  0  0
   -0.0960   20.7680  -34.9960 C   0  0  0  0  0  0  0  0  0  0  0  0
   -1.2060   19.6600  -31.5610 C   0  0  0  0  0  0  0  0  0  0  0  0
   -0.4090   20.7770  -30.8820 C   0  0  0  0  0  0  0  0  0  0  0  0
   -4.3940   19.5090  -33.2820 C   0  0  0  0  0  0  0  0  0  0  0  0
   -5.4570   20.3260  -32.8840 C   0  0  0  0  0  0  0  0  0  0  0  0
   -6.7950   20.0580  -32.6200 C   0  0  0  0  0  0  0  0  0  0  0  0
   -7.5650   18.8770  -32.6540 C   0  0  0  0  0  0  0  0  0  0  0  0
   -6.9860   17.5410  -33.0180 C   0  0  0  0  0  0  0  0  0  0  0  0
   -8.9350   18.9850  -32.3300 C   0  0  0  0  0  0  0  0  0  0  0  0
   -9.5020   20.2270  -31.9860 C   0  0  0  0  0  0  0  0  0  0  0  0
   -8.7160   21.3860  -31.9570 C   0  0  0  0  0  0  0  0  0  0  0  0
   -7.3600   21.2770  -32.2770 C   0  0  0  0  0  0  0  0  0  0  0  0
   -3.0817   21.2875  -28.4802 H   0  0  0  0  0  0  0  0  0  0  0  0
   -3.7058   20.6415  -30.0359 H   0  0  0  0  0  0  0  0  0  0  0  0
   -2.4475   21.9234  -30.0359 H   0  0  0  0  0  0  0  0  0  0  0  0
   -5.2410   22.2802  -30.1929 H   0  0  0  0  0  0  0  0  0  0  0  0
   -4.7688   22.7354  -28.4860 H   0  0  0  0  0  0  0  0  0  0  0  0
   -1.9523   24.0401  -29.3671 H   0  0  0  0  0  0  0  0  0  0  0  0
   -2.8945   25.6198  -29.3841 H   0  0  0  0  0  0  0  0  0  0  0  0
   -2.2481   24.8020  -27.0909 H   0  0  0  0  0  0  0  0  0  0  0  0
   -4.0031   25.0816  -27.3529 H   0  0  0  0  0  0  0  0  0  0  0  0
   -3.3504   23.4081  -27.3529 H   0  0  0  0  0  0  0  0  0  0  0  0
   -5.1736   25.6504  -29.7315 H   0  0  0  0  0  0  0  0  0  0  0  0
   -4.7678   25.2324  -31.4416 H   0  0  0  0  0  0  0  0  0  0  0  0
   -6.3001   23.1384  -30.0000 H   0  0  0  0  0  0  0  0  0  0  0  0
   -7.1730   24.7170  -30.2213 H   0  0  0  0  0  0  0  0  0  0  0  0
   -7.7403   23.9311  -32.2501 H   0  0  0  0  0  0  0  0  0  0  0  0
   -6.0233   24.2895  -32.7005 H   0  0  0  0  0  0  0  0  0  0  0  0
   -3.9124   23.3749  -32.7335 H   0  0  0  0  0  0  0  0  0  0  0  0
   -1.9748   21.9485  -33.4447 H   0  0  0  0  0  0  0  0  0  0  0  0
   -2.2522   18.1795  -33.8150 H   0  0  0  0  0  0  0  0  0  0  0  0
   -1.6526   19.5146  -34.8914 H   0  0  0  0  0  0  0  0  0  0  0  0
   -0.1730   18.5950  -33.0540 H   0  0  0  0  0  0  0  0  0  0  0  0
   -0.3500   21.5171  -32.9896 H   0  0  0  0  0  0  0  0  0  0  0  0
    1.0712   20.4120  -33.2319 H   0  0  0  0  0  0  0  0  0  0  0  0
   -0.6893   21.6659  -35.2234 H   0  0  0  0  0  0  0  0  0  0  0  0
    0.9102   20.8744  -35.4275 H   0  0  0  0  0  0  0  0  0  0  0  0
   -0.5885   19.8841  -35.4275 H   0  0  0  0  0  0  0  0  0  0  0  0
   -2.2730   19.9269  -31.5475 H   0  0  0  0  0  0  0  0  0  0  0  0
   -1.0209   18.7274  -31.0079 H   0  0  0  0  0  0  0  0  0  0  0  0
   -0.4853   20.6701  -29.7899 H   0  0  0  0  0  0  0  0  0  0  0  0
    0.6466   20.7101  -31.1841 H   0  0  0  0  0  0  0  0  0  0  0  0
   -0.8157   21.7534  -31.1841 H   0  0  0  0  0  0  0  0  0  0  0  0
   -4.5417   18.4302  -33.4378 H   0  0  0  0  0  0  0  0  0  0  0  0
   -6.7445   16.9838  -32.1008 H   0  0  0  0  0  0  0  0  0  0  0  0
   -7.7186   16.9729  -33.6100 H   0  0  0  0  0  0  0  0  0  0  0  0
   -6.0705   17.6871  -33.6100 H   0  0  0  0  0  0  0  0  0  0  0  0
   -9.5685   18.0859  -32.3466 H   0  0  0  0  0  0  0  0  0  0  0  0
  -10.5719   20.2877  -31.7378 H   0  0  0  0  0  0  0  0  0  0  0  0
   -9.1553   22.3582  -31.6889 H   0  0  0  0  0  0  0  0  0  0  0  0
  1  2  1  0
  2  3  1  0
  3  4  1  0
  4  5  1  0
  3  6  1  0
  6  7  1  0
  7  8  1  0
  8  9  1  0
  9 10  1  0
 10 11  2  0
 11 12  1  0
 12 13  2  0
 13 14  1  0
 14 15  1  0
 15 16  1  0
 16 17  1  0
 15 18  1  0
 18 19  1  0
 13 20  1  0
 20 21  2  0
 21 22  1  0
 22 23  2  0
 23 24  1  0
 23 25  1  0
 25 26  2  0
 26 27  1  0
 27 28  2  0
 28  9  1  0
 21 10  1  0
 28 22  1  0
  1 29  1  0
  1 30  1  0
  1 31  1  0
  2 32  1  0
  2 33  1  0
  4 34  1  0
  4 35  1  0
  5 36  1  0
  5 37  1  0
  5 38  1  0
  6 39  1  0
  6 40  1  0
  7 41  1  0
  7 42  1  0
  8 43  1  0
  8 44  1  0
 11 45  1  0
 12 46  1  0
 14 47  1  0
 14 48  1  0
 15 49  1  0
 16 50  1  0
 16 51  1  0
 17 52  1  0
 17 53  1  0
 17 54  1  0
 18 55  1  0
 18 56  1  0
 19 57  1  0
 19 58  1  0
 19 59  1  0
 20 60  1  0
 24 61  1  0
 24 62  1  0
 24 63  1  0
 25 64  1  0
 26 65  1  0
 27 66  1  0
M  CHG  1  15   1
M  END
>  <UniqueID>  (17) 
16

>  <SMILES>  (17) 
CCN(CC)CCCn1c2ccc(C[NH+](CC)CC)cc2c2c(C)cccc21

>  <Energy>  (17) 
112.0087714163202

>  <Genealogy>  (17) 
CCN(CC)CCCn1c2ccc(C[NH+](CC)CC)cc2c2c(C)cccc21 (protonated)
CCN(CC)CCCn1c2ccc(C[NH+](CC)CC)cc2c2c(C)cccc21 (3D coordinates assigned)
CCN(CC)CCCn1c2ccc(C[NH+](CC)CC)cc2c2c(C)cccc21 (optimized conformer: 112.0087714163202 kcal/mol)

>  <smiles>  (17) 
CCN(CC)CCCn1c2ccc(CN(CC)CC)cc2c2c(C)cccc21

>  <score_type>  (17) 
oracle

>  <origin>  (17) 
adg

>  <m_score__min__energy>  (17) 
-8.5399999999999991

>  <m_primary>  (17) 
energy

$$$$
17:0
     RDKit          3D

 38 37  0  0  0  0  0  0  0  0999 V2000
   -6.2550   24.6360  -30.0270 C   0  0  0  0  0  0  0  0  0  0  0  0
   -6.5460   23.1350  -30.1690 C   0  0  0  0  0  0  0  0  0  0  0  0
   -6.5990   22.6330  -31.5660 N   0  0  0  0  0  0  0  0  0  0  0  0
   -5.3380   22.6640  -32.3390 C   0  0  0  0  0  0  0  0  0  0  0  0
   -4.2990   21.7320  -31.7210 C   0  0  0  0  0  0  0  0  0  0  0  0
   -7.7920   23.0540  -32.3340 C   0  0  0  0  0  0  0  0  0  0  0  0
   -9.1030   22.4500  -31.8210 C   0  0  0  0  0  0  0  0  0  0  0  0
   -8.8600   21.1250  -31.3980 O   0  0  0  0  0  0  0  0  0  0  0  0
   -9.4090   20.2200  -32.3330 C   0  0  0  0  0  0  0  0  0  0  0  0
   -8.3680   19.1490  -32.6970 C   0  0  0  0  0  0  0  0  0  0  0  0
   -6.9680   19.6090  -32.5260 N   0  0  0  0  0  0  0  0  0  0  0  0
   -6.2580   18.7030  -31.6060 C   0  0  0  0  0  0  0  0  0  0  0  0
   -6.2480   19.6680  -33.8130 C   0  0  0  0  0  0  0  0  0  0  0  0
   -6.2038   24.9003  -28.9604 H   0  0  0  0  0  0  0  0  0  0  0  0
   -5.2947   24.8706  -30.5094 H   0  0  0  0  0  0  0  0  0  0  0  0
   -7.0581   25.2124  -30.5094 H   0  0  0  0  0  0  0  0  0  0  0  0
   -5.7563   22.5830  -29.6383 H   0  0  0  0  0  0  0  0  0  0  0  0
   -7.5498   22.9763  -29.7481 H   0  0  0  0  0  0  0  0  0  0  0  0
   -5.5404   22.3439  -33.3718 H   0  0  0  0  0  0  0  0  0  0  0  0
   -4.9423   23.6903  -32.3262 H   0  0  0  0  0  0  0  0  0  0  0  0
   -4.3620   21.7885  -30.6243 H   0  0  0  0  0  0  0  0  0  0  0  0
   -4.4929   20.6994  -32.0467 H   0  0  0  0  0  0  0  0  0  0  0  0
   -3.2934   22.0365  -32.0467 H   0  0  0  0  0  0  0  0  0  0  0  0
   -7.8704   24.1498  -32.2796 H   0  0  0  0  0  0  0  0  0  0  0  0
   -7.6541   22.6921  -33.3636 H   0  0  0  0  0  0  0  0  0  0  0  0
   -9.4779   23.0450  -30.9752 H   0  0  0  0  0  0  0  0  0  0  0  0
   -9.8549   22.4535  -32.6239 H   0  0  0  0  0  0  0  0  0  0  0  0
  -10.2938   19.7348  -31.8950 H   0  0  0  0  0  0  0  0  0  0  0  0
   -9.6977   20.7685  -33.2418 H   0  0  0  0  0  0  0  0  0  0  0  0
   -8.5287   18.2725  -32.0520 H   0  0  0  0  0  0  0  0  0  0  0  0
   -8.5047   18.9107  -33.7621 H   0  0  0  0  0  0  0  0  0  0  0  0
   -6.9610   20.5640  -32.0950 H   0  0  0  0  0  0  0  0  0  0  0  0
   -6.4807   18.9872  -30.5670 H   0  0  0  0  0  0  0  0  0  0  0  0
   -6.5886   17.6687  -31.7821 H   0  0  0  0  0  0  0  0  0  0  0  0
   -5.1747   18.7767  -31.7821 H   0  0  0  0  0  0  0  0  0  0  0  0
   -5.1678   19.7565  -33.6251 H   0  0  0  0  0  0  0  0  0  0  0  0
   -6.4464   18.7506  -34.3866 H   0  0  0  0  0  0  0  0  0  0  0  0
   -6.5931   20.5409  -34.3866 H   0  0  0  0  0  0  0  0  0  0  0  0
  1  2  1  0
  2  3  1  0
  3  4  1  0
  4  5  1  0
  3  6  1  0
  6  7  1  0
  7  8  1  0
  8  9  1  0
  9 10  1  0
 10 11  1  0
 11 12  1  0
 11 13  1  0
  1 14  1  0
  1 15  1  0
  1 16  1  0
  2 17  1  0
  2 18  1  0
  4 19  1  0
  4 20  1  0
  5 21  1  0
  5 22  1  0
  5 23  1  0
  6 24  1  0
  6 25  1  0
  7 26  1  0
  7 27  1  0
  9 28  1  0
  9 29  1  0
 10 30  1  0
 10 31  1  0
 11 32  1  0
 12 33  1  0
 12 34  1  0
 12 35  1  0
 13 36  1  0
 13 37  1  0
 13 38  1  0
M  CHG  1  11   1
M  END
>  <UniqueID>  (18) 
17

>  <SMILES>  (18) 
CCN(CC)CCOCC[NH+](C)C

>  <Energy>  (18) 
37.32521056937568

>  <Genealogy>  (18) 
CCN(CC)CCOCC[NH+](C)C (protonated)
CCN(CC)CCOCC[NH+](C)C (3D coordinates assigned)
CCN(CC)CCOCC[NH+](C)C (optimized conformer: 37.32521056937568 kcal/mol)

>  <smiles>  (18) 
CCN(CC)CCOCCN(C)C

>  <score_type>  (18) 
oracle

>  <origin>  (18) 
adg

>  <m_score__min__energy>  (18) 
-3.4199999999999999

>  <m_primary>  (18) 
energy

$$$$
18:0
     RDKit          3D

 58 61  0  0  0  0  0  0  0  0999 V2000
   -6.2153   25.1402  -29.9319 H   0  0  0  0  0  0  0  0  0  0  0  0
   -5.8730   24.4710  -30.7350 C   0  0  0  0  0  0  0  0  0  0  0  0
   -4.6220   24.5020  -31.0590 N   0  0  0  0  0  0  0  0  0  0  0  0
   -3.5900   23.6830  -30.4650 C   0  0  0  0  0  0  0  0  0  0  0  0
   -3.6621   23.7402  -29.3689 H   0  0  0  0  0  0  0  0  0  0  0  0
   -3.7195   22.6392  -30.7870 H   0  0  0  0  0  0  0  0  0  0  0  0
   -2.6029   24.0462  -30.7870 H   0  0  0  0  0  0  0  0  0  0  0  0
   -6.8930   23.5720  -31.3920 C   0  0  0  0  0  0  0  0  0  0  0  0
   -7.8382   24.1233  -31.5049 H   0  0  0  0  0  0  0  0  0  0  0  0
   -7.0367   22.6846  -30.7581 H   0  0  0  0  0  0  0  0  0  0  0  0
   -6.4340   23.1310  -32.7150 N   0  0  0  0  0  0  0  0  0  0  0  0
   -5.5450   23.6130  -32.9770 H   0  0  0  0  0  0  0  0  0  0  0  0
   -7.1530   23.3840  -33.4340 H   0  0  0  0  0  0  0  0  0  0  0  0
   -6.2350   21.7030  -32.7150 C   0  0  0  0  0  0  0  0  0  0  0  0
   -4.9810   21.1340  -32.9800 C   0  0  0  0  0  0  0  0  0  0  0  0
   -3.8510   21.7800  -33.1860 O   0  0  0  0  0  0  0  0  0  0  0  0
   -2.9110   20.8710  -33.3220 C   0  0  0  0  0  0  0  0  0  0  0  0
   -1.5500   21.0950  -33.5180 C   0  0  0  0  0  0  0  0  0  0  0  0
   -1.1551   22.1150  -33.6349 H   0  0  0  0  0  0  0  0  0  0  0  0
   -0.6970   19.9800  -33.5620 C   0  0  0  0  0  0  0  0  0  0  0  0
    0.3802   20.1233  -33.7325 H   0  0  0  0  0  0  0  0  0  0  0  0
   -1.2120   18.6760  -33.3890 C   0  0  0  0  0  0  0  0  0  0  0  0
   -0.5304   17.8129  -33.4085 H   0  0  0  0  0  0  0  0  0  0  0  0
   -2.5900   18.4730  -33.1920 C   0  0  0  0  0  0  0  0  0  0  0  0
   -2.9977   17.4638  -33.0327 H   0  0  0  0  0  0  0  0  0  0  0  0
   -3.4250   19.5940  -33.2050 C   0  0  0  0  0  0  0  0  0  0  0  0
   -4.7850   19.7560  -33.0150 C   0  0  0  0  0  0  0  0  0  0  0  0
   -5.8480   18.8470  -32.8380 C   0  0  0  0  0  0  0  0  0  0  0  0
   -5.6950   17.4330  -33.0180 N   0  0  0  0  0  0  0  0  0  0  0  0
   -5.2820   16.8780  -32.2330 H   0  0  0  0  0  0  0  0  0  0  0  0
   -6.4240   16.6940  -34.0520 C   0  0  0  0  0  0  0  0  0  0  0  0
   -6.3110   17.2190  -35.0120 H   0  0  0  0  0  0  0  0  0  0  0  0
   -7.4815   16.6405  -33.7541 H   0  0  0  0  0  0  0  0  0  0  0  0
   -5.8960   15.2590  -34.2040 C   0  0  0  0  0  0  0  0  0  0  0  0
   -5.4289   15.1477  -35.1937 H   0  0  0  0  0  0  0  0  0  0  0  0
   -6.7367   14.5570  -34.1013 H   0  0  0  0  0  0  0  0  0  0  0  0
   -4.8880   14.9620  -33.1500 N   0  0  0  0  0  0  0  0  0  0  0  0
   -3.5110   15.2680  -33.6050 C   0  0  0  0  0  0  0  0  0  0  0  0
   -2.8807   14.3764  -33.4716 H   0  0  0  0  0  0  0  0  0  0  0  0
   -3.1208   16.1058  -33.0085 H   0  0  0  0  0  0  0  0  0  0  0  0
   -3.5030   15.6710  -35.0790 C   0  0  0  0  0  0  0  0  0  0  0  0
   -3.4812   16.7679  -35.1591 H   0  0  0  0  0  0  0  0  0  0  0  0
   -2.6130   15.2498  -35.5695 H   0  0  0  0  0  0  0  0  0  0  0  0
   -4.4090   15.2854  -35.5695 H   0  0  0  0  0  0  0  0  0  0  0  0
   -4.9780   13.5540  -32.6850 C   0  0  0  0  0  0  0  0  0  0  0  0
   -6.0096   13.1981  -32.8234 H   0  0  0  0  0  0  0  0  0  0  0  0
   -4.2709   12.9522  -33.2748 H   0  0  0  0  0  0  0  0  0  0  0  0
   -4.6020   13.4210  -31.2100 C   0  0  0  0  0  0  0  0  0  0  0  0
   -5.4556   13.7229  -30.5853 H   0  0  0  0  0  0  0  0  0  0  0  0
   -4.3394   12.3754  -30.9914 H   0  0  0  0  0  0  0  0  0  0  0  0
   -3.7403   14.0689  -30.9914 H   0  0  0  0  0  0  0  0  0  0  0  0
   -7.1070   19.4050  -32.5280 C   0  0  0  0  0  0  0  0  0  0  0  0
   -8.2910   18.6920  -32.2830 C   0  0  0  0  0  0  0  0  0  0  0  0
   -8.3455   17.5934  -32.2730 H   0  0  0  0  0  0  0  0  0  0  0  0
   -9.3890   19.5160  -32.0540 C   0  0  0  0  0  0  0  0  0  0  0  0
  -10.4119   19.1721  -31.8408 H   0  0  0  0  0  0  0  0  0  0  0  0
   -8.8990   21.1270  -32.1560 S   0  0  0  0  0  0  0  0  0  0  0  0
   -7.2850   20.7950  -32.4830 C   0  0  0  0  0  0  0  0  0  0  0  0
  1  2  1  0
  2  3  2  0
  3  4  1  0
  4  5  1  0
  4  6  1  0
  4  7  1  0
  2  8  1  0
  8  9  1  0
  8 10  1  0
  8 11  1  0
 11 12  1  0
 11 13  1  0
 11 14  1  0
 14 15  2  0
 15 16  1  0
 16 17  1  0
 17 18  2  0
 18 19  1  0
 18 20  1  0
 20 21  1  0
 20 22  2  0
 22 23  1  0
 22 24  1  0
 24 25  1  0
 24 26  2  0
 26 27  1  0
 27 28  2  0
 28 29  1  0
 29 30  1  0
 29 31  1  0
 31 32  1  0
 31 33  1  0
 31 34  1  0
 34 35  1  0
 34 36  1  0
 34 37  1  0
 37 38  1  0
 38 39  1  0
 38 40  1  0
 38 41  1  0
 41 42  1  0
 41 43  1  0
 41 44  1  0
 37 45  1  0
 45 46  1  0
 45 47  1  0
 45 48  1  0
 48 49  1  0
 48 50  1  0
 48 51  1  0
 28 52  1  0
 52 53  1  0
 53 54  1  0
 53 55  2  0
 55 56  1  0
 55 57  1  0
 57 58  1  0
 58 14  1  0
 27 15  1  0
 58 52  2  0
 26 17  1  0
M  CHG  1  11   1
M  END
>  <UniqueID>  (19) 
18

>  <SMILES>  (19) 
CCN(CC)CCNc1c2ccsc2c([NH2+]C/C=N\C)c2oc3ccccc3c12

>  <Energy>  (19) 
133.20249111184492

>  <Genealogy>  (19) 
CCN(CC)CCNc1c2ccsc2c([NH2+]CC=NC)c2oc3ccccc3c12 (protonated)
CCN(CC)CCNc1c2ccsc2c([NH2+]C/C=N\C)c2oc3ccccc3c12 (cis-trans isomerization)
CCN(CC)CCNc1c2ccsc2c([NH2+]C/C=N\C)c2oc3ccccc3c12 (3D coordinates assigned)
CCN(CC)CCNc1c2ccsc2c([NH2+]C/C=N\C)c2oc3ccccc3c12 (optimized conformer: 133.20249111184492 kcal/mol)

>  <smiles>  (19) 
CCN(CC)CCNc1c2ccsc2c(NCC=NC)c2oc3ccccc3c12

>  <score_type>  (19) 
oracle

>  <origin>  (19) 
adg

>  <m_score__min__energy>  (19) 
-8.0999999999999996

>  <m_primary>  (19) 
energy

$$$$
19:0
     RDKit          3D

 43 45  0  0  0  0  0  0  0  0999 V2000
   -6.1710   25.4420  -29.5020 C   0  0  0  0  0  0  0  0  0  0  0  0
   -5.3560   25.6040  -30.7790 C   0  0  0  0  0  0  0  0  0  0  0  0
   -3.9440   25.3030  -30.5090 N   0  0  0  0  0  0  0  0  0  0  0  0
   -3.7800   24.3310  -29.4160 C   0  0  0  0  0  0  0  0  0  0  0  0
   -3.9580   22.8770  -29.8840 C   0  0  0  0  0  0  0  0  0  0  0  0
   -4.2520   22.8450  -31.2680 O   0  0  0  0  0  0  0  0  0  0  0  0
   -3.4380   21.8940  -31.9250 C   0  0  0  0  0  0  0  0  0  0  0  0
   -4.0040   21.6310  -33.3170 C   0  0  0  0  0  0  0  0  0  0  0  0
   -5.1880   20.7690  -33.2290 N   0  0  0  0  0  0  0  0  0  0  0  0
   -6.4140   21.0980  -32.7490 C   0  0  0  0  0  0  0  0  0  0  0  0
   -6.8480   22.3380  -32.2710 C   0  0  0  0  0  0  0  0  0  0  0  0
   -8.1720   22.4430  -31.8070 C   0  0  0  0  0  0  0  0  0  0  0  0
   -9.0300   21.3210  -31.8210 C   0  0  0  0  0  0  0  0  0  0  0  0
   -8.5730   20.0800  -32.2960 C   0  0  0  0  0  0  0  0  0  0  0  0
   -7.2590   20.0040  -32.7540 C   0  0  0  0  0  0  0  0  0  0  0  0
   -6.5230   18.9480  -33.2410 C   0  0  0  0  0  0  0  0  0  0  0  0
   -6.8520   17.6080  -33.4360 C   0  0  0  0  0  0  0  0  0  0  0  0
   -5.8500   16.7530  -33.9280 C   0  0  0  0  0  0  0  0  0  0  0  0
   -6.2390   14.9050  -34.2160 Br  0  0  0  0  0  0  0  0  0  0  0  0
   -4.5570   17.2500  -34.2010 C   0  0  0  0  0  0  0  0  0  0  0  0
   -4.2510   18.6070  -33.9920 C   0  0  0  0  0  0  0  0  0  0  0  0
   -5.2630   19.4440  -33.5130 C   0  0  0  0  0  0  0  0  0  0  0  0
   -5.5146   25.5725  -28.6290 H   0  0  0  0  0  0  0  0  0  0  0  0
   -6.9685   26.1992  -29.4775 H   0  0  0  0  0  0  0  0  0  0  0  0
   -6.6183   24.4374  -29.4775 H   0  0  0  0  0  0  0  0  0  0  0  0
   -5.7367   24.9129  -31.5454 H   0  0  0  0  0  0  0  0  0  0  0  0
   -5.4446   26.6401  -31.1377 H   0  0  0  0  0  0  0  0  0  0  0  0
   -3.5010   24.9260  -31.3790 H   0  0  0  0  0  0  0  0  0  0  0  0
   -2.7708   24.4437  -28.9932 H   0  0  0  0  0  0  0  0  0  0  0  0
   -4.5595   24.5373  -28.6678 H   0  0  0  0  0  0  0  0  0  0  0  0
   -3.0295   22.3179  -29.6961 H   0  0  0  0  0  0  0  0  0  0  0  0
   -4.7893   22.4187  -29.3283 H   0  0  0  0  0  0  0  0  0  0  0  0
   -2.4128   22.2833  -32.0115 H   0  0  0  0  0  0  0  0  0  0  0  0
   -3.4217   20.9576  -31.3480 H   0  0  0  0  0  0  0  0  0  0  0  0
   -4.2850   22.5877  -33.7815 H   0  0  0  0  0  0  0  0  0  0  0  0
   -3.2386   21.1278  -33.9260 H   0  0  0  0  0  0  0  0  0  0  0  0
   -6.1735   23.2068  -32.2581 H   0  0  0  0  0  0  0  0  0  0  0  0
   -8.5424   23.4077  -31.4299 H   0  0  0  0  0  0  0  0  0  0  0  0
  -10.0635   21.4194  -31.4574 H   0  0  0  0  0  0  0  0  0  0  0  0
   -9.2304   19.1981  -32.3060 H   0  0  0  0  0  0  0  0  0  0  0  0
   -7.8613   17.2319  -33.2126 H   0  0  0  0  0  0  0  0  0  0  0  0
   -3.7810   16.5692  -34.5810 H   0  0  0  0  0  0  0  0  0  0  0  0
   -3.2441   18.9983  -34.1996 H   0  0  0  0  0  0  0  0  0  0  0  0
  1  2  1  0
  2  3  1  0
  3  4  1  0
  4  5  1  0
  5  6  1  0
  6  7  1  0
  7  8  1  0
  8  9  1  0
  9 10  1  0
 10 11  2  0
 11 12  1  0
 12 13  2  0
 13 14  1  0
 14 15  2  0
 15 16  1  0
 16 17  2  0
 17 18  1  0
 18 19  1  0
 18 20  2  0
 20 21  1  0
 21 22  2  0
 22  9  1  0
 15 10  1  0
 22 16  1  0
  1 23  1  0
  1 24  1  0
  1 25  1  0
  2 26  1  0
  2 27  1  0
  3 28  1  0
  4 29  1  0
  4 30  1  0
  5 31  1  0
  5 32  1  0
  7 33  1  0
  7 34  1  0
  8 35  1  0
  8 36  1  0
 11 37  1  0
 12 38  1  0
 13 39  1  0
 14 40  1  0
 17 41  1  0
 20 42  1  0
 21 43  1  0
M  END
>  <UniqueID>  (20) 
19

>  <SMILES>  (20) 
CCNCCOCCn1c2ccccc2c2cc(Br)ccc21

>  <Energy>  (20) 
81.27489889032394

>  <Genealogy>  (20) 
CCNCCOCCn1c2ccccc2c2cc(Br)ccc21 (3D coordinates assigned)
CCNCCOCCn1c2ccccc2c2cc(Br)ccc21 (optimized conformer: 81.27489889032394 kcal/mol)

>  <smiles>  (20) 
CCNCCOCCn1c2ccccc2c2cc(Br)ccc21

>  <score_type>  (20) 
oracle

>  <origin>  (20) 
adg

>  <m_score__min__energy>  (20) 
-8.9700000000000006

>  <m_primary>  (20) 
energy

$$$$
20:0
     RDKit          3D

 54 56  0  0  0  0  0  0  0  0999 V2000
   -6.7660   20.3150  -33.4480 C   0  0  0  0  0  0  0  0  0  0  0  0
   -5.6640   19.2330  -33.3910 C   0  0  0  0  0  0  0  0  0  0  0  0
   -5.8210   18.3330  -34.6410 C   0  0  0  0  0  0  0  0  0  0  0  0
   -5.8870   18.3310  -32.1530 C   0  0  0  0  0  0  0  0  0  0  0  0
   -4.2870   19.8180  -33.4040 N   0  0  0  0  0  0  0  0  0  0  0  0
   -3.1530   18.9590  -33.8110 C   0  0  0  0  0  0  0  0  0  0  0  0
   -1.8840   19.7450  -34.1850 C   0  0  0  0  0  0  0  0  0  0  0  0
   -2.0110   21.1700  -33.8340 N   0  0  0  0  0  0  0  0  0  0  0  0
   -1.8400   21.4260  -32.3930 C   0  0  0  0  0  0  0  0  0  0  0  0
   -3.0260   22.1790  -31.8580 C   0  0  0  0  0  0  0  0  0  0  0  0
   -4.1810   22.3000  -32.5640 N   0  0  0  0  0  0  0  0  0  0  0  0
   -4.9720   23.0060  -31.7370 C   0  0  0  0  0  0  0  0  0  0  0  0
   -6.2790   23.4260  -31.9710 C   0  0  0  0  0  0  0  0  0  0  0  0
   -6.9200   24.1630  -30.9590 C   0  0  0  0  0  0  0  0  0  0  0  0
   -6.2470   24.4590  -29.7520 C   0  0  0  0  0  0  0  0  0  0  0  0
   -4.9270   24.0180  -29.5460 C   0  0  0  0  0  0  0  0  0  0  0  0
   -4.3190   23.2880  -30.5720 C   0  0  0  0  0  0  0  0  0  0  0  0
   -3.0820   22.7600  -30.6270 N   0  0  0  0  0  0  0  0  0  0  0  0
   -2.0290   22.8190  -29.6060 C   0  0  0  0  0  0  0  0  0  0  0  0
   -2.0210   21.5660  -28.7670 C   0  0  0  0  0  0  0  0  0  0  0  0
   -3.1090   21.2650  -27.9300 C   0  0  0  0  0  0  0  0  0  0  0  0
   -3.0810   20.1270  -27.1180 C   0  0  0  0  0  0  0  0  0  0  0  0
   -1.9700   19.2800  -27.1350 C   0  0  0  0  0  0  0  0  0  0  0  0
   -1.9500   18.1720  -26.3540 F   0  0  0  0  0  0  0  0  0  0  0  0
   -0.8830   19.5730  -27.9630 C   0  0  0  0  0  0  0  0  0  0  0  0
   -0.9040   20.7130  -28.7720 C   0  0  0  0  0  0  0  0  0  0  0  0
   -7.0547   20.5985  -32.4251 H   0  0  0  0  0  0  0  0  0  0  0  0
   -6.3846   21.1992  -33.9797 H   0  0  0  0  0  0  0  0  0  0  0  0
   -7.6431   19.9174  -33.9797 H   0  0  0  0  0  0  0  0  0  0  0  0
   -6.0021   17.2950  -34.3251 H   0  0  0  0  0  0  0  0  0  0  0  0
   -6.6710   18.6866  -35.2430 H   0  0  0  0  0  0  0  0  0  0  0  0
   -4.9015   18.3779  -35.2430 H   0  0  0  0  0  0  0  0  0  0  0  0
   -5.7408   18.9226  -31.2372 H   0  0  0  0  0  0  0  0  0  0  0  0
   -6.9113   17.9303  -32.1710 H   0  0  0  0  0  0  0  0  0  0  0  0
   -5.1675   17.4992  -32.1710 H   0  0  0  0  0  0  0  0  0  0  0  0
   -4.2790   20.6820  -33.9940 H   0  0  0  0  0  0  0  0  0  0  0  0
   -4.0570   20.1390  -32.4330 H   0  0  0  0  0  0  0  0  0  0  0  0
   -2.9106   18.2853  -32.9759 H   0  0  0  0  0  0  0  0  0  0  0  0
   -3.4703   18.4137  -34.7121 H   0  0  0  0  0  0  0  0  0  0  0  0
   -1.0264   19.3183  -33.6442 H   0  0  0  0  0  0  0  0  0  0  0  0
   -1.7373   19.6682  -35.2725 H   0  0  0  0  0  0  0  0  0  0  0  0
   -2.9810   21.4670  -34.0950 H   0  0  0  0  0  0  0  0  0  0  0  0
   -1.7477   20.4673  -31.8616 H   0  0  0  0  0  0  0  0  0  0  0  0
   -0.9321   22.0278  -32.2394 H   0  0  0  0  0  0  0  0  0  0  0  0
   -6.7923   23.1895  -32.9147 H   0  0  0  0  0  0  0  0  0  0  0  0
   -7.9526   24.5115  -31.1080 H   0  0  0  0  0  0  0  0  0  0  0  0
   -6.7584   25.0378  -28.9688 H   0  0  0  0  0  0  0  0  0  0  0  0
   -4.3921   24.2397  -28.6107 H   0  0  0  0  0  0  0  0  0  0  0  0
   -1.0528   22.9267  -30.1014 H   0  0  0  0  0  0  0  0  0  0  0  0
   -2.2243   23.6798  -28.9496 H   0  0  0  0  0  0  0  0  0  0  0  0
   -3.9868   21.9278  -27.9136 H   0  0  0  0  0  0  0  0  0  0  0  0
   -3.9356   19.8981  -26.4644 H   0  0  0  0  0  0  0  0  0  0  0  0
   -0.0090   18.9052  -27.9782 H   0  0  0  0  0  0  0  0  0  0  0  0
   -0.0422   20.9435  -29.4155 H   0  0  0  0  0  0  0  0  0  0  0  0
  1  2  1  0
  2  3  1  0
  2  4  1  0
  2  5  1  0
  5  6  1  0
  6  7  1  0
  7  8  1  0
  8  9  1  0
  9 10  1  0
 10 11  2  0
 11 12  1  0
 12 13  2  0
 13 14  1  0
 14 15  2  0
 15 16  1  0
 16 17  2  0
 17 18  1  0
 18 19  1  0
 19 20  1  0
 20 21  2  0
 21 22  1  0
 22 23  2  0
 23 24  1  0
 23 25  1  0
 25 26  2  0
 18 10  1  0
 26 20  1  0
 17 12  1  0
  1 27  1  0
  1 28  1  0
  1 29  1  0
  3 30  1  0
  3 31  1  0
  3 32  1  0
  4 33  1  0
  4 34  1  0
  4 35  1  0
  5 36  1  0
  5 37  1  0
  6 38  1  0
  6 39  1  0
  7 40  1  0
  7 41  1  0
  8 42  1  0
  9 43  1  0
  9 44  1  0
 13 45  1  0
 14 46  1  0
 15 47  1  0
 16 48  1  0
 19 49  1  0
 19 50  1  0
 21 51  1  0
 22 52  1  0
 25 53  1  0
 26 54  1  0
M  CHG  1   5   1
M  END
>  <UniqueID>  (21) 
20

>  <SMILES>  (21) 
CC(C)(C)[NH2+]CCNCc1nc2ccccc2n1Cc1ccc(F)cc1

>  <Energy>  (21) 
93.85460227691713

>  <Genealogy>  (21) 
CC(C)(C)[NH2+]CCNCc1nc2ccccc2n1Cc1ccc(F)cc1 (protonated)
CC(C)(C)[NH2+]CCNCc1nc2ccccc2n1Cc1ccc(F)cc1 (3D coordinates assigned)
CC(C)(C)[NH2+]CCNCc1nc2ccccc2n1Cc1ccc(F)cc1 (optimized conformer: 93.85460227691713 kcal/mol)

>  <smiles>  (21) 
CC(C)(C)NCCNCc1nc2ccccc2n1Cc1ccc(F)cc1

>  <score_type>  (21) 
oracle

>  <origin>  (21) 
adg

>  <m_score__min__energy>  (21) 
-6.96

>  <m_primary>  (21) 
energy

$$$$
21:0
     RDKit          3D

 85 88  0  0  0  0  0  0  0  0999 V2000
   -2.7210   19.6120  -27.0250 C   0  0  0  0  0  0  0  0  0  0  0  0
   -1.8560   20.8530  -27.3090 C   0  0  0  0  0  0  0  0  0  0  0  0
   -1.7990   21.2660  -28.7390 N   0  0  2  0  0  0  0  0  0  0  0  0
   -1.6400   20.1010  -29.6320 C   0  0  0  0  0  0  0  0  0  0  0  0
   -0.7600   22.2810  -29.0490 C   0  0  0  0  0  0  0  0  0  0  0  0
   -1.2680   23.7280  -28.9600 C   0  0  0  0  0  0  0  0  0  0  0  0
   -2.5090   23.7180  -28.2860 O   0  0  0  0  0  0  0  0  0  0  0  0
   -3.5620   24.1020  -29.1460 C   0  0  0  0  0  0  0  0  0  0  0  0
   -4.6830   23.0580  -29.1850 C   0  0  0  0  0  0  0  0  0  0  0  0
   -4.4420   22.1370  -30.2290 O   0  0  0  0  0  0  0  0  0  0  0  0
   -3.7420   22.7750  -31.2760 C   0  0  0  0  0  0  0  0  0  0  0  0
   -3.2550   21.7220  -32.2680 C   0  0  0  0  0  0  0  0  0  0  0  0
   -4.2780   21.4540  -33.2790 N   0  0  0  0  0  0  0  0  0  0  0  0
   -5.4440   20.6910  -32.9480 C   0  0  0  0  0  0  0  0  0  0  0  0
   -6.6060   21.3720  -32.5360 C   0  0  0  0  0  0  0  0  0  0  0  0
   -6.6280   22.7840  -32.4570 C   0  0  0  0  0  0  0  0  0  0  0  0
   -7.7560   23.4540  -31.9930 C   0  0  0  0  0  0  0  0  0  0  0  0
   -8.8760   22.7380  -31.5890 C   0  0  0  0  0  0  0  0  0  0  0  0
   -8.8830   21.3470  -31.6720 C   0  0  0  0  0  0  0  0  0  0  0  0
   -7.7630   20.6350  -32.1780 C   0  0  0  0  0  0  0  0  0  0  0  0
   -7.7710   19.2600  -32.3020 N   0  0  0  0  0  0  0  0  0  0  0  0
   -9.0510   18.5170  -32.2240 C   0  0  0  0  0  0  0  0  0  0  0  0
   -6.5930   18.5760  -32.5370 C   0  0  0  0  0  0  0  0  0  0  0  0
   -6.5200   17.1740  -32.3600 C   0  0  0  0  0  0  0  0  0  0  0  0
   -5.3610   16.4720  -32.6630 C   0  0  0  0  0  0  0  0  0  0  0  0
   -4.2520   17.1340  -33.1650 C   0  0  0  0  0  0  0  0  0  0  0  0
   -4.2600   18.5300  -33.3370 C   0  0  0  0  0  0  0  0  0  0  0  0
   -3.1470   19.1800  -33.9080 O   0  0  0  0  0  0  0  0  0  0  0  0
   -1.9010   18.5470  -34.2070 C   0  0  0  0  0  0  0  0  0  0  0  0
   -0.7610   19.0030  -33.2620 C   0  0  0  0  0  0  0  0  0  0  0  0
    0.0210   20.2360  -33.6360 N   0  0  0  0  0  0  0  0  0  0  0  0
    0.1890   21.0120  -32.3730 C   0  0  0  0  0  0  0  0  0  0  0  0
   -0.7300   21.0800  -34.6190 C   0  0  0  0  0  0  0  0  0  0  0  0
    0.1920   21.9410  -35.5120 C   0  0  0  0  0  0  0  0  0  0  0  0
    1.3760   22.2920  -34.8330 O   0  0  0  0  0  0  0  0  0  0  0  0
    2.1770   21.1440  -34.6040 C   0  0  0  0  0  0  0  0  0  0  0  0
    1.3660   19.8910  -34.1820 C   0  0  0  0  0  0  0  0  0  0  0  0
   -5.4180   19.2740  -32.9500 C   0  0  0  0  0  0  0  0  0  0  0  0
   -2.8176   19.4734  -25.9381 H   0  0  0  0  0  0  0  0  0  0  0  0
   -3.7186   19.7514  -27.4670 H   0  0  0  0  0  0  0  0  0  0  0  0
   -2.2450   18.7243  -27.4670 H   0  0  0  0  0  0  0  0  0  0  0  0
   -2.2628   21.6931  -26.7270 H   0  0  0  0  0  0  0  0  0  0  0  0
   -0.8280   20.5830  -27.0255 H   0  0  0  0  0  0  0  0  0  0  0  0
   -2.7320   21.6850  -28.9710 H   0  0  0  0  0  0  0  0  0  0  0  0
   -1.5157   19.1902  -29.0279 H   0  0  0  0  0  0  0  0  0  0  0  0
   -2.5328   20.0010  -30.2667 H   0  0  0  0  0  0  0  0  0  0  0  0
   -0.7530   20.2439  -30.2667 H   0  0  0  0  0  0  0  0  0  0  0  0
    0.0690   22.1590  -28.3363 H   0  0  0  0  0  0  0  0  0  0  0  0
   -0.4452   22.1130  -30.0895 H   0  0  0  0  0  0  0  0  0  0  0  0
   -0.5461   24.3427  -28.4024 H   0  0  0  0  0  0  0  0  0  0  0  0
   -1.3858   24.1526  -29.9679 H   0  0  0  0  0  0  0  0  0  0  0  0
   -3.9785   25.0568  -28.7927 H   0  0  0  0  0  0  0  0  0  0  0  0
   -3.1521   24.1976  -30.1623 H   0  0  0  0  0  0  0  0  0  0  0  0
   -4.7164   22.5217  -28.2252 H   0  0  0  0  0  0  0  0  0  0  0  0
   -5.6443   23.5631  -29.3605 H   0  0  0  0  0  0  0  0  0  0  0  0
   -4.4108   23.4821  -31.7886 H   0  0  0  0  0  0  0  0  0  0  0  0
   -2.8808   23.3225  -30.8653 H   0  0  0  0  0  0  0  0  0  0  0  0
   -2.3435   22.0870  -32.7640 H   0  0  0  0  0  0  0  0  0  0  0  0
   -3.0444   20.7909  -31.7215 H   0  0  0  0  0  0  0  0  0  0  0  0
   -4.3240   22.0440  -34.1430 H   0  0  0  0  0  0  0  0  0  0  0  0
   -5.7429   23.3594  -32.7660 H   0  0  0  0  0  0  0  0  0  0  0  0
   -7.7609   24.5530  -31.9460 H   0  0  0  0  0  0  0  0  0  0  0  0
   -9.7582   23.2698  -31.2032 H   0  0  0  0  0  0  0  0  0  0  0  0
   -9.7717   20.7905  -31.3397 H   0  0  0  0  0  0  0  0  0  0  0  0
   -9.3205   18.3606  -31.1690 H   0  0  0  0  0  0  0  0  0  0  0  0
   -9.8422   19.0962  -32.7225 H   0  0  0  0  0  0  0  0  0  0  0  0
   -8.9404   17.5427  -32.7225 H   0  0  0  0  0  0  0  0  0  0  0  0
   -7.3962   16.6311  -31.9759 H   0  0  0  0  0  0  0  0  0  0  0  0
   -5.3229   15.3843  -32.5036 H   0  0  0  0  0  0  0  0  0  0  0  0
   -3.3528   16.5598  -33.4327 H   0  0  0  0  0  0  0  0  0  0  0  0
   -2.0260   17.4585  -34.1090 H   0  0  0  0  0  0  0  0  0  0  0  0
   -1.6193   18.8316  -35.2315 H   0  0  0  0  0  0  0  0  0  0  0  0
   -1.2095   19.1877  -32.2747 H   0  0  0  0  0  0  0  0  0  0  0  0
   -0.0244   18.1874  -33.3086 H   0  0  0  0  0  0  0  0  0  0  0  0
    0.0445   20.3446  -31.5106 H   0  0  0  0  0  0  0  0  0  0  0  0
    1.2010   21.4418  -32.3386 H   0  0  0  0  0  0  0  0  0  0  0  0
   -0.5546   21.8218  -32.3386 H   0  0  0  0  0  0  0  0  0  0  0  0
   -1.3243   20.4180  -35.2659 H   0  0  0  0  0  0  0  0  0  0  0  0
   -1.3625   21.7700  -34.0412 H   0  0  0  0  0  0  0  0  0  0  0  0
    0.4523   21.3696  -36.4152 H   0  0  0  0  0  0  0  0  0  0  0  0
   -0.3438   22.8641  -35.7780 H   0  0  0  0  0  0  0  0  0  0  0  0
    2.7207   20.9096  -35.5310 H   0  0  0  0  0  0  0  0  0  0  0  0
    2.8527   21.3850  -33.7701 H   0  0  0  0  0  0  0  0  0  0  0  0
    1.2339   19.2440  -35.0617 H   0  0  0  0  0  0  0  0  0  0  0  0
    1.9288   19.3822  -33.3855 H   0  0  0  0  0  0  0  0  0  0  0  0
  1  2  1  0
  2  3  1  0
  3  4  1  0
  3  5  1  0
  5  6  1  0
  6  7  1  0
  7  8  1  0
  8  9  1  0
  9 10  1  0
 10 11  1  0
 11 12  1  0
 12 13  1  0
 13 14  1  0
 14 15  2  0
 15 16  1  0
 16 17  2  0
 17 18  1  0
 18 19  2  0
 19 20  1  0
 20 21  2  0
 21 22  1  0
 21 23  1  0
 23 24  2  0
 24 25  1  0
 25 26  2  0
 26 27  1  0
 27 28  1  0
 28 29  1  0
 29 30  1  0
 30 31  1  0
 31 32  1  0
 31 33  1  0
 33 34  1  0
 34 35  1  0
 35 36  1  0
 36 37  1  0
 27 38  2  0
 38 14  1  0
 20 15  1  0
 38 23  1  0
 37 31  1  0
  1 39  1  0
  1 40  1  0
  1 41  1  0
  2 42  1  0
  2 43  1  0
  3 44  1  6
  4 45  1  0
  4 46  1  0
  4 47  1  0
  5 48  1  0
  5 49  1  0
  6 50  1  0
  6 51  1  0
  8 52  1  0
  8 53  1  0
  9 54  1  0
  9 55  1  0
 11 56  1  0
 11 57  1  0
 12 58  1  0
 12 59  1  0
 13 60  1  0
 16 61  1  0
 17 62  1  0
 18 63  1  0
 19 64  1  0
 22 65  1  0
 22 66  1  0
 22 67  1  0
 24 68  1  0
 25 69  1  0
 26 70  1  0
 29 71  1  0
 29 72  1  0
 30 73  1  0
 30 74  1  0
 32 75  1  0
 32 76  1  0
 32 77  1  0
 33 78  1  0
 33 79  1  0
 34 80  1  0
 34 81  1  0
 36 82  1  0
 36 83  1  0
 37 84  1  0
 37 85  1  0
M  CHG  3   3   1  21   1  31   1
M  END
>  <UniqueID>  (22) 
21

>  <SMILES>  (22) 
CC[N@H+](C)CCOCCOCCNc1c2ccccc2[n+](C)c2cccc(OCC[N+]3(C)CCOCC3)c12

>  <Energy>  (22) 
138.04401285084106

>  <Genealogy>  (22) 
CC[NH+](C)CCOCCOCCNc1c2ccccc2[n+](C)c2cccc(OCC[N+]3(C)CCOCC3)c12 (protonated)
CC[N@H+](C)CCOCCOCCNc1c2ccccc2[n+](C)c2cccc(OCC[N+]3(C)CCOCC3)c12 (chirality)
CC[N@H+](C)CCOCCOCCNc1c2ccccc2[n+](C)c2cccc(OCC[N+]3(C)CCOCC3)c12 (3D coordinates assigned)
CC[N@H+](C)CCOCCOCCNc1c2ccccc2[n+](C)c2cccc(OCC[N+]3(C)CCOCC3)c12 (nonaromatic ring conformer: 138.04401285084106 kcal/mol)

>  <smiles>  (22) 
CCN(C)CCOCCOCCNc1c2ccccc2[n+](C)c2cccc(OCC[N+]3(C)CCOCC3)c12

>  <score_type>  (22) 
oracle

>  <origin>  (22) 
adg

>  <m_score__min__energy>  (22) 
-7.2800000000000002

>  <m_primary>  (22) 
energy

$$$$
