0:0
     RDKit          3D

 73 77  0  0  0  0  0  0  0  0999 V2000
   -8.9810   21.8980  -31.3290 C   0  0  0  0  0  0  0  0  0  0  0  0
   -9.3130   20.7540  -31.9400 C   0  0  0  0  0  0  0  0  0  0  0  0
   -8.7420   19.4340  -31.5030 C   0  0  0  0  0  0  0  0  0  0  0  0
   -7.6860   18.9660  -32.4720 C   0  0  0  0  0  0  0  0  0  0  0  0
   -7.0990   19.8680  -33.3730 C   0  0  0  0  0  0  0  0  0  0  0  0
   -6.0800   19.4400  -34.2300 C   0  0  0  0  0  0  0  0  0  0  0  0
   -5.6340   18.1180  -34.1900 C   0  0  0  0  0  0  0  0  0  0  0  0
   -6.2110   17.1990  -33.2960 C   0  0  0  0  0  0  0  0  0  0  0  0
   -5.7140   15.8470  -33.2060 N   0  0  0  0  0  0  0  0  0  0  0  0
   -6.2080   14.7870  -34.0920 C   0  0  0  0  0  0  0  0  0  0  0  0
   -5.0130   14.2150  -34.8580 C   0  0  0  0  0  0  0  0  0  0  0  0
   -3.9450   13.6740  -33.9610 N   0  0  0  0  0  0  0  0  0  0  0  0
   -2.5940   13.9860  -34.5050 C   0  0  0  0  0  0  0  0  0  0  0  0
   -2.3410   15.5010  -34.6870 C   0  0  0  0  0  0  0  0  0  0  0  0
   -1.5680   16.1550  -33.5240 C   0  0  0  0  0  0  0  0  0  0  0  0
   -1.2290   17.5700  -33.8090 N   0  0  0  0  0  0  0  0  0  0  0  0
   -1.9320   18.5690  -33.1920 C   0  0  0  0  0  0  0  0  0  0  0  0
   -2.8320   18.2850  -32.3500 O   0  0  0  0  0  0  0  0  0  0  0  0
   -1.6590   19.9130  -33.4740 C   0  0  0  0  0  0  0  0  0  0  0  0
   -2.4460   20.9710  -32.7950 C   0  0  0  0  0  0  0  0  0  0  0  0
   -3.7040   21.3440  -33.2900 C   0  0  0  0  0  0  0  0  0  0  0  0
   -4.4430   22.3450  -32.6520 C   0  0  0  0  0  0  0  0  0  0  0  0
   -3.9260   22.9900  -31.5100 C   0  0  0  0  0  0  0  0  0  0  0  0
   -4.6250   24.0010  -30.8340 O   0  0  0  0  0  0  0  0  0  0  0  0
   -6.0440   24.0520  -30.7110 C   0  0  0  0  0  0  0  0  0  0  0  0
   -2.6650   22.6170  -31.0270 C   0  0  0  0  0  0  0  0  0  0  0  0
   -1.9280   21.6160  -31.6630 C   0  0  0  0  0  0  0  0  0  0  0  0
   -0.6340   20.2150  -34.3950 C   0  0  0  0  0  0  0  0  0  0  0  0
   -0.3350   21.5530  -34.7310 C   0  0  0  0  0  0  0  0  0  0  0  0
    0.6870   21.8340  -35.6310 C   0  0  0  0  0  0  0  0  0  0  0  0
    1.4050   20.7930  -36.2000 C   0  0  0  0  0  0  0  0  0  0  0  0
    1.0880   19.4770  -35.8720 C   0  0  0  0  0  0  0  0  0  0  0  0
    0.0760   19.1900  -34.9860 N   0  0  0  0  0  0  0  0  0  0  0  0
   -0.2280   17.8800  -34.6970 C   0  0  0  0  0  0  0  0  0  0  0  0
    0.4140   16.9460  -35.2610 O   0  0  0  0  0  0  0  0  0  0  0  0
   -4.0700   14.1060  -32.5370 C   0  0  0  0  0  0  0  0  0  0  0  0
   -4.5310   15.5680  -32.3830 C   0  0  0  0  0  0  0  0  0  0  0  0
   -7.2380   17.6340  -32.4390 C   0  0  0  0  0  0  0  0  0  0  0  0
   -9.4145   22.8497  -31.6702 H   0  0  0  0  0  0  0  0  0  0  0  0
   -8.2747   21.8863  -30.4858 H   0  0  0  0  0  0  0  0  0  0  0  0
  -10.0205   20.7806  -32.7819 H   0  0  0  0  0  0  0  0  0  0  0  0
   -8.2927   19.5469  -30.5053 H   0  0  0  0  0  0  0  0  0  0  0  0
   -9.5514   18.6897  -31.4736 H   0  0  0  0  0  0  0  0  0  0  0  0
   -7.4409   20.9130  -33.4051 H   0  0  0  0  0  0  0  0  0  0  0  0
   -5.6277   20.1489  -34.9392 H   0  0  0  0  0  0  0  0  0  0  0  0
   -4.8261   17.7931  -34.8621 H   0  0  0  0  0  0  0  0  0  0  0  0
   -6.6835   13.9940  -33.4961 H   0  0  0  0  0  0  0  0  0  0  0  0
   -6.9528   15.1915  -34.7931 H   0  0  0  0  0  0  0  0  0  0  0  0
   -5.3700   13.4018  -35.5071 H   0  0  0  0  0  0  0  0  0  0  0  0
   -4.5693   15.0390  -35.4361 H   0  0  0  0  0  0  0  0  0  0  0  0
   -4.0630   12.6340  -33.9620 H   0  0  0  0  0  0  0  0  0  0  0  0
   -1.8383   13.5868  -33.8124 H   0  0  0  0  0  0  0  0  0  0  0  0
   -2.5298   13.5237  -35.5011 H   0  0  0  0  0  0  0  0  0  0  0  0
   -1.7621   15.6459  -35.6111 H   0  0  0  0  0  0  0  0  0  0  0  0
   -3.3281   15.9850  -34.7233 H   0  0  0  0  0  0  0  0  0  0  0  0
   -2.1893   16.1143  -32.6172 H   0  0  0  0  0  0  0  0  0  0  0  0
   -0.6276   15.6011  -33.3869 H   0  0  0  0  0  0  0  0  0  0  0  0
   -4.1108   20.8474  -34.1833 H   0  0  0  0  0  0  0  0  0  0  0  0
   -5.4310   22.6301  -33.0425 H   0  0  0  0  0  0  0  0  0  0  0  0
   -6.3196   24.0619  -29.6461 H   0  0  0  0  0  0  0  0  0  0  0  0
   -6.4215   24.9643  -31.1960 H   0  0  0  0  0  0  0  0  0  0  0  0
   -6.4860   23.1692  -31.1960 H   0  0  0  0  0  0  0  0  0  0  0  0
   -2.2517   23.1172  -30.1387 H   0  0  0  0  0  0  0  0  0  0  0  0
   -0.9385   21.3327  -31.2749 H   0  0  0  0  0  0  0  0  0  0  0  0
   -0.9112   22.3744  -34.2803 H   0  0  0  0  0  0  0  0  0  0  0  0
    0.9246   22.8763  -35.8902 H   0  0  0  0  0  0  0  0  0  0  0  0
    2.2207   21.0055  -36.9068 H   0  0  0  0  0  0  0  0  0  0  0  0
    1.6564   18.6536  -36.3291 H   0  0  0  0  0  0  0  0  0  0  0  0
   -4.8019   13.4544  -32.0372 H   0  0  0  0  0  0  0  0  0  0  0  0
   -3.0705   14.0296  -32.0840 H   0  0  0  0  0  0  0  0  0  0  0  0
   -4.7770   15.7562  -31.3275 H   0  0  0  0  0  0  0  0  0  0  0  0
   -3.7145   16.2251  -32.7171 H   0  0  0  0  0  0  0  0  0  0  0  0
   -7.6959   16.9237  -31.7349 H   0  0  0  0  0  0  0  0  0  0  0  0
  1  2  2  0
  2  3  1  0
  3  4  1  0
  4  5  2  0
  5  6  1  0
  6  7  2  0
  7  8  1  0
  8  9  1  0
  9 10  1  0
 10 11  1  0
 11 12  1  0
 12 13  1  0
 13 14  1  0
 14 15  1  0
 15 16  1  0
 16 17  1  0
 17 18  2  0
 17 19  1  0
 19 20  1  0
 20 21  2  0
 21 22  1  0
 22 23  2  0
 23 24  1  0
 24 25  1  0
 23 26  1  0
 26 27  2  0
 19 28  2  0
 28 29  1  0
 29 30  2  0
 30 31  1  0
 31 32  2  0
 32 33  1  0
 33 34  1  0
 34 35  2  0
 12 36  1  0
 36 37  1  0
  8 38  2  0
 38  4  1  0
 37  9  1  0
 34 16  1  0
 27 20  1  0
 33 28  1  0
  1 39  1  0
  1 40  1  0
  2 41  1  0
  3 42  1  0
  3 43  1  0
  5 44  1  0
  6 45  1  0
  7 46  1  0
 10 47  1  0
 10 48  1  0
 11 49  1  0
 11 50  1  0
 12 51  1  0
 13 52  1  0
 13 53  1  0
 14 54  1  0
 14 55  1  0
 15 56  1  0
 15 57  1  0
 21 58  1  0
 22 59  1  0
 25 60  1  0
 25 61  1  0
 25 62  1  0
 26 63  1  0
 27 64  1  0
 29 65  1  0
 30 66  1  0
 31 67  1  0
 32 68  1  0
 36 69  1  0
 36 70  1  0
 37 71  1  0
 37 72  1  0
 38 73  1  0
M  CHG  1  12   1
M  END
>  <UniqueID>  (1) 
1

>  <SMILES>  (1) 
C=CCc1cccc(N2CC[NH+](CCCn3c(=O)c(-c4ccc(OC)cc4)c4ccccn4c3=O)CC2)c1

>  <Energy>  (1) 
107.58323866214991

>  <Genealogy>  (1) 
C=CCc1cccc(N2CC[NH+](CCCn3c(=O)c(-c4ccc(OC)cc4)c4ccccn4c3=O)CC2)c1 (protonated)
C=CCc1cccc(N2CC[NH+](CCCn3c(=O)c(-c4ccc(OC)cc4)c4ccccn4c3=O)CC2)c1 (3D coordinates assigned)
C=CCc1cccc(N2CC[NH+](CCCn3c(=O)c(-c4ccc(OC)cc4)c4ccccn4c3=O)CC2)c1 (nonaromatic ring conformer: 107.58323866214991 kcal/mol)

>  <smiles>  (1) 
C=CCc1cccc(N2CCN(CCCn3c(=O)c(-c4ccc(OC)cc4)c4ccccn4c3=O)CC2)c1

>  <score_type>  (1) 
oracle

>  <origin>  (1) 
adg

>  <m_score__min__energy>  (1) 
-9.5700000000000003

>  <m_primary>  (1) 
energy

$$$$
1:0
     RDKit          3D

 44 46  0  0  0  0  0  0  0  0999 V2000
   -3.2530   22.9170  -28.2510 C   0  0  0  0  0  0  0  0  0  0  0  0
   -2.0920   22.5400  -29.0770 N   0  0  0  0  0  0  0  0  0  0  0  0
   -2.2160   23.0460  -30.4590 C   0  0  0  0  0  0  0  0  0  0  0  0
   -3.5960   23.5750  -30.7000 C   0  0  0  0  0  0  0  0  0  0  0  0
   -3.8750   24.8850  -30.4740 N   0  0  0  0  0  0  0  0  0  0  0  0
   -5.1270   25.3750  -30.6620 C   0  0  0  0  0  0  0  0  0  0  0  0
   -5.3640   26.5910  -30.4400 O   0  0  0  0  0  0  0  0  0  0  0  0
   -6.1500   24.5280  -31.0950 C   0  0  0  0  0  0  0  0  0  0  0  0
   -5.8490   23.1790  -31.3320 C   0  0  0  0  0  0  0  0  0  0  0  0
   -6.8680   22.2540  -31.7610 N   0  0  0  0  0  0  0  0  0  0  0  0
   -6.5050   21.1680  -32.6750 C   0  0  0  0  0  0  0  0  0  0  0  0
   -7.5100   20.0180  -32.5410 C   0  0  0  0  0  0  0  0  0  0  0  0
   -8.8360   20.4880  -32.6890 O   0  0  0  0  0  0  0  0  0  0  0  0
   -9.1520   21.3670  -31.6250 C   0  0  0  0  0  0  0  0  0  0  0  0
   -8.2860   22.6280  -31.6860 C   0  0  0  0  0  0  0  0  0  0  0  0
   -4.5800   22.7350  -31.1170 N   0  0  0  0  0  0  0  0  0  0  0  0
   -0.8060   22.9180  -28.4450 C   0  0  0  0  0  0  0  0  0  0  0  0
   -0.9200   24.0740  -27.4660 C   0  0  0  0  0  0  0  0  0  0  0  0
   -0.8160   23.8370  -26.0830 C   0  0  0  0  0  0  0  0  0  0  0  0
   -0.9110   24.8950  -25.1760 C   0  0  0  0  0  0  0  0  0  0  0  0
   -1.1180   26.1980  -25.6360 C   0  0  0  0  0  0  0  0  0  0  0  0
   -1.2350   26.4430  -27.0060 C   0  0  0  0  0  0  0  0  0  0  0  0
   -1.1410   25.3890  -27.9210 C   0  0  0  0  0  0  0  0  0  0  0  0
   -1.2740   25.6520  -29.2450 F   0  0  0  0  0  0  0  0  0  0  0  0
   -2.9890   22.8313  -27.1866 H   0  0  0  0  0  0  0  0  0  0  0  0
   -3.5408   23.9548  -28.4750 H   0  0  0  0  0  0  0  0  0  0  0  0
   -4.0956   22.2463  -28.4750 H   0  0  0  0  0  0  0  0  0  0  0  0
   -1.4858   23.8536  -30.6161 H   0  0  0  0  0  0  0  0  0  0  0  0
   -2.0233   22.2202  -31.1597 H   0  0  0  0  0  0  0  0  0  0  0  0
   -7.1699   24.9110  -31.2468 H   0  0  0  0  0  0  0  0  0  0  0  0
   -6.5146   21.5426  -33.7092 H   0  0  0  0  0  0  0  0  0  0  0  0
   -5.4989   20.8021  -32.4225 H   0  0  0  0  0  0  0  0  0  0  0  0
   -7.3047   19.2676  -33.3187 H   0  0  0  0  0  0  0  0  0  0  0  0
   -7.4040   19.5728  -31.5407 H   0  0  0  0  0  0  0  0  0  0  0  0
  -10.2116   21.6534  -31.6965 H   0  0  0  0  0  0  0  0  0  0  0  0
   -8.9580   20.8518  -30.6727 H   0  0  0  0  0  0  0  0  0  0  0  0
   -8.5567   23.2143  -32.5765 H   0  0  0  0  0  0  0  0  0  0  0  0
   -8.4557   23.2295  -30.7808 H   0  0  0  0  0  0  0  0  0  0  0  0
   -0.4149   22.0433  -27.9047 H   0  0  0  0  0  0  0  0  0  0  0  0
   -0.1367   23.2477  -29.2533 H   0  0  0  0  0  0  0  0  0  0  0  0
   -0.6590   22.8127  -25.7140 H   0  0  0  0  0  0  0  0  0  0  0  0
   -0.8226   24.7019  -24.0967 H   0  0  0  0  0  0  0  0  0  0  0  0
   -1.1887   27.0300  -24.9199 H   0  0  0  0  0  0  0  0  0  0  0  0
   -1.4017   27.4687  -27.3669 H   0  0  0  0  0  0  0  0  0  0  0  0
  1  2  1  0
  2  3  1  0
  3  4  1  0
  4  5  2  0
  5  6  1  0
  6  7  2  0
  6  8  1  0
  8  9  2  0
  9 10  1  0
 10 11  1  0
 11 12  1  0
 12 13  1  0
 13 14  1  0
 14 15  1  0
  9 16  1  0
  2 17  1  0
 17 18  1  0
 18 19  2  0
 19 20  1  0
 20 21  2  0
 21 22  1  0
 22 23  2  0
 23 24  1  0
 16  4  1  0
 23 18  1  0
 15 10  1  0
  1 25  1  0
  1 26  1  0
  1 27  1  0
  3 28  1  0
  3 29  1  0
  8 30  1  0
 11 31  1  0
 11 32  1  0
 12 33  1  0
 12 34  1  0
 14 35  1  0
 14 36  1  0
 15 37  1  0
 15 38  1  0
 17 39  1  0
 17 40  1  0
 19 41  1  0
 20 42  1  0
 21 43  1  0
 22 44  1  0
M  CHG  1  16  -1
M  END
>  <UniqueID>  (2) 
2

>  <SMILES>  (2) 
CN(Cc1nc(=O)cc(N2CCOCC2)[n-]1)Cc1ccccc1F

>  <Energy>  (2) 
53.215190446662284

>  <Genealogy>  (2) 
CN(Cc1nc(=O)cc(N2CCOCC2)[n-]1)Cc1ccccc1F (protonated)
CN(Cc1nc(=O)cc(N2CCOCC2)[n-]1)Cc1ccccc1F (3D coordinates assigned)
CN(Cc1nc(=O)cc(N2CCOCC2)[n-]1)Cc1ccccc1F (nonaromatic ring conformer: 53.215190446662284 kcal/mol)

>  <smiles>  (2) 
CN(Cc1nc(=O)cc(N2CCOCC2)[nH]1)Cc1ccccc1F

>  <score_type>  (2) 
oracle

>  <origin>  (2) 
adg

>  <m_score__min__energy>  (2) 
-8.5500000000000007

>  <m_primary>  (2) 
energy

$$$$
2:0
     RDKit          3D

 26 27  0  0  0  0  0  0  0  0999 V2000
   -2.6680   24.5550  -29.3240 C   0  0  0  0  0  0  0  0  0  0  0  0
   -3.4990   24.7780  -30.4580 O   0  0  0  0  0  0  0  0  0  0  0  0
   -4.5190   23.9100  -30.8790 C   0  0  0  0  0  0  0  0  0  0  0  0
   -4.2520   22.6020  -31.3200 C   0  0  0  0  0  0  0  0  0  0  0  0
   -5.2920   21.7670  -31.7310 C   0  0  0  0  0  0  0  0  0  0  0  0
   -6.6220   22.2170  -31.7120 C   0  0  0  0  0  0  0  0  0  0  0  0
   -7.6840   21.3380  -32.1400 N   0  0  0  0  0  0  0  0  0  0  0  0
   -7.6220   20.2700  -32.9590 C   0  0  0  0  0  0  0  0  0  0  0  0
   -8.8520   19.7440  -33.0840 N   0  0  0  0  0  0  0  0  0  0  0  0
   -9.6580   20.4900  -32.3450 N   0  0  0  0  0  0  0  0  0  0  0  0
   -8.9520   21.4540  -31.7750 N   0  0  0  0  0  0  0  0  0  0  0  0
   -6.8890   23.5260  -31.2690 C   0  0  0  0  0  0  0  0  0  0  0  0
   -5.8430   24.3740  -30.8530 C   0  0  0  0  0  0  0  0  0  0  0  0
   -6.0780   25.6850  -30.4070 O   0  0  0  0  0  0  0  0  0  0  0  0
   -6.4890   26.0280  -29.0880 C   0  0  0  0  0  0  0  0  0  0  0  0
   -3.2519   24.7117  -28.4050 H   0  0  0  0  0  0  0  0  0  0  0  0
   -2.2877   23.5230  -29.3453 H   0  0  0  0  0  0  0  0  0  0  0  0
   -1.8222   25.2579  -29.3453 H   0  0  0  0  0  0  0  0  0  0  0  0
   -3.2156   22.2340  -31.3413 H   0  0  0  0  0  0  0  0  0  0  0  0
   -5.0676   20.7460  -32.0733 H   0  0  0  0  0  0  0  0  0  0  0  0
   -6.7119   19.8902  -33.4463 H   0  0  0  0  0  0  0  0  0  0  0  0
   -9.1390   18.9140  -33.6470 H   0  0  0  0  0  0  0  0  0  0  0  0
   -7.9263   23.8915  -31.2472 H   0  0  0  0  0  0  0  0  0  0  0  0
   -5.8571   25.5006  -28.3582 H   0  0  0  0  0  0  0  0  0  0  0  0
   -6.3883   27.1138  -28.9433 H   0  0  0  0  0  0  0  0  0  0  0  0
   -7.5392   25.7347  -28.9433 H   0  0  0  0  0  0  0  0  0  0  0  0
  1  2  1  0
  2  3  1  0
  3  4  2  0
  4  5  1  0
  5  6  2  0
  6  7  1  0
  7  8  1  0
  8  9  2  0
  9 10  1  0
 10 11  2  0
  6 12  1  0
 12 13  2  0
 13 14  1  0
 14 15  1  0
 13  3  1  0
 11  7  1  0
  1 16  1  0
  1 17  1  0
  1 18  1  0
  4 19  1  0
  5 20  1  0
  8 21  1  0
  9 22  1  0
 12 23  1  0
 15 24  1  0
 15 25  1  0
 15 26  1  0
M  CHG  1   9   1
M  END
>  <UniqueID>  (3) 
3

>  <SMILES>  (3) 
COc1ccc(-n2c[nH+]nn2)cc1OC

>  <Energy>  (3) 
68.18198699896341

>  <Genealogy>  (3) 
COc1ccc(-n2c[nH+]nn2)cc1OC (protonated)
COc1ccc(-n2c[nH+]nn2)cc1OC (3D coordinates assigned)
COc1ccc(-n2c[nH+]nn2)cc1OC (optimized conformer: 68.18198699896341 kcal/mol)

>  <smiles>  (3) 
COc1ccc(-n2cnnn2)cc1OC

>  <score_type>  (3) 
oracle

>  <origin>  (3) 
adg

>  <m_score__min__energy>  (3) 
-5.7599999999999998

>  <m_primary>  (3) 
energy

$$$$
3:0
     RDKit          3D

 30 31  0  0  0  0  0  0  0  0999 V2000
   -1.2440   26.6640  -24.1910 C   0  0  0  0  0  0  0  0  0  0  0  0
   -0.8220   25.9140  -25.4200 C   0  0  0  0  0  0  0  0  0  0  0  0
    0.2970   25.0690  -25.3820 C   0  0  0  0  0  0  0  0  0  0  0  0
    0.6790   24.3580  -26.5210 C   0  0  0  0  0  0  0  0  0  0  0  0
   -0.0640   24.4660  -27.7000 C   0  0  0  0  0  0  0  0  0  0  0  0
    0.3220   23.7640  -28.7950 F   0  0  0  0  0  0  0  0  0  0  0  0
   -1.2120   25.2750  -27.7440 C   0  0  0  0  0  0  0  0  0  0  0  0
   -1.9570   25.3870  -28.9680 N   0  0  0  0  0  0  0  0  0  0  0  0
   -3.0830   24.5630  -29.3030 C   0  0  0  0  0  0  0  0  0  0  0  0
   -3.3830   23.5700  -28.5870 O   0  0  0  0  0  0  0  0  0  0  0  0
   -3.8690   24.8940  -30.4550 N   0  0  0  0  0  0  0  0  0  0  0  0
   -4.9890   24.1560  -30.9670 C   0  0  0  0  0  0  0  0  0  0  0  0
   -6.3180   24.5650  -30.7460 C   0  0  0  0  0  0  0  0  0  0  0  0
   -7.3800   23.8040  -31.2440 C   0  0  0  0  0  0  0  0  0  0  0  0
   -7.1270   22.6260  -31.9540 C   0  0  0  0  0  0  0  0  0  0  0  0
   -5.8110   22.2040  -32.1570 C   0  0  0  0  0  0  0  0  0  0  0  0
   -4.7470   22.9620  -31.6590 C   0  0  0  0  0  0  0  0  0  0  0  0
   -1.5780   26.0080  -26.5990 C   0  0  0  0  0  0  0  0  0  0  0  0
   -0.9305   26.1069  -23.2958 H   0  0  0  0  0  0  0  0  0  0  0  0
   -0.7727   27.6579  -24.1881 H   0  0  0  0  0  0  0  0  0  0  0  0
   -2.3382   26.7771  -24.1881 H   0  0  0  0  0  0  0  0  0  0  0  0
    0.8752   24.9663  -24.4519 H   0  0  0  0  0  0  0  0  0  0  0  0
    1.5678   23.7105  -26.4906 H   0  0  0  0  0  0  0  0  0  0  0  0
   -1.6100   26.0460  -29.7020 H   0  0  0  0  0  0  0  0  0  0  0  0
   -6.5214   25.4859  -30.1799 H   0  0  0  0  0  0  0  0  0  0  0  0
   -8.4164   24.1325  -31.0770 H   0  0  0  0  0  0  0  0  0  0  0  0
   -7.9633   22.0325  -32.3521 H   0  0  0  0  0  0  0  0  0  0  0  0
   -5.6115   21.2740  -32.7095 H   0  0  0  0  0  0  0  0  0  0  0  0
   -3.7131   22.6187  -31.8115 H   0  0  0  0  0  0  0  0  0  0  0  0
   -2.4637   26.6597  -26.6286 H   0  0  0  0  0  0  0  0  0  0  0  0
  1  2  1  0
  2  3  2  0
  3  4  1  0
  4  5  2  0
  5  6  1  0
  5  7  1  0
  7  8  1  0
  8  9  1  0
  9 10  2  0
  9 11  1  0
 11 12  1  0
 12 13  2  0
 13 14  1  0
 14 15  2  0
 15 16  1  0
 16 17  2  0
  7 18  2  0
 18  2  1  0
 17 12  1  0
  1 19  1  0
  1 20  1  0
  1 21  1  0
  3 22  1  0
  4 23  1  0
  8 24  1  0
 13 25  1  0
 14 26  1  0
 15 27  1  0
 16 28  1  0
 17 29  1  0
 18 30  1  0
M  CHG  1  11  -1
M  END
>  <UniqueID>  (4) 
4

>  <SMILES>  (4) 
Cc1ccc(F)c(NC(=O)[N-]c2ccccc2)c1

>  <Energy>  (4) 
36.88650744351684

>  <Genealogy>  (4) 
Cc1ccc(F)c(NC(=O)[N-]c2ccccc2)c1 (protonated)
Cc1ccc(F)c(NC(=O)[N-]c2ccccc2)c1 (3D coordinates assigned)
Cc1ccc(F)c(NC(=O)[N-]c2ccccc2)c1 (optimized conformer: 36.88650744351684 kcal/mol)

>  <smiles>  (4) 
Cc1ccc(F)c(NC(=O)Nc2ccccc2)c1

>  <score_type>  (4) 
oracle

>  <origin>  (4) 
adg

>  <m_score__min__energy>  (4) 
-8.3599999999999994

>  <m_primary>  (4) 
energy

$$$$
4:0
     RDKit          3D

 34 35  0  0  0  0  0  0  0  0999 V2000
   -8.3180   23.0410  -32.0070 C   0  0  0  0  0  0  0  0  0  0  0  0
   -8.5950   21.6530  -31.4270 C   0  0  0  0  0  0  0  0  0  0  0  0
   -7.4800   20.7120  -31.6860 N   0  0  0  0  0  0  0  0  0  0  0  0
   -7.8470   19.2770  -31.5960 C   0  0  0  0  0  0  0  0  0  0  0  0
   -9.1340   18.9150  -32.3490 C   0  0  0  0  0  0  0  0  0  0  0  0
   -6.7510   21.0400  -32.9340 C   0  0  0  0  0  0  0  0  0  0  0  0
   -5.4190   20.2900  -32.9830 C   0  0  0  0  0  0  0  0  0  0  0  0
   -4.7430   20.3620  -31.7270 O   0  0  0  0  0  0  0  0  0  0  0  0
   -4.3030   21.5570  -31.1460 C   0  0  0  0  0  0  0  0  0  0  0  0
   -2.9880   21.7200  -30.7970 N   0  0  0  0  0  0  0  0  0  0  0  0
   -2.6140   22.8880  -30.2250 C   0  0  0  0  0  0  0  0  0  0  0  0
   -1.3840   23.2170  -29.8080 N   0  0  0  0  0  0  0  0  0  0  0  0
   -1.5930   24.4690  -29.3190 C   0  0  0  0  0  0  0  0  0  0  0  0
   -0.6670   25.1560  -28.8160 O   0  0  0  0  0  0  0  0  0  0  0  0
   -2.8710   24.9250  -29.4080 N   0  0  0  0  0  0  0  0  0  0  0  0
   -3.4900   23.8890  -29.9900 C   0  0  0  0  0  0  0  0  0  0  0  0
   -4.8240   23.7450  -30.3410 C   0  0  0  0  0  0  0  0  0  0  0  0
   -6.0960   25.1360  -30.0210 Br  0  0  0  0  0  0  0  0  0  0  0  0
   -5.2050   22.5680  -30.9230 N   0  0  0  0  0  0  0  0  0  0  0  0
   -8.1746   23.7594  -31.1864 H   0  0  0  0  0  0  0  0  0  0  0  0
   -7.4093   23.0051  -32.6259 H   0  0  0  0  0  0  0  0  0  0  0  0
   -9.1709   23.3567  -32.6259 H   0  0  0  0  0  0  0  0  0  0  0  0
   -8.7380   21.7441  -30.3401 H   0  0  0  0  0  0  0  0  0  0  0  0
   -9.4970   21.2543  -31.9143 H   0  0  0  0  0  0  0  0  0  0  0  0
   -7.0220   18.6818  -32.0145 H   0  0  0  0  0  0  0  0  0  0  0  0
   -8.0279   19.0602  -30.5329 H   0  0  0  0  0  0  0  0  0  0  0  0
   -9.9315   18.6907  -31.6253 H   0  0  0  0  0  0  0  0  0  0  0  0
   -9.4398   19.7620  -32.9808 H   0  0  0  0  0  0  0  0  0  0  0  0
   -8.9534   18.0328  -32.9808 H   0  0  0  0  0  0  0  0  0  0  0  0
   -7.3638   20.7483  -33.7996 H   0  0  0  0  0  0  0  0  0  0  0  0
   -6.5538   22.1219  -32.9595 H   0  0  0  0  0  0  0  0  0  0  0  0
   -5.6094   19.2348  -33.2287 H   0  0  0  0  0  0  0  0  0  0  0  0
   -4.7830   20.7563  -33.7498 H   0  0  0  0  0  0  0  0  0  0  0  0
   -6.2050   22.4300  -31.1940 H   0  0  0  0  0  0  0  0  0  0  0  0
  1  2  1  0
  2  3  1  0
  3  4  1  0
  4  5  1  0
  3  6  1  0
  6  7  1  0
  7  8  1  0
  8  9  1  0
  9 10  2  0
 10 11  1  0
 11 12  1  0
 12 13  1  0
 13 14  2  0
 13 15  1  0
 15 16  1  0
 16 17  1  0
 17 18  1  0
 17 19  2  0
 19  9  1  0
 16 11  2  0
  1 20  1  0
  1 21  1  0
  1 22  1  0
  2 23  1  0
  2 24  1  0
  4 25  1  0
  4 26  1  0
  5 27  1  0
  5 28  1  0
  5 29  1  0
  6 30  1  0
  6 31  1  0
  7 32  1  0
  7 33  1  0
 19 34  1  0
M  CHG  3  12  -1  15  -1  19   1
M  END
>  <UniqueID>  (5) 
5

>  <SMILES>  (5) 
CCN(CC)CCOc1nc2[n-]c(=O)[n-]c2c(Br)[nH+]1

>  <Energy>  (5) 
70.46089843879656

>  <Genealogy>  (5) 
CCN(CC)CCOc1nc2[n-]c(=O)[n-]c2c(Br)[nH+]1 (protonated)
CCN(CC)CCOc1nc2[n-]c(=O)[n-]c2c(Br)[nH+]1 (3D coordinates assigned)
CCN(CC)CCOc1nc2[n-]c(=O)[n-]c2c(Br)[nH+]1 (optimized conformer: 70.46089843879656 kcal/mol)

>  <smiles>  (5) 
CCN(CC)CCOc1nc(Br)c2[nH]c(=O)[nH]c2n1

>  <score_type>  (5) 
oracle

>  <origin>  (5) 
adg

>  <m_score__min__energy>  (5) 
-7.2599999999999998

>  <m_primary>  (5) 
energy

$$$$
5:0
     RDKit          3D

 40 42  0  0  0  0  0  0  0  0999 V2000
   -1.9890   25.0370  -28.1910 C   0  0  0  0  0  0  0  0  0  0  0  0
   -2.7710   25.2990  -29.3520 O   0  0  0  0  0  0  0  0  0  0  0  0
   -3.4600   24.3170  -30.0810 C   0  0  0  0  0  0  0  0  0  0  0  0
   -4.7950   24.4820  -30.4960 C   0  0  0  0  0  0  0  0  0  0  0  0
   -5.4370   23.4740  -31.2220 C   0  0  0  0  0  0  0  0  0  0  0  0
   -4.7600   22.2880  -31.5440 C   0  0  0  0  0  0  0  0  0  0  0  0
   -5.4430   21.2290  -32.3110 C   0  0  0  0  0  0  0  0  0  0  0  0
   -6.5770   21.4080  -33.0190 N   0  0  0  0  0  0  0  0  0  0  0  0
   -6.8560   20.2290  -33.5490 N   0  0  0  0  0  0  0  0  0  0  0  0
   -5.8970   19.3680  -33.1550 C   0  0  0  0  0  0  0  0  0  0  0  0
   -5.8150   17.9350  -33.5170 C   0  0  0  0  0  0  0  0  0  0  0  0
   -4.5780   17.3840  -33.8860 C   0  0  0  0  0  0  0  0  0  0  0  0
   -4.4730   16.0350  -34.2320 C   0  0  0  0  0  0  0  0  0  0  0  0
   -5.6050   15.1960  -34.2200 C   0  0  0  0  0  0  0  0  0  0  0  0
   -5.4970   13.7920  -34.5790 N   0  0  0  0  0  0  0  0  0  0  0  0
   -4.1930   13.2050  -34.9140 C   0  0  0  0  0  0  0  0  0  0  0  0
   -6.6890   12.9360  -34.6110 C   0  0  0  0  0  0  0  0  0  0  0  0
   -6.8450   15.7550  -33.8480 C   0  0  0  0  0  0  0  0  0  0  0  0
   -6.9470   17.1050  -33.5020 C   0  0  0  0  0  0  0  0  0  0  0  0
   -5.0240   19.9840  -32.3910 O   0  0  0  0  0  0  0  0  0  0  0  0
   -3.4270   22.1260  -31.1300 C   0  0  0  0  0  0  0  0  0  0  0  0
   -2.7870   23.1350  -30.4040 C   0  0  0  0  0  0  0  0  0  0  0  0
   -2.5893   25.2381  -27.2915 H   0  0  0  0  0  0  0  0  0  0  0  0
   -1.6721   23.9836  -28.1924 H   0  0  0  0  0  0  0  0  0  0  0  0
   -1.1015   25.6869  -28.1924 H   0  0  0  0  0  0  0  0  0  0  0  0
   -5.3353   25.4076  -30.2482 H   0  0  0  0  0  0  0  0  0  0  0  0
   -6.4801   23.6118  -31.5429 H   0  0  0  0  0  0  0  0  0  0  0  0
   -7.6820   20.0440  -34.1570 H   0  0  0  0  0  0  0  0  0  0  0  0
   -3.6817   18.0214  -33.9029 H   0  0  0  0  0  0  0  0  0  0  0  0
   -3.4942   15.6222  -34.5175 H   0  0  0  0  0  0  0  0  0  0  0  0
   -3.6518   12.9614  -33.9879 H   0  0  0  0  0  0  0  0  0  0  0  0
   -4.3440   12.2880  -35.5025 H   0  0  0  0  0  0  0  0  0  0  0  0
   -3.6066   13.9260  -35.5025 H   0  0  0  0  0  0  0  0  0  0  0  0
   -7.0051   12.7090  -33.5821 H   0  0  0  0  0  0  0  0  0  0  0  0
   -7.5015   13.4583  -35.1374 H   0  0  0  0  0  0  0  0  0  0  0  0
   -6.4537   11.9992  -35.1374 H   0  0  0  0  0  0  0  0  0  0  0  0
   -7.7433   15.1204  -33.8300 H   0  0  0  0  0  0  0  0  0  0  0  0
   -7.9239   17.5214  -33.2151 H   0  0  0  0  0  0  0  0  0  0  0  0
   -2.8848   21.2016  -31.3781 H   0  0  0  0  0  0  0  0  0  0  0  0
   -1.7437   22.9974  -30.0838 H   0  0  0  0  0  0  0  0  0  0  0  0
  1  2  1  0
  2  3  1  0
  3  4  2  0
  4  5  1  0
  5  6  2  0
  6  7  1  0
  7  8  2  0
  8  9  1  0
  9 10  2  0
 10 11  1  0
 11 12  2  0
 12 13  1  0
 13 14  2  0
 14 15  1  0
 15 16  1  0
 15 17  1  0
 14 18  1  0
 18 19  2  0
 10 20  1  0
  6 21  1  0
 21 22  2  0
 22  3  1  0
 20  7  1  0
 19 11  1  0
  1 23  1  0
  1 24  1  0
  1 25  1  0
  4 26  1  0
  5 27  1  0
  9 28  1  0
 12 29  1  0
 13 30  1  0
 16 31  1  0
 16 32  1  0
 16 33  1  0
 17 34  1  0
 17 35  1  0
 17 36  1  0
 18 37  1  0
 19 38  1  0
 21 39  1  0
 22 40  1  0
M  CHG  1   9   1
M  END
>  <UniqueID>  (6) 
6

>  <SMILES>  (6) 
COc1ccc(-c2n[nH+]c(-c3ccc(N(C)C)cc3)o2)cc1

>  <Energy>  (6) 
79.4106186455686

>  <Genealogy>  (6) 
COc1ccc(-c2n[nH+]c(-c3ccc(N(C)C)cc3)o2)cc1 (protonated)
COc1ccc(-c2n[nH+]c(-c3ccc(N(C)C)cc3)o2)cc1 (3D coordinates assigned)
COc1ccc(-c2n[nH+]c(-c3ccc(N(C)C)cc3)o2)cc1 (optimized conformer: 79.4106186455686 kcal/mol)

>  <smiles>  (6) 
COc1ccc(-c2nnc(-c3ccc(N(C)C)cc3)o2)cc1

>  <score_type>  (6) 
oracle

>  <origin>  (6) 
adg

>  <m_score__min__energy>  (6) 
-6.6500000000000004

>  <m_primary>  (6) 
energy

$$$$
6:0
     RDKit          3D

 44 46  0  0  0  0  0  0  0  0999 V2000
   -5.7440   18.3710  -34.3760 C   0  0  0  0  0  0  0  0  0  0  0  0
   -5.7170   18.6350  -32.8770 C   0  0  0  0  0  0  0  0  0  0  0  0
   -6.4230   19.8780  -32.5670 N   0  0  0  0  0  0  0  0  0  0  0  0
   -7.6920   19.9100  -32.1870 N   0  0  0  0  0  0  0  0  0  0  0  0
   -8.0280   21.1990  -31.9770 C   0  0  0  0  0  0  0  0  0  0  0  0
   -9.3990   21.6470  -31.5900 C   0  0  0  0  0  0  0  0  0  0  0  0
   -6.9420   22.0120  -32.2490 C   0  0  0  0  0  0  0  0  0  0  0  0
   -6.8640   23.5080  -32.1250 C   0  0  0  0  0  0  0  0  0  0  0  0
   -6.5170   23.9080  -30.6920 C   0  0  0  0  0  0  0  0  0  0  0  0
   -5.0510   24.1880  -30.5620 C   0  0  0  0  0  0  0  0  0  0  0  0
   -4.5920   25.2840  -30.9850 O   0  0  0  0  0  0  0  0  0  0  0  0
   -4.1730   23.1770  -30.0370 N   0  0  0  0  0  0  0  0  0  0  0  0
   -2.8210   23.4190  -29.6080 C   0  0  0  0  0  0  0  0  0  0  0  0
   -1.8080   22.4910  -29.9670 C   0  0  0  0  0  0  0  0  0  0  0  0
   -0.4810   22.6740  -29.5360 C   0  0  0  0  0  0  0  0  0  0  0  0
   -0.2030   23.7860  -28.7450 C   0  0  0  0  0  0  0  0  0  0  0  0
   -1.1650   24.6710  -28.3830 C   0  0  0  0  0  0  0  0  0  0  0  0
   -2.4900   24.5250  -28.7810 C   0  0  0  0  0  0  0  0  0  0  0  0
   -0.6090   25.6590  -27.5950 O   0  0  0  0  0  0  0  0  0  0  0  0
    0.7920   25.3810  -27.4620 C   0  0  0  0  0  0  0  0  0  0  0  0
    1.0080   24.1730  -28.2050 O   0  0  0  0  0  0  0  0  0  0  0  0
   -5.9230   21.1340  -32.5870 C   0  0  0  0  0  0  0  0  0  0  0  0
   -4.5400   21.5090  -33.0310 C   0  0  0  0  0  0  0  0  0  0  0  0
   -5.8544   17.2915  -34.5563 H   0  0  0  0  0  0  0  0  0  0  0  0
   -6.5920   18.9067  -34.8274 H   0  0  0  0  0  0  0  0  0  0  0  0
   -4.8051   18.7240  -34.8274 H   0  0  0  0  0  0  0  0  0  0  0  0
   -6.2051   17.8002  -32.3528 H   0  0  0  0  0  0  0  0  0  0  0  0
   -4.6711   18.7265  -32.5489 H   0  0  0  0  0  0  0  0  0  0  0  0
   -9.4802   21.6735  -30.4933 H   0  0  0  0  0  0  0  0  0  0  0  0
   -9.5844   22.6525  -31.9958 H   0  0  0  0  0  0  0  0  0  0  0  0
  -10.1423   20.9450  -31.9958 H   0  0  0  0  0  0  0  0  0  0  0  0
   -6.0873   23.8877  -32.8051 H   0  0  0  0  0  0  0  0  0  0  0  0
   -7.8415   23.9385  -32.3881 H   0  0  0  0  0  0  0  0  0  0  0  0
   -7.0828   24.8119  -30.4221 H   0  0  0  0  0  0  0  0  0  0  0  0
   -6.7802   23.0786  -30.0191 H   0  0  0  0  0  0  0  0  0  0  0  0
   -4.5310   22.1990  -30.0000 H   0  0  0  0  0  0  0  0  0  0  0  0
   -2.0632   21.6200  -30.5885 H   0  0  0  0  0  0  0  0  0  0  0  0
    0.3103   21.9625  -29.8146 H   0  0  0  0  0  0  0  0  0  0  0  0
   -3.2588   25.2452  -28.4644 H   0  0  0  0  0  0  0  0  0  0  0  0
    1.3900   26.2037  -27.8810 H   0  0  0  0  0  0  0  0  0  0  0  0
    1.0920   25.2752  -26.4090 H   0  0  0  0  0  0  0  0  0  0  0  0
   -3.9057   21.6810  -32.1489 H   0  0  0  0  0  0  0  0  0  0  0  0
   -4.1150   20.6937  -33.6348 H   0  0  0  0  0  0  0  0  0  0  0  0
   -4.5851   22.4273  -33.6348 H   0  0  0  0  0  0  0  0  0  0  0  0
  1  2  1  0
  2  3  1  0
  3  4  1  0
  4  5  2  0
  5  6  1  0
  5  7  1  0
  7  8  1  0
  8  9  1  0
  9 10  1  0
 10 11  2  0
 10 12  1  0
 12 13  1  0
 13 14  2  0
 14 15  1  0
 15 16  2  0
 16 17  1  0
 17 18  2  0
 17 19  1  0
 19 20  1  0
 20 21  1  0
  7 22  2  0
 22 23  1  0
 22  3  1  0
 18 13  1  0
 21 16  1  0
  1 24  1  0
  1 25  1  0
  1 26  1  0
  2 27  1  0
  2 28  1  0
  6 29  1  0
  6 30  1  0
  6 31  1  0
  8 32  1  0
  8 33  1  0
  9 34  1  0
  9 35  1  0
 12 36  1  0
 14 37  1  0
 15 38  1  0
 18 39  1  0
 20 40  1  0
 20 41  1  0
 23 42  1  0
 23 43  1  0
 23 44  1  0
M  END
>  <UniqueID>  (7) 
7

>  <SMILES>  (7) 
CCn1nc(C)c(CCC(=O)Nc2ccc3c(c2)OCO3)c1C

>  <Energy>  (7) 
96.44323113735591

>  <Genealogy>  (7) 
CCn1nc(C)c(CCC(=O)Nc2ccc3c(c2)OCO3)c1C (3D coordinates assigned)
CCn1nc(C)c(CCC(=O)Nc2ccc3c(c2)OCO3)c1C (nonaromatic ring conformer: 96.44323113735591 kcal/mol)

>  <smiles>  (7) 
CCn1nc(C)c(CCC(=O)Nc2ccc3c(c2)OCO3)c1C

>  <score_type>  (7) 
oracle

>  <origin>  (7) 
adg

>  <m_score__min__energy>  (7) 
-8.5600000000000005

>  <m_primary>  (7) 
energy

$$$$
7:0
     RDKit          3D

 43 45  0  0  0  0  0  0  0  0999 V2000
   -9.0850   23.4050  -32.1220 C   0  0  0  0  0  0  0  0  0  0  0  0
   -8.2600   22.3880  -31.4610 N   0  0  0  0  0  0  0  0  0  0  0  0
   -7.6360   22.6890  -30.1620 C   0  0  0  0  0  0  0  0  0  0  0  0
   -6.3900   23.5210  -30.3360 C   0  0  0  0  0  0  0  0  0  0  0  0
   -6.4570   24.9220  -30.2730 C   0  0  0  0  0  0  0  0  0  0  0  0
   -5.2980   25.6770  -30.4620 C   0  0  0  0  0  0  0  0  0  0  0  0
   -4.1150   25.0600  -30.7200 N   0  0  0  0  0  0  0  0  0  0  0  0
   -4.0230   23.7060  -30.8050 C   0  0  0  0  0  0  0  0  0  0  0  0
   -5.1580   22.9120  -30.6220 C   0  0  0  0  0  0  0  0  0  0  0  0
   -8.1330   21.0870  -32.0790 C   0  0  0  0  0  0  0  0  0  0  0  0
   -9.1050   20.2830  -32.0350 O   0  0  0  0  0  0  0  0  0  0  0  0
   -6.9290   20.7020  -32.7660 N   0  0  0  0  0  0  0  0  0  0  0  0
   -6.5810   19.3380  -33.0610 C   0  0  0  0  0  0  0  0  0  0  0  0
   -6.0910   18.9620  -34.3240 C   0  0  0  0  0  0  0  0  0  0  0  0
   -5.7830   17.6250  -34.5940 C   0  0  0  0  0  0  0  0  0  0  0  0
   -5.9700   16.6360  -33.6120 C   0  0  0  0  0  0  0  0  0  0  0  0
   -5.6430   15.2160  -33.8980 C   0  0  0  0  0  0  0  0  0  0  0  0
   -4.3130   14.7590  -33.8200 C   0  0  0  0  0  0  0  0  0  0  0  0
   -4.0060   13.4220  -34.0900 C   0  0  0  0  0  0  0  0  0  0  0  0
   -5.0200   12.5270  -34.4400 C   0  0  0  0  0  0  0  0  0  0  0  0
   -6.3430   12.9670  -34.5210 C   0  0  0  0  0  0  0  0  0  0  0  0
   -6.6550   14.3030  -34.2530 C   0  0  0  0  0  0  0  0  0  0  0  0
   -6.4800   17.0130  -32.3570 C   0  0  0  0  0  0  0  0  0  0  0  0
   -6.7890   18.3490  -32.0890 C   0  0  0  0  0  0  0  0  0  0  0  0
   -9.5856   24.0221  -31.3614 H   0  0  0  0  0  0  0  0  0  0  0  0
   -8.4465   24.0436  -32.7501 H   0  0  0  0  0  0  0  0  0  0  0  0
   -9.8415   22.9119  -32.7501 H   0  0  0  0  0  0  0  0  0  0  0  0
   -8.3535   23.2431  -29.5389 H   0  0  0  0  0  0  0  0  0  0  0  0
   -7.3571   21.7399  -29.6809 H   0  0  0  0  0  0  0  0  0  0  0  0
   -7.4169   25.4217  -30.0759 H   0  0  0  0  0  0  0  0  0  0  0  0
   -5.3425   26.7745  -30.4019 H   0  0  0  0  0  0  0  0  0  0  0  0
   -3.0524   23.2345  -31.0184 H   0  0  0  0  0  0  0  0  0  0  0  0
   -5.0867   21.8172  -30.7015 H   0  0  0  0  0  0  0  0  0  0  0  0
   -6.3220   21.4470  -33.1680 H   0  0  0  0  0  0  0  0  0  0  0  0
   -5.9491   19.7241  -35.1044 H   0  0  0  0  0  0  0  0  0  0  0  0
   -5.3912   17.3445  -35.5828 H   0  0  0  0  0  0  0  0  0  0  0  0
   -3.5103   15.4589  -33.5447 H   0  0  0  0  0  0  0  0  0  0  0  0
   -2.9643   13.0742  -34.0267 H   0  0  0  0  0  0  0  0  0  0  0  0
   -4.7763   11.4755  -34.6518 H   0  0  0  0  0  0  0  0  0  0  0  0
   -7.1406   12.2612  -34.7961 H   0  0  0  0  0  0  0  0  0  0  0  0
   -7.6987   14.6438  -34.3199 H   0  0  0  0  0  0  0  0  0  0  0  0
   -6.6369   16.2502  -31.5802 H   0  0  0  0  0  0  0  0  0  0  0  0
   -7.1990   18.6274  -31.1070 H   0  0  0  0  0  0  0  0  0  0  0  0
  1  2  1  0
  2  3  1  0
  3  4  1  0
  4  5  2  0
  5  6  1  0
  6  7  2  0
  7  8  1  0
  8  9  2  0
  2 10  1  0
 10 11  2  0
 10 12  1  0
 12 13  1  0
 13 14  2  0
 14 15  1  0
 15 16  2  0
 16 17  1  0
 17 18  2  0
 18 19  1  0
 19 20  2  0
 20 21  1  0
 21 22  2  0
 16 23  1  0
 23 24  2  0
  9  4  1  0
 24 13  1  0
 22 17  1  0
  1 25  1  0
  1 26  1  0
  1 27  1  0
  3 28  1  0
  3 29  1  0
  5 30  1  0
  6 31  1  0
  8 32  1  0
  9 33  1  0
 12 34  1  0
 14 35  1  0
 15 36  1  0
 18 37  1  0
 19 38  1  0
 20 39  1  0
 21 40  1  0
 22 41  1  0
 23 42  1  0
 24 43  1  0
M  END
>  <UniqueID>  (8) 
8

>  <SMILES>  (8) 
CN(Cc1ccncc1)C(=O)Nc1ccc(-c2ccccc2)cc1

>  <Energy>  (8) 
53.57827599057033

>  <Genealogy>  (8) 
CN(Cc1ccncc1)C(=O)Nc1ccc(-c2ccccc2)cc1 (3D coordinates assigned)
CN(Cc1ccncc1)C(=O)Nc1ccc(-c2ccccc2)cc1 (optimized conformer: 53.57827599057033 kcal/mol)

>  <smiles>  (8) 
CN(Cc1ccncc1)C(=O)Nc1ccc(-c2ccccc2)cc1

>  <score_type>  (8) 
oracle

>  <origin>  (8) 
adg

>  <m_score__min__energy>  (8) 
-8.3100000000000005

>  <m_primary>  (8) 
energy

$$$$
8:0
     RDKit          3D

 37 40  0  0  0  0  0  0  0  0999 V2000
   -1.9860   20.4350  -27.0910 C   0  0  0  0  0  0  0  0  0  0  0  0
   -1.5590   21.0680  -28.2930 O   0  0  0  0  0  0  0  0  0  0  0  0
   -1.4940   22.4600  -28.4870 C   0  0  0  0  0  0  0  0  0  0  0  0
   -0.3810   23.2040  -28.0470 C   0  0  0  0  0  0  0  0  0  0  0  0
   -0.3230   24.5840  -28.2450 C   0  0  0  0  0  0  0  0  0  0  0  0
   -1.3690   25.2460  -28.8840 C   0  0  0  0  0  0  0  0  0  0  0  0
   -2.4840   24.5340  -29.3320 C   0  0  0  0  0  0  0  0  0  0  0  0
   -3.4680   25.1890  -29.9370 O   0  0  0  0  0  0  0  0  0  0  0  0
   -4.5580   24.5890  -30.3930 C   0  0  0  0  0  0  0  0  0  0  0  0
   -4.7290   23.2040  -30.2560 C   0  0  0  0  0  0  0  0  0  0  0  0
   -5.9560   22.5570  -30.7840 C   0  0  0  0  0  0  0  0  0  0  0  0
   -7.1570   23.2810  -30.8640 C   0  0  0  0  0  0  0  0  0  0  0  0
   -8.3170   22.6830  -31.3640 C   0  0  0  0  0  0  0  0  0  0  0  0
   -8.2920   21.3500  -31.8000 C   0  0  0  0  0  0  0  0  0  0  0  0
   -9.4500   20.7410  -32.3060 C   0  0  0  0  0  0  0  0  0  0  0  0
   -9.4120   19.4130  -32.7400 C   0  0  0  0  0  0  0  0  0  0  0  0
   -8.2200   18.6860  -32.6740 C   0  0  0  0  0  0  0  0  0  0  0  0
   -7.0590   19.2810  -32.1730 C   0  0  0  0  0  0  0  0  0  0  0  0
   -7.0850   20.6140  -31.7320 C   0  0  0  0  0  0  0  0  0  0  0  0
   -5.9260   21.2230  -31.2270 C   0  0  0  0  0  0  0  0  0  0  0  0
   -3.7170   22.4680  -29.6110 C   0  0  0  0  0  0  0  0  0  0  0  0
   -3.8620   21.2260  -29.4400 O   0  0  0  0  0  0  0  0  0  0  0  0
   -2.5610   23.1310  -29.1400 C   0  0  0  0  0  0  0  0  0  0  0  0
   -1.6064   20.9977  -26.2254 H   0  0  0  0  0  0  0  0  0  0  0  0
   -3.0853   20.4114  -27.0595 H   0  0  0  0  0  0  0  0  0  0  0  0
   -1.5961   19.4069  -27.0595 H   0  0  0  0  0  0  0  0  0  0  0  0
    0.4510   22.6913  -27.5420 H   0  0  0  0  0  0  0  0  0  0  0  0
    0.5520   25.1514  -27.8952 H   0  0  0  0  0  0  0  0  0  0  0  0
   -1.3166   26.3341  -29.0364 H   0  0  0  0  0  0  0  0  0  0  0  0
   -5.3396   25.1858  -30.8859 H   0  0  0  0  0  0  0  0  0  0  0  0
   -7.1848   24.3287  -30.5299 H   0  0  0  0  0  0  0  0  0  0  0  0
   -9.2525   23.2594  -31.4158 H   0  0  0  0  0  0  0  0  0  0  0  0
  -10.3899   21.3098  -32.3613 H   0  0  0  0  0  0  0  0  0  0  0  0
  -10.3226   18.9386  -33.1346 H   0  0  0  0  0  0  0  0  0  0  0  0
   -8.1957   17.6414  -33.0178 H   0  0  0  0  0  0  0  0  0  0  0  0
   -6.1235   18.7044  -32.1240 H   0  0  0  0  0  0  0  0  0  0  0  0
   -4.9869   20.6524  -31.1774 H   0  0  0  0  0  0  0  0  0  0  0  0
  1  2  1  0
  2  3  1  0
  3  4  2  0
  4  5  1  0
  5  6  2  0
  6  7  1  0
  7  8  1  0
  8  9  1  0
  9 10  2  0
 10 11  1  0
 11 12  2  0
 12 13  1  0
 13 14  2  0
 14 15  1  0
 15 16  2  0
 16 17  1  0
 17 18  2  0
 18 19  1  0
 19 20  2  0
 10 21  1  0
 21 22  2  0
 21 23  1  0
 23  3  1  0
 23  7  2  0
 20 11  1  0
 19 14  1  0
  1 24  1  0
  1 25  1  0
  1 26  1  0
  4 27  1  0
  5 28  1  0
  6 29  1  0
  9 30  1  0
 12 31  1  0
 13 32  1  0
 15 33  1  0
 16 34  1  0
 17 35  1  0
 18 36  1  0
 20 37  1  0
M  END
>  <UniqueID>  (9) 
9

>  <SMILES>  (9) 
COc1cccc2occ(-c3ccc4ccccc4c3)c(=O)c12

>  <Energy>  (9) 
58.34716432697659

>  <Genealogy>  (9) 
COc1cccc2occ(-c3ccc4ccccc4c3)c(=O)c12 (3D coordinates assigned)
COc1cccc2occ(-c3ccc4ccccc4c3)c(=O)c12 (optimized conformer: 58.34716432697659 kcal/mol)

>  <smiles>  (9) 
COc1cccc2occ(-c3ccc4ccccc4c3)c(=O)c12

>  <score_type>  (9) 
oracle

>  <origin>  (9) 
adg

>  <m_score__min__energy>  (9) 
-8.1799999999999997

>  <m_primary>  (9) 
energy

$$$$
9:0
     RDKit          3D

 36 37  0  0  0  0  0  0  0  0999 V2000
   -9.6490   19.0650  -33.8690 H   0  0  0  0  0  0  0  0  0  0  0  0
   -9.3410   19.2140  -32.9140 O   0  0  0  0  0  0  0  0  0  0  0  0
   -8.6030   20.3390  -32.5540 C   0  0  0  0  0  0  0  0  0  0  0  0
   -9.2250   21.4340  -31.9470 C   0  0  0  0  0  0  0  0  0  0  0  0
  -10.3071   21.4103  -31.7509 H   0  0  0  0  0  0  0  0  0  0  0  0
   -8.4780   22.5570  -31.5890 C   0  0  0  0  0  0  0  0  0  0  0  0
   -8.9758   23.4140  -31.1117 H   0  0  0  0  0  0  0  0  0  0  0  0
   -7.0910   22.6020  -31.8340 C   0  0  0  0  0  0  0  0  0  0  0  0
   -6.3170   23.7220  -31.4810 O   0  0  0  0  0  0  0  0  0  0  0  0
   -6.6410   24.6320  -30.4350 C   0  0  0  0  0  0  0  0  0  0  0  0
   -6.4689   24.1486  -29.4620 H   0  0  0  0  0  0  0  0  0  0  0  0
   -6.0061   25.5265  -30.5174 H   0  0  0  0  0  0  0  0  0  0  0  0
   -7.6983   24.9240  -30.5174 H   0  0  0  0  0  0  0  0  0  0  0  0
   -6.4600   21.4970  -32.4470 C   0  0  0  0  0  0  0  0  0  0  0  0
   -5.0030   21.5260  -32.7120 C   0  0  0  0  0  0  0  0  0  0  0  0
   -4.5308   22.4641  -33.0393 H   0  0  0  0  0  0  0  0  0  0  0  0
   -4.2740   20.4610  -32.5640 N   0  0  0  0  0  0  0  0  0  0  0  0
   -3.0250   20.4520  -31.8090 C   0  0  0  0  0  0  0  0  0  0  0  0
   -2.5597   19.4587  -31.8922 H   0  0  0  0  0  0  0  0  0  0  0  0
   -2.3564   21.2219  -32.2215 H   0  0  0  0  0  0  0  0  0  0  0  0
   -3.2840   20.7640  -30.3320 C   0  0  0  0  0  0  0  0  0  0  0  0
   -4.3618   20.6810  -30.1286 H   0  0  0  0  0  0  0  0  0  0  0  0
   -2.7238   20.0465  -29.7145 H   0  0  0  0  0  0  0  0  0  0  0  0
   -2.8230   22.1570  -29.9960 C   0  0  0  0  0  0  0  0  0  0  0  0
   -1.6930   22.3520  -29.1860 C   0  0  0  0  0  0  0  0  0  0  0  0
   -1.1279   21.4839  -28.8157 H   0  0  0  0  0  0  0  0  0  0  0  0
   -1.2830   23.6460  -28.8480 C   0  0  0  0  0  0  0  0  0  0  0  0
   -0.3923   23.7933  -28.2195 H   0  0  0  0  0  0  0  0  0  0  0  0
   -2.0040   24.7530  -29.3080 C   0  0  0  0  0  0  0  0  0  0  0  0
   -1.5910   26.0360  -28.9690 O   0  0  0  0  0  0  0  0  0  0  0  0
   -3.1390   24.5660  -30.1050 C   0  0  0  0  0  0  0  0  0  0  0  0
   -3.8620   25.6620  -30.5610 O   0  0  0  0  0  0  0  0  0  0  0  0
   -3.5500   23.2720  -30.4450 C   0  0  0  0  0  0  0  0  0  0  0  0
   -4.4461   23.1275  -31.0664 H   0  0  0  0  0  0  0  0  0  0  0  0
   -7.2290   20.3710  -32.8020 C   0  0  0  0  0  0  0  0  0  0  0  0
   -6.7420   19.5080  -33.2795 H   0  0  0  0  0  0  0  0  0  0  0  0
  1  2  1  0
  2  3  1  0
  3  4  2  0
  4  5  1  0
  4  6  1  0
  6  7  1  0
  6  8  2  0
  8  9  1  0
  9 10  1  0
 10 11  1  0
 10 12  1  0
 10 13  1  0
  8 14  1  0
 14 15  1  0
 15 16  1  0
 15 17  2  0
 17 18  1  0
 18 19  1  0
 18 20  1  0
 18 21  1  0
 21 22  1  0
 21 23  1  0
 21 24  1  0
 24 25  2  0
 25 26  1  0
 25 27  1  0
 27 28  1  0
 27 29  2  0
 29 30  1  0
 29 31  1  0
 31 32  1  0
 31 33  2  0
 33 34  1  0
 14 35  2  0
 35 36  1  0
 35  3  1  0
 33 24  1  0
M  CHG  2  30  -1  32  -1
M  END
>  <UniqueID>  (10) 
10

>  <SMILES>  (10) 
COc1ccc(O)cc1/C=N/CCc1ccc([O-])c([O-])c1

>  <Energy>  (10) 
32.42536249151613

>  <Genealogy>  (10) 
COc1ccc(O)cc1C=NCCc1ccc([O-])c([O-])c1 (protonated)
COc1ccc(O)cc1/C=N/CCc1ccc([O-])c([O-])c1 (cis-trans isomerization)
COc1ccc(O)cc1/C=N/CCc1ccc([O-])c([O-])c1 (3D coordinates assigned)
COc1ccc(O)cc1/C=N/CCc1ccc([O-])c([O-])c1 (optimized conformer: 32.42536249151613 kcal/mol)

>  <smiles>  (10) 
COc1ccc(O)cc1C=NCCc1ccc(O)c(O)c1

>  <score_type>  (10) 
oracle

>  <origin>  (10) 
adg

>  <m_score__min__energy>  (10) 
-12.539999999999999

>  <m_primary>  (10) 
energy

$$$$
10:0
     RDKit          3D

 49 52  0  0  0  0  0  0  0  0999 V2000
   -1.5150   25.5180  -27.3420 C   0  0  0  0  0  0  0  0  0  0  0  0
   -1.8100   25.4910  -28.7350 O   0  0  0  0  0  0  0  0  0  0  0  0
   -2.3610   24.3890  -29.4080 C   0  0  0  0  0  0  0  0  0  0  0  0
   -1.5880   23.2810  -29.7960 C   0  0  0  0  0  0  0  0  0  0  0  0
   -2.1810   22.2080  -30.4620 C   0  0  0  0  0  0  0  0  0  0  0  0
   -3.5480   22.2260  -30.7520 C   0  0  0  0  0  0  0  0  0  0  0  0
   -4.1090   21.1680  -31.3890 N   0  0  0  0  0  0  0  0  0  0  0  0
   -5.4310   21.1180  -31.6990 C   0  0  0  0  0  0  0  0  0  0  0  0
   -5.9430   19.9440  -32.3470 N   0  0  0  0  0  0  0  0  0  0  0  0
   -6.8500   19.0680  -31.6000 C   0  0  0  0  0  0  0  0  0  0  0  0
   -7.1470   17.7840  -32.3870 C   0  0  0  0  0  0  0  0  0  0  0  0
   -5.9630   17.3850  -33.1720 N   0  0  0  0  0  0  0  0  0  0  0  0
   -6.1530   16.0470  -33.6980 C   0  0  0  0  0  0  0  0  0  0  0  0
   -7.0520   15.8230  -34.5560 O   0  0  0  0  0  0  0  0  0  0  0  0
   -5.3680   14.9010  -33.1990 C   0  0  0  0  0  0  0  0  0  0  0  0
   -5.3900   13.6010  -33.6750 C   0  0  0  0  0  0  0  0  0  0  0  0
   -4.4860   12.9050  -32.9030 C   0  0  0  0  0  0  0  0  0  0  0  0
   -3.9670   13.8150  -32.0060 C   0  0  0  0  0  0  0  0  0  0  0  0
   -4.5090   14.9940  -32.2080 O   0  0  0  0  0  0  0  0  0  0  0  0
   -5.6870   18.3600  -34.2570 C   0  0  0  0  0  0  0  0  0  0  0  0
   -5.8510   19.8300  -33.8070 C   0  0  0  0  0  0  0  0  0  0  0  0
   -6.2710   22.2110  -31.3890 C   0  0  0  0  0  0  0  0  0  0  0  0
   -7.7330   22.1900  -31.7720 C   0  0  0  0  0  0  0  0  0  0  0  0
   -5.7230   23.3140  -30.6900 C   0  0  0  0  0  0  0  0  0  0  0  0
   -6.5770   24.4190  -30.3010 C   0  0  0  0  0  0  0  0  0  0  0  0
   -7.2590   25.3020  -29.9900 N   0  0  0  0  0  0  0  0  0  0  0  0
   -4.3430   23.3290  -30.3730 C   0  0  0  0  0  0  0  0  0  0  0  0
   -3.7310   24.4070  -29.6970 C   0  0  0  0  0  0  0  0  0  0  0  0
   -2.4492   25.4325  -26.7676 H   0  0  0  0  0  0  0  0  0  0  0  0
   -0.8521   24.6768  -27.0912 H   0  0  0  0  0  0  0  0  0  0  0  0
   -1.0158   26.4656  -27.0912 H   0  0  0  0  0  0  0  0  0  0  0  0
   -0.5109   23.2598  -29.5736 H   0  0  0  0  0  0  0  0  0  0  0  0
   -1.5696   21.3436  -30.7603 H   0  0  0  0  0  0  0  0  0  0  0  0
   -6.3835   18.8017  -30.6401 H   0  0  0  0  0  0  0  0  0  0  0  0
   -7.7962   19.6036  -31.4332 H   0  0  0  0  0  0  0  0  0  0  0  0
   -7.4060   16.9783  -31.6843 H   0  0  0  0  0  0  0  0  0  0  0  0
   -7.9878   17.9680  -33.0720 H   0  0  0  0  0  0  0  0  0  0  0  0
   -5.1270   17.3840  -32.5420 H   0  0  0  0  0  0  0  0  0  0  0  0
   -6.0024   13.2059  -34.4989 H   0  0  0  0  0  0  0  0  0  0  0  0
   -4.2297   11.8384  -32.9854 H   0  0  0  0  0  0  0  0  0  0  0  0
   -3.2133   13.5877  -31.2378 H   0  0  0  0  0  0  0  0  0  0  0  0
   -4.6538   18.2135  -34.6050 H   0  0  0  0  0  0  0  0  0  0  0  0
   -6.4203   18.1777  -35.0564 H   0  0  0  0  0  0  0  0  0  0  0  0
   -4.9828   20.4084  -34.1556 H   0  0  0  0  0  0  0  0  0  0  0  0
   -6.7840   20.2191  -34.2406 H   0  0  0  0  0  0  0  0  0  0  0  0
   -8.3504   22.1811  -30.8617 H   0  0  0  0  0  0  0  0  0  0  0  0
   -7.9692   23.0848  -32.3665 H   0  0  0  0  0  0  0  0  0  0  0  0
   -7.9434   21.2887  -32.3665 H   0  0  0  0  0  0  0  0  0  0  0  0
   -4.3384   25.2724  -29.3934 H   0  0  0  0  0  0  0  0  0  0  0  0
  1  2  1  0
  2  3  1  0
  3  4  2  0
  4  5  1  0
  5  6  2  0
  6  7  1  0
  7  8  2  0
  8  9  1  0
  9 10  1  0
 10 11  1  0
 11 12  1  0
 12 13  1  0
 13 14  2  0
 13 15  1  0
 15 16  2  0
 16 17  1  0
 17 18  2  0
 18 19  1  0
 12 20  1  0
 20 21  1  0
  8 22  1  0
 22 23  1  0
 22 24  2  0
 24 25  1  0
 25 26  3  0
 24 27  1  0
 27 28  2  0
 28  3  1  0
 27  6  1  0
 21  9  1  0
 19 15  1  0
  1 29  1  0
  1 30  1  0
  1 31  1  0
  4 32  1  0
  5 33  1  0
 10 34  1  0
 10 35  1  0
 11 36  1  0
 11 37  1  0
 12 38  1  0
 16 39  1  0
 17 40  1  0
 18 41  1  0
 20 42  1  0
 20 43  1  0
 21 44  1  0
 21 45  1  0
 23 46  1  0
 23 47  1  0
 23 48  1  0
 28 49  1  0
M  CHG  1  12   1
M  END
>  <UniqueID>  (11) 
11

>  <SMILES>  (11) 
COc1ccc2nc(N3CC[NH+](C(=O)c4ccco4)CC3)c(C)c(C#N)c2c1

>  <Energy>  (11) 
96.53347020255057

>  <Genealogy>  (11) 
COc1ccc2nc(N3CC[NH+](C(=O)c4ccco4)CC3)c(C)c(C#N)c2c1 (protonated)
COc1ccc2nc(N3CC[NH+](C(=O)c4ccco4)CC3)c(C)c(C#N)c2c1 (3D coordinates assigned)
COc1ccc2nc(N3CC[NH+](C(=O)c4ccco4)CC3)c(C)c(C#N)c2c1 (nonaromatic ring conformer: 96.53347020255057 kcal/mol)

>  <smiles>  (11) 
COc1ccc2nc(N3CCN(C(=O)c4ccco4)CC3)c(C)c(C#N)c2c1

>  <score_type>  (11) 
oracle

>  <origin>  (11) 
adg

>  <m_score__min__energy>  (11) 
-7.4100000000000001

>  <m_primary>  (11) 
energy

$$$$
11:0
     RDKit          3D

 48 51  0  0  0  0  0  0  0  0999 V2000
   -0.7790   25.8190  -26.3210 C   0  0  0  0  0  0  0  0  0  0  0  0
    0.3710   25.2750  -27.1650 C   0  0  0  0  0  0  0  0  0  0  0  0
   -0.1210   24.5290  -28.2790 O   0  0  0  0  0  0  0  0  0  0  0  0
   -1.3940   23.9390  -28.3670 C   0  0  0  0  0  0  0  0  0  0  0  0
   -1.5880   22.6890  -27.7690 C   0  0  0  0  0  0  0  0  0  0  0  0
   -2.8260   22.0460  -27.8540 C   0  0  0  0  0  0  0  0  0  0  0  0
   -3.8820   22.6480  -28.5420 C   0  0  0  0  0  0  0  0  0  0  0  0
   -3.7090   23.9060  -29.1310 C   0  0  0  0  0  0  0  0  0  0  0  0
   -5.0090   24.6530  -30.0550 S   0  0  0  0  0  0  0  0  0  0  0  0
   -5.9390   25.3940  -29.1350 O   0  0  0  0  0  0  0  0  0  0  0  0
   -4.4370   25.6350  -31.0390 O   0  0  0  0  0  0  0  0  0  0  0  0
   -5.8820   23.3880  -30.9130 C   0  0  0  0  0  0  0  0  0  0  0  0
   -7.2890   23.3200  -30.8470 C   0  0  0  0  0  0  0  0  0  0  0  0
   -7.9800   22.2900  -31.4990 C   0  0  0  0  0  0  0  0  0  0  0  0
   -7.2420   21.3360  -32.1940 C   0  0  0  0  0  0  0  0  0  0  0  0
   -7.8220   20.0150  -33.0450 S   0  0  0  0  0  0  0  0  0  0  0  0
   -6.3030   19.4550  -33.5290 C   0  0  0  0  0  0  0  0  0  0  0  0
   -5.3100   20.2950  -32.9980 C   0  0  0  0  0  0  0  0  0  0  0  0
   -5.8560   21.3720  -32.2630 C   0  0  0  0  0  0  0  0  0  0  0  0
   -5.1620   22.4120  -31.6290 C   0  0  0  0  0  0  0  0  0  0  0  0
   -3.8410   20.0460  -33.2180 C   0  0  0  0  0  0  0  0  0  0  0  0
   -3.4170   18.6520  -32.7280 C   0  0  0  0  0  0  0  0  0  0  0  0
   -3.7110   17.5020  -33.7140 C   0  0  0  0  0  0  0  0  0  0  0  0
   -5.2020   17.1190  -33.7730 C   0  0  0  0  0  0  0  0  0  0  0  0
   -6.1140   18.2150  -34.3700 C   0  0  0  0  0  0  0  0  0  0  0  0
   -2.4710   24.5550  -29.0320 C   0  0  0  0  0  0  0  0  0  0  0  0
   -0.5369   25.7045  -25.2541 H   0  0  0  0  0  0  0  0  0  0  0  0
   -0.9303   26.8841  -26.5504 H   0  0  0  0  0  0  0  0  0  0  0  0
   -1.6984   25.2603  -26.5504 H   0  0  0  0  0  0  0  0  0  0  0  0
    0.9758   26.1164  -27.5342 H   0  0  0  0  0  0  0  0  0  0  0  0
    0.9812   24.6081  -26.5382 H   0  0  0  0  0  0  0  0  0  0  0  0
   -0.7596   22.2086  -27.2277 H   0  0  0  0  0  0  0  0  0  0  0  0
   -2.9689   21.0645  -27.3784 H   0  0  0  0  0  0  0  0  0  0  0  0
   -4.8507   22.1329  -28.6211 H   0  0  0  0  0  0  0  0  0  0  0  0
   -7.8473   24.0799  -30.2805 H   0  0  0  0  0  0  0  0  0  0  0  0
   -9.0781   22.2366  -31.4626 H   0  0  0  0  0  0  0  0  0  0  0  0
   -4.0650   22.4653  -31.6902 H   0  0  0  0  0  0  0  0  0  0  0  0
   -3.6236   20.1265  -34.2933 H   0  0  0  0  0  0  0  0  0  0  0  0
   -3.2779   20.7957  -32.6428 H   0  0  0  0  0  0  0  0  0  0  0  0
   -2.3337   18.6711  -32.5378 H   0  0  0  0  0  0  0  0  0  0  0  0
   -4.0126   18.4465  -31.8263 H   0  0  0  0  0  0  0  0  0  0  0  0
   -3.3899   17.8127  -34.7192 H   0  0  0  0  0  0  0  0  0  0  0  0
   -3.1605   16.6184  -33.3589 H   0  0  0  0  0  0  0  0  0  0  0  0
   -5.3016   16.2136  -34.3897 H   0  0  0  0  0  0  0  0  0  0  0  0
   -5.5304   16.9652  -32.7345 H   0  0  0  0  0  0  0  0  0  0  0  0
   -5.6807   18.5249  -35.3324 H   0  0  0  0  0  0  0  0  0  0  0  0
   -7.1113   17.7577  -34.4492 H   0  0  0  0  0  0  0  0  0  0  0  0
   -2.3399   25.5524  -29.4769 H   0  0  0  0  0  0  0  0  0  0  0  0
  1  2  1  0
  2  3  1  0
  3  4  1  0
  4  5  2  0
  5  6  1  0
  6  7  2  0
  7  8  1  0
  8  9  1  0
  9 10  2  0
  9 11  2  0
  9 12  1  0
 12 13  2  0
 13 14  1  0
 14 15  2  0
 15 16  1  0
 16 17  1  0
 17 18  2  0
 18 19  1  0
 19 20  2  0
 18 21  1  0
 21 22  1  0
 22 23  1  0
 23 24  1  0
 24 25  1  0
  8 26  2  0
 26  4  1  0
 20 12  1  0
 19 15  1  0
 25 17  1  0
  1 27  1  0
  1 28  1  0
  1 29  1  0
  2 30  1  0
  2 31  1  0
  5 32  1  0
  6 33  1  0
  7 34  1  0
 13 35  1  0
 14 36  1  0
 20 37  1  0
 21 38  1  0
 21 39  1  0
 22 40  1  0
 22 41  1  0
 23 42  1  0
 23 43  1  0
 24 44  1  0
 24 45  1  0
 25 46  1  0
 25 47  1  0
 26 48  1  0
M  END
>  <UniqueID>  (12) 
12

>  <SMILES>  (12) 
CCOc1cccc(S(=O)(=O)c2ccc3sc4c(c3c2)CCCCC4)c1

>  <Energy>  (12) 
86.11934667730745

>  <Genealogy>  (12) 
CCOc1cccc(S(=O)(=O)c2ccc3sc4c(c3c2)CCCCC4)c1 (3D coordinates assigned)
CCOc1cccc(S(=O)(=O)c2ccc3sc4c(c3c2)CCCCC4)c1 (nonaromatic ring conformer: 86.11934667730745 kcal/mol)

>  <smiles>  (12) 
CCOc1cccc(S(=O)(=O)c2ccc3sc4c(c3c2)CCCCC4)c1

>  <score_type>  (12) 
oracle

>  <origin>  (12) 
adg

>  <m_score__min__energy>  (12) 
-8.8800000000000008

>  <m_primary>  (12) 
energy

$$$$
12:0
     RDKit          3D

 52 55  0  0  0  0  0  0  0  0999 V2000
   -0.9360   17.6780  -34.0660 C   0  0  0  0  0  0  0  0  0  0  0  0
   -2.3320   18.0920  -33.6860 C   0  0  0  0  0  0  0  0  0  0  0  0
   -3.2060   17.1190  -33.1760 C   0  0  0  0  0  0  0  0  0  0  0  0
   -4.4920   17.4690  -32.7640 C   0  0  0  0  0  0  0  0  0  0  0  0
   -4.9220   18.7930  -32.8520 C   0  0  0  0  0  0  0  0  0  0  0  0
   -4.0740   19.7810  -33.3740 C   0  0  0  0  0  0  0  0  0  0  0  0
   -4.5440   21.2110  -33.4460 C   0  0  0  0  0  0  0  0  0  0  0  0
   -2.7850   19.4250  -33.8320 C   0  0  0  0  0  0  0  0  0  0  0  0
   -1.9330   20.4390  -34.3810 N   0  0  0  0  0  0  0  0  0  0  0  0
   -0.8790   21.1120  -33.6770 C   0  0  0  0  0  0  0  0  0  0  0  0
   -0.1290   21.8960  -34.3180 O   0  0  0  0  0  0  0  0  0  0  0  0
   -0.6200   20.9020  -32.2110 C   0  0  0  0  0  0  0  0  0  0  0  0
   -1.8180   21.1750  -31.4270 N   0  0  0  0  0  0  0  0  0  0  0  0
   -2.3740   20.3200  -30.5880 N   0  0  0  0  0  0  0  0  0  0  0  0
   -3.4810   20.8600  -30.1040 N   0  0  0  0  0  0  0  0  0  0  0  0
   -3.5670   22.0760  -30.6880 C   0  0  0  0  0  0  0  0  0  0  0  0
   -4.6780   23.0400  -30.4910 C   0  0  0  0  0  0  0  0  0  0  0  0
   -6.0060   22.5730  -30.5570 C   0  0  0  0  0  0  0  0  0  0  0  0
   -7.0790   23.4380  -30.3390 C   0  0  0  0  0  0  0  0  0  0  0  0
   -6.8450   24.7840  -30.0640 C   0  0  0  0  0  0  0  0  0  0  0  0
   -5.5370   25.2700  -30.0030 C   0  0  0  0  0  0  0  0  0  0  0  0
   -4.4440   24.4070  -30.2040 C   0  0  0  0  0  0  0  0  0  0  0  0
   -3.1060   24.9260  -30.1720 N   0  0  0  0  0  0  0  0  0  0  0  0
   -2.1910   24.8170  -29.0720 C   0  0  0  0  0  0  0  0  0  0  0  0
   -1.7050   25.8730  -28.5870 O   0  0  0  0  0  0  0  0  0  0  0  0
   -1.7810   23.5060  -28.5210 C   0  0  0  0  0  0  0  0  0  0  0  0
   -0.5550   22.9340  -28.9050 C   0  0  0  0  0  0  0  0  0  0  0  0
   -0.1670   21.6930  -28.3970 C   0  0  0  0  0  0  0  0  0  0  0  0
   -1.0010   21.0020  -27.5130 C   0  0  0  0  0  0  0  0  0  0  0  0
   -2.2300   21.5530  -27.1390 C   0  0  0  0  0  0  0  0  0  0  0  0
   -2.6240   22.7970  -27.6430 C   0  0  0  0  0  0  0  0  0  0  0  0
   -2.5280   22.2860  -31.5210 N   0  0  0  0  0  0  0  0  0  0  0  0
   -0.3448   17.5027  -33.1551 H   0  0  0  0  0  0  0  0  0  0  0  0
   -0.9768   16.7533  -34.6603 H   0  0  0  0  0  0  0  0  0  0  0  0
   -0.4660   18.4754  -34.6603 H   0  0  0  0  0  0  0  0  0  0  0  0
   -2.8744   16.0729  -33.1007 H   0  0  0  0  0  0  0  0  0  0  0  0
   -5.1695   16.6980  -32.3683 H   0  0  0  0  0  0  0  0  0  0  0  0
   -5.9318   19.0639  -32.5101 H   0  0  0  0  0  0  0  0  0  0  0  0
   -4.6738   21.6060  -32.4276 H   0  0  0  0  0  0  0  0  0  0  0  0
   -3.7974   21.8158  -33.9815 H   0  0  0  0  0  0  0  0  0  0  0  0
   -5.5039   21.2550  -33.9815 H   0  0  0  0  0  0  0  0  0  0  0  0
   -0.3111   19.8593  -32.0456 H   0  0  0  0  0  0  0  0  0  0  0  0
    0.1740   21.5931  -31.8918 H   0  0  0  0  0  0  0  0  0  0  0  0
   -6.1990   21.5139  -30.7831 H   0  0  0  0  0  0  0  0  0  0  0  0
   -8.1100   23.0573  -30.3842 H   0  0  0  0  0  0  0  0  0  0  0  0
   -7.6921   25.4650  -29.8946 H   0  0  0  0  0  0  0  0  0  0  0  0
   -5.3599   26.3358  -29.7962 H   0  0  0  0  0  0  0  0  0  0  0  0
    0.1012   23.4669  -29.6089 H   0  0  0  0  0  0  0  0  0  0  0  0
    0.7985   21.2572  -28.6933 H   0  0  0  0  0  0  0  0  0  0  0  0
   -0.6904   20.0258  -27.1122 H   0  0  0  0  0  0  0  0  0  0  0  0
   -2.8885   21.0074  -26.4471 H   0  0  0  0  0  0  0  0  0  0  0  0
   -3.5957   23.2231  -27.3526 H   0  0  0  0  0  0  0  0  0  0  0  0
  1  2  1  0
  2  3  2  0
  3  4  1  0
  4  5  2  0
  5  6  1  0
  6  7  1  0
  6  8  2  0
  8  9  1  0
  9 10  1  0
 10 11  2  0
 10 12  1  0
 12 13  1  0
 13 14  1  0
 14 15  2  0
 15 16  1  0
 16 17  1  0
 17 18  2  0
 18 19  1  0
 19 20  2  0
 20 21  1  0
 21 22  2  0
 22 23  1  0
 23 24  1  0
 24 25  2  0
 24 26  1  0
 26 27  2  0
 27 28  1  0
 28 29  2  0
 29 30  1  0
 30 31  2  0
 16 32  2  0
  8  2  1  0
 32 13  1  0
 22 17  1  0
 31 26  1  0
  1 33  1  0
  1 34  1  0
  1 35  1  0
  3 36  1  0
  4 37  1  0
  5 38  1  0
  7 39  1  0
  7 40  1  0
  7 41  1  0
 12 42  1  0
 12 43  1  0
 18 44  1  0
 19 45  1  0
 20 46  1  0
 21 47  1  0
 27 48  1  0
 28 49  1  0
 29 50  1  0
 30 51  1  0
 31 52  1  0
M  CHG  2   9  -1  23  -1
M  END
>  <UniqueID>  (13) 
13

>  <SMILES>  (13) 
Cc1cccc(C)c1[N-]C(=O)Cn1nnc(-c2ccccc2[N-]C(=O)c2ccccc2)n1

>  <Energy>  (13) 
105.75431869354318

>  <Genealogy>  (13) 
Cc1cccc(C)c1[N-]C(=O)Cn1nnc(-c2ccccc2[N-]C(=O)c2ccccc2)n1 (protonated)
Cc1cccc(C)c1[N-]C(=O)Cn1nnc(-c2ccccc2[N-]C(=O)c2ccccc2)n1 (3D coordinates assigned)
Cc1cccc(C)c1[N-]C(=O)Cn1nnc(-c2ccccc2[N-]C(=O)c2ccccc2)n1 (optimized conformer: 105.75431869354318 kcal/mol)

>  <smiles>  (13) 
Cc1cccc(C)c1NC(=O)Cn1nnc(-c2ccccc2NC(=O)c2ccccc2)n1

>  <score_type>  (13) 
oracle

>  <origin>  (13) 
adg

>  <m_score__min__energy>  (13) 
-11.720000000000001

>  <m_primary>  (13) 
energy

$$$$
13:0
     RDKit          3D

 39 41  0  0  0  0  0  0  0  0999 V2000
   -9.0800   21.2900  -31.2640 C   0  0  0  0  0  0  0  0  0  0  0  0
   -8.6880   22.6690  -31.7030 C   0  0  0  0  0  0  0  0  0  0  0  0
   -9.5290   23.3550  -32.3450 O   0  0  0  0  0  0  0  0  0  0  0  0
   -7.3460   23.2380  -31.4030 C   0  0  0  0  0  0  0  0  0  0  0  0
   -7.1920   24.1670  -30.3560 C   0  0  0  0  0  0  0  0  0  0  0  0
   -5.9380   24.7080  -30.0630 C   0  0  0  0  0  0  0  0  0  0  0  0
   -4.8150   24.3520  -30.8160 C   0  0  0  0  0  0  0  0  0  0  0  0
   -3.5440   24.9170  -30.4660 N   0  0  0  0  0  0  0  0  0  0  0  0
   -2.7450   24.5700  -29.3280 C   0  0  0  0  0  0  0  0  0  0  0  0
   -1.5760   25.0190  -29.1990 O   0  0  0  0  0  0  0  0  0  0  0  0
   -3.3280   23.7050  -28.2560 C   0  0  0  0  0  0  0  0  0  0  0  0
   -2.4610   22.1010  -28.1720 S   0  0  0  0  0  0  0  0  0  0  0  0
   -2.6320   21.7560  -29.9230 C   0  0  0  0  0  0  0  0  0  0  0  0
   -2.1180   22.5160  -30.9020 N   0  0  0  0  0  0  0  0  0  0  0  0
   -2.4410   21.9530  -32.0530 N   0  0  0  0  0  0  0  0  0  0  0  0
   -3.1540   20.8510  -31.7260 C   0  0  0  0  0  0  0  0  0  0  0  0
   -3.7240   19.9090  -32.7050 C   0  0  0  0  0  0  0  0  0  0  0  0
   -5.1130   19.8070  -32.8860 C   0  0  0  0  0  0  0  0  0  0  0  0
   -5.6320   18.9060  -33.8180 C   0  0  0  0  0  0  0  0  0  0  0  0
   -4.7590   18.1130  -34.5650 C   0  0  0  0  0  0  0  0  0  0  0  0
   -3.4160   18.2220  -34.3810 N   0  0  0  0  0  0  0  0  0  0  0  0
   -2.8860   19.0910  -33.4800 C   0  0  0  0  0  0  0  0  0  0  0  0
   -3.2730   20.7280  -30.4210 O   0  0  0  0  0  0  0  0  0  0  0  0
   -4.9540   23.4090  -31.8480 C   0  0  0  0  0  0  0  0  0  0  0  0
   -6.2080   22.8630  -32.1430 C   0  0  0  0  0  0  0  0  0  0  0  0
   -9.0928   21.2449  -30.1650 H   0  0  0  0  0  0  0  0  0  0  0  0
  -10.0813   21.0523  -31.6525 H   0  0  0  0  0  0  0  0  0  0  0  0
   -8.3535   20.5611  -31.6525 H   0  0  0  0  0  0  0  0  0  0  0  0
   -8.0678   24.4696  -29.7631 H   0  0  0  0  0  0  0  0  0  0  0  0
   -5.8330   25.4209  -29.2319 H   0  0  0  0  0  0  0  0  0  0  0  0
   -3.2322   24.2176  -27.2875 H   0  0  0  0  0  0  0  0  0  0  0  0
   -4.3871   23.5209  -28.4894 H   0  0  0  0  0  0  0  0  0  0  0  0
   -1.5630   23.3940  -30.7980 H   0  0  0  0  0  0  0  0  0  0  0  0
   -5.7924   20.4372  -32.2933 H   0  0  0  0  0  0  0  0  0  0  0  0
   -6.7192   18.8218  -33.9624 H   0  0  0  0  0  0  0  0  0  0  0  0
   -5.1573   17.4003  -35.3021 H   0  0  0  0  0  0  0  0  0  0  0  0
   -1.7947   19.1538  -33.3573 H   0  0  0  0  0  0  0  0  0  0  0  0
   -4.0721   23.0982  -32.4273 H   0  0  0  0  0  0  0  0  0  0  0  0
   -6.3059   22.1338  -32.9608 H   0  0  0  0  0  0  0  0  0  0  0  0
  1  2  1  0
  2  3  2  0
  2  4  1  0
  4  5  2  0
  5  6  1  0
  6  7  2  0
  7  8  1  0
  8  9  1  0
  9 10  2  0
  9 11  1  0
 11 12  1  0
 12 13  1  0
 13 14  2  0
 14 15  1  0
 15 16  2  0
 16 17  1  0
 17 18  2  0
 18 19  1  0
 19 20  2  0
 20 21  1  0
 21 22  2  0
 16 23  1  0
  7 24  1  0
 24 25  2  0
 25  4  1  0
 23 13  1  0
 22 17  1  0
  1 26  1  0
  1 27  1  0
  1 28  1  0
  5 29  1  0
  6 30  1  0
 11 31  1  0
 11 32  1  0
 14 33  1  0
 18 34  1  0
 19 35  1  0
 20 36  1  0
 22 37  1  0
 24 38  1  0
 25 39  1  0
M  CHG  2   8  -1  14   1
M  END
>  <UniqueID>  (14) 
14

>  <SMILES>  (14) 
CC(=O)c1ccc([N-]C(=O)CSc2[nH+]nc(-c3cccnc3)o2)cc1

>  <Energy>  (14) 
76.1883488893105

>  <Genealogy>  (14) 
CC(=O)c1ccc([N-]C(=O)CSc2[nH+]nc(-c3cccnc3)o2)cc1 (protonated)
CC(=O)c1ccc([N-]C(=O)CSc2[nH+]nc(-c3cccnc3)o2)cc1 (3D coordinates assigned)
CC(=O)c1ccc([N-]C(=O)CSc2[nH+]nc(-c3cccnc3)o2)cc1 (optimized conformer: 76.1883488893105 kcal/mol)

>  <smiles>  (14) 
CC(=O)c1ccc(NC(=O)CSc2nnc(-c3cccnc3)o2)cc1

>  <score_type>  (14) 
oracle

>  <origin>  (14) 
adg

>  <m_score__min__energy>  (14) 
-8.9299999999999997

>  <m_primary>  (14) 
energy

$$$$
14:0
     RDKit          3D

 27 26  0  0  0  0  0  0  0  0999 V2000
   -4.1021   24.4182  -25.7270 H   0  0  0  0  0  0  0  0  0  0  0  0
   -4.1930   24.6780  -26.7920 C   0  0  0  0  0  0  0  0  0  0  0  0
   -3.5415   25.5352  -27.0173 H   0  0  0  0  0  0  0  0  0  0  0  0
   -5.2369   24.9417  -27.0173 H   0  0  0  0  0  0  0  0  0  0  0  0
   -3.7750   23.4840  -27.6440 C   0  0  0  0  0  0  0  0  0  0  0  0
   -4.3760   22.6087  -27.3566 H   0  0  0  0  0  0  0  0  0  0  0  0
   -2.7058   23.2890  -27.4745 H   0  0  0  0  0  0  0  0  0  0  0  0
   -3.9870   23.7690  -29.1170 C   0  0  0  0  0  0  0  0  0  0  0  0
   -4.7170   23.0150  -29.8960 N   0  0  0  0  0  0  0  0  0  0  0  0
   -5.6930   23.3820  -30.8860 C   0  0  0  0  0  0  0  0  0  0  0  0
   -5.3720   23.9800  -31.9470 O   0  0  0  0  0  0  0  0  0  0  0  0
   -7.1390   23.1180  -30.6070 C   0  0  0  0  0  0  0  0  0  0  0  0
   -7.5804   23.9986  -30.1175 H   0  0  0  0  0  0  0  0  0  0  0  0
   -7.2213   22.2397  -29.9499 H   0  0  0  0  0  0  0  0  0  0  0  0
   -7.8920   22.8350  -31.9130 C   0  0  0  0  0  0  0  0  0  0  0  0
   -7.1760   22.4578  -32.6580 H   0  0  0  0  0  0  0  0  0  0  0  0
   -8.3587   23.7761  -32.2395 H   0  0  0  0  0  0  0  0  0  0  0  0
   -9.0110   21.7970  -31.7360 C   0  0  0  0  0  0  0  0  0  0  0  0
   -9.9046   22.1476  -32.2731 H   0  0  0  0  0  0  0  0  0  0  0  0
   -9.2002   21.6924  -30.6575 H   0  0  0  0  0  0  0  0  0  0  0  0
   -8.6260   20.4180  -32.2740 C   0  0  0  0  0  0  0  0  0  0  0  0
   -8.4356   19.7360  -31.4322 H   0  0  0  0  0  0  0  0  0  0  0  0
   -9.4478   20.0216  -32.8884 H   0  0  0  0  0  0  0  0  0  0  0  0
   -7.7177   20.5046  -32.8884 H   0  0  0  0  0  0  0  0  0  0  0  0
   -3.2990   24.9240  -29.7260 C   0  0  0  0  0  0  0  0  0  0  0  0
   -2.1650   25.2790  -29.3080 O   0  0  0  0  0  0  0  0  0  0  0  0
   -3.8950   25.6420  -30.7570 O   0  0  0  0  0  0  0  0  0  0  0  0
  1  2  1  0
  2  3  1  0
  2  4  1  0
  2  5  1  0
  5  6  1  0
  5  7  1  0
  5  8  1  0
  8  9  2  0
  9 10  1  0
 10 11  2  0
 10 12  1  0
 12 13  1  0
 12 14  1  0
 12 15  1  0
 15 16  1  0
 15 17  1  0
 15 18  1  0
 18 19  1  0
 18 20  1  0
 18 21  1  0
 21 22  1  0
 21 23  1  0
 21 24  1  0
  8 25  1  0
 25 26  2  0
 25 27  1  0
M  CHG  1  27  -1
M  END
>  <UniqueID>  (15) 
15

>  <SMILES>  (15) 
CCCCC(=O)/N=C(\CC)C(=O)[O-]

>  <Energy>  (15) 
16.293905916876653

>  <Genealogy>  (15) 
CCCCC(=O)N=C(CC)C(=O)[O-] (protonated)
CCCCC(=O)/N=C(\CC)C(=O)[O-] (cis-trans isomerization)
CCCCC(=O)/N=C(\CC)C(=O)[O-] (3D coordinates assigned)
CCCCC(=O)/N=C(\CC)C(=O)[O-] (optimized conformer: 16.293905916876653 kcal/mol)

>  <smiles>  (15) 
CCCCC(=O)N=C(CC)C(=O)O

>  <score_type>  (15) 
oracle

>  <origin>  (15) 
adg

>  <m_score__min__energy>  (15) 
-7.8099999999999996

>  <m_primary>  (15) 
energy

$$$$
15:0
     RDKit          3D

 43 46  0  0  1  0  0  0  0  0999 V2000
   -3.0950   15.9240  -35.1540 C   0  0  0  0  0  0  0  0  0  0  0  0
   -4.2290   16.6940  -35.5470 O   0  0  0  0  0  0  0  0  0  0  0  0
   -5.0670   17.2700  -34.5930 C   0  0  0  0  0  0  0  0  0  0  0  0
   -6.0570   16.4550  -34.0680 C   0  0  0  0  0  0  0  0  0  0  0  0
   -6.8960   17.0180  -33.1180 C   0  0  0  0  0  0  0  0  0  0  0  0
   -6.7600   18.3360  -32.7050 C   0  0  0  0  0  0  0  0  0  0  0  0
   -5.7570   19.0990  -33.2620 C   0  0  0  0  0  0  0  0  0  0  0  0
   -5.5930   20.4570  -32.8570 N   0  0  0  0  0  0  0  0  0  0  0  0
   -4.4310   21.1630  -32.7840 C   0  0  0  0  0  0  0  0  0  0  0  0
   -4.7060   22.4240  -32.3530 N   0  0  0  0  0  0  0  0  0  0  0  0
   -6.0190   22.5410  -32.1470 C   0  0  0  0  0  0  0  0  0  0  0  0
   -6.7970   23.5950  -31.7150 C   0  0  0  0  0  0  0  0  0  0  0  0
   -6.3220   24.7540  -31.4130 N   0  0  0  0  0  0  0  0  0  0  0  0
   -5.1490   24.7800  -30.6040 C   0  0  0  0  0  0  0  0  0  0  0  0
   -4.2190   25.6260  -30.8380 O   0  0  0  0  0  0  0  0  0  0  0  0
   -4.9650   23.8870  -29.5190 N   0  0  0  0  0  0  0  0  0  0  0  0
   -3.8070   23.8850  -28.6890 C   0  0  0  0  0  0  0  0  0  0  0  0
   -3.9450   24.5490  -27.4650 C   0  0  0  0  0  0  0  0  0  0  0  0
   -2.8610   24.5760  -26.6340 C   0  0  0  0  0  0  0  0  0  0  0  0
   -1.6530   23.9690  -26.9750 C   0  0  0  0  0  0  0  0  0  0  0  0
   -0.2240   24.0880  -25.7100 Br  0  0  0  0  0  0  0  0  0  0  0  0
   -1.5290   23.3190  -28.1800 C   0  0  0  0  0  0  0  0  0  0  0  0
   -2.6220   23.2770  -29.0480 C   0  0  0  0  0  0  0  0  0  0  0  0
   -8.1240   23.4300  -31.5950 N   0  0  0  0  0  0  0  0  0  0  0  0
   -8.6560   22.2340  -31.9020 C   0  0  0  0  0  0  0  0  0  0  0  0
   -7.9150   21.1870  -32.3270 N   0  0  0  0  0  0  0  0  0  0  0  0
   -6.5610   21.3010  -32.4670 C   0  0  0  0  0  0  0  0  0  0  0  0
   -4.9130   18.5830  -34.1980 C   0  0  0  0  0  0  0  0  0  0  0  0
   -3.0399   15.8866  -34.0560 H   0  0  0  0  0  0  0  0  0  0  0  0
   -3.1897   14.9027  -35.5514 H   0  0  0  0  0  0  0  0  0  0  0  0
   -2.1806   16.3888  -35.5514 H   0  0  0  0  0  0  0  0  0  0  0  0
   -6.1722   15.4095  -34.3899 H   0  0  0  0  0  0  0  0  0  0  0  0
   -7.6936   16.4011  -32.6784 H   0  0  0  0  0  0  0  0  0  0  0  0
   -7.4375   18.7618  -31.9502 H   0  0  0  0  0  0  0  0  0  0  0  0
   -3.4317   20.7765  -33.0331 H   0  0  0  0  0  0  0  0  0  0  0  0
   -5.7160   23.1700  -29.2920 H   0  0  0  0  0  0  0  0  0  0  0  0
   -4.8921   25.0318  -27.1822 H   0  0  0  0  0  0  0  0  0  0  0  0
   -2.9437   25.0924  -25.6663 H   0  0  0  0  0  0  0  0  0  0  0  0
   -0.5796   22.8375  -28.4572 H   0  0  0  0  0  0  0  0  0  0  0  0
   -2.5383   22.7604  -30.0155 H   0  0  0  0  0  0  0  0  0  0  0  0
   -8.7370   24.2140  -31.2700 H   0  0  0  0  0  0  0  0  0  0  0  0
   -9.7435   22.1018  -31.8027 H   0  0  0  0  0  0  0  0  0  0  0  0
   -4.1179   19.2057  -34.6340 H   0  0  0  0  0  0  0  0  0  0  0  0
  1  2  1  0
  2  3  1  0
  3  4  2  0
  4  5  1  0
  5  6  2  0
  6  7  1  0
  7  8  1  0
  8  9  1  0
  9 10  2  0
 10 11  1  0
 11 12  1  0
 12 13  2  0
 13 14  1  0
 14 15  2  0
 14 16  1  0
 16 17  1  0
 17 18  2  0
 18 19  1  0
 19 20  2  0
 20 21  1  0
 20 22  1  0
 22 23  2  0
 12 24  1  0
 24 25  1  0
 25 26  2  0
 26 27  1  0
  7 28  2  0
 28  3  1  0
 27  8  1  0
 27 11  2  0
 23 17  1  0
  1 29  1  0
  1 30  1  0
  1 31  1  0
  4 32  1  0
  5 33  1  0
  6 34  1  0
  9 35  1  0
 16 36  1  0
 18 37  1  0
 19 38  1  0
 22 39  1  0
 23 40  1  0
 24 41  1  0
 25 42  1  0
 28 43  1  0
M  END
>  <smiles>  (16) 
COc1cccc(-n2cnc3c(=NC(=O)Nc4ccc(Br)cc4)[nH]cnc32)c1

>  <score_type>  (16) 
oracle

>  <origin>  (16) 
adg

>  <m_score__min__energy>  (16) 
-9.3300000000000001

>  <m_primary>  (16) 
energy

$$$$
16:0
     RDKit          3D

 36 37  0  0  0  0  0  0  0  0999 V2000
   -8.3480   19.0120  -32.2960 C   0  0  0  0  0  0  0  0  0  0  0  0
   -8.3100   20.4820  -32.0220 C   0  0  0  0  0  0  0  0  0  0  0  0
   -9.4200   21.2050  -31.7570 N   0  0  0  0  0  0  0  0  0  0  0  0
   -8.9670   22.4650  -31.5940 C   0  0  0  0  0  0  0  0  0  0  0  0
   -7.6000   22.4850  -31.7700 C   0  0  0  0  0  0  0  0  0  0  0  0
   -6.7270   23.7070  -31.7230 C   0  0  0  0  0  0  0  0  0  0  0  0
   -6.1230   23.8740  -30.3860 N   0  0  0  0  0  0  0  0  0  0  0  0
   -6.5680   25.1400  -29.7890 C   0  0  0  0  0  0  0  0  0  0  0  0
   -4.3740   23.8770  -30.4830 S   0  0  0  0  0  0  0  0  0  0  0  0
   -3.8620   25.2910  -30.5280 O   0  0  0  0  0  0  0  0  0  0  0  0
   -3.9220   23.1610  -31.7250 O   0  0  0  0  0  0  0  0  0  0  0  0
   -3.6790   23.0960  -29.0740 C   0  0  0  0  0  0  0  0  0  0  0  0
   -3.2550   23.6960  -27.9070 C   0  0  0  0  0  0  0  0  0  0  0  0
   -2.7470   22.7510  -27.0900 N   0  0  0  0  0  0  0  0  0  0  0  0
   -2.8350   21.5880  -27.7190 N   0  0  0  0  0  0  0  0  0  0  0  0
   -2.4270   20.3180  -27.1360 C   0  0  0  0  0  0  0  0  0  0  0  0
   -3.4130   21.7550  -28.9230 C   0  0  0  0  0  0  0  0  0  0  0  0
   -7.1820   21.2270  -32.0090 N   0  0  0  0  0  0  0  0  0  0  0  0
   -5.8220   20.7840  -32.3130 C   0  0  0  0  0  0  0  0  0  0  0  0
   -8.3622   18.4617  -31.3436 H   0  0  0  0  0  0  0  0  0  0  0  0
   -9.2527   18.7698  -32.8729 H   0  0  0  0  0  0  0  0  0  0  0  0
   -7.4570   18.7234  -32.8729 H   0  0  0  0  0  0  0  0  0  0  0  0
   -9.5908   23.3397  -31.3576 H   0  0  0  0  0  0  0  0  0  0  0  0
   -5.9257   23.6057  -32.4697 H   0  0  0  0  0  0  0  0  0  0  0  0
   -7.3468   24.5894  -31.9405 H   0  0  0  0  0  0  0  0  0  0  0  0
   -6.5393   25.0584  -28.6924 H   0  0  0  0  0  0  0  0  0  0  0  0
   -5.9017   25.9527  -30.1137 H   0  0  0  0  0  0  0  0  0  0  0  0
   -7.5963   25.3571  -30.1137 H   0  0  0  0  0  0  0  0  0  0  0  0
   -3.3205   24.7702  -27.6796 H   0  0  0  0  0  0  0  0  0  0  0  0
   -2.4513   20.3936  -26.0389 H   0  0  0  0  0  0  0  0  0  0  0  0
   -3.1158   19.5257  -27.4643 H   0  0  0  0  0  0  0  0  0  0  0  0
   -1.4056   20.0751  -27.4643 H   0  0  0  0  0  0  0  0  0  0  0  0
   -3.6328   20.9627  -29.6537 H   0  0  0  0  0  0  0  0  0  0  0  0
   -5.2760   20.6061  -31.3748 H   0  0  0  0  0  0  0  0  0  0  0  0
   -5.8617   19.8523  -32.8964 H   0  0  0  0  0  0  0  0  0  0  0  0
   -5.3053   21.5603  -32.8964 H   0  0  0  0  0  0  0  0  0  0  0  0
  1  2  1  0
  2  3  2  0
  3  4  1  0
  4  5  2  0
  5  6  1  0
  6  7  1  0
  7  8  1  0
  7  9  1  0
  9 10  2  0
  9 11  2  0
  9 12  1  0
 12 13  1  0
 13 14  2  0
 14 15  1  0
 15 16  1  0
 15 17  1  0
  5 18  1  0
 18 19  1  0
 18  2  1  0
 17 12  2  0
  1 20  1  0
  1 21  1  0
  1 22  1  0
  4 23  1  0
  6 24  1  0
  6 25  1  0
  8 26  1  0
  8 27  1  0
  8 28  1  0
 13 29  1  0
 16 30  1  0
 16 31  1  0
 16 32  1  0
 17 33  1  0
 19 34  1  0
 19 35  1  0
 19 36  1  0
M  END
>  <UniqueID>  (17) 
16

>  <SMILES>  (17) 
Cc1ncc(CN(C)S(=O)(=O)c2cnn(C)c2)n1C

>  <Energy>  (17) 
87.65894791019676

>  <Genealogy>  (17) 
Cc1ncc(CN(C)S(=O)(=O)c2cnn(C)c2)n1C (3D coordinates assigned)
Cc1ncc(CN(C)S(=O)(=O)c2cnn(C)c2)n1C (optimized conformer: 87.65894791019676 kcal/mol)

>  <smiles>  (17) 
Cc1ncc(CN(C)S(=O)(=O)c2cnn(C)c2)n1C

>  <score_type>  (17) 
oracle

>  <origin>  (17) 
adg

>  <m_score__min__energy>  (17) 
-6.9900000000000002

>  <m_primary>  (17) 
energy

$$$$
17:0
     RDKit          3D

 33 34  0  0  0  0  0  0  0  0999 V2000
   -8.9359   22.6824  -29.9761 H   0  0  0  0  0  0  0  0  0  0  0  0
   -8.0050   22.4850  -30.5280 C   0  0  0  0  0  0  0  0  0  0  0  0
   -6.8190   23.1320  -30.1510 C   0  0  0  0  0  0  0  0  0  0  0  0
   -6.8079   23.8376  -29.3072 H   0  0  0  0  0  0  0  0  0  0  0  0
   -5.6550   22.8620  -30.8680 C   0  0  0  0  0  0  0  0  0  0  0  0
   -5.6500   21.9750  -31.9340 C   0  0  0  0  0  0  0  0  0  0  0  0
   -6.8240   21.3230  -32.3220 C   0  0  0  0  0  0  0  0  0  0  0  0
   -6.8209   20.6196  -33.1677 H   0  0  0  0  0  0  0  0  0  0  0  0
   -8.0090   21.5830  -31.6110 C   0  0  0  0  0  0  0  0  0  0  0  0
   -9.4980   20.7810  -32.0740 Cl  0  0  0  0  0  0  0  0  0  0  0  0
   -4.3170   21.8510  -32.5410 C   0  0  0  0  0  0  0  0  0  0  0  0
   -4.0730   21.0730  -33.5540 N   0  0  0  0  0  0  0  0  0  0  0  0
   -3.3470   19.8050  -33.4890 C   0  0  0  0  0  0  0  0  0  0  0  0
   -2.3710   19.9751  -33.0109 H   0  0  0  0  0  0  0  0  0  0  0  0
   -3.2180   19.4261  -34.5136 H   0  0  0  0  0  0  0  0  0  0  0  0
   -4.1240   18.7580  -32.6800 C   0  0  0  0  0  0  0  0  0  0  0  0
   -4.8999   19.2678  -32.0901 H   0  0  0  0  0  0  0  0  0  0  0  0
   -3.4116   18.2331  -32.0266 H   0  0  0  0  0  0  0  0  0  0  0  0
   -4.7950   17.7160  -33.5900 C   0  0  0  0  0  0  0  0  0  0  0  0
   -4.7060   16.7261  -33.1187 H   0  0  0  0  0  0  0  0  0  0  0  0
   -4.2867   17.7460  -34.5650 H   0  0  0  0  0  0  0  0  0  0  0  0
   -6.2850   18.0170  -33.8290 C   0  0  0  0  0  0  0  0  0  0  0  0
   -6.7876   18.1139  -32.8553 H   0  0  0  0  0  0  0  0  0  0  0  0
   -6.7073   17.1883  -34.4164 H   0  0  0  0  0  0  0  0  0  0  0  0
   -6.4840   19.2540  -34.5880 N   0  0  0  0  0  0  0  0  0  0  0  0
   -5.7060   19.9270  -34.3990 H   0  0  0  0  0  0  0  0  0  0  0  0
   -7.3850   19.6920  -34.2920 H   0  0  0  0  0  0  0  0  0  0  0  0
   -6.5390   19.0490  -35.6100 H   0  0  0  0  0  0  0  0  0  0  0  0
   -3.3270   22.6660  -31.8980 N   0  0  0  0  0  0  0  0  0  0  0  0
   -2.3060   22.6940  -32.1130 H   0  0  0  0  0  0  0  0  0  0  0  0
   -4.0720   23.5300  -30.6070 S   0  0  0  0  0  0  0  0  0  0  0  0
   -4.0290   25.0140  -30.8370 O   0  0  0  0  0  0  0  0  0  0  0  0
   -3.4960   23.1380  -29.2760 O   0  0  0  0  0  0  0  0  0  0  0  0
  1  2  1  0
  2  3  2  0
  3  4  1  0
  3  5  1  0
  5  6  2  0
  6  7  1  0
  7  8  1  0
  7  9  2  0
  9 10  1  0
  6 11  1  0
 11 12  2  0
 12 13  1  0
 13 14  1  0
 13 15  1  0
 13 16  1  0
 16 17  1  0
 16 18  1  0
 16 19  1  0
 19 20  1  0
 19 21  1  0
 19 22  1  0
 22 23  1  0
 22 24  1  0
 22 25  1  0
 25 26  1  0
 25 27  1  0
 25 28  1  0
 11 29  1  0
 29 30  1  0
 29 31  1  0
 31 32  2  0
 31 33  2  0
  9  2  1  0
 31  5  1  0
M  CHG  1  25   1
M  END
>  <UniqueID>  (18) 
17

>  <SMILES>  (18) 
[NH3+]CCCC/N=C1\NS(=O)(=O)c2ccc(Cl)cc21

>  <Energy>  (18) 
48.40330334847622

>  <Genealogy>  (18) 
[NH3+]CCCCN=C1NS(=O)(=O)c2ccc(Cl)cc21 (protonated)
[NH3+]CCCC/N=C1\NS(=O)(=O)c2ccc(Cl)cc21 (cis-trans isomerization)
[NH3+]CCCC/N=C1\NS(=O)(=O)c2ccc(Cl)cc21 (3D coordinates assigned)
[NH3+]CCCC/N=C1\NS(=O)(=O)c2ccc(Cl)cc21 (nonaromatic ring conformer: 48.40330334847622 kcal/mol)

>  <smiles>  (18) 
NCCCCN=C1NS(=O)(=O)c2ccc(Cl)cc21

>  <score_type>  (18) 
oracle

>  <origin>  (18) 
adg

>  <m_score__min__energy>  (18) 
-7.3399999999999999

>  <m_primary>  (18) 
energy

$$$$
18:0
     RDKit          3D

 30 31  0  0  0  0  0  0  0  0999 V2000
   -3.2720   21.1640  -32.9880 C   0  0  0  0  0  0  0  0  0  0  0  0
   -4.5130   20.7820  -32.2910 N   0  0  1  0  0  0  0  0  0  0  0  0
   -4.5770   21.2670  -30.8870 C   0  0  0  0  0  0  0  0  0  0  0  0
   -4.9070   22.7360  -30.7230 C   0  0  0  0  0  0  0  0  0  0  0  0
   -6.2320   23.1720  -30.5730 C   0  0  0  0  0  0  0  0  0  0  0  0
   -6.5140   24.5340  -30.4540 C   0  0  0  0  0  0  0  0  0  0  0  0
   -5.4700   25.4570  -30.5240 C   0  0  0  0  0  0  0  0  0  0  0  0
   -4.1970   25.0280  -30.7250 N   0  0  0  0  0  0  0  0  0  0  0  0
   -3.8980   23.7070  -30.8400 C   0  0  0  0  0  0  0  0  0  0  0  0
   -5.7500   20.9940  -33.0900 C   0  0  0  0  0  0  0  0  0  0  0  0
   -6.9360   20.1340  -32.7050 C   0  0  0  0  0  0  0  0  0  0  0  0
   -8.1850   20.6710  -32.3500 C   0  0  0  0  0  0  0  0  0  0  0  0
   -9.1110   19.7220  -31.9440 C   0  0  0  0  0  0  0  0  0  0  0  0
   -8.3630   18.2210  -31.9690 S   0  0  0  0  0  0  0  0  0  0  0  0
   -6.8630   18.7570  -32.5030 C   0  0  0  0  0  0  0  0  0  0  0  0
   -2.4944   21.4033  -32.2476 H   0  0  0  0  0  0  0  0  0  0  0  0
   -2.9334   20.3285  -33.6183 H   0  0  0  0  0  0  0  0  0  0  0  0
   -3.4619   22.0453  -33.6183 H   0  0  0  0  0  0  0  0  0  0  0  0
   -4.4440   19.7380  -32.1960 H   0  0  0  0  0  0  0  0  0  0  0  0
   -5.3483   20.6849  -30.3614 H   0  0  0  0  0  0  0  0  0  0  0  0
   -3.5662   21.1348  -30.4737 H   0  0  0  0  0  0  0  0  0  0  0  0
   -7.0512   22.4383  -30.5491 H   0  0  0  0  0  0  0  0  0  0  0  0
   -7.5490   24.8762  -30.3065 H   0  0  0  0  0  0  0  0  0  0  0  0
   -5.6778   26.5318  -30.4164 H   0  0  0  0  0  0  0  0  0  0  0  0
   -2.8594   23.3960  -31.0259 H   0  0  0  0  0  0  0  0  0  0  0  0
   -6.0467   22.0475  -32.9804 H   0  0  0  0  0  0  0  0  0  0  0  0
   -5.4940   20.7076  -34.1207 H   0  0  0  0  0  0  0  0  0  0  0  0
   -8.4081   21.7474  -32.3905 H   0  0  0  0  0  0  0  0  0  0  0  0
  -10.1541   19.9192  -31.6558 H   0  0  0  0  0  0  0  0  0  0  0  0
   -5.9750   18.1285  -32.6654 H   0  0  0  0  0  0  0  0  0  0  0  0
  1  2  1  0
  2  3  1  0
  3  4  1  0
  4  5  2  0
  5  6  1  0
  6  7  2  0
  7  8  1  0
  8  9  2  0
  2 10  1  0
 10 11  1  0
 11 12  1  0
 12 13  2  0
 13 14  1  0
 14 15  1  0
  9  4  1  0
 15 11  2  0
  1 16  1  0
  1 17  1  0
  1 18  1  0
  2 19  1  1
  3 20  1  0
  3 21  1  0
  5 22  1  0
  6 23  1  0
  7 24  1  0
  9 25  1  0
 10 26  1  0
 10 27  1  0
 12 28  1  0
 13 29  1  0
 15 30  1  0
M  CHG  1   2   1
M  END
>  <UniqueID>  (19) 
18

>  <SMILES>  (19) 
C[N@@H+](Cc1cccnc1)Cc1ccsc1

>  <Energy>  (19) 
65.41428903376111

>  <Genealogy>  (19) 
C[NH+](Cc1cccnc1)Cc1ccsc1 (protonated)
C[N@@H+](Cc1cccnc1)Cc1ccsc1 (chirality)
C[N@@H+](Cc1cccnc1)Cc1ccsc1 (3D coordinates assigned)
C[N@@H+](Cc1cccnc1)Cc1ccsc1 (optimized conformer: 65.41428903376111 kcal/mol)

>  <smiles>  (19) 
CN(Cc1cccnc1)Cc1ccsc1

>  <score_type>  (19) 
oracle

>  <origin>  (19) 
adg

>  <m_score__min__energy>  (19) 
-5.6200000000000001

>  <m_primary>  (19) 
energy

$$$$
19:0
     RDKit          3D

 34 36  0  0  0  0  0  0  0  0999 V2000
   -8.5620   18.4900  -32.1790 O   0  0  0  0  0  0  0  0  0  0  0  0
   -7.6180   19.2270  -31.7820 C   0  0  0  0  0  0  0  0  0  0  0  0
   -6.3810   18.6330  -31.3570 N   0  0  0  0  0  0  0  0  0  0  0  0
   -6.1350   17.1950  -31.4390 C   0  0  0  0  0  0  0  0  0  0  0  0
   -5.3700   16.8680  -32.6920 C   0  0  0  0  0  0  0  0  0  0  0  0
   -4.5810   15.7080  -32.7500 C   0  0  0  0  0  0  0  0  0  0  0  0
   -3.8510   15.4090  -33.9060 C   0  0  0  0  0  0  0  0  0  0  0  0
   -3.9010   16.2690  -35.0070 C   0  0  0  0  0  0  0  0  0  0  0  0
   -3.1920   15.9790  -36.1260 F   0  0  0  0  0  0  0  0  0  0  0  0
   -4.6800   17.4280  -34.9550 C   0  0  0  0  0  0  0  0  0  0  0  0
   -5.4110   17.7300  -33.8020 C   0  0  0  0  0  0  0  0  0  0  0  0
   -7.7920   20.6960  -31.7570 C   0  0  0  0  0  0  0  0  0  0  0  0
   -9.0480   21.2810  -31.9850 C   0  0  0  0  0  0  0  0  0  0  0  0
   -9.1720   22.6700  -31.9560 C   0  0  0  0  0  0  0  0  0  0  0  0
   -8.0560   23.4670  -31.7030 C   0  0  0  0  0  0  0  0  0  0  0  0
   -6.8110   22.8570  -31.4790 C   0  0  0  0  0  0  0  0  0  0  0  0
   -5.5970   23.6520  -31.2070 C   0  0  0  0  0  0  0  0  0  0  0  0
   -4.3080   23.1740  -31.0900 C   0  0  0  0  0  0  0  0  0  0  0  0
   -3.4770   24.2030  -30.8430 N   0  0  0  0  0  0  0  0  0  0  0  0
   -4.1890   25.3200  -30.7970 N   0  0  0  0  0  0  0  0  0  0  0  0
   -5.4820   25.0150  -31.0150 C   0  0  0  0  0  0  0  0  0  0  0  0
   -6.7200   21.4990  -31.5130 N   0  0  0  0  0  0  0  0  0  0  0  0
   -5.6190   19.2370  -30.9730 H   0  0  0  0  0  0  0  0  0  0  0  0
   -5.5507   16.8761  -30.5632 H   0  0  0  0  0  0  0  0  0  0  0  0
   -7.0998   16.6671  -31.4602 H   0  0  0  0  0  0  0  0  0  0  0  0
   -4.5365   15.0317  -31.8836 H   0  0  0  0  0  0  0  0  0  0  0  0
   -3.2376   14.4969  -33.9483 H   0  0  0  0  0  0  0  0  0  0  0  0
   -4.7181   18.1036  -35.8223 H   0  0  0  0  0  0  0  0  0  0  0  0
   -6.0202   18.6451  -33.7632 H   0  0  0  0  0  0  0  0  0  0  0  0
   -9.9263   20.6495  -32.1847 H   0  0  0  0  0  0  0  0  0  0  0  0
  -10.1518   23.1376  -32.1330 H   0  0  0  0  0  0  0  0  0  0  0  0
   -8.1499   24.5627  -31.6791 H   0  0  0  0  0  0  0  0  0  0  0  0
   -4.0077   22.1200  -31.1837 H   0  0  0  0  0  0  0  0  0  0  0  0
   -6.3131   25.7353  -31.0367 H   0  0  0  0  0  0  0  0  0  0  0  0
  1  2  2  0
  2  3  1  0
  3  4  1  0
  4  5  1  0
  5  6  2  0
  6  7  1  0
  7  8  2  0
  8  9  1  0
  8 10  1  0
 10 11  2  0
  2 12  1  0
 12 13  2  0
 13 14  1  0
 14 15  2  0
 15 16  1  0
 16 17  1  0
 17 18  1  0
 18 19  2  0
 19 20  1  0
 20 21  1  0
 16 22  2  0
 11  5  1  0
 22 12  1  0
 21 17  2  0
  3 23  1  0
  4 24  1  0
  4 25  1  0
  6 26  1  0
  7 27  1  0
 10 28  1  0
 11 29  1  0
 13 30  1  0
 14 31  1  0
 15 32  1  0
 18 33  1  0
 21 34  1  0
M  CHG  1  20  -1
M  END
>  <UniqueID>  (20) 
19

>  <SMILES>  (20) 
O=C(NCc1ccc(F)cc1)c1cccc(-c2cn[n-]c2)n1

>  <Energy>  (20) 
64.96851483453086

>  <Genealogy>  (20) 
O=C(NCc1ccc(F)cc1)c1cccc(-c2cn[n-]c2)n1 (protonated)
O=C(NCc1ccc(F)cc1)c1cccc(-c2cn[n-]c2)n1 (3D coordinates assigned)
O=C(NCc1ccc(F)cc1)c1cccc(-c2cn[n-]c2)n1 (optimized conformer: 64.96851483453086 kcal/mol)

>  <smiles>  (20) 
O=C(NCc1ccc(F)cc1)c1cccc(-c2cn[nH]c2)n1

>  <score_type>  (20) 
oracle

>  <origin>  (20) 
adg

>  <m_score__min__energy>  (20) 
-9.75

>  <m_primary>  (20) 
energy

$$$$
20:0
     RDKit          3D

 26 28  0  0  0  0  0  0  0  0999 V2000
   -6.8070   25.0620  -30.0120 C   0  0  0  0  0  0  0  0  0  0  0  0
   -7.2050   23.8220  -30.4900 C   0  0  0  0  0  0  0  0  0  0  0  0
   -6.1880   23.1240  -31.1680 C   0  0  0  0  0  0  0  0  0  0  0  0
   -6.3650   21.7850  -31.7660 C   0  0  0  0  0  0  0  0  0  0  0  0
   -5.5220   21.1770  -32.7010 C   0  0  0  0  0  0  0  0  0  0  0  0
   -5.9640   19.9070  -33.0880 C   0  0  0  0  0  0  0  0  0  0  0  0
   -7.1170   19.4990  -32.4400 C   0  0  0  0  0  0  0  0  0  0  0  0
   -7.6400   20.7270  -31.4230 S   0  0  0  0  0  0  0  0  0  0  0  0
   -7.8170   18.2110  -32.7310 C   0  0  0  0  0  0  0  0  0  0  0  0
   -6.8670   17.2520  -33.4730 C   0  0  0  0  0  0  0  0  0  0  0  0
   -6.1420   17.9460  -34.5570 N   0  0  0  0  0  0  0  0  0  0  0  0
   -5.2410   18.9940  -34.0370 C   0  0  0  0  0  0  0  0  0  0  0  0
   -4.9850   23.8260  -31.2190 C   0  0  0  0  0  0  0  0  0  0  0  0
   -5.1980   25.2930  -30.4290 S   0  0  0  0  0  0  0  0  0  0  0  0
   -7.4373   25.7714  -29.4557 H   0  0  0  0  0  0  0  0  0  0  0  0
   -8.2203   23.4217  -30.3521 H   0  0  0  0  0  0  0  0  0  0  0  0
   -4.6075   21.6475  -33.0914 H   0  0  0  0  0  0  0  0  0  0  0  0
   -8.1366   17.7483  -31.7856 H   0  0  0  0  0  0  0  0  0  0  0  0
   -8.6946   18.4114  -33.3632 H   0  0  0  0  0  0  0  0  0  0  0  0
   -6.1374   16.8454  -32.7571 H   0  0  0  0  0  0  0  0  0  0  0  0
   -7.4671   16.4448  -33.9183 H   0  0  0  0  0  0  0  0  0  0  0  0
   -6.8280   18.3720  -35.2230 H   0  0  0  0  0  0  0  0  0  0  0  0
   -5.5700   17.2430  -35.0820 H   0  0  0  0  0  0  0  0  0  0  0  0
   -4.4027   18.5170  -33.5081 H   0  0  0  0  0  0  0  0  0  0  0  0
   -4.8738   19.5911  -34.8847 H   0  0  0  0  0  0  0  0  0  0  0  0
   -4.0559   23.4790  -31.6948 H   0  0  0  0  0  0  0  0  0  0  0  0
  1  2  2  0
  2  3  1  0
  3  4  1  0
  4  5  2  0
  5  6  1  0
  6  7  2  0
  7  8  1  0
  7  9  1  0
  9 10  1  0
 10 11  1  0
 11 12  1  0
  3 13  2  0
 13 14  1  0
 14  1  1  0
  8  4  1  0
 12  6  1  0
  1 15  1  0
  2 16  1  0
  5 17  1  0
  9 18  1  0
  9 19  1  0
 10 20  1  0
 10 21  1  0
 11 22  1  0
 11 23  1  0
 12 24  1  0
 12 25  1  0
 13 26  1  0
M  CHG  1  11   1
M  END
>  <UniqueID>  (21) 
20

>  <SMILES>  (21) 
c1cc(-c2cc3c(s2)CC[NH2+]C3)cs1

>  <Energy>  (21) 
81.22206719815394

>  <Genealogy>  (21) 
c1cc(-c2cc3c(s2)CC[NH2+]C3)cs1 (protonated)
c1cc(-c2cc3c(s2)CC[NH2+]C3)cs1 (3D coordinates assigned)
c1cc(-c2cc3c(s2)CC[NH2+]C3)cs1 (nonaromatic ring conformer: 81.22206719815394 kcal/mol)

>  <smiles>  (21) 
c1cc(-c2cc3c(s2)CCNC3)cs1

>  <score_type>  (21) 
oracle

>  <origin>  (21) 
adg

>  <m_score__min__energy>  (21) 
-6.0199999999999996

>  <m_primary>  (21) 
energy

$$$$
21:0
     RDKit          3D

 66 70  0  0  0  0  0  0  0  0999 V2000
   -9.0032   21.8551  -31.5813 H   0  0  0  0  0  0  0  0  0  0  0  0
   -8.1120   22.4460  -31.3230 C   0  0  0  0  0  0  0  0  0  0  0  0
   -7.5810   22.3830  -30.0320 C   0  0  0  0  0  0  0  0  0  0  0  0
   -8.0567   21.7435  -29.2739 H   0  0  0  0  0  0  0  0  0  0  0  0
   -6.4460   23.1310  -29.7010 C   0  0  0  0  0  0  0  0  0  0  0  0
   -6.0354   23.0789  -28.6818 H   0  0  0  0  0  0  0  0  0  0  0  0
   -5.8250   23.9510  -30.6650 C   0  0  0  0  0  0  0  0  0  0  0  0
   -4.6000   24.7110  -30.3270 C   0  0  0  0  0  0  0  0  0  0  0  0
   -4.2320   25.6730  -31.0570 O   0  0  0  0  0  0  0  0  0  0  0  0
   -3.7890   24.3130  -29.2110 N   0  0  0  0  0  0  0  0  0  0  0  0
   -3.1010   23.2110  -29.0860 C   0  0  0  0  0  0  0  0  0  0  0  0
   -3.5200   22.2580  -28.0330 C   0  0  0  0  0  0  0  0  0  0  0  0
   -4.7020   22.3050  -27.5980 O   0  0  0  0  0  0  0  0  0  0  0  0
   -2.6270   21.2550  -27.5220 N   0  0  0  0  0  0  0  0  0  0  0  0
   -1.4170   21.6390  -26.7890 C   0  0  0  0  0  0  0  0  0  0  0  0
   -0.5450   21.5146  -27.4479 H   0  0  0  0  0  0  0  0  0  0  0  0
   -1.5219   22.6875  -26.4734 H   0  0  0  0  0  0  0  0  0  0  0  0
   -1.2210   20.7670  -25.5240 C   0  0  0  0  0  0  0  0  0  0  0  0
   -0.1736   20.4322  -25.4962 H   0  0  0  0  0  0  0  0  0  0  0  0
   -1.4937   21.3965  -24.6642 H   0  0  0  0  0  0  0  0  0  0  0  0
   -2.0550   19.6200  -25.4660 O   0  0  0  0  0  0  0  0  0  0  0  0
   -2.1260   18.9890  -26.7280 C   0  0  0  0  0  0  0  0  0  0  0  0
   -1.1139   18.8871  -27.1465 H   0  0  0  0  0  0  0  0  0  0  0  0
   -2.5745   17.9905  -26.6188 H   0  0  0  0  0  0  0  0  0  0  0  0
   -2.9830   19.8390  -27.6630 C   0  0  0  0  0  0  0  0  0  0  0  0
   -2.8120   19.5222  -28.7024 H   0  0  0  0  0  0  0  0  0  0  0  0
   -4.0432   19.7057  -27.4018 H   0  0  0  0  0  0  0  0  0  0  0  0
   -1.9130   22.8900  -29.9760 C   0  0  0  0  0  0  0  0  0  0  0  0
   -1.1554   22.3545  -29.3850 H   0  0  0  0  0  0  0  0  0  0  0  0
   -1.5028   23.8333  -30.3657 H   0  0  0  0  0  0  0  0  0  0  0  0
   -2.3250   22.0330  -31.1370 C   0  0  0  0  0  0  0  0  0  0  0  0
   -3.6040   21.9220  -31.6710 C   0  0  0  0  0  0  0  0  0  0  0  0
   -4.4904   22.4535  -31.2945 H   0  0  0  0  0  0  0  0  0  0  0  0
   -3.6030   21.0660  -32.7210 N   0  0  0  0  0  0  0  0  0  0  0  0
   -4.7570   20.7590  -33.5690 C   0  0  0  0  0  0  0  0  0  0  0  0
   -5.2690   21.6945  -33.8388 H   0  0  0  0  0  0  0  0  0  0  0  0
   -4.4088   20.2464  -34.4778 H   0  0  0  0  0  0  0  0  0  0  0  0
   -5.7160   19.8610  -32.8350 C   0  0  0  0  0  0  0  0  0  0  0  0
   -7.0950   19.9300  -33.1020 C   0  0  0  0  0  0  0  0  0  0  0  0
   -7.4751   20.6500  -33.8416 H   0  0  0  0  0  0  0  0  0  0  0  0
   -7.9840   19.0860  -32.4300 C   0  0  0  0  0  0  0  0  0  0  0  0
   -9.0627   19.1497  -32.6357 H   0  0  0  0  0  0  0  0  0  0  0  0
   -7.5060   18.1620  -31.4980 C   0  0  0  0  0  0  0  0  0  0  0  0
   -8.2085   17.5048  -30.9645 H   0  0  0  0  0  0  0  0  0  0  0  0
   -6.1360   18.0730  -31.2440 C   0  0  0  0  0  0  0  0  0  0  0  0
   -5.7593   17.3376  -30.5179 H   0  0  0  0  0  0  0  0  0  0  0  0
   -5.2420   18.9160  -31.9100 C   0  0  0  0  0  0  0  0  0  0  0  0
   -4.1632   18.8392  -31.7091 H   0  0  0  0  0  0  0  0  0  0  0  0
   -2.3260   20.6560  -32.8760 C   0  0  0  0  0  0  0  0  0  0  0  0
   -1.8090   19.7810  -33.8370 C   0  0  0  0  0  0  0  0  0  0  0  0
   -2.4656   19.3239  -34.5920 H   0  0  0  0  0  0  0  0  0  0  0  0
   -0.4300   19.4980  -33.8170 C   0  0  0  0  0  0  0  0  0  0  0  0
    0.0770   18.6200  -34.7880 O   0  0  0  0  0  0  0  0  0  0  0  0
    0.6170   19.0350  -36.0390 C   0  0  0  0  0  0  0  0  0  0  0  0
    1.4782   19.6969  -35.8652 H   0  0  0  0  0  0  0  0  0  0  0  0
    0.9422   18.1522  -36.6090 H   0  0  0  0  0  0  0  0  0  0  0  0
   -0.1524   19.5764  -36.6090 H   0  0  0  0  0  0  0  0  0  0  0  0
    0.3980   20.1020  -32.8310 C   0  0  0  0  0  0  0  0  0  0  0  0
    1.4753   19.8803  -32.8137 H   0  0  0  0  0  0  0  0  0  0  0  0
   -0.1480   20.9800  -31.8780 C   0  0  0  0  0  0  0  0  0  0  0  0
    0.4883   21.4553  -31.1169 H   0  0  0  0  0  0  0  0  0  0  0  0
   -1.5180   21.2310  -31.9250 C   0  0  0  0  0  0  0  0  0  0  0  0
   -6.3730   24.0080  -31.9620 C   0  0  0  0  0  0  0  0  0  0  0  0
   -5.9033   24.6452  -32.7258 H   0  0  0  0  0  0  0  0  0  0  0  0
   -7.5100   23.2600  -32.2850 C   0  0  0  0  0  0  0  0  0  0  0  0
   -7.9312   23.3131  -33.2998 H   0  0  0  0  0  0  0  0  0  0  0  0
  1  2  1  0
  2  3  2  0
  3  4  1  0
  3  5  1  0
  5  6  1  0
  5  7  2  0
  7  8  1  0
  8  9  2  0
  8 10  1  0
 10 11  2  0
 11 12  1  0
 12 13  2  0
 12 14  1  0
 14 15  1  0
 15 16  1  0
 15 17  1  0
 15 18  1  0
 18 19  1  0
 18 20  1  0
 18 21  1  0
 21 22  1  0
 22 23  1  0
 22 24  1  0
 22 25  1  0
 25 26  1  0
 25 27  1  0
 11 28  1  0
 28 29  1  0
 28 30  1  0
 28 31  1  0
 31 32  2  0
 32 33  1  0
 32 34  1  0
 34 35  1  0
 35 36  1  0
 35 37  1  0
 35 38  1  0
 38 39  2  0
 39 40  1  0
 39 41  1  0
 41 42  1  0
 41 43  2  0
 43 44  1  0
 43 45  1  0
 45 46  1  0
 45 47  2  0
 47 48  1  0
 34 49  1  0
 49 50  2  0
 50 51  1  0
 50 52  1  0
 52 53  1  0
 53 54  1  0
 54 55  1  0
 54 56  1  0
 54 57  1  0
 52 58  2  0
 58 59  1  0
 58 60  1  0
 60 61  1  0
 60 62  2  0
  7 63  1  0
 63 64  1  0
 63 65  2  0
 65 66  1  0
 65  2  1  0
 25 14  1  0
 62 31  1  0
 47 38  1  0
 62 49  1  0
M  END
>  <UniqueID>  (22) 
21

>  <SMILES>  (22) 
COc1ccc2c(C/C(=N\C(=O)c3ccccc3)C(=O)N3CCOCC3)cn(Cc3ccccc3)c2c1

>  <Energy>  (22) 
118.69450419960492

>  <Genealogy>  (22) 
COc1ccc2c(C/C(=N\C(=O)c3ccccc3)C(=O)N3CCOCC3)cn(Cc3ccccc3)c2c1 (cis-trans isomerization)
COc1ccc2c(C/C(=N\C(=O)c3ccccc3)C(=O)N3CCOCC3)cn(Cc3ccccc3)c2c1 (3D coordinates assigned)
COc1ccc2c(C/C(=N\C(=O)c3ccccc3)C(=O)N3CCOCC3)cn(Cc3ccccc3)c2c1 (nonaromatic ring conformer: 118.69450419960492 kcal/mol)

>  <smiles>  (22) 
COc1ccc2c(CC(=NC(=O)c3ccccc3)C(=O)N3CCOCC3)cn(Cc3ccccc3)c2c1

>  <score_type>  (22) 
oracle

>  <origin>  (22) 
adg

>  <m_score__min__energy>  (22) 
-11.119999999999999

>  <m_primary>  (22) 
energy

$$$$
22:0
     RDKit          3D

 71 73  0  0  0  0  0  0  0  0999 V2000
   -8.7480   18.7540  -31.6080 C   0  0  0  0  0  0  0  0  0  0  0  0
   -9.0400   19.9520  -32.5160 C   0  0  0  0  0  0  0  0  0  0  0  0
   -8.7040   21.3010  -31.8600 C   0  0  0  0  0  0  0  0  0  0  0  0
   -7.4580   21.2920  -30.9580 C   0  0  0  0  0  0  0  0  0  0  0  0
   -6.3230   22.0080  -31.5650 N   0  0  0  0  0  0  0  0  0  0  0  0
   -6.5490   23.2480  -32.3220 C   0  0  0  0  0  0  0  0  0  0  0  0
   -6.1120   24.4800  -31.5200 C   0  0  0  0  0  0  0  0  0  0  0  0
   -6.4590   24.3720  -30.0250 C   0  0  0  0  0  0  0  0  0  0  0  0
   -6.3970   25.7190  -29.3040 C   0  0  0  0  0  0  0  0  0  0  0  0
   -5.0790   21.3170  -31.7740 C   0  0  0  0  0  0  0  0  0  0  0  0
   -4.8530   20.2560  -32.6460 C   0  0  0  0  0  0  0  0  0  0  0  0
   -5.8630   19.5300  -33.4730 C   0  0  0  0  0  0  0  0  0  0  0  0
   -3.5240   20.0060  -32.6940 N   0  0  0  0  0  0  0  0  0  0  0  0
   -2.9700   20.9350  -31.8900 C   0  0  0  0  0  0  0  0  0  0  0  0
   -1.6080   21.1460  -31.6930 C   0  0  0  0  0  0  0  0  0  0  0  0
   -1.2270   22.2160  -30.8730 C   0  0  0  0  0  0  0  0  0  0  0  0
   -2.2000   23.0360  -30.2490 C   0  0  0  0  0  0  0  0  0  0  0  0
   -1.8090   24.1830  -29.3990 C   0  0  0  0  0  0  0  0  0  0  0  0
   -2.6060   25.1500  -29.2720 O   0  0  0  0  0  0  0  0  0  0  0  0
   -0.5390   24.2500  -28.7380 N   0  0  0  0  0  0  0  0  0  0  0  0
   -0.2720   23.8740  -27.3520 C   0  0  0  0  0  0  0  0  0  0  0  0
   -1.5670   23.4060  -26.6890 C   0  0  0  0  0  0  0  0  0  0  0  0
   -1.7270   21.9480  -26.8710 N   0  0  0  0  0  0  0  0  0  0  0  0
   -2.9890   21.6250  -27.5670 C   0  0  0  0  0  0  0  0  0  0  0  0
   -3.0240   20.1590  -28.0580 C   0  0  0  0  0  0  0  0  0  0  0  0
   -2.0350   19.3020  -27.3720 N   0  0  0  0  0  0  0  0  0  0  0  0
   -2.4070   19.0420  -25.9680 C   0  0  0  0  0  0  0  0  0  0  0  0
   -0.6520   19.8180  -27.5050 C   0  0  0  0  0  0  0  0  0  0  0  0
   -0.5790   21.3560  -27.5780 C   0  0  0  0  0  0  0  0  0  0  0  0
   -3.5610   22.7920  -30.5230 C   0  0  0  0  0  0  0  0  0  0  0  0
   -3.8840   21.7460  -31.3280 N   0  0  0  0  0  0  0  0  0  0  0  0
   -8.8237   19.0646  -30.5555 H   0  0  0  0  0  0  0  0  0  0  0  0
   -9.4779   17.9557  -31.8081 H   0  0  0  0  0  0  0  0  0  0  0  0
   -7.7327   18.3811  -31.8081 H   0  0  0  0  0  0  0  0  0  0  0  0
   -8.4418   19.8501  -33.4335 H   0  0  0  0  0  0  0  0  0  0  0  0
  -10.1197   19.9491  -32.7263 H   0  0  0  0  0  0  0  0  0  0  0  0
   -8.5411   22.0384  -32.6598 H   0  0  0  0  0  0  0  0  0  0  0  0
   -9.5547   21.5461  -31.2072 H   0  0  0  0  0  0  0  0  0  0  0  0
   -7.7099   21.7743  -30.0020 H   0  0  0  0  0  0  0  0  0  0  0  0
   -7.1558   20.2444  -30.8123 H   0  0  0  0  0  0  0  0  0  0  0  0
   -5.9718   23.2066  -33.2575 H   0  0  0  0  0  0  0  0  0  0  0  0
   -7.6254   23.3348  -32.5313 H   0  0  0  0  0  0  0  0  0  0  0  0
   -5.0228   24.5966  -31.6205 H   0  0  0  0  0  0  0  0  0  0  0  0
   -6.6542   25.3476  -31.9240 H   0  0  0  0  0  0  0  0  0  0  0  0
   -7.4777   23.9684  -29.9288 H   0  0  0  0  0  0  0  0  0  0  0  0
   -5.7130   23.7118  -29.5585 H   0  0  0  0  0  0  0  0  0  0  0  0
   -6.4046   25.5535  -28.2165 H   0  0  0  0  0  0  0  0  0  0  0  0
   -5.4737   26.2450  -29.5884 H   0  0  0  0  0  0  0  0  0  0  0  0
   -7.2681   26.3276  -29.5884 H   0  0  0  0  0  0  0  0  0  0  0  0
   -6.5772   19.0166  -32.8124 H   0  0  0  0  0  0  0  0  0  0  0  0
   -6.4020   20.2486  -34.1078 H   0  0  0  0  0  0  0  0  0  0  0  0
   -5.3536   18.7901  -34.1078 H   0  0  0  0  0  0  0  0  0  0  0  0
   -3.0310   19.2930  -33.2770 H   0  0  0  0  0  0  0  0  0  0  0  0
   -0.8572   20.4951  -32.1648 H   0  0  0  0  0  0  0  0  0  0  0  0
   -0.1587   22.4224  -30.7113 H   0  0  0  0  0  0  0  0  0  0  0  0
    0.4661   23.0587  -27.3296 H   0  0  0  0  0  0  0  0  0  0  0  0
    0.1235   24.7440  -26.8073 H   0  0  0  0  0  0  0  0  0  0  0  0
   -1.5309   23.6376  -25.6143 H   0  0  0  0  0  0  0  0  0  0  0  0
   -2.4191   23.9245  -27.1527 H   0  0  0  0  0  0  0  0  0  0  0  0
   -3.8277   21.7870  -26.8740 H   0  0  0  0  0  0  0  0  0  0  0  0
   -3.0669   22.2791  -28.4479 H   0  0  0  0  0  0  0  0  0  0  0  0
   -4.0292   19.7511  -27.8756 H   0  0  0  0  0  0  0  0  0  0  0  0
   -2.7733   20.1622  -29.1290 H   0  0  0  0  0  0  0  0  0  0  0  0
   -1.6906   19.5427  -25.3001 H   0  0  0  0  0  0  0  0  0  0  0  0
   -3.4184   19.4309  -25.7786 H   0  0  0  0  0  0  0  0  0  0  0  0
   -2.3893   17.9586  -25.7786 H   0  0  0  0  0  0  0  0  0  0  0  0
   -0.0688   19.4818  -26.6350 H   0  0  0  0  0  0  0  0  0  0  0  0
   -0.2483   19.4276  -28.4509 H   0  0  0  0  0  0  0  0  0  0  0  0
    0.3546   21.6992  -27.1084 H   0  0  0  0  0  0  0  0  0  0  0  0
   -0.6030   21.6693  -28.6322 H   0  0  0  0  0  0  0  0  0  0  0  0
   -4.3445   23.4343  -30.0945 H   0  0  0  0  0  0  0  0  0  0  0  0
  1  2  1  0
  2  3  1  0
  3  4  1  0
  4  5  1  0
  5  6  1  0
  6  7  1  0
  7  8  1  0
  8  9  1  0
  5 10  1  0
 10 11  2  0
 11 12  1  0
 11 13  1  0
 13 14  2  0
 14 15  1  0
 15 16  2  0
 16 17  1  0
 17 18  1  0
 18 19  2  0
 18 20  1  0
 20 21  1  0
 21 22  1  0
 22 23  1  0
 23 24  1  0
 24 25  1  0
 25 26  1  0
 26 27  1  0
 26 28  1  0
 28 29  1  0
 17 30  2  0
 30 31  1  0
 31 10  1  0
 31 14  1  0
 29 23  1  0
  1 32  1  0
  1 33  1  0
  1 34  1  0
  2 35  1  0
  2 36  1  0
  3 37  1  0
  3 38  1  0
  4 39  1  0
  4 40  1  0
  6 41  1  0
  6 42  1  0
  7 43  1  0
  7 44  1  0
  8 45  1  0
  8 46  1  0
  9 47  1  0
  9 48  1  0
  9 49  1  0
 12 50  1  0
 12 51  1  0
 12 52  1  0
 13 53  1  0
 15 54  1  0
 16 55  1  0
 21 56  1  0
 21 57  1  0
 22 58  1  0
 22 59  1  0
 24 60  1  0
 24 61  1  0
 25 62  1  0
 25 63  1  0
 27 64  1  0
 27 65  1  0
 27 66  1  0
 28 67  1  0
 28 68  1  0
 29 69  1  0
 29 70  1  0
 30 71  1  0
M  CHG  2  13   1  20  -1
M  END
>  <UniqueID>  (23) 
22

>  <SMILES>  (23) 
CCCCN(CCCC)c1c(C)[nH+]c2ccc(C(=O)[N-]CCN3CCN(C)CC3)cn12

>  <Energy>  (23) 
112.22589309316741

>  <Genealogy>  (23) 
CCCCN(CCCC)c1c(C)[nH+]c2ccc(C(=O)[N-]CCN3CCN(C)CC3)cn12 (protonated)
CCCCN(CCCC)c1c(C)[nH+]c2ccc(C(=O)[N-]CCN3CCN(C)CC3)cn12 (3D coordinates assigned)
CCCCN(CCCC)c1c(C)[nH+]c2ccc(C(=O)[N-]CCN3CCN(C)CC3)cn12 (nonaromatic ring conformer: 112.22589309316741 kcal/mol)

>  <smiles>  (23) 
CCCCN(CCCC)c1c(C)nc2ccc(C(=O)NCCN3CCN(C)CC3)cn12

>  <score_type>  (23) 
oracle

>  <origin>  (23) 
adg

>  <m_score__min__energy>  (23) 
-9.2300000000000004

>  <m_primary>  (23) 
energy

$$$$
23:0
     RDKit          3D

 47 50  0  0  0  0  0  0  0  0999 V2000
   -4.9850   17.7460  -33.8110 C   0  0  0  0  0  0  0  0  0  0  0  0
   -4.8620   18.0320  -32.4230 O   0  0  0  0  0  0  0  0  0  0  0  0
   -5.9400   17.9450  -31.5360 C   0  0  0  0  0  0  0  0  0  0  0  0
   -6.1120   16.9110  -30.8330 O   0  0  0  0  0  0  0  0  0  0  0  0
   -6.8750   19.1010  -31.3980 C   0  0  0  0  0  0  0  0  0  0  0  0
   -7.4160   19.7020  -33.0340 S   0  0  0  0  0  0  0  0  0  0  0  0
   -7.4630   21.4350  -32.5630 C   0  0  0  0  0  0  0  0  0  0  0  0
   -8.6040   22.1110  -32.3330 N   0  0  0  0  0  0  0  0  0  0  0  0
   -8.2570   23.3240  -31.9220 N   0  0  0  0  0  0  0  0  0  0  0  0
   -6.9110   23.3690  -31.9080 C   0  0  0  0  0  0  0  0  0  0  0  0
   -6.1370   24.5400  -31.3660 C   0  0  0  0  0  0  0  0  0  0  0  0
   -5.0080   24.0990  -30.4890 C   0  0  0  0  0  0  0  0  0  0  0  0
   -3.7340   24.5450  -30.6600 N   0  0  0  0  0  0  0  0  0  0  0  0
   -3.0900   23.9830  -29.6290 C   0  0  0  0  0  0  0  0  0  0  0  0
   -1.7520   24.1360  -29.2760 C   0  0  0  0  0  0  0  0  0  0  0  0
   -1.3050   23.4850  -28.1120 C   0  0  0  0  0  0  0  0  0  0  0  0
   -2.1990   22.7080  -27.3400 C   0  0  0  0  0  0  0  0  0  0  0  0
   -3.5470   22.5800  -27.7260 C   0  0  0  0  0  0  0  0  0  0  0  0
   -3.9520   23.2390  -28.8850 C   0  0  0  0  0  0  0  0  0  0  0  0
   -5.1860   23.2950  -29.4070 N   0  0  0  0  0  0  0  0  0  0  0  0
   -6.3820   22.1910  -32.3030 N   0  0  0  0  0  0  0  0  0  0  0  0
   -5.0090   21.7850  -32.3020 C   0  0  0  0  0  0  0  0  0  0  0  0
   -4.4820   21.1010  -31.2010 C   0  0  0  0  0  0  0  0  0  0  0  0
   -3.1670   20.6320  -31.2270 C   0  0  0  0  0  0  0  0  0  0  0  0
   -2.3590   20.8490  -32.3590 C   0  0  0  0  0  0  0  0  0  0  0  0
   -1.0400   20.3790  -32.4420 O   0  0  0  0  0  0  0  0  0  0  0  0
   -0.1770   20.6070  -33.5520 C   0  0  0  0  0  0  0  0  0  0  0  0
   -2.8890   21.5500  -33.4510 C   0  0  0  0  0  0  0  0  0  0  0  0
   -4.2070   22.0130  -33.4260 C   0  0  0  0  0  0  0  0  0  0  0  0
   -5.4165   16.7427  -33.9418 H   0  0  0  0  0  0  0  0  0  0  0  0
   -5.6419   18.4919  -34.2823 H   0  0  0  0  0  0  0  0  0  0  0  0
   -3.9917   17.7822  -34.2823 H   0  0  0  0  0  0  0  0  0  0  0  0
   -7.7566   18.7840  -30.8215 H   0  0  0  0  0  0  0  0  0  0  0  0
   -6.3498   19.9172  -30.8805 H   0  0  0  0  0  0  0  0  0  0  0  0
   -5.7293   25.1183  -32.2082 H   0  0  0  0  0  0  0  0  0  0  0  0
   -6.8215   25.1531  -30.7614 H   0  0  0  0  0  0  0  0  0  0  0  0
   -1.0683   24.7447  -29.8860 H   0  0  0  0  0  0  0  0  0  0  0  0
   -0.2543   23.5809  -27.8007 H   0  0  0  0  0  0  0  0  0  0  0  0
   -1.8394   22.2006  -26.4327 H   0  0  0  0  0  0  0  0  0  0  0  0
   -4.2549   21.9813  -27.1340 H   0  0  0  0  0  0  0  0  0  0  0  0
   -5.1062   20.9320  -30.3112 H   0  0  0  0  0  0  0  0  0  0  0  0
   -2.7610   20.0909  -30.3596 H   0  0  0  0  0  0  0  0  0  0  0  0
    0.8265   20.8721  -33.1878 H   0  0  0  0  0  0  0  0  0  0  0  0
   -0.1161   19.6941  -34.1627 H   0  0  0  0  0  0  0  0  0  0  0  0
   -0.5749   21.4308  -34.1627 H   0  0  0  0  0  0  0  0  0  0  0  0
   -2.2619   21.7372  -34.3352 H   0  0  0  0  0  0  0  0  0  0  0  0
   -4.6147   22.5573  -34.2906 H   0  0  0  0  0  0  0  0  0  0  0  0
  1  2  1  0
  2  3  1  0
  3  4  2  0
  3  5  1  0
  5  6  1  0
  6  7  1  0
  7  8  2  0
  8  9  1  0
  9 10  2  0
 10 11  1  0
 11 12  1  0
 12 13  2  0
 13 14  1  0
 14 15  2  0
 15 16  1  0
 16 17  2  0
 17 18  1  0
 18 19  2  0
 19 20  1  0
 10 21  1  0
 21 22  1  0
 22 23  2  0
 23 24  1  0
 24 25  2  0
 25 26  1  0
 26 27  1  0
 25 28  1  0
 28 29  2  0
 21  7  1  0
 29 22  1  0
 20 12  1  0
 19 14  1  0
  1 30  1  0
  1 31  1  0
  1 32  1  0
  5 33  1  0
  5 34  1  0
 11 35  1  0
 11 36  1  0
 15 37  1  0
 16 38  1  0
 17 39  1  0
 18 40  1  0
 23 41  1  0
 24 42  1  0
 27 43  1  0
 27 44  1  0
 27 45  1  0
 28 46  1  0
 29 47  1  0
M  CHG  1  20  -1
M  END
>  <UniqueID>  (24) 
23

>  <SMILES>  (24) 
COC(=O)CSc1nnc(Cc2nc3ccccc3[n-]2)n1-c1ccc(OC)cc1

>  <Energy>  (24) 
114.91111990526744

>  <Genealogy>  (24) 
COC(=O)CSc1nnc(Cc2nc3ccccc3[n-]2)n1-c1ccc(OC)cc1 (protonated)
COC(=O)CSc1nnc(Cc2nc3ccccc3[n-]2)n1-c1ccc(OC)cc1 (3D coordinates assigned)
COC(=O)CSc1nnc(Cc2nc3ccccc3[n-]2)n1-c1ccc(OC)cc1 (optimized conformer: 114.91111990526744 kcal/mol)

>  <smiles>  (24) 
COC(=O)CSc1nnc(Cc2nc3ccccc3[nH]2)n1-c1ccc(OC)cc1

>  <score_type>  (24) 
oracle

>  <origin>  (24) 
adg

>  <m_score__min__energy>  (24) 
-8.8000000000000007

>  <m_primary>  (24) 
energy

$$$$
24:0
     RDKit          3D

 52 54  0  0  0  0  0  0  0  0999 V2000
   -1.1830   26.1250  -28.2310 C   0  0  0  0  0  0  0  0  0  0  0  0
   -1.9720   25.3610  -29.1370 O   0  0  0  0  0  0  0  0  0  0  0  0
   -2.3400   24.0190  -28.9370 C   0  0  0  0  0  0  0  0  0  0  0  0
   -1.5900   23.1570  -28.1120 C   0  0  0  0  0  0  0  0  0  0  0  0
   -1.9820   21.8280  -27.9390 C   0  0  0  0  0  0  0  0  0  0  0  0
   -3.1270   21.3470  -28.5750 C   0  0  0  0  0  0  0  0  0  0  0  0
   -3.8810   22.1930  -29.3920 C   0  0  0  0  0  0  0  0  0  0  0  0
   -3.4870   23.5250  -29.5880 C   0  0  0  0  0  0  0  0  0  0  0  0
   -4.2900   24.4210  -30.4450 C   0  0  0  0  0  0  0  0  0  0  0  0
   -3.9960   25.6470  -30.4690 O   0  0  0  0  0  0  0  0  0  0  0  0
   -5.4410   23.9310  -31.3000 C   0  0  0  0  0  0  0  0  0  0  0  0
   -6.5380   23.2820  -30.4290 C   0  0  0  0  0  0  0  0  0  0  0  0
   -7.4320   22.3820  -31.2860 C   0  0  0  0  0  0  0  0  0  0  0  0
   -6.6790   21.2360  -31.8520 N   0  0  0  0  0  0  0  0  0  0  0  0
   -7.3980   20.6630  -33.0070 C   0  0  0  0  0  0  0  0  0  0  0  0
   -7.2650   19.1640  -33.0180 C   0  0  0  0  0  0  0  0  0  0  0  0
   -8.0240   18.2500  -32.3040 C   0  0  0  0  0  0  0  0  0  0  0  0
   -9.1200   18.5680  -31.3370 C   0  0  0  0  0  0  0  0  0  0  0  0
   -7.5640   17.0040  -32.5280 N   0  0  0  0  0  0  0  0  0  0  0  0
   -6.5540   17.0960  -33.3800 N   0  0  0  0  0  0  0  0  0  0  0  0
   -5.7880   15.9430  -33.8380 C   0  0  0  0  0  0  0  0  0  0  0  0
   -6.3470   18.3910  -33.7080 C   0  0  0  0  0  0  0  0  0  0  0  0
   -5.2460   18.8980  -34.5930 C   0  0  0  0  0  0  0  0  0  0  0  0
   -5.2550   21.5310  -32.1670 C   0  0  0  0  0  0  0  0  0  0  0  0
   -5.0030   23.0160  -32.4730 C   0  0  0  0  0  0  0  0  0  0  0  0
   -1.4539   25.8627  -27.1977 H   0  0  0  0  0  0  0  0  0  0  0  0
   -0.1180   25.9061  -28.3977 H   0  0  0  0  0  0  0  0  0  0  0  0
   -1.3675   27.1965  -28.3977 H   0  0  0  0  0  0  0  0  0  0  0  0
   -0.6911   23.5331  -27.6017 H   0  0  0  0  0  0  0  0  0  0  0  0
   -1.3869   21.1589  -27.3000 H   0  0  0  0  0  0  0  0  0  0  0  0
   -3.4362   20.3009  -28.4330 H   0  0  0  0  0  0  0  0  0  0  0  0
   -4.7883   21.8127  -29.8841 H   0  0  0  0  0  0  0  0  0  0  0  0
   -5.8706   24.8214  -31.7823 H   0  0  0  0  0  0  0  0  0  0  0  0
   -6.0655   22.6788  -29.6398 H   0  0  0  0  0  0  0  0  0  0  0  0
   -7.1538   24.0746  -29.9789 H   0  0  0  0  0  0  0  0  0  0  0  0
   -8.2516   21.9962  -30.6619 H   0  0  0  0  0  0  0  0  0  0  0  0
   -7.8205   22.9822  -32.1219 H   0  0  0  0  0  0  0  0  0  0  0  0
   -8.4626   20.9317  -32.9406 H   0  0  0  0  0  0  0  0  0  0  0  0
   -6.9629   21.0662  -33.9334 H   0  0  0  0  0  0  0  0  0  0  0  0
   -8.7448   18.4591  -30.3087 H   0  0  0  0  0  0  0  0  0  0  0  0
   -9.4603   19.6019  -31.4956 H   0  0  0  0  0  0  0  0  0  0  0  0
   -9.9609   17.8768  -31.4956 H   0  0  0  0  0  0  0  0  0  0  0  0
   -5.4151   15.3817  -32.9686 H   0  0  0  0  0  0  0  0  0  0  0  0
   -6.4336   15.2917  -34.4455 H   0  0  0  0  0  0  0  0  0  0  0  0
   -4.9374   16.2857  -34.4455 H   0  0  0  0  0  0  0  0  0  0  0  0
   -4.4215   19.2777  -33.9716 H   0  0  0  0  0  0  0  0  0  0  0  0
   -4.8791   18.0782  -35.2280 H   0  0  0  0  0  0  0  0  0  0  0  0
   -5.6304   19.7098  -35.2280 H   0  0  0  0  0  0  0  0  0  0  0  0
   -4.6377   21.2413  -31.3038 H   0  0  0  0  0  0  0  0  0  0  0  0
   -4.9924   20.9598  -33.0697 H   0  0  0  0  0  0  0  0  0  0  0  0
   -3.9286   23.1637  -32.6571 H   0  0  0  0  0  0  0  0  0  0  0  0
   -5.5981   23.2874  -33.3574 H   0  0  0  0  0  0  0  0  0  0  0  0
  1  2  1  0
  2  3  1  0
  3  4  2  0
  4  5  1  0
  5  6  2  0
  6  7  1  0
  7  8  2  0
  8  9  1  0
  9 10  2  0
  9 11  1  0
 11 12  1  0
 12 13  1  0
 13 14  1  0
 14 15  1  0
 15 16  1  0
 16 17  1  0
 17 18  1  0
 17 19  2  0
 19 20  1  0
 20 21  1  0
 20 22  1  0
 22 23  1  0
 14 24  1  0
 24 25  1  0
  8  3  1  0
 25 11  1  0
 22 16  2  0
  1 26  1  0
  1 27  1  0
  1 28  1  0
  4 29  1  0
  5 30  1  0
  6 31  1  0
  7 32  1  0
 11 33  1  0
 12 34  1  0
 12 35  1  0
 13 36  1  0
 13 37  1  0
 15 38  1  0
 15 39  1  0
 18 40  1  0
 18 41  1  0
 18 42  1  0
 21 43  1  0
 21 44  1  0
 21 45  1  0
 23 46  1  0
 23 47  1  0
 23 48  1  0
 24 49  1  0
 24 50  1  0
 25 51  1  0
 25 52  1  0
M  END
>  <UniqueID>  (25) 
24

>  <SMILES>  (25) 
COc1ccccc1C(=O)C1CCN(Cc2c(C)nn(C)c2C)CC1

>  <Energy>  (25) 
94.64842973236601

>  <Genealogy>  (25) 
COc1ccccc1C(=O)C1CCN(Cc2c(C)nn(C)c2C)CC1 (3D coordinates assigned)
COc1ccccc1C(=O)C1CCN(Cc2c(C)nn(C)c2C)CC1 (nonaromatic ring conformer: 94.64842973236601 kcal/mol)

>  <smiles>  (25) 
COc1ccccc1C(=O)C1CCN(Cc2c(C)nn(C)c2C)CC1

>  <score_type>  (25) 
oracle

>  <origin>  (25) 
adg

>  <m_score__min__energy>  (25) 
-9.6999999999999993

>  <m_primary>  (25) 
energy

$$$$
25:0
     RDKit          3D

 36 37  0  0  0  0  0  0  0  0999 V2000
   -0.9000   26.1320  -27.8400 C   0  0  0  0  0  0  0  0  0  0  0  0
   -1.5940   25.6820  -28.9970 O   0  0  0  0  0  0  0  0  0  0  0  0
   -1.8060   24.3290  -29.2730 C   0  0  0  0  0  0  0  0  0  0  0  0
   -0.8260   23.5390  -29.3590 O   0  0  0  0  0  0  0  0  0  0  0  0
   -3.1720   23.8090  -29.4650 C   0  0  0  0  0  0  0  0  0  0  0  0
   -3.6890   22.9980  -30.8490 S   0  0  0  0  0  0  0  0  0  0  0  0
   -5.2560   22.7730  -30.2770 C   0  0  0  0  0  0  0  0  0  0  0  0
   -6.3100   22.0970  -30.9910 N   0  0  0  0  0  0  0  0  0  0  0  0
   -7.6370   22.7200  -31.1150 C   0  0  0  0  0  0  0  0  0  0  0  0
   -8.7220   21.6410  -31.1680 C   0  0  0  0  0  0  0  0  0  0  0  0
   -8.5090   20.6530  -32.3410 C   0  0  0  0  0  0  0  0  0  0  0  0
   -9.0890   19.2740  -31.9930 C   0  0  0  0  0  0  0  0  0  0  0  0
   -7.0280   20.5390  -32.7790 C   0  0  0  0  0  0  0  0  0  0  0  0
   -6.0490   20.7960  -31.6280 C   0  0  0  0  0  0  0  0  0  0  0  0
   -5.4010   23.3040  -29.0410 N   0  0  0  0  0  0  0  0  0  0  0  0
   -4.2560   23.8820  -28.5780 C   0  0  0  0  0  0  0  0  0  0  0  0
   -4.2000   24.5340  -27.2280 C   0  0  0  0  0  0  0  0  0  0  0  0
   -1.4290   25.7890  -26.9386 H   0  0  0  0  0  0  0  0  0  0  0  0
    0.1215   25.7239  -27.8433 H   0  0  0  0  0  0  0  0  0  0  0  0
   -0.8558   27.2311  -27.8433 H   0  0  0  0  0  0  0  0  0  0  0  0
   -7.8150   23.3726  -30.2476 H   0  0  0  0  0  0  0  0  0  0  0  0
   -7.6719   23.3114  -32.0418 H   0  0  0  0  0  0  0  0  0  0  0  0
   -8.7074   21.0775  -30.2234 H   0  0  0  0  0  0  0  0  0  0  0  0
   -9.6891   22.1424  -31.3208 H   0  0  0  0  0  0  0  0  0  0  0  0
   -9.0524   21.0636  -33.2048 H   0  0  0  0  0  0  0  0  0  0  0  0
   -9.1364   19.1614  -30.8998 H   0  0  0  0  0  0  0  0  0  0  0  0
  -10.1009   19.1847  -32.4150 H   0  0  0  0  0  0  0  0  0  0  0  0
   -8.4451   18.4883  -32.4150 H   0  0  0  0  0  0  0  0  0  0  0  0
   -6.8536   19.5256  -33.1696 H   0  0  0  0  0  0  0  0  0  0  0  0
   -6.8483   21.3071  -33.5456 H   0  0  0  0  0  0  0  0  0  0  0  0
   -6.1601   19.9997  -30.8773 H   0  0  0  0  0  0  0  0  0  0  0  0
   -5.0267   20.8046  -32.0341 H   0  0  0  0  0  0  0  0  0  0  0  0
   -6.2950   23.2910  -28.5010 H   0  0  0  0  0  0  0  0  0  0  0  0
   -4.2662   23.7635  -26.4457 H   0  0  0  0  0  0  0  0  0  0  0  0
   -3.2515   25.0814  -27.1242 H   0  0  0  0  0  0  0  0  0  0  0  0
   -5.0412   25.2351  -27.1242 H   0  0  0  0  0  0  0  0  0  0  0  0
  1  2  1  0
  2  3  1  0
  3  4  2  0
  3  5  1  0
  5  6  1  0
  6  7  1  0
  7  8  1  0
  8  9  1  0
  9 10  1  0
 10 11  1  0
 11 12  1  0
 11 13  1  0
 13 14  1  0
  7 15  2  0
 15 16  1  0
 16 17  1  0
 16  5  2  0
 14  8  1  0
  1 18  1  0
  1 19  1  0
  1 20  1  0
  9 21  1  0
  9 22  1  0
 10 23  1  0
 10 24  1  0
 11 25  1  0
 12 26  1  0
 12 27  1  0
 12 28  1  0
 13 29  1  0
 13 30  1  0
 14 31  1  0
 14 32  1  0
 15 33  1  0
 17 34  1  0
 17 35  1  0
 17 36  1  0
M  CHG  1  15   1
M  END
>  <UniqueID>  (26) 
25

>  <SMILES>  (26) 
COC(=O)c1sc(N2CCC(C)CC2)[nH+]c1C

>  <Energy>  (26) 
61.94460482240947

>  <Genealogy>  (26) 
COC(=O)c1sc(N2CCC(C)CC2)[nH+]c1C (protonated)
COC(=O)c1sc(N2CCC(C)CC2)[nH+]c1C (3D coordinates assigned)
COC(=O)c1sc(N2CCC(C)CC2)[nH+]c1C (nonaromatic ring conformer: 61.94460482240947 kcal/mol)

>  <smiles>  (26) 
COC(=O)c1sc(N2CCC(C)CC2)nc1C

>  <score_type>  (26) 
oracle

>  <origin>  (26) 
adg

>  <m_score__min__energy>  (26) 
-6.2999999999999998

>  <m_primary>  (26) 
energy

$$$$
26:0
     RDKit          3D

 60 64  0  0  0  0  0  0  0  0999 V2000
    0.8830   22.3310  -26.7560 C   0  0  0  0  0  0  0  0  0  0  0  0
   -0.5530   22.5180  -26.5250 N   0  0  0  0  0  0  0  0  0  0  0  0
   -1.4200   21.3630  -26.4940 C   0  0  0  0  0  0  0  0  0  0  0  0
   -1.3390   20.5540  -25.5260 O   0  0  0  0  0  0  0  0  0  0  0  0
   -2.4400   21.1470  -27.5990 C   0  0  2  0  0  0  0  0  0  0  0  0
   -1.8610   20.9680  -28.9650 N   0  0  0  0  0  0  0  0  0  0  0  0
   -1.0210   22.0700  -29.4810 C   0  0  0  0  0  0  0  0  0  0  0  0
   -0.8760   21.9090  -30.9920 C   0  0  0  0  0  0  0  0  0  0  0  0
   -0.2740   20.5740  -31.3120 C   0  0  0  0  0  0  0  0  0  0  0  0
    0.4200   20.3980  -32.4750 N   0  0  0  0  0  0  0  0  0  0  0  0
    1.0220   19.2150  -32.7800 C   0  0  0  0  0  0  0  0  0  0  0  0
    0.9490   18.1330  -31.8880 C   0  0  0  0  0  0  0  0  0  0  0  0
    1.6250   16.8240  -32.2160 C   0  0  0  0  0  0  0  0  0  0  0  0
    2.1300   16.8760  -33.5070 F   0  0  0  0  0  0  0  0  0  0  0  0
    0.7260   15.7750  -32.1170 F   0  0  0  0  0  0  0  0  0  0  0  0
    2.6680   16.5810  -31.3350 F   0  0  0  0  0  0  0  0  0  0  0  0
    0.1770   18.2740  -30.7250 C   0  0  0  0  0  0  0  0  0  0  0  0
   -0.4460   19.4920  -30.4270 C   0  0  0  0  0  0  0  0  0  0  0  0
   -1.2410   19.6290  -29.1390 C   0  0  0  0  0  0  0  0  0  0  0  0
   -3.4920   22.2770  -27.5700 C   0  0  0  0  0  0  0  0  0  0  0  0
   -2.9270   23.6310  -27.7490 N   0  0  0  0  0  0  0  0  0  0  0  0
   -2.9960   24.2410  -29.0840 C   0  0  0  0  0  0  0  0  0  0  0  0
   -4.3270   24.0270  -29.7750 C   0  0  0  0  0  0  0  0  0  0  0  0
   -4.3970   23.0960  -30.8250 C   0  0  0  0  0  0  0  0  0  0  0  0
   -5.5630   22.9700  -31.5820 C   0  0  0  0  0  0  0  0  0  0  0  0
   -6.6740   23.7730  -31.2990 C   0  0  0  0  0  0  0  0  0  0  0  0
   -6.6280   24.6800  -30.2440 C   0  0  0  0  0  0  0  0  0  0  0  0
   -5.4540   24.8320  -29.5020 C   0  0  0  0  0  0  0  0  0  0  0  0
   -2.2310   24.3400  -26.7020 C   0  0  0  0  0  0  0  0  0  0  0  0
   -2.6670   25.6240  -26.3230 C   0  0  0  0  0  0  0  0  0  0  0  0
   -1.9580   26.3660  -25.3760 C   0  0  0  0  0  0  0  0  0  0  0  0
   -0.7980   25.8440  -24.8070 C   0  0  0  0  0  0  0  0  0  0  0  0
   -0.3450   24.5780  -25.1830 C   0  0  0  0  0  0  0  0  0  0  0  0
   -1.0490   23.8140  -26.1320 C   0  0  0  0  0  0  0  0  0  0  0  0
    1.4041   22.2631  -25.7896 H   0  0  0  0  0  0  0  0  0  0  0  0
    1.0451   21.4042  -27.3258 H   0  0  0  0  0  0  0  0  0  0  0  0
    1.2770   23.1854  -27.3258 H   0  0  0  0  0  0  0  0  0  0  0  0
   -2.9229   20.1823  -27.3842 H   0  0  0  0  0  0  0  0  0  0  0  0
   -1.4977   23.0354  -29.2557 H   0  0  0  0  0  0  0  0  0  0  0  0
   -0.0301   22.0406  -29.0043 H   0  0  0  0  0  0  0  0  0  0  0  0
   -1.8674   21.9833  -31.4627 H   0  0  0  0  0  0  0  0  0  0  0  0
   -0.2185   22.7023  -31.3773 H   0  0  0  0  0  0  0  0  0  0  0  0
    0.5060   21.1900  -33.1510 H   0  0  0  0  0  0  0  0  0  0  0  0
    1.5676   19.1067  -33.7290 H   0  0  0  0  0  0  0  0  0  0  0  0
    0.0602   17.4202  -30.0413 H   0  0  0  0  0  0  0  0  0  0  0  0
   -2.0400   18.8729  -29.1409 H   0  0  0  0  0  0  0  0  0  0  0  0
   -0.5356   19.4884  -28.3068 H   0  0  0  0  0  0  0  0  0  0  0  0
   -4.2167   22.0954  -28.3774 H   0  0  0  0  0  0  0  0  0  0  0  0
   -3.9542   22.2551  -26.5721 H   0  0  0  0  0  0  0  0  0  0  0  0
   -2.8259   25.3230  -28.9822 H   0  0  0  0  0  0  0  0  0  0  0  0
   -2.2270   23.7557  -29.7030 H   0  0  0  0  0  0  0  0  0  0  0  0
   -3.5271   22.4622  -31.0520 H   0  0  0  0  0  0  0  0  0  0  0  0
   -5.6088   22.2385  -32.4022 H   0  0  0  0  0  0  0  0  0  0  0  0
   -7.5842   23.6873  -31.9107 H   0  0  0  0  0  0  0  0  0  0  0  0
   -7.5170   25.2777  -29.9942 H   0  0  0  0  0  0  0  0  0  0  0  0
   -5.4076   25.5836  -28.7001 H   0  0  0  0  0  0  0  0  0  0  0  0
   -3.5751   26.0469  -26.7774 H   0  0  0  0  0  0  0  0  0  0  0  0
   -2.3154   27.3630  -25.0790 H   0  0  0  0  0  0  0  0  0  0  0  0
   -0.2393   26.4293  -24.0618 H   0  0  0  0  0  0  0  0  0  0  0  0
    0.5730   24.1731  -24.7321 H   0  0  0  0  0  0  0  0  0  0  0  0
  1  2  1  0
  2  3  1  0
  3  4  2  0
  3  5  1  0
  5  6  1  0
  6  7  1  0
  7  8  1  0
  8  9  1  0
  9 10  2  0
 10 11  1  0
 11 12  2  0
 12 13  1  0
 13 14  1  0
 13 15  1  0
 13 16  1  0
 12 17  1  0
 17 18  2  0
 18 19  1  0
  5 20  1  0
 20 21  1  0
 21 22  1  0
 22 23  1  0
 23 24  2  0
 24 25  1  0
 25 26  2  0
 26 27  1  0
 27 28  2  0
 21 29  1  0
 29 30  2  0
 30 31  1  0
 31 32  2  0
 32 33  1  0
 33 34  2  0
 34  2  1  0
 19  6  1  0
 28 23  1  0
 34 29  1  0
 18  9  1  0
  1 35  1  0
  1 36  1  0
  1 37  1  0
  5 38  1  1
  7 39  1  0
  7 40  1  0
  8 41  1  0
  8 42  1  0
 10 43  1  0
 11 44  1  0
 17 45  1  0
 19 46  1  0
 19 47  1  0
 20 48  1  0
 20 49  1  0
 22 50  1  0
 22 51  1  0
 24 52  1  0
 25 53  1  0
 26 54  1  0
 27 55  1  0
 28 56  1  0
 30 57  1  0
 31 58  1  0
 32 59  1  0
 33 60  1  0
M  CHG  1  10   1
M  END
>  <UniqueID>  (27) 
26

>  <SMILES>  (27) 
CN1C(=O)[C@H](N2CCc3[nH+]cc(C(F)(F)F)cc3C2)CN(Cc2ccccc2)c2ccccc21

>  <Energy>  (27) 
95.10142344479367

>  <Genealogy>  (27) 
CN1C(=O)C(N2CCc3[nH+]cc(C(F)(F)F)cc3C2)CN(Cc2ccccc2)c2ccccc21 (protonated)
CN1C(=O)[C@H](N2CCc3[nH+]cc(C(F)(F)F)cc3C2)CN(Cc2ccccc2)c2ccccc21 (chirality)
CN1C(=O)[C@H](N2CCc3[nH+]cc(C(F)(F)F)cc3C2)CN(Cc2ccccc2)c2ccccc21 (3D coordinates assigned)
CN1C(=O)[C@H](N2CCc3[nH+]cc(C(F)(F)F)cc3C2)CN(Cc2ccccc2)c2ccccc21 (nonaromatic ring conformer: 95.10142344479367 kcal/mol)

>  <smiles>  (27) 
CN1C(=O)C(N2CCc3ncc(C(F)(F)F)cc3C2)CN(Cc2ccccc2)c2ccccc21

>  <score_type>  (27) 
oracle

>  <origin>  (27) 
adg

>  <m_score__min__energy>  (27) 
-6.4900000000000002

>  <m_primary>  (27) 
energy

$$$$
27:0
     RDKit          3D

 32 34  0  0  0  0  0  0  0  0999 V2000
   -3.2370   16.5180  -34.6540 F   0  0  0  0  0  0  0  0  0  0  0  0
   -4.3440   17.0490  -34.0800 C   0  0  0  0  0  0  0  0  0  0  0  0
   -4.9710   18.1550  -34.6600 C   0  0  0  0  0  0  0  0  0  0  0  0
   -6.1140   18.7020  -34.0690 C   0  0  0  0  0  0  0  0  0  0  0  0
   -6.6330   18.1560  -32.8880 C   0  0  0  0  0  0  0  0  0  0  0  0
   -7.7880   18.7250  -32.3330 O   0  0  0  0  0  0  0  0  0  0  0  0
   -7.9760   20.0890  -32.0680 C   0  0  0  0  0  0  0  0  0  0  0  0
   -9.2630   20.6240  -32.1750 C   0  0  0  0  0  0  0  0  0  0  0  0
   -9.4870   21.9800  -31.9310 C   0  0  0  0  0  0  0  0  0  0  0  0
   -8.4240   22.8170  -31.5870 C   0  0  0  0  0  0  0  0  0  0  0  0
   -7.1160   22.3060  -31.4930 C   0  0  0  0  0  0  0  0  0  0  0  0
   -5.9810   23.1940  -31.1350 C   0  0  0  0  0  0  0  0  0  0  0  0
   -4.6660   22.6990  -31.0970 C   0  0  0  0  0  0  0  0  0  0  0  0
   -3.6130   23.5520  -30.7570 C   0  0  0  0  0  0  0  0  0  0  0  0
   -3.8600   24.8560  -30.4640 N   0  0  0  0  0  0  0  0  0  0  0  0
   -5.1190   25.3660  -30.4920 C   0  0  0  0  0  0  0  0  0  0  0  0
   -6.2010   24.5480  -30.8250 C   0  0  0  0  0  0  0  0  0  0  0  0
   -6.9010   20.9380  -31.7460 C   0  0  0  0  0  0  0  0  0  0  0  0
   -6.0090   17.0290  -32.3190 C   0  0  0  0  0  0  0  0  0  0  0  0
   -4.8660   16.4840  -32.9110 C   0  0  0  0  0  0  0  0  0  0  0  0
   -4.5649   18.5957  -35.5824 H   0  0  0  0  0  0  0  0  0  0  0  0
   -6.6090   19.5670  -34.5346 H   0  0  0  0  0  0  0  0  0  0  0  0
  -10.1044   19.9724  -32.4532 H   0  0  0  0  0  0  0  0  0  0  0  0
  -10.5045   22.3904  -32.0100 H   0  0  0  0  0  0  0  0  0  0  0  0
   -8.6099   23.8828  -31.3881 H   0  0  0  0  0  0  0  0  0  0  0  0
   -4.4666   21.6435  -31.3342 H   0  0  0  0  0  0  0  0  0  0  0  0
   -2.5828   23.1677  -30.7264 H   0  0  0  0  0  0  0  0  0  0  0  0
   -5.2866   26.4263  -30.2517 H   0  0  0  0  0  0  0  0  0  0  0  0
   -7.2204   24.9609  -30.8447 H   0  0  0  0  0  0  0  0  0  0  0  0
   -5.8816   20.5283  -31.6914 H   0  0  0  0  0  0  0  0  0  0  0  0
   -6.4224   16.5761  -31.4058 H   0  0  0  0  0  0  0  0  0  0  0  0
   -4.3762   15.6098  -32.4573 H   0  0  0  0  0  0  0  0  0  0  0  0
  1  2  1  0
  2  3  2  0
  3  4  1  0
  4  5  2  0
  5  6  1  0
  6  7  1  0
  7  8  2  0
  8  9  1  0
  9 10  2  0
 10 11  1  0
 11 12  1  0
 12 13  2  0
 13 14  1  0
 14 15  2  0
 15 16  1  0
 16 17  2  0
 11 18  2  0
  5 19  1  0
 19 20  2  0
 20  2  1  0
 18  7  1  0
 17 12  1  0
  3 21  1  0
  4 22  1  0
  8 23  1  0
  9 24  1  0
 10 25  1  0
 13 26  1  0
 14 27  1  0
 16 28  1  0
 17 29  1  0
 18 30  1  0
 19 31  1  0
 20 32  1  0
M  END
>  <UniqueID>  (28) 
27

>  <SMILES>  (28) 
Fc1ccc(Oc2cccc(-c3ccncc3)c2)cc1

>  <Energy>  (28) 
47.283949030215574

>  <Genealogy>  (28) 
Fc1ccc(Oc2cccc(-c3ccncc3)c2)cc1 (3D coordinates assigned)
Fc1ccc(Oc2cccc(-c3ccncc3)c2)cc1 (optimized conformer: 47.283949030215574 kcal/mol)

>  <smiles>  (28) 
Fc1ccc(Oc2cccc(-c3ccncc3)c2)cc1

>  <score_type>  (28) 
oracle

>  <origin>  (28) 
adg

>  <m_score__min__energy>  (28) 
-8.1099999999999994

>  <m_primary>  (28) 
energy

$$$$
28:0
     RDKit          3D

 49 52  0  0  0  0  0  0  0  0999 V2000
   -8.3560   21.9810  -30.7490 C   0  0  0  0  0  0  0  0  0  0  0  0
   -7.6910   22.6510  -31.9490 C   0  0  0  0  0  0  0  0  0  0  0  0
   -6.2430   22.3780  -31.9850 N   0  0  0  0  0  0  0  0  0  0  0  0
   -5.7080   21.3760  -32.9240 C   0  0  0  0  0  0  0  0  0  0  0  0
   -6.2230   19.9960  -32.6090 C   0  0  0  0  0  0  0  0  0  0  0  0
   -7.5320   19.6270  -32.9510 C   0  0  0  0  0  0  0  0  0  0  0  0
   -8.0040   18.3510  -32.6350 C   0  0  0  0  0  0  0  0  0  0  0  0
   -7.1610   17.4540  -31.9760 C   0  0  0  0  0  0  0  0  0  0  0  0
   -5.8970   17.8250  -31.6470 N   0  0  0  0  0  0  0  0  0  0  0  0
   -5.4140   19.0600  -31.9430 C   0  0  0  0  0  0  0  0  0  0  0  0
   -5.3730   22.9700  -30.9930 C   0  0  0  0  0  0  0  0  0  0  0  0
   -5.3560   24.3620  -30.7900 C   0  0  0  0  0  0  0  0  0  0  0  0
   -4.5130   24.9300  -29.8320 C   0  0  0  0  0  0  0  0  0  0  0  0
   -3.6650   24.1220  -29.0600 C   0  0  0  0  0  0  0  0  0  0  0  0
   -2.7960   24.7080  -28.0750 N   0  0  0  0  0  0  0  0  0  0  0  0
   -3.1180   25.0770  -26.7280 C   0  0  0  0  0  0  0  0  0  0  0  0
   -4.2400   24.8930  -26.1870 O   0  0  0  0  0  0  0  0  0  0  0  0
   -1.9460   25.6410  -26.0710 C   0  0  0  0  0  0  0  0  0  0  0  0
   -1.7800   26.1420  -24.7820 C   0  0  0  0  0  0  0  0  0  0  0  0
   -0.5140   26.6360  -24.4210 C   0  0  0  0  0  0  0  0  0  0  0  0
    0.5610   26.6110  -25.3450 C   0  0  0  0  0  0  0  0  0  0  0  0
    1.8940   27.1790  -24.9590 C   0  0  0  0  0  0  0  0  0  0  0  0
    0.3570   26.1110  -26.6480 C   0  0  0  0  0  0  0  0  0  0  0  0
   -0.9080   25.6250  -26.9760 C   0  0  0  0  0  0  0  0  0  0  0  0
   -1.4130   25.0560  -28.2200 C   0  0  0  0  0  0  0  0  0  0  0  0
   -0.7540   24.9310  -29.2870 O   0  0  0  0  0  0  0  0  0  0  0  0
   -3.6750   22.7330  -29.2630 C   0  0  0  0  0  0  0  0  0  0  0  0
   -4.5210   22.1640  -30.2190 C   0  0  0  0  0  0  0  0  0  0  0  0
   -7.9415   22.3986  -29.8196 H   0  0  0  0  0  0  0  0  0  0  0  0
   -9.4403   22.1635  -30.7814 H   0  0  0  0  0  0  0  0  0  0  0  0
   -8.1653   20.8981  -30.7814 H   0  0  0  0  0  0  0  0  0  0  0  0
   -8.1502   22.2680  -32.8723 H   0  0  0  0  0  0  0  0  0  0  0  0
   -7.8357   23.7380  -31.8620 H   0  0  0  0  0  0  0  0  0  0  0  0
   -6.0110   21.6462  -33.9463 H   0  0  0  0  0  0  0  0  0  0  0  0
   -4.6120   21.3656  -32.8311 H   0  0  0  0  0  0  0  0  0  0  0  0
   -8.1875   20.3430  -33.4685 H   0  0  0  0  0  0  0  0  0  0  0  0
   -9.0293   18.0558  -32.9025 H   0  0  0  0  0  0  0  0  0  0  0  0
   -7.5212   16.4459  -31.7231 H   0  0  0  0  0  0  0  0  0  0  0  0
   -4.3854   19.3281  -31.6601 H   0  0  0  0  0  0  0  0  0  0  0  0
   -6.0123   25.0087  -31.3909 H   0  0  0  0  0  0  0  0  0  0  0  0
   -4.5141   26.0197  -29.6817 H   0  0  0  0  0  0  0  0  0  0  0  0
   -2.6156   26.1509  -24.0667 H   0  0  0  0  0  0  0  0  0  0  0  0
   -0.3562   27.0456  -23.4124 H   0  0  0  0  0  0  0  0  0  0  0  0
    1.9743   27.2132  -23.8625 H   0  0  0  0  0  0  0  0  0  0  0  0
    2.6948   26.5440  -25.3657 H   0  0  0  0  0  0  0  0  0  0  0  0
    1.9907   28.1965  -25.3657 H   0  0  0  0  0  0  0  0  0  0  0  0
    1.1735   26.1047  -27.3851 H   0  0  0  0  0  0  0  0  0  0  0  0
   -3.0130   22.0885  -28.6660 H   0  0  0  0  0  0  0  0  0  0  0  0
   -4.5199   21.0740  -30.3670 H   0  0  0  0  0  0  0  0  0  0  0  0
  1  2  1  0
  2  3  1  0
  3  4  1  0
  4  5  1  0
  5  6  2  0
  6  7  1  0
  7  8  2  0
  8  9  1  0
  9 10  2  0
  3 11  1  0
 11 12  2  0
 12 13  1  0
 13 14  2  0
 14 15  1  0
 15 16  1  0
 16 17  2  0
 16 18  1  0
 18 19  2  0
 19 20  1  0
 20 21  2  0
 21 22  1  0
 21 23  1  0
 23 24  2  0
 24 25  1  0
 25 26  2  0
 14 27  1  0
 27 28  2  0
 10  5  1  0
 28 11  1  0
 25 15  1  0
 24 18  1  0
  1 29  1  0
  1 30  1  0
  1 31  1  0
  2 32  1  0
  2 33  1  0
  4 34  1  0
  4 35  1  0
  6 36  1  0
  7 37  1  0
  8 38  1  0
 10 39  1  0
 12 40  1  0
 13 41  1  0
 19 42  1  0
 20 43  1  0
 22 44  1  0
 22 45  1  0
 22 46  1  0
 23 47  1  0
 27 48  1  0
 28 49  1  0
M  END
>  <UniqueID>  (29) 
28

>  <SMILES>  (29) 
CCN(Cc1cccnc1)c1ccc(N2C(=O)c3ccc(C)cc3C2=O)cc1

>  <Energy>  (29) 
91.78918851044531

>  <Genealogy>  (29) 
CCN(Cc1cccnc1)c1ccc(N2C(=O)c3ccc(C)cc3C2=O)cc1 (3D coordinates assigned)
CCN(Cc1cccnc1)c1ccc(N2C(=O)c3ccc(C)cc3C2=O)cc1 (nonaromatic ring conformer: 91.78918851044531 kcal/mol)

>  <smiles>  (29) 
CCN(Cc1cccnc1)c1ccc(N2C(=O)c3ccc(C)cc3C2=O)cc1

>  <score_type>  (29) 
oracle

>  <origin>  (29) 
adg

>  <m_score__min__energy>  (29) 
-8.8499999999999996

>  <m_primary>  (29) 
energy

$$$$
29:0
     RDKit          3D

 47 49  0  0  0  0  0  0  0  0999 V2000
    1.8750   23.2730  -35.7640 C   0  0  0  0  0  0  0  0  0  0  0  0
    0.8180   22.3360  -35.3450 N   0  0  0  0  0  0  0  0  0  0  0  0
    0.2920   21.5790  -36.4900 C   0  0  0  0  0  0  0  0  0  0  0  0
    1.2170   21.4790  -34.2040 C   0  0  0  0  0  0  0  0  0  0  0  0
    0.0480   20.7860  -33.4650 C   0  0  0  0  0  0  0  0  0  0  0  0
   -1.2580   21.2460  -33.9480 N   0  0  0  0  0  0  0  0  0  0  0  0
   -2.5070   20.8190  -33.3710 C   0  0  0  0  0  0  0  0  0  0  0  0
   -3.1550   19.6920  -33.8990 C   0  0  0  0  0  0  0  0  0  0  0  0
   -4.3710   19.2560  -33.3660 C   0  0  0  0  0  0  0  0  0  0  0  0
   -4.9610   19.9460  -32.2980 C   0  0  0  0  0  0  0  0  0  0  0  0
   -4.3170   21.0590  -31.7500 C   0  0  0  0  0  0  0  0  0  0  0  0
   -3.1010   21.5050  -32.2930 C   0  0  0  0  0  0  0  0  0  0  0  0
   -4.9750   21.7860  -30.6170 C   0  0  0  0  0  0  0  0  0  0  0  0
   -6.1970   22.5470  -31.1320 C   0  0  0  0  0  0  0  0  0  0  0  0
   -7.4040   21.7090  -31.5340 C   0  0  0  0  0  0  0  0  0  0  0  0
   -8.6140   22.4180  -31.6690 C   0  0  0  0  0  0  0  0  0  0  0  0
   -9.7900   21.7750  -32.0520 C   0  0  0  0  0  0  0  0  0  0  0  0
   -9.7810   20.4120  -32.3220 C   0  0  0  0  0  0  0  0  0  0  0  0
   -8.5980   19.6850  -32.2130 C   0  0  0  0  0  0  0  0  0  0  0  0
   -7.3920   20.3070  -31.8230 C   0  0  0  0  0  0  0  0  0  0  0  0
   -6.1990   19.4940  -31.7340 N   0  0  0  0  0  0  0  0  0  0  0  0
   -6.2720   18.1170  -31.2330 C   0  0  0  0  0  0  0  0  0  0  0  0
    2.3587   23.7018  -34.8740 H   0  0  0  0  0  0  0  0  0  0  0  0
    2.6235   22.7363  -36.3654 H   0  0  0  0  0  0  0  0  0  0  0  0
    1.4319   24.0805  -36.3654 H   0  0  0  0  0  0  0  0  0  0  0  0
   -0.3002   20.7268  -36.1252 H   0  0  0  0  0  0  0  0  0  0  0  0
   -0.3463   22.2344  -37.1008 H   0  0  0  0  0  0  0  0  0  0  0  0
    1.1288   21.2094  -37.1008 H   0  0  0  0  0  0  0  0  0  0  0  0
    1.8913   20.6974  -34.5840 H   0  0  0  0  0  0  0  0  0  0  0  0
    1.6913   22.1468  -33.4698 H   0  0  0  0  0  0  0  0  0  0  0  0
    0.1224   19.6999  -33.6227 H   0  0  0  0  0  0  0  0  0  0  0  0
    0.1235   21.0395  -32.3973 H   0  0  0  0  0  0  0  0  0  0  0  0
   -1.2960   21.9210  -34.7440 H   0  0  0  0  0  0  0  0  0  0  0  0
   -2.7018   19.1468  -34.7400 H   0  0  0  0  0  0  0  0  0  0  0  0
   -4.8668   18.3684  -33.7859 H   0  0  0  0  0  0  0  0  0  0  0  0
   -2.6092   22.3954  -31.8742 H   0  0  0  0  0  0  0  0  0  0  0  0
   -5.2914   21.0612  -29.8524 H   0  0  0  0  0  0  0  0  0  0  0  0
   -4.2609   22.4985  -30.1784 H   0  0  0  0  0  0  0  0  0  0  0  0
   -6.5193   23.2368  -30.3381 H   0  0  0  0  0  0  0  0  0  0  0  0
   -5.8635   23.0375  -32.0584 H   0  0  0  0  0  0  0  0  0  0  0  0
   -8.6310   23.4994  -31.4684 H   0  0  0  0  0  0  0  0  0  0  0  0
  -10.7255   22.3468  -32.1405 H   0  0  0  0  0  0  0  0  0  0  0  0
  -10.7103   19.9060  -32.6225 H   0  0  0  0  0  0  0  0  0  0  0  0
   -8.6034   18.6076  -32.4346 H   0  0  0  0  0  0  0  0  0  0  0  0
   -6.2715   18.1265  -30.1330 H   0  0  0  0  0  0  0  0  0  0  0  0
   -7.1965   17.6436  -31.5952 H   0  0  0  0  0  0  0  0  0  0  0  0
   -5.4027   17.5485  -31.5952 H   0  0  0  0  0  0  0  0  0  0  0  0
  1  2  1  0
  2  3  1  0
  2  4  1  0
  4  5  1  0
  5  6  1  0
  6  7  1  0
  7  8  2  0
  8  9  1  0
  9 10  2  0
 10 11  1  0
 11 12  2  0
 11 13  1  0
 13 14  1  0
 14 15  1  0
 15 16  2  0
 16 17  1  0
 17 18  2  0
 18 19  1  0
 19 20  2  0
 20 21  1  0
 21 22  1  0
 12  7  1  0
 20 15  1  0
 21 10  1  0
  1 23  1  0
  1 24  1  0
  1 25  1  0
  3 26  1  0
  3 27  1  0
  3 28  1  0
  4 29  1  0
  4 30  1  0
  5 31  1  0
  5 32  1  0
  6 33  1  0
  8 34  1  0
  9 35  1  0
 12 36  1  0
 13 37  1  0
 13 38  1  0
 14 39  1  0
 14 40  1  0
 16 41  1  0
 17 42  1  0
 18 43  1  0
 19 44  1  0
 22 45  1  0
 22 46  1  0
 22 47  1  0
M  END
>  <UniqueID>  (30) 
29

>  <SMILES>  (30) 
CN(C)CCNc1ccc2c(c1)CCc1ccccc1N2C

>  <Energy>  (30) 
67.49936936163122

>  <Genealogy>  (30) 
CN(C)CCNc1ccc2c(c1)CCc1ccccc1N2C (3D coordinates assigned)
CN(C)CCNc1ccc2c(c1)CCc1ccccc1N2C (nonaromatic ring conformer: 67.49936936163122 kcal/mol)

>  <smiles>  (30) 
CN(C)CCNc1ccc2c(c1)CCc1ccccc1N2C

>  <score_type>  (30) 
oracle

>  <origin>  (30) 
adg

>  <m_score__min__energy>  (30) 
-7.1200000000000001

>  <m_primary>  (30) 
energy

$$$$
30:0
     RDKit          3D

 28 29  0  0  0  0  0  0  0  0999 V2000
   -2.9020   20.9540  -33.1970 C   0  0  0  0  0  0  0  0  0  0  0  0
   -4.6170   21.4650  -33.1930 S   0  0  0  0  0  0  0  0  0  0  0  0
   -5.0280   22.4950  -31.8050 C   0  0  0  0  0  0  0  0  0  0  0  0
   -4.2700   23.5410  -31.4150 N   0  0  0  0  0  0  0  0  0  0  0  0
   -4.6320   24.2850  -30.3560 C   0  0  0  0  0  0  0  0  0  0  0  0
   -3.8670   25.2730  -30.0300 N   0  0  0  0  0  0  0  0  0  0  0  0
   -5.7410   24.0420  -29.6350 N   0  0  0  0  0  0  0  0  0  0  0  0
   -6.5130   22.9890  -30.0220 C   0  0  0  0  0  0  0  0  0  0  0  0
   -7.5760   22.7140  -29.3730 N   0  0  0  0  0  0  0  0  0  0  0  0
   -6.1770   22.2000  -31.1030 C   0  0  0  0  0  0  0  0  0  0  0  0
   -7.0570   21.0810  -31.4600 C   0  0  0  0  0  0  0  0  0  0  0  0
   -6.6360   19.7660  -31.3650 C   0  0  0  0  0  0  0  0  0  0  0  0
   -7.4770   18.7420  -31.7030 C   0  0  0  0  0  0  0  0  0  0  0  0
   -8.7710   19.0140  -32.1470 C   0  0  0  0  0  0  0  0  0  0  0  0
   -9.2030   20.3350  -32.2460 C   0  0  0  0  0  0  0  0  0  0  0  0
   -8.3390   21.3560  -31.9000 C   0  0  0  0  0  0  0  0  0  0  0  0
   -8.8510   23.0220  -32.0120 Cl  0  0  0  0  0  0  0  0  0  0  0  0
   -2.5484   20.8486  -32.1607 H   0  0  0  0  0  0  0  0  0  0  0  0
   -2.8082   19.9889  -33.7164 H   0  0  0  0  0  0  0  0  0  0  0  0
   -2.2952   21.7104  -33.7164 H   0  0  0  0  0  0  0  0  0  0  0  0
   -3.4080   23.7720  -31.9320 H   0  0  0  0  0  0  0  0  0  0  0  0
   -3.1140   25.6720  -30.6230 H   0  0  0  0  0  0  0  0  0  0  0  0
   -6.0000   24.6410  -28.8110 H   0  0  0  0  0  0  0  0  0  0  0  0
   -7.9540   23.2610  -28.5810 H   0  0  0  0  0  0  0  0  0  0  0  0
   -5.6173   19.5429  -31.0150 H   0  0  0  0  0  0  0  0  0  0  0  0
   -7.1319   17.7005  -31.6245 H   0  0  0  0  0  0  0  0  0  0  0  0
   -9.4471   18.1896  -32.4177 H   0  0  0  0  0  0  0  0  0  0  0  0
  -10.2208   20.5624  -32.5958 H   0  0  0  0  0  0  0  0  0  0  0  0
  1  2  1  0
  2  3  1  0
  3  4  1  0
  4  5  1  0
  5  6  2  3
  5  7  1  0
  7  8  1  0
  8  9  2  3
  8 10  1  0
 10 11  1  0
 11 12  2  0
 12 13  1  0
 13 14  2  0
 14 15  1  0
 15 16  2  0
 16 17  1  0
 10  3  2  0
 16 11  1  0
  1 18  1  0
  1 19  1  0
  1 20  1  0
  4 21  1  0
  6 22  1  0
  7 23  1  0
  9 24  1  0
 12 25  1  0
 13 26  1  0
 14 27  1  0
 15 28  1  0
M  END
>  <smiles>  (31) 
CSc1[nH]c(=N)[nH]c(=N)c1-c1ccccc1Cl

>  <score_type>  (31) 
oracle

>  <origin>  (31) 
adg

>  <m_score__min__energy>  (31) 
-6.5099999999999998

>  <m_primary>  (31) 
energy

$$$$
31:0
     RDKit          3D

 43 46  0  0  0  0  0  0  0  0999 V2000
   -6.3990   13.5410  -34.1980 C   0  0  0  0  0  0  0  0  0  0  0  0
   -6.1580   14.9730  -34.0780 N   0  0  0  0  0  0  0  0  0  0  0  0
   -4.9660   15.5520  -33.8450 C   0  0  0  0  0  0  0  0  0  0  0  0
   -5.1470   16.9200  -33.8700 C   0  0  0  0  0  0  0  0  0  0  0  0
   -4.0960   17.9520  -33.7250 C   0  0  0  0  0  0  0  0  0  0  0  0
   -2.8690   17.6960  -34.2620 N   0  0  0  0  0  0  0  0  0  0  0  0
   -1.8680   18.6050  -34.2010 C   0  0  0  0  0  0  0  0  0  0  0  0
   -2.0710   19.7980  -33.5980 N   0  0  0  0  0  0  0  0  0  0  0  0
   -3.2620   20.1170  -33.0310 C   0  0  0  0  0  0  0  0  0  0  0  0
   -4.3230   19.1790  -33.0420 C   0  0  0  0  0  0  0  0  0  0  0  0
   -5.6580   19.4370  -32.3430 C   0  0  0  0  0  0  0  0  0  0  0  0
   -6.4670   20.7010  -32.7280 C   0  0  0  0  0  0  0  0  0  0  0  0
   -5.8650   21.9930  -32.3270 N   0  0  0  0  0  0  0  0  0  0  0  0
   -5.9370   22.3370  -30.8880 C   0  0  0  0  0  0  0  0  0  0  0  0
   -4.9380   23.3920  -30.5150 C   0  0  0  0  0  0  0  0  0  0  0  0
   -3.8620   23.2430  -29.6660 C   0  0  0  0  0  0  0  0  0  0  0  0
   -3.2560   24.4810  -29.6220 C   0  0  0  0  0  0  0  0  0  0  0  0
   -3.9110   25.3270  -30.3880 O   0  0  0  0  0  0  0  0  0  0  0  0
   -4.9280   24.7050  -30.9390 C   0  0  0  0  0  0  0  0  0  0  0  0
   -4.5470   22.2710  -32.9460 C   0  0  0  0  0  0  0  0  0  0  0  0
   -3.3810   21.4520  -32.3640 C   0  0  0  0  0  0  0  0  0  0  0  0
   -6.4870   17.1010  -34.1650 C   0  0  0  0  0  0  0  0  0  0  0  0
   -7.0810   15.8970  -34.2900 N   0  0  0  0  0  0  0  0  0  0  0  0
   -6.4738   13.0964  -33.1946 H   0  0  0  0  0  0  0  0  0  0  0  0
   -7.3382   13.3718  -34.7450 H   0  0  0  0  0  0  0  0  0  0  0  0
   -5.5669   13.0737  -34.7450 H   0  0  0  0  0  0  0  0  0  0  0  0
   -4.0156   15.0279  -33.6663 H   0  0  0  0  0  0  0  0  0  0  0  0
   -2.6870   16.7920  -34.7540 H   0  0  0  0  0  0  0  0  0  0  0  0
   -0.8877   18.3728  -34.6427 H   0  0  0  0  0  0  0  0  0  0  0  0
   -6.3014   18.5674  -32.5427 H   0  0  0  0  0  0  0  0  0  0  0  0
   -5.3809   19.6069  -31.2921 H   0  0  0  0  0  0  0  0  0  0  0  0
   -6.5845   20.7074  -33.8217 H   0  0  0  0  0  0  0  0  0  0  0  0
   -7.4174   20.6287  -32.1788 H   0  0  0  0  0  0  0  0  0  0  0  0
   -6.9474   22.7078  -30.6610 H   0  0  0  0  0  0  0  0  0  0  0  0
   -5.7081   21.4304  -30.3086 H   0  0  0  0  0  0  0  0  0  0  0  0
   -3.5525   22.3301  -29.1360 H   0  0  0  0  0  0  0  0  0  0  0  0
   -2.3588   24.7249  -29.0342 H   0  0  0  0  0  0  0  0  0  0  0  0
   -5.6555   25.1583  -31.6283 H   0  0  0  0  0  0  0  0  0  0  0  0
   -4.6191   22.0494  -34.0210 H   0  0  0  0  0  0  0  0  0  0  0  0
   -4.3210   23.3272  -32.7377 H   0  0  0  0  0  0  0  0  0  0  0  0
   -2.4442   22.0096  -32.5106 H   0  0  0  0  0  0  0  0  0  0  0  0
   -3.5751   21.2872  -31.2939 H   0  0  0  0  0  0  0  0  0  0  0  0
   -6.9883   18.0734  -34.2794 H   0  0  0  0  0  0  0  0  0  0  0  0
  1  2  1  0
  2  3  1  0
  3  4  2  0
  4  5  1  0
  5  6  2  0
  6  7  1  0
  7  8  2  0
  8  9  1  0
  9 10  2  0
 10 11  1  0
 11 12  1  0
 12 13  1  0
 13 14  1  0
 14 15  1  0
 15 16  1  0
 16 17  2  0
 17 18  1  0
 18 19  1  0
 13 20  1  0
 20 21  1  0
  4 22  1  0
 22 23  2  0
 23  2  1  0
 10  5  1  0
 19 15  2  0
 21  9  1  0
  1 24  1  0
  1 25  1  0
  1 26  1  0
  3 27  1  0
  6 28  1  0
  7 29  1  0
 11 30  1  0
 11 31  1  0
 12 32  1  0
 12 33  1  0
 14 34  1  0
 14 35  1  0
 16 36  1  0
 17 37  1  0
 19 38  1  0
 20 39  1  0
 20 40  1  0
 21 41  1  0
 21 42  1  0
 22 43  1  0
M  CHG  1   6   1
M  END
>  <UniqueID>  (32) 
30

>  <SMILES>  (32) 
Cn1cc(-c2[nH+]cnc3c2CCN(Cc2ccoc2)CC3)cn1

>  <Energy>  (32) 
124.85995049565307

>  <Genealogy>  (32) 
Cn1cc(-c2[nH+]cnc3c2CCN(Cc2ccoc2)CC3)cn1 (protonated)
Cn1cc(-c2[nH+]cnc3c2CCN(Cc2ccoc2)CC3)cn1 (3D coordinates assigned)
Cn1cc(-c2[nH+]cnc3c2CCN(Cc2ccoc2)CC3)cn1 (nonaromatic ring conformer: 124.85995049565307 kcal/mol)

>  <smiles>  (32) 
Cn1cc(-c2ncnc3c2CCN(Cc2ccoc2)CC3)cn1

>  <score_type>  (32) 
oracle

>  <origin>  (32) 
adg

>  <m_score__min__energy>  (32) 
-6.04

>  <m_primary>  (32) 
energy

$$$$
32:0
     RDKit          3D

 35 36  0  0  0  0  0  0  0  0999 V2000
   -6.2591   23.9749  -33.0595 H   0  0  0  0  0  0  0  0  0  0  0  0
   -6.2520   23.3210  -32.1750 C   0  0  0  0  0  0  0  0  0  0  0  0
   -5.3700   23.6100  -31.1950 C   0  0  0  0  0  0  0  0  0  0  0  0
   -5.2470   24.9550  -30.5830 C   0  0  0  0  0  0  0  0  0  0  0  0
   -4.2290   25.6560  -30.8350 O   0  0  0  0  0  0  0  0  0  0  0  0
   -6.3290   25.5380  -29.7240 C   0  0  0  0  0  0  0  0  0  0  0  0
   -6.0706   25.3987  -28.6639 H   0  0  0  0  0  0  0  0  0  0  0  0
   -6.4291   26.6121  -29.9390 H   0  0  0  0  0  0  0  0  0  0  0  0
   -7.2811   25.0308  -29.9390 H   0  0  0  0  0  0  0  0  0  0  0  0
   -4.4930   22.5120  -30.6570 C   0  0  0  0  0  0  0  0  0  0  0  0
   -5.1119   21.6441  -30.3856 H   0  0  0  0  0  0  0  0  0  0  0  0
   -3.7638   22.2076  -31.4223 H   0  0  0  0  0  0  0  0  0  0  0  0
   -3.8160   22.9890  -29.5120 O   0  0  0  0  0  0  0  0  0  0  0  0
   -2.4920   23.3590  -29.8400 C   0  0  0  0  0  0  0  0  0  0  0  0
   -1.8424   22.4730  -29.7855 H   0  0  0  0  0  0  0  0  0  0  0  0
   -2.4754   23.7726  -30.8591 H   0  0  0  0  0  0  0  0  0  0  0  0
   -1.9960   24.3970  -28.8810 C   0  0  0  0  0  0  0  0  0  0  0  0
   -1.6030   25.5970  -29.2400 O   0  0  0  0  0  0  0  0  0  0  0  0
   -1.2100   26.2450  -28.1660 C   0  0  0  0  0  0  0  0  0  0  0  0
   -0.8296   27.2770  -28.1528 H   0  0  0  0  0  0  0  0  0  0  0  0
   -1.3470   25.4340  -27.0570 C   0  0  0  0  0  0  0  0  0  0  0  0
   -1.1012   25.6905  -26.0159 H   0  0  0  0  0  0  0  0  0  0  0  0
   -1.8540   24.2380  -27.5180 C   0  0  0  0  0  0  0  0  0  0  0  0
   -2.0949   23.3442  -26.9237 H   0  0  0  0  0  0  0  0  0  0  0  0
   -7.2090   22.1950  -32.1530 C   0  0  0  0  0  0  0  0  0  0  0  0
   -6.8810   20.9470  -32.7120 C   0  0  0  0  0  0  0  0  0  0  0  0
   -5.8852   20.7870  -33.1510 H   0  0  0  0  0  0  0  0  0  0  0  0
   -7.8180   19.9090  -32.7110 C   0  0  0  0  0  0  0  0  0  0  0  0
   -7.5516   18.9291  -33.1339 H   0  0  0  0  0  0  0  0  0  0  0  0
   -9.0900   20.1130  -32.1750 C   0  0  0  0  0  0  0  0  0  0  0  0
   -9.8222   19.2921  -32.1685 H   0  0  0  0  0  0  0  0  0  0  0  0
   -9.4340   21.3610  -31.6460 C   0  0  0  0  0  0  0  0  0  0  0  0
  -10.4397   21.5240  -31.2313 H   0  0  0  0  0  0  0  0  0  0  0  0
   -8.5000   22.4020  -31.6440 C   0  0  0  0  0  0  0  0  0  0  0  0
   -8.7787   23.3871  -31.2417 H   0  0  0  0  0  0  0  0  0  0  0  0
  1  2  1  0
  2  3  2  0
  3  4  1  0
  4  5  2  0
  4  6  1  0
  6  7  1  0
  6  8  1  0
  6  9  1  0
  3 10  1  0
 10 11  1  0
 10 12  1  0
 10 13  1  0
 13 14  1  0
 14 15  1  0
 14 16  1  0
 14 17  1  0
 17 18  1  0
 18 19  1  0
 19 20  1  0
 19 21  2  0
 21 22  1  0
 21 23  1  0
 23 24  1  0
  2 25  1  0
 25 26  2  0
 26 27  1  0
 26 28  1  0
 28 29  1  0
 28 30  2  0
 30 31  1  0
 30 32  1  0
 32 33  1  0
 32 34  2  0
 34 35  1  0
 23 17  2  0
 34 25  1  0
M  END
>  <UniqueID>  (33) 
31

>  <SMILES>  (33) 
CC(=O)/C(=C\c1ccccc1)COCc1ccco1

>  <Energy>  (33) 
70.04692859485445

>  <Genealogy>  (33) 
CC(=O)/C(=C\c1ccccc1)COCc1ccco1 (cis-trans isomerization)
CC(=O)/C(=C\c1ccccc1)COCc1ccco1 (3D coordinates assigned)
CC(=O)/C(=C\c1ccccc1)COCc1ccco1 (optimized conformer: 70.04692859485445 kcal/mol)

>  <smiles>  (33) 
CC(=O)C(=Cc1ccccc1)COCc1ccco1

>  <score_type>  (33) 
oracle

>  <origin>  (33) 
adg

>  <m_score__min__energy>  (33) 
-8.4399999999999995

>  <m_primary>  (33) 
energy

$$$$
33:0
     RDKit          3D

 46 49  0  0  0  0  0  0  0  0999 V2000
   -5.5565   26.3612  -30.8569 H   0  0  0  0  0  0  0  0  0  0  0  0
   -5.0100   25.4070  -30.8300 C   0  0  0  0  0  0  0  0  0  0  0  0
   -3.8740   25.2990  -30.0990 N   0  0  0  0  0  0  0  0  0  0  0  0
   -3.1380   24.1580  -30.0790 C   0  0  0  0  0  0  0  0  0  0  0  0
   -1.9450   24.1340  -29.3520 C   0  0  0  0  0  0  0  0  0  0  0  0
   -1.6626   25.0037  -28.7405 H   0  0  0  0  0  0  0  0  0  0  0  0
   -1.1020   23.0100  -29.3940 C   0  0  0  0  0  0  0  0  0  0  0  0
    0.0960   22.9370  -28.6640 O   0  0  0  0  0  0  0  0  0  0  0  0
    0.2040   22.8490  -27.2430 C   0  0  0  0  0  0  0  0  0  0  0  0
    0.1714   23.8621  -26.8157 H   0  0  0  0  0  0  0  0  0  0  0  0
    1.1554   22.3573  -26.9921 H   0  0  0  0  0  0  0  0  0  0  0  0
   -0.9390   22.0250  -26.6620 C   0  0  0  0  0  0  0  0  0  0  0  0
   -0.8933   22.0580  -25.5634 H   0  0  0  0  0  0  0  0  0  0  0  0
   -1.8996   22.4397  -27.0016 H   0  0  0  0  0  0  0  0  0  0  0  0
   -0.8491   20.9826  -27.0016 H   0  0  0  0  0  0  0  0  0  0  0  0
   -1.4430   21.9270  -30.2140 C   0  0  0  0  0  0  0  0  0  0  0  0
   -0.5560   20.8380  -30.2760 O   0  0  0  0  0  0  0  0  0  0  0  0
   -0.5270   19.7630  -29.3410 C   0  0  0  0  0  0  0  0  0  0  0  0
   -0.5379   20.1666  -28.3178 H   0  0  0  0  0  0  0  0  0  0  0  0
   -1.4082   19.1221  -29.4917 H   0  0  0  0  0  0  0  0  0  0  0  0
    0.3875   19.1705  -29.4917 H   0  0  0  0  0  0  0  0  0  0  0  0
   -2.6430   21.9530  -30.9490 C   0  0  0  0  0  0  0  0  0  0  0  0
   -2.8756   21.1236  -31.6331 H   0  0  0  0  0  0  0  0  0  0  0  0
   -3.5530   23.0240  -30.8240 C   0  0  0  0  0  0  0  0  0  0  0  0
   -4.8180   23.0830  -31.4920 C   0  0  0  0  0  0  0  0  0  0  0  0
   -5.4360   22.0610  -32.0310 N   0  0  0  0  0  0  0  0  0  0  0  0
   -6.7980   21.6430  -31.8970 C   0  0  0  0  0  0  0  0  0  0  0  0
   -7.8300   22.6060  -31.8050 C   0  0  0  0  0  0  0  0  0  0  0  0
   -7.5721   23.6722  -31.7230 H   0  0  0  0  0  0  0  0  0  0  0  0
   -9.1840   22.2170  -31.8170 C   0  0  0  0  0  0  0  0  0  0  0  0
   -9.9724   22.9766  -31.7097 H   0  0  0  0  0  0  0  0  0  0  0  0
   -9.5320   20.8670  -31.9650 C   0  0  0  0  0  0  0  0  0  0  0  0
  -10.5857   20.5523  -31.9902 H   0  0  0  0  0  0  0  0  0  0  0  0
   -8.5030   19.9380  -32.0790 C   0  0  0  0  0  0  0  0  0  0  0  0
   -8.5650   18.5800  -32.2870 C   0  0  0  0  0  0  0  0  0  0  0  0
   -9.4862   17.9869  -32.3851 H   0  0  0  0  0  0  0  0  0  0  0  0
   -7.3380   18.1090  -32.3490 O   0  0  0  0  0  0  0  0  0  0  0  0
   -6.4770   19.0950  -32.1780 C   0  0  0  0  0  0  0  0  0  0  0  0
   -5.0960   18.8620  -32.1420 O   0  0  0  0  0  0  0  0  0  0  0  0
   -4.1690   19.3410  -33.1060 C   0  0  0  0  0  0  0  0  0  0  0  0
   -3.3045   19.7877  -32.5931 H   0  0  0  0  0  0  0  0  0  0  0  0
   -3.8300   18.5052  -33.7357 H   0  0  0  0  0  0  0  0  0  0  0  0
   -4.6546   20.1010  -33.7357 H   0  0  0  0  0  0  0  0  0  0  0  0
   -7.1750   20.2940  -32.0260 C   0  0  0  0  0  0  0  0  0  0  0  0
   -5.4870   24.3130  -31.5470 C   0  0  0  0  0  0  0  0  0  0  0  0
   -6.3945   24.4148  -32.1603 H   0  0  0  0  0  0  0  0  0  0  0  0
  1  2  1  0
  2  3  1  0
  3  4  1  0
  4  5  2  0
  5  6  1  0
  5  7  1  0
  7  8  1  0
  8  9  1  0
  9 10  1  0
  9 11  1  0
  9 12  1  0
 12 13  1  0
 12 14  1  0
 12 15  1  0
  7 16  2  0
 16 17  1  0
 17 18  1  0
 18 19  1  0
 18 20  1  0
 18 21  1  0
 16 22  1  0
 22 23  1  0
 22 24  2  0
 24 25  1  0
 25 26  2  0
 26 27  1  0
 27 28  2  0
 28 29  1  0
 28 30  1  0
 30 31  1  0
 30 32  2  0
 32 33  1  0
 32 34  1  0
 34 35  2  0
 35 36  1  0
 35 37  1  0
 37 38  1  0
 38 39  1  0
 39 40  1  0
 40 41  1  0
 40 42  1  0
 40 43  1  0
 38 44  2  0
 25 45  1  0
 45 46  1  0
 45  2  2  0
 24  4  1  0
 44 27  1  0
 44 34  1  0
M  CHG  1   3  -1
M  END
>  <UniqueID>  (34) 
32

>  <SMILES>  (34) 
CCOc1cc2[n-]cc/c(=N/c3cccc4coc(OC)c34)c2cc1OC

>  <Energy>  (34) 
112.0403985999297

>  <Genealogy>  (34) 
CCOc1cc2[n-]ccc(=Nc3cccc4coc(OC)c34)c2cc1OC (protonated)
CCOc1cc2[n-]cc/c(=N/c3cccc4coc(OC)c34)c2cc1OC (cis-trans isomerization)
CCOc1cc2[n-]cc/c(=N/c3cccc4coc(OC)c34)c2cc1OC (3D coordinates assigned)
CCOc1cc2[n-]cc/c(=N/c3cccc4coc(OC)c34)c2cc1OC (optimized conformer: 112.0403985999297 kcal/mol)

>  <smiles>  (34) 
CCOc1cc2[nH]ccc(=Nc3cccc4coc(OC)c34)c2cc1OC

>  <score_type>  (34) 
oracle

>  <origin>  (34) 
adg

>  <m_score__min__energy>  (34) 
-8.9399999999999995

>  <m_primary>  (34) 
energy

$$$$
34:0
     RDKit          3D

 56 57  0  0  0  0  0  0  0  0999 V2000
   -3.0670   19.0610  -26.7010 C   0  0  0  0  0  0  0  0  0  0  0  0
   -1.7070   19.6710  -26.3790 C   0  0  0  0  0  0  0  0  0  0  0  0
   -1.3120   20.7320  -27.4140 C   0  0  0  0  0  0  0  0  0  0  0  0
   -2.4600   21.7330  -27.6470 C   0  0  0  0  0  0  0  0  0  0  0  0
   -2.1370   22.7850  -28.6360 N   0  0  0  0  0  0  0  0  0  0  0  0
   -2.8360   22.5760  -29.9230 C   0  0  0  0  0  0  0  0  0  0  0  0
   -3.5030   23.8340  -30.3750 C   0  0  0  0  0  0  0  0  0  0  0  0
   -3.1410   24.9370  -29.8870 O   0  0  0  0  0  0  0  0  0  0  0  0
   -4.5680   23.7620  -31.3280 N   0  0  0  0  0  0  0  0  0  0  0  0
   -5.0600   22.5790  -31.9840 C   0  0  0  0  0  0  0  0  0  0  0  0
   -4.2330   21.8230  -32.8370 C   0  0  0  0  0  0  0  0  0  0  0  0
   -4.7070   20.6560  -33.4360 C   0  0  0  0  0  0  0  0  0  0  0  0
   -6.0070   20.2180  -33.1820 C   0  0  0  0  0  0  0  0  0  0  0  0
   -6.8350   20.9410  -32.3190 C   0  0  0  0  0  0  0  0  0  0  0  0
   -6.3750   22.1280  -31.7130 C   0  0  0  0  0  0  0  0  0  0  0  0
   -7.2630   22.8990  -30.7590 C   0  0  0  0  0  0  0  0  0  0  0  0
   -6.8210   22.7940  -29.4530 F   0  0  0  0  0  0  0  0  0  0  0  0
   -8.5580   22.4050  -30.8190 F   0  0  0  0  0  0  0  0  0  0  0  0
   -7.2710   24.2340  -31.1180 F   0  0  0  0  0  0  0  0  0  0  0  0
   -0.6760   22.9880  -28.7920 C   0  0  0  0  0  0  0  0  0  0  0  0
   -0.2640   24.2730  -28.1430 C   0  0  0  0  0  0  0  0  0  0  0  0
    0.9560   24.5750  -28.0850 O   0  0  0  0  0  0  0  0  0  0  0  0
   -1.2530   25.1320  -27.5550 N   0  0  0  0  0  0  0  0  0  0  0  0
   -0.9510   26.0800  -26.5180 C   0  0  0  0  0  0  0  0  0  0  0  0
   -0.8050   27.4350  -26.8520 C   0  0  0  0  0  0  0  0  0  0  0  0
   -0.5350   28.3840  -25.8650 C   0  0  0  0  0  0  0  0  0  0  0  0
   -0.4290   27.9950  -24.5310 C   0  0  0  0  0  0  0  0  0  0  0  0
   -0.6090   26.6560  -24.1780 C   0  0  0  0  0  0  0  0  0  0  0  0
   -0.8850   25.6870  -25.1640 C   0  0  0  0  0  0  0  0  0  0  0  0
   -1.1330   24.3430  -24.8340 O   0  0  0  0  0  0  0  0  0  0  0  0
   -0.1320   23.4010  -24.4790 C   0  0  0  0  0  0  0  0  0  0  0  0
   -3.5938   18.8247  -25.7647 H   0  0  0  0  0  0  0  0  0  0  0  0
   -3.6617   19.7786  -27.2853 H   0  0  0  0  0  0  0  0  0  0  0  0
   -2.9265   18.1396  -27.2853 H   0  0  0  0  0  0  0  0  0  0  0  0
   -1.7509   20.1395  -25.3847 H   0  0  0  0  0  0  0  0  0  0  0  0
   -0.9538   18.8695  -26.3991 H   0  0  0  0  0  0  0  0  0  0  0  0
   -0.4282   21.2769  -27.0507 H   0  0  0  0  0  0  0  0  0  0  0  0
   -1.0901   20.2267  -28.3656 H   0  0  0  0  0  0  0  0  0  0  0  0
   -3.3389   21.1769  -28.0053 H   0  0  0  0  0  0  0  0  0  0  0  0
   -2.6470   22.2383  -26.6880 H   0  0  0  0  0  0  0  0  0  0  0  0
   -2.1056   22.2619  -30.6832 H   0  0  0  0  0  0  0  0  0  0  0  0
   -3.6033   21.8000  -29.7854 H   0  0  0  0  0  0  0  0  0  0  0  0
   -3.2031   22.1561  -33.0328 H   0  0  0  0  0  0  0  0  0  0  0  0
   -4.0551   20.0803  -34.1095 H   0  0  0  0  0  0  0  0  0  0  0  0
   -6.3811   19.3017  -33.6620 H   0  0  0  0  0  0  0  0  0  0  0  0
   -7.8535   20.5812  -32.1109 H   0  0  0  0  0  0  0  0  0  0  0  0
   -0.1397   22.1526  -28.3182 H   0  0  0  0  0  0  0  0  0  0  0  0
   -0.4302   23.0302  -29.8634 H   0  0  0  0  0  0  0  0  0  0  0  0
   -2.2240   25.1090  -27.9390 H   0  0  0  0  0  0  0  0  0  0  0  0
   -0.9042   27.7519  -27.9007 H   0  0  0  0  0  0  0  0  0  0  0  0
   -0.4056   29.4410  -26.1405 H   0  0  0  0  0  0  0  0  0  0  0  0
   -0.2036   28.7426  -23.7562 H   0  0  0  0  0  0  0  0  0  0  0  0
   -0.5349   26.3550  -23.1226 H   0  0  0  0  0  0  0  0  0  0  0  0
   -0.0623   23.3354  -23.3832 H   0  0  0  0  0  0  0  0  0  0  0  0
   -0.3945   22.4148  -24.8894 H   0  0  0  0  0  0  0  0  0  0  0  0
    0.8365   23.7229  -24.8894 H   0  0  0  0  0  0  0  0  0  0  0  0
  1  2  1  0
  2  3  1  0
  3  4  1  0
  4  5  1  0
  5  6  1  0
  6  7  1  0
  7  8  2  0
  7  9  1  0
  9 10  1  0
 10 11  2  0
 11 12  1  0
 12 13  2  0
 13 14  1  0
 14 15  2  0
 15 16  1  0
 16 17  1  0
 16 18  1  0
 16 19  1  0
  5 20  1  0
 20 21  1  0
 21 22  2  0
 21 23  1  0
 23 24  1  0
 24 25  2  0
 25 26  1  0
 26 27  2  0
 27 28  1  0
 28 29  2  0
 29 30  1  0
 30 31  1  0
 15 10  1  0
 29 24  1  0
  1 32  1  0
  1 33  1  0
  1 34  1  0
  2 35  1  0
  2 36  1  0
  3 37  1  0
  3 38  1  0
  4 39  1  0
  4 40  1  0
  6 41  1  0
  6 42  1  0
 11 43  1  0
 12 44  1  0
 13 45  1  0
 14 46  1  0
 20 47  1  0
 20 48  1  0
 23 49  1  0
 25 50  1  0
 26 51  1  0
 27 52  1  0
 28 53  1  0
 31 54  1  0
 31 55  1  0
 31 56  1  0
M  CHG  1   9  -1
M  END
>  <UniqueID>  (35) 
33

>  <SMILES>  (35) 
CCCCN(CC(=O)[N-]c1ccccc1C(F)(F)F)CC(=O)Nc1ccccc1OC

>  <Energy>  (35) 
61.796104537891516

>  <Genealogy>  (35) 
CCCCN(CC(=O)[N-]c1ccccc1C(F)(F)F)CC(=O)Nc1ccccc1OC (protonated)
CCCCN(CC(=O)[N-]c1ccccc1C(F)(F)F)CC(=O)Nc1ccccc1OC (3D coordinates assigned)
CCCCN(CC(=O)[N-]c1ccccc1C(F)(F)F)CC(=O)Nc1ccccc1OC (optimized conformer: 61.796104537891516 kcal/mol)

>  <smiles>  (35) 
CCCCN(CC(=O)Nc1ccccc1OC)CC(=O)Nc1ccccc1C(F)(F)F

>  <score_type>  (35) 
oracle

>  <origin>  (35) 
adg

>  <m_score__min__energy>  (35) 
-9.7699999999999996

>  <m_primary>  (35) 
energy

$$$$
35:0
     RDKit          3D

 24 25  0  0  0  0  0  0  0  0999 V2000
   -6.1390   25.4940  -29.7260 C   0  0  0  0  0  0  0  0  0  0  0  0
   -5.1650   24.4140  -30.1840 C   0  0  0  0  0  0  0  0  0  0  0  0
   -5.2750   24.2010  -31.5900 O   0  0  0  0  0  0  0  0  0  0  0  0
   -5.4860   22.9420  -32.1650 C   0  0  0  0  0  0  0  0  0  0  0  0
   -4.5660   22.3750  -32.8150 O   0  0  0  0  0  0  0  0  0  0  0  0
   -6.8120   22.3080  -32.0450 C   0  0  0  0  0  0  0  0  0  0  0  0
   -7.9240   23.0070  -31.5440 C   0  0  0  0  0  0  0  0  0  0  0  0
   -9.1160   22.2970  -31.6110 C   0  0  0  0  0  0  0  0  0  0  0  0
   -8.8010   20.7900  -32.2820 S   0  0  0  0  0  0  0  0  0  0  0  0
   -7.1490   21.0220  -32.4880 C   0  0  0  0  0  0  0  0  0  0  0  0
   -6.2590   20.0040  -32.9610 N   0  0  0  0  0  0  0  0  0  0  0  0
   -5.3900   19.2750  -32.2390 C   0  0  0  0  0  0  0  0  0  0  0  0
   -4.7960   18.3340  -32.9980 N   0  0  0  0  0  0  0  0  0  0  0  0
   -5.3650   18.5310  -34.2070 C   0  0  0  0  0  0  0  0  0  0  0  0
   -6.2670   19.5330  -34.1940 N   0  0  0  0  0  0  0  0  0  0  0  0
   -6.1646   25.5224  -28.6267 H   0  0  0  0  0  0  0  0  0  0  0  0
   -5.8106   26.4709  -30.1105 H   0  0  0  0  0  0  0  0  0  0  0  0
   -7.1445   25.2679  -30.1105 H   0  0  0  0  0  0  0  0  0  0  0  0
   -4.1383   24.7286  -29.9455 H   0  0  0  0  0  0  0  0  0  0  0  0
   -5.4065   23.4755  -29.6636 H   0  0  0  0  0  0  0  0  0  0  0  0
   -7.8562   24.0259  -31.1351 H   0  0  0  0  0  0  0  0  0  0  0  0
  -10.1002   22.6605  -31.2804 H   0  0  0  0  0  0  0  0  0  0  0  0
   -5.1902   19.4272  -31.1681 H   0  0  0  0  0  0  0  0  0  0  0  0
   -5.1200   17.9402  -35.1019 H   0  0  0  0  0  0  0  0  0  0  0  0
  1  2  1  0
  2  3  1  0
  3  4  1  0
  4  5  2  0
  4  6  1  0
  6  7  1  0
  7  8  2  0
  8  9  1  0
  9 10  1  0
 10 11  1  0
 11 12  1  0
 12 13  2  0
 13 14  1  0
 14 15  2  0
 10  6  2  0
 15 11  1  0
  1 16  1  0
  1 17  1  0
  1 18  1  0
  2 19  1  0
  2 20  1  0
  7 21  1  0
  8 22  1  0
 12 23  1  0
 14 24  1  0
M  END
>  <UniqueID>  (36) 
34

>  <SMILES>  (36) 
CCOC(=O)c1ccsc1-n1cncn1

>  <Energy>  (36) 
85.084973634058

>  <Genealogy>  (36) 
CCOC(=O)c1ccsc1-n1cncn1 (3D coordinates assigned)
CCOC(=O)c1ccsc1-n1cncn1 (optimized conformer: 85.084973634058 kcal/mol)

>  <smiles>  (36) 
CCOC(=O)c1ccsc1-n1cncn1

>  <score_type>  (36) 
oracle

>  <origin>  (36) 
adg

>  <m_score__min__energy>  (36) 
-5.3099999999999996

>  <m_primary>  (36) 
energy

$$$$
36:0
     RDKit          3D

 54 56  0  0  0  0  0  0  0  0999 V2000
   -0.5670   27.8200  -25.0910 C   0  0  0  0  0  0  0  0  0  0  0  0
   -1.2220   27.0040  -26.1990 C   0  0  0  0  0  0  0  0  0  0  0  0
   -1.0370   25.5360  -25.9620 C   0  0  0  0  0  0  0  0  0  0  0  0
   -0.7670   25.0010  -24.7440 N   0  0  0  0  0  0  0  0  0  0  0  0
   -0.6150   23.6910  -24.8970 N   0  0  0  0  0  0  0  0  0  0  0  0
   -0.3740   22.7580  -23.8040 C   0  0  0  0  0  0  0  0  0  0  0  0
   -0.7920   23.3900  -26.1930 C   0  0  0  0  0  0  0  0  0  0  0  0
   -0.7390   22.1640  -26.7600 N   0  0  0  0  0  0  0  0  0  0  0  0
   -0.9190   22.0540  -28.1080 C   0  0  0  0  0  0  0  0  0  0  0  0
   -1.1540   23.2010  -28.9170 C   0  0  0  0  0  0  0  0  0  0  0  0
   -1.2500   23.0090  -30.4160 C   0  0  0  0  0  0  0  0  0  0  0  0
   -2.6560   22.9620  -30.8650 N   0  0  0  0  0  0  0  0  0  0  0  0
   -3.0860   21.9260  -31.8210 C   0  0  0  0  0  0  0  0  0  0  0  0
   -4.5550   22.0790  -32.2520 C   0  0  0  0  0  0  0  0  0  0  0  0
   -5.3380   20.7570  -32.3880 C   0  0  0  0  0  0  0  0  0  0  0  0
   -6.8340   20.9410  -32.2760 C   0  0  0  0  0  0  0  0  0  0  0  0
   -7.7010   19.8750  -32.5750 C   0  0  0  0  0  0  0  0  0  0  0  0
   -9.0830   20.0250  -32.4260 C   0  0  0  0  0  0  0  0  0  0  0  0
   -9.6120   21.2370  -31.9780 C   0  0  0  0  0  0  0  0  0  0  0  0
   -8.7580   22.2940  -31.6570 C   0  0  0  0  0  0  0  0  0  0  0  0
   -7.3740   22.1450  -31.7920 C   0  0  0  0  0  0  0  0  0  0  0  0
   -3.6580   23.7200  -30.1530 C   0  0  0  0  0  0  0  0  0  0  0  0
   -4.3030   23.1920  -29.2080 O   0  0  0  0  0  0  0  0  0  0  0  0
   -3.9270   25.0460  -30.5150 O   0  0  0  0  0  0  0  0  0  0  0  0
   -5.2390   25.5950  -30.5080 C   0  0  0  0  0  0  0  0  0  0  0  0
   -1.2680   24.4740  -28.2820 C   0  0  0  0  0  0  0  0  0  0  0  0
   -1.6220   25.6440  -28.9540 O   0  0  0  0  0  0  0  0  0  0  0  0
   -1.0460   24.5190  -26.9060 C   0  0  0  0  0  0  0  0  0  0  0  0
   -0.8814   27.4283  -24.1124 H   0  0  0  0  0  0  0  0  0  0  0  0
    0.5270   27.7481  -25.1804 H   0  0  0  0  0  0  0  0  0  0  0  0
   -0.8738   28.8725  -25.1804 H   0  0  0  0  0  0  0  0  0  0  0  0
   -2.2978   27.2317  -26.2262 H   0  0  0  0  0  0  0  0  0  0  0  0
   -0.7493   27.2680  -27.1565 H   0  0  0  0  0  0  0  0  0  0  0  0
   -0.5079   23.2764  -22.8431 H   0  0  0  0  0  0  0  0  0  0  0  0
   -1.0857   21.9220  -23.8719 H   0  0  0  0  0  0  0  0  0  0  0  0
    0.6535   22.3712  -23.8719 H   0  0  0  0  0  0  0  0  0  0  0  0
   -0.8818   21.0603  -28.5782 H   0  0  0  0  0  0  0  0  0  0  0  0
   -0.7422   23.8463  -30.9172 H   0  0  0  0  0  0  0  0  0  0  0  0
   -0.7726   22.0520  -30.6734 H   0  0  0  0  0  0  0  0  0  0  0  0
   -2.4496   21.9890  -32.7160 H   0  0  0  0  0  0  0  0  0  0  0  0
   -2.9903   20.9529  -31.3171 H   0  0  0  0  0  0  0  0  0  0  0  0
   -5.0664   22.7026  -31.5040 H   0  0  0  0  0  0  0  0  0  0  0  0
   -4.5345   22.5276  -33.2561 H   0  0  0  0  0  0  0  0  0  0  0  0
   -5.1119   20.3154  -33.3698 H   0  0  0  0  0  0  0  0  0  0  0  0
   -5.0246   20.1031  -31.5609 H   0  0  0  0  0  0  0  0  0  0  0  0
   -7.2896   18.9179  -32.9281 H   0  0  0  0  0  0  0  0  0  0  0  0
   -9.7548   19.1866  -32.6621 H   0  0  0  0  0  0  0  0  0  0  0  0
  -10.7006   21.3590  -31.8780 H   0  0  0  0  0  0  0  0  0  0  0  0
   -9.1748   23.2462  -31.2971 H   0  0  0  0  0  0  0  0  0  0  0  0
   -6.7049   22.9740  -31.5181 H   0  0  0  0  0  0  0  0  0  0  0  0
   -5.5725   25.7346  -29.4691 H   0  0  0  0  0  0  0  0  0  0  0  0
   -5.2329   26.5661  -31.0247 H   0  0  0  0  0  0  0  0  0  0  0  0
   -5.9263   24.9090  -31.0247 H   0  0  0  0  0  0  0  0  0  0  0  0
   -1.9990   25.6630  -29.8910 H   0  0  0  0  0  0  0  0  0  0  0  0
  1  2  1  0
  2  3  1  0
  3  4  2  0
  4  5  1  0
  5  6  1  0
  5  7  1  0
  7  8  2  0
  8  9  1  0
  9 10  2  0
 10 11  1  0
 11 12  1  0
 12 13  1  0
 13 14  1  0
 14 15  1  0
 15 16  1  0
 16 17  2  0
 17 18  1  0
 18 19  2  0
 19 20  1  0
 20 21  2  0
 12 22  1  0
 22 23  2  0
 22 24  1  0
 24 25  1  0
 10 26  1  0
 26 27  1  0
 26 28  2  0
 28  3  1  0
 28  7  1  0
 21 16  1  0
  1 29  1  0
  1 30  1  0
  1 31  1  0
  2 32  1  0
  2 33  1  0
  6 34  1  0
  6 35  1  0
  6 36  1  0
  9 37  1  0
 11 38  1  0
 11 39  1  0
 13 40  1  0
 13 41  1  0
 14 42  1  0
 14 43  1  0
 15 44  1  0
 15 45  1  0
 17 46  1  0
 18 47  1  0
 19 48  1  0
 20 49  1  0
 21 50  1  0
 25 51  1  0
 25 52  1  0
 25 53  1  0
 27 54  1  0
M  END
>  <UniqueID>  (37) 
35

>  <SMILES>  (37) 
CCc1nn(C)c2ncc(CN(CCCc3ccccc3)C(=O)OC)c(O)c12

>  <Energy>  (37) 
85.34577625853699

>  <Genealogy>  (37) 
CCc1nn(C)c2ncc(CN(CCCc3ccccc3)C(=O)OC)c(O)c12 (3D coordinates assigned)
CCc1nn(C)c2ncc(CN(CCCc3ccccc3)C(=O)OC)c(O)c12 (optimized conformer: 85.34577625853699 kcal/mol)

>  <smiles>  (37) 
CCc1nn(C)c2ncc(CN(CCCc3ccccc3)C(=O)OC)c(O)c12

>  <score_type>  (37) 
oracle

>  <origin>  (37) 
adg

>  <m_score__min__energy>  (37) 
-9.0999999999999996

>  <m_primary>  (37) 
energy

$$$$
37:0
     RDKit          3D

 40 42  0  0  0  0  0  0  0  0999 V2000
   -2.5610   21.7570  -28.3580 C   0  0  0  0  0  0  0  0  0  0  0  0
   -3.4820   20.7820  -29.0850 C   0  0  0  0  0  0  0  0  0  0  0  0
   -3.3190   20.8700  -30.5420 N   0  0  0  0  0  0  0  0  0  0  0  0
   -2.0640   20.7630  -31.2150 C   0  0  0  0  0  0  0  0  0  0  0  0
   -0.9890   20.4510  -30.6370 O   0  0  0  0  0  0  0  0  0  0  0  0
   -2.1340   21.1080  -32.5870 N   0  0  0  0  0  0  0  0  0  0  0  0
   -1.0040   21.4930  -33.4220 C   0  0  0  0  0  0  0  0  0  0  0  0
   -3.4750   21.5500  -32.7600 C   0  0  0  0  0  0  0  0  0  0  0  0
   -3.9040   22.0260  -33.8450 O   0  0  0  0  0  0  0  0  0  0  0  0
   -4.3020   21.4160  -31.5010 C   0  0  0  0  0  0  0  0  0  0  0  0
   -5.4240   20.4170  -31.8080 C   0  0  0  0  0  0  0  0  0  0  0  0
   -6.4500   20.7540  -32.7160 C   0  0  0  0  0  0  0  0  0  0  0  0
   -7.4400   19.8260  -33.0530 C   0  0  0  0  0  0  0  0  0  0  0  0
   -7.4000   18.5360  -32.5250 C   0  0  0  0  0  0  0  0  0  0  0  0
   -6.3560   18.1640  -31.6780 C   0  0  0  0  0  0  0  0  0  0  0  0
   -5.3630   19.0870  -31.3380 C   0  0  0  0  0  0  0  0  0  0  0  0
   -4.7920   22.7850  -30.9960 C   0  0  0  0  0  0  0  0  0  0  0  0
   -3.8730   23.8070  -30.6660 C   0  0  0  0  0  0  0  0  0  0  0  0
   -4.3140   25.0280  -30.1460 C   0  0  0  0  0  0  0  0  0  0  0  0
   -5.6730   25.2410  -29.9160 C   0  0  0  0  0  0  0  0  0  0  0  0
   -6.5930   24.2290  -30.1910 C   0  0  0  0  0  0  0  0  0  0  0  0
   -6.1580   23.0080  -30.7100 C   0  0  0  0  0  0  0  0  0  0  0  0
   -2.6790   21.6321  -27.2715 H   0  0  0  0  0  0  0  0  0  0  0  0
   -1.5170   21.5542  -28.6391 H   0  0  0  0  0  0  0  0  0  0  0  0
   -2.8229   22.7877  -28.6391 H   0  0  0  0  0  0  0  0  0  0  0  0
   -3.2457   19.7579  -28.7604 H   0  0  0  0  0  0  0  0  0  0  0  0
   -4.5221   21.0416  -28.8384 H   0  0  0  0  0  0  0  0  0  0  0  0
   -0.1569   21.7816  -32.7823 H   0  0  0  0  0  0  0  0  0  0  0  0
   -0.7113   20.6439  -34.0571 H   0  0  0  0  0  0  0  0  0  0  0  0
   -1.2906   22.3442  -34.0571 H   0  0  0  0  0  0  0  0  0  0  0  0
   -6.4713   21.7584  -33.1639 H   0  0  0  0  0  0  0  0  0  0  0  0
   -8.2524   20.1142  -33.7363 H   0  0  0  0  0  0  0  0  0  0  0  0
   -8.1902   17.8131  -32.7760 H   0  0  0  0  0  0  0  0  0  0  0  0
   -6.3141   17.1408  -31.2763 H   0  0  0  0  0  0  0  0  0  0  0  0
   -4.5252   18.7740  -30.6976 H   0  0  0  0  0  0  0  0  0  0  0  0
   -2.7968   23.6397  -30.8202 H   0  0  0  0  0  0  0  0  0  0  0  0
   -3.5876   25.8220  -29.9179 H   0  0  0  0  0  0  0  0  0  0  0  0
   -6.0192   26.2063  -29.5180 H   0  0  0  0  0  0  0  0  0  0  0  0
   -7.6635   24.3934  -29.9985 H   0  0  0  0  0  0  0  0  0  0  0  0
   -6.8890   22.2081  -30.8990 H   0  0  0  0  0  0  0  0  0  0  0  0
  1  2  1  0
  2  3  1  0
  3  4  1  0
  4  5  2  0
  4  6  1  0
  6  7  1  0
  6  8  1  0
  8  9  2  0
  8 10  1  0
 10 11  1  0
 11 12  2  0
 12 13  1  0
 13 14  2  0
 14 15  1  0
 15 16  2  0
 10 17  1  0
 17 18  2  0
 18 19  1  0
 19 20  2  0
 20 21  1  0
 21 22  2  0
 10  3  1  0
 16 11  1  0
 22 17  1  0
  1 23  1  0
  1 24  1  0
  1 25  1  0
  2 26  1  0
  2 27  1  0
  7 28  1  0
  7 29  1  0
  7 30  1  0
 12 31  1  0
 13 32  1  0
 14 33  1  0
 15 34  1  0
 16 35  1  0
 18 36  1  0
 19 37  1  0
 20 38  1  0
 21 39  1  0
 22 40  1  0
M  END
>  <UniqueID>  (38) 
36

>  <SMILES>  (38) 
CCN1C(=O)N(C)C(=O)C1(c1ccccc1)c1ccccc1

>  <Energy>  (38) 
63.96750350929359

>  <Genealogy>  (38) 
CCN1C(=O)N(C)C(=O)C1(c1ccccc1)c1ccccc1 (3D coordinates assigned)
CCN1C(=O)N(C)C(=O)C1(c1ccccc1)c1ccccc1 (nonaromatic ring conformer: 63.96750350929359 kcal/mol)

>  <smiles>  (38) 
CCN1C(=O)N(C)C(=O)C1(c1ccccc1)c1ccccc1

>  <score_type>  (38) 
oracle

>  <origin>  (38) 
adg

>  <m_score__min__energy>  (38) 
-6.3399999999999999

>  <m_primary>  (38) 
energy

$$$$
38:0
     RDKit          3D

 43 45  0  0  0  0  0  0  0  0999 V2000
   -9.4080   20.6900  -32.2490 C   0  0  0  0  0  0  0  0  0  0  0  0
   -8.1050   20.7390  -31.6750 O   0  0  0  0  0  0  0  0  0  0  0  0
   -7.4310   21.9220  -31.3410 C   0  0  0  0  0  0  0  0  0  0  0  0
   -7.4450   22.4580  -30.0390 C   0  0  0  0  0  0  0  0  0  0  0  0
   -6.7570   23.6420  -29.7570 C   0  0  0  0  0  0  0  0  0  0  0  0
   -6.0560   24.3140  -30.7700 C   0  0  0  0  0  0  0  0  0  0  0  0
   -5.2870   25.5640  -30.4570 C   0  0  0  0  0  0  0  0  0  0  0  0
   -3.8620   25.3060  -30.6200 N   0  0  0  0  0  0  0  0  0  0  0  0
   -3.0270   24.6910  -29.6320 C   0  0  0  0  0  0  0  0  0  0  0  0
   -1.9690   25.2760  -29.2830 O   0  0  0  0  0  0  0  0  0  0  0  0
   -3.3630   23.3880  -29.0280 C   0  0  0  0  0  0  0  0  0  0  0  0
   -3.7980   23.2340  -27.7630 N   0  0  0  0  0  0  0  0  0  0  0  0
   -3.8110   21.9040  -27.5580 C   0  0  0  0  0  0  0  0  0  0  0  0
   -3.4090   21.2430  -28.6200 O   0  0  0  0  0  0  0  0  0  0  0  0
   -3.1220   22.1260  -29.5510 C   0  0  0  0  0  0  0  0  0  0  0  0
   -2.6380   21.7610  -30.9000 C   0  0  0  0  0  0  0  0  0  0  0  0
   -1.2650   21.5590  -31.1090 C   0  0  0  0  0  0  0  0  0  0  0  0
   -0.7870   21.1970  -32.3720 C   0  0  0  0  0  0  0  0  0  0  0  0
   -1.6700   21.0150  -33.4420 C   0  0  0  0  0  0  0  0  0  0  0  0
   -1.1400   20.6540  -34.6890 O   0  0  0  0  0  0  0  0  0  0  0  0
    0.0710   21.1740  -35.2300 C   0  0  0  0  0  0  0  0  0  0  0  0
   -3.0490   21.1950  -33.2300 C   0  0  0  0  0  0  0  0  0  0  0  0
   -3.5290   21.5580  -31.9680 C   0  0  0  0  0  0  0  0  0  0  0  0
   -6.0300   23.7710  -32.0630 C   0  0  0  0  0  0  0  0  0  0  0  0
   -6.7180   22.5870  -32.3460 C   0  0  0  0  0  0  0  0  0  0  0  0
  -10.1609   20.6617  -31.4475 H   0  0  0  0  0  0  0  0  0  0  0  0
   -9.5683   21.5828  -32.8713 H   0  0  0  0  0  0  0  0  0  0  0  0
   -9.5008   19.7877  -32.8713 H   0  0  0  0  0  0  0  0  0  0  0  0
   -7.9994   21.9431  -29.2406 H   0  0  0  0  0  0  0  0  0  0  0  0
   -6.7653   24.0491  -28.7351 H   0  0  0  0  0  0  0  0  0  0  0  0
   -5.5959   26.3669  -31.1426 H   0  0  0  0  0  0  0  0  0  0  0  0
   -5.4897   25.8717  -29.4205 H   0  0  0  0  0  0  0  0  0  0  0  0
   -4.0050   23.9760  -27.0590 H   0  0  0  0  0  0  0  0  0  0  0  0
   -4.1206   21.4281  -26.6158 H   0  0  0  0  0  0  0  0  0  0  0  0
   -0.5605   21.6863  -30.2739 H   0  0  0  0  0  0  0  0  0  0  0  0
    0.2928   21.0540  -32.5259 H   0  0  0  0  0  0  0  0  0  0  0  0
    0.7446   21.4632  -34.4098 H   0  0  0  0  0  0  0  0  0  0  0  0
    0.5561   20.4049  -35.8489 H   0  0  0  0  0  0  0  0  0  0  0  0
   -0.1526   22.0554  -35.8489 H   0  0  0  0  0  0  0  0  0  0  0  0
   -3.7537   21.0493  -34.0619 H   0  0  0  0  0  0  0  0  0  0  0  0
   -4.6101   21.6855  -31.8100 H   0  0  0  0  0  0  0  0  0  0  0  0
   -5.4654   24.2792  -32.8586 H   0  0  0  0  0  0  0  0  0  0  0  0
   -6.6990   22.1749  -33.3657 H   0  0  0  0  0  0  0  0  0  0  0  0
  1  2  1  0
  2  3  1  0
  3  4  2  0
  4  5  1  0
  5  6  2  0
  6  7  1  0
  7  8  1  0
  8  9  1  0
  9 10  2  0
  9 11  1  0
 11 12  1  0
 12 13  2  0
 13 14  1  0
 14 15  1  0
 15 16  1  0
 16 17  2  0
 17 18  1  0
 18 19  2  0
 19 20  1  0
 20 21  1  0
 19 22  1  0
 22 23  2  0
  6 24  1  0
 24 25  2  0
 25  3  1  0
 15 11  2  0
 23 16  1  0
  1 26  1  0
  1 27  1  0
  1 28  1  0
  4 29  1  0
  5 30  1  0
  7 31  1  0
  7 32  1  0
 12 33  1  0
 13 34  1  0
 17 35  1  0
 18 36  1  0
 21 37  1  0
 21 38  1  0
 21 39  1  0
 22 40  1  0
 23 41  1  0
 24 42  1  0
 25 43  1  0
M  CHG  2   8  -1  12   1
M  END
>  <UniqueID>  (39) 
37

>  <SMILES>  (39) 
COc1ccc(C[N-]C(=O)c2[nH+]coc2-c2ccc(OC)cc2)cc1

>  <Energy>  (39) 
80.72885060452276

>  <Genealogy>  (39) 
COc1ccc(C[N-]C(=O)c2[nH+]coc2-c2ccc(OC)cc2)cc1 (protonated)
COc1ccc(C[N-]C(=O)c2[nH+]coc2-c2ccc(OC)cc2)cc1 (3D coordinates assigned)
COc1ccc(C[N-]C(=O)c2[nH+]coc2-c2ccc(OC)cc2)cc1 (optimized conformer: 80.72885060452276 kcal/mol)

>  <smiles>  (39) 
COc1ccc(CNC(=O)c2ncoc2-c2ccc(OC)cc2)cc1

>  <score_type>  (39) 
oracle

>  <origin>  (39) 
adg

>  <m_score__min__energy>  (39) 
-8.0600000000000005

>  <m_primary>  (39) 
energy

$$$$
39:0
     RDKit          3D

 44 45  0  0  0  0  0  0  0  0999 V2000
   -8.6810   18.8440  -31.6560 C   0  0  0  0  0  0  0  0  0  0  0  0
   -8.8670   20.0210  -32.6130 C   0  0  0  0  0  0  0  0  0  0  0  0
   -9.4460   21.2700  -31.9280 C   0  0  0  0  0  0  0  0  0  0  0  0
   -8.4690   21.9430  -30.9370 C   0  0  0  0  0  0  0  0  0  0  0  0
   -7.5790   23.0130  -31.6010 C   0  0  0  0  0  0  0  0  0  0  0  0
   -6.1540   22.5980  -31.9190 C   0  0  0  0  0  0  0  0  0  0  0  0
   -5.8370   21.4700  -32.7140 C   0  0  0  0  0  0  0  0  0  0  0  0
   -4.4870   21.1790  -32.7900 C   0  0  0  0  0  0  0  0  0  0  0  0
   -3.6700   22.3050  -31.8670 S   0  0  0  0  0  0  0  0  0  0  0  0
   -5.0000   23.2290  -31.3960 C   0  0  0  0  0  0  0  0  0  0  0  0
   -4.8390   24.3710  -30.4000 C   0  0  2  0  0  0  0  0  0  0  0  0
   -5.9020   25.4780  -30.4020 C   0  0  0  0  0  0  0  0  0  0  0  0
   -3.4790   24.9330  -30.4620 N   0  0  0  0  0  0  0  0  0  0  0  0
   -2.4510   24.5460  -29.0990 S   0  0  0  0  0  0  0  0  0  0  0  0
   -1.2640   25.4670  -29.0680 O   0  0  0  0  0  0  0  0  0  0  0  0
   -3.2380   24.7740  -27.8390 O   0  0  0  0  0  0  0  0  0  0  0  0
   -1.9040   22.8670  -29.1040 C   0  0  0  0  0  0  0  0  0  0  0  0
   -0.9320   22.4560  -30.0260 C   0  0  0  0  0  0  0  0  0  0  0  0
   -0.4890   21.1330  -30.0140 C   0  0  0  0  0  0  0  0  0  0  0  0
   -1.0300   20.2300  -29.0990 C   0  0  0  0  0  0  0  0  0  0  0  0
   -2.0140   20.6660  -28.2100 C   0  0  0  0  0  0  0  0  0  0  0  0
   -2.4280   21.9630  -28.2260 N   0  0  0  0  0  0  0  0  0  0  0  0
   -8.7377   19.2031  -30.6178 H   0  0  0  0  0  0  0  0  0  0  0  0
   -9.4728   18.1007  -31.8307 H   0  0  0  0  0  0  0  0  0  0  0  0
   -7.6986   18.3811  -31.8307 H   0  0  0  0  0  0  0  0  0  0  0  0
   -7.8885   20.2799  -33.0438 H   0  0  0  0  0  0  0  0  0  0  0  0
   -9.5862   19.7065  -33.3836 H   0  0  0  0  0  0  0  0  0  0  0  0
   -9.7109   22.0015  -32.7056 H   0  0  0  0  0  0  0  0  0  0  0  0
  -10.3199   20.9421  -31.3460 H   0  0  0  0  0  0  0  0  0  0  0  0
   -9.0544   22.4208  -30.1376 H   0  0  0  0  0  0  0  0  0  0  0  0
   -7.8043   21.1584  -30.5464 H   0  0  0  0  0  0  0  0  0  0  0  0
   -8.0600   23.3109  -32.5443 H   0  0  0  0  0  0  0  0  0  0  0  0
   -7.4912   23.8224  -30.8613 H   0  0  0  0  0  0  0  0  0  0  0  0
   -6.6032   20.8728  -33.2300 H   0  0  0  0  0  0  0  0  0  0  0  0
   -4.0328   20.3532  -33.3572 H   0  0  0  0  0  0  0  0  0  0  0  0
   -5.0129   23.8798  -29.4313 H   0  0  0  0  0  0  0  0  0  0  0  0
   -6.1569   25.7434  -29.3654 H   0  0  0  0  0  0  0  0  0  0  0  0
   -5.5077   26.3641  -30.9210 H   0  0  0  0  0  0  0  0  0  0  0  0
   -6.8033   25.1199  -30.9210 H   0  0  0  0  0  0  0  0  0  0  0  0
   -0.5213   23.1712  -30.7539 H   0  0  0  0  0  0  0  0  0  0  0  0
    0.2841   20.8033  -30.7236 H   0  0  0  0  0  0  0  0  0  0  0  0
   -0.6851   19.1857  -29.0781 H   0  0  0  0  0  0  0  0  0  0  0  0
   -2.4569   19.9586  -27.4934 H   0  0  0  0  0  0  0  0  0  0  0  0
   -3.1670   22.2560  -27.5510 H   0  0  0  0  0  0  0  0  0  0  0  0
  1  2  1  0
  2  3  1  0
  3  4  1  0
  4  5  1  0
  5  6  1  0
  6  7  1  0
  7  8  2  0
  8  9  1  0
  9 10  1  0
 10 11  1  0
 11 12  1  0
 11 13  1  0
 13 14  1  0
 14 15  2  0
 14 16  2  0
 14 17  1  0
 17 18  2  0
 18 19  1  0
 19 20  2  0
 20 21  1  0
 21 22  2  0
 10  6  2  0
 22 17  1  0
  1 23  1  0
  1 24  1  0
  1 25  1  0
  2 26  1  0
  2 27  1  0
  3 28  1  0
  3 29  1  0
  4 30  1  0
  4 31  1  0
  5 32  1  0
  5 33  1  0
  7 34  1  0
  8 35  1  0
 11 36  1  1
 12 37  1  0
 12 38  1  0
 12 39  1  0
 18 40  1  0
 19 41  1  0
 20 42  1  0
 21 43  1  0
 22 44  1  0
M  CHG  2  13  -1  22   1
M  END
>  <UniqueID>  (40) 
38

>  <SMILES>  (40) 
CCCCCc1ccsc1[C@H](C)[N-]S(=O)(=O)c1cccc[nH+]1

>  <Energy>  (40) 
70.9694161496134

>  <Genealogy>  (40) 
CCCCCc1ccsc1C(C)[N-]S(=O)(=O)c1cccc[nH+]1 (protonated)
CCCCCc1ccsc1[C@H](C)[N-]S(=O)(=O)c1cccc[nH+]1 (chirality)
CCCCCc1ccsc1[C@H](C)[N-]S(=O)(=O)c1cccc[nH+]1 (3D coordinates assigned)
CCCCCc1ccsc1[C@H](C)[N-]S(=O)(=O)c1cccc[nH+]1 (optimized conformer: 70.9694161496134 kcal/mol)

>  <smiles>  (40) 
CCCCCc1ccsc1C(C)NS(=O)(=O)c1ccccn1

>  <score_type>  (40) 
oracle

>  <origin>  (40) 
adg

>  <m_score__min__energy>  (40) 
-8.7200000000000006

>  <m_primary>  (40) 
energy

$$$$
40:0
     RDKit          3D

 49 51  0  0  0  0  0  0  0  0999 V2000
   -2.6600   19.2010  -26.7000 C   0  0  0  0  0  0  0  0  0  0  0  0
   -2.1070   19.8710  -27.8290 O   0  0  0  0  0  0  0  0  0  0  0  0
   -2.7250   20.9390  -28.4970 C   0  0  0  0  0  0  0  0  0  0  0  0
   -3.4370   21.8750  -27.7390 C   0  0  0  0  0  0  0  0  0  0  0  0
   -4.0690   22.9580  -28.3570 C   0  0  0  0  0  0  0  0  0  0  0  0
   -3.9950   23.1280  -29.7510 C   0  0  0  0  0  0  0  0  0  0  0  0
   -4.6670   24.2660  -30.4310 C   0  0  0  0  0  0  0  0  0  0  0  0
   -3.9660   25.2340  -30.8350 O   0  0  0  0  0  0  0  0  0  0  0  0
   -6.1590   24.2710  -30.7010 C   0  0  0  0  0  0  0  0  0  0  0  0
   -6.4700   23.9530  -32.1840 C   0  0  0  0  0  0  0  0  0  0  0  0
   -7.8930   23.3990  -32.3260 C   0  0  0  0  0  0  0  0  0  0  0  0
   -8.0780   22.1140  -31.5990 N   0  0  0  0  0  0  0  0  0  0  0  0
   -7.9580   20.9480  -32.5060 C   0  0  0  0  0  0  0  0  0  0  0  0
   -7.1280   19.8190  -31.8740 C   0  0  0  0  0  0  0  0  0  0  0  0
   -5.8340   19.5950  -32.6260 C   0  0  0  0  0  0  0  0  0  0  0  0
   -4.8970   20.6400  -32.7110 C   0  0  0  0  0  0  0  0  0  0  0  0
   -3.6800   20.4500  -33.3690 C   0  0  0  0  0  0  0  0  0  0  0  0
   -3.3820   19.2170  -33.9490 C   0  0  0  0  0  0  0  0  0  0  0  0
   -4.3010   18.1680  -33.8700 C   0  0  0  0  0  0  0  0  0  0  0  0
   -5.5240   18.3460  -33.2120 C   0  0  0  0  0  0  0  0  0  0  0  0
   -6.6380   16.9830  -33.1480 Cl  0  0  0  0  0  0  0  0  0  0  0  0
   -7.1980   21.9660  -30.4060 C   0  0  0  0  0  0  0  0  0  0  0  0
   -6.8990   23.3130  -29.7370 C   0  0  0  0  0  0  0  0  0  0  0  0
   -3.2900   22.1790  -30.5120 C   0  0  0  0  0  0  0  0  0  0  0  0
   -2.6570   21.0970  -29.8930 C   0  0  0  0  0  0  0  0  0  0  0  0
   -2.2791   19.6624  -25.7770 H   0  0  0  0  0  0  0  0  0  0  0  0
   -3.7566   19.2833  -26.7256 H   0  0  0  0  0  0  0  0  0  0  0  0
   -2.3713   18.1399  -26.7256 H   0  0  0  0  0  0  0  0  0  0  0  0
   -3.5000   21.7577  -26.6471 H   0  0  0  0  0  0  0  0  0  0  0  0
   -4.6287   23.6831  -27.7479 H   0  0  0  0  0  0  0  0  0  0  0  0
   -6.5334   25.2873  -30.5085 H   0  0  0  0  0  0  0  0  0  0  0  0
   -6.3787   24.8738  -32.7788 H   0  0  0  0  0  0  0  0  0  0  0  0
   -5.7559   23.1976  -32.5438 H   0  0  0  0  0  0  0  0  0  0  0  0
   -8.6013   24.1378  -31.9229 H   0  0  0  0  0  0  0  0  0  0  0  0
   -8.0729   23.2082  -33.3943 H   0  0  0  0  0  0  0  0  0  0  0  0
   -8.9649   20.5668  -32.7317 H   0  0  0  0  0  0  0  0  0  0  0  0
   -7.4467   21.2777  -33.4224 H   0  0  0  0  0  0  0  0  0  0  0  0
   -6.8948   20.0865  -30.8328 H   0  0  0  0  0  0  0  0  0  0  0  0
   -7.7175   18.8913  -31.9170 H   0  0  0  0  0  0  0  0  0  0  0  0
   -5.1245   21.6151  -32.2555 H   0  0  0  0  0  0  0  0  0  0  0  0
   -2.9546   21.2747  -33.4300 H   0  0  0  0  0  0  0  0  0  0  0  0
   -2.4235   19.0707  -34.4685 H   0  0  0  0  0  0  0  0  0  0  0  0
   -4.0625   17.1965  -34.3274 H   0  0  0  0  0  0  0  0  0  0  0  0
   -7.6970   21.3111  -29.6766 H   0  0  0  0  0  0  0  0  0  0  0  0
   -6.2428   21.5360  -30.7418 H   0  0  0  0  0  0  0  0  0  0  0  0
   -7.8472   23.7777  -29.4288 H   0  0  0  0  0  0  0  0  0  0  0  0
   -6.2521   23.1307  -28.8662 H   0  0  0  0  0  0  0  0  0  0  0  0
   -3.2359   22.2889  -31.6052 H   0  0  0  0  0  0  0  0  0  0  0  0
   -2.1033   20.3660  -30.5004 H   0  0  0  0  0  0  0  0  0  0  0  0
  1  2  1  0
  2  3  1  0
  3  4  2  0
  4  5  1  0
  5  6  2  0
  6  7  1  0
  7  8  2  0
  7  9  1  0
  9 10  1  0
 10 11  1  0
 11 12  1  0
 12 13  1  0
 13 14  1  0
 14 15  1  0
 15 16  2  0
 16 17  1  0
 17 18  2  0
 18 19  1  0
 19 20  2  0
 20 21  1  0
 12 22  1  0
 22 23  1  0
  6 24  1  0
 24 25  2  0
 25  3  1  0
 23  9  1  0
 20 15  1  0
  1 26  1  0
  1 27  1  0
  1 28  1  0
  4 29  1  0
  5 30  1  0
  9 31  1  0
 10 32  1  0
 10 33  1  0
 11 34  1  0
 11 35  1  0
 13 36  1  0
 13 37  1  0
 14 38  1  0
 14 39  1  0
 16 40  1  0
 17 41  1  0
 18 42  1  0
 19 43  1  0
 22 44  1  0
 22 45  1  0
 23 46  1  0
 23 47  1  0
 24 48  1  0
 25 49  1  0
M  END
>  <UniqueID>  (41) 
39

>  <SMILES>  (41) 
COc1ccc(C(=O)C2CCN(CCc3ccccc3Cl)CC2)cc1

>  <Energy>  (41) 
61.043067341558945

>  <Genealogy>  (41) 
COc1ccc(C(=O)C2CCN(CCc3ccccc3Cl)CC2)cc1 (3D coordinates assigned)
COc1ccc(C(=O)C2CCN(CCc3ccccc3Cl)CC2)cc1 (nonaromatic ring conformer: 61.043067341558945 kcal/mol)

>  <smiles>  (41) 
COc1ccc(C(=O)C2CCN(CCc3ccccc3Cl)CC2)cc1

>  <score_type>  (41) 
oracle

>  <origin>  (41) 
adg

>  <m_score__min__energy>  (41) 
-9.4600000000000009

>  <m_primary>  (41) 
energy

$$$$
41:0
     RDKit          3D

 37 38  0  0  0  0  0  0  0  0999 V2000
   -1.5960   26.0930  -28.4780 O   0  0  0  0  0  0  0  0  0  0  0  0
   -2.3470   25.0970  -28.6560 C   0  0  0  0  0  0  0  0  0  0  0  0
   -2.7510   24.2610  -27.4680 C   0  0  0  0  0  0  0  0  0  0  0  0
   -1.5470   23.6100  -26.7840 C   0  0  0  0  0  0  0  0  0  0  0  0
   -0.8730   22.7440  -27.6900 O   0  0  0  0  0  0  0  0  0  0  0  0
   -0.1780   23.2310  -28.7770 N   0  0  0  0  0  0  0  0  0  0  0  0
    0.6510   24.1480  -28.6150 O   0  0  0  0  0  0  0  0  0  0  0  0
   -0.3880   22.7200  -30.0380 O   0  0  0  0  0  0  0  0  0  0  0  0
   -2.9150   24.8920  -29.9570 N   0  0  0  0  0  0  0  0  0  0  0  0
   -4.1340   24.2000  -30.2600 C   0  0  0  0  0  0  0  0  0  0  0  0
   -4.1540   22.8140  -30.4870 C   0  0  0  0  0  0  0  0  0  0  0  0
   -5.3500   22.1710  -30.8150 C   0  0  0  0  0  0  0  0  0  0  0  0
   -6.5340   22.9090  -30.9460 C   0  0  0  0  0  0  0  0  0  0  0  0
   -8.0450   22.0950  -31.3310 S   0  0  0  0  0  0  0  0  0  0  0  0
   -8.8790   21.9430  -30.0890 O   0  0  0  0  0  0  0  0  0  0  0  0
   -8.8280   22.9120  -32.3210 O   0  0  0  0  0  0  0  0  0  0  0  0
   -7.6850   20.5130  -32.0090 C   0  0  0  0  0  0  0  0  0  0  0  0
   -8.3660   19.3770  -31.5480 C   0  0  0  0  0  0  0  0  0  0  0  0
   -8.0950   18.1220  -32.1040 C   0  0  0  0  0  0  0  0  0  0  0  0
   -7.1470   17.9970  -33.1240 C   0  0  0  0  0  0  0  0  0  0  0  0
   -6.8100   16.4230  -33.8200 Cl  0  0  0  0  0  0  0  0  0  0  0  0
   -6.4720   19.1300  -33.5920 C   0  0  0  0  0  0  0  0  0  0  0  0
   -6.7420   20.3860  -33.0390 C   0  0  0  0  0  0  0  0  0  0  0  0
   -6.5110   24.2960  -30.7420 C   0  0  0  0  0  0  0  0  0  0  0  0
   -5.3130   24.9380  -30.4150 C   0  0  0  0  0  0  0  0  0  0  0  0
   -3.2665   24.9050  -26.7404 H   0  0  0  0  0  0  0  0  0  0  0  0
   -3.4101   23.4576  -27.8286 H   0  0  0  0  0  0  0  0  0  0  0  0
   -0.8530   24.3943  -26.4474 H   0  0  0  0  0  0  0  0  0  0  0  0
   -1.8988   23.0231  -25.9227 H   0  0  0  0  0  0  0  0  0  0  0  0
   -3.2239   22.2324  -30.4061 H   0  0  0  0  0  0  0  0  0  0  0  0
   -5.3624   21.0822  -30.9709 H   0  0  0  0  0  0  0  0  0  0  0  0
   -9.1146   19.4728  -30.7478 H   0  0  0  0  0  0  0  0  0  0  0  0
   -8.6286   17.2324  -31.7381 H   0  0  0  0  0  0  0  0  0  0  0  0
   -5.7278   19.0326  -34.3962 H   0  0  0  0  0  0  0  0  0  0  0  0
   -6.2138   21.2756  -33.4127 H   0  0  0  0  0  0  0  0  0  0  0  0
   -7.4378   24.8804  -30.8395 H   0  0  0  0  0  0  0  0  0  0  0  0
   -5.2969   26.0294  -30.2788 H   0  0  0  0  0  0  0  0  0  0  0  0
  1  2  2  0
  2  3  1  0
  3  4  1  0
  4  5  1  0
  5  6  1  0
  6  7  2  0
  6  8  1  0
  2  9  1  0
  9 10  1  0
 10 11  2  0
 11 12  1  0
 12 13  2  0
 13 14  1  0
 14 15  2  0
 14 16  2  0
 14 17  1  0
 17 18  2  0
 18 19  1  0
 19 20  2  0
 20 21  1  0
 20 22  1  0
 22 23  2  0
 13 24  1  0
 24 25  2  0
 25 10  1  0
 23 17  1  0
  3 26  1  0
  3 27  1  0
  4 28  1  0
  4 29  1  0
 11 30  1  0
 12 31  1  0
 18 32  1  0
 19 33  1  0
 22 34  1  0
 23 35  1  0
 24 36  1  0
 25 37  1  0
M  CHG  3   6   1   8  -1   9  -1
M  END
>  <UniqueID>  (42) 
40

>  <SMILES>  (42) 
O=C(CCO[N+](=O)[O-])[N-]c1ccc(S(=O)(=O)c2ccc(Cl)cc2)cc1

>  <Energy>  (42) 
39.86243994424984

>  <Genealogy>  (42) 
O=C(CCO[N+](=O)[O-])[N-]c1ccc(S(=O)(=O)c2ccc(Cl)cc2)cc1 (protonated)
O=C(CCO[N+](=O)[O-])[N-]c1ccc(S(=O)(=O)c2ccc(Cl)cc2)cc1 (3D coordinates assigned)
O=C(CCO[N+](=O)[O-])[N-]c1ccc(S(=O)(=O)c2ccc(Cl)cc2)cc1 (optimized conformer: 39.86243994424984 kcal/mol)

>  <smiles>  (42) 
O=C(CCO[N+](=O)[O-])Nc1ccc(S(=O)(=O)c2ccc(Cl)cc2)cc1

>  <score_type>  (42) 
oracle

>  <origin>  (42) 
adg

>  <m_score__min__energy>  (42) 
-11.51

>  <m_primary>  (42) 
energy

$$$$
42:0
     RDKit          3D

 62 65  0  0  0  0  0  0  0  0999 V2000
   -2.7670   22.3390  -28.6130 C   0  0  0  0  0  0  0  0  0  0  0  0
   -2.2130   23.2840  -29.6260 C   0  0  0  0  0  0  0  0  0  0  0  0
   -2.2790   24.5250  -29.4160 O   0  0  0  0  0  0  0  0  0  0  0  0
   -1.6600   22.7640  -30.8440 N   0  0  0  0  0  0  0  0  0  0  0  0
   -1.8140   21.5570  -31.3080 C   0  0  0  0  0  0  0  0  0  0  0  0
   -0.9230   20.5550  -31.0740 N   0  0  0  0  0  0  0  0  0  0  0  0
   -1.4460   19.5400  -31.7730 C   0  0  0  0  0  0  0  0  0  0  0  0
   -0.9030   18.3110  -31.9280 N   0  0  0  0  0  0  0  0  0  0  0  0
   -1.5260   17.4080  -32.7460 C   0  0  0  0  0  0  0  0  0  0  0  0
   -0.9410   16.0550  -32.9160 C   0  0  0  0  0  0  0  0  0  0  0  0
   -0.1140   15.4860  -31.9270 C   0  0  0  0  0  0  0  0  0  0  0  0
    0.4310   14.2100  -32.1080 C   0  0  0  0  0  0  0  0  0  0  0  0
    0.1650   13.4910  -33.2760 C   0  0  0  0  0  0  0  0  0  0  0  0
   -0.6410   14.0490  -34.2680 C   0  0  0  0  0  0  0  0  0  0  0  0
   -1.1900   15.3240  -34.0930 C   0  0  0  0  0  0  0  0  0  0  0  0
   -2.7000   17.8080  -33.4440 C   0  0  0  0  0  0  0  0  0  0  0  0
   -3.2100   19.0660  -33.2740 N   0  0  0  0  0  0  0  0  0  0  0  0
   -2.5870   19.9100  -32.4060 C   0  0  0  0  0  0  0  0  0  0  0  0
   -2.8750   21.1990  -32.0980 N   0  0  0  0  0  0  0  0  0  0  0  0
   -3.9760   22.0830  -32.5500 C   0  0  1  0  0  0  0  0  0  0  0  0
   -4.8270   21.4150  -33.4570 O   0  0  0  0  0  0  0  0  0  0  0  0
   -6.0630   21.1800  -32.8130 C   0  0  1  0  0  0  0  0  0  0  0  0
   -6.5030   19.7230  -33.0190 C   0  0  0  0  0  0  0  0  0  0  0  0
   -6.1700   19.2680  -34.3300 O   0  0  0  0  0  0  0  0  0  0  0  0
   -5.7200   17.9740  -34.6100 C   0  0  0  0  0  0  0  0  0  0  0  0
   -6.4910   16.8050  -34.1010 C   0  0  0  0  0  0  0  0  0  0  0  0
   -4.6960   17.7850  -35.3220 O   0  0  0  0  0  0  0  0  0  0  0  0
   -5.9180   21.5290  -31.3400 C   0  0  2  0  0  0  0  0  0  0  0  0
   -7.1480   22.0320  -30.8140 O   0  0  0  0  0  0  0  0  0  0  0  0
   -8.2340   22.3950  -31.6160 C   0  0  0  0  0  0  0  0  0  0  0  0
   -9.4880   21.5910  -31.5570 C   0  0  0  0  0  0  0  0  0  0  0  0
   -8.1810   23.4190  -32.3500 O   0  0  0  0  0  0  0  0  0  0  0  0
   -4.8350   22.5680  -31.3730 C   0  0  2  0  0  0  0  0  0  0  0  0
   -5.4070   23.8480  -31.6620 O   0  0  0  0  0  0  0  0  0  0  0  0
   -5.2830   24.9610  -30.8270 C   0  0  0  0  0  0  0  0  0  0  0  0
   -6.3820   25.2900  -29.8760 C   0  0  0  0  0  0  0  0  0  0  0  0
   -4.2390   25.6680  -30.8420 O   0  0  0  0  0  0  0  0  0  0  0  0
   -2.5470   22.7142  -27.6026 H   0  0  0  0  0  0  0  0  0  0  0  0
   -3.8560   22.2573  -28.7448 H   0  0  0  0  0  0  0  0  0  0  0  0
   -2.3064   21.3488  -28.7448 H   0  0  0  0  0  0  0  0  0  0  0  0
    0.1044   16.0483  -31.0072 H   0  0  0  0  0  0  0  0  0  0  0  0
    1.0710   13.7716  -31.3281 H   0  0  0  0  0  0  0  0  0  0  0  0
    0.5908   12.4860  -33.4130 H   0  0  0  0  0  0  0  0  0  0  0  0
   -0.8456   13.4854  -35.1902 H   0  0  0  0  0  0  0  0  0  0  0  0
   -1.8215   15.7588  -34.8818 H   0  0  0  0  0  0  0  0  0  0  0  0
   -3.1998   17.1021  -34.1236 H   0  0  0  0  0  0  0  0  0  0  0  0
   -4.0350   19.3370  -33.8430 H   0  0  0  0  0  0  0  0  0  0  0  0
   -3.4969   22.9436  -33.0397 H   0  0  0  0  0  0  0  0  0  0  0  0
   -6.8483   21.8154  -33.2484 H   0  0  0  0  0  0  0  0  0  0  0  0
   -5.9971   19.0864  -32.2781 H   0  0  0  0  0  0  0  0  0  0  0  0
   -7.5945   19.6660  -32.8953 H   0  0  0  0  0  0  0  0  0  0  0  0
   -6.4857   16.8131  -33.0010 H   0  0  0  0  0  0  0  0  0  0  0  0
   -7.5280   16.8639  -34.4631 H   0  0  0  0  0  0  0  0  0  0  0  0
   -6.0285   15.8750  -34.4631 H   0  0  0  0  0  0  0  0  0  0  0  0
   -5.6727   20.6770  -30.6889 H   0  0  0  0  0  0  0  0  0  0  0  0
   -9.7619   21.4154  -30.5062 H   0  0  0  0  0  0  0  0  0  0  0  0
  -10.2985   22.1383  -32.0606 H   0  0  0  0  0  0  0  0  0  0  0  0
   -9.3289   20.6261  -32.0606 H   0  0  0  0  0  0  0  0  0  0  0  0
   -4.2765   22.6811  -30.4321 H   0  0  0  0  0  0  0  0  0  0  0  0
   -6.0183   25.1811  -28.8436 H   0  0  0  0  0  0  0  0  0  0  0  0
   -6.7119   26.3263  -30.0412 H   0  0  0  0  0  0  0  0  0  0  0  0
   -7.2270   24.6054  -30.0412 H   0  0  0  0  0  0  0  0  0  0  0  0
  1  2  1  0
  2  3  2  0
  2  4  1  0
  4  5  2  3
  5  6  1  0
  6  7  1  0
  7  8  2  0
  8  9  1  0
  9 10  1  0
 10 11  2  0
 11 12  1  0
 12 13  2  0
 13 14  1  0
 14 15  2  0
  9 16  2  0
 16 17  1  0
 17 18  2  0
 18 19  1  0
 19 20  1  0
 20 21  1  0
 21 22  1  0
 22 23  1  0
 23 24  1  0
 24 25  1  0
 25 26  1  0
 25 27  2  0
 22 28  1  0
 28 29  1  0
 29 30  1  0
 30 31  1  0
 30 32  2  0
 28 33  1  0
 33 34  1  0
 34 35  1  0
 35 36  1  0
 35 37  2  0
 19  5  1  0
 33 20  1  0
 18  7  1  0
 15 10  1  0
  1 38  1  0
  1 39  1  0
  1 40  1  0
 11 41  1  0
 12 42  1  0
 13 43  1  0
 14 44  1  0
 15 45  1  0
 16 46  1  0
 17 47  1  0
 20 48  1  6
 22 49  1  6
 23 50  1  0
 23 51  1  0
 26 52  1  0
 26 53  1  0
 26 54  1  0
 28 55  1  1
 31 56  1  0
 31 57  1  0
 31 58  1  0
 33 59  1  1
 36 60  1  0
 36 61  1  0
 36 62  1  0
M  CHG  2   6  -1  17   1
M  END
>  <UniqueID>  (43) 
41

>  <SMILES>  (43) 
CC(=O)N=c1[n-]c2nc(-c3ccccc3)c[nH+]c2n1[C@H]1O[C@@H](COC(C)=O)C(OC(C)=O)C1OC(C)=O

>  <Energy>  (43) 
105.7517113563016

>  <Genealogy>  (43) 
CC(=O)N=c1[n-]c2nc(-c3ccccc3)c[nH+]c2n1C1OC(COC(C)=O)C(OC(C)=O)C1OC(C)=O (protonated)
CC(=O)N=c1[n-]c2nc(-c3ccccc3)c[nH+]c2n1[C@H]1O[C@@H](COC(C)=O)C(OC(C)=O)C1OC(C)=O (chirality)
CC(=O)N=c1[n-]c2nc(-c3ccccc3)c[nH+]c2n1[C@H]1O[C@@H](COC(C)=O)C(OC(C)=O)C1OC(C)=O (3D coordinates assigned)
CC(=O)N=c1[n-]c2nc(-c3ccccc3)c[nH+]c2n1[C@H]1O[C@@H](COC(C)=O)C(OC(C)=O)C1OC(C)=O (nonaromatic ring conformer: 105.7517113563016 kcal/mol)

>  <smiles>  (43) 
CC(=O)N=c1[nH]c2nc(-c3ccccc3)cnc2n1C1OC(COC(C)=O)C(OC(C)=O)C1OC(C)=O

>  <score_type>  (43) 
oracle

>  <origin>  (43) 
adg

>  <m_score__min__energy>  (43) 
-8.8100000000000005

>  <m_primary>  (43) 
energy

$$$$
43:0
     RDKit          3D

 34 34  0  0  0  0  0  0  0  0999 V2000
   -5.3370   20.2460  -32.7290 C   0  0  0  0  0  0  0  0  0  0  0  0
   -6.7790   20.4390  -33.1850 C   0  0  0  0  0  0  0  0  0  0  0  0
   -7.6260   20.8880  -32.0700 N   0  0  0  0  0  0  0  0  0  0  0  0
   -8.7270   20.0240  -31.6150 C   0  0  0  0  0  0  0  0  0  0  0  0
   -8.4520   18.5630  -31.9620 C   0  0  0  0  0  0  0  0  0  0  0  0
   -7.3700   22.1580  -31.4300 C   0  0  0  0  0  0  0  0  0  0  0  0
   -7.6110   22.3550  -29.8200 S   0  0  0  0  0  0  0  0  0  0  0  0
   -6.6700   23.5330  -32.3550 S   0  0  0  0  0  0  0  0  0  0  0  0
   -6.3550   24.5710  -30.8820 C   0  0  0  0  0  0  0  0  0  0  0  0
   -4.8900   24.6000  -30.5440 C   0  0  0  0  0  0  0  0  0  0  0  0
   -4.2370   25.6410  -30.8300 O   0  0  0  0  0  0  0  0  0  0  0  0
   -4.1970   23.4640  -29.8760 C   0  0  0  0  0  0  0  0  0  0  0  0
   -4.1470   23.3510  -28.4700 C   0  0  0  0  0  0  0  0  0  0  0  0
   -3.4880   22.2760  -27.8670 C   0  0  0  0  0  0  0  0  0  0  0  0
   -2.8720   21.2990  -28.6520 C   0  0  0  0  0  0  0  0  0  0  0  0
   -2.9150   21.3950  -30.0430 C   0  0  0  0  0  0  0  0  0  0  0  0
   -3.5730   22.4680  -30.6540 C   0  0  0  0  0  0  0  0  0  0  0  0
   -5.2977   20.2407  -31.6297 H   0  0  0  0  0  0  0  0  0  0  0  0
   -4.9556   19.2888  -33.1141 H   0  0  0  0  0  0  0  0  0  0  0  0
   -4.7173   21.0692  -33.1141 H   0  0  0  0  0  0  0  0  0  0  0  0
   -6.8060   21.1940  -33.9845 H   0  0  0  0  0  0  0  0  0  0  0  0
   -7.1633   19.4762  -33.5528 H   0  0  0  0  0  0  0  0  0  0  0  0
   -8.8340   20.1212  -30.5245 H   0  0  0  0  0  0  0  0  0  0  0  0
   -9.6519   20.3374  -32.1213 H   0  0  0  0  0  0  0  0  0  0  0  0
   -8.3423   17.9804  -31.0354 H   0  0  0  0  0  0  0  0  0  0  0  0
   -9.2904   18.1618  -32.5503 H   0  0  0  0  0  0  0  0  0  0  0  0
   -7.5251   18.4941  -32.5503 H   0  0  0  0  0  0  0  0  0  0  0  0
   -6.6973   25.5965  -31.0852 H   0  0  0  0  0  0  0  0  0  0  0  0
   -6.9021   24.1429  -30.0291 H   0  0  0  0  0  0  0  0  0  0  0  0
   -4.6306   24.1152  -27.8437 H   0  0  0  0  0  0  0  0  0  0  0  0
   -3.4544   22.1992  -26.7702 H   0  0  0  0  0  0  0  0  0  0  0  0
   -2.3535   20.4548  -28.1740 H   0  0  0  0  0  0  0  0  0  0  0  0
   -2.4303   20.6250  -30.6612 H   0  0  0  0  0  0  0  0  0  0  0  0
   -3.6036   22.5349  -31.7515 H   0  0  0  0  0  0  0  0  0  0  0  0
  1  2  1  0
  2  3  1  0
  3  4  1  0
  4  5  1  0
  3  6  1  0
  6  7  2  0
  6  8  1  0
  8  9  1  0
  9 10  1  0
 10 11  2  0
 10 12  1  0
 12 13  2  0
 13 14  1  0
 14 15  2  0
 15 16  1  0
 16 17  2  0
 17 12  1  0
  1 18  1  0
  1 19  1  0
  1 20  1  0
  2 21  1  0
  2 22  1  0
  4 23  1  0
  4 24  1  0
  5 25  1  0
  5 26  1  0
  5 27  1  0
  9 28  1  0
  9 29  1  0
 13 30  1  0
 14 31  1  0
 15 32  1  0
 16 33  1  0
 17 34  1  0
M  END
>  <UniqueID>  (44) 
42

>  <SMILES>  (44) 
CCN(CC)C(=S)SCC(=O)c1ccccc1

>  <Energy>  (44) 
23.641006954042133

>  <Genealogy>  (44) 
CCN(CC)C(=S)SCC(=O)c1ccccc1 (3D coordinates assigned)
CCN(CC)C(=S)SCC(=O)c1ccccc1 (optimized conformer: 23.641006954042133 kcal/mol)

>  <smiles>  (44) 
CCN(CC)C(=S)SCC(=O)c1ccccc1

>  <score_type>  (44) 
oracle

>  <origin>  (44) 
adg

>  <m_score__min__energy>  (44) 
-6.75

>  <m_primary>  (44) 
energy

$$$$
44:0
     RDKit          3D

 55 59  0  0  0  0  0  0  0  0999 V2000
   -5.7920   25.3070  -30.4630 C   0  0  0  0  0  0  0  0  0  0  0  0
   -4.5390   24.7630  -30.8670 O   0  0  0  0  0  0  0  0  0  0  0  0
   -3.8040   23.8240  -30.1270 C   0  0  0  0  0  0  0  0  0  0  0  0
   -3.9920   23.7830  -28.7450 C   0  0  0  0  0  0  0  0  0  0  0  0
   -3.2890   22.8700  -27.9630 C   0  0  0  0  0  0  0  0  0  0  0  0
   -2.3860   21.9860  -28.5550 C   0  0  0  0  0  0  0  0  0  0  0  0
   -2.1640   21.9960  -29.9530 C   0  0  0  0  0  0  0  0  0  0  0  0
   -1.2220   21.0660  -30.5740 N   0  0  0  0  0  0  0  0  0  0  0  0
   -0.5030   21.4860  -31.8000 C   0  0  0  0  0  0  0  0  0  0  0  0
    0.4070   20.4180  -32.4510 C   0  0  0  0  0  0  0  0  0  0  0  0
    0.0440   19.0300  -32.1170 N   0  0  0  0  0  0  0  0  0  0  0  0
   -1.1870   18.5720  -32.7470 C   0  0  0  0  0  0  0  0  0  0  0  0
   -1.7290   17.5350  -32.3880 O   0  0  0  0  0  0  0  0  0  0  0  0
   -1.8030   19.3510  -33.8800 C   0  0  0  0  0  0  0  0  0  0  0  0
   -3.1990   19.6790  -33.5690 N   0  0  0  0  0  0  0  0  0  0  0  0
   -4.0950   18.6760  -33.5410 N   0  0  0  0  0  0  0  0  0  0  0  0
   -5.4050   18.8680  -33.2130 C   0  0  0  0  0  0  0  0  0  0  0  0
   -5.8000   20.1570  -32.8930 C   0  0  0  0  0  0  0  0  0  0  0  0
   -4.9050   21.1940  -32.9150 C   0  0  0  0  0  0  0  0  0  0  0  0
   -5.4890   22.3630  -32.5670 N   0  0  0  0  0  0  0  0  0  0  0  0
   -6.7790   22.0410  -32.3240 C   0  0  0  0  0  0  0  0  0  0  0  0
   -7.8020   22.9000  -31.9260 C   0  0  0  0  0  0  0  0  0  0  0  0
   -9.0820   22.3500  -31.7220 C   0  0  0  0  0  0  0  0  0  0  0  0
   -9.3110   20.9700  -31.9170 C   0  0  0  0  0  0  0  0  0  0  0  0
   -8.2630   20.1210  -32.3200 C   0  0  0  0  0  0  0  0  0  0  0  0
   -7.0090   20.6930  -32.5140 C   0  0  0  0  0  0  0  0  0  0  0  0
   -3.5770   20.9670  -33.2550 C   0  0  0  0  0  0  0  0  0  0  0  0
   -2.7490   21.9180  -33.2700 O   0  0  0  0  0  0  0  0  0  0  0  0
    0.0140   18.8770  -30.6550 C   0  0  0  0  0  0  0  0  0  0  0  0
   -1.1050   19.7030  -30.0210 C   0  0  0  0  0  0  0  0  0  0  0  0
   -2.8920   22.9320  -30.7270 C   0  0  0  0  0  0  0  0  0  0  0  0
   -5.8447   25.3299  -29.3645 H   0  0  0  0  0  0  0  0  0  0  0  0
   -5.8917   26.3294  -30.8563 H   0  0  0  0  0  0  0  0  0  0  0  0
   -6.6071   24.6817  -30.8563 H   0  0  0  0  0  0  0  0  0  0  0  0
   -4.7008   24.4770  -28.2697 H   0  0  0  0  0  0  0  0  0  0  0  0
   -3.4461   22.8456  -26.8745 H   0  0  0  0  0  0  0  0  0  0  0  0
   -1.8379   21.2699  -27.9251 H   0  0  0  0  0  0  0  0  0  0  0  0
   -1.2546   21.7871  -32.5446 H   0  0  0  0  0  0  0  0  0  0  0  0
    0.1697   22.2979  -31.4863 H   0  0  0  0  0  0  0  0  0  0  0  0
    0.3504   20.5360  -33.5432 H   0  0  0  0  0  0  0  0  0  0  0  0
    1.4203   20.5832  -32.0562 H   0  0  0  0  0  0  0  0  0  0  0  0
    0.8190   18.4230  -32.4780 H   0  0  0  0  0  0  0  0  0  0  0  0
   -1.2362   20.2814  -34.0317 H   0  0  0  0  0  0  0  0  0  0  0  0
   -1.7729   18.7398  -34.7941 H   0  0  0  0  0  0  0  0  0  0  0  0
   -6.1200   18.0321  -33.2029 H   0  0  0  0  0  0  0  0  0  0  0  0
   -5.0440   23.3050  -32.4980 H   0  0  0  0  0  0  0  0  0  0  0  0
   -7.6153   23.9736  -31.7760 H   0  0  0  0  0  0  0  0  0  0  0  0
   -9.9112   23.0010  -31.4079 H   0  0  0  0  0  0  0  0  0  0  0  0
  -10.3165   20.5553  -31.7526 H   0  0  0  0  0  0  0  0  0  0  0  0
   -8.4290   19.0448  -32.4759 H   0  0  0  0  0  0  0  0  0  0  0  0
   -0.1445   17.8161  -30.4111 H   0  0  0  0  0  0  0  0  0  0  0  0
    0.9733   19.2357  -30.2538 H   0  0  0  0  0  0  0  0  0  0  0  0
   -2.0584   19.1791  -30.1838 H   0  0  0  0  0  0  0  0  0  0  0  0
   -0.8614   19.8088  -28.9535 H   0  0  0  0  0  0  0  0  0  0  0  0
   -2.7432   22.9637  -31.8164 H   0  0  0  0  0  0  0  0  0  0  0  0
  1  2  1  0
  2  3  1  0
  3  4  2  0
  4  5  1  0
  5  6  2  0
  6  7  1  0
  7  8  1  0
  8  9  1  0
  9 10  1  0
 10 11  1  0
 11 12  1  0
 12 13  2  0
 12 14  1  0
 14 15  1  0
 15 16  1  0
 16 17  2  0
 17 18  1  0
 18 19  2  0
 19 20  1  0
 20 21  1  0
 21 22  2  0
 22 23  1  0
 23 24  2  0
 24 25  1  0
 25 26  2  0
 19 27  1  0
 27 28  2  0
 11 29  1  0
 29 30  1  0
  7 31  2  0
 31  3  1  0
 30  8  1  0
 27 15  1  0
 26 18  1  0
 26 21  1  0
  1 32  1  0
  1 33  1  0
  1 34  1  0
  4 35  1  0
  5 36  1  0
  6 37  1  0
  9 38  1  0
  9 39  1  0
 10 40  1  0
 10 41  1  0
 11 42  1  0
 14 43  1  0
 14 44  1  0
 17 45  1  0
 20 46  1  0
 22 47  1  0
 23 48  1  0
 24 49  1  0
 25 50  1  0
 29 51  1  0
 29 52  1  0
 30 53  1  0
 30 54  1  0
 31 55  1  0
M  CHG  1  11   1
M  END
>  <UniqueID>  (45) 
43

>  <SMILES>  (45) 
COc1cccc(N2CC[NH+](C(=O)Cn3ncc4c([nH]c5ccccc54)c3=O)CC2)c1

>  <Energy>  (45) 
115.24749256845155

>  <Genealogy>  (45) 
COc1cccc(N2CC[NH+](C(=O)Cn3ncc4c([nH]c5ccccc54)c3=O)CC2)c1 (protonated)
COc1cccc(N2CC[NH+](C(=O)Cn3ncc4c([nH]c5ccccc54)c3=O)CC2)c1 (3D coordinates assigned)
COc1cccc(N2CC[NH+](C(=O)Cn3ncc4c([nH]c5ccccc54)c3=O)CC2)c1 (nonaromatic ring conformer: 115.24749256845155 kcal/mol)

>  <smiles>  (45) 
COc1cccc(N2CCN(C(=O)Cn3ncc4c([nH]c5ccccc54)c3=O)CC2)c1

>  <score_type>  (45) 
oracle

>  <origin>  (45) 
adg

>  <m_score__min__energy>  (45) 
-8.6600000000000001

>  <m_primary>  (45) 
energy

$$$$
45:0
     RDKit          3D

 44 47  0  0  0  0  0  0  0  0999 V2000
   -9.8290   21.2880  -31.7670 C   0  0  0  0  0  0  0  0  0  0  0  0
   -8.9910   20.6670  -32.7360 O   0  0  0  0  0  0  0  0  0  0  0  0
   -7.5900   20.6720  -32.6810 C   0  0  0  0  0  0  0  0  0  0  0  0
   -6.7910   19.6130  -33.1800 C   0  0  0  0  0  0  0  0  0  0  0  0
   -5.3780   19.6700  -33.0900 C   0  0  0  0  0  0  0  0  0  0  0  0
   -4.4070   18.3560  -33.7400 S   0  0  0  0  0  0  0  0  0  0  0  0
   -4.6310   17.1040  -32.9380 O   0  0  0  0  0  0  0  0  0  0  0  0
   -4.8090   18.0780  -35.1620 O   0  0  0  0  0  0  0  0  0  0  0  0
   -2.7090   18.8140  -33.6730 C   0  0  0  0  0  0  0  0  0  0  0  0
   -1.7770   17.9720  -33.0510 C   0  0  0  0  0  0  0  0  0  0  0  0
   -0.4320   18.3450  -32.9780 C   0  0  0  0  0  0  0  0  0  0  0  0
   -0.0090   19.5730  -33.5110 C   0  0  0  0  0  0  0  0  0  0  0  0
    1.4410   19.9560  -33.4670 C   0  0  0  0  0  0  0  0  0  0  0  0
   -0.9420   20.4100  -34.1410 C   0  0  0  0  0  0  0  0  0  0  0  0
   -2.2880   20.0360  -34.2130 C   0  0  0  0  0  0  0  0  0  0  0  0
   -4.7470   20.7920  -32.5180 C   0  0  0  0  0  0  0  0  0  0  0  0
   -5.5600   21.8180  -32.0430 C   0  0  0  0  0  0  0  0  0  0  0  0
   -5.2610   23.0170  -31.4430 C   0  0  0  0  0  0  0  0  0  0  0  0
   -6.4780   23.5970  -31.1620 C   0  0  0  0  0  0  0  0  0  0  0  0
   -7.4710   22.8370  -31.5830 O   0  0  0  0  0  0  0  0  0  0  0  0
   -6.9310   21.7600  -32.1140 C   0  0  0  0  0  0  0  0  0  0  0  0
   -6.5980   24.9280  -30.4950 C   0  0  0  0  0  0  0  0  0  0  0  0
   -5.2600   25.2910  -29.8110 C   0  0  0  0  0  0  0  0  0  0  0  0
   -4.1000   25.0320  -30.6900 N   0  0  0  0  0  0  0  0  0  0  0  0
   -3.9520   23.5960  -31.0040 C   0  0  0  0  0  0  0  0  0  0  0  0
   -9.4777   21.0277  -30.7576 H   0  0  0  0  0  0  0  0  0  0  0  0
   -9.7936   22.3797  -31.8973 H   0  0  0  0  0  0  0  0  0  0  0  0
  -10.8631   20.9365  -31.8973 H   0  0  0  0  0  0  0  0  0  0  0  0
   -7.2725   18.7383  -33.6416 H   0  0  0  0  0  0  0  0  0  0  0  0
   -2.1050   17.0150  -32.6191 H   0  0  0  0  0  0  0  0  0  0  0  0
    0.2977   17.6740  -32.5012 H   0  0  0  0  0  0  0  0  0  0  0  0
    1.7659   20.0418  -32.4196 H   0  0  0  0  0  0  0  0  0  0  0  0
    2.0394   19.1851  -33.9746 H   0  0  0  0  0  0  0  0  0  0  0  0
    1.5807   20.9218  -33.9746 H   0  0  0  0  0  0  0  0  0  0  0  0
   -0.6140   21.3638  -34.5799 H   0  0  0  0  0  0  0  0  0  0  0  0
   -3.0177   20.7033  -34.6949 H   0  0  0  0  0  0  0  0  0  0  0  0
   -3.6510   20.8555  -32.4490 H   0  0  0  0  0  0  0  0  0  0  0  0
   -6.8436   25.6927  -31.2466 H   0  0  0  0  0  0  0  0  0  0  0  0
   -7.3944   24.8851  -29.7374 H   0  0  0  0  0  0  0  0  0  0  0  0
   -5.2743   26.3588  -29.5474 H   0  0  0  0  0  0  0  0  0  0  0  0
   -5.1547   24.6611  -28.9153 H   0  0  0  0  0  0  0  0  0  0  0  0
   -4.2340   25.5590  -31.5850 H   0  0  0  0  0  0  0  0  0  0  0  0
   -3.2144   23.4762  -31.8112 H   0  0  0  0  0  0  0  0  0  0  0  0
   -3.6147   23.0674  -30.1002 H   0  0  0  0  0  0  0  0  0  0  0  0
  1  2  1  0
  2  3  1  0
  3  4  2  0
  4  5  1  0
  5  6  1  0
  6  7  2  0
  6  8  2  0
  6  9  1  0
  9 10  2  0
 10 11  1  0
 11 12  2  0
 12 13  1  0
 12 14  1  0
 14 15  2  0
  5 16  2  0
 16 17  1  0
 17 18  1  0
 18 19  2  0
 19 20  1  0
 20 21  1  0
 19 22  1  0
 22 23  1  0
 23 24  1  0
 24 25  1  0
 21  3  1  0
 15  9  1  0
 21 17  2  0
 25 18  1  0
  1 26  1  0
  1 27  1  0
  1 28  1  0
  4 29  1  0
 10 30  1  0
 11 31  1  0
 13 32  1  0
 13 33  1  0
 13 34  1  0
 14 35  1  0
 15 36  1  0
 16 37  1  0
 22 38  1  0
 22 39  1  0
 23 40  1  0
 23 41  1  0
 24 42  1  0
 25 43  1  0
 25 44  1  0
M  END
>  <UniqueID>  (46) 
44

>  <SMILES>  (46) 
COc1cc(S(=O)(=O)c2ccc(C)cc2)cc2c3c(oc12)CCNC3

>  <Energy>  (46) 
85.00437926281245

>  <Genealogy>  (46) 
COc1cc(S(=O)(=O)c2ccc(C)cc2)cc2c3c(oc12)CCNC3 (3D coordinates assigned)
COc1cc(S(=O)(=O)c2ccc(C)cc2)cc2c3c(oc12)CCNC3 (nonaromatic ring conformer: 85.00437926281245 kcal/mol)

>  <smiles>  (46) 
COc1cc(S(=O)(=O)c2ccc(C)cc2)cc2c3c(oc12)CCNC3

>  <score_type>  (46) 
oracle

>  <origin>  (46) 
adg

>  <m_score__min__energy>  (46) 
-9.0500000000000007

>  <m_primary>  (46) 
energy

$$$$
46:0
     RDKit          3D

 50 52  0  0  0  0  0  0  0  0999 V2000
   -5.2590   24.9310  -30.1490 C   0  0  0  0  0  0  0  0  0  0  0  0
   -3.9320   24.6600  -30.5900 O   0  0  0  0  0  0  0  0  0  0  0  0
   -3.4390   23.3780  -30.8770 C   0  0  0  0  0  0  0  0  0  0  0  0
   -2.4320   22.7670  -30.1070 C   0  0  0  0  0  0  0  0  0  0  0  0
   -1.9770   21.4840  -30.4300 C   0  0  0  0  0  0  0  0  0  0  0  0
   -2.5150   20.7950  -31.5330 C   0  0  0  0  0  0  0  0  0  0  0  0
   -2.1280   19.4550  -31.8710 N   0  0  0  0  0  0  0  0  0  0  0  0
   -2.2490   18.7980  -33.1390 C   0  0  0  0  0  0  0  0  0  0  0  0
   -1.9320   19.3910  -34.2050 O   0  0  0  0  0  0  0  0  0  0  0  0
   -2.8110   17.4010  -33.2080 C   0  0  0  0  0  0  0  0  0  0  0  0
   -4.2250   17.3420  -33.6600 N   0  0  0  0  0  0  0  0  0  0  0  0
   -4.6250   18.5710  -34.4040 C   0  0  0  0  0  0  0  0  0  0  0  0
   -6.1220   18.8600  -34.2950 C   0  0  0  0  0  0  0  0  0  0  0  0
   -6.4660   19.0060  -32.8810 N   0  0  0  0  0  0  0  0  0  0  0  0
   -7.2510   20.1240  -32.4380 C   0  0  0  0  0  0  0  0  0  0  0  0
   -6.7390   21.4240  -32.5820 C   0  0  0  0  0  0  0  0  0  0  0  0
   -7.4890   22.5290  -32.1770 C   0  0  0  0  0  0  0  0  0  0  0  0
   -8.7600   22.3470  -31.6290 C   0  0  0  0  0  0  0  0  0  0  0  0
   -9.2810   21.0590  -31.4780 C   0  0  0  0  0  0  0  0  0  0  0  0
   -8.5290   19.9370  -31.8660 C   0  0  0  0  0  0  0  0  0  0  0  0
   -9.1110   18.5600  -31.6960 C   0  0  0  0  0  0  0  0  0  0  0  0
   -5.8870   18.0900  -31.8950 C   0  0  0  0  0  0  0  0  0  0  0  0
   -5.1650   16.9170  -32.5810 C   0  0  0  0  0  0  0  0  0  0  0  0
   -3.5240   21.4040  -32.2890 C   0  0  0  0  0  0  0  0  0  0  0  0
   -3.9770   22.6870  -31.9670 C   0  0  0  0  0  0  0  0  0  0  0  0
   -5.2860   24.9365  -29.0493 H   0  0  0  0  0  0  0  0  0  0  0  0
   -5.5782   25.9129  -30.5285 H   0  0  0  0  0  0  0  0  0  0  0  0
   -5.9376   24.1529  -30.5285 H   0  0  0  0  0  0  0  0  0  0  0  0
   -2.0006   23.3006  -29.2472 H   0  0  0  0  0  0  0  0  0  0  0  0
   -1.1944   21.0111  -29.8185 H   0  0  0  0  0  0  0  0  0  0  0  0
   -2.1985   16.8157  -33.9096 H   0  0  0  0  0  0  0  0  0  0  0  0
   -2.7857   16.9961  -32.1855 H   0  0  0  0  0  0  0  0  0  0  0  0
   -4.2480   16.5680  -34.3670 H   0  0  0  0  0  0  0  0  0  0  0  0
   -4.0696   19.4277  -33.9946 H   0  0  0  0  0  0  0  0  0  0  0  0
   -4.3924   18.4089  -35.4668 H   0  0  0  0  0  0  0  0  0  0  0  0
   -6.3603   19.7897  -34.8325 H   0  0  0  0  0  0  0  0  0  0  0  0
   -6.6979   18.0348  -34.7392 H   0  0  0  0  0  0  0  0  0  0  0  0
   -5.7397   21.5722  -33.0171 H   0  0  0  0  0  0  0  0  0  0  0  0
   -7.0787   23.5434  -32.2896 H   0  0  0  0  0  0  0  0  0  0  0  0
   -9.3526   23.2191  -31.3154 H   0  0  0  0  0  0  0  0  0  0  0  0
  -10.2862   20.9226  -31.0527 H   0  0  0  0  0  0  0  0  0  0  0  0
   -9.2072   18.3324  -30.6241 H   0  0  0  0  0  0  0  0  0  0  0  0
  -10.1029   18.5201  -32.1698 H   0  0  0  0  0  0  0  0  0  0  0  0
   -8.4484   17.8208  -32.1698 H   0  0  0  0  0  0  0  0  0  0  0  0
   -5.1658   18.6411  -31.2736 H   0  0  0  0  0  0  0  0  0  0  0  0
   -6.7013   17.6839  -31.2769 H   0  0  0  0  0  0  0  0  0  0  0  0
   -4.5936   16.3669  -31.8188 H   0  0  0  0  0  0  0  0  0  0  0  0
   -5.9388   16.2946  -33.0542 H   0  0  0  0  0  0  0  0  0  0  0  0
   -3.9639   20.8686  -33.1433 H   0  0  0  0  0  0  0  0  0  0  0  0
   -4.7632   23.1567  -32.5763 H   0  0  0  0  0  0  0  0  0  0  0  0
  1  2  1  0
  2  3  1  0
  3  4  2  0
  4  5  1  0
  5  6  2  0
  6  7  1  0
  7  8  1  0
  8  9  2  0
  8 10  1  0
 10 11  1  0
 11 12  1  0
 12 13  1  0
 13 14  1  0
 14 15  1  0
 15 16  2  0
 16 17  1  0
 17 18  2  0
 18 19  1  0
 19 20  2  0
 20 21  1  0
 14 22  1  0
 22 23  1  0
  6 24  1  0
 24 25  2  0
 25  3  1  0
 23 11  1  0
 20 15  1  0
  1 26  1  0
  1 27  1  0
  1 28  1  0
  4 29  1  0
  5 30  1  0
 10 31  1  0
 10 32  1  0
 11 33  1  0
 12 34  1  0
 12 35  1  0
 13 36  1  0
 13 37  1  0
 16 38  1  0
 17 39  1  0
 18 40  1  0
 19 41  1  0
 21 42  1  0
 21 43  1  0
 21 44  1  0
 22 45  1  0
 22 46  1  0
 23 47  1  0
 23 48  1  0
 24 49  1  0
 25 50  1  0
M  CHG  2   7  -1  11   1
M  END
>  <UniqueID>  (47) 
45

>  <SMILES>  (47) 
COc1ccc([N-]C(=O)C[NH+]2CCN(c3ccccc3C)CC2)cc1

>  <Energy>  (47) 
66.709493506355

>  <Genealogy>  (47) 
COc1ccc([N-]C(=O)C[NH+]2CCN(c3ccccc3C)CC2)cc1 (protonated)
COc1ccc([N-]C(=O)C[NH+]2CCN(c3ccccc3C)CC2)cc1 (3D coordinates assigned)
COc1ccc([N-]C(=O)C[NH+]2CCN(c3ccccc3C)CC2)cc1 (nonaromatic ring conformer: 66.709493506355 kcal/mol)

>  <smiles>  (47) 
COc1ccc(NC(=O)CN2CCN(c3ccccc3C)CC2)cc1

>  <score_type>  (47) 
oracle

>  <origin>  (47) 
adg

>  <m_score__min__energy>  (47) 
-8.9700000000000006

>  <m_primary>  (47) 
energy

$$$$
47:0
     RDKit          3D

 36 38  0  0  0  0  0  0  0  0999 V2000
   -2.7054   20.7945  -32.6402 H   0  0  0  0  0  0  0  0  0  0  0  0
   -3.4050   21.5160  -32.1930 C   0  0  0  0  0  0  0  0  0  0  0  0
   -2.9100   22.6260  -31.6300 C   0  0  0  0  0  0  0  0  0  0  0  0
   -2.4541   23.3880  -32.2792 H   0  0  0  0  0  0  0  0  0  0  0  0
   -2.9510   22.8700  -30.1700 C   0  0  0  0  0  0  0  0  0  0  0  0
   -2.5690   21.8230  -29.3160 C   0  0  0  0  0  0  0  0  0  0  0  0
   -2.2574   20.8600  -29.7468 H   0  0  0  0  0  0  0  0  0  0  0  0
   -2.5780   21.9840  -27.9270 C   0  0  0  0  0  0  0  0  0  0  0  0
   -2.1710   20.9050  -27.1280 O   0  0  0  0  0  0  0  0  0  0  0  0
   -2.8250   19.6410  -27.0900 C   0  0  0  0  0  0  0  0  0  0  0  0
   -2.9807   19.3400  -26.0435 H   0  0  0  0  0  0  0  0  0  0  0  0
   -3.7975   19.7159  -27.5986 H   0  0  0  0  0  0  0  0  0  0  0  0
   -2.2021   18.8904  -27.5986 H   0  0  0  0  0  0  0  0  0  0  0  0
   -2.9900   23.2120  -27.3830 C   0  0  0  0  0  0  0  0  0  0  0  0
   -2.9901   23.3543  -26.2922 H   0  0  0  0  0  0  0  0  0  0  0  0
   -3.3990   24.2520  -28.2180 C   0  0  0  0  0  0  0  0  0  0  0  0
   -3.7239   25.2070  -27.7794 H   0  0  0  0  0  0  0  0  0  0  0  0
   -3.4000   24.0910  -29.6170 C   0  0  0  0  0  0  0  0  0  0  0  0
   -3.8660   25.1040  -30.4720 O   0  0  0  0  0  0  0  0  0  0  0  0
   -5.2370   25.3450  -30.7740 C   0  0  0  0  0  0  0  0  0  0  0  0
   -5.8065   25.4451  -29.8382 H   0  0  0  0  0  0  0  0  0  0  0  0
   -5.3261   26.2726  -31.3585 H   0  0  0  0  0  0  0  0  0  0  0  0
   -5.6371   24.5034  -31.3585 H   0  0  0  0  0  0  0  0  0  0  0  0
   -4.8460   21.2220  -32.2380 C   0  0  0  0  0  0  0  0  0  0  0  0
   -5.7780   22.1080  -31.8080 N   0  0  0  0  0  0  0  0  0  0  0  0
   -7.0330   21.6080  -31.9450 C   0  0  0  0  0  0  0  0  0  0  0  0
   -8.1970   22.2910  -31.5890 C   0  0  0  0  0  0  0  0  0  0  0  0
   -8.1451   23.3050  -31.1659 H   0  0  0  0  0  0  0  0  0  0  0  0
   -9.4380   21.6570  -31.7820 C   0  0  0  0  0  0  0  0  0  0  0  0
  -10.3667   22.1786  -31.5073 H   0  0  0  0  0  0  0  0  0  0  0  0
   -9.4990   20.3580  -32.3250 C   0  0  0  0  0  0  0  0  0  0  0  0
  -10.4747   19.8719  -32.4723 H   0  0  0  0  0  0  0  0  0  0  0  0
   -8.3210   19.6810  -32.6790 C   0  0  0  0  0  0  0  0  0  0  0  0
   -8.3568   18.6666  -33.1028 H   0  0  0  0  0  0  0  0  0  0  0  0
   -7.1060   20.3310  -32.4780 C   0  0  0  0  0  0  0  0  0  0  0  0
   -5.5550   19.7820  -32.8000 S   0  0  0  0  0  0  0  0  0  0  0  0
  1  2  1  0
  2  3  2  0
  3  4  1  0
  3  5  1  0
  5  6  2  0
  6  7  1  0
  6  8  1  0
  8  9  1  0
  9 10  1  0
 10 11  1  0
 10 12  1  0
 10 13  1  0
  8 14  2  0
 14 15  1  0
 14 16  1  0
 16 17  1  0
 16 18  2  0
 18 19  1  0
 19 20  1  0
 20 21  1  0
 20 22  1  0
 20 23  1  0
  2 24  1  0
 24 25  2  0
 25 26  1  0
 26 27  2  0
 27 28  1  0
 27 29  1  0
 29 30  1  0
 29 31  2  0
 31 32  1  0
 31 33  1  0
 33 34  1  0
 33 35  2  0
 35 36  1  0
 18  5  1  0
 36 24  1  0
 35 26  1  0
M  END
>  <UniqueID>  (48) 
46

>  <SMILES>  (48) 
COc1ccc(OC)c(/C=C/c2nc3ccccc3s2)c1

>  <Energy>  (48) 
75.62816821131943

>  <Genealogy>  (48) 
COc1ccc(OC)c(/C=C/c2nc3ccccc3s2)c1 (cis-trans isomerization)
COc1ccc(OC)c(/C=C/c2nc3ccccc3s2)c1 (3D coordinates assigned)
COc1ccc(OC)c(/C=C/c2nc3ccccc3s2)c1 (optimized conformer: 75.62816821131943 kcal/mol)

>  <smiles>  (48) 
COc1ccc(OC)c(C=Cc2nc3ccccc3s2)c1

>  <score_type>  (48) 
oracle

>  <origin>  (48) 
adg

>  <m_score__min__energy>  (48) 
-7.79

>  <m_primary>  (48) 
energy

$$$$
