0:0
     RDKit          3D

 62 64  0  0  0  0  0  0  0  0999 V2000
   -0.1290   23.8320  -28.4380 C   0  0  0  0  0  0  0  0  0  0  0  0
   -0.9260   25.1290  -28.5720 C   0  0  0  0  0  0  0  0  0  0  0  0
   -2.3150   24.8420  -28.9610 N   0  0  0  0  0  0  0  0  0  0  0  0
   -3.1780   24.5350  -27.8090 C   0  0  0  0  0  0  0  0  0  0  0  0
   -3.8710   23.1830  -28.0080 C   0  0  0  0  0  0  0  0  0  0  0  0
   -4.9910   23.2050  -29.0750 C   0  0  0  0  0  0  0  0  0  0  0  0
   -4.8150   24.3160  -30.1210 C   0  0  0  0  0  0  0  0  0  0  0  0
   -3.8080   23.9240  -31.1210 N   0  0  0  0  0  0  0  0  0  0  0  0
   -3.3300   22.5430  -30.9530 C   0  0  0  0  0  0  0  0  0  0  0  0
   -3.3790   21.7400  -32.2700 C   0  0  0  0  0  0  0  0  0  0  0  0
   -4.6000   22.0050  -33.0600 N   0  0  0  0  0  0  0  0  0  0  0  0
   -5.6650   21.0450  -32.7890 C   0  0  0  0  0  0  0  0  0  0  0  0
   -6.8510   21.4620  -32.1260 C   0  0  0  0  0  0  0  0  0  0  0  0
   -7.8860   20.5360  -31.8870 C   0  0  0  0  0  0  0  0  0  0  0  0
   -7.7050   19.1990  -32.1490 N   0  0  0  0  0  0  0  0  0  0  0  0
   -8.6520   18.2100  -31.5910 C   0  0  0  0  0  0  0  0  0  0  0  0
   -6.6380   18.7860  -32.9200 C   0  0  0  0  0  0  0  0  0  0  0  0
   -6.5810   17.4650  -33.4360 C   0  0  0  0  0  0  0  0  0  0  0  0
   -5.4860   17.0260  -34.1740 C   0  0  0  0  0  0  0  0  0  0  0  0
   -4.4310   17.8880  -34.4300 C   0  0  0  0  0  0  0  0  0  0  0  0
   -4.4730   19.2020  -33.9740 C   0  0  0  0  0  0  0  0  0  0  0  0
   -5.5790   19.6900  -33.2290 C   0  0  0  0  0  0  0  0  0  0  0  0
   -9.1870   21.0750  -31.3040 C   0  0  0  0  0  0  0  0  0  0  0  0
   -9.5670   22.4080  -31.9630 C   0  0  0  0  0  0  0  0  0  0  0  0
   -8.4170   23.4370  -31.9910 C   0  0  0  0  0  0  0  0  0  0  0  0
   -7.0580   22.8630  -31.5670 C   0  0  0  0  0  0  0  0  0  0  0  0
    0.0146   23.5983  -27.3728 H   0  0  0  0  0  0  0  0  0  0  0  0
   -0.6792   23.0118  -28.9224 H   0  0  0  0  0  0  0  0  0  0  0  0
    0.8513   23.9523  -28.9224 H   0  0  0  0  0  0  0  0  0  0  0  0
   -0.9221   25.6576  -27.6074 H   0  0  0  0  0  0  0  0  0  0  0  0
   -0.4608   25.7538  -29.3487 H   0  0  0  0  0  0  0  0  0  0  0  0
   -2.3020   24.0020  -29.5850 H   0  0  0  0  0  0  0  0  0  0  0  0
   -2.5650   24.4976  -26.8964 H   0  0  0  0  0  0  0  0  0  0  0  0
   -3.9439   25.3192  -27.7171 H   0  0  0  0  0  0  0  0  0  0  0  0
   -3.1134   22.4473  -28.3159 H   0  0  0  0  0  0  0  0  0  0  0  0
   -4.3464   22.9234  -27.0506 H   0  0  0  0  0  0  0  0  0  0  0  0
   -4.9973   22.2352  -29.5940 H   0  0  0  0  0  0  0  0  0  0  0  0
   -5.9370   23.4010  -28.5490 H   0  0  0  0  0  0  0  0  0  0  0  0
   -5.7762   24.4948  -30.6252 H   0  0  0  0  0  0  0  0  0  0  0  0
   -4.4776   25.2326  -29.6150 H   0  0  0  0  0  0  0  0  0  0  0  0
   -2.9930   24.5800  -31.0780 H   0  0  0  0  0  0  0  0  0  0  0  0
   -2.2906   22.5700  -30.5940 H   0  0  0  0  0  0  0  0  0  0  0  0
   -3.9926   22.0439  -30.2306 H   0  0  0  0  0  0  0  0  0  0  0  0
   -2.5024   22.0087  -32.8778 H   0  0  0  0  0  0  0  0  0  0  0  0
   -3.3820   20.6722  -32.0058 H   0  0  0  0  0  0  0  0  0  0  0  0
   -4.8980   22.9940  -32.9360 H   0  0  0  0  0  0  0  0  0  0  0  0
   -4.3590   21.9770  -34.0770 H   0  0  0  0  0  0  0  0  0  0  0  0
   -8.6162   18.2474  -30.4922 H   0  0  0  0  0  0  0  0  0  0  0  0
   -9.6709   18.4446  -31.9328 H   0  0  0  0  0  0  0  0  0  0  0  0
   -8.3735   17.2022  -31.9328 H   0  0  0  0  0  0  0  0  0  0  0  0
   -7.4176   16.7757  -33.2491 H   0  0  0  0  0  0  0  0  0  0  0  0
   -5.4576   15.9943  -34.5545 H   0  0  0  0  0  0  0  0  0  0  0  0
   -3.5574   17.5320  -34.9957 H   0  0  0  0  0  0  0  0  0  0  0  0
   -3.6325   19.8763  -34.1951 H   0  0  0  0  0  0  0  0  0  0  0  0
   -9.9906   20.3443  -31.4782 H   0  0  0  0  0  0  0  0  0  0  0  0
   -9.0486   21.2411  -30.2255 H   0  0  0  0  0  0  0  0  0  0  0  0
   -9.8783   22.2070  -32.9987 H   0  0  0  0  0  0  0  0  0  0  0  0
  -10.3753   22.8460  -31.3590 H   0  0  0  0  0  0  0  0  0  0  0  0
   -8.3244   23.8250  -33.0161 H   0  0  0  0  0  0  0  0  0  0  0  0
   -8.6730   24.2216  -31.2638 H   0  0  0  0  0  0  0  0  0  0  0  0
   -6.2590   23.5199  -31.9413 H   0  0  0  0  0  0  0  0  0  0  0  0
   -7.0323   22.8061  -30.4688 H   0  0  0  0  0  0  0  0  0  0  0  0
  1  2  1  0
  2  3  1  0
  3  4  1  0
  4  5  1  0
  5  6  1  0
  6  7  1  0
  7  8  1  0
  8  9  1  0
  9 10  1  0
 10 11  1  0
 11 12  1  0
 12 13  2  0
 13 14  1  0
 14 15  2  0
 15 16  1  0
 15 17  1  0
 17 18  2  0
 18 19  1  0
 19 20  2  0
 20 21  1  0
 21 22  2  0
 14 23  1  0
 23 24  1  0
 24 25  1  0
 25 26  1  0
 22 12  1  0
 26 13  1  0
 22 17  1  0
  1 27  1  0
  1 28  1  0
  1 29  1  0
  2 30  1  0
  2 31  1  0
  3 32  1  0
  4 33  1  0
  4 34  1  0
  5 35  1  0
  5 36  1  0
  6 37  1  0
  6 38  1  0
  7 39  1  0
  7 40  1  0
  8 41  1  0
  9 42  1  0
  9 43  1  0
 10 44  1  0
 10 45  1  0
 11 46  1  0
 11 47  1  0
 16 48  1  0
 16 49  1  0
 16 50  1  0
 18 51  1  0
 19 52  1  0
 20 53  1  0
 21 54  1  0
 23 55  1  0
 23 56  1  0
 24 57  1  0
 24 58  1  0
 25 59  1  0
 25 60  1  0
 26 61  1  0
 26 62  1  0
M  CHG  2  11   1  15   1
M  END
>  <UniqueID>  (1) 
1

>  <SMILES>  (1) 
CCNCCCCNCC[NH2+]c1c2c([n+](C)c3ccccc13)CCCC2

>  <Energy>  (1) 
84.14777782146273

>  <Genealogy>  (1) 
CCNCCCCNCC[NH2+]c1c2c([n+](C)c3ccccc13)CCCC2 (protonated)
CCNCCCCNCC[NH2+]c1c2c([n+](C)c3ccccc13)CCCC2 (3D coordinates assigned)
CCNCCCCNCC[NH2+]c1c2c([n+](C)c3ccccc13)CCCC2 (nonaromatic ring conformer: 84.14777782146273 kcal/mol)

>  <smiles>  (1) 
CCNCCCCNCCNc1c2c([n+](C)c3ccccc13)CCCC2

>  <score_type>  (1) 
oracle

>  <origin>  (1) 
adg

>  <m_score__min__energy>  (1) 
-8.7100000000000009

>  <m_primary>  (1) 
energy

$$$$
1:0
     RDKit          3D

 54 57  0  0  0  0  0  0  0  0999 V2000
    0.9970   27.9220  -22.9840 C   0  0  0  0  0  0  0  0  0  0  0  0
   -0.1320   27.1230  -23.6630 C   0  0  1  0  0  0  0  0  0  0  0  0
   -0.6320   27.8210  -24.9640 C   0  0  0  0  0  0  0  0  0  0  0  0
   -0.2630   27.1010  -26.2020 N   0  0  0  0  0  0  0  0  0  0  0  0
   -1.2770   26.1150  -26.6460 C   0  0  0  0  0  0  0  0  0  0  0  0
   -0.7760   25.4040  -27.8970 C   0  0  0  0  0  0  0  0  0  0  0  0
   -1.6750   25.6490  -28.9550 O   0  0  0  0  0  0  0  0  0  0  0  0
   -2.7900   24.9100  -28.7110 N   0  0  0  0  0  0  0  0  0  0  0  0
   -3.2420   23.9270  -29.6610 C   0  0  0  0  0  0  0  0  0  0  0  0
   -2.3760   22.9100  -30.1090 C   0  0  0  0  0  0  0  0  0  0  0  0
   -1.0970   22.7370  -29.5330 C   0  0  0  0  0  0  0  0  0  0  0  0
   -0.2590   21.7080  -29.9550 C   0  0  0  0  0  0  0  0  0  0  0  0
   -0.6860   20.8160  -30.9290 C   0  0  0  0  0  0  0  0  0  0  0  0
   -1.9480   20.9560  -31.5030 C   0  0  0  0  0  0  0  0  0  0  0  0
   -2.8120   22.0170  -31.1260 C   0  0  0  0  0  0  0  0  0  0  0  0
   -4.0570   22.1780  -31.7070 N   0  0  0  0  0  0  0  0  0  0  0  0
   -4.3940   21.4450  -32.9480 C   0  0  0  0  0  0  0  0  0  0  0  0
   -4.9740   23.0430  -31.1420 C   0  0  0  0  0  0  0  0  0  0  0  0
   -6.3390   23.0400  -31.5320 C   0  0  0  0  0  0  0  0  0  0  0  0
   -7.2380   23.9730  -31.0160 C   0  0  0  0  0  0  0  0  0  0  0  0
   -6.8080   24.9240  -30.0990 C   0  0  0  0  0  0  0  0  0  0  0  0
   -5.4850   24.9240  -29.6610 C   0  0  0  0  0  0  0  0  0  0  0  0
   -4.5650   23.9660  -30.1410 C   0  0  0  0  0  0  0  0  0  0  0  0
    1.1020   26.5540  -26.1340 C   0  0  0  0  0  0  0  0  0  0  0  0
    1.2840   25.5660  -24.9630 C   0  0  0  0  0  0  0  0  0  0  0  0
    0.2710   25.7220  -23.9020 N   0  0  0  0  0  0  0  0  0  0  0  0
    0.8926   27.8481  -21.8915 H   0  0  0  0  0  0  0  0  0  0  0  0
    1.9710   27.5110  -23.2879 H   0  0  0  0  0  0  0  0  0  0  0  0
    0.9334   28.9773  -23.2879 H   0  0  0  0  0  0  0  0  0  0  0  0
   -0.9859   27.1006  -22.9700 H   0  0  0  0  0  0  0  0  0  0  0  0
   -1.7285   27.8958  -24.9190 H   0  0  0  0  0  0  0  0  0  0  0  0
   -0.1466   28.8071  -25.0077 H   0  0  0  0  0  0  0  0  0  0  0  0
   -1.4464   25.3776  -25.8475 H   0  0  0  0  0  0  0  0  0  0  0  0
   -2.2208   26.6335  -26.8706 H   0  0  0  0  0  0  0  0  0  0  0  0
    0.2206   25.7855  -28.1640 H   0  0  0  0  0  0  0  0  0  0  0  0
   -0.7097   24.3223  -27.7084 H   0  0  0  0  0  0  0  0  0  0  0  0
   -3.3160   25.0630  -27.8200 H   0  0  0  0  0  0  0  0  0  0  0  0
   -0.7596   23.4231  -28.7422 H   0  0  0  0  0  0  0  0  0  0  0  0
    0.7437   21.6018  -29.5154 H   0  0  0  0  0  0  0  0  0  0  0  0
   -0.0261   19.9961  -31.2488 H   0  0  0  0  0  0  0  0  0  0  0  0
   -2.2803   20.2318  -32.2613 H   0  0  0  0  0  0  0  0  0  0  0  0
   -4.8407   20.4734  -32.6902 H   0  0  0  0  0  0  0  0  0  0  0  0
   -5.1119   22.0336  -33.5380 H   0  0  0  0  0  0  0  0  0  0  0  0
   -3.4798   21.2833  -33.5380 H   0  0  0  0  0  0  0  0  0  0  0  0
   -6.6936   22.2891  -32.2534 H   0  0  0  0  0  0  0  0  0  0  0  0
   -8.2903   23.9559  -31.3359 H   0  0  0  0  0  0  0  0  0  0  0  0
   -7.5127   25.6779  -29.7182 H   0  0  0  0  0  0  0  0  0  0  0  0
   -5.1534   25.6790  -28.9329 H   0  0  0  0  0  0  0  0  0  0  0  0
    1.3191   26.0288  -27.0758 H   0  0  0  0  0  0  0  0  0  0  0  0
    1.7919   27.3953  -25.9723 H   0  0  0  0  0  0  0  0  0  0  0  0
    1.2201   24.5414  -25.3581 H   0  0  0  0  0  0  0  0  0  0  0  0
    2.2640   25.7765  -24.5098 H   0  0  0  0  0  0  0  0  0  0  0  0
   -0.5740   25.1570  -24.1480 H   0  0  0  0  0  0  0  0  0  0  0  0
    0.6460   25.3090  -23.0150 H   0  0  0  0  0  0  0  0  0  0  0  0
  1  2  1  0
  2  3  1  0
  3  4  1  0
  4  5  1  0
  5  6  1  0
  6  7  1  0
  7  8  1  0
  8  9  1  0
  9 10  1  0
 10 11  2  0
 11 12  1  0
 12 13  2  0
 13 14  1  0
 14 15  2  0
 15 16  1  0
 16 17  1  0
 16 18  2  0
 18 19  1  0
 19 20  2  0
 20 21  1  0
 21 22  2  0
 22 23  1  0
  4 24  1  0
 24 25  1  0
 25 26  1  0
 26  2  1  0
 23  9  2  0
 15 10  1  0
 23 18  1  0
  1 27  1  0
  1 28  1  0
  1 29  1  0
  2 30  1  1
  3 31  1  0
  3 32  1  0
  5 33  1  0
  5 34  1  0
  6 35  1  0
  6 36  1  0
  8 37  1  0
 11 38  1  0
 12 39  1  0
 13 40  1  0
 14 41  1  0
 17 42  1  0
 17 43  1  0
 17 44  1  0
 19 45  1  0
 20 46  1  0
 21 47  1  0
 22 48  1  0
 24 49  1  0
 24 50  1  0
 25 51  1  0
 25 52  1  0
 26 53  1  0
 26 54  1  0
M  CHG  2  16   1  26   1
M  END
>  <UniqueID>  (2) 
2

>  <SMILES>  (2) 
C[C@H]1CN(CCONc2c3ccccc3[n+](C)c3ccccc23)CC[NH2+]1

>  <Energy>  (2) 
92.2879678498668

>  <Genealogy>  (2) 
CC1CN(CCONc2c3ccccc3[n+](C)c3ccccc23)CC[NH2+]1 (protonated)
C[C@H]1CN(CCONc2c3ccccc3[n+](C)c3ccccc23)CC[NH2+]1 (chirality)
C[C@H]1CN(CCONc2c3ccccc3[n+](C)c3ccccc23)CC[NH2+]1 (3D coordinates assigned)
C[C@H]1CN(CCONc2c3ccccc3[n+](C)c3ccccc23)CC[NH2+]1 (nonaromatic ring conformer: 92.2879678498668 kcal/mol)

>  <smiles>  (2) 
CC1CN(CCONc2c3ccccc3[n+](C)c3ccccc23)CCN1

>  <score_type>  (2) 
oracle

>  <origin>  (2) 
adg

>  <m_score__min__energy>  (2) 
-8.4499999999999993

>  <m_primary>  (2) 
energy

$$$$
2:0
     RDKit          3D

 42 41  0  0  0  0  0  0  0  0999 V2000
   -5.4030   24.9270  -29.4280 C   0  0  0  0  0  0  0  0  0  0  0  0
   -6.5060   24.3800  -30.3340 C   0  0  0  0  0  0  0  0  0  0  0  0
   -5.9820   23.9610  -31.7120 C   0  0  0  0  0  0  0  0  0  0  0  0
   -6.8200   22.8950  -32.2770 N   0  0  0  0  0  0  0  0  0  0  0  0
   -8.2380   23.2800  -32.3320 C   0  0  0  0  0  0  0  0  0  0  0  0
   -9.1310   22.2990  -31.5490 C   0  0  0  0  0  0  0  0  0  0  0  0
   -9.0010   20.8310  -31.9970 C   0  0  0  0  0  0  0  0  0  0  0  0
   -7.6220   20.4950  -32.3960 N   0  0  0  0  0  0  0  0  0  0  0  0
   -7.4510   19.0590  -32.6880 C   0  0  0  0  0  0  0  0  0  0  0  0
   -6.0290   18.6650  -33.1520 C   0  0  0  0  0  0  0  0  0  0  0  0
   -5.2400   19.7980  -33.8250 C   0  0  0  0  0  0  0  0  0  0  0  0
   -5.2090   20.9920  -32.9700 N   0  0  0  0  0  0  0  0  0  0  0  0
   -3.8700   21.1770  -32.4010 C   0  0  0  0  0  0  0  0  0  0  0  0
   -2.8080   20.8490  -33.4440 C   0  0  0  0  0  0  0  0  0  0  0  0
   -5.6891   24.7851  -28.3754 H   0  0  0  0  0  0  0  0  0  0  0  0
   -4.4640   24.3901  -29.6283 H   0  0  0  0  0  0  0  0  0  0  0  0
   -5.2621   25.9994  -29.6283 H   0  0  0  0  0  0  0  0  0  0  0  0
   -6.9591   23.5035  -29.8478 H   0  0  0  0  0  0  0  0  0  0  0  0
   -7.2412   25.1838  -30.4870 H   0  0  0  0  0  0  0  0  0  0  0  0
   -5.9987   24.8304  -32.3857 H   0  0  0  0  0  0  0  0  0  0  0  0
   -4.9536   23.5861  -31.6034 H   0  0  0  0  0  0  0  0  0  0  0  0
   -6.5030   22.7250  -33.2590 H   0  0  0  0  0  0  0  0  0  0  0  0
   -8.3504   24.2854  -31.9000 H   0  0  0  0  0  0  0  0  0  0  0  0
   -8.5550   23.2628  -33.3852 H   0  0  0  0  0  0  0  0  0  0  0  0
   -8.8598   22.3601  -30.4847 H   0  0  0  0  0  0  0  0  0  0  0  0
  -10.1722   22.5970  -31.7416 H   0  0  0  0  0  0  0  0  0  0  0  0
   -9.2986   20.1777  -31.1635 H   0  0  0  0  0  0  0  0  0  0  0  0
   -9.6528   20.6836  -32.8707 H   0  0  0  0  0  0  0  0  0  0  0  0
   -7.3880   21.0250  -33.2670 H   0  0  0  0  0  0  0  0  0  0  0  0
   -6.9420   20.7840  -31.6590 H   0  0  0  0  0  0  0  0  0  0  0  0
   -7.6839   18.4923  -31.7745 H   0  0  0  0  0  0  0  0  0  0  0  0
   -8.1288   18.8260  -33.5225 H   0  0  0  0  0  0  0  0  0  0  0  0
   -5.4619   18.3276  -32.2719 H   0  0  0  0  0  0  0  0  0  0  0  0
   -6.1550   17.8788  -33.9110 H   0  0  0  0  0  0  0  0  0  0  0  0
   -4.2097   19.4597  -34.0094 H   0  0  0  0  0  0  0  0  0  0  0  0
   -5.7339   20.0564  -34.7733 H   0  0  0  0  0  0  0  0  0  0  0  0
   -5.4240   21.8210  -33.5730 H   0  0  0  0  0  0  0  0  0  0  0  0
   -3.7528   22.2222  -32.0787 H   0  0  0  0  0  0  0  0  0  0  0  0
   -3.7487   20.5039  -31.5395 H   0  0  0  0  0  0  0  0  0  0  0  0
   -1.8745   20.5607  -32.9386 H   0  0  0  0  0  0  0  0  0  0  0  0
   -3.1566   20.0167  -34.0730 H   0  0  0  0  0  0  0  0  0  0  0  0
   -2.6265   21.7330  -34.0730 H   0  0  0  0  0  0  0  0  0  0  0  0
  1  2  1  0
  2  3  1  0
  3  4  1  0
  4  5  1  0
  5  6  1  0
  6  7  1  0
  7  8  1  0
  8  9  1  0
  9 10  1  0
 10 11  1  0
 11 12  1  0
 12 13  1  0
 13 14  1  0
  1 15  1  0
  1 16  1  0
  1 17  1  0
  2 18  1  0
  2 19  1  0
  3 20  1  0
  3 21  1  0
  4 22  1  0
  5 23  1  0
  5 24  1  0
  6 25  1  0
  6 26  1  0
  7 27  1  0
  7 28  1  0
  8 29  1  0
  8 30  1  0
  9 31  1  0
  9 32  1  0
 10 33  1  0
 10 34  1  0
 11 35  1  0
 11 36  1  0
 12 37  1  0
 13 38  1  0
 13 39  1  0
 14 40  1  0
 14 41  1  0
 14 42  1  0
M  CHG  1   8   1
M  END
>  <UniqueID>  (3) 
3

>  <SMILES>  (3) 
CCCNCCC[NH2+]CCCNCC

>  <Energy>  (3) 
21.577596574648926

>  <Genealogy>  (3) 
CCCNCCC[NH2+]CCCNCC (protonated)
CCCNCCC[NH2+]CCCNCC (3D coordinates assigned)
CCCNCCC[NH2+]CCCNCC (optimized conformer: 21.577596574648926 kcal/mol)

>  <smiles>  (3) 
CCCNCCCNCCCNCC

>  <score_type>  (3) 
oracle

>  <origin>  (3) 
adg

>  <m_score__min__energy>  (3) 
-2.9100000000000001

>  <m_primary>  (3) 
energy

$$$$
3:0
     RDKit          3D

 35 35  0  0  0  0  0  0  0  0999 V2000
   -0.5940   23.1230  -28.7250 C   0  0  0  0  0  0  0  0  0  0  0  0
   -1.0070   24.5340  -28.2950 C   0  0  0  0  0  0  0  0  0  0  0  0
   -1.7200   24.4940  -26.9410 C   0  0  0  0  0  0  0  0  0  0  0  0
   -1.8810   25.1380  -29.3060 N   0  0  0  0  0  0  0  0  0  0  0  0
   -3.1270   24.5480  -29.6970 C   0  0  0  0  0  0  0  0  0  0  0  0
   -3.5280   23.4830  -29.1550 O   0  0  0  0  0  0  0  0  0  0  0  0
   -3.9190   25.1850  -30.7020 N   0  0  0  0  0  0  0  0  0  0  0  0
   -5.2960   25.6030  -30.4760 C   0  0  0  0  0  0  0  0  0  0  0  0
   -6.1590   24.4050  -30.0550 C   0  0  0  0  0  0  0  0  0  0  0  0
   -7.0940   23.9000  -31.1680 C   0  0  0  0  0  0  0  0  0  0  0  0
   -6.5080   22.7250  -31.9590 C   0  0  0  0  0  0  0  0  0  0  0  0
   -7.4970   21.6550  -32.0710 N   0  0  0  0  0  0  0  0  0  0  0  0
   -7.2800   20.3960  -32.4820 C   0  0  0  0  0  0  0  0  0  0  0  0
   -8.4940   19.7470  -32.5080 C   0  0  0  0  0  0  0  0  0  0  0  0
   -9.4710   20.5970  -32.1270 N   0  0  0  0  0  0  0  0  0  0  0  0
   -8.8250   21.7540  -31.8740 C   0  0  0  0  0  0  0  0  0  0  0  0
   -0.4134   22.5058  -27.8325 H   0  0  0  0  0  0  0  0  0  0  0  0
   -1.3980   22.6726  -29.3256 H   0  0  0  0  0  0  0  0  0  0  0  0
    0.3259   23.1772  -29.3256 H   0  0  0  0  0  0  0  0  0  0  0  0
   -0.0993   25.1476  -28.1969 H   0  0  0  0  0  0  0  0  0  0  0  0
   -0.9749   24.5358  -26.1329 H   0  0  0  0  0  0  0  0  0  0  0  0
   -2.3990   25.3555  -26.8586 H   0  0  0  0  0  0  0  0  0  0  0  0
   -2.2984   23.5620  -26.8586 H   0  0  0  0  0  0  0  0  0  0  0  0
   -1.6130   26.0480  -29.7450 H   0  0  0  0  0  0  0  0  0  0  0  0
   -5.3179   26.3624  -29.6805 H   0  0  0  0  0  0  0  0  0  0  0  0
   -5.6989   26.0211  -31.4103 H   0  0  0  0  0  0  0  0  0  0  0  0
   -5.4916   23.5816  -29.7608 H   0  0  0  0  0  0  0  0  0  0  0  0
   -6.7972   24.7421  -29.2249 H   0  0  0  0  0  0  0  0  0  0  0  0
   -8.0404   23.5764  -30.7101 H   0  0  0  0  0  0  0  0  0  0  0  0
   -7.2408   24.7302  -31.8746 H   0  0  0  0  0  0  0  0  0  0  0  0
   -6.2266   23.0678  -32.9656 H   0  0  0  0  0  0  0  0  0  0  0  0
   -5.6205   22.3428  -31.4334 H   0  0  0  0  0  0  0  0  0  0  0  0
   -6.3062   19.9604  -32.7502 H   0  0  0  0  0  0  0  0  0  0  0  0
   -8.6448   18.6960  -32.7954 H   0  0  0  0  0  0  0  0  0  0  0  0
   -9.3272   22.6752  -31.5437 H   0  0  0  0  0  0  0  0  0  0  0  0
  1  2  1  0
  2  3  1  0
  2  4  1  0
  4  5  1  0
  5  6  2  0
  5  7  1  0
  7  8  1  0
  8  9  1  0
  9 10  1  0
 10 11  1  0
 11 12  1  0
 12 13  1  0
 13 14  2  0
 14 15  1  0
 15 16  2  0
 16 12  1  0
  1 17  1  0
  1 18  1  0
  1 19  1  0
  2 20  1  0
  3 21  1  0
  3 22  1  0
  3 23  1  0
  4 24  1  0
  8 25  1  0
  8 26  1  0
  9 27  1  0
  9 28  1  0
 10 29  1  0
 10 30  1  0
 11 31  1  0
 11 32  1  0
 13 33  1  0
 14 34  1  0
 16 35  1  0
M  CHG  1   7  -1
M  END
>  <UniqueID>  (4) 
4

>  <SMILES>  (4) 
CC(C)NC(=O)[N-]CCCCn1ccnc1

>  <Energy>  (4) 
47.0660986064356

>  <Genealogy>  (4) 
CC(C)NC(=O)[N-]CCCCn1ccnc1 (protonated)
CC(C)NC(=O)[N-]CCCCn1ccnc1 (3D coordinates assigned)
CC(C)NC(=O)[N-]CCCCn1ccnc1 (optimized conformer: 47.0660986064356 kcal/mol)

>  <smiles>  (4) 
CC(C)NC(=O)NCCCCn1ccnc1

>  <score_type>  (4) 
oracle

>  <origin>  (4) 
adg

>  <m_score__min__energy>  (4) 
-7.6799999999999997

>  <m_primary>  (4) 
energy

$$$$
4:0
     RDKit          3D

 32 33  0  0  0  0  0  0  0  0999 V2000
   -2.5460   21.1730  -33.4130 C   0  0  0  0  0  0  0  0  0  0  0  0
   -3.3540   21.1260  -32.5190 C   0  0  0  0  0  0  0  0  0  0  0  0
   -4.3340   21.0680  -31.4290 C   0  0  0  0  0  0  0  0  0  0  0  0
   -5.3950   22.0600  -31.6550 N   0  0  0  0  0  0  0  0  0  0  0  0
   -6.3790   21.8050  -32.7210 C   0  0  0  0  0  0  0  0  0  0  0  0
   -6.9700   20.4190  -32.5810 C   0  0  0  0  0  0  0  0  0  0  0  0
   -6.2950   19.3350  -33.1720 C   0  0  0  0  0  0  0  0  0  0  0  0
   -6.7930   18.0350  -33.0510 C   0  0  0  0  0  0  0  0  0  0  0  0
   -7.9690   17.7990  -32.3410 C   0  0  0  0  0  0  0  0  0  0  0  0
   -8.6500   18.8620  -31.7470 C   0  0  0  0  0  0  0  0  0  0  0  0
   -8.1630   20.1710  -31.8580 C   0  0  0  0  0  0  0  0  0  0  0  0
   -9.1700   21.5600  -30.9940 Br  0  0  0  0  0  0  0  0  0  0  0  0
   -5.5360   23.1660  -30.7290 C   0  0  0  0  0  0  0  0  0  0  0  0
   -6.4900   24.1790  -30.9200 C   0  0  0  0  0  0  0  0  0  0  0  0
   -6.5560   25.2230  -29.9990 C   0  0  0  0  0  0  0  0  0  0  0  0
   -5.7040   25.2580  -28.9420 N   0  0  0  0  0  0  0  0  0  0  0  0
   -4.7740   24.2790  -28.7720 C   0  0  0  0  0  0  0  0  0  0  0  0
   -3.8660   24.3220  -27.6570 C   0  0  0  0  0  0  0  0  0  0  0  0
   -3.1360   24.3570  -26.7610 N   0  0  0  0  0  0  0  0  0  0  0  0
   -4.6970   23.2540  -29.6590 N   0  0  0  0  0  0  0  0  0  0  0  0
   -1.8090   21.2159  -34.2285 H   0  0  0  0  0  0  0  0  0  0  0  0
   -4.7776   20.0621  -31.3908 H   0  0  0  0  0  0  0  0  0  0  0  0
   -3.8293   21.2889  -30.4769 H   0  0  0  0  0  0  0  0  0  0  0  0
   -7.1854   22.5501  -32.6542 H   0  0  0  0  0  0  0  0  0  0  0  0
   -5.8730   21.8776  -33.6950 H   0  0  0  0  0  0  0  0  0  0  0  0
   -5.3666   19.5126  -33.7346 H   0  0  0  0  0  0  0  0  0  0  0  0
   -6.2557   17.1960  -33.5172 H   0  0  0  0  0  0  0  0  0  0  0  0
   -8.3601   16.7750  -32.2490 H   0  0  0  0  0  0  0  0  0  0  0  0
   -9.5771   18.6707  -31.1868 H   0  0  0  0  0  0  0  0  0  0  0  0
   -7.1732   24.1489  -31.7816 H   0  0  0  0  0  0  0  0  0  0  0  0
   -7.3011   26.0217  -30.1288 H   0  0  0  0  0  0  0  0  0  0  0  0
   -5.7670   26.0490  -28.2630 H   0  0  0  0  0  0  0  0  0  0  0  0
  1  2  3  0
  2  3  1  0
  3  4  1  0
  4  5  1  0
  5  6  1  0
  6  7  2  0
  7  8  1  0
  8  9  2  0
  9 10  1  0
 10 11  2  0
 11 12  1  0
  4 13  1  0
 13 14  2  0
 14 15  1  0
 15 16  2  0
 16 17  1  0
 17 18  1  0
 18 19  3  0
 17 20  2  0
 11  6  1  0
 20 13  1  0
  1 21  1  0
  3 22  1  0
  3 23  1  0
  5 24  1  0
  5 25  1  0
  7 26  1  0
  8 27  1  0
  9 28  1  0
 10 29  1  0
 14 30  1  0
 15 31  1  0
 16 32  1  0
M  CHG  1  16   1
M  END
>  <UniqueID>  (5) 
5

>  <SMILES>  (5) 
C#CCN(Cc1ccccc1Br)c1cc[nH+]c(C#N)n1

>  <Energy>  (5) 
32.64217880515055

>  <Genealogy>  (5) 
C#CCN(Cc1ccccc1Br)c1cc[nH+]c(C#N)n1 (protonated)
C#CCN(Cc1ccccc1Br)c1cc[nH+]c(C#N)n1 (3D coordinates assigned)
C#CCN(Cc1ccccc1Br)c1cc[nH+]c(C#N)n1 (optimized conformer: 32.64217880515055 kcal/mol)

>  <smiles>  (5) 
C#CCN(Cc1ccccc1Br)c1ccnc(C#N)n1

>  <score_type>  (5) 
oracle

>  <origin>  (5) 
adg

>  <m_score__min__energy>  (5) 
-6.6200000000000001

>  <m_primary>  (5) 
energy

$$$$
5:0
     RDKit          3D

 45 46  0  0  0  0  0  0  0  0999 V2000
   -1.8550   25.4430  -26.8390 C   0  0  0  0  0  0  0  0  0  0  0  0
   -1.2460   25.6540  -28.2220 C   0  0  0  0  0  0  0  0  0  0  0  0
   -2.1770   25.2990  -29.2280 O   0  0  0  0  0  0  0  0  0  0  0  0
   -2.3570   23.8960  -29.2950 C   0  0  0  0  0  0  0  0  0  0  0  0
   -3.7490   23.5140  -28.7890 C   0  0  0  0  0  0  0  0  0  0  0  0
   -4.7120   24.5690  -29.1470 N   0  0  0  0  0  0  0  0  0  0  0  0
   -5.3180   24.4430  -30.4900 C   0  0  0  0  0  0  0  0  0  0  0  0
   -6.8580   24.3290  -30.4150 C   0  0  0  0  0  0  0  0  0  0  0  0
   -7.4170   23.7970  -31.7420 C   0  0  0  0  0  0  0  0  0  0  0  0
   -6.8990   22.4460  -32.0930 N   0  0  0  0  0  0  0  0  0  0  0  0
   -7.8870   21.3830  -31.8190 C   0  0  0  0  0  0  0  0  0  0  0  0
   -7.3790   20.0510  -32.3100 C   0  0  0  0  0  0  0  0  0  0  0  0
   -7.6880   18.8680  -31.6210 C   0  0  0  0  0  0  0  0  0  0  0  0
   -7.2190   17.6370  -32.0890 C   0  0  0  0  0  0  0  0  0  0  0  0
   -6.4370   17.5790  -33.2480 C   0  0  0  0  0  0  0  0  0  0  0  0
   -5.7970   15.8970  -33.8860 Br  0  0  0  0  0  0  0  0  0  0  0  0
   -6.1250   18.7540  -33.9380 C   0  0  0  0  0  0  0  0  0  0  0  0
   -6.5930   19.9870  -33.4720 C   0  0  0  0  0  0  0  0  0  0  0  0
   -5.5920   22.1090  -31.4790 C   0  0  0  0  0  0  0  0  0  0  0  0
   -4.6780   23.3360  -31.3700 C   0  0  0  0  0  0  0  0  0  0  0  0
   -1.1131   25.7000  -26.0686 H   0  0  0  0  0  0  0  0  0  0  0  0
   -2.7395   26.0871  -26.7257 H   0  0  0  0  0  0  0  0  0  0  0  0
   -2.1514   24.3898  -26.7257 H   0  0  0  0  0  0  0  0  0  0  0  0
   -0.9705   26.7124  -28.3396 H   0  0  0  0  0  0  0  0  0  0  0  0
   -0.3531   25.0192  -28.3205 H   0  0  0  0  0  0  0  0  0  0  0  0
   -2.2470   23.5656  -30.3384 H   0  0  0  0  0  0  0  0  0  0  0  0
   -1.6004   23.4079  -28.6631 H   0  0  0  0  0  0  0  0  0  0  0  0
   -4.0582   22.5644  -29.2502 H   0  0  0  0  0  0  0  0  0  0  0  0
   -3.7215   23.4007  -27.6952 H   0  0  0  0  0  0  0  0  0  0  0  0
   -4.2130   25.4890  -29.1010 H   0  0  0  0  0  0  0  0  0  0  0  0
   -5.0850   25.3828  -31.0120 H   0  0  0  0  0  0  0  0  0  0  0  0
   -7.1319   23.6392  -29.6031 H   0  0  0  0  0  0  0  0  0  0  0  0
   -7.2820   25.3254  -30.2214 H   0  0  0  0  0  0  0  0  0  0  0  0
   -8.5129   23.7425  -31.6637 H   0  0  0  0  0  0  0  0  0  0  0  0
   -7.0951   24.4884  -32.5347 H   0  0  0  0  0  0  0  0  0  0  0  0
   -8.0654   21.3252  -30.7351 H   0  0  0  0  0  0  0  0  0  0  0  0
   -8.8229   21.6228  -32.3450 H   0  0  0  0  0  0  0  0  0  0  0  0
   -8.3017   18.9096  -30.7091 H   0  0  0  0  0  0  0  0  0  0  0  0
   -7.4650   16.7128  -31.5455 H   0  0  0  0  0  0  0  0  0  0  0  0
   -5.5103   18.7089  -34.8491 H   0  0  0  0  0  0  0  0  0  0  0  0
   -6.3446   20.9094  -34.0174 H   0  0  0  0  0  0  0  0  0  0  0  0
   -5.7663   21.7047  -30.4709 H   0  0  0  0  0  0  0  0  0  0  0  0
   -5.0938   21.3688  -32.1224 H   0  0  0  0  0  0  0  0  0  0  0  0
   -3.7212   23.0307  -30.9213 H   0  0  0  0  0  0  0  0  0  0  0  0
   -4.5234   23.7431  -32.3801 H   0  0  0  0  0  0  0  0  0  0  0  0
  1  2  1  0
  2  3  1  0
  3  4  1  0
  4  5  1  0
  5  6  1  0
  6  7  1  0
  7  8  1  0
  8  9  1  0
  9 10  1  0
 10 11  1  0
 11 12  1  0
 12 13  2  0
 13 14  1  0
 14 15  2  0
 15 16  1  0
 15 17  1  0
 17 18  2  0
 10 19  1  0
 19 20  1  0
 20  7  1  0
 18 12  1  0
  1 21  1  0
  1 22  1  0
  1 23  1  0
  2 24  1  0
  2 25  1  0
  4 26  1  0
  4 27  1  0
  5 28  1  0
  5 29  1  0
  6 30  1  0
  7 31  1  0
  8 32  1  0
  8 33  1  0
  9 34  1  0
  9 35  1  0
 11 36  1  0
 11 37  1  0
 13 38  1  0
 14 39  1  0
 17 40  1  0
 18 41  1  0
 19 42  1  0
 19 43  1  0
 20 44  1  0
 20 45  1  0
M  END
>  <UniqueID>  (6) 
6

>  <SMILES>  (6) 
CCOCCNC1CCN(Cc2ccc(Br)cc2)CC1

>  <Energy>  (6) 
54.01332883634502

>  <Genealogy>  (6) 
CCOCCNC1CCN(Cc2ccc(Br)cc2)CC1 (3D coordinates assigned)
CCOCCNC1CCN(Cc2ccc(Br)cc2)CC1 (nonaromatic ring conformer: 54.01332883634502 kcal/mol)

>  <smiles>  (6) 
CCOCCNC1CCN(Cc2ccc(Br)cc2)CC1

>  <score_type>  (6) 
oracle

>  <origin>  (6) 
adg

>  <m_score__min__energy>  (6) 
-8.0399999999999991

>  <m_primary>  (6) 
energy

$$$$
6:0
     RDKit          3D

 36 36  0  0  0  0  0  0  0  0999 V2000
   -9.5400   21.3690  -31.7300 C   0  0  0  0  0  0  0  0  0  0  0  0
   -8.4510   21.8630  -31.8810 C   0  0  0  0  0  0  0  0  0  0  0  0
   -7.1230   22.4660  -32.0640 C   0  0  0  0  0  0  0  0  0  0  0  0
   -6.9610   23.6400  -31.1790 N   0  0  0  0  0  0  0  0  0  0  0  0
   -6.7760   23.2000  -29.7800 C   0  0  0  0  0  0  0  0  0  0  0  0
   -5.8100   24.4600  -31.6240 C   0  0  0  0  0  0  0  0  0  0  0  0
   -5.2860   25.3440  -30.4900 C   0  0  0  0  0  0  0  0  0  0  0  0
   -3.8610   25.2870  -30.4660 O   0  0  0  0  0  0  0  0  0  0  0  0
   -3.1160   24.1730  -30.0500 C   0  0  0  0  0  0  0  0  0  0  0  0
   -3.4910   22.8550  -30.3790 C   0  0  0  0  0  0  0  0  0  0  0  0
   -2.7210   21.7740  -29.9430 C   0  0  0  0  0  0  0  0  0  0  0  0
   -1.5750   21.9940  -29.1790 C   0  0  0  0  0  0  0  0  0  0  0  0
   -1.1930   23.2950  -28.8470 C   0  0  0  0  0  0  0  0  0  0  0  0
   -1.9620   24.3940  -29.2800 C   0  0  0  0  0  0  0  0  0  0  0  0
   -1.6120   25.7170  -28.9670 O   0  0  0  0  0  0  0  0  0  0  0  0
   -1.0700   26.1370  -27.7180 C   0  0  0  0  0  0  0  0  0  0  0  0
   -1.9740   25.6640  -26.5900 C   0  0  0  0  0  0  0  0  0  0  0  0
  -10.5339   20.9182  -31.5922 H   0  0  0  0  0  0  0  0  0  0  0  0
   -6.3507   21.7210  -31.8222 H   0  0  0  0  0  0  0  0  0  0  0  0
   -7.0212   22.7919  -33.1097 H   0  0  0  0  0  0  0  0  0  0  0  0
   -7.1105   23.9957  -29.0981 H   0  0  0  0  0  0  0  0  0  0  0  0
   -7.3678   22.2903  -29.6004 H   0  0  0  0  0  0  0  0  0  0  0  0
   -5.7120   22.9866  -29.6004 H   0  0  0  0  0  0  0  0  0  0  0  0
   -5.0030   23.7924  -31.9601 H   0  0  0  0  0  0  0  0  0  0  0  0
   -6.1441   25.1107  -32.4456 H   0  0  0  0  0  0  0  0  0  0  0  0
   -5.6092   26.3825  -30.6547 H   0  0  0  0  0  0  0  0  0  0  0  0
   -5.6847   24.9852  -29.5296 H   0  0  0  0  0  0  0  0  0  0  0  0
   -4.3938   22.6767  -30.9816 H   0  0  0  0  0  0  0  0  0  0  0  0
   -3.0190   20.7475  -30.2027 H   0  0  0  0  0  0  0  0  0  0  0  0
   -0.9709   21.1405  -28.8374 H   0  0  0  0  0  0  0  0  0  0  0  0
   -0.2879   23.4632  -28.2449 H   0  0  0  0  0  0  0  0  0  0  0  0
   -0.0665   25.7051  -27.5896 H   0  0  0  0  0  0  0  0  0  0  0  0
   -1.0013   27.2347  -27.6979 H   0  0  0  0  0  0  0  0  0  0  0  0
   -1.5104   25.9066  -25.6224 H   0  0  0  0  0  0  0  0  0  0  0  0
   -2.9491   26.1675  -26.6659 H   0  0  0  0  0  0  0  0  0  0  0  0
   -2.1163   24.5759  -26.6659 H   0  0  0  0  0  0  0  0  0  0  0  0
  1  2  3  0
  2  3  1  0
  3  4  1  0
  4  5  1  0
  4  6  1  0
  6  7  1  0
  7  8  1  0
  8  9  1  0
  9 10  2  0
 10 11  1  0
 11 12  2  0
 12 13  1  0
 13 14  2  0
 14 15  1  0
 15 16  1  0
 16 17  1  0
 14  9  1  0
  1 18  1  0
  3 19  1  0
  3 20  1  0
  5 21  1  0
  5 22  1  0
  5 23  1  0
  6 24  1  0
  6 25  1  0
  7 26  1  0
  7 27  1  0
 10 28  1  0
 11 29  1  0
 12 30  1  0
 13 31  1  0
 16 32  1  0
 16 33  1  0
 17 34  1  0
 17 35  1  0
 17 36  1  0
M  END
>  <UniqueID>  (7) 
7

>  <SMILES>  (7) 
C#CCN(C)CCOc1ccccc1OCC

>  <Energy>  (7) 
28.15583444406024

>  <Genealogy>  (7) 
C#CCN(C)CCOc1ccccc1OCC (3D coordinates assigned)
C#CCN(C)CCOc1ccccc1OCC (optimized conformer: 28.15583444406024 kcal/mol)

>  <smiles>  (7) 
C#CCN(C)CCOc1ccccc1OCC

>  <score_type>  (7) 
oracle

>  <origin>  (7) 
adg

>  <m_score__min__energy>  (7) 
-6.3600000000000003

>  <m_primary>  (7) 
energy

$$$$
7:0
     RDKit          3D

 35 36  0  0  0  0  0  0  0  0999 V2000
   -4.0862   20.9728  -32.9266 H   0  0  0  0  0  0  0  0  0  0  0  0
   -4.5360   21.7680  -32.3140 C   0  0  0  0  0  0  0  0  0  0  0  0
   -3.7050   22.6660  -31.7600 C   0  0  0  0  0  0  0  0  0  0  0  0
   -3.1730   23.3501  -32.4375 H   0  0  0  0  0  0  0  0  0  0  0  0
   -3.4490   22.8070  -30.3080 C   0  0  0  0  0  0  0  0  0  0  0  0
   -3.0760   21.6940  -29.5340 C   0  0  0  0  0  0  0  0  0  0  0  0
   -2.9933   20.7040  -30.0064 H   0  0  0  0  0  0  0  0  0  0  0  0
   -2.8100   21.8350  -28.1720 C   0  0  0  0  0  0  0  0  0  0  0  0
   -2.5332   20.9557  -27.5718 H   0  0  0  0  0  0  0  0  0  0  0  0
   -2.8950   23.0910  -27.5710 C   0  0  0  0  0  0  0  0  0  0  0  0
   -2.6905   23.1998  -26.4957 H   0  0  0  0  0  0  0  0  0  0  0  0
   -3.2390   24.2100  -28.3310 C   0  0  0  0  0  0  0  0  0  0  0  0
   -3.2967   25.1988  -27.8526 H   0  0  0  0  0  0  0  0  0  0  0  0
   -3.5130   24.0810  -29.7080 C   0  0  0  0  0  0  0  0  0  0  0  0
   -3.8600   25.1880  -30.5010 O   0  0  0  0  0  0  0  0  0  0  0  0
   -5.1890   25.6690  -30.6800 C   0  0  0  0  0  0  0  0  0  0  0  0
   -5.6536   25.8371  -29.6972 H   0  0  0  0  0  0  0  0  0  0  0  0
   -5.1641   26.6152  -31.2405 H   0  0  0  0  0  0  0  0  0  0  0  0
   -5.7754   24.9261  -31.2405 H   0  0  0  0  0  0  0  0  0  0  0  0
   -6.0090   21.7630  -32.1660 C   0  0  0  0  0  0  0  0  0  0  0  0
   -6.7160   22.9240  -31.8100 C   0  0  0  0  0  0  0  0  0  0  0  0
   -6.1708   23.8594  -31.6157 H   0  0  0  0  0  0  0  0  0  0  0  0
   -8.1070   22.8950  -31.7020 C   0  0  0  0  0  0  0  0  0  0  0  0
   -8.6530   23.8030  -31.4064 H   0  0  0  0  0  0  0  0  0  0  0  0
   -8.8080   21.7170  -31.9680 C   0  0  0  0  0  0  0  0  0  0  0  0
   -9.9038   21.6997  -31.8737 H   0  0  0  0  0  0  0  0  0  0  0  0
   -8.1210   20.5520  -32.3560 C   0  0  0  0  0  0  0  0  0  0  0  0
   -8.8160   19.3260  -32.6500 N   0  0  0  0  0  0  0  0  0  0  0  0
   -9.1410   19.1520  -33.6290 H   0  0  0  0  0  0  0  0  0  0  0  0
   -9.0950   18.2980  -31.6540 C   0  0  0  0  0  0  0  0  0  0  0  0
   -8.9796   18.7231  -30.6461 H   0  0  0  0  0  0  0  0  0  0  0  0
  -10.1247   17.9330  -31.7823 H   0  0  0  0  0  0  0  0  0  0  0  0
   -8.3911   17.4625  -31.7823 H   0  0  0  0  0  0  0  0  0  0  0  0
   -6.7210   20.5910  -32.4620 C   0  0  0  0  0  0  0  0  0  0  0  0
   -6.1756   19.6907  -32.7813 H   0  0  0  0  0  0  0  0  0  0  0  0
  1  2  1  0
  2  3  2  0
  3  4  1  0
  3  5  1  0
  5  6  2  0
  6  7  1  0
  6  8  1  0
  8  9  1  0
  8 10  2  0
 10 11  1  0
 10 12  1  0
 12 13  1  0
 12 14  2  0
 14 15  1  0
 15 16  1  0
 16 17  1  0
 16 18  1  0
 16 19  1  0
  2 20  1  0
 20 21  2  0
 21 22  1  0
 21 23  1  0
 23 24  1  0
 23 25  2  0
 25 26  1  0
 25 27  1  0
 27 28  1  0
 28 29  1  0
 28 30  1  0
 30 31  1  0
 30 32  1  0
 30 33  1  0
 27 34  2  0
 34 35  1  0
 14  5  1  0
 34 20  1  0
M  END
>  <UniqueID>  (8) 
8

>  <SMILES>  (8) 
CNc1cccc(/C=C\c2ccccc2OC)c1

>  <Energy>  (8) 
43.30235763475447

>  <Genealogy>  (8) 
CNc1cccc(/C=C\c2ccccc2OC)c1 (cis-trans isomerization)
CNc1cccc(/C=C\c2ccccc2OC)c1 (3D coordinates assigned)
CNc1cccc(/C=C\c2ccccc2OC)c1 (optimized conformer: 43.30235763475447 kcal/mol)

>  <smiles>  (8) 
CNc1cccc(C=Cc2ccccc2OC)c1

>  <score_type>  (8) 
oracle

>  <origin>  (8) 
adg

>  <m_score__min__energy>  (8) 
-7.5700000000000003

>  <m_primary>  (8) 
energy

$$$$
8:0
     RDKit          3D

 62 64  0  0  0  0  0  0  0  0999 V2000
   -4.2280   23.0240  -28.8650 C   0  0  0  0  0  0  0  0  0  0  0  0
   -3.1410   23.7190  -29.6920 C   0  0  0  0  0  0  0  0  0  0  0  0
   -3.7030   24.6780  -30.6560 N   0  0  0  0  0  0  0  0  0  0  0  0
   -4.9400   25.3090  -30.1690 C   0  0  0  0  0  0  0  0  0  0  0  0
   -6.1130   24.9300  -31.0720 C   0  0  0  0  0  0  0  0  0  0  0  0
   -5.9600   23.5600  -31.5650 N   0  0  0  0  0  0  0  0  0  0  0  0
   -7.0810   22.7040  -31.8670 C   0  0  0  0  0  0  0  0  0  0  0  0
   -8.3810   23.1750  -31.6250 C   0  0  0  0  0  0  0  0  0  0  0  0
   -9.4730   22.3240  -31.7180 C   0  0  0  0  0  0  0  0  0  0  0  0
   -9.2860   20.9740  -31.9820 C   0  0  0  0  0  0  0  0  0  0  0  0
   -7.9930   20.4430  -32.2040 C   0  0  0  0  0  0  0  0  0  0  0  0
   -6.8930   21.3460  -32.2690 C   0  0  0  0  0  0  0  0  0  0  0  0
   -5.6570   20.8640  -32.7610 C   0  0  0  0  0  0  0  0  0  0  0  0
   -4.6080   21.7720  -33.1310 N   0  0  0  0  0  0  0  0  0  0  0  0
   -3.3540   21.7890  -32.3730 C   0  0  0  0  0  0  0  0  0  0  0  0
   -2.1530   21.4930  -33.2750 C   0  0  0  0  0  0  0  0  0  0  0  0
   -1.1090   20.7750  -32.5060 N   0  0  0  0  0  0  0  0  0  0  0  0
   -0.9470   21.3710  -31.1660 C   0  0  0  0  0  0  0  0  0  0  0  0
    0.1790   20.7220  -33.2320 C   0  0  0  0  0  0  0  0  0  0  0  0
    0.0180   21.2150  -34.6690 C   0  0  0  0  0  0  0  0  0  0  0  0
   -5.5130   19.5000  -33.0780 C   0  0  0  0  0  0  0  0  0  0  0  0
   -4.2960   19.0060  -33.5980 C   0  0  0  0  0  0  0  0  0  0  0  0
   -4.1650   17.6670  -33.9570 C   0  0  0  0  0  0  0  0  0  0  0  0
   -5.2440   16.8030  -33.8220 C   0  0  0  0  0  0  0  0  0  0  0  0
   -6.4550   17.2670  -33.3100 C   0  0  0  0  0  0  0  0  0  0  0  0
   -6.6090   18.6170  -32.8990 C   0  0  0  0  0  0  0  0  0  0  0  0
   -7.7970   19.0860  -32.3780 N   0  0  0  0  0  0  0  0  0  0  0  0
   -8.8520   18.1290  -31.9680 C   0  0  0  0  0  0  0  0  0  0  0  0
   -4.0166   23.1592  -27.7940 H   0  0  0  0  0  0  0  0  0  0  0  0
   -5.2077   23.4637  -29.1037 H   0  0  0  0  0  0  0  0  0  0  0  0
   -4.2400   21.9503  -29.1037 H   0  0  0  0  0  0  0  0  0  0  0  0
   -2.4665   24.2570  -29.0096 H   0  0  0  0  0  0  0  0  0  0  0  0
   -2.6031   22.9457  -30.2600 H   0  0  0  0  0  0  0  0  0  0  0  0
   -3.8970   24.1920  -31.5640 H   0  0  0  0  0  0  0  0  0  0  0  0
   -5.1443   24.9661  -29.1440 H   0  0  0  0  0  0  0  0  0  0  0  0
   -4.8154   26.4019  -30.1800 H   0  0  0  0  0  0  0  0  0  0  0  0
   -7.0494   25.0062  -30.4999 H   0  0  0  0  0  0  0  0  0  0  0  0
   -6.1362   25.6164  -31.9313 H   0  0  0  0  0  0  0  0  0  0  0  0
   -5.0150   23.1200  -31.4970 H   0  0  0  0  0  0  0  0  0  0  0  0
   -8.5358   24.2310  -31.3585 H   0  0  0  0  0  0  0  0  0  0  0  0
  -10.4901   22.7203  -31.5821 H   0  0  0  0  0  0  0  0  0  0  0  0
  -10.1584   20.3050  -32.0193 H   0  0  0  0  0  0  0  0  0  0  0  0
   -4.8580   22.5820  -33.7420 H   0  0  0  0  0  0  0  0  0  0  0  0
   -3.2240   22.7821  -31.9181 H   0  0  0  0  0  0  0  0  0  0  0  0
   -3.4064   21.0093  -31.5988 H   0  0  0  0  0  0  0  0  0  0  0  0
   -2.4772   20.8687  -34.1207 H   0  0  0  0  0  0  0  0  0  0  0  0
   -1.7392   22.4409  -33.6495 H   0  0  0  0  0  0  0  0  0  0  0  0
   -1.1538   20.6102  -30.3989 H   0  0  0  0  0  0  0  0  0  0  0  0
    0.0835   21.7380  -31.0501 H   0  0  0  0  0  0  0  0  0  0  0  0
   -1.6499   22.2091  -31.0501 H   0  0  0  0  0  0  0  0  0  0  0  0
    0.9109   21.3585  -32.7132 H   0  0  0  0  0  0  0  0  0  0  0  0
    0.5250   19.6781  -33.2562 H   0  0  0  0  0  0  0  0  0  0  0  0
   -0.3235   22.2606  -34.6618 H   0  0  0  0  0  0  0  0  0  0  0  0
    0.9845   21.1485  -35.1899 H   0  0  0  0  0  0  0  0  0  0  0  0
   -0.7230   20.5909  -35.1899 H   0  0  0  0  0  0  0  0  0  0  0  0
   -3.4413   19.6875  -33.7208 H   0  0  0  0  0  0  0  0  0  0  0  0
   -3.2069   17.2935  -34.3475 H   0  0  0  0  0  0  0  0  0  0  0  0
   -5.1428   15.7490  -34.1200 H   0  0  0  0  0  0  0  0  0  0  0  0
   -7.3057   16.5751  -33.2230 H   0  0  0  0  0  0  0  0  0  0  0  0
   -8.9005   18.0850  -30.8700 H   0  0  0  0  0  0  0  0  0  0  0  0
   -9.8227   18.4611  -32.3649 H   0  0  0  0  0  0  0  0  0  0  0  0
   -8.6158   17.1307  -32.3649 H   0  0  0  0  0  0  0  0  0  0  0  0
  1  2  1  0
  2  3  1  0
  3  4  1  0
  4  5  1  0
  5  6  1  0
  6  7  1  0
  7  8  2  0
  8  9  1  0
  9 10  2  0
 10 11  1  0
 11 12  2  0
 12 13  1  0
 13 14  1  0
 14 15  1  0
 15 16  1  0
 16 17  1  0
 17 18  1  0
 17 19  1  0
 19 20  1  0
 13 21  2  0
 21 22  1  0
 22 23  2  0
 23 24  1  0
 24 25  2  0
 25 26  1  0
 26 27  2  0
 27 28  1  0
 12  7  1  0
 26 21  1  0
 27 11  1  0
  1 29  1  0
  1 30  1  0
  1 31  1  0
  2 32  1  0
  2 33  1  0
  3 34  1  0
  4 35  1  0
  4 36  1  0
  5 37  1  0
  5 38  1  0
  6 39  1  0
  8 40  1  0
  9 41  1  0
 10 42  1  0
 14 43  1  0
 15 44  1  0
 15 45  1  0
 16 46  1  0
 16 47  1  0
 18 48  1  0
 18 49  1  0
 18 50  1  0
 19 51  1  0
 19 52  1  0
 20 53  1  0
 20 54  1  0
 20 55  1  0
 22 56  1  0
 23 57  1  0
 24 58  1  0
 25 59  1  0
 28 60  1  0
 28 61  1  0
 28 62  1  0
M  CHG  1  27   1
M  END
>  <UniqueID>  (9) 
9

>  <SMILES>  (9) 
CCNCCNc1cccc2c1c(NCCN(C)CC)c1ccccc1[n+]2C

>  <Energy>  (9) 
92.2229436188952

>  <Genealogy>  (9) 
CCNCCNc1cccc2c1c(NCCN(C)CC)c1ccccc1[n+]2C (3D coordinates assigned)
CCNCCNc1cccc2c1c(NCCN(C)CC)c1ccccc1[n+]2C (optimized conformer: 92.2229436188952 kcal/mol)

>  <smiles>  (9) 
CCNCCNc1cccc2c1c(NCCN(C)CC)c1ccccc1[n+]2C

>  <score_type>  (9) 
oracle

>  <origin>  (9) 
adg

>  <m_score__min__energy>  (9) 
-9.2300000000000004

>  <m_primary>  (9) 
energy

$$$$
9:0
     RDKit          3D

 50 52  0  0  0  0  0  0  0  0999 V2000
   -1.9070   25.3510  -26.8850 C   0  0  0  0  0  0  0  0  0  0  0  0
   -1.2340   25.7300  -28.1950 C   0  0  0  0  0  0  0  0  0  0  0  0
   -2.0270   25.2780  -29.2730 O   0  0  0  0  0  0  0  0  0  0  0  0
   -2.5610   23.9990  -28.9920 C   0  0  0  0  0  0  0  0  0  0  0  0
   -3.4430   23.5290  -30.1530 C   0  0  0  0  0  0  0  0  0  0  0  0
   -4.0030   24.6420  -30.8210 O   0  0  0  0  0  0  0  0  0  0  0  0
   -5.3240   24.8750  -30.3760 C   0  0  0  0  0  0  0  0  0  0  0  0
   -6.2890   23.9640  -31.1360 C   0  0  0  0  0  0  0  0  0  0  0  0
   -5.6840   23.4690  -32.3850 N   0  0  0  0  0  0  0  0  0  0  0  0
   -5.7720   22.0200  -32.4640 C   0  0  0  0  0  0  0  0  0  0  0  0
   -7.0150   21.3560  -32.2870 C   0  0  0  0  0  0  0  0  0  0  0  0
   -8.2360   22.0710  -32.2020 C   0  0  0  0  0  0  0  0  0  0  0  0
   -9.4500   21.4040  -32.0580 C   0  0  0  0  0  0  0  0  0  0  0  0
   -9.4830   20.0190  -32.0120 C   0  0  0  0  0  0  0  0  0  0  0  0
   -8.3010   19.2880  -32.0930 C   0  0  0  0  0  0  0  0  0  0  0  0
   -7.0430   19.9350  -32.2040 C   0  0  0  0  0  0  0  0  0  0  0  0
   -5.8680   19.2140  -32.2490 N   0  0  0  0  0  0  0  0  0  0  0  0
   -5.8560   17.7920  -31.8360 C   0  0  0  0  0  0  0  0  0  0  0  0
   -4.7020   19.8200  -32.6690 C   0  0  0  0  0  0  0  0  0  0  0  0
   -3.5650   19.0540  -33.0350 C   0  0  0  0  0  0  0  0  0  0  0  0
   -2.3760   19.6660  -33.4240 C   0  0  0  0  0  0  0  0  0  0  0  0
   -0.8640   18.6040  -33.9060 Br  0  0  0  0  0  0  0  0  0  0  0  0
   -2.2940   21.0510  -33.4780 C   0  0  0  0  0  0  0  0  0  0  0  0
   -3.4020   21.8320  -33.1610 C   0  0  0  0  0  0  0  0  0  0  0  0
   -4.6250   21.2380  -32.7610 C   0  0  0  0  0  0  0  0  0  0  0  0
   -1.2908   25.6980  -26.0424 H   0  0  0  0  0  0  0  0  0  0  0  0
   -2.8992   25.8230  -26.8325 H   0  0  0  0  0  0  0  0  0  0  0  0
   -2.0178   24.2579  -26.8325 H   0  0  0  0  0  0  0  0  0  0  0  0
   -1.1266   26.8233  -28.2505 H   0  0  0  0  0  0  0  0  0  0  0  0
   -0.2391   25.2638  -28.2475 H   0  0  0  0  0  0  0  0  0  0  0  0
   -1.7371   23.2844  -28.8488 H   0  0  0  0  0  0  0  0  0  0  0  0
   -3.1703   24.0566  -28.0780 H   0  0  0  0  0  0  0  0  0  0  0  0
   -2.8331   22.9490  -30.8613 H   0  0  0  0  0  0  0  0  0  0  0  0
   -4.2551   22.9019  -29.7564 H   0  0  0  0  0  0  0  0  0  0  0  0
   -5.3906   24.6617  -29.2989 H   0  0  0  0  0  0  0  0  0  0  0  0
   -5.5917   25.9259  -30.5602 H   0  0  0  0  0  0  0  0  0  0  0  0
   -6.5490   23.1059  -30.4988 H   0  0  0  0  0  0  0  0  0  0  0  0
   -7.1877   24.5448  -31.3911 H   0  0  0  0  0  0  0  0  0  0  0  0
   -4.6910   23.7840  -32.4590 H   0  0  0  0  0  0  0  0  0  0  0  0
   -6.1390   23.9090  -33.2160 H   0  0  0  0  0  0  0  0  0  0  0  0
   -8.2244   23.1699  -32.2505 H   0  0  0  0  0  0  0  0  0  0  0  0
  -10.3853   21.9778  -31.9805 H   0  0  0  0  0  0  0  0  0  0  0  0
  -10.4456   19.4962  -31.9112 H   0  0  0  0  0  0  0  0  0  0  0  0
   -8.3430   18.1890  -32.0705 H   0  0  0  0  0  0  0  0  0  0  0  0
   -5.8555   17.7291  -30.7378 H   0  0  0  0  0  0  0  0  0  0  0  0
   -6.7499   17.2877  -32.2317 H   0  0  0  0  0  0  0  0  0  0  0  0
   -4.9537   17.3029  -32.2317 H   0  0  0  0  0  0  0  0  0  0  0  0
   -3.6238   17.9558  -33.0110 H   0  0  0  0  0  0  0  0  0  0  0  0
   -1.3500   21.5330  -33.7724 H   0  0  0  0  0  0  0  0  0  0  0  0
   -3.3270   22.9277  -33.2220 H   0  0  0  0  0  0  0  0  0  0  0  0
  1  2  1  0
  2  3  1  0
  3  4  1  0
  4  5  1  0
  5  6  1  0
  6  7  1  0
  7  8  1  0
  8  9  1  0
  9 10  1  0
 10 11  2  0
 11 12  1  0
 12 13  2  0
 13 14  1  0
 14 15  2  0
 15 16  1  0
 16 17  2  0
 17 18  1  0
 17 19  1  0
 19 20  2  0
 20 21  1  0
 21 22  1  0
 21 23  2  0
 23 24  1  0
 24 25  2  0
 25 10  1  0
 16 11  1  0
 25 19  1  0
  1 26  1  0
  1 27  1  0
  1 28  1  0
  2 29  1  0
  2 30  1  0
  4 31  1  0
  4 32  1  0
  5 33  1  0
  5 34  1  0
  7 35  1  0
  7 36  1  0
  8 37  1  0
  8 38  1  0
  9 39  1  0
  9 40  1  0
 12 41  1  0
 13 42  1  0
 14 43  1  0
 15 44  1  0
 18 45  1  0
 18 46  1  0
 18 47  1  0
 20 48  1  0
 23 49  1  0
 24 50  1  0
M  CHG  2   9   1  17   1
M  END
>  <UniqueID>  (10) 
10

>  <SMILES>  (10) 
CCOCCOCC[NH2+]c1c2ccccc2[n+](C)c2cc(Br)ccc12

>  <Energy>  (10) 
75.87450554796554

>  <Genealogy>  (10) 
CCOCCOCC[NH2+]c1c2ccccc2[n+](C)c2cc(Br)ccc12 (protonated)
CCOCCOCC[NH2+]c1c2ccccc2[n+](C)c2cc(Br)ccc12 (3D coordinates assigned)
CCOCCOCC[NH2+]c1c2ccccc2[n+](C)c2cc(Br)ccc12 (optimized conformer: 75.87450554796554 kcal/mol)

>  <smiles>  (10) 
CCOCCOCCNc1c2ccccc2[n+](C)c2cc(Br)ccc12

>  <score_type>  (10) 
oracle

>  <origin>  (10) 
adg

>  <m_score__min__energy>  (10) 
-8.6199999999999992

>  <m_primary>  (10) 
energy

$$$$
10:0
     RDKit          3D

 44 46  0  0  0  0  0  0  0  0999 V2000
   -9.4430   19.5340  -32.7140 C   0  0  0  0  0  0  0  0  0  0  0  0
   -9.1140   18.5740  -31.5710 C   0  0  0  0  0  0  0  0  0  0  0  0
   -7.7050   18.4170  -31.4360 O   0  0  0  0  0  0  0  0  0  0  0  0
   -6.8480   18.2270  -32.5290 C   0  0  0  0  0  0  0  0  0  0  0  0
   -6.8800   17.0780  -33.2550 N   0  0  0  0  0  0  0  0  0  0  0  0
   -6.0580   16.8840  -34.3220 C   0  0  0  0  0  0  0  0  0  0  0  0
   -5.1570   17.8850  -34.6800 C   0  0  0  0  0  0  0  0  0  0  0  0
   -5.1230   19.0420  -33.9640 N   0  0  0  0  0  0  0  0  0  0  0  0
   -5.9460   19.2330  -32.8930 C   0  0  0  0  0  0  0  0  0  0  0  0
   -5.9010   20.4700  -32.1660 N   0  0  0  0  0  0  0  0  0  0  0  0
   -6.9130   21.4960  -32.4570 C   0  0  0  0  0  0  0  0  0  0  0  0
   -6.7810   22.7000  -31.5150 C   0  0  0  0  0  0  0  0  0  0  0  0
   -5.6690   23.6800  -31.9160 C   0  0  0  0  0  0  0  0  0  0  0  0
   -4.3540   23.2230  -31.4500 N   0  0  0  0  0  0  0  0  0  0  0  0
   -3.6020   24.0710  -30.5650 C   0  0  0  0  0  0  0  0  0  0  0  0
   -3.8690   25.3000  -30.5030 O   0  0  0  0  0  0  0  0  0  0  0  0
   -2.4960   23.5180  -29.7010 C   0  0  0  0  0  0  0  0  0  0  0  0
   -2.8330   23.5140  -28.2110 C   0  0  0  0  0  0  0  0  0  0  0  0
   -1.8520   24.5310  -28.7670 C   0  0  0  0  0  0  0  0  0  0  0  0
   -3.8240   21.8780  -31.7580 C   0  0  0  0  0  0  0  0  0  0  0  0
   -4.7350   20.7160  -31.2970 C   0  0  0  0  0  0  0  0  0  0  0  0
   -9.7733   20.4979  -32.2996 H   0  0  0  0  0  0  0  0  0  0  0  0
   -8.5466   19.6886  -33.3325 H   0  0  0  0  0  0  0  0  0  0  0  0
  -10.2458   19.1063  -33.3325 H   0  0  0  0  0  0  0  0  0  0  0  0
   -9.5242   18.9755  -30.6327 H   0  0  0  0  0  0  0  0  0  0  0  0
   -9.5597   17.5932  -31.7932 H   0  0  0  0  0  0  0  0  0  0  0  0
   -6.1043   15.9468  -34.8960 H   0  0  0  0  0  0  0  0  0  0  0  0
   -4.4789   17.7413  -35.5341 H   0  0  0  0  0  0  0  0  0  0  0  0
   -4.4420   19.7860  -34.2370 H   0  0  0  0  0  0  0  0  0  0  0  0
   -6.7865   21.8386  -33.4946 H   0  0  0  0  0  0  0  0  0  0  0  0
   -7.9080   21.0505  -32.3100 H   0  0  0  0  0  0  0  0  0  0  0  0
   -7.7374   23.2434  -31.5102 H   0  0  0  0  0  0  0  0  0  0  0  0
   -6.5175   22.3041  -30.5231 H   0  0  0  0  0  0  0  0  0  0  0  0
   -5.6487   23.7682  -33.0123 H   0  0  0  0  0  0  0  0  0  0  0  0
   -5.8816   24.6527  -31.4483 H   0  0  0  0  0  0  0  0  0  0  0  0
   -2.1175   22.7829  -30.4266 H   0  0  0  0  0  0  0  0  0  0  0  0
   -3.8277   23.8378  -27.8710 H   0  0  0  0  0  0  0  0  0  0  0  0
   -2.8037   22.7624  -27.4084 H   0  0  0  0  0  0  0  0  0  0  0  0
   -2.1363   25.5919  -28.8275 H   0  0  0  0  0  0  0  0  0  0  0  0
   -0.8173   24.8203  -28.5309 H   0  0  0  0  0  0  0  0  0  0  0  0
   -3.6912   21.8008  -32.8472 H   0  0  0  0  0  0  0  0  0  0  0  0
   -2.8786   21.7767  -31.2048 H   0  0  0  0  0  0  0  0  0  0  0  0
   -4.1305   19.7975  -31.2653 H   0  0  0  0  0  0  0  0  0  0  0  0
   -5.1338   21.0032  -30.3129 H   0  0  0  0  0  0  0  0  0  0  0  0
  1  2  1  0
  2  3  1  0
  3  4  1  0
  4  5  2  0
  5  6  1  0
  6  7  2  0
  7  8  1  0
  8  9  2  0
  9 10  1  0
 10 11  1  0
 11 12  1  0
 12 13  1  0
 13 14  1  0
 14 15  1  0
 15 16  2  0
 15 17  1  0
 17 18  1  0
 18 19  1  0
 14 20  1  0
 20 21  1  0
  9  4  1  0
 21 10  1  0
 19 17  1  0
  1 22  1  0
  1 23  1  0
  1 24  1  0
  2 25  1  0
  2 26  1  0
  6 27  1  0
  7 28  1  0
  8 29  1  0
 11 30  1  0
 11 31  1  0
 12 32  1  0
 12 33  1  0
 13 34  1  0
 13 35  1  0
 17 36  1  0
 18 37  1  0
 18 38  1  0
 19 39  1  0
 19 40  1  0
 20 41  1  0
 20 42  1  0
 21 43  1  0
 21 44  1  0
M  CHG  1   8   1
M  END
>  <UniqueID>  (11) 
11

>  <SMILES>  (11) 
CCOc1ncc[nH+]c1N1CCCN(C(=O)C2CC2)CC1

>  <Energy>  (11) 
314.8294128153013

>  <Genealogy>  (11) 
CCOc1ncc[nH+]c1N1CCCN(C(=O)C2CC2)CC1 (protonated)
CCOc1ncc[nH+]c1N1CCCN(C(=O)C2CC2)CC1 (3D coordinates assigned)
CCOc1ncc[nH+]c1N1CCCN(C(=O)C2CC2)CC1 (nonaromatic ring conformer: 314.8294128153013 kcal/mol)

>  <smiles>  (11) 
CCOc1nccnc1N1CCCN(C(=O)C2CC2)CC1

>  <score_type>  (11) 
oracle

>  <origin>  (11) 
adg

>  <m_score__min__energy>  (11) 
-4.71

>  <m_primary>  (11) 
energy

$$$$
11:0
     RDKit          3D

 28 27  0  0  0  0  0  0  0  0999 V2000
   -9.0610   19.8580  -32.0560 C   0  0  0  0  0  0  0  0  0  0  0  0
   -8.7270   21.3330  -31.8950 C   0  0  0  0  0  0  0  0  0  0  0  0
   -7.4780   21.5930  -32.5030 O   0  0  0  0  0  0  0  0  0  0  0  0
   -6.9580   20.4130  -33.0870 C   0  0  0  0  0  0  0  0  0  0  0  0
   -5.4150   20.4250  -33.0820 C   0  0  0  0  0  0  0  0  0  0  0  0
   -4.8530   21.5520  -32.1970 C   0  0  0  0  0  0  0  0  0  0  0  0
   -5.2050   22.8760  -32.7190 N   0  0  0  0  0  0  0  0  0  0  0  0
   -4.9870   23.7990  -31.7310 O   0  0  0  0  0  0  0  0  0  0  0  0
   -6.2370   24.2220  -31.2220 C   0  0  0  0  0  0  0  0  0  0  0  0
   -6.0070   25.2500  -30.1260 C   0  0  0  0  0  0  0  0  0  0  0  0
   -9.1658   19.3953  -31.0636 H   0  0  0  0  0  0  0  0  0  0  0  0
  -10.0054   19.7543  -32.6104 H   0  0  0  0  0  0  0  0  0  0  0  0
   -8.2534   19.3576  -32.6104 H   0  0  0  0  0  0  0  0  0  0  0  0
   -9.5056   21.9419  -32.3777 H   0  0  0  0  0  0  0  0  0  0  0  0
   -8.6791   21.5878  -30.8260 H   0  0  0  0  0  0  0  0  0  0  0  0
   -7.3125   19.5427  -32.5153 H   0  0  0  0  0  0  0  0  0  0  0  0
   -7.3039   20.3571  -34.1297 H   0  0  0  0  0  0  0  0  0  0  0  0
   -5.0530   19.4589  -32.7003 H   0  0  0  0  0  0  0  0  0  0  0  0
   -5.0719   20.5976  -34.1128 H   0  0  0  0  0  0  0  0  0  0  0  0
   -5.2645   21.4476  -31.1822 H   0  0  0  0  0  0  0  0  0  0  0  0
   -3.7563   21.4669  -32.1875 H   0  0  0  0  0  0  0  0  0  0  0  0
   -6.2220   22.8590  -32.9750 H   0  0  0  0  0  0  0  0  0  0  0  0
   -4.6170   23.0810  -33.5640 H   0  0  0  0  0  0  0  0  0  0  0  0
   -6.8304   24.6729  -32.0310 H   0  0  0  0  0  0  0  0  0  0  0  0
   -6.7807   23.3585  -30.8113 H   0  0  0  0  0  0  0  0  0  0  0  0
   -6.1148   24.7683  -29.1430 H   0  0  0  0  0  0  0  0  0  0  0  0
   -4.9934   25.6667  -30.2210 H   0  0  0  0  0  0  0  0  0  0  0  0
   -6.7464   26.0589  -30.2210 H   0  0  0  0  0  0  0  0  0  0  0  0
  1  2  1  0
  2  3  1  0
  3  4  1  0
  4  5  1  0
  5  6  1  0
  6  7  1  0
  7  8  1  0
  8  9  1  0
  9 10  1  0
  1 11  1  0
  1 12  1  0
  1 13  1  0
  2 14  1  0
  2 15  1  0
  4 16  1  0
  4 17  1  0
  5 18  1  0
  5 19  1  0
  6 20  1  0
  6 21  1  0
  7 22  1  0
  7 23  1  0
  9 24  1  0
  9 25  1  0
 10 26  1  0
 10 27  1  0
 10 28  1  0
M  CHG  1   7   1
M  END
>  <UniqueID>  (12) 
12

>  <SMILES>  (12) 
CCOCCC[NH2+]OCC

>  <Energy>  (12) 
20.144786766526657

>  <Genealogy>  (12) 
CCOCCC[NH2+]OCC (protonated)
CCOCCC[NH2+]OCC (3D coordinates assigned)
CCOCCC[NH2+]OCC (optimized conformer: 20.144786766526657 kcal/mol)

>  <smiles>  (12) 
CCOCCCNOCC

>  <score_type>  (12) 
oracle

>  <origin>  (12) 
adg

>  <m_score__min__energy>  (12) 
-3.4399999999999999

>  <m_primary>  (12) 
energy

$$$$
12:0
     RDKit          3D

 51 53  0  0  0  0  0  0  0  0999 V2000
   -6.5020   24.9280  -29.7190 C   0  0  0  0  0  0  0  0  0  0  0  0
   -5.6310   25.2410  -30.9360 C   0  0  0  0  0  0  0  0  0  0  0  0
   -4.5580   24.3190  -31.0240 O   0  0  0  0  0  0  0  0  0  0  0  0
   -3.8950   24.2060  -29.7790 C   0  0  0  0  0  0  0  0  0  0  0  0
   -3.3840   22.7740  -29.6020 C   0  0  0  0  0  0  0  0  0  0  0  0
   -3.9220   21.9210  -30.5970 O   0  0  0  0  0  0  0  0  0  0  0  0
   -2.9020   21.3310  -31.3820 C   0  0  0  0  0  0  0  0  0  0  0  0
   -3.3960   21.1330  -32.8240 C   0  0  0  0  0  0  0  0  0  0  0  0
   -4.6340   21.8860  -33.0930 N   0  0  0  0  0  0  0  0  0  0  0  0
   -5.7950   21.0320  -33.0290 C   0  0  0  0  0  0  0  0  0  0  0  0
   -5.8970   19.7130  -33.4640 C   0  0  0  0  0  0  0  0  0  0  0  0
   -4.8610   18.9130  -34.2020 C   0  0  0  0  0  0  0  0  0  0  0  0
   -5.0420   17.4410  -33.9380 C   0  0  0  0  0  0  0  0  0  0  0  0
   -4.1210   16.7510  -33.1310 C   0  0  0  0  0  0  0  0  0  0  0  0
   -4.3010   15.3880  -32.8650 C   0  0  0  0  0  0  0  0  0  0  0  0
   -5.3980   14.7060  -33.4010 C   0  0  0  0  0  0  0  0  0  0  0  0
   -6.3160   15.3830  -34.2080 C   0  0  0  0  0  0  0  0  0  0  0  0
   -6.1400   16.7450  -34.4800 C   0  0  0  0  0  0  0  0  0  0  0  0
   -7.1470   19.2490  -33.2130 N   0  0  0  0  0  0  0  0  0  0  0  0
   -7.7630   20.2930  -32.6190 C   0  0  0  0  0  0  0  0  0  0  0  0
   -9.0840   20.3090  -32.1710 C   0  0  0  0  0  0  0  0  0  0  0  0
   -9.5640   21.4960  -31.5930 C   0  0  0  0  0  0  0  0  0  0  0  0
   -8.7270   22.6220  -31.4810 C   0  0  0  0  0  0  0  0  0  0  0  0
   -7.4060   22.5500  -31.9490 C   0  0  0  0  0  0  0  0  0  0  0  0
   -6.9800   21.3800  -32.4970 N   0  0  0  0  0  0  0  0  0  0  0  0
   -5.9340   25.1321  -28.7994 H   0  0  0  0  0  0  0  0  0  0  0  0
   -7.4030   25.5586  -29.7410 H   0  0  0  0  0  0  0  0  0  0  0  0
   -6.7956   23.8681  -29.7410 H   0  0  0  0  0  0  0  0  0  0  0  0
   -6.2432   25.1732  -31.8474 H   0  0  0  0  0  0  0  0  0  0  0  0
   -5.2219   26.2567  -30.8312 H   0  0  0  0  0  0  0  0  0  0  0  0
   -3.0458   24.9046  -29.7509 H   0  0  0  0  0  0  0  0  0  0  0  0
   -4.5959   24.4486  -28.9666 H   0  0  0  0  0  0  0  0  0  0  0  0
   -2.2867   22.7706  -29.6790 H   0  0  0  0  0  0  0  0  0  0  0  0
   -3.6998   22.4066  -28.6144 H   0  0  0  0  0  0  0  0  0  0  0  0
   -2.0197   21.9879  -31.3862 H   0  0  0  0  0  0  0  0  0  0  0  0
   -2.6371   20.3530  -30.9538 H   0  0  0  0  0  0  0  0  0  0  0  0
   -2.6140   21.4763  -33.5173 H   0  0  0  0  0  0  0  0  0  0  0  0
   -3.6120   20.0636  -32.9648 H   0  0  0  0  0  0  0  0  0  0  0  0
   -4.5730   22.3560  -34.0240 H   0  0  0  0  0  0  0  0  0  0  0  0
   -4.7360   22.6380  -32.3730 H   0  0  0  0  0  0  0  0  0  0  0  0
   -4.9595   19.1017  -35.2812 H   0  0  0  0  0  0  0  0  0  0  0  0
   -3.8630   19.2163  -33.8527 H   0  0  0  0  0  0  0  0  0  0  0  0
   -3.2565   17.2831  -32.7073 H   0  0  0  0  0  0  0  0  0  0  0  0
   -3.5776   14.8523  -32.2328 H   0  0  0  0  0  0  0  0  0  0  0  0
   -5.5382   13.6361  -33.1872 H   0  0  0  0  0  0  0  0  0  0  0  0
   -7.1778   14.8453  -34.6300 H   0  0  0  0  0  0  0  0  0  0  0  0
   -6.8621   17.2737  -35.1196 H   0  0  0  0  0  0  0  0  0  0  0  0
   -9.7279   19.4223  -32.2671 H   0  0  0  0  0  0  0  0  0  0  0  0
  -10.5997   21.5457  -31.2259 H   0  0  0  0  0  0  0  0  0  0  0  0
   -9.1054   23.5513  -31.0301 H   0  0  0  0  0  0  0  0  0  0  0  0
   -6.7327   23.4167  -31.8747 H   0  0  0  0  0  0  0  0  0  0  0  0
  1  2  1  0
  2  3  1  0
  3  4  1  0
  4  5  1  0
  5  6  1  0
  6  7  1  0
  7  8  1  0
  8  9  1  0
  9 10  1  0
 10 11  2  0
 11 12  1  0
 12 13  1  0
 13 14  2  0
 14 15  1  0
 15 16  2  0
 16 17  1  0
 17 18  2  0
 11 19  1  0
 19 20  2  0
 20 21  1  0
 21 22  2  0
 22 23  1  0
 23 24  2  0
 24 25  1  0
 25 10  1  0
 18 13  1  0
 25 20  1  0
  1 26  1  0
  1 27  1  0
  1 28  1  0
  2 29  1  0
  2 30  1  0
  4 31  1  0
  4 32  1  0
  5 33  1  0
  5 34  1  0
  7 35  1  0
  7 36  1  0
  8 37  1  0
  8 38  1  0
  9 39  1  0
  9 40  1  0
 12 41  1  0
 12 42  1  0
 14 43  1  0
 15 44  1  0
 16 45  1  0
 17 46  1  0
 18 47  1  0
 21 48  1  0
 22 49  1  0
 23 50  1  0
 24 51  1  0
M  CHG  1   9   1
M  END
>  <UniqueID>  (13) 
13

>  <SMILES>  (13) 
CCOCCOCC[NH2+]c1c(Cc2ccccc2)nc2ccccn12

>  <Energy>  (13) 
85.76579787542104

>  <Genealogy>  (13) 
CCOCCOCC[NH2+]c1c(Cc2ccccc2)nc2ccccn12 (protonated)
CCOCCOCC[NH2+]c1c(Cc2ccccc2)nc2ccccn12 (3D coordinates assigned)
CCOCCOCC[NH2+]c1c(Cc2ccccc2)nc2ccccn12 (optimized conformer: 85.76579787542104 kcal/mol)

>  <smiles>  (13) 
CCOCCOCCNc1c(Cc2ccccc2)nc2ccccn12

>  <score_type>  (13) 
oracle

>  <origin>  (13) 
adg

>  <m_score__min__energy>  (13) 
-7.6299999999999999

>  <m_primary>  (13) 
energy

$$$$
13:0
     RDKit          3D

 48 51  0  0  0  0  0  0  0  0999 V2000
   -6.1390   25.3760  -29.6170 C   0  0  0  0  0  0  0  0  0  0  0  0
   -5.2350   25.4930  -30.8380 C   0  0  0  0  0  0  0  0  0  0  0  0
   -3.8830   25.3030  -30.4660 O   0  0  0  0  0  0  0  0  0  0  0  0
   -3.7460   24.1440  -29.6690 C   0  0  0  0  0  0  0  0  0  0  0  0
   -3.9060   22.9040  -30.5450 C   0  0  0  0  0  0  0  0  0  0  0  0
   -2.9240   22.8890  -31.5650 O   0  0  0  0  0  0  0  0  0  0  0  0
   -2.8800   21.6260  -32.1970 C   0  0  0  0  0  0  0  0  0  0  0  0
   -3.8890   21.5990  -33.3480 C   0  0  0  0  0  0  0  0  0  0  0  0
   -4.5980   20.3080  -33.3970 N   0  0  0  0  0  0  0  0  0  0  0  0
   -5.9100   20.1800  -32.9960 C   0  0  0  0  0  0  0  0  0  0  0  0
   -6.5410   18.9380  -32.9670 C   0  0  0  0  0  0  0  0  0  0  0  0
   -5.8840   17.7810  -33.4030 C   0  0  0  0  0  0  0  0  0  0  0  0
   -6.4950   16.5130  -33.4040 C   0  0  0  0  0  0  0  0  0  0  0  0
   -5.7960   15.3940  -33.8630 C   0  0  0  0  0  0  0  0  0  0  0  0
   -4.4880   15.5250  -34.3250 C   0  0  0  0  0  0  0  0  0  0  0  0
   -3.8670   16.7750  -34.3300 C   0  0  0  0  0  0  0  0  0  0  0  0
   -4.5530   17.9170  -33.8690 C   0  0  0  0  0  0  0  0  0  0  0  0
   -3.9300   19.1910  -33.8580 C   0  0  0  0  0  0  0  0  0  0  0  0
   -2.7420   19.2940  -34.2770 O   0  0  0  0  0  0  0  0  0  0  0  0
   -7.8920   19.1210  -32.4350 C   0  0  0  0  0  0  0  0  0  0  0  0
   -8.7660   18.2350  -32.2430 O   0  0  0  0  0  0  0  0  0  0  0  0
   -8.0540   20.5350  -32.1640 C   0  0  0  0  0  0  0  0  0  0  0  0
   -9.1810   21.2020  -31.6870 C   0  0  0  0  0  0  0  0  0  0  0  0
   -9.1250   22.5940  -31.5580 C   0  0  0  0  0  0  0  0  0  0  0  0
   -7.9620   23.2920  -31.9220 C   0  0  0  0  0  0  0  0  0  0  0  0
   -6.8370   22.6040  -32.4090 C   0  0  0  0  0  0  0  0  0  0  0  0
   -6.8840   21.2010  -32.5060 C   0  0  0  0  0  0  0  0  0  0  0  0
   -5.5324   25.4545  -28.7028 H   0  0  0  0  0  0  0  0  0  0  0  0
   -6.8839   26.1852  -29.6334 H   0  0  0  0  0  0  0  0  0  0  0  0
   -6.6533   24.4038  -29.6334 H   0  0  0  0  0  0  0  0  0  0  0  0
   -5.5198   24.7280  -31.5754 H   0  0  0  0  0  0  0  0  0  0  0  0
   -5.3493   26.4964  -31.2740 H   0  0  0  0  0  0  0  0  0  0  0  0
   -2.7508   24.1364  -29.2005 H   0  0  0  0  0  0  0  0  0  0  0  0
   -4.5189   24.1430  -28.8863 H   0  0  0  0  0  0  0  0  0  0  0  0
   -3.7954   22.0039  -29.9224 H   0  0  0  0  0  0  0  0  0  0  0  0
   -4.9027   22.9224  -31.0101 H   0  0  0  0  0  0  0  0  0  0  0  0
   -1.8686   21.4477  -32.5911 H   0  0  0  0  0  0  0  0  0  0  0  0
   -3.1319   20.8412  -31.4685 H   0  0  0  0  0  0  0  0  0  0  0  0
   -4.6216   22.4067  -33.2035 H   0  0  0  0  0  0  0  0  0  0  0  0
   -3.3456   21.7372  -34.2944 H   0  0  0  0  0  0  0  0  0  0  0  0
   -7.5277   16.4027  -33.0417 H   0  0  0  0  0  0  0  0  0  0  0  0
   -6.2798   14.4061  -33.8597 H   0  0  0  0  0  0  0  0  0  0  0  0
   -3.9431   14.6406  -34.6869 H   0  0  0  0  0  0  0  0  0  0  0  0
   -2.8342   16.8698  -34.6965 H   0  0  0  0  0  0  0  0  0  0  0  0
  -10.0923   20.6475  -31.4185 H   0  0  0  0  0  0  0  0  0  0  0  0
   -9.9952   23.1438  -31.1700 H   0  0  0  0  0  0  0  0  0  0  0  0
   -7.9311   24.3873  -31.8251 H   0  0  0  0  0  0  0  0  0  0  0  0
   -5.9333   23.1543  -32.7098 H   0  0  0  0  0  0  0  0  0  0  0  0
  1  2  1  0
  2  3  1  0
  3  4  1  0
  4  5  1  0
  5  6  1  0
  6  7  1  0
  7  8  1  0
  8  9  1  0
  9 10  1  0
 10 11  2  0
 11 12  1  0
 12 13  2  0
 13 14  1  0
 14 15  2  0
 15 16  1  0
 16 17  2  0
 17 18  1  0
 18 19  2  0
 11 20  1  0
 20 21  2  0
 20 22  1  0
 22 23  2  0
 23 24  1  0
 24 25  2  0
 25 26  1  0
 26 27  2  0
 18  9  1  0
 27 22  1  0
 27 10  1  0
 17 12  1  0
  1 28  1  0
  1 29  1  0
  1 30  1  0
  2 31  1  0
  2 32  1  0
  4 33  1  0
  4 34  1  0
  5 35  1  0
  5 36  1  0
  7 37  1  0
  7 38  1  0
  8 39  1  0
  8 40  1  0
 13 41  1  0
 14 42  1  0
 15 43  1  0
 16 44  1  0
 23 45  1  0
 24 46  1  0
 25 47  1  0
 26 48  1  0
M  END
>  <UniqueID>  (14) 
14

>  <SMILES>  (14) 
CCOCCOCCn1c2c(c3ccccc3c1=O)C(=O)c1ccccc1-2

>  <Energy>  (14) 
98.12831603416579

>  <Genealogy>  (14) 
CCOCCOCCn1c2c(c3ccccc3c1=O)C(=O)c1ccccc1-2 (3D coordinates assigned)
CCOCCOCCn1c2c(c3ccccc3c1=O)C(=O)c1ccccc1-2 (nonaromatic ring conformer: 98.12831603416579 kcal/mol)

>  <smiles>  (14) 
CCOCCOCCn1c2c(c3ccccc3c1=O)C(=O)c1ccccc1-2

>  <score_type>  (14) 
oracle

>  <origin>  (14) 
adg

>  <m_score__min__energy>  (14) 
-10.199999999999999

>  <m_primary>  (14) 
energy

$$$$
14:0
     RDKit          3D

 46 48  0  0  0  0  0  0  0  0999 V2000
   -1.5400   25.5670  -27.8670 C   0  0  0  0  0  0  0  0  0  0  0  0
   -2.0370   25.2840  -29.1710 O   0  0  0  0  0  0  0  0  0  0  0  0
   -2.2950   24.0000  -29.6720 C   0  0  0  0  0  0  0  0  0  0  0  0
   -1.4140   22.9290  -29.4090 C   0  0  0  0  0  0  0  0  0  0  0  0
   -1.6940   21.6370  -29.8740 C   0  0  0  0  0  0  0  0  0  0  0  0
   -0.7220   20.5190  -29.6340 C   0  0  0  0  0  0  0  0  0  0  0  0
   -2.8520   21.4110  -30.6230 C   0  0  0  0  0  0  0  0  0  0  0  0
   -3.7300   22.4610  -30.8930 C   0  0  0  0  0  0  0  0  0  0  0  0
   -3.4580   23.7610  -30.4500 C   0  0  0  0  0  0  0  0  0  0  0  0
   -4.3770   24.7580  -30.8300 O   0  0  0  0  0  0  0  0  0  0  0  0
   -5.4500   25.2940  -30.0560 C   0  0  0  0  0  0  0  0  0  0  0  0
   -6.8130   24.7120  -30.4690 C   0  0  0  0  0  0  0  0  0  0  0  0
   -6.7010   23.4980  -31.4050 C   0  0  0  0  0  0  0  0  0  0  0  0
   -8.0550   22.2870  -31.1870 S   0  0  0  0  0  0  0  0  0  0  0  0
   -7.2190   20.9390  -32.0330 C   0  0  0  0  0  0  0  0  0  0  0  0
   -5.9630   21.0690  -32.5330 N   0  0  0  0  0  0  0  0  0  0  0  0
   -5.7340   19.8680  -33.0900 C   0  0  0  0  0  0  0  0  0  0  0  0
   -4.5950   19.4570  -33.7780 C   0  0  0  0  0  0  0  0  0  0  0  0
   -4.5860   18.1530  -34.3080 C   0  0  0  0  0  0  0  0  0  0  0  0
   -5.7060   17.3050  -34.1430 C   0  0  0  0  0  0  0  0  0  0  0  0
   -6.8430   17.7530  -33.4450 C   0  0  0  0  0  0  0  0  0  0  0  0
   -6.8150   19.0490  -32.9260 C   0  0  0  0  0  0  0  0  0  0  0  0
   -7.7600   19.7100  -32.2380 N   0  0  0  0  0  0  0  0  0  0  0  0
   -9.1070   19.2520  -31.9080 C   0  0  0  0  0  0  0  0  0  0  0  0
   -2.2374   25.1699  -27.1147 H   0  0  0  0  0  0  0  0  0  0  0  0
   -0.5549   25.0944  -27.7395 H   0  0  0  0  0  0  0  0  0  0  0  0
   -1.4438   26.6553  -27.7395 H   0  0  0  0  0  0  0  0  0  0  0  0
   -0.4956   23.1109  -28.8315 H   0  0  0  0  0  0  0  0  0  0  0  0
   -0.5933   20.3710  -28.5516 H   0  0  0  0  0  0  0  0  0  0  0  0
   -1.1079   19.5940  -30.0872 H   0  0  0  0  0  0  0  0  0  0  0  0
    0.2477   20.7726  -30.0872 H   0  0  0  0  0  0  0  0  0  0  0  0
   -3.0720   20.4017  -31.0010 H   0  0  0  0  0  0  0  0  0  0  0  0
   -4.6502   22.2645  -31.4627 H   0  0  0  0  0  0  0  0  0  0  0  0
   -5.2723   25.0615  -28.9956 H   0  0  0  0  0  0  0  0  0  0  0  0
   -5.4807   26.3800  -30.2285 H   0  0  0  0  0  0  0  0  0  0  0  0
   -7.3498   24.4029  -29.5600 H   0  0  0  0  0  0  0  0  0  0  0  0
   -7.3479   25.4989  -31.0210 H   0  0  0  0  0  0  0  0  0  0  0  0
   -6.7175   23.8564  -32.4448 H   0  0  0  0  0  0  0  0  0  0  0  0
   -5.7609   22.9828  -31.1584 H   0  0  0  0  0  0  0  0  0  0  0  0
   -3.7324   20.1281  -33.9029 H   0  0  0  0  0  0  0  0  0  0  0  0
   -3.7023   17.7911  -34.8540 H   0  0  0  0  0  0  0  0  0  0  0  0
   -5.6882   16.2885  -34.5631 H   0  0  0  0  0  0  0  0  0  0  0  0
   -7.7223   17.1054  -33.3130 H   0  0  0  0  0  0  0  0  0  0  0  0
   -9.2233   19.2125  -30.8149 H   0  0  0  0  0  0  0  0  0  0  0  0
   -9.8452   19.9496  -32.3303 H   0  0  0  0  0  0  0  0  0  0  0  0
   -9.2670   18.2490  -32.3303 H   0  0  0  0  0  0  0  0  0  0  0  0
  1  2  1  0
  2  3  1  0
  3  4  2  0
  4  5  1  0
  5  6  1  0
  5  7  2  0
  7  8  1  0
  8  9  2  0
  9 10  1  0
 10 11  1  0
 11 12  1  0
 12 13  1  0
 13 14  1  0
 14 15  1  0
 15 16  2  0
 16 17  1  0
 17 18  2  0
 18 19  1  0
 19 20  2  0
 20 21  1  0
 21 22  2  0
 22 23  1  0
 23 24  1  0
  9  3  1  0
 23 15  1  0
 22 17  1  0
  1 25  1  0
  1 26  1  0
  1 27  1  0
  4 28  1  0
  6 29  1  0
  6 30  1  0
  6 31  1  0
  7 32  1  0
  8 33  1  0
 11 34  1  0
 11 35  1  0
 12 36  1  0
 12 37  1  0
 13 38  1  0
 13 39  1  0
 18 40  1  0
 19 41  1  0
 20 42  1  0
 21 43  1  0
 24 44  1  0
 24 45  1  0
 24 46  1  0
M  END
>  <UniqueID>  (15) 
15

>  <SMILES>  (15) 
COc1cc(C)ccc1OCCCSc1nc2ccccc2n1C

>  <Energy>  (15) 
78.03856205109486

>  <Genealogy>  (15) 
COc1cc(C)ccc1OCCCSc1nc2ccccc2n1C (3D coordinates assigned)
COc1cc(C)ccc1OCCCSc1nc2ccccc2n1C (optimized conformer: 78.03856205109486 kcal/mol)

>  <smiles>  (15) 
COc1cc(C)ccc1OCCCSc1nc2ccccc2n1C

>  <score_type>  (15) 
oracle

>  <origin>  (15) 
adg

>  <m_score__min__energy>  (15) 
-9.5899999999999999

>  <m_primary>  (15) 
energy

$$$$
15:0
     RDKit          3D

 76 80  0  0  0  0  0  0  0  0999 V2000
   -3.7000   23.7420  -28.1190 C   0  0  0  0  0  0  0  0  0  0  0  0
   -3.0770   24.5360  -29.2660 C   0  0  0  0  0  0  0  0  0  0  0  0
   -3.8780   24.4410  -30.5140 N   0  0  0  0  0  0  0  0  0  0  0  0
   -4.9810   25.4340  -30.4880 C   0  0  0  0  0  0  0  0  0  0  0  0
   -6.2400   24.8780  -29.8150 C   0  0  0  0  0  0  0  0  0  0  0  0
   -4.4200   23.0660  -30.7050 C   0  0  0  0  0  0  0  0  0  0  0  0
   -3.7050   22.3280  -31.8740 C   0  0  0  0  0  0  0  0  0  0  0  0
   -4.5530   21.8980  -33.0200 N   0  0  0  0  0  0  0  0  0  0  0  0
   -5.5950   20.9320  -32.7090 C   0  0  0  0  0  0  0  0  0  0  0  0
   -6.8970   21.4140  -32.3910 C   0  0  0  0  0  0  0  0  0  0  0  0
   -7.1910   22.7970  -32.2800 C   0  0  0  0  0  0  0  0  0  0  0  0
   -8.4800   23.2350  -31.9850 C   0  0  0  0  0  0  0  0  0  0  0  0
   -9.4830   22.3000  -31.7860 C   0  0  0  0  0  0  0  0  0  0  0  0
   -9.1980   20.9800  -31.8760 N   0  0  0  0  0  0  0  0  0  0  0  0
   -7.9500   20.5010  -32.1630 C   0  0  0  0  0  0  0  0  0  0  0  0
   -7.7400   19.1510  -32.2380 N   0  0  0  0  0  0  0  0  0  0  0  0
   -8.8540   18.2340  -31.9000 C   0  0  0  0  0  0  0  0  0  0  0  0
   -6.5170   18.6480  -32.6390 C   0  0  0  0  0  0  0  0  0  0  0  0
   -6.3790   17.2650  -32.9140 C   0  0  0  0  0  0  0  0  0  0  0  0
   -5.1590   16.7130  -33.2560 C   0  0  0  0  0  0  0  0  0  0  0  0
   -4.0330   17.5070  -33.3100 C   0  0  0  0  0  0  0  0  0  0  0  0
   -4.1030   18.8870  -33.0830 C   0  0  0  0  0  0  0  0  0  0  0  0
   -2.8480   19.5860  -33.0350 N   0  0  0  0  0  0  0  0  0  0  0  0
   -2.0350   19.8080  -34.2350 C   0  0  0  0  0  0  0  0  0  0  0  0
   -0.5410   19.9660  -33.9060 C   0  0  0  0  0  0  0  0  0  0  0  0
   -0.2330   20.9830  -32.7880 C   0  0  0  0  0  0  0  0  0  0  0  0
   -0.3190   20.3810  -31.4500 N   0  0  0  0  0  0  0  0  0  0  0  0
    0.4700   19.3090  -31.1410 C   0  0  0  0  0  0  0  0  0  0  0  0
    0.3870   18.6980  -29.8870 C   0  0  0  0  0  0  0  0  0  0  0  0
   -0.5130   19.1920  -28.9380 C   0  0  0  0  0  0  0  0  0  0  0  0
   -0.6200   18.6040  -27.6670 C   0  0  0  0  0  0  0  0  0  0  0  0
   -1.5200   19.1170  -26.7310 C   0  0  0  0  0  0  0  0  0  0  0  0
   -2.3210   20.2170  -27.0540 C   0  0  0  0  0  0  0  0  0  0  0  0
   -2.2250   20.8070  -28.3180 C   0  0  0  0  0  0  0  0  0  0  0  0
   -1.3220   20.3000  -29.2640 C   0  0  0  0  0  0  0  0  0  0  0  0
   -1.2050   20.8800  -30.5340 C   0  0  0  0  0  0  0  0  0  0  0  0
   -5.3790   19.5100  -32.8020 C   0  0  0  0  0  0  0  0  0  0  0  0
   -3.3689   24.1640  -27.1586 H   0  0  0  0  0  0  0  0  0  0  0  0
   -4.7964   23.7996  -28.1863 H   0  0  0  0  0  0  0  0  0  0  0  0
   -3.3832   22.6907  -28.1863 H   0  0  0  0  0  0  0  0  0  0  0  0
   -3.0080   25.5929  -28.9689 H   0  0  0  0  0  0  0  0  0  0  0  0
   -2.0827   24.1118  -29.4696 H   0  0  0  0  0  0  0  0  0  0  0  0
   -4.6453   26.3228  -29.9336 H   0  0  0  0  0  0  0  0  0  0  0  0
   -5.2354   25.6856  -31.5282 H   0  0  0  0  0  0  0  0  0  0  0  0
   -6.1246   24.9290  -28.7223 H   0  0  0  0  0  0  0  0  0  0  0  0
   -7.1125   25.4745  -30.1198 H   0  0  0  0  0  0  0  0  0  0  0  0
   -6.3869   23.8313  -30.1198 H   0  0  0  0  0  0  0  0  0  0  0  0
   -4.2741   22.4924  -29.7778 H   0  0  0  0  0  0  0  0  0  0  0  0
   -5.4890   23.1476  -30.9511 H   0  0  0  0  0  0  0  0  0  0  0  0
   -2.9309   23.0026  -32.2685 H   0  0  0  0  0  0  0  0  0  0  0  0
   -3.3250   21.3946  -31.4332 H   0  0  0  0  0  0  0  0  0  0  0  0
   -3.9730   21.6040  -33.8300 H   0  0  0  0  0  0  0  0  0  0  0  0
   -4.9940   22.7470  -33.4400 H   0  0  0  0  0  0  0  0  0  0  0  0
   -6.3890   23.5349  -32.4291 H   0  0  0  0  0  0  0  0  0  0  0  0
   -8.6990   24.3104  -31.9109 H   0  0  0  0  0  0  0  0  0  0  0  0
  -10.5070   22.6293  -31.5557 H   0  0  0  0  0  0  0  0  0  0  0  0
   -8.9470   18.1574  -30.8066 H   0  0  0  0  0  0  0  0  0  0  0  0
   -9.7917   18.6254  -32.3212 H   0  0  0  0  0  0  0  0  0  0  0  0
   -8.6501   17.2385  -32.3212 H   0  0  0  0  0  0  0  0  0  0  0  0
   -7.2643   16.6149  -32.8539 H   0  0  0  0  0  0  0  0  0  0  0  0
   -5.0862   15.6396  -33.4853 H   0  0  0  0  0  0  0  0  0  0  0  0
   -3.0597   17.0469  -33.5360 H   0  0  0  0  0  0  0  0  0  0  0  0
   -2.5010   19.9340  -32.1230 H   0  0  0  0  0  0  0  0  0  0  0  0
   -2.1596   18.9490  -34.9108 H   0  0  0  0  0  0  0  0  0  0  0  0
   -2.3769   20.7417  -34.7054 H   0  0  0  0  0  0  0  0  0  0  0  0
   -0.1530   18.9852  -33.5938 H   0  0  0  0  0  0  0  0  0  0  0  0
   -0.0603   20.3504  -34.8177 H   0  0  0  0  0  0  0  0  0  0  0  0
    0.7844   21.3742  -32.9356 H   0  0  0  0  0  0  0  0  0  0  0  0
   -0.9831   21.7855  -32.8458 H   0  0  0  0  0  0  0  0  0  0  0  0
    1.1788   18.9225  -31.8881 H   0  0  0  0  0  0  0  0  0  0  0  0
    1.0252   17.8345  -29.6482 H   0  0  0  0  0  0  0  0  0  0  0  0
    0.0065   17.7376  -27.4085 H   0  0  0  0  0  0  0  0  0  0  0  0
   -1.5993   18.6544  -25.7361 H   0  0  0  0  0  0  0  0  0  0  0  0
   -3.0275   20.6186  -26.3126 H   0  0  0  0  0  0  0  0  0  0  0  0
   -2.8585   21.6700  -28.5709 H   0  0  0  0  0  0  0  0  0  0  0  0
   -1.8314   21.7450  -30.7975 H   0  0  0  0  0  0  0  0  0  0  0  0
  1  2  1  0
  2  3  1  0
  3  4  1  0
  4  5  1  0
  3  6  1  0
  6  7  1  0
  7  8  1  0
  8  9  1  0
  9 10  2  0
 10 11  1  0
 11 12  2  0
 12 13  1  0
 13 14  2  0
 14 15  1  0
 15 16  2  0
 16 17  1  0
 16 18  1  0
 18 19  2  0
 19 20  1  0
 20 21  2  0
 21 22  1  0
 22 23  1  0
 23 24  1  0
 24 25  1  0
 25 26  1  0
 26 27  1  0
 27 28  2  0
 28 29  1  0
 29 30  2  0
 30 31  1  0
 31 32  2  0
 32 33  1  0
 33 34  2  0
 34 35  1  0
 35 36  2  0
 22 37  2  0
 37  9  1  0
 15 10  1  0
 37 18  1  0
 36 27  1  0
 35 30  1  0
  1 38  1  0
  1 39  1  0
  1 40  1  0
  2 41  1  0
  2 42  1  0
  4 43  1  0
  4 44  1  0
  5 45  1  0
  5 46  1  0
  5 47  1  0
  6 48  1  0
  6 49  1  0
  7 50  1  0
  7 51  1  0
  8 52  1  0
  8 53  1  0
 11 54  1  0
 12 55  1  0
 13 56  1  0
 17 57  1  0
 17 58  1  0
 17 59  1  0
 19 60  1  0
 20 61  1  0
 21 62  1  0
 23 63  1  0
 24 64  1  0
 24 65  1  0
 25 66  1  0
 25 67  1  0
 26 68  1  0
 26 69  1  0
 28 70  1  0
 29 71  1  0
 31 72  1  0
 32 73  1  0
 33 74  1  0
 34 75  1  0
 36 76  1  0
M  CHG  3   8   1  16   1  27   1
M  END
>  <UniqueID>  (16) 
16

>  <SMILES>  (16) 
CCN(CC)CC[NH2+]c1c2cccnc2[n+](C)c2cccc(NCCC[n+]3ccc4ccccc4c3)c12

>  <Energy>  (16) 
122.77400292691237

>  <Genealogy>  (16) 
CCN(CC)CC[NH2+]c1c2cccnc2[n+](C)c2cccc(NCCC[n+]3ccc4ccccc4c3)c12 (protonated)
CCN(CC)CC[NH2+]c1c2cccnc2[n+](C)c2cccc(NCCC[n+]3ccc4ccccc4c3)c12 (3D coordinates assigned)
CCN(CC)CC[NH2+]c1c2cccnc2[n+](C)c2cccc(NCCC[n+]3ccc4ccccc4c3)c12 (optimized conformer: 122.77400292691237 kcal/mol)

>  <smiles>  (16) 
CCN(CC)CCNc1c2cccnc2[n+](C)c2cccc(NCCC[n+]3ccc4ccccc4c3)c12

>  <score_type>  (16) 
oracle

>  <origin>  (16) 
adg

>  <m_score__min__energy>  (16) 
-9.8100000000000005

>  <m_primary>  (16) 
energy

$$$$
16:0
     RDKit          3D

 37 39  0  0  0  0  0  0  0  0999 V2000
   -9.1640   20.2300  -31.9560 C   0  0  0  0  0  0  0  0  0  0  0  0
   -7.8400   20.9290  -31.8630 C   0  0  0  0  0  0  0  0  0  0  0  0
   -6.6870   20.3320  -32.3910 C   0  0  0  0  0  0  0  0  0  0  0  0
   -5.4600   20.9960  -32.3340 C   0  0  0  0  0  0  0  0  0  0  0  0
   -5.3680   22.2670  -31.7490 C   0  0  0  0  0  0  0  0  0  0  0  0
   -6.5300   22.8930  -31.2550 C   0  0  0  0  0  0  0  0  0  0  0  0
   -7.7570   22.2150  -31.3080 C   0  0  0  0  0  0  0  0  0  0  0  0
   -6.4690   24.2460  -30.5930 C   0  0  0  0  0  0  0  0  0  0  0  0
   -5.1240   24.9590  -30.8110 C   0  0  0  0  0  0  0  0  0  0  0  0
   -3.9650   24.0440  -30.7210 N   0  0  0  0  0  0  0  0  0  0  0  0
   -3.7610   23.4770  -29.3700 C   0  0  0  0  0  0  0  0  0  0  0  0
   -2.4020   23.8410  -28.8400 C   0  0  0  0  0  0  0  0  0  0  0  0
   -1.7210   24.9390  -29.2110 N   0  0  0  0  0  0  0  0  0  0  0  0
   -0.5660   24.9460  -28.5650 N   0  0  0  0  0  0  0  0  0  0  0  0
   -0.5530   23.8360  -27.7990 C   0  0  0  0  0  0  0  0  0  0  0  0
   -1.6840   23.1200  -27.9560 N   0  0  0  0  0  0  0  0  0  0  0  0
   -2.0420   21.8750  -27.2850 C   0  0  0  0  0  0  0  0  0  0  0  0
   -4.0450   22.9950  -31.7580 C   0  0  0  0  0  0  0  0  0  0  0  0
   -9.5445   20.0291  -30.9436 H   0  0  0  0  0  0  0  0  0  0  0  0
   -9.8785   20.8684  -32.4963 H   0  0  0  0  0  0  0  0  0  0  0  0
   -9.0399   19.2799  -32.4963 H   0  0  0  0  0  0  0  0  0  0  0  0
   -6.7491   19.3355  -32.8526 H   0  0  0  0  0  0  0  0  0  0  0  0
   -4.5604   20.5193  -32.7504 H   0  0  0  0  0  0  0  0  0  0  0  0
   -8.6628   22.6962  -30.9106 H   0  0  0  0  0  0  0  0  0  0  0  0
   -7.2709   24.8754  -31.0063 H   0  0  0  0  0  0  0  0  0  0  0  0
   -6.5880   24.0895  -29.5107 H   0  0  0  0  0  0  0  0  0  0  0  0
   -5.1296   25.4209  -31.8093 H   0  0  0  0  0  0  0  0  0  0  0  0
   -5.0151   25.7084  -30.0132 H   0  0  0  0  0  0  0  0  0  0  0  0
   -4.5310   23.8737  -28.6920 H   0  0  0  0  0  0  0  0  0  0  0  0
   -3.8344   22.3812  -29.4318 H   0  0  0  0  0  0  0  0  0  0  0  0
   -2.0290   25.6730  -29.8880 H   0  0  0  0  0  0  0  0  0  0  0  0
    0.2742   23.5517  -27.1320 H   0  0  0  0  0  0  0  0  0  0  0  0
   -2.0002   22.0205  -26.1955 H   0  0  0  0  0  0  0  0  0  0  0  0
   -3.0611   21.5811  -27.5768 H   0  0  0  0  0  0  0  0  0  0  0  0
   -1.3347   21.0847  -27.5768 H   0  0  0  0  0  0  0  0  0  0  0  0
   -3.9076   23.4633  -32.7438 H   0  0  0  0  0  0  0  0  0  0  0  0
   -3.2578   22.2567  -31.5454 H   0  0  0  0  0  0  0  0  0  0  0  0
  1  2  1  0
  2  3  2  0
  3  4  1  0
  4  5  2  0
  5  6  1  0
  6  7  2  0
  6  8  1  0
  8  9  1  0
  9 10  1  0
 10 11  1  0
 11 12  1  0
 12 13  2  0
 13 14  1  0
 14 15  2  0
 15 16  1  0
 16 17  1  0
 10 18  1  0
  7  2  1  0
 16 12  1  0
 18  5  1  0
  1 19  1  0
  1 20  1  0
  1 21  1  0
  3 22  1  0
  4 23  1  0
  7 24  1  0
  8 25  1  0
  8 26  1  0
  9 27  1  0
  9 28  1  0
 11 29  1  0
 11 30  1  0
 13 31  1  0
 15 32  1  0
 17 33  1  0
 17 34  1  0
 17 35  1  0
 18 36  1  0
 18 37  1  0
M  CHG  1  13   1
M  END
>  <UniqueID>  (17) 
17

>  <SMILES>  (17) 
Cc1ccc2c(c1)CCN(Cc1[nH+]ncn1C)C2

>  <Energy>  (17) 
77.27599993157408

>  <Genealogy>  (17) 
Cc1ccc2c(c1)CCN(Cc1[nH+]ncn1C)C2 (protonated)
Cc1ccc2c(c1)CCN(Cc1[nH+]ncn1C)C2 (3D coordinates assigned)
Cc1ccc2c(c1)CCN(Cc1[nH+]ncn1C)C2 (nonaromatic ring conformer: 77.27599993157408 kcal/mol)

>  <smiles>  (17) 
Cc1ccc2c(c1)CCN(Cc1nncn1C)C2

>  <score_type>  (17) 
oracle

>  <origin>  (17) 
adg

>  <m_score__min__energy>  (17) 
-6.9000000000000004

>  <m_primary>  (17) 
energy

$$$$
17:0
     RDKit          3D

 67 69  0  0  0  0  0  0  0  0999 V2000
   -6.3210   25.3690  -29.6240 C   0  0  0  0  0  0  0  0  0  0  0  0
   -5.3740   25.7870  -30.7440 C   0  0  0  0  0  0  0  0  0  0  0  0
   -4.0200   25.2910  -30.4710 N   0  0  0  0  0  0  0  0  0  0  0  0
   -4.0480   24.0690  -29.6510 C   0  0  0  0  0  0  0  0  0  0  0  0
   -2.9750   24.1140  -28.5570 C   0  0  0  0  0  0  0  0  0  0  0  0
   -2.2020   25.2970  -28.6560 O   0  0  0  0  0  0  0  0  0  0  0  0
   -1.3270   25.4410  -27.5510 C   0  0  0  0  0  0  0  0  0  0  0  0
   -0.0200   24.6670  -27.7690 C   0  0  0  0  0  0  0  0  0  0  0  0
   -0.0500   23.2930  -27.0880 C   0  0  0  0  0  0  0  0  0  0  0  0
   -0.2330   22.2010  -28.1110 C   0  0  0  0  0  0  0  0  0  0  0  0
   -0.4070   20.8710  -27.7060 C   0  0  0  0  0  0  0  0  0  0  0  0
   -0.6050   19.8650  -28.6570 C   0  0  0  0  0  0  0  0  0  0  0  0
   -0.6450   20.1720  -30.0220 C   0  0  0  0  0  0  0  0  0  0  0  0
   -0.8560   19.1220  -30.9310 O   0  0  0  0  0  0  0  0  0  0  0  0
   -1.1140   19.2740  -32.3270 C   0  0  0  0  0  0  0  0  0  0  0  0
   -2.6080   19.5050  -32.5810 C   0  0  0  0  0  0  0  0  0  0  0  0
   -2.9290   20.9490  -33.0020 C   0  0  0  0  0  0  0  0  0  0  0  0
   -3.8430   21.6890  -32.0120 C   0  0  0  0  0  0  0  0  0  0  0  0
   -4.9740   22.3130  -32.7030 N   0  0  0  0  0  0  0  0  0  0  0  0
   -6.3450   22.0570  -32.3440 C   0  0  0  0  0  0  0  0  0  0  0  0
   -7.1850   23.1250  -31.9790 C   0  0  0  0  0  0  0  0  0  0  0  0
   -8.5080   22.8980  -31.6010 C   0  0  0  0  0  0  0  0  0  0  0  0
   -9.0190   21.6020  -31.5760 C   0  0  0  0  0  0  0  0  0  0  0  0
   -8.2100   20.5160  -31.9320 C   0  0  0  0  0  0  0  0  0  0  0  0
   -8.7360   19.2140  -31.9130 C   0  0  0  0  0  0  0  0  0  0  0  0
   -7.9400   18.1290  -32.2830 C   0  0  0  0  0  0  0  0  0  0  0  0
   -6.6180   18.3330  -32.6770 C   0  0  0  0  0  0  0  0  0  0  0  0
   -6.0780   19.6210  -32.6980 C   0  0  0  0  0  0  0  0  0  0  0  0
   -6.8600   20.7330  -32.3200 C   0  0  0  0  0  0  0  0  0  0  0  0
   -0.4850   21.5110  -30.4280 C   0  0  0  0  0  0  0  0  0  0  0  0
   -0.2820   22.5160  -29.4770 C   0  0  0  0  0  0  0  0  0  0  0  0
   -5.8519   25.5761  -28.6508 H   0  0  0  0  0  0  0  0  0  0  0  0
   -7.2597   25.9364  -29.7067 H   0  0  0  0  0  0  0  0  0  0  0  0
   -6.5344   24.2931  -29.7067 H   0  0  0  0  0  0  0  0  0  0  0  0
   -5.7298   25.3678  -31.6967 H   0  0  0  0  0  0  0  0  0  0  0  0
   -5.3499   26.8851  -30.8040 H   0  0  0  0  0  0  0  0  0  0  0  0
   -3.5180   26.0280  -29.9190 H   0  0  0  0  0  0  0  0  0  0  0  0
   -5.0376   23.9750  -29.1800 H   0  0  0  0  0  0  0  0  0  0  0  0
   -3.8466   23.2061  -30.3028 H   0  0  0  0  0  0  0  0  0  0  0  0
   -3.4635   24.0843  -27.5719 H   0  0  0  0  0  0  0  0  0  0  0  0
   -2.3091   23.2474  -28.6817 H   0  0  0  0  0  0  0  0  0  0  0  0
   -1.0934   26.5074  -27.4157 H   0  0  0  0  0  0  0  0  0  0  0  0
   -1.8257   25.0351  -26.6585 H   0  0  0  0  0  0  0  0  0  0  0  0
    0.1339   24.5256  -28.8490 H   0  0  0  0  0  0  0  0  0  0  0  0
    0.8003   25.2502  -27.3251 H   0  0  0  0  0  0  0  0  0  0  0  0
    0.8980   23.1331  -26.5534 H   0  0  0  0  0  0  0  0  0  0  0  0
   -0.8929   23.2641  -26.3819 H   0  0  0  0  0  0  0  0  0  0  0  0
   -0.3878   20.6172  -26.6359 H   0  0  0  0  0  0  0  0  0  0  0  0
   -0.7305   18.8225  -28.3292 H   0  0  0  0  0  0  0  0  0  0  0  0
   -0.5458   20.1357  -32.7073 H   0  0  0  0  0  0  0  0  0  0  0  0
   -0.8057   18.3541  -32.8454 H   0  0  0  0  0  0  0  0  0  0  0  0
   -2.9369   18.8252  -33.3808 H   0  0  0  0  0  0  0  0  0  0  0  0
   -3.1364   19.3123  -31.6357 H   0  0  0  0  0  0  0  0  0  0  0  0
   -1.9838   21.5054  -33.0854 H   0  0  0  0  0  0  0  0  0  0  0  0
   -3.4675   20.8941  -33.9596 H   0  0  0  0  0  0  0  0  0  0  0  0
   -4.2261   20.9714  -31.2716 H   0  0  0  0  0  0  0  0  0  0  0  0
   -3.2568   22.4782  -31.5185 H   0  0  0  0  0  0  0  0  0  0  0  0
   -4.7790   22.8220  -33.5950 H   0  0  0  0  0  0  0  0  0  0  0  0
   -6.7930   24.1527  -31.9920 H   0  0  0  0  0  0  0  0  0  0  0  0
   -9.1509   23.7457  -31.3214 H   0  0  0  0  0  0  0  0  0  0  0  0
  -10.0632   21.4311  -31.2751 H   0  0  0  0  0  0  0  0  0  0  0  0
   -9.7791   19.0488  -31.6054 H   0  0  0  0  0  0  0  0  0  0  0  0
   -8.3562   17.1110  -32.2638 H   0  0  0  0  0  0  0  0  0  0  0  0
   -5.9969   17.4747  -32.9729 H   0  0  0  0  0  0  0  0  0  0  0  0
   -5.0343   19.7697  -33.0119 H   0  0  0  0  0  0  0  0  0  0  0  0
   -0.5198   21.7673  -31.4972 H   0  0  0  0  0  0  0  0  0  0  0  0
   -0.1600   23.5598  -29.8021 H   0  0  0  0  0  0  0  0  0  0  0  0
  1  2  1  0
  2  3  1  0
  3  4  1  0
  4  5  1  0
  5  6  1  0
  6  7  1  0
  7  8  1  0
  8  9  1  0
  9 10  1  0
 10 11  2  0
 11 12  1  0
 12 13  2  0
 13 14  1  0
 14 15  1  0
 15 16  1  0
 16 17  1  0
 17 18  1  0
 18 19  1  0
 19 20  1  0
 20 21  2  0
 21 22  1  0
 22 23  2  0
 23 24  1  0
 24 25  2  0
 25 26  1  0
 26 27  2  0
 27 28  1  0
 28 29  2  0
 13 30  1  0
 30 31  2  0
 31 10  1  0
 29 20  1  0
 29 24  1  0
  1 32  1  0
  1 33  1  0
  1 34  1  0
  2 35  1  0
  2 36  1  0
  3 37  1  0
  4 38  1  0
  4 39  1  0
  5 40  1  0
  5 41  1  0
  7 42  1  0
  7 43  1  0
  8 44  1  0
  8 45  1  0
  9 46  1  0
  9 47  1  0
 11 48  1  0
 12 49  1  0
 15 50  1  0
 15 51  1  0
 16 52  1  0
 16 53  1  0
 17 54  1  0
 17 55  1  0
 18 56  1  0
 18 57  1  0
 19 58  1  0
 21 59  1  0
 22 60  1  0
 23 61  1  0
 25 62  1  0
 26 63  1  0
 27 64  1  0
 28 65  1  0
 30 66  1  0
 31 67  1  0
M  END
>  <UniqueID>  (18) 
18

>  <SMILES>  (18) 
CCNCCOCCCc1ccc(OCCCCNc2cccc3ccccc23)cc1

>  <Energy>  (18) 
64.78720157770223

>  <Genealogy>  (18) 
CCNCCOCCCc1ccc(OCCCCNc2cccc3ccccc23)cc1 (3D coordinates assigned)
CCNCCOCCCc1ccc(OCCCCNc2cccc3ccccc23)cc1 (optimized conformer: 64.78720157770223 kcal/mol)

>  <smiles>  (18) 
CCNCCOCCCc1ccc(OCCCCNc2cccc3ccccc23)cc1

>  <score_type>  (18) 
oracle

>  <origin>  (18) 
adg

>  <m_score__min__energy>  (18) 
-9.6999999999999993

>  <m_primary>  (18) 
energy

$$$$
18:0
     RDKit          3D

 52 54  0  0  0  0  0  0  0  0999 V2000
   -3.8540   25.2840  -25.9780 C   0  0  0  0  0  0  0  0  0  0  0  0
   -2.6060   25.0170  -26.7750 C   0  0  0  0  0  0  0  0  0  0  0  0
   -1.3900   25.5750  -26.3470 C   0  0  0  0  0  0  0  0  0  0  0  0
   -0.2190   25.3830  -27.0870 C   0  0  0  0  0  0  0  0  0  0  0  0
    1.4220   26.1640  -26.5010 Br  0  0  0  0  0  0  0  0  0  0  0  0
   -0.2520   24.6270  -28.2610 C   0  0  0  0  0  0  0  0  0  0  0  0
   -1.4490   24.0480  -28.6870 C   0  0  0  0  0  0  0  0  0  0  0  0
   -2.6240   24.2100  -27.9400 C   0  0  0  0  0  0  0  0  0  0  0  0
   -3.8290   23.5870  -28.4050 N   0  0  0  0  0  0  0  0  0  0  0  0
   -4.3120   23.7520  -29.7460 C   0  0  0  0  0  0  0  0  0  0  0  0
   -3.7550   24.5760  -30.5220 O   0  0  0  0  0  0  0  0  0  0  0  0
   -5.4700   22.9250  -30.2420 C   0  0  0  0  0  0  0  0  0  0  0  0
   -5.4370   22.8060  -31.7880 C   0  0  0  0  0  0  0  0  0  0  0  0
   -6.8370   22.7620  -32.4240 C   0  0  0  0  0  0  0  0  0  0  0  0
   -7.7940   22.0850  -31.5370 N   0  0  0  0  0  0  0  0  0  0  0  0
   -8.6630   21.0440  -32.0200 C   0  0  0  0  0  0  0  0  0  0  0  0
   -9.8420   20.9700  -31.5770 O   0  0  0  0  0  0  0  0  0  0  0  0
   -8.1950   20.0580  -33.0630 C   0  0  0  0  0  0  0  0  0  0  0  0
   -7.4030   18.8780  -32.4720 C   0  0  0  0  0  0  0  0  0  0  0  0
   -6.0200   18.7540  -33.0620 C   0  0  0  0  0  0  0  0  0  0  0  0
   -5.7740   17.8400  -34.1010 C   0  0  0  0  0  0  0  0  0  0  0  0
   -4.4920   17.7240  -34.6500 C   0  0  0  0  0  0  0  0  0  0  0  0
   -3.4490   18.5200  -34.1680 C   0  0  0  0  0  0  0  0  0  0  0  0
   -3.6860   19.4350  -33.1390 C   0  0  0  0  0  0  0  0  0  0  0  0
   -4.9660   19.5550  -32.5880 C   0  0  0  0  0  0  0  0  0  0  0  0
   -7.9620   22.5680  -30.1570 C   0  0  0  0  0  0  0  0  0  0  0  0
   -6.8090   23.4910  -29.7360 C   0  0  0  0  0  0  0  0  0  0  0  0
   -3.6209   25.2341  -24.9041 H   0  0  0  0  0  0  0  0  0  0  0  0
   -4.2388   26.2848  -26.2236 H   0  0  0  0  0  0  0  0  0  0  0  0
   -4.6146   24.5283  -26.2236 H   0  0  0  0  0  0  0  0  0  0  0  0
   -1.3586   26.1684  -25.4213 H   0  0  0  0  0  0  0  0  0  0  0  0
    0.6661   24.4876  -28.8506 H   0  0  0  0  0  0  0  0  0  0  0  0
   -1.4701   23.4599  -29.6164 H   0  0  0  0  0  0  0  0  0  0  0  0
   -4.4520   23.1360  -27.6990 H   0  0  0  0  0  0  0  0  0  0  0  0
   -5.3730   21.9089  -29.8319 H   0  0  0  0  0  0  0  0  0  0  0  0
   -4.8962   23.6737  -32.1937 H   0  0  0  0  0  0  0  0  0  0  0  0
   -4.9381   21.8564  -32.0315 H   0  0  0  0  0  0  0  0  0  0  0  0
   -7.1816   23.7903  -32.6081 H   0  0  0  0  0  0  0  0  0  0  0  0
   -6.7767   22.2025  -33.3691 H   0  0  0  0  0  0  0  0  0  0  0  0
   -9.0761   19.6596  -33.5873 H   0  0  0  0  0  0  0  0  0  0  0  0
   -7.5183   20.5978  -33.7417 H   0  0  0  0  0  0  0  0  0  0  0  0
   -7.3108   19.0245  -31.3857 H   0  0  0  0  0  0  0  0  0  0  0  0
   -7.9515   17.9552  -32.7118 H   0  0  0  0  0  0  0  0  0  0  0  0
   -6.5927   17.2132  -34.4843 H   0  0  0  0  0  0  0  0  0  0  0  0
   -4.3049   17.0056  -35.4617 H   0  0  0  0  0  0  0  0  0  0  0  0
   -2.4413   18.4260  -34.5989 H   0  0  0  0  0  0  0  0  0  0  0  0
   -2.8647   20.0619  -32.7616 H   0  0  0  0  0  0  0  0  0  0  0  0
   -5.1489   20.2791  -31.7804 H   0  0  0  0  0  0  0  0  0  0  0  0
   -8.9084   23.1242  -30.0863 H   0  0  0  0  0  0  0  0  0  0  0  0
   -7.9671   21.6964  -29.4860 H   0  0  0  0  0  0  0  0  0  0  0  0
   -6.9674   24.4911  -30.1658 H   0  0  0  0  0  0  0  0  0  0  0  0
   -6.7815   23.5568  -28.6383 H   0  0  0  0  0  0  0  0  0  0  0  0
  1  2  1  0
  2  3  2  0
  3  4  1  0
  4  5  1  0
  4  6  2  0
  6  7  1  0
  7  8  2  0
  8  9  1  0
  9 10  1  0
 10 11  2  0
 10 12  1  0
 12 13  1  0
 13 14  1  0
 14 15  1  0
 15 16  1  0
 16 17  2  0
 16 18  1  0
 18 19  1  0
 19 20  1  0
 20 21  2  0
 21 22  1  0
 22 23  2  0
 23 24  1  0
 24 25  2  0
 15 26  1  0
 26 27  1  0
  8  2  1  0
 27 12  1  0
 25 20  1  0
  1 28  1  0
  1 29  1  0
  1 30  1  0
  3 31  1  0
  6 32  1  0
  7 33  1  0
  9 34  1  0
 12 35  1  0
 13 36  1  0
 13 37  1  0
 14 38  1  0
 14 39  1  0
 18 40  1  0
 18 41  1  0
 19 42  1  0
 19 43  1  0
 21 44  1  0
 22 45  1  0
 23 46  1  0
 24 47  1  0
 25 48  1  0
 26 49  1  0
 26 50  1  0
 27 51  1  0
 27 52  1  0
M  END
>  <UniqueID>  (19) 
19

>  <SMILES>  (19) 
Cc1cc(Br)ccc1NC(=O)C1CCN(C(=O)CCc2ccccc2)CC1

>  <Energy>  (19) 
60.682954098216904

>  <Genealogy>  (19) 
Cc1cc(Br)ccc1NC(=O)C1CCN(C(=O)CCc2ccccc2)CC1 (3D coordinates assigned)
Cc1cc(Br)ccc1NC(=O)C1CCN(C(=O)CCc2ccccc2)CC1 (nonaromatic ring conformer: 60.682954098216904 kcal/mol)

>  <smiles>  (19) 
Cc1cc(Br)ccc1NC(=O)C1CCN(C(=O)CCc2ccccc2)CC1

>  <score_type>  (19) 
oracle

>  <origin>  (19) 
adg

>  <m_score__min__energy>  (19) 
-10.130000000000001

>  <m_primary>  (19) 
energy

$$$$
19:0
     RDKit          3D

 50 53  0  0  0  0  0  0  0  0999 V2000
   -4.2460   23.1300  -28.3240 C   0  0  0  0  0  0  0  0  0  0  0  0
   -4.3300   24.5490  -28.8870 C   0  0  0  0  0  0  0  0  0  0  0  0
   -4.2050   24.5700  -30.3600 N   0  0  0  0  0  0  0  0  0  0  0  0
   -3.3890   23.4350  -30.8270 C   0  0  0  0  0  0  0  0  0  0  0  0
   -5.4890   24.6690  -31.0970 C   0  0  0  0  0  0  0  0  0  0  0  0
   -6.2710   23.3430  -31.2050 C   0  0  0  0  0  0  0  0  0  0  0  0
   -6.1350   22.7690  -32.5440 N   0  0  0  0  0  0  0  0  0  0  0  0
   -5.9780   21.3590  -32.7750 C   0  0  0  0  0  0  0  0  0  0  0  0
   -4.7490   20.8380  -33.1780 C   0  0  0  0  0  0  0  0  0  0  0  0
   -4.5830   19.4730  -33.3320 C   0  0  0  0  0  0  0  0  0  0  0  0
   -5.6100   18.5790  -33.1690 N   0  0  0  0  0  0  0  0  0  0  0  0
   -5.4030   17.1560  -33.4970 C   0  0  0  0  0  0  0  0  0  0  0  0
   -6.8240   19.0470  -32.6940 C   0  0  0  0  0  0  0  0  0  0  0  0
   -7.8800   18.1690  -32.3520 C   0  0  0  0  0  0  0  0  0  0  0  0
   -9.1080   18.6590  -31.9070 C   0  0  0  0  0  0  0  0  0  0  0  0
   -9.3150   20.0280  -31.7810 C   0  0  0  0  0  0  0  0  0  0  0  0
   -8.2880   20.9220  -32.0750 C   0  0  0  0  0  0  0  0  0  0  0  0
   -7.0320   20.4540  -32.5110 C   0  0  0  0  0  0  0  0  0  0  0  0
   -3.1680   19.2340  -33.5850 C   0  0  0  0  0  0  0  0  0  0  0  0
   -2.4990   18.0560  -33.6730 N   0  0  0  0  0  0  0  0  0  0  0  0
   -1.1430   18.0560  -33.8360 C   0  0  0  0  0  0  0  0  0  0  0  0
   -0.4320   19.2720  -33.8870 C   0  0  0  0  0  0  0  0  0  0  0  0
   -1.1250   20.4860  -33.7580 C   0  0  0  0  0  0  0  0  0  0  0  0
   -2.5070   20.4430  -33.6000 C   0  0  0  0  0  0  0  0  0  0  0  0
   -3.4510   21.5800  -33.3790 C   0  0  0  0  0  0  0  0  0  0  0  0
   -4.2484   23.1709  -27.2248 H   0  0  0  0  0  0  0  0  0  0  0  0
   -5.1111   22.5460  -28.6711 H   0  0  0  0  0  0  0  0  0  0  0  0
   -3.3180   22.6522  -28.6711 H   0  0  0  0  0  0  0  0  0  0  0  0
   -5.3002   24.9851  -28.6069 H   0  0  0  0  0  0  0  0  0  0  0  0
   -3.4957   25.1304  -28.4674 H   0  0  0  0  0  0  0  0  0  0  0  0
   -2.9942   22.8858  -29.9595 H   0  0  0  0  0  0  0  0  0  0  0  0
   -4.0111   22.7618  -31.4350 H   0  0  0  0  0  0  0  0  0  0  0  0
   -2.5527   23.8103  -31.4350 H   0  0  0  0  0  0  0  0  0  0  0  0
   -6.1259   25.4019  -30.5800 H   0  0  0  0  0  0  0  0  0  0  0  0
   -5.2363   24.9668  -32.1253 H   0  0  0  0  0  0  0  0  0  0  0  0
   -5.8773   22.6305  -30.4652 H   0  0  0  0  0  0  0  0  0  0  0  0
   -7.3353   23.5439  -31.0132 H   0  0  0  0  0  0  0  0  0  0  0  0
   -6.0060   23.4210  -33.3500 H   0  0  0  0  0  0  0  0  0  0  0  0
   -5.3183   16.5740  -32.5674 H   0  0  0  0  0  0  0  0  0  0  0  0
   -6.2569   16.7871  -34.0841 H   0  0  0  0  0  0  0  0  0  0  0  0
   -4.4793   17.0456  -34.0841 H   0  0  0  0  0  0  0  0  0  0  0  0
   -7.7301   17.0827  -32.4385 H   0  0  0  0  0  0  0  0  0  0  0  0
   -9.9173   17.9581  -31.6543 H   0  0  0  0  0  0  0  0  0  0  0  0
  -10.2928   20.4064  -31.4481 H   0  0  0  0  0  0  0  0  0  0  0  0
   -8.4588   22.0032  -31.9659 H   0  0  0  0  0  0  0  0  0  0  0  0
   -0.6029   17.1021  -33.9280 H   0  0  0  0  0  0  0  0  0  0  0  0
    0.6591   19.2697  -34.0270 H   0  0  0  0  0  0  0  0  0  0  0  0
   -0.5894   21.4465  -33.7812 H   0  0  0  0  0  0  0  0  0  0  0  0
   -3.1777   22.1653  -32.4887 H   0  0  0  0  0  0  0  0  0  0  0  0
   -3.4713   22.3188  -34.1937 H   0  0  0  0  0  0  0  0  0  0  0  0
  1  2  1  0
  2  3  1  0
  3  4  1  0
  3  5  1  0
  5  6  1  0
  6  7  1  0
  7  8  1  0
  8  9  2  0
  9 10  1  0
 10 11  2  0
 11 12  1  0
 11 13  1  0
 13 14  2  0
 14 15  1  0
 15 16  2  0
 16 17  1  0
 17 18  2  0
 10 19  1  0
 19 20  2  0
 20 21  1  0
 21 22  2  0
 22 23  1  0
 23 24  2  0
 24 25  1  0
 18  8  1  0
 24 19  1  0
 25  9  1  0
 18 13  1  0
  1 26  1  0
  1 27  1  0
  1 28  1  0
  2 29  1  0
  2 30  1  0
  4 31  1  0
  4 32  1  0
  4 33  1  0
  5 34  1  0
  5 35  1  0
  6 36  1  0
  6 37  1  0
  7 38  1  0
 12 39  1  0
 12 40  1  0
 12 41  1  0
 14 42  1  0
 15 43  1  0
 16 44  1  0
 17 45  1  0
 21 46  1  0
 22 47  1  0
 23 48  1  0
 25 49  1  0
 25 50  1  0
M  CHG  1  11   1
M  END
>  <UniqueID>  (20) 
20

>  <SMILES>  (20) 
CCN(C)CCNc1c2c([n+](C)c3ccccc13)-c1ncccc1C2

>  <Energy>  (20) 
95.6647224586694

>  <Genealogy>  (20) 
CCN(C)CCNc1c2c([n+](C)c3ccccc13)-c1ncccc1C2 (3D coordinates assigned)
CCN(C)CCNc1c2c([n+](C)c3ccccc13)-c1ncccc1C2 (nonaromatic ring conformer: 95.6647224586694 kcal/mol)

>  <smiles>  (20) 
CCN(C)CCNc1c2c([n+](C)c3ccccc13)-c1ncccc1C2

>  <score_type>  (20) 
oracle

>  <origin>  (20) 
adg

>  <m_score__min__energy>  (20) 
-8.4299999999999997

>  <m_primary>  (20) 
energy

$$$$
20:0
     RDKit          3D

 54 57  0  0  0  0  0  0  0  0999 V2000
   -5.3870   23.2990  -29.3770 C   0  0  0  0  0  0  0  0  0  0  0  0
   -4.4900   24.0590  -30.2660 N   0  0  0  0  0  0  0  0  0  0  0  0
   -5.0320   25.4120  -30.4730 C   0  0  0  0  0  0  0  0  0  0  0  0
   -3.1250   24.1430  -29.6970 C   0  0  0  0  0  0  0  0  0  0  0  0
   -2.4270   22.7640  -29.6670 C   0  0  0  0  0  0  0  0  0  0  0  0
   -3.1230   21.7330  -30.4540 N   0  0  0  0  0  0  0  0  0  0  0  0
   -2.1930   20.8640  -31.1890 C   0  0  0  0  0  0  0  0  0  0  0  0
   -1.7770   21.5380  -32.4960 C   0  0  0  0  0  0  0  0  0  0  0  0
   -2.7130   21.2110  -33.5710 N   0  0  0  0  0  0  0  0  0  0  0  0
   -3.7480   20.2320  -33.4060 C   0  0  0  0  0  0  0  0  0  0  0  0
   -5.0230   20.6280  -33.0260 C   0  0  0  0  0  0  0  0  0  0  0  0
   -6.0570   19.7140  -32.9290 C   0  0  0  0  0  0  0  0  0  0  0  0
   -5.8890   18.3830  -33.2100 N   0  0  0  0  0  0  0  0  0  0  0  0
   -7.0550   17.4830  -33.2170 C   0  0  0  0  0  0  0  0  0  0  0  0
   -4.6040   17.9220  -33.4620 C   0  0  0  0  0  0  0  0  0  0  0  0
   -4.3160   16.5390  -33.5710 C   0  0  0  0  0  0  0  0  0  0  0  0
   -3.0210   16.0920  -33.8380 C   0  0  0  0  0  0  0  0  0  0  0  0
   -1.9790   17.0010  -33.9810 C   0  0  0  0  0  0  0  0  0  0  0  0
   -2.2160   18.3680  -33.8470 C   0  0  0  0  0  0  0  0  0  0  0  0
   -3.5150   18.8500  -33.5890 C   0  0  0  0  0  0  0  0  0  0  0  0
   -7.2590   20.4530  -32.4960 C   0  0  0  0  0  0  0  0  0  0  0  0
   -8.4910   19.9810  -32.1720 N   0  0  0  0  0  0  0  0  0  0  0  0
   -9.4530   20.8480  -31.7350 C   0  0  0  0  0  0  0  0  0  0  0  0
   -9.1700   22.2240  -31.6000 C   0  0  0  0  0  0  0  0  0  0  0  0
   -7.8880   22.7060  -31.9090 C   0  0  0  0  0  0  0  0  0  0  0  0
   -6.9420   21.7890  -32.3590 C   0  0  0  0  0  0  0  0  0  0  0  0
   -5.5350   21.9580  -32.6860 C   0  0  0  0  0  0  0  0  0  0  0  0
   -4.8810   23.0340  -32.6390 O   0  0  0  0  0  0  0  0  0  0  0  0
   -5.1329   23.5143  -28.3286 H   0  0  0  0  0  0  0  0  0  0  0  0
   -6.4294   23.5930  -29.5695 H   0  0  0  0  0  0  0  0  0  0  0  0
   -5.2682   22.2225  -29.5695 H   0  0  0  0  0  0  0  0  0  0  0  0
   -5.2212   25.8844  -29.4978 H   0  0  0  0  0  0  0  0  0  0  0  0
   -4.3061   26.0153  -31.0380 H   0  0  0  0  0  0  0  0  0  0  0  0
   -5.9736   25.3473  -31.0380 H   0  0  0  0  0  0  0  0  0  0  0  0
   -2.5257   24.8316  -30.3107 H   0  0  0  0  0  0  0  0  0  0  0  0
   -3.2090   24.5051  -28.6617 H   0  0  0  0  0  0  0  0  0  0  0  0
   -1.4098   22.8805  -30.0691 H   0  0  0  0  0  0  0  0  0  0  0  0
   -2.4275   22.4254  -28.6204 H   0  0  0  0  0  0  0  0  0  0  0  0
   -3.7690   22.1950  -31.1380 H   0  0  0  0  0  0  0  0  0  0  0  0
   -1.3005   20.6804  -30.5727 H   0  0  0  0  0  0  0  0  0  0  0  0
   -2.6903   19.9093  -31.4153 H   0  0  0  0  0  0  0  0  0  0  0  0
   -1.7619   22.6282  -32.3504 H   0  0  0  0  0  0  0  0  0  0  0  0
   -0.7774   21.1748  -32.7769 H   0  0  0  0  0  0  0  0  0  0  0  0
   -2.5650   21.6290  -34.5210 H   0  0  0  0  0  0  0  0  0  0  0  0
   -7.3492   17.2560  -32.1817 H   0  0  0  0  0  0  0  0  0  0  0  0
   -7.8921   17.9714  -33.7373 H   0  0  0  0  0  0  0  0  0  0  0  0
   -6.7945   16.5495  -33.7373 H   0  0  0  0  0  0  0  0  0  0  0  0
   -5.1260   15.8058  -33.4431 H   0  0  0  0  0  0  0  0  0  0  0  0
   -2.8238   15.0143  -33.9358 H   0  0  0  0  0  0  0  0  0  0  0  0
   -0.9634   16.6400  -34.2008 H   0  0  0  0  0  0  0  0  0  0  0  0
   -1.3810   19.0775  -33.9436 H   0  0  0  0  0  0  0  0  0  0  0  0
  -10.4558   20.4703  -31.4865 H   0  0  0  0  0  0  0  0  0  0  0  0
   -9.9513   22.9166  -31.2538 H   0  0  0  0  0  0  0  0  0  0  0  0
   -7.6395   23.7719  -31.7993 H   0  0  0  0  0  0  0  0  0  0  0  0
  1  2  1  0
  2  3  1  0
  2  4  1  0
  4  5  1  0
  5  6  1  0
  6  7  1  0
  7  8  1  0
  8  9  1  0
  9 10  1  0
 10 11  2  0
 11 12  1  0
 12 13  2  0
 13 14  1  0
 13 15  1  0
 15 16  2  0
 16 17  1  0
 17 18  2  0
 18 19  1  0
 19 20  2  0
 12 21  1  0
 21 22  2  0
 22 23  1  0
 23 24  2  0
 24 25  1  0
 25 26  2  0
 26 27  1  0
 27 28  2  0
 20 10  1  0
 26 21  1  0
 27 11  1  0
 20 15  1  0
  1 29  1  0
  1 30  1  0
  1 31  1  0
  3 32  1  0
  3 33  1  0
  3 34  1  0
  4 35  1  0
  4 36  1  0
  5 37  1  0
  5 38  1  0
  6 39  1  0
  7 40  1  0
  7 41  1  0
  8 42  1  0
  8 43  1  0
  9 44  1  0
 14 45  1  0
 14 46  1  0
 14 47  1  0
 16 48  1  0
 17 49  1  0
 18 50  1  0
 19 51  1  0
 23 52  1  0
 24 53  1  0
 25 54  1  0
M  CHG  1  13   1
M  END
>  <UniqueID>  (21) 
21

>  <SMILES>  (21) 
CN(C)CCNCCNc1c2c([n+](C)c3ccccc13)-c1ncccc1C2=O

>  <Energy>  (21) 
108.01981704382338

>  <Genealogy>  (21) 
CN(C)CCNCCNc1c2c([n+](C)c3ccccc13)-c1ncccc1C2=O (3D coordinates assigned)
CN(C)CCNCCNc1c2c([n+](C)c3ccccc13)-c1ncccc1C2=O (nonaromatic ring conformer: 108.01981704382338 kcal/mol)

>  <smiles>  (21) 
CN(C)CCNCCNc1c2c([n+](C)c3ccccc13)-c1ncccc1C2=O

>  <score_type>  (21) 
oracle

>  <origin>  (21) 
adg

>  <m_score__min__energy>  (21) 
-9.0199999999999996

>  <m_primary>  (21) 
energy

$$$$
21:0
     RDKit          3D

 47 49  0  0  0  0  0  0  0  0999 V2000
   -3.2690   19.6720  -32.7380 C   0  0  0  0  0  0  0  0  0  0  0  0
   -3.1870   21.0300  -33.4300 C   0  0  0  0  0  0  0  0  0  0  0  0
   -3.5100   22.0820  -32.5200 O   0  0  0  0  0  0  0  0  0  0  0  0
   -4.8040   22.4190  -32.0880 C   0  0  0  0  0  0  0  0  0  0  0  0
   -5.9410   21.6870  -32.4760 C   0  0  0  0  0  0  0  0  0  0  0  0
   -7.2090   22.0190  -31.9740 C   0  0  0  0  0  0  0  0  0  0  0  0
   -8.4160   21.1890  -32.3400 C   0  0  0  0  0  0  0  0  0  0  0  0
   -8.0460   20.0810  -33.2250 N   0  0  0  0  0  0  0  0  0  0  0  0
   -7.2940   18.9300  -32.7970 C   0  0  0  0  0  0  0  0  0  0  0  0
   -7.2790   18.5170  -31.4520 C   0  0  0  0  0  0  0  0  0  0  0  0
   -6.5080   17.4220  -31.0540 C   0  0  0  0  0  0  0  0  0  0  0  0
   -5.7420   16.7180  -31.9920 C   0  0  0  0  0  0  0  0  0  0  0  0
   -4.9800   15.6510  -31.6090 N   0  0  0  0  0  0  0  0  0  0  0  0
   -4.2280   14.9580  -32.5070 C   0  0  0  0  0  0  0  0  0  0  0  0
   -4.2180   15.3270  -33.8530 C   0  0  0  0  0  0  0  0  0  0  0  0
   -4.9870   16.4120  -34.2750 C   0  0  0  0  0  0  0  0  0  0  0  0
   -5.7590   17.1200  -33.3470 C   0  0  0  0  0  0  0  0  0  0  0  0
   -6.5380   18.2170  -33.7410 C   0  0  0  0  0  0  0  0  0  0  0  0
   -7.3490   23.1400  -31.1440 C   0  0  0  0  0  0  0  0  0  0  0  0
   -6.2300   23.8930  -30.7780 C   0  0  0  0  0  0  0  0  0  0  0  0
   -6.4820   25.4460  -29.6870 Br  0  0  0  0  0  0  0  0  0  0  0  0
   -4.9530   23.5200  -31.2310 C   0  0  0  0  0  0  0  0  0  0  0  0
   -3.8190   24.2370  -30.8390 O   0  0  0  0  0  0  0  0  0  0  0  0
   -2.9330   23.7660  -29.8250 C   0  0  0  0  0  0  0  0  0  0  0  0
   -3.7070   23.0700  -28.7110 C   0  0  0  0  0  0  0  0  0  0  0  0
   -3.2604   19.8151  -31.6474 H   0  0  0  0  0  0  0  0  0  0  0  0
   -4.1994   19.1652  -33.0340 H   0  0  0  0  0  0  0  0  0  0  0  0
   -2.4064   19.0570  -33.0340 H   0  0  0  0  0  0  0  0  0  0  0  0
   -2.1652   21.1811  -33.8082 H   0  0  0  0  0  0  0  0  0  0  0  0
   -3.9085   21.0474  -34.2602 H   0  0  0  0  0  0  0  0  0  0  0  0
   -5.8354   20.8474  -33.1787 H   0  0  0  0  0  0  0  0  0  0  0  0
   -8.8634   20.7811  -31.4216 H   0  0  0  0  0  0  0  0  0  0  0  0
   -9.1353   21.8324  -32.8679 H   0  0  0  0  0  0  0  0  0  0  0  0
   -8.2360   20.2030  -34.2450 H   0  0  0  0  0  0  0  0  0  0  0  0
   -7.8793   19.0608  -30.7077 H   0  0  0  0  0  0  0  0  0  0  0  0
   -6.5024   17.1112  -29.9989 H   0  0  0  0  0  0  0  0  0  0  0  0
   -4.9650   15.3490  -30.6080 H   0  0  0  0  0  0  0  0  0  0  0  0
   -3.6246   14.1022  -32.1701 H   0  0  0  0  0  0  0  0  0  0  0  0
   -3.6079   14.7661  -34.5763 H   0  0  0  0  0  0  0  0  0  0  0  0
   -4.9865   16.7100  -35.3339 H   0  0  0  0  0  0  0  0  0  0  0  0
   -6.5570   18.5214  -34.7979 H   0  0  0  0  0  0  0  0  0  0  0  0
   -8.3456   23.4287  -30.7786 H   0  0  0  0  0  0  0  0  0  0  0  0
   -2.2220   23.0540  -30.2695 H   0  0  0  0  0  0  0  0  0  0  0  0
   -2.3967   24.6261  -29.3978 H   0  0  0  0  0  0  0  0  0  0  0  0
   -3.3297   23.4093  -27.7350 H   0  0  0  0  0  0  0  0  0  0  0  0
   -4.7754   23.3171  -28.7971 H   0  0  0  0  0  0  0  0  0  0  0  0
   -3.5743   21.9814  -28.7971 H   0  0  0  0  0  0  0  0  0  0  0  0
  1  2  1  0
  2  3  1  0
  3  4  1  0
  4  5  2  0
  5  6  1  0
  6  7  1  0
  7  8  1  0
  8  9  1  0
  9 10  2  0
 10 11  1  0
 11 12  2  0
 12 13  1  0
 13 14  2  0
 14 15  1  0
 15 16  2  0
 16 17  1  0
 17 18  2  0
  6 19  2  0
 19 20  1  0
 20 21  1  0
 20 22  2  0
 22 23  1  0
 23 24  1  0
 24 25  1  0
 22  4  1  0
 18  9  1  0
 17 12  1  0
  1 26  1  0
  1 27  1  0
  1 28  1  0
  2 29  1  0
  2 30  1  0
  5 31  1  0
  7 32  1  0
  7 33  1  0
  8 34  1  0
 10 35  1  0
 11 36  1  0
 13 37  1  0
 14 38  1  0
 15 39  1  0
 16 40  1  0
 18 41  1  0
 19 42  1  0
 24 43  1  0
 24 44  1  0
 25 45  1  0
 25 46  1  0
 25 47  1  0
M  CHG  1  13   1
M  END
>  <UniqueID>  (22) 
22

>  <SMILES>  (22) 
CCOc1cc(CNc2ccc3[nH+]cccc3c2)cc(Br)c1OCC

>  <Energy>  (22) 
51.85791116107553

>  <Genealogy>  (22) 
CCOc1cc(CNc2ccc3[nH+]cccc3c2)cc(Br)c1OCC (protonated)
CCOc1cc(CNc2ccc3[nH+]cccc3c2)cc(Br)c1OCC (3D coordinates assigned)
CCOc1cc(CNc2ccc3[nH+]cccc3c2)cc(Br)c1OCC (optimized conformer: 51.85791116107553 kcal/mol)

>  <smiles>  (22) 
CCOc1cc(CNc2ccc3ncccc3c2)cc(Br)c1OCC

>  <score_type>  (22) 
oracle

>  <origin>  (22) 
adg

>  <m_score__min__energy>  (22) 
-9.1500000000000004

>  <m_primary>  (22) 
energy

$$$$
22:0
     RDKit          3D

 37 38  0  0  0  0  0  0  0  0999 V2000
   -6.0750   17.4390  -34.5380 C   0  0  0  0  0  0  0  0  0  0  0  0
   -6.0670   18.9350  -34.2450 C   0  0  0  0  0  0  0  0  0  0  0  0
   -6.3850   19.1840  -32.8760 O   0  0  0  0  0  0  0  0  0  0  0  0
   -7.0360   20.3260  -32.3820 C   0  0  0  0  0  0  0  0  0  0  0  0
   -8.4380   20.4300  -32.3020 C   0  0  0  0  0  0  0  0  0  0  0  0
   -9.0290   21.5920  -31.8030 C   0  0  0  0  0  0  0  0  0  0  0  0
   -8.2350   22.6600  -31.3800 C   0  0  0  0  0  0  0  0  0  0  0  0
   -6.8330   22.5760  -31.4520 C   0  0  0  0  0  0  0  0  0  0  0  0
   -5.9810   23.6540  -31.0160 N   0  0  0  0  0  0  0  0  0  0  0  0
   -4.8970   23.5080  -30.0440 C   0  0  0  0  0  0  0  0  0  0  0  0
   -3.9210   24.6350  -30.1730 C   0  0  0  0  0  0  0  0  0  0  0  0
   -4.2370   25.6600  -30.8360 O   0  0  0  0  0  0  0  0  0  0  0  0
   -2.6100   24.5050  -29.6100 N   0  0  0  0  0  0  0  0  0  0  0  0
   -2.1820   25.0200  -28.3420 C   0  0  0  0  0  0  0  0  0  0  0  0
   -1.0370   25.8290  -28.2150 C   0  0  0  0  0  0  0  0  0  0  0  0
   -0.6680   26.3350  -26.9640 C   0  0  0  0  0  0  0  0  0  0  0  0
   -1.4440   26.0520  -25.8360 C   0  0  0  0  0  0  0  0  0  0  0  0
   -0.9810   26.6910  -24.2690 Cl  0  0  0  0  0  0  0  0  0  0  0  0
   -2.5950   25.2680  -25.9610 C   0  0  0  0  0  0  0  0  0  0  0  0
   -2.9660   24.7610  -27.2100 C   0  0  0  0  0  0  0  0  0  0  0  0
   -6.2490   21.4040  -31.9600 C   0  0  0  0  0  0  0  0  0  0  0  0
   -6.0780   16.8799  -33.5907 H   0  0  0  0  0  0  0  0  0  0  0  0
   -6.9745   17.1836  -35.1173 H   0  0  0  0  0  0  0  0  0  0  0  0
   -5.1783   17.1740  -35.1173 H   0  0  0  0  0  0  0  0  0  0  0  0
   -5.0677   19.3400  -34.4628 H   0  0  0  0  0  0  0  0  0  0  0  0
   -6.8234   19.4227  -34.8775 H   0  0  0  0  0  0  0  0  0  0  0  0
   -9.0696   19.5928  -32.6338 H   0  0  0  0  0  0  0  0  0  0  0  0
  -10.1248   21.6667  -31.7427 H   0  0  0  0  0  0  0  0  0  0  0  0
   -8.7088   23.5722  -30.9883 H   0  0  0  0  0  0  0  0  0  0  0  0
   -6.1200   24.6010  -31.4380 H   0  0  0  0  0  0  0  0  0  0  0  0
   -5.3192   23.5094  -29.0282 H   0  0  0  0  0  0  0  0  0  0  0  0
   -4.3728   22.5602  -30.2359 H   0  0  0  0  0  0  0  0  0  0  0  0
   -0.4306   26.0640  -29.1021 H   0  0  0  0  0  0  0  0  0  0  0  0
    0.2344   26.9567  -26.8677 H   0  0  0  0  0  0  0  0  0  0  0  0
   -3.2096   25.0498  -25.0752 H   0  0  0  0  0  0  0  0  0  0  0  0
   -3.8791   24.1550  -27.3046 H   0  0  0  0  0  0  0  0  0  0  0  0
   -5.1534   21.3319  -32.0275 H   0  0  0  0  0  0  0  0  0  0  0  0
  1  2  1  0
  2  3  1  0
  3  4  1  0
  4  5  2  0
  5  6  1  0
  6  7  2  0
  7  8  1  0
  8  9  1  0
  9 10  1  0
 10 11  1  0
 11 12  2  0
 11 13  1  0
 13 14  1  0
 14 15  2  0
 15 16  1  0
 16 17  2  0
 17 18  1  0
 17 19  1  0
 19 20  2  0
  8 21  2  0
 21  4  1  0
 20 14  1  0
  1 22  1  0
  1 23  1  0
  1 24  1  0
  2 25  1  0
  2 26  1  0
  5 27  1  0
  6 28  1  0
  7 29  1  0
  9 30  1  0
 10 31  1  0
 10 32  1  0
 15 33  1  0
 16 34  1  0
 19 35  1  0
 20 36  1  0
 21 37  1  0
M  CHG  1  13  -1
M  END
>  <UniqueID>  (23) 
23

>  <SMILES>  (23) 
CCOc1cccc(NCC(=O)[N-]c2ccc(Cl)cc2)c1

>  <Energy>  (23) 
36.65805992398431

>  <Genealogy>  (23) 
CCOc1cccc(NCC(=O)[N-]c2ccc(Cl)cc2)c1 (protonated)
CCOc1cccc(NCC(=O)[N-]c2ccc(Cl)cc2)c1 (3D coordinates assigned)
CCOc1cccc(NCC(=O)[N-]c2ccc(Cl)cc2)c1 (optimized conformer: 36.65805992398431 kcal/mol)

>  <smiles>  (23) 
CCOc1cccc(NCC(=O)Nc2ccc(Cl)cc2)c1

>  <score_type>  (23) 
oracle

>  <origin>  (23) 
adg

>  <m_score__min__energy>  (23) 
-8.6999999999999993

>  <m_primary>  (23) 
energy

$$$$
23:0
     RDKit          3D

 68 70  0  0  0  0  0  0  0  0999 V2000
   -2.1240   25.2940  -26.6000 C   0  0  0  0  0  0  0  0  0  0  0  0
   -1.2440   26.0410  -27.5920 C   0  0  0  0  0  0  0  0  0  0  0  0
   -1.6230   25.6840  -28.9050 O   0  0  0  0  0  0  0  0  0  0  0  0
   -1.5770   24.2790  -29.0730 C   0  0  0  0  0  0  0  0  0  0  0  0
   -2.7770   23.7790  -29.8840 C   0  0  0  0  0  0  0  0  0  0  0  0
   -3.5780   24.8640  -30.3190 O   0  0  0  0  0  0  0  0  0  0  0  0
   -4.8030   24.9110  -29.6130 C   0  0  0  0  0  0  0  0  0  0  0  0
   -5.9270   25.2370  -30.5930 C   0  0  0  0  0  0  0  0  0  0  0  0
   -5.9610   24.2850  -31.6580 O   0  0  0  0  0  0  0  0  0  0  0  0
   -6.8410   23.1910  -31.7560 C   0  0  0  0  0  0  0  0  0  0  0  0
   -8.2210   23.3810  -31.9390 C   0  0  0  0  0  0  0  0  0  0  0  0
   -9.0840   22.2960  -32.0130 C   0  0  0  0  0  0  0  0  0  0  0  0
   -8.5970   20.9920  -31.9060 C   0  0  0  0  0  0  0  0  0  0  0  0
   -9.4940   19.9110  -31.9640 C   0  0  0  0  0  0  0  0  0  0  0  0
   -9.0290   18.6030  -31.8450 C   0  0  0  0  0  0  0  0  0  0  0  0
   -7.6690   18.3590  -31.6740 C   0  0  0  0  0  0  0  0  0  0  0  0
   -6.7630   19.4210  -31.6210 C   0  0  0  0  0  0  0  0  0  0  0  0
   -7.2040   20.7610  -31.7310 C   0  0  0  0  0  0  0  0  0  0  0  0
   -6.3160   21.8790  -31.6660 C   0  0  0  0  0  0  0  0  0  0  0  0
   -4.8210   21.7280  -31.4080 C   0  0  0  0  0  0  0  0  0  0  0  0
   -3.9870   22.2600  -32.5850 C   0  0  0  0  0  0  0  0  0  0  0  0
   -3.3780   21.1590  -33.3460 N   0  0  0  0  0  0  0  0  0  0  0  0
   -4.3120   20.0390  -33.5150 C   0  0  0  0  0  0  0  0  0  0  0  0
   -3.5330   18.7670  -33.8700 C   0  0  0  0  0  0  0  0  0  0  0  0
   -4.2540   17.9640  -34.8860 N   0  0  0  0  0  0  0  0  0  0  0  0
   -5.7320   18.1310  -34.8250 C   0  0  0  0  0  0  0  0  0  0  0  0
   -6.4820   16.9250  -34.2220 C   0  0  0  0  0  0  0  0  0  0  0  0
   -5.6570   16.2580  -33.1270 C   0  0  0  0  0  0  0  0  0  0  0  0
   -4.3110   15.7570  -33.6740 C   0  0  0  0  0  0  0  0  0  0  0  0
   -3.8390   16.5430  -34.9130 C   0  0  0  0  0  0  0  0  0  0  0  0
   -1.8207   25.5515  -25.5745 H   0  0  0  0  0  0  0  0  0  0  0  0
   -3.1749   25.5800  -26.7543 H   0  0  0  0  0  0  0  0  0  0  0  0
   -2.0124   24.2106  -26.7543 H   0  0  0  0  0  0  0  0  0  0  0  0
   -1.3708   27.1249  -27.4537 H   0  0  0  0  0  0  0  0  0  0  0  0
   -0.1895   25.7759  -27.4253 H   0  0  0  0  0  0  0  0  0  0  0  0
   -0.6501   24.0108  -29.6011 H   0  0  0  0  0  0  0  0  0  0  0  0
   -1.6071   23.8079  -28.0794 H   0  0  0  0  0  0  0  0  0  0  0  0
   -2.4132   23.2247  -30.7618 H   0  0  0  0  0  0  0  0  0  0  0  0
   -3.3872   23.1249  -29.2438 H   0  0  0  0  0  0  0  0  0  0  0  0
   -4.9952   23.9357  -29.1420 H   0  0  0  0  0  0  0  0  0  0  0  0
   -4.7535   25.6844  -28.8324 H   0  0  0  0  0  0  0  0  0  0  0  0
   -6.8886   25.2162  -30.0593 H   0  0  0  0  0  0  0  0  0  0  0  0
   -5.7473   26.2358  -31.0173 H   0  0  0  0  0  0  0  0  0  0  0  0
   -8.6224   24.4015  -32.0247 H   0  0  0  0  0  0  0  0  0  0  0  0
  -10.1613   22.4653  -32.1573 H   0  0  0  0  0  0  0  0  0  0  0  0
  -10.5687   20.0989  -32.1041 H   0  0  0  0  0  0  0  0  0  0  0  0
   -9.7371   17.7623  -31.8862 H   0  0  0  0  0  0  0  0  0  0  0  0
   -7.3061   17.3248  -31.5802 H   0  0  0  0  0  0  0  0  0  0  0  0
   -5.6907   19.2124  -31.4918 H   0  0  0  0  0  0  0  0  0  0  0  0
   -4.5568   22.2904  -30.5003 H   0  0  0  0  0  0  0  0  0  0  0  0
   -4.5994   20.6576  -31.2854 H   0  0  0  0  0  0  0  0  0  0  0  0
   -4.6396   22.8404  -33.2537 H   0  0  0  0  0  0  0  0  0  0  0  0
   -3.1819   22.8928  -32.1834 H   0  0  0  0  0  0  0  0  0  0  0  0
   -3.1360   21.5190  -34.3000 H   0  0  0  0  0  0  0  0  0  0  0  0
   -4.8654   19.8795  -32.5778 H   0  0  0  0  0  0  0  0  0  0  0  0
   -5.0184   20.2722  -34.3253 H   0  0  0  0  0  0  0  0  0  0  0  0
   -2.5474   19.0492  -34.2687 H   0  0  0  0  0  0  0  0  0  0  0  0
   -3.4231   18.1598  -32.9594 H   0  0  0  0  0  0  0  0  0  0  0  0
   -5.9538   19.0166  -34.2114 H   0  0  0  0  0  0  0  0  0  0  0  0
   -6.0810   18.2325  -35.8632 H   0  0  0  0  0  0  0  0  0  0  0  0
   -7.4342   17.2715  -33.7939 H   0  0  0  0  0  0  0  0  0  0  0  0
   -6.6621   16.1903  -35.0207 H   0  0  0  0  0  0  0  0  0  0  0  0
   -5.4696   16.9866  -32.3245 H   0  0  0  0  0  0  0  0  0  0  0  0
   -6.2203   15.3949  -32.7427 H   0  0  0  0  0  0  0  0  0  0  0  0
   -3.5518   15.8570  -32.8843 H   0  0  0  0  0  0  0  0  0  0  0  0
   -4.4474   14.7090  -33.9792 H   0  0  0  0  0  0  0  0  0  0  0  0
   -2.7409   16.4988  -34.9594 H   0  0  0  0  0  0  0  0  0  0  0  0
   -4.3048   16.0796  -35.7952 H   0  0  0  0  0  0  0  0  0  0  0  0
  1  2  1  0
  2  3  1  0
  3  4  1  0
  4  5  1  0
  5  6  1  0
  6  7  1  0
  7  8  1  0
  8  9  1  0
  9 10  1  0
 10 11  2  0
 11 12  1  0
 12 13  2  0
 13 14  1  0
 14 15  2  0
 15 16  1  0
 16 17  2  0
 17 18  1  0
 18 19  2  0
 19 20  1  0
 20 21  1  0
 21 22  1  0
 22 23  1  0
 23 24  1  0
 24 25  1  0
 25 26  1  0
 26 27  1  0
 27 28  1  0
 28 29  1  0
 29 30  1  0
 19 10  1  0
 30 25  1  0
 18 13  1  0
  1 31  1  0
  1 32  1  0
  1 33  1  0
  2 34  1  0
  2 35  1  0
  4 36  1  0
  4 37  1  0
  5 38  1  0
  5 39  1  0
  7 40  1  0
  7 41  1  0
  8 42  1  0
  8 43  1  0
 11 44  1  0
 12 45  1  0
 14 46  1  0
 15 47  1  0
 16 48  1  0
 17 49  1  0
 20 50  1  0
 20 51  1  0
 21 52  1  0
 21 53  1  0
 22 54  1  0
 23 55  1  0
 23 56  1  0
 24 57  1  0
 24 58  1  0
 26 59  1  0
 26 60  1  0
 27 61  1  0
 27 62  1  0
 28 63  1  0
 28 64  1  0
 29 65  1  0
 29 66  1  0
 30 67  1  0
 30 68  1  0
M  END
>  <UniqueID>  (24) 
24

>  <SMILES>  (24) 
CCOCCOCCOc1ccc2ccccc2c1CCNCCN1CCCCC1

>  <Energy>  (24) 
77.55110730665803

>  <Genealogy>  (24) 
CCOCCOCCOc1ccc2ccccc2c1CCNCCN1CCCCC1 (3D coordinates assigned)
CCOCCOCCOc1ccc2ccccc2c1CCNCCN1CCCCC1 (nonaromatic ring conformer: 77.55110730665803 kcal/mol)

>  <smiles>  (24) 
CCOCCOCCOc1ccc2ccccc2c1CCNCCN1CCCCC1

>  <score_type>  (24) 
oracle

>  <origin>  (24) 
adg

>  <m_score__min__energy>  (24) 
-10.19

>  <m_primary>  (24) 
energy

$$$$
