0:0
     RDKit          3D

 67 70  0  0  0  0  0  0  0  0999 V2000
   -6.2630   25.6470  -29.3610 C   0  0  0  0  0  0  0  0  0  0  0  0
   -5.2840   25.6870  -30.5290 C   0  0  0  0  0  0  0  0  0  0  0  0
   -5.4300   24.4770  -31.3440 N   0  0  0  0  0  0  0  0  0  0  0  0
   -6.7050   23.8120  -31.0570 C   0  0  0  0  0  0  0  0  0  0  0  0
   -6.6410   22.3150  -31.4130 C   0  0  0  0  0  0  0  0  0  0  0  0
   -5.9600   22.0600  -32.7020 N   0  0  0  0  0  0  0  0  0  0  0  0
   -5.3060   20.7530  -32.7540 C   0  0  0  0  0  0  0  0  0  0  0  0
   -6.0820   19.5680  -32.7720 C   0  0  0  0  0  0  0  0  0  0  0  0
   -7.3550   19.5030  -32.1590 C   0  0  0  0  0  0  0  0  0  0  0  0
   -8.1070   18.3310  -32.1970 C   0  0  0  0  0  0  0  0  0  0  0  0
   -7.5980   17.1960  -32.8160 C   0  0  0  0  0  0  0  0  0  0  0  0
   -6.3350   17.2250  -33.4010 C   0  0  0  0  0  0  0  0  0  0  0  0
   -5.5580   18.4110  -33.4050 C   0  0  0  0  0  0  0  0  0  0  0  0
   -4.3200   18.4600  -34.0080 N   0  0  0  0  0  0  0  0  0  0  0  0
   -3.9260   17.4190  -34.9830 C   0  0  0  0  0  0  0  0  0  0  0  0
   -3.4420   19.4750  -33.6820 C   0  0  0  0  0  0  0  0  0  0  0  0
   -2.0710   19.3960  -34.0290 C   0  0  0  0  0  0  0  0  0  0  0  0
   -1.1900   20.4190  -33.7070 C   0  0  0  0  0  0  0  0  0  0  0  0
   -1.6250   21.5110  -32.9730 C   0  0  0  0  0  0  0  0  0  0  0  0
   -2.9600   21.6130  -32.5650 C   0  0  0  0  0  0  0  0  0  0  0  0
   -3.2900   22.6080  -31.5840 N   0  0  0  0  0  0  0  0  0  0  0  0
   -3.2690   22.3380  -30.1460 C   0  0  0  0  0  0  0  0  0  0  0  0
   -2.9290   23.6060  -29.3520 C   0  0  0  0  0  0  0  0  0  0  0  0
   -1.4160   23.8370  -29.2100 C   0  0  0  0  0  0  0  0  0  0  0  0
   -1.1060   25.2480  -28.9590 N   0  0  0  0  0  0  0  0  0  0  0  0
   -1.1580   25.8450  -27.6490 C   0  0  0  0  0  0  0  0  0  0  0  0
   -0.5100   27.0620  -27.3600 C   0  0  0  0  0  0  0  0  0  0  0  0
   -0.5870   27.6150  -26.0780 C   0  0  0  0  0  0  0  0  0  0  0  0
   -1.3070   26.9640  -25.0740 C   0  0  0  0  0  0  0  0  0  0  0  0
   -1.9520   25.7560  -25.3500 C   0  0  0  0  0  0  0  0  0  0  0  0
   -1.8790   25.1990  -26.6300 C   0  0  0  0  0  0  0  0  0  0  0  0
   -3.9050   20.6260  -32.9770 C   0  0  0  0  0  0  0  0  0  0  0  0
   -5.7046   25.6698  -28.4136 H   0  0  0  0  0  0  0  0  0  0  0  0
   -6.9321   26.5186  -29.4134 H   0  0  0  0  0  0  0  0  0  0  0  0
   -6.8587   24.7238  -29.4134 H   0  0  0  0  0  0  0  0  0  0  0  0
   -5.4917   26.5716  -31.1489 H   0  0  0  0  0  0  0  0  0  0  0  0
   -4.2568   25.7393  -30.1390 H   0  0  0  0  0  0  0  0  0  0  0  0
   -4.6580   23.8180  -31.0800 H   0  0  0  0  0  0  0  0  0  0  0  0
   -6.9322   23.9173  -29.9859 H   0  0  0  0  0  0  0  0  0  0  0  0
   -7.4902   24.2832  -31.6665 H   0  0  0  0  0  0  0  0  0  0  0  0
   -6.0951   21.7876  -30.6169 H   0  0  0  0  0  0  0  0  0  0  0  0
   -7.6754   21.9529  -31.5079 H   0  0  0  0  0  0  0  0  0  0  0  0
   -6.6310   22.1680  -33.4900 H   0  0  0  0  0  0  0  0  0  0  0  0
   -5.2870   22.8440  -32.8280 H   0  0  0  0  0  0  0  0  0  0  0  0
   -7.7564   20.3892  -31.6457 H   0  0  0  0  0  0  0  0  0  0  0  0
   -9.1055   18.3041  -31.7362 H   0  0  0  0  0  0  0  0  0  0  0  0
   -8.1944   16.2722  -32.8439 H   0  0  0  0  0  0  0  0  0  0  0  0
   -5.9335   16.3133  -33.8675 H   0  0  0  0  0  0  0  0  0  0  0  0
   -3.5865   16.5219  -34.4445 H   0  0  0  0  0  0  0  0  0  0  0  0
   -4.7893   17.1627  -35.6147 H   0  0  0  0  0  0  0  0  0  0  0  0
   -3.1093   17.7985  -35.6147 H   0  0  0  0  0  0  0  0  0  0  0  0
   -1.6983   18.5092  -34.5625 H   0  0  0  0  0  0  0  0  0  0  0  0
   -0.1418   20.3627  -34.0359 H   0  0  0  0  0  0  0  0  0  0  0  0
   -0.9131   22.3066  -32.7080 H   0  0  0  0  0  0  0  0  0  0  0  0
   -3.4900   23.5810  -31.9090 H   0  0  0  0  0  0  0  0  0  0  0  0
   -4.2588   21.9733  -29.8342 H   0  0  0  0  0  0  0  0  0  0  0  0
   -2.4972   21.5809  -29.9434 H   0  0  0  0  0  0  0  0  0  0  0  0
   -3.3690   24.4718  -29.8686 H   0  0  0  0  0  0  0  0  0  0  0  0
   -3.3396   23.4805  -28.3392 H   0  0  0  0  0  0  0  0  0  0  0  0
   -1.0403   23.2342  -28.3701 H   0  0  0  0  0  0  0  0  0  0  0  0
   -0.9331   23.5414  -30.1531 H   0  0  0  0  0  0  0  0  0  0  0  0
   -0.8050   25.8490  -29.7590 H   0  0  0  0  0  0  0  0  0  0  0  0
    0.0591   27.5796  -28.1463 H   0  0  0  0  0  0  0  0  0  0  0  0
   -0.0788   28.5658  -25.8596 H   0  0  0  0  0  0  0  0  0  0  0  0
   -1.3662   27.4021  -24.0667 H   0  0  0  0  0  0  0  0  0  0  0  0
   -2.5181   25.2424  -24.5590 H   0  0  0  0  0  0  0  0  0  0  0  0
   -2.3897   24.2479  -26.8414 H   0  0  0  0  0  0  0  0  0  0  0  0
  1  2  1  0
  2  3  1  0
  3  4  1  0
  4  5  1  0
  5  6  1  0
  6  7  1  0
  7  8  2  0
  8  9  1  0
  9 10  2  0
 10 11  1  0
 11 12  2  0
 12 13  1  0
 13 14  2  0
 14 15  1  0
 14 16  1  0
 16 17  2  0
 17 18  1  0
 18 19  2  0
 19 20  1  0
 20 21  1  0
 21 22  1  0
 22 23  1  0
 23 24  1  0
 24 25  1  0
 25 26  1  0
 26 27  2  0
 27 28  1  0
 28 29  2  0
 29 30  1  0
 30 31  2  0
 20 32  2  0
 32  7  1  0
 13  8  1  0
 32 16  1  0
 31 26  1  0
  1 33  1  0
  1 34  1  0
  1 35  1  0
  2 36  1  0
  2 37  1  0
  3 38  1  0
  4 39  1  0
  4 40  1  0
  5 41  1  0
  5 42  1  0
  6 43  1  0
  6 44  1  0
  9 45  1  0
 10 46  1  0
 11 47  1  0
 12 48  1  0
 15 49  1  0
 15 50  1  0
 15 51  1  0
 17 52  1  0
 18 53  1  0
 19 54  1  0
 21 55  1  0
 22 56  1  0
 22 57  1  0
 23 58  1  0
 23 59  1  0
 24 60  1  0
 24 61  1  0
 25 62  1  0
 27 63  1  0
 28 64  1  0
 29 65  1  0
 30 66  1  0
 31 67  1  0
M  CHG  2   6   1  14   1
M  END
>  <UniqueID>  (1) 
1

>  <SMILES>  (1) 
CCNCC[NH2+]c1c2ccccc2[n+](C)c2cccc(NCCCNc3ccccc3)c12

>  <Energy>  (1) 
100.6914649157172

>  <Genealogy>  (1) 
CCNCC[NH2+]c1c2ccccc2[n+](C)c2cccc(NCCCNc3ccccc3)c12 (protonated)
CCNCC[NH2+]c1c2ccccc2[n+](C)c2cccc(NCCCNc3ccccc3)c12 (3D coordinates assigned)
CCNCC[NH2+]c1c2ccccc2[n+](C)c2cccc(NCCCNc3ccccc3)c12 (optimized conformer: 100.6914649157172 kcal/mol)

>  <smiles>  (1) 
CCNCCNc1c2ccccc2[n+](C)c2cccc(NCCCNc3ccccc3)c12

>  <score_type>  (1) 
oracle

>  <origin>  (1) 
adg

>  <m_score__min__energy>  (1) 
-8.4199999999999999

>  <m_primary>  (1) 
energy

$$$$
1:0
     RDKit          3D

 70 73  0  0  0  0  0  0  0  0999 V2000
   -6.6700   24.9710  -29.8370 C   0  0  0  0  0  0  0  0  0  0  0  0
   -5.6110   25.8590  -30.4830 C   0  0  0  0  0  0  0  0  0  0  0  0
   -4.6150   25.0350  -31.1840 N   0  0  0  0  0  0  0  0  0  0  0  0
   -3.9270   24.1210  -30.2620 C   0  0  0  0  0  0  0  0  0  0  0  0
   -4.3380   22.6710  -30.5500 C   0  0  0  0  0  0  0  0  0  0  0  0
   -4.8850   22.5260  -31.9180 N   0  0  0  0  0  0  0  0  0  0  0  0
   -5.5240   21.2340  -32.1360 C   0  0  0  0  0  0  0  0  0  0  0  0
   -6.9480   21.1510  -32.0710 C   0  0  0  0  0  0  0  0  0  0  0  0
   -7.7400   22.2500  -31.6490 C   0  0  0  0  0  0  0  0  0  0  0  0
   -9.1290   22.1690  -31.6010 C   0  0  0  0  0  0  0  0  0  0  0  0
   -9.7700   21.0050  -31.9920 C   0  0  0  0  0  0  0  0  0  0  0  0
   -9.0260   19.9130  -32.4260 C   0  0  0  0  0  0  0  0  0  0  0  0
   -7.6070   19.9520  -32.4590 C   0  0  0  0  0  0  0  0  0  0  0  0
   -6.8770   18.8760  -32.9110 N   0  0  0  0  0  0  0  0  0  0  0  0
   -7.5320   17.5590  -33.0840 C   0  0  0  0  0  0  0  0  0  0  0  0
   -5.5340   19.0130  -33.1810 C   0  0  0  0  0  0  0  0  0  0  0  0
   -4.8720   18.0820  -34.0130 C   0  0  0  0  0  0  0  0  0  0  0  0
   -3.5010   18.1350  -34.1990 C   0  0  0  0  0  0  0  0  0  0  0  0
   -2.7460   19.0660  -33.5100 C   0  0  0  0  0  0  0  0  0  0  0  0
   -3.3580   20.0400  -32.7040 C   0  0  0  0  0  0  0  0  0  0  0  0
   -2.5320   20.7740  -31.7810 N   0  0  0  0  0  0  0  0  0  0  0  0
   -1.3250   21.5370  -32.1340 C   0  0  0  0  0  0  0  0  0  0  0  0
   -0.4250   21.8200  -30.9200 C   0  0  0  0  0  0  0  0  0  0  0  0
   -1.1890   22.0390  -29.6010 C   0  0  0  0  0  0  0  0  0  0  0  0
   -1.8950   20.8170  -29.1530 N   0  0  0  0  0  0  0  0  0  0  0  0
   -0.9640   19.6620  -29.0390 C   0  0  0  0  0  0  0  0  0  0  0  0
   -0.4680   19.4490  -27.6030 C   0  0  0  0  0  0  0  0  0  0  0  0
   -1.6400   19.1590  -26.6500 C   0  0  0  0  0  0  0  0  0  0  0  0
   -2.9600   19.7840  -27.1300 C   0  0  0  0  0  0  0  0  0  0  0  0
   -2.7020   21.0670  -27.9300 C   0  0  0  0  0  0  0  0  0  0  0  0
   -4.7930   20.1110  -32.6460 C   0  0  0  0  0  0  0  0  0  0  0  0
   -6.5880   25.0397  -28.7422 H   0  0  0  0  0  0  0  0  0  0  0  0
   -7.6699   25.3047  -30.1515 H   0  0  0  0  0  0  0  0  0  0  0  0
   -6.5157   23.9283  -30.1515 H   0  0  0  0  0  0  0  0  0  0  0  0
   -6.0944   26.5355  -31.2032 H   0  0  0  0  0  0  0  0  0  0  0  0
   -5.1059   26.4428  -29.6994 H   0  0  0  0  0  0  0  0  0  0  0  0
   -3.8940   25.6770  -31.5890 H   0  0  0  0  0  0  0  0  0  0  0  0
   -2.8396   24.2234  -30.3926 H   0  0  0  0  0  0  0  0  0  0  0  0
   -4.2063   24.3752  -29.2289 H   0  0  0  0  0  0  0  0  0  0  0  0
   -3.4561   22.0218  -30.4466 H   0  0  0  0  0  0  0  0  0  0  0  0
   -5.1205   22.3839  -29.8321 H   0  0  0  0  0  0  0  0  0  0  0  0
   -5.5840   23.2770  -32.1190 H   0  0  0  0  0  0  0  0  0  0  0  0
   -4.1440   22.7160  -32.6180 H   0  0  0  0  0  0  0  0  0  0  0  0
   -7.2455   23.1870  -31.3531 H   0  0  0  0  0  0  0  0  0  0  0  0
   -9.7180   23.0301  -31.2523 H   0  0  0  0  0  0  0  0  0  0  0  0
  -10.8678   20.9443  -31.9592 H   0  0  0  0  0  0  0  0  0  0  0  0
   -9.5475   19.0004  -32.7503 H   0  0  0  0  0  0  0  0  0  0  0  0
   -7.7481   17.1245  -32.0968 H   0  0  0  0  0  0  0  0  0  0  0  0
   -8.4714   17.6871  -33.6418 H   0  0  0  0  0  0  0  0  0  0  0  0
   -6.8630   16.8872  -33.6418 H   0  0  0  0  0  0  0  0  0  0  0  0
   -5.4564   17.3013  -34.5219 H   0  0  0  0  0  0  0  0  0  0  0  0
   -3.0127   17.4367  -34.8946 H   0  0  0  0  0  0  0  0  0  0  0  0
   -1.6495   19.0436  -33.5943 H   0  0  0  0  0  0  0  0  0  0  0  0
   -2.6580   20.5410  -30.7740 H   0  0  0  0  0  0  0  0  0  0  0  0
   -0.7483   20.9611  -32.8728 H   0  0  0  0  0  0  0  0  0  0  0  0
   -1.6515   22.5065  -32.5384 H   0  0  0  0  0  0  0  0  0  0  0  0
    0.2531   20.9641  -30.7871 H   0  0  0  0  0  0  0  0  0  0  0  0
    0.1072   22.7584  -31.1349 H   0  0  0  0  0  0  0  0  0  0  0  0
   -0.4724   22.3394  -28.8224 H   0  0  0  0  0  0  0  0  0  0  0  0
   -1.9437   22.8203  -29.7741 H   0  0  0  0  0  0  0  0  0  0  0  0
   -1.4871   18.7528  -29.3704 H   0  0  0  0  0  0  0  0  0  0  0  0
   -0.0872   19.8751  -29.6681 H   0  0  0  0  0  0  0  0  0  0  0  0
    0.2282   18.5975  -27.5859 H   0  0  0  0  0  0  0  0  0  0  0  0
    0.0363   20.3673  -27.2676 H   0  0  0  0  0  0  0  0  0  0  0  0
   -1.7724   18.0695  -26.5756 H   0  0  0  0  0  0  0  0  0  0  0  0
   -1.3950   19.6051  -25.6748 H   0  0  0  0  0  0  0  0  0  0  0  0
   -3.4885   19.0616  -27.7694 H   0  0  0  0  0  0  0  0  0  0  0  0
   -3.5687   20.0367  -26.2493 H   0  0  0  0  0  0  0  0  0  0  0  0
   -3.6690   21.4993  -28.2266 H   0  0  0  0  0  0  0  0  0  0  0  0
   -2.1341   21.7557  -27.2872 H   0  0  0  0  0  0  0  0  0  0  0  0
  1  2  1  0
  2  3  1  0
  3  4  1  0
  4  5  1  0
  5  6  1  0
  6  7  1  0
  7  8  2  0
  8  9  1  0
  9 10  2  0
 10 11  1  0
 11 12  2  0
 12 13  1  0
 13 14  2  0
 14 15  1  0
 14 16  1  0
 16 17  2  0
 17 18  1  0
 18 19  2  0
 19 20  1  0
 20 21  1  0
 21 22  1  0
 22 23  1  0
 23 24  1  0
 24 25  1  0
 25 26  1  0
 26 27  1  0
 27 28  1  0
 28 29  1  0
 29 30  1  0
 20 31  2  0
 31  7  1  0
 13  8  1  0
 31 16  1  0
 30 25  1  0
  1 32  1  0
  1 33  1  0
  1 34  1  0
  2 35  1  0
  2 36  1  0
  3 37  1  0
  4 38  1  0
  4 39  1  0
  5 40  1  0
  5 41  1  0
  6 42  1  0
  6 43  1  0
  9 44  1  0
 10 45  1  0
 11 46  1  0
 12 47  1  0
 15 48  1  0
 15 49  1  0
 15 50  1  0
 17 51  1  0
 18 52  1  0
 19 53  1  0
 21 54  1  0
 22 55  1  0
 22 56  1  0
 23 57  1  0
 23 58  1  0
 24 59  1  0
 24 60  1  0
 26 61  1  0
 26 62  1  0
 27 63  1  0
 27 64  1  0
 28 65  1  0
 28 66  1  0
 29 67  1  0
 29 68  1  0
 30 69  1  0
 30 70  1  0
M  CHG  2   6   1  14   1
M  END
>  <UniqueID>  (2) 
2

>  <SMILES>  (2) 
CCNCC[NH2+]c1c2ccccc2[n+](C)c2cccc(NCCCN3CCCCC3)c12

>  <Energy>  (2) 
113.56998667109261

>  <Genealogy>  (2) 
CCNCC[NH2+]c1c2ccccc2[n+](C)c2cccc(NCCCN3CCCCC3)c12 (protonated)
CCNCC[NH2+]c1c2ccccc2[n+](C)c2cccc(NCCCN3CCCCC3)c12 (3D coordinates assigned)
CCNCC[NH2+]c1c2ccccc2[n+](C)c2cccc(NCCCN3CCCCC3)c12 (nonaromatic ring conformer: 113.56998667109261 kcal/mol)

>  <smiles>  (2) 
CCNCCNc1c2ccccc2[n+](C)c2cccc(NCCCN3CCCCC3)c12

>  <score_type>  (2) 
oracle

>  <origin>  (2) 
adg

>  <m_score__min__energy>  (2) 
-8.8399999999999999

>  <m_primary>  (2) 
energy

$$$$
2:0
     RDKit          3D

 41 42  0  0  0  0  0  0  0  0999 V2000
   -4.6010   23.8420  -28.8790 C   0  0  0  0  0  0  0  0  0  0  0  0
   -3.7640   24.4970  -29.9830 C   0  0  0  0  0  0  0  0  0  0  0  0
   -4.5520   24.7860  -31.1920 N   0  0  0  0  0  0  0  0  0  0  0  0
   -5.9890   24.9080  -30.9050 C   0  0  0  0  0  0  0  0  0  0  0  0
   -6.7490   23.6670  -31.3980 C   0  0  0  0  0  0  0  0  0  0  0  0
   -6.1990   23.1550  -32.6670 N   0  0  0  0  0  0  0  0  0  0  0  0
   -5.9290   21.7220  -32.7130 C   0  0  0  0  0  0  0  0  0  0  0  0
   -4.6400   21.2060  -32.9500 C   0  0  0  0  0  0  0  0  0  0  0  0
   -4.4190   19.8370  -32.9880 C   0  0  0  0  0  0  0  0  0  0  0  0
   -5.4360   18.9430  -32.8170 N   0  0  0  0  0  0  0  0  0  0  0  0
   -5.0850   17.5090  -32.8780 C   0  0  0  0  0  0  0  0  0  0  0  0
   -5.4610   16.9170  -34.2350 C   0  0  0  0  0  0  0  0  0  0  0  0
   -6.7200   19.3910  -32.5740 C   0  0  0  0  0  0  0  0  0  0  0  0
   -7.7950   18.4920  -32.3550 C   0  0  0  0  0  0  0  0  0  0  0  0
   -9.0900   18.9590  -32.1380 C   0  0  0  0  0  0  0  0  0  0  0  0
   -9.3520   20.3220  -32.1330 C   0  0  0  0  0  0  0  0  0  0  0  0
   -8.3180   21.2330  -32.3300 C   0  0  0  0  0  0  0  0  0  0  0  0
   -6.9910   20.7930  -32.5390 C   0  0  0  0  0  0  0  0  0  0  0  0
   -4.2129   24.1457  -27.8956 H   0  0  0  0  0  0  0  0  0  0  0  0
   -5.6490   24.1624  -28.9745 H   0  0  0  0  0  0  0  0  0  0  0  0
   -4.5419   22.7477  -28.9745 H   0  0  0  0  0  0  0  0  0  0  0  0
   -3.3494   25.4405  -29.5984 H   0  0  0  0  0  0  0  0  0  0  0  0
   -2.9692   23.7902  -30.2634 H   0  0  0  0  0  0  0  0  0  0  0  0
   -4.2090   25.6820  -31.6090 H   0  0  0  0  0  0  0  0  0  0  0  0
   -6.1328   25.0117  -29.8194 H   0  0  0  0  0  0  0  0  0  0  0  0
   -6.3801   25.7930  -31.4283 H   0  0  0  0  0  0  0  0  0  0  0  0
   -6.6760   22.8784  -30.6346 H   0  0  0  0  0  0  0  0  0  0  0  0
   -7.7965   23.9545  -31.5712 H   0  0  0  0  0  0  0  0  0  0  0  0
   -6.8920   23.3770  -33.4190 H   0  0  0  0  0  0  0  0  0  0  0  0
   -5.3000   23.6510  -32.8630 H   0  0  0  0  0  0  0  0  0  0  0  0
   -3.7985   21.8968  -33.1068 H   0  0  0  0  0  0  0  0  0  0  0  0
   -3.3990   19.4628  -33.1602 H   0  0  0  0  0  0  0  0  0  0  0  0
   -4.0020   17.3957  -32.7225 H   0  0  0  0  0  0  0  0  0  0  0  0
   -5.6418   16.9755  -32.0935 H   0  0  0  0  0  0  0  0  0  0  0  0
   -6.0452   15.9972  -34.0846 H   0  0  0  0  0  0  0  0  0  0  0  0
   -6.0624   17.6453  -34.7988 H   0  0  0  0  0  0  0  0  0  0  0  0
   -4.5461   16.6822  -34.7988 H   0  0  0  0  0  0  0  0  0  0  0  0
   -7.6035   17.4088  -32.3565 H   0  0  0  0  0  0  0  0  0  0  0  0
   -9.9086   18.2438  -31.9698 H   0  0  0  0  0  0  0  0  0  0  0  0
  -10.3787   20.6831  -31.9731 H   0  0  0  0  0  0  0  0  0  0  0  0
   -8.5368   22.3110  -32.3229 H   0  0  0  0  0  0  0  0  0  0  0  0
  1  2  1  0
  2  3  1  0
  3  4  1  0
  4  5  1  0
  5  6  1  0
  6  7  1  0
  7  8  2  0
  8  9  1  0
  9 10  2  0
 10 11  1  0
 11 12  1  0
 10 13  1  0
 13 14  2  0
 14 15  1  0
 15 16  2  0
 16 17  1  0
 17 18  2  0
 18  7  1  0
 18 13  1  0
  1 19  1  0
  1 20  1  0
  1 21  1  0
  2 22  1  0
  2 23  1  0
  3 24  1  0
  4 25  1  0
  4 26  1  0
  5 27  1  0
  5 28  1  0
  6 29  1  0
  6 30  1  0
  8 31  1  0
  9 32  1  0
 11 33  1  0
 11 34  1  0
 12 35  1  0
 12 36  1  0
 12 37  1  0
 14 38  1  0
 15 39  1  0
 16 40  1  0
 17 41  1  0
M  CHG  2   6   1  10   1
M  END
>  <UniqueID>  (3) 
3

>  <SMILES>  (3) 
CCNCC[NH2+]c1cc[n+](CC)c2ccccc12

>  <Energy>  (3) 
51.87003740936802

>  <Genealogy>  (3) 
CCNCC[NH2+]c1cc[n+](CC)c2ccccc12 (protonated)
CCNCC[NH2+]c1cc[n+](CC)c2ccccc12 (3D coordinates assigned)
CCNCC[NH2+]c1cc[n+](CC)c2ccccc12 (optimized conformer: 51.87003740936802 kcal/mol)

>  <smiles>  (3) 
CCNCCNc1cc[n+](CC)c2ccccc12

>  <score_type>  (3) 
oracle

>  <origin>  (3) 
adg

>  <m_score__min__energy>  (3) 
-6.4699999999999998

>  <m_primary>  (3) 
energy

$$$$
3:0
     RDKit          3D

 66 67  0  0  0  0  0  0  0  0999 V2000
   -0.9320   29.4700  -25.1780 C   0  0  0  0  0  0  0  0  0  0  0  0
   -0.6680   28.0710  -25.7580 C   0  0  0  0  0  0  0  0  0  0  0  0
   -1.5020   26.9880  -25.1670 N   0  0  0  0  0  0  0  0  0  0  0  0
   -0.8170   26.2450  -24.0750 C   0  0  0  0  0  0  0  0  0  0  0  0
   -0.5150   24.7860  -24.4390 C   0  0  0  0  0  0  0  0  0  0  0  0
   -1.9900   26.0600  -26.2250 C   0  0  0  0  0  0  0  0  0  0  0  0
   -1.2050   26.1620  -27.5510 C   0  0  0  0  0  0  0  0  0  0  0  0
   -1.9560   25.6820  -28.6510 O   0  0  0  0  0  0  0  0  0  0  0  0
   -1.9310   24.2680  -28.7250 C   0  0  0  0  0  0  0  0  0  0  0  0
   -3.0440   23.6550  -27.8510 C   0  0  1  0  0  0  0  0  0  0  0  0
   -4.2340   24.3930  -28.0040 O   0  0  0  0  0  0  0  0  0  0  0  0
   -3.2660   22.1540  -28.2180 C   0  0  0  0  0  0  0  0  0  0  0  0
   -2.1700   21.1930  -27.8450 N   0  0  0  0  0  0  0  0  0  0  0  0
   -2.7260   19.8540  -27.5320 C   0  0  0  0  0  0  0  0  0  0  0  0
   -1.4310   21.7190  -26.6650 C   0  0  0  0  0  0  0  0  0  0  0  0
   -1.2450   21.1190  -29.0270 C   0  0  0  0  0  0  0  0  0  0  0  0
   -1.8910   20.8420  -30.4180 C   0  0  0  0  0  0  0  0  0  0  0  0
   -2.2760   22.1140  -31.1950 C   0  0  0  0  0  0  0  0  0  0  0  0
   -3.7220   22.2170  -31.3800 N   0  0  0  0  0  0  0  0  0  0  0  0
   -4.5540   23.3590  -31.1570 C   0  0  0  0  0  0  0  0  0  0  0  0
   -4.1310   24.4880  -30.7890 O   0  0  0  0  0  0  0  0  0  0  0  0
   -5.9480   23.0150  -31.4180 C   0  0  0  0  0  0  0  0  0  0  0  0
   -7.1090   23.7820  -31.3230 C   0  0  0  0  0  0  0  0  0  0  0  0
   -8.3340   23.1640  -31.6340 C   0  0  0  0  0  0  0  0  0  0  0  0
   -8.3740   21.8070  -32.0260 C   0  0  0  0  0  0  0  0  0  0  0  0
   -7.1900   21.0530  -32.1100 C   0  0  0  0  0  0  0  0  0  0  0  0
   -5.9880   21.6890  -31.8030 C   0  0  0  0  0  0  0  0  0  0  0  0
   -4.6210   21.1800  -31.7850 C   0  0  0  0  0  0  0  0  0  0  0  0
   -4.2680   20.0030  -32.0690 O   0  0  0  0  0  0  0  0  0  0  0  0
   -0.9224   29.4192  -24.0792 H   0  0  0  0  0  0  0  0  0  0  0  0
   -0.1487   30.1625  -25.5199 H   0  0  0  0  0  0  0  0  0  0  0  0
   -1.9138   29.8294  -25.5199 H   0  0  0  0  0  0  0  0  0  0  0  0
   -0.8657   28.1050  -26.8396 H   0  0  0  0  0  0  0  0  0  0  0  0
    0.3772   27.8260  -25.5182 H   0  0  0  0  0  0  0  0  0  0  0  0
   -2.3310   27.4700  -24.7480 H   0  0  0  0  0  0  0  0  0  0  0  0
    0.1318   26.7529  -23.8473 H   0  0  0  0  0  0  0  0  0  0  0  0
   -1.4956   26.2339  -23.2093 H   0  0  0  0  0  0  0  0  0  0  0  0
   -0.3929   24.1962  -23.5186 H   0  0  0  0  0  0  0  0  0  0  0  0
   -1.3472   24.3757  -25.0298 H   0  0  0  0  0  0  0  0  0  0  0  0
    0.4118   24.7398  -25.0298 H   0  0  0  0  0  0  0  0  0  0  0  0
   -1.9047   25.0296  -25.8494 H   0  0  0  0  0  0  0  0  0  0  0  0
   -3.0302   26.3420  -26.4449 H   0  0  0  0  0  0  0  0  0  0  0  0
   -0.9467   27.2161  -27.7304 H   0  0  0  0  0  0  0  0  0  0  0  0
   -0.3019   25.5406  -27.4595 H   0  0  0  0  0  0  0  0  0  0  0  0
   -2.0812   23.9587  -29.7699 H   0  0  0  0  0  0  0  0  0  0  0  0
   -0.9572   23.9125  -28.3571 H   0  0  0  0  0  0  0  0  0  0  0  0
   -2.7365   23.7015  -26.7959 H   0  0  0  0  0  0  0  0  0  0  0  0
   -4.0660   25.1030  -28.6780 H   0  0  0  0  0  0  0  0  0  0  0  0
   -4.1855   21.8212  -27.7143 H   0  0  0  0  0  0  0  0  0  0  0  0
   -3.3065   22.1304  -29.3170 H   0  0  0  0  0  0  0  0  0  0  0  0
   -2.7795   19.7251  -26.4409 H   0  0  0  0  0  0  0  0  0  0  0  0
   -3.7349   19.7664  -27.9615 H   0  0  0  0  0  0  0  0  0  0  0  0
   -2.0759   19.0775  -27.9615 H   0  0  0  0  0  0  0  0  0  0  0  0
   -1.9188   21.3718  -25.7422 H   0  0  0  0  0  0  0  0  0  0  0  0
   -0.3932   21.3553  -26.6903 H   0  0  0  0  0  0  0  0  0  0  0  0
   -1.4348   22.8187  -26.6903 H   0  0  0  0  0  0  0  0  0  0  0  0
   -0.7148   22.0805  -29.0935 H   0  0  0  0  0  0  0  0  0  0  0  0
   -0.6038   20.2467  -28.8323 H   0  0  0  0  0  0  0  0  0  0  0  0
   -1.1735   20.2701  -31.0247 H   0  0  0  0  0  0  0  0  0  0  0  0
   -2.8235   20.2893  -30.2310 H   0  0  0  0  0  0  0  0  0  0  0  0
   -1.9245   22.9936  -30.6357 H   0  0  0  0  0  0  0  0  0  0  0  0
   -1.8057   22.0649  -32.1882 H   0  0  0  0  0  0  0  0  0  0  0  0
   -7.0681   24.8371  -31.0146 H   0  0  0  0  0  0  0  0  0  0  0  0
   -9.2680   23.7417  -31.5715 H   0  0  0  0  0  0  0  0  0  0  0  0
   -9.3387   21.3368  -32.2673 H   0  0  0  0  0  0  0  0  0  0  0  0
   -7.2116   19.9945  -32.4086 H   0  0  0  0  0  0  0  0  0  0  0  0
  1  2  1  0
  2  3  1  0
  3  4  1  0
  4  5  1  0
  3  6  1  0
  6  7  1  0
  7  8  1  0
  8  9  1  0
  9 10  1  0
 10 11  1  0
 10 12  1  0
 12 13  1  0
 13 14  1  0
 13 15  1  0
 13 16  1  0
 16 17  1  0
 17 18  1  0
 18 19  1  0
 19 20  1  0
 20 21  2  0
 20 22  1  0
 22 23  2  0
 23 24  1  0
 24 25  2  0
 25 26  1  0
 26 27  2  0
 27 28  1  0
 28 29  2  0
 28 19  1  0
 27 22  1  0
  1 30  1  0
  1 31  1  0
  1 32  1  0
  2 33  1  0
  2 34  1  0
  3 35  1  0
  4 36  1  0
  4 37  1  0
  5 38  1  0
  5 39  1  0
  5 40  1  0
  6 41  1  0
  6 42  1  0
  7 43  1  0
  7 44  1  0
  9 45  1  0
  9 46  1  0
 10 47  1  1
 11 48  1  0
 12 49  1  0
 12 50  1  0
 14 51  1  0
 14 52  1  0
 14 53  1  0
 15 54  1  0
 15 55  1  0
 15 56  1  0
 16 57  1  0
 16 58  1  0
 17 59  1  0
 17 60  1  0
 18 61  1  0
 18 62  1  0
 23 63  1  0
 24 64  1  0
 25 65  1  0
 26 66  1  0
M  CHG  2   3   1  13   1
M  END
>  <UniqueID>  (4) 
4

>  <SMILES>  (4) 
CC[NH+](CC)CCOC[C@@H](O)C[N+](C)(C)CCCN1C(=O)c2ccccc2C1=O

>  <Energy>  (4) 
115.86235472452354

>  <Genealogy>  (4) 
CC[NH+](CC)CCOCC(O)C[N+](C)(C)CCCN1C(=O)c2ccccc2C1=O (protonated)
CC[NH+](CC)CCOC[C@@H](O)C[N+](C)(C)CCCN1C(=O)c2ccccc2C1=O (chirality)
CC[NH+](CC)CCOC[C@@H](O)C[N+](C)(C)CCCN1C(=O)c2ccccc2C1=O (3D coordinates assigned)
CC[NH+](CC)CCOC[C@@H](O)C[N+](C)(C)CCCN1C(=O)c2ccccc2C1=O (nonaromatic ring conformer: 115.86235472452354 kcal/mol)

>  <smiles>  (4) 
CCN(CC)CCOCC(O)C[N+](C)(C)CCCN1C(=O)c2ccccc2C1=O

>  <score_type>  (4) 
oracle

>  <origin>  (4) 
adg

>  <m_score__min__energy>  (4) 
-7.5999999999999996

>  <m_primary>  (4) 
energy

$$$$
4:0
     RDKit          3D

 40 42  0  0  0  0  0  0  0  0999 V2000
   -2.3060   18.7720  -34.1890 C   0  0  0  0  0  0  0  0  0  0  0  0
   -3.2790   19.7920  -33.8130 N   0  0  0  0  0  0  0  0  0  0  0  0
   -3.0540   21.1020  -33.8440 N   0  0  0  0  0  0  0  0  0  0  0  0
   -4.1560   21.7560  -33.4090 C   0  0  0  0  0  0  0  0  0  0  0  0
   -5.1070   20.8060  -33.0940 C   0  0  0  0  0  0  0  0  0  0  0  0
   -6.3960   20.9190  -32.5860 C   0  0  0  0  0  0  0  0  0  0  0  0
   -7.1110   19.7250  -32.3330 C   0  0  0  0  0  0  0  0  0  0  0  0
   -8.4940   19.7790  -31.7210 C   0  0  0  0  0  0  0  0  0  0  0  0
   -8.7270   21.0520  -31.0200 N   0  0  0  0  0  0  0  0  0  0  0  0
   -9.2260   22.1010  -31.9280 C   0  0  0  0  0  0  0  0  0  0  0  0
   -8.3170   23.3380  -31.9240 C   0  0  0  0  0  0  0  0  0  0  0  0
   -7.6080   23.4550  -30.6880 O   0  0  0  0  0  0  0  0  0  0  0  0
   -6.2320   23.7030  -30.5550 C   0  0  0  0  0  0  0  0  0  0  0  0
   -5.4290   22.7130  -29.9790 C   0  0  0  0  0  0  0  0  0  0  0  0
   -4.0560   22.9150  -29.8360 C   0  0  0  0  0  0  0  0  0  0  0  0
   -3.4940   24.1150  -30.2730 C   0  0  0  0  0  0  0  0  0  0  0  0
   -4.2830   25.0750  -30.8230 N   0  0  0  0  0  0  0  0  0  0  0  0
   -5.6240   24.9020  -30.9700 C   0  0  0  0  0  0  0  0  0  0  0  0
   -6.5070   18.4690  -32.6060 C   0  0  0  0  0  0  0  0  0  0  0  0
   -5.2000   18.3960  -33.1240 C   0  0  0  0  0  0  0  0  0  0  0  0
   -4.5280   19.5950  -33.3550 C   0  0  0  0  0  0  0  0  0  0  0  0
   -1.8770   18.3223  -33.2814 H   0  0  0  0  0  0  0  0  0  0  0  0
   -2.8036   17.9924  -34.7845 H   0  0  0  0  0  0  0  0  0  0  0  0
   -1.5038   19.2323  -34.7845 H   0  0  0  0  0  0  0  0  0  0  0  0
   -2.1590   21.5470  -34.1480 H   0  0  0  0  0  0  0  0  0  0  0  0
   -4.2728   22.8463  -33.3222 H   0  0  0  0  0  0  0  0  0  0  0  0
   -6.8447   21.9035  -32.3875 H   0  0  0  0  0  0  0  0  0  0  0  0
   -9.2423   19.6691  -32.5197 H   0  0  0  0  0  0  0  0  0  0  0  0
   -8.5783   18.9625  -30.9887 H   0  0  0  0  0  0  0  0  0  0  0  0
   -7.8420   21.3440  -30.5430 H   0  0  0  0  0  0  0  0  0  0  0  0
   -9.2712   21.6957  -32.9496 H   0  0  0  0  0  0  0  0  0  0  0  0
  -10.2233   22.4084  -31.5801 H   0  0  0  0  0  0  0  0  0  0  0  0
   -7.5919   23.2530  -32.7468 H   0  0  0  0  0  0  0  0  0  0  0  0
   -8.9451   24.2320  -32.0511 H   0  0  0  0  0  0  0  0  0  0  0  0
   -5.8822   21.7708  -29.6372 H   0  0  0  0  0  0  0  0  0  0  0  0
   -3.4235   22.1369  -29.3838 H   0  0  0  0  0  0  0  0  0  0  0  0
   -2.4117   24.2840  -30.1723 H   0  0  0  0  0  0  0  0  0  0  0  0
   -6.2348   25.7016  -31.4145 H   0  0  0  0  0  0  0  0  0  0  0  0
   -7.0668   17.5425  -32.4105 H   0  0  0  0  0  0  0  0  0  0  0  0
   -4.7259   17.4269  -33.3388 H   0  0  0  0  0  0  0  0  0  0  0  0
  1  2  1  0
  2  3  1  0
  3  4  2  0
  4  5  1  0
  5  6  2  0
  6  7  1  0
  7  8  1  0
  8  9  1  0
  9 10  1  0
 10 11  1  0
 11 12  1  0
 12 13  1  0
 13 14  2  0
 14 15  1  0
 15 16  2  0
 16 17  1  0
 17 18  2  0
  7 19  2  0
 19 20  1  0
 20 21  2  0
 21  2  1  0
 21  5  1  0
 18 13  1  0
  1 22  1  0
  1 23  1  0
  1 24  1  0
  3 25  1  0
  4 26  1  0
  6 27  1  0
  8 28  1  0
  8 29  1  0
  9 30  1  0
 10 31  1  0
 10 32  1  0
 11 33  1  0
 11 34  1  0
 14 35  1  0
 15 36  1  0
 16 37  1  0
 18 38  1  0
 19 39  1  0
 20 40  1  0
M  CHG  1   3   1
M  END
>  <UniqueID>  (5) 
5

>  <SMILES>  (5) 
Cn1[nH+]cc2cc(CNCCOc3cccnc3)ccc21

>  <Energy>  (5) 
76.37959703297449

>  <Genealogy>  (5) 
Cn1[nH+]cc2cc(CNCCOc3cccnc3)ccc21 (protonated)
Cn1[nH+]cc2cc(CNCCOc3cccnc3)ccc21 (3D coordinates assigned)
Cn1[nH+]cc2cc(CNCCOc3cccnc3)ccc21 (optimized conformer: 76.37959703297449 kcal/mol)

>  <smiles>  (5) 
Cn1ncc2cc(CNCCOc3cccnc3)ccc21

>  <score_type>  (5) 
oracle

>  <origin>  (5) 
adg

>  <m_score__min__energy>  (5) 
-7.75

>  <m_primary>  (5) 
energy

$$$$
5:0
     RDKit          3D

 39 39  0  0  0  0  0  0  0  0999 V2000
   -6.8520   15.8070  -34.1880 C   0  0  0  0  0  0  0  0  0  0  0  0
   -5.4260   15.8030  -33.6160 C   0  0  0  0  0  0  0  0  0  0  0  0
   -4.4110   16.3380  -34.5630 N   0  0  0  0  0  0  0  0  0  0  0  0
   -3.5060   15.2370  -35.0180 C   0  0  0  0  0  0  0  0  0  0  0  0
   -2.2440   15.7750  -35.6990 C   0  0  0  0  0  0  0  0  0  0  0  0
   -3.6390   17.4440  -33.9370 C   0  0  0  0  0  0  0  0  0  0  0  0
   -4.5120   18.3200  -33.0250 C   0  0  0  0  0  0  0  0  0  0  0  0
   -5.5900   19.3640  -33.9920 S   0  0  0  0  0  0  0  0  0  0  0  0
   -6.1030   18.5350  -35.3590 O   0  0  0  0  0  0  0  0  0  0  0  0
   -6.9910   19.9780  -33.0650 C   0  0  0  0  0  0  0  0  0  0  0  0
   -6.6670   21.2930  -32.4000 C   0  0  0  0  0  0  0  0  0  0  0  0
   -5.3430   21.7660  -32.4310 C   0  0  0  0  0  0  0  0  0  0  0  0
   -4.9980   22.9580  -31.7900 C   0  0  0  0  0  0  0  0  0  0  0  0
   -5.9700   23.6940  -31.1110 C   0  0  0  0  0  0  0  0  0  0  0  0
   -5.4960   25.3230  -30.2350 Br  0  0  0  0  0  0  0  0  0  0  0  0
   -7.2910   23.2390  -31.0750 C   0  0  0  0  0  0  0  0  0  0  0  0
   -7.6490   22.0440  -31.7120 C   0  0  0  0  0  0  0  0  0  0  0  0
   -9.4890   21.5060  -31.6280 Br  0  0  0  0  0  0  0  0  0  0  0  0
   -7.5784   15.8090  -33.3620 H   0  0  0  0  0  0  0  0  0  0  0  0
   -6.9967   16.7056  -34.8058 H   0  0  0  0  0  0  0  0  0  0  0  0
   -7.0018   14.9093  -34.8058 H   0  0  0  0  0  0  0  0  0  0  0  0
   -5.4133   16.4198  -32.7053 H   0  0  0  0  0  0  0  0  0  0  0  0
   -5.1601   14.7556  -33.4107 H   0  0  0  0  0  0  0  0  0  0  0  0
   -4.9340   16.7290  -35.3830 H   0  0  0  0  0  0  0  0  0  0  0  0
   -3.2099   14.6372  -34.1448 H   0  0  0  0  0  0  0  0  0  0  0  0
   -4.0545   14.6283  -35.7519 H   0  0  0  0  0  0  0  0  0  0  0  0
   -1.5177   16.0846  -34.9331 H   0  0  0  0  0  0  0  0  0  0  0  0
   -1.8018   14.9872  -36.3265 H   0  0  0  0  0  0  0  0  0  0  0  0
   -2.5062   16.6396  -36.3265 H   0  0  0  0  0  0  0  0  0  0  0  0
   -2.8239   17.0118  -33.3380 H   0  0  0  0  0  0  0  0  0  0  0  0
   -3.2492   18.0817  -34.7441 H   0  0  0  0  0  0  0  0  0  0  0  0
   -5.1221   17.6718  -32.3788 H   0  0  0  0  0  0  0  0  0  0  0  0
   -3.8555   18.9589  -32.4160 H   0  0  0  0  0  0  0  0  0  0  0  0
   -6.8440   19.0850  -35.7170 H   0  0  0  0  0  0  0  0  0  0  0  0
   -7.8401   20.1210  -33.7495 H   0  0  0  0  0  0  0  0  0  0  0  0
   -7.2430   19.2444  -32.2851 H   0  0  0  0  0  0  0  0  0  0  0  0
   -4.5717   21.1917  -32.9652 H   0  0  0  0  0  0  0  0  0  0  0  0
   -3.9587   23.3171  -31.8204 H   0  0  0  0  0  0  0  0  0  0  0  0
   -8.0554   23.8238  -30.5424 H   0  0  0  0  0  0  0  0  0  0  0  0
  1  2  1  0
  2  3  1  0
  3  4  1  0
  4  5  1  0
  3  6  1  0
  6  7  1  0
  7  8  1  0
  8  9  1  6
  8 10  1  0
 10 11  1  0
 11 12  2  0
 12 13  1  0
 13 14  2  0
 14 15  1  0
 14 16  1  0
 16 17  2  0
 17 18  1  0
 17 11  1  0
  1 19  1  0
  1 20  1  0
  1 21  1  0
  2 22  1  0
  2 23  1  0
  3 24  1  0
  4 25  1  0
  4 26  1  0
  5 27  1  0
  5 28  1  0
  5 29  1  0
  6 30  1  0
  6 31  1  0
  7 32  1  0
  7 33  1  0
  9 34  1  0
 10 35  1  0
 10 36  1  0
 12 37  1  0
 13 38  1  0
 16 39  1  0
M  CHG  2   3   1   8   1
M  END
>  <UniqueID>  (6) 
6

>  <SMILES>  (6) 
CC[NH+](CC)CC[S@@+](O)Cc1ccc(Br)cc1Br

>  <Energy>  (6) 
32.012341220134644

>  <Genealogy>  (6) 
CC[NH+](CC)CC[S+](O)Cc1ccc(Br)cc1Br (protonated)
CC[NH+](CC)CC[S@@+](O)Cc1ccc(Br)cc1Br (chirality)
CC[NH+](CC)CC[S@@+](O)Cc1ccc(Br)cc1Br (3D coordinates assigned)
CC[NH+](CC)CC[S@@+](O)Cc1ccc(Br)cc1Br (optimized conformer: 32.012341220134644 kcal/mol)

>  <smiles>  (6) 
CCN(CC)CC[S+]([O-])Cc1ccc(Br)cc1Br

>  <score_type>  (6) 
oracle

>  <origin>  (6) 
adg

>  <m_score__min__energy>  (6) 
-6.5499999999999998

>  <m_primary>  (6) 
energy

$$$$
6:0
     RDKit          3D

 57 60  0  0  0  0  0  0  0  0999 V2000
   -4.3350   21.6830  -32.0360 C   0  0  0  0  0  0  0  0  0  0  0  0
   -4.5490   23.0620  -31.6170 N   0  0  0  0  0  0  0  0  0  0  0  0
   -3.6860   23.7960  -30.9410 N   0  0  0  0  0  0  0  0  0  0  0  0
   -4.2240   24.9870  -30.7240 N   0  0  0  0  0  0  0  0  0  0  0  0
   -5.4400   25.0420  -31.2540 N   0  0  0  0  0  0  0  0  0  0  0  0
   -5.6300   23.8330  -31.8130 C   0  0  0  0  0  0  0  0  0  0  0  0
   -7.1280   23.3300  -32.6620 S   0  0  0  0  0  0  0  0  0  0  0  0
   -8.0890   23.0310  -31.1330 C   0  0  0  0  0  0  0  0  0  0  0  0
   -8.3630   21.5400  -30.9040 C   0  0  0  0  0  0  0  0  0  0  0  0
   -9.1270   20.9030  -32.0750 C   0  0  0  0  0  0  0  0  0  0  0  0
   -8.3460   19.7900  -32.6550 N   0  0  0  0  0  0  0  0  0  0  0  0
   -7.2190   20.2810  -33.4880 C   0  0  0  0  0  0  0  0  0  0  0  0
   -6.4750   19.1030  -34.2020 C   0  0  2  0  0  0  0  0  0  0  0  0
   -6.9220   17.7570  -33.6230 C   0  0  0  0  0  0  0  0  0  0  0  0
   -6.7730   17.8850  -32.1040 C   0  0  2  0  0  0  0  0  0  0  0  0
   -7.8810   18.8550  -31.5960 C   0  0  0  0  0  0  0  0  0  0  0  0
   -5.3470   18.4080  -31.7150 C   0  0  0  0  0  0  0  0  0  0  0  0
   -4.4070   18.4890  -32.8560 N   0  0  0  0  0  0  0  0  0  0  0  0
   -3.7500   17.1990  -33.1820 C   0  0  0  0  0  0  0  0  0  0  0  0
   -2.3680   17.4580  -33.7850 C   0  0  0  0  0  0  0  0  0  0  0  0
   -1.8030   18.7710  -33.3050 C   0  0  0  0  0  0  0  0  0  0  0  0
   -1.7780   19.8860  -34.1600 C   0  0  0  0  0  0  0  0  0  0  0  0
   -1.2120   21.0910  -33.7290 C   0  0  0  0  0  0  0  0  0  0  0  0
   -0.6600   21.1880  -32.4490 C   0  0  0  0  0  0  0  0  0  0  0  0
   -0.6700   20.0780  -31.5970 C   0  0  0  0  0  0  0  0  0  0  0  0
   -1.2360   18.8730  -32.0220 C   0  0  0  0  0  0  0  0  0  0  0  0
   -4.9350   19.2230  -34.0390 C   0  0  0  0  0  0  0  0  0  0  0  0
   -4.2354   21.0413  -31.1482 H   0  0  0  0  0  0  0  0  0  0  0  0
   -5.1915   21.3456  -32.6381 H   0  0  0  0  0  0  0  0  0  0  0  0
   -3.4165   21.6211  -32.6381 H   0  0  0  0  0  0  0  0  0  0  0  0
   -7.5219   23.4228  -30.2757 H   0  0  0  0  0  0  0  0  0  0  0  0
   -9.0582   23.5404  -31.2380 H   0  0  0  0  0  0  0  0  0  0  0  0
   -7.4024   21.0181  -30.7822 H   0  0  0  0  0  0  0  0  0  0  0  0
   -8.9871   21.4462  -30.0031 H   0  0  0  0  0  0  0  0  0  0  0  0
  -10.0916   20.5185  -31.7121 H   0  0  0  0  0  0  0  0  0  0  0  0
   -9.2918   21.6655  -32.8505 H   0  0  0  0  0  0  0  0  0  0  0  0
   -6.5055   20.8159  -32.8439 H   0  0  0  0  0  0  0  0  0  0  0  0
   -7.6274   20.9490  -34.2607 H   0  0  0  0  0  0  0  0  0  0  0  0
   -6.7304   19.1587  -35.2705 H   0  0  0  0  0  0  0  0  0  0  0  0
   -6.2839   16.9457  -34.0033 H   0  0  0  0  0  0  0  0  0  0  0  0
   -7.9567   17.5171  -33.9092 H   0  0  0  0  0  0  0  0  0  0  0  0
   -6.8871   16.8981  -31.6318 H   0  0  0  0  0  0  0  0  0  0  0  0
   -7.4786   19.4428  -30.7578 H   0  0  0  0  0  0  0  0  0  0  0  0
   -8.7426   18.2460  -31.2848 H   0  0  0  0  0  0  0  0  0  0  0  0
   -4.9214   17.7272  -30.9630 H   0  0  0  0  0  0  0  0  0  0  0  0
   -5.4750   19.4315  -31.3329 H   0  0  0  0  0  0  0  0  0  0  0  0
   -3.6418   16.6023  -32.2643 H   0  0  0  0  0  0  0  0  0  0  0  0
   -4.3667   16.6516  -33.9100 H   0  0  0  0  0  0  0  0  0  0  0  0
   -1.6888   16.6450  -33.4888 H   0  0  0  0  0  0  0  0  0  0  0  0
   -2.4670   17.4999  -34.8797 H   0  0  0  0  0  0  0  0  0  0  0  0
   -2.2047   19.8113  -35.1711 H   0  0  0  0  0  0  0  0  0  0  0  0
   -1.2016   21.9634  -34.3990 H   0  0  0  0  0  0  0  0  0  0  0  0
   -0.2177   22.1368  -32.1112 H   0  0  0  0  0  0  0  0  0  0  0  0
   -0.2316   20.1540  -30.5910 H   0  0  0  0  0  0  0  0  0  0  0  0
   -1.2380   18.0015  -31.3509 H   0  0  0  0  0  0  0  0  0  0  0  0
   -4.4561   18.8183  -34.9428 H   0  0  0  0  0  0  0  0  0  0  0  0
   -4.7062   20.2884  -33.8890 H   0  0  0  0  0  0  0  0  0  0  0  0
  1  2  1  0
  2  3  1  0
  3  4  2  0
  4  5  1  0
  5  6  2  0
  6  7  1  0
  7  8  1  0
  8  9  1  0
  9 10  1  0
 10 11  1  0
 11 12  1  0
 12 13  1  0
 13 14  1  0
 14 15  1  0
 15 16  1  0
 15 17  1  0
 17 18  1  0
 18 19  1  0
 19 20  1  0
 20 21  1  0
 21 22  2  0
 22 23  1  0
 23 24  2  0
 24 25  1  0
 25 26  2  0
 18 27  1  0
  6  2  1  0
 16 11  1  0
 26 21  1  0
 27 13  1  0
  1 28  1  0
  1 29  1  0
  1 30  1  0
  8 31  1  0
  8 32  1  0
  9 33  1  0
  9 34  1  0
 10 35  1  0
 10 36  1  0
 12 37  1  0
 12 38  1  0
 13 39  1  6
 14 40  1  0
 14 41  1  0
 15 42  1  1
 16 43  1  0
 16 44  1  0
 17 45  1  0
 17 46  1  0
 19 47  1  0
 19 48  1  0
 20 49  1  0
 20 50  1  0
 22 51  1  0
 23 52  1  0
 24 53  1  0
 25 54  1  0
 26 55  1  0
 27 56  1  0
 27 57  1  0
M  END
>  <UniqueID>  (7) 
7

>  <SMILES>  (7) 
Cn1nnnc1SCCCN1C[C@H]2C[C@@H](C1)CN(CCc1ccccc1)C2

>  <Energy>  (7) 
118.59584875514477

>  <Genealogy>  (7) 
Cn1nnnc1SCCCN1C[C@H]2C[C@@H](C1)CN(CCc1ccccc1)C2 (chirality)
Cn1nnnc1SCCCN1C[C@H]2C[C@@H](C1)CN(CCc1ccccc1)C2 (3D coordinates assigned)
Cn1nnnc1SCCCN1C[C@H]2C[C@@H](C1)CN(CCc1ccccc1)C2 (nonaromatic ring conformer: 118.59584875514477 kcal/mol)

>  <smiles>  (7) 
Cn1nnnc1SCCCN1CC2CC(C1)CN(CCc1ccccc1)C2

>  <score_type>  (7) 
oracle

>  <origin>  (7) 
adg

>  <m_score__min__energy>  (7) 
-10.17

>  <m_primary>  (7) 
energy

$$$$
7:0
     RDKit          3D

 45 47  0  0  0  0  0  0  0  0999 V2000
   -6.3640   25.2960  -29.5720 C   0  0  0  0  0  0  0  0  0  0  0  0
   -5.4690   25.2640  -30.8140 C   0  0  0  0  0  0  0  0  0  0  0  0
   -4.0370   25.2360  -30.4710 N   0  0  0  0  0  0  0  0  0  0  0  0
   -3.7420   24.3490  -29.3340 C   0  0  0  0  0  0  0  0  0  0  0  0
   -2.9430   23.1270  -29.7970 C   0  0  0  0  0  0  0  0  0  0  0  0
   -3.0080   22.9950  -31.2050 O   0  0  0  0  0  0  0  0  0  0  0  0
   -2.5290   21.7270  -31.6090 C   0  0  0  0  0  0  0  0  0  0  0  0
   -3.1360   21.3620  -32.9750 C   0  0  1  0  0  0  0  0  0  0  0  0
   -2.8710   19.8900  -33.3370 C   0  0  0  0  0  0  0  0  0  0  0  0
   -4.1420   19.1350  -32.9700 C   0  0  0  0  0  0  0  0  0  0  0  0
   -5.1790   20.1460  -32.8870 N   0  0  0  0  0  0  0  0  0  0  0  0
   -6.5410   19.8420  -32.5590 C   0  0  0  0  0  0  0  0  0  0  0  0
   -7.0020   18.5540  -32.6020 N   0  0  0  0  0  0  0  0  0  0  0  0
   -8.3060   18.2540  -32.2990 C   0  0  0  0  0  0  0  0  0  0  0  0
   -9.1810   19.2390  -31.9400 N   0  0  0  0  0  0  0  0  0  0  0  0
   -8.7300   20.5160  -31.8940 C   0  0  0  0  0  0  0  0  0  0  0  0
   -9.4400   21.5930  -31.5320 N   0  0  0  0  0  0  0  0  0  0  0  0
   -8.5720   22.6310  -31.5930 C   0  0  0  0  0  0  0  0  0  0  0  0
   -7.3110   22.2000  -31.9980 C   0  0  0  0  0  0  0  0  0  0  0  0
   -7.4420   20.8410  -32.1920 C   0  0  0  0  0  0  0  0  0  0  0  0
   -4.6630   21.5000  -32.9620 C   0  0  0  0  0  0  0  0  0  0  0  0
   -5.7376   25.2736  -28.6680 H   0  0  0  0  0  0  0  0  0  0  0  0
   -6.9666   26.2163  -29.5779 H   0  0  0  0  0  0  0  0  0  0  0  0
   -7.0307   24.4211  -29.5779 H   0  0  0  0  0  0  0  0  0  0  0  0
   -5.7098   24.3650  -31.4004 H   0  0  0  0  0  0  0  0  0  0  0  0
   -5.6591   26.1821  -31.3893 H   0  0  0  0  0  0  0  0  0  0  0  0
   -3.4810   24.9240  -31.3030 H   0  0  0  0  0  0  0  0  0  0  0  0
   -3.1551   24.9026  -28.5863 H   0  0  0  0  0  0  0  0  0  0  0  0
   -4.6910   24.0069  -28.8954 H   0  0  0  0  0  0  0  0  0  0  0  0
   -1.8925   23.2452  -29.4929 H   0  0  0  0  0  0  0  0  0  0  0  0
   -3.3730   22.2258  -29.3355 H   0  0  0  0  0  0  0  0  0  0  0  0
   -1.4325   21.7582  -31.6913 H   0  0  0  0  0  0  0  0  0  0  0  0
   -2.8189   20.9708  -30.8646 H   0  0  0  0  0  0  0  0  0  0  0  0
   -2.6679   22.0484  -33.6959 H   0  0  0  0  0  0  0  0  0  0  0  0
   -2.6646   19.7917  -34.4130 H   0  0  0  0  0  0  0  0  0  0  0  0
   -1.9963   19.4932  -32.8009 H   0  0  0  0  0  0  0  0  0  0  0  0
   -4.3874   18.3944  -33.7454 H   0  0  0  0  0  0  0  0  0  0  0  0
   -4.0319   18.5828  -32.0251 H   0  0  0  0  0  0  0  0  0  0  0  0
   -6.3620   17.7800  -32.8860 H   0  0  0  0  0  0  0  0  0  0  0  0
   -8.6499   17.2102  -32.3457 H   0  0  0  0  0  0  0  0  0  0  0  0
  -10.4430   21.6260  -31.2450 H   0  0  0  0  0  0  0  0  0  0  0  0
   -8.8284   23.6738  -31.3548 H   0  0  0  0  0  0  0  0  0  0  0  0
   -6.4066   22.8112  -32.1337 H   0  0  0  0  0  0  0  0  0  0  0  0
   -5.0114   21.9928  -33.8817 H   0  0  0  0  0  0  0  0  0  0  0  0
   -5.0080   22.1134  -32.1166 H   0  0  0  0  0  0  0  0  0  0  0  0
  1  2  1  0
  2  3  1  0
  3  4  1  0
  4  5  1  0
  5  6  1  0
  6  7  1  0
  7  8  1  0
  8  9  1  0
  9 10  1  0
 10 11  1  0
 11 12  1  0
 12 13  2  0
 13 14  1  0
 14 15  2  0
 15 16  1  0
 16 17  1  0
 17 18  1  0
 18 19  2  0
 19 20  1  0
 11 21  1  0
 21  8  1  0
 20 12  1  0
 20 16  2  0
  1 22  1  0
  1 23  1  0
  1 24  1  0
  2 25  1  0
  2 26  1  0
  3 27  1  0
  4 28  1  0
  4 29  1  0
  5 30  1  0
  5 31  1  0
  7 32  1  0
  7 33  1  0
  8 34  1  6
  9 35  1  0
  9 36  1  0
 10 37  1  0
 10 38  1  0
 13 39  1  0
 14 40  1  0
 17 41  1  0
 18 42  1  0
 19 43  1  0
 21 44  1  0
 21 45  1  0
M  CHG  1  13   1
M  END
>  <UniqueID>  (8) 
8

>  <SMILES>  (8) 
CCNCCOC[C@H]1CCN(c2[nH+]cnc3[nH]ccc23)C1

>  <Energy>  (8) 
84.7485350108072

>  <Genealogy>  (8) 
CCNCCOCC1CCN(c2[nH+]cnc3[nH]ccc23)C1 (protonated)
CCNCCOC[C@H]1CCN(c2[nH+]cnc3[nH]ccc23)C1 (chirality)
CCNCCOC[C@H]1CCN(c2[nH+]cnc3[nH]ccc23)C1 (3D coordinates assigned)
CCNCCOC[C@H]1CCN(c2[nH+]cnc3[nH]ccc23)C1 (nonaromatic ring conformer: 84.7485350108072 kcal/mol)

>  <smiles>  (8) 
CCNCCOCC1CCN(c2ncnc3[nH]ccc23)C1

>  <score_type>  (8) 
oracle

>  <origin>  (8) 
adg

>  <m_score__min__energy>  (8) 
-6.9400000000000004

>  <m_primary>  (8) 
energy

$$$$
8:0
     RDKit          3D

 48 51  0  0  0  0  0  0  0  0999 V2000
   -6.3700   25.0710  -29.7930 C   0  0  0  0  0  0  0  0  0  0  0  0
   -5.0470   25.3980  -30.4750 C   0  0  0  0  0  0  0  0  0  0  0  0
   -4.4760   24.1860  -31.0730 N   0  0  0  0  0  0  0  0  0  0  0  0
   -4.3940   23.1090  -30.0790 C   0  0  0  0  0  0  0  0  0  0  0  0
   -4.0700   21.7650  -30.7600 C   0  0  0  0  0  0  0  0  0  0  0  0
   -4.3900   21.7540  -32.2030 N   0  0  0  0  0  0  0  0  0  0  0  0
   -5.5780   20.9710  -32.4990 C   0  0  0  0  0  0  0  0  0  0  0  0
   -6.8840   21.5000  -32.2950 C   0  0  0  0  0  0  0  0  0  0  0  0
   -7.1120   22.8930  -32.2690 C   0  0  0  0  0  0  0  0  0  0  0  0
   -8.3950   23.4040  -32.0880 C   0  0  0  0  0  0  0  0  0  0  0  0
   -9.4770   22.5440  -31.9400 C   0  0  0  0  0  0  0  0  0  0  0  0
   -9.2860   21.1640  -31.9570 C   0  0  0  0  0  0  0  0  0  0  0  0
   -7.9930   20.6070  -32.1130 C   0  0  0  0  0  0  0  0  0  0  0  0
   -7.7890   19.2380  -32.0860 N   0  0  0  0  0  0  0  0  0  0  0  0
   -8.8640   18.3020  -31.7060 C   0  0  0  0  0  0  0  0  0  0  0  0
   -6.5640   18.7580  -32.4650 C   0  0  0  0  0  0  0  0  0  0  0  0
   -6.2380   17.4550  -32.6360 N   0  0  0  0  0  0  0  0  0  0  0  0
   -4.9640   17.4630  -33.0670 C   0  0  0  0  0  0  0  0  0  0  0  0
   -4.2220   16.3450  -33.4470 C   0  0  0  0  0  0  0  0  0  0  0  0
   -2.9520   16.5520  -34.0040 C   0  0  0  0  0  0  0  0  0  0  0  0
   -2.4770   17.8600  -34.2230 C   0  0  0  0  0  0  0  0  0  0  0  0
   -3.2470   18.9760  -33.8490 C   0  0  0  0  0  0  0  0  0  0  0  0
   -2.8680   20.2000  -34.2840 F   0  0  0  0  0  0  0  0  0  0  0  0
   -4.4710   18.7480  -33.1930 C   0  0  0  0  0  0  0  0  0  0  0  0
   -5.4940   19.5890  -32.7480 C   0  0  0  0  0  0  0  0  0  0  0  0
   -6.2378   25.1037  -28.7015 H   0  0  0  0  0  0  0  0  0  0  0  0
   -7.1291   25.8085  -30.0926 H   0  0  0  0  0  0  0  0  0  0  0  0
   -6.6981   24.0647  -30.0926 H   0  0  0  0  0  0  0  0  0  0  0  0
   -5.2187   26.1464  -31.2627 H   0  0  0  0  0  0  0  0  0  0  0  0
   -4.3450   25.7963  -29.7276 H   0  0  0  0  0  0  0  0  0  0  0  0
   -5.1130   23.8660  -31.8400 H   0  0  0  0  0  0  0  0  0  0  0  0
   -3.6022   23.3465  -29.3533 H   0  0  0  0  0  0  0  0  0  0  0  0
   -5.3648   23.0229  -29.5689 H   0  0  0  0  0  0  0  0  0  0  0  0
   -2.9960   21.5607  -30.6380 H   0  0  0  0  0  0  0  0  0  0  0  0
   -4.6928   20.9957  -30.2801 H   0  0  0  0  0  0  0  0  0  0  0  0
   -3.5520   21.3760  -32.6810 H   0  0  0  0  0  0  0  0  0  0  0  0
   -4.5090   22.7330  -32.5500 H   0  0  0  0  0  0  0  0  0  0  0  0
   -6.2652   23.5840  -32.3933 H   0  0  0  0  0  0  0  0  0  0  0  0
   -8.5526   24.4923  -32.0621 H   0  0  0  0  0  0  0  0  0  0  0  0
  -10.4889   22.9550  -31.8088 H   0  0  0  0  0  0  0  0  0  0  0  0
  -10.1533   20.4963  -31.8475 H   0  0  0  0  0  0  0  0  0  0  0  0
   -8.9297   18.2448  -30.6095 H   0  0  0  0  0  0  0  0  0  0  0  0
   -9.8217   18.6590  -32.1126 H   0  0  0  0  0  0  0  0  0  0  0  0
   -8.6422   17.3043  -32.1126 H   0  0  0  0  0  0  0  0  0  0  0  0
   -6.8410   16.6100  -32.5370 H   0  0  0  0  0  0  0  0  0  0  0  0
   -4.6219   15.3290  -33.3135 H   0  0  0  0  0  0  0  0  0  0  0  0
   -2.3239   15.6894  -34.2711 H   0  0  0  0  0  0  0  0  0  0  0  0
   -1.4932   18.0102  -34.6916 H   0  0  0  0  0  0  0  0  0  0  0  0
  1  2  1  0
  2  3  1  0
  3  4  1  0
  4  5  1  0
  5  6  1  0
  6  7  1  0
  7  8  2  0
  8  9  1  0
  9 10  2  0
 10 11  1  0
 11 12  2  0
 12 13  1  0
 13 14  2  0
 14 15  1  0
 14 16  1  0
 16 17  1  0
 17 18  1  0
 18 19  2  0
 19 20  1  0
 20 21  2  0
 21 22  1  0
 22 23  1  0
 22 24  2  0
 24 25  1  0
 25  7  1  0
 13  8  1  0
 25 16  2  0
 24 18  1  0
  1 26  1  0
  1 27  1  0
  1 28  1  0
  2 29  1  0
  2 30  1  0
  3 31  1  0
  4 32  1  0
  4 33  1  0
  5 34  1  0
  5 35  1  0
  6 36  1  0
  6 37  1  0
  9 38  1  0
 10 39  1  0
 11 40  1  0
 12 41  1  0
 15 42  1  0
 15 43  1  0
 15 44  1  0
 17 45  1  0
 19 46  1  0
 20 47  1  0
 21 48  1  0
M  CHG  2   6   1  14   1
M  END
>  <UniqueID>  (9) 
9

>  <SMILES>  (9) 
CCNCC[NH2+]c1c2ccccc2[n+](C)c2[nH]c3cccc(F)c3c12

>  <Energy>  (9) 
110.68518228579835

>  <Genealogy>  (9) 
CCNCC[NH2+]c1c2ccccc2[n+](C)c2[nH]c3cccc(F)c3c12 (protonated)
CCNCC[NH2+]c1c2ccccc2[n+](C)c2[nH]c3cccc(F)c3c12 (3D coordinates assigned)
CCNCC[NH2+]c1c2ccccc2[n+](C)c2[nH]c3cccc(F)c3c12 (optimized conformer: 110.68518228579835 kcal/mol)

>  <smiles>  (9) 
CCNCCNc1c2ccccc2[n+](C)c2[nH]c3cccc(F)c3c12

>  <score_type>  (9) 
oracle

>  <origin>  (9) 
adg

>  <m_score__min__energy>  (9) 
-8.0099999999999998

>  <m_primary>  (9) 
energy

$$$$
9:0
     RDKit          3D

 68 70  0  0  0  0  0  0  0  0999 V2000
   -2.3565   23.9152  -27.1066 H   0  0  0  0  0  0  0  0  0  0  0  0
   -2.0430   24.2980  -28.0890 C   0  0  0  0  0  0  0  0  0  0  0  0
   -1.5910   25.5510  -28.1870 C   0  0  0  0  0  0  0  0  0  0  0  0
   -2.2145   26.3074  -28.6861 H   0  0  0  0  0  0  0  0  0  0  0  0
   -0.2540   25.9550  -27.6340 C   0  0  0  0  0  0  0  0  0  0  0  0
   -0.3732   26.2633  -26.5848 H   0  0  0  0  0  0  0  0  0  0  0  0
    0.1422   26.7910  -28.2292 H   0  0  0  0  0  0  0  0  0  0  0  0
    0.6520   24.8710  -27.7020 O   0  0  0  0  0  0  0  0  0  0  0  0
    1.3400   24.6980  -26.4760 C   0  0  0  0  0  0  0  0  0  0  0  0
    1.9204   25.6054  -26.2531 H   0  0  0  0  0  0  0  0  0  0  0  0
    2.0152   23.8337  -26.5604 H   0  0  0  0  0  0  0  0  0  0  0  0
    0.3360   24.4440  -25.3390 C   0  0  0  0  0  0  0  0  0  0  0  0
    0.4065   23.3846  -25.0513 H   0  0  0  0  0  0  0  0  0  0  0  0
   -0.6525   24.7238  -25.7323 H   0  0  0  0  0  0  0  0  0  0  0  0
    0.5480   25.2680  -24.1210 N   0  0  1  0  0  0  0  0  0  0  0  0
    0.6740   24.5650  -23.3530 H   0  0  0  0  0  0  0  0  0  0  0  0
    1.8200   26.0170  -24.1520 C   0  0  0  0  0  0  0  0  0  0  0  0
    2.1547   26.2141  -23.1228 H   0  0  0  0  0  0  0  0  0  0  0  0
    2.5822   25.4235  -24.6781 H   0  0  0  0  0  0  0  0  0  0  0  0
    1.6708   26.9714  -24.6781 H   0  0  0  0  0  0  0  0  0  0  0  0
   -0.6340   26.0790  -23.7150 C   0  0  0  0  0  0  0  0  0  0  0  0
   -0.5498   26.2840  -22.6376 H   0  0  0  0  0  0  0  0  0  0  0  0
   -1.5166   25.4812  -23.9864 H   0  0  0  0  0  0  0  0  0  0  0  0
   -0.7980   27.4260  -24.4420 C   0  0  0  0  0  0  0  0  0  0  0  0
   -0.8963   28.2330  -23.7010 H   0  0  0  0  0  0  0  0  0  0  0  0
    0.0841   27.6123  -25.0722 H   0  0  0  0  0  0  0  0  0  0  0  0
   -1.6990   27.3952  -25.0722 H   0  0  0  0  0  0  0  0  0  0  0  0
   -2.1310   23.4200  -29.2620 C   0  0  0  0  0  0  0  0  0  0  0  0
   -3.1770   23.3570  -30.0690 O   0  0  0  0  0  0  0  0  0  0  0  0
   -2.8940   22.4800  -31.0000 C   0  0  0  0  0  0  0  0  0  0  0  0
   -1.6480   21.9540  -30.8090 C   0  0  0  0  0  0  0  0  0  0  0  0
   -1.1260   22.5520  -29.6860 C   0  0  0  0  0  0  0  0  0  0  0  0
   -0.1405   22.3838  -29.2271 H   0  0  0  0  0  0  0  0  0  0  0  0
   -1.1240   21.0080  -31.6790 C   0  0  0  0  0  0  0  0  0  0  0  0
   -0.1215   20.5823  -31.5249 H   0  0  0  0  0  0  0  0  0  0  0  0
   -1.9250   20.6160  -32.7640 C   0  0  0  0  0  0  0  0  0  0  0  0
   -1.5551   19.8660  -33.4786 H   0  0  0  0  0  0  0  0  0  0  0  0
   -3.2070   21.1860  -32.9370 C   0  0  0  0  0  0  0  0  0  0  0  0
   -3.8250   20.8845  -33.7956 H   0  0  0  0  0  0  0  0  0  0  0  0
   -3.6900   22.1130  -32.0440 N   0  0  0  0  0  0  0  0  0  0  0  0
   -4.9830   22.7680  -32.2690 C   0  0  0  0  0  0  0  0  0  0  0  0
   -4.8220   23.8404  -32.4538 H   0  0  0  0  0  0  0  0  0  0  0  0
   -5.4748   22.3117  -33.1408 H   0  0  0  0  0  0  0  0  0  0  0  0
   -5.8770   22.5920  -31.0320 C   0  0  0  0  0  0  0  0  0  0  0  0
   -6.2318   21.5513  -30.9996 H   0  0  0  0  0  0  0  0  0  0  0  0
   -5.2734   22.8441  -30.1476 H   0  0  0  0  0  0  0  0  0  0  0  0
   -7.0980   23.5280  -31.0430 C   0  0  0  0  0  0  0  0  0  0  0  0
   -7.5279   23.5515  -30.0308 H   0  0  0  0  0  0  0  0  0  0  0  0
   -6.7446   24.5174  -31.3690 H   0  0  0  0  0  0  0  0  0  0  0  0
   -8.2010   23.0900  -32.0330 C   0  0  0  0  0  0  0  0  0  0  0  0
   -8.8668   23.9471  -32.2120 H   0  0  0  0  0  0  0  0  0  0  0  0
   -7.6942   22.7526  -32.9492 H   0  0  0  0  0  0  0  0  0  0  0  0
   -9.0520   21.9110  -31.5310 C   0  0  0  0  0  0  0  0  0  0  0  0
   -9.1373   21.9776  -30.4363 H   0  0  0  0  0  0  0  0  0  0  0  0
  -10.0369   21.9772  -32.0164 H   0  0  0  0  0  0  0  0  0  0  0  0
   -8.4540   20.5820  -31.8880 C   0  0  0  0  0  0  0  0  0  0  0  0
   -7.4180   20.5220  -32.7690 N   0  0  0  0  0  0  0  0  0  0  0  0
   -6.8810   19.3390  -33.1750 C   0  0  0  0  0  0  0  0  0  0  0  0
   -5.7420   19.3300  -34.1420 C   0  0  0  0  0  0  0  0  0  0  0  0
   -4.7913   19.3225  -33.5887 H   0  0  0  0  0  0  0  0  0  0  0  0
   -5.8052   18.4323  -34.7746 H   0  0  0  0  0  0  0  0  0  0  0  0
   -5.7910   20.2286  -34.7746 H   0  0  0  0  0  0  0  0  0  0  0  0
   -7.4010   18.1340  -32.6800 C   0  0  0  0  0  0  0  0  0  0  0  0
   -6.9735   17.1717  -32.9982 H   0  0  0  0  0  0  0  0  0  0  0  0
   -8.4660   18.1690  -31.7800 C   0  0  0  0  0  0  0  0  0  0  0  0
   -8.8876   17.2312  -31.3891 H   0  0  0  0  0  0  0  0  0  0  0  0
   -8.9960   19.3950  -31.3760 C   0  0  0  0  0  0  0  0  0  0  0  0
   -9.8320   19.4297  -30.6619 H   0  0  0  0  0  0  0  0  0  0  0  0
  1  2  1  0
  2  3  2  0
  3  4  1  0
  3  5  1  0
  5  6  1  0
  5  7  1  0
  5  8  1  0
  8  9  1  0
  9 10  1  0
  9 11  1  0
  9 12  1  0
 12 13  1  0
 12 14  1  0
 12 15  1  0
 15 16  1  1
 15 17  1  0
 17 18  1  0
 17 19  1  0
 17 20  1  0
 15 21  1  0
 21 22  1  0
 21 23  1  0
 21 24  1  0
 24 25  1  0
 24 26  1  0
 24 27  1  0
  2 28  1  0
 28 29  1  0
 29 30  1  0
 30 31  2  0
 31 32  1  0
 32 33  1  0
 31 34  1  0
 34 35  1  0
 34 36  2  0
 36 37  1  0
 36 38  1  0
 38 39  1  0
 38 40  2  0
 40 41  1  0
 41 42  1  0
 41 43  1  0
 41 44  1  0
 44 45  1  0
 44 46  1  0
 44 47  1  0
 47 48  1  0
 47 49  1  0
 47 50  1  0
 50 51  1  0
 50 52  1  0
 50 53  1  0
 53 54  1  0
 53 55  1  0
 53 56  1  0
 56 57  2  0
 57 58  1  0
 58 59  1  0
 59 60  1  0
 59 61  1  0
 59 62  1  0
 58 63  2  0
 63 64  1  0
 63 65  1  0
 65 66  1  0
 65 67  2  0
 67 68  1  0
 32 28  2  0
 67 56  1  0
 40 30  1  0
M  CHG  2  15   1  40   1
M  END
>  <UniqueID>  (10) 
10

>  <SMILES>  (10) 
CC[N@H+](C)CCOC/C=C/c1cc2ccc[n+](CCCCCc3cccc(C)n3)c2o1

>  <Energy>  (10) 
97.85944800507588

>  <Genealogy>  (10) 
CC[NH+](C)CCOCC=Cc1cc2ccc[n+](CCCCCc3cccc(C)n3)c2o1 (protonated)
CC[N@H+](C)CCOCC=Cc1cc2ccc[n+](CCCCCc3cccc(C)n3)c2o1 (chirality)
CC[N@H+](C)CCOC/C=C/c1cc2ccc[n+](CCCCCc3cccc(C)n3)c2o1 (cis-trans isomerization)
CC[N@H+](C)CCOC/C=C/c1cc2ccc[n+](CCCCCc3cccc(C)n3)c2o1 (3D coordinates assigned)
CC[N@H+](C)CCOC/C=C/c1cc2ccc[n+](CCCCCc3cccc(C)n3)c2o1 (optimized conformer: 97.85944800507588 kcal/mol)

>  <smiles>  (10) 
CCN(C)CCOCC=Cc1cc2ccc[n+](CCCCCc3cccc(C)n3)c2o1

>  <score_type>  (10) 
oracle

>  <origin>  (10) 
adg

>  <m_score__min__energy>  (10) 
-7.9299999999999997

>  <m_primary>  (10) 
energy

$$$$
10:0
     RDKit          3D

 50 52  0  0  0  0  0  0  0  0999 V2000
   -5.1130   24.8470  -30.8400 C   0  0  0  0  0  0  0  0  0  0  0  0
   -3.8720   24.5420  -30.1070 N   0  0  0  0  0  0  0  0  0  0  0  0
   -4.2020   24.1730  -28.7210 C   0  0  0  0  0  0  0  0  0  0  0  0
   -3.1200   23.4480  -30.7600 C   0  0  0  0  0  0  0  0  0  0  0  0
   -4.0350   22.2680  -31.1220 C   0  0  0  0  0  0  0  0  0  0  0  0
   -3.5350   21.5100  -32.3570 C   0  0  0  0  0  0  0  0  0  0  0  0
   -4.6020   21.3700  -33.3460 N   0  0  0  0  0  0  0  0  0  0  0  0
   -5.7530   20.5640  -33.0630 C   0  0  0  0  0  0  0  0  0  0  0  0
   -6.9220   21.1540  -32.5610 C   0  0  0  0  0  0  0  0  0  0  0  0
   -8.0580   20.3600  -32.3290 C   0  0  0  0  0  0  0  0  0  0  0  0
   -7.9940   18.9880  -32.4540 N   0  0  0  0  0  0  0  0  0  0  0  0
   -9.0960   18.1560  -31.9250 C   0  0  0  0  0  0  0  0  0  0  0  0
   -6.8890   18.4010  -33.0450 C   0  0  0  0  0  0  0  0  0  0  0  0
   -6.8740   17.0330  -33.4160 C   0  0  0  0  0  0  0  0  0  0  0  0
   -5.7370   16.4530  -33.9800 C   0  0  0  0  0  0  0  0  0  0  0  0
   -4.5990   17.2190  -34.2080 C   0  0  0  0  0  0  0  0  0  0  0  0
   -4.5960   18.5750  -33.8950 C   0  0  0  0  0  0  0  0  0  0  0  0
   -5.7360   19.1850  -33.3290 C   0  0  0  0  0  0  0  0  0  0  0  0
   -9.3440   21.1140  -32.0240 C   0  0  0  0  0  0  0  0  0  0  0  0
   -9.1300   22.1250  -30.8860 C   0  0  0  0  0  0  0  0  0  0  0  0
   -7.7880   22.8920  -30.9740 C   0  0  0  0  0  0  0  0  0  0  0  0
   -7.0110   22.6390  -32.2760 C   0  0  0  0  0  0  0  0  0  0  0  0
   -5.9230   25.0461  -30.1228 H   0  0  0  0  0  0  0  0  0  0  0  0
   -4.9570   25.7335  -31.4722 H   0  0  0  0  0  0  0  0  0  0  0  0
   -5.3857   23.9891  -31.4722 H   0  0  0  0  0  0  0  0  0  0  0  0
   -3.6332   24.8091  -28.0269 H   0  0  0  0  0  0  0  0  0  0  0  0
   -5.2792   24.3158  -28.5501 H   0  0  0  0  0  0  0  0  0  0  0  0
   -3.9403   23.1183  -28.5501 H   0  0  0  0  0  0  0  0  0  0  0  0
   -2.6551   23.8339  -31.6792 H   0  0  0  0  0  0  0  0  0  0  0  0
   -2.3571   23.0870  -30.0546 H   0  0  0  0  0  0  0  0  0  0  0  0
   -4.0720   21.5732  -30.2700 H   0  0  0  0  0  0  0  0  0  0  0  0
   -5.0327   22.6703  -31.3517 H   0  0  0  0  0  0  0  0  0  0  0  0
   -2.6974   22.0641  -32.8058 H   0  0  0  0  0  0  0  0  0  0  0  0
   -3.2073   20.5068  -32.0468 H   0  0  0  0  0  0  0  0  0  0  0  0
   -4.6120   21.9650  -34.2050 H   0  0  0  0  0  0  0  0  0  0  0  0
   -9.0732   18.1732  -30.8254 H   0  0  0  0  0  0  0  0  0  0  0  0
  -10.0585   18.5547  -32.2780 H   0  0  0  0  0  0  0  0  0  0  0  0
   -8.9761   17.1211  -32.2780 H   0  0  0  0  0  0  0  0  0  0  0  0
   -7.7727   16.4190  -33.2568 H   0  0  0  0  0  0  0  0  0  0  0  0
   -5.7409   15.3855  -34.2453 H   0  0  0  0  0  0  0  0  0  0  0  0
   -3.6997   16.7524  -34.6364 H   0  0  0  0  0  0  0  0  0  0  0  0
   -3.6965   19.1772  -34.0906 H   0  0  0  0  0  0  0  0  0  0  0  0
   -9.6692   21.6515  -32.9269 H   0  0  0  0  0  0  0  0  0  0  0  0
  -10.1105   20.3897  -31.7113 H   0  0  0  0  0  0  0  0  0  0  0  0
   -9.9503   22.8574  -30.9143 H   0  0  0  0  0  0  0  0  0  0  0  0
   -9.1094   21.5510  -29.9479 H   0  0  0  0  0  0  0  0  0  0  0  0
   -7.9990   23.9690  -30.9002 H   0  0  0  0  0  0  0  0  0  0  0  0
   -7.1572   22.5281  -30.1495 H   0  0  0  0  0  0  0  0  0  0  0  0
   -7.5287   23.1370  -33.1090 H   0  0  0  0  0  0  0  0  0  0  0  0
   -5.9932   23.0418  -32.1668 H   0  0  0  0  0  0  0  0  0  0  0  0
  1  2  1  0
  2  3  1  0
  2  4  1  0
  4  5  1  0
  5  6  1  0
  6  7  1  0
  7  8  1  0
  8  9  2  0
  9 10  1  0
 10 11  2  0
 11 12  1  0
 11 13  1  0
 13 14  2  0
 14 15  1  0
 15 16  2  0
 16 17  1  0
 17 18  2  0
 10 19  1  0
 19 20  1  0
 20 21  1  0
 21 22  1  0
 18  8  1  0
 22  9  1  0
 18 13  1  0
  1 23  1  0
  1 24  1  0
  1 25  1  0
  3 26  1  0
  3 27  1  0
  3 28  1  0
  4 29  1  0
  4 30  1  0
  5 31  1  0
  5 32  1  0
  6 33  1  0
  6 34  1  0
  7 35  1  0
 12 36  1  0
 12 37  1  0
 12 38  1  0
 14 39  1  0
 15 40  1  0
 16 41  1  0
 17 42  1  0
 19 43  1  0
 19 44  1  0
 20 45  1  0
 20 46  1  0
 21 47  1  0
 21 48  1  0
 22 49  1  0
 22 50  1  0
M  CHG  1  11   1
M  END
>  <UniqueID>  (11) 
11

>  <SMILES>  (11) 
CN(C)CCCNc1c2c([n+](C)c3ccccc13)CCCC2

>  <Energy>  (11) 
74.01587071459724

>  <Genealogy>  (11) 
CN(C)CCCNc1c2c([n+](C)c3ccccc13)CCCC2 (3D coordinates assigned)
CN(C)CCCNc1c2c([n+](C)c3ccccc13)CCCC2 (nonaromatic ring conformer: 74.01587071459724 kcal/mol)

>  <smiles>  (11) 
CN(C)CCCNc1c2c([n+](C)c3ccccc13)CCCC2

>  <score_type>  (11) 
oracle

>  <origin>  (11) 
adg

>  <m_score__min__energy>  (11) 
-8.4299999999999997

>  <m_primary>  (11) 
energy

$$$$
11:0
     RDKit          3D

 72 74  0  0  0  0  0  0  0  0999 V2000
   -4.6154   25.3932  -30.9076 H   0  0  0  0  0  0  0  0  0  0  0  0
   -5.7050   25.2560  -30.8450 C   0  0  0  0  0  0  0  0  0  0  0  0
   -6.3542   26.1112  -30.6061 H   0  0  0  0  0  0  0  0  0  0  0  0
   -6.2370   24.0570  -31.0580 C   0  0  0  0  0  0  0  0  0  0  0  0
   -7.4860   23.5850  -31.0540 N   0  0  0  0  0  0  0  0  0  0  0  0
   -7.0430   22.3940  -31.5250 C   0  0  0  0  0  0  0  0  0  0  0  0
   -7.6270   21.2290  -31.8540 N   0  0  0  0  0  0  0  0  0  0  0  0
   -9.0830   21.1570  -31.6100 C   0  0  0  0  0  0  0  0  0  0  0  0
   -9.2732   21.1476  -30.5266 H   0  0  0  0  0  0  0  0  0  0  0  0
   -9.5741   22.0320  -32.0609 H   0  0  0  0  0  0  0  0  0  0  0  0
   -9.4853   20.2379  -32.0609 H   0  0  0  0  0  0  0  0  0  0  0  0
   -6.9290   20.1610  -32.3920 C   0  0  0  0  0  0  0  0  0  0  0  0
   -7.6010   18.9080  -32.4450 C   0  0  0  0  0  0  0  0  0  0  0  0
   -8.4689   18.7426  -31.7897 H   0  0  0  0  0  0  0  0  0  0  0  0
   -7.2000   17.8900  -33.2930 C   0  0  0  0  0  0  0  0  0  0  0  0
   -7.7354   16.9291  -33.2963 H   0  0  0  0  0  0  0  0  0  0  0  0
   -6.1270   18.0880  -34.1320 C   0  0  0  0  0  0  0  0  0  0  0  0
   -5.8728   17.3293  -34.8868 H   0  0  0  0  0  0  0  0  0  0  0  0
   -5.3650   19.2440  -34.0270 C   0  0  0  0  0  0  0  0  0  0  0  0
   -4.5205   19.3825  -34.7182 H   0  0  0  0  0  0  0  0  0  0  0  0
   -5.6310   20.2620  -33.0590 C   0  0  0  0  0  0  0  0  0  0  0  0
   -4.5480   21.2010  -32.7590 C   0  0  0  0  0  0  0  0  0  0  0  0
   -3.2860   21.0970  -33.4930 N   0  0  0  0  0  0  0  0  0  0  0  0
   -3.4350   21.2400  -34.5150 H   0  0  0  0  0  0  0  0  0  0  0  0
   -2.6570   21.9000  -33.2590 H   0  0  0  0  0  0  0  0  0  0  0  0
   -2.5890   19.8210  -33.2200 C   0  0  0  0  0  0  0  0  0  0  0  0
   -2.6174   19.6198  -32.1389 H   0  0  0  0  0  0  0  0  0  0  0  0
   -3.0971   19.0187  -33.7751 H   0  0  0  0  0  0  0  0  0  0  0  0
   -1.1310   19.8830  -33.6790 C   0  0  0  0  0  0  0  0  0  0  0  0
   -0.5388   19.1421  -33.1220 H   0  0  0  0  0  0  0  0  0  0  0  0
   -1.0742   19.6616  -34.7550 H   0  0  0  0  0  0  0  0  0  0  0  0
   -0.5930   21.2400  -33.4230 N   0  0  0  0  0  0  0  0  0  0  0  0
    0.6110   21.5310  -34.2340 C   0  0  0  0  0  0  0  0  0  0  0  0
    1.0658   22.4648  -33.8719 H   0  0  0  0  0  0  0  0  0  0  0  0
    1.3042   20.6834  -34.1287 H   0  0  0  0  0  0  0  0  0  0  0  0
    0.2790   21.6870  -35.7170 C   0  0  0  0  0  0  0  0  0  0  0  0
   -0.7119   22.1526  -35.8239 H   0  0  0  0  0  0  0  0  0  0  0  0
    1.0369   22.3233  -36.1975 H   0  0  0  0  0  0  0  0  0  0  0  0
    0.2729   20.6975  -36.1975 H   0  0  0  0  0  0  0  0  0  0  0  0
   -0.4620   21.5390  -31.9750 C   0  0  0  0  0  0  0  0  0  0  0  0
    0.2792   22.3428  -31.8546 H   0  0  0  0  0  0  0  0  0  0  0  0
   -1.4630   21.8251  -31.6198 H   0  0  0  0  0  0  0  0  0  0  0  0
   -0.0170   20.3420  -31.1220 C   0  0  0  0  0  0  0  0  0  0  0  0
   -0.1115   20.5961  -30.0559 H   0  0  0  0  0  0  0  0  0  0  0  0
   -0.6522   19.4733  -31.3495 H   0  0  0  0  0  0  0  0  0  0  0  0
    1.0315   20.0992  -31.3495 H   0  0  0  0  0  0  0  0  0  0  0  0
   -4.5990   22.1740  -31.7120 C   0  0  0  0  0  0  0  0  0  0  0  0
   -3.4840   22.5270  -31.0180 C   0  0  0  0  0  0  0  0  0  0  0  0
   -2.5823   22.7849  -31.5928 H   0  0  0  0  0  0  0  0  0  0  0  0
   -3.4000   22.5890  -29.5070 C   0  0  0  0  0  0  0  0  0  0  0  0
   -4.3657   22.9428  -29.1167 H   0  0  0  0  0  0  0  0  0  0  0  0
   -3.1578   21.5772  -29.1497 H   0  0  0  0  0  0  0  0  0  0  0  0
   -2.2900   23.5340  -29.0020 C   0  0  0  0  0  0  0  0  0  0  0  0
   -1.6652   23.8183  -29.8616 H   0  0  0  0  0  0  0  0  0  0  0  0
   -2.8001   24.3893  -28.5348 H   0  0  0  0  0  0  0  0  0  0  0  0
   -1.3720   22.9320  -27.9200 C   0  0  0  0  0  0  0  0  0  0  0  0
   -0.3970   23.4392  -27.9660 H   0  0  0  0  0  0  0  0  0  0  0  0
   -1.8674   23.0804  -26.9492 H   0  0  0  0  0  0  0  0  0  0  0  0
   -1.1470   21.4240  -28.0940 C   0  0  0  0  0  0  0  0  0  0  0  0
   -1.7260   21.0709  -28.9601 H   0  0  0  0  0  0  0  0  0  0  0  0
   -0.0732   21.2444  -28.2511 H   0  0  0  0  0  0  0  0  0  0  0  0
   -1.5940   20.6580  -26.8460 C   0  0  0  0  0  0  0  0  0  0  0  0
   -0.7458   20.0736  -26.4601 H   0  0  0  0  0  0  0  0  0  0  0  0
   -1.9368   21.3842  -26.0943 H   0  0  0  0  0  0  0  0  0  0  0  0
   -2.7520   19.7070  -27.1680 C   0  0  0  0  0  0  0  0  0  0  0  0
   -3.6372   20.2992  -27.4433 H   0  0  0  0  0  0  0  0  0  0  0  0
   -2.4480   19.0559  -28.0009 H   0  0  0  0  0  0  0  0  0  0  0  0
   -3.0930   18.8300  -25.9670 C   0  0  0  0  0  0  0  0  0  0  0  0
   -2.8791   19.3801  -25.0388 H   0  0  0  0  0  0  0  0  0  0  0  0
   -4.1600   18.5643  -25.9982 H   0  0  0  0  0  0  0  0  0  0  0  0
   -2.4858   17.9133  -25.9982 H   0  0  0  0  0  0  0  0  0  0  0  0
   -5.7980   22.8010  -31.4390 C   0  0  0  0  0  0  0  0  0  0  0  0
  1  2  1  0
  2  3  1  0
  2  4  2  0
  4  5  1  0
  5  6  1  0
  6  7  1  0
  7  8  1  0
  8  9  1  0
  8 10  1  0
  8 11  1  0
  7 12  2  0
 12 13  1  0
 13 14  1  0
 13 15  2  0
 15 16  1  0
 15 17  1  0
 17 18  1  0
 17 19  2  0
 19 20  1  0
 19 21  1  0
 21 22  2  0
 22 23  1  0
 23 24  1  0
 23 25  1  0
 23 26  1  0
 26 27  1  0
 26 28  1  0
 26 29  1  0
 29 30  1  0
 29 31  1  0
 29 32  1  0
 32 33  1  0
 33 34  1  0
 33 35  1  0
 33 36  1  0
 36 37  1  0
 36 38  1  0
 36 39  1  0
 32 40  1  0
 40 41  1  0
 40 42  1  0
 40 43  1  0
 43 44  1  0
 43 45  1  0
 43 46  1  0
 22 47  1  0
 47 48  2  0
 48 49  1  0
 48 50  1  0
 50 51  1  0
 50 52  1  0
 50 53  1  0
 53 54  1  0
 53 55  1  0
 53 56  1  0
 56 57  1  0
 56 58  1  0
 56 59  1  0
 59 60  1  0
 59 61  1  0
 59 62  1  0
 62 63  1  0
 62 64  1  0
 62 65  1  0
 65 66  1  0
 65 67  1  0
 65 68  1  0
 68 69  1  0
 68 70  1  0
 68 71  1  0
 47 72  1  0
 72  4  1  0
 72  6  2  0
 21 12  1  0
M  CHG  3   5  -1   7   1  23   1
M  END
>  <UniqueID>  (12) 
12

>  <SMILES>  (12) 
C=c1[n-]c2[n+](C)c3ccccc3c([NH2+]CCN(CC)CC)/c(=C/CCCCCCC)c1=2

>  <Energy>  (12) 
119.04250190538586

>  <Genealogy>  (12) 
C=c1[n-]c2[n+](C)c3ccccc3c([NH2+]CCN(CC)CC)c(=CCCCCCCC)c1=2 (protonated)
C=c1[n-]c2[n+](C)c3ccccc3c([NH2+]CCN(CC)CC)/c(=C/CCCCCCC)c1=2 (cis-trans isomerization)
C=c1[n-]c2[n+](C)c3ccccc3c([NH2+]CCN(CC)CC)/c(=C/CCCCCCC)c1=2 (3D coordinates assigned)
C=c1[n-]c2[n+](C)c3ccccc3c([NH2+]CCN(CC)CC)/c(=C/CCCCCCC)c1=2 (optimized conformer: 119.04250190538586 kcal/mol)

>  <smiles>  (12) 
C=c1[nH]c2[n+](C)c3ccccc3c(NCCN(CC)CC)c(=CCCCCCCC)c1=2

>  <score_type>  (12) 
oracle

>  <origin>  (12) 
adg

>  <m_score__min__energy>  (12) 
-8.0299999999999994

>  <m_primary>  (12) 
energy

$$$$
12:0
     RDKit          3D

 53 55  0  0  0  0  0  0  0  0999 V2000
   -6.0080   25.3150  -29.3810 C   0  0  0  0  0  0  0  0  0  0  0  0
   -5.3640   25.6670  -30.7170 C   0  0  0  0  0  0  0  0  0  0  0  0
   -4.0530   25.0190  -30.8300 N   0  0  0  0  0  0  0  0  0  0  0  0
   -3.7100   24.3410  -29.5740 C   0  0  0  0  0  0  0  0  0  0  0  0
   -3.4080   22.8670  -29.8310 C   0  0  0  0  0  0  0  0  0  0  0  0
   -3.6120   22.5760  -31.1980 O   0  0  0  0  0  0  0  0  0  0  0  0
   -2.5780   21.7440  -31.6910 C   0  0  0  0  0  0  0  0  0  0  0  0
   -2.9240   21.2280  -33.0910 C   0  0  0  0  0  0  0  0  0  0  0  0
   -4.2740   21.6310  -33.4860 N   0  0  0  0  0  0  0  0  0  0  0  0
   -5.4000   20.8130  -33.1430 C   0  0  0  0  0  0  0  0  0  0  0  0
   -6.5000   21.3610  -32.4550 C   0  0  0  0  0  0  0  0  0  0  0  0
   -7.5490   20.5040  -32.0390 C   0  0  0  0  0  0  0  0  0  0  0  0
   -7.5760   19.1850  -32.4510 N   0  0  0  0  0  0  0  0  0  0  0  0
   -8.7930   18.3700  -32.2420 C   0  0  0  0  0  0  0  0  0  0  0  0
   -6.4680   18.6210  -33.0570 C   0  0  0  0  0  0  0  0  0  0  0  0
   -6.3770   17.2260  -33.3020 C   0  0  0  0  0  0  0  0  0  0  0  0
   -5.2630   16.6780  -33.9360 C   0  0  0  0  0  0  0  0  0  0  0  0
   -4.2110   17.4950  -34.3330 C   0  0  0  0  0  0  0  0  0  0  0  0
   -4.2570   18.8630  -34.0810 C   0  0  0  0  0  0  0  0  0  0  0  0
   -5.3710   19.4390  -33.4310 C   0  0  0  0  0  0  0  0  0  0  0  0
   -8.6670   21.0750  -31.1740 C   0  0  0  0  0  0  0  0  0  0  0  0
   -8.2100   22.2830  -30.3540 C   0  0  0  0  0  0  0  0  0  0  0  0
   -7.6640   23.3690  -31.2720 C   0  0  0  0  0  0  0  0  0  0  0  0
   -6.5870   22.8260  -32.1600 C   0  0  0  0  0  0  0  0  0  0  0  0
   -5.8100   23.6470  -32.7160 O   0  0  0  0  0  0  0  0  0  0  0  0
   -5.3653   25.6663  -28.5603 H   0  0  0  0  0  0  0  0  0  0  0  0
   -6.9925   25.8005  -29.3093 H   0  0  0  0  0  0  0  0  0  0  0  0
   -6.1309   24.2242  -29.3093 H   0  0  0  0  0  0  0  0  0  0  0  0
   -6.0124   25.3218  -31.5358 H   0  0  0  0  0  0  0  0  0  0  0  0
   -5.2334   26.7575  -30.7779 H   0  0  0  0  0  0  0  0  0  0  0  0
   -4.1190   24.2890  -31.5790 H   0  0  0  0  0  0  0  0  0  0  0  0
   -2.8240   24.8211  -29.1331 H   0  0  0  0  0  0  0  0  0  0  0  0
   -4.5630   24.4156  -28.8834 H   0  0  0  0  0  0  0  0  0  0  0  0
   -2.3625   22.6548  -29.5630 H   0  0  0  0  0  0  0  0  0  0  0  0
   -4.0770   22.2436  -29.2196 H   0  0  0  0  0  0  0  0  0  0  0  0
   -1.6421   22.3200  -31.7389 H   0  0  0  0  0  0  0  0  0  0  0  0
   -2.4610   20.8844  -31.0146 H   0  0  0  0  0  0  0  0  0  0  0  0
   -2.2019   21.6375  -33.8127 H   0  0  0  0  0  0  0  0  0  0  0  0
   -2.8790   20.1290  -33.0776 H   0  0  0  0  0  0  0  0  0  0  0  0
   -4.4200   22.4120  -34.1650 H   0  0  0  0  0  0  0  0  0  0  0  0
   -8.9729   18.2495  -31.1635 H   0  0  0  0  0  0  0  0  0  0  0  0
   -9.6552   18.8735  -32.7036 H   0  0  0  0  0  0  0  0  0  0  0  0
   -8.6557   17.3810  -32.7036 H   0  0  0  0  0  0  0  0  0  0  0  0
   -7.1989   16.5665  -32.9865 H   0  0  0  0  0  0  0  0  0  0  0  0
   -5.2164   15.5950  -34.1228 H   0  0  0  0  0  0  0  0  0  0  0  0
   -3.3412   17.0599  -34.8469 H   0  0  0  0  0  0  0  0  0  0  0  0
   -3.4172   19.5022  -34.3912 H   0  0  0  0  0  0  0  0  0  0  0  0
   -9.4962   21.3845  -31.8272 H   0  0  0  0  0  0  0  0  0  0  0  0
   -8.9805   20.2904  -30.4697 H   0  0  0  0  0  0  0  0  0  0  0  0
   -9.0649   22.6820  -29.7883 H   0  0  0  0  0  0  0  0  0  0  0  0
   -7.4154   21.9662  -29.6624 H   0  0  0  0  0  0  0  0  0  0  0  0
   -8.4823   23.7588  -31.8953 H   0  0  0  0  0  0  0  0  0  0  0  0
   -7.2374   24.1715  -30.6523 H   0  0  0  0  0  0  0  0  0  0  0  0
  1  2  1  0
  2  3  1  0
  3  4  1  0
  4  5  1  0
  5  6  1  0
  6  7  1  0
  7  8  1  0
  8  9  1  0
  9 10  1  0
 10 11  2  0
 11 12  1  0
 12 13  2  0
 13 14  1  0
 13 15  1  0
 15 16  2  0
 16 17  1  0
 17 18  2  0
 18 19  1  0
 19 20  2  0
 12 21  1  0
 21 22  1  0
 22 23  1  0
 23 24  1  0
 24 25  2  0
 20 10  1  0
 24 11  1  0
 20 15  1  0
  1 26  1  0
  1 27  1  0
  1 28  1  0
  2 29  1  0
  2 30  1  0
  3 31  1  0
  4 32  1  0
  4 33  1  0
  5 34  1  0
  5 35  1  0
  7 36  1  0
  7 37  1  0
  8 38  1  0
  8 39  1  0
  9 40  1  0
 14 41  1  0
 14 42  1  0
 14 43  1  0
 16 44  1  0
 17 45  1  0
 18 46  1  0
 19 47  1  0
 21 48  1  0
 21 49  1  0
 22 50  1  0
 22 51  1  0
 23 52  1  0
 23 53  1  0
M  CHG  1  13   1
M  END
>  <UniqueID>  (13) 
13

>  <SMILES>  (13) 
CCNCCOCCNc1c2c([n+](C)c3ccccc13)CCCC2=O

>  <Energy>  (13) 
68.82908496635793

>  <Genealogy>  (13) 
CCNCCOCCNc1c2c([n+](C)c3ccccc13)CCCC2=O (3D coordinates assigned)
CCNCCOCCNc1c2c([n+](C)c3ccccc13)CCCC2=O (nonaromatic ring conformer: 68.82908496635793 kcal/mol)

>  <smiles>  (13) 
CCNCCOCCNc1c2c([n+](C)c3ccccc13)CCCC2=O

>  <score_type>  (13) 
oracle

>  <origin>  (13) 
adg

>  <m_score__min__energy>  (13) 
-8.9299999999999997

>  <m_primary>  (13) 
energy

$$$$
13:0
     RDKit          3D

 40 42  0  0  0  0  0  0  0  0999 V2000
   -6.8640   15.3610  -34.2290 C   0  0  0  0  0  0  0  0  0  0  0  0
   -5.7470   16.3680  -33.9240 C   0  0  2  0  0  0  0  0  0  0  0  0
   -5.6760   16.6920  -32.4110 C   0  0  0  0  0  0  0  0  0  0  0  0
   -6.4260   17.9900  -32.0870 C   0  0  0  0  0  0  0  0  0  0  0  0
   -5.8350   19.1710  -32.7790 N   0  0  2  0  0  0  0  0  0  0  0  0
   -6.8290   20.2660  -32.9060 C   0  0  0  0  0  0  0  0  0  0  0  0
   -6.4470   21.4770  -32.0930 C   0  0  0  0  0  0  0  0  0  0  0  0
   -5.1560   21.7430  -31.7600 N   0  0  0  0  0  0  0  0  0  0  0  0
   -5.2410   22.9220  -31.1200 C   0  0  0  0  0  0  0  0  0  0  0  0
   -4.1990   23.6730  -30.5830 C   0  0  0  0  0  0  0  0  0  0  0  0
   -4.5190   24.9060  -29.9850 C   0  0  0  0  0  0  0  0  0  0  0  0
   -5.8590   25.3560  -29.9470 C   0  0  0  0  0  0  0  0  0  0  0  0
   -6.8900   24.5750  -30.5030 C   0  0  0  0  0  0  0  0  0  0  0  0
   -6.5360   23.3520  -31.0780 C   0  0  0  0  0  0  0  0  0  0  0  0
   -7.3190   22.4400  -31.6800 N   0  0  0  0  0  0  0  0  0  0  0  0
   -8.7530   22.5470  -31.9450 C   0  0  0  0  0  0  0  0  0  0  0  0
   -5.2420   18.8460  -34.1090 C   0  0  0  0  0  0  0  0  0  0  0  0
   -5.9220   17.6440  -34.7790 C   0  0  0  0  0  0  0  0  0  0  0  0
   -7.2840   14.9824  -33.2855 H   0  0  0  0  0  0  0  0  0  0  0  0
   -7.6557   15.8565  -34.8101 H   0  0  0  0  0  0  0  0  0  0  0  0
   -6.4530   14.5223  -34.8101 H   0  0  0  0  0  0  0  0  0  0  0  0
   -4.7846   15.9101  -34.1962 H   0  0  0  0  0  0  0  0  0  0  0  0
   -4.6219   16.8034  -32.1168 H   0  0  0  0  0  0  0  0  0  0  0  0
   -6.1482   15.8684  -31.8554 H   0  0  0  0  0  0  0  0  0  0  0  0
   -6.3868   18.1598  -31.0009 H   0  0  0  0  0  0  0  0  0  0  0  0
   -7.4624   17.8772  -32.4381 H   0  0  0  0  0  0  0  0  0  0  0  0
   -5.0510   19.5250  -32.1810 H   0  0  0  0  0  0  0  0  0  0  0  0
   -7.8063   19.8997  -32.5587 H   0  0  0  0  0  0  0  0  0  0  0  0
   -6.8678   20.5668  -33.9634 H   0  0  0  0  0  0  0  0  0  0  0  0
   -3.1599   23.3144  -30.6248 H   0  0  0  0  0  0  0  0  0  0  0  0
   -3.7222   25.5233  -29.5446 H   0  0  0  0  0  0  0  0  0  0  0  0
   -6.0975   26.3229  -29.4798 H   0  0  0  0  0  0  0  0  0  0  0  0
   -7.9359   24.9153  -30.4853 H   0  0  0  0  0  0  0  0  0  0  0  0
   -9.3000   22.5878  -30.9915 H   0  0  0  0  0  0  0  0  0  0  0  0
   -8.9520   23.4625  -32.5214 H   0  0  0  0  0  0  0  0  0  0  0  0
   -9.0857   21.6712  -32.5214 H   0  0  0  0  0  0  0  0  0  0  0  0
   -4.1749   18.6165  -33.9727 H   0  0  0  0  0  0  0  0  0  0  0  0
   -5.3883   19.7190  -34.7620 H   0  0  0  0  0  0  0  0  0  0  0  0
   -5.4708   17.4798  -35.7687 H   0  0  0  0  0  0  0  0  0  0  0  0
   -6.9965   17.8571  -34.8789 H   0  0  0  0  0  0  0  0  0  0  0  0
  1  2  1  0
  2  3  1  0
  3  4  1  0
  4  5  1  0
  5  6  1  0
  6  7  1  0
  7  8  2  0
  8  9  1  0
  9 10  2  0
 10 11  1  0
 11 12  2  0
 12 13  1  0
 13 14  2  0
 14 15  1  0
 15 16  1  0
  5 17  1  0
 17 18  1  0
 18  2  1  0
 15  7  1  0
 14  9  1  0
  1 19  1  0
  1 20  1  0
  1 21  1  0
  2 22  1  1
  3 23  1  0
  3 24  1  0
  4 25  1  0
  4 26  1  0
  5 27  1  6
  6 28  1  0
  6 29  1  0
 10 30  1  0
 11 31  1  0
 12 32  1  0
 13 33  1  0
 16 34  1  0
 16 35  1  0
 16 36  1  0
 17 37  1  0
 17 38  1  0
 18 39  1  0
 18 40  1  0
M  CHG  1   5   1
M  END
>  <UniqueID>  (14) 
14

>  <SMILES>  (14) 
CC1CC[NH+](Cc2nc3ccccc3n2C)CC1

>  <Energy>  (14) 
84.38971899181516

>  <Genealogy>  (14) 
CC1CC[NH+](Cc2nc3ccccc3n2C)CC1 (protonated)
CC1CC[NH+](Cc2nc3ccccc3n2C)CC1 (3D coordinates assigned)
CC1CC[NH+](Cc2nc3ccccc3n2C)CC1 (nonaromatic ring conformer: 84.38971899181516 kcal/mol)

>  <smiles>  (14) 
CC1CCN(Cc2nc3ccccc3n2C)CC1

>  <score_type>  (14) 
oracle

>  <origin>  (14) 
adg

>  <m_score__min__energy>  (14) 
-6.46

>  <m_primary>  (14) 
energy

$$$$
14:0
     RDKit          3D

 47 49  0  0  0  0  0  0  0  0999 V2000
   -6.0410   24.9280  -29.7790 C   0  0  0  0  0  0  0  0  0  0  0  0
   -4.9980   25.1810  -30.8630 C   0  0  0  0  0  0  0  0  0  0  0  0
   -3.8880   24.2220  -30.7380 N   0  0  0  0  0  0  0  0  0  0  0  0
   -4.3580   22.8370  -30.5580 C   0  0  0  0  0  0  0  0  0  0  0  0
   -3.7170   21.8740  -31.5710 C   0  0  0  0  0  0  0  0  0  0  0  0
   -4.5750   21.6890  -32.7440 N   0  0  0  0  0  0  0  0  0  0  0  0
   -5.6940   20.7860  -32.7030 C   0  0  0  0  0  0  0  0  0  0  0  0
   -6.9590   21.2860  -32.3480 C   0  0  0  0  0  0  0  0  0  0  0  0
   -7.2140   22.6750  -32.3200 C   0  0  0  0  0  0  0  0  0  0  0  0
   -8.4720   23.1600  -31.9630 C   0  0  0  0  0  0  0  0  0  0  0  0
   -9.4930   22.2750  -31.6330 C   0  0  0  0  0  0  0  0  0  0  0  0
   -9.2640   20.8990  -31.6630 C   0  0  0  0  0  0  0  0  0  0  0  0
   -7.9980   20.3840  -32.0200 C   0  0  0  0  0  0  0  0  0  0  0  0
   -7.7760   19.0340  -32.0420 N   0  0  0  0  0  0  0  0  0  0  0  0
   -8.8510   18.2040  -31.7660 O   0  0  0  0  0  0  0  0  0  0  0  0
   -6.5410   18.5210  -32.3810 C   0  0  0  0  0  0  0  0  0  0  0  0
   -6.2700   17.1420  -32.2480 C   0  0  0  0  0  0  0  0  0  0  0  0
   -5.0530   16.6010  -32.6640 C   0  0  0  0  0  0  0  0  0  0  0  0
   -4.7710   15.1380  -32.4670 C   0  0  0  0  0  0  0  0  0  0  0  0
   -4.0880   17.4300  -33.2310 C   0  0  0  0  0  0  0  0  0  0  0  0
   -4.3070   18.8080  -33.3640 C   0  0  0  0  0  0  0  0  0  0  0  0
   -3.2900   19.5910  -34.1600 C   0  0  0  0  0  0  0  0  0  0  0  0
   -5.5010   19.3860  -32.8320 C   0  0  0  0  0  0  0  0  0  0  0  0
   -5.5755   25.0409  -28.7888 H   0  0  0  0  0  0  0  0  0  0  0  0
   -6.8615   25.6532  -29.8833 H   0  0  0  0  0  0  0  0  0  0  0  0
   -6.4381   23.9075  -29.8833 H   0  0  0  0  0  0  0  0  0  0  0  0
   -5.4669   25.0665  -31.8515 H   0  0  0  0  0  0  0  0  0  0  0  0
   -4.6037   26.2015  -30.7488 H   0  0  0  0  0  0  0  0  0  0  0  0
   -3.2860   24.2800  -31.5930 H   0  0  0  0  0  0  0  0  0  0  0  0
   -4.1020   22.5046  -29.5412 H   0  0  0  0  0  0  0  0  0  0  0  0
   -5.4461   22.8242  -30.7192 H   0  0  0  0  0  0  0  0  0  0  0  0
   -2.7501   22.2862  -31.8954 H   0  0  0  0  0  0  0  0  0  0  0  0
   -3.5791   20.8976  -31.0835 H   0  0  0  0  0  0  0  0  0  0  0  0
   -4.5420   22.4080  -33.5010 H   0  0  0  0  0  0  0  0  0  0  0  0
   -6.4125   23.3812  -32.5824 H   0  0  0  0  0  0  0  0  0  0  0  0
   -8.6570   24.2441  -31.9424 H   0  0  0  0  0  0  0  0  0  0  0  0
  -10.4829   22.6607  -31.3478 H   0  0  0  0  0  0  0  0  0  0  0  0
  -10.0792   20.2068  -31.4055 H   0  0  0  0  0  0  0  0  0  0  0  0
   -9.1130   17.9190  -30.8320 H   0  0  0  0  0  0  0  0  0  0  0  0
   -7.0322   16.4819  -31.8084 H   0  0  0  0  0  0  0  0  0  0  0  0
   -4.7279   14.9146  -31.3908 H   0  0  0  0  0  0  0  0  0  0  0  0
   -5.5712   14.5443  -32.9330 H   0  0  0  0  0  0  0  0  0  0  0  0
   -3.8074   14.8843  -32.9330 H   0  0  0  0  0  0  0  0  0  0  0  0
   -3.1391   16.9965  -33.5799 H   0  0  0  0  0  0  0  0  0  0  0  0
   -2.6100   20.1145  -33.4719 H   0  0  0  0  0  0  0  0  0  0  0  0
   -2.7117   18.9027  -34.7939 H   0  0  0  0  0  0  0  0  0  0  0  0
   -3.8076   20.3260  -34.7939 H   0  0  0  0  0  0  0  0  0  0  0  0
  1  2  1  0
  2  3  1  0
  3  4  1  0
  4  5  1  0
  5  6  1  0
  6  7  1  0
  7  8  2  0
  8  9  1  0
  9 10  2  0
 10 11  1  0
 11 12  2  0
 12 13  1  0
 13 14  2  0
 14 15  1  0
 14 16  1  0
 16 17  2  0
 17 18  1  0
 18 19  1  0
 18 20  2  0
 20 21  1  0
 21 22  1  0
 21 23  2  0
 23  7  1  0
 13  8  1  0
 23 16  1  0
  1 24  1  0
  1 25  1  0
  1 26  1  0
  2 27  1  0
  2 28  1  0
  3 29  1  0
  4 30  1  0
  4 31  1  0
  5 32  1  0
  5 33  1  0
  6 34  1  0
  9 35  1  0
 10 36  1  0
 11 37  1  0
 12 38  1  0
 15 39  1  0
 17 40  1  0
 19 41  1  0
 19 42  1  0
 19 43  1  0
 20 44  1  0
 22 45  1  0
 22 46  1  0
 22 47  1  0
M  CHG  1  14   1
M  END
>  <UniqueID>  (15) 
15

>  <SMILES>  (15) 
CCNCCNc1c2ccccc2[n+](O)c2cc(C)cc(C)c12

>  <Energy>  (15) 
74.1466490049839

>  <Genealogy>  (15) 
CCNCCNc1c2ccccc2[n+](O)c2cc(C)cc(C)c12 (protonated)
CCNCCNc1c2ccccc2[n+](O)c2cc(C)cc(C)c12 (3D coordinates assigned)
CCNCCNc1c2ccccc2[n+](O)c2cc(C)cc(C)c12 (optimized conformer: 74.1466490049839 kcal/mol)

>  <smiles>  (15) 
CCNCCNc1c2ccccc2[n+]([O-])c2cc(C)cc(C)c12

>  <score_type>  (15) 
oracle

>  <origin>  (15) 
adg

>  <m_score__min__energy>  (15) 
-8.5199999999999996

>  <m_primary>  (15) 
energy

$$$$
15:0
     RDKit          3D

 60 62  0  0  0  0  0  0  0  0999 V2000
   -1.9700   20.8950  -29.2090 C   0  0  0  0  0  0  0  0  0  0  0  0
   -3.2020   21.7560  -28.9240 C   0  0  0  0  0  0  0  0  0  0  0  0
   -2.9850   23.1560  -29.3590 N   0  0  0  0  0  0  0  0  0  0  0  0
   -1.5460   23.5040  -29.3500 C   0  0  0  0  0  0  0  0  0  0  0  0
   -1.3310   24.8320  -28.6310 C   0  0  0  0  0  0  0  0  0  0  0  0
   -3.7510   24.0840  -28.4950 C   0  0  0  0  0  0  0  0  0  0  0  0
   -5.1400   24.1630  -28.9640 N   0  0  0  0  0  0  0  0  0  0  0  0
   -5.3200   25.2370  -29.9520 C   0  0  0  0  0  0  0  0  0  0  0  0
   -6.4950   24.9030  -30.8860 C   0  0  0  0  0  0  0  0  0  0  0  0
   -6.1560   23.8490  -31.9510 C   0  0  0  0  0  0  0  0  0  0  0  0
   -5.3860   22.7380  -31.3890 N   0  0  0  0  0  0  0  0  0  0  0  0
   -5.2880   21.4680  -32.0520 C   0  0  0  0  0  0  0  0  0  0  0  0
   -4.0540   21.0410  -32.5650 C   0  0  0  0  0  0  0  0  0  0  0  0
   -2.8820   21.7950  -32.3590 C   0  0  0  0  0  0  0  0  0  0  0  0
   -1.6620   21.3700  -32.8820 C   0  0  0  0  0  0  0  0  0  0  0  0
   -1.5900   20.1890  -33.6120 C   0  0  0  0  0  0  0  0  0  0  0  0
   -2.7400   19.4310  -33.8330 C   0  0  0  0  0  0  0  0  0  0  0  0
   -3.9950   19.8480  -33.3270 C   0  0  0  0  0  0  0  0  0  0  0  0
   -5.1440   19.1260  -33.5720 N   0  0  0  0  0  0  0  0  0  0  0  0
   -5.1860   18.2390  -34.7540 C   0  0  0  0  0  0  0  0  0  0  0  0
   -6.2950   19.3910  -32.8530 C   0  0  0  0  0  0  0  0  0  0  0  0
   -7.3770   18.4610  -32.7390 C   0  0  0  0  0  0  0  0  0  0  0  0
   -7.2310   16.9820  -33.0000 C   0  0  0  0  0  0  0  0  0  0  0  0
   -8.6100   18.8940  -32.2270 C   0  0  0  0  0  0  0  0  0  0  0  0
   -8.7610   20.1840  -31.7340 C   0  0  0  0  0  0  0  0  0  0  0  0
   -7.6700   21.0420  -31.6840 C   0  0  0  0  0  0  0  0  0  0  0  0
   -6.4180   20.6440  -32.1910 C   0  0  0  0  0  0  0  0  0  0  0  0
   -1.5164   20.5780  -28.2584 H   0  0  0  0  0  0  0  0  0  0  0  0
   -2.2684   20.0078  -29.7868 H   0  0  0  0  0  0  0  0  0  0  0  0
   -1.2394   21.4802  -29.7868 H   0  0  0  0  0  0  0  0  0  0  0  0
   -4.0642   21.3406  -29.4663 H   0  0  0  0  0  0  0  0  0  0  0  0
   -3.3891   21.7513  -27.8400 H   0  0  0  0  0  0  0  0  0  0  0  0
   -0.9841   22.7140  -28.8302 H   0  0  0  0  0  0  0  0  0  0  0  0
   -1.1918   23.5954  -30.3874 H   0  0  0  0  0  0  0  0  0  0  0  0
   -1.3574   24.6687  -27.5435 H   0  0  0  0  0  0  0  0  0  0  0  0
   -0.3537   25.2490  -28.9155 H   0  0  0  0  0  0  0  0  0  0  0  0
   -2.1269   25.5360  -28.9155 H   0  0  0  0  0  0  0  0  0  0  0  0
   -3.7353   23.7159  -27.4585 H   0  0  0  0  0  0  0  0  0  0  0  0
   -3.2941   25.0837  -28.5386 H   0  0  0  0  0  0  0  0  0  0  0  0
   -5.7440   24.3950  -28.1390 H   0  0  0  0  0  0  0  0  0  0  0  0
   -5.5282   26.1819  -29.4287 H   0  0  0  0  0  0  0  0  0  0  0  0
   -4.4015   25.3350  -30.5492 H   0  0  0  0  0  0  0  0  0  0  0  0
   -7.3276   24.5243  -30.2751 H   0  0  0  0  0  0  0  0  0  0  0  0
   -6.7544   25.8287  -31.4205 H   0  0  0  0  0  0  0  0  0  0  0  0
   -7.0923   23.4557  -32.3737 H   0  0  0  0  0  0  0  0  0  0  0  0
   -5.5442   24.3314  -32.7276 H   0  0  0  0  0  0  0  0  0  0  0  0
   -4.7190   22.9260  -30.6120 H   0  0  0  0  0  0  0  0  0  0  0  0
   -2.9302   22.7287  -31.7795 H   0  0  0  0  0  0  0  0  0  0  0  0
   -0.7548   21.9698  -32.7170 H   0  0  0  0  0  0  0  0  0  0  0  0
   -0.6242   19.8516  -34.0162 H   0  0  0  0  0  0  0  0  0  0  0  0
   -2.6709   18.4961  -34.4085 H   0  0  0  0  0  0  0  0  0  0  0  0
   -5.2356   17.1908  -34.4242 H   0  0  0  0  0  0  0  0  0  0  0  0
   -6.0739   18.4756  -35.3586 H   0  0  0  0  0  0  0  0  0  0  0  0
   -4.2797   18.3907  -35.3586 H   0  0  0  0  0  0  0  0  0  0  0  0
   -7.1779   16.4441  -32.0420 H   0  0  0  0  0  0  0  0  0  0  0  0
   -8.0981   16.6236  -33.5742 H   0  0  0  0  0  0  0  0  0  0  0  0
   -6.3105   16.8001  -33.5742 H   0  0  0  0  0  0  0  0  0  0  0  0
   -9.4666   18.2040  -32.2160 H   0  0  0  0  0  0  0  0  0  0  0  0
   -9.7457   20.5262  -31.3829 H   0  0  0  0  0  0  0  0  0  0  0  0
   -7.7852   22.0434  -31.2436 H   0  0  0  0  0  0  0  0  0  0  0  0
  1  2  1  0
  2  3  1  0
  3  4  1  0
  4  5  1  0
  3  6  1  0
  6  7  1  0
  7  8  1  0
  8  9  1  0
  9 10  1  0
 10 11  1  0
 11 12  1  0
 12 13  2  0
 13 14  1  0
 14 15  2  0
 15 16  1  0
 16 17  2  0
 17 18  1  0
 18 19  2  0
 19 20  1  0
 19 21  1  0
 21 22  2  0
 22 23  1  0
 22 24  1  0
 24 25  2  0
 25 26  1  0
 26 27  2  0
 27 12  1  0
 18 13  1  0
 27 21  1  0
  1 28  1  0
  1 29  1  0
  1 30  1  0
  2 31  1  0
  2 32  1  0
  4 33  1  0
  4 34  1  0
  5 35  1  0
  5 36  1  0
  5 37  1  0
  6 38  1  0
  6 39  1  0
  7 40  1  0
  8 41  1  0
  8 42  1  0
  9 43  1  0
  9 44  1  0
 10 45  1  0
 10 46  1  0
 11 47  1  0
 14 48  1  0
 15 49  1  0
 16 50  1  0
 17 51  1  0
 20 52  1  0
 20 53  1  0
 20 54  1  0
 23 55  1  0
 23 56  1  0
 23 57  1  0
 24 58  1  0
 25 59  1  0
 26 60  1  0
M  CHG  1  19   1
M  END
>  <UniqueID>  (16) 
16

>  <SMILES>  (16) 
CCN(CC)CNCCCNc1c2ccccc2[n+](C)c2c(C)cccc12

>  <Energy>  (16) 
91.64091926099626

>  <Genealogy>  (16) 
CCN(CC)CNCCCNc1c2ccccc2[n+](C)c2c(C)cccc12 (3D coordinates assigned)
CCN(CC)CNCCCNc1c2ccccc2[n+](C)c2c(C)cccc12 (optimized conformer: 91.64091926099626 kcal/mol)

>  <smiles>  (16) 
CCN(CC)CNCCCNc1c2ccccc2[n+](C)c2c(C)cccc12

>  <score_type>  (16) 
oracle

>  <origin>  (16) 
adg

>  <m_score__min__energy>  (16) 
-9.6600000000000001

>  <m_primary>  (16) 
energy

$$$$
16:0
     RDKit          3D

 50 51  0  0  0  0  0  0  0  0999 V2000
   -0.9130   27.4040  -25.0410 C   0  0  0  0  0  0  0  0  0  0  0  0
   -0.5730   27.2120  -23.5590 C   0  0  0  0  0  0  0  0  0  0  0  0
    0.2850   26.0350  -23.3330 N   0  0  0  0  0  0  0  0  0  0  0  0
    0.5080   25.2660  -24.5720 C   0  0  0  0  0  0  0  0  0  0  0  0
    0.0120   23.8090  -24.4340 C   0  0  0  0  0  0  0  0  0  0  0  0
    0.1140   23.0020  -25.7400 C   0  0  0  0  0  0  0  0  0  0  0  0
   -0.7080   23.6000  -26.8500 C   0  0  0  0  0  0  0  0  0  0  0  0
   -0.4180   23.2990  -28.1900 C   0  0  0  0  0  0  0  0  0  0  0  0
   -1.2310   23.7880  -29.2150 C   0  0  0  0  0  0  0  0  0  0  0  0
   -2.3510   24.5740  -28.9220 C   0  0  0  0  0  0  0  0  0  0  0  0
   -3.1510   25.0040  -29.9920 O   0  0  0  0  0  0  0  0  0  0  0  0
   -4.3460   24.3710  -30.4600 C   0  0  0  0  0  0  0  0  0  0  0  0
   -4.3280   22.8780  -30.0730 C   0  0  0  0  0  0  0  0  0  0  0  0
   -5.0450   21.8980  -31.0230 C   0  0  0  0  0  0  0  0  0  0  0  0
   -6.5740   22.0570  -31.0990 C   0  0  0  0  0  0  0  0  0  0  0  0
   -7.2020   23.0650  -30.1030 C   0  0  0  0  0  0  0  0  0  0  0  0
   -6.9810   24.5540  -30.4230 C   0  0  0  0  0  0  0  0  0  0  0  0
   -5.6130   25.1290  -29.9930 C   0  0  0  0  0  0  0  0  0  0  0  0
   -2.6290   24.8980  -27.5790 C   0  0  0  0  0  0  0  0  0  0  0  0
   -1.8130   24.4120  -26.5530 C   0  0  0  0  0  0  0  0  0  0  0  0
   -1.8676   27.9431  -25.1313 H   0  0  0  0  0  0  0  0  0  0  0  0
   -0.1161   27.9854  -25.5277 H   0  0  0  0  0  0  0  0  0  0  0  0
   -0.9994   26.4213  -25.5277 H   0  0  0  0  0  0  0  0  0  0  0  0
   -0.0477   28.1081  -23.1970 H   0  0  0  0  0  0  0  0  0  0  0  0
   -1.5152   27.0530  -23.0140 H   0  0  0  0  0  0  0  0  0  0  0  0
    1.1920   26.3340  -22.9080 H   0  0  0  0  0  0  0  0  0  0  0  0
   -0.1950   25.4100  -22.6440 H   0  0  0  0  0  0  0  0  0  0  0  0
   -0.0352   25.7515  -25.3962 H   0  0  0  0  0  0  0  0  0  0  0  0
    1.5892   25.2439  -24.7734 H   0  0  0  0  0  0  0  0  0  0  0  0
    0.6171   23.3061  -23.6653 H   0  0  0  0  0  0  0  0  0  0  0  0
   -1.0530   23.8531  -24.1621 H   0  0  0  0  0  0  0  0  0  0  0  0
    1.1672   22.9736  -26.0563 H   0  0  0  0  0  0  0  0  0  0  0  0
   -0.2748   21.9923  -25.5414 H   0  0  0  0  0  0  0  0  0  0  0  0
    0.4542   22.6747  -28.4341 H   0  0  0  0  0  0  0  0  0  0  0  0
   -0.9887   23.5531  -30.2620 H   0  0  0  0  0  0  0  0  0  0  0  0
   -4.3817   24.4161  -31.5585 H   0  0  0  0  0  0  0  0  0  0  0  0
   -3.2754   22.5654  -30.0070 H   0  0  0  0  0  0  0  0  0  0  0  0
   -4.8897   22.8217  -29.1289 H   0  0  0  0  0  0  0  0  0  0  0  0
   -4.6372   22.0448  -32.0340 H   0  0  0  0  0  0  0  0  0  0  0  0
   -4.8632   20.8921  -30.6168 H   0  0  0  0  0  0  0  0  0  0  0  0
   -6.8280   22.3871  -32.1171 H   0  0  0  0  0  0  0  0  0  0  0  0
   -6.9884   21.0747  -30.8281 H   0  0  0  0  0  0  0  0  0  0  0  0
   -8.2866   22.8831  -30.0786 H   0  0  0  0  0  0  0  0  0  0  0  0
   -6.6951   22.8890  -29.1427 H   0  0  0  0  0  0  0  0  0  0  0  0
   -7.0773   24.6851  -31.5109 H   0  0  0  0  0  0  0  0  0  0  0  0
   -7.7365   25.1038  -29.8425 H   0  0  0  0  0  0  0  0  0  0  0  0
   -5.5477   26.1548  -30.3849 H   0  0  0  0  0  0  0  0  0  0  0  0
   -5.6037   25.0460  -28.8962 H   0  0  0  0  0  0  0  0  0  0  0  0
   -3.4917   25.5360  -27.3369 H   0  0  0  0  0  0  0  0  0  0  0  0
   -2.0386   24.6676  -25.5072 H   0  0  0  0  0  0  0  0  0  0  0  0
  1  2  1  0
  2  3  1  0
  3  4  1  0
  4  5  1  0
  5  6  1  0
  6  7  1  0
  7  8  2  0
  8  9  1  0
  9 10  2  0
 10 11  1  0
 11 12  1  0
 12 13  1  0
 13 14  1  0
 14 15  1  0
 15 16  1  0
 16 17  1  0
 17 18  1  0
 10 19  1  0
 19 20  2  0
 20  7  1  0
 18 12  1  0
  1 21  1  0
  1 22  1  0
  1 23  1  0
  2 24  1  0
  2 25  1  0
  3 26  1  0
  3 27  1  0
  4 28  1  0
  4 29  1  0
  5 30  1  0
  5 31  1  0
  6 32  1  0
  6 33  1  0
  8 34  1  0
  9 35  1  0
 12 36  1  0
 13 37  1  0
 13 38  1  0
 14 39  1  0
 14 40  1  0
 15 41  1  0
 15 42  1  0
 16 43  1  0
 16 44  1  0
 17 45  1  0
 17 46  1  0
 18 47  1  0
 18 48  1  0
 19 49  1  0
 20 50  1  0
M  CHG  1   3   1
M  END
>  <UniqueID>  (17) 
17

>  <SMILES>  (17) 
CC[NH2+]CCCc1ccc(OC2CCCCCC2)cc1

>  <Energy>  (17) 
52.25924705261662

>  <Genealogy>  (17) 
CC[NH2+]CCCc1ccc(OC2CCCCCC2)cc1 (protonated)
CC[NH2+]CCCc1ccc(OC2CCCCCC2)cc1 (3D coordinates assigned)
CC[NH2+]CCCc1ccc(OC2CCCCCC2)cc1 (nonaromatic ring conformer: 52.25924705261662 kcal/mol)

>  <smiles>  (17) 
CCNCCCc1ccc(OC2CCCCCC2)cc1

>  <score_type>  (17) 
oracle

>  <origin>  (17) 
adg

>  <m_score__min__energy>  (17) 
-6.0700000000000003

>  <m_primary>  (17) 
energy

$$$$
17:0
     RDKit          3D

 50 53  0  0  0  0  0  0  0  0999 V2000
   -5.6860   18.1400  -34.6760 C   0  0  0  0  0  0  0  0  0  0  0  0
   -5.0690   18.9730  -33.6470 N   0  0  0  0  0  0  0  0  0  0  0  0
   -3.9920   19.7620  -33.8180 C   0  0  0  0  0  0  0  0  0  0  0  0
   -3.7450   20.4210  -32.6300 C   0  0  0  0  0  0  0  0  0  0  0  0
   -4.6680   20.0410  -31.7260 N   0  0  0  0  0  0  0  0  0  0  0  0
   -5.4530   19.1530  -32.3640 C   0  0  0  0  0  0  0  0  0  0  0  0
   -6.8770   18.3720  -31.5930 S   0  0  0  0  0  0  0  0  0  0  0  0
   -8.1160   19.4190  -32.4390 C   0  0  0  0  0  0  0  0  0  0  0  0
   -9.0950   20.0710  -31.4570 C   0  0  0  0  0  0  0  0  0  0  0  0
   -8.9350   21.6050  -31.4170 C   0  0  0  0  0  0  0  0  0  0  0  0
   -7.5470   22.0270  -31.1380 N   0  0  0  0  0  0  0  0  0  0  0  0
   -6.7570   22.3960  -32.3740 C   0  0  0  0  0  0  0  0  0  0  0  0
   -6.0740   23.8090  -32.4020 C   0  0  0  0  0  0  0  0  0  0  0  0
   -5.6590   24.2010  -30.9890 C   0  0  1  0  0  0  0  0  0  0  0  0
   -4.5100   23.3190  -30.4690 C   0  0  0  0  0  0  0  0  0  0  0  0
   -4.6590   22.1380  -29.8340 N   0  0  0  0  0  0  0  0  0  0  0  0
   -3.4440   21.6750  -29.5910 N   0  0  0  0  0  0  0  0  0  0  0  0
   -2.5910   22.5880  -30.0880 C   0  0  0  0  0  0  0  0  0  0  0  0
   -1.1050   22.4490  -30.0630 C   0  0  0  0  0  0  0  0  0  0  0  0
   -0.5260   23.6470  -29.6880 F   0  0  0  0  0  0  0  0  0  0  0  0
   -0.6560   22.1010  -31.3220 F   0  0  0  0  0  0  0  0  0  0  0  0
   -0.7390   21.4690  -29.1600 F   0  0  0  0  0  0  0  0  0  0  0  0
   -3.2350   23.5900  -30.6350 O   0  0  0  0  0  0  0  0  0  0  0  0
   -5.4630   25.6440  -30.4780 C   0  0  0  0  0  0  0  0  0  0  0  0
   -6.4930   25.3590  -29.3620 C   0  0  0  0  0  0  0  0  0  0  0  0
   -6.9660   24.1960  -30.2060 C   0  0  2  0  0  0  0  0  0  0  0  0
   -7.3800   22.7920  -29.8610 C   0  0  0  0  0  0  0  0  0  0  0  0
   -6.2758   17.3438  -34.1983 H   0  0  0  0  0  0  0  0  0  0  0  0
   -6.3452   18.7590  -35.3023 H   0  0  0  0  0  0  0  0  0  0  0  0
   -4.9017   17.6899  -35.3023 H   0  0  0  0  0  0  0  0  0  0  0  0
   -3.4087   19.8643  -34.7450 H   0  0  0  0  0  0  0  0  0  0  0  0
   -2.9296   21.1375  -32.4516 H   0  0  0  0  0  0  0  0  0  0  0  0
   -4.7600   20.3750  -30.7420 H   0  0  0  0  0  0  0  0  0  0  0  0
   -7.5907   20.2110  -32.9929 H   0  0  0  0  0  0  0  0  0  0  0  0
   -8.6969   18.7736  -33.1143 H   0  0  0  0  0  0  0  0  0  0  0  0
  -10.1226   19.8287  -31.7659 H   0  0  0  0  0  0  0  0  0  0  0  0
   -8.8800   19.6799  -30.4516 H   0  0  0  0  0  0  0  0  0  0  0  0
   -9.2385   22.0159  -32.3912 H   0  0  0  0  0  0  0  0  0  0  0  0
   -9.5675   21.9836  -30.6005 H   0  0  0  0  0  0  0  0  0  0  0  0
   -5.9634   21.6439  -32.4946 H   0  0  0  0  0  0  0  0  0  0  0  0
   -7.5013   22.4282  -33.1833 H   0  0  0  0  0  0  0  0  0  0  0  0
   -5.1849   23.7737  -33.0487 H   0  0  0  0  0  0  0  0  0  0  0  0
   -6.7841   24.5516  -32.7948 H   0  0  0  0  0  0  0  0  0  0  0  0
   -4.4483   25.8616  -30.1133 H   0  0  0  0  0  0  0  0  0  0  0  0
   -5.5833   26.5044  -31.1527 H   0  0  0  0  0  0  0  0  0  0  0  0
   -6.0560   25.0772  -28.3927 H   0  0  0  0  0  0  0  0  0  0  0  0
   -7.1840   26.1322  -28.9950 H   0  0  0  0  0  0  0  0  0  0  0  0
   -8.0027   24.3831  -30.5226 H   0  0  0  0  0  0  0  0  0  0  0  0
   -6.6056   22.3170  -29.2408 H   0  0  0  0  0  0  0  0  0  0  0  0
   -8.3245   22.8017  -29.2972 H   0  0  0  0  0  0  0  0  0  0  0  0
  1  2  1  0
  2  3  1  0
  3  4  2  0
  4  5  1  0
  5  6  2  0
  6  7  1  0
  7  8  1  0
  8  9  1  0
  9 10  1  0
 10 11  1  0
 11 12  1  0
 12 13  1  0
 13 14  1  0
 14 15  1  1
 15 16  2  0
 16 17  1  0
 17 18  2  0
 18 19  1  0
 19 20  1  0
 19 21  1  0
 19 22  1  0
 18 23  1  0
 14 24  1  0
 24 25  1  0
 25 26  1  0
 26 27  1  0
  6  2  1  0
 27 11  1  0
 26 14  1  0
 23 15  1  0
  1 28  1  0
  1 29  1  0
  1 30  1  0
  3 31  1  0
  4 32  1  0
  5 33  1  0
  8 34  1  0
  8 35  1  0
  9 36  1  0
  9 37  1  0
 10 38  1  0
 10 39  1  0
 12 40  1  0
 12 41  1  0
 13 42  1  0
 13 43  1  0
 24 44  1  0
 24 45  1  0
 25 46  1  0
 25 47  1  0
 26 48  1  6
 27 49  1  0
 27 50  1  0
M  CHG  1   5   1
M  END
>  <UniqueID>  (18) 
18

>  <SMILES>  (18) 
Cn1cc[nH+]c1SCCCN1CC[C@@]2(c3nnc(C(F)(F)F)o3)CC[C@@H]2C1

>  <Energy>  (18) 
224.59109633608855

>  <Genealogy>  (18) 
Cn1cc[nH+]c1SCCCN1CCC2(c3nnc(C(F)(F)F)o3)CCC2C1 (protonated)
Cn1cc[nH+]c1SCCCN1CC[C@@]2(c3nnc(C(F)(F)F)o3)CC[C@@H]2C1 (chirality)
Cn1cc[nH+]c1SCCCN1CC[C@@]2(c3nnc(C(F)(F)F)o3)CC[C@@H]2C1 (3D coordinates assigned)
Cn1cc[nH+]c1SCCCN1CC[C@@]2(c3nnc(C(F)(F)F)o3)CC[C@@H]2C1 (nonaromatic ring conformer: 224.59109633608855 kcal/mol)

>  <smiles>  (18) 
Cn1ccnc1SCCCN1CCC2(c3nnc(C(F)(F)F)o3)CCC2C1

>  <score_type>  (18) 
oracle

>  <origin>  (18) 
adg

>  <m_score__min__energy>  (18) 
-7.46

>  <m_primary>  (18) 
energy

$$$$
18:0
     RDKit          3D

 59 61  0  0  0  0  0  0  0  0999 V2000
   -9.6196   18.1923  -32.5188 H   0  0  0  0  0  0  0  0  0  0  0  0
   -8.9630   19.0700  -32.4260 C   0  0  0  0  0  0  0  0  0  0  0  0
   -9.4810   20.2760  -31.9720 C   0  0  0  0  0  0  0  0  0  0  0  0
  -10.5473   20.3492  -31.7117 H   0  0  0  0  0  0  0  0  0  0  0  0
   -8.6590   21.3940  -31.8440 C   0  0  0  0  0  0  0  0  0  0  0  0
   -9.1960   22.4910  -31.2540 F   0  0  0  0  0  0  0  0  0  0  0  0
   -7.2890   21.3370  -32.2230 C   0  0  0  0  0  0  0  0  0  0  0  0
   -6.7680   20.0910  -32.7040 C   0  0  0  0  0  0  0  0  0  0  0  0
   -7.6170   18.9670  -32.7640 C   0  0  0  0  0  0  0  0  0  0  0  0
   -7.2101   17.9958  -33.0822 H   0  0  0  0  0  0  0  0  0  0  0  0
   -5.3910   20.0430  -33.0190 C   0  0  0  0  0  0  0  0  0  0  0  0
   -4.5710   21.0880  -32.6680 C   0  0  0  0  0  0  0  0  0  0  0  0
   -3.2650   20.7110  -32.9500 C   0  0  0  0  0  0  0  0  0  0  0  0
   -2.0160   21.5180  -32.7310 C   0  0  0  0  0  0  0  0  0  0  0  0
   -1.8382   21.6329  -31.6516 H   0  0  0  0  0  0  0  0  0  0  0  0
   -1.1604   21.0015  -33.1906 H   0  0  0  0  0  0  0  0  0  0  0  0
   -2.1353   22.5102  -33.1906 H   0  0  0  0  0  0  0  0  0  0  0  0
   -3.3520   19.4290  -33.4800 C   0  0  0  0  0  0  0  0  0  0  0  0
   -2.1820   18.6080  -33.9510 C   0  0  0  0  0  0  0  0  0  0  0  0
   -1.6312   18.2215  -33.0808 H   0  0  0  0  0  0  0  0  0  0  0  0
   -2.5457   17.7660  -34.5583 H   0  0  0  0  0  0  0  0  0  0  0  0
   -1.5139   19.2364  -34.5583 H   0  0  0  0  0  0  0  0  0  0  0  0
   -4.6520   19.0440  -33.5790 N   0  0  0  0  0  0  0  0  0  0  0  0
   -5.1200   17.8590  -34.3050 C   0  0  0  0  0  0  0  0  0  0  0  0
   -5.4256   17.0851  -33.5855 H   0  0  0  0  0  0  0  0  0  0  0  0
   -5.9781   18.1314  -34.9371 H   0  0  0  0  0  0  0  0  0  0  0  0
   -4.3074   17.4716  -34.9371 H   0  0  0  0  0  0  0  0  0  0  0  0
   -5.0800   22.2680  -32.1200 C   0  0  0  0  0  0  0  0  0  0  0  0
   -4.2340   23.1100  -31.5840 N   0  0  0  0  0  0  0  0  0  0  0  0
   -4.1600   23.6440  -30.2260 C   0  0  0  0  0  0  0  0  0  0  0  0
   -5.0872   23.4020  -29.6860 H   0  0  0  0  0  0  0  0  0  0  0  0
   -4.0341   24.7360  -30.2681 H   0  0  0  0  0  0  0  0  0  0  0  0
   -2.9670   23.0210  -29.4960 C   0  0  0  0  0  0  0  0  0  0  0  0
   -2.4141   23.8171  -28.9759 H   0  0  0  0  0  0  0  0  0  0  0  0
   -2.3352   22.5203  -30.2444 H   0  0  0  0  0  0  0  0  0  0  0  0
   -3.4080   21.9640  -28.4620 C   0  0  0  0  0  0  0  0  0  0  0  0
   -4.4441   21.6654  -28.6793 H   0  0  0  0  0  0  0  0  0  0  0  0
   -3.3246   22.4126  -27.4611 H   0  0  0  0  0  0  0  0  0  0  0  0
   -2.5390   20.7500  -28.4970 N   0  0  0  0  0  0  0  0  0  0  0  0
   -3.0470   19.9720  -28.9810 H   0  0  0  0  0  0  0  0  0  0  0  0
   -2.2670   20.2280  -27.1310 C   0  0  0  0  0  0  0  0  0  0  0  0
   -2.4709   21.0313  -26.4078 H   0  0  0  0  0  0  0  0  0  0  0  0
   -1.2165   19.9018  -27.1207 H   0  0  0  0  0  0  0  0  0  0  0  0
   -3.1130   19.0050  -26.7440 C   0  0  0  0  0  0  0  0  0  0  0  0
   -3.1663   18.9280  -25.6480 H   0  0  0  0  0  0  0  0  0  0  0  0
   -4.1278   19.1167  -27.1535 H   0  0  0  0  0  0  0  0  0  0  0  0
   -2.6505   18.0948  -27.1535 H   0  0  0  0  0  0  0  0  0  0  0  0
   -1.2740   20.9740  -29.2450 C   0  0  0  0  0  0  0  0  0  0  0  0
   -1.4355   21.7789  -29.9772 H   0  0  0  0  0  0  0  0  0  0  0  0
   -0.4972   21.2408  -28.5134 H   0  0  0  0  0  0  0  0  0  0  0  0
   -0.8000   19.7220  -29.9890 C   0  0  0  0  0  0  0  0  0  0  0  0
   -0.5081   18.9511  -29.2606 H   0  0  0  0  0  0  0  0  0  0  0  0
   -1.6157   19.3398  -30.6204 H   0  0  0  0  0  0  0  0  0  0  0  0
    0.0643   19.9758  -30.6204 H   0  0  0  0  0  0  0  0  0  0  0  0
   -6.4540   22.4400  -32.0990 N   0  0  0  0  0  0  0  0  0  0  0  0
   -7.0240   23.7970  -32.1960 C   0  0  0  0  0  0  0  0  0  0  0  0
   -7.1921   24.1972  -31.1853 H   0  0  0  0  0  0  0  0  0  0  0  0
   -6.3244   24.4507  -32.7375 H   0  0  0  0  0  0  0  0  0  0  0  0
   -7.9805   23.7551  -32.7375 H   0  0  0  0  0  0  0  0  0  0  0  0
  1  2  1  0
  2  3  2  0
  3  4  1  0
  3  5  1  0
  5  6  1  0
  5  7  2  0
  7  8  1  0
  8  9  2  0
  9 10  1  0
  8 11  1  0
 11 12  2  0
 12 13  1  0
 13 14  1  0
 14 15  1  0
 14 16  1  0
 14 17  1  0
 13 18  2  0
 18 19  1  0
 19 20  1  0
 19 21  1  0
 19 22  1  0
 18 23  1  0
 23 24  1  0
 24 25  1  0
 24 26  1  0
 24 27  1  0
 12 28  1  0
 28 29  2  0
 29 30  1  0
 30 31  1  0
 30 32  1  0
 30 33  1  0
 33 34  1  0
 33 35  1  0
 33 36  1  0
 36 37  1  0
 36 38  1  0
 36 39  1  0
 39 40  1  0
 39 41  1  0
 41 42  1  0
 41 43  1  0
 41 44  1  0
 44 45  1  0
 44 46  1  0
 44 47  1  0
 39 48  1  0
 48 49  1  0
 48 50  1  0
 48 51  1  0
 51 52  1  0
 51 53  1  0
 51 54  1  0
 28 55  1  0
 55 56  1  0
 56 57  1  0
 56 58  1  0
 56 59  1  0
  9  2  1  0
 23 11  1  0
 55  7  1  0
M  CHG  1  39   1
M  END
>  <UniqueID>  (19) 
19

>  <SMILES>  (19) 
CC[NH+](CC)CCC/N=c1/c2c(C)c(C)n(C)c2c2cccc(F)c2n1C

>  <Energy>  (19) 
128.53626861469598

>  <Genealogy>  (19) 
CC[NH+](CC)CCCN=c1c2c(C)c(C)n(C)c2c2cccc(F)c2n1C (protonated)
CC[NH+](CC)CCC/N=c1/c2c(C)c(C)n(C)c2c2cccc(F)c2n1C (cis-trans isomerization)
CC[NH+](CC)CCC/N=c1/c2c(C)c(C)n(C)c2c2cccc(F)c2n1C (3D coordinates assigned)
CC[NH+](CC)CCC/N=c1/c2c(C)c(C)n(C)c2c2cccc(F)c2n1C (optimized conformer: 128.53626861469598 kcal/mol)

>  <smiles>  (19) 
CCN(CC)CCCN=c1c2c(C)c(C)n(C)c2c2cccc(F)c2n1C

>  <score_type>  (19) 
oracle

>  <origin>  (19) 
adg

>  <m_score__min__energy>  (19) 
-7.5499999999999998

>  <m_primary>  (19) 
energy

$$$$
19:0
     RDKit          3D

 40 43  0  0  0  0  0  0  0  0999 V2000
   -8.8730   18.4520  -31.4160 C   0  0  0  0  0  0  0  0  0  0  0  0
   -7.8980   18.9210  -32.3980 N   0  0  0  0  0  0  0  0  0  0  0  0
   -7.5350   20.2060  -32.6580 C   0  0  0  0  0  0  0  0  0  0  0  0
   -8.1940   21.6060  -31.8270 S   0  0  0  0  0  0  0  0  0  0  0  0
   -9.8650   21.6550  -31.9940 O   0  0  0  0  0  0  0  0  0  0  0  0
   -7.4400   23.1400  -32.3470 C   0  0  0  0  0  0  0  0  0  0  0  0
   -6.4240   23.6070  -31.3290 C   0  0  0  0  0  0  0  0  0  0  0  0
   -6.7940   24.6320  -30.4470 C   0  0  0  0  0  0  0  0  0  0  0  0
   -5.8580   25.1380  -29.5440 C   0  0  0  0  0  0  0  0  0  0  0  0
   -6.1870   26.0520  -28.7430 O   0  0  0  0  0  0  0  0  0  0  0  0
   -4.6170   24.6670  -29.5270 O   0  0  0  0  0  0  0  0  0  0  0  0
   -4.2020   23.7080  -30.3460 C   0  0  0  0  0  0  0  0  0  0  0  0
   -2.8680   23.2880  -30.2860 C   0  0  0  0  0  0  0  0  0  0  0  0
   -2.4020   22.2980  -31.1520 C   0  0  0  0  0  0  0  0  0  0  0  0
   -3.2680   21.7140  -32.0770 C   0  0  0  0  0  0  0  0  0  0  0  0
   -4.6040   22.1140  -32.1410 C   0  0  0  0  0  0  0  0  0  0  0  0
   -5.0930   23.1230  -31.2830 C   0  0  0  0  0  0  0  0  0  0  0  0
   -6.4860   20.2920  -33.5130 N   0  0  0  0  0  0  0  0  0  0  0  0
   -6.1620   19.0140  -33.7660 C   0  0  0  0  0  0  0  0  0  0  0  0
   -5.0850   18.5330  -34.5070 C   0  0  0  0  0  0  0  0  0  0  0  0
   -4.8960   17.1400  -34.5520 C   0  0  0  0  0  0  0  0  0  0  0  0
   -5.7670   16.2740  -33.8500 C   0  0  0  0  0  0  0  0  0  0  0  0
   -6.8380   16.7950  -33.0980 C   0  0  0  0  0  0  0  0  0  0  0  0
   -7.0080   18.1810  -33.0880 C   0  0  0  0  0  0  0  0  0  0  0  0
   -8.4896   18.6364  -30.4016 H   0  0  0  0  0  0  0  0  0  0  0  0
   -9.8211   18.9926  -31.5535 H   0  0  0  0  0  0  0  0  0  0  0  0
   -9.0424   17.3739  -31.5535 H   0  0  0  0  0  0  0  0  0  0  0  0
  -10.1960   21.8910  -31.0920 H   0  0  0  0  0  0  0  0  0  0  0  0
   -6.9384   22.9865  -33.3139 H   0  0  0  0  0  0  0  0  0  0  0  0
   -8.2241   23.9057  -32.4417 H   0  0  0  0  0  0  0  0  0  0  0  0
   -7.8172   25.0355  -30.4666 H   0  0  0  0  0  0  0  0  0  0  0  0
   -2.1840   23.7404  -29.5529 H   0  0  0  0  0  0  0  0  0  0  0  0
   -1.3507   21.9777  -31.1053 H   0  0  0  0  0  0  0  0  0  0  0  0
   -2.8964   20.9349  -32.7589 H   0  0  0  0  0  0  0  0  0  0  0  0
   -5.2814   21.6391  -32.8660 H   0  0  0  0  0  0  0  0  0  0  0  0
   -5.9880   21.1530  -33.8320 H   0  0  0  0  0  0  0  0  0  0  0  0
   -4.4070   19.2177  -35.0376 H   0  0  0  0  0  0  0  0  0  0  0  0
   -4.0645   16.7207  -35.1375 H   0  0  0  0  0  0  0  0  0  0  0  0
   -5.6068   15.1865  -33.8917 H   0  0  0  0  0  0  0  0  0  0  0  0
   -7.5162   16.1338  -32.5387 H   0  0  0  0  0  0  0  0  0  0  0  0
  1  2  1  0
  2  3  1  0
  3  4  1  0
  4  5  1  6
  4  6  1  0
  6  7  1  0
  7  8  2  0
  8  9  1  0
  9 10  2  0
  9 11  1  0
 11 12  1  0
 12 13  2  0
 13 14  1  0
 14 15  2  0
 15 16  1  0
 16 17  2  0
  3 18  2  0
 18 19  1  0
 19 20  2  0
 20 21  1  0
 21 22  2  0
 22 23  1  0
 23 24  2  0
 24  2  1  0
 17  7  1  0
 24 19  1  0
 17 12  1  0
  1 25  1  0
  1 26  1  0
  1 27  1  0
  5 28  1  0
  6 29  1  0
  6 30  1  0
  8 31  1  0
 13 32  1  0
 14 33  1  0
 15 34  1  0
 16 35  1  0
 18 36  1  0
 20 37  1  0
 21 38  1  0
 22 39  1  0
 23 40  1  0
M  CHG  2   4   1  18   1
M  END
>  <UniqueID>  (20) 
20

>  <SMILES>  (20) 
Cn1c([S@+](O)Cc2cc(=O)oc3ccccc23)[nH+]c2ccccc21

>  <Energy>  (20) 
81.53173729310335

>  <Genealogy>  (20) 
Cn1c([S+](O)Cc2cc(=O)oc3ccccc23)[nH+]c2ccccc21 (protonated)
Cn1c([S@+](O)Cc2cc(=O)oc3ccccc23)[nH+]c2ccccc21 (chirality)
Cn1c([S@+](O)Cc2cc(=O)oc3ccccc23)[nH+]c2ccccc21 (3D coordinates assigned)
Cn1c([S@+](O)Cc2cc(=O)oc3ccccc23)[nH+]c2ccccc21 (optimized conformer: 81.53173729310335 kcal/mol)

>  <smiles>  (20) 
Cn1c([S+]([O-])Cc2cc(=O)oc3ccccc23)nc2ccccc21

>  <score_type>  (20) 
oracle

>  <origin>  (20) 
adg

>  <m_score__min__energy>  (20) 
-8.25

>  <m_primary>  (20) 
energy

$$$$
20:0
     RDKit          3D

 55 56  0  0  0  0  0  0  0  0999 V2000
   -9.0230   19.0800  -32.2690 C   0  0  0  0  0  0  0  0  0  0  0  0
   -8.3870   20.1380  -31.3560 C   0  0  0  0  0  0  0  0  0  0  0  0
   -8.2400   21.4690  -31.9880 N   0  0  0  0  0  0  0  0  0  0  0  0
   -9.4900   22.2490  -31.9540 C   0  0  0  0  0  0  0  0  0  0  0  0
   -7.0900   22.2350  -31.4580 C   0  0  0  0  0  0  0  0  0  0  0  0
   -6.7050   23.3620  -32.4150 C   0  0  0  0  0  0  0  0  0  0  0  0
   -5.5290   23.9950  -31.9420 O   0  0  0  0  0  0  0  0  0  0  0  0
   -5.8210   24.9940  -30.9830 C   0  0  0  0  0  0  0  0  0  0  0  0
   -4.7570   25.0110  -29.8870 C   0  0  0  0  0  0  0  0  0  0  0  0
   -3.4900   24.7830  -30.4680 O   0  0  0  0  0  0  0  0  0  0  0  0
   -2.7730   23.8040  -29.7410 C   0  0  0  0  0  0  0  0  0  0  0  0
   -3.2940   22.3890  -30.0690 C   0  0  0  0  0  0  0  0  0  0  0  0
   -3.6960   22.2590  -31.4820 N   0  0  0  0  0  0  0  0  0  0  0  0
   -3.0120   21.2460  -32.2820 C   0  0  0  0  0  0  0  0  0  0  0  0
   -1.6080   21.1970  -32.4040 C   0  0  0  0  0  0  0  0  0  0  0  0
   -0.9950   20.2260  -33.1850 C   0  0  0  0  0  0  0  0  0  0  0  0
   -1.7240   19.2900  -33.8580 N   0  0  0  0  0  0  0  0  0  0  0  0
   -0.9940   18.2930  -34.6600 C   0  0  0  0  0  0  0  0  0  0  0  0
   -3.1000   19.2930  -33.7820 C   0  0  0  0  0  0  0  0  0  0  0  0
   -3.8780   18.3360  -34.4790 C   0  0  0  0  0  0  0  0  0  0  0  0
   -5.2680   18.3480  -34.4010 C   0  0  0  0  0  0  0  0  0  0  0  0
   -5.9180   19.3080  -33.6350 C   0  0  0  0  0  0  0  0  0  0  0  0
   -5.1830   20.2650  -32.9390 C   0  0  0  0  0  0  0  0  0  0  0  0
   -3.7700   20.2760  -32.9920 C   0  0  0  0  0  0  0  0  0  0  0  0
   -9.4926   18.2988  -31.6532 H   0  0  0  0  0  0  0  0  0  0  0  0
   -9.7858   19.5543  -32.9039 H   0  0  0  0  0  0  0  0  0  0  0  0
   -8.2463   18.6289  -32.9039 H   0  0  0  0  0  0  0  0  0  0  0  0
   -9.0180   20.2475  -30.4617 H   0  0  0  0  0  0  0  0  0  0  0  0
   -7.3727   19.7849  -31.1181 H   0  0  0  0  0  0  0  0  0  0  0  0
   -9.7807   22.4304  -30.9087 H   0  0  0  0  0  0  0  0  0  0  0  0
   -9.3357   23.2114  -32.4639 H   0  0  0  0  0  0  0  0  0  0  0  0
  -10.2866   21.6874  -32.4639 H   0  0  0  0  0  0  0  0  0  0  0  0
   -7.3617   22.6661  -30.4831 H   0  0  0  0  0  0  0  0  0  0  0  0
   -6.2322   21.5551  -31.3488 H   0  0  0  0  0  0  0  0  0  0  0  0
   -6.5215   22.9469  -33.4170 H   0  0  0  0  0  0  0  0  0  0  0  0
   -7.5228   24.0957  -32.4691 H   0  0  0  0  0  0  0  0  0  0  0  0
   -5.8456   25.9756  -31.4788 H   0  0  0  0  0  0  0  0  0  0  0  0
   -6.7978   24.7748  -30.5271 H   0  0  0  0  0  0  0  0  0  0  0  0
   -4.7611   25.9898  -29.3851 H   0  0  0  0  0  0  0  0  0  0  0  0
   -4.9729   24.2242  -29.1493 H   0  0  0  0  0  0  0  0  0  0  0  0
   -1.7072   23.8665  -30.0058 H   0  0  0  0  0  0  0  0  0  0  0  0
   -2.9113   23.9908  -28.6658 H   0  0  0  0  0  0  0  0  0  0  0  0
   -2.4974   21.6602  -29.8585 H   0  0  0  0  0  0  0  0  0  0  0  0
   -4.1812   22.2021  -29.4461 H   0  0  0  0  0  0  0  0  0  0  0  0
   -4.7270   22.0750  -31.5100 H   0  0  0  0  0  0  0  0  0  0  0  0
   -3.5190   23.1860  -31.9340 H   0  0  0  0  0  0  0  0  0  0  0  0
   -0.9906   21.9372  -31.8739 H   0  0  0  0  0  0  0  0  0  0  0  0
    0.1022   20.2114  -33.2626 H   0  0  0  0  0  0  0  0  0  0  0  0
   -0.4787   17.5893  -33.9897 H   0  0  0  0  0  0  0  0  0  0  0  0
   -1.7037   17.7420  -35.2946 H   0  0  0  0  0  0  0  0  0  0  0  0
   -0.2544   18.8032  -35.2946 H   0  0  0  0  0  0  0  0  0  0  0  0
   -3.3763   17.5720  -35.0910 H   0  0  0  0  0  0  0  0  0  0  0  0
   -5.8539   17.5946  -34.9479 H   0  0  0  0  0  0  0  0  0  0  0  0
   -7.0165   19.3123  -33.5780 H   0  0  0  0  0  0  0  0  0  0  0  0
   -5.7091   21.0227  -32.3398 H   0  0  0  0  0  0  0  0  0  0  0  0
  1  2  1  0
  2  3  1  0
  3  4  1  0
  3  5  1  0
  5  6  1  0
  6  7  1  0
  7  8  1  0
  8  9  1  0
  9 10  1  0
 10 11  1  0
 11 12  1  0
 12 13  1  0
 13 14  1  0
 14 15  2  0
 15 16  1  0
 16 17  2  0
 17 18  1  0
 17 19  1  0
 19 20  2  0
 20 21  1  0
 21 22  2  0
 22 23  1  0
 23 24  2  0
 24 14  1  0
 24 19  1  0
  1 25  1  0
  1 26  1  0
  1 27  1  0
  2 28  1  0
  2 29  1  0
  4 30  1  0
  4 31  1  0
  4 32  1  0
  5 33  1  0
  5 34  1  0
  6 35  1  0
  6 36  1  0
  8 37  1  0
  8 38  1  0
  9 39  1  0
  9 40  1  0
 11 41  1  0
 11 42  1  0
 12 43  1  0
 12 44  1  0
 13 45  1  0
 13 46  1  0
 15 47  1  0
 16 48  1  0
 18 49  1  0
 18 50  1  0
 18 51  1  0
 20 52  1  0
 21 53  1  0
 22 54  1  0
 23 55  1  0
M  CHG  2  13   1  17   1
M  END
>  <UniqueID>  (21) 
21

>  <SMILES>  (21) 
CCN(C)CCOCCOCC[NH2+]c1cc[n+](C)c2ccccc12

>  <Energy>  (21) 
73.19839159810616

>  <Genealogy>  (21) 
CCN(C)CCOCCOCC[NH2+]c1cc[n+](C)c2ccccc12 (protonated)
CCN(C)CCOCCOCC[NH2+]c1cc[n+](C)c2ccccc12 (3D coordinates assigned)
CCN(C)CCOCCOCC[NH2+]c1cc[n+](C)c2ccccc12 (optimized conformer: 73.19839159810616 kcal/mol)

>  <smiles>  (21) 
CCN(C)CCOCCOCCNc1cc[n+](C)c2ccccc12

>  <score_type>  (21) 
oracle

>  <origin>  (21) 
adg

>  <m_score__min__energy>  (21) 
-7.1600000000000001

>  <m_primary>  (21) 
energy

$$$$
21:0
     RDKit          3D

 47 48  0  0  0  0  0  0  0  0999 V2000
   -4.4540   23.1970  -28.9710 C   0  0  0  0  0  0  0  0  0  0  0  0
   -3.5260   24.0030  -29.8650 C   0  0  0  0  0  0  0  0  0  0  0  0
   -4.2950   24.7090  -30.8180 O   0  0  0  0  0  0  0  0  0  0  0  0
   -5.6200   24.2170  -30.8450 C   0  0  0  0  0  0  0  0  0  0  0  0
   -5.9970   23.7950  -32.2670 C   0  0  0  0  0  0  0  0  0  0  0  0
   -6.1070   22.3360  -32.3610 N   0  0  0  0  0  0  0  0  0  0  0  0
   -5.1280   21.4380  -32.6560 C   0  0  0  0  0  0  0  0  0  0  0  0
   -3.4110   21.8730  -32.9480 S   0  0  0  0  0  0  0  0  0  0  0  0
   -2.7840   20.2010  -32.5650 C   0  0  0  0  0  0  0  0  0  0  0  0
   -2.8660   19.2910  -33.8010 C   0  0  0  0  0  0  0  0  0  0  0  0
   -3.8040   18.1520  -33.6130 N   0  0  2  0  0  0  0  0  0  0  0  0
   -3.0360   16.9230  -33.3270 C   0  0  0  0  0  0  0  0  0  0  0  0
   -4.6550   17.9640  -34.8190 C   0  0  0  0  0  0  0  0  0  0  0  0
   -6.0380   17.3990  -34.4750 C   0  0  0  0  0  0  0  0  0  0  0  0
   -5.5610   20.1510  -32.6730 N   0  0  0  0  0  0  0  0  0  0  0  0
   -6.8700   20.2690  -32.3850 C   0  0  0  0  0  0  0  0  0  0  0  0
   -7.8090   19.2460  -32.2700 C   0  0  0  0  0  0  0  0  0  0  0  0
   -9.1320   19.6040  -31.9510 C   0  0  0  0  0  0  0  0  0  0  0  0
   -9.4790   20.9610  -31.7520 C   0  0  0  0  0  0  0  0  0  0  0  0
   -8.5050   21.9710  -31.8740 C   0  0  0  0  0  0  0  0  0  0  0  0
   -7.2040   21.5800  -32.1970 C   0  0  0  0  0  0  0  0  0  0  0  0
   -4.2173   23.4026  -27.9166 H   0  0  0  0  0  0  0  0  0  0  0  0
   -5.4971   23.4806  -29.1747 H   0  0  0  0  0  0  0  0  0  0  0  0
   -4.3192   22.1245  -29.1747 H   0  0  0  0  0  0  0  0  0  0  0  0
   -2.9535   24.7159  -29.2533 H   0  0  0  0  0  0  0  0  0  0  0  0
   -2.8298   23.3254  -30.3810 H   0  0  0  0  0  0  0  0  0  0  0  0
   -5.6989   23.3482  -30.1750 H   0  0  0  0  0  0  0  0  0  0  0  0
   -6.3050   25.0107  -30.5121 H   0  0  0  0  0  0  0  0  0  0  0  0
   -6.9630   24.2482  -32.5343 H   0  0  0  0  0  0  0  0  0  0  0  0
   -5.2120   24.1364  -32.9578 H   0  0  0  0  0  0  0  0  0  0  0  0
   -1.7356   20.2746  -32.2403 H   0  0  0  0  0  0  0  0  0  0  0  0
   -3.4028   19.7669  -31.7658 H   0  0  0  0  0  0  0  0  0  0  0  0
   -3.2075   19.8906  -34.6576 H   0  0  0  0  0  0  0  0  0  0  0  0
   -1.8636   18.8716  -33.9724 H   0  0  0  0  0  0  0  0  0  0  0  0
   -4.4110   18.3390  -32.7810 H   0  0  0  0  0  0  0  0  0  0  0  0
   -2.9518   16.7882  -32.2385 H   0  0  0  0  0  0  0  0  0  0  0  0
   -3.5538   16.0568  -33.7647 H   0  0  0  0  0  0  0  0  0  0  0  0
   -2.0305   17.0088  -33.7647 H   0  0  0  0  0  0  0  0  0  0  0  0
   -4.7842   18.9370  -35.3155 H   0  0  0  0  0  0  0  0  0  0  0  0
   -4.1507   17.2404  -35.4763 H   0  0  0  0  0  0  0  0  0  0  0  0
   -6.1533   17.3519  -33.3821 H   0  0  0  0  0  0  0  0  0  0  0  0
   -6.8162   18.0513  -34.8980 H   0  0  0  0  0  0  0  0  0  0  0  0
   -6.1368   16.3884  -34.8980 H   0  0  0  0  0  0  0  0  0  0  0  0
   -7.5257   18.1942  -32.4234 H   0  0  0  0  0  0  0  0  0  0  0  0
   -9.9014   18.8236  -31.8557 H   0  0  0  0  0  0  0  0  0  0  0  0
  -10.5158   21.2289  -31.5005 H   0  0  0  0  0  0  0  0  0  0  0  0
   -8.7600   23.0299  -31.7203 H   0  0  0  0  0  0  0  0  0  0  0  0
  1  2  1  0
  2  3  1  0
  3  4  1  0
  4  5  1  0
  5  6  1  0
  6  7  1  0
  7  8  1  0
  8  9  1  0
  9 10  1  0
 10 11  1  0
 11 12  1  0
 11 13  1  0
 13 14  1  0
  7 15  2  0
 15 16  1  0
 16 17  2  0
 17 18  1  0
 18 19  2  0
 19 20  1  0
 20 21  2  0
 21  6  1  0
 21 16  1  0
  1 22  1  0
  1 23  1  0
  1 24  1  0
  2 25  1  0
  2 26  1  0
  4 27  1  0
  4 28  1  0
  5 29  1  0
  5 30  1  0
  9 31  1  0
  9 32  1  0
 10 33  1  0
 10 34  1  0
 11 35  1  1
 12 36  1  0
 12 37  1  0
 12 38  1  0
 13 39  1  0
 13 40  1  0
 14 41  1  0
 14 42  1  0
 14 43  1  0
 17 44  1  0
 18 45  1  0
 19 46  1  0
 20 47  1  0
M  CHG  1  11   1
M  END
>  <UniqueID>  (22) 
22

>  <SMILES>  (22) 
CCOCCn1c(SCC[N@H+](C)CC)nc2ccccc21

>  <Energy>  (22) 
76.55035978718888

>  <Genealogy>  (22) 
CCOCCn1c(SCC[NH+](C)CC)nc2ccccc21 (protonated)
CCOCCn1c(SCC[N@H+](C)CC)nc2ccccc21 (chirality)
CCOCCn1c(SCC[N@H+](C)CC)nc2ccccc21 (3D coordinates assigned)
CCOCCn1c(SCC[N@H+](C)CC)nc2ccccc21 (optimized conformer: 76.55035978718888 kcal/mol)

>  <smiles>  (22) 
CCOCCn1c(SCCN(C)CC)nc2ccccc21

>  <score_type>  (22) 
oracle

>  <origin>  (22) 
adg

>  <m_score__min__energy>  (22) 
-6.2800000000000002

>  <m_primary>  (22) 
energy

$$$$
22:0
     RDKit          3D

 62 65  0  0  0  0  0  0  0  0999 V2000
   -1.6230   21.1070  -29.3660 C   0  0  0  0  0  0  0  0  0  0  0  0
   -0.9640   22.4060  -29.8560 C   0  0  0  0  0  0  0  0  0  0  0  0
   -1.5430   23.6460  -29.2710 N   0  0  0  0  0  0  0  0  0  0  0  0
   -0.6180   24.3400  -28.3360 C   0  0  0  0  0  0  0  0  0  0  0  0
   -1.1220   25.7250  -27.9110 C   0  0  0  0  0  0  0  0  0  0  0  0
   -2.8570   23.3730  -28.6150 C   0  0  0  0  0  0  0  0  0  0  0  0
   -3.9260   24.4320  -28.9480 C   0  0  0  0  0  0  0  0  0  0  0  0
   -3.7950   24.9140  -30.3320 N   0  0  0  0  0  0  0  0  0  0  0  0
   -5.0900   25.0030  -31.0310 C   0  0  0  0  0  0  0  0  0  0  0  0
   -5.3580   23.7880  -31.9370 C   0  0  0  0  0  0  0  0  0  0  0  0
   -4.5680   22.6290  -31.5270 N   0  0  0  0  0  0  0  0  0  0  0  0
   -4.5860   21.4320  -32.3100 C   0  0  0  0  0  0  0  0  0  0  0  0
   -3.4060   20.8930  -32.8660 C   0  0  0  0  0  0  0  0  0  0  0  0
   -2.1690   21.5450  -32.6930 C   0  0  0  0  0  0  0  0  0  0  0  0
   -1.0100   21.0330  -33.2720 C   0  0  0  0  0  0  0  0  0  0  0  0
   -1.0630   19.8760  -34.0410 C   0  0  0  0  0  0  0  0  0  0  0  0
   -2.2730   19.2070  -34.2290 C   0  0  0  0  0  0  0  0  0  0  0  0
   -3.4700   19.6820  -33.6370 C   0  0  0  0  0  0  0  0  0  0  0  0
   -4.6780   19.0180  -33.8030 N   0  0  0  0  0  0  0  0  0  0  0  0
   -4.7510   17.7210  -34.5010 C   0  0  0  0  0  0  0  0  0  0  0  0
   -5.8150   19.6070  -33.3100 C   0  0  0  0  0  0  0  0  0  0  0  0
   -7.0890   19.1620  -33.4640 N   0  0  0  0  0  0  0  0  0  0  0  0
   -7.8530   20.0570  -32.8060 C   0  0  0  0  0  0  0  0  0  0  0  0
   -9.2430   20.0370  -32.6810 C   0  0  0  0  0  0  0  0  0  0  0  0
   -9.8570   21.0740  -31.9580 C   0  0  0  0  0  0  0  0  0  0  0  0
   -9.0790   22.1030  -31.3830 C   0  0  0  0  0  0  0  0  0  0  0  0
   -7.6800   22.1060  -31.5250 C   0  0  0  0  0  0  0  0  0  0  0  0
   -7.0940   21.0610  -32.2450 C   0  0  0  0  0  0  0  0  0  0  0  0
   -5.7820   20.7750  -32.5760 C   0  0  0  0  0  0  0  0  0  0  0  0
   -1.6306   21.0920  -28.2661 H   0  0  0  0  0  0  0  0  0  0  0  0
   -2.6560   21.0560  -29.7406 H   0  0  0  0  0  0  0  0  0  0  0  0
   -1.0541   20.2433  -29.7406 H   0  0  0  0  0  0  0  0  0  0  0  0
    0.1044   22.3692  -29.5966 H   0  0  0  0  0  0  0  0  0  0  0  0
   -1.1396   22.4581  -30.9406 H   0  0  0  0  0  0  0  0  0  0  0  0
   -1.7060   24.2910  -30.0820 H   0  0  0  0  0  0  0  0  0  0  0  0
   -0.4987   23.7191  -27.4358 H   0  0  0  0  0  0  0  0  0  0  0  0
    0.3357   24.4852  -28.8645 H   0  0  0  0  0  0  0  0  0  0  0  0
   -1.1442   25.7860  -26.8129 H   0  0  0  0  0  0  0  0  0  0  0  0
   -0.4476   26.4982  -28.3077 H   0  0  0  0  0  0  0  0  0  0  0  0
   -2.1356   25.8840  -28.3077 H   0  0  0  0  0  0  0  0  0  0  0  0
   -3.2197   22.3905  -28.9515 H   0  0  0  0  0  0  0  0  0  0  0  0
   -2.6944   23.3993  -27.5274 H   0  0  0  0  0  0  0  0  0  0  0  0
   -4.9232   23.9865  -28.8176 H   0  0  0  0  0  0  0  0  0  0  0  0
   -3.7874   25.2872  -28.2702 H   0  0  0  0  0  0  0  0  0  0  0  0
   -3.1460   24.2830  -30.8550 H   0  0  0  0  0  0  0  0  0  0  0  0
   -5.8918   25.0667  -30.2806 H   0  0  0  0  0  0  0  0  0  0  0  0
   -5.0622   25.8968  -31.6716 H   0  0  0  0  0  0  0  0  0  0  0  0
   -6.4259   23.5300  -31.8822 H   0  0  0  0  0  0  0  0  0  0  0  0
   -5.0715   24.0545  -32.9651 H   0  0  0  0  0  0  0  0  0  0  0  0
   -3.9250   22.6750  -30.7040 H   0  0  0  0  0  0  0  0  0  0  0  0
   -2.1180   22.4669  -32.0952 H   0  0  0  0  0  0  0  0  0  0  0  0
   -0.0490   21.5462  -33.1201 H   0  0  0  0  0  0  0  0  0  0  0  0
   -0.1450   19.4854  -34.5043 H   0  0  0  0  0  0  0  0  0  0  0  0
   -2.2983   18.2968  -34.8462 H   0  0  0  0  0  0  0  0  0  0  0  0
   -4.7967   16.9084  -33.7610 H   0  0  0  0  0  0  0  0  0  0  0  0
   -5.6521   17.6940  -35.1313 H   0  0  0  0  0  0  0  0  0  0  0  0
   -3.8586   17.5931  -35.1313 H   0  0  0  0  0  0  0  0  0  0  0  0
   -7.4410   18.3360  -33.9940 H   0  0  0  0  0  0  0  0  0  0  0  0
   -9.8406   19.2329  -33.1352 H   0  0  0  0  0  0  0  0  0  0  0  0
  -10.9505   21.0843  -31.8392 H   0  0  0  0  0  0  0  0  0  0  0  0
   -9.5716   22.9089  -30.8193 H   0  0  0  0  0  0  0  0  0  0  0  0
   -7.0664   22.9052  -31.0836 H   0  0  0  0  0  0  0  0  0  0  0  0
  1  2  1  0
  2  3  1  0
  3  4  1  0
  4  5  1  0
  3  6  1  0
  6  7  1  0
  7  8  1  0
  8  9  1  0
  9 10  1  0
 10 11  1  0
 11 12  1  0
 12 13  2  0
 13 14  1  0
 14 15  2  0
 15 16  1  0
 16 17  2  0
 17 18  1  0
 18 19  2  0
 19 20  1  0
 19 21  1  0
 21 22  1  0
 22 23  1  0
 23 24  2  0
 24 25  1  0
 25 26  2  0
 26 27  1  0
 27 28  2  0
 28 29  1  0
 29 12  1  0
 18 13  1  0
 29 21  2  0
 28 23  1  0
  1 30  1  0
  1 31  1  0
  1 32  1  0
  2 33  1  0
  2 34  1  0
  3 35  1  0
  4 36  1  0
  4 37  1  0
  5 38  1  0
  5 39  1  0
  5 40  1  0
  6 41  1  0
  6 42  1  0
  7 43  1  0
  7 44  1  0
  8 45  1  0
  9 46  1  0
  9 47  1  0
 10 48  1  0
 10 49  1  0
 11 50  1  0
 14 51  1  0
 15 52  1  0
 16 53  1  0
 17 54  1  0
 20 55  1  0
 20 56  1  0
 20 57  1  0
 22 58  1  0
 24 59  1  0
 25 60  1  0
 26 61  1  0
 27 62  1  0
M  CHG  2   3   1  19   1
M  END
>  <UniqueID>  (23) 
23

>  <SMILES>  (23) 
CC[NH+](CC)CCNCCNc1c2ccccc2[n+](C)c2[nH]c3ccccc3c12

>  <Energy>  (23) 
125.28140687660681

>  <Genealogy>  (23) 
CC[NH+](CC)CCNCCNc1c2ccccc2[n+](C)c2[nH]c3ccccc3c12 (protonated)
CC[NH+](CC)CCNCCNc1c2ccccc2[n+](C)c2[nH]c3ccccc3c12 (3D coordinates assigned)
CC[NH+](CC)CCNCCNc1c2ccccc2[n+](C)c2[nH]c3ccccc3c12 (optimized conformer: 125.28140687660681 kcal/mol)

>  <smiles>  (23) 
CCN(CC)CCNCCNc1c2ccccc2[n+](C)c2[nH]c3ccccc3c12

>  <score_type>  (23) 
oracle

>  <origin>  (23) 
adg

>  <m_score__min__energy>  (23) 
-7.0999999999999996

>  <m_primary>  (23) 
energy

$$$$
23:0
     RDKit          3D

 63 65  0  0  0  0  0  0  0  0999 V2000
   -0.3210   24.6630  -27.7810 C   0  0  0  0  0  0  0  0  0  0  0  0
   -1.6350   25.2740  -28.2390 C   0  0  0  0  0  0  0  0  0  0  0  0
   -2.1500   24.5170  -29.3120 O   0  0  0  0  0  0  0  0  0  0  0  0
   -3.5600   24.5470  -29.2750 C   0  0  0  0  0  0  0  0  0  0  0  0
   -4.0710   23.5520  -28.2370 C   0  0  0  0  0  0  0  0  0  0  0  0
   -3.0040   22.7640  -27.7430 O   0  0  0  0  0  0  0  0  0  0  0  0
   -3.3030   21.3780  -27.7700 C   0  0  0  0  0  0  0  0  0  0  0  0
   -2.1280   20.6180  -28.3800 C   0  0  0  0  0  0  0  0  0  0  0  0
   -1.0030   21.5340  -28.6120 N   0  0  0  0  0  0  0  0  0  0  0  0
   -0.2110   21.1450  -29.7880 C   0  0  0  0  0  0  0  0  0  0  0  0
   -0.9500   21.4880  -31.0880 C   0  0  0  0  0  0  0  0  0  0  0  0
   -2.1360   22.3020  -30.7950 N   0  0  0  0  0  0  0  0  0  0  0  0
   -3.3530   21.6430  -31.2820 C   0  0  0  0  0  0  0  0  0  0  0  0
   -3.2170   21.3460  -32.7810 C   0  0  0  0  0  0  0  0  0  0  0  0
   -4.4550   21.6460  -33.5290 N   0  0  0  0  0  0  0  0  0  0  0  0
   -5.5800   20.8530  -33.0660 C   0  0  0  0  0  0  0  0  0  0  0  0
   -5.7290   19.4750  -33.3880 C   0  0  0  0  0  0  0  0  0  0  0  0
   -4.7870   18.8020  -34.2000 C   0  0  0  0  0  0  0  0  0  0  0  0
   -4.9000   17.4380  -34.4490 C   0  0  0  0  0  0  0  0  0  0  0  0
   -5.9450   16.7110  -33.8970 C   0  0  0  0  0  0  0  0  0  0  0  0
   -6.9040   17.3450  -33.1110 C   0  0  0  0  0  0  0  0  0  0  0  0
   -6.8440   18.7390  -32.8600 C   0  0  0  0  0  0  0  0  0  0  0  0
   -7.8150   19.3780  -32.1020 N   0  0  0  0  0  0  0  0  0  0  0  0
   -9.0330   18.6630  -31.6710 C   0  0  0  0  0  0  0  0  0  0  0  0
   -7.6230   20.6900  -31.7420 C   0  0  0  0  0  0  0  0  0  0  0  0
   -8.4320   21.4430  -30.8610 C   0  0  0  0  0  0  0  0  0  0  0  0
   -7.9950   22.7510  -30.6890 C   0  0  0  0  0  0  0  0  0  0  0  0
   -6.6050   22.9790  -31.6060 S   0  0  0  0  0  0  0  0  0  0  0  0
   -6.5440   21.4150  -32.2260 C   0  0  0  0  0  0  0  0  0  0  0  0
   -0.2874   24.6474  -26.6816 H   0  0  0  0  0  0  0  0  0  0  0  0
   -0.2410   23.6353  -28.1649 H   0  0  0  0  0  0  0  0  0  0  0  0
    0.5164   25.2641  -28.1649 H   0  0  0  0  0  0  0  0  0  0  0  0
   -2.3536   25.2678  -27.4062 H   0  0  0  0  0  0  0  0  0  0  0  0
   -1.4662   26.3107  -28.5659 H   0  0  0  0  0  0  0  0  0  0  0  0
   -3.8968   25.5594  -29.0073 H   0  0  0  0  0  0  0  0  0  0  0  0
   -3.9552   24.2746  -30.2647 H   0  0  0  0  0  0  0  0  0  0  0  0
   -4.5317   24.1022  -27.4033 H   0  0  0  0  0  0  0  0  0  0  0  0
   -4.8133   22.8921  -28.7098 H   0  0  0  0  0  0  0  0  0  0  0  0
   -3.4789   21.0204  -26.7447 H   0  0  0  0  0  0  0  0  0  0  0  0
   -4.2050   21.2083  -28.3762 H   0  0  0  0  0  0  0  0  0  0  0  0
   -1.8125   19.8209  -27.6907 H   0  0  0  0  0  0  0  0  0  0  0  0
   -2.4405   20.1797  -29.3393 H   0  0  0  0  0  0  0  0  0  0  0  0
   -1.3980   22.4880  -28.7850 H   0  0  0  0  0  0  0  0  0  0  0  0
    0.7492   21.6812  -29.7681 H   0  0  0  0  0  0  0  0  0  0  0  0
   -0.0467   20.0578  -29.7552 H   0  0  0  0  0  0  0  0  0  0  0  0
   -0.2770   22.0513  -31.7512 H   0  0  0  0  0  0  0  0  0  0  0  0
   -1.2658   20.5557  -31.5791 H   0  0  0  0  0  0  0  0  0  0  0  0
   -2.2090   22.4010  -29.7540 H   0  0  0  0  0  0  0  0  0  0  0  0
   -3.5022   20.7005  -30.7348 H   0  0  0  0  0  0  0  0  0  0  0  0
   -4.2157   22.3058  -31.1192 H   0  0  0  0  0  0  0  0  0  0  0  0
   -2.4000   21.9587  -33.1898 H   0  0  0  0  0  0  0  0  0  0  0  0
   -3.0097   20.2715  -32.8926 H   0  0  0  0  0  0  0  0  0  0  0  0
   -4.3000   21.4730  -34.5470 H   0  0  0  0  0  0  0  0  0  0  0  0
   -4.6620   22.6690  -33.4610 H   0  0  0  0  0  0  0  0  0  0  0  0
   -3.9520   19.3657  -34.6416 H   0  0  0  0  0  0  0  0  0  0  0  0
   -4.1582   16.9339  -35.0859 H   0  0  0  0  0  0  0  0  0  0  0  0
   -6.0163   15.6289  -34.0811 H   0  0  0  0  0  0  0  0  0  0  0  0
   -7.7233   16.7531  -32.6768 H   0  0  0  0  0  0  0  0  0  0  0  0
   -9.0744   18.6387  -30.5720 H   0  0  0  0  0  0  0  0  0  0  0  0
   -9.9206   19.1834  -32.0599 H   0  0  0  0  0  0  0  0  0  0  0  0
   -9.0113   17.6343  -32.0599 H   0  0  0  0  0  0  0  0  0  0  0  0
   -9.3215   21.0334  -30.3599 H   0  0  0  0  0  0  0  0  0  0  0  0
   -8.4785   23.5109  -30.0575 H   0  0  0  0  0  0  0  0  0  0  0  0
  1  2  1  0
  2  3  1  0
  3  4  1  0
  4  5  1  0
  5  6  1  0
  6  7  1  0
  7  8  1  0
  8  9  1  0
  9 10  1  0
 10 11  1  0
 11 12  1  0
 12 13  1  0
 13 14  1  0
 14 15  1  0
 15 16  1  0
 16 17  2  0
 17 18  1  0
 18 19  2  0
 19 20  1  0
 20 21  2  0
 21 22  1  0
 22 23  2  0
 23 24  1  0
 23 25  1  0
 25 26  1  0
 26 27  2  0
 27 28  1  0
 28 29  1  0
 29 16  1  0
 22 17  1  0
 29 25  2  0
  1 30  1  0
  1 31  1  0
  1 32  1  0
  2 33  1  0
  2 34  1  0
  4 35  1  0
  4 36  1  0
  5 37  1  0
  5 38  1  0
  7 39  1  0
  7 40  1  0
  8 41  1  0
  8 42  1  0
  9 43  1  0
 10 44  1  0
 10 45  1  0
 11 46  1  0
 11 47  1  0
 12 48  1  0
 13 49  1  0
 13 50  1  0
 14 51  1  0
 14 52  1  0
 15 53  1  0
 15 54  1  0
 18 55  1  0
 19 56  1  0
 20 57  1  0
 21 58  1  0
 24 59  1  0
 24 60  1  0
 24 61  1  0
 26 62  1  0
 27 63  1  0
M  CHG  2  15   1  23   1
M  END
>  <UniqueID>  (24) 
24

>  <SMILES>  (24) 
CCOCCOCCNCCNCC[NH2+]c1c2ccccc2[n+](C)c2ccsc12

>  <Energy>  (24) 
94.71812322981269

>  <Genealogy>  (24) 
CCOCCOCCNCCNCC[NH2+]c1c2ccccc2[n+](C)c2ccsc12 (protonated)
CCOCCOCCNCCNCC[NH2+]c1c2ccccc2[n+](C)c2ccsc12 (3D coordinates assigned)
CCOCCOCCNCCNCC[NH2+]c1c2ccccc2[n+](C)c2ccsc12 (optimized conformer: 94.71812322981269 kcal/mol)

>  <smiles>  (24) 
CCOCCOCCNCCNCCNc1c2ccccc2[n+](C)c2ccsc12

>  <score_type>  (24) 
oracle

>  <origin>  (24) 
adg

>  <m_score__min__energy>  (24) 
-7.5800000000000001

>  <m_primary>  (24) 
energy

$$$$
24:0
     RDKit          3D

 67 70  0  0  0  0  0  0  0  0999 V2000
   -0.9030   21.1590  -31.3360 C   0  0  0  0  0  0  0  0  0  0  0  0
   -0.9900   20.5140  -32.6560 N   0  0  0  0  0  0  0  0  0  0  0  0
   -1.2610   19.0770  -32.4780 C   0  0  0  0  0  0  0  0  0  0  0  0
   -2.0380   21.1630  -33.4780 C   0  0  0  0  0  0  0  0  0  0  0  0
   -3.3140   21.4220  -32.6570 C   0  0  0  0  0  0  0  0  0  0  0  0
   -4.5270   21.2950  -33.4670 N   0  0  0  0  0  0  0  0  0  0  0  0
   -5.6450   20.5460  -32.9730 C   0  0  0  0  0  0  0  0  0  0  0  0
   -5.6340   19.1490  -33.1400 C   0  0  0  0  0  0  0  0  0  0  0  0
   -4.4860   18.4900  -33.6390 C   0  0  0  0  0  0  0  0  0  0  0  0
   -4.4850   17.1140  -33.8490 C   0  0  0  0  0  0  0  0  0  0  0  0
   -5.6260   16.3700  -33.5810 C   0  0  0  0  0  0  0  0  0  0  0  0
   -6.7650   16.9940  -33.0790 C   0  0  0  0  0  0  0  0  0  0  0  0
   -6.7840   18.3890  -32.8170 C   0  0  0  0  0  0  0  0  0  0  0  0
   -7.8980   19.0120  -32.2960 N   0  0  0  0  0  0  0  0  0  0  0  0
   -8.9900   18.1990  -31.7130 C   0  0  0  0  0  0  0  0  0  0  0  0
   -7.9790   20.3920  -32.2760 C   0  0  0  0  0  0  0  0  0  0  0  0
   -9.2210   21.0350  -32.0640 C   0  0  0  0  0  0  0  0  0  0  0  0
   -9.3060   22.4100  -31.9340 C   0  0  0  0  0  0  0  0  0  0  0  0
   -8.1600   23.1840  -31.9710 C   0  0  0  0  0  0  0  0  0  0  0  0
   -6.9000   22.6120  -32.2200 C   0  0  0  0  0  0  0  0  0  0  0  0
   -5.7420   23.4740  -32.0550 N   0  0  0  0  0  0  0  0  0  0  0  0
   -6.0680   24.7000  -31.3010 C   0  0  0  0  0  0  0  0  0  0  0  0
   -6.0590   24.4610  -29.7790 C   0  0  0  0  0  0  0  0  0  0  0  0
   -4.6350   24.4940  -29.2040 C   0  0  0  0  0  0  0  0  0  0  0  0
   -3.7410   23.5670  -29.9370 N   0  0  0  0  0  0  0  0  0  0  0  0
   -3.9940   22.1690  -29.5600 C   0  0  0  0  0  0  0  0  0  0  0  0
   -3.0850   21.8370  -28.3920 C   0  0  0  0  0  0  0  0  0  0  0  0
   -1.9250   22.8040  -28.5120 C   0  0  0  0  0  0  0  0  0  0  0  0
   -2.3250   23.7950  -29.5990 C   0  0  0  0  0  0  0  0  0  0  0  0
   -6.8160   21.1970  -32.4910 C   0  0  0  0  0  0  0  0  0  0  0  0
   -1.0057   20.3979  -30.5485 H   0  0  0  0  0  0  0  0  0  0  0  0
    0.0709   21.6605  -31.2365 H   0  0  0  0  0  0  0  0  0  0  0  0
   -1.7092   21.9007  -31.2365 H   0  0  0  0  0  0  0  0  0  0  0  0
   -1.3052   18.8425  -31.4042 H   0  0  0  0  0  0  0  0  0  0  0  0
   -2.2227   18.8242  -32.9484 H   0  0  0  0  0  0  0  0  0  0  0  0
   -0.4575   18.4913  -32.9484 H   0  0  0  0  0  0  0  0  0  0  0  0
   -1.6542   22.1223  -33.8554 H   0  0  0  0  0  0  0  0  0  0  0  0
   -2.2919   20.4901  -34.3103 H   0  0  0  0  0  0  0  0  0  0  0  0
   -3.3597   20.6938  -31.8338 H   0  0  0  0  0  0  0  0  0  0  0  0
   -3.2678   22.4531  -32.2767 H   0  0  0  0  0  0  0  0  0  0  0  0
   -4.6180   21.7850  -34.3840 H   0  0  0  0  0  0  0  0  0  0  0  0
   -3.5811   19.0734  -33.8643 H   0  0  0  0  0  0  0  0  0  0  0  0
   -3.5801   16.6161  -34.2273 H   0  0  0  0  0  0  0  0  0  0  0  0
   -5.6303   15.2856  -33.7656 H   0  0  0  0  0  0  0  0  0  0  0  0
   -7.6664   16.3951  -32.8819 H   0  0  0  0  0  0  0  0  0  0  0  0
   -8.9329   18.2415  -30.6153 H   0  0  0  0  0  0  0  0  0  0  0  0
   -9.9604   18.5962  -32.0453 H   0  0  0  0  0  0  0  0  0  0  0  0
   -8.8877   17.1554  -32.0453 H   0  0  0  0  0  0  0  0  0  0  0  0
  -10.1375   20.4299  -32.0012 H   0  0  0  0  0  0  0  0  0  0  0  0
  -10.2873   22.8888  -31.8009 H   0  0  0  0  0  0  0  0  0  0  0  0
   -8.2360   24.2683  -31.8023 H   0  0  0  0  0  0  0  0  0  0  0  0
   -5.3580   23.7610  -32.9860 H   0  0  0  0  0  0  0  0  0  0  0  0
   -4.9480   22.9670  -31.6200 H   0  0  0  0  0  0  0  0  0  0  0  0
   -5.3250   25.4741  -31.5433 H   0  0  0  0  0  0  0  0  0  0  0  0
   -7.0812   25.0169  -31.5892 H   0  0  0  0  0  0  0  0  0  0  0  0
   -6.6577   25.2449  -29.2921 H   0  0  0  0  0  0  0  0  0  0  0  0
   -6.4817   23.4637  -29.5873 H   0  0  0  0  0  0  0  0  0  0  0  0
   -4.2379   25.5165  -29.2869 H   0  0  0  0  0  0  0  0  0  0  0  0
   -4.6765   24.1790  -28.1509 H   0  0  0  0  0  0  0  0  0  0  0  0
   -5.0460   22.0450  -29.2636 H   0  0  0  0  0  0  0  0  0  0  0  0
   -3.7936   21.4979  -30.4082 H   0  0  0  0  0  0  0  0  0  0  0  0
   -3.6126   21.9823  -27.4378 H   0  0  0  0  0  0  0  0  0  0  0  0
   -2.7530   20.7885  -28.4113 H   0  0  0  0  0  0  0  0  0  0  0  0
   -1.7610   23.3266  -27.5580 H   0  0  0  0  0  0  0  0  0  0  0  0
   -0.9877   22.2848  -28.7608 H   0  0  0  0  0  0  0  0  0  0  0  0
   -2.1915   24.8233  -29.2318 H   0  0  0  0  0  0  0  0  0  0  0  0
   -1.6958   23.6533  -30.4901 H   0  0  0  0  0  0  0  0  0  0  0  0
  1  2  1  0
  2  3  1  0
  2  4  1  0
  4  5  1  0
  5  6  1  0
  6  7  1  0
  7  8  2  0
  8  9  1  0
  9 10  2  0
 10 11  1  0
 11 12  2  0
 12 13  1  0
 13 14  2  0
 14 15  1  0
 14 16  1  0
 16 17  2  0
 17 18  1  0
 18 19  2  0
 19 20  1  0
 20 21  1  0
 21 22  1  0
 22 23  1  0
 23 24  1  0
 24 25  1  0
 25 26  1  0
 26 27  1  0
 27 28  1  0
 28 29  1  0
 20 30  2  0
 30  7  1  0
 13  8  1  0
 30 16  1  0
 29 25  1  0
  1 31  1  0
  1 32  1  0
  1 33  1  0
  3 34  1  0
  3 35  1  0
  3 36  1  0
  4 37  1  0
  4 38  1  0
  5 39  1  0
  5 40  1  0
  6 41  1  0
  9 42  1  0
 10 43  1  0
 11 44  1  0
 12 45  1  0
 15 46  1  0
 15 47  1  0
 15 48  1  0
 17 49  1  0
 18 50  1  0
 19 51  1  0
 21 52  1  0
 21 53  1  0
 22 54  1  0
 22 55  1  0
 23 56  1  0
 23 57  1  0
 24 58  1  0
 24 59  1  0
 26 60  1  0
 26 61  1  0
 27 62  1  0
 27 63  1  0
 28 64  1  0
 28 65  1  0
 29 66  1  0
 29 67  1  0
M  CHG  2  14   1  21   1
M  END
>  <UniqueID>  (25) 
25

>  <SMILES>  (25) 
CN(C)CCNc1c2ccccc2[n+](C)c2cccc([NH2+]CCCN3CCCC3)c12

>  <Energy>  (25) 
108.7686616002838

>  <Genealogy>  (25) 
CN(C)CCNc1c2ccccc2[n+](C)c2cccc([NH2+]CCCN3CCCC3)c12 (protonated)
CN(C)CCNc1c2ccccc2[n+](C)c2cccc([NH2+]CCCN3CCCC3)c12 (3D coordinates assigned)
CN(C)CCNc1c2ccccc2[n+](C)c2cccc([NH2+]CCCN3CCCC3)c12 (nonaromatic ring conformer: 108.7686616002838 kcal/mol)

>  <smiles>  (25) 
CN(C)CCNc1c2ccccc2[n+](C)c2cccc(NCCCN3CCCC3)c12

>  <score_type>  (25) 
oracle

>  <origin>  (25) 
adg

>  <m_score__min__energy>  (25) 
-8.5299999999999994

>  <m_primary>  (25) 
energy

$$$$
25:0
     RDKit          3D

111114  0  0  0  0  0  0  0  0999 V2000
   -2.5790   18.9320  -26.5330 C   0  0  0  0  0  0  0  0  0  0  0  0
   -2.6310   20.1840  -27.4060 C   0  0  0  0  0  0  0  0  0  0  0  0
   -1.5980   20.1550  -28.5450 C   0  0  0  0  0  0  0  0  0  0  0  0
   -2.2240   20.4600  -29.9140 C   0  0  0  0  0  0  0  0  0  0  0  0
   -1.2230   20.3870  -31.0790 C   0  0  0  0  0  0  0  0  0  0  0  0
   -1.2410   21.5930  -32.0290 C   0  0  0  0  0  0  0  0  0  0  0  0
   -1.1730   21.2290  -33.5250 C   0  0  0  0  0  0  0  0  0  0  0  0
   -2.3960   20.6910  -34.0210 O   0  0  0  0  0  0  0  0  0  0  0  0
   -2.9110   19.4050  -33.7980 C   0  0  0  0  0  0  0  0  0  0  0  0
   -2.0990   18.2720  -33.9510 C   0  0  0  0  0  0  0  0  0  0  0  0
   -2.6230   16.9900  -33.8260 C   0  0  0  0  0  0  0  0  0  0  0  0
   -1.8120   15.8520  -33.9230 O   0  0  0  0  0  0  0  0  0  0  0  0
   -0.3890   15.8590  -33.9940 C   0  0  0  0  0  0  0  0  0  0  0  0
    0.2770   15.0600  -32.8420 C   0  0  0  0  0  0  0  0  0  0  0  0
    1.0040   15.8330  -31.7760 N   0  0  0  0  0  0  0  0  0  0  0  0
    2.4630   15.8330  -32.0990 C   0  0  0  0  0  0  0  0  0  0  0  0
    0.4790   17.2380  -31.6290 C   0  0  0  0  0  0  0  0  0  0  0  0
    0.1980   17.6960  -30.1720 C   0  0  0  0  0  0  0  0  0  0  0  0
    1.2290   17.2500  -29.1910 N   0  0  0  0  0  0  0  0  0  0  0  0
    2.4850   18.0580  -29.3760 C   0  0  0  0  0  0  0  0  0  0  0  0
    0.7060   17.5410  -27.8260 C   0  0  0  0  0  0  0  0  0  0  0  0
    1.4830   15.7620  -29.2850 C   0  0  0  0  0  0  0  0  0  0  0  0
    0.8170   15.0830  -30.5020 C   0  0  0  0  0  0  0  0  0  0  0  0
   -3.9730   16.8200  -33.5450 C   0  0  0  0  0  0  0  0  0  0  0  0
   -4.8430   17.9340  -33.3950 C   0  0  0  0  0  0  0  0  0  0  0  0
   -4.2820   19.2460  -33.4370 C   0  0  0  0  0  0  0  0  0  0  0  0
   -5.1090   20.3490  -33.1100 C   0  0  0  0  0  0  0  0  0  0  0  0
   -4.5400   21.6480  -32.8810 N   0  0  0  0  0  0  0  0  0  0  0  0
   -4.5270   22.2570  -31.5500 C   0  0  0  0  0  0  0  0  0  0  0  0
   -5.1300   23.6610  -31.5830 C   0  0  0  0  0  0  0  0  0  0  0  0
   -4.3140   24.5900  -30.7830 N   0  0  0  0  0  0  0  0  0  0  0  0
   -4.7110   24.5730  -29.3810 C   0  0  0  0  0  0  0  0  0  0  0  0
   -3.5420   24.1180  -28.4920 C   0  0  0  0  0  0  0  0  0  0  0  0
   -2.2480   24.6600  -28.9640 N   0  0  0  0  0  0  0  0  0  0  0  0
   -1.5860   25.4930  -27.9350 C   0  0  0  0  0  0  0  0  0  0  0  0
   -2.2200   25.2710  -26.5620 C   0  0  0  0  0  0  0  0  0  0  0  0
   -1.3360   23.6390  -29.5380 C   0  0  0  0  0  0  0  0  0  0  0  0
   -0.1030   23.3380  -28.6780 C   0  0  0  0  0  0  0  0  0  0  0  0
   -6.4610   20.1350  -32.7780 C   0  0  0  0  0  0  0  0  0  0  0  0
   -7.2800   21.2060  -32.3630 C   0  0  0  0  0  0  0  0  0  0  0  0
   -8.6070   20.9950  -31.9920 C   0  0  0  0  0  0  0  0  0  0  0  0
   -9.1320   19.7120  -32.0020 C   0  0  0  0  0  0  0  0  0  0  0  0
   -8.3330   18.6340  -32.3620 C   0  0  0  0  0  0  0  0  0  0  0  0
   -6.9930   18.8190  -32.7990 C   0  0  0  0  0  0  0  0  0  0  0  0
   -6.2060   17.7590  -33.1880 N   0  0  0  0  0  0  0  0  0  0  0  0
   -6.8220   16.4340  -33.4530 C   0  0  0  0  0  0  0  0  0  0  0  0
   -2.5911   19.2237  -25.4725 H   0  0  0  0  0  0  0  0  0  0  0  0
   -3.4516   18.2980  -26.7489 H   0  0  0  0  0  0  0  0  0  0  0  0
   -1.6568   18.3725  -26.7489 H   0  0  0  0  0  0  0  0  0  0  0  0
   -3.6365   20.2661  -27.8445 H   0  0  0  0  0  0  0  0  0  0  0  0
   -2.3958   21.0466  -26.7652 H   0  0  0  0  0  0  0  0  0  0  0  0
   -0.8219   20.9061  -28.3367 H   0  0  0  0  0  0  0  0  0  0  0  0
   -1.1766   19.1398  -28.5886 H   0  0  0  0  0  0  0  0  0  0  0  0
   -3.0269   19.7313  -30.0993 H   0  0  0  0  0  0  0  0  0  0  0  0
   -2.5979   21.4937  -29.8745 H   0  0  0  0  0  0  0  0  0  0  0  0
   -0.2117   20.3024  -30.6547 H   0  0  0  0  0  0  0  0  0  0  0  0
   -1.5185   19.5165  -31.6830 H   0  0  0  0  0  0  0  0  0  0  0  0
   -2.1706   22.1545  -31.8539 H   0  0  0  0  0  0  0  0  0  0  0  0
   -0.3366   22.1789  -31.8081 H   0  0  0  0  0  0  0  0  0  0  0  0
   -0.9317   22.1373  -34.0966 H   0  0  0  0  0  0  0  0  0  0  0  0
   -0.4004   20.4547  -33.6416 H   0  0  0  0  0  0  0  0  0  0  0  0
   -1.0294   18.3995  -34.1737 H   0  0  0  0  0  0  0  0  0  0  0  0
   -0.0832   15.4140  -34.9524 H   0  0  0  0  0  0  0  0  0  0  0  0
   -0.0591   16.9045  -33.9044 H   0  0  0  0  0  0  0  0  0  0  0  0
   -0.5153   14.4817  -32.3441 H   0  0  0  0  0  0  0  0  0  0  0  0
    1.0614   14.4676  -33.3357 H   0  0  0  0  0  0  0  0  0  0  0  0
    2.8210   14.7959  -32.1783 H   0  0  0  0  0  0  0  0  0  0  0  0
    2.6269   16.3515  -33.0552 H   0  0  0  0  0  0  0  0  0  0  0  0
    3.0151   16.3515  -31.3013 H   0  0  0  0  0  0  0  0  0  0  0  0
    1.2208   17.9244  -32.0632 H   0  0  0  0  0  0  0  0  0  0  0  0
   -0.4929   17.2534  -32.1439 H   0  0  0  0  0  0  0  0  0  0  0  0
    0.1566   18.7951  -30.1559 H   0  0  0  0  0  0  0  0  0  0  0  0
   -0.7533   17.2342  -29.8690 H   0  0  0  0  0  0  0  0  0  0  0  0
    2.8982   18.3238  -28.3918 H   0  0  0  0  0  0  0  0  0  0  0  0
    3.2233   17.4650  -29.9357 H   0  0  0  0  0  0  0  0  0  0  0  0
    2.2515   18.9757  -29.9357 H   0  0  0  0  0  0  0  0  0  0  0  0
    1.4073   17.1508  -27.0737 H   0  0  0  0  0  0  0  0  0  0  0  0
    0.5990   18.6283  -27.6984 H   0  0  0  0  0  0  0  0  0  0  0  0
   -0.2743   17.0587  -27.6984 H   0  0  0  0  0  0  0  0  0  0  0  0
    2.5691   15.6007  -29.3512 H   0  0  0  0  0  0  0  0  0  0  0  0
    1.0393   15.3077  -28.3868 H   0  0  0  0  0  0  0  0  0  0  0  0
    1.2510   14.0794  -30.6217 H   0  0  0  0  0  0  0  0  0  0  0  0
   -0.2641   15.0483  -30.3022 H   0  0  0  0  0  0  0  0  0  0  0  0
   -4.3768   15.8026  -33.4364 H   0  0  0  0  0  0  0  0  0  0  0  0
   -4.4480   22.2700  -33.7100 H   0  0  0  0  0  0  0  0  0  0  0  0
   -5.1132   21.6300  -30.8620 H   0  0  0  0  0  0  0  0  0  0  0  0
   -3.4837   22.3321  -31.2096 H   0  0  0  0  0  0  0  0  0  0  0  0
   -5.1667   24.0152  -32.6238 H   0  0  0  0  0  0  0  0  0  0  0  0
   -6.1448   23.6231  -31.1602 H   0  0  0  0  0  0  0  0  0  0  0  0
   -3.3320   24.2420  -30.8290 H   0  0  0  0  0  0  0  0  0  0  0  0
   -5.0206   25.5849  -29.0808 H   0  0  0  0  0  0  0  0  0  0  0  0
   -5.5454   23.8670  -29.2577 H   0  0  0  0  0  0  0  0  0  0  0  0
   -3.7201   24.4665  -27.4640 H   0  0  0  0  0  0  0  0  0  0  0  0
   -3.4882   23.0201  -28.5340 H   0  0  0  0  0  0  0  0  0  0  0  0
   -0.5200   25.2260  -27.8868 H   0  0  0  0  0  0  0  0  0  0  0  0
   -1.7052   26.5514  -28.2099 H   0  0  0  0  0  0  0  0  0  0  0  0
   -1.4929   25.5256  -25.7769 H   0  0  0  0  0  0  0  0  0  0  0  0
   -3.1085   25.9115  -26.4605 H   0  0  0  0  0  0  0  0  0  0  0  0
   -2.5149   24.2161  -26.4605 H   0  0  0  0  0  0  0  0  0  0  0  0
   -1.9024   22.7048  -29.6667 H   0  0  0  0  0  0  0  0  0  0  0  0
   -0.9640   24.0485  -30.4887 H   0  0  0  0  0  0  0  0  0  0  0  0
   -0.3733   23.4040  -27.6138 H   0  0  0  0  0  0  0  0  0  0  0  0
    0.2615   22.3245  -28.9016 H   0  0  0  0  0  0  0  0  0  0  0  0
    0.6875   24.0696  -28.9016 H   0  0  0  0  0  0  0  0  0  0  0  0
   -6.8647   22.2241  -32.3317 H   0  0  0  0  0  0  0  0  0  0  0  0
   -9.2368   21.8454  -31.6917 H   0  0  0  0  0  0  0  0  0  0  0  0
  -10.1835   19.5471  -31.7243 H   0  0  0  0  0  0  0  0  0  0  0  0
   -8.7460   17.6159  -32.3077 H   0  0  0  0  0  0  0  0  0  0  0  0
   -7.0521   15.9390  -32.4980 H   0  0  0  0  0  0  0  0  0  0  0  0
   -7.7495   16.5694  -34.0287 H   0  0  0  0  0  0  0  0  0  0  0  0
   -6.1207   15.8121  -34.0287 H   0  0  0  0  0  0  0  0  0  0  0  0
  1  2  1  0
  2  3  1  0
  3  4  1  0
  4  5  1  0
  5  6  1  0
  6  7  1  0
  7  8  1  0
  8  9  1  0
  9 10  2  0
 10 11  1  0
 11 12  1  0
 12 13  1  0
 13 14  1  0
 14 15  1  0
 15 16  1  0
 15 17  1  0
 17 18  1  0
 18 19  1  0
 19 20  1  0
 19 21  1  0
 19 22  1  0
 22 23  1  0
 11 24  2  0
 24 25  1  0
 25 26  2  0
 26 27  1  0
 27 28  1  0
 28 29  1  0
 29 30  1  0
 30 31  1  0
 31 32  1  0
 32 33  1  0
 33 34  1  0
 34 35  1  0
 35 36  1  0
 34 37  1  0
 37 38  1  0
 27 39  2  0
 39 40  1  0
 40 41  2  0
 41 42  1  0
 42 43  2  0
 43 44  1  0
 44 45  2  0
 45 46  1  0
 26  9  1  0
 44 39  1  0
 23 15  1  0
 45 25  1  0
  1 47  1  0
  1 48  1  0
  1 49  1  0
  2 50  1  0
  2 51  1  0
  3 52  1  0
  3 53  1  0
  4 54  1  0
  4 55  1  0
  5 56  1  0
  5 57  1  0
  6 58  1  0
  6 59  1  0
  7 60  1  0
  7 61  1  0
 10 62  1  0
 13 63  1  0
 13 64  1  0
 14 65  1  0
 14 66  1  0
 16 67  1  0
 16 68  1  0
 16 69  1  0
 17 70  1  0
 17 71  1  0
 18 72  1  0
 18 73  1  0
 20 74  1  0
 20 75  1  0
 20 76  1  0
 21 77  1  0
 21 78  1  0
 21 79  1  0
 22 80  1  0
 22 81  1  0
 23 82  1  0
 23 83  1  0
 24 84  1  0
 28 85  1  0
 29 86  1  0
 29 87  1  0
 30 88  1  0
 30 89  1  0
 31 90  1  0
 32 91  1  0
 32 92  1  0
 33 93  1  0
 33 94  1  0
 35 95  1  0
 35 96  1  0
 36 97  1  0
 36 98  1  0
 36 99  1  0
 37100  1  0
 37101  1  0
 38102  1  0
 38103  1  0
 38104  1  0
 40105  1  0
 41106  1  0
 42107  1  0
 43108  1  0
 46109  1  0
 46110  1  0
 46111  1  0
M  CHG  3  15   1  19   1  45   1
M  END
>  <UniqueID>  (26) 
26

>  <SMILES>  (26) 
CCCCCCCOc1cc(OCC[N+]2(C)CC[N+](C)(C)CC2)cc2c1c(NCCNCCN(CC)CC)c1ccccc1[n+]2C

>  <Energy>  (26) 
174.8918969259058

>  <Genealogy>  (26) 
CCCCCCCOc1cc(OCC[N+]2(C)CC[N+](C)(C)CC2)cc2c1c(NCCNCCN(CC)CC)c1ccccc1[n+]2C (3D coordinates assigned)
CCCCCCCOc1cc(OCC[N+]2(C)CC[N+](C)(C)CC2)cc2c1c(NCCNCCN(CC)CC)c1ccccc1[n+]2C (nonaromatic ring conformer: 174.8918969259058 kcal/mol)

>  <smiles>  (26) 
CCCCCCCOc1cc(OCC[N+]2(C)CC[N+](C)(C)CC2)cc2c1c(NCCNCCN(CC)CC)c1ccccc1[n+]2C

>  <score_type>  (26) 
oracle

>  <origin>  (26) 
adg

>  <m_score__min__energy>  (26) 
-8.4600000000000009

>  <m_primary>  (26) 
energy

$$$$
