0:0
     RDKit          3D

 45 48  0  0  0  0  0  0  0  0999 V2000
   -1.4910   25.5850  -27.6130 C   0  0  0  0  0  0  0  0  0  0  0  0
   -1.9800   25.6570  -28.9470 O   0  0  0  0  0  0  0  0  0  0  0  0
   -2.3710   24.5260  -29.6700 C   0  0  0  0  0  0  0  0  0  0  0  0
   -1.6020   23.3620  -29.5940 C   0  0  0  0  0  0  0  0  0  0  0  0
   -1.9910   22.2330  -30.3140 C   0  0  0  0  0  0  0  0  0  0  0  0
   -3.1570   22.2630  -31.0990 C   0  0  0  0  0  0  0  0  0  0  0  0
   -3.5870   21.0870  -31.8950 C   0  0  0  0  0  0  0  0  0  0  0  0
   -2.6440   20.3780  -32.5540 N   0  0  0  0  0  0  0  0  0  0  0  0
   -2.9560   19.2940  -33.2950 C   0  0  0  0  0  0  0  0  0  0  0  0
   -1.9360   18.5980  -33.9500 C   0  0  0  0  0  0  0  0  0  0  0  0
   -2.2240   17.4980  -34.6900 N   0  0  0  0  0  0  0  0  0  0  0  0
   -3.4970   17.0450  -34.8110 C   0  0  0  0  0  0  0  0  0  0  0  0
   -4.5490   17.7080  -34.1750 C   0  0  0  0  0  0  0  0  0  0  0  0
   -4.3020   18.8660  -33.3980 C   0  0  0  0  0  0  0  0  0  0  0  0
   -5.2980   19.5880  -32.7460 N   0  0  0  0  0  0  0  0  0  0  0  0
   -6.7510   19.2360  -32.8330 C   0  0  0  0  0  0  0  0  0  0  0  0
   -7.6320   20.4210  -33.3050 C   0  0  0  0  0  0  0  0  0  0  0  0
   -9.0170   20.3950  -32.6430 C   0  0  0  0  0  0  0  0  0  0  0  0
   -9.5360   19.0240  -32.5670 N   0  0  0  0  0  0  0  0  0  0  0  0
   -8.7600   18.1760  -31.6410 C   0  0  0  0  0  0  0  0  0  0  0  0
   -7.2570   18.5350  -31.5530 C   0  0  0  0  0  0  0  0  0  0  0  0
   -4.9380   20.7040  -32.0110 C   0  0  0  0  0  0  0  0  0  0  0  0
   -5.8180   21.4200  -31.4550 O   0  0  0  0  0  0  0  0  0  0  0  0
   -3.8900   23.4590  -31.1590 C   0  0  0  0  0  0  0  0  0  0  0  0
   -3.4890   24.5460  -30.4480 N   0  0  0  0  0  0  0  0  0  0  0  0
   -2.3271   25.7081  -26.9089 H   0  0  0  0  0  0  0  0  0  0  0  0
   -1.0147   24.6070  -27.4493 H   0  0  0  0  0  0  0  0  0  0  0  0
   -0.7531   26.3842  -27.4493 H   0  0  0  0  0  0  0  0  0  0  0  0
   -0.6961   23.3364  -28.9706 H   0  0  0  0  0  0  0  0  0  0  0  0
   -1.3842   21.3167  -30.2677 H   0  0  0  0  0  0  0  0  0  0  0  0
   -0.8952   18.9437  -33.8651 H   0  0  0  0  0  0  0  0  0  0  0  0
   -1.4510   16.9880  -35.1730 H   0  0  0  0  0  0  0  0  0  0  0  0
   -3.7023   16.1486  -35.4147 H   0  0  0  0  0  0  0  0  0  0  0  0
   -5.5762   17.3282  -34.2783 H   0  0  0  0  0  0  0  0  0  0  0  0
   -6.8530   18.4871  -33.6322 H   0  0  0  0  0  0  0  0  0  0  0  0
   -7.1299   21.3646  -33.0452 H   0  0  0  0  0  0  0  0  0  0  0  0
   -7.7693   20.3354  -34.3930 H   0  0  0  0  0  0  0  0  0  0  0  0
   -8.9378   20.8069  -31.6261 H   0  0  0  0  0  0  0  0  0  0  0  0
   -9.7077   20.9990  -33.2497 H   0  0  0  0  0  0  0  0  0  0  0  0
   -9.5080   18.5990  -33.5250 H   0  0  0  0  0  0  0  0  0  0  0  0
   -9.1967   18.2746  -30.6362 H   0  0  0  0  0  0  0  0  0  0  0  0
   -8.8153   17.1500  -32.0337 H   0  0  0  0  0  0  0  0  0  0  0  0
   -7.1024   19.2070  -30.6959 H   0  0  0  0  0  0  0  0  0  0  0  0
   -6.6917   17.5990  -31.4334 H   0  0  0  0  0  0  0  0  0  0  0  0
   -4.7931   23.5167  -31.7844 H   0  0  0  0  0  0  0  0  0  0  0  0
  1  2  1  0
  2  3  1  0
  3  4  2  0
  4  5  1  0
  5  6  2  0
  6  7  1  0
  7  8  2  0
  8  9  1  0
  9 10  2  0
 10 11  1  0
 11 12  2  0
 12 13  1  0
 13 14  2  0
 14 15  1  0
 15 16  1  0
 16 17  1  0
 17 18  1  0
 18 19  1  0
 19 20  1  0
 20 21  1  0
 15 22  1  0
 22 23  2  0
  6 24  1  0
 24 25  2  0
 25  3  1  0
 22  7  1  0
 14  9  1  0
 21 16  1  0
  1 26  1  0
  1 27  1  0
  1 28  1  0
  4 29  1  0
  5 30  1  0
 10 31  1  0
 11 32  1  0
 12 33  1  0
 13 34  1  0
 16 35  1  0
 17 36  1  0
 17 37  1  0
 18 38  1  0
 18 39  1  0
 19 40  1  0
 20 41  1  0
 20 42  1  0
 21 43  1  0
 21 44  1  0
 24 45  1  0
M  CHG  1  11   1
M  END
>  <UniqueID>  (1) 
1

>  <SMILES>  (1) 
COc1ccc(-c2nc3c[nH+]ccc3n(C3CCNCC3)c2=O)cn1

>  <Energy>  (1) 
76.17299185077908

>  <Genealogy>  (1) 
COc1ccc(-c2nc3c[nH+]ccc3n(C3CCNCC3)c2=O)cn1 (protonated)
COc1ccc(-c2nc3c[nH+]ccc3n(C3CCNCC3)c2=O)cn1 (3D coordinates assigned)
COc1ccc(-c2nc3c[nH+]ccc3n(C3CCNCC3)c2=O)cn1 (nonaromatic ring conformer: 76.17299185077908 kcal/mol)

>  <smiles>  (1) 
COc1ccc(-c2nc3cnccc3n(C3CCNCC3)c2=O)cn1

>  <score_type>  (1) 
oracle

>  <origin>  (1) 
adg

>  <m_score__min__energy>  (1) 
-7.8300000000000001

>  <m_primary>  (1) 
energy

$$$$
1:0
     RDKit          3D

 46 48  0  0  0  0  0  0  0  0999 V2000
   -5.8990   17.1280  -34.4290 C   0  0  0  0  0  0  0  0  0  0  0  0
   -5.8840   17.6450  -33.1030 O   0  0  0  0  0  0  0  0  0  0  0  0
   -6.7750   18.6080  -32.6030 C   0  0  0  0  0  0  0  0  0  0  0  0
   -7.9100   18.2250  -31.8620 C   0  0  0  0  0  0  0  0  0  0  0  0
   -8.7900   19.1800  -31.3600 C   0  0  0  0  0  0  0  0  0  0  0  0
   -8.5530   20.5330  -31.5830 C   0  0  0  0  0  0  0  0  0  0  0  0
   -7.4280   20.9490  -32.3080 C   0  0  0  0  0  0  0  0  0  0  0  0
   -7.2400   22.4290  -32.5780 C   0  0  0  0  0  0  0  0  0  0  0  0
   -5.8170   22.7850  -32.7150 N   0  0  0  0  0  0  0  0  0  0  0  0
   -5.2500   23.1830  -31.4480 C   0  0  0  0  0  0  0  0  0  0  0  0
   -6.0270   23.8910  -30.5100 C   0  0  0  0  0  0  0  0  0  0  0  0
   -5.4600   24.3450  -29.3170 C   0  0  0  0  0  0  0  0  0  0  0  0
   -4.1110   24.1010  -29.0480 C   0  0  0  0  0  0  0  0  0  0  0  0
   -3.5400   24.5520  -27.9020 N   0  0  0  0  0  0  0  0  0  0  0  0
   -2.2240   24.3330  -27.6250 C   0  0  0  0  0  0  0  0  0  0  0  0
   -1.6540   24.8580  -26.3420 C   0  0  0  0  0  0  0  0  0  0  0  0
   -1.4370   23.6190  -28.5570 C   0  0  0  0  0  0  0  0  0  0  0  0
    0.0170   23.3430  -28.3180 C   0  0  0  0  0  0  0  0  0  0  0  0
   -2.0140   23.1700  -29.7040 N   0  0  0  0  0  0  0  0  0  0  0  0
   -3.3260   23.3890  -29.9750 C   0  0  0  0  0  0  0  0  0  0  0  0
   -3.8950   22.9310  -31.1670 C   0  0  0  0  0  0  0  0  0  0  0  0
   -6.5350   19.9880  -32.8390 C   0  0  0  0  0  0  0  0  0  0  0  0
   -5.4410   20.4630  -33.5900 O   0  0  0  0  0  0  0  0  0  0  0  0
   -4.0840   20.0560  -33.4650 C   0  0  0  0  0  0  0  0  0  0  0  0
   -5.9309   16.0290  -34.3937 H   0  0  0  0  0  0  0  0  0  0  0  0
   -6.7866   17.5038  -34.9590 H   0  0  0  0  0  0  0  0  0  0  0  0
   -4.9911   17.4517  -34.9590 H   0  0  0  0  0  0  0  0  0  0  0  0
   -8.1035   17.1580  -31.6776 H   0  0  0  0  0  0  0  0  0  0  0  0
   -9.6739   18.8646  -30.7863 H   0  0  0  0  0  0  0  0  0  0  0  0
   -9.2544   21.2822  -31.1870 H   0  0  0  0  0  0  0  0  0  0  0  0
   -7.7634   22.6900  -33.5096 H   0  0  0  0  0  0  0  0  0  0  0  0
   -7.6507   22.9867  -31.7234 H   0  0  0  0  0  0  0  0  0  0  0  0
   -5.7340   23.5820  -33.3890 H   0  0  0  0  0  0  0  0  0  0  0  0
   -5.2860   21.9800  -33.1210 H   0  0  0  0  0  0  0  0  0  0  0  0
   -7.0889   24.0879  -30.7189 H   0  0  0  0  0  0  0  0  0  0  0  0
   -6.0754   24.8945  -28.5895 H   0  0  0  0  0  0  0  0  0  0  0  0
   -2.1675   24.3850  -25.4920 H   0  0  0  0  0  0  0  0  0  0  0  0
   -0.5796   24.6265  -26.2962 H   0  0  0  0  0  0  0  0  0  0  0  0
   -1.7966   25.9478  -26.2962 H   0  0  0  0  0  0  0  0  0  0  0  0
    0.2102   23.3063  -27.2357 H   0  0  0  0  0  0  0  0  0  0  0  0
    0.2864   22.3777  -28.7715 H   0  0  0  0  0  0  0  0  0  0  0  0
    0.6213   24.1425  -28.7715 H   0  0  0  0  0  0  0  0  0  0  0  0
   -3.2808   22.3715  -31.8879 H   0  0  0  0  0  0  0  0  0  0  0  0
   -3.8215   19.9773  -32.3997 H   0  0  0  0  0  0  0  0  0  0  0  0
   -3.9485   19.0777  -33.9493 H   0  0  0  0  0  0  0  0  0  0  0  0
   -3.4325   20.7983  -33.9493 H   0  0  0  0  0  0  0  0  0  0  0  0
  1  2  1  0
  2  3  1  0
  3  4  2  0
  4  5  1  0
  5  6  2  0
  6  7  1  0
  7  8  1  0
  8  9  1  0
  9 10  1  0
 10 11  2  0
 11 12  1  0
 12 13  2  0
 13 14  1  0
 14 15  2  0
 15 16  1  0
 15 17  1  0
 17 18  1  0
 17 19  2  0
 19 20  1  0
 20 21  2  0
  7 22  2  0
 22 23  1  0
 23 24  1  0
 22  3  1  0
 21 10  1  0
 20 13  1  0
  1 25  1  0
  1 26  1  0
  1 27  1  0
  4 28  1  0
  5 29  1  0
  6 30  1  0
  8 31  1  0
  8 32  1  0
  9 33  1  0
  9 34  1  0
 11 35  1  0
 12 36  1  0
 16 37  1  0
 16 38  1  0
 16 39  1  0
 18 40  1  0
 18 41  1  0
 18 42  1  0
 21 43  1  0
 24 44  1  0
 24 45  1  0
 24 46  1  0
M  CHG  1   9   1
M  END
>  <UniqueID>  (2) 
2

>  <SMILES>  (2) 
COc1cccc(C[NH2+]c2ccc3nc(C)c(C)nc3c2)c1OC

>  <Energy>  (2) 
51.192708966149176

>  <Genealogy>  (2) 
COc1cccc(C[NH2+]c2ccc3nc(C)c(C)nc3c2)c1OC (protonated)
COc1cccc(C[NH2+]c2ccc3nc(C)c(C)nc3c2)c1OC (3D coordinates assigned)
COc1cccc(C[NH2+]c2ccc3nc(C)c(C)nc3c2)c1OC (optimized conformer: 51.192708966149176 kcal/mol)

>  <smiles>  (2) 
COc1cccc(CNc2ccc3nc(C)c(C)nc3c2)c1OC

>  <score_type>  (2) 
oracle

>  <origin>  (2) 
adg

>  <m_score__min__energy>  (2) 
-8.4100000000000001

>  <m_primary>  (2) 
energy

$$$$
2:0
     RDKit          3D

 33 33  0  0  0  0  0  0  0  0999 V2000
   -3.1070   24.1780  -31.5720 H   0  0  0  0  0  0  0  0  0  0  0  0
   -4.0190   24.3180  -31.1550 O   0  0  0  0  0  0  0  0  0  0  0  0
   -5.0860   23.4380  -31.3530 C   0  0  0  0  0  0  0  0  0  0  0  0
   -6.3260   23.7330  -30.7650 C   0  0  0  0  0  0  0  0  0  0  0  0
   -6.5520   25.3090  -29.7030 Br  0  0  0  0  0  0  0  0  0  0  0  0
   -7.4160   22.8770  -30.9550 C   0  0  0  0  0  0  0  0  0  0  0  0
   -8.3874   23.1165  -30.4977 H   0  0  0  0  0  0  0  0  0  0  0  0
   -7.2750   21.7200  -31.7230 C   0  0  0  0  0  0  0  0  0  0  0  0
   -8.7630   20.5470  -31.9650 Br  0  0  0  0  0  0  0  0  0  0  0  0
   -6.0430   21.4150  -32.3080 C   0  0  0  0  0  0  0  0  0  0  0  0
   -5.9326   20.4959  -32.9022 H   0  0  0  0  0  0  0  0  0  0  0  0
   -4.9460   22.2740  -32.1420 C   0  0  0  0  0  0  0  0  0  0  0  0
   -3.6470   21.9220  -32.7450 C   0  0  0  0  0  0  0  0  0  0  0  0
   -3.6463   21.3999  -33.7132 H   0  0  0  0  0  0  0  0  0  0  0  0
   -2.5000   22.1970  -32.1910 N   0  0  0  0  0  0  0  0  0  0  0  0
   -1.7110   21.3180  -31.3230 C   0  0  0  0  0  0  0  0  0  0  0  0
   -0.7427   21.1176  -31.8049 H   0  0  0  0  0  0  0  0  0  0  0  0
   -2.2781   20.3875  -31.1727 H   0  0  0  0  0  0  0  0  0  0  0  0
   -1.4600   21.9500  -29.9490 C   0  0  0  0  0  0  0  0  0  0  0  0
   -0.3772   22.0758  -29.8020 H   0  0  0  0  0  0  0  0  0  0  0  0
   -1.8765   21.2889  -29.1747 H   0  0  0  0  0  0  0  0  0  0  0  0
   -2.1150   23.2610  -29.8520 N   0  0  0  0  0  0  0  0  0  0  0  0
   -1.9650   23.7620  -30.7600 H   0  0  0  0  0  0  0  0  0  0  0  0
   -1.4860   24.0670  -28.7960 C   0  0  0  0  0  0  0  0  0  0  0  0
   -1.0514   24.9731  -29.2434 H   0  0  0  0  0  0  0  0  0  0  0  0
   -0.7011   23.4671  -28.3123 H   0  0  0  0  0  0  0  0  0  0  0  0
   -2.5190   24.4730  -27.7390 C   0  0  0  0  0  0  0  0  0  0  0  0
   -2.7493   25.5418  -27.8599 H   0  0  0  0  0  0  0  0  0  0  0  0
   -2.0888   24.2680  -26.7476 H   0  0  0  0  0  0  0  0  0  0  0  0
   -3.8140   23.6720  -27.8660 C   0  0  0  0  0  0  0  0  0  0  0  0
   -4.1981   23.4344  -26.8630 H   0  0  0  0  0  0  0  0  0  0  0  0
   -4.5606   24.2663  -28.4132 H   0  0  0  0  0  0  0  0  0  0  0  0
   -3.6156   22.7386  -28.4132 H   0  0  0  0  0  0  0  0  0  0  0  0
  1  2  1  0
  2  3  1  0
  3  4  2  0
  4  5  1  0
  4  6  1  0
  6  7  1  0
  6  8  2  0
  8  9  1  0
  8 10  1  0
 10 11  1  0
 10 12  2  0
 12 13  1  0
 13 14  1  0
 13 15  2  0
 15 16  1  0
 16 17  1  0
 16 18  1  0
 16 19  1  0
 19 20  1  0
 19 21  1  0
 19 22  1  0
 22 23  1  0
 22 24  1  0
 24 25  1  0
 24 26  1  0
 24 27  1  0
 27 28  1  0
 27 29  1  0
 27 30  1  0
 30 31  1  0
 30 32  1  0
 30 33  1  0
 12  3  1  0
M  END
>  <UniqueID>  (3) 
3

>  <SMILES>  (3) 
CCCNCC/N=C/c1cc(Br)cc(Br)c1O

>  <Energy>  (3) 
29.996915340840943

>  <Genealogy>  (3) 
CCCNCC/N=C/c1cc(Br)cc(Br)c1O (cis-trans isomerization)
CCCNCC/N=C/c1cc(Br)cc(Br)c1O (3D coordinates assigned)
CCCNCC/N=C/c1cc(Br)cc(Br)c1O (optimized conformer: 29.996915340840943 kcal/mol)

>  <smiles>  (3) 
CCCNCCN=Cc1cc(Br)cc(Br)c1O

>  <score_type>  (3) 
oracle

>  <origin>  (3) 
adg

>  <m_score__min__energy>  (3) 
-6.1600000000000001

>  <m_primary>  (3) 
energy

$$$$
3:0
     RDKit          3D

 48 51  0  0  0  0  0  0  0  0999 V2000
   -2.1880   24.3480  -28.1070 C   0  0  0  0  0  0  0  0  0  0  0  0
   -2.5580   25.0970  -29.3000 N   0  0  0  0  0  0  0  0  0  0  0  0
   -3.8030   24.9440  -29.9900 C   0  0  0  0  0  0  0  0  0  0  0  0
   -4.3700   25.9630  -30.4680 O   0  0  0  0  0  0  0  0  0  0  0  0
   -4.4040   23.6540  -30.1720 N   0  0  0  0  0  0  0  0  0  0  0  0
   -5.5910   23.2740  -29.3960 C   0  0  0  0  0  0  0  0  0  0  0  0
   -6.6080   22.5780  -30.3030 C   0  0  0  0  0  0  0  0  0  0  0  0
   -5.9410   21.5530  -31.1080 N   0  0  0  0  0  0  0  0  0  0  0  0
   -4.6400   21.5820  -31.4600 C   0  0  0  0  0  0  0  0  0  0  0  0
   -4.3260   20.4710  -32.2340 C   0  0  0  0  0  0  0  0  0  0  0  0
   -2.9830   20.0770  -32.7180 C   0  0  0  0  0  0  0  0  0  0  0  0
   -2.2010   20.9750  -33.5020 N   0  0  0  0  0  0  0  0  0  0  0  0
   -2.5230   18.9340  -32.4550 O   0  0  0  0  0  0  0  0  0  0  0  0
   -5.5170   19.7620  -32.3790 C   0  0  0  0  0  0  0  0  0  0  0  0
   -5.7220   18.4960  -33.1130 C   0  0  0  0  0  0  0  0  0  0  0  0
   -5.5700   18.4920  -34.5080 C   0  0  0  0  0  0  0  0  0  0  0  0
   -5.7460   17.3140  -35.2350 C   0  0  0  0  0  0  0  0  0  0  0  0
   -6.0740   16.1290  -34.5770 C   0  0  0  0  0  0  0  0  0  0  0  0
   -6.2160   16.1140  -33.1880 C   0  0  0  0  0  0  0  0  0  0  0  0
   -6.0270   17.2880  -32.4390 C   0  0  0  0  0  0  0  0  0  0  0  0
   -6.1530   17.2360  -30.9370 C   0  0  0  0  0  0  0  0  0  0  0  0
   -6.4940   20.4650  -31.6860 C   0  0  0  0  0  0  0  0  0  0  0  0
   -7.9230   20.0300  -31.4890 C   0  0  0  0  0  0  0  0  0  0  0  0
   -8.7090   19.7630  -32.7660 C   0  0  0  0  0  0  0  0  0  0  0  0
   -8.9670   21.0280  -31.9700 C   0  0  0  0  0  0  0  0  0  0  0  0
   -3.7000   22.6580  -30.9890 C   0  0  0  0  0  0  0  0  0  0  0  0
   -2.4711   24.9211  -27.2118 H   0  0  0  0  0  0  0  0  0  0  0  0
   -2.7120   23.3808  -28.1041 H   0  0  0  0  0  0  0  0  0  0  0  0
   -1.1015   24.1764  -28.1041 H   0  0  0  0  0  0  0  0  0  0  0  0
   -5.2942   22.5888  -28.5883 H   0  0  0  0  0  0  0  0  0  0  0  0
   -6.0479   24.1787  -28.9685 H   0  0  0  0  0  0  0  0  0  0  0  0
   -7.3855   22.1064  -29.6841 H   0  0  0  0  0  0  0  0  0  0  0  0
   -7.0646   23.3224  -30.9719 H   0  0  0  0  0  0  0  0  0  0  0  0
   -2.6410   21.5740  -34.2360 H   0  0  0  0  0  0  0  0  0  0  0  0
   -5.3104   19.4237  -35.0319 H   0  0  0  0  0  0  0  0  0  0  0  0
   -5.6259   17.3201  -36.3284 H   0  0  0  0  0  0  0  0  0  0  0  0
   -6.2212   15.2039  -35.1536 H   0  0  0  0  0  0  0  0  0  0  0  0
   -6.4778   15.1762  -32.6762 H   0  0  0  0  0  0  0  0  0  0  0  0
   -5.2289   17.6174  -30.4781 H   0  0  0  0  0  0  0  0  0  0  0  0
   -7.0036   17.8566  -30.6187 H   0  0  0  0  0  0  0  0  0  0  0  0
   -6.3184   16.1961  -30.6187 H   0  0  0  0  0  0  0  0  0  0  0  0
   -7.7395   19.4731  -30.5583 H   0  0  0  0  0  0  0  0  0  0  0  0
   -8.2068   19.8211  -33.7429 H   0  0  0  0  0  0  0  0  0  0  0  0
   -9.3335   18.9364  -33.1358 H   0  0  0  0  0  0  0  0  0  0  0  0
   -8.6519   22.0030  -32.3702 H   0  0  0  0  0  0  0  0  0  0  0  0
   -9.8562   21.4976  -31.5242 H   0  0  0  0  0  0  0  0  0  0  0  0
   -2.9014   22.1994  -30.3874 H   0  0  0  0  0  0  0  0  0  0  0  0
   -3.2782   23.1638  -31.8701 H   0  0  0  0  0  0  0  0  0  0  0  0
  1  2  1  0
  2  3  1  0
  3  4  2  0
  3  5  1  0
  5  6  1  0
  6  7  1  0
  7  8  1  0
  8  9  1  0
  9 10  2  0
 10 11  1  0
 11 12  1  0
 11 13  2  0
 10 14  1  0
 14 15  1  0
 15 16  2  0
 16 17  1  0
 17 18  2  0
 18 19  1  0
 19 20  2  0
 20 21  1  0
 14 22  2  0
 22 23  1  0
 23 24  1  0
 24 25  1  0
  9 26  1  0
 26  5  1  0
 22  8  1  0
 25 23  1  0
 20 15  1  0
  1 27  1  0
  1 28  1  0
  1 29  1  0
  6 30  1  0
  6 31  1  0
  7 32  1  0
  7 33  1  0
 12 34  1  0
 16 35  1  0
 17 36  1  0
 18 37  1  0
 19 38  1  0
 21 39  1  0
 21 40  1  0
 21 41  1  0
 23 42  1  0
 24 43  1  0
 24 44  1  0
 25 45  1  0
 25 46  1  0
 26 47  1  0
 26 48  1  0
M  CHG  2   2  -1  12  -1
M  END
>  <UniqueID>  (4) 
4

>  <SMILES>  (4) 
C[N-]C(=O)N1CCn2c(c(C([NH-])=O)c(-c3ccccc3C)c2C2CC2)C1

>  <Energy>  (4) 
350.1809156518141

>  <Genealogy>  (4) 
C[N-]C(=O)N1CCn2c(c(C([NH-])=O)c(-c3ccccc3C)c2C2CC2)C1 (protonated)
C[N-]C(=O)N1CCn2c(c(C([NH-])=O)c(-c3ccccc3C)c2C2CC2)C1 (3D coordinates assigned)
C[N-]C(=O)N1CCn2c(c(C([NH-])=O)c(-c3ccccc3C)c2C2CC2)C1 (nonaromatic ring conformer: 350.1809156518141 kcal/mol)

>  <smiles>  (4) 
CNC(=O)N1CCn2c(c(C(N)=O)c(-c3ccccc3C)c2C2CC2)C1

>  <score_type>  (4) 
oracle

>  <origin>  (4) 
adg

>  <m_score__min__energy>  (4) 
-9.8900000000000006

>  <m_primary>  (4) 
energy

$$$$
4:0
     RDKit          3D

 48 50  0  0  0  0  0  0  0  0999 V2000
   -8.7000   19.9160  -32.4390 C   0  0  0  0  0  0  0  0  0  0  0  0
   -7.6520   20.0490  -33.3930 O   0  0  0  0  0  0  0  0  0  0  0  0
   -6.3260   20.3760  -33.0730 C   0  0  0  0  0  0  0  0  0  0  0  0
   -6.0530   21.6700  -32.6160 C   0  0  0  0  0  0  0  0  0  0  0  0
   -4.7480   22.0450  -32.2820 C   0  0  0  0  0  0  0  0  0  0  0  0
   -3.6940   21.1230  -32.3920 C   0  0  0  0  0  0  0  0  0  0  0  0
   -2.2800   21.5300  -32.0320 C   0  0  0  0  0  0  0  0  0  0  0  0
   -1.9550   21.3790  -30.5960 N   0  0  0  0  0  0  0  0  0  0  0  0
   -0.7340   20.5990  -30.3430 C   0  0  0  0  0  0  0  0  0  0  0  0
   -0.2780   20.7930  -28.8810 C   0  0  0  0  0  0  0  0  0  0  0  0
   -1.3790   21.2130  -27.9780 N   0  0  0  0  0  0  0  0  0  0  0  0
   -1.4970   22.6850  -27.8630 C   0  0  0  0  0  0  0  0  0  0  0  0
   -2.9490   23.0840  -27.5860 C   0  0  0  0  0  0  0  0  0  0  0  0
   -3.5490   23.7200  -28.7580 N   0  0  0  0  0  0  0  0  0  0  0  0
   -4.9220   23.5380  -29.2040 C   0  0  0  0  0  0  0  0  0  0  0  0
   -5.1140   24.5420  -30.3680 C   0  0  0  0  0  0  0  0  0  0  0  0
   -3.8720   25.3000  -30.4740 N   0  0  0  0  0  0  0  0  0  0  0  0
   -2.9890   24.7770  -29.5080 C   0  0  0  0  0  0  0  0  0  0  0  0
   -1.8210   25.2160  -29.3350 O   0  0  0  0  0  0  0  0  0  0  0  0
   -2.6570   20.5680  -28.3390 C   0  0  0  0  0  0  0  0  0  0  0  0
   -3.0890   20.8920  -29.7860 C   0  0  0  0  0  0  0  0  0  0  0  0
   -3.9640   19.8290  -32.8640 C   0  0  0  0  0  0  0  0  0  0  0  0
   -5.2690   19.4550  -33.1990 C   0  0  0  0  0  0  0  0  0  0  0  0
   -8.2804   19.9692  -31.4236 H   0  0  0  0  0  0  0  0  0  0  0  0
   -9.4278   20.7290  -32.5781 H   0  0  0  0  0  0  0  0  0  0  0  0
   -9.2017   18.9470  -32.5781 H   0  0  0  0  0  0  0  0  0  0  0  0
   -6.8717   22.3982  -32.5187 H   0  0  0  0  0  0  0  0  0  0  0  0
   -4.5456   23.0677  -31.9312 H   0  0  0  0  0  0  0  0  0  0  0  0
   -1.5830   20.9067  -32.6114 H   0  0  0  0  0  0  0  0  0  0  0  0
   -2.1884   22.6007  -32.2672 H   0  0  0  0  0  0  0  0  0  0  0  0
   -0.9387   19.5332  -30.5225 H   0  0  0  0  0  0  0  0  0  0  0  0
    0.0622   20.9446  -31.0188 H   0  0  0  0  0  0  0  0  0  0  0  0
    0.1325   19.8411  -28.5132 H   0  0  0  0  0  0  0  0  0  0  0  0
    0.4743   21.5955  -28.8760 H   0  0  0  0  0  0  0  0  0  0  0  0
   -0.8608   23.0362  -27.0373 H   0  0  0  0  0  0  0  0  0  0  0  0
   -1.1752   23.1438  -28.8096 H   0  0  0  0  0  0  0  0  0  0  0  0
   -3.5270   22.1839  -27.3294 H   0  0  0  0  0  0  0  0  0  0  0  0
   -2.9630   23.8009  -26.7518 H   0  0  0  0  0  0  0  0  0  0  0  0
   -5.0790   22.5074  -29.5551 H   0  0  0  0  0  0  0  0  0  0  0  0
   -5.6423   23.7122  -28.3911 H   0  0  0  0  0  0  0  0  0  0  0  0
   -5.3105   24.0023  -31.3062 H   0  0  0  0  0  0  0  0  0  0  0  0
   -5.9699   25.2072  -30.1809 H   0  0  0  0  0  0  0  0  0  0  0  0
   -2.5439   19.4784  -28.2392 H   0  0  0  0  0  0  0  0  0  0  0  0
   -3.4324   20.9552  -27.6617 H   0  0  0  0  0  0  0  0  0  0  0  0
   -3.4937   19.9806  -30.2502 H   0  0  0  0  0  0  0  0  0  0  0  0
   -3.8502   21.6852  -29.7482 H   0  0  0  0  0  0  0  0  0  0  0  0
   -3.1435   19.1043  -32.9711 H   0  0  0  0  0  0  0  0  0  0  0  0
   -5.4705   18.4366  -33.5626 H   0  0  0  0  0  0  0  0  0  0  0  0
  1  2  1  0
  2  3  1  0
  3  4  2  0
  4  5  1  0
  5  6  2  0
  6  7  1  0
  7  8  1  0
  8  9  1  0
  9 10  1  0
 10 11  1  0
 11 12  1  0
 12 13  1  0
 13 14  1  0
 14 15  1  0
 15 16  1  0
 16 17  1  0
 17 18  1  0
 18 19  2  0
 11 20  1  0
 20 21  1  0
  6 22  1  0
 22 23  2  0
 23  3  1  0
 21  8  1  0
 18 14  1  0
  1 24  1  0
  1 25  1  0
  1 26  1  0
  4 27  1  0
  5 28  1  0
  7 29  1  0
  7 30  1  0
  9 31  1  0
  9 32  1  0
 10 33  1  0
 10 34  1  0
 12 35  1  0
 12 36  1  0
 13 37  1  0
 13 38  1  0
 15 39  1  0
 15 40  1  0
 16 41  1  0
 16 42  1  0
 20 43  1  0
 20 44  1  0
 21 45  1  0
 21 46  1  0
 22 47  1  0
 23 48  1  0
M  CHG  1  17  -1
M  END
>  <UniqueID>  (5) 
5

>  <SMILES>  (5) 
COc1ccc(CN2CCN(CCN3CC[N-]C3=O)CC2)cc1

>  <Energy>  (5) 
71.39416725295179

>  <Genealogy>  (5) 
COc1ccc(CN2CCN(CCN3CC[N-]C3=O)CC2)cc1 (protonated)
COc1ccc(CN2CCN(CCN3CC[N-]C3=O)CC2)cc1 (3D coordinates assigned)
COc1ccc(CN2CCN(CCN3CC[N-]C3=O)CC2)cc1 (nonaromatic ring conformer: 71.39416725295179 kcal/mol)

>  <smiles>  (5) 
COc1ccc(CN2CCN(CCN3CCNC3=O)CC2)cc1

>  <score_type>  (5) 
oracle

>  <origin>  (5) 
adg

>  <m_score__min__energy>  (5) 
-8.7799999999999994

>  <m_primary>  (5) 
energy

$$$$
5:0
     RDKit          3D

 35 36  0  0  0  0  0  0  0  0999 V2000
    1.0040   16.4470  -27.5730 C   0  0  0  0  0  0  0  0  0  0  0  0
   -0.0550   17.2080  -27.0000 O   0  0  0  0  0  0  0  0  0  0  0  0
   -0.5550   18.4000  -27.5410 C   0  0  0  0  0  0  0  0  0  0  0  0
    0.1230   19.1190  -28.5430 C   0  0  0  0  0  0  0  0  0  0  0  0
   -0.4180   20.3030  -29.0520 C   0  0  0  0  0  0  0  0  0  0  0  0
   -1.6450   20.7940  -28.5690 C   0  0  0  0  0  0  0  0  0  0  0  0
   -2.2190   22.0540  -29.1090 C   0  0  0  0  0  0  0  0  0  0  0  0
   -1.6740   23.2960  -28.7460 C   0  0  0  0  0  0  0  0  0  0  0  0
   -2.2120   24.4940  -29.2520 C   0  0  0  0  0  0  0  0  0  0  0  0
   -1.6840   25.7490  -28.9060 O   0  0  0  0  0  0  0  0  0  0  0  0
   -1.0040   26.0330  -27.6880 C   0  0  0  0  0  0  0  0  0  0  0  0
   -3.3080   24.4390  -30.1320 C   0  0  0  0  0  0  0  0  0  0  0  0
   -3.8630   25.6100  -30.6510 O   0  0  0  0  0  0  0  0  0  0  0  0
   -3.8610   23.2060  -30.5020 C   0  0  0  0  0  0  0  0  0  0  0  0
   -4.9550   23.2040  -31.3820 O   0  0  0  0  0  0  0  0  0  0  0  0
   -6.2900   23.5340  -31.0110 C   0  0  0  0  0  0  0  0  0  0  0  0
   -3.3130   22.0170  -29.9880 C   0  0  0  0  0  0  0  0  0  0  0  0
   -2.3170   20.0730  -27.5670 C   0  0  0  0  0  0  0  0  0  0  0  0
   -1.7760   18.8890  -27.0610 C   0  0  0  0  0  0  0  0  0  0  0  0
    1.6154   16.0077  -26.7710 H   0  0  0  0  0  0  0  0  0  0  0  0
    0.5831   15.6435  -28.1952 H   0  0  0  0  0  0  0  0  0  0  0  0
    1.6313   17.1022  -28.1952 H   0  0  0  0  0  0  0  0  0  0  0  0
    1.0841   18.7471  -28.9277 H   0  0  0  0  0  0  0  0  0  0  0  0
    0.1198   20.8555  -29.8366 H   0  0  0  0  0  0  0  0  0  0  0  0
   -0.8165   23.3331  -28.0581 H   0  0  0  0  0  0  0  0  0  0  0  0
   -1.6476   25.7642  -26.8374 H   0  0  0  0  0  0  0  0  0  0  0  0
   -0.0733   25.4484  -27.6427 H   0  0  0  0  0  0  0  0  0  0  0  0
   -0.7656   27.1059  -27.6427 H   0  0  0  0  0  0  0  0  0  0  0  0
   -4.2290   25.6660  -31.5940 H   0  0  0  0  0  0  0  0  0  0  0  0
   -6.3714   23.5541  -29.9142 H   0  0  0  0  0  0  0  0  0  0  0  0
   -6.5493   24.5233  -31.4161 H   0  0  0  0  0  0  0  0  0  0  0  0
   -6.9803   22.7795  -31.4161 H   0  0  0  0  0  0  0  0  0  0  0  0
   -3.7460   21.0482  -30.2777 H   0  0  0  0  0  0  0  0  0  0  0  0
   -3.2767   20.4442  -27.1782 H   0  0  0  0  0  0  0  0  0  0  0  0
   -2.3144   18.3353  -26.2777 H   0  0  0  0  0  0  0  0  0  0  0  0
  1  2  1  0
  2  3  1  0
  3  4  2  0
  4  5  1  0
  5  6  2  0
  6  7  1  0
  7  8  2  0
  8  9  1  0
  9 10  1  0
 10 11  1  0
  9 12  2  0
 12 13  1  0
 12 14  1  0
 14 15  1  0
 15 16  1  0
 14 17  2  0
  6 18  1  0
 18 19  2  0
 19  3  1  0
 17  7  1  0
  1 20  1  0
  1 21  1  0
  1 22  1  0
  4 23  1  0
  5 24  1  0
  8 25  1  0
 11 26  1  0
 11 27  1  0
 11 28  1  0
 13 29  1  0
 16 30  1  0
 16 31  1  0
 16 32  1  0
 17 33  1  0
 18 34  1  0
 19 35  1  0
M  END
>  <UniqueID>  (6) 
6

>  <SMILES>  (6) 
COc1ccc(-c2cc(OC)c(O)c(OC)c2)cc1

>  <Energy>  (6) 
39.16945203740198

>  <Genealogy>  (6) 
COc1ccc(-c2cc(OC)c(O)c(OC)c2)cc1 (3D coordinates assigned)
COc1ccc(-c2cc(OC)c(O)c(OC)c2)cc1 (optimized conformer: 39.16945203740198 kcal/mol)

>  <smiles>  (6) 
COc1ccc(-c2cc(OC)c(O)c(OC)c2)cc1

>  <score_type>  (6) 
oracle

>  <origin>  (6) 
adg

>  <m_score__min__energy>  (6) 
-6.9699999999999998

>  <m_primary>  (6) 
energy

$$$$
6:0
     RDKit          3D

 27 29  0  0  0  0  0  0  0  0999 V2000
   -2.2730   24.8280  -28.6670 C   0  0  0  0  0  0  0  0  0  0  0  0
   -3.1260   25.2910  -29.7090 O   0  0  0  0  0  0  0  0  0  0  0  0
   -4.2620   24.6050  -30.1650 C   0  0  0  0  0  0  0  0  0  0  0  0
   -4.0820   23.3870  -30.8280 C   0  0  0  0  0  0  0  0  0  0  0  0
   -5.1810   22.6670  -31.3030 C   0  0  0  0  0  0  0  0  0  0  0  0
   -6.4850   23.1580  -31.1320 C   0  0  0  0  0  0  0  0  0  0  0  0
   -7.6060   22.3990  -31.6220 N   0  0  0  0  0  0  0  0  0  0  0  0
   -8.7970   22.9190  -31.9160 N   0  0  0  0  0  0  0  0  0  0  0  0
   -9.6540   21.9790  -32.3200 N   0  0  0  0  0  0  0  0  0  0  0  0
   -8.9690   20.8220  -32.2730 C   0  0  0  0  0  0  0  0  0  0  0  0
   -9.3950   19.5290  -32.5410 C   0  0  0  0  0  0  0  0  0  0  0  0
   -8.4600   18.4950  -32.3390 C   0  0  0  0  0  0  0  0  0  0  0  0
   -7.1580   18.8050  -31.8700 C   0  0  0  0  0  0  0  0  0  0  0  0
   -6.7990   20.1020  -31.6170 N   0  0  0  0  0  0  0  0  0  0  0  0
   -7.7110   21.0790  -31.8440 C   0  0  0  0  0  0  0  0  0  0  0  0
   -6.6680   24.3770  -30.4530 C   0  0  0  0  0  0  0  0  0  0  0  0
   -5.5670   25.0970  -29.9780 C   0  0  0  0  0  0  0  0  0  0  0  0
   -2.7203   25.0708  -27.6918 H   0  0  0  0  0  0  0  0  0  0  0  0
   -2.1483   23.7384  -28.7521 H   0  0  0  0  0  0  0  0  0  0  0  0
   -1.2914   25.3171  -28.7521 H   0  0  0  0  0  0  0  0  0  0  0  0
   -3.0661   22.9923  -30.9769 H   0  0  0  0  0  0  0  0  0  0  0  0
   -5.0231   21.7067  -31.8156 H   0  0  0  0  0  0  0  0  0  0  0  0
  -10.4156   19.3210  -32.8948 H   0  0  0  0  0  0  0  0  0  0  0  0
   -8.7387   17.4509  -32.5443 H   0  0  0  0  0  0  0  0  0  0  0  0
   -6.4301   17.9964  -31.7080 H   0  0  0  0  0  0  0  0  0  0  0  0
   -7.6845   24.7665  -30.2947 H   0  0  0  0  0  0  0  0  0  0  0  0
   -5.7220   26.0526  -29.4557 H   0  0  0  0  0  0  0  0  0  0  0  0
  1  2  1  0
  2  3  1  0
  3  4  2  0
  4  5  1  0
  5  6  2  0
  6  7  1  0
  7  8  1  0
  8  9  2  0
  9 10  1  0
 10 11  2  0
 11 12  1  0
 12 13  2  0
 13 14  1  0
 14 15  2  0
  6 16  1  0
 16 17  2  0
 17  3  1  0
 15  7  1  0
 15 10  1  0
  1 18  1  0
  1 19  1  0
  1 20  1  0
  4 21  1  0
  5 22  1  0
 11 23  1  0
 12 24  1  0
 13 25  1  0
 16 26  1  0
 17 27  1  0
M  END
>  <UniqueID>  (7) 
7

>  <SMILES>  (7) 
COc1ccc(-n2nnc3cccnc32)cc1

>  <Energy>  (7) 
80.31638974531108

>  <Genealogy>  (7) 
COc1ccc(-n2nnc3cccnc32)cc1 (3D coordinates assigned)
COc1ccc(-n2nnc3cccnc32)cc1 (optimized conformer: 80.31638974531108 kcal/mol)

>  <smiles>  (7) 
COc1ccc(-n2nnc3cccnc32)cc1

>  <score_type>  (7) 
oracle

>  <origin>  (7) 
adg

>  <m_score__min__energy>  (7) 
-7.6299999999999999

>  <m_primary>  (7) 
energy

$$$$
7:0
     RDKit          3D

 47 48  0  0  0  0  0  0  0  0999 V2000
   -4.1048   24.0420  -27.8396 H   0  0  0  0  0  0  0  0  0  0  0  0
   -4.1140   23.8970  -28.9300 C   0  0  0  0  0  0  0  0  0  0  0  0
   -3.3700   24.8650  -29.7510 C   0  0  0  0  0  0  0  0  0  0  0  0
   -3.8840   25.3720  -30.7830 O   0  0  0  0  0  0  0  0  0  0  0  0
   -2.1200   25.2980  -29.3290 O   0  0  0  0  0  0  0  0  0  0  0  0
   -4.8020   22.8520  -29.4100 C   0  0  0  0  0  0  0  0  0  0  0  0
   -4.4060   21.8458  -29.2083 H   0  0  0  0  0  0  0  0  0  0  0  0
   -6.0530   22.9510  -30.1900 C   0  0  0  0  0  0  0  0  0  0  0  0
   -7.1410   23.0420  -29.5610 O   0  0  0  0  0  0  0  0  0  0  0  0
   -6.0690   22.8750  -31.6330 N   0  0  0  0  0  0  0  0  0  0  0  0
   -5.3100   21.8500  -32.3180 C   0  0  0  0  0  0  0  0  0  0  0  0
   -5.7810   20.6040  -32.5450 N   0  0  0  0  0  0  0  0  0  0  0  0
   -4.8730   19.7960  -33.1620 C   0  0  0  0  0  0  0  0  0  0  0  0
   -5.2060   18.3880  -33.5090 C   0  0  0  0  0  0  0  0  0  0  0  0
   -6.4960   17.8910  -33.2450 C   0  0  0  0  0  0  0  0  0  0  0  0
   -7.2497   18.5504  -32.7899 H   0  0  0  0  0  0  0  0  0  0  0  0
   -6.8310   16.5700  -33.5540 C   0  0  0  0  0  0  0  0  0  0  0  0
   -7.8440   16.1978  -33.3413 H   0  0  0  0  0  0  0  0  0  0  0  0
   -5.8780   15.7140  -34.1360 C   0  0  0  0  0  0  0  0  0  0  0  0
   -6.1640   14.3790  -34.4620 O   0  0  0  0  0  0  0  0  0  0  0  0
   -7.4780   13.8510  -34.6160 C   0  0  0  0  0  0  0  0  0  0  0  0
   -7.9203   13.6733  -33.6246 H   0  0  0  0  0  0  0  0  0  0  0  0
   -8.0991   14.5694  -35.1711 H   0  0  0  0  0  0  0  0  0  0  0  0
   -7.4293   12.9026  -35.1711 H   0  0  0  0  0  0  0  0  0  0  0  0
   -4.5950   16.2030  -34.4000 C   0  0  0  0  0  0  0  0  0  0  0  0
   -3.8439   15.5420  -34.8572 H   0  0  0  0  0  0  0  0  0  0  0  0
   -4.2570   17.5230  -34.0890 C   0  0  0  0  0  0  0  0  0  0  0  0
   -3.2414   17.8897  -34.2988 H   0  0  0  0  0  0  0  0  0  0  0  0
   -3.6430   20.4090  -33.4260 C   0  0  0  0  0  0  0  0  0  0  0  0
   -2.7782   19.9392  -33.9174 H   0  0  0  0  0  0  0  0  0  0  0  0
   -3.7200   21.9890  -32.8600 S   0  0  0  0  0  0  0  0  0  0  0  0
   -7.1080   23.6260  -32.3620 C   0  0  0  0  0  0  0  0  0  0  0  0
   -7.1638   24.6441  -31.9492 H   0  0  0  0  0  0  0  0  0  0  0  0
   -6.8298   23.6386  -33.4262 H   0  0  0  0  0  0  0  0  0  0  0  0
   -8.5010   22.9650  -32.2450 C   0  0  0  0  0  0  0  0  0  0  0  0
   -9.1514   23.6174  -31.6439 H   0  0  0  0  0  0  0  0  0  0  0  0
   -8.8929   22.8300  -33.2639 H   0  0  0  0  0  0  0  0  0  0  0  0
   -8.4450   21.6290  -31.6040 N   0  0  0  0  0  0  0  0  0  0  0  0
   -7.4900   21.4750  -31.2000 H   0  0  0  0  0  0  0  0  0  0  0  0
   -8.7300   20.5540  -32.5730 C   0  0  0  0  0  0  0  0  0  0  0  0
   -8.9754   19.6282  -32.0319 H   0  0  0  0  0  0  0  0  0  0  0  0
   -9.5817   20.8462  -33.2048 H   0  0  0  0  0  0  0  0  0  0  0  0
   -7.8454   20.3859  -33.2048 H   0  0  0  0  0  0  0  0  0  0  0  0
   -9.4110   21.5640  -30.4930 C   0  0  0  0  0  0  0  0  0  0  0  0
   -8.8713   21.6003  -29.5352 H   0  0  0  0  0  0  0  0  0  0  0  0
  -10.1017   22.4177  -30.5572 H   0  0  0  0  0  0  0  0  0  0  0  0
   -9.9811   20.6255  -30.5572 H   0  0  0  0  0  0  0  0  0  0  0  0
  1  2  1  0
  2  3  1  0
  3  4  2  0
  3  5  1  0
  2  6  2  0
  6  7  1  0
  6  8  1  0
  8  9  2  0
  8 10  1  0
 10 11  1  0
 11 12  2  0
 12 13  1  0
 13 14  1  0
 14 15  2  0
 15 16  1  0
 15 17  1  0
 17 18  1  0
 17 19  2  0
 19 20  1  0
 20 21  1  0
 21 22  1  0
 21 23  1  0
 21 24  1  0
 19 25  1  0
 25 26  1  0
 25 27  2  0
 27 28  1  0
 13 29  2  0
 29 30  1  0
 29 31  1  0
 10 32  1  0
 32 33  1  0
 32 34  1  0
 32 35  1  0
 35 36  1  0
 35 37  1  0
 35 38  1  0
 38 39  1  0
 38 40  1  0
 40 41  1  0
 40 42  1  0
 40 43  1  0
 38 44  1  0
 44 45  1  0
 44 46  1  0
 44 47  1  0
 31 11  1  0
 27 14  1  0
M  CHG  2   5  -1  38   1
M  END
>  <UniqueID>  (8) 
8

>  <SMILES>  (8) 
COc1ccc(-c2csc(N(CC[NH+](C)C)C(=O)/C=C\C(=O)[O-])n2)cc1

>  <Energy>  (8) 
90.2398215208377

>  <Genealogy>  (8) 
COc1ccc(-c2csc(N(CC[NH+](C)C)C(=O)C=CC(=O)[O-])n2)cc1 (protonated)
COc1ccc(-c2csc(N(CC[NH+](C)C)C(=O)/C=C\C(=O)[O-])n2)cc1 (cis-trans isomerization)
COc1ccc(-c2csc(N(CC[NH+](C)C)C(=O)/C=C\C(=O)[O-])n2)cc1 (3D coordinates assigned)
COc1ccc(-c2csc(N(CC[NH+](C)C)C(=O)/C=C\C(=O)[O-])n2)cc1 (optimized conformer: 90.2398215208377 kcal/mol)

>  <smiles>  (8) 
COc1ccc(-c2csc(N(CCN(C)C)C(=O)C=CC(=O)O)n2)cc1

>  <score_type>  (8) 
oracle

>  <origin>  (8) 
adg

>  <m_score__min__energy>  (8) 
-9.0399999999999991

>  <m_primary>  (8) 
energy

$$$$
8:0
     RDKit          3D

 50 52  0  0  0  0  0  0  0  0999 V2000
   -9.4870   19.4020  -33.8710 H   0  0  0  0  0  0  0  0  0  0  0  0
   -9.3840   19.5870  -32.8530 N   0  0  0  0  0  0  0  0  0  0  0  0
   -8.4360   20.3080  -32.3430 C   0  0  0  0  0  0  0  0  0  0  0  0
   -7.0310   19.8780  -32.2950 C   0  0  0  0  0  0  0  0  0  0  0  0
   -6.3360   18.7340  -32.6690 C   0  0  0  0  0  0  0  0  0  0  0  0
   -6.8840   17.4690  -33.2420 C   0  0  0  0  0  0  0  0  0  0  0  0
   -7.1768   16.7931  -32.4251 H   0  0  0  0  0  0  0  0  0  0  0  0
   -7.7636   17.6980  -33.8616 H   0  0  0  0  0  0  0  0  0  0  0  0
   -6.1153   16.9839  -33.8616 H   0  0  0  0  0  0  0  0  0  0  0  0
   -5.0170   18.9250  -32.4340 N   0  0  0  0  0  0  0  0  0  0  0  0
   -4.8600   20.1450  -31.9380 N   0  0  0  0  0  0  0  0  0  0  0  0
   -3.6040   20.6210  -31.4460 C   0  0  0  0  0  0  0  0  0  0  0  0
   -3.4800   20.9730  -30.0950 C   0  0  0  0  0  0  0  0  0  0  0  0
   -4.3397   20.8588  -29.4184 H   0  0  0  0  0  0  0  0  0  0  0  0
   -2.2700   21.4680  -29.6040 C   0  0  0  0  0  0  0  0  0  0  0  0
   -2.1733   21.7285  -28.5397 H   0  0  0  0  0  0  0  0  0  0  0  0
   -1.1830   21.6320  -30.4650 C   0  0  0  0  0  0  0  0  0  0  0  0
   -0.2286   22.0166  -30.0762 H   0  0  0  0  0  0  0  0  0  0  0  0
   -1.3040   21.3090  -31.8190 C   0  0  0  0  0  0  0  0  0  0  0  0
   -0.4467   21.4479  -32.4941 H   0  0  0  0  0  0  0  0  0  0  0  0
   -2.5200   20.8060  -32.3230 C   0  0  0  0  0  0  0  0  0  0  0  0
   -2.6850   20.4760  -33.6780 O   0  0  0  0  0  0  0  0  0  0  0  0
   -2.4740   19.1790  -34.2240 C   0  0  0  0  0  0  0  0  0  0  0  0
   -2.3557   18.4520  -33.4070 H   0  0  0  0  0  0  0  0  0  0  0  0
   -3.3381   18.8970  -34.8435 H   0  0  0  0  0  0  0  0  0  0  0  0
   -1.5651   19.1854  -34.8435 H   0  0  0  0  0  0  0  0  0  0  0  0
   -6.0710   20.7360  -31.8450 C   0  0  0  0  0  0  0  0  0  0  0  0
   -6.3650   22.1010  -31.4840 N   0  0  0  0  0  0  0  0  0  0  0  0
   -5.5270   23.2060  -31.9800 C   0  0  0  0  0  0  0  0  0  0  0  0
   -4.5000   23.0597  -31.6142 H   0  0  0  0  0  0  0  0  0  0  0  0
   -5.5751   23.1905  -33.0788 H   0  0  0  0  0  0  0  0  0  0  0  0
   -6.0230   24.5870  -31.5140 C   0  0  0  0  0  0  0  0  0  0  0  0
   -5.8600   25.3042  -32.3319 H   0  0  0  0  0  0  0  0  0  0  0  0
   -7.0845   24.4655  -31.2525 H   0  0  0  0  0  0  0  0  0  0  0  0
   -5.3260   25.1240  -30.2620 C   0  0  0  0  0  0  0  0  0  0  0  0
   -5.7362   26.1138  -30.0129 H   0  0  0  0  0  0  0  0  0  0  0  0
   -5.4970   24.4286  -29.4271 H   0  0  0  0  0  0  0  0  0  0  0  0
   -3.9360   25.2380  -30.4940 O   0  0  0  0  0  0  0  0  0  0  0  0
   -3.2070   24.5500  -29.4960 C   0  0  0  0  0  0  0  0  0  0  0  0
   -2.7406   23.6571  -29.9378 H   0  0  0  0  0  0  0  0  0  0  0  0
   -2.4324   25.2190  -29.0931 H   0  0  0  0  0  0  0  0  0  0  0  0
   -4.1340   24.1250  -28.3630 C   0  0  0  0  0  0  0  0  0  0  0  0
   -3.6563   24.3440  -27.3967 H   0  0  0  0  0  0  0  0  0  0  0  0
   -5.0816   24.6786  -28.4374 H   0  0  0  0  0  0  0  0  0  0  0  0
   -4.3330   23.0457  -28.4374 H   0  0  0  0  0  0  0  0  0  0  0  0
   -7.7480   22.3760  -31.0400 C   0  0  0  0  0  0  0  0  0  0  0  0
   -7.9528   23.4506  -31.1551 H   0  0  0  0  0  0  0  0  0  0  0  0
   -7.8388   22.0693  -29.9875 H   0  0  0  0  0  0  0  0  0  0  0  0
   -8.7330   21.6140  -31.8290 N   0  0  0  0  0  0  0  0  0  0  0  0
   -9.7150   21.9690  -31.8750 H   0  0  0  0  0  0  0  0  0  0  0  0
  1  2  1  0
  2  3  2  0
  3  4  1  0
  4  5  1  0
  5  6  1  0
  6  7  1  0
  6  8  1  0
  6  9  1  0
  5 10  2  0
 10 11  1  0
 11 12  1  0
 12 13  2  0
 13 14  1  0
 13 15  1  0
 15 16  1  0
 15 17  2  0
 17 18  1  0
 17 19  1  0
 19 20  1  0
 19 21  2  0
 21 22  1  0
 22 23  1  0
 23 24  1  0
 23 25  1  0
 23 26  1  0
 11 27  1  0
 27 28  1  0
 28 29  1  0
 29 30  1  0
 29 31  1  0
 29 32  1  0
 32 33  1  0
 32 34  1  0
 32 35  1  0
 35 36  1  0
 35 37  1  0
 35 38  1  0
 38 39  1  0
 39 40  1  0
 39 41  1  0
 39 42  1  0
 42 43  1  0
 42 44  1  0
 42 45  1  0
 28 46  1  0
 46 47  1  0
 46 48  1  0
 46 49  1  0
 49 50  1  0
 49  3  1  0
 27  4  2  0
 21 12  1  0
M  END
>  <UniqueID>  (9) 
9

>  <SMILES>  (9) 
[H]/N=C1/NCN(CCCOCC)c2c1c(C)nn2-c1ccccc1OC

>  <Energy>  (9) 
93.60083701825046

>  <Genealogy>  (9) 
[H]/N=C1/NCN(CCCOCC)c2c1c(C)nn2-c1ccccc1OC (cis-trans isomerization)
[H]/N=C1/NCN(CCCOCC)c2c1c(C)nn2-c1ccccc1OC (3D coordinates assigned)
[H]/N=C1/NCN(CCCOCC)c2c1c(C)nn2-c1ccccc1OC (nonaromatic ring conformer: 93.60083701825046 kcal/mol)

>  <smiles>  (9) 
CCOCCCN1CNC(=N)c2c(C)nn(-c3ccccc3OC)c21

>  <score_type>  (9) 
oracle

>  <origin>  (9) 
adg

>  <m_score__min__energy>  (9) 
-7.6299999999999999

>  <m_primary>  (9) 
energy

$$$$
9:0
     RDKit          3D

 31 33  0  0  0  0  0  0  0  0999 V2000
   -3.8570   25.6680  -30.8150 O   0  0  0  0  0  0  0  0  0  0  0  0
   -3.6940   24.7490  -29.7840 C   0  0  0  0  0  0  0  0  0  0  0  0
   -2.4140   24.5320  -29.2590 C   0  0  0  0  0  0  0  0  0  0  0  0
   -2.2270   23.6190  -28.2180 C   0  0  0  0  0  0  0  0  0  0  0  0
   -3.3180   22.9200  -27.6970 C   0  0  0  0  0  0  0  0  0  0  0  0
   -4.5980   23.1300  -28.2160 C   0  0  0  0  0  0  0  0  0  0  0  0
   -4.7980   24.0390  -29.2700 C   0  0  0  0  0  0  0  0  0  0  0  0
   -6.1920   24.2810  -29.7930 C   0  0  0  0  0  0  0  0  0  0  0  0
   -6.6460   23.1170  -30.6310 C   0  0  0  0  0  0  0  0  0  0  0  0
   -7.7370   22.3360  -30.2430 C   0  0  0  0  0  0  0  0  0  0  0  0
   -8.1520   21.3110  -31.0300 N   0  0  0  0  0  0  0  0  0  0  0  0
   -7.5350   21.0190  -32.2050 C   0  0  0  0  0  0  0  0  0  0  0  0
   -8.0740   19.8560  -33.0100 C   0  0  0  0  0  0  0  0  0  0  0  0
   -8.2440   18.5290  -32.2850 C   0  0  0  0  0  0  0  0  0  0  0  0
   -9.4680   19.3550  -32.6620 C   0  0  0  0  0  0  0  0  0  0  0  0
   -6.4690   21.7780  -32.6060 N   0  0  0  0  0  0  0  0  0  0  0  0
   -6.0230   22.8140  -31.8460 C   0  0  0  0  0  0  0  0  0  0  0  0
   -1.5533   25.0819  -29.6674 H   0  0  0  0  0  0  0  0  0  0  0  0
   -1.2200   23.4507  -27.8086 H   0  0  0  0  0  0  0  0  0  0  0  0
   -3.1692   22.2027  -26.8764 H   0  0  0  0  0  0  0  0  0  0  0  0
   -5.4545   22.5810  -27.7976 H   0  0  0  0  0  0  0  0  0  0  0  0
   -6.8807   24.4076  -28.9447 H   0  0  0  0  0  0  0  0  0  0  0  0
   -6.1879   25.1886  -30.4145 H   0  0  0  0  0  0  0  0  0  0  0  0
   -8.2599   22.5516  -29.2996 H   0  0  0  0  0  0  0  0  0  0  0  0
   -7.5723   20.1794  -33.9339 H   0  0  0  0  0  0  0  0  0  0  0  0
   -8.0346   17.5849  -32.8093 H   0  0  0  0  0  0  0  0  0  0  0  0
   -7.8543   18.0968  -31.3515 H   0  0  0  0  0  0  0  0  0  0  0  0
  -10.1423   19.0072  -33.4584 H   0  0  0  0  0  0  0  0  0  0  0  0
  -10.3282   19.7663  -32.1135 H   0  0  0  0  0  0  0  0  0  0  0  0
   -5.9690   21.5900  -33.5030 H   0  0  0  0  0  0  0  0  0  0  0  0
   -5.1686   23.4162  -32.1884 H   0  0  0  0  0  0  0  0  0  0  0  0
  1  2  1  0
  2  3  2  0
  3  4  1  0
  4  5  2  0
  5  6  1  0
  6  7  2  0
  7  8  1  0
  8  9  1  0
  9 10  2  0
 10 11  1  0
 11 12  2  0
 12 13  1  0
 13 14  1  0
 14 15  1  0
 12 16  1  0
 16 17  2  0
  7  2  1  0
 17  9  1  0
 15 13  1  0
  3 18  1  0
  4 19  1  0
  5 20  1  0
  6 21  1  0
  8 22  1  0
  8 23  1  0
 10 24  1  0
 13 25  1  0
 14 26  1  0
 14 27  1  0
 15 28  1  0
 15 29  1  0
 16 30  1  0
 17 31  1  0
M  CHG  2   1  -1  16   1
M  END
>  <UniqueID>  (10) 
10

>  <SMILES>  (10) 
[O-]c1ccccc1Cc1cnc(C2CC2)[nH+]c1

>  <Energy>  (10) 
299.1792427388379

>  <Genealogy>  (10) 
[O-]c1ccccc1Cc1cnc(C2CC2)[nH+]c1 (protonated)
[O-]c1ccccc1Cc1cnc(C2CC2)[nH+]c1 (3D coordinates assigned)
[O-]c1ccccc1Cc1cnc(C2CC2)[nH+]c1 (nonaromatic ring conformer: 299.1792427388379 kcal/mol)

>  <smiles>  (10) 
Oc1ccccc1Cc1cnc(C2CC2)nc1

>  <score_type>  (10) 
oracle

>  <origin>  (10) 
adg

>  <m_score__min__energy>  (10) 
-9.8100000000000005

>  <m_primary>  (10) 
energy

$$$$
10:0
     RDKit          3D

 54 56  0  0  0  0  0  0  0  0999 V2000
   -6.3460   23.7640  -32.6420 C   0  0  0  0  0  0  0  0  0  0  0  0
   -6.9960   22.7270  -31.8250 N   0  0  0  0  0  0  0  0  0  0  0  0
   -8.4480   22.9460  -31.6010 C   0  0  0  0  0  0  0  0  0  0  0  0
   -9.2630   21.7270  -31.1150 C   0  0  0  0  0  0  0  0  0  0  0  0
   -9.6460   20.7410  -32.2240 C   0  0  0  0  0  0  0  0  0  0  0  0
   -8.4990   19.8800  -32.5510 N   0  0  0  0  0  0  0  0  0  0  0  0
   -7.4710   20.4010  -33.2330 N   0  0  0  0  0  0  0  0  0  0  0  0
   -6.3910   19.6580  -33.5930 C   0  0  0  0  0  0  0  0  0  0  0  0
   -6.3220   18.2890  -33.2710 C   0  0  0  0  0  0  0  0  0  0  0  0
   -5.1700   17.4690  -33.6470 N   0  0  0  0  0  0  0  0  0  0  0  0
   -4.1400   18.0490  -34.5390 C   0  0  0  0  0  0  0  0  0  0  0  0
   -3.0280   17.0750  -34.9380 C   0  0  0  0  0  0  0  0  0  0  0  0
   -2.6690   16.2170  -33.8140 N   0  0  0  0  0  0  0  0  0  0  0  0
   -3.8010   15.3430  -33.5260 C   0  0  0  0  0  0  0  0  0  0  0  0
   -4.9860   16.1510  -32.9960 C   0  0  0  0  0  0  0  0  0  0  0  0
   -7.4120   17.7490  -32.5630 C   0  0  0  0  0  0  0  0  0  0  0  0
   -8.4970   18.5530  -32.2170 C   0  0  0  0  0  0  0  0  0  0  0  0
   -9.4710   18.0410  -31.5980 O   0  0  0  0  0  0  0  0  0  0  0  0
   -6.2040   22.3870  -30.6250 C   0  0  0  0  0  0  0  0  0  0  0  0
   -4.8240   21.8920  -31.0000 C   0  0  0  0  0  0  0  0  0  0  0  0
   -4.6360   20.5310  -31.3070 C   0  0  0  0  0  0  0  0  0  0  0  0
   -3.3730   20.0520  -31.6640 C   0  0  0  0  0  0  0  0  0  0  0  0
   -2.2820   20.9210  -31.7120 C   0  0  0  0  0  0  0  0  0  0  0  0
   -2.4490   22.2710  -31.3990 C   0  0  0  0  0  0  0  0  0  0  0  0
   -3.7110   22.7650  -31.0390 C   0  0  0  0  0  0  0  0  0  0  0  0
   -3.8400   24.1640  -30.7100 C   0  0  0  0  0  0  0  0  0  0  0  0
   -3.9440   25.2870  -30.4480 N   0  0  0  0  0  0  0  0  0  0  0  0
   -5.8782   24.5103  -31.9830 H   0  0  0  0  0  0  0  0  0  0  0  0
   -5.5759   23.3015  -33.2769 H   0  0  0  0  0  0  0  0  0  0  0  0
   -7.0979   24.2555  -33.2769 H   0  0  0  0  0  0  0  0  0  0  0  0
   -8.5536   23.7403  -30.8474 H   0  0  0  0  0  0  0  0  0  0  0  0
   -8.8602   23.1958  -32.5898 H   0  0  0  0  0  0  0  0  0  0  0  0
   -8.6633   21.1879  -30.3669 H   0  0  0  0  0  0  0  0  0  0  0  0
  -10.2047   22.1211  -30.7052 H   0  0  0  0  0  0  0  0  0  0  0  0
  -10.4845   20.1163  -31.8822 H   0  0  0  0  0  0  0  0  0  0  0  0
   -9.9415   21.3044  -33.1214 H   0  0  0  0  0  0  0  0  0  0  0  0
   -7.4830   21.4110  -33.5060 H   0  0  0  0  0  0  0  0  0  0  0  0
   -5.5629   20.1309  -34.1412 H   0  0  0  0  0  0  0  0  0  0  0  0
   -4.6365   18.3987  -35.4561 H   0  0  0  0  0  0  0  0  0  0  0  0
   -3.6583   18.8618  -33.9756 H   0  0  0  0  0  0  0  0  0  0  0  0
   -3.3775   16.4498  -35.7728 H   0  0  0  0  0  0  0  0  0  0  0  0
   -2.1421   17.6528  -35.2401 H   0  0  0  0  0  0  0  0  0  0  0  0
   -1.8730   15.6110  -34.1210 H   0  0  0  0  0  0  0  0  0  0  0  0
   -4.1010   14.8247  -34.4487 H   0  0  0  0  0  0  0  0  0  0  0  0
   -3.4990   14.6138  -32.7598 H   0  0  0  0  0  0  0  0  0  0  0  0
   -5.9012   15.5606  -33.1504 H   0  0  0  0  0  0  0  0  0  0  0  0
   -4.7784   16.3521  -31.9346 H   0  0  0  0  0  0  0  0  0  0  0  0
   -7.4077   16.6858  -32.2809 H   0  0  0  0  0  0  0  0  0  0  0  0
   -6.1044   23.2835  -29.9954 H   0  0  0  0  0  0  0  0  0  0  0  0
   -6.7247   21.5854  -30.0806 H   0  0  0  0  0  0  0  0  0  0  0  0
   -5.4902   19.8392  -31.2655 H   0  0  0  0  0  0  0  0  0  0  0  0
   -3.2383   18.9878  -31.9077 H   0  0  0  0  0  0  0  0  0  0  0  0
   -1.2895   20.5417  -31.9968 H   0  0  0  0  0  0  0  0  0  0  0  0
   -1.5854   22.9514  -31.4350 H   0  0  0  0  0  0  0  0  0  0  0  0
  1  2  1  0
  2  3  1  0
  3  4  1  0
  4  5  1  0
  5  6  1  0
  6  7  1  0
  7  8  2  0
  8  9  1  0
  9 10  1  0
 10 11  1  0
 11 12  1  0
 12 13  1  0
 13 14  1  0
 14 15  1  0
  9 16  2  0
 16 17  1  0
 17 18  2  0
  2 19  1  0
 19 20  1  0
 20 21  2  0
 21 22  1  0
 22 23  2  0
 23 24  1  0
 24 25  2  0
 25 26  1  0
 26 27  3  0
 17  6  1  0
 25 20  1  0
 15 10  1  0
  1 28  1  0
  1 29  1  0
  1 30  1  0
  3 31  1  0
  3 32  1  0
  4 33  1  0
  4 34  1  0
  5 35  1  0
  5 36  1  0
  7 37  1  0
  8 38  1  0
 11 39  1  0
 11 40  1  0
 12 41  1  0
 12 42  1  0
 13 43  1  0
 14 44  1  0
 14 45  1  0
 15 46  1  0
 15 47  1  0
 16 48  1  0
 19 49  1  0
 19 50  1  0
 21 51  1  0
 22 52  1  0
 23 53  1  0
 24 54  1  0
M  CHG  1   7   1
M  END
>  <UniqueID>  (11) 
11

>  <SMILES>  (11) 
CN(CCCn1[nH+]cc(N2CCNCC2)cc1=O)Cc1ccccc1C#N

>  <Energy>  (11) 
67.2825396958415

>  <Genealogy>  (11) 
CN(CCCn1[nH+]cc(N2CCNCC2)cc1=O)Cc1ccccc1C#N (protonated)
CN(CCCn1[nH+]cc(N2CCNCC2)cc1=O)Cc1ccccc1C#N (3D coordinates assigned)
CN(CCCn1[nH+]cc(N2CCNCC2)cc1=O)Cc1ccccc1C#N (nonaromatic ring conformer: 67.2825396958415 kcal/mol)

>  <smiles>  (11) 
CN(CCCn1ncc(N2CCNCC2)cc1=O)Cc1ccccc1C#N

>  <score_type>  (11) 
oracle

>  <origin>  (11) 
adg

>  <m_score__min__energy>  (11) 
-8.2100000000000009

>  <m_primary>  (11) 
energy

$$$$
11:0
     RDKit          3D

 29 30  0  0  0  0  0  0  0  0999 V2000
   -3.5140   24.1370  -27.7560 C   0  0  0  0  0  0  0  0  0  0  0  0
   -2.6580   24.8180  -28.8180 C   0  0  0  0  0  0  0  0  0  0  0  0
   -3.3780   24.9040  -30.0890 N   0  0  0  0  0  0  0  0  0  0  0  0
   -4.4300   24.0070  -30.4980 C   0  0  0  0  0  0  0  0  0  0  0  0
   -5.7870   24.3720  -30.4590 C   0  0  0  0  0  0  0  0  0  0  0  0
   -6.7700   23.4710  -30.8710 C   0  0  0  0  0  0  0  0  0  0  0  0
   -6.3970   22.1940  -31.3250 C   0  0  0  0  0  0  0  0  0  0  0  0
   -7.4040   21.2010  -31.7770 C   0  0  0  0  0  0  0  0  0  0  0  0
   -7.0100   19.8760  -32.0440 C   0  0  0  0  0  0  0  0  0  0  0  0
   -7.9470   18.9260  -32.4650 C   0  0  0  0  0  0  0  0  0  0  0  0
   -9.2880   19.2840  -32.6150 C   0  0  0  0  0  0  0  0  0  0  0  0
   -9.6960   20.5910  -32.3410 C   0  0  0  0  0  0  0  0  0  0  0  0
   -8.7640   21.5450  -31.9210 C   0  0  0  0  0  0  0  0  0  0  0  0
   -5.0750   21.8700  -31.3670 N   0  0  0  0  0  0  0  0  0  0  0  0
   -4.1000   22.7310  -30.9720 C   0  0  0  0  0  0  0  0  0  0  0  0
   -3.1545   24.4230  -26.7565 H   0  0  0  0  0  0  0  0  0  0  0  0
   -4.5617   24.4512  -27.8726 H   0  0  0  0  0  0  0  0  0  0  0  0
   -3.4434   23.0455  -27.8726 H   0  0  0  0  0  0  0  0  0  0  0  0
   -2.4023   25.8327  -28.4790 H   0  0  0  0  0  0  0  0  0  0  0  0
   -1.7449   24.2235  -28.9695 H   0  0  0  0  0  0  0  0  0  0  0  0
   -3.1080   25.6800  -30.7350 H   0  0  0  0  0  0  0  0  0  0  0  0
   -6.0753   25.3718  -30.1023 H   0  0  0  0  0  0  0  0  0  0  0  0
   -7.8313   23.7587  -30.8406 H   0  0  0  0  0  0  0  0  0  0  0  0
   -5.9564   19.5851  -31.9206 H   0  0  0  0  0  0  0  0  0  0  0  0
   -7.6265   17.8955  -32.6781 H   0  0  0  0  0  0  0  0  0  0  0  0
  -10.0229   18.5368  -32.9489 H   0  0  0  0  0  0  0  0  0  0  0  0
  -10.7536   20.8709  -32.4559 H   0  0  0  0  0  0  0  0  0  0  0  0
   -9.0940   22.5711  -31.7014 H   0  0  0  0  0  0  0  0  0  0  0  0
   -3.0451   22.4236  -31.0250 H   0  0  0  0  0  0  0  0  0  0  0  0
  1  2  1  0
  2  3  1  0
  3  4  1  0
  4  5  2  0
  5  6  1  0
  6  7  2  0
  7  8  1  0
  8  9  2  0
  9 10  1  0
 10 11  2  0
 11 12  1  0
 12 13  2  0
  7 14  1  0
 14 15  2  0
 15  4  1  0
 13  8  1  0
  1 16  1  0
  1 17  1  0
  1 18  1  0
  2 19  1  0
  2 20  1  0
  3 21  1  0
  5 22  1  0
  6 23  1  0
  9 24  1  0
 10 25  1  0
 11 26  1  0
 12 27  1  0
 13 28  1  0
 15 29  1  0
M  END
>  <UniqueID>  (12) 
12

>  <SMILES>  (12) 
CCNc1ccc(-c2ccccc2)nc1

>  <Energy>  (12) 
31.14765772060567

>  <Genealogy>  (12) 
CCNc1ccc(-c2ccccc2)nc1 (3D coordinates assigned)
CCNc1ccc(-c2ccccc2)nc1 (optimized conformer: 31.14765772060567 kcal/mol)

>  <smiles>  (12) 
CCNc1ccc(-c2ccccc2)nc1

>  <score_type>  (12) 
oracle

>  <origin>  (12) 
adg

>  <m_score__min__energy>  (12) 
-6.7199999999999998

>  <m_primary>  (12) 
energy

$$$$
12:0
     RDKit          3D

 52 55  0  0  0  0  0  0  0  0999 V2000
    0.5440   18.7530  -28.7140 C   0  0  0  0  0  0  0  0  0  0  0  0
    0.6210   20.1270  -29.0820 O   0  0  0  0  0  0  0  0  0  0  0  0
   -0.1910   21.1380  -28.5470 C   0  0  0  0  0  0  0  0  0  0  0  0
   -0.8060   20.9110  -27.3080 C   0  0  0  0  0  0  0  0  0  0  0  0
   -1.6160   21.8910  -26.7290 C   0  0  0  0  0  0  0  0  0  0  0  0
   -1.8260   23.1060  -27.3840 C   0  0  0  0  0  0  0  0  0  0  0  0
   -1.2320   23.3460  -28.6330 C   0  0  0  0  0  0  0  0  0  0  0  0
   -1.4210   24.6700  -29.3170 C   0  0  0  0  0  0  0  0  0  0  0  0
   -2.8400   24.9950  -29.3540 N   0  0  0  0  0  0  0  0  0  0  0  0
   -3.7730   24.4970  -30.3210 C   0  0  0  0  0  0  0  0  0  0  0  0
   -4.2230   25.2950  -31.1850 O   0  0  0  0  0  0  0  0  0  0  0  0
   -4.3010   23.0770  -30.2690 C   0  0  0  0  0  0  0  0  0  0  0  0
   -5.6060   22.9490  -31.0990 C   0  0  0  0  0  0  0  0  0  0  0  0
   -5.4300   22.1170  -32.3750 C   0  0  0  0  0  0  0  0  0  0  0  0
   -4.8480   20.8060  -32.0540 N   0  0  0  0  0  0  0  0  0  0  0  0
   -5.2310   19.6330  -32.7980 C   0  0  0  0  0  0  0  0  0  0  0  0
   -5.8770   19.6610  -33.9870 N   0  0  0  0  0  0  0  0  0  0  0  0
   -6.1170   18.4540  -34.4970 N   0  0  0  0  0  0  0  0  0  0  0  0
   -5.6660   17.4430  -33.7200 C   0  0  0  0  0  0  0  0  0  0  0  0
   -5.8180   16.0220  -34.0830 C   0  0  0  0  0  0  0  0  0  0  0  0
   -4.7070   15.1750  -34.2250 C   0  0  0  0  0  0  0  0  0  0  0  0
   -4.9040   13.8350  -34.5690 C   0  0  0  0  0  0  0  0  0  0  0  0
   -6.1980   13.3520  -34.7670 C   0  0  0  0  0  0  0  0  0  0  0  0
   -7.2810   14.2200  -34.6180 C   0  0  0  0  0  0  0  0  0  0  0  0
   -7.0700   15.5210  -34.2830 N   0  0  0  0  0  0  0  0  0  0  0  0
   -4.9200   18.0430  -32.3260 S   0  0  0  0  0  0  0  0  0  0  0  0
   -3.8200   20.6920  -31.0080 C   0  0  0  0  0  0  0  0  0  0  0  0
   -3.2120   22.0610  -30.6850 C   0  0  0  0  0  0  0  0  0  0  0  0
   -0.4040   22.3650  -29.2060 C   0  0  0  0  0  0  0  0  0  0  0  0
    0.5392   18.6668  -27.6174 H   0  0  0  0  0  0  0  0  0  0  0  0
   -0.3801   18.3158  -29.1202 H   0  0  0  0  0  0  0  0  0  0  0  0
    1.4134   18.2153  -29.1202 H   0  0  0  0  0  0  0  0  0  0  0  0
   -0.6497   19.9544  -26.7879 H   0  0  0  0  0  0  0  0  0  0  0  0
   -2.0899   21.7048  -25.7539 H   0  0  0  0  0  0  0  0  0  0  0  0
   -2.4586   23.8772  -26.9201 H   0  0  0  0  0  0  0  0  0  0  0  0
   -0.8797   25.4506  -28.7623 H   0  0  0  0  0  0  0  0  0  0  0  0
   -1.0293   24.6135  -30.3433 H   0  0  0  0  0  0  0  0  0  0  0  0
   -4.5635   22.8323  -29.2292 H   0  0  0  0  0  0  0  0  0  0  0  0
   -6.3734   22.4707  -30.4726 H   0  0  0  0  0  0  0  0  0  0  0  0
   -5.8985   23.9635  -31.4075 H   0  0  0  0  0  0  0  0  0  0  0  0
   -6.4108   21.9716  -32.8514 H   0  0  0  0  0  0  0  0  0  0  0  0
   -4.7537   22.6505  -33.0591 H   0  0  0  0  0  0  0  0  0  0  0  0
   -6.1510   20.5320  -34.4910 H   0  0  0  0  0  0  0  0  0  0  0  0
   -3.6900   15.5631  -34.0667 H   0  0  0  0  0  0  0  0  0  0  0  0
   -4.0410   13.1626  -34.6834 H   0  0  0  0  0  0  0  0  0  0  0  0
   -6.3629   12.2986  -35.0376 H   0  0  0  0  0  0  0  0  0  0  0  0
   -8.3059   13.8514  -34.7717 H   0  0  0  0  0  0  0  0  0  0  0  0
   -4.2775   20.2776  -30.0975 H   0  0  0  0  0  0  0  0  0  0  0  0
   -3.0205   20.0303  -31.3726 H   0  0  0  0  0  0  0  0  0  0  0  0
   -2.4937   21.9480  -29.8596 H   0  0  0  0  0  0  0  0  0  0  0  0
   -2.7115   22.4398  -31.5883 H   0  0  0  0  0  0  0  0  0  0  0  0
    0.0806   22.5565  -30.1748 H   0  0  0  0  0  0  0  0  0  0  0  0
  1  2  1  0
  2  3  1  0
  3  4  2  0
  4  5  1  0
  5  6  2  0
  6  7  1  0
  7  8  1  0
  8  9  1  0
  9 10  1  0
 10 11  2  0
 10 12  1  0
 12 13  1  0
 13 14  1  0
 14 15  1  0
 15 16  1  0
 16 17  2  0
 17 18  1  0
 18 19  2  0
 19 20  1  0
 20 21  2  0
 21 22  1  0
 22 23  2  0
 23 24  1  0
 24 25  2  0
 19 26  1  0
 15 27  1  0
 27 28  1  0
  7 29  2  0
 29  3  1  0
 28 12  1  0
 26 16  1  0
 25 20  1  0
  1 30  1  0
  1 31  1  0
  1 32  1  0
  4 33  1  0
  5 34  1  0
  6 35  1  0
  8 36  1  0
  8 37  1  0
 12 38  1  0
 13 39  1  0
 13 40  1  0
 14 41  1  0
 14 42  1  0
 17 43  1  0
 21 44  1  0
 22 45  1  0
 23 46  1  0
 24 47  1  0
 27 48  1  0
 27 49  1  0
 28 50  1  0
 28 51  1  0
 29 52  1  0
M  CHG  2   9  -1  17   1
M  END
>  <UniqueID>  (13) 
13

>  <SMILES>  (13) 
COc1cccc(C[N-]C(=O)C2CCN(c3[nH+]nc(-c4ccccn4)s3)CC2)c1

>  <Energy>  (13) 
90.38432641168818

>  <Genealogy>  (13) 
COc1cccc(C[N-]C(=O)C2CCN(c3[nH+]nc(-c4ccccn4)s3)CC2)c1 (protonated)
COc1cccc(C[N-]C(=O)C2CCN(c3[nH+]nc(-c4ccccn4)s3)CC2)c1 (3D coordinates assigned)
COc1cccc(C[N-]C(=O)C2CCN(c3[nH+]nc(-c4ccccn4)s3)CC2)c1 (nonaromatic ring conformer: 90.38432641168818 kcal/mol)

>  <smiles>  (13) 
COc1cccc(CNC(=O)C2CCN(c3nnc(-c4ccccn4)s3)CC2)c1

>  <score_type>  (13) 
oracle

>  <origin>  (13) 
adg

>  <m_score__min__energy>  (13) 
-9.6899999999999995

>  <m_primary>  (13) 
energy

$$$$
13:0
     RDKit          3D

 48 50  0  0  0  0  0  0  0  0999 V2000
   -6.7920   15.8690  -34.2530 C   0  0  0  0  0  0  0  0  0  0  0  0
   -6.4540   17.2060  -34.6100 O   0  0  0  0  0  0  0  0  0  0  0  0
   -5.6190   18.0410  -33.8540 C   0  0  0  0  0  0  0  0  0  0  0  0
   -4.3470   18.4420  -34.3000 C   0  0  0  0  0  0  0  0  0  0  0  0
   -3.5510   19.2740  -33.5090 C   0  0  0  0  0  0  0  0  0  0  0  0
   -4.0050   19.7200  -32.2540 C   0  0  0  0  0  0  0  0  0  0  0  0
   -3.1550   20.6050  -31.4200 C   0  0  0  0  0  0  0  0  0  0  0  0
   -2.1060   20.1850  -30.6720 N   0  0  0  0  0  0  0  0  0  0  0  0
   -1.4860   21.1990  -30.0050 C   0  0  0  0  0  0  0  0  0  0  0  0
   -0.2680   20.9630  -29.1630 C   0  0  0  0  0  0  0  0  0  0  0  0
   -2.0480   22.4590  -30.2210 C   0  0  0  0  0  0  0  0  0  0  0  0
   -1.5510   23.7780  -29.7070 C   0  0  0  0  0  0  0  0  0  0  0  0
   -2.6880   24.5660  -29.0530 C   0  0  0  0  0  0  0  0  0  0  0  0
   -3.4840   25.2460  -30.0690 N   0  0  0  0  0  0  0  0  0  0  0  0
   -4.8800   25.0390  -30.3320 C   0  0  0  0  0  0  0  0  0  0  0  0
   -5.4260   25.7240  -31.2370 O   0  0  0  0  0  0  0  0  0  0  0  0
   -5.7290   24.1070  -29.5040 C   0  0  0  0  0  0  0  0  0  0  0  0
   -6.5600   23.2060  -30.3800 C   0  0  0  0  0  0  0  0  0  0  0  0
   -6.2690   23.0790  -31.7480 C   0  0  0  0  0  0  0  0  0  0  0  0
   -7.0250   22.2220  -32.5540 C   0  0  0  0  0  0  0  0  0  0  0  0
   -8.0730   21.4810  -31.9990 C   0  0  0  0  0  0  0  0  0  0  0  0
   -8.8040   20.6500  -32.7810 F   0  0  0  0  0  0  0  0  0  0  0  0
   -8.3620   21.5940  -30.6370 C   0  0  0  0  0  0  0  0  0  0  0  0
   -7.6080   22.4500  -29.8270 C   0  0  0  0  0  0  0  0  0  0  0  0
   -3.3370   22.2780  -31.2860 S   0  0  0  0  0  0  0  0  0  0  0  0
   -5.2810   19.3200  -31.8170 C   0  0  0  0  0  0  0  0  0  0  0  0
   -6.0760   18.4880  -32.6100 C   0  0  0  0  0  0  0  0  0  0  0  0
   -6.8153   15.7768  -33.1571 H   0  0  0  0  0  0  0  0  0  0  0  0
   -7.7816   15.6190  -34.6631 H   0  0  0  0  0  0  0  0  0  0  0  0
   -6.0401   15.1787  -34.6631 H   0  0  0  0  0  0  0  0  0  0  0  0
   -3.9767   18.0986  -35.2772 H   0  0  0  0  0  0  0  0  0  0  0  0
   -2.5594   19.5836  -33.8708 H   0  0  0  0  0  0  0  0  0  0  0  0
   -1.7740   19.1960  -30.6300 H   0  0  0  0  0  0  0  0  0  0  0  0
   -0.5419   21.0161  -28.0990 H   0  0  0  0  0  0  0  0  0  0  0  0
    0.1449   19.9681  -29.3862 H   0  0  0  0  0  0  0  0  0  0  0  0
    0.4866   21.7316  -29.3862 H   0  0  0  0  0  0  0  0  0  0  0  0
   -0.7599   23.6010  -28.9635 H   0  0  0  0  0  0  0  0  0  0  0  0
   -1.1565   24.3613  -30.5521 H   0  0  0  0  0  0  0  0  0  0  0  0
   -3.3322   23.8740  -28.4907 H   0  0  0  0  0  0  0  0  0  0  0  0
   -2.2579   25.3171  -28.3742 H   0  0  0  0  0  0  0  0  0  0  0  0
   -5.0732   23.4891  -28.8731 H   0  0  0  0  0  0  0  0  0  0  0  0
   -6.4065   24.7114  -28.8830 H   0  0  0  0  0  0  0  0  0  0  0  0
   -5.4424   23.6564  -32.1877 H   0  0  0  0  0  0  0  0  0  0  0  0
   -6.7950   22.1307  -33.6258 H   0  0  0  0  0  0  0  0  0  0  0  0
   -9.1845   21.0085  -30.2003 H   0  0  0  0  0  0  0  0  0  0  0  0
   -7.8360   22.5316  -28.7540 H   0  0  0  0  0  0  0  0  0  0  0  0
   -5.6563   19.6652  -30.8424 H   0  0  0  0  0  0  0  0  0  0  0  0
   -7.0702   18.1819  -32.2525 H   0  0  0  0  0  0  0  0  0  0  0  0
  1  2  1  0
  2  3  1  0
  3  4  2  0
  4  5  1  0
  5  6  2  0
  6  7  1  0
  7  8  2  0
  8  9  1  0
  9 10  1  0
  9 11  2  0
 11 12  1  0
 12 13  1  0
 13 14  1  0
 14 15  1  0
 15 16  2  0
 15 17  1  0
 17 18  1  0
 18 19  2  0
 19 20  1  0
 20 21  2  0
 21 22  1  0
 21 23  1  0
 23 24  2  0
 11 25  1  0
  6 26  1  0
 26 27  2  0
 27  3  1  0
 25  7  1  0
 24 18  1  0
  1 28  1  0
  1 29  1  0
  1 30  1  0
  4 31  1  0
  5 32  1  0
  8 33  1  0
 10 34  1  0
 10 35  1  0
 10 36  1  0
 12 37  1  0
 12 38  1  0
 13 39  1  0
 13 40  1  0
 17 41  1  0
 17 42  1  0
 19 43  1  0
 20 44  1  0
 23 45  1  0
 24 46  1  0
 26 47  1  0
 27 48  1  0
M  CHG  2   8   1  14  -1
M  END
>  <UniqueID>  (14) 
14

>  <SMILES>  (14) 
COc1ccc(-c2[nH+]c(C)c(CC[N-]C(=O)Cc3ccc(F)cc3)s2)cc1

>  <Energy>  (14) 
74.61208674910921

>  <Genealogy>  (14) 
COc1ccc(-c2[nH+]c(C)c(CC[N-]C(=O)Cc3ccc(F)cc3)s2)cc1 (protonated)
COc1ccc(-c2[nH+]c(C)c(CC[N-]C(=O)Cc3ccc(F)cc3)s2)cc1 (3D coordinates assigned)
COc1ccc(-c2[nH+]c(C)c(CC[N-]C(=O)Cc3ccc(F)cc3)s2)cc1 (optimized conformer: 74.61208674910921 kcal/mol)

>  <smiles>  (14) 
COc1ccc(-c2nc(C)c(CCNC(=O)Cc3ccc(F)cc3)s2)cc1

>  <score_type>  (14) 
oracle

>  <origin>  (14) 
adg

>  <m_score__min__energy>  (14) 
-9.2400000000000002

>  <m_primary>  (14) 
energy

$$$$
14:0
     RDKit          3D

 31 32  0  0  0  0  0  0  0  0999 V2000
   -1.1190   25.7270  -27.6860 C   0  0  0  0  0  0  0  0  0  0  0  0
   -1.7060   25.6710  -28.9810 O   0  0  0  0  0  0  0  0  0  0  0  0
   -2.6630   24.7130  -29.3330 C   0  0  0  0  0  0  0  0  0  0  0  0
   -2.8240   23.6820  -28.6260 O   0  0  0  0  0  0  0  0  0  0  0  0
   -3.5100   24.9170  -30.4680 N   0  0  0  0  0  0  0  0  0  0  0  0
   -4.8210   24.3640  -30.6570 C   0  0  0  0  0  0  0  0  0  0  0  0
   -5.9470   25.0460  -30.1580 C   0  0  0  0  0  0  0  0  0  0  0  0
   -7.2270   24.5180  -30.3130 C   0  0  0  0  0  0  0  0  0  0  0  0
   -7.4040   23.3090  -30.9750 C   0  0  0  0  0  0  0  0  0  0  0  0
   -6.3060   22.6310  -31.5030 C   0  0  0  0  0  0  0  0  0  0  0  0
   -4.9970   23.1480  -31.3750 C   0  0  0  0  0  0  0  0  0  0  0  0
   -3.8810   22.4170  -31.9530 N   0  0  0  0  0  0  0  0  0  0  0  0
   -2.7130   21.9980  -31.1880 C   0  0  0  0  0  0  0  0  0  0  0  0
   -1.7750   21.3320  -32.1830 C   0  0  0  0  0  0  0  0  0  0  0  0
   -2.6610   20.9270  -33.3510 C   0  0  0  0  0  0  0  0  0  0  0  0
   -3.8350   21.8940  -33.3150 C   0  0  0  0  0  0  0  0  0  0  0  0
   -1.9073   25.6518  -26.9225 H   0  0  0  0  0  0  0  0  0  0  0  0
   -0.4127   24.8922  -27.5672 H   0  0  0  0  0  0  0  0  0  0  0  0
   -0.5832   26.6803  -27.5672 H   0  0  0  0  0  0  0  0  0  0  0  0
   -5.8147   26.0071  -29.6396 H   0  0  0  0  0  0  0  0  0  0  0  0
   -8.0972   25.0579  -29.9115 H   0  0  0  0  0  0  0  0  0  0  0  0
   -8.4135   22.8856  -31.0828 H   0  0  0  0  0  0  0  0  0  0  0  0
   -6.4613   21.6771  -32.0283 H   0  0  0  0  0  0  0  0  0  0  0  0
   -2.2251   22.8698  -30.7277 H   0  0  0  0  0  0  0  0  0  0  0  0
   -2.9901   21.3112  -30.3746 H   0  0  0  0  0  0  0  0  0  0  0  0
   -0.9983   22.0373  -32.5136 H   0  0  0  0  0  0  0  0  0  0  0  0
   -1.2519   20.4699  -31.7436 H   0  0  0  0  0  0  0  0  0  0  0  0
   -2.1137   21.0199  -34.3007 H   0  0  0  0  0  0  0  0  0  0  0  0
   -2.9885   19.8796  -33.2748 H   0  0  0  0  0  0  0  0  0  0  0  0
   -3.6792   22.7119  -34.0339 H   0  0  0  0  0  0  0  0  0  0  0  0
   -4.7769   21.3960  -33.5884 H   0  0  0  0  0  0  0  0  0  0  0  0
  1  2  1  0
  2  3  1  0
  3  4  2  0
  3  5  1  0
  5  6  1  0
  6  7  2  0
  7  8  1  0
  8  9  2  0
  9 10  1  0
 10 11  2  0
 11 12  1  0
 12 13  1  0
 13 14  1  0
 14 15  1  0
 15 16  1  0
 11  6  1  0
 16 12  1  0
  1 17  1  0
  1 18  1  0
  1 19  1  0
  7 20  1  0
  8 21  1  0
  9 22  1  0
 10 23  1  0
 13 24  1  0
 13 25  1  0
 14 26  1  0
 14 27  1  0
 15 28  1  0
 15 29  1  0
 16 30  1  0
 16 31  1  0
M  CHG  1   5  -1
M  END
>  <UniqueID>  (15) 
15

>  <SMILES>  (15) 
COC(=O)[N-]c1ccccc1N1CCCC1

>  <Energy>  (15) 
36.139640985209404

>  <Genealogy>  (15) 
COC(=O)[N-]c1ccccc1N1CCCC1 (protonated)
COC(=O)[N-]c1ccccc1N1CCCC1 (3D coordinates assigned)
COC(=O)[N-]c1ccccc1N1CCCC1 (nonaromatic ring conformer: 36.139640985209404 kcal/mol)

>  <smiles>  (15) 
COC(=O)Nc1ccccc1N1CCCC1

>  <score_type>  (15) 
oracle

>  <origin>  (15) 
adg

>  <m_score__min__energy>  (15) 
-7.4400000000000004

>  <m_primary>  (15) 
energy

$$$$
15:0
     RDKit          3D

 42 44  0  0  0  0  0  0  0  0999 V2000
   -3.1450   21.0040  -27.6610 C   0  0  0  0  0  0  0  0  0  0  0  0
   -3.4360   22.2720  -28.4070 C   0  0  0  0  0  0  0  0  0  0  0  0
   -2.4500   23.2610  -28.5300 C   0  0  0  0  0  0  0  0  0  0  0  0
   -2.7300   24.4540  -29.2010 C   0  0  0  0  0  0  0  0  0  0  0  0
   -1.7630   25.3950  -29.3350 F   0  0  0  0  0  0  0  0  0  0  0  0
   -4.0050   24.6800  -29.7310 C   0  0  0  0  0  0  0  0  0  0  0  0
   -4.2480   25.8410  -30.3910 F   0  0  0  0  0  0  0  0  0  0  0  0
   -5.0190   23.7170  -29.5720 C   0  0  0  0  0  0  0  0  0  0  0  0
   -6.4040   23.9480  -30.1330 C   0  0  0  0  0  0  0  0  0  0  0  0
   -6.6180   23.3520  -31.4680 N   0  0  0  0  0  0  0  0  0  0  0  0
   -7.8420   22.5460  -31.6540 C   0  0  0  0  0  0  0  0  0  0  0  0
   -7.5990   21.0460  -31.4660 C   0  0  0  0  0  0  0  0  0  0  0  0
   -6.4260   20.6320  -32.2320 N   0  0  0  0  0  0  0  0  0  0  0  0
   -6.4070   19.3750  -32.9350 C   0  0  0  0  0  0  0  0  0  0  0  0
   -5.7140   19.2690  -34.1510 C   0  0  0  0  0  0  0  0  0  0  0  0
   -5.6910   18.0570  -34.8470 C   0  0  0  0  0  0  0  0  0  0  0  0
   -6.3570   16.9410  -34.3340 C   0  0  0  0  0  0  0  0  0  0  0  0
   -7.0460   17.0360  -33.1220 C   0  0  0  0  0  0  0  0  0  0  0  0
   -7.0730   18.2460  -32.4200 C   0  0  0  0  0  0  0  0  0  0  0  0
   -7.7230   18.3070  -31.2300 F   0  0  0  0  0  0  0  0  0  0  0  0
   -5.1810   21.3680  -32.0180 C   0  0  0  0  0  0  0  0  0  0  0  0
   -5.4210   22.8730  -32.1910 C   0  0  0  0  0  0  0  0  0  0  0  0
   -4.7180   22.5070  -28.9260 C   0  0  0  0  0  0  0  0  0  0  0  0
   -3.1892   21.1968  -26.5789 H   0  0  0  0  0  0  0  0  0  0  0  0
   -3.8915   20.2417  -27.9284 H   0  0  0  0  0  0  0  0  0  0  0  0
   -2.1408   20.6435  -27.9284 H   0  0  0  0  0  0  0  0  0  0  0  0
   -1.4523   23.0971  -28.0967 H   0  0  0  0  0  0  0  0  0  0  0  0
   -7.1362   23.5115  -29.4378 H   0  0  0  0  0  0  0  0  0  0  0  0
   -6.5244   25.0355  -30.2466 H   0  0  0  0  0  0  0  0  0  0  0  0
   -8.5939   22.8747  -30.9215 H   0  0  0  0  0  0  0  0  0  0  0  0
   -8.1853   22.6989  -32.6878 H   0  0  0  0  0  0  0  0  0  0  0  0
   -7.4313   20.8346  -30.3996 H   0  0  0  0  0  0  0  0  0  0  0  0
   -8.4786   20.4895  -31.8219 H   0  0  0  0  0  0  0  0  0  0  0  0
   -5.1864   20.1441  -34.5583 H   0  0  0  0  0  0  0  0  0  0  0  0
   -5.1475   17.9817  -35.8004 H   0  0  0  0  0  0  0  0  0  0  0  0
   -6.3390   15.9884  -34.8837 H   0  0  0  0  0  0  0  0  0  0  0  0
   -7.5690   16.1564  -32.7184 H   0  0  0  0  0  0  0  0  0  0  0  0
   -4.8137   21.1730  -30.9996 H   0  0  0  0  0  0  0  0  0  0  0  0
   -4.4354   21.0356  -32.7553 H   0  0  0  0  0  0  0  0  0  0  0  0
   -4.5419   23.4144  -31.8116 H   0  0  0  0  0  0  0  0  0  0  0  0
   -5.5861   23.0597  -33.2624 H   0  0  0  0  0  0  0  0  0  0  0  0
   -5.4956   21.7354  -28.8259 H   0  0  0  0  0  0  0  0  0  0  0  0
  1  2  1  0
  2  3  2  0
  3  4  1  0
  4  5  1  0
  4  6  2  0
  6  7  1  0
  6  8  1  0
  8  9  1  0
  9 10  1  0
 10 11  1  0
 11 12  1  0
 12 13  1  0
 13 14  1  0
 14 15  2  0
 15 16  1  0
 16 17  2  0
 17 18  1  0
 18 19  2  0
 19 20  1  0
 13 21  1  0
 21 22  1  0
  8 23  2  0
 23  2  1  0
 22 10  1  0
 19 14  1  0
  1 24  1  0
  1 25  1  0
  1 26  1  0
  3 27  1  0
  9 28  1  0
  9 29  1  0
 11 30  1  0
 11 31  1  0
 12 32  1  0
 12 33  1  0
 15 34  1  0
 16 35  1  0
 17 36  1  0
 18 37  1  0
 21 38  1  0
 21 39  1  0
 22 40  1  0
 22 41  1  0
 23 42  1  0
M  END
>  <UniqueID>  (16) 
16

>  <SMILES>  (16) 
Cc1cc(F)c(F)c(CN2CCN(c3ccccc3F)CC2)c1

>  <Energy>  (16) 
56.24594881582388

>  <Genealogy>  (16) 
Cc1cc(F)c(F)c(CN2CCN(c3ccccc3F)CC2)c1 (3D coordinates assigned)
Cc1cc(F)c(F)c(CN2CCN(c3ccccc3F)CC2)c1 (nonaromatic ring conformer: 56.24594881582388 kcal/mol)

>  <smiles>  (16) 
Cc1cc(F)c(F)c(CN2CCN(c3ccccc3F)CC2)c1

>  <score_type>  (16) 
oracle

>  <origin>  (16) 
adg

>  <m_score__min__energy>  (16) 
-7.8399999999999999

>  <m_primary>  (16) 
energy

$$$$
16:0
     RDKit          3D

 42 44  0  0  0  0  0  0  0  0999 V2000
   -4.1460   19.7540  -33.4130 Cl  0  0  0  0  0  0  0  0  0  0  0  0
   -4.4750   18.0490  -33.6860 C   0  0  0  0  0  0  0  0  0  0  0  0
   -3.8510   17.4320  -34.7250 N   0  0  0  0  0  0  0  0  0  0  0  0
   -4.0490   16.1180  -35.0100 C   0  0  0  0  0  0  0  0  0  0  0  0
   -4.9160   15.3580  -34.2270 C   0  0  0  0  0  0  0  0  0  0  0  0
   -5.5710   15.9590  -33.1530 C   0  0  0  0  0  0  0  0  0  0  0  0
   -5.3600   17.3180  -32.8610 C   0  0  0  0  0  0  0  0  0  0  0  0
   -6.0710   17.9430  -31.7680 N   0  0  0  0  0  0  0  0  0  0  0  0
   -7.4890   18.1640  -32.1000 C   0  0  0  0  0  0  0  0  0  0  0  0
   -7.8580   19.6210  -32.0250 C   0  0  0  0  0  0  0  0  0  0  0  0
   -9.2010   20.0270  -32.0660 C   0  0  0  0  0  0  0  0  0  0  0  0
   -9.5100   21.3800  -31.9360 C   0  0  0  0  0  0  0  0  0  0  0  0
   -8.4890   22.3150  -31.7620 C   0  0  0  0  0  0  0  0  0  0  0  0
   -7.1580   21.8780  -31.7220 C   0  0  0  0  0  0  0  0  0  0  0  0
   -6.0390   22.8520  -31.4920 C   0  0  0  0  0  0  0  0  0  0  0  0
   -6.1970   23.5370  -30.1880 N   0  0  0  0  0  0  0  0  0  0  0  0
   -6.6010   24.9540  -30.3430 C   0  0  0  0  0  0  0  0  0  0  0  0
   -5.3970   25.9190  -30.3640 C   0  0  0  0  0  0  0  0  0  0  0  0
   -4.2340   25.2560  -30.8100 O   0  0  0  0  0  0  0  0  0  0  0  0
   -3.8270   24.2950  -29.8510 C   0  0  0  0  0  0  0  0  0  0  0  0
   -4.9950   23.4220  -29.3350 C   0  0  0  0  0  0  0  0  0  0  0  0
   -6.8800   20.5510  -31.8460 N   0  0  0  0  0  0  0  0  0  0  0  0
   -3.5249   15.6543  -35.8587 H   0  0  0  0  0  0  0  0  0  0  0  0
   -5.0818   14.2946  -34.4541 H   0  0  0  0  0  0  0  0  0  0  0  0
   -6.2571   15.3662  -32.5302 H   0  0  0  0  0  0  0  0  0  0  0  0
   -5.6280   18.8620  -31.5380 H   0  0  0  0  0  0  0  0  0  0  0  0
   -5.9990   17.3550  -30.9040 H   0  0  0  0  0  0  0  0  0  0  0  0
   -7.6767   17.8009  -33.1212 H   0  0  0  0  0  0  0  0  0  0  0  0
   -8.1016   17.6171  -31.3681 H   0  0  0  0  0  0  0  0  0  0  0  0
  -10.0018   19.2847  -32.1994 H   0  0  0  0  0  0  0  0  0  0  0  0
  -10.5586   21.7106  -31.9706 H   0  0  0  0  0  0  0  0  0  0  0  0
   -8.7263   23.3840  -31.6573 H   0  0  0  0  0  0  0  0  0  0  0  0
   -5.0818   22.3101  -31.5010 H   0  0  0  0  0  0  0  0  0  0  0  0
   -6.0592   23.6072  -32.2915 H   0  0  0  0  0  0  0  0  0  0  0  0
   -7.1538   25.0607  -31.2880 H   0  0  0  0  0  0  0  0  0  0  0  0
   -7.2229   25.2184  -29.4751 H   0  0  0  0  0  0  0  0  0  0  0  0
   -5.6175   26.7567  -31.0419 H   0  0  0  0  0  0  0  0  0  0  0  0
   -5.2231   26.2897  -29.3431 H   0  0  0  0  0  0  0  0  0  0  0  0
   -3.0750   23.6374  -30.3114 H   0  0  0  0  0  0  0  0  0  0  0  0
   -3.4208   24.8434  -28.9883 H   0  0  0  0  0  0  0  0  0  0  0  0
   -4.6713   22.3708  -29.3187 H   0  0  0  0  0  0  0  0  0  0  0  0
   -5.2608   23.7745  -28.3275 H   0  0  0  0  0  0  0  0  0  0  0  0
  1  2  1  0
  2  3  2  0
  3  4  1  0
  4  5  2  0
  5  6  1  0
  6  7  2  0
  7  8  1  0
  8  9  1  0
  9 10  1  0
 10 11  2  0
 11 12  1  0
 12 13  2  0
 13 14  1  0
 14 15  1  0
 15 16  1  0
 16 17  1  0
 17 18  1  0
 18 19  1  0
 19 20  1  0
 20 21  1  0
 14 22  2  0
  7  2  1  0
 22 10  1  0
 21 16  1  0
  4 23  1  0
  5 24  1  0
  6 25  1  0
  8 26  1  0
  8 27  1  0
  9 28  1  0
  9 29  1  0
 11 30  1  0
 12 31  1  0
 13 32  1  0
 15 33  1  0
 15 34  1  0
 17 35  1  0
 17 36  1  0
 18 37  1  0
 18 38  1  0
 20 39  1  0
 20 40  1  0
 21 41  1  0
 21 42  1  0
M  CHG  1   8   1
M  END
>  <UniqueID>  (17) 
17

>  <SMILES>  (17) 
Clc1ncccc1[NH2+]Cc1cccc(CN2CCOCC2)n1

>  <Energy>  (17) 
56.583195582929214

>  <Genealogy>  (17) 
Clc1ncccc1[NH2+]Cc1cccc(CN2CCOCC2)n1 (protonated)
Clc1ncccc1[NH2+]Cc1cccc(CN2CCOCC2)n1 (3D coordinates assigned)
Clc1ncccc1[NH2+]Cc1cccc(CN2CCOCC2)n1 (nonaromatic ring conformer: 56.583195582929214 kcal/mol)

>  <smiles>  (17) 
Clc1ncccc1NCc1cccc(CN2CCOCC2)n1

>  <score_type>  (17) 
oracle

>  <origin>  (17) 
adg

>  <m_score__min__energy>  (17) 
-7.6100000000000003

>  <m_primary>  (17) 
energy

$$$$
17:0
     RDKit          3D

 46 49  0  0  0  0  0  0  0  0999 V2000
   -5.5021   25.5010  -31.4428 H   0  0  0  0  0  0  0  0  0  0  0  0
   -5.6220   24.5490  -30.9050 C   0  0  0  0  0  0  0  0  0  0  0  0
   -4.3870   23.8060  -30.5480 C   0  0  0  0  0  0  0  0  0  0  0  0
   -3.6610   24.2090  -29.5990 O   0  0  0  0  0  0  0  0  0  0  0  0
   -3.9850   22.6340  -31.2850 N   0  0  0  0  0  0  0  0  0  0  0  0
   -4.2900   22.5100  -32.7170 C   0  0  0  0  0  0  0  0  0  0  0  0
   -5.2514   21.9885  -32.8343 H   0  0  0  0  0  0  0  0  0  0  0  0
   -4.3386   23.5203  -33.1493 H   0  0  0  0  0  0  0  0  0  0  0  0
   -3.2010   21.7210  -33.4550 C   0  0  0  0  0  0  0  0  0  0  0  0
   -3.5864   21.4461  -34.4479 H   0  0  0  0  0  0  0  0  0  0  0  0
   -2.3172   22.3737  -33.5084 H   0  0  0  0  0  0  0  0  0  0  0  0
   -2.7600   20.4340  -32.7340 C   0  0  0  0  0  0  0  0  0  0  0  0
   -1.7998   20.1449  -33.1862 H   0  0  0  0  0  0  0  0  0  0  0  0
   -3.6780   19.2580  -32.9880 C   0  0  0  0  0  0  0  0  0  0  0  0
   -5.3070   19.4300  -33.4290 S   0  0  0  0  0  0  0  0  0  0  0  0
   -5.5520   17.7730  -33.5190 C   0  0  0  0  0  0  0  0  0  0  0  0
   -6.7140   17.0790  -33.8450 C   0  0  0  0  0  0  0  0  0  0  0  0
   -7.6436   17.6140  -34.0891 H   0  0  0  0  0  0  0  0  0  0  0  0
   -6.6640   15.6750  -33.8530 C   0  0  0  0  0  0  0  0  0  0  0  0
   -7.5652   15.0968  -34.1050 H   0  0  0  0  0  0  0  0  0  0  0  0
   -5.4660   15.0040  -33.5400 C   0  0  0  0  0  0  0  0  0  0  0  0
   -5.4376   13.9044  -33.5499 H   0  0  0  0  0  0  0  0  0  0  0  0
   -4.3060   15.7290  -33.2150 C   0  0  0  0  0  0  0  0  0  0  0  0
   -3.3685   15.2078  -32.9711 H   0  0  0  0  0  0  0  0  0  0  0  0
   -4.3680   17.1260  -33.2080 C   0  0  0  0  0  0  0  0  0  0  0  0
   -3.3260   17.9460  -32.9150 N   0  0  0  0  0  0  0  0  0  0  0  0
   -2.3800   17.5900  -32.6680 H   0  0  0  0  0  0  0  0  0  0  0  0
   -2.4800   20.6730  -31.2400 C   0  0  0  0  0  0  0  0  0  0  0  0
   -2.3543   19.6974  -30.7476 H   0  0  0  0  0  0  0  0  0  0  0  0
   -1.5721   21.2904  -31.1727 H   0  0  0  0  0  0  0  0  0  0  0  0
   -3.6010   21.4350  -30.5300 C   0  0  0  0  0  0  0  0  0  0  0  0
   -4.4767   20.7766  -30.4315 H   0  0  0  0  0  0  0  0  0  0  0  0
   -3.2387   21.7469  -29.5393 H   0  0  0  0  0  0  0  0  0  0  0  0
   -6.8730   24.1520  -30.6240 C   0  0  0  0  0  0  0  0  0  0  0  0
   -7.4835   24.8157  -29.9940 H   0  0  0  0  0  0  0  0  0  0  0  0
   -7.4980   22.8970  -31.0910 C   0  0  0  0  0  0  0  0  0  0  0  0
   -8.7800   22.8920  -31.6710 C   0  0  0  0  0  0  0  0  0  0  0  0
   -9.3192   23.8395  -31.8174 H   0  0  0  0  0  0  0  0  0  0  0  0
   -9.3710   21.6860  -32.0620 C   0  0  0  0  0  0  0  0  0  0  0  0
  -10.3661   21.6888  -32.5308 H   0  0  0  0  0  0  0  0  0  0  0  0
   -8.6990   20.4770  -31.8580 C   0  0  0  0  0  0  0  0  0  0  0  0
   -9.4440   18.9660  -32.3460 Cl  0  0  0  0  0  0  0  0  0  0  0  0
   -7.4380   20.4730  -31.2510 C   0  0  0  0  0  0  0  0  0  0  0  0
   -6.9129   19.5214  -31.0814 H   0  0  0  0  0  0  0  0  0  0  0  0
   -6.8450   21.6770  -30.8600 C   0  0  0  0  0  0  0  0  0  0  0  0
   -5.8610   21.6678  -30.3685 H   0  0  0  0  0  0  0  0  0  0  0  0
  1  2  1  0
  2  3  1  0
  3  4  2  0
  3  5  1  0
  5  6  1  0
  6  7  1  0
  6  8  1  0
  6  9  1  0
  9 10  1  0
  9 11  1  0
  9 12  1  0
 12 13  1  0
 12 14  1  0
 14 15  1  0
 15 16  1  0
 16 17  2  0
 17 18  1  0
 17 19  1  0
 19 20  1  0
 19 21  2  0
 21 22  1  0
 21 23  1  0
 23 24  1  0
 23 25  2  0
 25 26  1  0
 26 27  1  0
 12 28  1  0
 28 29  1  0
 28 30  1  0
 28 31  1  0
 31 32  1  0
 31 33  1  0
  2 34  2  0
 34 35  1  0
 34 36  1  0
 36 37  2  0
 37 38  1  0
 37 39  1  0
 39 40  1  0
 39 41  2  0
 41 42  1  0
 41 43  1  0
 43 44  1  0
 43 45  2  0
 45 46  1  0
 31  5  1  0
 45 36  1  0
 26 14  2  0
 25 16  1  0
M  CHG  1  26   1
M  END
>  <UniqueID>  (18) 
18

>  <SMILES>  (18) 
O=C(/C=C\c1ccc(Cl)cc1)N1CCC(c2[nH+]c3ccccc3s2)CC1

>  <Energy>  (18) 
94.27086570544385

>  <Genealogy>  (18) 
O=C(C=Cc1ccc(Cl)cc1)N1CCC(c2[nH+]c3ccccc3s2)CC1 (protonated)
O=C(/C=C\c1ccc(Cl)cc1)N1CCC(c2[nH+]c3ccccc3s2)CC1 (cis-trans isomerization)
O=C(/C=C\c1ccc(Cl)cc1)N1CCC(c2[nH+]c3ccccc3s2)CC1 (3D coordinates assigned)
O=C(/C=C\c1ccc(Cl)cc1)N1CCC(c2[nH+]c3ccccc3s2)CC1 (nonaromatic ring conformer: 94.27086570544385 kcal/mol)

>  <smiles>  (18) 
O=C(C=Cc1ccc(Cl)cc1)N1CCC(c2nc3ccccc3s2)CC1

>  <score_type>  (18) 
oracle

>  <origin>  (18) 
adg

>  <m_score__min__energy>  (18) 
-9.9900000000000002

>  <m_primary>  (18) 
energy

$$$$
18:0
     RDKit          3D

 52 55  0  0  0  0  0  0  0  0999 V2000
   -2.2240   22.1270  -30.4610 C   0  0  0  0  0  0  0  0  0  0  0  0
   -3.6630   22.6690  -30.5090 C   0  0  0  0  0  0  0  0  0  0  0  0
   -3.7740   24.1350  -30.3120 N   0  0  0  0  0  0  0  0  0  0  0  0
   -3.5060   24.5490  -28.9160 C   0  0  0  0  0  0  0  0  0  0  0  0
   -2.0340   24.9090  -28.7320 C   0  0  0  0  0  0  0  0  0  0  0  0
   -5.0300   24.7060  -30.8530 C   0  0  0  0  0  0  0  0  0  0  0  0
   -6.0740   23.6060  -31.0880 C   0  0  0  0  0  0  0  0  0  0  0  0
   -5.9830   23.0650  -32.4460 N   0  0  0  0  0  0  0  0  0  0  0  0
   -5.8620   21.6540  -32.7100 C   0  0  0  0  0  0  0  0  0  0  0  0
   -6.9640   20.7700  -32.5790 C   0  0  0  0  0  0  0  0  0  0  0  0
   -8.1990   21.2200  -32.0660 C   0  0  0  0  0  0  0  0  0  0  0  0
   -9.2640   20.3390  -31.8970 C   0  0  0  0  0  0  0  0  0  0  0  0
   -9.1170   18.9930  -32.2090 C   0  0  0  0  0  0  0  0  0  0  0  0
   -7.9060   18.5120  -32.7070 C   0  0  0  0  0  0  0  0  0  0  0  0
   -6.8110   19.3820  -32.9290 C   0  0  0  0  0  0  0  0  0  0  0  0
   -5.6080   18.9180  -33.4420 N   0  0  0  0  0  0  0  0  0  0  0  0
   -5.4870   17.5860  -34.0620 C   0  0  0  0  0  0  0  0  0  0  0  0
   -4.5310   19.7650  -33.4190 C   0  0  0  0  0  0  0  0  0  0  0  0
   -4.6470   21.1000  -33.1020 C   0  0  0  0  0  0  0  0  0  0  0  0
   -3.4930   21.7210  -33.2350 O   0  0  0  0  0  0  0  0  0  0  0  0
   -2.6090   20.8190  -33.6000 C   0  0  0  0  0  0  0  0  0  0  0  0
   -1.2510   21.0280  -33.8260 C   0  0  0  0  0  0  0  0  0  0  0  0
   -0.4590   19.9170  -34.1580 C   0  0  0  0  0  0  0  0  0  0  0  0
   -1.0320   18.6310  -34.2390 C   0  0  0  0  0  0  0  0  0  0  0  0
   -2.4060   18.4410  -34.0090 C   0  0  0  0  0  0  0  0  0  0  0  0
   -3.1860   19.5690  -33.7210 C   0  0  0  0  0  0  0  0  0  0  0  0
   -1.9113   22.0092  -29.4130 H   0  0  0  0  0  0  0  0  0  0  0  0
   -2.1825   21.1516  -30.9679 H   0  0  0  0  0  0  0  0  0  0  0  0
   -1.5493   22.8326  -30.9679 H   0  0  0  0  0  0  0  0  0  0  0  0
   -4.0912   22.4208  -31.4913 H   0  0  0  0  0  0  0  0  0  0  0  0
   -4.2029   22.1989  -29.6738 H   0  0  0  0  0  0  0  0  0  0  0  0
   -4.1249   25.4257  -28.6744 H   0  0  0  0  0  0  0  0  0  0  0  0
   -3.7513   23.7118  -28.2460 H   0  0  0  0  0  0  0  0  0  0  0  0
   -1.8019   24.9658  -27.6583 H   0  0  0  0  0  0  0  0  0  0  0  0
   -1.4063   24.1379  -29.2026 H   0  0  0  0  0  0  0  0  0  0  0  0
   -1.8331   25.8828  -29.2026 H   0  0  0  0  0  0  0  0  0  0  0  0
   -5.4318   25.4368  -30.1358 H   0  0  0  0  0  0  0  0  0  0  0  0
   -4.8096   25.1930  -31.8144 H   0  0  0  0  0  0  0  0  0  0  0  0
   -5.9058   22.7928  -30.3666 H   0  0  0  0  0  0  0  0  0  0  0  0
   -7.0744   24.0439  -30.9558 H   0  0  0  0  0  0  0  0  0  0  0  0
   -6.0550   23.7190  -33.2550 H   0  0  0  0  0  0  0  0  0  0  0  0
   -8.3219   22.2793  -31.7964 H   0  0  0  0  0  0  0  0  0  0  0  0
  -10.2262   20.7104  -31.5147 H   0  0  0  0  0  0  0  0  0  0  0  0
   -9.9607   18.3025  -32.0624 H   0  0  0  0  0  0  0  0  0  0  0  0
   -7.8000   17.4402  -32.9307 H   0  0  0  0  0  0  0  0  0  0  0  0
   -5.4174   16.8203  -33.2753 H   0  0  0  0  0  0  0  0  0  0  0  0
   -6.3711   17.3906  -34.6867 H   0  0  0  0  0  0  0  0  0  0  0  0
   -4.5822   17.5531  -34.6867 H   0  0  0  0  0  0  0  0  0  0  0  0
   -0.8118   22.0334  -33.7468 H   0  0  0  0  0  0  0  0  0  0  0  0
    0.6147   20.0506  -34.3561 H   0  0  0  0  0  0  0  0  0  0  0  0
   -0.3970   17.7671  -34.4848 H   0  0  0  0  0  0  0  0  0  0  0  0
   -2.8549   17.4378  -34.0538 H   0  0  0  0  0  0  0  0  0  0  0  0
  1  2  1  0
  2  3  1  0
  3  4  1  0
  4  5  1  0
  3  6  1  0
  6  7  1  0
  7  8  1  0
  8  9  1  0
  9 10  2  0
 10 11  1  0
 11 12  2  0
 12 13  1  0
 13 14  2  0
 14 15  1  0
 15 16  2  0
 16 17  1  0
 16 18  1  0
 18 19  2  0
 19 20  1  0
 20 21  1  0
 21 22  2  0
 22 23  1  0
 23 24  2  0
 24 25  1  0
 25 26  2  0
 19  9  1  0
 26 21  1  0
 15 10  1  0
 26 18  1  0
  1 27  1  0
  1 28  1  0
  1 29  1  0
  2 30  1  0
  2 31  1  0
  4 32  1  0
  4 33  1  0
  5 34  1  0
  5 35  1  0
  5 36  1  0
  6 37  1  0
  6 38  1  0
  7 39  1  0
  7 40  1  0
  8 41  1  0
 11 42  1  0
 12 43  1  0
 13 44  1  0
 14 45  1  0
 17 46  1  0
 17 47  1  0
 17 48  1  0
 22 49  1  0
 23 50  1  0
 24 51  1  0
 25 52  1  0
M  CHG  1  16   1
M  END
>  <UniqueID>  (19) 
19

>  <SMILES>  (19) 
CCN(CC)CCNc1c2ccccc2[n+](C)c2c1oc1ccccc12

>  <Energy>  (19) 
115.82408879057635

>  <Genealogy>  (19) 
CCN(CC)CCNc1c2ccccc2[n+](C)c2c1oc1ccccc12 (3D coordinates assigned)
CCN(CC)CCNc1c2ccccc2[n+](C)c2c1oc1ccccc12 (optimized conformer: 115.82408879057635 kcal/mol)

>  <smiles>  (19) 
CCN(CC)CCNc1c2ccccc2[n+](C)c2c1oc1ccccc12

>  <score_type>  (19) 
oracle

>  <origin>  (19) 
adg

>  <m_score__min__energy>  (19) 
-8.5

>  <m_primary>  (19) 
energy

$$$$
19:0
     RDKit          3D

 40 41  0  0  0  0  0  0  0  0999 V2000
   -6.8530   17.0060  -33.1290 C   0  0  0  0  0  0  0  0  0  0  0  0
   -7.7480   18.0020  -32.6460 O   0  0  0  0  0  0  0  0  0  0  0  0
   -7.4290   19.3640  -32.5350 C   0  0  0  0  0  0  0  0  0  0  0  0
   -6.1520   19.8680  -32.8440 C   0  0  0  0  0  0  0  0  0  0  0  0
   -5.8780   21.2310  -32.6980 C   0  0  0  0  0  0  0  0  0  0  0  0
   -6.8720   22.1120  -32.2400 C   0  0  0  0  0  0  0  0  0  0  0  0
   -6.5730   23.5820  -32.0990 C   0  0  0  0  0  0  0  0  0  0  0  0
   -6.8880   24.0770  -30.7110 C   0  0  0  0  0  0  0  0  0  0  0  0
   -6.1450   24.9000  -30.0240 N   0  0  0  0  0  0  0  0  0  0  0  0
   -4.7410   24.8180  -29.7340 C   0  0  0  0  0  0  0  0  0  0  0  0
   -3.8730   25.2740  -30.5240 O   0  0  0  0  0  0  0  0  0  0  0  0
   -4.2960   24.1670  -28.4610 C   0  0  0  0  0  0  0  0  0  0  0  0
   -2.7720   23.9950  -28.4210 C   0  0  0  0  0  0  0  0  0  0  0  0
   -2.1470   24.9720  -27.5110 N   0  0  0  0  0  0  0  0  0  0  0  0
   -2.4610   24.9390  -26.1780 C   0  0  0  0  0  0  0  0  0  0  0  0
   -1.8780   25.8400  -25.2850 C   0  0  0  0  0  0  0  0  0  0  0  0
   -0.9600   26.7750  -25.7570 C   0  0  0  0  0  0  0  0  0  0  0  0
   -0.6370   26.8020  -27.1110 C   0  0  0  0  0  0  0  0  0  0  0  0
   -1.2410   25.8910  -27.9850 C   0  0  0  0  0  0  0  0  0  0  0  0
   -0.9420   25.9290  -29.2090 O   0  0  0  0  0  0  0  0  0  0  0  0
   -8.1530   21.6110  -31.9610 C   0  0  0  0  0  0  0  0  0  0  0  0
   -8.4240   20.2460  -32.0990 C   0  0  0  0  0  0  0  0  0  0  0  0
   -6.3873   16.4877  -32.2778 H   0  0  0  0  0  0  0  0  0  0  0  0
   -7.4081   16.2800  -33.7412 H   0  0  0  0  0  0  0  0  0  0  0  0
   -6.0720   17.4806  -33.7412 H   0  0  0  0  0  0  0  0  0  0  0  0
   -5.3661   19.1866  -33.2019 H   0  0  0  0  0  0  0  0  0  0  0  0
   -4.8774   21.6164  -32.9434 H   0  0  0  0  0  0  0  0  0  0  0  0
   -5.5060   23.7515  -32.3058 H   0  0  0  0  0  0  0  0  0  0  0  0
   -7.2018   24.1331  -32.8138 H   0  0  0  0  0  0  0  0  0  0  0  0
   -7.8152   23.7168  -30.2414 H   0  0  0  0  0  0  0  0  0  0  0  0
   -4.6076   24.7926  -27.6116 H   0  0  0  0  0  0  0  0  0  0  0  0
   -4.7577   23.1703  -28.4030 H   0  0  0  0  0  0  0  0  0  0  0  0
   -2.5350   22.9787  -28.0733 H   0  0  0  0  0  0  0  0  0  0  0  0
   -2.3768   24.1615  -29.4340 H   0  0  0  0  0  0  0  0  0  0  0  0
   -3.1805   24.1943  -25.8071 H   0  0  0  0  0  0  0  0  0  0  0  0
   -2.1415   25.8117  -24.2174 H   0  0  0  0  0  0  0  0  0  0  0  0
   -0.4922   27.4889  -25.0631 H   0  0  0  0  0  0  0  0  0  0  0  0
    0.0890   27.5354  -27.4918 H   0  0  0  0  0  0  0  0  0  0  0  0
   -8.9484   22.2959  -31.6319 H   0  0  0  0  0  0  0  0  0  0  0  0
   -9.4276   19.8625  -31.8629 H   0  0  0  0  0  0  0  0  0  0  0  0
  1  2  1  0
  2  3  1  0
  3  4  2  0
  4  5  1  0
  5  6  2  0
  6  7  1  0
  7  8  1  0
  8  9  2  3
  9 10  1  0
 10 11  2  0
 10 12  1  0
 12 13  1  0
 13 14  1  0
 14 15  1  0
 15 16  2  0
 16 17  1  0
 17 18  2  0
 18 19  1  0
 19 20  2  0
  6 21  1  0
 21 22  2  0
 22  3  1  0
 19 14  1  0
  1 23  1  0
  1 24  1  0
  1 25  1  0
  4 26  1  0
  5 27  1  0
  7 28  1  0
  7 29  1  0
  8 30  1  0
 12 31  1  0
 12 32  1  0
 13 33  1  0
 13 34  1  0
 15 35  1  0
 16 36  1  0
 17 37  1  0
 18 38  1  0
 21 39  1  0
 22 40  1  0
M  END
>  <UniqueID>  (20) 
20

>  <SMILES>  (20) 
COc1ccc(CC=NC(=O)CCn2ccccc2=O)cc1

>  <Energy>  (20) 
37.959791179878025

>  <Genealogy>  (20) 
COc1ccc(CC=NC(=O)CCn2ccccc2=O)cc1 (3D coordinates assigned)
COc1ccc(CC=NC(=O)CCn2ccccc2=O)cc1 (optimized conformer: 37.959791179878025 kcal/mol)

>  <smiles>  (20) 
COc1ccc(CC=NC(=O)CCn2ccccc2=O)cc1

>  <score_type>  (20) 
oracle

>  <origin>  (20) 
adg

>  <m_score__min__energy>  (20) 
-8.0899999999999999

>  <m_primary>  (20) 
energy

$$$$
20:0
     RDKit          3D

 36 38  0  0  0  0  0  0  0  0999 V2000
   -4.9090   24.1670  -28.7360 O   0  0  0  0  0  0  0  0  0  0  0  0
   -4.1810   24.4320  -29.7300 C   0  0  0  0  0  0  0  0  0  0  0  0
   -2.7230   24.1060  -29.6910 C   0  0  0  0  0  0  0  0  0  0  0  0
   -1.9370   25.2800  -29.3180 N   0  0  0  0  0  0  0  0  0  0  0  0
   -0.8650   25.3250  -28.3630 C   0  0  0  0  0  0  0  0  0  0  0  0
    0.1700   24.6450  -28.5910 O   0  0  0  0  0  0  0  0  0  0  0  0
   -0.9140   26.1630  -27.1470 C   0  0  0  0  0  0  0  0  0  0  0  0
   -0.4350   27.4830  -27.1550 C   0  0  0  0  0  0  0  0  0  0  0  0
   -0.5000   28.2640  -25.9960 C   0  0  0  0  0  0  0  0  0  0  0  0
   -1.0650   27.7420  -24.8300 C   0  0  0  0  0  0  0  0  0  0  0  0
   -1.5800   26.4440  -24.8250 C   0  0  0  0  0  0  0  0  0  0  0  0
   -1.5100   25.6570  -25.9790 C   0  0  0  0  0  0  0  0  0  0  0  0
   -4.7240   25.0140  -30.8810 O   0  0  0  0  0  0  0  0  0  0  0  0
   -6.1140   24.9760  -31.1950 C   0  0  0  0  0  0  0  0  0  0  0  0
   -6.5360   23.5800  -31.5220 C   0  0  0  0  0  0  0  0  0  0  0  0
   -7.8060   23.1310  -31.3650 N   0  0  0  0  0  0  0  0  0  0  0  0
   -7.9200   21.8460  -31.7850 C   0  0  0  0  0  0  0  0  0  0  0  0
   -9.1040   21.1070  -31.7520 C   0  0  0  0  0  0  0  0  0  0  0  0
   -9.0890   19.7840  -32.2270 C   0  0  0  0  0  0  0  0  0  0  0  0
   -7.8980   19.2200  -32.7300 C   0  0  0  0  0  0  0  0  0  0  0  0
   -6.7140   19.9740  -32.7620 C   0  0  0  0  0  0  0  0  0  0  0  0
   -6.7550   21.2800  -32.2810 C   0  0  0  0  0  0  0  0  0  0  0  0
   -5.5180   22.4110  -32.2060 S   0  0  0  0  0  0  0  0  0  0  0  0
   -2.5517   23.3084  -28.9531 H   0  0  0  0  0  0  0  0  0  0  0  0
   -2.4093   23.7761  -30.6924 H   0  0  0  0  0  0  0  0  0  0  0  0
   -0.0069   27.9047  -28.0763 H   0  0  0  0  0  0  0  0  0  0  0  0
   -0.1055   29.2908  -26.0030 H   0  0  0  0  0  0  0  0  0  0  0  0
   -1.1042   28.3531  -23.9162 H   0  0  0  0  0  0  0  0  0  0  0  0
   -2.0415   26.0399  -23.9119 H   0  0  0  0  0  0  0  0  0  0  0  0
   -1.9232   24.6376  -25.9725 H   0  0  0  0  0  0  0  0  0  0  0  0
   -6.6909   25.3360  -30.3304 H   0  0  0  0  0  0  0  0  0  0  0  0
   -6.3005   25.6190  -32.0678 H   0  0  0  0  0  0  0  0  0  0  0  0
  -10.0313   21.5517  -31.3616 H   0  0  0  0  0  0  0  0  0  0  0  0
  -10.0114   19.1851  -32.2063 H   0  0  0  0  0  0  0  0  0  0  0  0
   -7.8968   18.1838  -33.0992 H   0  0  0  0  0  0  0  0  0  0  0  0
   -5.7807   19.5452  -33.1558 H   0  0  0  0  0  0  0  0  0  0  0  0
  1  2  2  0
  2  3  1  0
  3  4  1  0
  4  5  1  0
  5  6  2  0
  5  7  1  0
  7  8  2  0
  8  9  1  0
  9 10  2  0
 10 11  1  0
 11 12  2  0
  2 13  1  0
 13 14  1  0
 14 15  1  0
 15 16  2  0
 16 17  1  0
 17 18  2  0
 18 19  1  0
 19 20  2  0
 20 21  1  0
 21 22  2  0
 22 23  1  0
 12  7  1  0
 23 15  1  0
 22 17  1  0
  3 24  1  0
  3 25  1  0
  8 26  1  0
  9 27  1  0
 10 28  1  0
 11 29  1  0
 12 30  1  0
 14 31  1  0
 14 32  1  0
 18 33  1  0
 19 34  1  0
 20 35  1  0
 21 36  1  0
M  CHG  1   4  -1
M  END
>  <UniqueID>  (21) 
21

>  <SMILES>  (21) 
O=C(C[N-]C(=O)c1ccccc1)OCc1nc2ccccc2s1

>  <Energy>  (21) 
68.55571812395237

>  <Genealogy>  (21) 
O=C(C[N-]C(=O)c1ccccc1)OCc1nc2ccccc2s1 (protonated)
O=C(C[N-]C(=O)c1ccccc1)OCc1nc2ccccc2s1 (3D coordinates assigned)
O=C(C[N-]C(=O)c1ccccc1)OCc1nc2ccccc2s1 (optimized conformer: 68.55571812395237 kcal/mol)

>  <smiles>  (21) 
O=C(CNC(=O)c1ccccc1)OCc1nc2ccccc2s1

>  <score_type>  (21) 
oracle

>  <origin>  (21) 
adg

>  <m_score__min__energy>  (21) 
-10.66

>  <m_primary>  (21) 
energy

$$$$
21:0
     RDKit          3D

 35 36  0  0  0  0  0  0  0  0999 V2000
   -3.4240   19.1560  -33.1110 C   0  0  0  0  0  0  0  0  0  0  0  0
   -2.5690   20.3470  -33.5390 C   0  0  0  0  0  0  0  0  0  0  0  0
   -3.0130   21.6690  -32.8870 C   0  0  0  0  0  0  0  0  0  0  0  0
   -4.2750   22.1970  -33.4450 N   0  0  0  0  0  0  0  0  0  0  0  0
   -5.2220   22.5120  -32.4130 C   0  0  0  0  0  0  0  0  0  0  0  0
   -6.4330   21.9930  -31.9630 C   0  0  0  0  0  0  0  0  0  0  0  0
   -7.3010   20.9040  -32.3230 N   0  0  0  0  0  0  0  0  0  0  0  0
   -6.8280   19.7860  -33.1470 C   0  0  0  0  0  0  0  0  0  0  0  0
   -7.2760   18.4420  -32.5500 C   0  0  0  0  0  0  0  0  0  0  0  0
   -8.6940   18.4780  -31.9390 C   0  0  0  0  0  0  0  0  0  0  0  0
   -9.4880   19.7220  -32.3530 C   0  0  0  0  0  0  0  0  0  0  0  0
   -8.7230   20.9930  -31.9630 C   0  0  0  0  0  0  0  0  0  0  0  0
   -6.4670   22.9580  -30.9720 C   0  0  0  0  0  0  0  0  0  0  0  0
   -7.2560   23.2410  -30.0330 O   0  0  0  0  0  0  0  0  0  0  0  0
   -5.2890   23.4960  -31.4440 C   0  0  0  0  0  0  0  0  0  0  0  0
   -4.5670   24.4730  -31.1160 O   0  0  0  0  0  0  0  0  0  0  0  0
   -3.4598   19.1062  -32.0127 H   0  0  0  0  0  0  0  0  0  0  0  0
   -4.4436   19.2758  -33.5060 H   0  0  0  0  0  0  0  0  0  0  0  0
   -2.9844   18.2283  -33.5060 H   0  0  0  0  0  0  0  0  0  0  0  0
   -1.5248   20.1492  -33.2554 H   0  0  0  0  0  0  0  0  0  0  0  0
   -2.6834   20.4611  -34.6271 H   0  0  0  0  0  0  0  0  0  0  0  0
   -3.1515   21.4982  -31.8092 H   0  0  0  0  0  0  0  0  0  0  0  0
   -2.2288   22.4134  -33.0895 H   0  0  0  0  0  0  0  0  0  0  0  0
   -4.1010   23.0520  -34.0230 H   0  0  0  0  0  0  0  0  0  0  0  0
   -4.7090   21.4820  -34.0730 H   0  0  0  0  0  0  0  0  0  0  0  0
   -7.2407   19.8857  -34.1617 H   0  0  0  0  0  0  0  0  0  0  0  0
   -5.7287   19.8100  -33.1775 H   0  0  0  0  0  0  0  0  0  0  0  0
   -7.2603   17.6848  -33.3477 H   0  0  0  0  0  0  0  0  0  0  0  0
   -6.5790   18.2040  -31.7330 H   0  0  0  0  0  0  0  0  0  0  0  0
   -9.2426   17.5843  -32.2712 H   0  0  0  0  0  0  0  0  0  0  0  0
   -8.5825   18.5053  -30.8450 H   0  0  0  0  0  0  0  0  0  0  0  0
   -9.6407   19.7097  -33.4423 H   0  0  0  0  0  0  0  0  0  0  0  0
  -10.4596   19.7156  -31.8374 H   0  0  0  0  0  0  0  0  0  0  0  0
   -9.1697   21.8521  -32.4849 H   0  0  0  0  0  0  0  0  0  0  0  0
   -8.7934   21.1142  -30.8720 H   0  0  0  0  0  0  0  0  0  0  0  0
  1  2  1  0
  2  3  1  0
  3  4  1  0
  4  5  1  0
  5  6  2  0
  6  7  1  0
  7  8  1  0
  8  9  1  0
  9 10  1  0
 10 11  1  0
 11 12  1  0
  6 13  1  0
 13 14  2  0
 13 15  1  0
 15 16  2  0
 15  5  1  0
 12  7  1  0
  1 17  1  0
  1 18  1  0
  1 19  1  0
  2 20  1  0
  2 21  1  0
  3 22  1  0
  3 23  1  0
  4 24  1  0
  4 25  1  0
  8 26  1  0
  8 27  1  0
  9 28  1  0
  9 29  1  0
 10 30  1  0
 10 31  1  0
 11 32  1  0
 11 33  1  0
 12 34  1  0
 12 35  1  0
M  CHG  1   4   1
M  END
>  <UniqueID>  (22) 
22

>  <SMILES>  (22) 
CCC[NH2+]c1c(N2CCCCC2)c(=O)c1=O

>  <Energy>  (22) 
22.031671356273538

>  <Genealogy>  (22) 
CCC[NH2+]c1c(N2CCCCC2)c(=O)c1=O (protonated)
CCC[NH2+]c1c(N2CCCCC2)c(=O)c1=O (3D coordinates assigned)
CCC[NH2+]c1c(N2CCCCC2)c(=O)c1=O (nonaromatic ring conformer: 22.031671356273538 kcal/mol)

>  <smiles>  (22) 
CCCNc1c(N2CCCCC2)c(=O)c1=O

>  <score_type>  (22) 
oracle

>  <origin>  (22) 
adg

>  <m_score__min__energy>  (22) 
-6.1299999999999999

>  <m_primary>  (22) 
energy

$$$$
22:0
     RDKit          3D

 49 50  0  0  0  0  0  0  0  0999 V2000
   -0.8620   20.7320  -28.7220 C   0  0  0  0  0  0  0  0  0  0  0  0
   -2.1050   21.1490  -28.0500 N   0  0  0  0  0  0  0  0  0  0  0  0
   -2.7210   19.9860  -27.3930 C   0  0  0  0  0  0  0  0  0  0  0  0
   -1.8470   22.2230  -27.0650 C   0  0  0  0  0  0  0  0  0  0  0  0
   -1.1080   23.4140  -27.6990 C   0  0  0  0  0  0  0  0  0  0  0  0
   -2.0250   24.2830  -28.5780 C   0  0  0  0  0  0  0  0  0  0  0  0
   -2.6800   23.4890  -29.6180 N   0  0  0  0  0  0  0  0  0  0  0  0
   -3.6880   24.0550  -30.4720 C   0  0  0  0  0  0  0  0  0  0  0  0
   -3.8690   25.3040  -30.4680 O   0  0  0  0  0  0  0  0  0  0  0  0
   -4.5090   23.2140  -31.3120 N   0  0  0  0  0  0  0  0  0  0  0  0
   -4.0970   21.8280  -31.5950 C   0  0  0  0  0  0  0  0  0  0  0  0
   -4.9090   21.1650  -32.7250 C   0  0  0  0  0  0  0  0  0  0  0  0
   -6.4290   21.4750  -32.7180 C   0  0  0  0  0  0  0  0  0  0  0  0
   -7.2760   20.2940  -32.4410 N   0  0  0  0  0  0  0  0  0  0  0  0
   -8.3630   20.3600  -31.6400 C   0  0  0  0  0  0  0  0  0  0  0  0
   -8.9570   19.1250  -31.5180 C   0  0  0  0  0  0  0  0  0  0  0  0
   -8.2040   18.2540  -32.2680 C   0  0  0  0  0  0  0  0  0  0  0  0
   -7.1640   18.9860  -32.8180 C   0  0  0  0  0  0  0  0  0  0  0  0
   -6.1440   18.3760  -33.7510 C   0  0  0  0  0  0  0  0  0  0  0  0
   -6.0090   19.1570  -34.8850 F   0  0  0  0  0  0  0  0  0  0  0  0
   -6.5320   17.1190  -34.1600 F   0  0  0  0  0  0  0  0  0  0  0  0
   -4.9130   18.3130  -33.1300 F   0  0  0  0  0  0  0  0  0  0  0  0
   -6.8400   22.6840  -31.8640 C   0  0  0  0  0  0  0  0  0  0  0  0
   -5.7510   23.7520  -31.8860 C   0  0  0  0  0  0  0  0  0  0  0  0
   -0.1042   20.4778  -27.9663 H   0  0  0  0  0  0  0  0  0  0  0  0
   -1.0625   19.8519  -29.3507 H   0  0  0  0  0  0  0  0  0  0  0  0
   -0.4912   21.5550  -29.3507 H   0  0  0  0  0  0  0  0  0  0  0  0
   -2.6577   20.1054  -26.3013 H   0  0  0  0  0  0  0  0  0  0  0  0
   -3.7766   19.9118  -27.6932 H   0  0  0  0  0  0  0  0  0  0  0  0
   -2.1893   19.0710  -27.6932 H   0  0  0  0  0  0  0  0  0  0  0  0
   -2.8081   22.5743  -26.6613 H   0  0  0  0  0  0  0  0  0  0  0  0
   -1.2106   21.8106  -26.2682 H   0  0  0  0  0  0  0  0  0  0  0  0
   -0.6950   24.0404  -26.8946 H   0  0  0  0  0  0  0  0  0  0  0  0
   -0.3163   23.0075  -28.3455 H   0  0  0  0  0  0  0  0  0  0  0  0
   -2.7951   24.7456  -27.9432 H   0  0  0  0  0  0  0  0  0  0  0  0
   -1.4078   25.0509  -29.0672 H   0  0  0  0  0  0  0  0  0  0  0  0
   -2.4240   22.4830  -29.7170 H   0  0  0  0  0  0  0  0  0  0  0  0
   -3.0359   21.8322  -31.8848 H   0  0  0  0  0  0  0  0  0  0  0  0
   -4.2768   21.2434  -30.6807 H   0  0  0  0  0  0  0  0  0  0  0  0
   -4.4967   21.5071  -33.6857 H   0  0  0  0  0  0  0  0  0  0  0  0
   -4.8188   20.0799  -32.5685 H   0  0  0  0  0  0  0  0  0  0  0  0
   -6.6259   21.7724  -33.7586 H   0  0  0  0  0  0  0  0  0  0  0  0
   -8.7239   21.2773  -31.1517 H   0  0  0  0  0  0  0  0  0  0  0  0
   -9.8576   18.8825  -30.9348 H   0  0  0  0  0  0  0  0  0  0  0  0
   -8.3914   17.1789  -32.4057 H   0  0  0  0  0  0  0  0  0  0  0  0
   -7.7719   23.1096  -32.2647 H   0  0  0  0  0  0  0  0  0  0  0  0
   -6.9891   22.3509  -30.8263 H   0  0  0  0  0  0  0  0  0  0  0  0
   -5.5673   24.0639  -32.9247 H   0  0  0  0  0  0  0  0  0  0  0  0
   -6.0800   24.6162  -31.2902 H   0  0  0  0  0  0  0  0  0  0  0  0
  1  2  1  0
  2  3  1  0
  2  4  1  0
  4  5  1  0
  5  6  1  0
  6  7  1  0
  7  8  1  0
  8  9  2  0
  8 10  1  0
 10 11  1  0
 11 12  1  0
 12 13  1  0
 13 14  1  0
 14 15  1  0
 15 16  2  0
 16 17  1  0
 17 18  2  0
 18 19  1  0
 19 20  1  0
 19 21  1  0
 19 22  1  0
 13 23  1  0
 23 24  1  0
 24 10  1  0
 18 14  1  0
  1 25  1  0
  1 26  1  0
  1 27  1  0
  3 28  1  0
  3 29  1  0
  3 30  1  0
  4 31  1  0
  4 32  1  0
  5 33  1  0
  5 34  1  0
  6 35  1  0
  6 36  1  0
  7 37  1  0
 11 38  1  0
 11 39  1  0
 12 40  1  0
 12 41  1  0
 13 42  1  0
 15 43  1  0
 16 44  1  0
 17 45  1  0
 23 46  1  0
 23 47  1  0
 24 48  1  0
 24 49  1  0
M  END
>  <UniqueID>  (23) 
23

>  <SMILES>  (23) 
CN(C)CCCNC(=O)N1CCC(n2cccc2C(F)(F)F)CC1

>  <Energy>  (23) 
77.8719488327498

>  <Genealogy>  (23) 
CN(C)CCCNC(=O)N1CCC(n2cccc2C(F)(F)F)CC1 (3D coordinates assigned)
CN(C)CCCNC(=O)N1CCC(n2cccc2C(F)(F)F)CC1 (nonaromatic ring conformer: 77.8719488327498 kcal/mol)

>  <smiles>  (23) 
CN(C)CCCNC(=O)N1CCC(n2cccc2C(F)(F)F)CC1

>  <score_type>  (23) 
oracle

>  <origin>  (23) 
adg

>  <m_score__min__energy>  (23) 
-7.1699999999999999

>  <m_primary>  (23) 
energy

$$$$
23:0
     RDKit          3D

 41 43  0  0  0  0  0  0  0  0999 V2000
   -2.3900   22.2200  -27.4650 C   0  0  0  0  0  0  0  0  0  0  0  0
   -2.0250   23.5790  -27.9700 C   0  0  0  0  0  0  0  0  0  0  0  0
   -1.9320   24.6680  -27.1880 N   0  0  0  0  0  0  0  0  0  0  0  0
   -1.6480   25.6650  -28.0530 C   0  0  0  0  0  0  0  0  0  0  0  0
   -1.5730   25.2640  -29.3410 N   0  0  0  0  0  0  0  0  0  0  0  0
   -1.8180   23.9430  -29.2820 C   0  0  0  0  0  0  0  0  0  0  0  0
   -1.8580   23.0470  -30.4850 C   0  0  0  0  0  0  0  0  0  0  0  0
   -3.2240   22.5260  -30.6940 N   0  0  0  0  0  0  0  0  0  0  0  0
   -4.2320   23.5890  -30.5270 C   0  0  0  0  0  0  0  0  0  0  0  0
   -5.6160   22.9580  -30.3590 C   0  0  0  0  0  0  0  0  0  0  0  0
   -5.7850   21.6760  -31.2140 C   0  0  0  0  0  0  0  0  0  0  0  0
   -7.2290   21.3920  -31.6390 C   0  0  0  0  0  0  0  0  0  0  0  0
   -8.1200   22.4840  -31.5680 C   0  0  0  0  0  0  0  0  0  0  0  0
   -9.4560   22.3360  -31.9190 C   0  0  0  0  0  0  0  0  0  0  0  0
   -9.9200   21.1370  -32.3380 N   0  0  0  0  0  0  0  0  0  0  0  0
   -9.1150   20.0490  -32.4120 C   0  0  0  0  0  0  0  0  0  0  0  0
   -7.7550   20.1150  -32.0420 C   0  0  0  0  0  0  0  0  0  0  0  0
   -6.9630   18.8260  -32.2250 C   0  0  0  0  0  0  0  0  0  0  0  0
   -6.0460   18.5860  -31.2280 F   0  0  0  0  0  0  0  0  0  0  0  0
   -7.8250   17.7420  -32.2430 F   0  0  0  0  0  0  0  0  0  0  0  0
   -6.3000   18.8740  -33.4370 F   0  0  0  0  0  0  0  0  0  0  0  0
   -4.7950   21.5240  -32.3940 C   0  0  0  0  0  0  0  0  0  0  0  0
   -3.3430   21.9200  -32.0360 C   0  0  0  0  0  0  0  0  0  0  0  0
   -2.3887   22.2250  -26.3650 H   0  0  0  0  0  0  0  0  0  0  0  0
   -3.3924   21.9505  -27.8292 H   0  0  0  0  0  0  0  0  0  0  0  0
   -1.6575   21.4846  -27.8292 H   0  0  0  0  0  0  0  0  0  0  0  0
   -1.4921   26.7074  -27.7382 H   0  0  0  0  0  0  0  0  0  0  0  0
   -1.5482   23.6180  -31.3727 H   0  0  0  0  0  0  0  0  0  0  0  0
   -1.1744   22.2007  -30.3223 H   0  0  0  0  0  0  0  0  0  0  0  0
   -3.9907   24.1863  -29.6354 H   0  0  0  0  0  0  0  0  0  0  0  0
   -4.2305   24.2384  -31.4149 H   0  0  0  0  0  0  0  0  0  0  0  0
   -5.7604   22.6986  -29.2998 H   0  0  0  0  0  0  0  0  0  0  0  0
   -6.3635   23.6902  -30.6984 H   0  0  0  0  0  0  0  0  0  0  0  0
   -5.5026   20.8852  -30.5034 H   0  0  0  0  0  0  0  0  0  0  0  0
   -7.7522   23.4643  -31.2306 H   0  0  0  0  0  0  0  0  0  0  0  0
  -10.1383   23.1965  -31.8559 H   0  0  0  0  0  0  0  0  0  0  0  0
   -9.5306   19.0947  -32.7679 H   0  0  0  0  0  0  0  0  0  0  0  0
   -4.7993   20.4731  -32.7189 H   0  0  0  0  0  0  0  0  0  0  0  0
   -5.1304   22.2074  -33.1880 H   0  0  0  0  0  0  0  0  0  0  0  0
   -2.7150   21.0175  -32.0700 H   0  0  0  0  0  0  0  0  0  0  0  0
   -3.0179   22.6744  -32.7676 H   0  0  0  0  0  0  0  0  0  0  0  0
  1  2  1  0
  2  3  1  0
  3  4  2  0
  4  5  1  0
  5  6  1  0
  6  7  1  0
  7  8  1  0
  8  9  1  0
  9 10  1  0
 10 11  1  0
 11 12  1  0
 12 13  2  0
 13 14  1  0
 14 15  2  0
 15 16  1  0
 16 17  2  0
 17 18  1  0
 18 19  1  0
 18 20  1  0
 18 21  1  0
 11 22  1  0
 22 23  1  0
  6  2  2  0
 23  8  1  0
 17 12  1  0
  1 24  1  0
  1 25  1  0
  1 26  1  0
  4 27  1  0
  7 28  1  0
  7 29  1  0
  9 30  1  0
  9 31  1  0
 10 32  1  0
 10 33  1  0
 11 34  1  0
 13 35  1  0
 14 36  1  0
 16 37  1  0
 22 38  1  0
 22 39  1  0
 23 40  1  0
 23 41  1  0
M  CHG  1   5  -1
M  END
>  <UniqueID>  (24) 
24

>  <SMILES>  (24) 
Cc1nc[n-]c1CN1CCC(c2ccncc2C(F)(F)F)CC1

>  <Energy>  (24) 
88.52591100514861

>  <Genealogy>  (24) 
Cc1nc[n-]c1CN1CCC(c2ccncc2C(F)(F)F)CC1 (protonated)
Cc1nc[n-]c1CN1CCC(c2ccncc2C(F)(F)F)CC1 (3D coordinates assigned)
Cc1nc[n-]c1CN1CCC(c2ccncc2C(F)(F)F)CC1 (nonaromatic ring conformer: 88.52591100514861 kcal/mol)

>  <smiles>  (24) 
Cc1nc[nH]c1CN1CCC(c2ccncc2C(F)(F)F)CC1

>  <score_type>  (24) 
oracle

>  <origin>  (24) 
adg

>  <m_score__min__energy>  (24) 
-8.1400000000000006

>  <m_primary>  (24) 
energy

$$$$
24:0
     RDKit          3D

 47 50  0  0  0  0  0  0  0  0999 V2000
   -9.8600   21.5610  -30.8470 C   0  0  0  0  0  0  0  0  0  0  0  0
   -8.9430   21.5530  -31.9360 O   0  0  0  0  0  0  0  0  0  0  0  0
   -7.6870   22.1760  -31.9190 C   0  0  0  0  0  0  0  0  0  0  0  0
   -7.5150   23.5210  -31.5200 C   0  0  0  0  0  0  0  0  0  0  0  0
   -6.2430   24.1190  -31.5430 C   0  0  0  0  0  0  0  0  0  0  0  0
   -5.1380   23.3770  -31.9700 C   0  0  0  0  0  0  0  0  0  0  0  0
   -5.3350   22.0860  -32.3430 N   0  0  0  0  0  0  0  0  0  0  0  0
   -6.5390   21.4720  -32.3230 C   0  0  0  0  0  0  0  0  0  0  0  0
   -6.4120   20.1410  -32.7520 C   0  0  0  0  0  0  0  0  0  0  0  0
   -7.4900   19.1000  -32.8270 C   0  0  0  0  0  0  0  0  0  0  0  0
   -5.0620   19.9960  -33.0810 C   0  0  0  0  0  0  0  0  0  0  0  0
   -4.2960   18.9440  -33.5970 C   0  0  0  0  0  0  0  0  0  0  0  0
   -4.8900   17.7070  -34.0160 N   0  0  0  0  0  0  0  0  0  0  0  0
   -4.6010   17.1720  -35.3480 C   0  0  0  0  0  0  0  0  0  0  0  0
   -3.8230   15.8630  -35.1920 C   0  0  0  0  0  0  0  0  0  0  0  0
   -4.5250   14.9590  -34.3550 O   0  0  0  0  0  0  0  0  0  0  0  0
   -4.6250   15.4850  -33.0420 C   0  0  0  0  0  0  0  0  0  0  0  0
   -5.4480   16.7800  -33.0320 C   0  0  0  0  0  0  0  0  0  0  0  0
   -2.9520   19.1500  -33.7580 N   0  0  0  0  0  0  0  0  0  0  0  0
   -2.3690   20.3510  -33.4470 C   0  0  0  0  0  0  0  0  0  0  0  0
   -0.6470   20.5770  -33.6760 S   0  0  0  0  0  0  0  0  0  0  0  0
    0.2200   20.6110  -32.1240 C   0  0  0  0  0  0  0  0  0  0  0  0
   -0.3380   21.9560  -34.5880 O   0  0  0  0  0  0  0  0  0  0  0  0
   -3.1220   21.3830  -32.9680 N   0  0  0  0  0  0  0  0  0  0  0  0
   -4.4500   21.1870  -32.7960 C   0  0  0  0  0  0  0  0  0  0  0  0
   -9.3029   21.5561  -29.8985 H   0  0  0  0  0  0  0  0  0  0  0  0
  -10.4850   22.4646  -30.9005 H   0  0  0  0  0  0  0  0  0  0  0  0
  -10.5006   20.6684  -30.9005 H   0  0  0  0  0  0  0  0  0  0  0  0
   -8.3855   24.1059  -31.1881 H   0  0  0  0  0  0  0  0  0  0  0  0
   -6.1179   25.1651  -31.2267 H   0  0  0  0  0  0  0  0  0  0  0  0
   -4.1348   23.8271  -32.0031 H   0  0  0  0  0  0  0  0  0  0  0  0
   -7.7907   18.8096  -31.8095 H   0  0  0  0  0  0  0  0  0  0  0  0
   -8.3587   19.5097  -33.3632 H   0  0  0  0  0  0  0  0  0  0  0  0
   -7.1109   18.2175  -33.3632 H   0  0  0  0  0  0  0  0  0  0  0  0
   -5.5431   16.9813  -35.8829 H   0  0  0  0  0  0  0  0  0  0  0  0
   -4.0048   17.8966  -35.9221 H   0  0  0  0  0  0  0  0  0  0  0  0
   -3.6848   15.4049  -36.1825 H   0  0  0  0  0  0  0  0  0  0  0  0
   -2.8476   16.0840  -34.7341 H   0  0  0  0  0  0  0  0  0  0  0  0
   -5.1132   14.7430  -32.3930 H   0  0  0  0  0  0  0  0  0  0  0  0
   -3.6125   15.7093  -32.6753 H   0  0  0  0  0  0  0  0  0  0  0  0
   -6.4934   16.5545  -33.2893 H   0  0  0  0  0  0  0  0  0  0  0  0
   -5.4124   17.2350  -32.0311 H   0  0  0  0  0  0  0  0  0  0  0  0
   -2.3590   18.3840  -34.1490 H   0  0  0  0  0  0  0  0  0  0  0  0
   -0.5057   20.5825  -31.2979 H   0  0  0  0  0  0  0  0  0  0  0  0
    0.8863   19.7383  -32.0570 H   0  0  0  0  0  0  0  0  0  0  0  0
    0.8159   21.5332  -32.0570 H   0  0  0  0  0  0  0  0  0  0  0  0
   -1.2250   22.2440  -34.9190 H   0  0  0  0  0  0  0  0  0  0  0  0
  1  2  1  0
  2  3  1  0
  3  4  2  0
  4  5  1  0
  5  6  2  0
  6  7  1  0
  7  8  1  0
  8  9  2  0
  9 10  1  0
  9 11  1  0
 11 12  2  0
 12 13  1  0
 13 14  1  0
 14 15  1  0
 15 16  1  0
 16 17  1  0
 17 18  1  0
 12 19  1  0
 19 20  2  0
 20 21  1  0
 21 22  1  0
 21 23  1  1
 20 24  1  0
 24 25  2  0
  8  3  1  0
 25 11  1  0
 25  7  1  0
 18 13  1  0
  1 26  1  0
  1 27  1  0
  1 28  1  0
  4 29  1  0
  5 30  1  0
  6 31  1  0
 10 32  1  0
 10 33  1  0
 10 34  1  0
 14 35  1  0
 14 36  1  0
 15 37  1  0
 15 38  1  0
 17 39  1  0
 17 40  1  0
 18 41  1  0
 18 42  1  0
 19 43  1  0
 22 44  1  0
 22 45  1  0
 22 46  1  0
 23 47  1  0
M  CHG  2  19   1  21   1
M  END
>  <UniqueID>  (25) 
25

>  <SMILES>  (25) 
COc1cccn2c1c(C)c1c(N3CCOCC3)[nH+]c([S@+](C)O)nc12

>  <Energy>  (25) 
94.27381729020854

>  <Genealogy>  (25) 
COc1cccn2c1c(C)c1c(N3CCOCC3)[nH+]c([S+](C)O)nc12 (protonated)
COc1cccn2c1c(C)c1c(N3CCOCC3)[nH+]c([S@+](C)O)nc12 (chirality)
COc1cccn2c1c(C)c1c(N3CCOCC3)[nH+]c([S@+](C)O)nc12 (3D coordinates assigned)
COc1cccn2c1c(C)c1c(N3CCOCC3)[nH+]c([S@+](C)O)nc12 (nonaromatic ring conformer: 94.27381729020854 kcal/mol)

>  <smiles>  (25) 
COc1cccn2c1c(C)c1c(N3CCOCC3)nc([S+](C)[O-])nc12

>  <score_type>  (25) 
oracle

>  <origin>  (25) 
adg

>  <m_score__min__energy>  (25) 
-6.6699999999999999

>  <m_primary>  (25) 
energy

$$$$
25:0
     RDKit          3D

 49 51  0  0  0  0  0  0  0  0999 V2000
   -6.2080   25.6800  -29.4300 C   0  0  0  0  0  0  0  0  0  0  0  0
   -5.1420   25.4630  -30.3510 O   0  0  0  0  0  0  0  0  0  0  0  0
   -4.6030   24.2050  -30.6620 C   0  0  0  0  0  0  0  0  0  0  0  0
   -5.3770   23.1960  -31.2680 C   0  0  0  0  0  0  0  0  0  0  0  0
   -4.8060   21.9580  -31.6130 C   0  0  0  0  0  0  0  0  0  0  0  0
   -5.6400   20.9160  -32.2640 C   0  0  0  0  0  0  0  0  0  0  0  0
   -5.4110   20.6240  -33.4690 O   0  0  0  0  0  0  0  0  0  0  0  0
   -6.6980   20.2260  -31.5500 N   0  0  0  0  0  0  0  0  0  0  0  0
   -7.8770   21.1150  -31.3480 C   0  0  0  0  0  0  0  0  0  0  0  0
   -9.0110   20.7970  -32.3450 C   0  0  0  0  0  0  0  0  0  0  0  0
   -9.4770   19.4580  -32.2650 O   0  0  0  0  0  0  0  0  0  0  0  0
   -8.4710   18.5240  -31.8930 C   0  0  0  0  0  0  0  0  0  0  0  0
   -7.0460   18.9710  -32.2550 C   0  0  0  0  0  0  0  0  0  0  0  0
   -3.4420   21.7450  -31.3650 C   0  0  0  0  0  0  0  0  0  0  0  0
   -2.6680   22.7410  -30.7650 C   0  0  0  0  0  0  0  0  0  0  0  0
   -3.2450   23.9570  -30.3850 C   0  0  0  0  0  0  0  0  0  0  0  0
   -2.4260   24.9260  -29.7200 N   0  0  0  0  0  0  0  0  0  0  0  0
   -1.7280   24.6560  -28.1570 S   0  0  0  0  0  0  0  0  0  0  0  0
   -2.4280   25.4990  -27.1280 O   0  0  0  0  0  0  0  0  0  0  0  0
   -0.2750   25.0390  -28.1880 O   0  0  0  0  0  0  0  0  0  0  0  0
   -1.8480   22.9460  -27.7590 C   0  0  0  0  0  0  0  0  0  0  0  0
   -0.6810   22.1920  -27.5880 C   0  0  0  0  0  0  0  0  0  0  0  0
   -0.7600   20.8150  -27.3620 C   0  0  0  0  0  0  0  0  0  0  0  0
   -2.0130   20.1760  -27.3120 C   0  0  0  0  0  0  0  0  0  0  0  0
   -2.1110   18.6970  -27.0900 C   0  0  0  0  0  0  0  0  0  0  0  0
   -3.1840   20.9350  -27.4630 C   0  0  0  0  0  0  0  0  0  0  0  0
   -3.1000   22.3140  -27.6840 C   0  0  0  0  0  0  0  0  0  0  0  0
   -5.8256   25.6022  -28.4016 H   0  0  0  0  0  0  0  0  0  0  0  0
   -6.6314   26.6828  -29.5888 H   0  0  0  0  0  0  0  0  0  0  0  0
   -6.9897   24.9226  -29.5888 H   0  0  0  0  0  0  0  0  0  0  0  0
   -6.4419   23.3788  -31.4740 H   0  0  0  0  0  0  0  0  0  0  0  0
   -6.3490   19.9720  -30.5940 H   0  0  0  0  0  0  0  0  0  0  0  0
   -8.2545   20.9787  -30.3238 H   0  0  0  0  0  0  0  0  0  0  0  0
   -7.5553   22.1535  -31.5155 H   0  0  0  0  0  0  0  0  0  0  0  0
   -9.8548   21.4721  -32.1394 H   0  0  0  0  0  0  0  0  0  0  0  0
   -8.6013   20.9370  -33.3562 H   0  0  0  0  0  0  0  0  0  0  0  0
   -8.5217   18.3747  -30.8044 H   0  0  0  0  0  0  0  0  0  0  0  0
   -8.6691   17.5989  -32.4542 H   0  0  0  0  0  0  0  0  0  0  0  0
   -6.3352   18.1837  -31.9635 H   0  0  0  0  0  0  0  0  0  0  0  0
   -6.9947   19.1478  -33.3395 H   0  0  0  0  0  0  0  0  0  0  0  0
   -2.9788   20.7873  -31.6448 H   0  0  0  0  0  0  0  0  0  0  0  0
   -1.5960   22.5675  -30.5900 H   0  0  0  0  0  0  0  0  0  0  0  0
    0.3014   22.6849  -27.6316 H   0  0  0  0  0  0  0  0  0  0  0  0
    0.1602   20.2287  -27.2227 H   0  0  0  0  0  0  0  0  0  0  0  0
   -2.1248   18.4885  -26.0100 H   0  0  0  0  0  0  0  0  0  0  0  0
   -3.0362   18.3179  -27.5485 H   0  0  0  0  0  0  0  0  0  0  0  0
   -1.2439   18.1991  -27.5485 H   0  0  0  0  0  0  0  0  0  0  0  0
   -4.1676   20.4457  -27.4076 H   0  0  0  0  0  0  0  0  0  0  0  0
   -4.0196   22.9064  -27.7996 H   0  0  0  0  0  0  0  0  0  0  0  0
  1  2  1  0
  2  3  1  0
  3  4  2  0
  4  5  1  0
  5  6  1  0
  6  7  2  0
  6  8  1  0
  8  9  1  0
  9 10  1  0
 10 11  1  0
 11 12  1  0
 12 13  1  0
  5 14  2  0
 14 15  1  0
 15 16  2  0
 16 17  1  0
 17 18  1  0
 18 19  2  0
 18 20  2  0
 18 21  1  0
 21 22  2  0
 22 23  1  0
 23 24  2  0
 24 25  1  0
 24 26  1  0
 26 27  2  0
 16  3  1  0
 27 21  1  0
 13  8  1  0
  1 28  1  0
  1 29  1  0
  1 30  1  0
  4 31  1  0
  8 32  1  0
  9 33  1  0
  9 34  1  0
 10 35  1  0
 10 36  1  0
 12 37  1  0
 12 38  1  0
 13 39  1  0
 13 40  1  0
 14 41  1  0
 15 42  1  0
 22 43  1  0
 23 44  1  0
 25 45  1  0
 25 46  1  0
 25 47  1  0
 26 48  1  0
 27 49  1  0
M  CHG  2   8   1  17  -1
M  END
>  <UniqueID>  (26) 
26

>  <SMILES>  (26) 
COc1cc(C(=O)[NH+]2CCOCC2)ccc1[N-]S(=O)(=O)c1ccc(C)cc1

>  <Energy>  (26) 
74.7975595663737

>  <Genealogy>  (26) 
COc1cc(C(=O)[NH+]2CCOCC2)ccc1[N-]S(=O)(=O)c1ccc(C)cc1 (protonated)
COc1cc(C(=O)[NH+]2CCOCC2)ccc1[N-]S(=O)(=O)c1ccc(C)cc1 (3D coordinates assigned)
COc1cc(C(=O)[NH+]2CCOCC2)ccc1[N-]S(=O)(=O)c1ccc(C)cc1 (nonaromatic ring conformer: 74.7975595663737 kcal/mol)

>  <smiles>  (26) 
COc1cc(C(=O)N2CCOCC2)ccc1NS(=O)(=O)c1ccc(C)cc1

>  <score_type>  (26) 
oracle

>  <origin>  (26) 
adg

>  <m_score__min__energy>  (26) 
-9.7699999999999996

>  <m_primary>  (26) 
energy

$$$$
26:0
     RDKit          3D

 49 51  0  0  0  0  0  0  0  0999 V2000
   -6.1430   25.4160  -29.3030 C   0  0  0  0  0  0  0  0  0  0  0  0
   -6.4380   24.9430  -30.7210 C   0  0  0  0  0  0  0  0  0  0  0  0
   -5.5320   23.8100  -31.1000 C   0  0  0  0  0  0  0  0  0  0  0  0
   -4.2200   23.7790  -30.7980 N   0  0  0  0  0  0  0  0  0  0  0  0
   -3.7110   22.6750  -31.3220 N   0  0  0  0  0  0  0  0  0  0  0  0
   -2.3140   22.2880  -31.1700 C   0  0  0  0  0  0  0  0  0  0  0  0
   -4.6790   21.9810  -31.9580 C   0  0  0  0  0  0  0  0  0  0  0  0
   -4.4590   20.7130  -32.7320 C   0  0  0  0  0  0  0  0  0  0  0  0
   -5.8660   22.6870  -31.8480 C   0  0  0  0  0  0  0  0  0  0  0  0
   -7.2270   22.3150  -32.3750 C   0  0  0  0  0  0  0  0  0  0  0  0
   -7.7130   21.0580  -31.7590 N   0  0  0  0  0  0  0  0  0  0  0  0
   -8.8840   21.3430  -30.9130 C   0  0  0  0  0  0  0  0  0  0  0  0
   -8.0650   20.0330  -32.7710 C   0  0  0  0  0  0  0  0  0  0  0  0
   -7.1770   18.8210  -32.6490 C   0  0  0  0  0  0  0  0  0  0  0  0
   -6.5000   18.3170  -33.7670 C   0  0  0  0  0  0  0  0  0  0  0  0
   -5.7470   17.1480  -33.6630 C   0  0  0  0  0  0  0  0  0  0  0  0
   -5.6520   16.4920  -32.4240 C   0  0  0  0  0  0  0  0  0  0  0  0
   -4.9220   15.2590  -32.2780 N   0  0  0  0  0  0  0  0  0  0  0  0
   -4.0740   14.7420  -33.1910 C   0  0  0  0  0  0  0  0  0  0  0  0
   -3.5690   13.5530  -32.7010 C   0  0  0  0  0  0  0  0  0  0  0  0
   -4.1640   13.3960  -31.4630 C   0  0  0  0  0  0  0  0  0  0  0  0
   -4.9770   14.4430  -31.2350 N   0  0  0  0  0  0  0  0  0  0  0  0
   -6.2860   17.0270  -31.3420 N   0  0  0  0  0  0  0  0  0  0  0  0
   -7.0220   18.1660  -31.4200 C   0  0  0  0  0  0  0  0  0  0  0  0
   -6.5828   24.7109  -28.5823 H   0  0  0  0  0  0  0  0  0  0  0  0
   -5.0545   25.4640  -29.1515 H   0  0  0  0  0  0  0  0  0  0  0  0
   -6.5787   26.4146  -29.1515 H   0  0  0  0  0  0  0  0  0  0  0  0
   -7.4831   24.6048  -30.7789 H   0  0  0  0  0  0  0  0  0  0  0  0
   -6.2689   25.7791  -31.4155 H   0  0  0  0  0  0  0  0  0  0  0  0
   -2.0668   22.2195  -30.1003 H   0  0  0  0  0  0  0  0  0  0  0  0
   -2.1502   21.3107  -31.6475 H   0  0  0  0  0  0  0  0  0  0  0  0
   -1.6707   23.0418  -31.6475 H   0  0  0  0  0  0  0  0  0  0  0  0
   -4.3139   19.8768  -32.0322 H   0  0  0  0  0  0  0  0  0  0  0  0
   -5.3359   20.5132  -33.3653 H   0  0  0  0  0  0  0  0  0  0  0  0
   -3.5660   20.8203  -33.3653 H   0  0  0  0  0  0  0  0  0  0  0  0
   -7.9349   23.1249  -32.1448 H   0  0  0  0  0  0  0  0  0  0  0  0
   -7.1513   22.1645  -33.4620 H   0  0  0  0  0  0  0  0  0  0  0  0
   -8.5966   21.2731  -29.8535 H   0  0  0  0  0  0  0  0  0  0  0  0
   -9.2527   22.3571  -31.1267 H   0  0  0  0  0  0  0  0  0  0  0  0
   -9.6775   20.6118  -31.1267 H   0  0  0  0  0  0  0  0  0  0  0  0
   -9.1115   19.7277  -32.6239 H   0  0  0  0  0  0  0  0  0  0  0  0
   -7.9257   20.4683  -33.7716 H   0  0  0  0  0  0  0  0  0  0  0  0
   -6.5626   18.8450  -34.7299 H   0  0  0  0  0  0  0  0  0  0  0  0
   -5.2306   16.7419  -34.5453 H   0  0  0  0  0  0  0  0  0  0  0  0
   -3.8259   15.1921  -34.1636 H   0  0  0  0  0  0  0  0  0  0  0  0
   -2.8503   12.8784  -33.1893 H   0  0  0  0  0  0  0  0  0  0  0  0
   -3.9994   12.5525  -30.7765 H   0  0  0  0  0  0  0  0  0  0  0  0
   -5.5700   14.5690  -30.3860 H   0  0  0  0  0  0  0  0  0  0  0  0
   -7.4974   18.5751  -30.5163 H   0  0  0  0  0  0  0  0  0  0  0  0
  1  2  1  0
  2  3  1  0
  3  4  2  0
  4  5  1  0
  5  6  1  0
  5  7  1  0
  7  8  1  0
  7  9  2  0
  9 10  1  0
 10 11  1  0
 11 12  1  0
 11 13  1  0
 13 14  1  0
 14 15  2  0
 15 16  1  0
 16 17  2  0
 17 18  1  0
 18 19  1  0
 19 20  2  0
 20 21  1  0
 21 22  2  0
 17 23  1  0
 23 24  2  0
  9  3  1  0
 24 14  1  0
 22 18  1  0
  1 25  1  0
  1 26  1  0
  1 27  1  0
  2 28  1  0
  2 29  1  0
  6 30  1  0
  6 31  1  0
  6 32  1  0
  8 33  1  0
  8 34  1  0
  8 35  1  0
 10 36  1  0
 10 37  1  0
 12 38  1  0
 12 39  1  0
 12 40  1  0
 13 41  1  0
 13 42  1  0
 15 43  1  0
 16 44  1  0
 19 45  1  0
 20 46  1  0
 21 47  1  0
 22 48  1  0
 24 49  1  0
M  CHG  1  22   1
M  END
>  <UniqueID>  (27) 
27

>  <SMILES>  (27) 
CCc1nn(C)c(C)c1CN(C)Cc1ccc(-n2ccc[nH+]2)nc1

>  <Energy>  (27) 
104.90484773679167

>  <Genealogy>  (27) 
CCc1nn(C)c(C)c1CN(C)Cc1ccc(-n2ccc[nH+]2)nc1 (protonated)
CCc1nn(C)c(C)c1CN(C)Cc1ccc(-n2ccc[nH+]2)nc1 (3D coordinates assigned)
CCc1nn(C)c(C)c1CN(C)Cc1ccc(-n2ccc[nH+]2)nc1 (optimized conformer: 104.90484773679167 kcal/mol)

>  <smiles>  (27) 
CCc1nn(C)c(C)c1CN(C)Cc1ccc(-n2cccn2)nc1

>  <score_type>  (27) 
oracle

>  <origin>  (27) 
adg

>  <m_score__min__energy>  (27) 
-7.9500000000000002

>  <m_primary>  (27) 
energy

$$$$
27:0
     RDKit          3D

 56 60  0  0  0  0  0  0  0  0999 V2000
   -6.3710   25.8020  -29.5870 C   0  0  0  0  0  0  0  0  0  0  0  0
   -5.9270   24.6480  -30.4280 C   0  0  0  0  0  0  0  0  0  0  0  0
   -6.8340   23.6630  -30.8230 C   0  0  0  0  0  0  0  0  0  0  0  0
   -6.3930   22.6070  -31.6160 C   0  0  0  0  0  0  0  0  0  0  0  0
   -5.0450   22.5540  -32.0060 C   0  0  0  0  0  0  0  0  0  0  0  0
   -4.5370   21.4790  -32.8250 N   0  0  0  0  0  0  0  0  0  0  0  0
   -5.4220   20.4130  -33.3110 C   0  0  0  0  0  0  0  0  0  0  0  0
   -4.6810   19.1190  -33.5810 C   0  0  0  0  0  0  0  0  0  0  0  0
   -5.3810   17.9230  -33.8520 C   0  0  0  0  0  0  0  0  0  0  0  0
   -6.7770   17.8680  -33.9270 O   0  0  0  0  0  0  0  0  0  0  0  0
   -7.6200   17.7530  -32.7810 C   0  0  0  0  0  0  0  0  0  0  0  0
   -8.5910   18.9210  -32.6650 C   0  0  0  0  0  0  0  0  0  0  0  0
   -7.8780   19.3890  -31.4050 C   0  0  0  0  0  0  0  0  0  0  0  0
   -6.9060   18.2230  -31.5200 C   0  0  0  0  0  0  0  0  0  0  0  0
   -4.6890   16.7670  -34.0150 N   0  0  0  0  0  0  0  0  0  0  0  0
   -3.3370   16.7360  -33.9580 C   0  0  0  0  0  0  0  0  0  0  0  0
   -2.6360   17.8730  -33.7220 N   0  0  0  0  0  0  0  0  0  0  0  0
   -3.2700   19.0650  -33.5170 C   0  0  0  0  0  0  0  0  0  0  0  0
   -2.5210   20.2660  -33.2180 N   0  0  0  0  0  0  0  0  0  0  0  0
   -1.1260   20.2330  -32.7590 C   0  0  0  0  0  0  0  0  0  0  0  0
   -1.0640   19.8730  -31.2720 C   0  0  0  0  0  0  0  0  0  0  0  0
   -1.5850   21.0050  -30.4310 C   0  0  0  0  0  0  0  0  0  0  0  0
   -2.7290   20.8360  -29.6370 C   0  0  0  0  0  0  0  0  0  0  0  0
   -3.2220   21.9050  -28.8860 C   0  0  0  0  0  0  0  0  0  0  0  0
   -2.5720   23.1400  -28.9450 C   0  0  0  0  0  0  0  0  0  0  0  0
   -1.4730   23.2940  -29.7310 N   0  0  0  0  0  0  0  0  0  0  0  0
   -0.9730   22.2670  -30.4710 C   0  0  0  0  0  0  0  0  0  0  0  0
   -3.1890   21.5570  -33.3890 C   0  0  0  0  0  0  0  0  0  0  0  0
   -4.2090   23.5490  -31.5980 N   0  0  0  0  0  0  0  0  0  0  0  0
   -4.6340   24.5600  -30.8370 N   0  0  0  0  0  0  0  0  0  0  0  0
   -6.2704   25.5406  -28.5233 H   0  0  0  0  0  0  0  0  0  0  0  0
   -5.7463   26.6797  -29.8096 H   0  0  0  0  0  0  0  0  0  0  0  0
   -7.4228   26.0346  -29.8096 H   0  0  0  0  0  0  0  0  0  0  0  0
   -7.8872   23.7206  -30.5107 H   0  0  0  0  0  0  0  0  0  0  0  0
   -7.0941   21.8214  -31.9341 H   0  0  0  0  0  0  0  0  0  0  0  0
   -6.1959   20.2242  -32.5524 H   0  0  0  0  0  0  0  0  0  0  0  0
   -5.8601   20.7509  -34.2617 H   0  0  0  0  0  0  0  0  0  0  0  0
   -7.9959   16.7231  -32.8710 H   0  0  0  0  0  0  0  0  0  0  0  0
   -8.5385   19.6334  -33.5015 H   0  0  0  0  0  0  0  0  0  0  0  0
   -9.6766   18.7437  -32.6570 H   0  0  0  0  0  0  0  0  0  0  0  0
   -7.4055   20.3780  -31.4977 H   0  0  0  0  0  0  0  0  0  0  0  0
   -8.4422   19.5532  -30.4751 H   0  0  0  0  0  0  0  0  0  0  0  0
   -5.8604   18.5241  -31.6816 H   0  0  0  0  0  0  0  0  0  0  0  0
   -6.7587   17.5353  -30.6742 H   0  0  0  0  0  0  0  0  0  0  0  0
   -2.8044   15.7846  -34.1037 H   0  0  0  0  0  0  0  0  0  0  0  0
   -1.5960   17.8000  -33.7090 H   0  0  0  0  0  0  0  0  0  0  0  0
   -0.5712   19.4801  -33.3380 H   0  0  0  0  0  0  0  0  0  0  0  0
   -0.6776   21.2267  -32.9055 H   0  0  0  0  0  0  0  0  0  0  0  0
   -1.6760   18.9770  -31.0912 H   0  0  0  0  0  0  0  0  0  0  0  0
   -0.0164   19.6803  -30.9973 H   0  0  0  0  0  0  0  0  0  0  0  0
   -3.2378   19.8612  -29.6060 H   0  0  0  0  0  0  0  0  0  0  0  0
   -4.1132   21.7759  -28.2543 H   0  0  0  0  0  0  0  0  0  0  0  0
   -2.9493   23.9885  -28.3553 H   0  0  0  0  0  0  0  0  0  0  0  0
   -0.0865   22.4268  -31.1023 H   0  0  0  0  0  0  0  0  0  0  0  0
   -2.6170   22.3392  -32.8684 H   0  0  0  0  0  0  0  0  0  0  0  0
   -3.2496   21.8031  -34.4594 H   0  0  0  0  0  0  0  0  0  0  0  0
  1  2  1  0
  2  3  2  0
  3  4  1  0
  4  5  2  0
  5  6  1  0
  6  7  1  0
  7  8  1  0
  8  9  2  0
  9 10  1  0
 10 11  1  0
 11 12  1  0
 12 13  1  0
 13 14  1  0
  9 15  1  0
 15 16  2  0
 16 17  1  0
 17 18  2  0
 18 19  1  0
 19 20  1  0
 20 21  1  0
 21 22  1  0
 22 23  2  0
 23 24  1  0
 24 25  2  0
 25 26  1  0
 26 27  2  0
 19 28  1  0
  5 29  1  0
 29 30  2  0
 30  2  1  0
 28  6  1  0
 18  8  1  0
 27 22  1  0
 14 11  1  0
  1 31  1  0
  1 32  1  0
  1 33  1  0
  3 34  1  0
  4 35  1  0
  7 36  1  0
  7 37  1  0
 11 38  1  0
 12 39  1  0
 12 40  1  0
 13 41  1  0
 13 42  1  0
 14 43  1  0
 14 44  1  0
 16 45  1  0
 17 46  1  0
 20 47  1  0
 20 48  1  0
 21 49  1  0
 21 50  1  0
 23 51  1  0
 24 52  1  0
 25 53  1  0
 27 54  1  0
 28 55  1  0
 28 56  1  0
M  CHG  1  17   1
M  END
>  <UniqueID>  (28) 
28

>  <SMILES>  (28) 
Cc1ccc(N2Cc3c(OC4CCC4)nc[nH+]c3N(CCc3cccnc3)C2)nn1

>  <Energy>  (28) 
131.79565510478687

>  <Genealogy>  (28) 
Cc1ccc(N2Cc3c(OC4CCC4)nc[nH+]c3N(CCc3cccnc3)C2)nn1 (protonated)
Cc1ccc(N2Cc3c(OC4CCC4)nc[nH+]c3N(CCc3cccnc3)C2)nn1 (3D coordinates assigned)
Cc1ccc(N2Cc3c(OC4CCC4)nc[nH+]c3N(CCc3cccnc3)C2)nn1 (nonaromatic ring conformer: 131.79565510478687 kcal/mol)

>  <smiles>  (28) 
Cc1ccc(N2Cc3c(OC4CCC4)ncnc3N(CCc3cccnc3)C2)nn1

>  <score_type>  (28) 
oracle

>  <origin>  (28) 
adg

>  <m_score__min__energy>  (28) 
-8.8599999999999994

>  <m_primary>  (28) 
energy

$$$$
28:0
     RDKit          3D

 47 50  0  0  0  0  0  0  0  0999 V2000
   -7.5510   18.8640  -31.9350 C   0  0  0  0  0  0  0  0  0  0  0  0
   -7.2240   17.5940  -32.4190 C   0  0  0  0  0  0  0  0  0  0  0  0
   -6.3320   17.4500  -33.4950 C   0  0  0  0  0  0  0  0  0  0  0  0
   -5.9830   16.1410  -33.9870 N   0  0  0  0  0  0  0  0  0  0  0  0
   -7.0400   15.1410  -34.2110 C   0  0  0  0  0  0  0  0  0  0  0  0
   -6.4570   13.7290  -34.3700 C   0  0  0  0  0  0  0  0  0  0  0  0
   -5.3530   13.4880  -33.3340 C   0  0  0  0  0  0  0  0  0  0  0  0
   -4.2060   14.5190  -33.4330 C   0  0  0  0  0  0  0  0  0  0  0  0
   -4.5820   15.7760  -34.2330 C   0  0  0  0  0  0  0  0  0  0  0  0
   -5.7700   18.6010  -34.0740 C   0  0  0  0  0  0  0  0  0  0  0  0
   -6.0980   19.8700  -33.5880 C   0  0  0  0  0  0  0  0  0  0  0  0
   -6.9740   20.0090  -32.5040 C   0  0  0  0  0  0  0  0  0  0  0  0
   -7.3360   21.3530  -32.0200 C   0  0  0  0  0  0  0  0  0  0  0  0
   -8.5700   21.8740  -32.1820 N   0  0  0  0  0  0  0  0  0  0  0  0
   -8.5330   23.0850  -31.6560 N   0  0  0  0  0  0  0  0  0  0  0  0
   -7.2880   23.3090  -31.2010 C   0  0  0  0  0  0  0  0  0  0  0  0
   -6.5030   22.2220  -31.3920 N   0  0  0  0  0  0  0  0  0  0  0  0
   -5.0440   22.1140  -31.2410 C   0  0  0  0  0  0  0  0  0  0  0  0
   -4.5580   22.8020  -29.9590 C   0  0  0  0  0  0  0  0  0  0  0  0
   -4.3640   24.3190  -30.1220 C   0  0  0  0  0  0  0  0  0  0  0  0
   -5.4690   25.0330  -30.9190 C   0  0  0  0  0  0  0  0  0  0  0  0
   -6.8810   24.5900  -30.5210 C   0  0  0  0  0  0  0  0  0  0  0  0
   -8.2643   18.9660  -31.1039 H   0  0  0  0  0  0  0  0  0  0  0  0
   -7.6680   16.7013  -31.9543 H   0  0  0  0  0  0  0  0  0  0  0  0
   -7.7270   15.1490  -33.3520 H   0  0  0  0  0  0  0  0  0  0  0  0
   -7.5693   15.4015  -35.1394 H   0  0  0  0  0  0  0  0  0  0  0  0
   -7.2572   12.9880  -34.2263 H   0  0  0  0  0  0  0  0  0  0  0  0
   -6.0283   13.6309  -35.3783 H   0  0  0  0  0  0  0  0  0  0  0  0
   -5.7948   13.5488  -32.3285 H   0  0  0  0  0  0  0  0  0  0  0  0
   -4.9242   12.4944  -33.5309 H   0  0  0  0  0  0  0  0  0  0  0  0
   -3.9237   14.8252  -32.4149 H   0  0  0  0  0  0  0  0  0  0  0  0
   -3.3764   14.0313  -33.9658 H   0  0  0  0  0  0  0  0  0  0  0  0
   -3.9316   16.6085  -33.9264 H   0  0  0  0  0  0  0  0  0  0  0  0
   -4.4510   15.5682  -35.3052 H   0  0  0  0  0  0  0  0  0  0  0  0
   -5.0677   18.5025  -34.9148 H   0  0  0  0  0  0  0  0  0  0  0  0
   -5.6656   20.7647  -34.0597 H   0  0  0  0  0  0  0  0  0  0  0  0
   -9.3430   23.7430  -31.6260 H   0  0  0  0  0  0  0  0  0  0  0  0
   -4.7666   21.0502  -31.2028 H   0  0  0  0  0  0  0  0  0  0  0  0
   -4.5708   22.6120  -32.1001 H   0  0  0  0  0  0  0  0  0  0  0  0
   -5.2999   22.6276  -29.1658 H   0  0  0  0  0  0  0  0  0  0  0  0
   -3.5770   22.3719  -29.7088 H   0  0  0  0  0  0  0  0  0  0  0  0
   -4.3227   24.7676  -29.1185 H   0  0  0  0  0  0  0  0  0  0  0  0
   -3.4357   24.4505  -30.6973 H   0  0  0  0  0  0  0  0  0  0  0  0
   -5.3805   26.1158  -30.7468 H   0  0  0  0  0  0  0  0  0  0  0  0
   -5.3300   24.7710  -31.9783 H   0  0  0  0  0  0  0  0  0  0  0  0
   -6.9109   24.4380  -29.4320 H   0  0  0  0  0  0  0  0  0  0  0  0
   -7.5829   25.3767  -30.8347 H   0  0  0  0  0  0  0  0  0  0  0  0
  1  2  2  0
  2  3  1  0
  3  4  1  0
  4  5  1  0
  5  6  1  0
  6  7  1  0
  7  8  1  0
  8  9  1  0
  3 10  2  0
 10 11  1  0
 11 12  2  0
 12 13  1  0
 13 14  2  0
 14 15  1  0
 15 16  2  0
 16 17  1  0
 17 18  1  0
 18 19  1  0
 19 20  1  0
 20 21  1  0
 21 22  1  0
 12  1  1  0
 17 13  1  0
  9  4  1  0
 22 16  1  0
  1 23  1  0
  2 24  1  0
  5 25  1  0
  5 26  1  0
  6 27  1  0
  6 28  1  0
  7 29  1  0
  7 30  1  0
  8 31  1  0
  8 32  1  0
  9 33  1  0
  9 34  1  0
 10 35  1  0
 11 36  1  0
 15 37  1  0
 18 38  1  0
 18 39  1  0
 19 40  1  0
 19 41  1  0
 20 42  1  0
 20 43  1  0
 21 44  1  0
 21 45  1  0
 22 46  1  0
 22 47  1  0
M  CHG  1  15   1
M  END
>  <UniqueID>  (29) 
29

>  <SMILES>  (29) 
c1cc(N2CCCCC2)ccc1-c1n[nH+]c2n1CCCCC2

>  <Energy>  (29) 
96.54915361639883

>  <Genealogy>  (29) 
c1cc(N2CCCCC2)ccc1-c1n[nH+]c2n1CCCCC2 (protonated)
c1cc(N2CCCCC2)ccc1-c1n[nH+]c2n1CCCCC2 (3D coordinates assigned)
c1cc(N2CCCCC2)ccc1-c1n[nH+]c2n1CCCCC2 (nonaromatic ring conformer: 96.54915361639883 kcal/mol)

>  <smiles>  (29) 
c1cc(N2CCCCC2)ccc1-c1nnc2n1CCCCC2

>  <score_type>  (29) 
oracle

>  <origin>  (29) 
adg

>  <m_score__min__energy>  (29) 
-5.8399999999999999

>  <m_primary>  (29) 
energy

$$$$
29:0
     RDKit          3D

 31 33  0  0  0  0  0  0  0  0999 V2000
   -4.5630   14.9990  -33.1940 C   0  0  0  0  0  0  0  0  0  0  0  0
   -4.6890   16.1210  -34.2220 C   0  0  0  0  0  0  0  0  0  0  0  0
   -5.5260   17.2150  -33.6960 N   0  0  0  0  0  0  0  0  0  0  0  0
   -6.7670   16.8750  -33.1980 C   0  0  0  0  0  0  0  0  0  0  0  0
   -7.6450   17.8440  -32.6950 C   0  0  0  0  0  0  0  0  0  0  0  0
   -7.2160   19.1580  -32.7170 C   0  0  0  0  0  0  0  0  0  0  0  0
   -5.9740   19.5120  -33.1940 C   0  0  0  0  0  0  0  0  0  0  0  0
   -5.7940   20.8540  -33.1330 N   0  0  0  0  0  0  0  0  0  0  0  0
   -6.9400   21.3360  -32.6040 C   0  0  0  0  0  0  0  0  0  0  0  0
   -7.2510   22.6690  -32.3430 C   0  0  0  0  0  0  0  0  0  0  0  0
   -8.5150   22.9550  -31.7910 C   0  0  0  0  0  0  0  0  0  0  0  0
   -9.4310   21.9150  -31.5160 C   0  0  0  0  0  0  0  0  0  0  0  0
   -9.0930   20.5760  -31.7900 C   0  0  0  0  0  0  0  0  0  0  0  0
   -7.8350   20.3250  -32.3340 C   0  0  0  0  0  0  0  0  0  0  0  0
   -5.0860   18.5310  -33.6690 C   0  0  0  0  0  0  0  0  0  0  0  0
   -3.7260   18.9340  -34.1920 C   0  0  0  0  0  0  0  0  0  0  0  0
   -4.6107   15.4234  -32.1803 H   0  0  0  0  0  0  0  0  0  0  0  0
   -5.3863   14.2824  -33.3306 H   0  0  0  0  0  0  0  0  0  0  0  0
   -3.6012   14.4829  -33.3306 H   0  0  0  0  0  0  0  0  0  0  0  0
   -3.6876   16.5120  -34.4551 H   0  0  0  0  0  0  0  0  0  0  0  0
   -5.1611   15.7185  -35.1303 H   0  0  0  0  0  0  0  0  0  0  0  0
   -7.0741   15.8187  -33.1959 H   0  0  0  0  0  0  0  0  0  0  0  0
   -8.6343   17.5707  -32.2992 H   0  0  0  0  0  0  0  0  0  0  0  0
   -4.9690   21.4160  -33.4380 H   0  0  0  0  0  0  0  0  0  0  0  0
   -6.5322   23.4725  -32.5611 H   0  0  0  0  0  0  0  0  0  0  0  0
   -8.7913   23.9970  -31.5722 H   0  0  0  0  0  0  0  0  0  0  0  0
  -10.4147   22.1530  -31.0850 H   0  0  0  0  0  0  0  0  0  0  0  0
   -9.7972   19.7569  -31.5820 H   0  0  0  0  0  0  0  0  0  0  0  0
   -3.0522   19.1337  -33.3458 H   0  0  0  0  0  0  0  0  0  0  0  0
   -3.3130   18.1196  -34.8054 H   0  0  0  0  0  0  0  0  0  0  0  0
   -3.8233   19.8419  -34.8054 H   0  0  0  0  0  0  0  0  0  0  0  0
  1  2  1  0
  2  3  1  0
  3  4  2  0
  4  5  1  0
  5  6  2  0
  6  7  1  0
  7  8  1  0
  8  9  1  0
  9 10  2  0
 10 11  1  0
 11 12  2  0
 12 13  1  0
 13 14  2  0
  7 15  2  0
 15 16  1  0
 15  3  1  0
 14  6  1  0
 14  9  1  0
  1 17  1  0
  1 18  1  0
  1 19  1  0
  2 20  1  0
  2 21  1  0
  4 22  1  0
  5 23  1  0
  8 24  1  0
 10 25  1  0
 11 26  1  0
 12 27  1  0
 13 28  1  0
 16 29  1  0
 16 30  1  0
 16 31  1  0
M  CHG  1   3   1
M  END
>  <UniqueID>  (30) 
30

>  <SMILES>  (30) 
CC[n+]1ccc2c([nH]c3ccccc32)c1C

>  <Energy>  (30) 
75.44626484814005

>  <Genealogy>  (30) 
CC[n+]1ccc2c([nH]c3ccccc32)c1C (3D coordinates assigned)
CC[n+]1ccc2c([nH]c3ccccc32)c1C (optimized conformer: 75.44626484814005 kcal/mol)

>  <smiles>  (30) 
CC[n+]1ccc2c([nH]c3ccccc32)c1C

>  <score_type>  (30) 
oracle

>  <origin>  (30) 
adg

>  <m_score__min__energy>  (30) 
-6.0599999999999996

>  <m_primary>  (30) 
energy

$$$$
30:0
     RDKit          3D

 63 66  0  0  0  0  0  0  0  0999 V2000
   -1.9735   19.3820  -30.5328 H   0  0  0  0  0  0  0  0  0  0  0  0
   -2.1790   20.4530  -30.3890 C   0  0  0  0  0  0  0  0  0  0  0  0
   -3.3140   21.0290  -30.9650 C   0  0  0  0  0  0  0  0  0  0  0  0
   -3.9993   20.4094  -31.5620 H   0  0  0  0  0  0  0  0  0  0  0  0
   -3.5830   22.3900  -30.7860 C   0  0  0  0  0  0  0  0  0  0  0  0
   -4.4779   22.8387  -31.2419 H   0  0  0  0  0  0  0  0  0  0  0  0
   -2.7100   23.1830  -30.0240 C   0  0  0  0  0  0  0  0  0  0  0  0
   -2.9310   24.5550  -29.8170 C   0  0  0  0  0  0  0  0  0  0  0  0
   -4.0530   25.1770  -30.3820 O   0  0  0  0  0  0  0  0  0  0  0  0
   -5.3280   25.2620  -29.7510 C   0  0  0  0  0  0  0  0  0  0  0  0
   -5.8137   26.2022  -30.0512 H   0  0  0  0  0  0  0  0  0  0  0  0
   -5.1775   25.2302  -28.6618 H   0  0  0  0  0  0  0  0  0  0  0  0
   -6.2280   24.0880  -30.1470 C   0  0  0  0  0  0  0  0  0  0  0  0
   -7.0943   24.0544  -29.4700 H   0  0  0  0  0  0  0  0  0  0  0  0
   -5.6448   23.1583  -30.0725 H   0  0  0  0  0  0  0  0  0  0  0  0
   -6.7040   24.2330  -31.5300 N   0  0  0  0  0  0  0  0  0  0  0  0
   -7.7510   24.2660  -31.5000 H   0  0  0  0  0  0  0  0  0  0  0  0
   -6.3190   23.0930  -32.3820 C   0  0  0  0  0  0  0  0  0  0  0  0
   -5.2881   22.7957  -32.1394 H   0  0  0  0  0  0  0  0  0  0  0  0
   -6.3954   23.4031  -33.4346 H   0  0  0  0  0  0  0  0  0  0  0  0
   -7.2440   21.9040  -32.1610 C   0  0  0  0  0  0  0  0  0  0  0  0
   -8.4760   22.1020  -31.5040 C   0  0  0  0  0  0  0  0  0  0  0  0
   -8.7232   23.0987  -31.1096 H   0  0  0  0  0  0  0  0  0  0  0  0
   -9.3860   21.0590  -31.3450 C   0  0  0  0  0  0  0  0  0  0  0  0
  -10.3460   21.2417  -30.8401 H   0  0  0  0  0  0  0  0  0  0  0  0
   -9.0860   19.7910  -31.8210 C   0  0  0  0  0  0  0  0  0  0  0  0
   -9.8209   18.9793  -31.7162 H   0  0  0  0  0  0  0  0  0  0  0  0
   -7.8530   19.5390  -32.4340 C   0  0  0  0  0  0  0  0  0  0  0  0
   -7.5620   18.2470  -32.8990 C   0  0  0  0  0  0  0  0  0  0  0  0
   -8.3180   17.4525  -32.8136 H   0  0  0  0  0  0  0  0  0  0  0  0
   -6.3220   17.9640  -33.4680 C   0  0  0  0  0  0  0  0  0  0  0  0
   -6.1129   16.9524  -33.8460 H   0  0  0  0  0  0  0  0  0  0  0  0
   -5.3420   18.9560  -33.5620 C   0  0  0  0  0  0  0  0  0  0  0  0
   -4.0990   18.6060  -34.1100 O   0  0  0  0  0  0  0  0  0  0  0  0
   -2.8710   19.2620  -33.8180 C   0  0  0  0  0  0  0  0  0  0  0  0
   -2.7422   19.3308  -32.7277 H   0  0  0  0  0  0  0  0  0  0  0  0
   -2.0374   18.6890  -34.2502 H   0  0  0  0  0  0  0  0  0  0  0  0
   -2.8838   20.2734  -34.2502 H   0  0  0  0  0  0  0  0  0  0  0  0
   -5.6280   20.2600  -33.1100 C   0  0  0  0  0  0  0  0  0  0  0  0
   -4.8535   21.0384  -33.1749 H   0  0  0  0  0  0  0  0  0  0  0  0
   -6.8970   20.5820  -32.5740 C   0  0  0  0  0  0  0  0  0  0  0  0
   -2.0400   25.2720  -29.0740 N   0  0  0  0  0  0  0  0  0  0  0  0
   -0.9430   24.6910  -28.5230 C   0  0  0  0  0  0  0  0  0  0  0  0
   -0.1160   25.4170  -27.8340 N   0  0  0  0  0  0  0  0  0  0  0  0
   -0.5240   26.5250  -26.9730 C   0  0  0  0  0  0  0  0  0  0  0  0
    0.3678   26.9970  -26.5350 H   0  0  0  0  0  0  0  0  0  0  0  0
   -1.0766   27.2677  -27.5672 H   0  0  0  0  0  0  0  0  0  0  0  0
   -1.4210   25.9960  -25.8560 C   0  0  0  0  0  0  0  0  0  0  0  0
   -2.4535   25.9188  -26.2275 H   0  0  0  0  0  0  0  0  0  0  0  0
   -1.0535   25.0071  -25.5446 H   0  0  0  0  0  0  0  0  0  0  0  0
   -1.3910   26.9050  -24.6890 N   0  0  0  0  0  0  0  0  0  0  0  0
   -0.8510   28.2180  -25.0750 C   0  0  0  0  0  0  0  0  0  0  0  0
   -0.6129   28.7969  -24.1704 H   0  0  0  0  0  0  0  0  0  0  0  0
    0.0625   28.0778  -25.6716 H   0  0  0  0  0  0  0  0  0  0  0  0
   -1.5988   28.7610  -25.6716 H   0  0  0  0  0  0  0  0  0  0  0  0
   -0.5750   26.3380  -23.6010 C   0  0  0  0  0  0  0  0  0  0  0  0
   -1.0008   26.6339  -22.6309 H   0  0  0  0  0  0  0  0  0  0  0  0
   -0.5700   25.2408  -23.6799 H   0  0  0  0  0  0  0  0  0  0  0  0
    0.4550   26.7160  -23.6799 H   0  0  0  0  0  0  0  0  0  0  0  0
   -0.7160   23.3600  -28.7090 N   0  0  0  0  0  0  0  0  0  0  0  0
   -1.5650   22.5980  -29.4440 C   0  0  0  0  0  0  0  0  0  0  0  0
   -1.3040   21.2360  -29.6300 C   0  0  0  0  0  0  0  0  0  0  0  0
   -0.4099   20.7810  -29.1788 H   0  0  0  0  0  0  0  0  0  0  0  0
  1  2  1  0
  2  3  2  0
  3  4  1  0
  3  5  1  0
  5  6  1  0
  5  7  2  0
  7  8  1  0
  8  9  1  0
  9 10  1  0
 10 11  1  0
 10 12  1  0
 10 13  1  0
 13 14  1  0
 13 15  1  0
 13 16  1  0
 16 17  1  0
 16 18  1  0
 18 19  1  0
 18 20  1  0
 18 21  1  0
 21 22  2  0
 22 23  1  0
 22 24  1  0
 24 25  1  0
 24 26  2  0
 26 27  1  0
 26 28  1  0
 28 29  2  0
 29 30  1  0
 29 31  1  0
 31 32  1  0
 31 33  2  0
 33 34  1  0
 34 35  1  0
 35 36  1  0
 35 37  1  0
 35 38  1  0
 33 39  1  0
 39 40  1  0
 39 41  2  0
  8 42  2  0
 42 43  1  0
 43 44  2  0
 44 45  1  0
 45 46  1  0
 45 47  1  0
 45 48  1  0
 48 49  1  0
 48 50  1  0
 48 51  1  0
 51 52  1  0
 52 53  1  0
 52 54  1  0
 52 55  1  0
 51 56  1  0
 56 57  1  0
 56 58  1  0
 56 59  1  0
 43 60  1  0
 60 61  1  0
 61 62  2  0
 62 63  1  0
 62  2  1  0
 61  7  1  0
 41 21  1  0
 41 28  1  0
M  CHG  1  60  -1
M  END
>  <UniqueID>  (31) 
31

>  <SMILES>  (31) 
COc1ccc2cccc(CNCCOc3n/c(=N/CCN(C)C)[n-]c4ccccc34)c2c1

>  <Energy>  (31) 
64.45975271973467

>  <Genealogy>  (31) 
COc1ccc2cccc(CNCCOc3nc(=NCCN(C)C)[n-]c4ccccc34)c2c1 (protonated)
COc1ccc2cccc(CNCCOc3n/c(=N/CCN(C)C)[n-]c4ccccc34)c2c1 (cis-trans isomerization)
COc1ccc2cccc(CNCCOc3n/c(=N/CCN(C)C)[n-]c4ccccc34)c2c1 (3D coordinates assigned)
COc1ccc2cccc(CNCCOc3n/c(=N/CCN(C)C)[n-]c4ccccc34)c2c1 (optimized conformer: 64.45975271973467 kcal/mol)

>  <smiles>  (31) 
COc1ccc2cccc(CNCCOc3nc(=NCCN(C)C)[nH]c4ccccc34)c2c1

>  <score_type>  (31) 
oracle

>  <origin>  (31) 
adg

>  <m_score__min__energy>  (31) 
-11.06

>  <m_primary>  (31) 
energy

$$$$
31:0
     RDKit          3D

 54 55  0  0  0  0  0  0  0  0999 V2000
   -0.8580   22.6780  -30.0680 C   0  0  0  0  0  0  0  0  0  0  0  0
   -1.7250   23.0390  -28.8610 C   0  0  0  0  0  0  0  0  0  0  0  0
   -2.3190   24.4620  -28.9420 C   0  0  0  0  0  0  0  0  0  0  0  0
   -3.7320   24.5540  -28.5370 N   0  0  0  0  0  0  0  0  0  0  0  0
   -4.4090   23.2510  -28.5530 C   0  0  0  0  0  0  0  0  0  0  0  0
   -5.6210   23.3100  -29.4830 C   0  0  0  0  0  0  0  0  0  0  0  0
   -5.1760   23.5000  -30.9080 C   0  0  0  0  0  0  0  0  0  0  0  0
   -4.5060   24.5240  -31.2080 O   0  0  0  0  0  0  0  0  0  0  0  0
   -5.5720   22.5720  -31.9380 N   0  0  0  0  0  0  0  0  0  0  0  0
   -4.5660   22.0170  -32.8510 C   0  0  0  0  0  0  0  0  0  0  0  0
   -3.3160   21.5860  -32.0870 C   0  0  0  0  0  0  0  0  0  0  0  0
   -6.9570   22.2070  -32.0960 C   0  0  0  0  0  0  0  0  0  0  0  0
   -7.9640   23.1580  -31.8790 C   0  0  0  0  0  0  0  0  0  0  0  0
   -9.3050   22.7880  -31.9640 C   0  0  0  0  0  0  0  0  0  0  0  0
   -9.6330   21.4670  -32.2680 C   0  0  0  0  0  0  0  0  0  0  0  0
   -8.6520   20.5520  -32.4900 N   0  0  0  0  0  0  0  0  0  0  0  0
   -7.3310   20.8860  -32.4230 C   0  0  0  0  0  0  0  0  0  0  0  0
   -6.3370   19.8860  -32.6960 N   0  0  0  0  0  0  0  0  0  0  0  0
   -6.0500   19.5140  -34.0900 C   0  0  0  0  0  0  0  0  0  0  0  0
   -4.9020   18.5020  -34.1680 C   0  0  0  0  0  0  0  0  0  0  0  0
   -5.1480   17.2860  -33.2600 C   0  0  0  0  0  0  0  0  0  0  0  0
   -5.7680   17.6410  -31.8880 C   0  0  0  0  0  0  0  0  0  0  0  0
   -5.7270   19.1420  -31.5890 C   0  0  0  0  0  0  0  0  0  0  0  0
    0.1055   22.2768  -29.7205 H   0  0  0  0  0  0  0  0  0  0  0  0
   -1.3732   21.9196  -30.6758 H   0  0  0  0  0  0  0  0  0  0  0  0
   -0.6827   23.5779  -30.6758 H   0  0  0  0  0  0  0  0  0  0  0  0
   -2.5530   22.3177  -28.7972 H   0  0  0  0  0  0  0  0  0  0  0  0
   -1.0779   23.0052  -27.9721 H   0  0  0  0  0  0  0  0  0  0  0  0
   -1.7293   25.1191  -28.2859 H   0  0  0  0  0  0  0  0  0  0  0  0
   -2.2748   24.7616  -29.9995 H   0  0  0  0  0  0  0  0  0  0  0  0
   -4.2370   25.2190  -29.1650 H   0  0  0  0  0  0  0  0  0  0  0  0
   -3.7104   22.4806  -28.9115 H   0  0  0  0  0  0  0  0  0  0  0  0
   -4.7434   23.0023  -27.5350 H   0  0  0  0  0  0  0  0  0  0  0  0
   -6.1871   22.3704  -29.4017 H   0  0  0  0  0  0  0  0  0  0  0  0
   -6.2564   24.1588  -29.1900 H   0  0  0  0  0  0  0  0  0  0  0  0
   -4.9912   21.1440  -33.3678 H   0  0  0  0  0  0  0  0  0  0  0  0
   -4.2839   22.7935  -33.5773 H   0  0  0  0  0  0  0  0  0  0  0  0
   -3.5064   21.6516  -31.0056 H   0  0  0  0  0  0  0  0  0  0  0  0
   -3.0634   20.5489  -32.3525 H   0  0  0  0  0  0  0  0  0  0  0  0
   -2.4778   22.2470  -32.3525 H   0  0  0  0  0  0  0  0  0  0  0  0
   -7.6953   24.1978  -31.6413 H   0  0  0  0  0  0  0  0  0  0  0  0
  -10.0976   23.5313  -31.7928 H   0  0  0  0  0  0  0  0  0  0  0  0
  -10.6888   21.1643  -32.3284 H   0  0  0  0  0  0  0  0  0  0  0  0
   -8.9240   19.5720  -32.7300 H   0  0  0  0  0  0  0  0  0  0  0  0
   -6.9518   19.0687  -34.5355 H   0  0  0  0  0  0  0  0  0  0  0  0
   -5.7535   20.4202  -34.6385 H   0  0  0  0  0  0  0  0  0  0  0  0
   -4.8030   18.1557  -35.2074 H   0  0  0  0  0  0  0  0  0  0  0  0
   -3.9830   19.0016  -33.8277 H   0  0  0  0  0  0  0  0  0  0  0  0
   -5.8305   16.5980  -33.7805 H   0  0  0  0  0  0  0  0  0  0  0  0
   -4.1651   16.8352  -33.0582 H   0  0  0  0  0  0  0  0  0  0  0  0
   -6.8168   17.3095  -31.8799 H   0  0  0  0  0  0  0  0  0  0  0  0
   -5.1735   17.1328  -31.1145 H   0  0  0  0  0  0  0  0  0  0  0  0
   -6.2835   19.3450  -30.6621 H   0  0  0  0  0  0  0  0  0  0  0  0
   -4.6807   19.4602  -31.4705 H   0  0  0  0  0  0  0  0  0  0  0  0
  1  2  1  0
  2  3  1  0
  3  4  1  0
  4  5  1  0
  5  6  1  0
  6  7  1  0
  7  8  2  0
  7  9  1  0
  9 10  1  0
 10 11  1  0
  9 12  1  0
 12 13  2  0
 13 14  1  0
 14 15  2  0
 15 16  1  0
 16 17  2  0
 17 18  1  0
 18 19  1  0
 19 20  1  0
 20 21  1  0
 21 22  1  0
 22 23  1  0
 17 12  1  0
 23 18  1  0
  1 24  1  0
  1 25  1  0
  1 26  1  0
  2 27  1  0
  2 28  1  0
  3 29  1  0
  3 30  1  0
  4 31  1  0
  5 32  1  0
  5 33  1  0
  6 34  1  0
  6 35  1  0
 10 36  1  0
 10 37  1  0
 11 38  1  0
 11 39  1  0
 11 40  1  0
 13 41  1  0
 14 42  1  0
 15 43  1  0
 16 44  1  0
 19 45  1  0
 19 46  1  0
 20 47  1  0
 20 48  1  0
 21 49  1  0
 21 50  1  0
 22 51  1  0
 22 52  1  0
 23 53  1  0
 23 54  1  0
M  CHG  1  16   1
M  END
>  <UniqueID>  (32) 
32

>  <SMILES>  (32) 
CCCNCCC(=O)N(CC)c1ccc[nH+]c1N1CCCCC1

>  <Energy>  (32) 
53.10981289855645

>  <Genealogy>  (32) 
CCCNCCC(=O)N(CC)c1ccc[nH+]c1N1CCCCC1 (protonated)
CCCNCCC(=O)N(CC)c1ccc[nH+]c1N1CCCCC1 (3D coordinates assigned)
CCCNCCC(=O)N(CC)c1ccc[nH+]c1N1CCCCC1 (nonaromatic ring conformer: 53.10981289855645 kcal/mol)

>  <smiles>  (32) 
CCCNCCC(=O)N(CC)c1cccnc1N1CCCCC1

>  <score_type>  (32) 
oracle

>  <origin>  (32) 
adg

>  <m_score__min__energy>  (32) 
-7.3799999999999999

>  <m_primary>  (32) 
energy

$$$$
32:0
     RDKit          3D

 46 48  0  0  0  0  0  0  0  0999 V2000
   -5.2069   24.8207  -31.6875 H   0  0  0  0  0  0  0  0  0  0  0  0
   -4.6150   24.4250  -30.8490 C   0  0  0  0  0  0  0  0  0  0  0  0
   -3.5680   25.1430  -30.3620 N   0  0  0  0  0  0  0  0  0  0  0  0
   -2.8000   24.7030  -29.3290 C   0  0  0  0  0  0  0  0  0  0  0  0
   -1.8140   25.4550  -28.9250 N   0  0  0  0  0  0  0  0  0  0  0  0
   -1.6040   25.9920  -27.5790 C   0  0  0  0  0  0  0  0  0  0  0  0
   -2.5798   26.2301  -27.1304 H   0  0  0  0  0  0  0  0  0  0  0  0
   -0.9839   26.8973  -27.6558 H   0  0  0  0  0  0  0  0  0  0  0  0
   -0.8880   24.9910  -26.7020 C   0  0  0  0  0  0  0  0  0  0  0  0
   -1.1500   24.9830  -25.3210 C   0  0  0  0  0  0  0  0  0  0  0  0
   -1.8638   25.7047  -24.8971 H   0  0  0  0  0  0  0  0  0  0  0  0
   -0.5120   24.0670  -24.4830 C   0  0  0  0  0  0  0  0  0  0  0  0
   -0.7174   24.0753  -23.4024 H   0  0  0  0  0  0  0  0  0  0  0  0
    0.3850   23.1420  -25.0140 C   0  0  0  0  0  0  0  0  0  0  0  0
    0.8901   22.4244  -24.3508 H   0  0  0  0  0  0  0  0  0  0  0  0
    0.6440   23.1240  -26.3860 C   0  0  0  0  0  0  0  0  0  0  0  0
    1.3497   22.3879  -26.7985 H   0  0  0  0  0  0  0  0  0  0  0  0
    0.0080   24.0420  -27.2470 C   0  0  0  0  0  0  0  0  0  0  0  0
    0.2410   24.0340  -28.6320 O   0  0  0  0  0  0  0  0  0  0  0  0
   -0.1090   22.9670  -29.5060 C   0  0  0  0  0  0  0  0  0  0  0  0
   -0.3977   22.0868  -28.9128 H   0  0  0  0  0  0  0  0  0  0  0  0
   -0.9533   23.2746  -30.1404 H   0  0  0  0  0  0  0  0  0  0  0  0
    0.7535   22.7147  -30.1404 H   0  0  0  0  0  0  0  0  0  0  0  0
   -3.0960   23.4580  -28.7400 C   0  0  0  0  0  0  0  0  0  0  0  0
   -2.4894   23.0838  -27.9021 H   0  0  0  0  0  0  0  0  0  0  0  0
   -4.1630   22.7030  -29.2260 C   0  0  0  0  0  0  0  0  0  0  0  0
   -4.3933   21.7267  -28.7746 H   0  0  0  0  0  0  0  0  0  0  0  0
   -4.9440   23.1830  -30.2880 C   0  0  0  0  0  0  0  0  0  0  0  0
   -6.0730   22.3810  -30.8170 C   0  0  0  0  0  0  0  0  0  0  0  0
   -7.3880   22.7160  -30.4480 C   0  0  0  0  0  0  0  0  0  0  0  0
   -7.5656   23.5728  -29.7814 H   0  0  0  0  0  0  0  0  0  0  0  0
   -8.4700   21.9710  -30.9200 C   0  0  0  0  0  0  0  0  0  0  0  0
   -9.4941   22.2491  -30.6303 H   0  0  0  0  0  0  0  0  0  0  0  0
   -8.2580   20.8720  -31.7600 C   0  0  0  0  0  0  0  0  0  0  0  0
   -9.4240   20.0950  -32.2940 C   0  0  0  0  0  0  0  0  0  0  0  0
  -10.0165   19.7002  -31.4555 H   0  0  0  0  0  0  0  0  0  0  0  0
  -10.0535   20.7548  -32.9091 H   0  0  0  0  0  0  0  0  0  0  0  0
   -9.0574   19.2600  -32.9091 H   0  0  0  0  0  0  0  0  0  0  0  0
   -6.9520   20.5470  -32.1570 C   0  0  0  0  0  0  0  0  0  0  0  0
   -6.7851   19.6996  -32.8382 H   0  0  0  0  0  0  0  0  0  0  0  0
   -5.8520   21.2950  -31.6920 C   0  0  0  0  0  0  0  0  0  0  0  0
   -4.5390   21.0000  -32.0950 O   0  0  0  0  0  0  0  0  0  0  0  0
   -3.8390   21.6760  -33.1340 C   0  0  0  0  0  0  0  0  0  0  0  0
   -3.1142   22.3759  -32.6927 H   0  0  0  0  0  0  0  0  0  0  0  0
   -3.3070   20.9411  -33.7561 H   0  0  0  0  0  0  0  0  0  0  0  0
   -4.5549   22.2333  -33.7561 H   0  0  0  0  0  0  0  0  0  0  0  0
  1  2  1  0
  2  3  1  0
  3  4  1  0
  4  5  2  0
  5  6  1  0
  6  7  1  0
  6  8  1  0
  6  9  1  0
  9 10  2  0
 10 11  1  0
 10 12  1  0
 12 13  1  0
 12 14  2  0
 14 15  1  0
 14 16  1  0
 16 17  1  0
 16 18  2  0
 18 19  1  0
 19 20  1  0
 20 21  1  0
 20 22  1  0
 20 23  1  0
  4 24  1  0
 24 25  1  0
 24 26  2  0
 26 27  1  0
 26 28  1  0
 28 29  1  0
 29 30  2  0
 30 31  1  0
 30 32  1  0
 32 33  1  0
 32 34  2  0
 34 35  1  0
 35 36  1  0
 35 37  1  0
 35 38  1  0
 34 39  1  0
 39 40  1  0
 39 41  2  0
 41 42  1  0
 42 43  1  0
 43 44  1  0
 43 45  1  0
 43 46  1  0
 28  2  2  0
 41 29  1  0
 18  9  1  0
M  CHG  1   3  -1
M  END
>  <UniqueID>  (33) 
33

>  <SMILES>  (33) 
COc1ccccc1C/N=c1\ccc(-c2ccc(C)cc2OC)c[n-]1

>  <Energy>  (33) 
56.011493396772174

>  <Genealogy>  (33) 
COc1ccccc1CN=c1ccc(-c2ccc(C)cc2OC)c[n-]1 (protonated)
COc1ccccc1C/N=c1\ccc(-c2ccc(C)cc2OC)c[n-]1 (cis-trans isomerization)
COc1ccccc1C/N=c1\ccc(-c2ccc(C)cc2OC)c[n-]1 (3D coordinates assigned)
COc1ccccc1C/N=c1\ccc(-c2ccc(C)cc2OC)c[n-]1 (optimized conformer: 56.011493396772174 kcal/mol)

>  <smiles>  (33) 
COc1ccccc1CN=c1ccc(-c2ccc(C)cc2OC)c[nH]1

>  <score_type>  (33) 
oracle

>  <origin>  (33) 
adg

>  <m_score__min__energy>  (33) 
-10.09

>  <m_primary>  (33) 
energy

$$$$
33:0
     RDKit          3D

 45 46  0  0  0  0  0  0  0  0999 V2000
   -5.6058   25.9341  -31.2556 H   0  0  0  0  0  0  0  0  0  0  0  0
   -4.9940   25.0810  -30.9270 C   0  0  0  0  0  0  0  0  0  0  0  0
   -3.8320   25.2970  -30.2670 N   0  0  0  0  0  0  0  0  0  0  0  0
   -3.0130   24.2790  -29.8950 C   0  0  0  0  0  0  0  0  0  0  0  0
   -1.7940   24.5880  -29.2690 C   0  0  0  0  0  0  0  0  0  0  0  0
   -1.5170   25.9280  -28.9520 O   0  0  0  0  0  0  0  0  0  0  0  0
   -0.8920   26.3610  -27.7480 C   0  0  0  0  0  0  0  0  0  0  0  0
   -1.4519   25.9731  -26.8842 H   0  0  0  0  0  0  0  0  0  0  0  0
    0.1408   25.9839  -27.7149 H   0  0  0  0  0  0  0  0  0  0  0  0
   -0.8821   27.4605  -27.7149 H   0  0  0  0  0  0  0  0  0  0  0  0
   -0.8830   23.5560  -28.9920 C   0  0  0  0  0  0  0  0  0  0  0  0
    0.0549   23.7794  -28.4624 H   0  0  0  0  0  0  0  0  0  0  0  0
   -1.1640   22.2510  -29.3860 C   0  0  0  0  0  0  0  0  0  0  0  0
   -0.4238   21.4561  -29.2123 H   0  0  0  0  0  0  0  0  0  0  0  0
   -2.3790   21.9450  -30.0000 C   0  0  0  0  0  0  0  0  0  0  0  0
   -2.5667   20.9175  -30.3448 H   0  0  0  0  0  0  0  0  0  0  0  0
   -3.3700   22.9300  -30.1860 C   0  0  0  0  0  0  0  0  0  0  0  0
   -4.6630   22.6830  -30.7520 C   0  0  0  0  0  0  0  0  0  0  0  0
   -5.2780   21.5280  -30.8140 N   0  0  0  0  0  0  0  0  0  0  0  0
   -5.2060   20.3770  -31.7180 C   0  0  0  0  0  0  0  0  0  0  0  0
   -5.7608   19.5359  -31.2767 H   0  0  0  0  0  0  0  0  0  0  0  0
   -4.1498   20.1046  -31.8604 H   0  0  0  0  0  0  0  0  0  0  0  0
   -5.8150   20.7210  -33.0830 C   0  0  0  0  0  0  0  0  0  0  0  0
   -5.0189   20.6838  -33.8412 H   0  0  0  0  0  0  0  0  0  0  0  0
   -6.2586   21.7243  -33.0014 H   0  0  0  0  0  0  0  0  0  0  0  0
   -6.9350   19.7570  -33.5020 C   0  0  0  0  0  0  0  0  0  0  0  0
   -6.7526   18.7728  -33.0459 H   0  0  0  0  0  0  0  0  0  0  0  0
   -6.9382   19.6770  -34.5991 H   0  0  0  0  0  0  0  0  0  0  0  0
   -8.2560   20.2590  -33.0600 N   0  0  0  0  0  0  0  0  0  0  0  0
   -8.0910   21.4380  -32.1790 C   0  0  0  0  0  0  0  0  0  0  0  0
   -7.9305   22.3305  -32.8016 H   0  0  0  0  0  0  0  0  0  0  0  0
   -7.2273   21.2609  -31.5212 H   0  0  0  0  0  0  0  0  0  0  0  0
   -9.3260   21.6570  -31.3040 C   0  0  0  0  0  0  0  0  0  0  0  0
   -9.0378   21.6059  -30.2436 H   0  0  0  0  0  0  0  0  0  0  0  0
   -9.7574   22.6457  -31.5195 H   0  0  0  0  0  0  0  0  0  0  0  0
  -10.0711   20.8770  -31.5195 H   0  0  0  0  0  0  0  0  0  0  0  0
   -9.0560   19.1900  -32.4040 C   0  0  0  0  0  0  0  0  0  0  0  0
   -9.7557   19.6445  -31.6872 H   0  0  0  0  0  0  0  0  0  0  0  0
   -9.6195   18.6352  -33.1686 H   0  0  0  0  0  0  0  0  0  0  0  0
   -8.1260   18.2320  -31.6670 C   0  0  0  0  0  0  0  0  0  0  0  0
   -8.2515   18.3613  -30.5819 H   0  0  0  0  0  0  0  0  0  0  0  0
   -8.3723   17.1963  -31.9438 H   0  0  0  0  0  0  0  0  0  0  0  0
   -7.0834   18.4475  -31.9438 H   0  0  0  0  0  0  0  0  0  0  0  0
   -5.4150   23.7830  -31.1900 C   0  0  0  0  0  0  0  0  0  0  0  0
   -6.3483   23.6164  -31.7478 H   0  0  0  0  0  0  0  0  0  0  0  0
  1  2  1  0
  2  3  1  0
  3  4  1  0
  4  5  2  0
  5  6  1  0
  6  7  1  0
  7  8  1  0
  7  9  1  0
  7 10  1  0
  5 11  1  0
 11 12  1  0
 11 13  2  0
 13 14  1  0
 13 15  1  0
 15 16  1  0
 15 17  2  0
 17 18  1  0
 18 19  2  0
 19 20  1  0
 20 21  1  0
 20 22  1  0
 20 23  1  0
 23 24  1  0
 23 25  1  0
 23 26  1  0
 26 27  1  0
 26 28  1  0
 26 29  1  0
 29 30  1  0
 30 31  1  0
 30 32  1  0
 30 33  1  0
 33 34  1  0
 33 35  1  0
 33 36  1  0
 29 37  1  0
 37 38  1  0
 37 39  1  0
 37 40  1  0
 40 41  1  0
 40 42  1  0
 40 43  1  0
 18 44  1  0
 44 45  1  0
 44  2  2  0
 17  4  1  0
M  CHG  1   3  -1
M  END
>  <UniqueID>  (34) 
34

>  <SMILES>  (34) 
CCN(CC)CCC/N=c1/cc[n-]c2c(OC)cccc12

>  <Energy>  (34) 
66.37438899268862

>  <Genealogy>  (34) 
CCN(CC)CCCN=c1cc[n-]c2c(OC)cccc12 (protonated)
CCN(CC)CCC/N=c1/cc[n-]c2c(OC)cccc12 (cis-trans isomerization)
CCN(CC)CCC/N=c1/cc[n-]c2c(OC)cccc12 (3D coordinates assigned)
CCN(CC)CCC/N=c1/cc[n-]c2c(OC)cccc12 (optimized conformer: 66.37438899268862 kcal/mol)

>  <smiles>  (34) 
CCN(CC)CCCN=c1cc[nH]c2c(OC)cccc12

>  <score_type>  (34) 
oracle

>  <origin>  (34) 
adg

>  <m_score__min__energy>  (34) 
-9.2599999999999998

>  <m_primary>  (34) 
energy

$$$$
34:0
     RDKit          3D

 29 31  0  0  0  0  0  0  0  0999 V2000
   -5.6810   18.1710  -34.9660 C   0  0  0  0  0  0  0  0  0  0  0  0
   -5.9570   17.1120  -33.5130 S   0  0  0  0  0  0  0  0  0  0  0  0
   -6.9940   18.3190  -32.6830 C   0  0  0  0  0  0  0  0  0  0  0  0
   -8.3120   17.9950  -32.3490 C   0  0  0  0  0  0  0  0  0  0  0  0
   -9.1160   18.9300  -31.6950 C   0  0  0  0  0  0  0  0  0  0  0  0
   -8.6100   20.1920  -31.3790 C   0  0  0  0  0  0  0  0  0  0  0  0
   -7.2900   20.5410  -31.7220 C   0  0  0  0  0  0  0  0  0  0  0  0
   -6.7660   21.8860  -31.3720 C   0  0  0  0  0  0  0  0  0  0  0  0
   -5.3740   22.1380  -31.2850 C   0  0  0  0  0  0  0  0  0  0  0  0
   -4.9790   23.4300  -30.9550 C   0  0  0  0  0  0  0  0  0  0  0  0
   -3.7240   23.9800  -30.8000 C   0  0  0  0  0  0  0  0  0  0  0  0
   -3.8320   25.2940  -30.4810 N   0  0  0  0  0  0  0  0  0  0  0  0
   -5.1590   25.5550  -30.4400 C   0  0  0  0  0  0  0  0  0  0  0  0
   -5.6830   26.8100  -30.1430 O   0  0  0  0  0  0  0  0  0  0  0  0
   -5.8850   24.4210  -30.7290 C   0  0  0  0  0  0  0  0  0  0  0  0
   -7.2500   24.1760  -30.8240 C   0  0  0  0  0  0  0  0  0  0  0  0
   -7.6520   22.9130  -31.1450 N   0  0  0  0  0  0  0  0  0  0  0  0
   -6.4840   19.5850  -32.3720 C   0  0  0  0  0  0  0  0  0  0  0  0
   -5.4164   19.1861  -34.6349 H   0  0  0  0  0  0  0  0  0  0  0  0
   -4.8607   17.7571  -35.5709 H   0  0  0  0  0  0  0  0  0  0  0  0
   -6.5989   18.2102  -35.5709 H   0  0  0  0  0  0  0  0  0  0  0  0
   -8.7156   17.0034  -32.6015 H   0  0  0  0  0  0  0  0  0  0  0  0
  -10.1513   18.6716  -31.4279 H   0  0  0  0  0  0  0  0  0  0  0  0
   -9.2484   20.9203  -30.8573 H   0  0  0  0  0  0  0  0  0  0  0  0
   -4.6359   21.3438  -31.4710 H   0  0  0  0  0  0  0  0  0  0  0  0
   -2.7762   23.4343  -30.9176 H   0  0  0  0  0  0  0  0  0  0  0  0
   -5.7750   27.1280  -29.1870 H   0  0  0  0  0  0  0  0  0  0  0  0
   -7.9834   24.9763  -30.6457 H   0  0  0  0  0  0  0  0  0  0  0  0
   -5.4462   19.8355  -32.6370 H   0  0  0  0  0  0  0  0  0  0  0  0
  1  2  1  0
  2  3  1  0
  3  4  2  0
  4  5  1  0
  5  6  2  0
  6  7  1  0
  7  8  1  0
  8  9  2  0
  9 10  1  0
 10 11  2  0
 11 12  1  0
 12 13  1  0
 13 14  1  0
 13 15  2  0
 15 16  1  0
 16 17  2  0
  7 18  2  0
 18  3  1  0
 17  8  1  0
 15 10  1  0
  1 19  1  0
  1 20  1  0
  1 21  1  0
  4 22  1  0
  5 23  1  0
  6 24  1  0
  9 25  1  0
 11 26  1  0
 14 27  1  0
 16 28  1  0
 18 29  1  0
M  CHG  1  12  -1
M  END
>  <UniqueID>  (35) 
35

>  <SMILES>  (35) 
CSc1cccc(-c2cc3c[n-]c(O)c3cn2)c1

>  <Energy>  (35) 
66.21706871939834

>  <Genealogy>  (35) 
CSc1cccc(-c2cc3c[n-]c(O)c3cn2)c1 (protonated)
CSc1cccc(-c2cc3c[n-]c(O)c3cn2)c1 (3D coordinates assigned)
CSc1cccc(-c2cc3c[n-]c(O)c3cn2)c1 (optimized conformer: 66.21706871939834 kcal/mol)

>  <smiles>  (35) 
CSc1cccc(-c2cc3c[nH]c(O)c3cn2)c1

>  <score_type>  (35) 
oracle

>  <origin>  (35) 
adg

>  <m_score__min__energy>  (35) 
-9.5700000000000003

>  <m_primary>  (35) 
energy

$$$$
35:0
     RDKit          3D

 24 25  0  0  0  0  0  0  0  0999 V2000
   -6.8570   16.8970  -33.4630 C   0  0  0  0  0  0  0  0  0  0  0  0
   -7.8780   17.8080  -33.0670 O   0  0  0  0  0  0  0  0  0  0  0  0
   -7.6410   19.1130  -32.6100 C   0  0  0  0  0  0  0  0  0  0  0  0
   -8.6710   19.9410  -32.1260 C   0  0  0  0  0  0  0  0  0  0  0  0
   -8.3900   21.2350  -31.6810 C   0  0  0  0  0  0  0  0  0  0  0  0
   -7.0760   21.7240  -31.7140 C   0  0  0  0  0  0  0  0  0  0  0  0
   -6.7840   23.0230  -31.2680 C   0  0  0  0  0  0  0  0  0  0  0  0
   -5.4650   23.5120  -31.3020 C   0  0  0  0  0  0  0  0  0  0  0  0
   -5.1630   24.8430  -30.8450 N   0  0  0  0  0  0  0  0  0  0  0  0
   -6.0740   25.6080  -30.4640 O   0  0  0  0  0  0  0  0  0  0  0  0
   -3.8650   25.2970  -30.8220 O   0  0  0  0  0  0  0  0  0  0  0  0
   -4.4400   22.6800  -31.7870 C   0  0  0  0  0  0  0  0  0  0  0  0
   -4.7230   21.3860  -32.2320 C   0  0  0  0  0  0  0  0  0  0  0  0
   -6.0360   20.8990  -32.1990 C   0  0  0  0  0  0  0  0  0  0  0  0
   -6.3280   19.6000  -32.6430 C   0  0  0  0  0  0  0  0  0  0  0  0
   -6.3791   16.4706  -32.5687 H   0  0  0  0  0  0  0  0  0  0  0  0
   -7.2997   16.0883  -34.0630 H   0  0  0  0  0  0  0  0  0  0  0  0
   -6.1038   17.4286  -34.0630 H   0  0  0  0  0  0  0  0  0  0  0  0
   -9.7049   19.5665  -32.0979 H   0  0  0  0  0  0  0  0  0  0  0  0
   -9.2026   21.8729  -31.3032 H   0  0  0  0  0  0  0  0  0  0  0  0
   -7.5935   23.6640  -30.8887 H   0  0  0  0  0  0  0  0  0  0  0  0
   -3.4051   23.0517  -31.8163 H   0  0  0  0  0  0  0  0  0  0  0  0
   -3.9112   20.7470  -32.6098 H   0  0  0  0  0  0  0  0  0  0  0  0
   -5.5182   18.9583  -33.0204 H   0  0  0  0  0  0  0  0  0  0  0  0
  1  2  1  0
  2  3  1  0
  3  4  2  0
  4  5  1  0
  5  6  2  0
  6  7  1  0
  7  8  2  0
  8  9  1  0
  9 10  2  0
  9 11  1  0
  8 12  1  0
 12 13  2  0
 13 14  1  0
 14 15  2  0
 15  3  1  0
 14  6  1  0
  1 16  1  0
  1 17  1  0
  1 18  1  0
  4 19  1  0
  5 20  1  0
  7 21  1  0
 12 22  1  0
 13 23  1  0
 15 24  1  0
M  CHG  2   9   1  11  -1
M  END
>  <UniqueID>  (36) 
36

>  <SMILES>  (36) 
COc1ccc2cc([N+](=O)[O-])ccc2c1

>  <Energy>  (36) 
28.2631040543569

>  <Genealogy>  (36) 
COc1ccc2cc([N+](=O)[O-])ccc2c1 (3D coordinates assigned)
COc1ccc2cc([N+](=O)[O-])ccc2c1 (optimized conformer: 28.2631040543569 kcal/mol)

>  <smiles>  (36) 
COc1ccc2cc([N+](=O)[O-])ccc2c1

>  <score_type>  (36) 
oracle

>  <origin>  (36) 
adg

>  <m_score__min__energy>  (36) 
-6.9800000000000004

>  <m_primary>  (36) 
energy

$$$$
36:0
     RDKit          3D

 49 51  0  0  0  0  0  0  0  0999 V2000
   -2.6700   20.9360  -32.3300 C   0  0  0  0  0  0  0  0  0  0  0  0
   -2.0740   21.7690  -31.2240 C   0  0  0  0  0  0  0  0  0  0  0  0
   -0.7390   21.5290  -30.8560 C   0  0  0  0  0  0  0  0  0  0  0  0
   -0.1460   22.2410  -29.8140 C   0  0  0  0  0  0  0  0  0  0  0  0
   -0.8740   23.2080  -29.1110 C   0  0  0  0  0  0  0  0  0  0  0  0
   -0.2440   23.9750  -28.0100 C   0  0  0  0  0  0  0  0  0  0  0  0
    0.0480   25.1870  -28.1980 O   0  0  0  0  0  0  0  0  0  0  0  0
    0.0570   23.3680  -26.7390 N   0  0  0  0  0  0  0  0  0  0  0  0
   -0.8340   22.3720  -26.1360 C   0  0  0  0  0  0  0  0  0  0  0  0
    1.2550   23.7870  -26.0110 C   0  0  0  0  0  0  0  0  0  0  0  0
   -2.1960   23.4800  -29.4940 C   0  0  0  0  0  0  0  0  0  0  0  0
   -2.8090   22.7810  -30.5500 C   0  0  0  0  0  0  0  0  0  0  0  0
   -4.2050   23.1390  -30.9170 C   0  0  0  0  0  0  0  0  0  0  0  0
   -4.6020   24.4400  -30.8940 N   0  0  0  0  0  0  0  0  0  0  0  0
   -5.8650   24.7960  -31.2470 C   0  0  0  0  0  0  0  0  0  0  0  0
   -6.7760   23.8230  -31.6490 C   0  0  0  0  0  0  0  0  0  0  0  0
   -6.3570   22.4870  -31.6860 C   0  0  0  0  0  0  0  0  0  0  0  0
   -7.2560   21.4380  -32.0920 N   0  0  0  0  0  0  0  0  0  0  0  0
   -8.5790   21.3450  -31.4680 C   0  0  0  0  0  0  0  0  0  0  0  0
   -9.5680   20.6200  -32.3880 C   0  0  0  0  0  0  0  0  0  0  0  0
   -9.2440   19.1150  -32.4900 C   0  0  0  0  0  0  0  0  0  0  0  0
   -8.2430   18.6390  -31.6010 O   0  0  0  0  0  0  0  0  0  0  0  0
   -6.9060   19.0150  -31.9090 C   0  0  0  0  0  0  0  0  0  0  0  0
   -6.7350   20.2610  -32.7990 C   0  0  0  0  0  0  0  0  0  0  0  0
   -5.0830   22.1820  -31.3200 N   0  0  0  0  0  0  0  0  0  0  0  0
   -3.2577   20.1146  -31.8943 H   0  0  0  0  0  0  0  0  0  0  0  0
   -3.3240   21.5654  -32.9514 H   0  0  0  0  0  0  0  0  0  0  0  0
   -1.8632   20.5202  -32.9514 H   0  0  0  0  0  0  0  0  0  0  0  0
   -0.1546   20.7700  -31.3967 H   0  0  0  0  0  0  0  0  0  0  0  0
    0.9011   22.0414  -29.5426 H   0  0  0  0  0  0  0  0  0  0  0  0
   -0.7724   22.4408  -25.0399 H   0  0  0  0  0  0  0  0  0  0  0  0
   -1.8684   22.5628  -26.4578 H   0  0  0  0  0  0  0  0  0  0  0  0
   -0.5296   21.3651  -26.4578 H   0  0  0  0  0  0  0  0  0  0  0  0
    1.0681   23.7216  -24.9290 H   0  0  0  0  0  0  0  0  0  0  0  0
    2.0953   23.1294  -26.2784 H   0  0  0  0  0  0  0  0  0  0  0  0
    1.5023   24.8250  -26.2784 H   0  0  0  0  0  0  0  0  0  0  0  0
   -2.7642   24.2547  -28.9583 H   0  0  0  0  0  0  0  0  0  0  0  0
   -6.1676   25.8531  -31.2151 H   0  0  0  0  0  0  0  0  0  0  0  0
   -7.8030   24.0976  -31.9316 H   0  0  0  0  0  0  0  0  0  0  0  0
   -8.4930   20.7894  -30.5225 H   0  0  0  0  0  0  0  0  0  0  0  0
   -8.9526   22.3629  -31.2829 H   0  0  0  0  0  0  0  0  0  0  0  0
  -10.5848   20.7406  -31.9860 H   0  0  0  0  0  0  0  0  0  0  0  0
   -9.4906   21.0593  -33.3935 H   0  0  0  0  0  0  0  0  0  0  0  0
  -10.1693   18.5556  -32.2879 H   0  0  0  0  0  0  0  0  0  0  0  0
   -8.8429   18.9624  -33.5028 H   0  0  0  0  0  0  0  0  0  0  0  0
   -6.3848   19.2072  -30.9596 H   0  0  0  0  0  0  0  0  0  0  0  0
   -6.4933   18.1789  -32.4926 H   0  0  0  0  0  0  0  0  0  0  0  0
   -5.6682   20.4092  -33.0226 H   0  0  0  0  0  0  0  0  0  0  0  0
   -7.2887   20.1210  -33.7391 H   0  0  0  0  0  0  0  0  0  0  0  0
  1  2  1  0
  2  3  2  0
  3  4  1  0
  4  5  2  0
  5  6  1  0
  6  7  2  0
  6  8  1  0
  8  9  1  0
  8 10  1  0
  5 11  1  0
 11 12  2  0
 12 13  1  0
 13 14  2  0
 14 15  1  0
 15 16  2  0
 16 17  1  0
 17 18  1  0
 18 19  1  0
 19 20  1  0
 20 21  1  0
 21 22  1  0
 22 23  1  0
 23 24  1  0
 17 25  2  0
 12  2  1  0
 25 13  1  0
 24 18  1  0
  1 26  1  0
  1 27  1  0
  1 28  1  0
  3 29  1  0
  4 30  1  0
  9 31  1  0
  9 32  1  0
  9 33  1  0
 10 34  1  0
 10 35  1  0
 10 36  1  0
 11 37  1  0
 15 38  1  0
 16 39  1  0
 19 40  1  0
 19 41  1  0
 20 42  1  0
 20 43  1  0
 21 44  1  0
 21 45  1  0
 23 46  1  0
 23 47  1  0
 24 48  1  0
 24 49  1  0
M  END
>  <UniqueID>  (37) 
37

>  <SMILES>  (37) 
Cc1ccc(C(=O)N(C)C)cc1-c1nccc(N2CCCOCC2)n1

>  <Energy>  (37) 
73.40950183576415

>  <Genealogy>  (37) 
Cc1ccc(C(=O)N(C)C)cc1-c1nccc(N2CCCOCC2)n1 (3D coordinates assigned)
Cc1ccc(C(=O)N(C)C)cc1-c1nccc(N2CCCOCC2)n1 (nonaromatic ring conformer: 73.40950183576415 kcal/mol)

>  <smiles>  (37) 
Cc1ccc(C(=O)N(C)C)cc1-c1nccc(N2CCCOCC2)n1

>  <score_type>  (37) 
oracle

>  <origin>  (37) 
adg

>  <m_score__min__energy>  (37) 
-6.6299999999999999

>  <m_primary>  (37) 
energy

$$$$
37:0
     RDKit          3D

 53 56  0  0  0  0  0  0  0  0999 V2000
   -5.6360   24.7420  -29.7680 C   0  0  0  0  0  0  0  0  0  0  0  0
   -5.0340   24.0240  -30.9020 N   0  0  0  0  0  0  0  0  0  0  0  0
   -4.2210   22.8380  -30.5410 C   0  0  0  0  0  0  0  0  0  0  0  0
   -2.6990   23.0400  -30.6720 C   0  0  0  0  0  0  0  0  0  0  0  0
   -2.0780   22.9570  -29.3520 N   0  0  0  0  0  0  0  0  0  0  0  0
   -1.9710   23.9960  -28.5320 N   0  0  0  0  0  0  0  0  0  0  0  0
   -1.4980   23.5470  -27.3470 C   0  0  0  0  0  0  0  0  0  0  0  0
   -1.2220   24.4190  -26.1850 C   0  0  0  0  0  0  0  0  0  0  0  0
   -0.3380   24.0170  -25.1670 C   0  0  0  0  0  0  0  0  0  0  0  0
   -0.1120   24.8370  -24.1060 N   0  0  0  0  0  0  0  0  0  0  0  0
   -0.7290   26.0460  -24.0130 C   0  0  0  0  0  0  0  0  0  0  0  0
   -1.6070   26.4520  -25.0210 C   0  0  0  0  0  0  0  0  0  0  0  0
   -1.8360   25.6300  -26.0780 N   0  0  0  0  0  0  0  0  0  0  0  0
   -1.3340   22.1690  -27.4270 C   0  0  0  0  0  0  0  0  0  0  0  0
   -1.6830   21.8390  -28.7080 C   0  0  0  0  0  0  0  0  0  0  0  0
   -1.7160   20.4290  -29.2180 C   0  0  0  0  0  0  0  0  0  0  0  0
   -0.9730   19.4930  -28.2350 C   0  0  0  0  0  0  0  0  0  0  0  0
   -1.2790   19.7810  -26.8100 N   0  0  0  0  0  0  0  0  0  0  0  0
   -2.6880   19.4990  -26.4790 C   0  0  0  0  0  0  0  0  0  0  0  0
   -0.8860   21.1570  -26.4100 C   0  0  0  0  0  0  0  0  0  0  0  0
   -5.9360   23.8430  -32.0610 C   0  0  0  0  0  0  0  0  0  0  0  0
   -6.8120   22.6140  -31.9680 C   0  0  0  0  0  0  0  0  0  0  0  0
   -8.0260   22.6450  -31.2620 C   0  0  0  0  0  0  0  0  0  0  0  0
   -8.8200   21.4980  -31.1880 C   0  0  0  0  0  0  0  0  0  0  0  0
   -8.3920   20.3250  -31.8130 C   0  0  0  0  0  0  0  0  0  0  0  0
   -7.2090   20.3040  -32.4840 N   0  0  0  0  0  0  0  0  0  0  0  0
   -6.4170   21.4070  -32.5720 C   0  0  0  0  0  0  0  0  0  0  0  0
   -5.2724   24.3083  -28.8248 H   0  0  0  0  0  0  0  0  0  0  0  0
   -5.3546   25.8043  -29.8156 H   0  0  0  0  0  0  0  0  0  0  0  0
   -6.7311   24.6502  -29.8156 H   0  0  0  0  0  0  0  0  0  0  0  0
   -4.4435   22.5744  -29.4965 H   0  0  0  0  0  0  0  0  0  0  0  0
   -4.4928   22.0450  -31.2532 H   0  0  0  0  0  0  0  0  0  0  0  0
   -2.2807   22.2583  -31.3231 H   0  0  0  0  0  0  0  0  0  0  0  0
   -2.4981   24.0295  -31.1086 H   0  0  0  0  0  0  0  0  0  0  0  0
    0.1687   23.0426  -25.2291 H   0  0  0  0  0  0  0  0  0  0  0  0
    0.5420   24.5330  -23.3490 H   0  0  0  0  0  0  0  0  0  0  0  0
   -0.5377   26.6999  -23.1494 H   0  0  0  0  0  0  0  0  0  0  0  0
   -2.1086   27.4290  -24.9593 H   0  0  0  0  0  0  0  0  0  0  0  0
   -2.7615   20.1007  -29.3138 H   0  0  0  0  0  0  0  0  0  0  0  0
   -1.2207   20.3884  -30.1994 H   0  0  0  0  0  0  0  0  0  0  0  0
   -1.2645   18.4549  -28.4525 H   0  0  0  0  0  0  0  0  0  0  0  0
    0.1052   19.6574  -28.3780 H   0  0  0  0  0  0  0  0  0  0  0  0
   -2.8101   19.4746  -25.3861 H   0  0  0  0  0  0  0  0  0  0  0  0
   -3.3288   20.2867  -26.9020 H   0  0  0  0  0  0  0  0  0  0  0  0
   -2.9762   18.5254  -26.9020 H   0  0  0  0  0  0  0  0  0  0  0  0
   -1.3481   21.3943  -25.4404 H   0  0  0  0  0  0  0  0  0  0  0  0
    0.2109   21.1983  -26.3382 H   0  0  0  0  0  0  0  0  0  0  0  0
   -6.5861   24.7272  -32.1356 H   0  0  0  0  0  0  0  0  0  0  0  0
   -5.2967   23.7138  -32.9467 H   0  0  0  0  0  0  0  0  0  0  0  0
   -8.3514   23.5722  -30.7676 H   0  0  0  0  0  0  0  0  0  0  0  0
   -9.7746   21.5187  -30.6418 H   0  0  0  0  0  0  0  0  0  0  0  0
   -9.0117   19.4176  -31.7627 H   0  0  0  0  0  0  0  0  0  0  0  0
   -5.4635   21.3543  -33.1180 H   0  0  0  0  0  0  0  0  0  0  0  0
  1  2  1  0
  2  3  1  0
  3  4  1  0
  4  5  1  0
  5  6  1  0
  6  7  2  0
  7  8  1  0
  8  9  2  0
  9 10  1  0
 10 11  2  0
 11 12  1  0
 12 13  2  0
  7 14  1  0
 14 15  2  0
 15 16  1  0
 16 17  1  0
 17 18  1  0
 18 19  1  0
 18 20  1  0
  2 21  1  0
 21 22  1  0
 22 23  2  0
 23 24  1  0
 24 25  2  0
 25 26  1  0
 26 27  2  0
 15  5  1  0
 27 22  1  0
 13  8  1  0
 20 14  1  0
  1 28  1  0
  1 29  1  0
  1 30  1  0
  3 31  1  0
  3 32  1  0
  4 33  1  0
  4 34  1  0
  9 35  1  0
 10 36  1  0
 11 37  1  0
 12 38  1  0
 16 39  1  0
 16 40  1  0
 17 41  1  0
 17 42  1  0
 19 43  1  0
 19 44  1  0
 19 45  1  0
 20 46  1  0
 20 47  1  0
 21 48  1  0
 21 49  1  0
 23 50  1  0
 24 51  1  0
 25 52  1  0
 27 53  1  0
M  CHG  1  10   1
M  END
>  <UniqueID>  (38) 
38

>  <SMILES>  (38) 
CN(CCn1nc(-c2c[nH+]ccn2)c2c1CCN(C)C2)Cc1cccnc1

>  <Energy>  (38) 
100.51314427409385

>  <Genealogy>  (38) 
CN(CCn1nc(-c2c[nH+]ccn2)c2c1CCN(C)C2)Cc1cccnc1 (protonated)
CN(CCn1nc(-c2c[nH+]ccn2)c2c1CCN(C)C2)Cc1cccnc1 (3D coordinates assigned)
CN(CCn1nc(-c2c[nH+]ccn2)c2c1CCN(C)C2)Cc1cccnc1 (nonaromatic ring conformer: 100.51314427409385 kcal/mol)

>  <smiles>  (38) 
CN(CCn1nc(-c2cnccn2)c2c1CCN(C)C2)Cc1cccnc1

>  <score_type>  (38) 
oracle

>  <origin>  (38) 
adg

>  <m_score__min__energy>  (38) 
-8.8800000000000008

>  <m_primary>  (38) 
energy

$$$$
38:0
     RDKit          3D

 63 65  0  0  0  0  0  0  0  0999 V2000
   -9.3670   22.0180  -31.5520 C   0  0  0  0  0  0  0  0  0  0  0  0
   -8.4490   20.8300  -31.2310 C   0  0  0  0  0  0  0  0  0  0  0  0
   -8.5210   19.7170  -32.2150 N   0  0  0  0  0  0  0  0  0  0  0  0
   -7.6240   19.9390  -33.3730 C   0  0  0  0  0  0  0  0  0  0  0  0
   -6.4340   20.8040  -32.9730 C   0  0  0  0  0  0  0  0  0  0  0  0
   -8.3170   18.3740  -31.6170 C   0  0  0  0  0  0  0  0  0  0  0  0
   -6.9190   17.7930  -31.9100 C   0  0  0  0  0  0  0  0  0  0  0  0
   -6.8680   16.8310  -33.1130 C   0  0  0  0  0  0  0  0  0  0  0  0
   -5.4510   16.5150  -33.6100 C   0  0  0  0  0  0  0  0  0  0  0  0
   -4.6840   17.7530  -33.9720 C   0  0  0  0  0  0  0  0  0  0  0  0
   -5.1890   18.5870  -34.7700 O   0  0  0  0  0  0  0  0  0  0  0  0
   -3.3650   17.9580  -33.4410 N   0  0  0  0  0  0  0  0  0  0  0  0
   -2.5690   19.1570  -33.7160 C   0  0  0  0  0  0  0  0  0  0  0  0
   -3.2350   20.4010  -33.1060 C   0  0  0  0  0  0  0  0  0  0  0  0
   -3.0080   20.5180  -31.5850 C   0  0  0  0  0  0  0  0  0  0  0  0
   -2.2400   21.7080  -31.2200 N   0  0  0  0  0  0  0  0  0  0  0  0
   -2.4410   22.7830  -30.4940 C   0  0  0  0  0  0  0  0  0  0  0  0
   -3.6640   23.4700  -30.7270 C   0  0  0  0  0  0  0  0  0  0  0  0
   -4.6620   22.9510  -31.5890 C   0  0  0  0  0  0  0  0  0  0  0  0
   -5.8280   23.6770  -31.8490 C   0  0  0  0  0  0  0  0  0  0  0  0
   -6.0240   24.9250  -31.2580 C   0  0  0  0  0  0  0  0  0  0  0  0
   -5.0540   25.4530  -30.4040 C   0  0  0  0  0  0  0  0  0  0  0  0
   -3.8810   24.7370  -30.1400 C   0  0  0  0  0  0  0  0  0  0  0  0
   -2.9400   25.2860  -29.3420 N   0  0  0  0  0  0  0  0  0  0  0  0
   -1.7820   24.6530  -29.0420 C   0  0  0  0  0  0  0  0  0  0  0  0
   -0.8800   25.2930  -28.1820 C   0  0  0  0  0  0  0  0  0  0  0  0
    0.2910   24.6560  -27.7890 C   0  0  0  0  0  0  0  0  0  0  0  0
    0.5540   23.3620  -28.2270 C   0  0  0  0  0  0  0  0  0  0  0  0
   -0.3350   22.7130  -29.0890 C   0  0  0  0  0  0  0  0  0  0  0  0
   -1.5010   23.3580  -29.5690 C   0  0  0  0  0  0  0  0  0  0  0  0
   -9.7188   22.4733  -30.6145 H   0  0  0  0  0  0  0  0  0  0  0  0
   -8.8093   22.7651  -32.1357 H   0  0  0  0  0  0  0  0  0  0  0  0
  -10.2306   21.6668  -32.1357 H   0  0  0  0  0  0  0  0  0  0  0  0
   -7.4118   21.1950  -31.1991 H   0  0  0  0  0  0  0  0  0  0  0  0
   -8.7884   20.4211  -30.2678 H   0  0  0  0  0  0  0  0  0  0  0  0
   -7.2583   18.9680  -33.7382 H   0  0  0  0  0  0  0  0  0  0  0  0
   -8.1876   20.4557  -34.1638 H   0  0  0  0  0  0  0  0  0  0  0  0
   -6.3679   20.8520  -31.8760 H   0  0  0  0  0  0  0  0  0  0  0  0
   -5.5097   20.3655  -33.3772 H   0  0  0  0  0  0  0  0  0  0  0  0
   -6.5658   21.8185  -33.3772 H   0  0  0  0  0  0  0  0  0  0  0  0
   -8.4433   18.4522  -30.5271 H   0  0  0  0  0  0  0  0  0  0  0  0
   -9.0572   17.6962  -32.0671 H   0  0  0  0  0  0  0  0  0  0  0  0
   -6.2337   18.6299  -32.1096 H   0  0  0  0  0  0  0  0  0  0  0  0
   -6.6321   17.2049  -31.0258 H   0  0  0  0  0  0  0  0  0  0  0  0
   -7.3485   15.8862  -32.8190 H   0  0  0  0  0  0  0  0  0  0  0  0
   -7.3870   17.3353  -33.9415 H   0  0  0  0  0  0  0  0  0  0  0  0
   -4.9081   15.9825  -32.8152 H   0  0  0  0  0  0  0  0  0  0  0  0
   -5.5425   15.8992  -34.5168 H   0  0  0  0  0  0  0  0  0  0  0  0
   -3.0070   17.2810  -32.7270 H   0  0  0  0  0  0  0  0  0  0  0  0
   -1.5667   19.0332  -33.2800 H   0  0  0  0  0  0  0  0  0  0  0  0
   -2.4965   19.2921  -34.8053 H   0  0  0  0  0  0  0  0  0  0  0  0
   -2.8198   21.2958  -33.5928 H   0  0  0  0  0  0  0  0  0  0  0  0
   -4.3186   20.3104  -33.2722 H   0  0  0  0  0  0  0  0  0  0  0  0
   -3.9869   20.5637  -31.0854 H   0  0  0  0  0  0  0  0  0  0  0  0
   -2.4299   19.6381  -31.2661 H   0  0  0  0  0  0  0  0  0  0  0  0
   -4.5176   21.9667  -32.0584 H   0  0  0  0  0  0  0  0  0  0  0  0
   -6.5933   23.2627  -32.5218 H   0  0  0  0  0  0  0  0  0  0  0  0
   -6.9429   25.4933  -31.4648 H   0  0  0  0  0  0  0  0  0  0  0  0
   -5.2124   26.4361  -29.9366 H   0  0  0  0  0  0  0  0  0  0  0  0
   -1.1001   26.3065  -27.8154 H   0  0  0  0  0  0  0  0  0  0  0  0
    1.0075   25.1732  -27.1339 H   0  0  0  0  0  0  0  0  0  0  0  0
    1.4666   22.8466  -27.8932 H   0  0  0  0  0  0  0  0  0  0  0  0
   -0.1244   21.6794  -29.4011 H   0  0  0  0  0  0  0  0  0  0  0  0
  1  2  1  0
  2  3  1  0
  3  4  1  0
  4  5  1  0
  3  6  1  0
  6  7  1  0
  7  8  1  0
  8  9  1  0
  9 10  1  0
 10 11  2  0
 10 12  1  0
 12 13  1  0
 13 14  1  0
 14 15  1  0
 15 16  1  0
 16 17  2  3
 17 18  1  0
 18 19  2  0
 19 20  1  0
 20 21  2  0
 21 22  1  0
 22 23  2  0
 23 24  1  0
 24 25  1  0
 25 26  2  0
 26 27  1  0
 27 28  2  0
 28 29  1  0
 29 30  2  0
 30 17  1  0
 23 18  1  0
 30 25  1  0
  1 31  1  0
  1 32  1  0
  1 33  1  0
  2 34  1  0
  2 35  1  0
  4 36  1  0
  4 37  1  0
  5 38  1  0
  5 39  1  0
  5 40  1  0
  6 41  1  0
  6 42  1  0
  7 43  1  0
  7 44  1  0
  8 45  1  0
  8 46  1  0
  9 47  1  0
  9 48  1  0
 12 49  1  0
 13 50  1  0
 13 51  1  0
 14 52  1  0
 14 53  1  0
 15 54  1  0
 15 55  1  0
 19 56  1  0
 20 57  1  0
 21 58  1  0
 22 59  1  0
 26 60  1  0
 27 61  1  0
 28 62  1  0
 29 63  1  0
M  CHG  1  24  -1
M  END
>  <UniqueID>  (39) 
39

>  <SMILES>  (39) 
CCN(CC)CCCCC(=O)NCCCN=c1c2ccccc2[n-]c2ccccc12

>  <Energy>  (39) 
78.27253808006

>  <Genealogy>  (39) 
CCN(CC)CCCCC(=O)NCCCN=c1c2ccccc2[n-]c2ccccc12 (protonated)
CCN(CC)CCCCC(=O)NCCCN=c1c2ccccc2[n-]c2ccccc12 (3D coordinates assigned)
CCN(CC)CCCCC(=O)NCCCN=c1c2ccccc2[n-]c2ccccc12 (optimized conformer: 78.27253808006 kcal/mol)

>  <smiles>  (39) 
CCN(CC)CCCCC(=O)NCCCN=c1c2ccccc2[nH]c2ccccc12

>  <score_type>  (39) 
oracle

>  <origin>  (39) 
adg

>  <m_score__min__energy>  (39) 
-10.039999999999999

>  <m_primary>  (39) 
energy

$$$$
39:0
     RDKit          3D

 42 45  0  0  0  0  0  0  0  0999 V2000
   -2.7230   23.7640  -29.6810 C   0  0  0  0  0  0  0  0  0  0  0  0
   -3.5250   24.0980  -30.8080 O   0  0  0  0  0  0  0  0  0  0  0  0
   -4.9070   23.8650  -30.8990 C   0  0  0  0  0  0  0  0  0  0  0  0
   -5.8490   24.7270  -30.3020 C   0  0  0  0  0  0  0  0  0  0  0  0
   -7.2170   24.4980  -30.4620 C   0  0  0  0  0  0  0  0  0  0  0  0
   -7.6620   23.4210  -31.2300 C   0  0  0  0  0  0  0  0  0  0  0  0
   -6.7390   22.5550  -31.8190 C   0  0  0  0  0  0  0  0  0  0  0  0
   -5.3630   22.7440  -31.6190 C   0  0  0  0  0  0  0  0  0  0  0  0
   -4.4070   21.8350  -32.2750 C   0  0  0  0  0  0  0  0  0  0  0  0
   -3.0960   22.1630  -32.4150 N   0  0  0  0  0  0  0  0  0  0  0  0
   -2.5530   21.1000  -33.0240 C   0  0  0  0  0  0  0  0  0  0  0  0
   -1.2310   20.8850  -33.3960 C   0  0  0  0  0  0  0  0  0  0  0  0
   -0.9300   19.6550  -34.0100 C   0  0  0  0  0  0  0  0  0  0  0  0
   -1.9560   18.7040  -34.2180 C   0  0  0  0  0  0  0  0  0  0  0  0
   -3.2400   18.9690  -33.8300 N   0  0  0  0  0  0  0  0  0  0  0  0
   -3.5120   20.1640  -33.2440 C   0  0  0  0  0  0  0  0  0  0  0  0
   -4.7030   20.5960  -32.7870 N   0  0  0  0  0  0  0  0  0  0  0  0
   -5.9610   19.8220  -32.7960 C   0  0  0  0  0  0  0  0  0  0  0  0
   -6.1170   18.9900  -34.0700 C   0  0  0  0  0  0  0  0  0  0  0  0
   -6.6200   17.6260  -33.6250 C   0  0  0  0  0  0  0  0  0  0  0  0
   -6.1480   17.4580  -32.1920 C   0  0  0  0  0  0  0  0  0  0  0  0
   -6.0850   18.8620  -31.6080 C   0  0  0  0  0  0  0  0  0  0  0  0
   -3.2746   23.9937  -28.7574 H   0  0  0  0  0  0  0  0  0  0  0  0
   -2.4825   22.6909  -29.7072 H   0  0  0  0  0  0  0  0  0  0  0  0
   -1.7919   24.3492  -29.7072 H   0  0  0  0  0  0  0  0  0  0  0  0
   -5.5043   25.5852  -29.7065 H   0  0  0  0  0  0  0  0  0  0  0  0
   -7.9455   25.1678  -29.9818 H   0  0  0  0  0  0  0  0  0  0  0  0
   -8.7401   23.2545  -31.3712 H   0  0  0  0  0  0  0  0  0  0  0  0
   -7.0920   21.7206  -32.4428 H   0  0  0  0  0  0  0  0  0  0  0  0
   -2.6170   23.0380  -32.1060 H   0  0  0  0  0  0  0  0  0  0  0  0
   -0.4541   21.6432  -33.2182 H   0  0  0  0  0  0  0  0  0  0  0  0
    0.0998   19.4340  -34.3271 H   0  0  0  0  0  0  0  0  0  0  0  0
   -1.7188   17.7423  -34.6963 H   0  0  0  0  0  0  0  0  0  0  0  0
   -6.7507   20.5853  -32.7351 H   0  0  0  0  0  0  0  0  0  0  0  0
   -6.8436   19.4622  -34.7476 H   0  0  0  0  0  0  0  0  0  0  0  0
   -5.1652   18.9086  -34.6154 H   0  0  0  0  0  0  0  0  0  0  0  0
   -7.7183   17.5884  -33.6734 H   0  0  0  0  0  0  0  0  0  0  0  0
   -6.2393   16.8230  -34.2733 H   0  0  0  0  0  0  0  0  0  0  0  0
   -6.8587   16.8389  -31.6249 H   0  0  0  0  0  0  0  0  0  0  0  0
   -5.1705   16.9558  -32.1443 H   0  0  0  0  0  0  0  0  0  0  0  0
   -7.0010   19.0782  -31.0386 H   0  0  0  0  0  0  0  0  0  0  0  0
   -5.2337   18.9688  -30.9196 H   0  0  0  0  0  0  0  0  0  0  0  0
  1  2  1  0
  2  3  1  0
  3  4  2  0
  4  5  1  0
  5  6  2  0
  6  7  1  0
  7  8  2  0
  8  9  1  0
  9 10  2  0
 10 11  1  0
 11 12  2  0
 12 13  1  0
 13 14  2  0
 14 15  1  0
 15 16  2  0
 16 17  1  0
 17 18  1  0
 18 19  1  0
 19 20  1  0
 20 21  1  0
 21 22  1  0
  8  3  1  0
 17  9  1  0
 22 18  1  0
 16 11  1  0
  1 23  1  0
  1 24  1  0
  1 25  1  0
  4 26  1  0
  5 27  1  0
  6 28  1  0
  7 29  1  0
 10 30  1  0
 12 31  1  0
 13 32  1  0
 14 33  1  0
 18 34  1  0
 19 35  1  0
 19 36  1  0
 20 37  1  0
 20 38  1  0
 21 39  1  0
 21 40  1  0
 22 41  1  0
 22 42  1  0
M  CHG  1  10   1
M  END
>  <UniqueID>  (40) 
40

>  <SMILES>  (40) 
COc1ccccc1-c1[nH+]c2cccnc2n1C1CCCC1

>  <Energy>  (40) 
94.68666882472056

>  <Genealogy>  (40) 
COc1ccccc1-c1[nH+]c2cccnc2n1C1CCCC1 (protonated)
COc1ccccc1-c1[nH+]c2cccnc2n1C1CCCC1 (3D coordinates assigned)
COc1ccccc1-c1[nH+]c2cccnc2n1C1CCCC1 (nonaromatic ring conformer: 94.68666882472056 kcal/mol)

>  <smiles>  (40) 
COc1ccccc1-c1nc2cccnc2n1C1CCCC1

>  <score_type>  (40) 
oracle

>  <origin>  (40) 
adg

>  <m_score__min__energy>  (40) 
-7.1399999999999997

>  <m_primary>  (40) 
energy

$$$$
40:0
     RDKit          3D

 37 38  0  0  0  0  0  0  0  0999 V2000
   -1.8340   25.7030  -25.5700 C   0  0  0  0  0  0  0  0  0  0  0  0
   -1.3710   26.2060  -26.5640 C   0  0  0  0  0  0  0  0  0  0  0  0
   -0.8120   26.8240  -27.7710 C   0  0  0  0  0  0  0  0  0  0  0  0
   -1.2360   26.0900  -28.9610 N   0  0  0  0  0  0  0  0  0  0  0  0
   -1.3690   24.6650  -29.0570 C   0  0  0  0  0  0  0  0  0  0  0  0
   -0.3410   23.9740  -29.2860 O   0  0  0  0  0  0  0  0  0  0  0  0
   -2.6760   23.9880  -28.9200 C   0  0  0  0  0  0  0  0  0  0  0  0
   -2.8360   22.9390  -28.0130 C   0  0  0  0  0  0  0  0  0  0  0  0
   -4.0320   22.3100  -27.9040 N   0  0  0  0  0  0  0  0  0  0  0  0
   -5.0890   22.6780  -28.6740 C   0  0  0  0  0  0  0  0  0  0  0  0
   -4.9710   23.6960  -29.5770 N   0  0  0  0  0  0  0  0  0  0  0  0
   -6.1280   24.0430  -30.4200 C   0  0  0  0  0  0  0  0  0  0  0  0
   -6.6790   22.8090  -31.0830 C   0  0  0  0  0  0  0  0  0  0  0  0
   -7.9500   22.3280  -30.7320 C   0  0  0  0  0  0  0  0  0  0  0  0
   -8.4520   21.1630  -31.3200 C   0  0  0  0  0  0  0  0  0  0  0  0
   -7.6850   20.4570  -32.2650 C   0  0  0  0  0  0  0  0  0  0  0  0
   -8.1430   19.2840  -32.8830 O   0  0  0  0  0  0  0  0  0  0  0  0
   -7.6590   17.9780  -32.5870 C   0  0  0  0  0  0  0  0  0  0  0  0
   -6.4150   20.9360  -32.6070 C   0  0  0  0  0  0  0  0  0  0  0  0
   -5.9120   22.1000  -32.0200 C   0  0  0  0  0  0  0  0  0  0  0  0
   -3.7720   24.3490  -29.7190 C   0  0  0  0  0  0  0  0  0  0  0  0
   -3.6510   25.2850  -30.5580 O   0  0  0  0  0  0  0  0  0  0  0  0
   -2.2562   25.2444  -24.6637 H   0  0  0  0  0  0  0  0  0  0  0  0
   -1.1635   27.8639  -27.8420 H   0  0  0  0  0  0  0  0  0  0  0  0
    0.2860   26.8000  -27.7088 H   0  0  0  0  0  0  0  0  0  0  0  0
   -1.9900   22.6221  -27.3855 H   0  0  0  0  0  0  0  0  0  0  0  0
   -4.1400   21.5250  -27.2250 H   0  0  0  0  0  0  0  0  0  0  0  0
   -6.0489   22.1512  -28.5693 H   0  0  0  0  0  0  0  0  0  0  0  0
   -6.9095   24.4986  -29.7942 H   0  0  0  0  0  0  0  0  0  0  0  0
   -5.8057   24.7530  -31.1960 H   0  0  0  0  0  0  0  0  0  0  0  0
   -8.5545   22.8706  -29.9902 H   0  0  0  0  0  0  0  0  0  0  0  0
   -9.4514   20.7966  -31.0425 H   0  0  0  0  0  0  0  0  0  0  0  0
   -7.6093   17.8439  -31.4963 H   0  0  0  0  0  0  0  0  0  0  0  0
   -8.3391   17.2285  -33.0180 H   0  0  0  0  0  0  0  0  0  0  0  0
   -6.6547   17.8527  -33.0180 H   0  0  0  0  0  0  0  0  0  0  0  0
   -5.8074   20.3911  -33.3446 H   0  0  0  0  0  0  0  0  0  0  0  0
   -4.9101   22.4622  -32.2937 H   0  0  0  0  0  0  0  0  0  0  0  0
  1  2  3  0
  2  3  1  0
  3  4  1  0
  4  5  1  0
  5  6  2  0
  5  7  1  0
  7  8  2  0
  8  9  1  0
  9 10  2  0
 10 11  1  0
 11 12  1  0
 12 13  1  0
 13 14  2  0
 14 15  1  0
 15 16  2  0
 16 17  1  0
 17 18  1  0
 16 19  1  0
 19 20  2  0
 11 21  1  0
 21 22  2  0
 21  7  1  0
 20 13  1  0
  1 23  1  0
  3 24  1  0
  3 25  1  0
  8 26  1  0
  9 27  1  0
 10 28  1  0
 12 29  1  0
 12 30  1  0
 14 31  1  0
 15 32  1  0
 18 33  1  0
 18 34  1  0
 18 35  1  0
 19 36  1  0
 20 37  1  0
M  CHG  2   4  -1   9   1
M  END
>  <UniqueID>  (41) 
41

>  <SMILES>  (41) 
C#CC[N-]C(=O)c1c[nH+]cn(Cc2ccc(OC)cc2)c1=O

>  <Energy>  (41) 
39.98224657029624

>  <Genealogy>  (41) 
C#CC[N-]C(=O)c1c[nH+]cn(Cc2ccc(OC)cc2)c1=O (protonated)
C#CC[N-]C(=O)c1c[nH+]cn(Cc2ccc(OC)cc2)c1=O (3D coordinates assigned)
C#CC[N-]C(=O)c1c[nH+]cn(Cc2ccc(OC)cc2)c1=O (optimized conformer: 39.98224657029624 kcal/mol)

>  <smiles>  (41) 
C#CCNC(=O)c1cncn(Cc2ccc(OC)cc2)c1=O

>  <score_type>  (41) 
oracle

>  <origin>  (41) 
adg

>  <m_score__min__energy>  (41) 
-7.8099999999999996

>  <m_primary>  (41) 
energy

$$$$
41:0
     RDKit          3D

 48 50  0  0  0  0  0  0  0  0999 V2000
   -5.4260   25.3200  -30.8440 C   0  0  0  0  0  0  0  0  0  0  0  0
   -5.3790   24.1690  -31.6820 O   0  0  0  0  0  0  0  0  0  0  0  0
   -6.3460   23.1510  -31.6900 C   0  0  0  0  0  0  0  0  0  0  0  0
   -7.6220   23.3310  -31.1240 C   0  0  0  0  0  0  0  0  0  0  0  0
   -8.5550   22.2940  -31.1460 C   0  0  0  0  0  0  0  0  0  0  0  0
   -8.2330   21.0720  -31.7360 C   0  0  0  0  0  0  0  0  0  0  0  0
   -6.9720   20.8730  -32.3190 C   0  0  0  0  0  0  0  0  0  0  0  0
   -6.6560   19.5610  -32.9270 C   0  0  0  0  0  0  0  0  0  0  0  0
   -6.9170   18.3750  -32.2190 C   0  0  0  0  0  0  0  0  0  0  0  0
   -6.5910   17.1340  -32.7750 C   0  0  0  0  0  0  0  0  0  0  0  0
   -6.0120   17.0670  -34.0460 C   0  0  0  0  0  0  0  0  0  0  0  0
   -5.6950   15.8630  -34.5830 F   0  0  0  0  0  0  0  0  0  0  0  0
   -5.7630   18.2400  -34.7640 C   0  0  0  0  0  0  0  0  0  0  0  0
   -6.0860   19.4830  -34.2090 C   0  0  0  0  0  0  0  0  0  0  0  0
   -6.0200   21.9180  -32.2830 C   0  0  0  0  0  0  0  0  0  0  0  0
   -4.7040   21.7240  -32.8180 N   0  0  0  0  0  0  0  0  0  0  0  0
   -3.7040   20.9270  -32.1110 C   0  0  0  0  0  0  0  0  0  0  0  0
   -3.8550   21.1060  -30.5900 C   0  0  0  0  0  0  0  0  0  0  0  0
   -3.7650   22.5280  -30.1730 N   0  0  0  0  0  0  0  0  0  0  0  0
   -2.3450   22.9690  -30.1250 C   0  0  0  0  0  0  0  0  0  0  0  0
   -1.7780   22.9090  -28.6940 C   0  0  0  0  0  0  0  0  0  0  0  0
   -2.4790   23.7290  -27.7680 O   0  0  0  0  0  0  0  0  0  0  0  0
   -3.8430   23.9330  -28.1060 C   0  0  0  0  0  0  0  0  0  0  0  0
   -4.4640   22.7580  -28.8800 C   0  0  0  0  0  0  0  0  0  0  0  0
   -5.4132   25.0067  -29.7896 H   0  0  0  0  0  0  0  0  0  0  0  0
   -4.5531   25.9577  -31.0476 H   0  0  0  0  0  0  0  0  0  0  0  0
   -6.3479   25.8844  -31.0476 H   0  0  0  0  0  0  0  0  0  0  0  0
   -7.8849   24.2940  -30.6620 H   0  0  0  0  0  0  0  0  0  0  0  0
   -9.5481   22.4407  -30.6964 H   0  0  0  0  0  0  0  0  0  0  0  0
   -8.9729   20.2581  -31.7445 H   0  0  0  0  0  0  0  0  0  0  0  0
   -7.3801   18.4234  -31.2224 H   0  0  0  0  0  0  0  0  0  0  0  0
   -6.7901   16.2101  -32.2122 H   0  0  0  0  0  0  0  0  0  0  0  0
   -5.3128   18.1859  -35.7662 H   0  0  0  0  0  0  0  0  0  0  0  0
   -5.8928   20.4037  -34.7790 H   0  0  0  0  0  0  0  0  0  0  0  0
   -4.4130   22.2840  -33.6490 H   0  0  0  0  0  0  0  0  0  0  0  0
   -3.8392   19.8657  -32.3665 H   0  0  0  0  0  0  0  0  0  0  0  0
   -2.7009   21.2628  -32.4126 H   0  0  0  0  0  0  0  0  0  0  0  0
   -4.8345   20.7099  -30.2837 H   0  0  0  0  0  0  0  0  0  0  0  0
   -3.0298   20.5630  -30.1061 H   0  0  0  0  0  0  0  0  0  0  0  0
   -4.2410   23.1050  -30.9060 H   0  0  0  0  0  0  0  0  0  0  0  0
   -1.7459   22.3131  -30.7737 H   0  0  0  0  0  0  0  0  0  0  0  0
   -2.2982   24.0128  -30.4690 H   0  0  0  0  0  0  0  0  0  0  0  0
   -1.8285   21.8675  -28.3436 H   0  0  0  0  0  0  0  0  0  0  0  0
   -0.7456   23.2858  -28.7406 H   0  0  0  0  0  0  0  0  0  0  0  0
   -4.4141   24.0791  -27.1773 H   0  0  0  0  0  0  0  0  0  0  0  0
   -3.8858   24.8134  -28.7640 H   0  0  0  0  0  0  0  0  0  0  0  0
   -4.3909   21.8475  -28.2671 H   0  0  0  0  0  0  0  0  0  0  0  0
   -5.5150   23.0021  -29.0940 H   0  0  0  0  0  0  0  0  0  0  0  0
  1  2  1  0
  2  3  1  0
  3  4  2  0
  4  5  1  0
  5  6  2  0
  6  7  1  0
  7  8  1  0
  8  9  2  0
  9 10  1  0
 10 11  2  0
 11 12  1  0
 11 13  1  0
 13 14  2  0
  7 15  2  0
 15 16  1  0
 16 17  1  0
 17 18  1  0
 18 19  1  0
 19 20  1  0
 20 21  1  0
 21 22  1  0
 22 23  1  0
 23 24  1  0
 15  3  1  0
 24 19  1  0
 14  8  1  0
  1 25  1  0
  1 26  1  0
  1 27  1  0
  4 28  1  0
  5 29  1  0
  6 30  1  0
  9 31  1  0
 10 32  1  0
 13 33  1  0
 14 34  1  0
 16 35  1  0
 17 36  1  0
 17 37  1  0
 18 38  1  0
 18 39  1  0
 19 40  1  0
 20 41  1  0
 20 42  1  0
 21 43  1  0
 21 44  1  0
 23 45  1  0
 23 46  1  0
 24 47  1  0
 24 48  1  0
M  CHG  1  19   1
M  END
>  <UniqueID>  (42) 
42

>  <SMILES>  (42) 
COc1cccc(-c2ccc(F)cc2)c1NCC[NH+]1CCOCC1

>  <Energy>  (42) 
72.27576909968523

>  <Genealogy>  (42) 
COc1cccc(-c2ccc(F)cc2)c1NCC[NH+]1CCOCC1 (protonated)
COc1cccc(-c2ccc(F)cc2)c1NCC[NH+]1CCOCC1 (3D coordinates assigned)
COc1cccc(-c2ccc(F)cc2)c1NCC[NH+]1CCOCC1 (nonaromatic ring conformer: 72.27576909968523 kcal/mol)

>  <smiles>  (42) 
COc1cccc(-c2ccc(F)cc2)c1NCCN1CCOCC1

>  <score_type>  (42) 
oracle

>  <origin>  (42) 
adg

>  <m_score__min__energy>  (42) 
-7.5199999999999996

>  <m_primary>  (42) 
energy

$$$$
42:0
     RDKit          3D

 26 28  0  0  0  0  0  0  0  0999 V2000
   -6.8650   15.9060  -34.1200 C   0  0  0  0  0  0  0  0  0  0  0  0
   -6.6140   17.2960  -33.6130 C   0  0  0  0  0  0  0  0  0  0  0  0
   -5.7390   18.1500  -34.2970 C   0  0  0  0  0  0  0  0  0  0  0  0
   -5.5330   19.4580  -33.8470 C   0  0  0  0  0  0  0  0  0  0  0  0
   -6.2040   19.9370  -32.7070 C   0  0  0  0  0  0  0  0  0  0  0  0
   -5.9780   21.3310  -32.2480 C   0  0  0  0  0  0  0  0  0  0  0  0
   -6.9930   22.3230  -32.3360 C   0  0  0  0  0  0  0  0  0  0  0  0
   -6.7440   23.6310  -31.8860 C   0  0  0  0  0  0  0  0  0  0  0  0
   -5.4870   23.8860  -31.3610 C   0  0  0  0  0  0  0  0  0  0  0  0
   -5.0140   25.0440  -30.8650 N   0  0  0  0  0  0  0  0  0  0  0  0
   -3.7640   24.7920  -30.4750 N   0  0  0  0  0  0  0  0  0  0  0  0
   -3.5010   23.4900  -30.7380 C   0  0  0  0  0  0  0  0  0  0  0  0
   -4.5750   22.9200  -31.2910 N   0  0  0  0  0  0  0  0  0  0  0  0
   -4.7690   21.6720  -31.7050 N   0  0  0  0  0  0  0  0  0  0  0  0
   -7.1040   19.0820  -32.0410 C   0  0  0  0  0  0  0  0  0  0  0  0
   -7.3080   17.7750  -32.4940 C   0  0  0  0  0  0  0  0  0  0  0  0
   -6.9886   15.2216  -33.2678 H   0  0  0  0  0  0  0  0  0  0  0  0
   -7.7790   15.8984  -34.7319 H   0  0  0  0  0  0  0  0  0  0  0  0
   -6.0113   15.5792  -34.7319 H   0  0  0  0  0  0  0  0  0  0  0  0
   -5.2114   17.7899  -35.1925 H   0  0  0  0  0  0  0  0  0  0  0  0
   -4.8401   20.1182  -34.3892 H   0  0  0  0  0  0  0  0  0  0  0  0
   -7.9760   22.0659  -32.7575 H   0  0  0  0  0  0  0  0  0  0  0  0
   -7.5117   24.4164  -31.9477 H   0  0  0  0  0  0  0  0  0  0  0  0
   -2.5491   22.9801  -30.5284 H   0  0  0  0  0  0  0  0  0  0  0  0
   -7.6503   19.4453  -31.1581 H   0  0  0  0  0  0  0  0  0  0  0  0
   -8.0176   17.1189  -31.9687 H   0  0  0  0  0  0  0  0  0  0  0  0
  1  2  1  0
  2  3  2  0
  3  4  1  0
  4  5  2  0
  5  6  1  0
  6  7  1  0
  7  8  2  0
  8  9  1  0
  9 10  2  0
 10 11  1  0
 11 12  2  0
 12 13  1  0
 13 14  1  0
  5 15  1  0
 15 16  2  0
 16  2  1  0
 14  6  2  0
 13  9  1  0
  1 17  1  0
  1 18  1  0
  1 19  1  0
  3 20  1  0
  4 21  1  0
  7 22  1  0
  8 23  1  0
 12 24  1  0
 15 25  1  0
 16 26  1  0
M  END
>  <UniqueID>  (43) 
43

>  <SMILES>  (43) 
Cc1ccc(-c2ccc3nncn3n2)cc1

>  <Energy>  (43) 
74.79735080671367

>  <Genealogy>  (43) 
Cc1ccc(-c2ccc3nncn3n2)cc1 (3D coordinates assigned)
Cc1ccc(-c2ccc3nncn3n2)cc1 (optimized conformer: 74.79735080671367 kcal/mol)

>  <smiles>  (43) 
Cc1ccc(-c2ccc3nncn3n2)cc1

>  <score_type>  (43) 
oracle

>  <origin>  (43) 
adg

>  <m_score__min__energy>  (43) 
-7.4699999999999998

>  <m_primary>  (43) 
energy

$$$$
43:0
     RDKit          3D

 53 57  0  0  0  0  0  0  0  0999 V2000
    2.1360   22.0180  -35.3570 C   0  0  0  0  0  0  0  0  0  0  0  0
    0.7860   22.2050  -34.9470 O   0  0  0  0  0  0  0  0  0  0  0  0
   -0.0460   21.1810  -34.4690 C   0  0  0  0  0  0  0  0  0  0  0  0
    0.2740   19.8180  -34.6160 C   0  0  0  0  0  0  0  0  0  0  0  0
   -0.5850   18.8360  -34.1160 C   0  0  0  0  0  0  0  0  0  0  0  0
   -1.7690   19.2000  -33.4720 C   0  0  0  0  0  0  0  0  0  0  0  0
   -2.1120   20.5550  -33.3400 C   0  0  0  0  0  0  0  0  0  0  0  0
   -3.3140   20.9410  -32.6580 N   0  0  0  0  0  0  0  0  0  0  0  0
   -4.5120   20.7430  -33.1900 N   0  0  0  0  0  0  0  0  0  0  0  0
   -5.4300   21.3570  -32.4160 C   0  0  0  0  0  0  0  0  0  0  0  0
   -6.8740   21.3290  -32.7340 C   0  0  0  0  0  0  0  0  0  0  0  0
   -7.5060   22.4220  -32.7120 O   0  0  0  0  0  0  0  0  0  0  0  0
   -7.5390   20.1230  -33.1880 N   0  0  0  0  0  0  0  0  0  0  0  0
   -6.7630   18.9220  -32.7920 C   0  0  0  0  0  0  0  0  0  0  0  0
   -7.6740   17.6850  -32.7200 C   0  0  0  0  0  0  0  0  0  0  0  0
   -8.7270   17.7990  -31.7710 O   0  0  0  0  0  0  0  0  0  0  0  0
   -9.1010   19.1410  -31.4890 C   0  0  0  0  0  0  0  0  0  0  0  0
   -8.9410   20.0850  -32.6940 C   0  0  0  0  0  0  0  0  0  0  0  0
   -4.7800   22.0020  -31.3700 C   0  0  0  0  0  0  0  0  0  0  0  0
   -3.4410   21.6790  -31.5260 C   0  0  0  0  0  0  0  0  0  0  0  0
   -2.3620   22.0960  -30.5870 C   0  0  0  0  0  0  0  0  0  0  0  0
   -1.1830   21.3430  -30.4330 C   0  0  0  0  0  0  0  0  0  0  0  0
   -0.1850   21.7620  -29.5480 C   0  0  0  0  0  0  0  0  0  0  0  0
   -0.3630   22.9160  -28.7840 C   0  0  0  0  0  0  0  0  0  0  0  0
   -1.5530   23.6410  -28.8820 C   0  0  0  0  0  0  0  0  0  0  0  0
   -2.5590   23.2250  -29.7620 C   0  0  0  0  0  0  0  0  0  0  0  0
   -4.0950   24.0830  -29.8070 S   0  0  0  0  0  0  0  0  0  0  0  0
   -4.4440   24.6070  -28.4420 O   0  0  0  0  0  0  0  0  0  0  0  0
   -4.0160   25.2220  -30.7850 O   0  0  0  0  0  0  0  0  0  0  0  0
   -5.3430   22.9180  -30.3230 C   0  0  0  0  0  0  0  0  0  0  0  0
   -1.2360   21.5380  -33.8220 C   0  0  0  0  0  0  0  0  0  0  0  0
    2.7797   21.9288  -34.4695 H   0  0  0  0  0  0  0  0  0  0  0  0
    2.2126   21.1007  -35.9592 H   0  0  0  0  0  0  0  0  0  0  0  0
    2.4591   22.8800  -35.9592 H   0  0  0  0  0  0  0  0  0  0  0  0
    1.2035   19.5251  -35.1262 H   0  0  0  0  0  0  0  0  0  0  0  0
   -0.3276   17.7727  -34.2301 H   0  0  0  0  0  0  0  0  0  0  0  0
   -2.4346   18.4234  -33.0671 H   0  0  0  0  0  0  0  0  0  0  0  0
   -7.5920   20.1350  -34.2310 H   0  0  0  0  0  0  0  0  0  0  0  0
   -5.9702   18.7438  -33.5334 H   0  0  0  0  0  0  0  0  0  0  0  0
   -6.3245   19.0963  -31.7984 H   0  0  0  0  0  0  0  0  0  0  0  0
   -8.1188   17.5242  -33.7131 H   0  0  0  0  0  0  0  0  0  0  0  0
   -7.0439   16.8429  -32.3979 H   0  0  0  0  0  0  0  0  0  0  0  0
  -10.1554   19.1508  -31.1757 H   0  0  0  0  0  0  0  0  0  0  0  0
   -8.4294   19.5064  -30.6982 H   0  0  0  0  0  0  0  0  0  0  0  0
   -9.5950   19.7372  -33.5072 H   0  0  0  0  0  0  0  0  0  0  0  0
   -9.2153   21.0998  -32.3701 H   0  0  0  0  0  0  0  0  0  0  0  0
   -1.0457   20.4184  -31.0129 H   0  0  0  0  0  0  0  0  0  0  0  0
    0.7436   21.1800  -29.4537 H   0  0  0  0  0  0  0  0  0  0  0  0
    0.4333   23.2546  -28.1049 H   0  0  0  0  0  0  0  0  0  0  0  0
   -1.6999   24.5407  -28.2664 H   0  0  0  0  0  0  0  0  0  0  0  0
   -5.6699   22.3249  -29.4562 H   0  0  0  0  0  0  0  0  0  0  0  0
   -6.2005   23.4653  -30.7416 H   0  0  0  0  0  0  0  0  0  0  0  0
   -1.4860   22.6011  -33.6906 H   0  0  0  0  0  0  0  0  0  0  0  0
  1  2  1  0
  2  3  1  0
  3  4  2  0
  4  5  1  0
  5  6  2  0
  6  7  1  0
  7  8  1  0
  8  9  1  0
  9 10  2  0
 10 11  1  0
 11 12  2  0
 11 13  1  0
 13 14  1  0
 14 15  1  0
 15 16  1  0
 16 17  1  0
 17 18  1  0
 10 19  1  0
 19 20  2  0
 20 21  1  0
 21 22  2  0
 22 23  1  0
 23 24  2  0
 24 25  1  0
 25 26  2  0
 26 27  1  0
 27 28  2  0
 27 29  2  0
 27 30  1  0
  7 31  2  0
 31  3  1  0
 20  8  1  0
 26 21  1  0
 18 13  1  0
 30 19  1  0
  1 32  1  0
  1 33  1  0
  1 34  1  0
  4 35  1  0
  5 36  1  0
  6 37  1  0
 13 38  1  0
 14 39  1  0
 14 40  1  0
 15 41  1  0
 15 42  1  0
 17 43  1  0
 17 44  1  0
 18 45  1  0
 18 46  1  0
 22 47  1  0
 23 48  1  0
 24 49  1  0
 25 50  1  0
 30 51  1  0
 30 52  1  0
 31 53  1  0
M  CHG  1  13   1
M  END
>  <UniqueID>  (44) 
44

>  <SMILES>  (44) 
COc1cccc(-n2nc(C(=O)[NH+]3CCOCC3)c3c2-c2ccccc2S(=O)(=O)C3)c1

>  <Energy>  (44) 
118.61560967675537

>  <Genealogy>  (44) 
COc1cccc(-n2nc(C(=O)[NH+]3CCOCC3)c3c2-c2ccccc2S(=O)(=O)C3)c1 (protonated)
COc1cccc(-n2nc(C(=O)[NH+]3CCOCC3)c3c2-c2ccccc2S(=O)(=O)C3)c1 (3D coordinates assigned)
COc1cccc(-n2nc(C(=O)[NH+]3CCOCC3)c3c2-c2ccccc2S(=O)(=O)C3)c1 (nonaromatic ring conformer: 118.61560967675537 kcal/mol)

>  <smiles>  (44) 
COc1cccc(-n2nc(C(=O)N3CCOCC3)c3c2-c2ccccc2S(=O)(=O)C3)c1

>  <score_type>  (44) 
oracle

>  <origin>  (44) 
adg

>  <m_score__min__energy>  (44) 
-9.8599999999999994

>  <m_primary>  (44) 
energy

$$$$
44:0
     RDKit          3D

 46 47  0  0  1  0  0  0  0  0999 V2000
   -4.4110   22.3930  -29.6150 O   0  0  0  0  0  0  0  0  0  0  0  0
   -3.1400   21.8560  -30.2760 S   0  0  0  0  0  0  0  0  0  0  0  0
   -2.4420   23.0930  -30.7990 O   0  0  0  0  0  0  0  0  0  0  0  0
   -2.1380   21.0600  -29.0920 C   0  0  0  0  0  0  0  0  0  0  0  0
   -2.6030   20.9810  -27.7920 C   0  0  0  0  0  0  0  0  0  0  0  0
   -1.9040   20.3810  -26.7680 C   0  0  0  0  0  0  0  0  0  0  0  0
   -0.6800   19.8280  -27.0450 C   0  0  0  0  0  0  0  0  0  0  0  0
   -0.1760   19.8860  -28.3390 C   0  0  0  0  0  0  0  0  0  0  0  0
   -0.9150   20.5040  -29.3550 C   0  0  0  0  0  0  0  0  0  0  0  0
   -0.2100   20.5690  -31.1070 Br  0  0  0  0  0  0  0  0  0  0  0  0
   -3.6140   20.8980  -31.5750 N   0  0  0  0  0  0  0  0  0  0  0  0
   -4.1810   19.6780  -31.2140 C   0  0  0  0  0  0  0  0  0  0  0  0
   -5.6620   19.6090  -31.5160 C   0  0  0  0  0  0  0  0  0  0  0  0
   -6.0090   20.4710  -32.5550 N   0  0  0  0  0  0  0  0  0  0  0  0
   -7.2980   21.0390  -32.6110 C   0  0  0  0  0  0  0  0  0  0  0  0
   -7.4880   21.8750  -31.3290 C   0  0  0  0  0  0  0  0  0  0  0  0
   -7.9870   23.2400  -31.6390 C   0  0  0  0  0  0  0  0  0  0  0  0
   -7.3180   24.2520  -30.7490 C   0  0  0  0  0  0  0  0  0  0  0  0
   -5.9060   24.4930  -31.1000 C   0  0  0  0  0  0  0  0  0  0  0  0
   -5.1430   23.6940  -31.9250 O   0  0  0  0  0  0  0  0  0  0  0  0
   -5.2960   25.5460  -30.6060 N   0  0  0  0  0  0  0  0  0  0  0  0
   -3.9020   25.6230  -30.6690 O   0  0  0  0  0  0  0  0  0  0  0  0
   -5.0540   20.8390  -33.5250 C   0  0  0  0  0  0  0  0  0  0  0  0
   -3.8470   21.4740  -32.8260 C   0  0  0  0  0  0  0  0  0  0  0  0
   -3.5847   21.4214  -27.5633 H   0  0  0  0  0  0  0  0  0  0  0  0
   -2.3187   20.3461  -25.7498 H   0  0  0  0  0  0  0  0  0  0  0  0
   -0.1001   19.3410  -26.2472 H   0  0  0  0  0  0  0  0  0  0  0  0
    0.8060   19.4452  -28.5655 H   0  0  0  0  0  0  0  0  0  0  0  0
   -3.6714   18.8757  -31.7678 H   0  0  0  0  0  0  0  0  0  0  0  0
   -4.0584   19.5640  -30.1268 H   0  0  0  0  0  0  0  0  0  0  0  0
   -5.9213   18.5793  -31.8033 H   0  0  0  0  0  0  0  0  0  0  0  0
   -6.2141   19.9129  -30.6144 H   0  0  0  0  0  0  0  0  0  0  0  0
   -7.3867   21.6842  -33.4975 H   0  0  0  0  0  0  0  0  0  0  0  0
   -8.0660   20.2547  -32.6813 H   0  0  0  0  0  0  0  0  0  0  0  0
   -8.2141   21.3685  -30.6761 H   0  0  0  0  0  0  0  0  0  0  0  0
   -6.5122   21.9689  -30.8299 H   0  0  0  0  0  0  0  0  0  0  0  0
   -7.7659   23.4778  -32.6900 H   0  0  0  0  0  0  0  0  0  0  0  0
   -9.0730   23.2729  -31.4672 H   0  0  0  0  0  0  0  0  0  0  0  0
   -7.8650   25.2030  -30.8286 H   0  0  0  0  0  0  0  0  0  0  0  0
   -7.3356   23.8488  -29.7257 H   0  0  0  0  0  0  0  0  0  0  0  0
   -4.4870   23.0060  -31.5430 H   0  0  0  0  0  0  0  0  0  0  0  0
   -3.4860   24.9170  -31.2770 H   0  0  0  0  0  0  0  0  0  0  0  0
   -4.7303   19.9463  -34.0802 H   0  0  0  0  0  0  0  0  0  0  0  0
   -5.4978   21.5610  -34.2262 H   0  0  0  0  0  0  0  0  0  0  0  0
   -2.9557   21.3333  -33.4551 H   0  0  0  0  0  0  0  0  0  0  0  0
   -4.0592   22.5431  -32.6777 H   0  0  0  0  0  0  0  0  0  0  0  0
  1  2  2  0
  2  3  2  0
  2  4  1  0
  4  5  2  0
  5  6  1  0
  6  7  2  0
  7  8  1  0
  8  9  2  0
  9 10  1  0
  2 11  1  0
 11 12  1  0
 12 13  1  0
 13 14  1  0
 14 15  1  0
 15 16  1  0
 16 17  1  0
 17 18  1  0
 18 19  1  0
 19 20  1  0
 19 21  2  0
 21 22  1  0
 14 23  1  0
 23 24  1  0
  9  4  1  0
 24 11  1  0
  5 25  1  0
  6 26  1  0
  7 27  1  0
  8 28  1  0
 12 29  1  0
 12 30  1  0
 13 31  1  0
 13 32  1  0
 15 33  1  0
 15 34  1  0
 16 35  1  0
 16 36  1  0
 17 37  1  0
 17 38  1  0
 18 39  1  0
 18 40  1  0
 20 41  1  0
 22 42  1  0
 23 43  1  0
 23 44  1  0
 24 45  1  0
 24 46  1  0
M  END
>  <smiles>  (45) 
O=S(=O)(c1ccccc1Br)N1CCN(CCCCC(O)=NO)CC1

>  <score_type>  (45) 
oracle

>  <origin>  (45) 
adg

>  <m_score__min__energy>  (45) 
-9.2799999999999994

>  <m_primary>  (45) 
energy

$$$$
45:0
     RDKit          3D

 43 45  0  0  0  0  0  0  0  0999 V2000
   -9.0060   18.4860  -31.5340 C   0  0  0  0  0  0  0  0  0  0  0  0
   -8.6090   19.4150  -32.6030 N   0  0  0  0  0  0  0  0  0  0  0  0
   -9.0250   20.7850  -32.2570 C   0  0  0  0  0  0  0  0  0  0  0  0
   -7.1510   19.3440  -32.8680 C   0  0  0  0  0  0  0  0  0  0  0  0
   -6.6430   20.6960  -33.3820 C   0  0  0  0  0  0  0  0  0  0  0  0
   -5.7000   21.3510  -32.3980 C   0  0  0  0  0  0  0  0  0  0  0  0
   -6.2210   21.8510  -31.1910 C   0  0  0  0  0  0  0  0  0  0  0  0
   -5.3820   22.4300  -30.2380 C   0  0  0  0  0  0  0  0  0  0  0  0
   -4.0060   22.5210  -30.4730 C   0  0  0  0  0  0  0  0  0  0  0  0
   -3.1150   23.1200  -29.4540 C   0  0  0  0  0  0  0  0  0  0  0  0
   -2.8860   24.5100  -29.4860 C   0  0  0  0  0  0  0  0  0  0  0  0
   -3.4780   25.3000  -30.4650 O   0  0  0  0  0  0  0  0  0  0  0  0
   -2.0730   25.1140  -28.5270 C   0  0  0  0  0  0  0  0  0  0  0  0
   -1.4770   24.3540  -27.5220 C   0  0  0  0  0  0  0  0  0  0  0  0
   -1.6820   22.9690  -27.4690 C   0  0  0  0  0  0  0  0  0  0  0  0
   -1.0710   22.2070  -26.4610 C   0  0  0  0  0  0  0  0  0  0  0  0
   -1.2560   20.8250  -26.4130 C   0  0  0  0  0  0  0  0  0  0  0  0
   -2.0460   20.1910  -27.3710 C   0  0  0  0  0  0  0  0  0  0  0  0
   -2.6620   20.9330  -28.3810 C   0  0  0  0  0  0  0  0  0  0  0  0
   -2.5010   22.3340  -28.4420 C   0  0  0  0  0  0  0  0  0  0  0  0
   -3.4740   22.0150  -31.6670 C   0  0  0  0  0  0  0  0  0  0  0  0
   -4.3040   21.4290  -32.6290 C   0  0  0  0  0  0  0  0  0  0  0  0
   -3.7080   20.9330  -33.7910 O   0  0  0  0  0  0  0  0  0  0  0  0
   -8.8088   18.9475  -30.5552 H   0  0  0  0  0  0  0  0  0  0  0  0
  -10.0790   18.2608  -31.6237 H   0  0  0  0  0  0  0  0  0  0  0  0
   -8.4272   17.5549  -31.6237 H   0  0  0  0  0  0  0  0  0  0  0  0
   -9.0578   20.8929  -31.1628 H   0  0  0  0  0  0  0  0  0  0  0  0
   -8.3045   21.5035  -32.6749 H   0  0  0  0  0  0  0  0  0  0  0  0
  -10.0233   20.9816  -32.6749 H   0  0  0  0  0  0  0  0  0  0  0  0
   -6.6240   19.0872  -31.9372 H   0  0  0  0  0  0  0  0  0  0  0  0
   -6.9605   18.5742  -33.6303 H   0  0  0  0  0  0  0  0  0  0  0  0
   -6.1130   20.5393  -34.3331 H   0  0  0  0  0  0  0  0  0  0  0  0
   -7.5105   21.3586  -33.5180 H   0  0  0  0  0  0  0  0  0  0  0  0
   -7.3016   21.7849  -30.9961 H   0  0  0  0  0  0  0  0  0  0  0  0
   -5.8042   22.8163  -29.2986 H   0  0  0  0  0  0  0  0  0  0  0  0
   -1.9006   26.1998  -28.5641 H   0  0  0  0  0  0  0  0  0  0  0  0
   -0.8434   24.8434  -26.7677 H   0  0  0  0  0  0  0  0  0  0  0  0
   -0.4433   22.7018  -25.7053 H   0  0  0  0  0  0  0  0  0  0  0  0
   -0.7776   20.2344  -25.6178 H   0  0  0  0  0  0  0  0  0  0  0  0
   -2.1848   19.1005  -27.3310 H   0  0  0  0  0  0  0  0  0  0  0  0
   -3.2778   20.4214  -29.1353 H   0  0  0  0  0  0  0  0  0  0  0  0
   -2.3912   22.0794  -31.8499 H   0  0  0  0  0  0  0  0  0  0  0  0
   -3.1290   21.4900  -34.4040 H   0  0  0  0  0  0  0  0  0  0  0  0
  1  2  1  0
  2  3  1  0
  2  4  1  0
  4  5  1  0
  5  6  1  0
  6  7  2  0
  7  8  1  0
  8  9  2  0
  9 10  1  0
 10 11  2  0
 11 12  1  0
 11 13  1  0
 13 14  2  0
 14 15  1  0
 15 16  2  0
 16 17  1  0
 17 18  2  0
 18 19  1  0
 19 20  2  0
  9 21  1  0
 21 22  2  0
 22 23  1  0
 22  6  1  0
 20 10  1  0
 20 15  1  0
  1 24  1  0
  1 25  1  0
  1 26  1  0
  3 27  1  0
  3 28  1  0
  3 29  1  0
  4 30  1  0
  4 31  1  0
  5 32  1  0
  5 33  1  0
  7 34  1  0
  8 35  1  0
 13 36  1  0
 14 37  1  0
 16 38  1  0
 17 39  1  0
 18 40  1  0
 19 41  1  0
 21 42  1  0
 23 43  1  0
M  CHG  1  12  -1
M  END
>  <UniqueID>  (46) 
45

>  <SMILES>  (46) 
CN(C)CCc1ccc(-c2c([O-])ccc3ccccc23)cc1O

>  <Energy>  (46) 
58.538944956707624

>  <Genealogy>  (46) 
CN(C)CCc1ccc(-c2c([O-])ccc3ccccc23)cc1O (protonated)
CN(C)CCc1ccc(-c2c([O-])ccc3ccccc23)cc1O (3D coordinates assigned)
CN(C)CCc1ccc(-c2c([O-])ccc3ccccc23)cc1O (optimized conformer: 58.538944956707624 kcal/mol)

>  <smiles>  (46) 
CN(C)CCc1ccc(-c2c(O)ccc3ccccc23)cc1O

>  <score_type>  (46) 
oracle

>  <origin>  (46) 
adg

>  <m_score__min__energy>  (46) 
-10.92

>  <m_primary>  (46) 
energy

$$$$
46:0
     RDKit          3D

 59 63  0  0  0  0  0  0  0  0999 V2000
   -4.5990   12.2070  -32.7550 C   0  0  0  0  0  0  0  0  0  0  0  0
   -5.3020   13.0760  -33.6370 O   0  0  0  0  0  0  0  0  0  0  0  0
   -5.5460   14.4340  -33.3810 C   0  0  0  0  0  0  0  0  0  0  0  0
   -6.5830   15.0650  -34.0760 C   0  0  0  0  0  0  0  0  0  0  0  0
   -6.8670   16.4170  -33.8570 C   0  0  0  0  0  0  0  0  0  0  0  0
   -6.1140   17.1630  -32.9340 C   0  0  0  0  0  0  0  0  0  0  0  0
   -6.4140   18.5990  -32.7000 C   0  0  0  0  0  0  0  0  0  0  0  0
   -7.7410   19.0350  -32.5390 C   0  0  0  0  0  0  0  0  0  0  0  0
   -8.0230   20.3850  -32.3180 C   0  0  0  0  0  0  0  0  0  0  0  0
   -6.9800   21.3200  -32.2480 C   0  0  0  0  0  0  0  0  0  0  0  0
   -5.6580   20.9040  -32.4260 C   0  0  0  0  0  0  0  0  0  0  0  0
   -5.3760   19.5450  -32.6380 C   0  0  0  0  0  0  0  0  0  0  0  0
   -4.5970   21.8640  -32.3400 N   0  0  0  0  0  0  0  0  0  0  0  0
   -3.9200   22.2630  -33.5780 C   0  0  0  0  0  0  0  0  0  0  0  0
   -4.3260   22.5530  -31.0980 C   0  0  0  0  0  0  0  0  0  0  0  0
   -2.9910   22.6360  -30.6580 C   0  0  0  0  0  0  0  0  0  0  0  0
   -2.6560   23.2920  -29.4760 C   0  0  0  0  0  0  0  0  0  0  0  0
   -3.6490   23.9010  -28.7000 C   0  0  0  0  0  0  0  0  0  0  0  0
   -3.3310   24.5900  -27.4760 N   0  0  0  0  0  0  0  0  0  0  0  0
   -2.2440   24.2270  -26.6120 C   0  0  0  0  0  0  0  0  0  0  0  0
   -1.7120   22.9330  -26.7020 C   0  0  0  0  0  0  0  0  0  0  0  0
   -0.6380   22.5520  -25.8940 C   0  0  0  0  0  0  0  0  0  0  0  0
   -0.0940   23.4560  -24.9810 C   0  0  0  0  0  0  0  0  0  0  0  0
   -0.6340   24.7390  -24.8610 C   0  0  0  0  0  0  0  0  0  0  0  0
   -1.7190   25.1340  -25.6610 C   0  0  0  0  0  0  0  0  0  0  0  0
   -2.2940   26.4310  -25.4680 N   0  0  0  0  0  0  0  0  0  0  0  0
   -4.9820   23.8200  -29.1160 C   0  0  0  0  0  0  0  0  0  0  0  0
   -5.3500   23.1500  -30.2990 C   0  0  0  0  0  0  0  0  0  0  0  0
   -6.8370   23.1810  -30.6310 C   0  0  0  0  0  0  0  0  0  0  0  0
   -7.2560   22.7780  -32.0360 C   0  0  0  0  0  0  0  0  0  0  0  0
   -5.0720   16.5280  -32.2350 C   0  0  0  0  0  0  0  0  0  0  0  0
   -4.7890   15.1760  -32.4550 C   0  0  0  0  0  0  0  0  0  0  0  0
   -4.8220   12.4827  -31.7137 H   0  0  0  0  0  0  0  0  0  0  0  0
   -4.9142   11.1686  -32.9349 H   0  0  0  0  0  0  0  0  0  0  0  0
   -3.5177   12.2984  -32.9349 H   0  0  0  0  0  0  0  0  0  0  0  0
   -7.1804   14.4930  -34.8012 H   0  0  0  0  0  0  0  0  0  0  0  0
   -7.6855   16.8998  -34.4111 H   0  0  0  0  0  0  0  0  0  0  0  0
   -8.5640   18.3068  -32.5875 H   0  0  0  0  0  0  0  0  0  0  0  0
   -9.0653   20.7156  -32.1986 H   0  0  0  0  0  0  0  0  0  0  0  0
   -4.3327   19.2173  -32.7567 H   0  0  0  0  0  0  0  0  0  0  0  0
   -2.9964   22.8073  -33.3318 H   0  0  0  0  0  0  0  0  0  0  0  0
   -3.6718   21.3667  -34.1655 H   0  0  0  0  0  0  0  0  0  0  0  0
   -4.5839   22.9142  -34.1655 H   0  0  0  0  0  0  0  0  0  0  0  0
   -2.1958   22.1729  -31.2606 H   0  0  0  0  0  0  0  0  0  0  0  0
   -1.6059   23.3317  -29.1507 H   0  0  0  0  0  0  0  0  0  0  0  0
   -4.0030   25.3110  -27.1250 H   0  0  0  0  0  0  0  0  0  0  0  0
   -2.1430   22.2132  -27.4134 H   0  0  0  0  0  0  0  0  0  0  0  0
   -0.2206   21.5377  -25.9777 H   0  0  0  0  0  0  0  0  0  0  0  0
    0.7604   23.1584  -24.3554 H   0  0  0  0  0  0  0  0  0  0  0  0
   -0.2061   25.4454  -24.1344 H   0  0  0  0  0  0  0  0  0  0  0  0
   -2.5970   27.0220  -26.2720 H   0  0  0  0  0  0  0  0  0  0  0  0
   -2.4820   26.7910  -24.5060 H   0  0  0  0  0  0  0  0  0  0  0  0
   -5.7638   24.2922  -28.5029 H   0  0  0  0  0  0  0  0  0  0  0  0
   -7.3445   22.5025  -29.9295 H   0  0  0  0  0  0  0  0  0  0  0  0
   -7.1178   24.2415  -30.5506 H   0  0  0  0  0  0  0  0  0  0  0  0
   -8.3315   22.9690  -32.1655 H   0  0  0  0  0  0  0  0  0  0  0  0
   -6.6849   23.3667  -32.7689 H   0  0  0  0  0  0  0  0  0  0  0  0
   -4.4746   17.0993  -31.5092 H   0  0  0  0  0  0  0  0  0  0  0  0
   -3.9714   14.6906  -31.9020 H   0  0  0  0  0  0  0  0  0  0  0  0
  1  2  1  0
  2  3  1  0
  3  4  2  0
  4  5  1  0
  5  6  2  0
  6  7  1  0
  7  8  2  0
  8  9  1  0
  9 10  2  0
 10 11  1  0
 11 12  2  0
 11 13  1  0
 13 14  1  0
 13 15  1  0
 15 16  2  0
 16 17  1  0
 17 18  2  0
 18 19  1  0
 19 20  1  0
 20 21  2  0
 21 22  1  0
 22 23  2  0
 23 24  1  0
 24 25  2  0
 25 26  1  0
 18 27  1  0
 27 28  2  0
 28 29  1  0
 29 30  1  0
  6 31  1  0
 31 32  2  0
 32  3  1  0
 12  7  1  0
 28 15  1  0
 30 10  1  0
 25 20  1  0
  1 33  1  0
  1 34  1  0
  1 35  1  0
  4 36  1  0
  5 37  1  0
  8 38  1  0
  9 39  1  0
 12 40  1  0
 14 41  1  0
 14 42  1  0
 14 43  1  0
 16 44  1  0
 17 45  1  0
 19 46  1  0
 21 47  1  0
 22 48  1  0
 23 49  1  0
 24 50  1  0
 26 51  1  0
 26 52  1  0
 27 53  1  0
 29 54  1  0
 29 55  1  0
 30 56  1  0
 30 57  1  0
 31 58  1  0
 32 59  1  0
M  END
>  <UniqueID>  (47) 
46

>  <SMILES>  (47) 
COc1ccc(-c2ccc3c(c2)N(C)c2ccc(Nc4ccccc4N)cc2CC3)cc1

>  <Energy>  (47) 
93.01268736900802

>  <Genealogy>  (47) 
COc1ccc(-c2ccc3c(c2)N(C)c2ccc(Nc4ccccc4N)cc2CC3)cc1 (3D coordinates assigned)
COc1ccc(-c2ccc3c(c2)N(C)c2ccc(Nc4ccccc4N)cc2CC3)cc1 (nonaromatic ring conformer: 93.01268736900802 kcal/mol)

>  <smiles>  (47) 
COc1ccc(-c2ccc3c(c2)N(C)c2ccc(Nc4ccccc4N)cc2CC3)cc1

>  <score_type>  (47) 
oracle

>  <origin>  (47) 
adg

>  <m_score__min__energy>  (47) 
-6.9699999999999998

>  <m_primary>  (47) 
energy

$$$$
47:0
     RDKit          3D

 41 43  0  0  0  0  0  0  0  0999 V2000
    1.8520   20.7690  -34.6340 C   0  0  0  0  0  0  0  0  0  0  0  0
    0.9380   21.9200  -34.6570 N   0  0  0  0  0  0  0  0  0  0  0  0
    1.1770   22.7950  -35.8140 C   0  0  0  0  0  0  0  0  0  0  0  0
   -0.4830   21.5610  -34.4500 C   0  0  0  0  0  0  0  0  0  0  0  0
   -0.7580   20.4650  -33.3890 C   0  0  0  0  0  0  0  0  0  0  0  0
   -2.1700   20.0140  -33.3620 N   0  0  0  0  0  0  0  0  0  0  0  0
   -2.4750   18.7210  -33.7230 C   0  0  0  0  0  0  0  0  0  0  0  0
   -1.5590   17.9280  -34.0790 O   0  0  0  0  0  0  0  0  0  0  0  0
   -3.7590   18.2690  -33.7160 N   0  0  0  0  0  0  0  0  0  0  0  0
   -4.8080   19.0820  -33.3990 C   0  0  0  0  0  0  0  0  0  0  0  0
   -6.1190   18.6530  -33.4480 N   0  0  0  0  0  0  0  0  0  0  0  0
   -6.4510   17.3780  -34.1170 C   0  0  0  0  0  0  0  0  0  0  0  0
   -7.1170   19.4360  -32.8900 C   0  0  0  0  0  0  0  0  0  0  0  0
   -8.4330   18.9430  -32.6920 C   0  0  0  0  0  0  0  0  0  0  0  0
   -9.4370   19.7610  -32.1680 C   0  0  0  0  0  0  0  0  0  0  0  0
   -9.1570   21.0770  -31.8130 C   0  0  0  0  0  0  0  0  0  0  0  0
   -7.8660   21.5790  -31.9570 C   0  0  0  0  0  0  0  0  0  0  0  0
   -6.8410   20.7680  -32.4730 C   0  0  0  0  0  0  0  0  0  0  0  0
   -5.5470   21.2790  -32.5610 C   0  0  0  0  0  0  0  0  0  0  0  0
   -4.5040   20.4630  -32.9870 C   0  0  0  0  0  0  0  0  0  0  0  0
   -3.1710   20.8910  -33.0220 C   0  0  0  0  0  0  0  0  0  0  0  0
   -2.8990   22.0870  -32.7240 O   0  0  0  0  0  0  0  0  0  0  0  0
    2.0699   20.4946  -33.5913 H   0  0  0  0  0  0  0  0  0  0  0  0
    1.3817   19.9170  -35.1467 H   0  0  0  0  0  0  0  0  0  0  0  0
    2.7884   21.0341  -35.1467 H   0  0  0  0  0  0  0  0  0  0  0  0
    1.4517   23.8006  -35.4627 H   0  0  0  0  0  0  0  0  0  0  0  0
    1.9955   22.3829  -36.4225 H   0  0  0  0  0  0  0  0  0  0  0  0
    0.2627   22.8562  -36.4225 H   0  0  0  0  0  0  0  0  0  0  0  0
   -1.0187   22.4708  -34.1411 H   0  0  0  0  0  0  0  0  0  0  0  0
   -0.8257   21.1407  -35.4070 H   0  0  0  0  0  0  0  0  0  0  0  0
   -0.1188   19.5974  -33.6099 H   0  0  0  0  0  0  0  0  0  0  0  0
   -0.5377   20.9031  -32.4044 H   0  0  0  0  0  0  0  0  0  0  0  0
   -3.9040   17.2590  -33.9340 H   0  0  0  0  0  0  0  0  0  0  0  0
   -6.6517   16.6072  -33.3583 H   0  0  0  0  0  0  0  0  0  0  0  0
   -7.3434   17.5151  -34.7454 H   0  0  0  0  0  0  0  0  0  0  0  0
   -5.6051   17.0625  -34.7454 H   0  0  0  0  0  0  0  0  0  0  0  0
   -8.6661   17.9007  -32.9552 H   0  0  0  0  0  0  0  0  0  0  0  0
  -10.4538   19.3628  -32.0354 H   0  0  0  0  0  0  0  0  0  0  0  0
   -9.9562   21.7215  -31.4182 H   0  0  0  0  0  0  0  0  0  0  0  0
   -7.6473   22.6167  -31.6650 H   0  0  0  0  0  0  0  0  0  0  0  0
   -5.3506   22.3278  -32.2935 H   0  0  0  0  0  0  0  0  0  0  0  0
  1  2  1  0
  2  3  1  0
  2  4  1  0
  4  5  1  0
  5  6  1  0
  6  7  1  0
  7  8  2  0
  7  9  1  0
  9 10  2  0
 10 11  1  0
 11 12  1  0
 11 13  1  0
 13 14  2  0
 14 15  1  0
 15 16  2  0
 16 17  1  0
 17 18  2  0
 18 19  1  0
 19 20  2  0
 20 21  1  0
 21 22  2  0
 21  6  1  0
 20 10  1  0
 18 13  1  0
  1 23  1  0
  1 24  1  0
  1 25  1  0
  3 26  1  0
  3 27  1  0
  3 28  1  0
  4 29  1  0
  4 30  1  0
  5 31  1  0
  5 32  1  0
  9 33  1  0
 12 34  1  0
 12 35  1  0
 12 36  1  0
 14 37  1  0
 15 38  1  0
 16 39  1  0
 17 40  1  0
 19 41  1  0
M  CHG  1   9   1
M  END
>  <UniqueID>  (48) 
47

>  <SMILES>  (48) 
CN(C)CCn1c(=O)[nH+]c2n(C)c3ccccc3cc-2c1=O

>  <Energy>  (48) 
69.04693692150421

>  <Genealogy>  (48) 
CN(C)CCn1c(=O)[nH+]c2n(C)c3ccccc3cc-2c1=O (protonated)
CN(C)CCn1c(=O)[nH+]c2n(C)c3ccccc3cc-2c1=O (3D coordinates assigned)
CN(C)CCn1c(=O)[nH+]c2n(C)c3ccccc3cc-2c1=O (optimized conformer: 69.04693692150421 kcal/mol)

>  <smiles>  (48) 
CN(C)CCn1c(=O)nc2n(C)c3ccccc3cc-2c1=O

>  <score_type>  (48) 
oracle

>  <origin>  (48) 
adg

>  <m_score__min__energy>  (48) 
-6.8799999999999999

>  <m_primary>  (48) 
energy

$$$$
