0:0
     RDKit          3D

 54 57  0  0  0  0  0  0  0  0999 V2000
   -2.0240   22.9990  -29.7130 C   0  0  0  0  0  0  0  0  0  0  0  0
   -2.9430   24.2190  -29.7130 C   0  0  0  0  0  0  0  0  0  0  0  0
   -4.2790   23.8550  -29.1950 N   0  0  0  0  0  0  0  0  0  0  0  0
   -4.2400   23.5030  -27.7670 C   0  0  0  0  0  0  0  0  0  0  0  0
   -5.3300   24.8510  -29.5190 C   0  0  0  0  0  0  0  0  0  0  0  0
   -5.7130   24.9190  -31.0190 C   0  0  0  0  0  0  0  0  0  0  0  0
   -6.1290   23.5390  -31.5750 C   0  0  0  0  0  0  0  0  0  0  0  0
   -5.3410   22.4140  -31.0320 N   0  0  0  0  0  0  0  0  0  0  0  0
   -5.4890   21.1900  -31.8080 C   0  0  0  0  0  0  0  0  0  0  0  0
   -6.7240   20.4860  -31.9150 C   0  0  0  0  0  0  0  0  0  0  0  0
   -7.8910   20.8900  -31.2150 C   0  0  0  0  0  0  0  0  0  0  0  0
   -9.0870   20.1890  -31.3400 C   0  0  0  0  0  0  0  0  0  0  0  0
   -9.1580   19.0710  -32.1530 C   0  0  0  0  0  0  0  0  0  0  0  0
   -8.0340   18.6400  -32.8500 C   0  0  0  0  0  0  0  0  0  0  0  0
   -6.7980   19.3300  -32.7550 C   0  0  0  0  0  0  0  0  0  0  0  0
   -5.6890   18.9010  -33.4610 N   0  0  0  0  0  0  0  0  0  0  0  0
   -5.7880   17.7360  -34.3680 C   0  0  0  0  0  0  0  0  0  0  0  0
   -4.4870   19.5490  -33.3200 C   0  0  0  0  0  0  0  0  0  0  0  0
   -3.3730   19.1070  -33.9760 N   0  0  0  0  0  0  0  0  0  0  0  0
   -2.1720   19.7250  -33.8610 C   0  0  0  0  0  0  0  0  0  0  0  0
   -1.0510   19.2470  -34.5480 C   0  0  0  0  0  0  0  0  0  0  0  0
    0.1780   19.9020  -34.4140 C   0  0  0  0  0  0  0  0  0  0  0  0
    0.2870   21.0320  -33.5940 C   0  0  0  0  0  0  0  0  0  0  0  0
   -0.8330   21.5120  -32.9050 C   0  0  0  0  0  0  0  0  0  0  0  0
   -2.0620   20.8580  -33.0380 C   0  0  0  0  0  0  0  0  0  0  0  0
   -3.1610   21.3050  -32.3820 N   0  0  0  0  0  0  0  0  0  0  0  0
   -4.3720   20.6880  -32.4970 C   0  0  0  0  0  0  0  0  0  0  0  0
   -1.8034   22.7061  -28.6759 H   0  0  0  0  0  0  0  0  0  0  0  0
   -2.5208   22.1657  -30.2315 H   0  0  0  0  0  0  0  0  0  0  0  0
   -1.0860   23.2465  -30.2315 H   0  0  0  0  0  0  0  0  0  0  0  0
   -2.5072   25.0016  -29.0746 H   0  0  0  0  0  0  0  0  0  0  0  0
   -3.0474   24.5884  -30.7439 H   0  0  0  0  0  0  0  0  0  0  0  0
   -4.3411   24.4158  -27.1615 H   0  0  0  0  0  0  0  0  0  0  0  0
   -5.0675   22.8161  -27.5359 H   0  0  0  0  0  0  0  0  0  0  0  0
   -3.2822   23.0139  -27.5359 H   0  0  0  0  0  0  0  0  0  0  0  0
   -6.2332   24.5958  -28.9454 H   0  0  0  0  0  0  0  0  0  0  0  0
   -4.9172   25.8365  -29.2574 H   0  0  0  0  0  0  0  0  0  0  0  0
   -6.5537   25.6181  -31.1392 H   0  0  0  0  0  0  0  0  0  0  0  0
   -4.8293   25.2580  -31.5795 H   0  0  0  0  0  0  0  0  0  0  0  0
   -7.1879   23.3711  -31.3289 H   0  0  0  0  0  0  0  0  0  0  0  0
   -5.9468   23.5630  -32.6595 H   0  0  0  0  0  0  0  0  0  0  0  0
   -4.3330   22.6950  -31.0510 H   0  0  0  0  0  0  0  0  0  0  0  0
   -5.5420   22.2990  -30.0180 H   0  0  0  0  0  0  0  0  0  0  0  0
   -7.8493   21.7738  -30.5614 H   0  0  0  0  0  0  0  0  0  0  0  0
   -9.9790   20.5247  -30.7907 H   0  0  0  0  0  0  0  0  0  0  0  0
  -10.1062   18.5216  -32.2482 H   0  0  0  0  0  0  0  0  0  0  0  0
   -8.1049   17.7464  -33.4875 H   0  0  0  0  0  0  0  0  0  0  0  0
   -5.8664   16.8139  -33.7733 H   0  0  0  0  0  0  0  0  0  0  0  0
   -6.6805   17.8401  -35.0025 H   0  0  0  0  0  0  0  0  0  0  0  0
   -4.8907   17.6880  -35.0025 H   0  0  0  0  0  0  0  0  0  0  0  0
   -1.1356   18.3589  -35.1915 H   0  0  0  0  0  0  0  0  0  0  0  0
    1.0606   19.5286  -34.9539 H   0  0  0  0  0  0  0  0  0  0  0  0
    1.2553   21.5437  -33.4911 H   0  0  0  0  0  0  0  0  0  0  0  0
   -0.7468   22.4000  -32.2616 H   0  0  0  0  0  0  0  0  0  0  0  0
  1  2  1  0
  2  3  1  0
  3  4  1  0
  3  5  1  0
  5  6  1  0
  6  7  1  0
  7  8  1  0
  8  9  1  0
  9 10  2  0
 10 11  1  0
 11 12  2  0
 12 13  1  0
 13 14  2  0
 14 15  1  0
 15 16  2  0
 16 17  1  0
 16 18  1  0
 18 19  2  0
 19 20  1  0
 20 21  2  0
 21 22  1  0
 22 23  2  0
 23 24  1  0
 24 25  2  0
 25 26  1  0
 26 27  2  0
 27  9  1  0
 15 10  1  0
 27 18  1  0
 25 20  1  0
  1 28  1  0
  1 29  1  0
  1 30  1  0
  2 31  1  0
  2 32  1  0
  4 33  1  0
  4 34  1  0
  4 35  1  0
  5 36  1  0
  5 37  1  0
  6 38  1  0
  6 39  1  0
  7 40  1  0
  7 41  1  0
  8 42  1  0
  8 43  1  0
 11 44  1  0
 12 45  1  0
 13 46  1  0
 14 47  1  0
 17 48  1  0
 17 49  1  0
 17 50  1  0
 21 51  1  0
 22 52  1  0
 23 53  1  0
 24 54  1  0
M  CHG  2   8   1  16   1
M  END
>  <UniqueID>  (1) 
1

>  <SMILES>  (1) 
CCN(C)CCC[NH2+]c1c2ccccc2[n+](C)c2nc3ccccc3nc12

>  <Energy>  (1) 
80.08054455607257

>  <Genealogy>  (1) 
CCN(C)CCC[NH2+]c1c2ccccc2[n+](C)c2nc3ccccc3nc12 (protonated)
CCN(C)CCC[NH2+]c1c2ccccc2[n+](C)c2nc3ccccc3nc12 (3D coordinates assigned)
CCN(C)CCC[NH2+]c1c2ccccc2[n+](C)c2nc3ccccc3nc12 (optimized conformer: 80.08054455607257 kcal/mol)

>  <smiles>  (1) 
CCN(C)CCCNc1c2ccccc2[n+](C)c2nc3ccccc3nc12

>  <score_type>  (1) 
oracle

>  <origin>  (1) 
adg

>  <m_score__min__energy>  (1) 
-8.5800000000000001

>  <m_primary>  (1) 
energy

$$$$
1:0
     RDKit          3D

 50 53  0  0  0  0  0  0  0  0999 V2000
   -6.2670   25.6930  -29.2850 C   0  0  0  0  0  0  0  0  0  0  0  0
   -6.3250   25.3770  -30.6710 O   0  0  0  0  0  0  0  0  0  0  0  0
   -6.2230   24.0790  -31.1990 C   0  0  0  0  0  0  0  0  0  0  0  0
   -7.3550   23.3740  -31.6540 C   0  0  0  0  0  0  0  0  0  0  0  0
   -7.2160   22.1080  -32.2290 C   0  0  0  0  0  0  0  0  0  0  0  0
   -5.9520   21.5360  -32.3650 C   0  0  0  0  0  0  0  0  0  0  0  0
   -4.8230   22.2190  -31.9110 C   0  0  0  0  0  0  0  0  0  0  0  0
   -4.9500   23.4750  -31.3000 C   0  0  0  0  0  0  0  0  0  0  0  0
   -3.7570   24.1380  -30.8510 N   0  0  0  0  0  0  0  0  0  0  0  0
   -3.0990   23.8630  -29.7630 C   0  0  0  0  0  0  0  0  0  0  0  0
   -2.8770   22.5780  -29.3830 N   0  0  0  0  0  0  0  0  0  0  0  0
   -2.1780   22.3010  -28.2520 C   0  0  0  0  0  0  0  0  0  0  0  0
   -1.9730   20.9330  -27.8380 N   0  0  0  0  0  0  0  0  0  0  0  0
   -0.8510   20.1660  -28.3980 C   0  0  0  0  0  0  0  0  0  0  0  0
   -0.4900   18.9950  -27.4800 C   0  0  0  0  0  0  0  0  0  0  0  0
   -1.6380   18.2360  -27.1590 O   0  0  0  0  0  0  0  0  0  0  0  0
   -2.5170   19.0220  -26.3800 C   0  0  0  0  0  0  0  0  0  0  0  0
   -3.0680   20.1940  -27.1960 C   0  0  0  0  0  0  0  0  0  0  0  0
   -1.6850   23.3270  -27.5100 N   0  0  0  0  0  0  0  0  0  0  0  0
   -1.8880   24.6180  -27.8850 C   0  0  0  0  0  0  0  0  0  0  0  0
   -1.3560   25.6990  -27.0910 N   0  0  0  0  0  0  0  0  0  0  0  0
   -0.4780   26.7010  -27.7150 C   0  0  0  0  0  0  0  0  0  0  0  0
   -0.4900   28.0030  -26.9090 C   0  0  0  0  0  0  0  0  0  0  0  0
   -0.2400   27.7520  -25.5420 O   0  0  0  0  0  0  0  0  0  0  0  0
   -1.3080   27.0020  -24.9980 C   0  0  0  0  0  0  0  0  0  0  0  0
   -1.3690   25.6060  -25.6250 C   0  0  0  0  0  0  0  0  0  0  0  0
   -2.5970   24.8770  -29.0160 N   0  0  0  0  0  0  0  0  0  0  0  0
   -6.4344   24.7807  -28.6936 H   0  0  0  0  0  0  0  0  0  0  0  0
   -5.2775   26.1092  -29.0449 H   0  0  0  0  0  0  0  0  0  0  0  0
   -7.0442   26.4334  -29.0449 H   0  0  0  0  0  0  0  0  0  0  0  0
   -8.3544   23.8230  -31.5560 H   0  0  0  0  0  0  0  0  0  0  0  0
   -8.1058   21.5616  -32.5750 H   0  0  0  0  0  0  0  0  0  0  0  0
   -5.8445   20.5452  -32.8307 H   0  0  0  0  0  0  0  0  0  0  0  0
   -3.8266   21.7692  -32.0332 H   0  0  0  0  0  0  0  0  0  0  0  0
   -1.1365   19.7764  -29.3863 H   0  0  0  0  0  0  0  0  0  0  0  0
    0.0223   20.8286  -28.4891 H   0  0  0  0  0  0  0  0  0  0  0  0
    0.2388   18.3482  -27.9904 H   0  0  0  0  0  0  0  0  0  0  0  0
   -0.0611   19.3958  -26.5497 H   0  0  0  0  0  0  0  0  0  0  0  0
   -3.3542   18.3954  -26.0386 H   0  0  0  0  0  0  0  0  0  0  0  0
   -1.9618   19.4226  -25.5190 H   0  0  0  0  0  0  0  0  0  0  0  0
   -3.7474   19.8083  -27.9704 H   0  0  0  0  0  0  0  0  0  0  0  0
   -3.6091   20.8741  -26.5216 H   0  0  0  0  0  0  0  0  0  0  0  0
    0.5489   26.3086  -27.7530 H   0  0  0  0  0  0  0  0  0  0  0  0
   -0.8430   26.9092  -28.7316 H   0  0  0  0  0  0  0  0  0  0  0  0
    0.2878   28.6756  -27.2997 H   0  0  0  0  0  0  0  0  0  0  0  0
   -1.4829   28.4667  -27.0052 H   0  0  0  0  0  0  0  0  0  0  0  0
   -1.1626   26.9033  -23.9121 H   0  0  0  0  0  0  0  0  0  0  0  0
   -2.2511   27.5258  -25.2128 H   0  0  0  0  0  0  0  0  0  0  0  0
   -0.4990   25.0212  -25.2917 H   0  0  0  0  0  0  0  0  0  0  0  0
   -2.3006   25.1143  -25.3081 H   0  0  0  0  0  0  0  0  0  0  0  0
  1  2  1  0
  2  3  1  0
  3  4  2  0
  4  5  1  0
  5  6  2  0
  6  7  1  0
  7  8  2  0
  8  9  1  0
  9 10  2  3
 10 11  1  0
 11 12  2  0
 12 13  1  0
 13 14  1  0
 14 15  1  0
 15 16  1  0
 16 17  1  0
 17 18  1  0
 12 19  1  0
 19 20  2  0
 20 21  1  0
 21 22  1  0
 22 23  1  0
 23 24  1  0
 24 25  1  0
 25 26  1  0
 20 27  1  0
  8  3  1  0
 27 10  1  0
 18 13  1  0
 26 21  1  0
  1 28  1  0
  1 29  1  0
  1 30  1  0
  4 31  1  0
  5 32  1  0
  6 33  1  0
  7 34  1  0
 14 35  1  0
 14 36  1  0
 15 37  1  0
 15 38  1  0
 17 39  1  0
 17 40  1  0
 18 41  1  0
 18 42  1  0
 22 43  1  0
 22 44  1  0
 23 45  1  0
 23 46  1  0
 25 47  1  0
 25 48  1  0
 26 49  1  0
 26 50  1  0
M  CHG  1  27  -1
M  END
>  <UniqueID>  (2) 
2

>  <SMILES>  (2) 
COc1ccccc1N=c1nc(N2CCOCC2)nc(N2CCOCC2)[n-]1

>  <Energy>  (2) 
61.777906133643725

>  <Genealogy>  (2) 
COc1ccccc1N=c1nc(N2CCOCC2)nc(N2CCOCC2)[n-]1 (protonated)
COc1ccccc1N=c1nc(N2CCOCC2)nc(N2CCOCC2)[n-]1 (3D coordinates assigned)
COc1ccccc1N=c1nc(N2CCOCC2)nc(N2CCOCC2)[n-]1 (nonaromatic ring conformer: 61.777906133643725 kcal/mol)

>  <smiles>  (2) 
COc1ccccc1N=c1nc(N2CCOCC2)nc(N2CCOCC2)[nH]1

>  <score_type>  (2) 
oracle

>  <origin>  (2) 
adg

>  <m_score__min__energy>  (2) 
-8.2200000000000006

>  <m_primary>  (2) 
energy

$$$$
2:0
     RDKit          3D

 43 45  0  0  0  0  0  0  0  0999 V2000
   -6.1180   25.0330  -29.7840 C   0  0  0  0  0  0  0  0  0  0  0  0
   -5.0150   25.2200  -30.8380 C   0  0  0  0  0  0  0  0  0  0  0  0
   -3.8640   24.3020  -30.6730 N   0  0  0  0  0  0  0  0  0  0  0  0
   -3.1320   24.5500  -29.4180 C   0  0  0  0  0  0  0  0  0  0  0  0
   -4.2440   22.8810  -30.8270 C   0  0  0  0  0  0  0  0  0  0  0  0
   -3.6400   22.2970  -32.1070 C   0  0  0  0  0  0  0  0  0  0  0  0
   -4.6950   22.0290  -33.0830 N   0  0  0  0  0  0  0  0  0  0  0  0
   -5.7740   21.1330  -32.7740 C   0  0  0  0  0  0  0  0  0  0  0  0
   -5.6090   19.7280  -32.8220 C   0  0  0  0  0  0  0  0  0  0  0  0
   -4.3510   19.1590  -33.1040 C   0  0  0  0  0  0  0  0  0  0  0  0
   -4.1930   17.7750  -33.1560 C   0  0  0  0  0  0  0  0  0  0  0  0
   -5.2770   16.9370  -32.9180 C   0  0  0  0  0  0  0  0  0  0  0  0
   -6.5290   17.4720  -32.6160 C   0  0  0  0  0  0  0  0  0  0  0  0
   -6.7270   18.8730  -32.5520 C   0  0  0  0  0  0  0  0  0  0  0  0
   -7.9590   19.4160  -32.2300 N   0  0  0  0  0  0  0  0  0  0  0  0
   -9.1250   18.5540  -31.9550 C   0  0  0  0  0  0  0  0  0  0  0  0
   -8.0760   20.7790  -32.1600 C   0  0  0  0  0  0  0  0  0  0  0  0
   -9.4450   21.6930  -31.7860 S   0  0  0  0  0  0  0  0  0  0  0  0
   -8.7000   23.1950  -31.9540 C   0  0  0  0  0  0  0  0  0  0  0  0
   -7.3690   22.9980  -32.3070 C   0  0  0  0  0  0  0  0  0  0  0  0
   -7.0240   21.6400  -32.4180 C   0  0  0  0  0  0  0  0  0  0  0  0
   -5.6800   25.1073  -28.7777 H   0  0  0  0  0  0  0  0  0  0  0  0
   -6.8818   25.8145  -29.9100 H   0  0  0  0  0  0  0  0  0  0  0  0
   -6.5816   24.0434  -29.9100 H   0  0  0  0  0  0  0  0  0  0  0  0
   -5.4538   25.0498  -31.8322 H   0  0  0  0  0  0  0  0  0  0  0  0
   -4.6276   26.2423  -30.7162 H   0  0  0  0  0  0  0  0  0  0  0  0
   -3.7863   24.3283  -28.5620 H   0  0  0  0  0  0  0  0  0  0  0  0
   -2.2435   23.9027  -29.3777 H   0  0  0  0  0  0  0  0  0  0  0  0
   -2.8199   25.6040  -29.3777 H   0  0  0  0  0  0  0  0  0  0  0  0
   -3.8748   22.3122  -29.9609 H   0  0  0  0  0  0  0  0  0  0  0  0
   -5.3401   22.8118  -30.8886 H   0  0  0  0  0  0  0  0  0  0  0  0
   -2.9245   23.0159  -32.5327 H   0  0  0  0  0  0  0  0  0  0  0  0
   -3.1252   21.3554  -31.8654 H   0  0  0  0  0  0  0  0  0  0  0  0
   -4.4700   22.1980  -34.0890 H   0  0  0  0  0  0  0  0  0  0  0  0
   -3.4854   19.8133  -33.2848 H   0  0  0  0  0  0  0  0  0  0  0  0
   -3.2074   17.3442  -33.3861 H   0  0  0  0  0  0  0  0  0  0  0  0
   -5.1462   15.8460  -32.9682 H   0  0  0  0  0  0  0  0  0  0  0  0
   -7.3753   16.7959  -32.4247 H   0  0  0  0  0  0  0  0  0  0  0  0
   -9.2593   18.4547  -30.8678 H   0  0  0  0  0  0  0  0  0  0  0  0
  -10.0263   19.0046  -32.3961 H   0  0  0  0  0  0  0  0  0  0  0  0
   -8.9585   17.5602  -32.3961 H   0  0  0  0  0  0  0  0  0  0  0  0
   -9.1862   24.1709  -31.8085 H   0  0  0  0  0  0  0  0  0  0  0  0
   -6.6595   23.8203  -32.4813 H   0  0  0  0  0  0  0  0  0  0  0  0
  1  2  1  0
  2  3  1  0
  3  4  1  0
  3  5  1  0
  5  6  1  0
  6  7  1  0
  7  8  1  0
  8  9  2  0
  9 10  1  0
 10 11  2  0
 11 12  1  0
 12 13  2  0
 13 14  1  0
 14 15  2  0
 15 16  1  0
 15 17  1  0
 17 18  1  0
 18 19  1  0
 19 20  2  0
 20 21  1  0
 21  8  1  0
 14  9  1  0
 21 17  2  0
  1 22  1  0
  1 23  1  0
  1 24  1  0
  2 25  1  0
  2 26  1  0
  4 27  1  0
  4 28  1  0
  4 29  1  0
  5 30  1  0
  5 31  1  0
  6 32  1  0
  6 33  1  0
  7 34  1  0
 10 35  1  0
 11 36  1  0
 12 37  1  0
 13 38  1  0
 16 39  1  0
 16 40  1  0
 16 41  1  0
 19 42  1  0
 20 43  1  0
M  CHG  1  15   1
M  END
>  <UniqueID>  (3) 
3

>  <SMILES>  (3) 
CCN(C)CCNc1c2ccccc2[n+](C)c2sccc12

>  <Energy>  (3) 
89.84875823423846

>  <Genealogy>  (3) 
CCN(C)CCNc1c2ccccc2[n+](C)c2sccc12 (3D coordinates assigned)
CCN(C)CCNc1c2ccccc2[n+](C)c2sccc12 (optimized conformer: 89.84875823423846 kcal/mol)

>  <smiles>  (3) 
CCN(C)CCNc1c2ccccc2[n+](C)c2sccc12

>  <score_type>  (3) 
oracle

>  <origin>  (3) 
adg

>  <m_score__min__energy>  (3) 
-7.9500000000000002

>  <m_primary>  (3) 
energy

$$$$
3:0
     RDKit          3D

 63 67  0  0  0  0  0  0  0  0999 V2000
    4.9062   16.3560  -28.5123 H   0  0  0  0  0  0  0  0  0  0  0  0
    3.8230   16.1750  -28.4490 C   0  0  0  0  0  0  0  0  0  0  0  0
    3.3290   15.2020  -27.5780 C   0  0  0  0  0  0  0  0  0  0  0  0
    4.0239   14.6062  -26.9680 H   0  0  0  0  0  0  0  0  0  0  0  0
    1.9530   14.9850  -27.4810 C   0  0  0  0  0  0  0  0  0  0  0  0
    1.2810   13.6810  -26.2700 Br  0  0  0  0  0  0  0  0  0  0  0  0
    1.0720   15.7400  -28.2600 C   0  0  0  0  0  0  0  0  0  0  0  0
   -0.0131   15.5877  -28.1636 H   0  0  0  0  0  0  0  0  0  0  0  0
    1.5670   16.6920  -29.1650 C   0  0  0  0  0  0  0  0  0  0  0  0
    0.6760   17.5120  -29.9400 N   0  0  0  0  0  0  0  0  0  0  0  0
    0.2470   18.7130  -29.6490 C   0  0  0  0  0  0  0  0  0  0  0  0
    0.5030   19.3020  -28.4040 C   0  0  0  0  0  0  0  0  0  0  0  0
    1.0697   18.7475  -27.6416 H   0  0  0  0  0  0  0  0  0  0  0  0
    0.0440   20.5830  -28.1290 C   0  0  0  0  0  0  0  0  0  0  0  0
    0.2461   21.0233  -27.1414 H   0  0  0  0  0  0  0  0  0  0  0  0
   -0.6560   21.3160  -29.0570 N   0  0  0  0  0  0  0  0  0  0  0  0
   -1.0080   20.7280  -30.2630 C   0  0  0  0  0  0  0  0  0  0  0  0
   -1.8480   21.4070  -31.1840 C   0  0  0  0  0  0  0  0  0  0  0  0
   -2.1350   20.8310  -32.4560 C   0  0  0  0  0  0  0  0  0  0  0  0
   -2.8290   21.5690  -33.4940 N   0  0  0  0  0  0  0  0  0  0  0  0
   -2.3470   22.4860  -33.6530 H   0  0  0  0  0  0  0  0  0  0  0  0
   -2.8090   21.0850  -34.4080 H   0  0  0  0  0  0  0  0  0  0  0  0
   -4.2230   21.8250  -33.0860 C   0  0  0  0  0  0  0  0  0  0  0  0
   -4.8433   21.9393  -33.9872 H   0  0  0  0  0  0  0  0  0  0  0  0
   -4.2402   22.7414  -32.4778 H   0  0  0  0  0  0  0  0  0  0  0  0
   -4.7850   20.6750  -32.2370 C   0  0  0  0  0  0  0  0  0  0  0  0
   -5.5017   21.0860  -31.5107 H   0  0  0  0  0  0  0  0  0  0  0  0
   -3.9432   20.1835  -31.7273 H   0  0  0  0  0  0  0  0  0  0  0  0
   -5.4710   19.6660  -33.0660 N   0  0  0  0  0  0  0  0  0  0  0  0
   -5.3890   18.3310  -32.4660 C   0  0  0  0  0  0  0  0  0  0  0  0
   -5.3945   18.4208  -31.3697 H   0  0  0  0  0  0  0  0  0  0  0  0
   -6.2519   17.7302  -32.7890 H   0  0  0  0  0  0  0  0  0  0  0  0
   -4.4590   17.8403  -32.7890 H   0  0  0  0  0  0  0  0  0  0  0  0
   -6.8560   20.0420  -33.4500 C   0  0  0  0  0  0  0  0  0  0  0  0
   -7.0868   19.5677  -34.4153 H   0  0  0  0  0  0  0  0  0  0  0  0
   -6.8830   21.1407  -33.4966 H   0  0  0  0  0  0  0  0  0  0  0  0
   -7.9290   19.6180  -32.4370 C   0  0  0  0  0  0  0  0  0  0  0  0
   -7.5489   19.7682  -31.4158 H   0  0  0  0  0  0  0  0  0  0  0  0
   -8.8335   20.2263  -32.5847 H   0  0  0  0  0  0  0  0  0  0  0  0
   -8.1734   18.5557  -32.5847 H   0  0  0  0  0  0  0  0  0  0  0  0
   -1.6250   19.5530  -32.7670 C   0  0  0  0  0  0  0  0  0  0  0  0
   -1.8970   19.0090  -34.0370 O   0  0  0  0  0  0  0  0  0  0  0  0
   -2.4450   17.7180  -34.2660 C   0  0  0  0  0  0  0  0  0  0  0  0
   -2.6517   17.2311  -33.3015 H   0  0  0  0  0  0  0  0  0  0  0  0
   -3.3805   17.8127  -34.8369 H   0  0  0  0  0  0  0  0  0  0  0  0
   -1.7270   17.1109  -34.8369 H   0  0  0  0  0  0  0  0  0  0  0  0
   -0.8560   18.8570  -31.8290 C   0  0  0  0  0  0  0  0  0  0  0  0
   -0.4929   17.8472  -32.0708 H   0  0  0  0  0  0  0  0  0  0  0  0
   -0.5390   19.4240  -30.5840 C   0  0  0  0  0  0  0  0  0  0  0  0
   -2.4200   22.6660  -30.7850 N   0  0  0  0  0  0  0  0  0  0  0  0
   -3.2750   23.0440  -31.2340 H   0  0  0  0  0  0  0  0  0  0  0  0
   -1.9460   23.3500  -29.6270 C   0  0  0  0  0  0  0  0  0  0  0  0
   -2.3940   24.6570  -29.3450 C   0  0  0  0  0  0  0  0  0  0  0  0
   -3.2910   25.2990  -30.1940 O   0  0  0  0  0  0  0  0  0  0  0  0
   -1.9360   25.3240  -28.2140 C   0  0  0  0  0  0  0  0  0  0  0  0
   -2.3089   26.3322  -27.9808 H   0  0  0  0  0  0  0  0  0  0  0  0
   -1.0040   24.7140  -27.3760 C   0  0  0  0  0  0  0  0  0  0  0  0
   -0.6311   25.2500  -26.4908 H   0  0  0  0  0  0  0  0  0  0  0  0
   -0.5410   23.4260  -27.6540 C   0  0  0  0  0  0  0  0  0  0  0  0
    0.2219   22.9707  -27.0054 H   0  0  0  0  0  0  0  0  0  0  0  0
   -1.0440   22.6970  -28.7650 C   0  0  0  0  0  0  0  0  0  0  0  0
    2.9460   16.9180  -29.2390 C   0  0  0  0  0  0  0  0  0  0  0  0
    3.3398   17.6845  -29.9227 H   0  0  0  0  0  0  0  0  0  0  0  0
  1  2  1  0
  2  3  2  0
  3  4  1  0
  3  5  1  0
  5  6  1  0
  5  7  2  0
  7  8  1  0
  7  9  1  0
  9 10  1  0
 10 11  2  0
 11 12  1  0
 12 13  1  0
 12 14  2  0
 14 15  1  0
 14 16  1  0
 16 17  1  0
 17 18  2  0
 18 19  1  0
 19 20  1  0
 20 21  1  0
 20 22  1  0
 20 23  1  0
 23 24  1  0
 23 25  1  0
 23 26  1  0
 26 27  1  0
 26 28  1  0
 26 29  1  0
 29 30  1  0
 30 31  1  0
 30 32  1  0
 30 33  1  0
 29 34  1  0
 34 35  1  0
 34 36  1  0
 34 37  1  0
 37 38  1  0
 37 39  1  0
 37 40  1  0
 19 41  2  0
 41 42  1  0
 42 43  1  0
 43 44  1  0
 43 45  1  0
 43 46  1  0
 41 47  1  0
 47 48  1  0
 47 49  2  0
 18 50  1  0
 50 51  1  0
 50 52  1  0
 52 53  2  0
 53 54  1  0
 53 55  1  0
 55 56  1  0
 55 57  2  0
 57 58  1  0
 57 59  1  0
 59 60  1  0
 59 61  2  0
  9 62  2  0
 62 63  1  0
 62  2  1  0
 49 11  1  0
 61 52  1  0
 61 16  1  0
 49 17  1  0
M  CHG  2  20   1  54  -1
M  END
>  <UniqueID>  (4) 
4

>  <SMILES>  (4) 
CCN(C)CC[NH2+]c1c(OC)cc2/c(=N/c3cccc(Br)c3)ccn3c2c1Nc1c([O-])cccc1-3

>  <Energy>  (4) 
102.87604196496068

>  <Genealogy>  (4) 
CCN(C)CC[NH2+]c1c(OC)cc2c(=Nc3cccc(Br)c3)ccn3c2c1Nc1c([O-])cccc1-3 (protonated)
CCN(C)CC[NH2+]c1c(OC)cc2/c(=N/c3cccc(Br)c3)ccn3c2c1Nc1c([O-])cccc1-3 (cis-trans isomerization)
CCN(C)CC[NH2+]c1c(OC)cc2/c(=N/c3cccc(Br)c3)ccn3c2c1Nc1c([O-])cccc1-3 (3D coordinates assigned)
CCN(C)CC[NH2+]c1c(OC)cc2/c(=N/c3cccc(Br)c3)ccn3c2c1Nc1c([O-])cccc1-3 (nonaromatic ring conformer: 102.87604196496068 kcal/mol)

>  <smiles>  (4) 
CCN(C)CCNc1c(OC)cc2c(=Nc3cccc(Br)c3)ccn3c2c1Nc1c(O)cccc1-3

>  <score_type>  (4) 
oracle

>  <origin>  (4) 
adg

>  <m_score__min__energy>  (4) 
-11.470000000000001

>  <m_primary>  (4) 
energy

$$$$
4:0
     RDKit          3D

 44 46  0  0  0  0  0  0  0  0999 V2000
   -2.8330   24.5530  -27.4000 C   0  0  0  0  0  0  0  0  0  0  0  0
   -2.1310   24.9290  -28.7000 C   0  0  0  0  0  0  0  0  0  0  0  0
   -3.0820   25.2810  -29.7050 O   0  0  0  0  0  0  0  0  0  0  0  0
   -4.2640   24.5800  -29.9940 C   0  0  0  0  0  0  0  0  0  0  0  0
   -4.3070   23.1790  -30.1300 C   0  0  0  0  0  0  0  0  0  0  0  0
   -5.5150   22.5350  -30.4160 C   0  0  0  0  0  0  0  0  0  0  0  0
   -6.6980   23.2760  -30.5590 C   0  0  0  0  0  0  0  0  0  0  0  0
   -7.9880   22.5820  -30.9050 C   0  0  0  0  0  0  0  0  0  0  0  0
   -8.0090   22.2470  -32.3390 N   0  0  0  0  0  0  0  0  0  0  0  0
   -8.1340   20.7930  -32.5820 C   0  0  2  0  0  0  0  0  0  0  0  0
   -8.8260   20.0640  -31.3940 C   0  0  0  0  0  0  0  0  0  0  0  0
   -8.6630   18.5210  -31.3860 C   0  0  0  0  0  0  0  0  0  0  0  0
   -7.9850   17.9610  -32.6440 C   0  0  0  0  0  0  0  0  0  0  0  0
   -6.7320   18.7380  -32.9270 C   0  0  0  0  0  0  0  0  0  0  0  0
   -5.5640   18.1000  -33.2290 N   0  0  0  0  0  0  0  0  0  0  0  0
   -4.4150   18.7920  -33.4520 C   0  0  0  0  0  0  0  0  0  0  0  0
   -4.4080   20.1830  -33.3740 C   0  0  0  0  0  0  0  0  0  0  0  0
   -5.5900   20.8630  -33.0780 C   0  0  0  0  0  0  0  0  0  0  0  0
   -6.7810   20.1420  -32.8560 C   0  0  0  0  0  0  0  0  0  0  0  0
   -6.6530   24.6720  -30.4340 C   0  0  0  0  0  0  0  0  0  0  0  0
   -5.4460   25.3160  -30.1470 C   0  0  0  0  0  0  0  0  0  0  0  0
   -2.2223   24.8801  -26.5456 H   0  0  0  0  0  0  0  0  0  0  0  0
   -3.8157   25.0455  -27.3582 H   0  0  0  0  0  0  0  0  0  0  0  0
   -2.9676   23.4621  -27.3582 H   0  0  0  0  0  0  0  0  0  0  0  0
   -1.4662   25.7859  -28.5163 H   0  0  0  0  0  0  0  0  0  0  0  0
   -1.5505   24.0631  -29.0510 H   0  0  0  0  0  0  0  0  0  0  0  0
   -3.3865   22.5887  -30.0108 H   0  0  0  0  0  0  0  0  0  0  0  0
   -5.5379   21.4411  -30.5295 H   0  0  0  0  0  0  0  0  0  0  0  0
   -8.0752   21.6586  -30.3136 H   0  0  0  0  0  0  0  0  0  0  0  0
   -8.8310   23.2509  -30.6774 H   0  0  0  0  0  0  0  0  0  0  0  0
   -8.8800   22.6910  -32.7180 H   0  0  0  0  0  0  0  0  0  0  0  0
   -8.7640   20.6879  -33.4776 H   0  0  0  0  0  0  0  0  0  0  0  0
   -8.4009   20.4568  -30.4586 H   0  0  0  0  0  0  0  0  0  0  0  0
   -9.9035   20.2584  -31.5000 H   0  0  0  0  0  0  0  0  0  0  0  0
   -8.0565   18.2413  -30.5120 H   0  0  0  0  0  0  0  0  0  0  0  0
   -9.6757   18.0930  -31.3516 H   0  0  0  0  0  0  0  0  0  0  0  0
   -7.7315   16.9028  -32.4833 H   0  0  0  0  0  0  0  0  0  0  0  0
   -8.6711   18.0486  -33.4993 H   0  0  0  0  0  0  0  0  0  0  0  0
   -5.5380   17.0570  -33.2860 H   0  0  0  0  0  0  0  0  0  0  0  0
   -3.4880   18.2518  -33.6948 H   0  0  0  0  0  0  0  0  0  0  0  0
   -3.4761   20.7420  -33.5448 H   0  0  0  0  0  0  0  0  0  0  0  0
   -5.5925   21.9614  -33.0179 H   0  0  0  0  0  0  0  0  0  0  0  0
   -7.5718   25.2630  -30.5624 H   0  0  0  0  0  0  0  0  0  0  0  0
   -5.4242   26.4106  -30.0403 H   0  0  0  0  0  0  0  0  0  0  0  0
  1  2  1  0
  2  3  1  0
  3  4  1  0
  4  5  2  0
  5  6  1  0
  6  7  2  0
  7  8  1  0
  8  9  1  0
  9 10  1  0
 10 11  1  0
 11 12  1  0
 12 13  1  0
 13 14  1  0
 14 15  2  0
 15 16  1  0
 16 17  2  0
 17 18  1  0
 18 19  2  0
  7 20  1  0
 20 21  2  0
 21  4  1  0
 19 10  1  0
 19 14  1  0
  1 22  1  0
  1 23  1  0
  1 24  1  0
  2 25  1  0
  2 26  1  0
  5 27  1  0
  6 28  1  0
  8 29  1  0
  8 30  1  0
  9 31  1  0
 10 32  1  6
 11 33  1  0
 11 34  1  0
 12 35  1  0
 12 36  1  0
 13 37  1  0
 13 38  1  0
 15 39  1  0
 16 40  1  0
 17 41  1  0
 18 42  1  0
 20 43  1  0
 21 44  1  0
M  CHG  1  15   1
M  END
>  <UniqueID>  (5) 
5

>  <SMILES>  (5) 
CCOc1ccc(CN[C@@H]2CCCc3[nH+]cccc32)cc1

>  <Energy>  (5) 
52.241440117550994

>  <Genealogy>  (5) 
CCOc1ccc(CNC2CCCc3[nH+]cccc32)cc1 (protonated)
CCOc1ccc(CN[C@@H]2CCCc3[nH+]cccc32)cc1 (chirality)
CCOc1ccc(CN[C@@H]2CCCc3[nH+]cccc32)cc1 (3D coordinates assigned)
CCOc1ccc(CN[C@@H]2CCCc3[nH+]cccc32)cc1 (nonaromatic ring conformer: 52.241440117550994 kcal/mol)

>  <smiles>  (5) 
CCOc1ccc(CNC2CCCc3ncccc32)cc1

>  <score_type>  (5) 
oracle

>  <origin>  (5) 
adg

>  <m_score__min__energy>  (5) 
-7.9299999999999997

>  <m_primary>  (5) 
energy

$$$$
5:0
     RDKit          3D

 44 46  0  0  0  0  0  0  0  0999 V2000
   -4.6240   24.1860  -28.7430 C   0  0  0  0  0  0  0  0  0  0  0  0
   -4.4440   24.8570  -30.1020 C   0  0  0  0  0  0  0  0  0  0  0  0
   -5.7820   24.9880  -30.8350 C   0  0  0  0  0  0  0  0  0  0  0  0
   -6.2930   23.6350  -31.2490 C   0  0  0  0  0  0  0  0  0  0  0  0
   -5.3880   22.5560  -31.4240 C   0  0  0  0  0  0  0  0  0  0  0  0
   -5.8550   21.2780  -31.7770 C   0  0  0  0  0  0  0  0  0  0  0  0
   -7.2290   21.1080  -31.9440 C   0  0  0  0  0  0  0  0  0  0  0  0
   -7.9800   19.9930  -32.2680 C   0  0  0  0  0  0  0  0  0  0  0  0
   -7.4800   18.6070  -32.5660 C   0  0  0  0  0  0  0  0  0  0  0  0
   -6.2490   18.6280  -33.5050 C   0  0  1  0  0  0  0  0  0  0  0  0
   -4.9340   18.4350  -32.7580 C   0  0  0  0  0  0  0  0  0  0  0  0
   -3.9820   17.8790  -33.8080 C   0  0  0  0  0  0  0  0  0  0  0  0
   -4.8450   17.5990  -35.0380 C   0  0  0  0  0  0  0  0  0  0  0  0
   -6.2540   17.6420  -34.6070 N   0  0  1  0  0  0  0  0  0  0  0  0
   -6.7020   16.2880  -34.2130 C   0  0  0  0  0  0  0  0  0  0  0  0
   -9.3070   20.4170  -32.2460 C   0  0  0  0  0  0  0  0  0  0  0  0
   -9.3780   21.7320  -31.9370 N   0  0  0  0  0  0  0  0  0  0  0  0
   -8.1100   22.1410  -31.7570 C   0  0  0  0  0  0  0  0  0  0  0  0
   -7.6790   23.4190  -31.4050 C   0  0  0  0  0  0  0  0  0  0  0  0
   -4.4280   24.9167  -27.9445 H   0  0  0  0  0  0  0  0  0  0  0  0
   -5.6543   23.8116  -28.6525 H   0  0  0  0  0  0  0  0  0  0  0  0
   -3.9194   23.3461  -28.6525 H   0  0  0  0  0  0  0  0  0  0  0  0
   -4.0163   25.8595  -29.9536 H   0  0  0  0  0  0  0  0  0  0  0  0
   -3.7716   24.2355  -30.7116 H   0  0  0  0  0  0  0  0  0  0  0  0
   -6.5155   25.4626  -30.1666 H   0  0  0  0  0  0  0  0  0  0  0  0
   -5.6347   25.6024  -31.7354 H   0  0  0  0  0  0  0  0  0  0  0  0
   -4.3098   22.7214  -31.2819 H   0  0  0  0  0  0  0  0  0  0  0  0
   -5.1584   20.4383  -31.9171 H   0  0  0  0  0  0  0  0  0  0  0  0
   -7.1984   18.1195  -31.6210 H   0  0  0  0  0  0  0  0  0  0  0  0
   -8.2858   18.0548  -33.0717 H   0  0  0  0  0  0  0  0  0  0  0  0
   -6.3289   19.6340  -33.9428 H   0  0  0  0  0  0  0  0  0  0  0  0
   -4.5644   19.3940  -32.3659 H   0  0  0  0  0  0  0  0  0  0  0  0
   -5.0382   17.7673  -31.8900 H   0  0  0  0  0  0  0  0  0  0  0  0
   -3.2008   18.6158  -34.0467 H   0  0  0  0  0  0  0  0  0  0  0  0
   -3.4708   16.9715  -33.4542 H   0  0  0  0  0  0  0  0  0  0  0  0
   -4.6635   18.3645  -35.8068 H   0  0  0  0  0  0  0  0  0  0  0  0
   -4.6004   16.6168  -35.4686 H   0  0  0  0  0  0  0  0  0  0  0  0
   -6.8560   17.9840  -35.3940 H   0  0  0  0  0  0  0  0  0  0  0  0
   -6.7263   16.2146  -33.1157 H   0  0  0  0  0  0  0  0  0  0  0  0
   -7.7091   16.1035  -34.6152 H   0  0  0  0  0  0  0  0  0  0  0  0
   -6.0037   15.5392  -34.6152 H   0  0  0  0  0  0  0  0  0  0  0  0
  -10.1749   19.7730  -32.4511 H   0  0  0  0  0  0  0  0  0  0  0  0
  -10.2440   22.3060  -31.8460 H   0  0  0  0  0  0  0  0  0  0  0  0
   -8.3991   24.2365  -31.2530 H   0  0  0  0  0  0  0  0  0  0  0  0
  1  2  1  0
  2  3  1  0
  3  4  1  0
  4  5  2  0
  5  6  1  0
  6  7  2  0
  7  8  1  0
  8  9  1  0
  9 10  1  0
 10 11  1  0
 11 12  1  0
 12 13  1  0
 13 14  1  0
 14 15  1  0
  8 16  2  0
 16 17  1  0
 17 18  1  0
 18 19  2  0
 19  4  1  0
 18  7  1  0
 14 10  1  0
  1 20  1  0
  1 21  1  0
  1 22  1  0
  2 23  1  0
  2 24  1  0
  3 25  1  0
  3 26  1  0
  5 27  1  0
  6 28  1  0
  9 29  1  0
  9 30  1  0
 10 31  1  6
 11 32  1  0
 11 33  1  0
 12 34  1  0
 12 35  1  0
 13 36  1  0
 13 37  1  0
 14 38  1  6
 15 39  1  0
 15 40  1  0
 15 41  1  0
 16 42  1  0
 17 43  1  0
 19 44  1  0
M  CHG  1  14   1
M  END
>  <UniqueID>  (6) 
6

>  <SMILES>  (6) 
CCCc1ccc2c(C[C@H]3CCC[N@H+]3C)c[nH]c2c1

>  <Energy>  (6) 
77.0778584057303

>  <Genealogy>  (6) 
CCCc1ccc2c(CC3CCC[NH+]3C)c[nH]c2c1 (protonated)
CCCc1ccc2c(C[C@H]3CCC[N@H+]3C)c[nH]c2c1 (chirality)
CCCc1ccc2c(C[C@H]3CCC[N@H+]3C)c[nH]c2c1 (3D coordinates assigned)
CCCc1ccc2c(C[C@H]3CCC[N@H+]3C)c[nH]c2c1 (nonaromatic ring conformer: 77.0778584057303 kcal/mol)

>  <smiles>  (6) 
CCCc1ccc2c(CC3CCCN3C)c[nH]c2c1

>  <score_type>  (6) 
oracle

>  <origin>  (6) 
adg

>  <m_score__min__energy>  (6) 
-7.0499999999999998

>  <m_primary>  (6) 
energy

$$$$
6:0
     RDKit          3D

 50 53  0  0  0  0  0  0  0  0999 V2000
   -8.1650   22.0000  -31.5950 C   0  0  0  0  0  0  0  0  0  0  0  0
   -8.2550   20.6310  -32.2590 C   0  0  0  0  0  0  0  0  0  0  0  0
   -6.9180   20.1220  -32.5580 N   0  0  0  0  0  0  0  0  0  0  0  0
   -5.7810   20.8510  -32.6440 C   0  0  0  0  0  0  0  0  0  0  0  0
   -4.7440   20.0180  -33.0450 C   0  0  0  0  0  0  0  0  0  0  0  0
   -3.3450   20.4500  -33.3740 C   0  0  0  0  0  0  0  0  0  0  0  0
   -2.5900   20.7510  -32.1130 C   0  0  0  0  0  0  0  0  0  0  0  0
   -1.6810   19.9060  -31.4840 C   0  0  0  0  0  0  0  0  0  0  0  0
   -1.2250   20.4780  -30.3450 N   0  0  0  0  0  0  0  0  0  0  0  0
   -0.2610   19.8990  -29.4140 C   0  0  0  0  0  0  0  0  0  0  0  0
   -1.8350   21.6770  -30.2480 C   0  0  0  0  0  0  0  0  0  0  0  0
   -1.6890   22.6300  -29.2410 C   0  0  0  0  0  0  0  0  0  0  0  0
   -2.4390   23.8280  -29.3370 C   0  0  0  0  0  0  0  0  0  0  0  0
   -2.3510   24.8350  -28.3640 O   0  0  0  0  0  0  0  0  0  0  0  0
   -2.7780   24.6890  -27.0130 C   0  0  0  0  0  0  0  0  0  0  0  0
   -3.3060   24.0350  -30.4380 C   0  0  0  0  0  0  0  0  0  0  0  0
   -4.0340   25.2350  -30.4940 O   0  0  0  0  0  0  0  0  0  0  0  0
   -5.4320   25.3410  -30.2500 C   0  0  0  0  0  0  0  0  0  0  0  0
   -3.4230   23.0460  -31.4440 C   0  0  0  0  0  0  0  0  0  0  0  0
   -2.6760   21.8770  -31.3120 C   0  0  0  0  0  0  0  0  0  0  0  0
   -5.2530   18.7830  -33.2330 N   0  0  0  0  0  0  0  0  0  0  0  0
   -4.6830   17.6310  -33.6660 C   0  0  0  0  0  0  0  0  0  0  0  0
   -5.4990   16.5020  -33.7980 C   0  0  0  0  0  0  0  0  0  0  0  0
   -6.8680   16.6140  -33.4850 C   0  0  0  0  0  0  0  0  0  0  0  0
   -7.3870   17.8030  -33.0580 N   0  0  0  0  0  0  0  0  0  0  0  0
   -6.5590   18.8750  -32.9340 C   0  0  0  0  0  0  0  0  0  0  0  0
   -8.1730   21.8785  -30.5018 H   0  0  0  0  0  0  0  0  0  0  0  0
   -7.2323   22.4958  -31.9020 H   0  0  0  0  0  0  0  0  0  0  0  0
   -9.0247   22.6137  -31.9020 H   0  0  0  0  0  0  0  0  0  0  0  0
   -8.7659   19.9318  -31.5807 H   0  0  0  0  0  0  0  0  0  0  0  0
   -8.8195   20.7260  -33.1983 H   0  0  0  0  0  0  0  0  0  0  0  0
   -5.6925   21.9266  -32.4313 H   0  0  0  0  0  0  0  0  0  0  0  0
   -2.8340   19.6437  -33.9207 H   0  0  0  0  0  0  0  0  0  0  0  0
   -3.3843   21.3564  -33.9960 H   0  0  0  0  0  0  0  0  0  0  0  0
   -1.3771   18.9171  -31.8579 H   0  0  0  0  0  0  0  0  0  0  0  0
   -0.5858   20.0941  -28.3813 H   0  0  0  0  0  0  0  0  0  0  0  0
   -0.1978   18.8134  -29.5796 H   0  0  0  0  0  0  0  0  0  0  0  0
    0.7270   20.3533  -29.5796 H   0  0  0  0  0  0  0  0  0  0  0  0
   -1.0091   22.4562  -28.3939 H   0  0  0  0  0  0  0  0  0  0  0  0
   -1.9572   24.9697  -26.3367 H   0  0  0  0  0  0  0  0  0  0  0  0
   -3.6439   25.3421  -26.8295 H   0  0  0  0  0  0  0  0  0  0  0  0
   -3.0627   23.6425  -26.8295 H   0  0  0  0  0  0  0  0  0  0  0  0
   -5.6149   25.3549  -29.1654 H   0  0  0  0  0  0  0  0  0  0  0  0
   -5.8130   26.2706  -30.6980 H   0  0  0  0  0  0  0  0  0  0  0  0
   -5.9488   24.4795  -30.6980 H   0  0  0  0  0  0  0  0  0  0  0  0
   -4.0868   23.1964  -32.3081 H   0  0  0  0  0  0  0  0  0  0  0  0
   -3.6106   17.5855  -33.9064 H   0  0  0  0  0  0  0  0  0  0  0  0
   -5.0792   15.5445  -34.1399 H   0  0  0  0  0  0  0  0  0  0  0  0
   -7.5242   15.7369  -33.5853 H   0  0  0  0  0  0  0  0  0  0  0  0
   -8.4050   17.8750  -32.8390 H   0  0  0  0  0  0  0  0  0  0  0  0
  1  2  1  0
  2  3  1  0
  3  4  1  0
  4  5  2  0
  5  6  1  0
  6  7  1  0
  7  8  2  0
  8  9  1  0
  9 10  1  0
  9 11  1  0
 11 12  2  0
 12 13  1  0
 13 14  1  0
 14 15  1  0
 13 16  2  0
 16 17  1  0
 17 18  1  0
 16 19  1  0
 19 20  2  0
  5 21  1  0
 21 22  1  0
 22 23  2  0
 23 24  1  0
 24 25  2  0
 25 26  1  0
 26  3  2  0
 20  7  1  0
 26 21  1  0
 20 11  1  0
  1 27  1  0
  1 28  1  0
  1 29  1  0
  2 30  1  0
  2 31  1  0
  4 32  1  0
  6 33  1  0
  6 34  1  0
  8 35  1  0
 10 36  1  0
 10 37  1  0
 10 38  1  0
 12 39  1  0
 15 40  1  0
 15 41  1  0
 15 42  1  0
 18 43  1  0
 18 44  1  0
 18 45  1  0
 19 46  1  0
 22 47  1  0
 23 48  1  0
 24 49  1  0
 25 50  1  0
M  CHG  2   3   1  25   1
M  END
>  <UniqueID>  (7) 
7

>  <SMILES>  (7) 
CC[n+]1cc(Cc2cn(C)c3cc(OC)c(OC)cc23)n2ccc[nH+]c21

>  <Energy>  (7) 
116.90074451803609

>  <Genealogy>  (7) 
CC[n+]1cc(Cc2cn(C)c3cc(OC)c(OC)cc23)n2ccc[nH+]c21 (protonated)
CC[n+]1cc(Cc2cn(C)c3cc(OC)c(OC)cc23)n2ccc[nH+]c21 (3D coordinates assigned)
CC[n+]1cc(Cc2cn(C)c3cc(OC)c(OC)cc23)n2ccc[nH+]c21 (optimized conformer: 116.90074451803609 kcal/mol)

>  <smiles>  (7) 
CC[n+]1cc(Cc2cn(C)c3cc(OC)c(OC)cc23)n2cccnc21

>  <score_type>  (7) 
oracle

>  <origin>  (7) 
adg

>  <m_score__min__energy>  (7) 
-7.0800000000000001

>  <m_primary>  (7) 
energy

$$$$
7:0
     RDKit          3D

 48 51  0  0  0  0  0  0  0  0999 V2000
    1.4420   23.4190  -36.0150 C   0  0  0  0  0  0  0  0  0  0  0  0
    0.3870   22.6590  -35.3430 N   0  0  0  0  0  0  0  0  0  0  0  0
    0.6300   21.2200  -35.4830 C   0  0  0  0  0  0  0  0  0  0  0  0
   -0.4810   20.4560  -34.8390 C   0  0  0  0  0  0  0  0  0  0  0  0
   -1.5320   21.0340  -34.2180 N   0  0  0  0  0  0  0  0  0  0  0  0
   -2.4610   20.1320  -33.7920 C   0  0  0  0  0  0  0  0  0  0  0  0
   -3.7300   20.5780  -33.1780 C   0  0  0  0  0  0  0  0  0  0  0  0
   -3.7460   21.6350  -32.2520 C   0  0  0  0  0  0  0  0  0  0  0  0
   -4.9440   22.0480  -31.6670 C   0  0  0  0  0  0  0  0  0  0  0  0
   -6.1470   21.4030  -31.9900 C   0  0  0  0  0  0  0  0  0  0  0  0
   -7.3560   21.8120  -31.4080 C   0  0  0  0  0  0  0  0  0  0  0  0
   -8.5580   21.1670  -31.7430 C   0  0  0  0  0  0  0  0  0  0  0  0
   -9.8430   21.5810  -31.0900 C   0  0  0  0  0  0  0  0  0  0  0  0
   -8.5390   20.0880  -32.6390 C   0  0  0  0  0  0  0  0  0  0  0  0
   -7.3380   19.6740  -33.2230 C   0  0  0  0  0  0  0  0  0  0  0  0
   -6.1380   20.3260  -32.9080 C   0  0  0  0  0  0  0  0  0  0  0  0
   -4.9280   19.9180  -33.4900 C   0  0  0  0  0  0  0  0  0  0  0  0
   -2.1300   18.7950  -34.0750 C   0  0  0  0  0  0  0  0  0  0  0  0
   -2.8600   17.5680  -33.7020 C   0  0  0  0  0  0  0  0  0  0  0  0
   -2.2270   16.5150  -33.0240 C   0  0  0  0  0  0  0  0  0  0  0  0
   -2.9540   15.3650  -32.7110 C   0  0  0  0  0  0  0  0  0  0  0  0
   -4.2940   15.2650  -33.0830 C   0  0  0  0  0  0  0  0  0  0  0  0
   -4.8930   16.3240  -33.7760 C   0  0  0  0  0  0  0  0  0  0  0  0
   -6.3210   16.2340  -34.2090 C   0  0  0  0  0  0  0  0  0  0  0  0
   -4.1640   17.4360  -34.0720 N   0  0  0  0  0  0  0  0  0  0  0  0
   -0.6650   18.7880  -34.9080 S   0  0  0  0  0  0  0  0  0  0  0  0
    2.0926   23.8877  -35.2620 H   0  0  0  0  0  0  0  0  0  0  0  0
    2.0381   22.7415  -36.6440 H   0  0  0  0  0  0  0  0  0  0  0  0
    0.9881   24.1990  -36.6440 H   0  0  0  0  0  0  0  0  0  0  0  0
   -0.5160   22.8860  -35.8220 H   0  0  0  0  0  0  0  0  0  0  0  0
    0.6815   20.9602  -36.5506 H   0  0  0  0  0  0  0  0  0  0  0  0
    1.5807   20.9621  -34.9935 H   0  0  0  0  0  0  0  0  0  0  0  0
   -1.6370   22.0690  -34.1170 H   0  0  0  0  0  0  0  0  0  0  0  0
   -2.8063   22.1412  -31.9860 H   0  0  0  0  0  0  0  0  0  0  0  0
   -4.9448   22.8823  -30.9501 H   0  0  0  0  0  0  0  0  0  0  0  0
   -7.3628   22.6417  -30.6859 H   0  0  0  0  0  0  0  0  0  0  0  0
   -9.7274   21.5437  -29.9967 H   0  0  0  0  0  0  0  0  0  0  0  0
  -10.0967   22.6063  -31.3972 H   0  0  0  0  0  0  0  0  0  0  0  0
  -10.6475   20.8966  -31.3972 H   0  0  0  0  0  0  0  0  0  0  0  0
   -9.4748   19.5643  -32.8837 H   0  0  0  0  0  0  0  0  0  0  0  0
   -7.3349   18.8333  -33.9324 H   0  0  0  0  0  0  0  0  0  0  0  0
   -4.9188   19.0745  -34.1960 H   0  0  0  0  0  0  0  0  0  0  0  0
   -1.1669   16.5950  -32.7415 H   0  0  0  0  0  0  0  0  0  0  0  0
   -2.4698   14.5380  -32.1710 H   0  0  0  0  0  0  0  0  0  0  0  0
   -4.8742   14.3640  -32.8348 H   0  0  0  0  0  0  0  0  0  0  0  0
   -6.9710   16.1930  -33.3226 H   0  0  0  0  0  0  0  0  0  0  0  0
   -6.5779   17.1177  -34.8115 H   0  0  0  0  0  0  0  0  0  0  0  0
   -6.4649   15.3250  -34.8115 H   0  0  0  0  0  0  0  0  0  0  0  0
  1  2  1  0
  2  3  1  0
  3  4  1  0
  4  5  2  0
  5  6  1  0
  6  7  1  0
  7  8  2  0
  8  9  1  0
  9 10  2  0
 10 11  1  0
 11 12  2  0
 12 13  1  0
 12 14  1  0
 14 15  2  0
 15 16  1  0
 16 17  2  0
  6 18  2  0
 18 19  1  0
 19 20  2  0
 20 21  1  0
 21 22  2  0
 22 23  1  0
 23 24  1  0
 23 25  2  0
 18 26  1  0
 26  4  1  0
 17  7  1  0
 25 19  1  0
 16 10  1  0
  1 27  1  0
  1 28  1  0
  1 29  1  0
  2 30  1  0
  3 31  1  0
  3 32  1  0
  5 33  1  0
  8 34  1  0
  9 35  1  0
 11 36  1  0
 13 37  1  0
 13 38  1  0
 13 39  1  0
 14 40  1  0
 15 41  1  0
 17 42  1  0
 20 43  1  0
 21 44  1  0
 22 45  1  0
 24 46  1  0
 24 47  1  0
 24 48  1  0
M  CHG  1   5   1
M  END
>  <UniqueID>  (8) 
8

>  <SMILES>  (8) 
CNCc1[nH+]c(-c2ccc3cc(C)ccc3c2)c(-c2cccc(C)n2)s1

>  <Energy>  (8) 
87.52351655373785

>  <Genealogy>  (8) 
CNCc1[nH+]c(-c2ccc3cc(C)ccc3c2)c(-c2cccc(C)n2)s1 (protonated)
CNCc1[nH+]c(-c2ccc3cc(C)ccc3c2)c(-c2cccc(C)n2)s1 (3D coordinates assigned)
CNCc1[nH+]c(-c2ccc3cc(C)ccc3c2)c(-c2cccc(C)n2)s1 (optimized conformer: 87.52351655373785 kcal/mol)

>  <smiles>  (8) 
CNCc1nc(-c2ccc3cc(C)ccc3c2)c(-c2cccc(C)n2)s1

>  <score_type>  (8) 
oracle

>  <origin>  (8) 
adg

>  <m_score__min__energy>  (8) 
-8.6400000000000006

>  <m_primary>  (8) 
energy

$$$$
8:0
     RDKit          3D

 57 60  0  0  0  0  0  0  0  0999 V2000
   -6.3700   25.6710  -29.4610 C   0  0  0  0  0  0  0  0  0  0  0  0
   -5.1170   25.6000  -30.1320 O   0  0  0  0  0  0  0  0  0  0  0  0
   -4.4680   24.4060  -30.4840 C   0  0  0  0  0  0  0  0  0  0  0  0
   -5.1120   23.3980  -31.2270 C   0  0  0  0  0  0  0  0  0  0  0  0
   -4.4360   22.2230  -31.5570 C   0  0  0  0  0  0  0  0  0  0  0  0
   -3.1120   22.0280  -31.1440 C   0  0  0  0  0  0  0  0  0  0  0  0
   -2.3730   20.7760  -31.5370 C   0  0  0  0  0  0  0  0  0  0  0  0
   -0.9640   21.1190  -32.0540 C   0  0  0  0  0  0  0  0  0  0  0  0
   -0.1680   19.8990  -32.3570 N   0  0  0  0  0  0  0  0  0  0  0  0
   -0.7650   18.6710  -31.7590 C   0  0  0  0  0  0  0  0  0  0  0  0
   -1.7080   17.9150  -32.7210 C   0  0  0  0  0  0  0  0  0  0  0  0
   -2.2970   18.8580  -33.6850 N   0  0  0  0  0  0  0  0  0  0  0  0
   -3.4490   18.3000  -34.4230 C   0  0  0  0  0  0  0  0  0  0  0  0
   -4.7790   18.6550  -33.8150 C   0  0  0  0  0  0  0  0  0  0  0  0
   -5.7290   17.7440  -33.3570 C   0  0  0  0  0  0  0  0  0  0  0  0
   -6.7530   18.5320  -32.8870 C   0  0  0  0  0  0  0  0  0  0  0  0
   -7.9750   18.1930  -32.3090 C   0  0  0  0  0  0  0  0  0  0  0  0
   -8.8310   19.2430  -31.9260 C   0  0  0  0  0  0  0  0  0  0  0  0
   -8.4480   20.5880  -32.1270 C   0  0  0  0  0  0  0  0  0  0  0  0
   -7.2060   20.8960  -32.7130 C   0  0  0  0  0  0  0  0  0  0  0  0
   -6.3820   19.8360  -33.0820 C   0  0  0  0  0  0  0  0  0  0  0  0
   -5.1970   19.8970  -33.6390 O   0  0  0  0  0  0  0  0  0  0  0  0
   -1.2710   19.4430  -34.5720 C   0  0  0  0  0  0  0  0  0  0  0  0
    0.0430   19.7370  -33.8140 C   0  0  0  0  0  0  0  0  0  0  0  0
   -2.4620   23.0350  -30.4160 C   0  0  0  0  0  0  0  0  0  0  0  0
   -3.1360   24.2250  -30.0790 C   0  0  0  0  0  0  0  0  0  0  0  0
   -2.5190   25.2500  -29.3450 O   0  0  0  0  0  0  0  0  0  0  0  0
   -1.9430   25.0820  -28.0540 C   0  0  0  0  0  0  0  0  0  0  0  0
   -6.2046   25.6616  -28.3735 H   0  0  0  0  0  0  0  0  0  0  0  0
   -6.8861   26.5998  -29.7454 H   0  0  0  0  0  0  0  0  0  0  0  0
   -6.9877   24.8064  -29.7454 H   0  0  0  0  0  0  0  0  0  0  0  0
   -6.1544   23.5378  -31.5492 H   0  0  0  0  0  0  0  0  0  0  0  0
   -4.9457   21.4454  -32.1448 H   0  0  0  0  0  0  0  0  0  0  0  0
   -2.2861   20.1171  -30.6605 H   0  0  0  0  0  0  0  0  0  0  0  0
   -2.9319   20.2708  -32.3385 H   0  0  0  0  0  0  0  0  0  0  0  0
   -1.0587   21.7180  -32.9717 H   0  0  0  0  0  0  0  0  0  0  0  0
   -0.4401   21.6787  -31.2652 H   0  0  0  0  0  0  0  0  0  0  0  0
    0.7850   20.0210  -31.9400 H   0  0  0  0  0  0  0  0  0  0  0  0
    0.0509   17.9936  -31.4669 H   0  0  0  0  0  0  0  0  0  0  0  0
   -1.3693   18.9908  -30.8973 H   0  0  0  0  0  0  0  0  0  0  0  0
   -1.1371   17.1471  -33.2635 H   0  0  0  0  0  0  0  0  0  0  0  0
   -2.5123   17.4384  -32.1413 H   0  0  0  0  0  0  0  0  0  0  0  0
   -3.4227   18.6855  -35.4529 H   0  0  0  0  0  0  0  0  0  0  0  0
   -3.3578   17.2044  -34.3857 H   0  0  0  0  0  0  0  0  0  0  0  0
   -5.6725   16.6455  -33.3688 H   0  0  0  0  0  0  0  0  0  0  0  0
   -8.2607   17.1416  -32.1573 H   0  0  0  0  0  0  0  0  0  0  0  0
   -9.8044   19.0148  -31.4673 H   0  0  0  0  0  0  0  0  0  0  0  0
   -9.1251   21.4000  -31.8234 H   0  0  0  0  0  0  0  0  0  0  0  0
   -6.8966   21.9392  -32.8741 H   0  0  0  0  0  0  0  0  0  0  0  0
   -1.0607   18.7359  -35.3880 H   0  0  0  0  0  0  0  0  0  0  0  0
   -1.6600   20.3945  -34.9636 H   0  0  0  0  0  0  0  0  0  0  0  0
    0.7400   18.9022  -33.9790 H   0  0  0  0  0  0  0  0  0  0  0  0
    0.4479   20.6838  -34.2009 H   0  0  0  0  0  0  0  0  0  0  0  0
   -1.4162   22.8943  -30.1053 H   0  0  0  0  0  0  0  0  0  0  0  0
   -2.6975   25.3021  -27.2844 H   0  0  0  0  0  0  0  0  0  0  0  0
   -1.5947   24.0448  -27.9400 H   0  0  0  0  0  0  0  0  0  0  0  0
   -1.0917   25.7693  -27.9400 H   0  0  0  0  0  0  0  0  0  0  0  0
  1  2  1  0
  2  3  1  0
  3  4  2  0
  4  5  1  0
  5  6  2  0
  6  7  1  0
  7  8  1  0
  8  9  1  0
  9 10  1  0
 10 11  1  0
 11 12  1  0
 12 13  1  0
 13 14  1  0
 14 15  2  0
 15 16  1  0
 16 17  2  0
 17 18  1  0
 18 19  2  0
 19 20  1  0
 20 21  2  0
 21 22  1  0
 12 23  1  0
 23 24  1  0
  6 25  1  0
 25 26  2  0
 26 27  1  0
 27 28  1  0
 26  3  1  0
 24  9  1  0
 22 14  1  0
 21 16  1  0
  1 29  1  0
  1 30  1  0
  1 31  1  0
  4 32  1  0
  5 33  1  0
  7 34  1  0
  7 35  1  0
  8 36  1  0
  8 37  1  0
  9 38  1  0
 10 39  1  0
 10 40  1  0
 11 41  1  0
 11 42  1  0
 13 43  1  0
 13 44  1  0
 15 45  1  0
 17 46  1  0
 18 47  1  0
 19 48  1  0
 20 49  1  0
 23 50  1  0
 23 51  1  0
 24 52  1  0
 24 53  1  0
 25 54  1  0
 28 55  1  0
 28 56  1  0
 28 57  1  0
M  CHG  1   9   1
M  END
>  <UniqueID>  (9) 
9

>  <SMILES>  (9) 
COc1ccc(CC[NH+]2CCN(Cc3cc4ccccc4o3)CC2)cc1OC

>  <Energy>  (9) 
104.25160334368647

>  <Genealogy>  (9) 
COc1ccc(CC[NH+]2CCN(Cc3cc4ccccc4o3)CC2)cc1OC (protonated)
COc1ccc(CC[NH+]2CCN(Cc3cc4ccccc4o3)CC2)cc1OC (3D coordinates assigned)
COc1ccc(CC[NH+]2CCN(Cc3cc4ccccc4o3)CC2)cc1OC (nonaromatic ring conformer: 104.25160334368647 kcal/mol)

>  <smiles>  (9) 
COc1ccc(CCN2CCN(Cc3cc4ccccc4o3)CC2)cc1OC

>  <score_type>  (9) 
oracle

>  <origin>  (9) 
adg

>  <m_score__min__energy>  (9) 
-8.4199999999999999

>  <m_primary>  (9) 
energy

$$$$
9:0
     RDKit          3D

 66 68  0  0  0  0  0  0  0  0999 V2000
   -9.1060   21.5460  -30.7180 C   0  0  0  0  0  0  0  0  0  0  0  0
   -9.3660   21.1370  -32.1600 C   0  0  0  0  0  0  0  0  0  0  0  0
   -8.1850   20.5850  -32.6990 O   0  0  0  0  0  0  0  0  0  0  0  0
   -8.2460   19.1750  -32.6310 C   0  0  0  0  0  0  0  0  0  0  0  0
   -6.8410   18.6130  -32.3920 C   0  0  0  0  0  0  0  0  0  0  0  0
   -5.8520   18.9950  -33.5040 C   0  0  0  0  0  0  0  0  0  0  0  0
   -4.9730   20.1100  -33.0740 N   0  0  0  0  0  0  0  0  0  0  0  0
   -3.5540   19.9320  -33.4550 C   0  0  0  0  0  0  0  0  0  0  0  0
   -2.7130   21.1580  -33.0350 C   0  0  0  0  0  0  0  0  0  0  0  0
   -1.3530   20.8290  -32.5430 N   0  0  0  0  0  0  0  0  0  0  0  0
   -0.5940   19.9860  -33.4890 C   0  0  0  0  0  0  0  0  0  0  0  0
    0.3680   20.8290  -34.2830 C   0  0  0  0  0  0  0  0  0  0  0  0
   -0.0870   21.9250  -35.0310 C   0  0  0  0  0  0  0  0  0  0  0  0
    0.8260   22.6810  -35.7700 C   0  0  0  0  0  0  0  0  0  0  0  0
    2.1450   22.3520  -35.7660 N   0  0  0  0  0  0  0  0  0  0  0  0
    2.6130   21.2920  -35.0540 C   0  0  0  0  0  0  0  0  0  0  0  0
    1.7340   20.5100  -34.3010 C   0  0  0  0  0  0  0  0  0  0  0  0
   -1.3330   20.2830  -31.1660 C   0  0  0  0  0  0  0  0  0  0  0  0
   -1.7980   21.3160  -30.1740 C   0  0  0  0  0  0  0  0  0  0  0  0
   -2.4720   20.9160  -29.0100 C   0  0  0  0  0  0  0  0  0  0  0  0
   -2.8890   21.8690  -28.0750 C   0  0  0  0  0  0  0  0  0  0  0  0
   -2.6320   23.2270  -28.2950 C   0  0  0  0  0  0  0  0  0  0  0  0
   -3.1990   24.5260  -27.0170 Br  0  0  0  0  0  0  0  0  0  0  0  0
   -1.9590   23.6300  -29.4520 C   0  0  0  0  0  0  0  0  0  0  0  0
   -1.5380   22.6810  -30.3870 C   0  0  0  0  0  0  0  0  0  0  0  0
   -5.1440   20.4730  -31.6460 C   0  0  0  0  0  0  0  0  0  0  0  0
   -5.6110   21.8990  -31.4340 C   0  0  0  0  0  0  0  0  0  0  0  0
   -5.2340   22.6070  -30.2800 C   0  0  0  0  0  0  0  0  0  0  0  0
   -5.6860   23.9140  -30.0950 C   0  0  0  0  0  0  0  0  0  0  0  0
   -6.4960   24.5120  -31.0590 C   0  0  0  0  0  0  0  0  0  0  0  0
   -6.8360   23.7920  -32.2050 C   0  0  0  0  0  0  0  0  0  0  0  0
   -6.3870   22.5170  -32.3740 N   0  0  0  0  0  0  0  0  0  0  0  0
   -9.5707   20.8150  -30.0400 H   0  0  0  0  0  0  0  0  0  0  0  0
   -8.0217   21.5776  -30.5356 H   0  0  0  0  0  0  0  0  0  0  0  0
   -9.5376   22.5412  -30.5356 H   0  0  0  0  0  0  0  0  0  0  0  0
  -10.1714   20.3884  -32.1919 H   0  0  0  0  0  0  0  0  0  0  0  0
   -9.6682   22.0163  -32.7478 H   0  0  0  0  0  0  0  0  0  0  0  0
   -8.9059   18.8762  -31.8032 H   0  0  0  0  0  0  0  0  0  0  0  0
   -8.6425   18.7795  -33.5778 H   0  0  0  0  0  0  0  0  0  0  0  0
   -6.4635   19.0043  -31.4358 H   0  0  0  0  0  0  0  0  0  0  0  0
   -6.9198   17.5159  -32.3802 H   0  0  0  0  0  0  0  0  0  0  0  0
   -5.2306   18.1209  -33.7486 H   0  0  0  0  0  0  0  0  0  0  0  0
   -6.4243   19.3199  -34.3854 H   0  0  0  0  0  0  0  0  0  0  0  0
   -3.1570   19.0351  -32.9569 H   0  0  0  0  0  0  0  0  0  0  0  0
   -3.4944   19.8224  -34.5479 H   0  0  0  0  0  0  0  0  0  0  0  0
   -2.6123   21.8211  -33.9069 H   0  0  0  0  0  0  0  0  0  0  0  0
   -3.2445   21.6305  -32.1958 H   0  0  0  0  0  0  0  0  0  0  0  0
   -0.0319   19.2255  -32.9271 H   0  0  0  0  0  0  0  0  0  0  0  0
   -1.2984   19.4995  -34.1798 H   0  0  0  0  0  0  0  0  0  0  0  0
   -1.1553   22.1873  -35.0356 H   0  0  0  0  0  0  0  0  0  0  0  0
    0.4771   23.5440  -36.3561 H   0  0  0  0  0  0  0  0  0  0  0  0
    3.6859   21.0500  -35.0711 H   0  0  0  0  0  0  0  0  0  0  0  0
    2.1100   19.6506  -33.7265 H   0  0  0  0  0  0  0  0  0  0  0  0
   -1.9987   19.4088  -31.1150 H   0  0  0  0  0  0  0  0  0  0  0  0
   -0.3014   19.9940  -30.9164 H   0  0  0  0  0  0  0  0  0  0  0  0
   -2.6731   19.8492  -28.8323 H   0  0  0  0  0  0  0  0  0  0  0  0
   -3.4196   21.5507  -27.1656 H   0  0  0  0  0  0  0  0  0  0  0  0
   -1.7602   24.6977  -29.6269 H   0  0  0  0  0  0  0  0  0  0  0  0
   -1.0018   23.0027  -31.2920 H   0  0  0  0  0  0  0  0  0  0  0  0
   -5.8865   19.7942  -31.2012 H   0  0  0  0  0  0  0  0  0  0  0  0
   -4.1565   20.3829  -31.1699 H   0  0  0  0  0  0  0  0  0  0  0  0
   -4.5865   22.1336  -29.5272 H   0  0  0  0  0  0  0  0  0  0  0  0
   -5.4036   24.4716  -29.1898 H   0  0  0  0  0  0  0  0  0  0  0  0
   -6.8629   25.5394  -30.9180 H   0  0  0  0  0  0  0  0  0  0  0  0
   -7.4694   24.2561  -32.9754 H   0  0  0  0  0  0  0  0  0  0  0  0
   -6.6410   22.0200  -33.2560 H   0  0  0  0  0  0  0  0  0  0  0  0
  1  2  1  0
  2  3  1  0
  3  4  1  0
  4  5  1  0
  5  6  1  0
  6  7  1  0
  7  8  1  0
  8  9  1  0
  9 10  1  0
 10 11  1  0
 11 12  1  0
 12 13  2  0
 13 14  1  0
 14 15  2  0
 15 16  1  0
 16 17  2  0
 10 18  1  0
 18 19  1  0
 19 20  2  0
 20 21  1  0
 21 22  2  0
 22 23  1  0
 22 24  1  0
 24 25  2  0
  7 26  1  0
 26 27  1  0
 27 28  2  0
 28 29  1  0
 29 30  2  0
 30 31  1  0
 31 32  2  0
 17 12  1  0
 25 19  1  0
 32 27  1  0
  1 33  1  0
  1 34  1  0
  1 35  1  0
  2 36  1  0
  2 37  1  0
  4 38  1  0
  4 39  1  0
  5 40  1  0
  5 41  1  0
  6 42  1  0
  6 43  1  0
  8 44  1  0
  8 45  1  0
  9 46  1  0
  9 47  1  0
 11 48  1  0
 11 49  1  0
 13 50  1  0
 14 51  1  0
 16 52  1  0
 17 53  1  0
 18 54  1  0
 18 55  1  0
 20 56  1  0
 21 57  1  0
 24 58  1  0
 25 59  1  0
 26 60  1  0
 26 61  1  0
 28 62  1  0
 29 63  1  0
 30 64  1  0
 31 65  1  0
 32 66  1  0
M  CHG  1  32   1
M  END
>  <UniqueID>  (10) 
10

>  <SMILES>  (10) 
CCOCCCN(CCN(Cc1ccncc1)Cc1ccc(Br)cc1)Cc1cccc[nH+]1

>  <Energy>  (10) 
69.02903177990653

>  <Genealogy>  (10) 
CCOCCCN(CCN(Cc1ccncc1)Cc1ccc(Br)cc1)Cc1cccc[nH+]1 (protonated)
CCOCCCN(CCN(Cc1ccncc1)Cc1ccc(Br)cc1)Cc1cccc[nH+]1 (3D coordinates assigned)
CCOCCCN(CCN(Cc1ccncc1)Cc1ccc(Br)cc1)Cc1cccc[nH+]1 (optimized conformer: 69.02903177990653 kcal/mol)

>  <smiles>  (10) 
CCOCCCN(CCN(Cc1ccncc1)Cc1ccc(Br)cc1)Cc1ccccn1

>  <score_type>  (10) 
oracle

>  <origin>  (10) 
adg

>  <m_score__min__energy>  (10) 
-8.8699999999999992

>  <m_primary>  (10) 
energy

$$$$
10:0
     RDKit          3D

 56 56  0  0  0  0  0  0  0  0999 V2000
   -2.6100   20.1640  -27.5240 C   0  0  0  0  0  0  0  0  0  0  0  0
   -1.9830   21.5550  -27.3330 C   0  0  0  0  0  0  0  0  0  0  0  0
   -1.9100   22.3660  -28.5760 N   0  0  0  0  0  0  0  0  0  0  0  0
   -2.7800   21.7930  -29.6370 C   0  0  0  0  0  0  0  0  0  0  0  0
   -2.2680   22.0960  -31.0480 C   0  0  0  0  0  0  0  0  0  0  0  0
   -0.4990   22.5550  -29.0290 C   0  0  0  0  0  0  0  0  0  0  0  0
    0.0560   23.9370  -28.6430 C   0  0  0  0  0  0  0  0  0  0  0  0
   -0.9490   24.9240  -28.7830 O   0  0  0  0  0  0  0  0  0  0  0  0
   -0.8450   25.8860  -27.7530 C   0  0  0  0  0  0  0  0  0  0  0  0
   -1.9360   25.6410  -26.7190 C   0  0  0  0  0  0  0  0  0  0  0  0
   -2.5780   24.4140  -26.9990 O   0  0  0  0  0  0  0  0  0  0  0  0
   -3.9820   24.5470  -26.8740 C   0  0  0  0  0  0  0  0  0  0  0  0
   -4.6450   24.4080  -28.2450 C   0  0  0  0  0  0  0  0  0  0  0  0
   -3.6630   24.6820  -29.3020 N   0  0  0  0  0  0  0  0  0  0  0  0
   -4.2770   25.2740  -30.5020 C   0  0  0  0  0  0  0  0  0  0  0  0
   -5.7560   24.8840  -30.6880 C   0  0  0  0  0  0  0  0  0  0  0  0
   -5.9490   24.0990  -31.8660 O   0  0  0  0  0  0  0  0  0  0  0  0
   -6.5560   22.8330  -31.9150 C   0  0  0  0  0  0  0  0  0  0  0  0
   -5.8650   21.6690  -32.3090 C   0  0  0  0  0  0  0  0  0  0  0  0
   -6.5240   20.4360  -32.3380 C   0  0  0  0  0  0  0  0  0  0  0  0
   -7.8710   20.3500  -31.9730 C   0  0  0  0  0  0  0  0  0  0  0  0
   -8.7680   18.6630  -32.0130 Br  0  0  0  0  0  0  0  0  0  0  0  0
   -8.5590   21.4990  -31.5750 C   0  0  0  0  0  0  0  0  0  0  0  0
   -7.9040   22.7330  -31.5450 C   0  0  0  0  0  0  0  0  0  0  0  0
   -2.8124   19.7149  -26.5405 H   0  0  0  0  0  0  0  0  0  0  0  0
   -3.5518   20.2601  -28.0841 H   0  0  0  0  0  0  0  0  0  0  0  0
   -1.9142   19.5219  -28.0841 H   0  0  0  0  0  0  0  0  0  0  0  0
   -2.5852   22.1066  -26.5960 H   0  0  0  0  0  0  0  0  0  0  0  0
   -0.9472   21.3919  -27.0006 H   0  0  0  0  0  0  0  0  0  0  0  0
   -2.3160   23.2970  -28.3120 H   0  0  0  0  0  0  0  0  0  0  0  0
   -2.8237   20.7018  -29.5052 H   0  0  0  0  0  0  0  0  0  0  0  0
   -3.7735   22.2546  -29.5376 H   0  0  0  0  0  0  0  0  0  0  0  0
   -1.3230   22.6552  -30.9829 H   0  0  0  0  0  0  0  0  0  0  0  0
   -2.0992   21.1523  -31.5873 H   0  0  0  0  0  0  0  0  0  0  0  0
   -3.0140   22.6981  -31.5873 H   0  0  0  0  0  0  0  0  0  0  0  0
    0.1285   21.7794  -28.5657 H   0  0  0  0  0  0  0  0  0  0  0  0
   -0.4841   22.4800  -30.1263 H   0  0  0  0  0  0  0  0  0  0  0  0
    0.3978   23.9123  -27.5978 H   0  0  0  0  0  0  0  0  0  0  0  0
    0.8970   24.1844  -29.3075 H   0  0  0  0  0  0  0  0  0  0  0  0
    0.1410   25.8038  -27.2724 H   0  0  0  0  0  0  0  0  0  0  0  0
   -0.9621   26.8936  -28.1785 H   0  0  0  0  0  0  0  0  0  0  0  0
   -1.4883   25.6007  -25.7150 H   0  0  0  0  0  0  0  0  0  0  0  0
   -2.6709   26.4586  -26.7581 H   0  0  0  0  0  0  0  0  0  0  0  0
   -4.3639   23.7629  -26.2036 H   0  0  0  0  0  0  0  0  0  0  0  0
   -4.2151   25.5388  -26.4593 H   0  0  0  0  0  0  0  0  0  0  0  0
   -5.0315   23.3848  -28.3618 H   0  0  0  0  0  0  0  0  0  0  0  0
   -5.4731   25.1278  -28.3229 H   0  0  0  0  0  0  0  0  0  0  0  0
   -2.9270   25.3270  -28.9310 H   0  0  0  0  0  0  0  0  0  0  0  0
   -4.2125   26.3692  -30.4226 H   0  0  0  0  0  0  0  0  0  0  0  0
   -3.7271   24.8873  -31.3727 H   0  0  0  0  0  0  0  0  0  0  0  0
   -6.0845   24.3026  -29.8139 H   0  0  0  0  0  0  0  0  0  0  0  0
   -6.3450   25.8074  -30.7897 H   0  0  0  0  0  0  0  0  0  0  0  0
   -4.8045   21.7309  -32.5944 H   0  0  0  0  0  0  0  0  0  0  0  0
   -5.9812   19.5312  -32.6488 H   0  0  0  0  0  0  0  0  0  0  0  0
   -9.6179   21.4322  -31.2848 H   0  0  0  0  0  0  0  0  0  0  0  0
   -8.4510   23.6333  -31.2284 H   0  0  0  0  0  0  0  0  0  0  0  0
  1  2  1  0
  2  3  1  0
  3  4  1  0
  4  5  1  0
  3  6  1  0
  6  7  1  0
  7  8  1  0
  8  9  1  0
  9 10  1  0
 10 11  1  0
 11 12  1  0
 12 13  1  0
 13 14  1  0
 14 15  1  0
 15 16  1  0
 16 17  1  0
 17 18  1  0
 18 19  2  0
 19 20  1  0
 20 21  2  0
 21 22  1  0
 21 23  1  0
 23 24  2  0
 24 18  1  0
  1 25  1  0
  1 26  1  0
  1 27  1  0
  2 28  1  0
  2 29  1  0
  3 30  1  0
  4 31  1  0
  4 32  1  0
  5 33  1  0
  5 34  1  0
  5 35  1  0
  6 36  1  0
  6 37  1  0
  7 38  1  0
  7 39  1  0
  9 40  1  0
  9 41  1  0
 10 42  1  0
 10 43  1  0
 12 44  1  0
 12 45  1  0
 13 46  1  0
 13 47  1  0
 14 48  1  0
 15 49  1  0
 15 50  1  0
 16 51  1  0
 16 52  1  0
 19 53  1  0
 20 54  1  0
 23 55  1  0
 24 56  1  0
M  CHG  1   3   1
M  END
>  <UniqueID>  (11) 
11

>  <SMILES>  (11) 
CC[NH+](CC)CCOCCOCCNCCOc1ccc(Br)cc1

>  <Energy>  (11) 
54.736478062650335

>  <Genealogy>  (11) 
CC[NH+](CC)CCOCCOCCNCCOc1ccc(Br)cc1 (protonated)
CC[NH+](CC)CCOCCOCCNCCOc1ccc(Br)cc1 (3D coordinates assigned)
CC[NH+](CC)CCOCCOCCNCCOc1ccc(Br)cc1 (optimized conformer: 54.736478062650335 kcal/mol)

>  <smiles>  (11) 
CCN(CC)CCOCCOCCNCCOc1ccc(Br)cc1

>  <score_type>  (11) 
oracle

>  <origin>  (11) 
adg

>  <m_score__min__energy>  (11) 
-6.6900000000000004

>  <m_primary>  (11) 
energy

$$$$
11:0
     RDKit          3D

 59 61  0  0  0  0  0  0  0  0999 V2000
   -2.6540   21.4460  -32.2000 C   0  0  0  0  0  0  0  0  0  0  0  0
   -3.8930   21.5250  -33.0910 C   0  0  0  0  0  0  0  0  0  0  0  0
   -5.2020   21.6200  -32.2910 C   0  0  0  0  0  0  0  0  0  0  0  0
   -5.8070   23.0420  -32.3120 C   0  0  0  0  0  0  0  0  0  0  0  0
   -6.5190   23.3930  -31.0520 N   0  0  1  0  0  0  0  0  0  0  0  0
   -7.3920   22.3140  -30.4780 C   0  0  0  0  0  0  0  0  0  0  0  0
   -8.6130   21.8900  -31.3120 C   0  0  0  0  0  0  0  0  0  0  0  0
   -5.6640   24.0420  -30.0110 C   0  0  0  0  0  0  0  0  0  0  0  0
   -4.1580   24.2120  -30.3530 C   0  0  1  0  0  0  0  0  0  0  0  0
   -3.9340   25.5570  -30.6920 O   0  0  0  0  0  0  0  0  0  0  0  0
   -3.2430   23.8330  -29.2070 C   0  0  0  0  0  0  0  0  0  0  0  0
   -2.9110   22.4890  -28.9740 C   0  0  0  0  0  0  0  0  0  0  0  0
   -2.0680   22.1530  -27.9030 C   0  0  0  0  0  0  0  0  0  0  0  0
   -1.6740   20.7490  -27.6290 C   0  0  0  0  0  0  0  0  0  0  0  0
   -0.4320   20.2680  -28.0850 C   0  0  0  0  0  0  0  0  0  0  0  0
   -0.0430   18.9490  -27.8290 C   0  0  0  0  0  0  0  0  0  0  0  0
   -0.8830   18.0980  -27.1100 C   0  0  0  0  0  0  0  0  0  0  0  0
   -2.1130   18.5650  -26.6400 C   0  0  0  0  0  0  0  0  0  0  0  0
   -2.5080   19.8820  -26.8940 C   0  0  0  0  0  0  0  0  0  0  0  0
   -1.5790   23.1460  -27.1100 N   0  0  0  0  0  0  0  0  0  0  0  0
   -1.8870   24.4600  -27.2940 C   0  0  0  0  0  0  0  0  0  0  0  0
   -1.3060   25.4750  -26.3790 C   0  0  0  0  0  0  0  0  0  0  0  0
   -0.8390   26.6980  -26.8950 C   0  0  0  0  0  0  0  0  0  0  0  0
   -0.2990   27.6670  -26.0450 C   0  0  0  0  0  0  0  0  0  0  0  0
   -0.2260   27.4330  -24.6700 C   0  0  0  0  0  0  0  0  0  0  0  0
    0.2960   28.3750  -23.8480 F   0  0  0  0  0  0  0  0  0  0  0  0
   -0.6980   26.2290  -24.1430 C   0  0  0  0  0  0  0  0  0  0  0  0
   -1.2380   25.2550  -24.9880 C   0  0  0  0  0  0  0  0  0  0  0  0
   -2.7530   24.8180  -28.3390 C   0  0  0  0  0  0  0  0  0  0  0  0
   -2.9602   21.4655  -31.1437 H   0  0  0  0  0  0  0  0  0  0  0  0
   -2.1121   20.5115  -32.4075 H   0  0  0  0  0  0  0  0  0  0  0  0
   -1.9978   22.3041  -32.4075 H   0  0  0  0  0  0  0  0  0  0  0  0
   -3.8081   22.4152  -33.7316 H   0  0  0  0  0  0  0  0  0  0  0  0
   -3.9341   20.5975  -33.6810 H   0  0  0  0  0  0  0  0  0  0  0  0
   -5.9316   20.9199  -32.7240 H   0  0  0  0  0  0  0  0  0  0  0  0
   -4.9729   21.3698  -31.2446 H   0  0  0  0  0  0  0  0  0  0  0  0
   -4.9937   23.7661  -32.4678 H   0  0  0  0  0  0  0  0  0  0  0  0
   -6.5466   23.0716  -33.1257 H   0  0  0  0  0  0  0  0  0  0  0  0
   -7.1910   24.1470  -31.3350 H   0  0  0  0  0  0  0  0  0  0  0  0
   -6.7648   21.4226  -30.3300 H   0  0  0  0  0  0  0  0  0  0  0  0
   -7.8098   22.7434  -29.5555 H   0  0  0  0  0  0  0  0  0  0  0  0
   -9.4352   21.6045  -30.6394 H   0  0  0  0  0  0  0  0  0  0  0  0
   -8.9331   22.7296  -31.9465 H   0  0  0  0  0  0  0  0  0  0  0  0
   -8.3438   21.0327  -31.9465 H   0  0  0  0  0  0  0  0  0  0  0  0
   -6.0769   25.0429  -29.8168 H   0  0  0  0  0  0  0  0  0  0  0  0
   -5.6898   23.3597  -29.1486 H   0  0  0  0  0  0  0  0  0  0  0  0
   -3.9246   23.5341  -31.1872 H   0  0  0  0  0  0  0  0  0  0  0  0
   -4.1940   25.6640  -31.6450 H   0  0  0  0  0  0  0  0  0  0  0  0
   -3.3106   21.7009  -29.6292 H   0  0  0  0  0  0  0  0  0  0  0  0
    0.2381   20.9349  -28.6473 H   0  0  0  0  0  0  0  0  0  0  0  0
    0.9271   18.5819  -28.1953 H   0  0  0  0  0  0  0  0  0  0  0  0
   -0.5770   17.0599  -26.9133 H   0  0  0  0  0  0  0  0  0  0  0  0
   -2.7723   17.8949  -26.0687 H   0  0  0  0  0  0  0  0  0  0  0  0
   -3.4761   20.2441  -26.5177 H   0  0  0  0  0  0  0  0  0  0  0  0
   -0.8995   26.8929  -27.9759 H   0  0  0  0  0  0  0  0  0  0  0  0
    0.0696   28.6167  -26.4601 H   0  0  0  0  0  0  0  0  0  0  0  0
   -0.6447   26.0464  -23.0596 H   0  0  0  0  0  0  0  0  0  0  0  0
   -1.6122   24.3110  -24.5650 H   0  0  0  0  0  0  0  0  0  0  0  0
   -3.0463   25.8692  -28.4763 H   0  0  0  0  0  0  0  0  0  0  0  0
  1  2  1  0
  2  3  1  0
  3  4  1  0
  4  5  1  0
  5  6  1  0
  6  7  1  0
  5  8  1  0
  8  9  1  0
  9 10  1  0
  9 11  1  0
 11 12  2  0
 12 13  1  0
 13 14  1  0
 14 15  2  0
 15 16  1  0
 16 17  2  0
 17 18  1  0
 18 19  2  0
 13 20  2  0
 20 21  1  0
 21 22  1  0
 22 23  2  0
 23 24  1  0
 24 25  2  0
 25 26  1  0
 25 27  1  0
 27 28  2  0
 21 29  2  0
 29 11  1  0
 19 14  1  0
 28 22  1  0
  1 30  1  0
  1 31  1  0
  1 32  1  0
  2 33  1  0
  2 34  1  0
  3 35  1  0
  3 36  1  0
  4 37  1  0
  4 38  1  0
  5 39  1  6
  6 40  1  0
  6 41  1  0
  7 42  1  0
  7 43  1  0
  7 44  1  0
  8 45  1  0
  8 46  1  0
  9 47  1  6
 10 48  1  0
 12 49  1  0
 15 50  1  0
 16 51  1  0
 17 52  1  0
 18 53  1  0
 19 54  1  0
 23 55  1  0
 24 56  1  0
 27 57  1  0
 28 58  1  0
 29 59  1  0
M  CHG  1   5   1
M  END
>  <UniqueID>  (12) 
12

>  <SMILES>  (12) 
CCCC[N@@H+](CC)C[C@@H](O)c1cc(-c2ccccc2)nc(-c2ccc(F)cc2)c1

>  <Energy>  (12) 
77.79838965432496

>  <Genealogy>  (12) 
CCCC[NH+](CC)CC(O)c1cc(-c2ccccc2)nc(-c2ccc(F)cc2)c1 (protonated)
CCCC[N@@H+](CC)C[C@@H](O)c1cc(-c2ccccc2)nc(-c2ccc(F)cc2)c1 (chirality)
CCCC[N@@H+](CC)C[C@@H](O)c1cc(-c2ccccc2)nc(-c2ccc(F)cc2)c1 (3D coordinates assigned)
CCCC[N@@H+](CC)C[C@@H](O)c1cc(-c2ccccc2)nc(-c2ccc(F)cc2)c1 (optimized conformer: 77.79838965432496 kcal/mol)

>  <smiles>  (12) 
CCCCN(CC)CC(O)c1cc(-c2ccccc2)nc(-c2ccc(F)cc2)c1

>  <score_type>  (12) 
oracle

>  <origin>  (12) 
adg

>  <m_score__min__energy>  (12) 
-8.6099999999999994

>  <m_primary>  (12) 
energy

$$$$
12:0
     RDKit          3D

 44 46  0  0  1  0  0  0  0  0999 V2000
   -1.0170   21.2030  -32.1100 C   0  0  0  0  0  0  0  0  0  0  0  0
   -0.8350   21.2830  -30.5970 C   0  0  0  0  0  0  0  0  0  0  0  0
   -1.6920   22.4120  -30.1530 C   0  0  0  0  0  0  0  0  0  0  0  0
   -2.8440   22.7920  -30.8030 C   0  0  0  0  0  0  0  0  0  0  0  0
   -3.5470   23.8540  -30.2900 C   0  0  0  0  0  0  0  0  0  0  0  0
   -4.6230   24.2020  -30.9040 N   0  0  0  0  0  0  0  0  0  0  0  0
   -5.5800   23.1750  -31.2140 C   0  0  0  0  0  0  0  0  0  0  0  0
   -5.4670   22.4160  -32.3530 C   0  0  0  0  0  0  0  0  0  0  0  0
   -6.4310   21.4390  -32.5890 C   0  0  0  0  0  0  0  0  0  0  0  0
   -7.4710   21.2500  -31.6870 C   0  0  0  0  0  0  0  0  0  0  0  0
   -8.5190   20.2220  -31.9000 C   0  0  0  0  0  0  0  0  0  0  0  0
   -9.2000   20.4040  -33.0960 O   0  0  0  0  0  0  0  0  0  0  0  0
   -7.5780   22.0230  -30.5370 C   0  0  0  0  0  0  0  0  0  0  0  0
   -6.6150   23.0040  -30.2960 C   0  0  0  0  0  0  0  0  0  0  0  0
   -3.1500   24.5280  -29.1840 N   0  0  0  0  0  0  0  0  0  0  0  0
   -2.0090   24.1260  -28.5660 C   0  0  0  0  0  0  0  0  0  0  0  0
   -1.4910   24.7770  -27.3750 C   0  0  0  0  0  0  0  0  0  0  0  0
   -2.5580   25.5410  -26.0990 S   0  0  0  0  0  0  0  0  0  0  0  0
   -0.9950   26.0410  -25.0970 C   0  0  0  0  0  0  0  0  0  0  0  0
   -1.2100   26.7730  -23.8160 C   0  0  0  0  0  0  0  0  0  0  0  0
   -0.1790   25.6300  -25.7650 N   0  0  0  0  0  0  0  0  0  0  0  0
   -0.2250   24.9840  -26.9140 C   0  0  0  0  0  0  0  0  0  0  0  0
    0.9880   24.5060  -27.6740 C   0  0  0  0  0  0  0  0  0  0  0  0
   -1.3180   23.0960  -29.0570 N   0  0  0  0  0  0  0  0  0  0  0  0
   -2.0021   20.7700  -32.3384 H   0  0  0  0  0  0  0  0  0  0  0  0
   -0.9515   22.2129  -32.5411 H   0  0  0  0  0  0  0  0  0  0  0  0
   -0.2286   20.5684  -32.5411 H   0  0  0  0  0  0  0  0  0  0  0  0
   -1.1575   20.3453  -30.1209 H   0  0  0  0  0  0  0  0  0  0  0  0
    0.2184   21.4372  -30.3204 H   0  0  0  0  0  0  0  0  0  0  0  0
   -3.1899   22.2628  -31.7031 H   0  0  0  0  0  0  0  0  0  0  0  0
   -4.6385   22.5753  -33.0589 H   0  0  0  0  0  0  0  0  0  0  0  0
   -6.3689   20.8148  -33.4926 H   0  0  0  0  0  0  0  0  0  0  0  0
   -8.0443   19.2298  -31.9107 H   0  0  0  0  0  0  0  0  0  0  0  0
   -9.2480   20.3097  -31.0809 H   0  0  0  0  0  0  0  0  0  0  0  0
   -8.7110   19.8870  -33.7800 H   0  0  0  0  0  0  0  0  0  0  0  0
   -8.4059   21.8647  -29.8302 H   0  0  0  0  0  0  0  0  0  0  0  0
   -6.6719   23.6328  -29.3952 H   0  0  0  0  0  0  0  0  0  0  0  0
   -3.6750   25.3300  -28.7890 H   0  0  0  0  0  0  0  0  0  0  0  0
   -1.0118   26.0981  -22.9703 H   0  0  0  0  0  0  0  0  0  0  0  0
   -0.5267   27.6336  -23.7663 H   0  0  0  0  0  0  0  0  0  0  0  0
   -2.2502   27.1274  -23.7663 H   0  0  0  0  0  0  0  0  0  0  0  0
    1.7686   24.1984  -26.9627 H   0  0  0  0  0  0  0  0  0  0  0  0
    0.7105   23.6500  -28.3066 H   0  0  0  0  0  0  0  0  0  0  0  0
    1.3690   25.3212  -28.3066 H   0  0  0  0  0  0  0  0  0  0  0  0
  1  2  1  0
  2  3  1  0
  3  4  2  0
  4  5  1  0
  5  6  2  0
  6  7  1  0
  7  8  2  0
  8  9  1  0
  9 10  2  0
 10 11  1  0
 11 12  1  0
 10 13  1  0
 13 14  2  0
  5 15  1  0
 15 16  1  0
 16 17  1  0
 17 18  1  0
 18 19  1  0
 19 20  1  0
 19 21  2  0
 21 22  1  0
 22 23  1  0
 16 24  2  0
 24  3  1  0
 14  7  1  0
 22 17  2  0
  1 25  1  0
  1 26  1  0
  1 27  1  0
  2 28  1  0
  2 29  1  0
  4 30  1  0
  8 31  1  0
  9 32  1  0
 11 33  1  0
 11 34  1  0
 12 35  1  0
 13 36  1  0
 14 37  1  0
 15 38  1  0
 20 39  1  0
 20 40  1  0
 20 41  1  0
 23 42  1  0
 23 43  1  0
 23 44  1  0
M  END
>  <smiles>  (13) 
CCc1cc(=Nc2ccc(CO)cc2)[nH]c(-c2sc(C)nc2C)n1

>  <score_type>  (13) 
oracle

>  <origin>  (13) 
adg

>  <m_score__min__energy>  (13) 
-8.4299999999999997

>  <m_primary>  (13) 
energy

$$$$
13:0
     RDKit          3D

 57 59  0  0  0  0  0  0  0  0999 V2000
   -2.0790   25.5860  -25.7390 C   0  0  0  0  0  0  0  0  0  0  0  0
   -1.4860   24.4750  -26.5970 C   0  0  0  0  0  0  0  0  0  0  0  0
   -0.7790   25.1340  -28.1010 S   0  0  0  0  0  0  0  0  0  0  0  0
   -0.1920   26.4870  -27.8190 O   0  0  0  0  0  0  0  0  0  0  0  0
    0.3100   24.2220  -28.5930 O   0  0  0  0  0  0  0  0  0  0  0  0
   -2.0030   25.3050  -29.3250 N   0  0  0  0  0  0  0  0  0  0  0  0
   -2.7220   24.0490  -29.5550 C   0  0  0  0  0  0  0  0  0  0  0  0
   -4.2240   24.3180  -29.6660 C   0  0  0  0  0  0  0  0  0  0  0  0
   -4.6950   24.0180  -30.9800 O   0  0  0  0  0  0  0  0  0  0  0  0
   -5.8600   23.2950  -31.2900 C   0  0  0  0  0  0  0  0  0  0  0  0
   -7.1390   23.8740  -31.2850 C   0  0  0  0  0  0  0  0  0  0  0  0
   -8.2610   23.1060  -31.6010 C   0  0  0  0  0  0  0  0  0  0  0  0
   -8.1310   21.7520  -31.9420 C   0  0  0  0  0  0  0  0  0  0  0  0
   -6.8480   21.1600  -31.9470 C   0  0  0  0  0  0  0  0  0  0  0  0
   -5.7250   21.9450  -31.6270 C   0  0  0  0  0  0  0  0  0  0  0  0
   -6.6430   19.7280  -32.3970 C   0  0  2  0  0  0  0  0  0  0  0  0
   -6.2040   19.7430  -33.8900 C   0  0  0  0  0  0  0  0  0  0  0  0
   -4.9690   18.9250  -34.1700 C   0  0  0  0  0  0  0  0  0  0  0  0
   -5.0410   17.7890  -34.9950 C   0  0  0  0  0  0  0  0  0  0  0  0
   -3.8950   17.0240  -35.2380 C   0  0  0  0  0  0  0  0  0  0  0  0
   -2.6740   17.3890  -34.6670 C   0  0  0  0  0  0  0  0  0  0  0  0
   -2.5950   18.5210  -33.8510 C   0  0  0  0  0  0  0  0  0  0  0  0
   -3.7360   19.2890  -33.6040 C   0  0  0  0  0  0  0  0  0  0  0  0
   -7.9130   18.8820  -32.0830 C   0  0  2  0  0  0  0  0  0  0  0  0
   -7.7440   17.4800  -32.5160 N   0  0  0  0  0  0  0  0  0  0  0  0
   -6.4370   16.9280  -32.1430 C   0  0  0  0  0  0  0  0  0  0  0  0
   -9.1510   19.5370  -32.7280 C   0  0  0  0  0  0  0  0  0  0  0  0
   -9.3900   20.9460  -32.1670 C   0  0  0  0  0  0  0  0  0  0  0  0
   -1.9467   25.3382  -24.6755 H   0  0  0  0  0  0  0  0  0  0  0  0
   -1.5668   26.5338  -25.9611 H   0  0  0  0  0  0  0  0  0  0  0  0
   -3.1515   25.6880  -25.9611 H   0  0  0  0  0  0  0  0  0  0  0  0
   -0.6997   23.9601  -26.0255 H   0  0  0  0  0  0  0  0  0  0  0  0
   -2.2895   23.7735  -26.8659 H   0  0  0  0  0  0  0  0  0  0  0  0
   -2.3642   23.5903  -30.4886 H   0  0  0  0  0  0  0  0  0  0  0  0
   -2.5387   23.3684  -28.7105 H   0  0  0  0  0  0  0  0  0  0  0  0
   -4.7581   23.6890  -28.9387 H   0  0  0  0  0  0  0  0  0  0  0  0
   -4.4088   25.3824  -29.4587 H   0  0  0  0  0  0  0  0  0  0  0  0
   -7.2575   24.9377  -31.0309 H   0  0  0  0  0  0  0  0  0  0  0  0
   -9.2589   23.5684  -31.5823 H   0  0  0  0  0  0  0  0  0  0  0  0
   -4.7242   21.4888  -31.6423 H   0  0  0  0  0  0  0  0  0  0  0  0
   -5.8353   19.2303  -31.8402 H   0  0  0  0  0  0  0  0  0  0  0  0
   -7.0293   19.3440  -34.4981 H   0  0  0  0  0  0  0  0  0  0  0  0
   -5.9610   20.7859  -34.1417 H   0  0  0  0  0  0  0  0  0  0  0  0
   -6.0000   17.5010  -35.4503 H   0  0  0  0  0  0  0  0  0  0  0  0
   -3.9559   16.1331  -35.8803 H   0  0  0  0  0  0  0  0  0  0  0  0
   -1.7745   16.7857  -34.8594 H   0  0  0  0  0  0  0  0  0  0  0  0
   -1.6326   18.8080  -33.4023 H   0  0  0  0  0  0  0  0  0  0  0  0
   -3.6684   20.1814  -32.9644 H   0  0  0  0  0  0  0  0  0  0  0  0
   -8.0642   18.8598  -30.9937 H   0  0  0  0  0  0  0  0  0  0  0  0
   -7.7750   17.4640  -33.5630 H   0  0  0  0  0  0  0  0  0  0  0  0
   -6.3532   16.8926  -31.0468 H   0  0  0  0  0  0  0  0  0  0  0  0
   -6.3383   15.9114  -32.5513 H   0  0  0  0  0  0  0  0  0  0  0  0
   -5.6394   17.5661  -32.5513 H   0  0  0  0  0  0  0  0  0  0  0  0
   -8.9954   19.6052  -33.8148 H   0  0  0  0  0  0  0  0  0  0  0  0
  -10.0310   18.9177  -32.5000 H   0  0  0  0  0  0  0  0  0  0  0  0
  -10.0274   21.4947  -32.8760 H   0  0  0  0  0  0  0  0  0  0  0  0
   -9.8587   20.8151  -31.1805 H   0  0  0  0  0  0  0  0  0  0  0  0
  1  2  1  0
  2  3  1  0
  3  4  2  0
  3  5  2  0
  3  6  1  0
  6  7  1  0
  7  8  1  0
  8  9  1  0
  9 10  1  0
 10 11  2  0
 11 12  1  0
 12 13  2  0
 13 14  1  0
 14 15  2  0
 14 16  1  0
 16 17  1  0
 17 18  1  0
 18 19  2  0
 19 20  1  0
 20 21  2  0
 21 22  1  0
 22 23  2  0
 16 24  1  0
 24 25  1  0
 25 26  1  0
 24 27  1  0
 27 28  1  0
 15 10  1  0
 23 18  1  0
 28 13  1  0
  1 29  1  0
  1 30  1  0
  1 31  1  0
  2 32  1  0
  2 33  1  0
  7 34  1  0
  7 35  1  0
  8 36  1  0
  8 37  1  0
 11 38  1  0
 12 39  1  0
 15 40  1  0
 16 41  1  1
 17 42  1  0
 17 43  1  0
 19 44  1  0
 20 45  1  0
 21 46  1  0
 22 47  1  0
 23 48  1  0
 24 49  1  1
 25 50  1  0
 26 51  1  0
 26 52  1  0
 26 53  1  0
 27 54  1  0
 27 55  1  0
 28 56  1  0
 28 57  1  0
M  CHG  1   6  -1
M  END
>  <UniqueID>  (14) 
13

>  <SMILES>  (14) 
CCS(=O)(=O)[N-]CCOc1ccc2c(c1)[C@H](Cc1ccccc1)[C@H](NC)CC2

>  <Energy>  (14) 
52.16287186904565

>  <Genealogy>  (14) 
CCS(=O)(=O)[N-]CCOc1ccc2c(c1)C(Cc1ccccc1)C(NC)CC2 (protonated)
CCS(=O)(=O)[N-]CCOc1ccc2c(c1)[C@H](Cc1ccccc1)[C@H](NC)CC2 (chirality)
CCS(=O)(=O)[N-]CCOc1ccc2c(c1)[C@H](Cc1ccccc1)[C@H](NC)CC2 (3D coordinates assigned)
CCS(=O)(=O)[N-]CCOc1ccc2c(c1)[C@H](Cc1ccccc1)[C@H](NC)CC2 (nonaromatic ring conformer: 52.16287186904565 kcal/mol)

>  <smiles>  (14) 
CCS(=O)(=O)NCCOc1ccc2c(c1)C(Cc1ccccc1)C(NC)CC2

>  <score_type>  (14) 
oracle

>  <origin>  (14) 
adg

>  <m_score__min__energy>  (14) 
-12.199999999999999

>  <m_primary>  (14) 
energy

$$$$
14:0
     RDKit          3D

 59 61  0  0  0  0  0  0  0  0999 V2000
   -6.5470   25.5310  -29.6170 C   0  0  0  0  0  0  0  0  0  0  0  0
   -5.5200   25.4740  -30.7580 C   0  0  0  0  0  0  0  0  0  0  0  0
   -4.9830   24.1210  -31.0880 N   0  0  0  0  0  0  0  0  0  0  0  0
   -4.6480   23.2330  -29.9510 C   0  0  0  0  0  0  0  0  0  0  0  0
   -3.7580   23.9370  -28.9580 C   0  0  0  0  0  0  0  0  0  0  0  0
   -4.1870   24.1310  -27.6340 C   0  0  0  0  0  0  0  0  0  0  0  0
   -3.3750   24.8080  -26.7210 C   0  0  0  0  0  0  0  0  0  0  0  0
   -2.1240   25.3040  -27.1170 C   0  0  0  0  0  0  0  0  0  0  0  0
   -1.2680   26.0670  -26.1450 C   0  0  0  0  0  0  0  0  0  0  0  0
   -1.2520   25.3670  -24.8550 N   0  0  0  0  0  0  0  0  0  0  0  0
    0.1010   24.9970  -24.4150 C   0  0  0  0  0  0  0  0  0  0  0  0
    0.7200   23.7720  -25.1430 C   0  0  0  0  0  0  0  0  0  0  0  0
   -0.1380   23.0810  -26.1380 N   0  0  0  0  0  0  0  0  0  0  0  0
    0.5190   22.7720  -27.4160 C   0  0  0  0  0  0  0  0  0  0  0  0
   -0.8830   21.9310  -25.6030 C   0  0  0  0  0  0  0  0  0  0  0  0
   -1.7120   25.1470  -28.4490 C   0  0  0  0  0  0  0  0  0  0  0  0
   -2.5240   24.4710  -29.3640 C   0  0  0  0  0  0  0  0  0  0  0  0
   -5.6160   23.4100  -32.2320 C   0  0  0  0  0  0  0  0  0  0  0  0
   -5.2180   21.9160  -32.3300 C   0  0  0  0  0  0  0  0  0  0  0  0
   -6.4890   21.1950  -32.0870 C   0  0  0  0  0  0  0  0  0  0  0  0
   -6.6560   19.8130  -31.9760 C   0  0  0  0  0  0  0  0  0  0  0  0
   -7.9470   19.3030  -31.7620 C   0  0  0  0  0  0  0  0  0  0  0  0
   -9.0450   20.1770  -31.6710 C   0  0  0  0  0  0  0  0  0  0  0  0
   -8.8550   21.5630  -31.7910 C   0  0  0  0  0  0  0  0  0  0  0  0
   -7.5620   22.0490  -31.9980 C   0  0  0  0  0  0  0  0  0  0  0  0
   -7.1640   23.4670  -32.1580 C   0  0  0  0  0  0  0  0  0  0  0  0
   -6.0230   25.5019  -28.6503 H   0  0  0  0  0  0  0  0  0  0  0  0
   -7.1269   26.4627  -29.6919 H   0  0  0  0  0  0  0  0  0  0  0  0
   -7.2265   24.6692  -29.6919 H   0  0  0  0  0  0  0  0  0  0  0  0
   -5.9996   25.8756  -31.6628 H   0  0  0  0  0  0  0  0  0  0  0  0
   -4.6562   26.0589  -30.4090 H   0  0  0  0  0  0  0  0  0  0  0  0
   -5.5771   22.9275  -29.4476 H   0  0  0  0  0  0  0  0  0  0  0  0
   -4.1125   22.3541  -30.3393 H   0  0  0  0  0  0  0  0  0  0  0  0
   -5.1674   23.7477  -27.3149 H   0  0  0  0  0  0  0  0  0  0  0  0
   -3.7183   24.9529  -25.6861 H   0  0  0  0  0  0  0  0  0  0  0  0
   -0.2425   26.1382  -26.5366 H   0  0  0  0  0  0  0  0  0  0  0  0
   -1.6789   27.0783  -26.0090 H   0  0  0  0  0  0  0  0  0  0  0  0
   -1.8710   24.5280  -24.8860 H   0  0  0  0  0  0  0  0  0  0  0  0
    0.7612   25.8611  -24.5808 H   0  0  0  0  0  0  0  0  0  0  0  0
    0.0108   24.7105  -23.3568 H   0  0  0  0  0  0  0  0  0  0  0  0
    1.6240   24.1175  -25.6659 H   0  0  0  0  0  0  0  0  0  0  0  0
    0.9004   23.0284  -24.3527 H   0  0  0  0  0  0  0  0  0  0  0  0
    1.4989   22.3111  -27.2225 H   0  0  0  0  0  0  0  0  0  0  0  0
   -0.1073   22.0741  -27.9910 H   0  0  0  0  0  0  0  0  0  0  0  0
    0.6571   23.6995  -27.9910 H   0  0  0  0  0  0  0  0  0  0  0  0
   -0.8636   21.9609  -24.5036 H   0  0  0  0  0  0  0  0  0  0  0  0
   -1.9250   21.9744  -25.9527 H   0  0  0  0  0  0  0  0  0  0  0  0
   -0.4175   20.9977  -25.9527 H   0  0  0  0  0  0  0  0  0  0  0  0
   -0.7451   25.5580  -28.7748 H   0  0  0  0  0  0  0  0  0  0  0  0
   -2.1949   24.3566  -30.4074 H   0  0  0  0  0  0  0  0  0  0  0  0
   -5.2433   23.9407  -33.1205 H   0  0  0  0  0  0  0  0  0  0  0  0
   -4.8190   21.6814  -33.3279 H   0  0  0  0  0  0  0  0  0  0  0  0
   -4.4283   21.6385  -31.6163 H   0  0  0  0  0  0  0  0  0  0  0  0
   -5.7923   19.1363  -32.0547 H   0  0  0  0  0  0  0  0  0  0  0  0
   -8.0996   18.2179  -31.6654 H   0  0  0  0  0  0  0  0  0  0  0  0
  -10.0550   19.7739  -31.5054 H   0  0  0  0  0  0  0  0  0  0  0  0
   -9.7087   22.2533  -31.7232 H   0  0  0  0  0  0  0  0  0  0  0  0
   -7.5852   23.8905  -33.0817 H   0  0  0  0  0  0  0  0  0  0  0  0
   -7.5278   24.1061  -31.3399 H   0  0  0  0  0  0  0  0  0  0  0  0
  1  2  1  0
  2  3  1  0
  3  4  1  0
  4  5  1  0
  5  6  2  0
  6  7  1  0
  7  8  2  0
  8  9  1  0
  9 10  1  0
 10 11  1  0
 11 12  1  0
 12 13  1  0
 13 14  1  0
 13 15  1  0
  8 16  1  0
 16 17  2  0
  3 18  1  0
 18 19  1  0
 19 20  1  0
 20 21  2  0
 21 22  1  0
 22 23  2  0
 23 24  1  0
 24 25  2  0
 25 26  1  0
 17  5  1  0
 26 18  1  0
 25 20  1  0
  1 27  1  0
  1 28  1  0
  1 29  1  0
  2 30  1  0
  2 31  1  0
  4 32  1  0
  4 33  1  0
  6 34  1  0
  7 35  1  0
  9 36  1  0
  9 37  1  0
 10 38  1  0
 11 39  1  0
 11 40  1  0
 12 41  1  0
 12 42  1  0
 14 43  1  0
 14 44  1  0
 14 45  1  0
 15 46  1  0
 15 47  1  0
 15 48  1  0
 16 49  1  0
 17 50  1  0
 18 51  1  0
 19 52  1  0
 19 53  1  0
 21 54  1  0
 22 55  1  0
 23 56  1  0
 24 57  1  0
 26 58  1  0
 26 59  1  0
M  END
>  <UniqueID>  (15) 
14

>  <SMILES>  (15) 
CCN(Cc1ccc(CNCCN(C)C)cc1)C1Cc2ccccc2C1

>  <Energy>  (15) 
86.26567539417081

>  <Genealogy>  (15) 
CCN(Cc1ccc(CNCCN(C)C)cc1)C1Cc2ccccc2C1 (3D coordinates assigned)
CCN(Cc1ccc(CNCCN(C)C)cc1)C1Cc2ccccc2C1 (nonaromatic ring conformer: 86.26567539417081 kcal/mol)

>  <smiles>  (15) 
CCN(Cc1ccc(CNCCN(C)C)cc1)C1Cc2ccccc2C1

>  <score_type>  (15) 
oracle

>  <origin>  (15) 
adg

>  <m_score__min__energy>  (15) 
-8.6600000000000001

>  <m_primary>  (15) 
energy

$$$$
15:0
     RDKit          3D

 49 50  0  0  0  0  0  0  0  0999 V2000
   -6.9090   18.0050  -31.7340 C   0  0  0  0  0  0  0  0  0  0  0  0
   -7.1590   18.5750  -33.0670 N   0  0  0  0  0  0  0  0  0  0  0  0
   -6.0740   18.2720  -34.0110 C   0  0  0  0  0  0  0  0  0  0  0  0
   -7.5940   19.9940  -33.0490 C   0  0  0  0  0  0  0  0  0  0  0  0
   -8.9210   20.2990  -32.3160 C   0  0  0  0  0  0  0  0  0  0  0  0
   -8.7960   21.3610  -31.2120 C   0  0  0  0  0  0  0  0  0  0  0  0
   -8.5080   22.7590  -31.7810 C   0  0  0  0  0  0  0  0  0  0  0  0
   -7.1940   23.2970  -31.2740 C   0  0  0  0  0  0  0  0  0  0  0  0
   -7.1590   24.4430  -30.4640 C   0  0  0  0  0  0  0  0  0  0  0  0
   -5.9370   25.0120  -30.0970 C   0  0  0  0  0  0  0  0  0  0  0  0
   -4.7290   24.4460  -30.5480 C   0  0  0  0  0  0  0  0  0  0  0  0
   -3.4780   25.0210  -30.2780 O   0  0  0  0  0  0  0  0  0  0  0  0
   -2.5410   24.5450  -29.3090 C   0  0  0  0  0  0  0  0  0  0  0  0
   -3.2400   24.0620  -28.0280 C   0  0  0  0  0  0  0  0  0  0  0  0
   -2.6760   22.7520  -27.5420 C   0  0  0  0  0  0  0  0  0  0  0  0
   -1.5060   22.7260  -26.7620 C   0  0  0  0  0  0  0  0  0  0  0  0
   -0.9670   21.5070  -26.3420 C   0  0  0  0  0  0  0  0  0  0  0  0
   -1.5880   20.3070  -26.6980 C   0  0  0  0  0  0  0  0  0  0  0  0
   -2.7480   20.3240  -27.4780 C   0  0  0  0  0  0  0  0  0  0  0  0
   -3.2910   21.5410  -27.9010 C   0  0  0  0  0  0  0  0  0  0  0  0
   -4.7670   23.2790  -31.3180 C   0  0  0  0  0  0  0  0  0  0  0  0
   -5.9880   22.7110  -31.6860 C   0  0  0  0  0  0  0  0  0  0  0  0
   -7.2241   18.7235  -30.9630 H   0  0  0  0  0  0  0  0  0  0  0  0
   -7.4805   17.0719  -31.6211 H   0  0  0  0  0  0  0  0  0  0  0  0
   -5.8355   17.7934  -31.6211 H   0  0  0  0  0  0  0  0  0  0  0  0
   -5.1618   18.0172  -33.4516 H   0  0  0  0  0  0  0  0  0  0  0  0
   -6.3657   17.4209  -34.6440 H   0  0  0  0  0  0  0  0  0  0  0  0
   -5.8825   19.1510  -34.6440 H   0  0  0  0  0  0  0  0  0  0  0  0
   -6.8008   20.5807  -32.5625 H   0  0  0  0  0  0  0  0  0  0  0  0
   -7.7756   20.2565  -34.1017 H   0  0  0  0  0  0  0  0  0  0  0  0
   -9.6516   20.6551  -33.0572 H   0  0  0  0  0  0  0  0  0  0  0  0
   -9.2353   19.3659  -31.8256 H   0  0  0  0  0  0  0  0  0  0  0  0
   -9.7386   21.3962  -30.6460 H   0  0  0  0  0  0  0  0  0  0  0  0
   -7.9514   21.0788  -30.5662 H   0  0  0  0  0  0  0  0  0  0  0  0
   -8.4707   22.6983  -32.8787 H   0  0  0  0  0  0  0  0  0  0  0  0
   -9.3098   23.4381  -31.4557 H   0  0  0  0  0  0  0  0  0  0  0  0
   -8.0993   24.8956  -30.1162 H   0  0  0  0  0  0  0  0  0  0  0  0
   -5.9184   25.9044  -29.4541 H   0  0  0  0  0  0  0  0  0  0  0  0
   -1.9745   23.7078  -29.7428 H   0  0  0  0  0  0  0  0  0  0  0  0
   -1.8736   25.3774  -29.0412 H   0  0  0  0  0  0  0  0  0  0  0  0
   -3.1068   24.8202  -27.2423 H   0  0  0  0  0  0  0  0  0  0  0  0
   -4.3055   23.9116  -28.2562 H   0  0  0  0  0  0  0  0  0  0  0  0
   -1.0134   23.6687  -26.4815 H   0  0  0  0  0  0  0  0  0  0  0  0
   -0.0528   21.4921  -25.7304 H   0  0  0  0  0  0  0  0  0  0  0  0
   -1.1639   19.3484  -26.3643 H   0  0  0  0  0  0  0  0  0  0  0  0
   -3.2344   19.3783  -27.7594 H   0  0  0  0  0  0  0  0  0  0  0  0
   -4.2025   21.5503  -28.5167 H   0  0  0  0  0  0  0  0  0  0  0  0
   -3.8269   22.8048  -31.6363 H   0  0  0  0  0  0  0  0  0  0  0  0
   -6.0044   21.7997  -32.3019 H   0  0  0  0  0  0  0  0  0  0  0  0
  1  2  1  0
  2  3  1  0
  2  4  1  0
  4  5  1  0
  5  6  1  0
  6  7  1  0
  7  8  1  0
  8  9  2  0
  9 10  1  0
 10 11  2  0
 11 12  1  0
 12 13  1  0
 13 14  1  0
 14 15  1  0
 15 16  2  0
 16 17  1  0
 17 18  2  0
 18 19  1  0
 19 20  2  0
 11 21  1  0
 21 22  2  0
 22  8  1  0
 20 15  1  0
  1 23  1  0
  1 24  1  0
  1 25  1  0
  3 26  1  0
  3 27  1  0
  3 28  1  0
  4 29  1  0
  4 30  1  0
  5 31  1  0
  5 32  1  0
  6 33  1  0
  6 34  1  0
  7 35  1  0
  7 36  1  0
  9 37  1  0
 10 38  1  0
 13 39  1  0
 13 40  1  0
 14 41  1  0
 14 42  1  0
 16 43  1  0
 17 44  1  0
 18 45  1  0
 19 46  1  0
 20 47  1  0
 21 48  1  0
 22 49  1  0
M  END
>  <UniqueID>  (16) 
15

>  <SMILES>  (16) 
CN(C)CCCCc1ccc(OCCc2ccccc2)cc1

>  <Energy>  (16) 
46.072391594804714

>  <Genealogy>  (16) 
CN(C)CCCCc1ccc(OCCc2ccccc2)cc1 (3D coordinates assigned)
CN(C)CCCCc1ccc(OCCc2ccccc2)cc1 (optimized conformer: 46.072391594804714 kcal/mol)

>  <smiles>  (16) 
CN(C)CCCCc1ccc(OCCc2ccccc2)cc1

>  <score_type>  (16) 
oracle

>  <origin>  (16) 
adg

>  <m_score__min__energy>  (16) 
-8.2100000000000009

>  <m_primary>  (16) 
energy

$$$$
16:0
     RDKit          3D

 44 45  0  0  0  0  0  0  0  0999 V2000
   -7.2950   19.1700  -32.7150 C   0  0  0  0  0  0  0  0  0  0  0  0
   -6.8660   20.4840  -33.3810 C   0  0  0  0  0  0  0  0  0  0  0  0
   -6.7000   21.5980  -32.4120 N   0  0  0  0  0  0  0  0  0  0  0  0
   -8.0280   22.1920  -32.1020 C   0  0  0  0  0  0  0  0  0  0  0  0
   -8.6810   21.6100  -30.8420 C   0  0  0  0  0  0  0  0  0  0  0  0
   -5.9100   21.2120  -31.2070 C   0  0  0  0  0  0  0  0  0  0  0  0
   -4.4340   20.8320  -31.4680 C   0  0  0  0  0  0  0  0  0  0  0  0
   -3.4430   22.2920  -31.9430 S   0  0  0  0  0  0  0  0  0  0  0  0
   -4.5540   23.4540  -31.1480 C   0  0  0  0  0  0  0  0  0  0  0  0
   -5.4800   24.1590  -31.8280 N   0  0  0  0  0  0  0  0  0  0  0  0
   -6.1050   24.8850  -30.8780 C   0  0  0  0  0  0  0  0  0  0  0  0
   -5.5540   24.6070  -29.6460 C   0  0  0  0  0  0  0  0  0  0  0  0
   -4.5700   23.7100  -29.8230 N   0  0  0  0  0  0  0  0  0  0  0  0
   -3.7640   23.0870  -28.7720 C   0  0  0  0  0  0  0  0  0  0  0  0
   -3.0190   24.1390  -27.9960 C   0  0  0  0  0  0  0  0  0  0  0  0
   -1.8430   24.7080  -28.5110 C   0  0  0  0  0  0  0  0  0  0  0  0
   -1.1410   25.6650  -27.7700 C   0  0  0  0  0  0  0  0  0  0  0  0
   -1.6060   26.0560  -26.5110 C   0  0  0  0  0  0  0  0  0  0  0  0
   -0.7240   27.2550  -25.5840 Cl  0  0  0  0  0  0  0  0  0  0  0  0
   -2.7740   25.4890  -25.9910 C   0  0  0  0  0  0  0  0  0  0  0  0
   -3.4770   24.5320  -26.7290 C   0  0  0  0  0  0  0  0  0  0  0  0
   -7.2578   19.2839  -31.6215 H   0  0  0  0  0  0  0  0  0  0  0  0
   -8.3212   18.9208  -33.0230 H   0  0  0  0  0  0  0  0  0  0  0  0
   -6.6136   18.3633  -33.0230 H   0  0  0  0  0  0  0  0  0  0  0  0
   -5.9071   20.3201  -33.8945 H   0  0  0  0  0  0  0  0  0  0  0  0
   -7.6627   20.7733  -34.0821 H   0  0  0  0  0  0  0  0  0  0  0  0
   -6.1530   22.3490  -32.9000 H   0  0  0  0  0  0  0  0  0  0  0  0
   -7.8998   23.2751  -31.9588 H   0  0  0  0  0  0  0  0  0  0  0  0
   -8.6918   21.9579  -32.9473 H   0  0  0  0  0  0  0  0  0  0  0  0
   -8.2011   22.0377  -29.9494 H   0  0  0  0  0  0  0  0  0  0  0  0
   -9.7527   21.8579  -30.8365 H   0  0  0  0  0  0  0  0  0  0  0  0
   -8.5575   20.5170  -30.8365 H   0  0  0  0  0  0  0  0  0  0  0  0
   -5.9221   22.0615  -30.5083 H   0  0  0  0  0  0  0  0  0  0  0  0
   -6.3888   20.3038  -30.8122 H   0  0  0  0  0  0  0  0  0  0  0  0
   -4.0099   20.3942  -30.5523 H   0  0  0  0  0  0  0  0  0  0  0  0
   -4.4042   20.1091  -32.2966 H   0  0  0  0  0  0  0  0  0  0  0  0
   -6.9287   25.5911  -31.0593 H   0  0  0  0  0  0  0  0  0  0  0  0
   -5.8655   25.0434  -28.6855 H   0  0  0  0  0  0  0  0  0  0  0  0
   -4.4237   22.5311  -28.0895 H   0  0  0  0  0  0  0  0  0  0  0  0
   -3.0388   22.4014  -29.2347 H   0  0  0  0  0  0  0  0  0  0  0  0
   -1.4726   24.4004  -29.5000 H   0  0  0  0  0  0  0  0  0  0  0  0
   -0.2219   26.1103  -28.1787 H   0  0  0  0  0  0  0  0  0  0  0  0
   -3.1399   25.7964  -25.0002 H   0  0  0  0  0  0  0  0  0  0  0  0
   -4.3929   24.0852  -26.3148 H   0  0  0  0  0  0  0  0  0  0  0  0
  1  2  1  0
  2  3  1  0
  3  4  1  0
  4  5  1  0
  3  6  1  0
  6  7  1  0
  7  8  1  0
  8  9  1  0
  9 10  2  0
 10 11  1  0
 11 12  2  0
 12 13  1  0
 13 14  1  0
 14 15  1  0
 15 16  2  0
 16 17  1  0
 17 18  2  0
 18 19  1  0
 18 20  1  0
 20 21  2  0
 13  9  1  0
 21 15  1  0
  1 22  1  0
  1 23  1  0
  1 24  1  0
  2 25  1  0
  2 26  1  0
  3 27  1  0
  4 28  1  0
  4 29  1  0
  5 30  1  0
  5 31  1  0
  5 32  1  0
  6 33  1  0
  6 34  1  0
  7 35  1  0
  7 36  1  0
 11 37  1  0
 12 38  1  0
 14 39  1  0
 14 40  1  0
 16 41  1  0
 17 42  1  0
 20 43  1  0
 21 44  1  0
M  CHG  1   3   1
M  END
>  <UniqueID>  (17) 
16

>  <SMILES>  (17) 
CC[NH+](CC)CCSc1nccn1Cc1ccc(Cl)cc1

>  <Energy>  (17) 
71.73319377861034

>  <Genealogy>  (17) 
CC[NH+](CC)CCSc1nccn1Cc1ccc(Cl)cc1 (protonated)
CC[NH+](CC)CCSc1nccn1Cc1ccc(Cl)cc1 (3D coordinates assigned)
CC[NH+](CC)CCSc1nccn1Cc1ccc(Cl)cc1 (optimized conformer: 71.73319377861034 kcal/mol)

>  <smiles>  (17) 
CCN(CC)CCSc1nccn1Cc1ccc(Cl)cc1

>  <score_type>  (17) 
oracle

>  <origin>  (17) 
adg

>  <m_score__min__energy>  (17) 
-6.2599999999999998

>  <m_primary>  (17) 
energy

$$$$
17:0
     RDKit          3D

 32 34  0  0  0  0  0  0  0  0999 V2000
   -0.4030   27.1660  -27.5090 C   0  0  0  0  0  0  0  0  0  0  0  0
   -0.8420   25.8780  -28.1160 C   0  0  0  0  0  0  0  0  0  0  0  0
   -0.0400   24.7980  -28.2280 N   0  0  0  0  0  0  0  0  0  0  0  0
   -0.8370   23.8750  -28.7990 C   0  0  0  0  0  0  0  0  0  0  0  0
   -2.0860   24.4280  -29.0050 C   0  0  0  0  0  0  0  0  0  0  0  0
   -3.2770   23.7940  -29.5990 C   0  0  0  0  0  0  0  0  0  0  0  0
   -3.2080   23.0250  -30.7640 C   0  0  0  0  0  0  0  0  0  0  0  0
   -4.3700   22.4530  -31.2740 C   0  0  0  0  0  0  0  0  0  0  0  0
   -5.5920   22.6550  -30.6150 C   0  0  0  0  0  0  0  0  0  0  0  0
   -6.8150   22.0740  -31.1230 N   0  0  0  0  0  0  0  0  0  0  0  0
   -8.1210   22.2840  -30.5200 C   0  0  0  0  0  0  0  0  0  0  0  0
   -9.1260   21.6430  -31.4670 C   0  0  0  0  0  0  0  0  0  0  0  0
   -8.3170   20.7070  -32.3580 C   0  0  0  0  0  0  0  0  0  0  0  0
   -6.8840   21.2160  -32.2960 C   0  0  0  0  0  0  0  0  0  0  0  0
   -5.6000   23.4150  -29.4790 N   0  0  0  0  0  0  0  0  0  0  0  0
   -4.4830   23.9610  -28.9950 N   0  0  0  0  0  0  0  0  0  0  0  0
   -2.0560   25.6630  -28.5700 O   0  0  0  0  0  0  0  0  0  0  0  0
   -0.4313   27.0831  -26.4125 H   0  0  0  0  0  0  0  0  0  0  0  0
    0.6233   27.3932  -27.8332 H   0  0  0  0  0  0  0  0  0  0  0  0
   -1.0769   27.9727  -27.8332 H   0  0  0  0  0  0  0  0  0  0  0  0
   -0.5416   22.8478  -29.0591 H   0  0  0  0  0  0  0  0  0  0  0  0
   -2.2447   22.8732  -31.2730 H   0  0  0  0  0  0  0  0  0  0  0  0
   -4.3303   21.8451  -32.1899 H   0  0  0  0  0  0  0  0  0  0  0  0
   -8.1674   21.8044  -29.5311 H   0  0  0  0  0  0  0  0  0  0  0  0
   -8.3304   23.3538  -30.3727 H   0  0  0  0  0  0  0  0  0  0  0  0
   -9.8794   21.0764  -30.9001 H   0  0  0  0  0  0  0  0  0  0  0  0
   -9.6657   22.3983  -32.0570 H   0  0  0  0  0  0  0  0  0  0  0  0
   -8.3740   19.6749  -31.9819 H   0  0  0  0  0  0  0  0  0  0  0  0
   -8.6999   20.6963  -33.3892 H   0  0  0  0  0  0  0  0  0  0  0  0
   -6.1831   20.3741  -32.1958 H   0  0  0  0  0  0  0  0  0  0  0  0
   -6.6095   21.7610  -33.2112 H   0  0  0  0  0  0  0  0  0  0  0  0
   -6.4880   23.5820  -28.9580 H   0  0  0  0  0  0  0  0  0  0  0  0
  1  2  1  0
  2  3  2  0
  3  4  1  0
  4  5  2  0
  5  6  1  0
  6  7  2  0
  7  8  1  0
  8  9  2  0
  9 10  1  0
 10 11  1  0
 11 12  1  0
 12 13  1  0
 13 14  1  0
  9 15  1  0
 15 16  2  0
  5 17  1  0
 17  2  1  0
 16  6  1  0
 14 10  1  0
  1 18  1  0
  1 19  1  0
  1 20  1  0
  4 21  1  0
  7 22  1  0
  8 23  1  0
 11 24  1  0
 11 25  1  0
 12 26  1  0
 12 27  1  0
 13 28  1  0
 13 29  1  0
 14 30  1  0
 14 31  1  0
 15 32  1  0
M  CHG  1  15   1
M  END
>  <UniqueID>  (18) 
17

>  <SMILES>  (18) 
Cc1ncc(-c2ccc(N3CCCC3)[nH+]n2)o1

>  <Energy>  (18) 
62.60781696206187

>  <Genealogy>  (18) 
Cc1ncc(-c2ccc(N3CCCC3)[nH+]n2)o1 (protonated)
Cc1ncc(-c2ccc(N3CCCC3)[nH+]n2)o1 (3D coordinates assigned)
Cc1ncc(-c2ccc(N3CCCC3)[nH+]n2)o1 (nonaromatic ring conformer: 62.60781696206187 kcal/mol)

>  <smiles>  (18) 
Cc1ncc(-c2ccc(N3CCCC3)nn2)o1

>  <score_type>  (18) 
oracle

>  <origin>  (18) 
adg

>  <m_score__min__energy>  (18) 
-5.7999999999999998

>  <m_primary>  (18) 
energy

$$$$
18:0
     RDKit          3D

 34 36  0  0  0  0  0  0  0  0999 V2000
   -5.9440   16.8730  -32.6110 C   0  0  0  0  0  0  0  0  0  0  0  0
   -6.4760   17.8700  -33.6460 C   0  0  0  0  0  0  0  0  0  0  0  0
   -5.7090   17.8020  -34.9710 C   0  0  0  0  0  0  0  0  0  0  0  0
   -6.5080   19.2400  -33.1110 N   0  0  0  0  0  0  0  0  0  0  0  0
   -5.4130   19.9780  -32.9550 N   0  0  0  0  0  0  0  0  0  0  0  0
   -5.7450   21.1840  -32.4470 C   0  0  0  0  0  0  0  0  0  0  0  0
   -4.7730   22.2570  -32.1730 C   0  0  0  0  0  0  0  0  0  0  0  0
   -3.7070   22.2950  -32.8440 O   0  0  0  0  0  0  0  0  0  0  0  0
   -4.9910   23.2540  -31.1090 C   0  0  0  0  0  0  0  0  0  0  0  0
   -4.5260   23.1550  -29.8030 C   0  0  0  0  0  0  0  0  0  0  0  0
   -4.9360   24.2170  -28.9860 C   0  0  0  0  0  0  0  0  0  0  0  0
   -5.7370   25.1450  -29.6370 C   0  0  0  0  0  0  0  0  0  0  0  0
   -5.9350   24.6440  -31.2290 S   0  0  0  0  0  0  0  0  0  0  0  0
   -7.1200   21.2210  -32.2970 C   0  0  0  0  0  0  0  0  0  0  0  0
   -7.9940   22.2350  -31.9040 C   0  0  0  0  0  0  0  0  0  0  0  0
   -9.3680   21.9480  -31.8980 C   0  0  0  0  0  0  0  0  0  0  0  0
   -9.8360   20.6770  -32.2970 C   0  0  0  0  0  0  0  0  0  0  0  0
   -8.9350   19.6830  -32.7190 C   0  0  0  0  0  0  0  0  0  0  0  0
   -7.5670   19.9890  -32.7130 C   0  0  0  0  0  0  0  0  0  0  0  0
   -6.1465   17.2524  -31.5986 H   0  0  0  0  0  0  0  0  0  0  0  0
   -6.4442   15.9026  -32.7457 H   0  0  0  0  0  0  0  0  0  0  0  0
   -4.8594   16.7483  -32.7457 H   0  0  0  0  0  0  0  0  0  0  0  0
   -7.5124   17.5735  -33.8649 H   0  0  0  0  0  0  0  0  0  0  0  0
   -4.6323   17.7065  -34.7669 H   0  0  0  0  0  0  0  0  0  0  0  0
   -6.0514   16.9307  -35.5486 H   0  0  0  0  0  0  0  0  0  0  0  0
   -5.8928   18.7200  -35.5486 H   0  0  0  0  0  0  0  0  0  0  0  0
   -4.4440   19.6610  -33.1890 H   0  0  0  0  0  0  0  0  0  0  0  0
   -3.8983   22.3252  -29.4461 H   0  0  0  0  0  0  0  0  0  0  0  0
   -4.6498   24.3069  -27.9277 H   0  0  0  0  0  0  0  0  0  0  0  0
   -6.1680   26.0521  -29.1882 H   0  0  0  0  0  0  0  0  0  0  0  0
   -7.6189   23.2261  -31.6088 H   0  0  0  0  0  0  0  0  0  0  0  0
  -10.0854   22.7189  -31.5801 H   0  0  0  0  0  0  0  0  0  0  0  0
  -10.9147   20.4624  -32.2776 H   0  0  0  0  0  0  0  0  0  0  0  0
   -9.2930   18.6950  -33.0441 H   0  0  0  0  0  0  0  0  0  0  0  0
  1  2  1  0
  2  3  1  0
  2  4  1  0
  4  5  1  0
  5  6  2  0
  6  7  1  0
  7  8  2  0
  7  9  1  0
  9 10  2  0
 10 11  1  0
 11 12  2  0
 12 13  1  0
  6 14  1  0
 14 15  2  0
 15 16  1  0
 16 17  2  0
 17 18  1  0
 18 19  2  0
 19  4  1  0
 13  9  1  0
 19 14  1  0
  1 20  1  0
  1 21  1  0
  1 22  1  0
  2 23  1  0
  3 24  1  0
  3 25  1  0
  3 26  1  0
  5 27  1  0
 10 28  1  0
 11 29  1  0
 12 30  1  0
 15 31  1  0
 16 32  1  0
 17 33  1  0
 18 34  1  0
M  CHG  1   5   1
M  END
>  <UniqueID>  (19) 
18

>  <SMILES>  (19) 
CC(C)n1[nH+]c(C(=O)c2cccs2)c2ccccc21

>  <Energy>  (19) 
103.40045717288858

>  <Genealogy>  (19) 
CC(C)n1[nH+]c(C(=O)c2cccs2)c2ccccc21 (protonated)
CC(C)n1[nH+]c(C(=O)c2cccs2)c2ccccc21 (3D coordinates assigned)
CC(C)n1[nH+]c(C(=O)c2cccs2)c2ccccc21 (optimized conformer: 103.40045717288858 kcal/mol)

>  <smiles>  (19) 
CC(C)n1nc(C(=O)c2cccs2)c2ccccc21

>  <score_type>  (19) 
oracle

>  <origin>  (19) 
adg

>  <m_score__min__energy>  (19) 
-7.2000000000000002

>  <m_primary>  (19) 
energy

$$$$
19:0
     RDKit          3D

 43 44  0  0  0  0  0  0  0  0999 V2000
   -2.5900   24.6030  -28.9420 C   0  0  0  0  0  0  0  0  0  0  0  0
   -3.3890   24.9360  -30.0740 O   0  0  0  0  0  0  0  0  0  0  0  0
   -4.2810   24.0550  -30.7070 C   0  0  0  0  0  0  0  0  0  0  0  0
   -3.8360   22.9420  -31.4460 C   0  0  0  0  0  0  0  0  0  0  0  0
   -4.7580   22.0790  -32.0710 C   0  0  0  0  0  0  0  0  0  0  0  0
   -4.3410   20.9610  -32.8140 O   0  0  0  0  0  0  0  0  0  0  0  0
   -3.0220   20.7650  -33.3120 C   0  0  0  0  0  0  0  0  0  0  0  0
   -6.1350   22.3420  -31.9640 C   0  0  0  0  0  0  0  0  0  0  0  0
   -7.0830   21.4460  -32.5720 N   0  0  0  0  0  0  0  0  0  0  0  0
   -8.3690   21.1470  -32.0080 C   0  0  0  0  0  0  0  0  0  0  0  0
   -8.8740   21.8990  -31.1310 O   0  0  0  0  0  0  0  0  0  0  0  0
   -9.1100   19.9170  -32.4430 C   0  0  0  0  0  0  0  0  0  0  0  0
   -8.2410   18.6680  -32.2630 C   0  0  0  0  0  0  0  0  0  0  0  0
   -6.8240   18.9710  -32.5760 N   0  0  0  0  0  0  0  0  0  0  0  0
   -6.4840   18.6980  -33.9930 C   0  0  0  0  0  0  0  0  0  0  0  0
   -5.9300   17.2740  -34.2020 C   0  0  0  0  0  0  0  0  0  0  0  0
   -6.4040   16.4030  -33.1980 O   0  0  0  0  0  0  0  0  0  0  0  0
   -5.8470   16.7580  -31.9440 C   0  0  0  0  0  0  0  0  0  0  0  0
   -5.8900   18.2790  -31.6670 C   0  0  0  0  0  0  0  0  0  0  0  0
   -6.5740   23.4420  -31.2090 C   0  0  0  0  0  0  0  0  0  0  0  0
   -5.6560   24.2940  -30.5920 C   0  0  0  0  0  0  0  0  0  0  0  0
   -6.2480   25.6610  -29.6590 Cl  0  0  0  0  0  0  0  0  0  0  0  0
   -3.1448   24.8342  -28.0208 H   0  0  0  0  0  0  0  0  0  0  0  0
   -2.3497   23.5298  -28.9657 H   0  0  0  0  0  0  0  0  0  0  0  0
   -1.6587   25.1879  -28.9657 H   0  0  0  0  0  0  0  0  0  0  0  0
   -2.7577   22.7443  -31.5363 H   0  0  0  0  0  0  0  0  0  0  0  0
   -2.3233   20.6612  -32.4687 H   0  0  0  0  0  0  0  0  0  0  0  0
   -2.9937   19.8528  -33.9261 H   0  0  0  0  0  0  0  0  0  0  0  0
   -2.7297   21.6296  -33.9261 H   0  0  0  0  0  0  0  0  0  0  0  0
   -6.8310   20.9990  -33.4820 H   0  0  0  0  0  0  0  0  0  0  0  0
  -10.0223   19.8122  -31.8375 H   0  0  0  0  0  0  0  0  0  0  0  0
   -9.3675   20.0178  -33.5077 H   0  0  0  0  0  0  0  0  0  0  0  0
   -8.3156   18.3223  -31.2214 H   0  0  0  0  0  0  0  0  0  0  0  0
   -8.5971   17.8854  -32.9491 H   0  0  0  0  0  0  0  0  0  0  0  0
   -7.3916   18.8168  -34.6030 H   0  0  0  0  0  0  0  0  0  0  0  0
   -5.7004   19.4095  -34.2925 H   0  0  0  0  0  0  0  0  0  0  0  0
   -6.2528   16.9015  -35.1854 H   0  0  0  0  0  0  0  0  0  0  0  0
   -4.8318   17.3101  -34.1498 H   0  0  0  0  0  0  0  0  0  0  0  0
   -6.4107   16.2424  -31.1525 H   0  0  0  0  0  0  0  0  0  0  0  0
   -4.7887   16.4583  -31.9597 H   0  0  0  0  0  0  0  0  0  0  0  0
   -6.2145   18.4437  -30.6289 H   0  0  0  0  0  0  0  0  0  0  0  0
   -4.8823   18.6874  -31.8334 H   0  0  0  0  0  0  0  0  0  0  0  0
   -7.6519   23.6342  -31.1028 H   0  0  0  0  0  0  0  0  0  0  0  0
  1  2  1  0
  2  3  1  0
  3  4  2  0
  4  5  1  0
  5  6  1  0
  6  7  1  0
  5  8  2  0
  8  9  1  0
  9 10  1  0
 10 11  2  0
 10 12  1  0
 12 13  1  0
 13 14  1  0
 14 15  1  0
 15 16  1  0
 16 17  1  0
 17 18  1  0
 18 19  1  0
  8 20  1  0
 20 21  2  0
 21 22  1  0
 21  3  1  0
 19 14  1  0
  1 23  1  0
  1 24  1  0
  1 25  1  0
  4 26  1  0
  7 27  1  0
  7 28  1  0
  7 29  1  0
  9 30  1  0
 12 31  1  0
 12 32  1  0
 13 33  1  0
 13 34  1  0
 15 35  1  0
 15 36  1  0
 16 37  1  0
 16 38  1  0
 18 39  1  0
 18 40  1  0
 19 41  1  0
 19 42  1  0
 20 43  1  0
M  END
>  <UniqueID>  (20) 
19

>  <SMILES>  (20) 
COc1cc(OC)c(NC(=O)CCN2CCOCC2)cc1Cl

>  <Energy>  (20) 
53.358910127140355

>  <Genealogy>  (20) 
COc1cc(OC)c(NC(=O)CCN2CCOCC2)cc1Cl (3D coordinates assigned)
COc1cc(OC)c(NC(=O)CCN2CCOCC2)cc1Cl (nonaromatic ring conformer: 53.358910127140355 kcal/mol)

>  <smiles>  (20) 
COc1cc(OC)c(NC(=O)CCN2CCOCC2)cc1Cl

>  <score_type>  (20) 
oracle

>  <origin>  (20) 
adg

>  <m_score__min__energy>  (20) 
-7.2400000000000002

>  <m_primary>  (20) 
energy

$$$$
20:0
     RDKit          3D

 49 52  0  0  0  0  0  0  0  0999 V2000
    2.1790   27.3230  -25.0870 O   0  0  0  0  0  0  0  0  0  0  0  0
    1.1130   26.8450  -24.7300 C   0  0  0  0  0  0  0  0  0  0  0  0
    0.4180   27.3040  -23.5070 C   0  0  0  0  0  0  0  0  0  0  0  0
   -0.8400   26.4550  -23.5060 C   0  0  0  0  0  0  0  0  0  0  0  0
   -0.9450   25.8810  -24.9230 C   0  0  0  0  0  0  0  0  0  0  0  0
    0.4090   25.8670  -25.5100 N   0  0  2  0  0  0  0  0  0  0  0  0
    1.0350   24.5300  -25.3870 C   0  0  0  0  0  0  0  0  0  0  0  0
    1.4850   23.9670  -26.7460 C   0  0  0  0  0  0  0  0  0  0  0  0
    0.7050   24.5290  -27.8020 O   0  0  0  0  0  0  0  0  0  0  0  0
   -0.6240   24.1870  -28.1030 C   0  0  0  0  0  0  0  0  0  0  0  0
   -1.1700   23.0590  -27.4800 C   0  0  0  0  0  0  0  0  0  0  0  0
   -2.4870   22.6650  -27.7390 C   0  0  0  0  0  0  0  0  0  0  0  0
   -3.2750   23.4060  -28.6280 C   0  0  0  0  0  0  0  0  0  0  0  0
   -4.5940   23.0440  -28.9120 C   0  0  0  0  0  0  0  0  0  0  0  0
   -5.3510   23.8160  -29.8040 C   0  0  0  0  0  0  0  0  0  0  0  0
   -6.7610   23.4050  -30.1460 C   0  0  0  0  0  0  0  0  0  0  0  0
   -6.7510   22.3090  -31.1780 C   0  0  0  0  0  0  0  0  0  0  0  0
   -5.5730   22.0050  -31.8800 C   0  0  0  0  0  0  0  0  0  0  0  0
   -5.5580   20.9640  -32.8140 C   0  0  0  0  0  0  0  0  0  0  0  0
   -6.7160   20.2150  -33.0480 C   0  0  0  0  0  0  0  0  0  0  0  0
   -7.8890   20.5070  -32.3460 C   0  0  0  0  0  0  0  0  0  0  0  0
   -7.9080   21.5460  -31.4110 C   0  0  0  0  0  0  0  0  0  0  0  0
   -4.7390   24.9360  -30.4010 C   0  0  0  0  0  0  0  0  0  0  0  0
   -5.3740   25.6520  -31.2200 O   0  0  0  0  0  0  0  0  0  0  0  0
   -3.4810   25.2540  -30.1060 O   0  0  0  0  0  0  0  0  0  0  0  0
   -2.7390   24.5470  -29.2590 C   0  0  0  0  0  0  0  0  0  0  0  0
   -1.4200   24.9350  -28.9950 C   0  0  0  0  0  0  0  0  0  0  0  0
    1.0258   27.1152  -22.6098 H   0  0  0  0  0  0  0  0  0  0  0  0
    0.2172   28.3855  -23.4964 H   0  0  0  0  0  0  0  0  0  0  0  0
   -0.7564   25.6440  -22.7675 H   0  0  0  0  0  0  0  0  0  0  0  0
   -1.7298   27.0426  -23.2358 H   0  0  0  0  0  0  0  0  0  0  0  0
   -1.3451   24.8571  -24.8825 H   0  0  0  0  0  0  0  0  0  0  0  0
   -1.6211   26.4956  -25.5355 H   0  0  0  0  0  0  0  0  0  0  0  0
    0.3620   26.1680  -26.5120 H   0  0  0  0  0  0  0  0  0  0  0  0
    1.9131   24.6100  -24.7293 H   0  0  0  0  0  0  0  0  0  0  0  0
    0.2823   23.8437  -24.9718 H   0  0  0  0  0  0  0  0  0  0  0  0
    2.5447   24.2140  -26.9074 H   0  0  0  0  0  0  0  0  0  0  0  0
    1.3468   22.8757  -26.7429 H   0  0  0  0  0  0  0  0  0  0  0  0
   -0.5562   22.4752  -26.7783 H   0  0  0  0  0  0  0  0  0  0  0  0
   -2.9029   21.7745  -27.2450 H   0  0  0  0  0  0  0  0  0  0  0  0
   -5.0370   22.1561  -28.4372 H   0  0  0  0  0  0  0  0  0  0  0  0
   -7.2638   23.0428  -29.2371 H   0  0  0  0  0  0  0  0  0  0  0  0
   -7.2979   24.2744  -30.5532 H   0  0  0  0  0  0  0  0  0  0  0  0
   -4.6588   22.5879  -31.6945 H   0  0  0  0  0  0  0  0  0  0  0  0
   -4.6343   20.7340  -33.3653 H   0  0  0  0  0  0  0  0  0  0  0  0
   -6.7036   19.3972  -33.7836 H   0  0  0  0  0  0  0  0  0  0  0  0
   -8.7994   19.9177  -32.5298 H   0  0  0  0  0  0  0  0  0  0  0  0
   -8.8315   21.7671  -30.8558 H   0  0  0  0  0  0  0  0  0  0  0  0
   -1.0028   25.8269  -29.4853 H   0  0  0  0  0  0  0  0  0  0  0  0
  1  2  2  0
  2  3  1  0
  3  4  1  0
  4  5  1  0
  5  6  1  0
  6  7  1  0
  7  8  1  0
  8  9  1  0
  9 10  1  0
 10 11  2  0
 11 12  1  0
 12 13  2  0
 13 14  1  0
 14 15  2  0
 15 16  1  0
 16 17  1  0
 17 18  2  0
 18 19  1  0
 19 20  2  0
 20 21  1  0
 21 22  2  0
 15 23  1  0
 23 24  2  0
 23 25  1  0
 25 26  1  0
 26 27  2  0
  6  2  1  0
 27 10  1  0
 26 13  1  0
 22 17  1  0
  3 28  1  0
  3 29  1  0
  4 30  1  0
  4 31  1  0
  5 32  1  0
  5 33  1  0
  6 34  1  6
  7 35  1  0
  7 36  1  0
  8 37  1  0
  8 38  1  0
 11 39  1  0
 12 40  1  0
 14 41  1  0
 16 42  1  0
 16 43  1  0
 18 44  1  0
 19 45  1  0
 20 46  1  0
 21 47  1  0
 22 48  1  0
 27 49  1  0
M  CHG  1   6   1
M  END
>  <UniqueID>  (21) 
20

>  <SMILES>  (21) 
O=C1CCC[N@@H+]1CCOc1ccc2cc(Cc3ccccc3)c(=O)oc2c1

>  <Energy>  (21) 
58.30444459540234

>  <Genealogy>  (21) 
O=C1CCC[NH+]1CCOc1ccc2cc(Cc3ccccc3)c(=O)oc2c1 (protonated)
O=C1CCC[N@@H+]1CCOc1ccc2cc(Cc3ccccc3)c(=O)oc2c1 (chirality)
O=C1CCC[N@@H+]1CCOc1ccc2cc(Cc3ccccc3)c(=O)oc2c1 (3D coordinates assigned)
O=C1CCC[N@@H+]1CCOc1ccc2cc(Cc3ccccc3)c(=O)oc2c1 (nonaromatic ring conformer: 58.30444459540234 kcal/mol)

>  <smiles>  (21) 
O=C1CCCN1CCOc1ccc2cc(Cc3ccccc3)c(=O)oc2c1

>  <score_type>  (21) 
oracle

>  <origin>  (21) 
adg

>  <m_score__min__energy>  (21) 
-9.8399999999999999

>  <m_primary>  (21) 
energy

$$$$
21:0
     RDKit          3D

 47 50  0  0  0  0  0  0  0  0999 V2000
   -2.2340   23.6610  -29.7200 C   0  0  0  0  0  0  0  0  0  0  0  0
   -3.1150   24.5000  -30.4600 O   0  0  0  0  0  0  0  0  0  0  0  0
   -4.5090   24.3420  -30.5060 C   0  0  0  0  0  0  0  0  0  0  0  0
   -5.3130   25.4080  -30.0880 C   0  0  0  0  0  0  0  0  0  0  0  0
   -6.7050   25.2960  -30.1080 C   0  0  0  0  0  0  0  0  0  0  0  0
   -7.3070   24.1180  -30.5550 C   0  0  0  0  0  0  0  0  0  0  0  0
   -6.5180   23.0450  -30.9950 C   0  0  0  0  0  0  0  0  0  0  0  0
   -7.1290   21.8240  -31.4420 N   0  0  0  0  0  0  0  0  0  0  0  0
   -8.3350   21.4190  -31.0690 N   0  0  0  0  0  0  0  0  0  0  0  0
   -8.5780   20.2030  -31.6000 C   0  0  0  0  0  0  0  0  0  0  0  0
   -7.4630   19.8270  -32.3220 C   0  0  0  0  0  0  0  0  0  0  0  0
   -6.5840   20.8700  -32.2280 C   0  0  0  0  0  0  0  0  0  0  0  0
   -5.1680   20.7580  -32.6980 C   0  0  0  0  0  0  0  0  0  0  0  0
   -5.0590   19.6040  -33.7150 C   0  0  0  0  0  0  0  0  0  0  0  0
   -5.6970   18.3600  -33.1930 N   0  0  0  0  0  0  0  0  0  0  0  0
   -5.3480   17.1980  -34.0650 C   0  0  2  0  0  0  0  0  0  0  0  0
   -5.3800   15.8370  -33.3210 C   0  0  0  0  0  0  0  0  0  0  0  0
   -4.9370   14.6890  -34.2410 C   0  0  0  0  0  0  0  0  0  0  0  0
   -3.8690   15.1480  -35.2420 C   0  0  0  0  0  0  0  0  0  0  0  0
   -3.1290   16.2240  -34.7080 O   0  0  0  0  0  0  0  0  0  0  0  0
   -3.9260   17.3990  -34.6840 C   0  0  0  0  0  0  0  0  0  0  0  0
   -7.1680   18.5550  -33.0520 C   0  0  0  0  0  0  0  0  0  0  0  0
   -5.1200   23.1550  -30.9560 C   0  0  0  0  0  0  0  0  0  0  0  0
   -2.3974   23.8166  -28.6434 H   0  0  0  0  0  0  0  0  0  0  0  0
   -2.4314   22.6087  -29.9725 H   0  0  0  0  0  0  0  0  0  0  0  0
   -1.1926   23.9095  -29.9725 H   0  0  0  0  0  0  0  0  0  0  0  0
   -4.8453   26.3412  -29.7410 H   0  0  0  0  0  0  0  0  0  0  0  0
   -7.3283   26.1374  -29.7710 H   0  0  0  0  0  0  0  0  0  0  0  0
   -8.4035   24.0312  -30.5621 H   0  0  0  0  0  0  0  0  0  0  0  0
   -8.9830   21.9560  -30.4500 H   0  0  0  0  0  0  0  0  0  0  0  0
   -9.5002   19.6157  -31.4792 H   0  0  0  0  0  0  0  0  0  0  0  0
   -4.8642   21.7003  -33.1774 H   0  0  0  0  0  0  0  0  0  0  0  0
   -4.5095   20.5569  -31.8401 H   0  0  0  0  0  0  0  0  0  0  0  0
   -5.5609   19.8999  -34.6480 H   0  0  0  0  0  0  0  0  0  0  0  0
   -3.9934   19.3988  -33.8949 H   0  0  0  0  0  0  0  0  0  0  0  0
   -6.1182   17.1639  -34.8496 H   0  0  0  0  0  0  0  0  0  0  0  0
   -4.7022   15.8852  -32.4559 H   0  0  0  0  0  0  0  0  0  0  0  0
   -6.4125   15.6429  -32.9951 H   0  0  0  0  0  0  0  0  0  0  0  0
   -4.5234   13.8770  -33.6249 H   0  0  0  0  0  0  0  0  0  0  0  0
   -5.8143   14.3440  -34.8078 H   0  0  0  0  0  0  0  0  0  0  0  0
   -3.1888   14.3106  -35.4566 H   0  0  0  0  0  0  0  0  0  0  0  0
   -4.3636   15.4777  -36.1675 H   0  0  0  0  0  0  0  0  0  0  0  0
   -3.3976   18.1619  -34.0934 H   0  0  0  0  0  0  0  0  0  0  0  0
   -4.0773   17.6991  -35.7314 H   0  0  0  0  0  0  0  0  0  0  0  0
   -7.6245   18.5978  -34.0519 H   0  0  0  0  0  0  0  0  0  0  0  0
   -7.5841   17.7129  -32.4795 H   0  0  0  0  0  0  0  0  0  0  0  0
   -4.4964   22.3084  -31.2791 H   0  0  0  0  0  0  0  0  0  0  0  0
  1  2  1  0
  2  3  1  0
  3  4  2  0
  4  5  1  0
  5  6  2  0
  6  7  1  0
  7  8  1  0
  8  9  1  0
  9 10  2  0
 10 11  1  0
 11 12  2  0
 12 13  1  0
 13 14  1  0
 14 15  1  0
 15 16  1  0
 16 17  1  0
 17 18  1  0
 18 19  1  0
 19 20  1  0
 20 21  1  0
 15 22  1  0
  7 23  2  0
 23  3  1  0
 12  8  1  0
 21 16  1  0
 22 11  1  0
  1 24  1  0
  1 25  1  0
  1 26  1  0
  4 27  1  0
  5 28  1  0
  6 29  1  0
  9 30  1  0
 10 31  1  0
 13 32  1  0
 13 33  1  0
 14 34  1  0
 14 35  1  0
 16 36  1  6
 17 37  1  0
 17 38  1  0
 18 39  1  0
 18 40  1  0
 19 41  1  0
 19 42  1  0
 21 43  1  0
 21 44  1  0
 22 45  1  0
 22 46  1  0
 23 47  1  0
M  CHG  1   9   1
M  END
>  <UniqueID>  (22) 
21

>  <SMILES>  (22) 
COc1cccc(-n2[nH+]cc3c2CCN([C@@H]2CCCOC2)C3)c1

>  <Energy>  (22) 
102.63537593561739

>  <Genealogy>  (22) 
COc1cccc(-n2[nH+]cc3c2CCN(C2CCCOC2)C3)c1 (protonated)
COc1cccc(-n2[nH+]cc3c2CCN([C@@H]2CCCOC2)C3)c1 (chirality)
COc1cccc(-n2[nH+]cc3c2CCN([C@@H]2CCCOC2)C3)c1 (3D coordinates assigned)
COc1cccc(-n2[nH+]cc3c2CCN([C@@H]2CCCOC2)C3)c1 (nonaromatic ring conformer: 102.63537593561739 kcal/mol)

>  <smiles>  (22) 
COc1cccc(-n2ncc3c2CCN(C2CCCOC2)C3)c1

>  <score_type>  (22) 
oracle

>  <origin>  (22) 
adg

>  <m_score__min__energy>  (22) 
-7.5800000000000001

>  <m_primary>  (22) 
energy

$$$$
22:0
     RDKit          3D

 42 42  0  0  0  0  0  0  0  0999 V2000
   -6.0080   24.8260  -31.1660 C   0  0  0  0  0  0  0  0  0  0  0  0
   -4.9100   24.1090  -30.4320 C   0  0  0  0  0  0  0  0  0  0  0  0
   -4.5080   24.5530  -29.1610 C   0  0  0  0  0  0  0  0  0  0  0  0
   -3.4850   23.8960  -28.4720 C   0  0  0  0  0  0  0  0  0  0  0  0
   -2.9920   24.4580  -26.8860 Cl  0  0  0  0  0  0  0  0  0  0  0  0
   -2.8570   22.7910  -29.0490 C   0  0  0  0  0  0  0  0  0  0  0  0
   -3.2460   22.3400  -30.3120 C   0  0  0  0  0  0  0  0  0  0  0  0
   -4.2730   22.9980  -31.0200 C   0  0  0  0  0  0  0  0  0  0  0  0
   -4.6920   22.5780  -32.2950 O   0  0  0  0  0  0  0  0  0  0  0  0
   -4.1020   21.5300  -33.0640 C   0  0  0  0  0  0  0  0  0  0  0  0
   -4.9740   20.2640  -33.0070 C   0  0  0  0  0  0  0  0  0  0  0  0
   -6.3530   20.5390  -32.5610 N   0  0  0  0  0  0  0  0  0  0  0  0
   -7.3790   19.6280  -33.1060 C   0  0  0  0  0  0  0  0  0  0  0  0
   -8.7860   19.7950  -32.4920 C   0  0  0  0  0  0  0  0  0  0  0  0
   -8.8870   20.6840  -31.2250 C   0  0  0  0  0  0  0  0  0  0  0  0
   -8.0380   21.9000  -31.1960 N   0  0  0  0  0  0  0  0  0  0  0  0
   -7.6050   22.3020  -29.8500 C   0  0  0  0  0  0  0  0  0  0  0  0
   -8.5590   23.0360  -31.9700 C   0  0  0  0  0  0  0  0  0  0  0  0
   -6.7000   25.2779  -30.4401 H   0  0  0  0  0  0  0  0  0  0  0  0
   -5.5728   25.6145  -31.7976 H   0  0  0  0  0  0  0  0  0  0  0  0
   -6.5549   24.1105  -31.7976 H   0  0  0  0  0  0  0  0  0  0  0  0
   -5.0019   25.4238  -28.7051 H   0  0  0  0  0  0  0  0  0  0  0  0
   -2.0522   22.2733  -28.5065 H   0  0  0  0  0  0  0  0  0  0  0  0
   -2.7483   21.4660  -30.7575 H   0  0  0  0  0  0  0  0  0  0  0  0
   -4.0072   21.8576  -34.1098 H   0  0  0  0  0  0  0  0  0  0  0  0
   -3.1104   21.2982  -32.6481 H   0  0  0  0  0  0  0  0  0  0  0  0
   -5.0120   19.8179  -34.0118 H   0  0  0  0  0  0  0  0  0  0  0  0
   -4.5190   19.5813  -32.2743 H   0  0  0  0  0  0  0  0  0  0  0  0
   -6.3850   20.4780  -31.5160 H   0  0  0  0  0  0  0  0  0  0  0  0
   -6.5930   21.5260  -32.8060 H   0  0  0  0  0  0  0  0  0  0  0  0
   -7.4548   19.8067  -34.1887 H   0  0  0  0  0  0  0  0  0  0  0  0
   -7.0514   18.6081  -32.8561 H   0  0  0  0  0  0  0  0  0  0  0  0
   -9.4366   20.2353  -33.2620 H   0  0  0  0  0  0  0  0  0  0  0  0
   -9.0825   18.7874  -32.1651 H   0  0  0  0  0  0  0  0  0  0  0  0
   -9.9342   21.0060  -31.1261 H   0  0  0  0  0  0  0  0  0  0  0  0
   -8.5203   20.0552  -30.4002 H   0  0  0  0  0  0  0  0  0  0  0  0
   -8.1929   21.7562  -29.0974 H   0  0  0  0  0  0  0  0  0  0  0  0
   -6.5379   22.0671  -29.7227 H   0  0  0  0  0  0  0  0  0  0  0  0
   -7.7601   23.3835  -29.7227 H   0  0  0  0  0  0  0  0  0  0  0  0
   -8.9166   23.8157  -31.2814 H   0  0  0  0  0  0  0  0  0  0  0  0
   -7.7588   23.4456  -32.6039 H   0  0  0  0  0  0  0  0  0  0  0  0
   -9.3915   22.6968  -32.6039 H   0  0  0  0  0  0  0  0  0  0  0  0
  1  2  1  0
  2  3  2  0
  3  4  1  0
  4  5  1  0
  4  6  2  0
  6  7  1  0
  7  8  2  0
  8  9  1  0
  9 10  1  0
 10 11  1  0
 11 12  1  0
 12 13  1  0
 13 14  1  0
 14 15  1  0
 15 16  1  0
 16 17  1  0
 16 18  1  0
  8  2  1  0
  1 19  1  0
  1 20  1  0
  1 21  1  0
  3 22  1  0
  6 23  1  0
  7 24  1  0
 10 25  1  0
 10 26  1  0
 11 27  1  0
 11 28  1  0
 12 29  1  0
 12 30  1  0
 13 31  1  0
 13 32  1  0
 14 33  1  0
 14 34  1  0
 15 35  1  0
 15 36  1  0
 17 37  1  0
 17 38  1  0
 17 39  1  0
 18 40  1  0
 18 41  1  0
 18 42  1  0
M  CHG  1  12   1
M  END
>  <UniqueID>  (23) 
22

>  <SMILES>  (23) 
Cc1cc(Cl)ccc1OCC[NH2+]CCCN(C)C

>  <Energy>  (23) 
44.89909480241164

>  <Genealogy>  (23) 
Cc1cc(Cl)ccc1OCC[NH2+]CCCN(C)C (protonated)
Cc1cc(Cl)ccc1OCC[NH2+]CCCN(C)C (3D coordinates assigned)
Cc1cc(Cl)ccc1OCC[NH2+]CCCN(C)C (optimized conformer: 44.89909480241164 kcal/mol)

>  <smiles>  (23) 
Cc1cc(Cl)ccc1OCCNCCCN(C)C

>  <score_type>  (23) 
oracle

>  <origin>  (23) 
adg

>  <m_score__min__energy>  (23) 
-5.4900000000000002

>  <m_primary>  (23) 
energy

$$$$
23:0
     RDKit          3D

 58 61  0  0  0  0  0  0  0  0999 V2000
   -1.1870   19.3790  -28.1640 C   0  0  0  0  0  0  0  0  0  0  0  0
   -1.6760   20.0910  -29.2950 O   0  0  0  0  0  0  0  0  0  0  0  0
   -2.5590   21.1800  -29.2320 C   0  0  0  0  0  0  0  0  0  0  0  0
   -3.1410   21.6010  -28.0200 C   0  0  0  0  0  0  0  0  0  0  0  0
   -4.0390   22.6710  -28.0020 C   0  0  0  0  0  0  0  0  0  0  0  0
   -4.3660   23.3310  -29.1860 C   0  0  0  0  0  0  0  0  0  0  0  0
   -3.7940   22.9240  -30.3940 C   0  0  0  0  0  0  0  0  0  0  0  0
   -2.8820   21.8570  -30.4220 C   0  0  0  0  0  0  0  0  0  0  0  0
   -2.3010   21.4480  -31.6700 N   0  0  0  0  0  0  0  0  0  0  0  0
   -3.0340   21.6480  -32.9190 C   0  0  0  0  0  0  0  0  0  0  0  0
   -2.8320   20.4560  -33.8810 C   0  0  0  0  0  0  0  0  0  0  0  0
   -1.5790   19.6780  -33.6470 N   0  0  0  0  0  0  0  0  0  0  0  0
   -1.8130   18.4690  -32.7980 C   0  0  0  0  0  0  0  0  0  0  0  0
   -2.5250   17.3050  -33.5370 C   0  0  2  0  0  0  0  0  0  0  0  0
   -2.4410   17.4710  -34.9290 O   0  0  0  0  0  0  0  0  0  0  0  0
   -3.9890   17.1010  -33.1040 C   0  0  0  0  0  0  0  0  0  0  0  0
   -4.8920   17.9270  -33.8390 O   0  0  0  0  0  0  0  0  0  0  0  0
   -6.0030   18.6130  -33.3230 C   0  0  0  0  0  0  0  0  0  0  0  0
   -7.2170   17.9750  -33.0050 C   0  0  0  0  0  0  0  0  0  0  0  0
   -8.2910   18.7100  -32.4950 C   0  0  0  0  0  0  0  0  0  0  0  0
   -8.1670   20.0920  -32.2900 C   0  0  0  0  0  0  0  0  0  0  0  0
   -9.2400   20.8400  -31.7790 C   0  0  0  0  0  0  0  0  0  0  0  0
   -9.1030   22.2170  -31.5810 C   0  0  0  0  0  0  0  0  0  0  0  0
   -7.8980   22.8550  -31.8890 C   0  0  0  0  0  0  0  0  0  0  0  0
   -6.8230   22.1210  -32.3970 C   0  0  0  0  0  0  0  0  0  0  0  0
   -6.9480   20.7380  -32.6020 C   0  0  0  0  0  0  0  0  0  0  0  0
   -5.8780   19.9920  -33.1140 C   0  0  0  0  0  0  0  0  0  0  0  0
   -0.5030   20.5360  -33.0980 C   0  0  0  0  0  0  0  0  0  0  0  0
   -0.8770   21.1090  -31.7210 C   0  0  0  0  0  0  0  0  0  0  0  0
   -1.5276   19.8750  -27.2431 H   0  0  0  0  0  0  0  0  0  0  0  0
   -1.5680   18.3474  -28.1873 H   0  0  0  0  0  0  0  0  0  0  0  0
   -0.0873   19.3643  -28.1873 H   0  0  0  0  0  0  0  0  0  0  0  0
   -2.8869   21.0843  -27.0827 H   0  0  0  0  0  0  0  0  0  0  0  0
   -4.4892   22.9936  -27.0516 H   0  0  0  0  0  0  0  0  0  0  0  0
   -5.0745   24.1723  -29.1689 H   0  0  0  0  0  0  0  0  0  0  0  0
   -4.0594   23.4420  -31.3274 H   0  0  0  0  0  0  0  0  0  0  0  0
   -4.1059   21.7500  -32.6938 H   0  0  0  0  0  0  0  0  0  0  0  0
   -2.6522   22.5576  -33.4057 H   0  0  0  0  0  0  0  0  0  0  0  0
   -3.6869   19.7733  -33.7667 H   0  0  0  0  0  0  0  0  0  0  0  0
   -2.7531   20.8800  -34.8929 H   0  0  0  0  0  0  0  0  0  0  0  0
   -1.2320   19.3690  -34.5850 H   0  0  0  0  0  0  0  0  0  0  0  0
   -0.8391   18.1056  -32.4382 H   0  0  0  0  0  0  0  0  0  0  0  0
   -2.4788   18.7799  -31.9794 H   0  0  0  0  0  0  0  0  0  0  0  0
   -1.9881   16.3900  -33.2463 H   0  0  0  0  0  0  0  0  0  0  0  0
   -3.3700   17.4450  -35.2790 H   0  0  0  0  0  0  0  0  0  0  0  0
   -4.2620   16.0477  -33.2654 H   0  0  0  0  0  0  0  0  0  0  0  0
   -4.0675   17.3785  -32.0425 H   0  0  0  0  0  0  0  0  0  0  0  0
   -7.3211   16.8908  -33.1589 H   0  0  0  0  0  0  0  0  0  0  0  0
   -9.2368   18.2028  -32.2536 H   0  0  0  0  0  0  0  0  0  0  0  0
  -10.1896   20.3417  -31.5342 H   0  0  0  0  0  0  0  0  0  0  0  0
   -9.9459   22.8002  -31.1817 H   0  0  0  0  0  0  0  0  0  0  0  0
   -7.7957   23.9388  -31.7309 H   0  0  0  0  0  0  0  0  0  0  0  0
   -5.8767   22.6280  -32.6368 H   0  0  0  0  0  0  0  0  0  0  0  0
   -4.9297   20.4950  -33.3543 H   0  0  0  0  0  0  0  0  0  0  0  0
    0.4139   19.9367  -32.9973 H   0  0  0  0  0  0  0  0  0  0  0  0
   -0.3507   21.3781  -33.7891 H   0  0  0  0  0  0  0  0  0  0  0  0
   -0.6563   20.3599  -30.9463 H   0  0  0  0  0  0  0  0  0  0  0  0
   -0.2898   22.0228  -31.5472 H   0  0  0  0  0  0  0  0  0  0  0  0
  1  2  1  0
  2  3  1  0
  3  4  2  0
  4  5  1  0
  5  6  2  0
  6  7  1  0
  7  8  2  0
  8  9  1  0
  9 10  1  0
 10 11  1  0
 11 12  1  0
 12 13  1  0
 13 14  1  0
 14 15  1  0
 14 16  1  0
 16 17  1  0
 17 18  1  0
 18 19  2  0
 19 20  1  0
 20 21  2  0
 21 22  1  0
 22 23  2  0
 23 24  1  0
 24 25  2  0
 25 26  1  0
 26 27  2  0
 12 28  1  0
 28 29  1  0
  8  3  1  0
 29  9  1  0
 27 18  1  0
 26 21  1  0
  1 30  1  0
  1 31  1  0
  1 32  1  0
  4 33  1  0
  5 34  1  0
  6 35  1  0
  7 36  1  0
 10 37  1  0
 10 38  1  0
 11 39  1  0
 11 40  1  0
 12 41  1  0
 13 42  1  0
 13 43  1  0
 14 44  1  6
 15 45  1  0
 16 46  1  0
 16 47  1  0
 19 48  1  0
 20 49  1  0
 22 50  1  0
 23 51  1  0
 24 52  1  0
 25 53  1  0
 27 54  1  0
 28 55  1  0
 28 56  1  0
 29 57  1  0
 29 58  1  0
M  CHG  1  12   1
M  END
>  <UniqueID>  (24) 
23

>  <SMILES>  (24) 
COc1ccccc1N1CC[NH+](C[C@H](O)COc2ccc3ccccc3c2)CC1

>  <Energy>  (24) 
79.2743248248696

>  <Genealogy>  (24) 
COc1ccccc1N1CC[NH+](CC(O)COc2ccc3ccccc3c2)CC1 (protonated)
COc1ccccc1N1CC[NH+](C[C@H](O)COc2ccc3ccccc3c2)CC1 (chirality)
COc1ccccc1N1CC[NH+](C[C@H](O)COc2ccc3ccccc3c2)CC1 (3D coordinates assigned)
COc1ccccc1N1CC[NH+](C[C@H](O)COc2ccc3ccccc3c2)CC1 (nonaromatic ring conformer: 79.2743248248696 kcal/mol)

>  <smiles>  (24) 
COc1ccccc1N1CCN(CC(O)COc2ccc3ccccc3c2)CC1

>  <score_type>  (24) 
oracle

>  <origin>  (24) 
adg

>  <m_score__min__energy>  (24) 
-8.6899999999999995

>  <m_primary>  (24) 
energy

$$$$
24:0
     RDKit          3D

 53 57  0  0  0  0  0  0  0  0999 V2000
   -2.2290   25.6690  -25.3590 C   0  0  0  0  0  0  0  0  0  0  0  0
   -1.1340   26.1680  -24.6490 O   0  0  0  0  0  0  0  0  0  0  0  0
   -0.5320   27.3740  -24.8640 C   0  0  0  0  0  0  0  0  0  0  0  0
   -1.2420   28.3160  -25.5380 N   0  0  0  0  0  0  0  0  0  0  0  0
   -0.7320   29.5240  -25.7890 C   0  0  0  0  0  0  0  0  0  0  0  0
    0.5470   29.8440  -25.3630 C   0  0  0  0  0  0  0  0  0  0  0  0
    1.2590   28.8800  -24.6810 C   0  0  0  0  0  0  0  0  0  0  0  0
    0.7340   27.6210  -24.4160 C   0  0  0  0  0  0  0  0  0  0  0  0
    1.6010   26.6700  -23.7060 C   0  0  0  0  0  0  0  0  0  0  0  0
    1.3910   25.3120  -24.0600 N   0  0  0  0  0  0  0  0  0  0  0  0
    1.9370   24.8980  -25.2880 C   0  0  0  0  0  0  0  0  0  0  0  0
    0.8680   24.4610  -26.2660 C   0  0  0  0  0  0  0  0  0  0  0  0
    0.2610   23.2170  -26.0950 C   0  0  0  0  0  0  0  0  0  0  0  0
   -0.7160   22.7640  -26.9540 C   0  0  0  0  0  0  0  0  0  0  0  0
   -1.0810   23.5870  -27.9990 C   0  0  0  0  0  0  0  0  0  0  0  0
   -2.1030   23.1560  -28.9340 C   0  0  0  0  0  0  0  0  0  0  0  0
   -1.9770   22.9480  -30.3210 C   0  0  0  0  0  0  0  0  0  0  0  0
   -3.0450   22.5550  -30.9900 C   0  0  0  0  0  0  0  0  0  0  0  0
   -4.2340   22.3710  -30.2720 C   0  0  0  0  0  0  0  0  0  0  0  0
   -5.5460   21.9500  -30.7540 C   0  0  0  0  0  0  0  0  0  0  0  0
   -5.7540   20.9190  -31.5490 N   0  0  0  0  0  0  0  0  0  0  0  0
   -7.0900   20.7970  -31.8160 C   0  0  0  0  0  0  0  0  0  0  0  0
   -7.7970   19.8950  -32.5820 C   0  0  0  0  0  0  0  0  0  0  0  0
   -9.1520   20.0050  -32.6820 C   0  0  0  0  0  0  0  0  0  0  0  0
   -9.7690   21.0330  -31.9980 C   0  0  0  0  0  0  0  0  0  0  0  0
   -9.0570   21.9460  -31.2240 C   0  0  0  0  0  0  0  0  0  0  0  0
   -7.6660   21.8330  -31.1220 C   0  0  0  0  0  0  0  0  0  0  0  0
   -6.7230   22.5520  -30.4610 N   0  0  0  0  0  0  0  0  0  0  0  0
   -3.8010   22.7750  -28.5860 S   0  0  0  0  0  0  0  0  0  0  0  0
   -0.5080   24.8270  -28.2080 C   0  0  0  0  0  0  0  0  0  0  0  0
    0.4830   25.2610  -27.3200 C   0  0  0  0  0  0  0  0  0  0  0  0
   -2.9959   25.3195  -24.6521 H   0  0  0  0  0  0  0  0  0  0  0  0
   -2.6490   26.4646  -25.9919 H   0  0  0  0  0  0  0  0  0  0  0  0
   -1.9041   24.8300  -25.9919 H   0  0  0  0  0  0  0  0  0  0  0  0
   -1.3295   30.2681  -26.3361 H   0  0  0  0  0  0  0  0  0  0  0  0
    0.9805   30.8351  -25.5624 H   0  0  0  0  0  0  0  0  0  0  0  0
    2.2764   29.1154  -24.3352 H   0  0  0  0  0  0  0  0  0  0  0  0
    2.6475   26.9260  -23.9279 H   0  0  0  0  0  0  0  0  0  0  0  0
    1.3567   26.7584  -22.6371 H   0  0  0  0  0  0  0  0  0  0  0  0
    0.4670   24.9280  -23.8170 H   0  0  0  0  0  0  0  0  0  0  0  0
    2.4989   25.7356  -25.7271 H   0  0  0  0  0  0  0  0  0  0  0  0
    2.5929   24.0363  -25.0946 H   0  0  0  0  0  0  0  0  0  0  0  0
    0.5704   22.5812  -25.2524 H   0  0  0  0  0  0  0  0  0  0  0  0
   -1.1883   21.7808  -26.8116 H   0  0  0  0  0  0  0  0  0  0  0  0
   -1.0163   23.1084  -30.8323 H   0  0  0  0  0  0  0  0  0  0  0  0
   -3.0029   22.3779  -32.0748 H   0  0  0  0  0  0  0  0  0  0  0  0
   -7.2689   19.0882  -33.1114 H   0  0  0  0  0  0  0  0  0  0  0  0
   -9.7354   19.2968  -33.2887 H   0  0  0  0  0  0  0  0  0  0  0  0
  -10.8621   21.1347  -32.0667 H   0  0  0  0  0  0  0  0  0  0  0  0
   -9.5859   22.7526  -30.6951 H   0  0  0  0  0  0  0  0  0  0  0  0
   -6.8990   23.3850  -29.8650 H   0  0  0  0  0  0  0  0  0  0  0  0
   -0.8232   25.4579  -29.0521 H   0  0  0  0  0  0  0  0  0  0  0  0
    0.9560   26.2436  -27.4638 H   0  0  0  0  0  0  0  0  0  0  0  0
  1  2  1  0
  2  3  1  0
  3  4  2  0
  4  5  1  0
  5  6  2  0
  6  7  1  0
  7  8  2  0
  8  9  1  0
  9 10  1  0
 10 11  1  0
 11 12  1  0
 12 13  2  0
 13 14  1  0
 14 15  2  0
 15 16  1  0
 16 17  2  0
 17 18  1  0
 18 19  2  0
 19 20  1  0
 20 21  2  0
 21 22  1  0
 22 23  2  0
 23 24  1  0
 24 25  2  0
 25 26  1  0
 26 27  2  0
 27 28  1  0
 19 29  1  0
 15 30  1  0
 30 31  2  0
  8  3  1  0
 31 12  1  0
 29 16  1  0
 28 20  1  0
 27 22  1  0
  1 32  1  0
  1 33  1  0
  1 34  1  0
  5 35  1  0
  6 36  1  0
  7 37  1  0
  9 38  1  0
  9 39  1  0
 10 40  1  0
 11 41  1  0
 11 42  1  0
 13 43  1  0
 14 44  1  0
 17 45  1  0
 18 46  1  0
 23 47  1  0
 24 48  1  0
 25 49  1  0
 26 50  1  0
 28 51  1  0
 30 52  1  0
 31 53  1  0
M  END
>  <smiles>  (25) 
COc1ncccc1CNCc1ccc(-c2ccc(-c3nc4ccccc4[nH]3)s2)cc1

>  <score_type>  (25) 
oracle

>  <origin>  (25) 
adg

>  <m_score__min__energy>  (25) 
-8.5399999999999991

>  <m_primary>  (25) 
energy

$$$$
25:0
     RDKit          3D

 48 51  0  0  0  0  0  0  0  0999 V2000
   -2.9640   13.6290  -32.0580 C   0  0  0  0  0  0  0  0  0  0  0  0
   -4.2150   14.3730  -31.6070 C   0  0  0  0  0  0  0  0  0  0  0  0
   -4.9420   14.8930  -32.7630 N   0  0  0  0  0  0  0  0  0  0  0  0
   -5.7500   14.1550  -33.5180 N   0  0  0  0  0  0  0  0  0  0  0  0
   -6.3020   14.9570  -34.4610 C   0  0  0  0  0  0  0  0  0  0  0  0
   -5.8260   16.2370  -34.2730 C   0  0  0  0  0  0  0  0  0  0  0  0
   -6.0770   17.4300  -34.9410 C   0  0  0  0  0  0  0  0  0  0  0  0
   -5.4280   18.5870  -34.4730 C   0  0  0  0  0  0  0  0  0  0  0  0
   -4.5610   18.5300  -33.3480 C   0  0  0  0  0  0  0  0  0  0  0  0
   -3.9080   19.7190  -32.8700 N   0  0  0  0  0  0  0  0  0  0  0  0
   -2.5880   19.9810  -32.9510 C   0  0  0  0  0  0  0  0  0  0  0  0
   -2.3630   21.2480  -32.4570 C   0  0  0  0  0  0  0  0  0  0  0  0
   -3.5370   21.7730  -32.0650 N   0  0  0  0  0  0  0  0  0  0  0  0
   -4.4630   20.8270  -32.3210 C   0  0  0  0  0  0  0  0  0  0  0  0
   -5.8870   20.9680  -31.9430 C   0  0  0  0  0  0  0  0  0  0  0  0
   -6.7250   19.8420  -31.9690 C   0  0  0  0  0  0  0  0  0  0  0  0
   -8.0740   19.9560  -31.6260 C   0  0  0  0  0  0  0  0  0  0  0  0
   -9.1120   18.5420  -31.6730 Cl  0  0  0  0  0  0  0  0  0  0  0  0
   -8.5930   21.1930  -31.2440 C   0  0  0  0  0  0  0  0  0  0  0  0
   -7.7690   22.3190  -31.2060 C   0  0  0  0  0  0  0  0  0  0  0  0
   -6.4070   22.2210  -31.5620 C   0  0  0  0  0  0  0  0  0  0  0  0
   -5.5450   23.3350  -31.5610 O   0  0  0  0  0  0  0  0  0  0  0  0
   -5.8790   24.6690  -31.1700 C   0  0  0  0  0  0  0  0  0  0  0  0
   -4.6940   25.3640  -30.4980 C   0  0  0  0  0  0  0  0  0  0  0  0
   -3.4940   24.5340  -30.5510 N   0  0  0  0  0  0  0  0  0  0  0  0
   -4.3240   17.2920  -32.7080 C   0  0  0  0  0  0  0  0  0  0  0  0
   -4.9820   16.1640  -33.2030 C   0  0  0  0  0  0  0  0  0  0  0  0
   -2.3992   13.2931  -31.1759 H   0  0  0  0  0  0  0  0  0  0  0  0
   -3.2540   12.7565  -32.6618 H   0  0  0  0  0  0  0  0  0  0  0  0
   -2.3358   14.3004  -32.6618 H   0  0  0  0  0  0  0  0  0  0  0  0
   -4.8659   13.6833  -31.0496 H   0  0  0  0  0  0  0  0  0  0  0  0
   -3.9178   15.2145  -30.9639 H   0  0  0  0  0  0  0  0  0  0  0  0
   -7.0087   14.6407  -35.2424 H   0  0  0  0  0  0  0  0  0  0  0  0
   -6.7581   17.4679  -35.8039 H   0  0  0  0  0  0  0  0  0  0  0  0
   -5.5934   19.5472  -34.9836 H   0  0  0  0  0  0  0  0  0  0  0  0
   -1.8202   19.2988  -33.3448 H   0  0  0  0  0  0  0  0  0  0  0  0
   -1.3847   21.7470  -32.3939 H   0  0  0  0  0  0  0  0  0  0  0  0
   -3.6870   22.7070  -31.6210 H   0  0  0  0  0  0  0  0  0  0  0  0
   -6.3164   18.8635  -32.2615 H   0  0  0  0  0  0  0  0  0  0  0  0
   -9.6551   21.2815  -30.9718 H   0  0  0  0  0  0  0  0  0  0  0  0
   -8.1842   23.2895  -30.8964 H   0  0  0  0  0  0  0  0  0  0  0  0
   -6.1711   25.2416  -32.0627 H   0  0  0  0  0  0  0  0  0  0  0  0
   -6.7086   24.6222  -30.4491 H   0  0  0  0  0  0  0  0  0  0  0  0
   -4.4956   26.3145  -31.0149 H   0  0  0  0  0  0  0  0  0  0  0  0
   -4.9478   25.5413  -29.4425 H   0  0  0  0  0  0  0  0  0  0  0  0
   -3.1590   24.5070  -31.5410 H   0  0  0  0  0  0  0  0  0  0  0  0
   -3.7750   23.5540  -30.3160 H   0  0  0  0  0  0  0  0  0  0  0  0
   -3.6428   17.2194  -31.8473 H   0  0  0  0  0  0  0  0  0  0  0  0
  1  2  1  0
  2  3  1  0
  3  4  1  0
  4  5  2  0
  5  6  1  0
  6  7  2  0
  7  8  1  0
  8  9  2  0
  9 10  1  0
 10 11  1  0
 11 12  2  0
 12 13  1  0
 13 14  2  0
 14 15  1  0
 15 16  2  0
 16 17  1  0
 17 18  1  0
 17 19  2  0
 19 20  1  0
 20 21  2  0
 21 22  1  0
 22 23  1  0
 23 24  1  0
 24 25  1  0
  9 26  1  0
 26 27  2  0
 27  3  1  0
 27  6  1  0
 14 10  1  0
 21 15  1  0
  1 28  1  0
  1 29  1  0
  1 30  1  0
  2 31  1  0
  2 32  1  0
  5 33  1  0
  7 34  1  0
  8 35  1  0
 11 36  1  0
 12 37  1  0
 13 38  1  0
 16 39  1  0
 19 40  1  0
 20 41  1  0
 23 42  1  0
 23 43  1  0
 24 44  1  0
 24 45  1  0
 25 46  1  0
 25 47  1  0
 26 48  1  0
M  CHG  1  13   1
M  END
>  <UniqueID>  (26) 
24

>  <SMILES>  (26) 
CCn1ncc2ccc(-n3cc[nH+]c3-c3cc(Cl)ccc3OCCN)cc21

>  <Energy>  (26) 
125.04513294640492

>  <Genealogy>  (26) 
CCn1ncc2ccc(-n3cc[nH+]c3-c3cc(Cl)ccc3OCCN)cc21 (protonated)
CCn1ncc2ccc(-n3cc[nH+]c3-c3cc(Cl)ccc3OCCN)cc21 (3D coordinates assigned)
CCn1ncc2ccc(-n3cc[nH+]c3-c3cc(Cl)ccc3OCCN)cc21 (optimized conformer: 125.04513294640492 kcal/mol)

>  <smiles>  (26) 
CCn1ncc2ccc(-n3ccnc3-c3cc(Cl)ccc3OCCN)cc21

>  <score_type>  (26) 
oracle

>  <origin>  (26) 
adg

>  <m_score__min__energy>  (26) 
-8.6099999999999994

>  <m_primary>  (26) 
energy

$$$$
26:0
     RDKit          3D

 36 38  0  0  0  0  0  0  0  0999 V2000
   -1.0520   26.3680  -24.2500 C   0  0  0  0  0  0  0  0  0  0  0  0
   -0.5170   25.8200  -25.4500 O   0  0  0  0  0  0  0  0  0  0  0  0
   -1.2910   25.3780  -26.5330 C   0  0  0  0  0  0  0  0  0  0  0  0
   -0.7840   25.3020  -27.8420 C   0  0  0  0  0  0  0  0  0  0  0  0
   -1.5970   24.8550  -28.8880 C   0  0  0  0  0  0  0  0  0  0  0  0
   -2.9300   24.4760  -28.6510 C   0  0  0  0  0  0  0  0  0  0  0  0
   -3.7540   24.0160  -29.7440 N   0  0  0  0  0  0  0  0  0  0  0  0
   -4.1310   22.7530  -30.0250 C   0  0  0  0  0  0  0  0  0  0  0  0
   -4.9160   22.8220  -31.1610 C   0  0  0  0  0  0  0  0  0  0  0  0
   -5.5820   21.7070  -31.8790 C   0  0  0  0  0  0  0  0  0  0  0  0
   -4.8260   20.8570  -32.7030 C   0  0  0  0  0  0  0  0  0  0  0  0
   -5.4340   19.7990  -33.3890 C   0  0  0  0  0  0  0  0  0  0  0  0
   -4.6520   18.9420  -34.2260 N   0  0  0  0  0  0  0  0  0  0  0  0
   -6.8100   19.5830  -33.2530 C   0  0  0  0  0  0  0  0  0  0  0  0
   -7.5880   20.4180  -32.4330 C   0  0  0  0  0  0  0  0  0  0  0  0
   -9.0040   20.1940  -32.2920 N   0  0  0  0  0  0  0  0  0  0  0  0
   -9.8070   21.1500  -32.3330 O   0  0  0  0  0  0  0  0  0  0  0  0
   -9.4970   18.9230  -32.1080 O   0  0  0  0  0  0  0  0  0  0  0  0
   -6.9640   21.4770  -31.7490 C   0  0  0  0  0  0  0  0  0  0  0  0
   -4.9940   24.1160  -31.5320 N   0  0  0  0  0  0  0  0  0  0  0  0
   -4.2840   24.8130  -30.6590 N   0  0  0  0  0  0  0  0  0  0  0  0
   -3.4310   24.5510  -27.3370 C   0  0  0  0  0  0  0  0  0  0  0  0
   -2.6150   24.9980  -26.2920 C   0  0  0  0  0  0  0  0  0  0  0  0
   -0.5791   25.8836  -23.3830 H   0  0  0  0  0  0  0  0  0  0  0  0
   -0.8525   27.4493  -24.2199 H   0  0  0  0  0  0  0  0  0  0  0  0
   -2.1378   26.1945  -24.2199 H   0  0  0  0  0  0  0  0  0  0  0  0
    0.2567   25.5954  -28.0442 H   0  0  0  0  0  0  0  0  0  0  0  0
   -1.1890   24.7992  -29.9080 H   0  0  0  0  0  0  0  0  0  0  0  0
   -3.8663   21.8461  -29.4616 H   0  0  0  0  0  0  0  0  0  0  0  0
   -3.7442   21.0246  -32.8104 H   0  0  0  0  0  0  0  0  0  0  0  0
   -5.0820   18.4570  -35.0460 H   0  0  0  0  0  0  0  0  0  0  0  0
   -3.6380   18.7870  -34.0340 H   0  0  0  0  0  0  0  0  0  0  0  0
   -7.2870   18.7518  -33.7930 H   0  0  0  0  0  0  0  0  0  0  0  0
   -7.5649   22.1345  -31.1035 H   0  0  0  0  0  0  0  0  0  0  0  0
   -4.4705   24.2563  -27.1309 H   0  0  0  0  0  0  0  0  0  0  0  0
   -3.0191   25.0510  -25.2703 H   0  0  0  0  0  0  0  0  0  0  0  0
  1  2  1  0
  2  3  1  0
  3  4  2  0
  4  5  1  0
  5  6  2  0
  6  7  1  0
  7  8  1  0
  8  9  2  0
  9 10  1  0
 10 11  2  0
 11 12  1  0
 12 13  1  0
 12 14  2  0
 14 15  1  0
 15 16  1  0
 16 17  2  0
 16 18  1  0
 15 19  2  0
  9 20  1  0
 20 21  2  0
  6 22  1  0
 22 23  2  0
 23  3  1  0
 21  7  1  0
 19 10  1  0
  1 24  1  0
  1 25  1  0
  1 26  1  0
  4 27  1  0
  5 28  1  0
  8 29  1  0
 11 30  1  0
 13 31  1  0
 13 32  1  0
 14 33  1  0
 19 34  1  0
 22 35  1  0
 23 36  1  0
M  CHG  2  16   1  18  -1
M  END
>  <UniqueID>  (27) 
25

>  <SMILES>  (27) 
COc1ccc(-n2cc(-c3cc(N)cc([N+](=O)[O-])c3)nn2)cc1

>  <Energy>  (27) 
77.0784290493521

>  <Genealogy>  (27) 
COc1ccc(-n2cc(-c3cc(N)cc([N+](=O)[O-])c3)nn2)cc1 (3D coordinates assigned)
COc1ccc(-n2cc(-c3cc(N)cc([N+](=O)[O-])c3)nn2)cc1 (optimized conformer: 77.0784290493521 kcal/mol)

>  <smiles>  (27) 
COc1ccc(-n2cc(-c3cc(N)cc([N+](=O)[O-])c3)nn2)cc1

>  <score_type>  (27) 
oracle

>  <origin>  (27) 
adg

>  <m_score__min__energy>  (27) 
-7.7199999999999998

>  <m_primary>  (27) 
energy

$$$$
27:0
     RDKit          3D

 68 71  0  0  0  0  0  0  0  0999 V2000
    0.7070   24.4260  -24.4900 C   0  0  0  0  0  0  0  0  0  0  0  0
    1.5610   25.7010  -24.6310 C   0  0  0  0  0  0  0  0  0  0  0  0
    1.8280   26.4390  -23.3610 N   0  0  0  0  0  0  0  0  0  0  0  0
    3.2780   26.6550  -23.1080 C   0  0  0  0  0  0  0  0  0  0  0  0
    4.0460   25.4180  -22.6280 C   0  0  0  0  0  0  0  0  0  0  0  0
    0.9810   27.6500  -23.1890 C   0  0  0  0  0  0  0  0  0  0  0  0
    0.5500   28.2810  -24.5200 C   0  0  0  0  0  0  0  0  0  0  0  0
   -0.8170   27.9620  -24.7710 O   0  0  0  0  0  0  0  0  0  0  0  0
   -1.2490   26.9990  -25.6940 C   0  0  0  0  0  0  0  0  0  0  0  0
   -0.6630   26.9840  -26.9640 C   0  0  0  0  0  0  0  0  0  0  0  0
   -1.0560   26.0430  -27.9190 C   0  0  0  0  0  0  0  0  0  0  0  0
   -2.0480   25.0920  -27.6190 C   0  0  0  0  0  0  0  0  0  0  0  0
   -2.4630   24.0860  -28.6310 C   0  0  0  0  0  0  0  0  0  0  0  0
   -1.8410   22.8250  -28.6810 C   0  0  0  0  0  0  0  0  0  0  0  0
   -2.2290   21.8760  -29.6310 C   0  0  0  0  0  0  0  0  0  0  0  0
   -3.2500   22.1720  -30.5500 C   0  0  0  0  0  0  0  0  0  0  0  0
   -3.6750   21.2520  -31.5250 C   0  0  0  0  0  0  0  0  0  0  0  0
   -3.1270   20.1150  -31.5990 O   0  0  0  0  0  0  0  0  0  0  0  0
   -4.6820   21.5900  -32.3960 N   0  0  0  0  0  0  0  0  0  0  0  0
   -5.1170   20.6580  -33.4500 C   0  0  0  0  0  0  0  0  0  0  0  0
   -6.6210   20.3820  -33.3430 C   0  0  0  0  0  0  0  0  0  0  0  0
   -6.9830   20.0420  -31.9470 N   0  0  0  0  0  0  0  0  0  0  0  0
   -7.9310   21.0090  -31.3620 C   0  0  0  0  0  0  0  0  0  0  0  0
   -9.3440   20.8710  -31.9780 C   0  0  0  0  0  0  0  0  0  0  0  0
   -9.5150   19.6660  -32.7050 O   0  0  0  0  0  0  0  0  0  0  0  0
   -9.0250   18.5750  -31.9560 C   0  0  0  0  0  0  0  0  0  0  0  0
   -7.4910   18.6550  -31.8150 C   0  0  0  0  0  0  0  0  0  0  0  0
   -5.2610   22.8270  -32.3240 C   0  0  0  0  0  0  0  0  0  0  0  0
   -4.8600   23.7250  -31.3900 N   0  0  0  0  0  0  0  0  0  0  0  0
   -3.8770   23.4300  -30.5040 C   0  0  0  0  0  0  0  0  0  0  0  0
   -3.4840   24.3790  -29.5540 C   0  0  0  0  0  0  0  0  0  0  0  0
   -2.6390   25.1080  -26.3430 C   0  0  0  0  0  0  0  0  0  0  0  0
   -2.2460   26.0520  -25.3900 C   0  0  0  0  0  0  0  0  0  0  0  0
    0.5566   24.2015  -23.4237 H   0  0  0  0  0  0  0  0  0  0  0  0
   -0.2688   24.5830  -24.9728 H   0  0  0  0  0  0  0  0  0  0  0  0
    1.2236   23.5834  -24.9728 H   0  0  0  0  0  0  0  0  0  0  0  0
    2.5296   25.4138  -25.0662 H   0  0  0  0  0  0  0  0  0  0  0  0
    0.9775   26.3873  -25.2623 H   0  0  0  0  0  0  0  0  0  0  0  0
    1.5280   25.7750  -22.6060 H   0  0  0  0  0  0  0  0  0  0  0  0
    3.7396   27.0003  -24.0448 H   0  0  0  0  0  0  0  0  0  0  0  0
    3.3403   27.3899  -22.2919 H   0  0  0  0  0  0  0  0  0  0  0  0
    4.0584   25.3980  -21.5283 H   0  0  0  0  0  0  0  0  0  0  0  0
    3.5523   24.5105  -23.0057 H   0  0  0  0  0  0  0  0  0  0  0  0
    5.0784   25.4580  -23.0057 H   0  0  0  0  0  0  0  0  0  0  0  0
    0.0782   27.3682  -22.6273 H   0  0  0  0  0  0  0  0  0  0  0  0
    1.5847   28.3975  -22.6534 H   0  0  0  0  0  0  0  0  0  0  0  0
    0.6684   29.3732  -24.4644 H   0  0  0  0  0  0  0  0  0  0  0  0
    1.1761   27.8878  -25.3345 H   0  0  0  0  0  0  0  0  0  0  0  0
    0.1151   27.7205  -27.2133 H   0  0  0  0  0  0  0  0  0  0  0  0
   -0.5859   26.0459  -28.9135 H   0  0  0  0  0  0  0  0  0  0  0  0
   -1.0413   22.5835  -27.9653 H   0  0  0  0  0  0  0  0  0  0  0  0
   -1.7335   20.8943  -29.6593 H   0  0  0  0  0  0  0  0  0  0  0  0
   -4.9000   21.0992  -34.4340 H   0  0  0  0  0  0  0  0  0  0  0  0
   -4.5740   19.7091  -33.3288 H   0  0  0  0  0  0  0  0  0  0  0  0
   -7.1775   21.2783  -33.6542 H   0  0  0  0  0  0  0  0  0  0  0  0
   -6.8767   19.5343  -33.9957 H   0  0  0  0  0  0  0  0  0  0  0  0
   -7.9961   20.8330  -30.2781 H   0  0  0  0  0  0  0  0  0  0  0  0
   -7.5617   22.0229  -31.5758 H   0  0  0  0  0  0  0  0  0  0  0  0
  -10.0850   20.8986  -31.1655 H   0  0  0  0  0  0  0  0  0  0  0  0
   -9.4784   21.7037  -32.6841 H   0  0  0  0  0  0  0  0  0  0  0  0
   -9.4808   18.5905  -30.9550 H   0  0  0  0  0  0  0  0  0  0  0  0
   -9.2837   17.6425  -32.4790 H   0  0  0  0  0  0  0  0  0  0  0  0
   -7.2064   18.2672  -30.8258 H   0  0  0  0  0  0  0  0  0  0  0  0
   -7.0480   18.0569  -32.6250 H   0  0  0  0  0  0  0  0  0  0  0  0
   -6.0599   23.0963  -33.0306 H   0  0  0  0  0  0  0  0  0  0  0  0
   -3.9771   25.3620  -29.5284 H   0  0  0  0  0  0  0  0  0  0  0  0
   -3.4169   24.3716  -26.0929 H   0  0  0  0  0  0  0  0  0  0  0  0
   -2.7183   26.0552  -24.3966 H   0  0  0  0  0  0  0  0  0  0  0  0
  1  2  1  0
  2  3  1  0
  3  4  1  0
  4  5  1  0
  3  6  1  0
  6  7  1  0
  7  8  1  0
  8  9  1  0
  9 10  2  0
 10 11  1  0
 11 12  2  0
 12 13  1  0
 13 14  2  0
 14 15  1  0
 15 16  2  0
 16 17  1  0
 17 18  2  0
 17 19  1  0
 19 20  1  0
 20 21  1  0
 21 22  1  0
 22 23  1  0
 23 24  1  0
 24 25  1  0
 25 26  1  0
 26 27  1  0
 19 28  1  0
 28 29  2  0
 29 30  1  0
 30 31  2  0
 12 32  1  0
 32 33  2  0
 33  9  1  0
 31 13  1  0
 30 16  1  0
 27 22  1  0
  1 34  1  0
  1 35  1  0
  1 36  1  0
  2 37  1  0
  2 38  1  0
  3 39  1  0
  4 40  1  0
  4 41  1  0
  5 42  1  0
  5 43  1  0
  5 44  1  0
  6 45  1  0
  6 46  1  0
  7 47  1  0
  7 48  1  0
 10 49  1  0
 11 50  1  0
 14 51  1  0
 15 52  1  0
 20 53  1  0
 20 54  1  0
 21 55  1  0
 21 56  1  0
 23 57  1  0
 23 58  1  0
 24 59  1  0
 24 60  1  0
 26 61  1  0
 26 62  1  0
 27 63  1  0
 27 64  1  0
 28 65  1  0
 31 66  1  0
 32 67  1  0
 33 68  1  0
M  CHG  1   3   1
M  END
>  <UniqueID>  (28) 
26

>  <SMILES>  (28) 
CC[NH+](CC)CCOc1ccc(-c2ccc3c(=O)n(CCN4CCOCC4)cnc3c2)cc1

>  <Energy>  (28) 
98.59974157197553

>  <Genealogy>  (28) 
CC[NH+](CC)CCOc1ccc(-c2ccc3c(=O)n(CCN4CCOCC4)cnc3c2)cc1 (protonated)
CC[NH+](CC)CCOc1ccc(-c2ccc3c(=O)n(CCN4CCOCC4)cnc3c2)cc1 (3D coordinates assigned)
CC[NH+](CC)CCOc1ccc(-c2ccc3c(=O)n(CCN4CCOCC4)cnc3c2)cc1 (nonaromatic ring conformer: 98.59974157197553 kcal/mol)

>  <smiles>  (28) 
CCN(CC)CCOc1ccc(-c2ccc3c(=O)n(CCN4CCOCC4)cnc3c2)cc1

>  <score_type>  (28) 
oracle

>  <origin>  (28) 
adg

>  <m_score__min__energy>  (28) 
-8.5

>  <m_primary>  (28) 
energy

$$$$
28:0
     RDKit          3D

 48 50  0  0  0  0  0  0  0  0999 V2000
    2.1310   19.2790  -33.1050 C   0  0  0  0  0  0  0  0  0  0  0  0
    2.2020   19.4140  -34.6220 C   0  0  0  0  0  0  0  0  0  0  0  0
    0.8960   19.3830  -35.1960 O   0  0  0  0  0  0  0  0  0  0  0  0
   -0.2940   19.7590  -34.5500 C   0  0  0  0  0  0  0  0  0  0  0  0
   -1.2920   18.8280  -34.2020 C   0  0  0  0  0  0  0  0  0  0  0  0
   -2.4560   19.2470  -33.5580 C   0  0  0  0  0  0  0  0  0  0  0  0
   -2.6470   20.5990  -33.2410 C   0  0  0  0  0  0  0  0  0  0  0  0
   -3.8910   21.0530  -32.5680 C   0  0  0  0  0  0  0  0  0  0  0  0
   -5.0870   20.5450  -32.9680 N   0  0  0  0  0  0  0  0  0  0  0  0
   -6.2530   20.9420  -32.3950 C   0  0  0  0  0  0  0  0  0  0  0  0
   -7.4710   20.4070  -32.8470 C   0  0  0  0  0  0  0  0  0  0  0  0
   -8.6750   20.8170  -32.2790 C   0  0  0  0  0  0  0  0  0  0  0  0
   -8.6770   21.7660  -31.2590 C   0  0  0  0  0  0  0  0  0  0  0  0
   -7.4750   22.3060  -30.7960 C   0  0  0  0  0  0  0  0  0  0  0  0
   -6.2350   21.8970  -31.3480 C   0  0  0  0  0  0  0  0  0  0  0  0
   -5.0230   22.4020  -30.9130 N   0  0  0  0  0  0  0  0  0  0  0  0
   -4.9460   23.3880  -29.8100 C   0  0  0  0  0  0  0  0  0  0  0  0
   -4.3640   24.6780  -30.2970 C   0  0  0  0  0  0  0  0  0  0  0  0
   -4.9400   25.3150  -31.2200 O   0  0  0  0  0  0  0  0  0  0  0  0
   -3.1820   25.1620  -29.7270 O   0  0  0  0  0  0  0  0  0  0  0  0
   -2.5520   24.5310  -28.6190 C   0  0  0  0  0  0  0  0  0  0  0  0
   -3.8600   22.0120  -31.5380 C   0  0  0  0  0  0  0  0  0  0  0  0
   -2.7550   22.5260  -31.2080 O   0  0  0  0  0  0  0  0  0  0  0  0
   -1.6570   21.5300  -33.5890 C   0  0  0  0  0  0  0  0  0  0  0  0
   -0.4780   21.1160  -34.2390 C   0  0  0  0  0  0  0  0  0  0  0  0
    0.5340   22.0230  -34.5950 O   0  0  0  0  0  0  0  0  0  0  0  0
    0.7630   22.4980  -35.9180 C   0  0  0  0  0  0  0  0  0  0  0  0
    2.5942   20.1598  -32.6364 H   0  0  0  0  0  0  0  0  0  0  0  0
    1.0789   19.2080  -32.7920 H   0  0  0  0  0  0  0  0  0  0  0  0
    2.6687   18.3718  -32.7920 H   0  0  0  0  0  0  0  0  0  0  0  0
    2.6851   20.3688  -34.8767 H   0  0  0  0  0  0  0  0  0  0  0  0
    2.7834   18.5710  -35.0238 H   0  0  0  0  0  0  0  0  0  0  0  0
   -1.1524   17.7631  -34.4398 H   0  0  0  0  0  0  0  0  0  0  0  0
   -3.2303   18.5107  -33.2968 H   0  0  0  0  0  0  0  0  0  0  0  0
   -5.1070   19.8270  -33.7290 H   0  0  0  0  0  0  0  0  0  0  0  0
   -7.4738   19.6598  -33.6543 H   0  0  0  0  0  0  0  0  0  0  0  0
   -9.6245   20.3914  -32.6359 H   0  0  0  0  0  0  0  0  0  0  0  0
   -9.6298   22.0916  -30.8162 H   0  0  0  0  0  0  0  0  0  0  0  0
   -7.4907   23.0578  -29.9932 H   0  0  0  0  0  0  0  0  0  0  0  0
   -5.9573   23.5725  -29.4186 H   0  0  0  0  0  0  0  0  0  0  0  0
   -4.2994   22.9838  -29.0172 H   0  0  0  0  0  0  0  0  0  0  0  0
   -2.9604   24.9401  -27.6831 H   0  0  0  0  0  0  0  0  0  0  0  0
   -2.7397   23.4479  -28.6584 H   0  0  0  0  0  0  0  0  0  0  0  0
   -1.4686   24.7170  -28.6584 H   0  0  0  0  0  0  0  0  0  0  0  0
   -1.8030   22.5942  -33.3518 H   0  0  0  0  0  0  0  0  0  0  0  0
    1.2403   23.4881  -35.8746 H   0  0  0  0  0  0  0  0  0  0  0  0
    1.4218   21.7963  -36.4506 H   0  0  0  0  0  0  0  0  0  0  0  0
   -0.1963   22.5764  -36.4506 H   0  0  0  0  0  0  0  0  0  0  0  0
  1  2  1  0
  2  3  1  0
  3  4  1  0
  4  5  2  0
  5  6  1  0
  6  7  2  0
  7  8  1  0
  8  9  2  0
  9 10  1  0
 10 11  2  0
 11 12  1  0
 12 13  2  0
 13 14  1  0
 14 15  2  0
 15 16  1  0
 16 17  1  0
 17 18  1  0
 18 19  2  0
 18 20  1  0
 20 21  1  0
 16 22  1  0
 22 23  2  0
  7 24  1  0
 24 25  2  0
 25 26  1  0
 26 27  1  0
 25  4  1  0
 22  8  1  0
 15 10  1  0
  1 28  1  0
  1 29  1  0
  1 30  1  0
  2 31  1  0
  2 32  1  0
  5 33  1  0
  6 34  1  0
  9 35  1  0
 11 36  1  0
 12 37  1  0
 13 38  1  0
 14 39  1  0
 17 40  1  0
 17 41  1  0
 21 42  1  0
 21 43  1  0
 21 44  1  0
 24 45  1  0
 27 46  1  0
 27 47  1  0
 27 48  1  0
M  CHG  1   9   1
M  END
>  <UniqueID>  (29) 
27

>  <SMILES>  (29) 
CCOc1ccc(-c2[nH+]c3ccccc3n(CC(=O)OC)c2=O)cc1OC

>  <Energy>  (29) 
61.58394513586673

>  <Genealogy>  (29) 
CCOc1ccc(-c2[nH+]c3ccccc3n(CC(=O)OC)c2=O)cc1OC (protonated)
CCOc1ccc(-c2[nH+]c3ccccc3n(CC(=O)OC)c2=O)cc1OC (3D coordinates assigned)
CCOc1ccc(-c2[nH+]c3ccccc3n(CC(=O)OC)c2=O)cc1OC (optimized conformer: 61.58394513586673 kcal/mol)

>  <smiles>  (29) 
CCOc1ccc(-c2nc3ccccc3n(CC(=O)OC)c2=O)cc1OC

>  <score_type>  (29) 
oracle

>  <origin>  (29) 
adg

>  <m_score__min__energy>  (29) 
-7.9299999999999997

>  <m_primary>  (29) 
energy

$$$$
29:0
     RDKit          3D

 51 54  0  0  0  0  0  0  0  0999 V2000
   -4.5810   25.9680  -29.4020 H   0  0  0  0  0  0  0  0  0  0  0  0
   -4.2700   25.6710  -30.3550 N   0  0  0  0  0  0  0  0  0  0  0  0
   -4.5890   24.5160  -30.8400 C   0  0  0  0  0  0  0  0  0  0  0  0
   -3.6330   23.5710  -31.0100 N   0  0  0  0  0  0  0  0  0  0  0  0
   -3.9210   22.3400  -31.5190 C   0  0  0  0  0  0  0  0  0  0  0  0
   -5.2550   22.0410  -31.8700 C   0  0  0  0  0  0  0  0  0  0  0  0
   -6.2380   23.0410  -31.6910 C   0  0  0  0  0  0  0  0  0  0  0  0
   -7.6830   22.8220  -32.0400 C   0  0  0  0  0  0  0  0  0  0  0  0
   -8.2738   22.7325  -31.1164 H   0  0  0  0  0  0  0  0  0  0  0  0
   -8.0511   23.6746  -32.6295 H   0  0  0  0  0  0  0  0  0  0  0  0
   -7.7820   21.8986  -32.6295 H   0  0  0  0  0  0  0  0  0  0  0  0
   -5.8750   24.2480  -31.1810 N   0  0  0  0  0  0  0  0  0  0  0  0
   -5.5540   20.7680  -32.3720 C   0  0  0  0  0  0  0  0  0  0  0  0
   -6.5860   20.5238  -32.6640 H   0  0  0  0  0  0  0  0  0  0  0  0
   -4.5480   19.8060  -32.5040 C   0  0  0  0  0  0  0  0  0  0  0  0
   -4.8950   18.4540  -33.0100 C   0  0  0  0  0  0  0  0  0  0  0  0
   -4.1430   17.8620  -34.0330 C   0  0  0  0  0  0  0  0  0  0  0  0
   -3.2827   18.3972  -34.4613 H   0  0  0  0  0  0  0  0  0  0  0  0
   -4.4820   16.5960  -34.5100 C   0  0  0  0  0  0  0  0  0  0  0  0
   -3.8866   16.1280  -35.3078 H   0  0  0  0  0  0  0  0  0  0  0  0
   -5.5860   15.9230  -33.9670 C   0  0  0  0  0  0  0  0  0  0  0  0
   -5.9520   14.6140  -34.4440 N   0  0  0  0  0  0  0  0  0  0  0  0
   -7.3660   14.2480  -34.5930 C   0  0  0  0  0  0  0  0  0  0  0  0
   -7.9730   14.8845  -33.9323 H   0  0  0  0  0  0  0  0  0  0  0  0
   -7.6548   14.3939  -35.6443 H   0  0  0  0  0  0  0  0  0  0  0  0
   -7.6020   12.7640  -34.2210 C   0  0  0  0  0  0  0  0  0  0  0  0
   -8.1914   12.7286  -33.2929 H   0  0  0  0  0  0  0  0  0  0  0  0
   -8.1255   12.3001  -35.0700 H   0  0  0  0  0  0  0  0  0  0  0  0
   -6.4060   12.0270  -34.0200 O   0  0  0  0  0  0  0  0  0  0  0  0
   -5.4960   12.2780  -35.0690 C   0  0  0  0  0  0  0  0  0  0  0  0
   -4.6824   11.5386  -35.0342 H   0  0  0  0  0  0  0  0  0  0  0  0
   -6.0173   12.2020  -36.0346 H   0  0  0  0  0  0  0  0  0  0  0  0
   -4.9150   13.6850  -34.9100 C   0  0  0  0  0  0  0  0  0  0  0  0
   -4.0953   13.6586  -34.1769 H   0  0  0  0  0  0  0  0  0  0  0  0
   -4.5377   14.0289  -35.8844 H   0  0  0  0  0  0  0  0  0  0  0  0
   -6.3090   16.5150  -32.9710 N   0  0  0  0  0  0  0  0  0  0  0  0
   -7.1160   16.0100  -32.5420 H   0  0  0  0  0  0  0  0  0  0  0  0
   -5.9920   17.7490  -32.4920 C   0  0  0  0  0  0  0  0  0  0  0  0
   -6.6005   18.1970  -31.6926 H   0  0  0  0  0  0  0  0  0  0  0  0
   -3.2260   20.1460  -32.1520 C   0  0  0  0  0  0  0  0  0  0  0  0
   -2.3110   19.2860  -32.2870 O   0  0  0  0  0  0  0  0  0  0  0  0
   -2.9270   21.4040  -31.6810 N   0  0  0  0  0  0  0  0  0  0  0  0
   -1.5380   21.7290  -31.2970 C   0  0  0  0  0  0  0  0  0  0  0  0
   -0.8465   21.0583  -31.8280 H   0  0  0  0  0  0  0  0  0  0  0  0
   -1.3233   22.7738  -31.5660 H   0  0  0  0  0  0  0  0  0  0  0  0
   -1.3660   21.5580  -29.8490 C   0  0  0  0  0  0  0  0  0  0  0  0
   -1.2260   21.4220  -28.6600 C   0  0  0  0  0  0  0  0  0  0  0  0
   -1.0580   21.2580  -27.2160 C   0  0  0  0  0  0  0  0  0  0  0  0
   -1.7484   21.9320  -26.6877 H   0  0  0  0  0  0  0  0  0  0  0  0
   -1.2770   20.2167  -26.9373 H   0  0  0  0  0  0  0  0  0  0  0  0
   -0.0223   21.5021  -26.9373 H   0  0  0  0  0  0  0  0  0  0  0  0
  1  2  1  0
  2  3  2  0
  3  4  1  0
  4  5  2  0
  5  6  1  0
  6  7  2  0
  7  8  1  0
  8  9  1  0
  8 10  1  0
  8 11  1  0
  7 12  1  0
  6 13  1  0
 13 14  1  0
 13 15  2  0
 15 16  1  0
 16 17  2  0
 17 18  1  0
 17 19  1  0
 19 20  1  0
 19 21  2  0
 21 22  1  0
 22 23  1  0
 23 24  1  0
 23 25  1  0
 23 26  1  0
 26 27  1  0
 26 28  1  0
 26 29  1  0
 29 30  1  0
 30 31  1  0
 30 32  1  0
 30 33  1  0
 33 34  1  0
 33 35  1  0
 21 36  1  0
 36 37  1  0
 36 38  2  0
 38 39  1  0
 15 40  1  0
 40 41  2  0
 40 42  1  0
 42 43  1  0
 43 44  1  0
 43 45  1  0
 43 46  1  0
 46 47  3  0
 47 48  1  0
 48 49  1  0
 48 50  1  0
 48 51  1  0
 12  3  1  0
 38 16  1  0
 42  5  1  0
 33 22  1  0
M  CHG  2  12  -1  36   1
M  END
>  <UniqueID>  (30) 
28

>  <SMILES>  (30) 
[H]/N=c1/nc2c(cc(-c3ccc(N4CCOCC4)[nH+]c3)c(=O)n2CC#CC)c(C)[n-]1

>  <Energy>  (30) 
73.92825930453083

>  <Genealogy>  (30) 
CC#CCn1c(=O)c(-c2ccc(N3CCOCC3)[nH+]c2)cc2c(C)[n-]c(=N)nc21 (protonated)
[H]/N=c1/nc2c(cc(-c3ccc(N4CCOCC4)[nH+]c3)c(=O)n2CC#CC)c(C)[n-]1 (cis-trans isomerization)
[H]/N=c1/nc2c(cc(-c3ccc(N4CCOCC4)[nH+]c3)c(=O)n2CC#CC)c(C)[n-]1 (3D coordinates assigned)
[H]/N=c1/nc2c(cc(-c3ccc(N4CCOCC4)[nH+]c3)c(=O)n2CC#CC)c(C)[n-]1 (nonaromatic ring conformer: 73.92825930453083 kcal/mol)

>  <smiles>  (30) 
CC#CCn1c(=O)c(-c2ccc(N3CCOCC3)nc2)cc2c(C)[nH]c(=N)nc21

>  <score_type>  (30) 
oracle

>  <origin>  (30) 
adg

>  <m_score__min__energy>  (30) 
-8.1799999999999997

>  <m_primary>  (30) 
energy

$$$$
30:0
     RDKit          3D

 49 51  0  0  0  0  0  0  0  0999 V2000
   -6.8040   16.5130  -34.2090 C   0  0  0  0  0  0  0  0  0  0  0  0
   -6.8390   17.1200  -32.8090 C   0  0  0  0  0  0  0  0  0  0  0  0
   -6.0610   18.3650  -32.7690 N   0  0  0  0  0  0  0  0  0  0  0  0
   -6.4620   19.6040  -32.3660 C   0  0  0  0  0  0  0  0  0  0  0  0
   -7.8370   19.9340  -31.8220 C   0  0  0  0  0  0  0  0  0  0  0  0
   -7.8210   21.1780  -31.0280 N   0  0  0  0  0  0  0  0  0  0  0  0
   -8.4450   22.3080  -31.7540 C   0  0  0  0  0  0  0  0  0  0  0  0
   -7.4650   23.4870  -31.9090 C   0  0  0  0  0  0  0  0  0  0  0  0
   -6.3820   23.4270  -30.8990 N   0  0  0  0  0  0  0  0  0  0  0  0
   -5.0570   23.2080  -31.5280 C   0  0  0  0  0  0  0  0  0  0  0  0
   -3.9240   23.8140  -30.6770 C   0  0  0  0  0  0  0  0  0  0  0  0
   -4.0320   25.2230  -30.4950 O   0  0  0  0  0  0  0  0  0  0  0  0
   -5.3750   25.6800  -30.4630 C   0  0  0  0  0  0  0  0  0  0  0  0
   -6.3930   24.6150  -30.0080 C   0  0  0  0  0  0  0  0  0  0  0  0
   -5.4860   20.5440  -32.4830 N   0  0  0  0  0  0  0  0  0  0  0  0
   -4.4560   19.8580  -33.0080 C   0  0  0  0  0  0  0  0  0  0  0  0
   -3.2000   20.3510  -33.3540 C   0  0  0  0  0  0  0  0  0  0  0  0
   -2.2690   19.4540  -33.9240 C   0  0  0  0  0  0  0  0  0  0  0  0
   -0.8850   19.9260  -34.2570 C   0  0  0  0  0  0  0  0  0  0  0  0
   -2.6270   18.0930  -34.1150 C   0  0  0  0  0  0  0  0  0  0  0  0
   -3.9070   17.6310  -33.7560 C   0  0  0  0  0  0  0  0  0  0  0  0
   -4.7970   18.5510  -33.1940 C   0  0  0  0  0  0  0  0  0  0  0  0
   -6.7408   15.4175  -34.1322 H   0  0  0  0  0  0  0  0  0  0  0  0
   -7.7196   16.7903  -34.7519 H   0  0  0  0  0  0  0  0  0  0  0  0
   -5.9263   16.8937  -34.7519 H   0  0  0  0  0  0  0  0  0  0  0  0
   -7.8820   17.3358  -32.5339 H   0  0  0  0  0  0  0  0  0  0  0  0
   -6.4003   16.4032  -32.0992 H   0  0  0  0  0  0  0  0  0  0  0  0
   -8.5344   20.0564  -32.6638 H   0  0  0  0  0  0  0  0  0  0  0  0
   -8.1551   19.1103  -31.1660 H   0  0  0  0  0  0  0  0  0  0  0  0
   -6.8360   21.3910  -30.7440 H   0  0  0  0  0  0  0  0  0  0  0  0
   -8.3560   21.0120  -30.1430 H   0  0  0  0  0  0  0  0  0  0  0  0
   -8.7531   21.9651  -32.7528 H   0  0  0  0  0  0  0  0  0  0  0  0
   -9.3137   22.6540  -31.1747 H   0  0  0  0  0  0  0  0  0  0  0  0
   -7.0193   23.4520  -32.9140 H   0  0  0  0  0  0  0  0  0  0  0  0
   -8.0238   24.4230  -31.7619 H   0  0  0  0  0  0  0  0  0  0  0  0
   -4.8856   22.1267  -31.6344 H   0  0  0  0  0  0  0  0  0  0  0  0
   -5.0542   23.7020  -32.5108 H   0  0  0  0  0  0  0  0  0  0  0  0
   -3.9391   23.3343  -29.6872 H   0  0  0  0  0  0  0  0  0  0  0  0
   -2.9841   23.6321  -31.2187 H   0  0  0  0  0  0  0  0  0  0  0  0
   -5.4333   26.5319  -29.7695 H   0  0  0  0  0  0  0  0  0  0  0  0
   -5.6415   25.9524  -31.4949 H   0  0  0  0  0  0  0  0  0  0  0  0
   -6.1419   24.2959  -28.9857 H   0  0  0  0  0  0  0  0  0  0  0  0
   -7.3971   25.0626  -30.0465 H   0  0  0  0  0  0  0  0  0  0  0  0
   -2.9407   21.4071  -33.1884 H   0  0  0  0  0  0  0  0  0  0  0  0
   -0.3287   20.1157  -33.3272 H   0  0  0  0  0  0  0  0  0  0  0  0
   -0.3657   19.1542  -34.8440 H   0  0  0  0  0  0  0  0  0  0  0  0
   -0.9455   20.8543  -34.8440 H   0  0  0  0  0  0  0  0  0  0  0  0
   -1.8968   17.3932  -34.5477 H   0  0  0  0  0  0  0  0  0  0  0  0
   -4.1973   16.5816  -33.9123 H   0  0  0  0  0  0  0  0  0  0  0  0
  1  2  1  0
  2  3  1  0
  3  4  1  0
  4  5  1  0
  5  6  1  0
  6  7  1  0
  7  8  1  0
  8  9  1  0
  9 10  1  0
 10 11  1  0
 11 12  1  0
 12 13  1  0
 13 14  1  0
  4 15  2  0
 15 16  1  0
 16 17  2  0
 17 18  1  0
 18 19  1  0
 18 20  2  0
 20 21  1  0
 21 22  2  0
 22  3  1  0
 14  9  1  0
 22 16  1  0
  1 23  1  0
  1 24  1  0
  1 25  1  0
  2 26  1  0
  2 27  1  0
  5 28  1  0
  5 29  1  0
  6 30  1  0
  6 31  1  0
  7 32  1  0
  7 33  1  0
  8 34  1  0
  8 35  1  0
 10 36  1  0
 10 37  1  0
 11 38  1  0
 11 39  1  0
 13 40  1  0
 13 41  1  0
 14 42  1  0
 14 43  1  0
 17 44  1  0
 19 45  1  0
 19 46  1  0
 19 47  1  0
 20 48  1  0
 21 49  1  0
M  CHG  1   6   1
M  END
>  <UniqueID>  (31) 
29

>  <SMILES>  (31) 
CCn1c(C[NH2+]CCN2CCOCC2)nc2cc(C)ccc21

>  <Energy>  (31) 
98.37524762789059

>  <Genealogy>  (31) 
CCn1c(C[NH2+]CCN2CCOCC2)nc2cc(C)ccc21 (protonated)
CCn1c(C[NH2+]CCN2CCOCC2)nc2cc(C)ccc21 (3D coordinates assigned)
CCn1c(C[NH2+]CCN2CCOCC2)nc2cc(C)ccc21 (nonaromatic ring conformer: 98.37524762789059 kcal/mol)

>  <smiles>  (31) 
CCn1c(CNCCN2CCOCC2)nc2cc(C)ccc21

>  <score_type>  (31) 
oracle

>  <origin>  (31) 
adg

>  <m_score__min__energy>  (31) 
-6.9500000000000002

>  <m_primary>  (31) 
energy

$$$$
31:0
     RDKit          3D

 39 40  0  0  0  0  0  0  0  0999 V2000
   -6.4190   25.5360  -29.5470 C   0  0  0  0  0  0  0  0  0  0  0  0
   -5.2260   25.7370  -30.4690 C   0  0  0  0  0  0  0  0  0  0  0  0
   -4.9950   24.5480  -31.1940 O   0  0  0  0  0  0  0  0  0  0  0  0
   -5.9940   23.5850  -30.9110 C   0  0  0  0  0  0  0  0  0  0  0  0
   -6.8010   23.2800  -32.1750 C   0  0  0  0  0  0  0  0  0  0  0  0
   -7.0060   21.8330  -32.3300 N   0  0  0  0  0  0  0  0  0  0  0  0
   -8.1680   21.1530  -32.1810 C   0  0  0  0  0  0  0  0  0  0  0  0
   -9.4650   21.7650  -31.7460 C   0  0  0  0  0  0  0  0  0  0  0  0
   -8.0350   19.8460  -32.4780 N   0  0  0  0  0  0  0  0  0  0  0  0
   -6.7500   19.6860  -32.8510 C   0  0  0  0  0  0  0  0  0  0  0  0
   -6.1890   18.3970  -33.3100 C   0  0  0  0  0  0  0  0  0  0  0  0
   -5.5240   18.3260  -34.5460 C   0  0  0  0  0  0  0  0  0  0  0  0
   -4.9730   17.1180  -34.9840 C   0  0  0  0  0  0  0  0  0  0  0  0
   -5.0700   15.9750  -34.1870 C   0  0  0  0  0  0  0  0  0  0  0  0
   -5.7120   16.0400  -32.9490 C   0  0  0  0  0  0  0  0  0  0  0  0
   -6.2650   17.2450  -32.5070 C   0  0  0  0  0  0  0  0  0  0  0  0
   -6.1030   20.9120  -32.7430 C   0  0  0  0  0  0  0  0  0  0  0  0
   -4.6620   21.1970  -33.0600 C   0  0  0  0  0  0  0  0  0  0  0  0
   -6.0867   25.5920  -28.4999 H   0  0  0  0  0  0  0  0  0  0  0  0
   -7.1657   26.3210  -29.7372 H   0  0  0  0  0  0  0  0  0  0  0  0
   -6.8673   24.5497  -29.7372 H   0  0  0  0  0  0  0  0  0  0  0  0
   -5.4359   26.5596  -31.1684 H   0  0  0  0  0  0  0  0  0  0  0  0
   -4.3356   25.9856  -29.8729 H   0  0  0  0  0  0  0  0  0  0  0  0
   -5.5176   22.6610  -30.5513 H   0  0  0  0  0  0  0  0  0  0  0  0
   -6.6694   23.9820  -30.1388 H   0  0  0  0  0  0  0  0  0  0  0  0
   -7.7799   23.7771  -32.1060 H   0  0  0  0  0  0  0  0  0  0  0  0
   -6.2422   23.6511  -33.0468 H   0  0  0  0  0  0  0  0  0  0  0  0
   -9.5101   21.7863  -30.6471 H   0  0  0  0  0  0  0  0  0  0  0  0
   -9.5352   22.7912  -32.1358 H   0  0  0  0  0  0  0  0  0  0  0  0
  -10.3017   21.1667  -32.1358 H   0  0  0  0  0  0  0  0  0  0  0  0
   -8.7830   19.1170  -32.4600 H   0  0  0  0  0  0  0  0  0  0  0  0
   -5.4365   19.2260  -35.1724 H   0  0  0  0  0  0  0  0  0  0  0  0
   -4.4626   17.0677  -35.9571 H   0  0  0  0  0  0  0  0  0  0  0  0
   -4.6406   15.0238  -34.5347 H   0  0  0  0  0  0  0  0  0  0  0  0
   -5.7828   15.1405  -32.3198 H   0  0  0  0  0  0  0  0  0  0  0  0
   -6.7619   17.2926  -31.5268 H   0  0  0  0  0  0  0  0  0  0  0  0
   -4.0958   21.3090  -32.1236 H   0  0  0  0  0  0  0  0  0  0  0  0
   -4.2434   20.3642  -33.6442 H   0  0  0  0  0  0  0  0  0  0  0  0
   -4.5920   22.1264  -33.6442 H   0  0  0  0  0  0  0  0  0  0  0  0
  1  2  1  0
  2  3  1  0
  3  4  1  0
  4  5  1  0
  5  6  1  0
  6  7  1  0
  7  8  1  0
  7  9  2  0
  9 10  1  0
 10 11  1  0
 11 12  2  0
 12 13  1  0
 13 14  2  0
 14 15  1  0
 15 16  2  0
 10 17  2  0
 17 18  1  0
 17  6  1  0
 16 11  1  0
  1 19  1  0
  1 20  1  0
  1 21  1  0
  2 22  1  0
  2 23  1  0
  4 24  1  0
  4 25  1  0
  5 26  1  0
  5 27  1  0
  8 28  1  0
  8 29  1  0
  8 30  1  0
  9 31  1  0
 12 32  1  0
 13 33  1  0
 14 34  1  0
 15 35  1  0
 16 36  1  0
 18 37  1  0
 18 38  1  0
 18 39  1  0
M  CHG  1   9   1
M  END
>  <UniqueID>  (32) 
30

>  <SMILES>  (32) 
CCOCCn1c(C)[nH+]c(-c2ccccc2)c1C

>  <Energy>  (32) 
67.87976705878992

>  <Genealogy>  (32) 
CCOCCn1c(C)[nH+]c(-c2ccccc2)c1C (protonated)
CCOCCn1c(C)[nH+]c(-c2ccccc2)c1C (3D coordinates assigned)
CCOCCn1c(C)[nH+]c(-c2ccccc2)c1C (optimized conformer: 67.87976705878992 kcal/mol)

>  <smiles>  (32) 
CCOCCn1c(C)nc(-c2ccccc2)c1C

>  <score_type>  (32) 
oracle

>  <origin>  (32) 
adg

>  <m_score__min__energy>  (32) 
-6.4800000000000004

>  <m_primary>  (32) 
energy

$$$$
32:0
     RDKit          3D

 39 40  0  0  0  0  0  0  0  0999 V2000
   -6.6460   24.5380  -30.2650 C   0  0  0  0  0  0  0  0  0  0  0  0
   -7.1010   23.0760  -30.1520 C   0  0  0  0  0  0  0  0  0  0  0  0
   -7.2680   22.3940  -31.4560 N   0  0  0  0  0  0  0  0  0  0  0  0
   -8.6680   21.9970  -31.6980 C   0  0  0  0  0  0  0  0  0  0  0  0
   -6.3290   21.2640  -31.6320 C   0  0  0  0  0  0  0  0  0  0  0  0
   -5.1470   21.6780  -32.5160 C   0  0  0  0  0  0  0  0  0  0  0  0
   -4.5110   22.8910  -32.0040 N   0  0  0  0  0  0  0  0  0  0  0  0
   -3.6670   22.8660  -30.8460 C   0  0  0  0  0  0  0  0  0  0  0  0
   -3.1880   21.7440  -30.1880 C   0  0  0  0  0  0  0  0  0  0  0  0
   -2.4450   22.2350  -29.1300 C   0  0  0  0  0  0  0  0  0  0  0  0
   -1.7810   21.4480  -28.1970 O   0  0  0  0  0  0  0  0  0  0  0  0
   -2.4380   23.5850  -29.1200 N   0  0  0  0  0  0  0  0  0  0  0  0
   -1.8130   24.4330  -28.1450 C   0  0  0  0  0  0  0  0  0  0  0  0
   -0.4680   24.8010  -28.3090 C   0  0  0  0  0  0  0  0  0  0  0  0
    0.1620   25.6170  -27.3670 C   0  0  0  0  0  0  0  0  0  0  0  0
   -0.5470   26.0790  -26.2560 C   0  0  0  0  0  0  0  0  0  0  0  0
   -1.8900   25.7310  -26.0890 C   0  0  0  0  0  0  0  0  0  0  0  0
   -2.5290   24.9130  -27.0290 C   0  0  0  0  0  0  0  0  0  0  0  0
   -4.2410   24.5640  -26.8170 Cl  0  0  0  0  0  0  0  0  0  0  0  0
   -3.1980   23.9710  -30.1640 C   0  0  0  0  0  0  0  0  0  0  0  0
   -3.4880   25.2940  -30.4770 O   0  0  0  0  0  0  0  0  0  0  0  0
   -6.5147   24.9600  -29.2577 H   0  0  0  0  0  0  0  0  0  0  0  0
   -5.6911   24.5838  -30.8091 H   0  0  0  0  0  0  0  0  0  0  0  0
   -7.4063   25.1176  -30.8091 H   0  0  0  0  0  0  0  0  0  0  0  0
   -6.3503   22.5245  -29.5670 H   0  0  0  0  0  0  0  0  0  0  0  0
   -8.0897   23.0870  -29.6700 H   0  0  0  0  0  0  0  0  0  0  0  0
   -9.1797   21.8519  -30.7351 H   0  0  0  0  0  0  0  0  0  0  0  0
   -9.1792   22.7856  -32.2697 H   0  0  0  0  0  0  0  0  0  0  0  0
   -8.6891   21.0575  -32.2697 H   0  0  0  0  0  0  0  0  0  0  0  0
   -5.9518   20.9506  -30.6474 H   0  0  0  0  0  0  0  0  0  0  0  0
   -6.8612   20.4327  -32.1176 H   0  0  0  0  0  0  0  0  0  0  0  0
   -4.4077   20.8637  -32.5331 H   0  0  0  0  0  0  0  0  0  0  0  0
   -5.5211   21.8793  -33.5307 H   0  0  0  0  0  0  0  0  0  0  0  0
   -4.6690   23.8060  -32.4840 H   0  0  0  0  0  0  0  0  0  0  0  0
   -3.3615   20.6900  -30.4508 H   0  0  0  0  0  0  0  0  0  0  0  0
    0.0932   24.4442  -29.1852 H   0  0  0  0  0  0  0  0  0  0  0  0
    1.2176   25.8961  -27.5002 H   0  0  0  0  0  0  0  0  0  0  0  0
   -0.0479   26.7172  -25.5119 H   0  0  0  0  0  0  0  0  0  0  0  0
   -2.4474   26.1010  -25.2158 H   0  0  0  0  0  0  0  0  0  0  0  0
  1  2  1  0
  2  3  1  0
  3  4  1  0
  3  5  1  0
  5  6  1  0
  6  7  1  0
  7  8  1  0
  8  9  1  0
  9 10  2  0
 10 11  1  0
 10 12  1  0
 12 13  1  0
 13 14  2  0
 14 15  1  0
 15 16  2  0
 16 17  1  0
 17 18  2  0
 18 19  1  0
 12 20  1  0
 20 21  1  0
 20  8  2  0
 18 13  1  0
  1 22  1  0
  1 23  1  0
  1 24  1  0
  2 25  1  0
  2 26  1  0
  4 27  1  0
  4 28  1  0
  4 29  1  0
  5 30  1  0
  5 31  1  0
  6 32  1  0
  6 33  1  0
  7 34  1  0
  9 35  1  0
 14 36  1  0
 15 37  1  0
 16 38  1  0
 17 39  1  0
M  CHG  2  11  -1  21  -1
M  END
>  <UniqueID>  (33) 
31

>  <SMILES>  (33) 
CCN(C)CCNc1cc([O-])n(-c2ccccc2Cl)c1[O-]

>  <Energy>  (33) 
73.65657950670823

>  <Genealogy>  (33) 
CCN(C)CCNc1cc([O-])n(-c2ccccc2Cl)c1[O-] (protonated)
CCN(C)CCNc1cc([O-])n(-c2ccccc2Cl)c1[O-] (3D coordinates assigned)
CCN(C)CCNc1cc([O-])n(-c2ccccc2Cl)c1[O-] (optimized conformer: 73.65657950670823 kcal/mol)

>  <smiles>  (33) 
CCN(C)CCNc1cc(O)n(-c2ccccc2Cl)c1O

>  <score_type>  (33) 
oracle

>  <origin>  (33) 
adg

>  <m_score__min__energy>  (33) 
-9.9700000000000006

>  <m_primary>  (33) 
energy

$$$$
33:0
     RDKit          3D

 39 41  0  0  0  0  0  0  0  0999 V2000
   -0.8240   19.9670  -27.3570 C   0  0  0  0  0  0  0  0  0  0  0  0
   -0.3390   21.2640  -27.6890 O   0  0  0  0  0  0  0  0  0  0  0  0
   -1.1100   22.2680  -28.2950 C   0  0  0  0  0  0  0  0  0  0  0  0
   -0.6940   23.6130  -28.3420 C   0  0  0  0  0  0  0  0  0  0  0  0
   -1.4960   24.5790  -28.9570 C   0  0  0  0  0  0  0  0  0  0  0  0
   -2.7170   24.2160  -29.5300 C   0  0  0  0  0  0  0  0  0  0  0  0
   -3.5000   25.1570  -30.1250 N   0  0  0  0  0  0  0  0  0  0  0  0
   -4.6950   24.8450  -30.6920 C   0  0  0  0  0  0  0  0  0  0  0  0
   -5.3820   25.7590  -31.2230 O   0  0  0  0  0  0  0  0  0  0  0  0
   -5.1580   23.5160  -30.6830 C   0  0  0  0  0  0  0  0  0  0  0  0
   -6.4960   23.1510  -31.2830 C   0  0  0  0  0  0  0  0  0  0  0  0
   -6.6600   21.6830  -31.3590 N   0  0  0  0  0  0  0  0  0  0  0  0
   -6.1790   21.1530  -32.6610 C   0  0  0  0  0  0  0  0  0  0  0  0
   -6.8110   19.7920  -32.9810 C   0  0  0  0  0  0  0  0  0  0  0  0
   -8.2800   19.8860  -33.0980 N   0  0  0  0  0  0  0  0  0  0  0  0
   -8.8770   20.9730  -32.2960 C   0  0  0  0  0  0  0  0  0  0  0  0
   -8.0500   21.2730  -31.0360 C   0  0  0  0  0  0  0  0  0  0  0  0
   -4.3690   22.5300  -30.0690 C   0  0  0  0  0  0  0  0  0  0  0  0
   -3.1420   22.8720  -29.4890 C   0  0  0  0  0  0  0  0  0  0  0  0
   -2.3340   21.9070  -28.8700 C   0  0  0  0  0  0  0  0  0  0  0  0
   -0.8642   19.8595  -26.2630 H   0  0  0  0  0  0  0  0  0  0  0  0
   -1.8325   19.8344  -27.7758 H   0  0  0  0  0  0  0  0  0  0  0  0
   -0.1500   19.2052  -27.7758 H   0  0  0  0  0  0  0  0  0  0  0  0
    0.2667   23.9047  -27.8926 H   0  0  0  0  0  0  0  0  0  0  0  0
   -1.1647   25.6274  -28.9897 H   0  0  0  0  0  0  0  0  0  0  0  0
   -7.2974   23.5706  -30.6571 H   0  0  0  0  0  0  0  0  0  0  0  0
   -6.5473   23.5626  -32.3018 H   0  0  0  0  0  0  0  0  0  0  0  0
   -6.4425   21.8656  -33.4565 H   0  0  0  0  0  0  0  0  0  0  0  0
   -5.0886   21.0217  -32.5990 H   0  0  0  0  0  0  0  0  0  0  0  0
   -6.4005   19.4232  -33.9326 H   0  0  0  0  0  0  0  0  0  0  0  0
   -6.5761   19.1025  -32.1567 H   0  0  0  0  0  0  0  0  0  0  0  0
   -8.5350   20.0350  -34.1030 H   0  0  0  0  0  0  0  0  0  0  0  0
   -8.6970   18.9720  -32.8010 H   0  0  0  0  0  0  0  0  0  0  0  0
   -8.9296   21.8826  -32.9123 H   0  0  0  0  0  0  0  0  0  0  0  0
   -9.8801   20.6522  -31.9782 H   0  0  0  0  0  0  0  0  0  0  0  0
   -8.5379   22.0856  -30.4778 H   0  0  0  0  0  0  0  0  0  0  0  0
   -7.9988   20.3503  -30.4394 H   0  0  0  0  0  0  0  0  0  0  0  0
   -4.7160   21.4865  -30.0438 H   0  0  0  0  0  0  0  0  0  0  0  0
   -2.6648   20.8585  -28.8362 H   0  0  0  0  0  0  0  0  0  0  0  0
  1  2  1  0
  2  3  1  0
  3  4  2  0
  4  5  1  0
  5  6  2  0
  6  7  1  0
  7  8  1  0
  8  9  2  0
  8 10  1  0
 10 11  1  0
 11 12  1  0
 12 13  1  0
 13 14  1  0
 14 15  1  0
 15 16  1  0
 16 17  1  0
 10 18  2  0
 18 19  1  0
 19 20  2  0
 20  3  1  0
 19  6  1  0
 17 12  1  0
  1 21  1  0
  1 22  1  0
  1 23  1  0
  4 24  1  0
  5 25  1  0
 11 26  1  0
 11 27  1  0
 13 28  1  0
 13 29  1  0
 14 30  1  0
 14 31  1  0
 15 32  1  0
 15 33  1  0
 16 34  1  0
 16 35  1  0
 17 36  1  0
 17 37  1  0
 18 38  1  0
 20 39  1  0
M  CHG  2   7  -1  15   1
M  END
>  <UniqueID>  (34) 
32

>  <SMILES>  (34) 
COc1ccc2[n-]c(=O)c(CN3CC[NH2+]CC3)cc2c1

>  <Energy>  (34) 
53.93161089856283

>  <Genealogy>  (34) 
COc1ccc2[n-]c(=O)c(CN3CC[NH2+]CC3)cc2c1 (protonated)
COc1ccc2[n-]c(=O)c(CN3CC[NH2+]CC3)cc2c1 (3D coordinates assigned)
COc1ccc2[n-]c(=O)c(CN3CC[NH2+]CC3)cc2c1 (nonaromatic ring conformer: 53.93161089856283 kcal/mol)

>  <smiles>  (34) 
COc1ccc2[nH]c(=O)c(CN3CCNCC3)cc2c1

>  <score_type>  (34) 
oracle

>  <origin>  (34) 
adg

>  <m_score__min__energy>  (34) 
-8.7799999999999994

>  <m_primary>  (34) 
energy

$$$$
34:0
     RDKit          3D

 41 44  0  0  0  0  0  0  0  0999 V2000
   -2.0040   25.0200  -28.5730 C   0  0  0  0  0  0  0  0  0  0  0  0
   -2.8400   24.8750  -29.7170 O   0  0  0  0  0  0  0  0  0  0  0  0
   -3.2870   23.6460  -30.2310 C   0  0  0  0  0  0  0  0  0  0  0  0
   -2.5030   22.4820  -30.1370 C   0  0  0  0  0  0  0  0  0  0  0  0
   -2.9490   21.2840  -30.6900 C   0  0  0  0  0  0  0  0  0  0  0  0
   -4.1830   21.2250  -31.3350 C   0  0  0  0  0  0  0  0  0  0  0  0
   -5.0140   22.3600  -31.4020 C   0  0  0  0  0  0  0  0  0  0  0  0
   -4.5490   23.5820  -30.8620 C   0  0  0  0  0  0  0  0  0  0  0  0
   -5.3880   24.8220  -31.0270 C   0  0  0  0  0  0  0  0  0  0  0  0
   -6.8600   24.4840  -30.8240 C   0  0  0  0  0  0  0  0  0  0  0  0
   -7.3500   23.4420  -31.8400 C   0  0  0  0  0  0  0  0  0  0  0  0
   -6.3290   22.3120  -32.1780 C   0  0  2  0  0  0  0  0  0  0  0  0
   -7.0130   20.9430  -32.1390 C   0  0  0  0  0  0  0  0  0  0  0  0
   -8.1370   20.7930  -31.3050 C   0  0  0  0  0  0  0  0  0  0  0  0
   -8.7950   19.5670  -31.2230 C   0  0  0  0  0  0  0  0  0  0  0  0
   -8.3540   18.5060  -31.9410 N   0  0  0  0  0  0  0  0  0  0  0  0
   -7.2710   18.5910  -32.7550 C   0  0  0  0  0  0  0  0  0  0  0  0
   -6.8620   17.4580  -33.4690 C   0  0  0  0  0  0  0  0  0  0  0  0
   -5.7500   17.5220  -34.3090 C   0  0  0  0  0  0  0  0  0  0  0  0
   -5.0420   18.7160  -34.4410 C   0  0  0  0  0  0  0  0  0  0  0  0
   -5.4400   19.8530  -33.7340 C   0  0  0  0  0  0  0  0  0  0  0  0
   -6.5610   19.8140  -32.8780 C   0  0  0  0  0  0  0  0  0  0  0  0
   -2.6095   24.9150  -27.6607 H   0  0  0  0  0  0  0  0  0  0  0  0
   -1.2249   24.2436  -28.5874 H   0  0  0  0  0  0  0  0  0  0  0  0
   -1.5319   26.0134  -28.5874 H   0  0  0  0  0  0  0  0  0  0  0  0
   -1.5310   22.5181  -29.6232 H   0  0  0  0  0  0  0  0  0  0  0  0
   -2.3249   20.3811  -30.6174 H   0  0  0  0  0  0  0  0  0  0  0  0
   -4.5113   20.2821  -31.7966 H   0  0  0  0  0  0  0  0  0  0  0  0
   -5.0802   25.5720  -30.2835 H   0  0  0  0  0  0  0  0  0  0  0  0
   -5.2454   25.2230  -32.0413 H   0  0  0  0  0  0  0  0  0  0  0  0
   -6.9968   24.0834  -29.8087 H   0  0  0  0  0  0  0  0  0  0  0  0
   -7.4456   25.4040  -30.9676 H   0  0  0  0  0  0  0  0  0  0  0  0
   -8.2569   22.9706  -31.4334 H   0  0  0  0  0  0  0  0  0  0  0  0
   -7.5219   23.9887  -32.7789 H   0  0  0  0  0  0  0  0  0  0  0  0
   -5.9982   22.5025  -33.2097 H   0  0  0  0  0  0  0  0  0  0  0  0
   -8.4981   21.6481  -30.7147 H   0  0  0  0  0  0  0  0  0  0  0  0
   -9.6758   19.4604  -30.5728 H   0  0  0  0  0  0  0  0  0  0  0  0
   -7.4190   16.5149  -33.3673 H   0  0  0  0  0  0  0  0  0  0  0  0
   -5.4314   16.6296  -34.8678 H   0  0  0  0  0  0  0  0  0  0  0  0
   -4.1662   18.7627  -35.1049 H   0  0  0  0  0  0  0  0  0  0  0  0
   -4.8733   20.7891  -33.8458 H   0  0  0  0  0  0  0  0  0  0  0  0
  1  2  1  0
  2  3  1  0
  3  4  2  0
  4  5  1  0
  5  6  2  0
  6  7  1  0
  7  8  2  0
  8  9  1  0
  9 10  1  0
 10 11  1  0
 11 12  1  0
 12 13  1  0
 13 14  2  0
 14 15  1  0
 15 16  2  0
 16 17  1  0
 17 18  2  0
 18 19  1  0
 19 20  2  0
 20 21  1  0
 21 22  2  0
  8  3  1  0
 22 13  1  0
 12  7  1  0
 22 17  1  0
  1 23  1  0
  1 24  1  0
  1 25  1  0
  4 26  1  0
  5 27  1  0
  6 28  1  0
  9 29  1  0
  9 30  1  0
 10 31  1  0
 10 32  1  0
 11 33  1  0
 11 34  1  0
 12 35  1  6
 14 36  1  0
 15 37  1  0
 18 38  1  0
 19 39  1  0
 20 40  1  0
 21 41  1  0
M  END
>  <UniqueID>  (35) 
33

>  <SMILES>  (35) 
COc1cccc2c1CCC[C@@H]2c1ccnc2ccccc12

>  <Energy>  (35) 
58.556665922193254

>  <Genealogy>  (35) 
COc1cccc2c1CCC[C@@H]2c1ccnc2ccccc12 (chirality)
COc1cccc2c1CCC[C@@H]2c1ccnc2ccccc12 (3D coordinates assigned)
COc1cccc2c1CCC[C@@H]2c1ccnc2ccccc12 (nonaromatic ring conformer: 58.556665922193254 kcal/mol)

>  <smiles>  (35) 
COc1cccc2c1CCCC2c1ccnc2ccccc12

>  <score_type>  (35) 
oracle

>  <origin>  (35) 
adg

>  <m_score__min__energy>  (35) 
-9.4199999999999999

>  <m_primary>  (35) 
energy

$$$$
35:0
     RDKit          3D

 51 53  0  0  0  0  0  0  0  0999 V2000
   -4.8720   15.2450  -32.4690 C   0  0  0  0  0  0  0  0  0  0  0  0
   -3.9260   15.3820  -33.6640 C   0  0  0  0  0  0  0  0  0  0  0  0
   -4.2360   16.6020  -34.4600 N   0  0  0  0  0  0  0  0  0  0  0  0
   -3.4890   17.7850  -33.9520 C   0  0  0  0  0  0  0  0  0  0  0  0
   -4.2910   18.5790  -32.9190 C   0  0  0  0  0  0  0  0  0  0  0  0
   -5.5640   19.0140  -33.4970 N   0  0  0  0  0  0  0  0  0  0  0  0
   -6.2760   20.1170  -32.9030 C   0  0  0  0  0  0  0  0  0  0  0  0
   -7.6400   20.1020  -32.8770 N   0  0  0  0  0  0  0  0  0  0  0  0
   -8.3460   21.1200  -32.3130 C   0  0  0  0  0  0  0  0  0  0  0  0
   -9.8410   21.0800  -32.2940 C   0  0  0  0  0  0  0  0  0  0  0  0
   -7.6890   22.1410  -31.7050 N   0  0  0  0  0  0  0  0  0  0  0  0
   -6.3310   22.2040  -31.6800 C   0  0  0  0  0  0  0  0  0  0  0  0
   -5.6980   23.2290  -30.8930 N   0  0  0  0  0  0  0  0  0  0  0  0
   -4.4050   22.9160  -30.2670 C   0  0  0  0  0  0  0  0  0  0  0  0
   -3.7860   24.1430  -29.6180 C   0  0  0  0  0  0  0  0  0  0  0  0
   -3.9250   25.2470  -30.4760 O   0  0  0  0  0  0  0  0  0  0  0  0
   -5.2670   25.6840  -30.4570 C   0  0  0  0  0  0  0  0  0  0  0  0
   -6.2690   24.5930  -30.9120 C   0  0  0  0  0  0  0  0  0  0  0  0
   -5.5830   21.2000  -32.3290 C   0  0  0  0  0  0  0  0  0  0  0  0
   -4.1850   21.2500  -32.4010 O   0  0  0  0  0  0  0  0  0  0  0  0
   -3.4950   21.9120  -33.4580 C   0  0  0  0  0  0  0  0  0  0  0  0
   -6.0900   18.3070  -34.6710 C   0  0  0  0  0  0  0  0  0  0  0  0
   -5.7060   16.8240  -34.5890 C   0  0  0  0  0  0  0  0  0  0  0  0
   -4.2972   15.3282  -31.5349 H   0  0  0  0  0  0  0  0  0  0  0  0
   -5.6282   16.0430  -32.5066 H   0  0  0  0  0  0  0  0  0  0  0  0
   -5.3707   14.2653  -32.5066 H   0  0  0  0  0  0  0  0  0  0  0  0
   -2.8912   15.4467  -33.2967 H   0  0  0  0  0  0  0  0  0  0  0  0
   -4.0537   14.5021  -34.3117 H   0  0  0  0  0  0  0  0  0  0  0  0
   -2.5549   17.4396  -33.4850 H   0  0  0  0  0  0  0  0  0  0  0  0
   -3.2899   18.4491  -34.8060 H   0  0  0  0  0  0  0  0  0  0  0  0
   -4.4874   17.9427  -32.0435 H   0  0  0  0  0  0  0  0  0  0  0  0
   -3.7119   19.4638  -32.6161 H   0  0  0  0  0  0  0  0  0  0  0  0
   -8.1570   19.3050  -33.3140 H   0  0  0  0  0  0  0  0  0  0  0  0
  -10.1943   21.0705  -31.2523 H   0  0  0  0  0  0  0  0  0  0  0  0
  -10.2381   21.9678  -32.8078 H   0  0  0  0  0  0  0  0  0  0  0  0
  -10.1901   20.1722  -32.8078 H   0  0  0  0  0  0  0  0  0  0  0  0
   -4.5581   22.1444  -29.4981 H   0  0  0  0  0  0  0  0  0  0  0  0
   -3.7207   22.5592  -31.0508 H   0  0  0  0  0  0  0  0  0  0  0  0
   -4.2968   24.3516  -28.6664 H   0  0  0  0  0  0  0  0  0  0  0  0
   -2.7184   23.9582  -29.4282 H   0  0  0  0  0  0  0  0  0  0  0  0
   -5.5218   25.9870  -29.4307 H   0  0  0  0  0  0  0  0  0  0  0  0
   -5.3492   26.5207  -31.1664 H   0  0  0  0  0  0  0  0  0  0  0  0
   -7.1394   24.6164  -30.2399 H   0  0  0  0  0  0  0  0  0  0  0  0
   -6.5431   24.8167  -31.9536 H   0  0  0  0  0  0  0  0  0  0  0  0
   -2.7625   22.6147  -33.0342 H   0  0  0  0  0  0  0  0  0  0  0  0
   -2.9732   21.1680  -34.0778 H   0  0  0  0  0  0  0  0  0  0  0  0
   -4.2168   22.4642  -34.0778 H   0  0  0  0  0  0  0  0  0  0  0  0
   -7.1857   18.4013  -34.6954 H   0  0  0  0  0  0  0  0  0  0  0  0
   -5.6639   18.7462  -35.5851 H   0  0  0  0  0  0  0  0  0  0  0  0
   -6.2042   16.3821  -33.7135 H   0  0  0  0  0  0  0  0  0  0  0  0
   -6.0259   16.3518  -35.5296 H   0  0  0  0  0  0  0  0  0  0  0  0
  1  2  1  0
  2  3  1  0
  3  4  1  0
  4  5  1  0
  5  6  1  0
  6  7  1  0
  7  8  2  0
  8  9  1  0
  9 10  1  0
  9 11  2  0
 11 12  1  0
 12 13  1  0
 13 14  1  0
 14 15  1  0
 15 16  1  0
 16 17  1  0
 17 18  1  0
 12 19  2  0
 19 20  1  0
 20 21  1  0
  6 22  1  0
 22 23  1  0
 23  3  1  0
 19  7  1  0
 18 13  1  0
  1 24  1  0
  1 25  1  0
  1 26  1  0
  2 27  1  0
  2 28  1  0
  4 29  1  0
  4 30  1  0
  5 31  1  0
  5 32  1  0
  8 33  1  0
 10 34  1  0
 10 35  1  0
 10 36  1  0
 14 37  1  0
 14 38  1  0
 15 39  1  0
 15 40  1  0
 17 41  1  0
 17 42  1  0
 18 43  1  0
 18 44  1  0
 21 45  1  0
 21 46  1  0
 21 47  1  0
 22 48  1  0
 22 49  1  0
 23 50  1  0
 23 51  1  0
M  CHG  1   8   1
M  END
>  <UniqueID>  (36) 
34

>  <SMILES>  (36) 
CCN1CCN(c2[nH+]c(C)nc(N3CCOCC3)c2OC)CC1

>  <Energy>  (36) 
74.21721306266016

>  <Genealogy>  (36) 
CCN1CCN(c2[nH+]c(C)nc(N3CCOCC3)c2OC)CC1 (protonated)
CCN1CCN(c2[nH+]c(C)nc(N3CCOCC3)c2OC)CC1 (3D coordinates assigned)
CCN1CCN(c2[nH+]c(C)nc(N3CCOCC3)c2OC)CC1 (nonaromatic ring conformer: 74.21721306266016 kcal/mol)

>  <smiles>  (36) 
CCN1CCN(c2nc(C)nc(N3CCOCC3)c2OC)CC1

>  <score_type>  (36) 
oracle

>  <origin>  (36) 
adg

>  <m_score__min__energy>  (36) 
-7.1299999999999999

>  <m_primary>  (36) 
energy

$$$$
36:0
     RDKit          3D

 50 53  0  0  0  0  0  0  0  0999 V2000
   -3.9970   15.9930  -34.5570 C   0  0  0  0  0  0  0  0  0  0  0  0
   -4.6600   16.1890  -33.3120 O   0  0  0  0  0  0  0  0  0  0  0  0
   -5.6570   17.1510  -33.0870 C   0  0  0  0  0  0  0  0  0  0  0  0
   -7.0080   16.8060  -32.9360 C   0  0  0  0  0  0  0  0  0  0  0  0
   -7.9550   17.8060  -32.7260 C   0  0  0  0  0  0  0  0  0  0  0  0
   -7.5810   19.1120  -32.6600 N   0  0  0  0  0  0  0  0  0  0  0  0
   -6.2690   19.4970  -32.7860 C   0  0  0  0  0  0  0  0  0  0  0  0
   -5.2910   18.5010  -33.0130 C   0  0  0  0  0  0  0  0  0  0  0  0
   -3.9930   18.8560  -33.1650 N   0  0  0  0  0  0  0  0  0  0  0  0
   -3.5920   20.1490  -33.1140 C   0  0  0  0  0  0  0  0  0  0  0  0
   -2.1500   20.4510  -33.2870 C   0  0  0  0  0  0  0  0  0  0  0  0
   -1.5350   20.3710  -34.5510 C   0  0  0  0  0  0  0  0  0  0  0  0
   -0.1790   20.6840  -34.7000 C   0  0  0  0  0  0  0  0  0  0  0  0
    0.5710   21.0900  -33.5940 C   0  0  0  0  0  0  0  0  0  0  0  0
   -0.0330   21.1890  -32.3380 C   0  0  0  0  0  0  0  0  0  0  0  0
   -1.3880   20.8790  -32.1850 C   0  0  0  0  0  0  0  0  0  0  0  0
   -4.5590   21.1560  -32.9190 C   0  0  0  0  0  0  0  0  0  0  0  0
   -4.2070   22.3680  -32.9590 O   0  0  0  0  0  0  0  0  0  0  0  0
   -5.8790   20.8210  -32.7150 N   0  0  0  0  0  0  0  0  0  0  0  0
   -6.8590   21.9010  -32.4650 C   0  0  0  0  0  0  0  0  0  0  0  0
   -6.7270   22.4230  -31.0270 C   0  0  0  0  0  0  0  0  0  0  0  0
   -5.6840   23.4670  -30.9370 N   0  0  0  0  0  0  0  0  0  0  0  0
   -4.5940   23.0690  -30.0130 C   0  0  0  0  0  0  0  0  0  0  0  0
   -3.7250   24.2780  -29.6150 C   0  0  0  0  0  0  0  0  0  0  0  0
   -3.8790   25.3180  -30.5550 O   0  0  0  0  0  0  0  0  0  0  0  0
   -5.1890   25.8490  -30.4670 C   0  0  0  0  0  0  0  0  0  0  0  0
   -6.2740   24.7490  -30.5080 C   0  0  0  0  0  0  0  0  0  0  0  0
   -2.9568   15.6855  -34.3741 H   0  0  0  0  0  0  0  0  0  0  0  0
   -4.5157   15.2098  -35.1293 H   0  0  0  0  0  0  0  0  0  0  0  0
   -4.0064   16.9324  -35.1293 H   0  0  0  0  0  0  0  0  0  0  0  0
   -7.3182   15.7517  -32.9831 H   0  0  0  0  0  0  0  0  0  0  0  0
   -9.0155   17.5367  -32.6125 H   0  0  0  0  0  0  0  0  0  0  0  0
   -8.3520   19.7990  -32.5240 H   0  0  0  0  0  0  0  0  0  0  0  0
   -2.1238   20.0606  -35.4268 H   0  0  0  0  0  0  0  0  0  0  0  0
    0.2965   20.6102  -35.6892 H   0  0  0  0  0  0  0  0  0  0  0  0
    1.6376   21.3319  -33.7118 H   0  0  0  0  0  0  0  0  0  0  0  0
    0.5582   21.5113  -31.4682 H   0  0  0  0  0  0  0  0  0  0  0  0
   -1.8611   20.9705  -31.1962 H   0  0  0  0  0  0  0  0  0  0  0  0
   -6.6754   22.7266  -33.1683 H   0  0  0  0  0  0  0  0  0  0  0  0
   -7.8738   21.5011  -32.6071 H   0  0  0  0  0  0  0  0  0  0  0  0
   -7.6902   22.8482  -30.7086 H   0  0  0  0  0  0  0  0  0  0  0  0
   -6.4417   21.5848  -30.3743 H   0  0  0  0  0  0  0  0  0  0  0  0
   -5.0359   22.6316  -29.1056 H   0  0  0  0  0  0  0  0  0  0  0  0
   -3.9541   22.3369  -30.5273 H   0  0  0  0  0  0  0  0  0  0  0  0
   -4.0341   24.6367  -28.6221 H   0  0  0  0  0  0  0  0  0  0  0  0
   -2.6695   23.9693  -29.5905 H   0  0  0  0  0  0  0  0  0  0  0  0
   -5.2830   26.4029  -29.5213 H   0  0  0  0  0  0  0  0  0  0  0  0
   -5.3440   26.5058  -31.3356 H   0  0  0  0  0  0  0  0  0  0  0  0
   -6.7097   24.6308  -29.5049 H   0  0  0  0  0  0  0  0  0  0  0  0
   -7.0553   25.0421  -31.2247 H   0  0  0  0  0  0  0  0  0  0  0  0
  1  2  1  0
  2  3  1  0
  3  4  2  0
  4  5  1  0
  5  6  2  0
  6  7  1  0
  7  8  2  0
  8  9  1  0
  9 10  2  0
 10 11  1  0
 11 12  2  0
 12 13  1  0
 13 14  2  0
 14 15  1  0
 15 16  2  0
 10 17  1  0
 17 18  2  0
 17 19  1  0
 19 20  1  0
 20 21  1  0
 21 22  1  0
 22 23  1  0
 23 24  1  0
 24 25  1  0
 25 26  1  0
 26 27  1  0
  8  3  1  0
 16 11  1  0
 27 22  1  0
 19  7  1  0
  1 28  1  0
  1 29  1  0
  1 30  1  0
  4 31  1  0
  5 32  1  0
  6 33  1  0
 12 34  1  0
 13 35  1  0
 14 36  1  0
 15 37  1  0
 16 38  1  0
 20 39  1  0
 20 40  1  0
 21 41  1  0
 21 42  1  0
 23 43  1  0
 23 44  1  0
 24 45  1  0
 24 46  1  0
 26 47  1  0
 26 48  1  0
 27 49  1  0
 27 50  1  0
M  CHG  1   6   1
M  END
>  <UniqueID>  (37) 
35

>  <SMILES>  (37) 
COc1cc[nH+]c2c1nc(-c1ccccc1)c(=O)n2CCN1CCOCC1

>  <Energy>  (37) 
77.22803029628476

>  <Genealogy>  (37) 
COc1cc[nH+]c2c1nc(-c1ccccc1)c(=O)n2CCN1CCOCC1 (protonated)
COc1cc[nH+]c2c1nc(-c1ccccc1)c(=O)n2CCN1CCOCC1 (3D coordinates assigned)
COc1cc[nH+]c2c1nc(-c1ccccc1)c(=O)n2CCN1CCOCC1 (nonaromatic ring conformer: 77.22803029628476 kcal/mol)

>  <smiles>  (37) 
COc1ccnc2c1nc(-c1ccccc1)c(=O)n2CCN1CCOCC1

>  <score_type>  (37) 
oracle

>  <origin>  (37) 
adg

>  <m_score__min__energy>  (37) 
-7.6900000000000004

>  <m_primary>  (37) 
energy

$$$$
37:0
     RDKit          3D

 46 48  0  0  0  0  0  0  0  0999 V2000
   -4.2010   24.1390  -28.1650 C   0  0  0  0  0  0  0  0  0  0  0  0
   -3.2110   24.4410  -29.2890 C   0  0  0  0  0  0  0  0  0  0  0  0
   -3.8790   24.3730  -30.6100 N   0  0  0  0  0  0  0  0  0  0  0  0
   -5.1630   25.1050  -30.5710 C   0  0  0  0  0  0  0  0  0  0  0  0
   -4.0930   22.9620  -31.0120 C   0  0  0  0  0  0  0  0  0  0  0  0
   -2.8220   22.3530  -31.6210 C   0  0  0  0  0  0  0  0  0  0  0  0
   -3.1600   21.2350  -32.6110 C   0  0  0  0  0  0  0  0  0  0  0  0
   -4.4430   21.5070  -33.2560 N   0  0  0  0  0  0  0  0  0  0  0  0
   -5.6160   20.7480  -32.9230 C   0  0  0  0  0  0  0  0  0  0  0  0
   -6.8000   21.3770  -32.4730 C   0  0  0  0  0  0  0  0  0  0  0  0
   -6.8730   22.7800  -32.3550 C   0  0  0  0  0  0  0  0  0  0  0  0
   -8.0410   23.3970  -31.9140 C   0  0  0  0  0  0  0  0  0  0  0  0
   -9.1560   22.6330  -31.5850 C   0  0  0  0  0  0  0  0  0  0  0  0
   -9.1170   21.2440  -31.7000 C   0  0  0  0  0  0  0  0  0  0  0  0
   -7.9480   20.5810  -32.1510 C   0  0  0  0  0  0  0  0  0  0  0  0
   -7.9030   19.2040  -32.2810 N   0  0  0  0  0  0  0  0  0  0  0  0
   -9.0760   18.3680  -31.9650 C   0  0  0  0  0  0  0  0  0  0  0  0
   -6.7350   18.6250  -32.7040 C   0  0  0  0  0  0  0  0  0  0  0  0
   -6.3960   16.9840  -32.9020 S   0  0  0  0  0  0  0  0  0  0  0  0
   -4.7950   17.1960  -33.3860 C   0  0  0  0  0  0  0  0  0  0  0  0
   -4.5090   18.5570  -33.3950 C   0  0  0  0  0  0  0  0  0  0  0  0
   -5.6020   19.3550  -33.0200 C   0  0  0  0  0  0  0  0  0  0  0  0
   -3.7089   24.2891  -27.1928 H   0  0  0  0  0  0  0  0  0  0  0  0
   -5.0655   24.8143  -28.2465 H   0  0  0  0  0  0  0  0  0  0  0  0
   -4.5414   23.0962  -28.2465 H   0  0  0  0  0  0  0  0  0  0  0  0
   -2.7985   25.4505  -29.1449 H   0  0  0  0  0  0  0  0  0  0  0  0
   -2.4064   23.6914  -29.2614 H   0  0  0  0  0  0  0  0  0  0  0  0
   -5.4577   25.2730  -29.5246 H   0  0  0  0  0  0  0  0  0  0  0  0
   -5.0485   26.0736  -31.0797 H   0  0  0  0  0  0  0  0  0  0  0  0
   -5.9381   24.5131  -31.0797 H   0  0  0  0  0  0  0  0  0  0  0  0
   -4.3806   22.3773  -30.1258 H   0  0  0  0  0  0  0  0  0  0  0  0
   -4.8875   22.9358  -31.7723 H   0  0  0  0  0  0  0  0  0  0  0  0
   -2.2638   23.1412  -32.1475 H   0  0  0  0  0  0  0  0  0  0  0  0
   -2.2177   21.9253  -30.8074 H   0  0  0  0  0  0  0  0  0  0  0  0
   -2.3727   21.1769  -33.3770 H   0  0  0  0  0  0  0  0  0  0  0  0
   -3.2249   20.2805  -32.0681 H   0  0  0  0  0  0  0  0  0  0  0  0
   -4.4330   22.0450  -34.1520 H   0  0  0  0  0  0  0  0  0  0  0  0
   -5.9979   23.3940  -32.6141 H   0  0  0  0  0  0  0  0  0  0  0  0
   -8.0821   24.4927  -31.8255 H   0  0  0  0  0  0  0  0  0  0  0  0
  -10.0732   23.1273  -31.2323 H   0  0  0  0  0  0  0  0  0  0  0  0
  -10.0070   20.6536  -31.4367 H   0  0  0  0  0  0  0  0  0  0  0  0
   -9.1867   18.2891  -30.8734 H   0  0  0  0  0  0  0  0  0  0  0  0
   -9.9794   18.8270  -32.3929 H   0  0  0  0  0  0  0  0  0  0  0  0
   -8.9369   17.3642  -32.3929 H   0  0  0  0  0  0  0  0  0  0  0  0
   -4.0932   16.3914  -33.6507 H   0  0  0  0  0  0  0  0  0  0  0  0
   -3.5256   18.9671  -33.6684 H   0  0  0  0  0  0  0  0  0  0  0  0
  1  2  1  0
  2  3  1  0
  3  4  1  0
  3  5  1  0
  5  6  1  0
  6  7  1  0
  7  8  1  0
  8  9  1  0
  9 10  2  0
 10 11  1  0
 11 12  2  0
 12 13  1  0
 13 14  2  0
 14 15  1  0
 15 16  2  0
 16 17  1  0
 16 18  1  0
 18 19  1  0
 19 20  1  0
 20 21  2  0
 21 22  1  0
 22  9  1  0
 15 10  1  0
 22 18  2  0
  1 23  1  0
  1 24  1  0
  1 25  1  0
  2 26  1  0
  2 27  1  0
  4 28  1  0
  4 29  1  0
  4 30  1  0
  5 31  1  0
  5 32  1  0
  6 33  1  0
  6 34  1  0
  7 35  1  0
  7 36  1  0
  8 37  1  0
 11 38  1  0
 12 39  1  0
 13 40  1  0
 14 41  1  0
 17 42  1  0
 17 43  1  0
 17 44  1  0
 20 45  1  0
 21 46  1  0
M  CHG  1  16   1
M  END
>  <UniqueID>  (38) 
36

>  <SMILES>  (38) 
CCN(C)CCCNc1c2ccccc2[n+](C)c2sccc12

>  <Energy>  (38) 
89.79492749451688

>  <Genealogy>  (38) 
CCN(C)CCCNc1c2ccccc2[n+](C)c2sccc12 (3D coordinates assigned)
CCN(C)CCCNc1c2ccccc2[n+](C)c2sccc12 (optimized conformer: 89.79492749451688 kcal/mol)

>  <smiles>  (38) 
CCN(C)CCCNc1c2ccccc2[n+](C)c2sccc12

>  <score_type>  (38) 
oracle

>  <origin>  (38) 
adg

>  <m_score__min__energy>  (38) 
-8.3000000000000007

>  <m_primary>  (38) 
energy

$$$$
38:0
     RDKit          3D

 66 69  0  0  0  0  0  0  0  0999 V2000
   -0.1130   21.2090  -35.3230 C   0  0  0  0  0  0  0  0  0  0  0  0
    0.4680   20.5940  -34.0410 C   0  0  0  0  0  0  0  0  0  0  0  0
   -0.0260   19.2290  -33.7370 N   0  0  0  0  0  0  0  0  0  0  0  0
    0.9260   18.4490  -32.9230 C   0  0  0  0  0  0  0  0  0  0  0  0
   -0.4780   18.4960  -34.9450 C   0  0  0  0  0  0  0  0  0  0  0  0
   -1.8460   17.8090  -34.7190 C   0  0  0  0  0  0  0  0  0  0  0  0
   -2.2870   17.7930  -33.3030 N   0  0  0  0  0  0  0  0  0  0  0  0
   -3.7340   17.8940  -33.1720 C   0  0  0  0  0  0  0  0  0  0  0  0
   -4.5960   16.7770  -33.4630 C   0  0  0  0  0  0  0  0  0  0  0  0
   -4.0930   15.4880  -33.7840 C   0  0  0  0  0  0  0  0  0  0  0  0
   -4.9420   14.4450  -34.1520 C   0  0  0  0  0  0  0  0  0  0  0  0
   -6.3110   14.6470  -34.2120 C   0  0  0  0  0  0  0  0  0  0  0  0
   -6.8500   15.8750  -33.8440 C   0  0  0  0  0  0  0  0  0  0  0  0
   -6.0240   16.9440  -33.4190 C   0  0  0  0  0  0  0  0  0  0  0  0
   -6.5760   18.1310  -32.9820 N   0  0  0  0  0  0  0  0  0  0  0  0
   -7.9890   18.2000  -32.5620 C   0  0  0  0  0  0  0  0  0  0  0  0
   -5.7580   19.2190  -32.8440 C   0  0  0  0  0  0  0  0  0  0  0  0
   -6.0820   20.5490  -32.5940 C   0  0  0  0  0  0  0  0  0  0  0  0
   -7.3020   21.2460  -32.5970 C   0  0  0  0  0  0  0  0  0  0  0  0
   -7.2910   22.6140  -32.3040 C   0  0  0  0  0  0  0  0  0  0  0  0
   -6.0820   23.2850  -32.0260 C   0  0  0  0  0  0  0  0  0  0  0  0
   -6.1480   24.6460  -31.7130 O   0  0  0  0  0  0  0  0  0  0  0  0
   -6.5140   25.1670  -30.4370 C   0  0  0  0  0  0  0  0  0  0  0  0
   -5.6870   24.4790  -29.3430 C   0  0  0  0  0  0  0  0  0  0  0  0
   -4.1710   24.6160  -29.5480 C   0  0  0  0  0  0  0  0  0  0  0  0
   -3.8630   25.2870  -30.8080 N   0  0  0  0  0  0  0  0  0  0  0  0
   -4.8610   22.5760  -32.0790 C   0  0  0  0  0  0  0  0  0  0  0  0
   -4.8850   21.2060  -32.3930 C   0  0  0  0  0  0  0  0  0  0  0  0
   -3.8280   20.3630  -32.5610 N   0  0  0  0  0  0  0  0  0  0  0  0
   -2.4230   20.7240  -32.3250 C   0  0  0  0  0  0  0  0  0  0  0  0
   -4.3710   19.1350  -32.8660 C   0  0  0  0  0  0  0  0  0  0  0  0
   -0.8461   21.9850  -35.0578 H   0  0  0  0  0  0  0  0  0  0  0  0
    0.6984   21.6580  -35.9147 H   0  0  0  0  0  0  0  0  0  0  0  0
   -0.6074   20.4244  -35.9147 H   0  0  0  0  0  0  0  0  0  0  0  0
    1.5619   20.5482  -34.1467 H   0  0  0  0  0  0  0  0  0  0  0  0
    0.1437   21.2372  -33.2097 H   0  0  0  0  0  0  0  0  0  0  0  0
    0.7200   18.6178  -31.8557 H   0  0  0  0  0  0  0  0  0  0  0  0
    0.8146   17.3791  -33.1532 H   0  0  0  0  0  0  0  0  0  0  0  0
    1.9531   18.7686  -33.1532 H   0  0  0  0  0  0  0  0  0  0  0  0
   -0.5695   19.2065  -35.7797 H   0  0  0  0  0  0  0  0  0  0  0  0
    0.2643   17.7162  -35.1707 H   0  0  0  0  0  0  0  0  0  0  0  0
   -2.6034   18.3436  -35.3110 H   0  0  0  0  0  0  0  0  0  0  0  0
   -1.7297   16.7596  -35.0277 H   0  0  0  0  0  0  0  0  0  0  0  0
   -1.8330   18.5690  -32.7790 H   0  0  0  0  0  0  0  0  0  0  0  0
   -1.9060   16.9690  -32.7960 H   0  0  0  0  0  0  0  0  0  0  0  0
   -3.0086   15.3085  -33.7413 H   0  0  0  0  0  0  0  0  0  0  0  0
   -4.5229   13.4576  -34.3957 H   0  0  0  0  0  0  0  0  0  0  0  0
   -6.9721   13.8358  -34.5509 H   0  0  0  0  0  0  0  0  0  0  0  0
   -7.9398   16.0189  -33.8838 H   0  0  0  0  0  0  0  0  0  0  0  0
   -8.0453   18.2027  -31.4634 H   0  0  0  0  0  0  0  0  0  0  0  0
   -8.4437   19.1214  -32.9547 H   0  0  0  0  0  0  0  0  0  0  0  0
   -8.5313   17.3273  -32.9547 H   0  0  0  0  0  0  0  0  0  0  0  0
   -8.2450   20.7275  -32.8247 H   0  0  0  0  0  0  0  0  0  0  0  0
   -8.2379   23.1737  -32.2903 H   0  0  0  0  0  0  0  0  0  0  0  0
   -6.3215   26.2498  -30.4149 H   0  0  0  0  0  0  0  0  0  0  0  0
   -7.5831   24.9791  -30.2590 H   0  0  0  0  0  0  0  0  0  0  0  0
   -5.9497   24.9272  -28.3734 H   0  0  0  0  0  0  0  0  0  0  0  0
   -5.9246   23.4057  -29.3827 H   0  0  0  0  0  0  0  0  0  0  0  0
   -3.7489   25.2016  -28.7180 H   0  0  0  0  0  0  0  0  0  0  0  0
   -3.7326   23.6075  -29.5762 H   0  0  0  0  0  0  0  0  0  0  0  0
   -4.5910   26.0180  -30.9780 H   0  0  0  0  0  0  0  0  0  0  0  0
   -3.9830   24.5870  -31.5770 H   0  0  0  0  0  0  0  0  0  0  0  0
   -3.9080   23.0873  -31.8780 H   0  0  0  0  0  0  0  0  0  0  0  0
   -2.2338   20.7726  -31.2425 H   0  0  0  0  0  0  0  0  0  0  0  0
   -1.7683   19.9649  -32.7779 H   0  0  0  0  0  0  0  0  0  0  0  0
   -2.2153   21.7047  -32.7779 H   0  0  0  0  0  0  0  0  0  0  0  0
  1  2  1  0
  2  3  1  0
  3  4  1  0
  3  5  1  0
  5  6  1  0
  6  7  1  0
  7  8  1  0
  8  9  2  0
  9 10  1  0
 10 11  2  0
 11 12  1  0
 12 13  2  0
 13 14  1  0
 14 15  2  0
 15 16  1  0
 15 17  1  0
 17 18  1  0
 18 19  2  0
 19 20  1  0
 20 21  2  0
 21 22  1  0
 22 23  1  0
 23 24  1  0
 24 25  1  0
 25 26  1  0
 21 27  1  0
 27 28  2  0
 28 29  1  0
 29 30  1  0
 29 31  1  0
 31  8  1  0
 14  9  1  0
 31 17  2  0
 28 18  1  0
  1 32  1  0
  1 33  1  0
  1 34  1  0
  2 35  1  0
  2 36  1  0
  4 37  1  0
  4 38  1  0
  4 39  1  0
  5 40  1  0
  5 41  1  0
  6 42  1  0
  6 43  1  0
  7 44  1  0
  7 45  1  0
 10 46  1  0
 11 47  1  0
 12 48  1  0
 13 49  1  0
 16 50  1  0
 16 51  1  0
 16 52  1  0
 19 53  1  0
 20 54  1  0
 23 55  1  0
 23 56  1  0
 24 57  1  0
 24 58  1  0
 25 59  1  0
 25 60  1  0
 26 61  1  0
 26 62  1  0
 27 63  1  0
 30 64  1  0
 30 65  1  0
 30 66  1  0
M  CHG  2   7   1  15   1
M  END
>  <UniqueID>  (39) 
37

>  <SMILES>  (39) 
CCN(C)CC[NH2+]c1c2ccccc2[n+](C)c2c3ccc(OCCCN)cc3n(C)c12

>  <Energy>  (39) 
143.31311237343618

>  <Genealogy>  (39) 
CCN(C)CC[NH2+]c1c2ccccc2[n+](C)c2c3ccc(OCCCN)cc3n(C)c12 (protonated)
CCN(C)CC[NH2+]c1c2ccccc2[n+](C)c2c3ccc(OCCCN)cc3n(C)c12 (3D coordinates assigned)
CCN(C)CC[NH2+]c1c2ccccc2[n+](C)c2c3ccc(OCCCN)cc3n(C)c12 (optimized conformer: 143.31311237343618 kcal/mol)

>  <smiles>  (39) 
CCN(C)CCNc1c2ccccc2[n+](C)c2c3ccc(OCCCN)cc3n(C)c12

>  <score_type>  (39) 
oracle

>  <origin>  (39) 
adg

>  <m_score__min__energy>  (39) 
-7.7000000000000002

>  <m_primary>  (39) 
energy

$$$$
39:0
     RDKit          3D

 45 47  0  0  0  0  0  0  0  0999 V2000
    0.3050   20.9130  -35.7080 C   0  0  0  0  0  0  0  0  0  0  0  0
   -0.3290   19.8120  -34.8520 C   0  0  0  0  0  0  0  0  0  0  0  0
   -1.5270   20.2780  -34.1320 N   0  0  0  0  0  0  0  0  0  0  0  0
   -2.3530   19.1590  -33.6460 C   0  0  0  0  0  0  0  0  0  0  0  0
   -3.7850   19.2120  -34.2080 C   0  0  0  0  0  0  0  0  0  0  0  0
   -4.7130   19.9010  -33.2760 N   0  0  0  0  0  0  0  0  0  0  0  0
   -4.3520   21.1500  -32.8160 C   0  0  0  0  0  0  0  0  0  0  0  0
   -3.2510   21.6630  -33.1620 O   0  0  0  0  0  0  0  0  0  0  0  0
   -5.1920   21.8580  -31.9370 C   0  0  0  0  0  0  0  0  0  0  0  0
   -4.8540   23.1720  -31.4490 N   0  0  0  0  0  0  0  0  0  0  0  0
   -5.7440   24.3200  -31.6510 C   0  0  0  0  0  0  0  0  0  0  0  0
   -5.6840   25.2380  -30.4270 C   0  0  0  0  0  0  0  0  0  0  0  0
   -4.3450   25.5730  -30.1140 O   0  0  0  0  0  0  0  0  0  0  0  0
   -3.6410   24.4100  -29.7160 C   0  0  0  0  0  0  0  0  0  0  0  0
   -3.5270   23.4190  -30.8800 C   0  0  0  0  0  0  0  0  0  0  0  0
   -6.3480   21.2850  -31.5280 N   0  0  0  0  0  0  0  0  0  0  0  0
   -6.7330   20.0630  -31.9600 C   0  0  0  0  0  0  0  0  0  0  0  0
   -7.9470   19.5330  -31.5100 C   0  0  0  0  0  0  0  0  0  0  0  0
   -8.3760   18.2860  -31.9590 C   0  0  0  0  0  0  0  0  0  0  0  0
   -7.6000   17.5670  -32.8650 C   0  0  0  0  0  0  0  0  0  0  0  0
   -6.3830   18.0840  -33.3210 C   0  0  0  0  0  0  0  0  0  0  0  0
   -5.9150   19.3460  -32.8700 C   0  0  0  0  0  0  0  0  0  0  0  0
    0.7459   21.6787  -35.0528 H   0  0  0  0  0  0  0  0  0  0  0  0
    1.0905   20.4772  -36.3429 H   0  0  0  0  0  0  0  0  0  0  0  0
   -0.4662   21.3736  -36.3429 H   0  0  0  0  0  0  0  0  0  0  0  0
   -0.6140   18.9756  -35.5072 H   0  0  0  0  0  0  0  0  0  0  0  0
    0.4132   19.5024  -34.1015 H   0  0  0  0  0  0  0  0  0  0  0  0
   -1.2400   20.8890  -33.3330 H   0  0  0  0  0  0  0  0  0  0  0  0
   -2.0980   20.8460  -34.8000 H   0  0  0  0  0  0  0  0  0  0  0  0
   -1.8853   18.2124  -33.9545 H   0  0  0  0  0  0  0  0  0  0  0  0
   -2.4153   19.2338  -32.5503 H   0  0  0  0  0  0  0  0  0  0  0  0
   -3.7729   19.7539  -35.1652 H   0  0  0  0  0  0  0  0  0  0  0  0
   -4.1390   18.1796  -34.3453 H   0  0  0  0  0  0  0  0  0  0  0  0
   -5.4246   24.8783  -32.5433 H   0  0  0  0  0  0  0  0  0  0  0  0
   -6.7751   23.9629  -31.7896 H   0  0  0  0  0  0  0  0  0  0  0  0
   -6.2458   26.1595  -30.6397 H   0  0  0  0  0  0  0  0  0  0  0  0
   -6.1247   24.7097  -29.5687 H   0  0  0  0  0  0  0  0  0  0  0  0
   -2.6316   24.6950  -29.3845 H   0  0  0  0  0  0  0  0  0  0  0  0
   -4.1913   23.9280  -28.8945 H   0  0  0  0  0  0  0  0  0  0  0  0
   -2.8691   23.8392  -31.6550 H   0  0  0  0  0  0  0  0  0  0  0  0
   -3.1059   22.4716  -30.5123 H   0  0  0  0  0  0  0  0  0  0  0  0
   -8.5644   20.1025  -30.7997 H   0  0  0  0  0  0  0  0  0  0  0  0
   -9.3278   17.8691  -31.5980 H   0  0  0  0  0  0  0  0  0  0  0  0
   -7.9464   16.5866  -33.2241 H   0  0  0  0  0  0  0  0  0  0  0  0
   -5.7813   17.5057  -34.0377 H   0  0  0  0  0  0  0  0  0  0  0  0
  1  2  1  0
  2  3  1  0
  3  4  1  0
  4  5  1  0
  5  6  1  0
  6  7  1  0
  7  8  2  0
  7  9  1  0
  9 10  1  0
 10 11  1  0
 11 12  1  0
 12 13  1  0
 13 14  1  0
 14 15  1  0
  9 16  2  0
 16 17  1  0
 17 18  2  0
 18 19  1  0
 19 20  2  0
 20 21  1  0
 21 22  2  0
 22  6  1  0
 15 10  1  0
 22 17  1  0
  1 23  1  0
  1 24  1  0
  1 25  1  0
  2 26  1  0
  2 27  1  0
  3 28  1  0
  3 29  1  0
  4 30  1  0
  4 31  1  0
  5 32  1  0
  5 33  1  0
 11 34  1  0
 11 35  1  0
 12 36  1  0
 12 37  1  0
 14 38  1  0
 14 39  1  0
 15 40  1  0
 15 41  1  0
 18 42  1  0
 19 43  1  0
 20 44  1  0
 21 45  1  0
M  CHG  1   3   1
M  END
>  <UniqueID>  (40) 
38

>  <SMILES>  (40) 
CC[NH2+]CCn1c(=O)c(N2CCOCC2)nc2ccccc21

>  <Energy>  (40) 
59.72872778994035

>  <Genealogy>  (40) 
CC[NH2+]CCn1c(=O)c(N2CCOCC2)nc2ccccc21 (protonated)
CC[NH2+]CCn1c(=O)c(N2CCOCC2)nc2ccccc21 (3D coordinates assigned)
CC[NH2+]CCn1c(=O)c(N2CCOCC2)nc2ccccc21 (nonaromatic ring conformer: 59.72872778994035 kcal/mol)

>  <smiles>  (40) 
CCNCCn1c(=O)c(N2CCOCC2)nc2ccccc21

>  <score_type>  (40) 
oracle

>  <origin>  (40) 
adg

>  <m_score__min__energy>  (40) 
-6.71

>  <m_primary>  (40) 
energy

$$$$
40:0
     RDKit          3D

 43 45  0  0  0  0  0  0  0  0999 V2000
   -1.0540   22.7800  -28.4580 C   0  0  0  0  0  0  0  0  0  0  0  0
   -1.6860   23.6900  -29.3520 O   0  0  0  0  0  0  0  0  0  0  0  0
   -2.8650   23.4190  -30.0640 C   0  0  0  0  0  0  0  0  0  0  0  0
   -2.8730   22.6600  -31.2450 C   0  0  0  0  0  0  0  0  0  0  0  0
   -4.0750   22.4070  -31.9310 C   0  0  0  0  0  0  0  0  0  0  0  0
   -4.0910   21.6630  -33.1240 O   0  0  0  0  0  0  0  0  0  0  0  0
   -3.1400   20.6610  -33.4720 C   0  0  0  0  0  0  0  0  0  0  0  0
   -5.2940   22.9090  -31.4160 C   0  0  0  0  0  0  0  0  0  0  0  0
   -6.6060   22.6470  -32.1570 C   0  0  2  0  0  0  0  0  0  0  0  0
   -7.5950   23.6760  -31.7760 N   0  0  0  0  0  0  0  0  0  0  0  0
   -8.9160   23.3830  -32.3410 C   0  0  0  0  0  0  0  0  0  0  0  0
   -9.4920   22.1070  -31.7230 C   0  0  0  0  0  0  0  0  0  0  0  0
   -8.5010   20.9760  -31.7850 C   0  0  0  0  0  0  0  0  0  0  0  0
   -8.9560   19.6570  -31.6200 C   0  0  0  0  0  0  0  0  0  0  0  0
   -8.0580   18.5890  -31.6710 C   0  0  0  0  0  0  0  0  0  0  0  0
   -6.7020   18.8270  -31.8900 C   0  0  0  0  0  0  0  0  0  0  0  0
   -6.2340   20.1340  -32.0400 C   0  0  0  0  0  0  0  0  0  0  0  0
   -7.1200   21.2250  -31.9500 C   0  0  0  0  0  0  0  0  0  0  0  0
   -5.2810   23.6910  -30.2350 C   0  0  0  0  0  0  0  0  0  0  0  0
   -6.4910   24.2140  -29.7480 O   0  0  0  0  0  0  0  0  0  0  0  0
   -6.7040   25.5740  -29.3840 C   0  0  0  0  0  0  0  0  0  0  0  0
   -4.0640   23.9290  -29.5720 C   0  0  0  0  0  0  0  0  0  0  0  0
   -1.2627   23.0805  -27.4206 H   0  0  0  0  0  0  0  0  0  0  0  0
   -1.4432   21.7658  -28.6313 H   0  0  0  0  0  0  0  0  0  0  0  0
    0.0322   22.7905  -28.6313 H   0  0  0  0  0  0  0  0  0  0  0  0
   -1.9278   22.2581  -31.6389 H   0  0  0  0  0  0  0  0  0  0  0  0
   -2.7208   20.2194  -32.5559 H   0  0  0  0  0  0  0  0  0  0  0  0
   -3.6339   19.8767  -34.0644 H   0  0  0  0  0  0  0  0  0  0  0  0
   -2.3310   21.1133  -34.0644 H   0  0  0  0  0  0  0  0  0  0  0  0
   -6.4231   22.7257  -33.2388 H   0  0  0  0  0  0  0  0  0  0  0  0
   -7.6850   23.7270  -30.7350 H   0  0  0  0  0  0  0  0  0  0  0  0
   -9.5936   24.2241  -32.1325 H   0  0  0  0  0  0  0  0  0  0  0  0
   -8.8145   23.2381  -33.4267 H   0  0  0  0  0  0  0  0  0  0  0  0
   -9.7484   22.3020  -30.6712 H   0  0  0  0  0  0  0  0  0  0  0  0
  -10.3868   21.8173  -32.2934 H   0  0  0  0  0  0  0  0  0  0  0  0
  -10.0256   19.4646  -31.4497 H   0  0  0  0  0  0  0  0  0  0  0  0
   -8.4208   17.5591  -31.5383 H   0  0  0  0  0  0  0  0  0  0  0  0
   -5.9988   17.9829  -31.9448 H   0  0  0  0  0  0  0  0  0  0  0  0
   -5.1654   20.3128  -32.2299 H   0  0  0  0  0  0  0  0  0  0  0  0
   -6.7178   25.6623  -28.2876 H   0  0  0  0  0  0  0  0  0  0  0  0
   -5.8920   26.1941  -29.7916 H   0  0  0  0  0  0  0  0  0  0  0  0
   -7.6667   25.9162  -29.7916 H   0  0  0  0  0  0  0  0  0  0  0  0
   -4.0589   24.5280  -28.6494 H   0  0  0  0  0  0  0  0  0  0  0  0
  1  2  1  0
  2  3  1  0
  3  4  2  0
  4  5  1  0
  5  6  1  0
  6  7  1  0
  5  8  2  0
  8  9  1  0
  9 10  1  0
 10 11  1  0
 11 12  1  0
 12 13  1  0
 13 14  2  0
 14 15  1  0
 15 16  2  0
 16 17  1  0
 17 18  2  0
  8 19  1  0
 19 20  1  0
 20 21  1  0
 19 22  2  0
 22  3  1  0
 18  9  1  0
 18 13  1  0
  1 23  1  0
  1 24  1  0
  1 25  1  0
  4 26  1  0
  7 27  1  0
  7 28  1  0
  7 29  1  0
  9 30  1  6
 10 31  1  0
 11 32  1  0
 11 33  1  0
 12 34  1  0
 12 35  1  0
 14 36  1  0
 15 37  1  0
 16 38  1  0
 17 39  1  0
 21 40  1  0
 21 41  1  0
 21 42  1  0
 22 43  1  0
M  END
>  <UniqueID>  (41) 
39

>  <SMILES>  (41) 
COc1cc(OC)c([C@@H]2NCCc3ccccc32)c(OC)c1

>  <Energy>  (41) 
48.96665070600578

>  <Genealogy>  (41) 
COc1cc(OC)c([C@@H]2NCCc3ccccc32)c(OC)c1 (chirality)
COc1cc(OC)c([C@@H]2NCCc3ccccc32)c(OC)c1 (3D coordinates assigned)
COc1cc(OC)c([C@@H]2NCCc3ccccc32)c(OC)c1 (nonaromatic ring conformer: 48.96665070600578 kcal/mol)

>  <smiles>  (41) 
COc1cc(OC)c(C2NCCc3ccccc32)c(OC)c1

>  <score_type>  (41) 
oracle

>  <origin>  (41) 
adg

>  <m_score__min__energy>  (41) 
-6.6299999999999999

>  <m_primary>  (41) 
energy

$$$$
