0:0
     RDKit          3D

 56 58  0  0  0  0  0  0  0  0999 V2000
    1.6600   23.8760  -35.7340 C   0  0  0  0  0  0  0  0  0  0  0  0
    0.2760   23.3030  -36.0100 C   0  0  0  0  0  0  0  0  0  0  0  0
   -0.0550   22.2720  -35.0200 N   0  0  0  0  0  0  0  0  0  0  0  0
    0.2370   20.9380  -35.5560 C   0  0  0  0  0  0  0  0  0  0  0  0
   -0.6730   19.8980  -34.9100 C   0  0  0  0  0  0  0  0  0  0  0  0
   -1.7420   20.5460  -34.2610 O   0  0  0  0  0  0  0  0  0  0  0  0
   -1.2430   21.0230  -33.0900 N   0  0  0  0  0  0  0  0  0  0  0  0
   -2.0990   20.5470  -32.0020 C   0  0  0  0  0  0  0  0  0  0  0  0
   -2.7220   21.7140  -31.2220 C   0  0  0  0  0  0  0  0  0  0  0  0
   -3.8590   22.3890  -32.0060 C   0  0  0  0  0  0  0  0  0  0  0  0
   -4.2240   21.6570  -33.2370 N   0  0  0  0  0  0  0  0  0  0  0  0
   -5.4060   20.8180  -33.0720 C   0  0  0  0  0  0  0  0  0  0  0  0
   -6.6340   21.3510  -32.5810 C   0  0  0  0  0  0  0  0  0  0  0  0
   -6.8130   22.7380  -32.3330 C   0  0  0  0  0  0  0  0  0  0  0  0
   -8.0350   23.2440  -31.9010 C   0  0  0  0  0  0  0  0  0  0  0  0
   -9.1120   22.3970  -31.7030 C   0  0  0  0  0  0  0  0  0  0  0  0
   -8.9660   21.0290  -31.9160 C   0  0  0  0  0  0  0  0  0  0  0  0
   -7.7280   20.4730  -32.3280 C   0  0  0  0  0  0  0  0  0  0  0  0
   -7.5830   19.1110  -32.4940 N   0  0  0  0  0  0  0  0  0  0  0  0
   -8.5790   18.1840  -31.9100 C   0  0  0  0  0  0  0  0  0  0  0  0
   -6.4890   18.6090  -33.1670 C   0  0  0  0  0  0  0  0  0  0  0  0
   -6.4650   17.2660  -33.6270 C   0  0  0  0  0  0  0  0  0  0  0  0
   -5.3340   16.7320  -34.2350 C   0  0  0  0  0  0  0  0  0  0  0  0
   -4.2030   17.5160  -34.4040 C   0  0  0  0  0  0  0  0  0  0  0  0
   -4.2080   18.8500  -34.0020 C   0  0  0  0  0  0  0  0  0  0  0  0
   -5.3580   19.4360  -33.4160 C   0  0  0  0  0  0  0  0  0  0  0  0
    1.8195   23.9421  -34.6476 H   0  0  0  0  0  0  0  0  0  0  0  0
    2.4236   23.2200  -36.1775 H   0  0  0  0  0  0  0  0  0  0  0  0
    1.7364   24.8797  -36.1775 H   0  0  0  0  0  0  0  0  0  0  0  0
   -0.4687   24.1108  -35.9555 H   0  0  0  0  0  0  0  0  0  0  0  0
    0.2693   22.8513  -37.0129 H   0  0  0  0  0  0  0  0  0  0  0  0
   -1.0800   22.3260  -34.8120 H   0  0  0  0  0  0  0  0  0  0  0  0
    0.0718   20.9396  -36.6435 H   0  0  0  0  0  0  0  0  0  0  0  0
    1.2843   20.6844  -35.3348 H   0  0  0  0  0  0  0  0  0  0  0  0
   -1.0686   19.2252  -35.6851 H   0  0  0  0  0  0  0  0  0  0  0  0
   -0.0985   19.3145  -34.1755 H   0  0  0  0  0  0  0  0  0  0  0  0
   -1.3340   22.0660  -33.1250 H   0  0  0  0  0  0  0  0  0  0  0  0
   -2.9050   19.9299  -32.4256 H   0  0  0  0  0  0  0  0  0  0  0  0
   -1.4793   19.9605  -31.3077 H   0  0  0  0  0  0  0  0  0  0  0  0
   -3.1238   21.3318  -30.2720 H   0  0  0  0  0  0  0  0  0  0  0  0
   -1.9367   22.4645  -31.0487 H   0  0  0  0  0  0  0  0  0  0  0  0
   -4.7454   22.4482  -31.3573 H   0  0  0  0  0  0  0  0  0  0  0  0
   -3.5046   23.3856  -32.3080 H   0  0  0  0  0  0  0  0  0  0  0  0
   -4.3990   22.3500  -34.0000 H   0  0  0  0  0  0  0  0  0  0  0  0
   -3.4000   21.1340  -33.6020 H   0  0  0  0  0  0  0  0  0  0  0  0
   -5.9684   23.4261  -32.4855 H   0  0  0  0  0  0  0  0  0  0  0  0
   -8.1459   24.3226  -31.7158 H   0  0  0  0  0  0  0  0  0  0  0  0
  -10.0809   22.8040  -31.3781 H   0  0  0  0  0  0  0  0  0  0  0  0
   -9.8293   20.3651  -31.7614 H   0  0  0  0  0  0  0  0  0  0  0  0
   -8.5262   18.2331  -30.8124 H   0  0  0  0  0  0  0  0  0  0  0  0
   -9.5873   18.4726  -32.2419 H   0  0  0  0  0  0  0  0  0  0  0  0
   -8.3635   17.1577  -32.2419 H   0  0  0  0  0  0  0  0  0  0  0  0
   -7.3578   16.6360  -33.5001 H   0  0  0  0  0  0  0  0  0  0  0  0
   -5.3367   15.6881  -34.5817 H   0  0  0  0  0  0  0  0  0  0  0  0
   -3.2988   17.0834  -34.8570 H   0  0  0  0  0  0  0  0  0  0  0  0
   -3.3031   19.4595  -34.1419 H   0  0  0  0  0  0  0  0  0  0  0  0
  1  2  1  0
  2  3  1  0
  3  4  1  0
  4  5  1  0
  5  6  1  0
  6  7  1  0
  7  8  1  0
  8  9  1  0
  9 10  1  0
 10 11  1  0
 11 12  1  0
 12 13  2  0
 13 14  1  0
 14 15  2  0
 15 16  1  0
 16 17  2  0
 17 18  1  0
 18 19  2  0
 19 20  1  0
 19 21  1  0
 21 22  2  0
 22 23  1  0
 23 24  2  0
 24 25  1  0
 25 26  2  0
 26 12  1  0
 18 13  1  0
 26 21  1  0
  1 27  1  0
  1 28  1  0
  1 29  1  0
  2 30  1  0
  2 31  1  0
  3 32  1  0
  4 33  1  0
  4 34  1  0
  5 35  1  0
  5 36  1  0
  7 37  1  0
  8 38  1  0
  8 39  1  0
  9 40  1  0
  9 41  1  0
 10 42  1  0
 10 43  1  0
 11 44  1  0
 11 45  1  0
 14 46  1  0
 15 47  1  0
 16 48  1  0
 17 49  1  0
 20 50  1  0
 20 51  1  0
 20 52  1  0
 22 53  1  0
 23 54  1  0
 24 55  1  0
 25 56  1  0
M  CHG  2  11   1  19   1
M  END
>  <UniqueID>  (1) 
1

>  <SMILES>  (1) 
CCNCCONCCC[NH2+]c1c2ccccc2[n+](C)c2ccccc12

>  <Energy>  (1) 
68.87351089361604

>  <Genealogy>  (1) 
CCNCCONCCC[NH2+]c1c2ccccc2[n+](C)c2ccccc12 (protonated)
CCNCCONCCC[NH2+]c1c2ccccc2[n+](C)c2ccccc12 (3D coordinates assigned)
CCNCCONCCC[NH2+]c1c2ccccc2[n+](C)c2ccccc12 (optimized conformer: 68.87351089361604 kcal/mol)

>  <smiles>  (1) 
CCNCCONCCCNc1c2ccccc2[n+](C)c2ccccc12

>  <score_type>  (1) 
oracle

>  <origin>  (1) 
adg

>  <m_score__min__energy>  (1) 
-8.0299999999999994

>  <m_primary>  (1) 
energy

$$$$
1:0
     RDKit          3D

 65 68  0  0  0  0  0  0  0  0999 V2000
   -5.7060   25.1610  -30.4720 C   0  0  0  0  0  0  0  0  0  0  0  0
   -6.0880   24.1720  -31.5720 C   0  0  0  0  0  0  0  0  0  0  0  0
   -6.0320   22.7250  -31.0800 C   0  0  0  0  0  0  0  0  0  0  0  0
   -7.0430   21.9700  -31.7130 O   0  0  0  0  0  0  0  0  0  0  0  0
   -8.2660   22.1520  -31.0300 C   0  0  0  0  0  0  0  0  0  0  0  0
   -9.4220   21.8080  -31.9600 C   0  0  0  0  0  0  0  0  0  0  0  0
   -9.0970   20.6520  -32.7040 O   0  0  0  0  0  0  0  0  0  0  0  0
   -9.0670   19.5090  -31.8700 C   0  0  0  0  0  0  0  0  0  0  0  0
   -7.7180   18.7940  -32.0260 C   0  0  0  0  0  0  0  0  0  0  0  0
   -6.9230   19.2880  -33.1690 N   0  0  0  0  0  0  0  0  0  0  0  0
   -5.6440   18.6010  -33.3280 C   0  0  0  0  0  0  0  0  0  0  0  0
   -5.5890   17.1950  -33.5550 C   0  0  0  0  0  0  0  0  0  0  0  0
   -4.3270   16.5340  -33.5400 C   0  0  0  0  0  0  0  0  0  0  0  0
   -3.1640   17.2690  -33.4490 N   0  0  0  0  0  0  0  0  0  0  0  0
   -1.8820   16.5680  -33.2160 C   0  0  0  0  0  0  0  0  0  0  0  0
   -3.2050   18.6440  -33.4840 C   0  0  0  0  0  0  0  0  0  0  0  0
   -4.4210   19.3200  -33.2440 C   0  0  0  0  0  0  0  0  0  0  0  0
   -4.3630   20.8220  -32.9550 C   0  0  0  0  0  0  0  0  0  0  0  0
   -3.0510   21.2090  -32.2600 C   0  0  0  0  0  0  0  0  0  0  0  0
   -1.8970   20.7440  -33.1000 C   0  0  0  0  0  0  0  0  0  0  0  0
   -0.7780   21.5620  -33.3120 C   0  0  0  0  0  0  0  0  0  0  0  0
    0.2270   21.1540  -34.1920 C   0  0  0  0  0  0  0  0  0  0  0  0
    0.1070   19.9440  -34.8790 C   0  0  0  0  0  0  0  0  0  0  0  0
   -1.0000   19.1210  -34.6610 C   0  0  0  0  0  0  0  0  0  0  0  0
   -1.9830   19.4830  -33.7200 C   0  0  0  0  0  0  0  0  0  0  0  0
   -4.2480   15.0210  -33.7640 C   0  0  0  0  0  0  0  0  0  0  0  0
   -5.5650   14.2810  -33.5570 C   0  0  0  0  0  0  0  0  0  0  0  0
   -6.6820   15.0060  -34.2790 C   0  0  0  0  0  0  0  0  0  0  0  0
   -6.8750   16.3830  -33.6570 C   0  0  0  0  0  0  0  0  0  0  0  0
   -5.8834   24.7018  -29.4883 H   0  0  0  0  0  0  0  0  0  0  0  0
   -4.6420   25.4230  -30.5678 H   0  0  0  0  0  0  0  0  0  0  0  0
   -6.3176   26.0703  -30.5678 H   0  0  0  0  0  0  0  0  0  0  0  0
   -7.1109   24.3936  -31.9104 H   0  0  0  0  0  0  0  0  0  0  0  0
   -5.3666   24.2812  -32.3952 H   0  0  0  0  0  0  0  0  0  0  0  0
   -5.0488   22.2944  -31.3204 H   0  0  0  0  0  0  0  0  0  0  0  0
   -6.1874   22.7031  -29.9912 H   0  0  0  0  0  0  0  0  0  0  0  0
   -8.2956   21.4939  -30.1491 H   0  0  0  0  0  0  0  0  0  0  0  0
   -8.3538   23.2000  -30.7075 H   0  0  0  0  0  0  0  0  0  0  0  0
  -10.3279   21.6191  -31.3653 H   0  0  0  0  0  0  0  0  0  0  0  0
   -9.6040   22.6480  -32.6466 H   0  0  0  0  0  0  0  0  0  0  0  0
   -9.1994   19.8166  -30.8222 H   0  0  0  0  0  0  0  0  0  0  0  0
   -9.8788   18.8249  -32.1580 H   0  0  0  0  0  0  0  0  0  0  0  0
   -7.1353   18.9433  -31.1050 H   0  0  0  0  0  0  0  0  0  0  0  0
   -7.9324   17.7315  -32.2135 H   0  0  0  0  0  0  0  0  0  0  0  0
   -7.4830   19.1770  -34.0420 H   0  0  0  0  0  0  0  0  0  0  0  0
   -6.8200   20.3220  -33.0860 H   0  0  0  0  0  0  0  0  0  0  0  0
   -1.7076   16.4726  -32.1341 H   0  0  0  0  0  0  0  0  0  0  0  0
   -1.9235   15.5671  -33.6703 H   0  0  0  0  0  0  0  0  0  0  0  0
   -1.0618   17.1431  -33.6703 H   0  0  0  0  0  0  0  0  0  0  0  0
   -4.4408   21.3722  -33.9043 H   0  0  0  0  0  0  0  0  0  0  0  0
   -5.1975   21.0778  -32.2856 H   0  0  0  0  0  0  0  0  0  0  0  0
   -3.0045   22.3017  -32.1421 H   0  0  0  0  0  0  0  0  0  0  0  0
   -3.0026   20.7363  -31.2679 H   0  0  0  0  0  0  0  0  0  0  0  0
   -0.6917   22.5241  -32.7858 H   0  0  0  0  0  0  0  0  0  0  0  0
    1.1140   21.7865  -34.3441 H   0  0  0  0  0  0  0  0  0  0  0  0
    0.8859   19.6386  -35.5932 H   0  0  0  0  0  0  0  0  0  0  0  0
   -1.1047   18.1842  -35.2279 H   0  0  0  0  0  0  0  0  0  0  0  0
   -3.9130   14.8437  -34.7966 H   0  0  0  0  0  0  0  0  0  0  0  0
   -3.5479   14.6297  -33.0112 H   0  0  0  0  0  0  0  0  0  0  0  0
   -5.4760   13.2594  -33.9551 H   0  0  0  0  0  0  0  0  0  0  0  0
   -5.7938   14.2421  -32.4818 H   0  0  0  0  0  0  0  0  0  0  0  0
   -6.4212   15.1165  -35.3419 H   0  0  0  0  0  0  0  0  0  0  0  0
   -7.6137   14.4281  -34.1896 H   0  0  0  0  0  0  0  0  0  0  0  0
   -7.5925   16.9448  -34.2730 H   0  0  0  0  0  0  0  0  0  0  0  0
   -7.2372   16.2242  -32.6305 H   0  0  0  0  0  0  0  0  0  0  0  0
  1  2  1  0
  2  3  1  0
  3  4  1  0
  4  5  1  0
  5  6  1  0
  6  7  1  0
  7  8  1  0
  8  9  1  0
  9 10  1  0
 10 11  1  0
 11 12  2  0
 12 13  1  0
 13 14  2  0
 14 15  1  0
 14 16  1  0
 16 17  2  0
 17 18  1  0
 18 19  1  0
 19 20  1  0
 20 21  2  0
 21 22  1  0
 22 23  2  0
 23 24  1  0
 24 25  2  0
 13 26  1  0
 26 27  1  0
 27 28  1  0
 28 29  1  0
 17 11  1  0
 25 20  1  0
 29 12  1  0
 25 16  1  0
  1 30  1  0
  1 31  1  0
  1 32  1  0
  2 33  1  0
  2 34  1  0
  3 35  1  0
  3 36  1  0
  5 37  1  0
  5 38  1  0
  6 39  1  0
  6 40  1  0
  8 41  1  0
  8 42  1  0
  9 43  1  0
  9 44  1  0
 10 45  1  0
 10 46  1  0
 15 47  1  0
 15 48  1  0
 15 49  1  0
 18 50  1  0
 18 51  1  0
 19 52  1  0
 19 53  1  0
 21 54  1  0
 22 55  1  0
 23 56  1  0
 24 57  1  0
 26 58  1  0
 26 59  1  0
 27 60  1  0
 27 61  1  0
 28 62  1  0
 28 63  1  0
 29 64  1  0
 29 65  1  0
M  CHG  2  10   1  14   1
M  END
>  <UniqueID>  (2) 
2

>  <SMILES>  (2) 
CCCOCCOCC[NH2+]c1c2c([n+](C)c3c1CCc1ccccc1-3)CCCC2

>  <Energy>  (2) 
91.43572517700355

>  <Genealogy>  (2) 
CCCOCCOCC[NH2+]c1c2c([n+](C)c3c1CCc1ccccc1-3)CCCC2 (protonated)
CCCOCCOCC[NH2+]c1c2c([n+](C)c3c1CCc1ccccc1-3)CCCC2 (3D coordinates assigned)
CCCOCCOCC[NH2+]c1c2c([n+](C)c3c1CCc1ccccc1-3)CCCC2 (nonaromatic ring conformer: 91.43572517700355 kcal/mol)

>  <smiles>  (2) 
CCCOCCOCCNc1c2c([n+](C)c3c1CCc1ccccc1-3)CCCC2

>  <score_type>  (2) 
oracle

>  <origin>  (2) 
adg

>  <m_score__min__energy>  (2) 
-8.9900000000000002

>  <m_primary>  (2) 
energy

$$$$
2:0
     RDKit          3D

 69 72  0  0  0  0  0  0  0  0999 V2000
    0.2260   22.3060  -27.1050 C   0  0  0  0  0  0  0  0  0  0  0  0
    1.0950   23.5290  -27.4400 C   0  0  0  0  0  0  0  0  0  0  0  0
    0.3980   24.5670  -28.2350 N   0  0  0  0  0  0  0  0  0  0  0  0
    0.1380   25.7880  -27.4480 C   0  0  0  0  0  0  0  0  0  0  0  0
   -0.8250   24.0590  -28.8950 C   0  0  0  0  0  0  0  0  0  0  0  0
   -2.0680   24.7570  -28.3300 C   0  0  0  0  0  0  0  0  0  0  0  0
   -2.9520   25.1160  -29.3770 O   0  0  0  0  0  0  0  0  0  0  0  0
   -4.2200   24.5040  -29.2210 C   0  0  0  0  0  0  0  0  0  0  0  0
   -5.0770   24.6980  -30.4800 C   0  0  0  0  0  0  0  0  0  0  0  0
   -4.6120   23.9130  -31.5650 O   0  0  0  0  0  0  0  0  0  0  0  0
   -3.7670   22.8720  -31.1140 C   0  0  0  0  0  0  0  0  0  0  0  0
   -3.4880   21.8930  -32.2610 C   0  0  0  0  0  0  0  0  0  0  0  0
   -4.5360   21.9010  -33.3020 N   0  0  0  0  0  0  0  0  0  0  0  0
   -5.6270   20.9980  -32.9810 C   0  0  0  0  0  0  0  0  0  0  0  0
   -6.9030   21.4630  -32.5210 C   0  0  0  0  0  0  0  0  0  0  0  0
   -7.1790   22.8420  -32.3360 C   0  0  0  0  0  0  0  0  0  0  0  0
   -8.4420   23.2800  -31.9480 C   0  0  0  0  0  0  0  0  0  0  0  0
   -9.4660   22.3710  -31.7350 C   0  0  0  0  0  0  0  0  0  0  0  0
   -9.2320   21.0090  -31.8820 C   0  0  0  0  0  0  0  0  0  0  0  0
   -7.9530   20.5160  -32.2460 C   0  0  0  0  0  0  0  0  0  0  0  0
   -7.7210   19.1560  -32.3540 N   0  0  0  0  0  0  0  0  0  0  0  0
   -8.7320   18.1690  -31.9290 C   0  0  0  0  0  0  0  0  0  0  0  0
   -6.5220   18.7350  -32.8620 C   0  0  0  0  0  0  0  0  0  0  0  0
   -6.1960   17.4530  -33.1530 N   0  0  0  0  0  0  0  0  0  0  0  0
   -4.9330   17.5010  -33.6080 C   0  0  0  0  0  0  0  0  0  0  0  0
   -4.1720   16.4130  -34.0270 C   0  0  0  0  0  0  0  0  0  0  0  0
   -2.8610   16.6470  -34.4600 C   0  0  0  0  0  0  0  0  0  0  0  0
   -2.3270   17.9510  -34.4690 C   0  0  0  0  0  0  0  0  0  0  0  0
   -1.0000   18.1150  -34.8970 O   0  0  0  0  0  0  0  0  0  0  0  0
   -0.2170   19.2820  -34.6620 C   0  0  0  0  0  0  0  0  0  0  0  0
   -3.1260   19.0420  -34.0450 C   0  0  0  0  0  0  0  0  0  0  0  0
   -4.4410   18.7900  -33.6200 C   0  0  0  0  0  0  0  0  0  0  0  0
   -5.4830   19.6040  -33.1530 C   0  0  0  0  0  0  0  0  0  0  0  0
    0.1496   22.1985  -26.0129 H   0  0  0  0  0  0  0  0  0  0  0  0
   -0.7789   22.4424  -27.5312 H   0  0  0  0  0  0  0  0  0  0  0  0
    0.6854   21.4019  -27.5312 H   0  0  0  0  0  0  0  0  0  0  0  0
    1.4299   23.9838  -26.4961 H   0  0  0  0  0  0  0  0  0  0  0  0
    1.9304   23.1652  -28.0563 H   0  0  0  0  0  0  0  0  0  0  0  0
    0.1886   25.5504  -26.3752 H   0  0  0  0  0  0  0  0  0  0  0  0
    0.8943   26.5489  -27.6911 H   0  0  0  0  0  0  0  0  0  0  0  0
   -0.8626   26.1748  -27.6911 H   0  0  0  0  0  0  0  0  0  0  0  0
   -0.7605   24.2529  -29.9758 H   0  0  0  0  0  0  0  0  0  0  0  0
   -0.9077   22.9781  -28.7086 H   0  0  0  0  0  0  0  0  0  0  0  0
   -2.5837   24.0747  -27.6382 H   0  0  0  0  0  0  0  0  0  0  0  0
   -1.7550   25.6683  -27.7993 H   0  0  0  0  0  0  0  0  0  0  0  0
   -4.0814   23.4277  -29.0413 H   0  0  0  0  0  0  0  0  0  0  0  0
   -4.7347   24.9711  -28.3684 H   0  0  0  0  0  0  0  0  0  0  0  0
   -6.1138   24.4098  -30.2518 H   0  0  0  0  0  0  0  0  0  0  0  0
   -5.0138   25.7560  -30.7744 H   0  0  0  0  0  0  0  0  0  0  0  0
   -2.8174   23.3002  -30.7607 H   0  0  0  0  0  0  0  0  0  0  0  0
   -4.2613   22.3348  -30.2912 H   0  0  0  0  0  0  0  0  0  0  0  0
   -2.5299   22.1654  -32.7277 H   0  0  0  0  0  0  0  0  0  0  0  0
   -3.4649   20.8817  -31.8288 H   0  0  0  0  0  0  0  0  0  0  0  0
   -4.8460   22.8740  -33.4980 H   0  0  0  0  0  0  0  0  0  0  0  0
   -4.1300   21.6160  -34.2180 H   0  0  0  0  0  0  0  0  0  0  0  0
   -6.3798   23.5793  -32.5023 H   0  0  0  0  0  0  0  0  0  0  0  0
   -8.6285   24.3552  -31.8095 H   0  0  0  0  0  0  0  0  0  0  0  0
  -10.4663   22.7282  -31.4489 H   0  0  0  0  0  0  0  0  0  0  0  0
  -10.0551   20.2992  -31.7127 H   0  0  0  0  0  0  0  0  0  0  0  0
   -8.7695   18.1324  -30.8302 H   0  0  0  0  0  0  0  0  0  0  0  0
   -9.7175   18.4620  -32.3199 H   0  0  0  0  0  0  0  0  0  0  0  0
   -8.4627   17.1767  -32.3199 H   0  0  0  0  0  0  0  0  0  0  0  0
   -6.7840   16.5930  -33.0890 H   0  0  0  0  0  0  0  0  0  0  0  0
   -4.5899   15.3955  -34.0181 H   0  0  0  0  0  0  0  0  0  0  0  0
   -2.2409   15.8032  -34.7970 H   0  0  0  0  0  0  0  0  0  0  0  0
   -0.1108   19.4403  -33.5786 H   0  0  0  0  0  0  0  0  0  0  0  0
    0.7780   19.1529  -35.1130 H   0  0  0  0  0  0  0  0  0  0  0  0
   -0.7137   20.1537  -35.1130 H   0  0  0  0  0  0  0  0  0  0  0  0
   -2.7243   20.0660  -34.0486 H   0  0  0  0  0  0  0  0  0  0  0  0
  1  2  1  0
  2  3  1  0
  3  4  1  0
  3  5  1  0
  5  6  1  0
  6  7  1  0
  7  8  1  0
  8  9  1  0
  9 10  1  0
 10 11  1  0
 11 12  1  0
 12 13  1  0
 13 14  1  0
 14 15  2  0
 15 16  1  0
 16 17  2  0
 17 18  1  0
 18 19  2  0
 19 20  1  0
 20 21  2  0
 21 22  1  0
 21 23  1  0
 23 24  1  0
 24 25  1  0
 25 26  2  0
 26 27  1  0
 27 28  2  0
 28 29  1  0
 29 30  1  0
 28 31  1  0
 31 32  2  0
 32 33  1  0
 33 14  1  0
 20 15  1  0
 33 23  2  0
 32 25  1  0
  1 34  1  0
  1 35  1  0
  1 36  1  0
  2 37  1  0
  2 38  1  0
  4 39  1  0
  4 40  1  0
  4 41  1  0
  5 42  1  0
  5 43  1  0
  6 44  1  0
  6 45  1  0
  8 46  1  0
  8 47  1  0
  9 48  1  0
  9 49  1  0
 11 50  1  0
 11 51  1  0
 12 52  1  0
 12 53  1  0
 13 54  1  0
 13 55  1  0
 16 56  1  0
 17 57  1  0
 18 58  1  0
 19 59  1  0
 22 60  1  0
 22 61  1  0
 22 62  1  0
 24 63  1  0
 26 64  1  0
 27 65  1  0
 30 66  1  0
 30 67  1  0
 30 68  1  0
 31 69  1  0
M  CHG  2  13   1  21   1
M  END
>  <UniqueID>  (3) 
3

>  <SMILES>  (3) 
CCN(C)CCOCCOCC[NH2+]c1c2ccccc2[n+](C)c2[nH]c3ccc(OC)cc3c12

>  <Energy>  (3) 
134.14591387819252

>  <Genealogy>  (3) 
CCN(C)CCOCCOCC[NH2+]c1c2ccccc2[n+](C)c2[nH]c3ccc(OC)cc3c12 (protonated)
CCN(C)CCOCCOCC[NH2+]c1c2ccccc2[n+](C)c2[nH]c3ccc(OC)cc3c12 (3D coordinates assigned)
CCN(C)CCOCCOCC[NH2+]c1c2ccccc2[n+](C)c2[nH]c3ccc(OC)cc3c12 (optimized conformer: 134.14591387819252 kcal/mol)

>  <smiles>  (3) 
CCN(C)CCOCCOCCNc1c2ccccc2[n+](C)c2[nH]c3ccc(OC)cc3c12

>  <score_type>  (3) 
oracle

>  <origin>  (3) 
adg

>  <m_score__min__energy>  (3) 
-8.5299999999999994

>  <m_primary>  (3) 
energy

$$$$
3:0
     RDKit          3D

 75 76  0  0  0  0  0  0  0  0999 V2000
   -2.8150   20.9350  -27.8490 C   0  0  0  0  0  0  0  0  0  0  0  0
   -1.9480   22.1900  -27.7940 C   0  0  0  0  0  0  0  0  0  0  0  0
   -2.6150   23.3220  -28.4700 N   0  0  0  0  0  0  0  0  0  0  0  0
   -2.7610   24.5400  -27.6460 C   0  0  0  0  0  0  0  0  0  0  0  0
   -4.0150   24.5440  -26.7720 C   0  0  0  0  0  0  0  0  0  0  0  0
   -3.7350   23.0230  -29.3990 C   0  0  0  0  0  0  0  0  0  0  0  0
   -3.7350   23.8060  -30.7250 C   0  0  0  0  0  0  0  0  0  0  0  0
   -3.8640   25.1930  -30.4780 O   0  0  0  0  0  0  0  0  0  0  0  0
   -5.1730   25.6590  -30.7440 C   0  0  0  0  0  0  0  0  0  0  0  0
   -6.1790   25.1620  -29.7020 C   0  0  0  0  0  0  0  0  0  0  0  0
   -7.2630   24.5100  -30.3420 O   0  0  0  0  0  0  0  0  0  0  0  0
   -7.2270   23.1080  -30.1560 C   0  0  0  0  0  0  0  0  0  0  0  0
   -6.5850   22.4020  -31.3520 C   0  0  0  0  0  0  0  0  0  0  0  0
   -7.5450   22.2720  -32.3840 O   0  0  0  0  0  0  0  0  0  0  0  0
   -8.8520   22.5130  -31.8940 C   0  0  0  0  0  0  0  0  0  0  0  0
   -9.7050   21.2310  -31.8990 C   0  0  0  0  0  0  0  0  0  0  0  0
   -8.8710   19.9330  -31.8390 C   0  0  0  0  0  0  0  0  0  0  0  0
   -8.1100   19.6500  -33.0790 N   0  0  0  0  0  0  0  0  0  0  0  0
   -6.7660   19.0840  -32.8410 C   0  0  0  0  0  0  0  0  0  0  0  0
   -5.7070   19.4560  -33.9170 C   0  0  2  0  0  0  0  0  0  0  0  0
   -5.2460   18.1810  -34.6420 C   0  0  0  0  0  0  0  0  0  0  0  0
   -4.5380   20.3200  -33.3390 C   0  0  1  0  0  0  0  0  0  0  0  0
   -4.3640   20.3020  -31.8020 C   0  0  0  0  0  0  0  0  0  0  0  0
   -2.8510   20.0560  -31.6310 C   0  0  2  0  0  0  0  0  0  0  0  0
   -2.0740   21.2890  -32.1350 C   0  0  0  0  0  0  0  0  0  0  0  0
   -2.2140   21.1820  -33.6640 C   0  0  0  0  0  0  0  0  0  0  0  0
   -3.1150   19.9410  -33.8350 C   0  0  1  0  0  0  0  0  0  0  0  0
   -2.5770   19.0580  -32.7250 C   0  0  0  0  0  0  0  0  0  0  0  0
   -3.0445   20.6028  -26.8258 H   0  0  0  0  0  0  0  0  0  0  0  0
   -3.7516   21.1594  -28.3804 H   0  0  0  0  0  0  0  0  0  0  0  0
   -2.2737   20.1384  -28.3804 H   0  0  0  0  0  0  0  0  0  0  0  0
   -1.7653   22.4557  -26.7423 H   0  0  0  0  0  0  0  0  0  0  0  0
   -0.9981   21.9836  -28.3089 H   0  0  0  0  0  0  0  0  0  0  0  0
   -1.8811   24.6238  -26.9912 H   0  0  0  0  0  0  0  0  0  0  0  0
   -2.8502   25.3888  -28.3400 H   0  0  0  0  0  0  0  0  0  0  0  0
   -3.7228   24.5431  -25.7115 H   0  0  0  0  0  0  0  0  0  0  0  0
   -4.6094   25.4440  -26.9878 H   0  0  0  0  0  0  0  0  0  0  0  0
   -4.6152   23.6478  -26.9878 H   0  0  0  0  0  0  0  0  0  0  0  0
   -3.6955   21.9506  -29.6406 H   0  0  0  0  0  0  0  0  0  0  0  0
   -4.6500   23.3302  -28.8714 H   0  0  0  0  0  0  0  0  0  0  0  0
   -2.7904   23.6187  -31.2566 H   0  0  0  0  0  0  0  0  0  0  0  0
   -4.5856   23.4717  -31.3371 H   0  0  0  0  0  0  0  0  0  0  0  0
   -5.1673   26.7590  -30.7364 H   0  0  0  0  0  0  0  0  0  0  0  0
   -5.4799   25.2707  -31.7264 H   0  0  0  0  0  0  0  0  0  0  0  0
   -5.6797   24.4556  -29.0226 H   0  0  0  0  0  0  0  0  0  0  0  0
   -6.5620   26.0221  -29.1332 H   0  0  0  0  0  0  0  0  0  0  0  0
   -6.6433   22.8819  -29.2515 H   0  0  0  0  0  0  0  0  0  0  0  0
   -8.2607   22.7458  -30.0544 H   0  0  0  0  0  0  0  0  0  0  0  0
   -5.7322   22.9944  -31.7149 H   0  0  0  0  0  0  0  0  0  0  0  0
   -6.2312   21.4059  -31.0478 H   0  0  0  0  0  0  0  0  0  0  0  0
   -8.7827   22.8915  -30.8635 H   0  0  0  0  0  0  0  0  0  0  0  0
   -9.3354   23.2503  -32.5519 H   0  0  0  0  0  0  0  0  0  0  0  0
  -10.3740   21.2551  -31.0261 H   0  0  0  0  0  0  0  0  0  0  0  0
  -10.2579   21.2153  -32.8498 H   0  0  0  0  0  0  0  0  0  0  0  0
   -8.1572   20.0182  -31.0064 H   0  0  0  0  0  0  0  0  0  0  0  0
   -9.5807   19.1035  -31.7037 H   0  0  0  0  0  0  0  0  0  0  0  0
   -7.9610   20.5660  -33.5640 H   0  0  0  0  0  0  0  0  0  0  0  0
   -8.6440   19.0680  -33.7590 H   0  0  0  0  0  0  0  0  0  0  0  0
   -6.4079   19.4484  -31.8668 H   0  0  0  0  0  0  0  0  0  0  0  0
   -6.8773   17.9903  -32.8783 H   0  0  0  0  0  0  0  0  0  0  0  0
   -6.1724   20.1123  -34.6671 H   0  0  0  0  0  0  0  0  0  0  0  0
   -4.9698   17.4170  -33.9004 H   0  0  0  0  0  0  0  0  0  0  0  0
   -6.0638   17.8015  -35.2722 H   0  0  0  0  0  0  0  0  0  0  0  0
   -4.3746   18.4123  -35.2722 H   0  0  0  0  0  0  0  0  0  0  0  0
   -4.8784   21.2986  -33.7084 H   0  0  0  0  0  0  0  0  0  0  0  0
   -4.6615   21.2637  -31.3585 H   0  0  0  0  0  0  0  0  0  0  0  0
   -4.9869   19.5454  -31.3025 H   0  0  0  0  0  0  0  0  0  0  0  0
   -2.5885   19.7925  -30.5958 H   0  0  0  0  0  0  0  0  0  0  0  0
   -2.5237   22.2204  -31.7606 H   0  0  0  0  0  0  0  0  0  0  0  0
   -1.0281   21.3123  -31.7950 H   0  0  0  0  0  0  0  0  0  0  0  0
   -2.6918   22.0800  -34.0826 H   0  0  0  0  0  0  0  0  0  0  0  0
   -1.2496   21.0970  -34.1862 H   0  0  0  0  0  0  0  0  0  0  0  0
   -3.1350   19.5315  -34.8557 H   0  0  0  0  0  0  0  0  0  0  0  0
   -3.1436   18.1227  -32.6062 H   0  0  0  0  0  0  0  0  0  0  0  0
   -1.5514   18.6733  -32.8252 H   0  0  0  0  0  0  0  0  0  0  0  0
  1  2  1  0
  2  3  1  0
  3  4  1  0
  4  5  1  0
  3  6  1  0
  6  7  1  0
  7  8  1  0
  8  9  1  0
  9 10  1  0
 10 11  1  0
 11 12  1  0
 12 13  1  0
 13 14  1  0
 14 15  1  0
 15 16  1  0
 16 17  1  0
 17 18  1  0
 18 19  1  0
 19 20  1  0
 20 21  1  0
 20 22  1  0
 22 23  1  0
 23 24  1  0
 24 25  1  0
 25 26  1  0
 26 27  1  0
 27 28  1  0
 27 22  1  0
 28 24  1  0
  1 29  1  0
  1 30  1  0
  1 31  1  0
  2 32  1  0
  2 33  1  0
  4 34  1  0
  4 35  1  0
  5 36  1  0
  5 37  1  0
  5 38  1  0
  6 39  1  0
  6 40  1  0
  7 41  1  0
  7 42  1  0
  9 43  1  0
  9 44  1  0
 10 45  1  0
 10 46  1  0
 12 47  1  0
 12 48  1  0
 13 49  1  0
 13 50  1  0
 15 51  1  0
 15 52  1  0
 16 53  1  0
 16 54  1  0
 17 55  1  0
 17 56  1  0
 18 57  1  0
 18 58  1  0
 19 59  1  0
 19 60  1  0
 20 61  1  6
 21 62  1  0
 21 63  1  0
 21 64  1  0
 22 65  1  6
 23 66  1  0
 23 67  1  0
 24 68  1  1
 25 69  1  0
 25 70  1  0
 26 71  1  0
 26 72  1  0
 27 73  1  6
 28 74  1  0
 28 75  1  0
M  CHG  1  18   1
M  END
>  <UniqueID>  (4) 
4

>  <SMILES>  (4) 
CCN(CC)CCOCCOCCOCCC[NH2+]C[C@H](C)[C@H]1CC2CCC1C2

>  <Energy>  (4) 
107.16472436398864

>  <Genealogy>  (4) 
CCN(CC)CCOCCOCCOCCC[NH2+]CC(C)C1CC2CCC1C2 (protonated)
CCN(CC)CCOCCOCCOCCC[NH2+]C[C@H](C)[C@H]1CC2CCC1C2 (chirality)
CCN(CC)CCOCCOCCOCCC[NH2+]C[C@H](C)[C@H]1CC2CCC1C2 (3D coordinates assigned)
CCN(CC)CCOCCOCCOCCC[NH2+]C[C@H](C)[C@H]1CC2CCC1C2 (nonaromatic ring conformer: 107.16472436398864 kcal/mol)

>  <smiles>  (4) 
CCN(CC)CCOCCOCCOCCCNCC(C)C1CC2CCC1C2

>  <score_type>  (4) 
oracle

>  <origin>  (4) 
adg

>  <m_score__min__energy>  (4) 
-7.1299999999999999

>  <m_primary>  (4) 
energy

$$$$
4:0
     RDKit          3D

 51 53  0  0  0  0  0  0  0  0999 V2000
   -3.3510   24.1980  -27.5100 C   0  0  0  0  0  0  0  0  0  0  0  0
   -2.4390   24.6290  -28.6550 C   0  0  0  0  0  0  0  0  0  0  0  0
   -3.1990   25.2020  -29.7190 O   0  0  0  0  0  0  0  0  0  0  0  0
   -4.4250   24.7140  -30.2020 C   0  0  0  0  0  0  0  0  0  0  0  0
   -4.4080   23.5640  -31.0000 C   0  0  0  0  0  0  0  0  0  0  0  0
   -5.5950   23.0360  -31.5130 C   0  0  0  0  0  0  0  0  0  0  0  0
   -6.8240   23.6510  -31.2290 C   0  0  0  0  0  0  0  0  0  0  0  0
   -8.1010   23.1090  -31.8260 C   0  0  0  0  0  0  0  0  0  0  0  0
   -8.6040   21.9450  -31.0790 N   0  0  0  0  0  0  0  0  0  0  0  0
   -8.1940   20.7050  -31.6960 C   0  0  0  0  0  0  0  0  0  0  0  0
   -8.7190   19.4780  -31.2520 C   0  0  0  0  0  0  0  0  0  0  0  0
   -8.2890   18.2780  -31.8220 C   0  0  0  0  0  0  0  0  0  0  0  0
   -7.3230   18.2820  -32.8390 C   0  0  0  0  0  0  0  0  0  0  0  0
   -6.8730   16.9910  -33.4750 C   0  0  0  0  0  0  0  0  0  0  0  0
   -5.3990   16.9380  -33.5770 N   0  0  0  0  0  0  0  0  0  0  0  0
   -4.9370   17.2990  -34.9390 C   0  0  0  0  0  0  0  0  0  0  0  0
   -3.5400   16.7210  -35.2180 C   0  0  0  0  0  0  0  0  0  0  0  0
   -3.4830   15.3010  -35.1540 O   0  0  0  0  0  0  0  0  0  0  0  0
   -4.4730   14.7280  -34.3120 C   0  0  0  0  0  0  0  0  0  0  0  0
   -4.8680   15.6270  -33.1270 C   0  0  0  0  0  0  0  0  0  0  0  0
   -6.8000   19.5040  -33.2870 C   0  0  0  0  0  0  0  0  0  0  0  0
   -7.2280   20.7060  -32.7170 C   0  0  0  0  0  0  0  0  0  0  0  0
   -6.8460   24.8090  -30.4370 C   0  0  0  0  0  0  0  0  0  0  0  0
   -5.6570   25.3380  -29.9260 C   0  0  0  0  0  0  0  0  0  0  0  0
   -2.8666   24.4269  -26.5493 H   0  0  0  0  0  0  0  0  0  0  0  0
   -4.3057   24.7402  -27.5776 H   0  0  0  0  0  0  0  0  0  0  0  0
   -3.5382   23.1162  -27.5776 H   0  0  0  0  0  0  0  0  0  0  0  0
   -1.7203   25.3741  -28.2830 H   0  0  0  0  0  0  0  0  0  0  0  0
   -1.9091   23.7438  -29.0366 H   0  0  0  0  0  0  0  0  0  0  0  0
   -3.4506   23.0714  -31.2252 H   0  0  0  0  0  0  0  0  0  0  0  0
   -5.5663   22.1343  -32.1423 H   0  0  0  0  0  0  0  0  0  0  0  0
   -8.8653   23.8999  -31.8093 H   0  0  0  0  0  0  0  0  0  0  0  0
   -7.8867   22.7871  -32.8558 H   0  0  0  0  0  0  0  0  0  0  0  0
   -9.6500   21.9850  -31.0590 H   0  0  0  0  0  0  0  0  0  0  0  0
   -8.2750   21.9880  -30.0850 H   0  0  0  0  0  0  0  0  0  0  0  0
   -9.4728   19.4636  -30.4510 H   0  0  0  0  0  0  0  0  0  0  0  0
   -8.7102   17.3242  -31.4715 H   0  0  0  0  0  0  0  0  0  0  0  0
   -7.2220   16.1469  -32.8621 H   0  0  0  0  0  0  0  0  0  0  0  0
   -7.2974   16.9320  -34.4881 H   0  0  0  0  0  0  0  0  0  0  0  0
   -5.6464   16.8977  -35.6777 H   0  0  0  0  0  0  0  0  0  0  0  0
   -4.8837   18.3953  -35.0120 H   0  0  0  0  0  0  0  0  0  0  0  0
   -3.2293   17.0355  -36.2253 H   0  0  0  0  0  0  0  0  0  0  0  0
   -2.8720   17.1042  -34.4326 H   0  0  0  0  0  0  0  0  0  0  0  0
   -5.3719   14.5324  -34.9151 H   0  0  0  0  0  0  0  0  0  0  0  0
   -4.0444   13.8070  -33.8899 H   0  0  0  0  0  0  0  0  0  0  0  0
   -5.6409   15.1150  -32.5349 H   0  0  0  0  0  0  0  0  0  0  0  0
   -3.9656   15.8138  -32.5264 H   0  0  0  0  0  0  0  0  0  0  0  0
   -6.0493   19.5162  -34.0909 H   0  0  0  0  0  0  0  0  0  0  0  0
   -6.8063   21.6588  -33.0695 H   0  0  0  0  0  0  0  0  0  0  0  0
   -7.8038   25.3032  -30.2170 H   0  0  0  0  0  0  0  0  0  0  0  0
   -5.6839   26.2459  -29.3055 H   0  0  0  0  0  0  0  0  0  0  0  0
  1  2  1  0
  2  3  1  0
  3  4  1  0
  4  5  2  0
  5  6  1  0
  6  7  2  0
  7  8  1  0
  8  9  1  0
  9 10  1  0
 10 11  2  0
 11 12  1  0
 12 13  2  0
 13 14  1  0
 14 15  1  0
 15 16  1  0
 16 17  1  0
 17 18  1  0
 18 19  1  0
 19 20  1  0
 13 21  1  0
 21 22  2  0
  7 23  1  0
 23 24  2  0
 24  4  1  0
 22 10  1  0
 20 15  1  0
  1 25  1  0
  1 26  1  0
  1 27  1  0
  2 28  1  0
  2 29  1  0
  5 30  1  0
  6 31  1  0
  8 32  1  0
  8 33  1  0
  9 34  1  0
  9 35  1  0
 11 36  1  0
 12 37  1  0
 14 38  1  0
 14 39  1  0
 16 40  1  0
 16 41  1  0
 17 42  1  0
 17 43  1  0
 19 44  1  0
 19 45  1  0
 20 46  1  0
 20 47  1  0
 21 48  1  0
 22 49  1  0
 23 50  1  0
 24 51  1  0
M  CHG  1   9   1
M  END
>  <UniqueID>  (5) 
5

>  <SMILES>  (5) 
CCOc1ccc(C[NH2+]c2ccc(CN3CCOCC3)cc2)cc1

>  <Energy>  (5) 
63.637775148816125

>  <Genealogy>  (5) 
CCOc1ccc(C[NH2+]c2ccc(CN3CCOCC3)cc2)cc1 (protonated)
CCOc1ccc(C[NH2+]c2ccc(CN3CCOCC3)cc2)cc1 (3D coordinates assigned)
CCOc1ccc(C[NH2+]c2ccc(CN3CCOCC3)cc2)cc1 (nonaromatic ring conformer: 63.637775148816125 kcal/mol)

>  <smiles>  (5) 
CCOc1ccc(CNc2ccc(CN3CCOCC3)cc2)cc1

>  <score_type>  (5) 
oracle

>  <origin>  (5) 
adg

>  <m_score__min__energy>  (5) 
-7.8200000000000003

>  <m_primary>  (5) 
energy

$$$$
5:0
     RDKit          3D

 82 86  0  0  0  0  0  0  0  0999 V2000
   -2.6850   13.5660  -32.5760 C   0  0  0  0  0  0  0  0  0  0  0  0
   -3.0590   14.5970  -33.6180 C   0  0  0  0  0  0  0  0  0  0  0  0
   -2.2890   14.7000  -34.7950 C   0  0  0  0  0  0  0  0  0  0  0  0
   -1.1570   13.8840  -34.9480 O   0  0  0  0  0  0  0  0  0  0  0  0
    0.1900   14.3560  -34.9720 C   0  0  0  0  0  0  0  0  0  0  0  0
    0.7700   14.3130  -33.5650 C   0  0  0  0  0  0  0  0  0  0  0  0
   -0.0570   15.0710  -32.7080 O   0  0  0  0  0  0  0  0  0  0  0  0
    0.7190   16.0160  -32.0040 C   0  0  0  0  0  0  0  0  0  0  0  0
    0.2820   17.4390  -32.3910 C   0  0  0  0  0  0  0  0  0  0  0  0
   -0.8870   17.4620  -33.3050 N   0  0  0  0  0  0  0  0  0  0  0  0
   -0.4890   18.0260  -34.6070 C   0  0  0  0  0  0  0  0  0  0  0  0
   -2.0070   18.2490  -32.7510 C   0  0  0  0  0  0  0  0  0  0  0  0
   -2.6610   15.6210  -35.7860 C   0  0  0  0  0  0  0  0  0  0  0  0
   -3.7440   16.4690  -35.5930 C   0  0  0  0  0  0  0  0  0  0  0  0
   -4.4780   16.4430  -34.3990 C   0  0  0  0  0  0  0  0  0  0  0  0
   -4.1390   15.4980  -33.3950 C   0  0  0  0  0  0  0  0  0  0  0  0
   -4.9950   15.3670  -32.1460 C   0  0  0  0  0  0  0  0  0  0  0  0
   -5.7420   16.6530  -31.8030 C   0  0  0  0  0  0  0  0  0  0  0  0
   -6.5270   17.1370  -33.0310 C   0  0  2  0  0  0  0  0  0  0  0  0
   -5.5780   17.4810  -34.2130 C   0  0  1  0  0  0  0  0  0  0  0  0
   -4.9620   18.9080  -34.1070 C   0  0  0  0  0  0  0  0  0  0  0  0
   -6.0060   20.0210  -33.8380 C   0  0  0  0  0  0  0  0  0  0  0  0
   -6.8700   19.7050  -32.5950 C   0  0  1  0  0  0  0  0  0  0  0  0
   -6.0210   19.8580  -31.2920 C   0  0  0  0  0  0  0  0  0  0  0  0
   -8.1650   20.5500  -32.4700 C   0  0  2  0  0  0  0  0  0  0  0  0
   -7.9580   21.7940  -31.8150 O   0  0  0  0  0  0  0  0  0  0  0  0
   -7.0300   22.5890  -32.5230 C   0  0  0  0  0  0  0  0  0  0  0  0
   -6.2200   23.3870  -31.5340 C   0  0  0  0  0  0  0  0  0  0  0  0
   -6.8760   24.2790  -30.6690 C   0  0  0  0  0  0  0  0  0  0  0  0
   -6.1530   25.0070  -29.7190 C   0  0  0  0  0  0  0  0  0  0  0  0
   -4.7720   24.8420  -29.6120 C   0  0  0  0  0  0  0  0  0  0  0  0
   -4.1080   23.9450  -30.4550 C   0  0  0  0  0  0  0  0  0  0  0  0
   -4.8220   23.2110  -31.4110 C   0  0  0  0  0  0  0  0  0  0  0  0
   -3.9340   22.0810  -32.4300 Cl  0  0  0  0  0  0  0  0  0  0  0  0
   -9.1130   19.6630  -31.6320 C   0  0  0  0  0  0  0  0  0  0  0  0
   -8.6150   18.2130  -31.7760 C   0  0  0  0  0  0  0  0  0  0  0  0
   -7.4980   18.3170  -32.8040 C   0  0  2  0  0  0  0  0  0  0  0  0
   -2.8379   13.9876  -31.5716 H   0  0  0  0  0  0  0  0  0  0  0  0
   -3.3169   12.6741  -32.6994 H   0  0  0  0  0  0  0  0  0  0  0  0
   -1.6282   13.2866  -32.6994 H   0  0  0  0  0  0  0  0  0  0  0  0
    0.7905   13.7163  -35.6355 H   0  0  0  0  0  0  0  0  0  0  0  0
    0.2084   15.3911  -35.3438 H   0  0  0  0  0  0  0  0  0  0  0  0
    0.8104   13.2714  -33.2136 H   0  0  0  0  0  0  0  0  0  0  0  0
    1.7876   14.7306  -33.5676 H   0  0  0  0  0  0  0  0  0  0  0  0
    0.5780   15.8718  -30.9226 H   0  0  0  0  0  0  0  0  0  0  0  0
    1.7799   15.8789  -32.2603 H   0  0  0  0  0  0  0  0  0  0  0  0
    0.0195   17.9861  -31.4735 H   0  0  0  0  0  0  0  0  0  0  0  0
    1.1233   17.9064  -32.9236 H   0  0  0  0  0  0  0  0  0  0  0  0
   -1.2170   16.4820  -33.4710 H   0  0  0  0  0  0  0  0  0  0  0  0
    0.1383   18.9150  -34.4452 H   0  0  0  0  0  0  0  0  0  0  0  0
    0.0797   17.2742  -35.1738 H   0  0  0  0  0  0  0  0  0  0  0  0
   -1.3879   18.3099  -35.1738 H   0  0  0  0  0  0  0  0  0  0  0  0
   -1.9668   18.2207  -31.6521 H   0  0  0  0  0  0  0  0  0  0  0  0
   -1.9279   19.2911  -33.0941 H   0  0  0  0  0  0  0  0  0  0  0  0
   -2.9606   17.8214  -33.0941 H   0  0  0  0  0  0  0  0  0  0  0  0
   -2.0896   15.6719  -36.7246 H   0  0  0  0  0  0  0  0  0  0  0  0
   -4.0301   17.1718  -36.3894 H   0  0  0  0  0  0  0  0  0  0  0  0
   -5.7309   14.5654  -32.3068 H   0  0  0  0  0  0  0  0  0  0  0  0
   -4.3221   15.1409  -31.3057 H   0  0  0  0  0  0  0  0  0  0  0  0
   -6.4400   16.4609  -30.9748 H   0  0  0  0  0  0  0  0  0  0  0  0
   -5.0191   17.4263  -31.5040 H   0  0  0  0  0  0  0  0  0  0  0  0
   -7.1634   16.2725  -33.2712 H   0  0  0  0  0  0  0  0  0  0  0  0
   -6.2191   17.4639  -35.1067 H   0  0  0  0  0  0  0  0  0  0  0  0
   -4.4485   19.1353  -35.0529 H   0  0  0  0  0  0  0  0  0  0  0  0
   -4.2756   18.8978  -33.2475 H   0  0  0  0  0  0  0  0  0  0  0  0
   -6.6633   20.1130  -34.7152 H   0  0  0  0  0  0  0  0  0  0  0  0
   -5.4656   20.9606  -33.6507 H   0  0  0  0  0  0  0  0  0  0  0  0
   -6.6728   19.7405  -30.4138 H   0  0  0  0  0  0  0  0  0  0  0  0
   -5.2370   19.0867  -31.2725 H   0  0  0  0  0  0  0  0  0  0  0  0
   -5.5556   20.8545  -31.2725 H   0  0  0  0  0  0  0  0  0  0  0  0
   -8.5598   20.8118  -33.4628 H   0  0  0  0  0  0  0  0  0  0  0  0
   -6.3624   21.9424  -33.1114 H   0  0  0  0  0  0  0  0  0  0  0  0
   -7.5631   23.2686  -33.2042 H   0  0  0  0  0  0  0  0  0  0  0  0
   -7.9664   24.4056  -30.7397 H   0  0  0  0  0  0  0  0  0  0  0  0
   -6.6745   25.7115  -29.0544 H   0  0  0  0  0  0  0  0  0  0  0  0
   -4.2054   25.4172  -28.8649 H   0  0  0  0  0  0  0  0  0  0  0  0
   -3.0192   23.8152  -30.3669 H   0  0  0  0  0  0  0  0  0  0  0  0
  -10.1427   19.7483  -32.0095 H   0  0  0  0  0  0  0  0  0  0  0  0
   -9.1139   19.9755  -30.5773 H   0  0  0  0  0  0  0  0  0  0  0  0
   -9.4200   17.5555  -32.1362 H   0  0  0  0  0  0  0  0  0  0  0  0
   -8.2783   17.7807  -30.8222 H   0  0  0  0  0  0  0  0  0  0  0  0
   -7.9520   18.2113  -33.8004 H   0  0  0  0  0  0  0  0  0  0  0  0
  1  2  1  0
  2  3  2  0
  3  4  1  0
  4  5  1  0
  5  6  1  0
  6  7  1  0
  7  8  1  0
  8  9  1  0
  9 10  1  0
 10 11  1  0
 10 12  1  0
  3 13  1  0
 13 14  2  0
 14 15  1  0
 15 16  2  0
 16 17  1  0
 17 18  1  0
 18 19  1  0
 19 20  1  0
 20 21  1  0
 21 22  1  0
 22 23  1  0
 23 24  1  1
 23 25  1  0
 25 26  1  0
 26 27  1  0
 27 28  1  0
 28 29  2  0
 29 30  1  0
 30 31  2  0
 31 32  1  0
 32 33  2  0
 33 34  1  0
 25 35  1  0
 35 36  1  0
 36 37  1  0
 16  2  1  0
 37 19  1  0
 20 15  1  0
 37 23  1  0
 33 28  1  0
  1 38  1  0
  1 39  1  0
  1 40  1  0
  5 41  1  0
  5 42  1  0
  6 43  1  0
  6 44  1  0
  8 45  1  0
  8 46  1  0
  9 47  1  0
  9 48  1  0
 10 49  1  0
 11 50  1  0
 11 51  1  0
 11 52  1  0
 12 53  1  0
 12 54  1  0
 12 55  1  0
 13 56  1  0
 14 57  1  0
 17 58  1  0
 17 59  1  0
 18 60  1  0
 18 61  1  0
 19 62  1  6
 20 63  1  6
 21 64  1  0
 21 65  1  0
 22 66  1  0
 22 67  1  0
 24 68  1  0
 24 69  1  0
 24 70  1  0
 25 71  1  6
 27 72  1  0
 27 73  1  0
 29 74  1  0
 30 75  1  0
 31 76  1  0
 32 77  1  0
 35 78  1  0
 35 79  1  0
 36 80  1  0
 36 81  1  0
 37 82  1  6
M  CHG  1  10   1
M  END
>  <UniqueID>  (6) 
6

>  <SMILES>  (6) 
Cc1c(OCCOCC[NH+](C)C)ccc2c1CC[C@H]1C3CCC(OCc4ccccc4Cl)C3(C)CC[C@@H]21

>  <Energy>  (6) 
109.23346559165893

>  <Genealogy>  (6) 
Cc1c(OCCOCC[NH+](C)C)ccc2c1CCC1C2CCC2(C)C(OCc3ccccc3Cl)CCC12 (protonated)
Cc1c(OCCOCC[NH+](C)C)ccc2c1CC[C@H]1C3CCC(OCc4ccccc4Cl)C3(C)CC[C@@H]21 (chirality)
Cc1c(OCCOCC[NH+](C)C)ccc2c1CC[C@H]1C3CCC(OCc4ccccc4Cl)C3(C)CC[C@@H]21 (3D coordinates assigned)
Cc1c(OCCOCC[NH+](C)C)ccc2c1CC[C@H]1C3CCC(OCc4ccccc4Cl)C3(C)CC[C@@H]21 (nonaromatic ring conformer: 109.23346559165893 kcal/mol)

>  <smiles>  (6) 
Cc1c(OCCOCCN(C)C)ccc2c1CCC1C2CCC2(C)C(OCc3ccccc3Cl)CCC12

>  <score_type>  (6) 
oracle

>  <origin>  (6) 
adg

>  <m_score__min__energy>  (6) 
-9.9600000000000009

>  <m_primary>  (6) 
energy

$$$$
6:0
     RDKit          3D

 46 49  0  0  0  0  0  0  0  0999 V2000
   -4.2470   23.7420  -28.4180 C   0  0  0  0  0  0  0  0  0  0  0  0
   -5.2840   24.6810  -28.8580 N   0  0  0  0  0  0  0  0  0  0  0  0
   -5.5860   24.5620  -30.2970 C   0  0  0  0  0  0  0  0  0  0  0  0
   -4.6060   23.6460  -31.0480 C   0  0  0  0  0  0  0  0  0  0  0  0
   -5.1980   23.1410  -32.2870 N   0  0  0  0  0  0  0  0  0  0  0  0
   -5.7640   21.8230  -32.3930 C   0  0  0  0  0  0  0  0  0  0  0  0
   -4.9690   20.7310  -32.7530 C   0  0  0  0  0  0  0  0  0  0  0  0
   -5.5210   19.4710  -32.8960 C   0  0  0  0  0  0  0  0  0  0  0  0
   -6.8270   19.2090  -32.5700 N   0  0  0  0  0  0  0  0  0  0  0  0
   -7.2820   17.8170  -32.4110 C   0  0  0  0  0  0  0  0  0  0  0  0
   -7.6770   20.2760  -32.3340 C   0  0  0  0  0  0  0  0  0  0  0  0
   -9.0760   20.0980  -32.2140 C   0  0  0  0  0  0  0  0  0  0  0  0
   -9.9190   21.1780  -31.9520 C   0  0  0  0  0  0  0  0  0  0  0  0
   -9.3960   22.4580  -31.8170 C   0  0  0  0  0  0  0  0  0  0  0  0
   -8.0280   22.6770  -31.9590 C   0  0  0  0  0  0  0  0  0  0  0  0
   -7.1520   21.6050  -32.2320 C   0  0  0  0  0  0  0  0  0  0  0  0
   -4.4890   18.5860  -33.4510 C   0  0  0  0  0  0  0  0  0  0  0  0
   -4.5600   17.2870  -33.9780 C   0  0  0  0  0  0  0  0  0  0  0  0
   -3.4020   16.7190  -34.5310 C   0  0  0  0  0  0  0  0  0  0  0  0
   -2.2070   17.4570  -34.5960 C   0  0  0  0  0  0  0  0  0  0  0  0
   -2.1680   18.7770  -34.1280 C   0  0  0  0  0  0  0  0  0  0  0  0
   -3.3240   19.3270  -33.5710 C   0  0  0  0  0  0  0  0  0  0  0  0
   -3.5130   20.7390  -33.1260 C   0  0  0  0  0  0  0  0  0  0  0  0
   -4.2184   23.7161  -27.3187 H   0  0  0  0  0  0  0  0  0  0  0  0
   -4.4752   22.7370  -28.8026 H   0  0  0  0  0  0  0  0  0  0  0  0
   -3.2696   24.0686  -28.8026 H   0  0  0  0  0  0  0  0  0  0  0  0
   -4.9390   25.6540  -28.6780 H   0  0  0  0  0  0  0  0  0  0  0  0
   -6.1470   24.5380  -28.2870 H   0  0  0  0  0  0  0  0  0  0  0  0
   -6.6014   24.1538  -30.4085 H   0  0  0  0  0  0  0  0  0  0  0  0
   -5.4943   25.5671  -30.7344 H   0  0  0  0  0  0  0  0  0  0  0  0
   -3.6968   24.2155  -31.2908 H   0  0  0  0  0  0  0  0  0  0  0  0
   -4.3656   22.7888  -30.4020 H   0  0  0  0  0  0  0  0  0  0  0  0
   -5.1530   23.7400  -33.1410 H   0  0  0  0  0  0  0  0  0  0  0  0
   -7.3605   17.5769  -31.3404 H   0  0  0  0  0  0  0  0  0  0  0  0
   -8.2663   17.6964  -32.8869 H   0  0  0  0  0  0  0  0  0  0  0  0
   -6.5589   17.1383  -32.8869 H   0  0  0  0  0  0  0  0  0  0  0  0
   -9.5054   19.0918  -32.3292 H   0  0  0  0  0  0  0  0  0  0  0  0
  -11.0023   21.0156  -31.8519 H   0  0  0  0  0  0  0  0  0  0  0  0
  -10.0656   23.3025  -31.5969 H   0  0  0  0  0  0  0  0  0  0  0  0
   -7.6263   23.6960  -31.8573 H   0  0  0  0  0  0  0  0  0  0  0  0
   -5.5053   16.7249  -33.9579 H   0  0  0  0  0  0  0  0  0  0  0  0
   -3.4294   15.6891  -34.9163 H   0  0  0  0  0  0  0  0  0  0  0  0
   -1.3002   16.9968  -35.0154 H   0  0  0  0  0  0  0  0  0  0  0  0
   -1.2436   19.3691  -34.1981 H   0  0  0  0  0  0  0  0  0  0  0  0
   -2.8761   20.9786  -32.2617 H   0  0  0  0  0  0  0  0  0  0  0  0
   -3.2430   21.4919  -33.8811 H   0  0  0  0  0  0  0  0  0  0  0  0
  1  2  1  0
  2  3  1  0
  3  4  1  0
  4  5  1  0
  5  6  1  0
  6  7  2  0
  7  8  1  0
  8  9  2  0
  9 10  1  0
  9 11  1  0
 11 12  2  0
 12 13  1  0
 13 14  2  0
 14 15  1  0
 15 16  2  0
  8 17  1  0
 17 18  2  0
 18 19  1  0
 19 20  2  0
 20 21  1  0
 21 22  2  0
 22 23  1  0
 16  6  1  0
 22 17  1  0
 23  7  1  0
 16 11  1  0
  1 24  1  0
  1 25  1  0
  1 26  1  0
  2 27  1  0
  2 28  1  0
  3 29  1  0
  3 30  1  0
  4 31  1  0
  4 32  1  0
  5 33  1  0
 10 34  1  0
 10 35  1  0
 10 36  1  0
 12 37  1  0
 13 38  1  0
 14 39  1  0
 15 40  1  0
 18 41  1  0
 19 42  1  0
 20 43  1  0
 21 44  1  0
 23 45  1  0
 23 46  1  0
M  CHG  2   2   1   9   1
M  END
>  <UniqueID>  (7) 
7

>  <SMILES>  (7) 
C[NH2+]CCNc1c2c([n+](C)c3ccccc13)-c1ccccc1C2

>  <Energy>  (7) 
89.90980422404027

>  <Genealogy>  (7) 
C[NH2+]CCNc1c2c([n+](C)c3ccccc13)-c1ccccc1C2 (protonated)
C[NH2+]CCNc1c2c([n+](C)c3ccccc13)-c1ccccc1C2 (3D coordinates assigned)
C[NH2+]CCNc1c2c([n+](C)c3ccccc13)-c1ccccc1C2 (nonaromatic ring conformer: 89.90980422404027 kcal/mol)

>  <smiles>  (7) 
CNCCNc1c2c([n+](C)c3ccccc13)-c1ccccc1C2

>  <score_type>  (7) 
oracle

>  <origin>  (7) 
adg

>  <m_score__min__energy>  (7) 
-7.7199999999999998

>  <m_primary>  (7) 
energy

$$$$
7:0
     RDKit          3D

 51 54  0  0  0  0  0  0  0  0999 V2000
   -0.1120   20.3810  -35.4380 C   0  0  0  0  0  0  0  0  0  0  0  0
    0.0660   21.5560  -34.5670 N   0  0  0  0  0  0  0  0  0  0  0  0
    1.2640   22.2980  -34.9920 C   0  0  0  0  0  0  0  0  0  0  0  0
    0.1850   21.1630  -33.1450 C   0  0  0  0  0  0  0  0  0  0  0  0
   -1.1800   20.8200  -32.5270 C   0  0  0  0  0  0  0  0  0  0  0  0
   -2.2750   20.9950  -33.4860 N   0  0  0  0  0  0  0  0  0  0  0  0
   -3.5200   20.2870  -33.3750 C   0  0  0  0  0  0  0  0  0  0  0  0
   -4.6500   20.8990  -32.7960 C   0  0  0  0  0  0  0  0  0  0  0  0
   -5.8300   20.1420  -32.6200 C   0  0  0  0  0  0  0  0  0  0  0  0
   -5.7630   18.7690  -32.7390 N   0  0  0  0  0  0  0  0  0  0  0  0
   -6.6110   17.8990  -31.8990 C   0  0  0  0  0  0  0  0  0  0  0  0
   -4.7500   18.1940  -33.4770 C   0  0  0  0  0  0  0  0  0  0  0  0
   -4.7960   16.8340  -33.8650 C   0  0  0  0  0  0  0  0  0  0  0  0
   -3.7510   16.2620  -34.5920 C   0  0  0  0  0  0  0  0  0  0  0  0
   -3.8180   14.9580  -34.9620 F   0  0  0  0  0  0  0  0  0  0  0  0
   -2.6420   17.0260  -34.9430 C   0  0  0  0  0  0  0  0  0  0  0  0
   -2.5680   18.3660  -34.5660 C   0  0  0  0  0  0  0  0  0  0  0  0
   -3.6170   18.9640  -33.8370 C   0  0  0  0  0  0  0  0  0  0  0  0
   -7.1100   20.8780  -32.3040 C   0  0  0  0  0  0  0  0  0  0  0  0
   -8.3380   20.2760  -32.4150 N   0  0  0  0  0  0  0  0  0  0  0  0
   -9.4900   20.9130  -32.0720 C   0  0  0  0  0  0  0  0  0  0  0  0
   -9.4620   22.2440  -31.6680 C   0  0  0  0  0  0  0  0  0  0  0  0
   -8.2530   22.9300  -31.6800 C   0  0  0  0  0  0  0  0  0  0  0  0
   -7.0680   22.2630  -32.0230 C   0  0  0  0  0  0  0  0  0  0  0  0
   -5.8490   23.0780  -32.3430 C   0  0  0  0  0  0  0  0  0  0  0  0
   -4.5570   22.2840  -32.1960 C   0  0  0  0  0  0  0  0  0  0  0  0
   -0.2481   19.4824  -34.8183 H   0  0  0  0  0  0  0  0  0  0  0  0
   -0.9984   20.5262  -36.0730 H   0  0  0  0  0  0  0  0  0  0  0  0
    0.7776   20.2571  -36.0730 H   0  0  0  0  0  0  0  0  0  0  0  0
    1.8170   22.6405  -34.1050 H   0  0  0  0  0  0  0  0  0  0  0  0
    1.9081   21.6405  -35.5943 H   0  0  0  0  0  0  0  0  0  0  0  0
    0.9622   23.1676  -35.5943 H   0  0  0  0  0  0  0  0  0  0  0  0
    0.8389   20.2814  -33.0736 H   0  0  0  0  0  0  0  0  0  0  0  0
    0.6048   22.0153  -32.5906 H   0  0  0  0  0  0  0  0  0  0  0  0
   -1.1652   19.7724  -32.1917 H   0  0  0  0  0  0  0  0  0  0  0  0
   -1.3535   21.5045  -31.6836 H   0  0  0  0  0  0  0  0  0  0  0  0
   -2.1200   21.6010  -34.3230 H   0  0  0  0  0  0  0  0  0  0  0  0
   -6.4098   18.1054  -30.8374 H   0  0  0  0  0  0  0  0  0  0  0  0
   -7.6705   18.0987  -32.1170 H   0  0  0  0  0  0  0  0  0  0  0  0
   -6.3842   16.8449  -32.1170 H   0  0  0  0  0  0  0  0  0  0  0  0
   -5.6663   16.2199  -33.5902 H   0  0  0  0  0  0  0  0  0  0  0  0
   -1.8223   16.5717  -35.5190 H   0  0  0  0  0  0  0  0  0  0  0  0
   -1.6846   18.9617  -34.8392 H   0  0  0  0  0  0  0  0  0  0  0  0
   -8.4400   19.3260  -32.8250 H   0  0  0  0  0  0  0  0  0  0  0  0
  -10.4477   20.3735  -32.1142 H   0  0  0  0  0  0  0  0  0  0  0  0
  -10.3847   22.7471  -31.3432 H   0  0  0  0  0  0  0  0  0  0  0  0
   -8.2257   23.9985  -31.4199 H   0  0  0  0  0  0  0  0  0  0  0  0
   -5.9267   23.4352  -33.3805 H   0  0  0  0  0  0  0  0  0  0  0  0
   -5.8097   23.9128  -31.6278 H   0  0  0  0  0  0  0  0  0  0  0  0
   -3.7479   22.8323  -32.7008 H   0  0  0  0  0  0  0  0  0  0  0  0
   -4.3604   22.1668  -31.1201 H   0  0  0  0  0  0  0  0  0  0  0  0
  1  2  1  0
  2  3  1  0
  2  4  1  0
  4  5  1  0
  5  6  1  0
  6  7  1  0
  7  8  2  0
  8  9  1  0
  9 10  2  0
 10 11  1  0
 10 12  1  0
 12 13  2  0
 13 14  1  0
 14 15  1  0
 14 16  2  0
 16 17  1  0
 17 18  2  0
  9 19  1  0
 19 20  2  0
 20 21  1  0
 21 22  2  0
 22 23  1  0
 23 24  2  0
 24 25  1  0
 25 26  1  0
 18  7  1  0
 24 19  1  0
 26  8  1  0
 18 12  1  0
  1 27  1  0
  1 28  1  0
  1 29  1  0
  3 30  1  0
  3 31  1  0
  3 32  1  0
  4 33  1  0
  4 34  1  0
  5 35  1  0
  5 36  1  0
  6 37  1  0
 11 38  1  0
 11 39  1  0
 11 40  1  0
 13 41  1  0
 16 42  1  0
 17 43  1  0
 20 44  1  0
 21 45  1  0
 22 46  1  0
 23 47  1  0
 25 48  1  0
 25 49  1  0
 26 50  1  0
 26 51  1  0
M  CHG  2  10   1  20   1
M  END
>  <UniqueID>  (8) 
8

>  <SMILES>  (8) 
CN(C)CCNc1c2c([n+](C)c3cc(F)ccc13)-c1[nH+]cccc1CC2

>  <Energy>  (8) 
89.38989582299983

>  <Genealogy>  (8) 
CN(C)CCNc1c2c([n+](C)c3cc(F)ccc13)-c1[nH+]cccc1CC2 (protonated)
CN(C)CCNc1c2c([n+](C)c3cc(F)ccc13)-c1[nH+]cccc1CC2 (3D coordinates assigned)
CN(C)CCNc1c2c([n+](C)c3cc(F)ccc13)-c1[nH+]cccc1CC2 (nonaromatic ring conformer: 89.38989582299983 kcal/mol)

>  <smiles>  (8) 
CN(C)CCNc1c2c([n+](C)c3cc(F)ccc13)-c1ncccc1CC2

>  <score_type>  (8) 
oracle

>  <origin>  (8) 
adg

>  <m_score__min__energy>  (8) 
-7.71

>  <m_primary>  (8) 
energy

$$$$
8:0
     RDKit          3D

 51 53  0  0  0  0  0  0  0  0999 V2000
   -4.2400   24.0200  -28.5830 C   0  0  0  0  0  0  0  0  0  0  0  0
   -3.6780   24.3640  -29.9590 C   0  0  0  0  0  0  0  0  0  0  0  0
   -4.7450   24.8760  -30.8460 N   0  0  0  0  0  0  0  0  0  0  0  0
   -5.7320   25.6940  -30.1160 C   0  0  0  0  0  0  0  0  0  0  0  0
   -5.3850   23.8070  -31.6450 C   0  0  0  0  0  0  0  0  0  0  0  0
   -4.5210   22.5410  -31.8050 C   0  0  0  0  0  0  0  0  0  0  0  0
   -4.8660   21.8350  -33.0380 N   0  0  0  0  0  0  0  0  0  0  0  0
   -5.1650   20.4310  -33.0180 C   0  0  0  0  0  0  0  0  0  0  0  0
   -6.4410   20.0080  -32.6090 C   0  0  0  0  0  0  0  0  0  0  0  0
   -7.3270   20.9010  -31.9690 C   0  0  0  0  0  0  0  0  0  0  0  0
   -8.5720   20.4680  -31.5200 C   0  0  0  0  0  0  0  0  0  0  0  0
   -8.9490   19.1400  -31.6890 C   0  0  0  0  0  0  0  0  0  0  0  0
   -8.0950   18.2460  -32.3340 C   0  0  0  0  0  0  0  0  0  0  0  0
   -6.8390   18.6690  -32.8390 C   0  0  0  0  0  0  0  0  0  0  0  0
   -6.0150   17.8190  -33.5480 N   0  0  0  0  0  0  0  0  0  0  0  0
   -6.5590   16.5560  -34.0990 C   0  0  0  0  0  0  0  0  0  0  0  0
   -4.6890   18.1560  -33.7580 C   0  0  0  0  0  0  0  0  0  0  0  0
   -3.7620   17.2060  -34.2520 C   0  0  0  0  0  0  0  0  0  0  0  0
   -2.4410   17.5510  -34.5030 C   0  0  0  0  0  0  0  0  0  0  0  0
   -1.9850   18.8270  -34.2150 C   0  0  0  0  0  0  0  0  0  0  0  0
   -2.8430   19.7900  -33.6660 C   0  0  0  0  0  0  0  0  0  0  0  0
   -2.2740   21.0200  -33.1820 N   0  0  0  0  0  0  0  0  0  0  0  0
   -1.6890   21.1530  -31.8530 C   0  0  0  0  0  0  0  0  0  0  0  0
   -4.2240   19.4740  -33.4700 C   0  0  0  0  0  0  0  0  0  0  0  0
   -3.5773   24.4257  -27.8044 H   0  0  0  0  0  0  0  0  0  0  0  0
   -5.2429   24.4592  -28.4763 H   0  0  0  0  0  0  0  0  0  0  0  0
   -4.3051   22.9271  -28.4763 H   0  0  0  0  0  0  0  0  0  0  0  0
   -2.8995   25.1334  -29.8491 H   0  0  0  0  0  0  0  0  0  0  0  0
   -3.2535   23.4528  -30.4057 H   0  0  0  0  0  0  0  0  0  0  0  0
   -5.5822   25.5698  -29.0333 H   0  0  0  0  0  0  0  0  0  0  0  0
   -5.6018   26.7526  -30.3852 H   0  0  0  0  0  0  0  0  0  0  0  0
   -6.7480   25.3695  -30.3852 H   0  0  0  0  0  0  0  0  0  0  0  0
   -6.3264   23.5232  -31.1518 H   0  0  0  0  0  0  0  0  0  0  0  0
   -5.5417   24.2149  -32.6545 H   0  0  0  0  0  0  0  0  0  0  0  0
   -3.4600   22.8293  -31.8383 H   0  0  0  0  0  0  0  0  0  0  0  0
   -4.7075   21.8740  -30.9504 H   0  0  0  0  0  0  0  0  0  0  0  0
   -4.5880   22.2690  -33.9480 H   0  0  0  0  0  0  0  0  0  0  0  0
   -7.0309   21.9503  -31.8233 H   0  0  0  0  0  0  0  0  0  0  0  0
   -9.2573   21.1764  -31.0316 H   0  0  0  0  0  0  0  0  0  0  0  0
   -9.9231   18.7940  -31.3130 H   0  0  0  0  0  0  0  0  0  0  0  0
   -8.4004   17.1960  -32.4530 H   0  0  0  0  0  0  0  0  0  0  0  0
   -6.8462   15.8891  -33.2727 H   0  0  0  0  0  0  0  0  0  0  0  0
   -7.4422   16.7758  -34.7167 H   0  0  0  0  0  0  0  0  0  0  0  0
   -5.7925   16.0652  -34.7167 H   0  0  0  0  0  0  0  0  0  0  0  0
   -4.0952   16.1748  -34.4404 H   0  0  0  0  0  0  0  0  0  0  0  0
   -1.7532   16.8078  -34.9325 H   0  0  0  0  0  0  0  0  0  0  0  0
   -0.9362   19.0879  -34.4198 H   0  0  0  0  0  0  0  0  0  0  0  0
   -2.5030   21.9030  -33.6910 H   0  0  0  0  0  0  0  0  0  0  0  0
   -2.4636   20.9769  -31.0921 H   0  0  0  0  0  0  0  0  0  0  0  0
   -0.8819   20.4154  -31.7322 H   0  0  0  0  0  0  0  0  0  0  0  0
   -1.2801   22.1670  -31.7322 H   0  0  0  0  0  0  0  0  0  0  0  0
  1  2  1  0
  2  3  1  0
  3  4  1  0
  3  5  1  0
  5  6  1  0
  6  7  1  0
  7  8  1  0
  8  9  2  0
  9 10  1  0
 10 11  2  0
 11 12  1  0
 12 13  2  0
 13 14  1  0
 14 15  2  0
 15 16  1  0
 15 17  1  0
 17 18  2  0
 18 19  1  0
 19 20  2  0
 20 21  1  0
 21 22  1  0
 22 23  1  0
 21 24  2  0
 24  8  1  0
 14  9  1  0
 24 17  1  0
  1 25  1  0
  1 26  1  0
  1 27  1  0
  2 28  1  0
  2 29  1  0
  4 30  1  0
  4 31  1  0
  4 32  1  0
  5 33  1  0
  5 34  1  0
  6 35  1  0
  6 36  1  0
  7 37  1  0
 10 38  1  0
 11 39  1  0
 12 40  1  0
 13 41  1  0
 16 42  1  0
 16 43  1  0
 16 44  1  0
 18 45  1  0
 19 46  1  0
 20 47  1  0
 22 48  1  0
 23 49  1  0
 23 50  1  0
 23 51  1  0
M  CHG  1  15   1
M  END
>  <UniqueID>  (9) 
9

>  <SMILES>  (9) 
CCN(C)CCNc1c2ccccc2[n+](C)c2cccc(NC)c12

>  <Energy>  (9) 
86.39735135366206

>  <Genealogy>  (9) 
CCN(C)CCNc1c2ccccc2[n+](C)c2cccc(NC)c12 (3D coordinates assigned)
CCN(C)CCNc1c2ccccc2[n+](C)c2cccc(NC)c12 (optimized conformer: 86.39735135366206 kcal/mol)

>  <smiles>  (9) 
CCN(C)CCNc1c2ccccc2[n+](C)c2cccc(NC)c12

>  <score_type>  (9) 
oracle

>  <origin>  (9) 
adg

>  <m_score__min__energy>  (9) 
-8.2400000000000002

>  <m_primary>  (9) 
energy

$$$$
9:0
     RDKit          3D

 68 71  0  0  0  0  0  0  0  0999 V2000
   -6.8070   24.9390  -29.8060 C   0  0  0  0  0  0  0  0  0  0  0  0
   -5.5390   25.6550  -30.2560 C   0  0  0  0  0  0  0  0  0  0  0  0
   -4.6190   24.7010  -30.8860 N   0  0  0  0  0  0  0  0  0  0  0  0
   -5.3200   23.5090  -31.3860 C   0  0  0  0  0  0  0  0  0  0  0  0
   -4.4330   22.6650  -32.3100 C   0  0  0  0  0  0  0  0  0  0  0  0
   -4.3630   21.2720  -31.8610 N   0  0  0  0  0  0  0  0  0  0  0  0
   -4.9960   20.2020  -32.5870 C   0  0  0  0  0  0  0  0  0  0  0  0
   -6.3810   20.0020  -32.4260 C   0  0  0  0  0  0  0  0  0  0  0  0
   -7.1790   20.9670  -31.7720 C   0  0  0  0  0  0  0  0  0  0  0  0
   -8.5370   20.7460  -31.5600 C   0  0  0  0  0  0  0  0  0  0  0  0
   -9.1210   19.5570  -31.9750 C   0  0  0  0  0  0  0  0  0  0  0  0
   -8.3540   18.5860  -32.6170 C   0  0  0  0  0  0  0  0  0  0  0  0
   -6.9750   18.7950  -32.8800 C   0  0  0  0  0  0  0  0  0  0  0  0
   -6.2010   17.8310  -33.4970 N   0  0  0  0  0  0  0  0  0  0  0  0
   -6.8450   16.6630  -34.1370 C   0  0  0  0  0  0  0  0  0  0  0  0
   -4.8280   17.9710  -33.5430 C   0  0  0  0  0  0  0  0  0  0  0  0
   -3.9870   16.8700  -33.8300 C   0  0  0  0  0  0  0  0  0  0  0  0
   -2.6110   17.0250  -33.9300 C   0  0  0  0  0  0  0  0  0  0  0  0
   -2.0460   18.2900  -33.8440 C   0  0  0  0  0  0  0  0  0  0  0  0
   -2.8460   19.4230  -33.6130 C   0  0  0  0  0  0  0  0  0  0  0  0
   -2.2620   20.7460  -33.7850 N   0  0  0  0  0  0  0  0  0  0  0  0
   -0.8020   20.7070  -34.0610 C   0  0  0  0  0  0  0  0  0  0  0  0
    0.0320   20.7830  -32.7660 C   0  0  0  0  0  0  0  0  0  0  0  0
   -0.6350   20.1080  -31.5460 C   0  0  0  0  0  0  0  0  0  0  0  0
   -1.5670   20.9470  -30.7550 N   0  0  0  0  0  0  0  0  0  0  0  0
   -1.9640   20.4080  -29.4430 C   0  0  0  0  0  0  0  0  0  0  0  0
   -3.1200   21.2460  -28.8550 C   0  0  0  0  0  0  0  0  0  0  0  0
   -3.2960   22.4920  -29.5130 O   0  0  0  0  0  0  0  0  0  0  0  0
   -2.0490   23.1330  -29.6790 C   0  0  0  0  0  0  0  0  0  0  0  0
   -1.1950   22.3750  -30.7080 C   0  0  0  0  0  0  0  0  0  0  0  0
   -4.2200   19.2240  -33.2560 C   0  0  0  0  0  0  0  0  0  0  0  0
   -6.8454   24.9173  -28.7069 H   0  0  0  0  0  0  0  0  0  0  0  0
   -7.6870   25.4735  -30.1932 H   0  0  0  0  0  0  0  0  0  0  0  0
   -6.8038   23.9094  -30.1932 H   0  0  0  0  0  0  0  0  0  0  0  0
   -5.8018   26.4399  -30.9804 H   0  0  0  0  0  0  0  0  0  0  0  0
   -5.0484   26.1041  -29.3799 H   0  0  0  0  0  0  0  0  0  0  0  0
   -3.9430   24.3800  -30.1530 H   0  0  0  0  0  0  0  0  0  0  0  0
   -5.6275   22.8923  -30.5286 H   0  0  0  0  0  0  0  0  0  0  0  0
   -6.1911   23.8463  -31.9669 H   0  0  0  0  0  0  0  0  0  0  0  0
   -4.8492   22.6921  -33.3278 H   0  0  0  0  0  0  0  0  0  0  0  0
   -3.4166   23.0853  -32.2916 H   0  0  0  0  0  0  0  0  0  0  0  0
   -3.7610   21.0420  -31.0390 H   0  0  0  0  0  0  0  0  0  0  0  0
   -6.7213   21.9054  -31.4257 H   0  0  0  0  0  0  0  0  0  0  0  0
   -9.1478   21.5142  -31.0632 H   0  0  0  0  0  0  0  0  0  0  0  0
  -10.1920   19.3805  -31.7968 H   0  0  0  0  0  0  0  0  0  0  0  0
   -8.8258   17.6413  -32.9252 H   0  0  0  0  0  0  0  0  0  0  0  0
   -7.2212   15.9806  -33.3606 H   0  0  0  0  0  0  0  0  0  0  0  0
   -7.6828   17.0036  -34.7631 H   0  0  0  0  0  0  0  0  0  0  0  0
   -6.1098   16.1363  -34.7631 H   0  0  0  0  0  0  0  0  0  0  0  0
   -4.4310   15.8743  -33.9764 H   0  0  0  0  0  0  0  0  0  0  0  0
   -1.9680   16.1447  -34.0775 H   0  0  0  0  0  0  0  0  0  0  0  0
   -0.9583   18.4076  -33.9581 H   0  0  0  0  0  0  0  0  0  0  0  0
   -2.6820   21.2210  -34.6120 H   0  0  0  0  0  0  0  0  0  0  0  0
   -2.4830   21.3200  -32.9390 H   0  0  0  0  0  0  0  0  0  0  0  0
   -0.5639   19.7681  -34.5824 H   0  0  0  0  0  0  0  0  0  0  0  0
   -0.5494   21.5805  -34.6801 H   0  0  0  0  0  0  0  0  0  0  0  0
    0.9985   20.2903  -32.9480 H   0  0  0  0  0  0  0  0  0  0  0  0
    0.1390   21.8497  -32.5195 H   0  0  0  0  0  0  0  0  0  0  0  0
   -1.1979   19.2367  -31.9121 H   0  0  0  0  0  0  0  0  0  0  0  0
    0.1900   19.8629  -30.8609 H   0  0  0  0  0  0  0  0  0  0  0  0
   -2.2940   19.3655  -29.5623 H   0  0  0  0  0  0  0  0  0  0  0  0
   -1.1031   20.4512  -28.7596 H   0  0  0  0  0  0  0  0  0  0  0  0
   -4.0518   20.6683  -28.9444 H   0  0  0  0  0  0  0  0  0  0  0  0
   -2.8680   21.4618  -27.8062 H   0  0  0  0  0  0  0  0  0  0  0  0
   -2.2135   24.1621  -30.0309 H   0  0  0  0  0  0  0  0  0  0  0  0
   -1.5209   23.1458  -28.7142 H   0  0  0  0  0  0  0  0  0  0  0  0
   -1.3501   22.8200  -31.7019 H   0  0  0  0  0  0  0  0  0  0  0  0
   -0.1385   22.4524  -30.4118 H   0  0  0  0  0  0  0  0  0  0  0  0
  1  2  1  0
  2  3  1  0
  3  4  1  0
  4  5  1  0
  5  6  1  0
  6  7  1  0
  7  8  2  0
  8  9  1  0
  9 10  2  0
 10 11  1  0
 11 12  2  0
 12 13  1  0
 13 14  2  0
 14 15  1  0
 14 16  1  0
 16 17  2  0
 17 18  1  0
 18 19  2  0
 19 20  1  0
 20 21  1  0
 21 22  1  0
 22 23  1  0
 23 24  1  0
 24 25  1  0
 25 26  1  0
 26 27  1  0
 27 28  1  0
 28 29  1  0
 29 30  1  0
 20 31  2  0
 31  7  1  0
 13  8  1  0
 31 16  1  0
 30 25  1  0
  1 32  1  0
  1 33  1  0
  1 34  1  0
  2 35  1  0
  2 36  1  0
  3 37  1  0
  4 38  1  0
  4 39  1  0
  5 40  1  0
  5 41  1  0
  6 42  1  0
  9 43  1  0
 10 44  1  0
 11 45  1  0
 12 46  1  0
 15 47  1  0
 15 48  1  0
 15 49  1  0
 17 50  1  0
 18 51  1  0
 19 52  1  0
 21 53  1  0
 21 54  1  0
 22 55  1  0
 22 56  1  0
 23 57  1  0
 23 58  1  0
 24 59  1  0
 24 60  1  0
 26 61  1  0
 26 62  1  0
 27 63  1  0
 27 64  1  0
 29 65  1  0
 29 66  1  0
 30 67  1  0
 30 68  1  0
M  CHG  2  14   1  21   1
M  END
>  <UniqueID>  (10) 
10

>  <SMILES>  (10) 
CCNCCNc1c2ccccc2[n+](C)c2cccc([NH2+]CCCN3CCOCC3)c12

>  <Energy>  (10) 
118.46831577764802

>  <Genealogy>  (10) 
CCNCCNc1c2ccccc2[n+](C)c2cccc([NH2+]CCCN3CCOCC3)c12 (protonated)
CCNCCNc1c2ccccc2[n+](C)c2cccc([NH2+]CCCN3CCOCC3)c12 (3D coordinates assigned)
CCNCCNc1c2ccccc2[n+](C)c2cccc([NH2+]CCCN3CCOCC3)c12 (nonaromatic ring conformer: 118.46831577764802 kcal/mol)

>  <smiles>  (10) 
CCNCCNc1c2ccccc2[n+](C)c2cccc(NCCCN3CCOCC3)c12

>  <score_type>  (10) 
oracle

>  <origin>  (10) 
adg

>  <m_score__min__energy>  (10) 
-9.5199999999999996

>  <m_primary>  (10) 
energy

$$$$
10:0
     RDKit          3D

 63 65  0  0  0  0  0  0  0  0999 V2000
   -1.4580   21.0700  -30.4480 C   0  0  0  0  0  0  0  0  0  0  0  0
   -1.4990   21.9250  -31.7080 C   0  0  0  0  0  0  0  0  0  0  0  0
   -2.7880   21.8590  -32.3190 O   0  0  0  0  0  0  0  0  0  0  0  0
   -3.4340   20.7020  -32.7980 C   0  0  0  0  0  0  0  0  0  0  0  0
   -2.7040   19.7030  -33.4630 C   0  0  0  0  0  0  0  0  0  0  0  0
   -3.3350   18.5750  -33.9630 C   0  0  0  0  0  0  0  0  0  0  0  0
   -4.6980   18.3960  -33.7820 C   0  0  0  0  0  0  0  0  0  0  0  0
   -5.4750   19.3440  -33.0750 C   0  0  0  0  0  0  0  0  0  0  0  0
   -4.8410   20.5360  -32.6100 C   0  0  0  0  0  0  0  0  0  0  0  0
   -5.6410   21.5210  -31.9780 C   0  0  0  0  0  0  0  0  0  0  0  0
   -5.0450   22.6790  -31.3700 N   0  0  0  0  0  0  0  0  0  0  0  0
   -5.4690   23.1740  -30.0570 C   0  0  0  0  0  0  0  0  0  0  0  0
   -5.0180   24.6240  -29.8190 C   0  0  0  0  0  0  0  0  0  0  0  0
   -3.7810   24.8430  -30.4760 O   0  0  0  0  0  0  0  0  0  0  0  0
   -2.7350   24.1340  -29.8350 C   0  0  0  0  0  0  0  0  0  0  0  0
   -2.3280   24.8590  -28.5450 C   0  0  0  0  0  0  0  0  0  0  0  0
   -0.9030   25.2710  -28.5830 N   0  0  0  0  0  0  0  0  0  0  0  0
   -0.0160   24.0850  -28.5480 C   0  0  0  0  0  0  0  0  0  0  0  0
   -0.5050   23.0620  -27.5250 C   0  0  0  0  0  0  0  0  0  0  0  0
   -0.5700   26.2400  -27.5060 C   0  0  0  0  0  0  0  0  0  0  0  0
   -1.5760   26.0990  -26.3640 C   0  0  0  0  0  0  0  0  0  0  0  0
   -7.0410   21.3890  -31.9920 C   0  0  0  0  0  0  0  0  0  0  0  0
   -7.8720   22.4570  -31.5840 C   0  0  0  0  0  0  0  0  0  0  0  0
   -9.2600   22.3330  -31.6150 C   0  0  0  0  0  0  0  0  0  0  0  0
   -9.8430   21.1580  -32.0730 C   0  0  0  0  0  0  0  0  0  0  0  0
   -9.0430   20.0970  -32.4960 C   0  0  0  0  0  0  0  0  0  0  0  0
   -7.6270   20.1820  -32.4480 C   0  0  0  0  0  0  0  0  0  0  0  0
   -6.8240   19.1340  -32.8490 N   0  0  0  0  0  0  0  0  0  0  0  0
   -7.4070   17.7860  -33.0320 C   0  0  0  0  0  0  0  0  0  0  0  0
   -1.4892   21.7211  -29.5619 H   0  0  0  0  0  0  0  0  0  0  0  0
   -2.3247   20.3927  -30.4361 H   0  0  0  0  0  0  0  0  0  0  0  0
   -0.5305   20.4788  -30.4361 H   0  0  0  0  0  0  0  0  0  0  0  0
   -1.2775   22.9695  -31.4434 H   0  0  0  0  0  0  0  0  0  0  0  0
   -0.7501   21.5452  -32.4186 H   0  0  0  0  0  0  0  0  0  0  0  0
   -1.6172   19.8175  -33.5885 H   0  0  0  0  0  0  0  0  0  0  0  0
   -2.7513   17.8174  -34.5065 H   0  0  0  0  0  0  0  0  0  0  0  0
   -5.1844   17.5003  -34.1957 H   0  0  0  0  0  0  0  0  0  0  0  0
   -4.3350   23.2250  -31.9100 H   0  0  0  0  0  0  0  0  0  0  0  0
   -6.5664   23.1284  -29.9970 H   0  0  0  0  0  0  0  0  0  0  0  0
   -5.0035   22.5411  -29.2871 H   0  0  0  0  0  0  0  0  0  0  0  0
   -5.7745   25.3147  -30.2198 H   0  0  0  0  0  0  0  0  0  0  0  0
   -4.8988   24.8007  -28.7399 H   0  0  0  0  0  0  0  0  0  0  0  0
   -3.0793   23.1185  -29.5898 H   0  0  0  0  0  0  0  0  0  0  0  0
   -1.8676   24.0793  -30.5093 H   0  0  0  0  0  0  0  0  0  0  0  0
   -2.9563   25.7537  -28.4237 H   0  0  0  0  0  0  0  0  0  0  0  0
   -2.4665   24.1678  -27.7006 H   0  0  0  0  0  0  0  0  0  0  0  0
   -0.0011   23.6181  -29.5439 H   0  0  0  0  0  0  0  0  0  0  0  0
    0.9936   24.4125  -28.2591 H   0  0  0  0  0  0  0  0  0  0  0  0
   -0.3228   23.4432  -26.5094 H   0  0  0  0  0  0  0  0  0  0  0  0
   -1.5825   22.8903  -27.6644 H   0  0  0  0  0  0  0  0  0  0  0  0
    0.0381   22.1156  -27.6644 H   0  0  0  0  0  0  0  0  0  0  0  0
    0.4431   26.0356  -27.1294 H   0  0  0  0  0  0  0  0  0  0  0  0
   -0.6127   27.2632  -27.9076 H   0  0  0  0  0  0  0  0  0  0  0  0
   -1.0499   26.1727  -25.4008 H   0  0  0  0  0  0  0  0  0  0  0  0
   -2.3257   26.9008  -26.4347 H   0  0  0  0  0  0  0  0  0  0  0  0
   -2.0764   25.1219  -26.4347 H   0  0  0  0  0  0  0  0  0  0  0  0
   -7.4180   23.3972  -31.2379 H   0  0  0  0  0  0  0  0  0  0  0  0
   -9.8940   23.1658  -31.2767 H   0  0  0  0  0  0  0  0  0  0  0  0
  -10.9386   21.0644  -32.1020 H   0  0  0  0  0  0  0  0  0  0  0  0
   -9.5172   19.1789  -32.8731 H   0  0  0  0  0  0  0  0  0  0  0  0
   -7.6023   17.3343  -32.0482 H   0  0  0  0  0  0  0  0  0  0  0  0
   -8.3503   17.8674  -33.5919 H   0  0  0  0  0  0  0  0  0  0  0  0
   -6.7016   17.1544  -33.5919 H   0  0  0  0  0  0  0  0  0  0  0  0
  1  2  1  0
  2  3  1  0
  3  4  1  0
  4  5  2  0
  5  6  1  0
  6  7  2  0
  7  8  1  0
  8  9  2  0
  9 10  1  0
 10 11  1  0
 11 12  1  0
 12 13  1  0
 13 14  1  0
 14 15  1  0
 15 16  1  0
 16 17  1  0
 17 18  1  0
 18 19  1  0
 17 20  1  0
 20 21  1  0
 10 22  2  0
 22 23  1  0
 23 24  2  0
 24 25  1  0
 25 26  2  0
 26 27  1  0
 27 28  2  0
 28 29  1  0
  9  4  1  0
 27 22  1  0
 28  8  1  0
  1 30  1  0
  1 31  1  0
  1 32  1  0
  2 33  1  0
  2 34  1  0
  5 35  1  0
  6 36  1  0
  7 37  1  0
 11 38  1  0
 12 39  1  0
 12 40  1  0
 13 41  1  0
 13 42  1  0
 15 43  1  0
 15 44  1  0
 16 45  1  0
 16 46  1  0
 18 47  1  0
 18 48  1  0
 19 49  1  0
 19 50  1  0
 19 51  1  0
 20 52  1  0
 20 53  1  0
 21 54  1  0
 21 55  1  0
 21 56  1  0
 23 57  1  0
 24 58  1  0
 25 59  1  0
 26 60  1  0
 29 61  1  0
 29 62  1  0
 29 63  1  0
M  CHG  1  28   1
M  END
>  <UniqueID>  (11) 
11

>  <SMILES>  (11) 
CCOc1cccc2c1c(NCCOCCN(CC)CC)c1ccccc1[n+]2C

>  <Energy>  (11) 
93.0821215675419

>  <Genealogy>  (11) 
CCOc1cccc2c1c(NCCOCCN(CC)CC)c1ccccc1[n+]2C (3D coordinates assigned)
CCOc1cccc2c1c(NCCOCCN(CC)CC)c1ccccc1[n+]2C (optimized conformer: 93.0821215675419 kcal/mol)

>  <smiles>  (11) 
CCOc1cccc2c1c(NCCOCCN(CC)CC)c1ccccc1[n+]2C

>  <score_type>  (11) 
oracle

>  <origin>  (11) 
adg

>  <m_score__min__energy>  (11) 
-8.5899999999999999

>  <m_primary>  (11) 
energy

$$$$
11:0
     RDKit          3D

 56 59  0  0  0  0  0  0  0  0999 V2000
   -9.1180   19.6790  -32.0240 C   0  0  0  0  0  0  0  0  0  0  0  0
   -8.1580   18.5560  -31.6320 C   0  0  0  0  0  0  0  0  0  0  0  0
   -7.0510   18.4570  -32.5950 N   0  0  0  0  0  0  0  0  0  0  0  0
   -6.9540   17.3980  -33.4390 C   0  0  0  0  0  0  0  0  0  0  0  0
   -5.6940   17.3110  -33.9950 C   0  0  0  0  0  0  0  0  0  0  0  0
   -4.9970   18.3690  -33.4700 C   0  0  0  0  0  0  0  0  0  0  0  0
   -3.6630   18.7010  -33.6680 C   0  0  0  0  0  0  0  0  0  0  0  0
   -3.1500   19.8360  -33.0190 C   0  0  0  0  0  0  0  0  0  0  0  0
   -1.7660   20.2040  -33.1830 N   0  0  0  0  0  0  0  0  0  0  0  0
   -0.7240   19.7460  -32.4570 C   0  0  0  0  0  0  0  0  0  0  0  0
    0.4340   20.3380  -32.9230 C   0  0  0  0  0  0  0  0  0  0  0  0
    0.0240   21.1590  -33.9550 C   0  0  0  0  0  0  0  0  0  0  0  0
   -1.3100   21.0580  -34.0880 N   0  0  0  0  0  0  0  0  0  0  0  0
   -4.0140   20.6280  -32.2310 C   0  0  0  0  0  0  0  0  0  0  0  0
   -5.3810   20.3030  -32.0600 C   0  0  0  0  0  0  0  0  0  0  0  0
   -6.2480   21.3780  -31.4420 C   0  0  0  0  0  0  0  0  0  0  0  0
   -6.4150   22.5210  -32.3520 N   0  0  0  0  0  0  0  0  0  0  0  0
   -5.5230   23.6350  -32.0050 C   0  0  0  0  0  0  0  0  0  0  0  0
   -6.1860   24.5680  -30.9860 C   0  0  0  0  0  0  0  0  0  0  0  0
   -5.2250   25.6430  -30.4610 C   0  0  0  0  0  0  0  0  0  0  0  0
   -3.8610   25.1170  -30.3810 N   0  0  0  0  0  0  0  0  0  0  0  0
   -3.4850   23.9110  -29.6870 C   0  0  0  0  0  0  0  0  0  0  0  0
   -4.1530   23.5700  -28.5000 C   0  0  0  0  0  0  0  0  0  0  0  0
   -3.8180   22.4060  -27.8020 C   0  0  0  0  0  0  0  0  0  0  0  0
   -2.8130   21.5660  -28.2870 C   0  0  0  0  0  0  0  0  0  0  0  0
   -2.1430   21.8880  -29.4690 C   0  0  0  0  0  0  0  0  0  0  0  0
   -1.1690   21.0700  -29.9390 F   0  0  0  0  0  0  0  0  0  0  0  0
   -2.4760   23.0520  -30.1700 C   0  0  0  0  0  0  0  0  0  0  0  0
   -5.8420   19.0900  -32.6470 C   0  0  0  0  0  0  0  0  0  0  0  0
   -9.5211   20.1506  -31.1156 H   0  0  0  0  0  0  0  0  0  0  0  0
   -8.5792   20.4309  -32.6192 H   0  0  0  0  0  0  0  0  0  0  0  0
   -9.9446   19.2637  -32.6192 H   0  0  0  0  0  0  0  0  0  0  0  0
   -7.7490   18.7635  -30.6321 H   0  0  0  0  0  0  0  0  0  0  0  0
   -8.7099   17.6045  -31.6294 H   0  0  0  0  0  0  0  0  0  0  0  0
   -7.7754   16.6982  -33.6525 H   0  0  0  0  0  0  0  0  0  0  0  0
   -5.3277   16.5558  -34.7060 H   0  0  0  0  0  0  0  0  0  0  0  0
   -3.0221   18.0883  -34.3190 H   0  0  0  0  0  0  0  0  0  0  0  0
   -0.7866   19.0217  -31.6315 H   0  0  0  0  0  0  0  0  0  0  0  0
    1.4589   20.1881  -32.5528 H   0  0  0  0  0  0  0  0  0  0  0  0
    0.6818   21.7924  -34.5683 H   0  0  0  0  0  0  0  0  0  0  0  0
   -1.8860   21.5470  -34.8080 H   0  0  0  0  0  0  0  0  0  0  0  0
   -3.6126   21.5242  -31.7353 H   0  0  0  0  0  0  0  0  0  0  0  0
   -7.2371   20.9536  -31.2150 H   0  0  0  0  0  0  0  0  0  0  0  0
   -5.7566   21.7345  -30.5247 H   0  0  0  0  0  0  0  0  0  0  0  0
   -7.4020   22.8560  -32.2450 H   0  0  0  0  0  0  0  0  0  0  0  0
   -4.5945   23.2324  -31.5741 H   0  0  0  0  0  0  0  0  0  0  0  0
   -5.3051   24.2088  -32.9178 H   0  0  0  0  0  0  0  0  0  0  0  0
   -7.0418   25.0644  -31.4668 H   0  0  0  0  0  0  0  0  0  0  0  0
   -6.5028   23.9556  -30.1289 H   0  0  0  0  0  0  0  0  0  0  0  0
   -5.2406   26.5064  -31.1424 H   0  0  0  0  0  0  0  0  0  0  0  0
   -5.5481   25.9480  -29.4547 H   0  0  0  0  0  0  0  0  0  0  0  0
   -3.1090   25.6760  -30.8470 H   0  0  0  0  0  0  0  0  0  0  0  0
   -4.9482   24.2255  -28.1153 H   0  0  0  0  0  0  0  0  0  0  0  0
   -4.3458   22.1517  -26.8710 H   0  0  0  0  0  0  0  0  0  0  0  0
   -2.5492   20.6503  -27.7375 H   0  0  0  0  0  0  0  0  0  0  0  0
   -1.9480   23.2986  -31.1030 H   0  0  0  0  0  0  0  0  0  0  0  0
  1  2  1  0
  2  3  1  0
  3  4  1  0
  4  5  2  0
  5  6  1  0
  6  7  2  0
  7  8  1  0
  8  9  1  0
  9 10  1  0
 10 11  2  0
 11 12  1  0
 12 13  2  0
  8 14  2  0
 14 15  1  0
 15 16  1  0
 16 17  1  0
 17 18  1  0
 18 19  1  0
 19 20  1  0
 20 21  1  0
 21 22  1  0
 22 23  2  0
 23 24  1  0
 24 25  2  0
 25 26  1  0
 26 27  1  0
 26 28  2  0
 15 29  2  0
 29  3  1  0
 29  6  1  0
 13  9  1  0
 28 22  1  0
  1 30  1  0
  1 31  1  0
  1 32  1  0
  2 33  1  0
  2 34  1  0
  4 35  1  0
  5 36  1  0
  7 37  1  0
 10 38  1  0
 11 39  1  0
 12 40  1  0
 13 41  1  0
 14 42  1  0
 16 43  1  0
 16 44  1  0
 17 45  1  0
 18 46  1  0
 18 47  1  0
 19 48  1  0
 19 49  1  0
 20 50  1  0
 20 51  1  0
 21 52  1  0
 23 53  1  0
 24 54  1  0
 25 55  1  0
 28 56  1  0
M  CHG  1  13   1
M  END
>  <UniqueID>  (12) 
12

>  <SMILES>  (12) 
CCn1ccc2cc(-n3ccc[nH+]3)cc(CNCCCNc3cccc(F)c3)c21

>  <Energy>  (12) 
131.87704906462852

>  <Genealogy>  (12) 
CCn1ccc2cc(-n3ccc[nH+]3)cc(CNCCCNc3cccc(F)c3)c21 (protonated)
CCn1ccc2cc(-n3ccc[nH+]3)cc(CNCCCNc3cccc(F)c3)c21 (3D coordinates assigned)
CCn1ccc2cc(-n3ccc[nH+]3)cc(CNCCCNc3cccc(F)c3)c21 (optimized conformer: 131.87704906462852 kcal/mol)

>  <smiles>  (12) 
CCn1ccc2cc(-n3cccn3)cc(CNCCCNc3cccc(F)c3)c21

>  <score_type>  (12) 
oracle

>  <origin>  (12) 
adg

>  <m_score__min__energy>  (12) 
-8.8800000000000008

>  <m_primary>  (12) 
energy

$$$$
12:0
     RDKit          3D

 84 89  0  0  0  0  0  0  0  0999 V2000
   -1.9930   20.1570  -26.9260 C   0  0  0  0  0  0  0  0  0  0  0  0
   -1.1100   21.1070  -27.7410 C   0  0  0  0  0  0  0  0  0  0  0  0
   -0.8140   22.3590  -27.0250 N   0  0  0  0  0  0  0  0  0  0  0  0
    0.6280   22.5700  -26.8250 C   0  0  0  0  0  0  0  0  0  0  0  0
    0.9970   24.0440  -27.0720 C   0  0  0  0  0  0  0  0  0  0  0  0
    0.3190   24.5810  -28.1940 O   0  0  0  0  0  0  0  0  0  0  0  0
   -0.4670   25.7070  -27.8490 C   0  0  0  0  0  0  0  0  0  0  0  0
   -1.8020   25.2930  -27.1840 C   0  0  0  0  0  0  0  0  0  0  0  0
   -2.7610   24.6320  -28.0960 N   0  0  0  0  0  0  0  0  0  0  0  0
   -2.1520   24.0930  -29.3240 C   0  0  0  0  0  0  0  0  0  0  0  0
   -3.2480   23.7140  -30.3450 C   0  0  0  0  0  0  0  0  0  0  0  0
   -4.5710   23.4510  -29.7260 N   0  0  0  0  0  0  0  0  0  0  0  0
   -5.4210   24.6650  -29.6990 C   0  0  0  0  0  0  0  0  0  0  0  0
   -6.1250   24.9100  -31.0430 C   0  0  0  0  0  0  0  0  0  0  0  0
   -6.9060   23.6700  -31.4970 C   0  0  0  0  0  0  0  0  0  0  0  0
   -6.2130   22.9790  -32.5820 N   0  0  0  0  0  0  0  0  0  0  0  0
   -6.0130   21.5570  -32.6040 C   0  0  0  0  0  0  0  0  0  0  0  0
   -4.7530   21.0220  -32.8650 C   0  0  0  0  0  0  0  0  0  0  0  0
   -4.5850   19.6620  -33.0140 C   0  0  0  0  0  0  0  0  0  0  0  0
   -5.5860   18.7660  -32.7460 N   0  0  0  0  0  0  0  0  0  0  0  0
   -5.2730   17.3370  -32.5700 C   0  0  0  0  0  0  0  0  0  0  0  0
   -6.8690   19.2510  -32.5610 C   0  0  0  0  0  0  0  0  0  0  0  0
   -7.9850   18.3850  -32.4720 C   0  0  0  0  0  0  0  0  0  0  0  0
   -9.2700   18.8870  -32.2600 C   0  0  0  0  0  0  0  0  0  0  0  0
   -9.4770   20.2560  -32.1350 C   0  0  0  0  0  0  0  0  0  0  0  0
   -8.4050   21.1400  -32.2450 C   0  0  0  0  0  0  0  0  0  0  0  0
   -7.1000   20.6630  -32.4770 C   0  0  0  0  0  0  0  0  0  0  0  0
   -3.2120   19.4660  -33.4810 C   0  0  0  0  0  0  0  0  0  0  0  0
   -2.6630   18.3540  -34.0480 N   0  0  0  0  0  0  0  0  0  0  0  0
   -1.3900   18.4080  -34.5430 C   0  0  0  0  0  0  0  0  0  0  0  0
   -0.7970   17.2640  -35.1030 C   0  0  0  0  0  0  0  0  0  0  0  0
    0.4980   17.3250  -35.6260 C   0  0  0  0  0  0  0  0  0  0  0  0
    1.2130   18.5240  -35.5940 C   0  0  0  0  0  0  0  0  0  0  0  0
    0.6410   19.6740  -35.0420 C   0  0  0  0  0  0  0  0  0  0  0  0
   -0.6640   19.6300  -34.5190 C   0  0  0  0  0  0  0  0  0  0  0  0
   -1.3020   20.7720  -34.0030 C   0  0  0  0  0  0  0  0  0  0  0  0
   -0.7280   21.8950  -34.0040 O   0  0  0  0  0  0  0  0  0  0  0  0
   -2.5680   20.6510  -33.5220 N   0  0  0  0  0  0  0  0  0  0  0  0
   -3.4550   21.7390  -33.1130 C   0  0  0  0  0  0  0  0  0  0  0  0
   -4.4180   22.7890  -28.4110 C   0  0  0  0  0  0  0  0  0  0  0  0
   -3.6110   23.6400  -27.4090 C   0  0  0  0  0  0  0  0  0  0  0  0
   -1.8287   20.3338  -25.8528 H   0  0  0  0  0  0  0  0  0  0  0  0
   -3.0501   20.3390  -27.1700 H   0  0  0  0  0  0  0  0  0  0  0  0
   -1.7343   19.1161  -27.1700 H   0  0  0  0  0  0  0  0  0  0  0  0
   -0.1615   20.5984  -27.9683 H   0  0  0  0  0  0  0  0  0  0  0  0
   -1.6595   21.3690  -28.6572 H   0  0  0  0  0  0  0  0  0  0  0  0
   -1.2090   23.1680  -27.5630 H   0  0  0  0  0  0  0  0  0  0  0  0
    0.8938   22.2985  -25.7927 H   0  0  0  0  0  0  0  0  0  0  0  0
    1.1816   21.9407  -27.5374 H   0  0  0  0  0  0  0  0  0  0  0  0
    0.7292   24.6310  -26.1811 H   0  0  0  0  0  0  0  0  0  0  0  0
    2.0774   24.0943  -27.2724 H   0  0  0  0  0  0  0  0  0  0  0  0
    0.1004   26.3361  -27.1474 H   0  0  0  0  0  0  0  0  0  0  0  0
   -0.7007   26.2572  -28.7724 H   0  0  0  0  0  0  0  0  0  0  0  0
   -1.5756   24.5988  -26.3613 H   0  0  0  0  0  0  0  0  0  0  0  0
   -2.2832   26.2213  -26.8424 H   0  0  0  0  0  0  0  0  0  0  0  0
   -1.4921   24.8541  -29.7659 H   0  0  0  0  0  0  0  0  0  0  0  0
   -1.5727   23.1929  -29.0705 H   0  0  0  0  0  0  0  0  0  0  0  0
   -3.3574   24.5418  -31.0611 H   0  0  0  0  0  0  0  0  0  0  0  0
   -2.9277   22.7804  -30.8306 H   0  0  0  0  0  0  0  0  0  0  0  0
   -6.1841   24.5459  -28.9158 H   0  0  0  0  0  0  0  0  0  0  0  0
   -4.7706   25.5285  -29.4958 H   0  0  0  0  0  0  0  0  0  0  0  0
   -6.8231   25.7530  -30.9335 H   0  0  0  0  0  0  0  0  0  0  0  0
   -5.3594   25.1348  -31.8002 H   0  0  0  0  0  0  0  0  0  0  0  0
   -7.0151   22.9825  -30.6452 H   0  0  0  0  0  0  0  0  0  0  0  0
   -7.8920   23.9930  -31.8624 H   0  0  0  0  0  0  0  0  0  0  0  0
   -5.9920   23.5250  -33.4460 H   0  0  0  0  0  0  0  0  0  0  0  0
   -5.2216   17.1024  -31.4965 H   0  0  0  0  0  0  0  0  0  0  0  0
   -6.0592   16.7287  -33.0410 H   0  0  0  0  0  0  0  0  0  0  0  0
   -4.3045   17.1131  -33.0410 H   0  0  0  0  0  0  0  0  0  0  0  0
   -7.8373   17.2995  -32.5715 H   0  0  0  0  0  0  0  0  0  0  0  0
  -10.1231   18.1960  -32.1915 H   0  0  0  0  0  0  0  0  0  0  0  0
  -10.4898   20.6427  -31.9487 H   0  0  0  0  0  0  0  0  0  0  0  0
   -8.5799   22.2218  -32.1496 H   0  0  0  0  0  0  0  0  0  0  0  0
   -3.2130   17.4770  -34.1590 H   0  0  0  0  0  0  0  0  0  0  0  0
   -1.3543   16.3160  -35.1300 H   0  0  0  0  0  0  0  0  0  0  0  0
    0.9552   16.4256  -36.0642 H   0  0  0  0  0  0  0  0  0  0  0  0
    2.2323   18.5639  -36.0056 H   0  0  0  0  0  0  0  0  0  0  0  0
    1.2119   20.6139  -35.0166 H   0  0  0  0  0  0  0  0  0  0  0  0
   -3.0893   22.2278  -32.1979 H   0  0  0  0  0  0  0  0  0  0  0  0
   -3.5336   22.5451  -33.8573 H   0  0  0  0  0  0  0  0  0  0  0  0
   -5.4178   22.6041  -27.9912 H   0  0  0  0  0  0  0  0  0  0  0  0
   -3.8660   21.8513  -28.5722 H   0  0  0  0  0  0  0  0  0  0  0  0
   -4.3110   24.1689  -26.7455 H   0  0  0  0  0  0  0  0  0  0  0  0
   -2.9571   22.9665  -26.8356 H   0  0  0  0  0  0  0  0  0  0  0  0
  1  2  1  0
  2  3  1  0
  3  4  1  0
  4  5  1  0
  5  6  1  0
  6  7  1  0
  7  8  1  0
  8  9  1  0
  9 10  1  0
 10 11  1  0
 11 12  1  0
 12 13  1  0
 13 14  1  0
 14 15  1  0
 15 16  1  0
 16 17  1  0
 17 18  2  0
 18 19  1  0
 19 20  2  0
 20 21  1  0
 20 22  1  0
 22 23  2  0
 23 24  1  0
 24 25  2  0
 25 26  1  0
 26 27  2  0
 19 28  1  0
 28 29  2  0
 29 30  1  0
 30 31  2  0
 31 32  1  0
 32 33  2  0
 33 34  1  0
 34 35  2  0
 35 36  1  0
 36 37  2  0
 36 38  1  0
 38 39  1  0
 12 40  1  0
 40 41  1  0
 41  9  1  0
 27 17  1  0
 38 28  1  0
 39 18  1  0
 27 22  1  0
 35 30  1  0
  1 42  1  0
  1 43  1  0
  1 44  1  0
  2 45  1  0
  2 46  1  0
  3 47  1  0
  4 48  1  0
  4 49  1  0
  5 50  1  0
  5 51  1  0
  7 52  1  0
  7 53  1  0
  8 54  1  0
  8 55  1  0
 10 56  1  0
 10 57  1  0
 11 58  1  0
 11 59  1  0
 13 60  1  0
 13 61  1  0
 14 62  1  0
 14 63  1  0
 15 64  1  0
 15 65  1  0
 16 66  1  0
 21 67  1  0
 21 68  1  0
 21 69  1  0
 23 70  1  0
 24 71  1  0
 25 72  1  0
 26 73  1  0
 29 74  1  0
 31 75  1  0
 32 76  1  0
 33 77  1  0
 34 78  1  0
 39 79  1  0
 39 80  1  0
 40 81  1  0
 40 82  1  0
 41 83  1  0
 41 84  1  0
M  CHG  2  20   1  29   1
M  END
>  <UniqueID>  (13) 
13

>  <SMILES>  (13) 
CCNCCOCCN1CCN(CCCNc2c3c([n+](C)c4ccccc24)-c2[nH+]c4ccccc4c(=O)n2C3)CC1

>  <Energy>  (13) 
153.97975783390095

>  <Genealogy>  (13) 
CCNCCOCCN1CCN(CCCNc2c3c([n+](C)c4ccccc24)-c2[nH+]c4ccccc4c(=O)n2C3)CC1 (protonated)
CCNCCOCCN1CCN(CCCNc2c3c([n+](C)c4ccccc24)-c2[nH+]c4ccccc4c(=O)n2C3)CC1 (3D coordinates assigned)
CCNCCOCCN1CCN(CCCNc2c3c([n+](C)c4ccccc24)-c2[nH+]c4ccccc4c(=O)n2C3)CC1 (nonaromatic ring conformer: 153.97975783390095 kcal/mol)

>  <smiles>  (13) 
CCNCCOCCN1CCN(CCCNc2c3c([n+](C)c4ccccc24)-c2nc4ccccc4c(=O)n2C3)CC1

>  <score_type>  (13) 
oracle

>  <origin>  (13) 
adg

>  <m_score__min__energy>  (13) 
-10.59

>  <m_primary>  (13) 
energy

$$$$
13:0
     RDKit          3D

 55 57  0  0  0  0  0  0  0  0999 V2000
   -6.6650   17.8190  -31.6520 C   0  0  0  0  0  0  0  0  0  0  0  0
   -7.9800   18.5450  -31.9830 C   0  0  0  0  0  0  0  0  0  0  0  0
   -7.8730   20.0250  -32.0160 N   0  0  0  0  0  0  0  0  0  0  0  0
   -9.1680   20.7340  -32.1010 C   0  0  0  0  0  0  0  0  0  0  0  0
   -9.4500   21.5460  -30.8380 C   0  0  0  0  0  0  0  0  0  0  0  0
   -6.7880   20.5450  -32.8830 C   0  0  0  0  0  0  0  0  0  0  0  0
   -5.9470   21.6210  -32.2370 C   0  0  0  0  0  0  0  0  0  0  0  0
   -4.5480   21.5060  -32.1950 C   0  0  0  0  0  0  0  0  0  0  0  0
   -3.7750   22.5020  -31.5930 C   0  0  0  0  0  0  0  0  0  0  0  0
   -4.3800   23.6320  -31.0330 C   0  0  0  0  0  0  0  0  0  0  0  0
   -3.5620   24.5960  -30.4270 O   0  0  0  0  0  0  0  0  0  0  0  0
   -3.1310   24.5460  -29.0670 C   0  0  0  0  0  0  0  0  0  0  0  0
   -3.0490   23.1510  -28.5350 C   0  0  0  0  0  0  0  0  0  0  0  0
   -1.5780   23.1130  -28.4260 N   0  0  0  0  0  0  0  0  0  0  0  0
   -0.5710   22.2460  -27.9060 C   0  0  0  0  0  0  0  0  0  0  0  0
    0.6120   22.6680  -27.8020 O   0  0  0  0  0  0  0  0  0  0  0  0
   -0.9040   20.8780  -27.4630 C   0  0  0  0  0  0  0  0  0  0  0  0
   -2.0710   20.6580  -26.7120 C   0  0  0  0  0  0  0  0  0  0  0  0
   -2.4380   19.3640  -26.3370 C   0  0  0  0  0  0  0  0  0  0  0  0
   -1.6530   18.2750  -26.7170 C   0  0  0  0  0  0  0  0  0  0  0  0
   -0.4900   18.4780  -27.4640 C   0  0  0  0  0  0  0  0  0  0  0  0
    0.2710   17.4140  -27.8220 F   0  0  0  0  0  0  0  0  0  0  0  0
   -0.1000   19.7740  -27.8290 C   0  0  0  0  0  0  0  0  0  0  0  0
    1.0880   19.9420  -28.5460 O   0  0  0  0  0  0  0  0  0  0  0  0
    1.2950   19.3230  -29.8100 C   0  0  0  0  0  0  0  0  0  0  0  0
   -1.6420   24.4900  -28.9540 C   0  0  0  0  0  0  0  0  0  0  0  0
   -5.7800   23.7610  -31.0930 C   0  0  0  0  0  0  0  0  0  0  0  0
   -6.5550   22.7670  -31.6960 C   0  0  0  0  0  0  0  0  0  0  0  0
   -6.5469   17.7538  -30.5603 H   0  0  0  0  0  0  0  0  0  0  0  0
   -6.6879   16.8057  -32.0795 H   0  0  0  0  0  0  0  0  0  0  0  0
   -5.8197   18.3783  -32.0795 H   0  0  0  0  0  0  0  0  0  0  0  0
   -8.3224   18.2029  -32.9708 H   0  0  0  0  0  0  0  0  0  0  0  0
   -8.6854   18.2997  -31.1754 H   0  0  0  0  0  0  0  0  0  0  0  0
   -9.1462   21.4144  -32.9651 H   0  0  0  0  0  0  0  0  0  0  0  0
   -9.9642   19.9831  -32.2115 H   0  0  0  0  0  0  0  0  0  0  0  0
   -9.2364   20.9310  -29.9514 H   0  0  0  0  0  0  0  0  0  0  0  0
   -8.8099   22.4405  -30.8266 H   0  0  0  0  0  0  0  0  0  0  0  0
  -10.5068   21.8512  -30.8266 H   0  0  0  0  0  0  0  0  0  0  0  0
   -6.1291   19.7065  -33.1529 H   0  0  0  0  0  0  0  0  0  0  0  0
   -7.2721   21.0024  -33.7585 H   0  0  0  0  0  0  0  0  0  0  0  0
   -4.0580   20.6267  -32.6386 H   0  0  0  0  0  0  0  0  0  0  0  0
   -2.6806   22.3966  -31.5591 H   0  0  0  0  0  0  0  0  0  0  0  0
   -3.7617   25.3333  -28.6283 H   0  0  0  0  0  0  0  0  0  0  0  0
   -3.5502   23.0371  -27.5625 H   0  0  0  0  0  0  0  0  0  0  0  0
   -3.5286   22.3588  -29.1287 H   0  0  0  0  0  0  0  0  0  0  0  0
   -2.6999   21.5111  -26.4174 H   0  0  0  0  0  0  0  0  0  0  0  0
   -3.3481   19.2028  -25.7406 H   0  0  0  0  0  0  0  0  0  0  0  0
   -1.9500   17.2560  -26.4283 H   0  0  0  0  0  0  0  0  0  0  0  0
    1.6406   18.2895  -29.6600 H   0  0  0  0  0  0  0  0  0  0  0  0
    0.3505   19.3156  -30.3737 H   0  0  0  0  0  0  0  0  0  0  0  0
    2.0540   19.8853  -30.3737 H   0  0  0  0  0  0  0  0  0  0  0  0
   -1.2411   25.2340  -28.2499 H   0  0  0  0  0  0  0  0  0  0  0  0
   -1.0616   24.7059  -29.8632 H   0  0  0  0  0  0  0  0  0  0  0  0
   -6.2667   24.6488  -30.6630 H   0  0  0  0  0  0  0  0  0  0  0  0
   -7.6477   22.8820  -31.7477 H   0  0  0  0  0  0  0  0  0  0  0  0
  1  2  1  0
  2  3  1  0
  3  4  1  0
  4  5  1  0
  3  6  1  0
  6  7  1  0
  7  8  2  0
  8  9  1  0
  9 10  2  0
 10 11  1  0
 11 12  1  0
 12 13  1  0
 13 14  1  0
 14 15  1  0
 15 16  2  0
 15 17  1  0
 17 18  2  0
 18 19  1  0
 19 20  2  0
 20 21  1  0
 21 22  1  0
 21 23  2  0
 23 24  1  0
 24 25  1  0
 14 26  1  0
 10 27  1  0
 27 28  2  0
 28  7  1  0
 26 12  1  0
 23 17  1  0
  1 29  1  0
  1 30  1  0
  1 31  1  0
  2 32  1  0
  2 33  1  0
  4 34  1  0
  4 35  1  0
  5 36  1  0
  5 37  1  0
  5 38  1  0
  6 39  1  0
  6 40  1  0
  8 41  1  0
  9 42  1  0
 12 43  1  0
 13 44  1  0
 13 45  1  0
 18 46  1  0
 19 47  1  0
 20 48  1  0
 25 49  1  0
 25 50  1  0
 25 51  1  0
 26 52  1  0
 26 53  1  0
 27 54  1  0
 28 55  1  0
M  END
>  <UniqueID>  (14) 
14

>  <SMILES>  (14) 
CCN(CC)Cc1ccc(OC2CN(C(=O)c3cccc(F)c3OC)C2)cc1

>  <Energy>  (14) 
114.78259802205444

>  <Genealogy>  (14) 
CCN(CC)Cc1ccc(OC2CN(C(=O)c3cccc(F)c3OC)C2)cc1 (3D coordinates assigned)
CCN(CC)Cc1ccc(OC2CN(C(=O)c3cccc(F)c3OC)C2)cc1 (nonaromatic ring conformer: 114.78259802205444 kcal/mol)

>  <smiles>  (14) 
CCN(CC)Cc1ccc(OC2CN(C(=O)c3cccc(F)c3OC)C2)cc1

>  <score_type>  (14) 
oracle

>  <origin>  (14) 
adg

>  <m_score__min__energy>  (14) 
-8.9000000000000004

>  <m_primary>  (14) 
energy

$$$$
14:0
     RDKit          3D

 53 56  0  0  0  0  0  0  0  0999 V2000
   -7.6310   17.8110  -31.8300 C   0  0  0  0  0  0  0  0  0  0  0  0
   -8.6040   18.9050  -31.3840 C   0  0  0  0  0  0  0  0  0  0  0  0
   -9.3840   19.4610  -32.5040 N   0  0  0  0  0  0  0  0  0  0  0  0
   -9.6960   20.8990  -32.3400 C   0  0  0  0  0  0  0  0  0  0  0  0
   -8.6550   21.6120  -31.4610 C   0  0  0  0  0  0  0  0  0  0  0  0
   -7.7370   22.4050  -32.2780 N   0  0  0  0  0  0  0  0  0  0  0  0
   -6.3250   22.1430  -32.3190 C   0  0  0  0  0  0  0  0  0  0  0  0
   -5.8270   21.0410  -33.0110 C   0  0  0  0  0  0  0  0  0  0  0  0
   -4.4750   20.7560  -33.0050 C   0  0  0  0  0  0  0  0  0  0  0  0
   -3.5550   21.6030  -32.4410 N   0  0  0  0  0  0  0  0  0  0  0  0
   -2.1230   21.4460  -32.7440 C   0  0  0  0  0  0  0  0  0  0  0  0
   -4.0150   22.6430  -31.6480 C   0  0  0  0  0  0  0  0  0  0  0  0
   -3.1330   23.4230  -30.8590 C   0  0  0  0  0  0  0  0  0  0  0  0
   -3.6050   24.5000  -30.0890 C   0  0  0  0  0  0  0  0  0  0  0  0
   -2.7550   25.2980  -29.3060 O   0  0  0  0  0  0  0  0  0  0  0  0
   -2.2090   24.9060  -28.0500 C   0  0  0  0  0  0  0  0  0  0  0  0
   -4.9660   24.8000  -30.0890 C   0  0  0  0  0  0  0  0  0  0  0  0
   -5.8630   24.0290  -30.8230 C   0  0  0  0  0  0  0  0  0  0  0  0
   -5.4130   22.9390  -31.5910 C   0  0  0  0  0  0  0  0  0  0  0  0
   -4.2860   19.4560  -33.6620 C   0  0  0  0  0  0  0  0  0  0  0  0
   -3.1730   18.6050  -33.7410 C   0  0  0  0  0  0  0  0  0  0  0  0
   -3.3200   17.3580  -34.3680 C   0  0  0  0  0  0  0  0  0  0  0  0
   -4.5710   16.9540  -34.8650 C   0  0  0  0  0  0  0  0  0  0  0  0
   -5.6910   17.7840  -34.7170 C   0  0  0  0  0  0  0  0  0  0  0  0
   -5.5280   19.0260  -34.1010 C   0  0  0  0  0  0  0  0  0  0  0  0
   -6.6100   19.9960  -33.7550 C   0  0  0  0  0  0  0  0  0  0  0  0
   -7.1971   17.3231  -30.9448 H   0  0  0  0  0  0  0  0  0  0  0  0
   -8.1694   17.0649  -32.4329 H   0  0  0  0  0  0  0  0  0  0  0  0
   -6.8272   18.2587  -32.4329 H   0  0  0  0  0  0  0  0  0  0  0  0
   -9.3005   18.4781  -30.6474 H   0  0  0  0  0  0  0  0  0  0  0  0
   -8.0095   19.7241  -30.9531 H   0  0  0  0  0  0  0  0  0  0  0  0
  -10.2510   18.8900  -32.6480 H   0  0  0  0  0  0  0  0  0  0  0  0
   -8.8050   19.3490  -33.3700 H   0  0  0  0  0  0  0  0  0  0  0  0
   -9.7114   21.3754  -33.3314 H   0  0  0  0  0  0  0  0  0  0  0  0
  -10.6754   20.9825  -31.8463 H   0  0  0  0  0  0  0  0  0  0  0  0
   -9.1744   22.2766  -30.7549 H   0  0  0  0  0  0  0  0  0  0  0  0
   -8.0745   20.8521  -30.9174 H   0  0  0  0  0  0  0  0  0  0  0  0
   -8.1370   23.0980  -32.9490 H   0  0  0  0  0  0  0  0  0  0  0  0
   -1.5541   21.3836  -31.8046 H   0  0  0  0  0  0  0  0  0  0  0  0
   -1.9703   20.5257  -33.3269 H   0  0  0  0  0  0  0  0  0  0  0  0
   -1.7745   22.3113  -33.3269 H   0  0  0  0  0  0  0  0  0  0  0  0
   -2.0600   23.1812  -30.8491 H   0  0  0  0  0  0  0  0  0  0  0  0
   -2.8112   25.3384  -27.2374 H   0  0  0  0  0  0  0  0  0  0  0  0
   -2.2209   23.8089  -27.9714 H   0  0  0  0  0  0  0  0  0  0  0  0
   -1.1733   25.2680  -27.9714 H   0  0  0  0  0  0  0  0  0  0  0  0
   -5.3351   25.6547  -29.5031 H   0  0  0  0  0  0  0  0  0  0  0  0
   -6.9351   24.2744  -30.8025 H   0  0  0  0  0  0  0  0  0  0  0  0
   -2.2037   18.9095  -33.3195 H   0  0  0  0  0  0  0  0  0  0  0  0
   -2.4503   16.6924  -34.4711 H   0  0  0  0  0  0  0  0  0  0  0  0
   -4.6717   15.9830  -35.3720 H   0  0  0  0  0  0  0  0  0  0  0  0
   -6.6788   17.4629  -35.0791 H   0  0  0  0  0  0  0  0  0  0  0  0
   -7.0842   20.4114  -34.6564 H   0  0  0  0  0  0  0  0  0  0  0  0
   -7.4446   19.5618  -33.1850 H   0  0  0  0  0  0  0  0  0  0  0  0
  1  2  1  0
  2  3  1  0
  3  4  1  0
  4  5  1  0
  5  6  1  0
  6  7  1  0
  7  8  2  0
  8  9  1  0
  9 10  2  0
 10 11  1  0
 10 12  1  0
 12 13  2  0
 13 14  1  0
 14 15  1  0
 15 16  1  0
 14 17  2  0
 17 18  1  0
 18 19  2  0
  9 20  1  0
 20 21  2  0
 21 22  1  0
 22 23  2  0
 23 24  1  0
 24 25  2  0
 25 26  1  0
 19  7  1  0
 25 20  1  0
 26  8  1  0
 19 12  1  0
  1 27  1  0
  1 28  1  0
  1 29  1  0
  2 30  1  0
  2 31  1  0
  3 32  1  0
  3 33  1  0
  4 34  1  0
  4 35  1  0
  5 36  1  0
  5 37  1  0
  6 38  1  0
 11 39  1  0
 11 40  1  0
 11 41  1  0
 13 42  1  0
 16 43  1  0
 16 44  1  0
 16 45  1  0
 17 46  1  0
 18 47  1  0
 21 48  1  0
 22 49  1  0
 23 50  1  0
 24 51  1  0
 26 52  1  0
 26 53  1  0
M  CHG  2   3   1  10   1
M  END
>  <UniqueID>  (15) 
15

>  <SMILES>  (15) 
CC[NH2+]CCNc1c2c([n+](C)c3cc(OC)ccc13)-c1ccccc1C2

>  <Energy>  (15) 
96.07410105472816

>  <Genealogy>  (15) 
CC[NH2+]CCNc1c2c([n+](C)c3cc(OC)ccc13)-c1ccccc1C2 (protonated)
CC[NH2+]CCNc1c2c([n+](C)c3cc(OC)ccc13)-c1ccccc1C2 (3D coordinates assigned)
CC[NH2+]CCNc1c2c([n+](C)c3cc(OC)ccc13)-c1ccccc1C2 (nonaromatic ring conformer: 96.07410105472816 kcal/mol)

>  <smiles>  (15) 
CCNCCNc1c2c([n+](C)c3cc(OC)ccc13)-c1ccccc1C2

>  <score_type>  (15) 
oracle

>  <origin>  (15) 
adg

>  <m_score__min__energy>  (15) 
-7.8799999999999999

>  <m_primary>  (15) 
energy

$$$$
15:0
     RDKit          3D

 49 52  0  0  0  0  0  0  0  0999 V2000
   -1.9770   25.0530  -28.1570 C   0  0  0  0  0  0  0  0  0  0  0  0
   -2.7330   25.2700  -29.3440 O   0  0  0  0  0  0  0  0  0  0  0  0
   -3.3770   24.2570  -30.0710 C   0  0  0  0  0  0  0  0  0  0  0  0
   -4.7330   24.3310  -30.4280 C   0  0  0  0  0  0  0  0  0  0  0  0
   -5.3350   23.3060  -31.1620 C   0  0  0  0  0  0  0  0  0  0  0  0
   -7.2060   23.5100  -31.5500 Br  0  0  0  0  0  0  0  0  0  0  0  0
   -4.5740   22.1860  -31.5810 C   0  0  0  0  0  0  0  0  0  0  0  0
   -5.1980   21.0630  -32.3980 C   0  0  0  0  0  0  0  0  0  0  0  0
   -4.9640   19.7180  -31.8290 N   0  0  0  0  0  0  0  0  0  0  0  0
   -5.0630   18.5310  -32.7170 C   0  0  1  0  0  0  0  0  0  0  0  0
   -5.7300   17.3120  -32.0100 C   0  0  0  0  0  0  0  0  0  0  0  0
   -5.7290   16.0850  -32.9490 C   0  0  2  0  0  0  0  0  0  0  0  0
   -4.2790   15.7070  -33.3100 C   0  0  0  0  0  0  0  0  0  0  0  0
   -3.6050   16.8940  -34.0280 C   0  0  1  0  0  0  0  0  0  0  0  0
   -4.3800   17.2310  -35.3180 C   0  0  0  0  0  0  0  0  0  0  0  0
   -5.8320   17.6110  -34.9610 C   0  0  1  0  0  0  0  0  0  0  0  0
   -6.5090   16.4230  -34.2390 C   0  0  0  0  0  0  0  0  0  0  0  0
   -5.8330   18.8470  -34.0320 C   0  0  0  0  0  0  0  0  0  0  0  0
   -3.6090   18.1220  -33.0950 C   0  0  0  0  0  0  0  0  0  0  0  0
   -3.2240   22.0860  -31.1730 C   0  0  0  0  0  0  0  0  0  0  0  0
   -2.4960   20.9260  -31.4970 O   0  0  0  0  0  0  0  0  0  0  0  0
   -1.0830   20.7990  -31.3980 C   0  0  0  0  0  0  0  0  0  0  0  0
   -2.6370   23.1340  -30.4390 C   0  0  0  0  0  0  0  0  0  0  0  0
   -2.6133   25.2356  -27.2785 H   0  0  0  0  0  0  0  0  0  0  0  0
   -1.6146   24.0146  -28.1378 H   0  0  0  0  0  0  0  0  0  0  0  0
   -1.1190   25.7411  -28.1378 H   0  0  0  0  0  0  0  0  0  0  0  0
   -5.3279   25.2057  -30.1264 H   0  0  0  0  0  0  0  0  0  0  0  0
   -6.2833   21.2338  -32.4524 H   0  0  0  0  0  0  0  0  0  0  0  0
   -4.7220   21.0817  -33.3895 H   0  0  0  0  0  0  0  0  0  0  0  0
   -4.0570   19.6930  -31.3100 H   0  0  0  0  0  0  0  0  0  0  0  0
   -6.7671   17.5673  -31.7467 H   0  0  0  0  0  0  0  0  0  0  0  0
   -5.1609   17.0687  -31.1006 H   0  0  0  0  0  0  0  0  0  0  0  0
   -6.2097   15.2370  -32.4393 H   0  0  0  0  0  0  0  0  0  0  0  0
   -4.2826   14.8302  -33.9742 H   0  0  0  0  0  0  0  0  0  0  0  0
   -3.7218   15.4677  -32.3922 H   0  0  0  0  0  0  0  0  0  0  0  0
   -2.5699   16.6247  -34.2851 H   0  0  0  0  0  0  0  0  0  0  0  0
   -4.3832   16.3550  -35.9833 H   0  0  0  0  0  0  0  0  0  0  0  0
   -3.8943   18.0764  -35.8274 H   0  0  0  0  0  0  0  0  0  0  0  0
   -6.3854   17.8479  -35.8817 H   0  0  0  0  0  0  0  0  0  0  0  0
   -6.5144   15.5463  -34.9034 H   0  0  0  0  0  0  0  0  0  0  0  0
   -7.5425   16.6957  -33.9790 H   0  0  0  0  0  0  0  0  0  0  0  0
   -6.8710   19.1183  -33.7891 H   0  0  0  0  0  0  0  0  0  0  0  0
   -5.3371   19.6833  -34.5464 H   0  0  0  0  0  0  0  0  0  0  0  0
   -3.0538   17.8782  -32.1772 H   0  0  0  0  0  0  0  0  0  0  0  0
   -3.1339   18.9632  -33.6210 H   0  0  0  0  0  0  0  0  0  0  0  0
   -0.7906   20.7727  -30.3379 H   0  0  0  0  0  0  0  0  0  0  0  0
   -0.7631   19.8685  -31.8898 H   0  0  0  0  0  0  0  0  0  0  0  0
   -0.6023   21.6576  -31.8898 H   0  0  0  0  0  0  0  0  0  0  0  0
   -1.5775   23.0659  -30.1511 H   0  0  0  0  0  0  0  0  0  0  0  0
  1  2  1  0
  2  3  1  0
  3  4  2  0
  4  5  1  0
  5  6  1  0
  5  7  2  0
  7  8  1  0
  8  9  1  0
 10  9  1  1
 10 11  1  0
 11 12  1  0
 12 13  1  0
 13 14  1  0
 14 15  1  0
 15 16  1  0
 16 17  1  0
 16 18  1  0
 14 19  1  0
  7 20  1  0
 20 21  1  0
 21 22  1  0
 20 23  2  0
 23  3  1  0
 18 10  1  0
 19 10  1  0
 17 12  1  0
  1 24  1  0
  1 25  1  0
  1 26  1  0
  4 27  1  0
  8 28  1  0
  8 29  1  0
  9 30  1  0
 11 31  1  0
 11 32  1  0
 12 33  1  1
 13 34  1  0
 13 35  1  0
 14 36  1  6
 15 37  1  0
 15 38  1  0
 16 39  1  6
 17 40  1  0
 17 41  1  0
 18 42  1  0
 18 43  1  0
 19 44  1  0
 19 45  1  0
 22 46  1  0
 22 47  1  0
 22 48  1  0
 23 49  1  0
M  END
>  <UniqueID>  (16) 
16

>  <SMILES>  (16) 
COc1cc(Br)c(CNC23CC4CC(CC(C4)C2)C3)c(OC)c1

>  <Energy>  (16) 
57.778436901066605

>  <Genealogy>  (16) 
COc1cc(Br)c(CNC23CC4CC(CC(C4)C2)C3)c(OC)c1 (3D coordinates assigned)
COc1cc(Br)c(CNC23CC4CC(CC(C4)C2)C3)c(OC)c1 (nonaromatic ring conformer: 57.778436901066605 kcal/mol)

>  <smiles>  (16) 
COc1cc(Br)c(CNC23CC4CC(CC(C4)C2)C3)c(OC)c1

>  <score_type>  (16) 
oracle

>  <origin>  (16) 
adg

>  <m_score__min__energy>  (16) 
-7.8799999999999999

>  <m_primary>  (16) 
energy

$$$$
16:0
     RDKit          3D

 34 36  0  0  0  0  0  0  0  0999 V2000
   -9.1070   20.7140  -31.3760 C   0  0  0  0  0  0  0  0  0  0  0  0
   -8.7420   19.4310  -31.3060 C   0  0  0  0  0  0  0  0  0  0  0  0
   -7.9450   18.7660  -32.4010 C   0  0  0  0  0  0  0  0  0  0  0  0
   -7.4590   19.7270  -33.4110 N   0  0  0  0  0  0  0  0  0  0  0  0
   -6.1280   19.3890  -33.9490 C   0  0  0  0  0  0  0  0  0  0  0  0
   -5.0270   20.1810  -33.2890 C   0  0  0  0  0  0  0  0  0  0  0  0
   -3.6710   19.8320  -33.4710 C   0  0  0  0  0  0  0  0  0  0  0  0
   -2.6410   20.5980  -32.8780 C   0  0  0  0  0  0  0  0  0  0  0  0
   -2.9480   21.7250  -32.0960 C   0  0  0  0  0  0  0  0  0  0  0  0
   -4.2920   22.0490  -31.9310 C   0  0  0  0  0  0  0  0  0  0  0  0
   -5.3040   21.3060  -32.5040 C   0  0  0  0  0  0  0  0  0  0  0  0
   -6.4860   21.8160  -32.2140 O   0  0  0  0  0  0  0  0  0  0  0  0
   -6.2660   22.8770  -31.4630 C   0  0  0  0  0  0  0  0  0  0  0  0
   -7.2120   23.7410  -30.9170 C   0  0  0  0  0  0  0  0  0  0  0  0
   -6.7480   24.8220  -30.1440 C   0  0  0  0  0  0  0  0  0  0  0  0
   -5.3630   25.0150  -29.9360 C   0  0  0  0  0  0  0  0  0  0  0  0
   -4.4250   24.1280  -30.4970 C   0  0  0  0  0  0  0  0  0  0  0  0
   -4.9160   23.0680  -31.2560 C   0  0  0  0  0  0  0  0  0  0  0  0
   -9.6880   21.1659  -30.5586 H   0  0  0  0  0  0  0  0  0  0  0  0
   -8.8266   21.3186  -32.2511 H   0  0  0  0  0  0  0  0  0  0  0  0
   -9.0312   18.8415  -30.4235 H   0  0  0  0  0  0  0  0  0  0  0  0
   -7.0785   18.2607  -31.9494 H   0  0  0  0  0  0  0  0  0  0  0  0
   -8.6090   18.0527  -32.9112 H   0  0  0  0  0  0  0  0  0  0  0  0
   -8.1320   19.7060  -34.2130 H   0  0  0  0  0  0  0  0  0  0  0  0
   -7.4660   20.7050  -33.0380 H   0  0  0  0  0  0  0  0  0  0  0  0
   -5.9411   18.3176  -33.7839 H   0  0  0  0  0  0  0  0  0  0  0  0
   -6.1250   19.6363  -35.0208 H   0  0  0  0  0  0  0  0  0  0  0  0
   -3.4129   18.9539  -34.0812 H   0  0  0  0  0  0  0  0  0  0  0  0
   -1.5904   20.3095  -33.0299 H   0  0  0  0  0  0  0  0  0  0  0  0
   -2.1550   22.3292  -31.6312 H   0  0  0  0  0  0  0  0  0  0  0  0
   -8.2877   23.5837  -31.0845 H   0  0  0  0  0  0  0  0  0  0  0  0
   -7.4692   25.5226  -29.6979 H   0  0  0  0  0  0  0  0  0  0  0  0
   -5.0156   25.8653  -29.3308 H   0  0  0  0  0  0  0  0  0  0  0  0
   -3.3448   24.2666  -30.3419 H   0  0  0  0  0  0  0  0  0  0  0  0
  1  2  2  0
  2  3  1  0
  3  4  1  0
  4  5  1  0
  5  6  1  0
  6  7  2  0
  7  8  1  0
  8  9  2  0
  9 10  1  0
 10 11  2  0
 11 12  1  0
 12 13  1  0
 13 14  2  0
 14 15  1  0
 15 16  2  0
 16 17  1  0
 17 18  2  0
 11  6  1  0
 18 13  1  0
 18 10  1  0
  1 19  1  0
  1 20  1  0
  2 21  1  0
  3 22  1  0
  3 23  1  0
  4 24  1  0
  4 25  1  0
  5 26  1  0
  5 27  1  0
  7 28  1  0
  8 29  1  0
  9 30  1  0
 14 31  1  0
 15 32  1  0
 16 33  1  0
 17 34  1  0
M  CHG  1   4   1
M  END
>  <UniqueID>  (17) 
17

>  <SMILES>  (17) 
C=CC[NH2+]Cc1cccc2c1oc1ccccc12

>  <Energy>  (17) 
74.78193198391591

>  <Genealogy>  (17) 
C=CC[NH2+]Cc1cccc2c1oc1ccccc12 (protonated)
C=CC[NH2+]Cc1cccc2c1oc1ccccc12 (3D coordinates assigned)
C=CC[NH2+]Cc1cccc2c1oc1ccccc12 (optimized conformer: 74.78193198391591 kcal/mol)

>  <smiles>  (17) 
C=CCNCc1cccc2c1oc1ccccc12

>  <score_type>  (17) 
oracle

>  <origin>  (17) 
adg

>  <m_score__min__energy>  (17) 
-6.4800000000000004

>  <m_primary>  (17) 
energy

$$$$
17:0
     RDKit          3D

 91 95  0  0  0  0  0  0  0  0999 V2000
   -6.4550   23.6810  -32.0900 C   0  0  0  0  0  0  0  0  0  0  0  0
   -5.0950   23.0100  -31.9170 C   0  0  0  0  0  0  0  0  0  0  0  0
   -4.1780   23.8920  -31.1560 N   0  0  0  0  0  0  0  0  0  0  0  0
   -4.8890   24.6450  -30.0950 C   0  0  0  0  0  0  0  0  0  0  0  0
   -4.5470   24.1470  -28.6870 C   0  0  0  0  0  0  0  0  0  0  0  0
   -2.9500   23.1830  -30.7080 C   0  0  0  0  0  0  0  0  0  0  0  0
   -2.6860   21.8320  -31.4190 C   0  0  0  0  0  0  0  0  0  0  0  0
   -1.2850   21.4350  -31.2700 N   0  0  0  0  0  0  0  0  0  0  0  0
   -0.9230   20.3310  -30.4210 C   0  0  0  0  0  0  0  0  0  0  0  0
   -1.1280   20.4050  -29.0320 C   0  0  0  0  0  0  0  0  0  0  0  0
   -1.8440   21.4800  -28.4590 C   0  0  0  0  0  0  0  0  0  0  0  0
   -2.0860   21.5230  -27.0880 C   0  0  0  0  0  0  0  0  0  0  0  0
   -1.6260   20.5000  -26.2680 C   0  0  0  0  0  0  0  0  0  0  0  0
   -0.8940   19.4400  -26.8060 C   0  0  0  0  0  0  0  0  0  0  0  0
   -0.6000   19.3840  -28.1940 C   0  0  0  0  0  0  0  0  0  0  0  0
    0.1670   18.3690  -28.7350 N   0  0  0  0  0  0  0  0  0  0  0  0
    0.9600   17.4880  -27.8480 C   0  0  0  0  0  0  0  0  0  0  0  0
    0.2020   18.1880  -30.1060 C   0  0  0  0  0  0  0  0  0  0  0  0
    0.7590   17.0210  -30.6920 C   0  0  0  0  0  0  0  0  0  0  0  0
    0.8110   16.8640  -32.0770 C   0  0  0  0  0  0  0  0  0  0  0  0
    0.2820   17.8350  -32.9240 C   0  0  0  0  0  0  0  0  0  0  0  0
    0.3400   17.6120  -34.3100 O   0  0  0  0  0  0  0  0  0  0  0  0
   -0.7110   17.9130  -35.2260 C   0  0  0  0  0  0  0  0  0  0  0  0
   -1.5470   16.6650  -35.5990 C   0  0  0  0  0  0  0  0  0  0  0  0
   -2.1610   15.8570  -34.4840 N   0  0  2  0  0  0  0  0  0  0  0  0
   -1.2700   14.7170  -34.1250 C   0  0  0  0  0  0  0  0  0  0  0  0
   -3.4520   15.2850  -35.0090 C   0  0  0  0  0  0  0  0  0  0  0  0
   -4.5240   15.1220  -33.9150 C   0  0  0  0  0  0  0  0  0  0  0  0
   -4.9300   16.4400  -33.3210 N   0  0  2  0  0  0  0  0  0  0  0  0
   -5.3840   16.2100  -31.9220 C   0  0  0  0  0  0  0  0  0  0  0  0
   -6.0320   17.0900  -34.1090 C   0  0  0  0  0  0  0  0  0  0  0  0
   -6.7900   18.1990  -33.3930 C   0  0  0  0  0  0  0  0  0  0  0  0
   -6.4210   19.5450  -33.5700 C   0  0  0  0  0  0  0  0  0  0  0  0
   -7.1330   20.5640  -32.9300 C   0  0  0  0  0  0  0  0  0  0  0  0
   -8.2340   20.2540  -32.1280 C   0  0  0  0  0  0  0  0  0  0  0  0
   -9.1240   21.5400  -31.3290 Cl  0  0  0  0  0  0  0  0  0  0  0  0
   -8.6320   18.9230  -31.9700 C   0  0  0  0  0  0  0  0  0  0  0  0
   -7.9210   17.9010  -32.6080 C   0  0  0  0  0  0  0  0  0  0  0  0
   -3.7700   17.3980  -33.2890 C   0  0  0  0  0  0  0  0  0  0  0  0
   -2.4070   16.6750  -33.2500 C   0  0  0  0  0  0  0  0  0  0  0  0
   -0.2970   18.9870  -32.3690 C   0  0  0  0  0  0  0  0  0  0  0  0
   -0.3360   19.1770  -30.9710 C   0  0  0  0  0  0  0  0  0  0  0  0
   -6.8871   23.8942  -31.1012 H   0  0  0  0  0  0  0  0  0  0  0  0
   -6.3316   24.6216  -32.6468 H   0  0  0  0  0  0  0  0  0  0  0  0
   -7.1264   23.0107  -32.6468 H   0  0  0  0  0  0  0  0  0  0  0  0
   -5.2242   22.0638  -31.3711 H   0  0  0  0  0  0  0  0  0  0  0  0
   -4.6629   22.8168  -32.9100 H   0  0  0  0  0  0  0  0  0  0  0  0
   -4.6109   25.7066  -30.1701 H   0  0  0  0  0  0  0  0  0  0  0  0
   -5.9681   24.4957  -30.2475 H   0  0  0  0  0  0  0  0  0  0  0  0
   -5.0047   24.8135  -27.9411 H   0  0  0  0  0  0  0  0  0  0  0  0
   -4.9358   23.1266  -28.5545 H   0  0  0  0  0  0  0  0  0  0  0  0
   -3.4550   24.1434  -28.5545 H   0  0  0  0  0  0  0  0  0  0  0  0
   -2.0881   23.8411  -30.8921 H   0  0  0  0  0  0  0  0  0  0  0  0
   -3.0972   22.9498  -29.6431 H   0  0  0  0  0  0  0  0  0  0  0  0
   -3.3299   21.0584  -30.9752 H   0  0  0  0  0  0  0  0  0  0  0  0
   -2.9097   21.9459  -32.4900 H   0  0  0  0  0  0  0  0  0  0  0  0
   -0.5800   21.8230  -31.9380 H   0  0  0  0  0  0  0  0  0  0  0  0
   -2.2142   22.2916  -29.1026 H   0  0  0  0  0  0  0  0  0  0  0  0
   -2.6417   22.3674  -26.6542 H   0  0  0  0  0  0  0  0  0  0  0  0
   -1.8397   20.5255  -25.1893 H   0  0  0  0  0  0  0  0  0  0  0  0
   -0.5395   18.6358  -26.1445 H   0  0  0  0  0  0  0  0  0  0  0  0
    0.7407   17.7316  -26.7980 H   0  0  0  0  0  0  0  0  0  0  0  0
    0.6967   16.4380  -28.0435 H   0  0  0  0  0  0  0  0  0  0  0  0
    2.0318   17.6398  -28.0435 H   0  0  0  0  0  0  0  0  0  0  0  0
    1.1564   16.2270  -30.0427 H   0  0  0  0  0  0  0  0  0  0  0  0
    1.2750   15.9632  -32.5051 H   0  0  0  0  0  0  0  0  0  0  0  0
   -1.3763   18.6591  -34.7669 H   0  0  0  0  0  0  0  0  0  0  0  0
   -0.2509   18.2954  -36.1491 H   0  0  0  0  0  0  0  0  0  0  0  0
   -2.3692   17.0051  -36.2458 H   0  0  0  0  0  0  0  0  0  0  0  0
   -0.8213   15.9806  -36.0626 H   0  0  0  0  0  0  0  0  0  0  0  0
   -1.2046   14.6334  -33.0301 H   0  0  0  0  0  0  0  0  0  0  0  0
   -1.6816   13.7851  -34.5400 H   0  0  0  0  0  0  0  0  0  0  0  0
   -0.2663   14.8913  -34.5400 H   0  0  0  0  0  0  0  0  0  0  0  0
   -3.2456   14.2978  -35.4481 H   0  0  0  0  0  0  0  0  0  0  0  0
   -3.8464   15.9905  -35.7552 H   0  0  0  0  0  0  0  0  0  0  0  0
   -4.1211   14.4820  -33.1162 H   0  0  0  0  0  0  0  0  0  0  0  0
   -5.4140   14.6704  -34.3776 H   0  0  0  0  0  0  0  0  0  0  0  0
   -4.6264   16.5938  -31.2229 H   0  0  0  0  0  0  0  0  0  0  0  0
   -6.3364   16.7343  -31.7547 H   0  0  0  0  0  0  0  0  0  0  0  0
   -5.5246   15.1319  -31.7547 H   0  0  0  0  0  0  0  0  0  0  0  0
   -5.5888   17.5175  -35.0205 H   0  0  0  0  0  0  0  0  0  0  0  0
   -6.7706   16.2978  -34.3013 H   0  0  0  0  0  0  0  0  0  0  0  0
   -5.5671   19.7973  -34.2159 H   0  0  0  0  0  0  0  0  0  0  0  0
   -6.8255   21.6123  -33.0583 H   0  0  0  0  0  0  0  0  0  0  0  0
   -9.5035   18.6796  -31.3445 H   0  0  0  0  0  0  0  0  0  0  0  0
   -8.2477   16.8566  -32.4958 H   0  0  0  0  0  0  0  0  0  0  0  0
   -3.8595   18.0305  -32.3935 H   0  0  0  0  0  0  0  0  0  0  0  0
   -3.8048   17.9959  -34.2117 H   0  0  0  0  0  0  0  0  0  0  0  0
   -2.3843   16.0098  -32.3742 H   0  0  0  0  0  0  0  0  0  0  0  0
   -1.6206   17.4420  -33.1922 H   0  0  0  0  0  0  0  0  0  0  0  0
   -0.7262   19.7521  -33.0327 H   0  0  0  0  0  0  0  0  0  0  0  0
  1  2  1  0
  2  3  1  0
  3  4  1  0
  4  5  1  0
  3  6  1  0
  6  7  1  0
  7  8  1  0
  8  9  1  0
  9 10  2  0
 10 11  1  0
 11 12  2  0
 12 13  1  0
 13 14  2  0
 14 15  1  0
 15 16  2  0
 16 17  1  0
 16 18  1  0
 18 19  2  0
 19 20  1  0
 20 21  2  0
 21 22  1  0
 22 23  1  0
 23 24  1  0
 25 24  1  6
 25 26  1  0
 25 27  1  0
 27 28  1  0
 28 29  1  0
 29 30  1  1
 29 31  1  0
 31 32  1  0
 32 33  2  0
 33 34  1  0
 34 35  2  0
 35 36  1  0
 35 37  1  0
 37 38  2  0
 29 39  1  0
 39 40  1  0
 21 41  1  0
 41 42  2  0
 42  9  1  0
 15 10  1  0
 42 18  1  0
 40 25  1  0
 38 32  1  0
  1 43  1  0
  1 44  1  0
  1 45  1  0
  2 46  1  0
  2 47  1  0
  4 48  1  0
  4 49  1  0
  5 50  1  0
  5 51  1  0
  5 52  1  0
  6 53  1  0
  6 54  1  0
  7 55  1  0
  7 56  1  0
  8 57  1  0
 11 58  1  0
 12 59  1  0
 13 60  1  0
 14 61  1  0
 17 62  1  0
 17 63  1  0
 17 64  1  0
 19 65  1  0
 20 66  1  0
 23 67  1  0
 23 68  1  0
 24 69  1  0
 24 70  1  0
 26 71  1  0
 26 72  1  0
 26 73  1  0
 27 74  1  0
 27 75  1  0
 28 76  1  0
 28 77  1  0
 30 78  1  0
 30 79  1  0
 30 80  1  0
 31 81  1  0
 31 82  1  0
 33 83  1  0
 34 84  1  0
 37 85  1  0
 38 86  1  0
 39 87  1  0
 39 88  1  0
 40 89  1  0
 40 90  1  0
 41 91  1  0
M  CHG  3  16   1  25   1  29   1
M  END
>  <UniqueID>  (18) 
18

>  <SMILES>  (18) 
CCN(CC)CCNc1c2ccccc2[n+](C)c2ccc(OCC[N+]3(C)CC[N+](C)(Cc4ccc(Cl)cc4)CC3)cc12

>  <Energy>  (18) 
159.14954288224132

>  <Genealogy>  (18) 
CCN(CC)CCNc1c2ccccc2[n+](C)c2ccc(OCC[N+]3(C)CC[N+](C)(Cc4ccc(Cl)cc4)CC3)cc12 (3D coordinates assigned)
CCN(CC)CCNc1c2ccccc2[n+](C)c2ccc(OCC[N+]3(C)CC[N+](C)(Cc4ccc(Cl)cc4)CC3)cc12 (nonaromatic ring conformer: 159.14954288224132 kcal/mol)

>  <smiles>  (18) 
CCN(CC)CCNc1c2ccccc2[n+](C)c2ccc(OCC[N+]3(C)CC[N+](C)(Cc4ccc(Cl)cc4)CC3)cc12

>  <score_type>  (18) 
oracle

>  <origin>  (18) 
adg

>  <m_score__min__energy>  (18) 
-9.7699999999999996

>  <m_primary>  (18) 
energy

$$$$
18:0
     RDKit          3D

 64 66  0  0  0  0  0  0  0  0999 V2000
   -7.3532   24.0567  -29.7209 H   0  0  0  0  0  0  0  0  0  0  0  0
   -6.9060   23.6810  -30.6530 C   0  0  0  0  0  0  0  0  0  0  0  0
   -5.9050   24.3790  -31.2030 C   0  0  0  0  0  0  0  0  0  0  0  0
   -5.5752   24.1402  -32.2249 H   0  0  0  0  0  0  0  0  0  0  0  0
   -5.2270   25.4810  -30.4470 C   0  0  0  0  0  0  0  0  0  0  0  0
   -5.5745   25.4792  -29.4033 H   0  0  0  0  0  0  0  0  0  0  0  0
   -5.4692   26.4495  -30.9089 H   0  0  0  0  0  0  0  0  0  0  0  0
   -3.8320   25.2760  -30.4800 O   0  0  0  0  0  0  0  0  0  0  0  0
   -3.4650   24.2010  -29.6320 C   0  0  0  0  0  0  0  0  0  0  0  0
   -4.3715   23.6748  -29.2984 H   0  0  0  0  0  0  0  0  0  0  0  0
   -2.9214   24.5978  -28.7619 H   0  0  0  0  0  0  0  0  0  0  0  0
   -2.5590   23.2220  -30.3860 C   0  0  0  0  0  0  0  0  0  0  0  0
   -1.5137   23.4022  -30.0945 H   0  0  0  0  0  0  0  0  0  0  0  0
   -2.6919   23.3832  -31.4660 H   0  0  0  0  0  0  0  0  0  0  0  0
   -2.9140   21.8190  -30.0720 N   0  0  0  0  0  0  0  0  0  0  0  0
   -3.8610   21.2770  -31.0710 C   0  0  0  0  0  0  0  0  0  0  0  0
   -4.8891   21.4988  -30.7487 H   0  0  0  0  0  0  0  0  0  0  0  0
   -3.7053   20.1907  -31.1466 H   0  0  0  0  0  0  0  0  0  0  0  0
   -3.6240   21.8990  -32.4490 C   0  0  0  0  0  0  0  0  0  0  0  0
   -3.2347   22.9207  -32.3281 H   0  0  0  0  0  0  0  0  0  0  0  0
   -2.8942   21.2919  -33.0047 H   0  0  0  0  0  0  0  0  0  0  0  0
   -4.5728   21.9315  -33.0047 H   0  0  0  0  0  0  0  0  0  0  0  0
   -3.4300   21.6800  -28.6860 C   0  0  0  0  0  0  0  0  0  0  0  0
   -3.2805   22.6249  -28.1430 H   0  0  0  0  0  0  0  0  0  0  0  0
   -4.5030   21.4399  -28.7174 H   0  0  0  0  0  0  0  0  0  0  0  0
   -2.6810   20.5610  -27.9730 C   0  0  0  0  0  0  0  0  0  0  0  0
   -2.7707   20.6950  -26.8849 H   0  0  0  0  0  0  0  0  0  0  0  0
   -3.1122   19.5905  -28.2597 H   0  0  0  0  0  0  0  0  0  0  0  0
   -1.6194   20.5896  -28.2597 H   0  0  0  0  0  0  0  0  0  0  0  0
   -7.4430   22.4280  -31.2350 C   0  0  0  0  0  0  0  0  0  0  0  0
   -8.5740   21.8410  -30.6440 C   0  0  0  0  0  0  0  0  0  0  0  0
   -9.0257   22.3018  -29.7531 H   0  0  0  0  0  0  0  0  0  0  0  0
   -9.1290   20.6770  -31.1790 C   0  0  0  0  0  0  0  0  0  0  0  0
  -10.0207   20.2313  -30.7140 H   0  0  0  0  0  0  0  0  0  0  0  0
   -8.5570   20.0770  -32.3010 C   0  0  0  0  0  0  0  0  0  0  0  0
   -9.0106   19.1701  -32.7273 H   0  0  0  0  0  0  0  0  0  0  0  0
   -7.4040   20.6250  -32.8900 C   0  0  0  0  0  0  0  0  0  0  0  0
   -6.7890   19.9820  -34.0270 N   0  0  0  0  0  0  0  0  0  0  0  0
   -6.1390   20.6360  -34.5220 H   0  0  0  0  0  0  0  0  0  0  0  0
   -7.5350   19.7190  -34.7110 H   0  0  0  0  0  0  0  0  0  0  0  0
   -6.0540   18.8170  -33.6010 C   0  0  0  0  0  0  0  0  0  0  0  0
   -6.7270   17.6510  -33.2090 C   0  0  0  0  0  0  0  0  0  0  0  0
   -7.8265   17.6218  -33.2218 H   0  0  0  0  0  0  0  0  0  0  0  0
   -6.0240   16.5560  -32.8130 N   0  0  0  0  0  0  0  0  0  0  0  0
   -4.6650   16.5460  -32.7890 C   0  0  0  0  0  0  0  0  0  0  0  0
   -4.1309   15.6465  -32.4489 H   0  0  0  0  0  0  0  0  0  0  0  0
   -3.9400   17.6750  -33.1950 C   0  0  0  0  0  0  0  0  0  0  0  0
   -2.5020   17.6620  -33.1350 N   0  0  0  0  0  0  0  0  0  0  0  0
   -2.0200   16.7350  -33.1160 H   0  0  0  0  0  0  0  0  0  0  0  0
   -1.6910   18.8420  -33.0250 C   0  0  0  0  0  0  0  0  0  0  0  0
   -1.4790   19.6460  -34.1560 C   0  0  0  0  0  0  0  0  0  0  0  0
   -1.9386   19.3708  -35.1168 H   0  0  0  0  0  0  0  0  0  0  0  0
   -0.6880   20.7930  -34.0680 C   0  0  0  0  0  0  0  0  0  0  0  0
   -0.5097   21.4064  -34.9635 H   0  0  0  0  0  0  0  0  0  0  0  0
   -0.1220   21.1640  -32.8450 C   0  0  0  0  0  0  0  0  0  0  0  0
    0.5022   22.0673  -32.7780 H   0  0  0  0  0  0  0  0  0  0  0  0
   -0.3510   20.3840  -31.7060 C   0  0  0  0  0  0  0  0  0  0  0  0
    0.0892   20.6778  -30.7417 H   0  0  0  0  0  0  0  0  0  0  0  0
   -1.1410   19.2280  -31.7920 C   0  0  0  0  0  0  0  0  0  0  0  0
   -1.3298   18.6233  -30.8927 H   0  0  0  0  0  0  0  0  0  0  0  0
   -4.6490   18.8200  -33.5860 C   0  0  0  0  0  0  0  0  0  0  0  0
   -4.1015   19.7267  -33.8830 H   0  0  0  0  0  0  0  0  0  0  0  0
   -6.8470   21.7980  -32.3460 C   0  0  0  0  0  0  0  0  0  0  0  0
   -5.9378   22.2270  -32.7924 H   0  0  0  0  0  0  0  0  0  0  0  0
  1  2  1  0
  2  3  2  0
  3  4  1  0
  3  5  1  0
  5  6  1  0
  5  7  1  0
  5  8  1  0
  8  9  1  0
  9 10  1  0
  9 11  1  0
  9 12  1  0
 12 13  1  0
 12 14  1  0
 12 15  1  0
 15 16  1  0
 16 17  1  0
 16 18  1  0
 16 19  1  0
 19 20  1  0
 19 21  1  0
 19 22  1  0
 15 23  1  0
 23 24  1  0
 23 25  1  0
 23 26  1  0
 26 27  1  0
 26 28  1  0
 26 29  1  0
  2 30  1  0
 30 31  2  0
 31 32  1  0
 31 33  1  0
 33 34  1  0
 33 35  2  0
 35 36  1  0
 35 37  1  0
 37 38  1  0
 38 39  1  0
 38 40  1  0
 38 41  1  0
 41 42  2  0
 42 43  1  0
 42 44  1  0
 44 45  2  0
 45 46  1  0
 45 47  1  0
 47 48  1  0
 48 49  1  0
 48 50  1  0
 50 51  2  0
 51 52  1  0
 51 53  1  0
 53 54  1  0
 53 55  2  0
 55 56  1  0
 55 57  1  0
 57 58  1  0
 57 59  2  0
 59 60  1  0
 47 61  2  0
 61 62  1  0
 37 63  2  0
 63 64  1  0
 63 30  1  0
 61 41  1  0
 59 50  1  0
M  CHG  1  38   1
M  END
>  <UniqueID>  (19) 
19

>  <SMILES>  (19) 
CCN(CC)CCOC/C=C/c1cccc([NH2+]c2cncc(Nc3ccccc3)c2)c1

>  <Energy>  (19) 
73.31783970905956

>  <Genealogy>  (19) 
CCN(CC)CCOCC=Cc1cccc([NH2+]c2cncc(Nc3ccccc3)c2)c1 (protonated)
CCN(CC)CCOC/C=C/c1cccc([NH2+]c2cncc(Nc3ccccc3)c2)c1 (cis-trans isomerization)
CCN(CC)CCOC/C=C/c1cccc([NH2+]c2cncc(Nc3ccccc3)c2)c1 (3D coordinates assigned)
CCN(CC)CCOC/C=C/c1cccc([NH2+]c2cncc(Nc3ccccc3)c2)c1 (optimized conformer: 73.31783970905956 kcal/mol)

>  <smiles>  (19) 
CCN(CC)CCOCC=Cc1cccc(Nc2cncc(Nc3ccccc3)c2)c1

>  <score_type>  (19) 
oracle

>  <origin>  (19) 
adg

>  <m_score__min__energy>  (19) 
-8.7200000000000006

>  <m_primary>  (19) 
energy

$$$$
19:0
     RDKit          3D

 97100  0  0  0  0  0  0  0  0999 V2000
   -0.1710   19.6730  -30.2960 C   0  0  0  0  0  0  0  0  0  0  0  0
    0.0120   20.4040  -31.6370 C   0  0  0  0  0  0  0  0  0  0  0  0
   -1.0140   20.0790  -32.6580 N   0  0  0  0  0  0  0  0  0  0  0  0
   -1.2450   21.2080  -33.5820 C   0  0  0  0  0  0  0  0  0  0  0  0
   -0.7180   18.8150  -33.3750 C   0  0  0  0  0  0  0  0  0  0  0  0
   -1.9010   17.8360  -33.3050 C   0  0  0  0  0  0  0  0  0  0  0  0
   -3.1040   18.5620  -33.1120 O   0  0  0  0  0  0  0  0  0  0  0  0
   -3.6810   18.9150  -34.3550 C   0  0  0  0  0  0  0  0  0  0  0  0
   -4.4260   17.7220  -34.9770 C   0  0  0  0  0  0  0  0  0  0  0  0
   -5.4970   17.1520  -34.0360 C   0  0  0  0  0  0  0  0  0  0  0  0
   -4.9170   16.7210  -32.7500 N   0  0  0  0  0  0  0  0  0  0  0  0
   -5.9560   16.6950  -31.7120 C   0  0  0  0  0  0  0  0  0  0  0  0
   -6.0800   18.0760  -31.0620 C   0  0  0  0  0  0  0  0  0  0  0  0
   -5.2310   19.0740  -31.7340 N   0  0  0  0  0  0  0  0  0  0  0  0
   -5.7030   20.4190  -31.4310 C   0  0  0  0  0  0  0  0  0  0  0  0
   -7.0400   20.8020  -31.7230 C   0  0  0  0  0  0  0  0  0  0  0  0
   -7.9340   19.9400  -32.4070 C   0  0  0  0  0  0  0  0  0  0  0  0
   -9.2390   20.3330  -32.6920 C   0  0  0  0  0  0  0  0  0  0  0  0
   -9.6820   21.6000  -32.3350 C   0  0  0  0  0  0  0  0  0  0  0  0
   -8.8220   22.4750  -31.6740 C   0  0  0  0  0  0  0  0  0  0  0  0
   -7.5000   22.0930  -31.3310 C   0  0  0  0  0  0  0  0  0  0  0  0
   -6.6630   22.9480  -30.6460 N   0  0  0  0  0  0  0  0  0  0  0  0
   -7.2280   24.1300  -29.9500 C   0  0  0  0  0  0  0  0  0  0  0  0
   -5.3110   22.6920  -30.5910 C   0  0  0  0  0  0  0  0  0  0  0  0
   -4.3840   23.6960  -30.1960 C   0  0  0  0  0  0  0  0  0  0  0  0
   -3.0280   23.4180  -30.0290 C   0  0  0  0  0  0  0  0  0  0  0  0
   -2.1870   24.4470  -29.5760 O   0  0  0  0  0  0  0  0  0  0  0  0
   -2.0940   24.9000  -28.2250 C   0  0  0  0  0  0  0  0  0  0  0  0
   -0.6590   24.6690  -27.6920 C   0  0  0  0  0  0  0  0  0  0  0  0
   -0.4790   24.7060  -26.2020 N   0  0  0  0  0  0  0  0  0  0  0  0
   -0.5440   23.3290  -25.6510 C   0  0  0  0  0  0  0  0  0  0  0  0
    0.8430   25.3140  -25.8300 C   0  0  0  0  0  0  0  0  0  0  0  0
    0.7760   26.8520  -25.7120 C   0  0  0  0  0  0  0  0  0  0  0  0
   -0.1660   27.3040  -24.6340 N   0  0  0  0  0  0  0  0  0  0  0  0
    0.5850   27.5540  -23.3790 C   0  0  0  0  0  0  0  0  0  0  0  0
   -0.8040   28.5820  -25.0460 C   0  0  0  0  0  0  0  0  0  0  0  0
   -1.2270   26.2850  -24.3580 C   0  0  0  0  0  0  0  0  0  0  0  0
   -1.6190   25.5030  -25.6280 C   0  0  0  0  0  0  0  0  0  0  0  0
   -2.5540   22.1370  -30.3240 C   0  0  0  0  0  0  0  0  0  0  0  0
   -3.4240   21.1550  -30.7920 C   0  0  0  0  0  0  0  0  0  0  0  0
   -4.8100   21.4070  -30.9350 C   0  0  0  0  0  0  0  0  0  0  0  0
    0.0049   20.3758  -29.4683 H   0  0  0  0  0  0  0  0  0  0  0  0
   -1.1957   19.2783  -30.2304 H   0  0  0  0  0  0  0  0  0  0  0  0
    0.5469   18.8421  -30.2304 H   0  0  0  0  0  0  0  0  0  0  0  0
   -0.0237   21.4867  -31.4461 H   0  0  0  0  0  0  0  0  0  0  0  0
    0.9776   20.0718  -32.0460 H   0  0  0  0  0  0  0  0  0  0  0  0
   -1.4324   22.1238  -33.0023 H   0  0  0  0  0  0  0  0  0  0  0  0
   -0.3574   21.3505  -34.2159 H   0  0  0  0  0  0  0  0  0  0  0  0
   -2.1172   20.9904  -34.2159 H   0  0  0  0  0  0  0  0  0  0  0  0
   -0.5057   19.0439  -34.4298 H   0  0  0  0  0  0  0  0  0  0  0  0
    0.1504   18.3412  -32.8940 H   0  0  0  0  0  0  0  0  0  0  0  0
   -1.9625   17.2673  -34.2446 H   0  0  0  0  0  0  0  0  0  0  0  0
   -1.7530   17.1412  -32.4652 H   0  0  0  0  0  0  0  0  0  0  0  0
   -4.3908   19.7409  -34.2002 H   0  0  0  0  0  0  0  0  0  0  0  0
   -2.8764   19.2207  -35.0400 H   0  0  0  0  0  0  0  0  0  0  0  0
   -4.9115   18.0534  -35.9068 H   0  0  0  0  0  0  0  0  0  0  0  0
   -3.6897   16.9280  -35.1706 H   0  0  0  0  0  0  0  0  0  0  0  0
   -6.2531   17.9277  -33.8444 H   0  0  0  0  0  0  0  0  0  0  0  0
   -5.9486   16.2740  -34.5209 H   0  0  0  0  0  0  0  0  0  0  0  0
   -4.2130   17.4390  -32.4570 H   0  0  0  0  0  0  0  0  0  0  0  0
   -6.9187   16.4184  -32.1667 H   0  0  0  0  0  0  0  0  0  0  0  0
   -5.6812   15.9572  -30.9438 H   0  0  0  0  0  0  0  0  0  0  0  0
   -7.1285   18.4038  -31.1192 H   0  0  0  0  0  0  0  0  0  0  0  0
   -5.7486   17.9931  -30.0164 H   0  0  0  0  0  0  0  0  0  0  0  0
   -4.2350   18.9550  -31.4490 H   0  0  0  0  0  0  0  0  0  0  0  0
   -5.2030   18.9030  -32.7630 H   0  0  0  0  0  0  0  0  0  0  0  0
   -7.5903   18.9425  -32.7182 H   0  0  0  0  0  0  0  0  0  0  0  0
   -9.9217   19.6373  -33.2019 H   0  0  0  0  0  0  0  0  0  0  0  0
  -10.7095   21.9121  -32.5735 H   0  0  0  0  0  0  0  0  0  0  0  0
   -9.1760   23.4832  -31.4128 H   0  0  0  0  0  0  0  0  0  0  0  0
   -7.1578   23.9832  -28.8621 H   0  0  0  0  0  0  0  0  0  0  0  0
   -6.6622   25.0290  -30.2359 H   0  0  0  0  0  0  0  0  0  0  0  0
   -8.2829   24.2543  -30.2359 H   0  0  0  0  0  0  0  0  0  0  0  0
   -4.7467   24.7191  -30.0175 H   0  0  0  0  0  0  0  0  0  0  0  0
   -2.3309   25.9733  -28.1826 H   0  0  0  0  0  0  0  0  0  0  0  0
   -2.8070   24.3382  -27.6037 H   0  0  0  0  0  0  0  0  0  0  0  0
   -0.3281   23.6805  -28.0433 H   0  0  0  0  0  0  0  0  0  0  0  0
   -0.0687   25.5142  -28.0755 H   0  0  0  0  0  0  0  0  0  0  0  0
   -0.5419   23.3734  -24.5519 H   0  0  0  0  0  0  0  0  0  0  0  0
   -1.4663   22.8390  -25.9964 H   0  0  0  0  0  0  0  0  0  0  0  0
    0.3280   22.7543  -25.9964 H   0  0  0  0  0  0  0  0  0  0  0  0
    1.1616   24.8998  -24.8620 H   0  0  0  0  0  0  0  0  0  0  0  0
    1.5584   25.0717  -26.6297 H   0  0  0  0  0  0  0  0  0  0  0  0
    1.7825   27.2327  -25.4838 H   0  0  0  0  0  0  0  0  0  0  0  0
    0.4030   27.2453  -26.6692 H   0  0  0  0  0  0  0  0  0  0  0  0
   -0.0617   27.3387  -22.5156 H   0  0  0  0  0  0  0  0  0  0  0  0
    1.4704   26.9021  -23.3455 H   0  0  0  0  0  0  0  0  0  0  0  0
    0.9031   28.6065  -23.3455 H   0  0  0  0  0  0  0  0  0  0  0  0
   -1.0897   29.1544  -24.1511 H   0  0  0  0  0  0  0  0  0  0  0  0
   -0.0936   29.1698  -25.6459 H   0  0  0  0  0  0  0  0  0  0  0  0
   -1.7007   28.3675  -25.6459 H   0  0  0  0  0  0  0  0  0  0  0  0
   -0.8516   25.5758  -23.6056 H   0  0  0  0  0  0  0  0  0  0  0  0
   -2.1205   26.8137  -23.9944 H   0  0  0  0  0  0  0  0  0  0  0  0
   -2.4376   24.8128  -25.3761 H   0  0  0  0  0  0  0  0  0  0  0  0
   -1.9219   26.2388  -26.3876 H   0  0  0  0  0  0  0  0  0  0  0  0
   -1.4881   21.9028  -30.1859 H   0  0  0  0  0  0  0  0  0  0  0  0
   -3.0264   20.1639  -31.0558 H   0  0  0  0  0  0  0  0  0  0  0  0
  1  2  1  0
  2  3  1  0
  3  4  1  0
  3  5  1  0
  5  6  1  0
  6  7  1  0
  7  8  1  0
  8  9  1  0
  9 10  1  0
 10 11  1  0
 11 12  1  0
 12 13  1  0
 13 14  1  0
 14 15  1  0
 15 16  2  0
 16 17  1  0
 17 18  2  0
 18 19  1  0
 19 20  2  0
 20 21  1  0
 21 22  2  0
 22 23  1  0
 22 24  1  0
 24 25  2  0
 25 26  1  0
 26 27  1  0
 27 28  1  0
 28 29  1  0
 29 30  1  0
 30 31  1  0
 30 32  1  0
 32 33  1  0
 33 34  1  0
 34 35  1  0
 34 36  1  0
 34 37  1  0
 37 38  1  0
 26 39  2  0
 39 40  1  0
 40 41  2  0
 41 15  1  0
 21 16  1  0
 41 24  1  0
 38 30  1  0
  1 42  1  0
  1 43  1  0
  1 44  1  0
  2 45  1  0
  2 46  1  0
  4 47  1  0
  4 48  1  0
  4 49  1  0
  5 50  1  0
  5 51  1  0
  6 52  1  0
  6 53  1  0
  8 54  1  0
  8 55  1  0
  9 56  1  0
  9 57  1  0
 10 58  1  0
 10 59  1  0
 11 60  1  0
 12 61  1  0
 12 62  1  0
 13 63  1  0
 13 64  1  0
 14 65  1  0
 14 66  1  0
 17 67  1  0
 18 68  1  0
 19 69  1  0
 20 70  1  0
 23 71  1  0
 23 72  1  0
 23 73  1  0
 25 74  1  0
 28 75  1  0
 28 76  1  0
 29 77  1  0
 29 78  1  0
 31 79  1  0
 31 80  1  0
 31 81  1  0
 32 82  1  0
 32 83  1  0
 33 84  1  0
 33 85  1  0
 35 86  1  0
 35 87  1  0
 35 88  1  0
 36 89  1  0
 36 90  1  0
 36 91  1  0
 37 92  1  0
 37 93  1  0
 38 94  1  0
 38 95  1  0
 39 96  1  0
 40 97  1  0
M  CHG  4  14   1  22   1  30   1  34   1
M  END
>  <UniqueID>  (20) 
20

>  <SMILES>  (20) 
CCN(C)CCOCCCNCC[NH2+]c1c2ccccc2[n+](C)c2cc(OCC[N+]3(C)CC[N+](C)(C)CC3)ccc12

>  <Energy>  (20) 
150.3337343378056

>  <Genealogy>  (20) 
CCN(C)CCOCCCNCC[NH2+]c1c2ccccc2[n+](C)c2cc(OCC[N+]3(C)CC[N+](C)(C)CC3)ccc12 (protonated)
CCN(C)CCOCCCNCC[NH2+]c1c2ccccc2[n+](C)c2cc(OCC[N+]3(C)CC[N+](C)(C)CC3)ccc12 (3D coordinates assigned)
CCN(C)CCOCCCNCC[NH2+]c1c2ccccc2[n+](C)c2cc(OCC[N+]3(C)CC[N+](C)(C)CC3)ccc12 (nonaromatic ring conformer: 150.3337343378056 kcal/mol)

>  <smiles>  (20) 
CCN(C)CCOCCCNCCNc1c2ccccc2[n+](C)c2cc(OCC[N+]3(C)CC[N+](C)(C)CC3)ccc12

>  <score_type>  (20) 
oracle

>  <origin>  (20) 
adg

>  <m_score__min__energy>  (20) 
-8.0399999999999991

>  <m_primary>  (20) 
energy

$$$$
20:0
     RDKit          3D

 70 73  0  0  0  0  0  0  0  0999 V2000
   -2.1530   24.9010  -28.4480 C   0  0  0  0  0  0  0  0  0  0  0  0
   -3.3680   24.2810  -29.1520 C   0  0  0  0  0  0  0  0  0  0  0  0
   -4.6100   24.2830  -28.2450 C   0  0  0  0  0  0  0  0  0  0  0  0
   -3.6160   24.8970  -30.4730 N   0  0  0  0  0  0  0  0  0  0  0  0
   -5.0390   25.1300  -30.7800 C   0  0  0  0  0  0  0  0  0  0  0  0
   -5.6620   23.8920  -31.4460 C   0  0  0  0  0  0  0  0  0  0  0  0
   -4.8440   22.6900  -31.2530 N   0  0  0  0  0  0  0  0  0  0  0  0
   -5.0880   21.4620  -31.9610 C   0  0  0  0  0  0  0  0  0  0  0  0
   -6.3820   20.9090  -31.9590 C   0  0  0  0  0  0  0  0  0  0  0  0
   -7.3810   21.4030  -31.0910 C   0  0  0  0  0  0  0  0  0  0  0  0
   -8.6580   20.8470  -31.0840 C   0  0  0  0  0  0  0  0  0  0  0  0
   -8.9560   19.7790  -31.9210 C   0  0  0  0  0  0  0  0  0  0  0  0
   -7.9810   19.2630  -32.7740 C   0  0  0  0  0  0  0  0  0  0  0  0
   -6.6800   19.8260  -32.8230 C   0  0  0  0  0  0  0  0  0  0  0  0
   -5.7070   19.3300  -33.6660 N   0  0  0  0  0  0  0  0  0  0  0  0
   -6.0820   18.4300  -34.7770 C   0  0  0  0  0  0  0  0  0  0  0  0
   -4.3840   19.6760  -33.4680 C   0  0  0  0  0  0  0  0  0  0  0  0
   -3.3410   18.9280  -34.0630 C   0  0  0  0  0  0  0  0  0  0  0  0
   -2.0100   19.2780  -33.8830 C   0  0  0  0  0  0  0  0  0  0  0  0
   -1.6760   20.3810  -33.1130 C   0  0  0  0  0  0  0  0  0  0  0  0
   -2.6690   21.1520  -32.4930 C   0  0  0  0  0  0  0  0  0  0  0  0
   -2.3100   22.2780  -31.7340 O   0  0  0  0  0  0  0  0  0  0  0  0
   -1.4810   22.2760  -30.5700 C   0  0  0  0  0  0  0  0  0  0  0  0
   -0.9840   20.8710  -30.1270 C   0  0  0  0  0  0  0  0  0  0  0  0
   -1.1610   20.5010  -28.6790 N   0  0  0  0  0  0  0  0  0  0  0  0
   -0.3890   21.4640  -27.8460 C   0  0  0  0  0  0  0  0  0  0  0  0
   -2.6040   20.4850  -28.2920 C   0  0  0  0  0  0  0  0  0  0  0  0
   -2.8560   19.8010  -26.9330 C   0  0  0  0  0  0  0  0  0  0  0  0
   -2.3330   18.4900  -26.9170 O   0  0  0  0  0  0  0  0  0  0  0  0
   -0.9360   18.5380  -27.1030 C   0  0  0  0  0  0  0  0  0  0  0  0
   -0.5940   19.1320  -28.4830 C   0  0  0  0  0  0  0  0  0  0  0  0
   -4.0420   20.7860  -32.6390 C   0  0  0  0  0  0  0  0  0  0  0  0
   -2.2864   24.8329  -27.3582 H   0  0  0  0  0  0  0  0  0  0  0  0
   -1.2427   24.3572  -28.7406 H   0  0  0  0  0  0  0  0  0  0  0  0
   -2.0592   25.9572  -28.7406 H   0  0  0  0  0  0  0  0  0  0  0  0
   -3.1319   23.2252  -29.3510 H   0  0  0  0  0  0  0  0  0  0  0  0
   -4.2945   24.2825  -27.1912 H   0  0  0  0  0  0  0  0  0  0  0  0
   -5.2105   25.1821  -28.4475 H   0  0  0  0  0  0  0  0  0  0  0  0
   -5.2134   23.3858  -28.4475 H   0  0  0  0  0  0  0  0  0  0  0  0
   -3.2090   24.2640  -31.1980 H   0  0  0  0  0  0  0  0  0  0  0  0
   -5.5787   25.3477  -29.8465 H   0  0  0  0  0  0  0  0  0  0  0  0
   -5.1162   25.9806  -31.4732 H   0  0  0  0  0  0  0  0  0  0  0  0
   -6.6567   23.7177  -31.0099 H   0  0  0  0  0  0  0  0  0  0  0  0
   -5.7279   24.0864  -32.5267 H   0  0  0  0  0  0  0  0  0  0  0  0
   -4.0700   22.7180  -30.5510 H   0  0  0  0  0  0  0  0  0  0  0  0
   -7.1476   22.2368  -30.4125 H   0  0  0  0  0  0  0  0  0  0  0  0
   -9.4310   21.2537  -30.4154 H   0  0  0  0  0  0  0  0  0  0  0  0
   -9.9641   19.3391  -31.9108 H   0  0  0  0  0  0  0  0  0  0  0  0
   -8.2246   18.4059  -33.4190 H   0  0  0  0  0  0  0  0  0  0  0  0
   -6.4748   17.4872  -34.3685 H   0  0  0  0  0  0  0  0  0  0  0  0
   -6.8542   18.9120  -35.3946 H   0  0  0  0  0  0  0  0  0  0  0  0
   -5.1961   18.2211  -35.3946 H   0  0  0  0  0  0  0  0  0  0  0  0
   -3.5897   18.0521  -34.6802 H   0  0  0  0  0  0  0  0  0  0  0  0
   -1.2172   18.6777  -34.3532 H   0  0  0  0  0  0  0  0  0  0  0  0
   -0.6181   20.6549  -32.9868 H   0  0  0  0  0  0  0  0  0  0  0  0
   -0.6000   22.9015  -30.7761 H   0  0  0  0  0  0  0  0  0  0  0  0
   -2.1017   22.6591  -29.7466 H   0  0  0  0  0  0  0  0  0  0  0  0
   -1.5251   20.1247  -30.7272 H   0  0  0  0  0  0  0  0  0  0  0  0
    0.1049   20.8951  -30.2812 H   0  0  0  0  0  0  0  0  0  0  0  0
   -0.5618   21.2485  -26.7813 H   0  0  0  0  0  0  0  0  0  0  0  0
    0.6833   21.3657  -28.0707 H   0  0  0  0  0  0  0  0  0  0  0  0
   -0.7182   22.4892  -28.0707 H   0  0  0  0  0  0  0  0  0  0  0  0
   -2.9628   21.5232  -28.2337 H   0  0  0  0  0  0  0  0  0  0  0  0
   -3.1432   19.9064  -29.0565 H   0  0  0  0  0  0  0  0  0  0  0  0
   -2.3725   20.3900  -26.1397 H   0  0  0  0  0  0  0  0  0  0  0  0
   -3.9420   19.7450  -26.7671 H   0  0  0  0  0  0  0  0  0  0  0  0
   -0.4879   19.1651  -26.3181 H   0  0  0  0  0  0  0  0  0  0  0  0
   -0.5349   17.5152  -27.0473 H   0  0  0  0  0  0  0  0  0  0  0  0
    0.5002   19.1871  -28.5809 H   0  0  0  0  0  0  0  0  0  0  0  0
   -1.0385   18.4762  -29.2461 H   0  0  0  0  0  0  0  0  0  0  0  0
  1  2  1  0
  2  3  1  0
  2  4  1  0
  4  5  1  0
  5  6  1  0
  6  7  1  0
  7  8  1  0
  8  9  2  0
  9 10  1  0
 10 11  2  0
 11 12  1  0
 12 13  2  0
 13 14  1  0
 14 15  2  0
 15 16  1  0
 15 17  1  0
 17 18  2  0
 18 19  1  0
 19 20  2  0
 20 21  1  0
 21 22  1  0
 22 23  1  0
 23 24  1  0
 24 25  1  0
 25 26  1  0
 25 27  1  0
 27 28  1  0
 28 29  1  0
 29 30  1  0
 30 31  1  0
 21 32  2  0
 32  8  1  0
 14  9  1  0
 32 17  1  0
 31 25  1  0
  1 33  1  0
  1 34  1  0
  1 35  1  0
  2 36  1  0
  3 37  1  0
  3 38  1  0
  3 39  1  0
  4 40  1  0
  5 41  1  0
  5 42  1  0
  6 43  1  0
  6 44  1  0
  7 45  1  0
 10 46  1  0
 11 47  1  0
 12 48  1  0
 13 49  1  0
 16 50  1  0
 16 51  1  0
 16 52  1  0
 18 53  1  0
 19 54  1  0
 20 55  1  0
 23 56  1  0
 23 57  1  0
 24 58  1  0
 24 59  1  0
 26 60  1  0
 26 61  1  0
 26 62  1  0
 27 63  1  0
 27 64  1  0
 28 65  1  0
 28 66  1  0
 30 67  1  0
 30 68  1  0
 31 69  1  0
 31 70  1  0
M  CHG  2  15   1  25   1
M  END
>  <UniqueID>  (21) 
21

>  <SMILES>  (21) 
CC(C)NCCNc1c2ccccc2[n+](C)c2cccc(OCC[N+]3(C)CCOCC3)c12

>  <Energy>  (21) 
115.46752892499342

>  <Genealogy>  (21) 
CC(C)NCCNc1c2ccccc2[n+](C)c2cccc(OCC[N+]3(C)CCOCC3)c12 (3D coordinates assigned)
CC(C)NCCNc1c2ccccc2[n+](C)c2cccc(OCC[N+]3(C)CCOCC3)c12 (nonaromatic ring conformer: 115.46752892499342 kcal/mol)

>  <smiles>  (21) 
CC(C)NCCNc1c2ccccc2[n+](C)c2cccc(OCC[N+]3(C)CCOCC3)c12

>  <score_type>  (21) 
oracle

>  <origin>  (21) 
adg

>  <m_score__min__energy>  (21) 
-8.1799999999999997

>  <m_primary>  (21) 
energy

$$$$
21:0
     RDKit          3D

 71 75  0  0  0  0  0  0  0  0999 V2000
   -6.8390   24.9500  -29.7030 C   0  0  0  0  0  0  0  0  0  0  0  0
   -5.7220   25.8150  -30.3030 C   0  0  0  0  0  0  0  0  0  0  0  0
   -4.7460   25.0210  -31.0700 N   0  0  0  0  0  0  0  0  0  0  0  0
   -3.9390   24.1260  -30.2230 C   0  0  0  0  0  0  0  0  0  0  0  0
   -3.8160   22.7600  -30.8960 C   0  0  0  0  0  0  0  0  0  0  0  0
   -4.7350   22.6700  -32.0320 N   0  0  0  0  0  0  0  0  0  0  0  0
   -5.4990   21.4820  -32.2840 C   0  0  0  0  0  0  0  0  0  0  0  0
   -4.8750   20.3300  -32.7550 C   0  0  0  0  0  0  0  0  0  0  0  0
   -5.5980   19.1800  -33.0260 C   0  0  0  0  0  0  0  0  0  0  0  0
   -6.9350   19.0850  -32.7390 N   0  0  0  0  0  0  0  0  0  0  0  0
   -7.5960   17.7700  -32.7320 C   0  0  0  0  0  0  0  0  0  0  0  0
   -7.6200   20.2390  -32.3900 C   0  0  0  0  0  0  0  0  0  0  0  0
   -9.0310   20.2660  -32.2970 C   0  0  0  0  0  0  0  0  0  0  0  0
   -9.7040   21.4230  -31.9040 C   0  0  0  0  0  0  0  0  0  0  0  0
   -8.9950   22.5830  -31.6100 C   0  0  0  0  0  0  0  0  0  0  0  0
   -7.6070   22.6050  -31.7300 C   0  0  0  0  0  0  0  0  0  0  0  0
   -6.9030   21.4550  -32.1340 C   0  0  0  0  0  0  0  0  0  0  0  0
   -4.6770   18.1930  -33.6450 C   0  0  0  0  0  0  0  0  0  0  0  0
   -4.9190   16.9760  -34.2940 C   0  0  0  0  0  0  0  0  0  0  0  0
   -3.8410   16.2990  -34.8910 C   0  0  0  0  0  0  0  0  0  0  0  0
   -2.5400   16.8610  -34.8810 C   0  0  0  0  0  0  0  0  0  0  0  0
   -1.4410   16.2190  -35.4680 O   0  0  0  0  0  0  0  0  0  0  0  0
   -0.6650   15.2030  -34.8400 C   0  0  0  0  0  0  0  0  0  0  0  0
   -0.3160   15.5810  -33.3790 C   0  0  0  0  0  0  0  0  0  0  0  0
    0.9960   16.2890  -33.1530 N   0  0  0  0  0  0  0  0  0  0  0  0
    2.1150   15.5490  -33.7950 C   0  0  0  0  0  0  0  0  0  0  0  0
    1.2780   16.3290  -31.6880 C   0  0  0  0  0  0  0  0  0  0  0  0
    0.2500   17.1930  -30.9150 C   0  0  0  0  0  0  0  0  0  0  0  0
   -0.4130   18.1470  -31.7290 O   0  0  0  0  0  0  0  0  0  0  0  0
    0.4950   18.7290  -32.6370 C   0  0  0  0  0  0  0  0  0  0  0  0
    0.9660   17.6930  -33.6810 C   0  0  0  0  0  0  0  0  0  0  0  0
   -2.3320   18.1120  -34.2800 C   0  0  0  0  0  0  0  0  0  0  0  0
   -3.4120   18.7560  -33.6790 C   0  0  0  0  0  0  0  0  0  0  0  0
   -3.4820   20.1020  -33.1310 C   0  0  0  0  0  0  0  0  0  0  0  0
   -2.5340   20.9270  -33.0570 O   0  0  0  0  0  0  0  0  0  0  0  0
   -6.7853   24.9916  -28.6051 H   0  0  0  0  0  0  0  0  0  0  0  0
   -7.8160   25.3294  -30.0370 H   0  0  0  0  0  0  0  0  0  0  0  0
   -6.7162   23.9091  -30.0370 H   0  0  0  0  0  0  0  0  0  0  0  0
   -6.1744   26.5611  -30.9728 H   0  0  0  0  0  0  0  0  0  0  0  0
   -5.1847   26.2930  -29.4706 H   0  0  0  0  0  0  0  0  0  0  0  0
   -4.1130   25.6660  -31.6050 H   0  0  0  0  0  0  0  0  0  0  0  0
   -2.9368   24.5578  -30.0843 H   0  0  0  0  0  0  0  0  0  0  0  0
   -4.4273   24.0094  -29.2442 H   0  0  0  0  0  0  0  0  0  0  0  0
   -2.7843   22.6221  -31.2518 H   0  0  0  0  0  0  0  0  0  0  0  0
   -4.0703   21.9769  -30.1665 H   0  0  0  0  0  0  0  0  0  0  0  0
   -4.9410   23.5300  -32.5880 H   0  0  0  0  0  0  0  0  0  0  0  0
   -7.7585   17.4468  -31.6932 H   0  0  0  0  0  0  0  0  0  0  0  0
   -8.5643   17.8436  -33.2488 H   0  0  0  0  0  0  0  0  0  0  0  0
   -6.9593   17.0368  -33.2488 H   0  0  0  0  0  0  0  0  0  0  0  0
   -9.6068   19.3604  -32.5384 H   0  0  0  0  0  0  0  0  0  0  0  0
  -10.8012   21.4179  -31.8262 H   0  0  0  0  0  0  0  0  0  0  0  0
   -9.5315   23.4855  -31.2819 H   0  0  0  0  0  0  0  0  0  0  0  0
   -7.0558   23.5304  -31.5068 H   0  0  0  0  0  0  0  0  0  0  0  0
   -5.9351   16.5568  -34.3360 H   0  0  0  0  0  0  0  0  0  0  0  0
   -4.0091   15.3234  -35.3706 H   0  0  0  0  0  0  0  0  0  0  0  0
   -1.2377   14.2639  -34.8397 H   0  0  0  0  0  0  0  0  0  0  0  0
    0.2738   15.0873  -35.4016 H   0  0  0  0  0  0  0  0  0  0  0  0
   -1.1162   16.2365  -33.0050 H   0  0  0  0  0  0  0  0  0  0  0  0
   -0.2194   14.6217  -32.8495 H   0  0  0  0  0  0  0  0  0  0  0  0
    2.7643   15.1196  -33.0178 H   0  0  0  0  0  0  0  0  0  0  0  0
    1.7088   14.7409  -34.4210 H   0  0  0  0  0  0  0  0  0  0  0  0
    2.6996   16.2392  -34.4210 H   0  0  0  0  0  0  0  0  0  0  0  0
    1.2455   15.3028  -31.2933 H   0  0  0  0  0  0  0  0  0  0  0  0
    2.2708   16.7817  -31.5485 H   0  0  0  0  0  0  0  0  0  0  0  0
   -0.5056   16.5252  -30.4755 H   0  0  0  0  0  0  0  0  0  0  0  0
    0.8080   17.7525  -30.1498 H   0  0  0  0  0  0  0  0  0  0  0  0
    0.0014   19.5644  -33.1551 H   0  0  0  0  0  0  0  0  0  0  0  0
    1.3709   19.0894  -32.0777 H   0  0  0  0  0  0  0  0  0  0  0  0
    0.2810   17.7279  -34.5410 H   0  0  0  0  0  0  0  0  0  0  0  0
    1.9964   17.9578  -33.9604 H   0  0  0  0  0  0  0  0  0  0  0  0
   -1.3346   18.5759  -34.2832 H   0  0  0  0  0  0  0  0  0  0  0  0
  1  2  1  0
  2  3  1  0
  3  4  1  0
  4  5  1  0
  5  6  1  0
  6  7  1  0
  7  8  2  0
  8  9  1  0
  9 10  2  0
 10 11  1  0
 10 12  1  0
 12 13  2  0
 13 14  1  0
 14 15  2  0
 15 16  1  0
 16 17  2  0
  9 18  1  0
 18 19  2  0
 19 20  1  0
 20 21  2  0
 21 22  1  0
 22 23  1  0
 23 24  1  0
 24 25  1  0
 25 26  1  0
 25 27  1  0
 27 28  1  0
 28 29  1  0
 29 30  1  0
 30 31  1  0
 21 32  1  0
 32 33  2  0
 33 34  1  0
 34 35  2  0
 17  7  1  0
 33 18  1  0
 34  8  1  0
 17 12  1  0
 31 25  1  0
  1 36  1  0
  1 37  1  0
  1 38  1  0
  2 39  1  0
  2 40  1  0
  3 41  1  0
  4 42  1  0
  4 43  1  0
  5 44  1  0
  5 45  1  0
  6 46  1  0
 11 47  1  0
 11 48  1  0
 11 49  1  0
 13 50  1  0
 14 51  1  0
 15 52  1  0
 16 53  1  0
 19 54  1  0
 20 55  1  0
 23 56  1  0
 23 57  1  0
 24 58  1  0
 24 59  1  0
 26 60  1  0
 26 61  1  0
 26 62  1  0
 27 63  1  0
 27 64  1  0
 28 65  1  0
 28 66  1  0
 30 67  1  0
 30 68  1  0
 31 69  1  0
 31 70  1  0
 32 71  1  0
M  CHG  2  10   1  25   1
M  END
>  <UniqueID>  (22) 
22

>  <SMILES>  (22) 
CCNCCNc1c2c([n+](C)c3ccccc13)-c1ccc(OCC[N+]3(C)CCOCC3)cc1C2=O

>  <Energy>  (22) 
148.18538431715692

>  <Genealogy>  (22) 
CCNCCNc1c2c([n+](C)c3ccccc13)-c1ccc(OCC[N+]3(C)CCOCC3)cc1C2=O (3D coordinates assigned)
CCNCCNc1c2c([n+](C)c3ccccc13)-c1ccc(OCC[N+]3(C)CCOCC3)cc1C2=O (nonaromatic ring conformer: 148.18538431715692 kcal/mol)

>  <smiles>  (22) 
CCNCCNc1c2c([n+](C)c3ccccc13)-c1ccc(OCC[N+]3(C)CCOCC3)cc1C2=O

>  <score_type>  (22) 
oracle

>  <origin>  (22) 
adg

>  <m_score__min__energy>  (22) 
-9.1600000000000001

>  <m_primary>  (22) 
energy

$$$$
22:0
     RDKit          3D

 35 36  0  0  0  0  0  0  0  0999 V2000
   -9.2900   20.4070  -32.3020 C   0  0  0  0  0  0  0  0  0  0  0  0
   -7.9550   20.9940  -32.1470 N   0  0  0  0  0  0  0  0  0  0  0  0
   -6.8320   20.1810  -31.6560 C   0  0  0  0  0  0  0  0  0  0  0  0
   -6.4810   19.0780  -32.6230 C   0  0  0  0  0  0  0  0  0  0  0  0
   -6.0170   19.3810  -33.9140 C   0  0  0  0  0  0  0  0  0  0  0  0
   -5.7120   18.3560  -34.8150 C   0  0  0  0  0  0  0  0  0  0  0  0
   -5.8610   17.0200  -34.4330 C   0  0  0  0  0  0  0  0  0  0  0  0
   -6.3110   16.7080  -33.1480 C   0  0  0  0  0  0  0  0  0  0  0  0
   -6.6180   17.7300  -32.2450 C   0  0  0  0  0  0  0  0  0  0  0  0
   -7.7990   22.4180  -32.2870 C   0  0  0  0  0  0  0  0  0  0  0  0
   -9.0970   23.4040  -32.0800 S   0  0  0  0  0  0  0  0  0  0  0  0
   -6.5440   22.9710  -32.7230 N   0  0  0  0  0  0  0  0  0  0  0  0
   -5.8190   23.4930  -31.5870 C   0  0  0  0  0  0  0  0  0  0  0  0
   -6.4140   24.4880  -30.7860 C   0  0  0  0  0  0  0  0  0  0  0  0
   -5.7500   24.9930  -29.6670 C   0  0  0  0  0  0  0  0  0  0  0  0
   -4.4850   24.5140  -29.3290 C   0  0  0  0  0  0  0  0  0  0  0  0
   -3.8810   23.5260  -30.1080 C   0  0  0  0  0  0  0  0  0  0  0  0
   -4.5350   23.0090  -31.2340 C   0  0  0  0  0  0  0  0  0  0  0  0
   -3.6190   21.6580  -32.2440 Br  0  0  0  0  0  0  0  0  0  0  0  0
   -9.7241   20.2161  -31.3095 H   0  0  0  0  0  0  0  0  0  0  0  0
   -9.9351   21.1045  -32.8564 H   0  0  0  0  0  0  0  0  0  0  0  0
   -9.2121   19.4601  -32.8564 H   0  0  0  0  0  0  0  0  0  0  0  0
   -5.9541   20.8297  -31.5204 H   0  0  0  0  0  0  0  0  0  0  0  0
   -7.1312   19.7208  -30.7028 H   0  0  0  0  0  0  0  0  0  0  0  0
   -5.8929   20.4309  -34.2179 H   0  0  0  0  0  0  0  0  0  0  0  0
   -5.3543   18.6016  -35.8258 H   0  0  0  0  0  0  0  0  0  0  0  0
   -5.6241   16.2146  -35.1438 H   0  0  0  0  0  0  0  0  0  0  0  0
   -6.4240   15.6563  -32.8461 H   0  0  0  0  0  0  0  0  0  0  0  0
   -6.9687   17.4787  -31.2331 H   0  0  0  0  0  0  0  0  0  0  0  0
   -6.7180   23.7420  -33.4050 H   0  0  0  0  0  0  0  0  0  0  0  0
   -5.9930   22.2480  -33.2370 H   0  0  0  0  0  0  0  0  0  0  0  0
   -7.4121   24.8707  -31.0453 H   0  0  0  0  0  0  0  0  0  0  0  0
   -6.2255   25.7702  -29.0507 H   0  0  0  0  0  0  0  0  0  0  0  0
   -3.9627   24.9150  -28.4479 H   0  0  0  0  0  0  0  0  0  0  0  0
   -2.8836   23.1503  -29.8358 H   0  0  0  0  0  0  0  0  0  0  0  0
  1  2  1  0
  2  3  1  0
  3  4  1  0
  4  5  2  0
  5  6  1  0
  6  7  2  0
  7  8  1  0
  8  9  2  0
  2 10  1  0
 10 11  2  0
 10 12  1  0
 12 13  1  0
 13 14  2  0
 14 15  1  0
 15 16  2  0
 16 17  1  0
 17 18  2  0
 18 19  1  0
  9  4  1  0
 18 13  1  0
  1 20  1  0
  1 21  1  0
  1 22  1  0
  3 23  1  0
  3 24  1  0
  5 25  1  0
  6 26  1  0
  7 27  1  0
  8 28  1  0
  9 29  1  0
 12 30  1  0
 12 31  1  0
 14 32  1  0
 15 33  1  0
 16 34  1  0
 17 35  1  0
M  CHG  1  12   1
M  END
>  <UniqueID>  (23) 
23

>  <SMILES>  (23) 
CN(Cc1ccccc1)C(=S)[NH2+]c1ccccc1Br

>  <Energy>  (23) 
40.34476406639536

>  <Genealogy>  (23) 
CN(Cc1ccccc1)C(=S)[NH2+]c1ccccc1Br (protonated)
CN(Cc1ccccc1)C(=S)[NH2+]c1ccccc1Br (3D coordinates assigned)
CN(Cc1ccccc1)C(=S)[NH2+]c1ccccc1Br (optimized conformer: 40.34476406639536 kcal/mol)

>  <smiles>  (23) 
CN(Cc1ccccc1)C(=S)Nc1ccccc1Br

>  <score_type>  (23) 
oracle

>  <origin>  (23) 
adg

>  <m_score__min__energy>  (23) 
-7.2400000000000002

>  <m_primary>  (23) 
energy

$$$$
23:0
     RDKit          3D

 76 79  0  0  0  0  0  0  0  0999 V2000
   -1.4490   17.7660  -33.0130 C   0  0  0  0  0  0  0  0  0  0  0  0
   -1.2740   18.7190  -34.1910 C   0  0  0  0  0  0  0  0  0  0  0  0
   -1.8020   20.0620  -33.8560 N   0  0  0  0  0  0  0  0  0  0  0  0
   -0.8560   21.1130  -34.2760 C   0  0  0  0  0  0  0  0  0  0  0  0
   -2.0790   20.1880  -32.4050 C   0  0  0  0  0  0  0  0  0  0  0  0
   -2.3450   21.6550  -32.0170 C   0  0  0  0  0  0  0  0  0  0  0  0
   -3.8160   22.0820  -32.1820 C   0  0  0  0  0  0  0  0  0  0  0  0
   -4.4740   21.5500  -33.4050 N   0  0  0  0  0  0  0  0  0  0  0  0
   -5.6800   20.7790  -33.1090 C   0  0  0  0  0  0  0  0  0  0  0  0
   -5.6770   19.3840  -33.4460 C   0  0  0  0  0  0  0  0  0  0  0  0
   -4.6090   18.7880  -34.1740 C   0  0  0  0  0  0  0  0  0  0  0  0
   -4.6190   17.4360  -34.5010 C   0  0  0  0  0  0  0  0  0  0  0  0
   -5.6880   16.6370  -34.1250 C   0  0  0  0  0  0  0  0  0  0  0  0
   -6.7480   17.1860  -33.4150 C   0  0  0  0  0  0  0  0  0  0  0  0
   -6.7560   18.5570  -33.0440 C   0  0  0  0  0  0  0  0  0  0  0  0
   -7.7930   19.0850  -32.3230 N   0  0  0  0  0  0  0  0  0  0  0  0
   -8.7150   18.1870  -31.5930 C   0  0  0  0  0  0  0  0  0  0  0  0
   -7.9790   20.4490  -32.2800 C   0  0  0  0  0  0  0  0  0  0  0  0
   -9.2610   20.9620  -31.9720 C   0  0  0  0  0  0  0  0  0  0  0  0
   -9.4890   22.3160  -31.8540 C   0  0  0  0  0  0  0  0  0  0  0  0
   -8.4480   23.2030  -32.0130 C   0  0  0  0  0  0  0  0  0  0  0  0
   -7.1590   22.7680  -32.3620 C   0  0  0  0  0  0  0  0  0  0  0  0
   -6.1360   23.7760  -32.3610 N   0  0  0  0  0  0  0  0  0  0  0  0
   -5.7590   24.5850  -31.1950 C   0  0  0  0  0  0  0  0  0  0  0  0
   -5.7670   23.7850  -29.8830 C   0  0  0  0  0  0  0  0  0  0  0  0
   -4.6300   24.1960  -28.9340 C   0  0  0  0  0  0  0  0  0  0  0  0
   -3.4460   23.3320  -29.1400 N   0  0  0  0  0  0  0  0  0  0  0  0
   -2.1960   24.0670  -28.8420 C   0  0  0  0  0  0  0  0  0  0  0  0
   -0.9750   23.2000  -29.1710 C   0  0  0  0  0  0  0  0  0  0  0  0
   -1.0180   21.8910  -28.3780 C   0  0  0  0  0  0  0  0  0  0  0  0
   -2.3600   21.1770  -28.5830 C   0  0  0  0  0  0  0  0  0  0  0  0
   -3.5330   22.1240  -28.2910 C   0  0  0  0  0  0  0  0  0  0  0  0
   -6.9000   21.3550  -32.5750 C   0  0  0  0  0  0  0  0  0  0  0  0
   -1.3464   18.3247  -32.0710 H   0  0  0  0  0  0  0  0  0  0  0  0
   -2.4468   17.3052  -33.0592 H   0  0  0  0  0  0  0  0  0  0  0  0
   -0.6800   16.9808  -33.0592 H   0  0  0  0  0  0  0  0  0  0  0  0
   -0.2044   18.8011  -34.4342 H   0  0  0  0  0  0  0  0  0  0  0  0
   -1.8303   18.3235  -35.0537 H   0  0  0  0  0  0  0  0  0  0  0  0
   -0.4233   21.5937  -33.3862 H   0  0  0  0  0  0  0  0  0  0  0  0
   -0.0521   20.6636  -34.8775 H   0  0  0  0  0  0  0  0  0  0  0  0
   -1.3872   21.8654  -34.8775 H   0  0  0  0  0  0  0  0  0  0  0  0
   -2.9634   19.5839  -32.1542 H   0  0  0  0  0  0  0  0  0  0  0  0
   -1.1986   19.8334  -31.8489 H   0  0  0  0  0  0  0  0  0  0  0  0
   -2.0593   21.7930  -30.9637 H   0  0  0  0  0  0  0  0  0  0  0  0
   -1.7501   22.2808  -32.6985 H   0  0  0  0  0  0  0  0  0  0  0  0
   -4.3783   21.7266  -31.3059 H   0  0  0  0  0  0  0  0  0  0  0  0
   -3.8174   23.1781  -32.2749 H   0  0  0  0  0  0  0  0  0  0  0  0
   -4.5820   22.2830  -34.1180 H   0  0  0  0  0  0  0  0  0  0  0  0
   -3.8040   20.9200  -33.8990 H   0  0  0  0  0  0  0  0  0  0  0  0
   -3.7569   19.4103  -34.4849 H   0  0  0  0  0  0  0  0  0  0  0  0
   -3.7773   16.9999  -35.0589 H   0  0  0  0  0  0  0  0  0  0  0  0
   -5.6966   15.5691  -34.3888 H   0  0  0  0  0  0  0  0  0  0  0  0
   -7.5979   16.5465  -33.1345 H   0  0  0  0  0  0  0  0  0  0  0  0
   -8.5769   18.3215  -30.5100 H   0  0  0  0  0  0  0  0  0  0  0  0
   -9.7534   18.4294  -31.8631 H   0  0  0  0  0  0  0  0  0  0  0  0
   -8.5001   17.1426  -31.8631 H   0  0  0  0  0  0  0  0  0  0  0  0
  -10.0968   20.2625  -31.8230 H   0  0  0  0  0  0  0  0  0  0  0  0
  -10.5006   22.6873  -31.6332 H   0  0  0  0  0  0  0  0  0  0  0  0
   -8.6301   24.2774  -31.8632 H   0  0  0  0  0  0  0  0  0  0  0  0
   -5.4030   23.6820  -33.0940 H   0  0  0  0  0  0  0  0  0  0  0  0
   -4.7465   24.9832  -31.3569 H   0  0  0  0  0  0  0  0  0  0  0  0
   -6.5043   25.3880  -31.0960 H   0  0  0  0  0  0  0  0  0  0  0  0
   -6.7281   23.9516  -29.3745 H   0  0  0  0  0  0  0  0  0  0  0  0
   -5.6217   22.7249  -30.1380 H   0  0  0  0  0  0  0  0  0  0  0  0
   -4.3537   25.2422  -29.1317 H   0  0  0  0  0  0  0  0  0  0  0  0
   -4.9754   24.0851  -27.8955 H   0  0  0  0  0  0  0  0  0  0  0  0
   -2.1623   24.9851  -29.4470 H   0  0  0  0  0  0  0  0  0  0  0  0
   -2.1767   24.3190  -27.7714 H   0  0  0  0  0  0  0  0  0  0  0  0
   -0.9725   22.9716  -30.2470 H   0  0  0  0  0  0  0  0  0  0  0  0
   -0.0631   23.7514  -28.8985 H   0  0  0  0  0  0  0  0  0  0  0  0
   -0.2039   21.2349  -28.7197 H   0  0  0  0  0  0  0  0  0  0  0  0
   -0.8994   22.1210  -27.3089 H   0  0  0  0  0  0  0  0  0  0  0  0
   -2.4280   20.8295  -29.6244 H   0  0  0  0  0  0  0  0  0  0  0  0
   -2.4148   20.3245  -27.8900 H   0  0  0  0  0  0  0  0  0  0  0  0
   -4.4793   21.6030  -28.4983 H   0  0  0  0  0  0  0  0  0  0  0  0
   -3.4913   22.4274  -27.2345 H   0  0  0  0  0  0  0  0  0  0  0  0
  1  2  1  0
  2  3  1  0
  3  4  1  0
  3  5  1  0
  5  6  1  0
  6  7  1  0
  7  8  1  0
  8  9  1  0
  9 10  2  0
 10 11  1  0
 11 12  2  0
 12 13  1  0
 13 14  2  0
 14 15  1  0
 15 16  2  0
 16 17  1  0
 16 18  1  0
 18 19  2  0
 19 20  1  0
 20 21  2  0
 21 22  1  0
 22 23  1  0
 23 24  1  0
 24 25  1  0
 25 26  1  0
 26 27  1  0
 27 28  1  0
 28 29  1  0
 29 30  1  0
 30 31  1  0
 31 32  1  0
 22 33  2  0
 33  9  1  0
 15 10  1  0
 33 18  1  0
 32 27  1  0
  1 34  1  0
  1 35  1  0
  1 36  1  0
  2 37  1  0
  2 38  1  0
  4 39  1  0
  4 40  1  0
  4 41  1  0
  5 42  1  0
  5 43  1  0
  6 44  1  0
  6 45  1  0
  7 46  1  0
  7 47  1  0
  8 48  1  0
  8 49  1  0
 11 50  1  0
 12 51  1  0
 13 52  1  0
 14 53  1  0
 17 54  1  0
 17 55  1  0
 17 56  1  0
 19 57  1  0
 20 58  1  0
 21 59  1  0
 23 60  1  0
 24 61  1  0
 24 62  1  0
 25 63  1  0
 25 64  1  0
 26 65  1  0
 26 66  1  0
 28 67  1  0
 28 68  1  0
 29 69  1  0
 29 70  1  0
 30 71  1  0
 30 72  1  0
 31 73  1  0
 31 74  1  0
 32 75  1  0
 32 76  1  0
M  CHG  2   8   1  16   1
M  END
>  <UniqueID>  (24) 
24

>  <SMILES>  (24) 
CCN(C)CCC[NH2+]c1c2ccccc2[n+](C)c2cccc(NCCCN3CCCCC3)c12

>  <Energy>  (24) 
120.91868380424901

>  <Genealogy>  (24) 
CCN(C)CCC[NH2+]c1c2ccccc2[n+](C)c2cccc(NCCCN3CCCCC3)c12 (protonated)
CCN(C)CCC[NH2+]c1c2ccccc2[n+](C)c2cccc(NCCCN3CCCCC3)c12 (3D coordinates assigned)
CCN(C)CCC[NH2+]c1c2ccccc2[n+](C)c2cccc(NCCCN3CCCCC3)c12 (nonaromatic ring conformer: 120.91868380424901 kcal/mol)

>  <smiles>  (24) 
CCN(C)CCCNc1c2ccccc2[n+](C)c2cccc(NCCCN3CCCCC3)c12

>  <score_type>  (24) 
oracle

>  <origin>  (24) 
adg

>  <m_score__min__energy>  (24) 
-9.4900000000000002

>  <m_primary>  (24) 
energy

$$$$
24:0
     RDKit          3D

 11 10  0  0  0  0  0  0  0  0999 V2000
   -0.8750   26.4610  -24.0220 C   0  0  0  0  0  0  0  0  0  0  0  0
    0.4190   27.2530  -23.8440 C   0  0  0  0  0  0  0  0  0  0  0  0
    0.6600   27.5570  -22.4330 N   0  0  0  0  0  0  0  0  0  0  0  0
   -1.2887   26.2078  -23.0347 H   0  0  0  0  0  0  0  0  0  0  0  0
   -1.6029   27.0685  -24.5797 H   0  0  0  0  0  0  0  0  0  0  0  0
   -0.6652   25.5364  -24.5797 H   0  0  0  0  0  0  0  0  0  0  0  0
    1.2598   26.6597  -24.2325 H   0  0  0  0  0  0  0  0  0  0  0  0
    0.3276   28.2006  -24.3952 H   0  0  0  0  0  0  0  0  0  0  0  0
    1.6850   27.5350  -22.2310 H   0  0  0  0  0  0  0  0  0  0  0  0
    0.2730   28.5000  -22.1990 H   0  0  0  0  0  0  0  0  0  0  0  0
    0.1830   26.8390  -21.8430 H   0  0  0  0  0  0  0  0  0  0  0  0
  1  2  1  0
  2  3  1  0
  1  4  1  0
  1  5  1  0
  1  6  1  0
  2  7  1  0
  2  8  1  0
  3  9  1  0
  3 10  1  0
  3 11  1  0
M  CHG  1   3   1
M  END
>  <UniqueID>  (25) 
25

>  <SMILES>  (25) 
CC[NH3+]

>  <Energy>  (25) 
2.527433422819101

>  <Genealogy>  (25) 
CC[NH3+] (protonated)
CC[NH3+] (3D coordinates assigned)
CC[NH3+] (optimized conformer: 2.527433422819101 kcal/mol)

>  <smiles>  (25) 
CCN

>  <score_type>  (25) 
oracle

>  <origin>  (25) 
adg

>  <m_score__min__energy>  (25) 
-2.96

>  <m_primary>  (25) 
energy

$$$$
25:0
     RDKit          3D

 60 62  0  0  0  0  0  0  0  0999 V2000
   -6.3070   25.3550  -29.5450 C   0  0  0  0  0  0  0  0  0  0  0  0
   -5.3930   25.5910  -30.7440 C   0  0  0  0  0  0  0  0  0  0  0  0
   -4.3980   24.5150  -30.8350 N   0  0  0  0  0  0  0  0  0  0  0  0
   -4.0620   23.9860  -29.5040 C   0  0  0  0  0  0  0  0  0  0  0  0
   -2.9990   22.8840  -29.6210 C   0  0  0  0  0  0  0  0  0  0  0  0
   -3.5590   21.5740  -30.1820 C   0  0  0  0  0  0  0  0  0  0  0  0
   -4.1900   21.7680  -31.4880 N   0  0  0  0  0  0  0  0  0  0  0  0
   -5.2590   20.9130  -31.9250 C   0  0  0  0  0  0  0  0  0  0  0  0
   -6.5820   21.3970  -31.9080 C   0  0  0  0  0  0  0  0  0  0  0  0
   -6.8580   22.7650  -31.6800 C   0  0  0  0  0  0  0  0  0  0  0  0
   -8.1670   23.2430  -31.6890 C   0  0  0  0  0  0  0  0  0  0  0  0
   -9.2210   22.3740  -31.9380 C   0  0  0  0  0  0  0  0  0  0  0  0
   -8.9770   21.0170  -32.1560 C   0  0  0  0  0  0  0  0  0  0  0  0
   -7.6570   20.4970  -32.1180 C   0  0  0  0  0  0  0  0  0  0  0  0
   -7.4040   19.1510  -32.2860 N   0  0  0  0  0  0  0  0  0  0  0  0
   -8.5080   18.1730  -32.1600 C   0  0  0  0  0  0  0  0  0  0  0  0
   -6.1220   18.7210  -32.5690 C   0  0  0  0  0  0  0  0  0  0  0  0
   -5.8920   17.4230  -33.0840 C   0  0  0  0  0  0  0  0  0  0  0  0
   -4.6120   16.9870  -33.3960 C   0  0  0  0  0  0  0  0  0  0  0  0
   -3.5270   17.8250  -33.2130 C   0  0  0  0  0  0  0  0  0  0  0  0
   -3.6930   19.1180  -32.6960 C   0  0  0  0  0  0  0  0  0  0  0  0
   -2.5250   19.9670  -32.6520 N   0  0  0  0  0  0  0  0  0  0  0  0
   -2.3020   20.8070  -33.8430 C   0  0  0  0  0  0  0  0  0  0  0  0
   -0.9490   20.5500  -34.5150 C   0  0  0  0  0  0  0  0  0  0  0  0
   -1.3670   19.6410  -31.7860 C   0  0  0  0  0  0  0  0  0  0  0  0
   -0.5740   20.8540  -31.2840 C   0  0  0  0  0  0  0  0  0  0  0  0
   -5.0060   19.5940  -32.3810 C   0  0  0  0  0  0  0  0  0  0  0  0
   -5.7376   25.5020  -28.6154 H   0  0  0  0  0  0  0  0  0  0  0  0
   -7.1456   26.0661  -29.5777 H   0  0  0  0  0  0  0  0  0  0  0  0
   -6.6966   24.3268  -29.5777 H   0  0  0  0  0  0  0  0  0  0  0  0
   -5.9958   25.6088  -31.6639 H   0  0  0  0  0  0  0  0  0  0  0  0
   -4.8747   26.5532  -30.6197 H   0  0  0  0  0  0  0  0  0  0  0  0
   -3.5250   24.9270  -31.2410 H   0  0  0  0  0  0  0  0  0  0  0  0
   -3.6718   24.8015  -28.8774 H   0  0  0  0  0  0  0  0  0  0  0  0
   -4.9688   23.5614  -29.0485 H   0  0  0  0  0  0  0  0  0  0  0  0
   -2.1986   23.2376  -30.2875 H   0  0  0  0  0  0  0  0  0  0  0  0
   -2.6254   22.6764  -28.6074 H   0  0  0  0  0  0  0  0  0  0  0  0
   -2.7364   20.8515  -30.2878 H   0  0  0  0  0  0  0  0  0  0  0  0
   -4.3241   21.2026  -29.4843 H   0  0  0  0  0  0  0  0  0  0  0  0
   -4.0760   22.6900  -31.9580 H   0  0  0  0  0  0  0  0  0  0  0  0
   -6.0276   23.4618  -31.4929 H   0  0  0  0  0  0  0  0  0  0  0  0
   -8.3652   24.3082  -31.4989 H   0  0  0  0  0  0  0  0  0  0  0  0
  -10.2521   22.7564  -31.9636 H   0  0  0  0  0  0  0  0  0  0  0  0
   -9.8202   20.3407  -32.3602 H   0  0  0  0  0  0  0  0  0  0  0  0
   -8.7154   17.9893  -31.0955 H   0  0  0  0  0  0  0  0  0  0  0  0
   -9.4101   18.5738  -32.6455 H   0  0  0  0  0  0  0  0  0  0  0  0
   -8.2189   17.2292  -32.6455 H   0  0  0  0  0  0  0  0  0  0  0  0
   -6.7449   16.7461  -33.2401 H   0  0  0  0  0  0  0  0  0  0  0  0
   -4.4598   15.9714  -33.7902 H   0  0  0  0  0  0  0  0  0  0  0  0
   -2.5191   17.4721  -33.4768 H   0  0  0  0  0  0  0  0  0  0  0  0
   -3.0997   20.6002  -34.5716 H   0  0  0  0  0  0  0  0  0  0  0  0
   -2.3094   21.8556  -33.5109 H   0  0  0  0  0  0  0  0  0  0  0  0
   -0.1785   20.4036  -33.7437 H   0  0  0  0  0  0  0  0  0  0  0  0
   -1.0163   19.6486  -35.1418 H   0  0  0  0  0  0  0  0  0  0  0  0
   -0.6811   21.4133  -35.1418 H   0  0  0  0  0  0  0  0  0  0  0  0
   -1.7399   19.0902  -30.9099 H   0  0  0  0  0  0  0  0  0  0  0  0
   -0.6734   19.0544  -32.4064 H   0  0  0  0  0  0  0  0  0  0  0  0
   -0.5702   20.8599  -30.1840 H   0  0  0  0  0  0  0  0  0  0  0  0
    0.4602   20.7946  -31.6540 H   0  0  0  0  0  0  0  0  0  0  0  0
   -1.0433   21.7775  -31.6540 H   0  0  0  0  0  0  0  0  0  0  0  0
  1  2  1  0
  2  3  1  0
  3  4  1  0
  4  5  1  0
  5  6  1  0
  6  7  1  0
  7  8  1  0
  8  9  2  0
  9 10  1  0
 10 11  2  0
 11 12  1  0
 12 13  2  0
 13 14  1  0
 14 15  2  0
 15 16  1  0
 15 17  1  0
 17 18  2  0
 18 19  1  0
 19 20  2  0
 20 21  1  0
 21 22  1  0
 22 23  1  0
 23 24  1  0
 22 25  1  0
 25 26  1  0
 21 27  2  0
 27  8  1  0
 14  9  1  0
 27 17  1  0
  1 28  1  0
  1 29  1  0
  1 30  1  0
  2 31  1  0
  2 32  1  0
  3 33  1  0
  4 34  1  0
  4 35  1  0
  5 36  1  0
  5 37  1  0
  6 38  1  0
  6 39  1  0
  7 40  1  0
 10 41  1  0
 11 42  1  0
 12 43  1  0
 13 44  1  0
 16 45  1  0
 16 46  1  0
 16 47  1  0
 18 48  1  0
 19 49  1  0
 20 50  1  0
 23 51  1  0
 23 52  1  0
 24 53  1  0
 24 54  1  0
 24 55  1  0
 25 56  1  0
 25 57  1  0
 26 58  1  0
 26 59  1  0
 26 60  1  0
M  CHG  1  15   1
M  END
>  <UniqueID>  (26) 
26

>  <SMILES>  (26) 
CCNCCCNc1c2ccccc2[n+](C)c2cccc(N(CC)CC)c12

>  <Energy>  (26) 
90.66987030301468

>  <Genealogy>  (26) 
CCNCCCNc1c2ccccc2[n+](C)c2cccc(N(CC)CC)c12 (3D coordinates assigned)
CCNCCCNc1c2ccccc2[n+](C)c2cccc(N(CC)CC)c12 (optimized conformer: 90.66987030301468 kcal/mol)

>  <smiles>  (26) 
CCNCCCNc1c2ccccc2[n+](C)c2cccc(N(CC)CC)c12

>  <score_type>  (26) 
oracle

>  <origin>  (26) 
adg

>  <m_score__min__energy>  (26) 
-8.0899999999999999

>  <m_primary>  (26) 
energy

$$$$
26:0
     RDKit          3D

 60 62  0  0  0  0  0  0  0  0999 V2000
    0.3160   21.4720  -36.4220 C   0  0  0  0  0  0  0  0  0  0  0  0
    0.7360   22.3010  -35.2820 N   0  0  0  0  0  0  0  0  0  0  0  0
    1.7760   23.2650  -35.6790 C   0  0  0  0  0  0  0  0  0  0  0  0
    1.1150   21.5050  -34.0940 C   0  0  0  0  0  0  0  0  0  0  0  0
   -0.0760   21.0500  -33.2250 C   0  0  0  0  0  0  0  0  0  0  0  0
   -1.3410   21.3710  -33.8880 N   0  0  0  0  0  0  0  0  0  0  0  0
   -2.5780   20.6590  -33.6840 C   0  0  0  0  0  0  0  0  0  0  0  0
   -2.6780   19.2730  -33.8700 C   0  0  0  0  0  0  0  0  0  0  0  0
   -3.8860   18.6100  -33.6550 C   0  0  0  0  0  0  0  0  0  0  0  0
   -5.0460   19.3140  -33.2550 C   0  0  0  0  0  0  0  0  0  0  0  0
   -4.9510   20.7290  -33.0920 C   0  0  0  0  0  0  0  0  0  0  0  0
   -3.7170   21.3760  -33.2960 C   0  0  0  0  0  0  0  0  0  0  0  0
   -6.0950   21.4560  -32.7060 C   0  0  0  0  0  0  0  0  0  0  0  0
   -6.0760   22.8820  -32.5700 N   0  0  0  0  0  0  0  0  0  0  0  0
   -6.2090   23.4980  -31.2510 C   0  0  0  0  0  0  0  0  0  0  0  0
   -5.4160   24.8070  -31.1790 C   0  0  0  0  0  0  0  0  0  0  0  0
   -4.1700   24.6230  -30.4020 N   0  0  0  0  0  0  0  0  0  0  0  0
   -4.4550   24.5240  -28.9590 C   0  0  0  0  0  0  0  0  0  0  0  0
   -3.4710   23.4060  -30.8440 C   0  0  0  0  0  0  0  0  0  0  0  0
   -7.2720   20.7580  -32.4580 C   0  0  0  0  0  0  0  0  0  0  0  0
   -7.3350   19.3990  -32.6170 C   0  0  0  0  0  0  0  0  0  0  0  0
   -6.2480   18.6640  -33.0220 N   0  0  0  0  0  0  0  0  0  0  0  0
   -6.3630   17.2030  -33.1940 C   0  0  0  0  0  0  0  0  0  0  0  0
   -8.7030   18.8860  -32.3190 C   0  0  0  0  0  0  0  0  0  0  0  0
   -9.5060   20.1320  -31.9120 C   0  0  0  0  0  0  0  0  0  0  0  0
   -8.5710   21.3430  -32.0450 C   0  0  0  0  0  0  0  0  0  0  0  0
   -0.1520   20.5483  -36.0509 H   0  0  0  0  0  0  0  0  0  0  0  0
   -0.4082   22.0298  -37.0338 H   0  0  0  0  0  0  0  0  0  0  0  0
    1.1941   21.2180  -37.0338 H   0  0  0  0  0  0  0  0  0  0  0  0
    2.2400   23.6951  -34.7792 H   0  0  0  0  0  0  0  0  0  0  0  0
    2.5430   22.7513  -36.2772 H   0  0  0  0  0  0  0  0  0  0  0  0
    1.3219   24.0687  -36.2772 H   0  0  0  0  0  0  0  0  0  0  0  0
    1.6524   20.6088  -34.4376 H   0  0  0  0  0  0  0  0  0  0  0  0
    1.7329   22.1595  -33.4617 H   0  0  0  0  0  0  0  0  0  0  0  0
   -0.0151   19.9632  -33.0664 H   0  0  0  0  0  0  0  0  0  0  0  0
   -0.0351   21.5749  -32.2592 H   0  0  0  0  0  0  0  0  0  0  0  0
   -1.3280   22.1620  -34.5730 H   0  0  0  0  0  0  0  0  0  0  0  0
   -1.7936   18.7020  -34.1891 H   0  0  0  0  0  0  0  0  0  0  0  0
   -3.9377   17.5207  -33.7990 H   0  0  0  0  0  0  0  0  0  0  0  0
   -3.6463   22.4637  -33.1480 H   0  0  0  0  0  0  0  0  0  0  0  0
   -5.7330   23.4470  -33.3800 H   0  0  0  0  0  0  0  0  0  0  0  0
   -7.2710   23.7087  -31.0569 H   0  0  0  0  0  0  0  0  0  0  0  0
   -5.8120   22.8035  -30.4960 H   0  0  0  0  0  0  0  0  0  0  0  0
   -5.1609   25.1309  -32.1988 H   0  0  0  0  0  0  0  0  0  0  0  0
   -6.0344   25.5675  -30.6799 H   0  0  0  0  0  0  0  0  0  0  0  0
   -3.5670   24.8325  -28.3879 H   0  0  0  0  0  0  0  0  0  0  0  0
   -5.3001   25.1812  -28.7062 H   0  0  0  0  0  0  0  0  0  0  0  0
   -4.7106   23.4844  -28.7062 H   0  0  0  0  0  0  0  0  0  0  0  0
   -3.1417   22.8326  -29.9649 H   0  0  0  0  0  0  0  0  0  0  0  0
   -4.1532   22.7905  -31.4487 H   0  0  0  0  0  0  0  0  0  0  0  0
   -2.5956   23.6851  -31.4487 H   0  0  0  0  0  0  0  0  0  0  0  0
   -6.4011   16.7194  -32.2067 H   0  0  0  0  0  0  0  0  0  0  0  0
   -7.2822   16.9707  -33.7518 H   0  0  0  0  0  0  0  0  0  0  0  0
   -5.4915   16.8297  -33.7518 H   0  0  0  0  0  0  0  0  0  0  0  0
   -9.1433   18.4146  -33.2100 H   0  0  0  0  0  0  0  0  0  0  0  0
   -8.6975   18.1183  -31.5312 H   0  0  0  0  0  0  0  0  0  0  0  0
  -10.3749   20.2529  -32.5756 H   0  0  0  0  0  0  0  0  0  0  0  0
   -9.8749   20.0370  -30.8801 H   0  0  0  0  0  0  0  0  0  0  0  0
   -8.9442   22.0417  -32.8082 H   0  0  0  0  0  0  0  0  0  0  0  0
   -8.4948   21.9202  -31.1117 H   0  0  0  0  0  0  0  0  0  0  0  0
  1  2  1  0
  2  3  1  0
  2  4  1  0
  4  5  1  0
  5  6  1  0
  6  7  1  0
  7  8  2  0
  8  9  1  0
  9 10  2  0
 10 11  1  0
 11 12  2  0
 11 13  1  0
 13 14  1  0
 14 15  1  0
 15 16  1  0
 16 17  1  0
 17 18  1  0
 17 19  1  0
 13 20  2  0
 20 21  1  0
 21 22  2  0
 22 23  1  0
 21 24  1  0
 24 25  1  0
 25 26  1  0
 12  7  1  0
 26 20  1  0
 22 10  1  0
  1 27  1  0
  1 28  1  0
  1 29  1  0
  3 30  1  0
  3 31  1  0
  3 32  1  0
  4 33  1  0
  4 34  1  0
  5 35  1  0
  5 36  1  0
  6 37  1  0
  8 38  1  0
  9 39  1  0
 12 40  1  0
 14 41  1  0
 15 42  1  0
 15 43  1  0
 16 44  1  0
 16 45  1  0
 18 46  1  0
 18 47  1  0
 18 48  1  0
 19 49  1  0
 19 50  1  0
 19 51  1  0
 23 52  1  0
 23 53  1  0
 23 54  1  0
 24 55  1  0
 24 56  1  0
 25 57  1  0
 25 58  1  0
 26 59  1  0
 26 60  1  0
M  CHG  1  22   1
M  END
>  <UniqueID>  (27) 
27

>  <SMILES>  (27) 
CN(C)CCNc1ccc2c(c1)c(NCCN(C)C)c1c([n+]2C)CCC1

>  <Energy>  (27) 
81.87638535728608

>  <Genealogy>  (27) 
CN(C)CCNc1ccc2c(c1)c(NCCN(C)C)c1c([n+]2C)CCC1 (3D coordinates assigned)
CN(C)CCNc1ccc2c(c1)c(NCCN(C)C)c1c([n+]2C)CCC1 (nonaromatic ring conformer: 81.87638535728608 kcal/mol)

>  <smiles>  (27) 
CN(C)CCNc1ccc2c(c1)c(NCCN(C)C)c1c([n+]2C)CCC1

>  <score_type>  (27) 
oracle

>  <origin>  (27) 
adg

>  <m_score__min__energy>  (27) 
-8.8900000000000006

>  <m_primary>  (27) 
energy

$$$$
27:0
     RDKit          3D

 57 60  0  0  0  0  0  0  0  0999 V2000
   -6.4130   25.3600  -29.8250 C   0  0  0  0  0  0  0  0  0  0  0  0
   -5.2980   25.6490  -30.8370 C   0  0  0  0  0  0  0  0  0  0  0  0
   -3.9640   25.2860  -30.3310 N   0  0  0  0  0  0  0  0  0  0  0  0
   -4.0370   24.3840  -29.1700 C   0  0  0  0  0  0  0  0  0  0  0  0
   -2.7160   23.6370  -29.0050 C   0  0  0  0  0  0  0  0  0  0  0  0
   -1.9440   23.7830  -30.1780 O   0  0  0  0  0  0  0  0  0  0  0  0
   -1.4670   22.5220  -30.5970 C   0  0  0  0  0  0  0  0  0  0  0  0
   -2.5910   21.7550  -31.3010 C   0  0  0  0  0  0  0  0  0  0  0  0
   -3.6480   22.6710  -31.9450 C   0  0  0  0  0  0  0  0  0  0  0  0
   -4.1800   22.1020  -33.1940 N   0  0  0  0  0  0  0  0  0  0  0  0
   -5.3410   21.2970  -32.9170 C   0  0  0  0  0  0  0  0  0  0  0  0
   -5.4510   19.9340  -33.0910 C   0  0  0  0  0  0  0  0  0  0  0  0
   -4.3680   18.8290  -33.6990 S   0  0  0  0  0  0  0  0  0  0  0  0
   -5.1300   17.3260  -33.8340 C   0  0  0  0  0  0  0  0  0  0  0  0
   -4.4220   16.2630  -34.4090 C   0  0  0  0  0  0  0  0  0  0  0  0
   -5.0370   15.0280  -34.5920 C   0  0  0  0  0  0  0  0  0  0  0  0
   -6.3640   14.8490  -34.2130 C   0  0  0  0  0  0  0  0  0  0  0  0
   -7.0780   15.8920  -33.6200 C   0  0  0  0  0  0  0  0  0  0  0  0
   -6.4820   17.1610  -33.3850 C   0  0  0  0  0  0  0  0  0  0  0  0
   -7.2040   18.1790  -32.7530 N   0  0  0  0  0  0  0  0  0  0  0  0
   -8.4050   17.8280  -31.9700 C   0  0  0  0  0  0  0  0  0  0  0  0
   -6.7910   19.5010  -32.7660 C   0  0  0  0  0  0  0  0  0  0  0  0
   -7.4800   20.6810  -32.4410 C   0  0  0  0  0  0  0  0  0  0  0  0
   -8.8430   20.9210  -32.2010 C   0  0  0  0  0  0  0  0  0  0  0  0
   -9.2630   22.2380  -31.9490 C   0  0  0  0  0  0  0  0  0  0  0  0
   -8.3400   23.2980  -31.9620 C   0  0  0  0  0  0  0  0  0  0  0  0
   -6.9910   23.0610  -32.2580 C   0  0  0  0  0  0  0  0  0  0  0  0
   -6.5870   21.7490  -32.5110 C   0  0  0  0  0  0  0  0  0  0  0  0
   -6.0170   25.4626  -28.8039 H   0  0  0  0  0  0  0  0  0  0  0  0
   -7.2363   26.0744  -29.9725 H   0  0  0  0  0  0  0  0  0  0  0  0
   -6.7856   24.3356  -29.9725 H   0  0  0  0  0  0  0  0  0  0  0  0
   -5.4959   25.0728  -31.7529 H   0  0  0  0  0  0  0  0  0  0  0  0
   -5.2969   26.7319  -31.0303 H   0  0  0  0  0  0  0  0  0  0  0  0
   -3.4140   24.8260  -31.0940 H   0  0  0  0  0  0  0  0  0  0  0  0
   -4.2380   24.9732  -28.2631 H   0  0  0  0  0  0  0  0  0  0  0  0
   -4.8460   23.6558  -29.3289 H   0  0  0  0  0  0  0  0  0  0  0  0
   -2.1643   24.0522  -28.1487 H   0  0  0  0  0  0  0  0  0  0  0  0
   -2.9173   22.5701  -28.8285 H   0  0  0  0  0  0  0  0  0  0  0  0
   -0.6270   22.6613  -31.2934 H   0  0  0  0  0  0  0  0  0  0  0  0
   -1.1280   21.9502  -29.7206 H   0  0  0  0  0  0  0  0  0  0  0  0
   -2.1457   21.1294  -32.0886 H   0  0  0  0  0  0  0  0  0  0  0  0
   -3.1046   21.1564  -30.5343 H   0  0  0  0  0  0  0  0  0  0  0  0
   -4.4774   22.8101  -31.2360 H   0  0  0  0  0  0  0  0  0  0  0  0
   -3.1666   23.6304  -32.1854 H   0  0  0  0  0  0  0  0  0  0  0  0
   -3.4560   21.5010  -33.6520 H   0  0  0  0  0  0  0  0  0  0  0  0
   -4.4430   22.8670  -33.8610 H   0  0  0  0  0  0  0  0  0  0  0  0
   -3.3756   16.4049  -34.7172 H   0  0  0  0  0  0  0  0  0  0  0  0
   -4.4743   14.1936  -35.0361 H   0  0  0  0  0  0  0  0  0  0  0  0
   -6.8539   13.8787  -34.3819 H   0  0  0  0  0  0  0  0  0  0  0  0
   -8.1258   15.7280  -33.3279 H   0  0  0  0  0  0  0  0  0  0  0  0
   -8.1753   17.8951  -30.8964 H   0  0  0  0  0  0  0  0  0  0  0  0
   -9.2193   18.5257  -32.2151 H   0  0  0  0  0  0  0  0  0  0  0  0
   -8.7154   16.8016  -32.2151 H   0  0  0  0  0  0  0  0  0  0  0  0
   -9.5678   20.0936  -32.2102 H   0  0  0  0  0  0  0  0  0  0  0  0
  -10.3236   22.4413  -31.7397 H   0  0  0  0  0  0  0  0  0  0  0  0
   -8.6789   24.3203  -31.7383 H   0  0  0  0  0  0  0  0  0  0  0  0
   -6.2676   23.8891  -32.2902 H   0  0  0  0  0  0  0  0  0  0  0  0
  1  2  1  0
  2  3  1  0
  3  4  1  0
  4  5  1  0
  5  6  1  0
  6  7  1  0
  7  8  1  0
  8  9  1  0
  9 10  1  0
 10 11  1  0
 11 12  2  0
 12 13  1  0
 13 14  1  0
 14 15  2  0
 15 16  1  0
 16 17  2  0
 17 18  1  0
 18 19  2  0
 19 20  1  0
 20 21  1  0
 20 22  2  0
 22 23  1  0
 23 24  2  0
 24 25  1  0
 25 26  2  0
 26 27  1  0
 27 28  2  0
 28 11  1  0
 22 12  1  0
 28 23  1  0
 19 14  1  0
  1 29  1  0
  1 30  1  0
  1 31  1  0
  2 32  1  0
  2 33  1  0
  3 34  1  0
  4 35  1  0
  4 36  1  0
  5 37  1  0
  5 38  1  0
  7 39  1  0
  7 40  1  0
  8 41  1  0
  8 42  1  0
  9 43  1  0
  9 44  1  0
 10 45  1  0
 10 46  1  0
 15 47  1  0
 16 48  1  0
 17 49  1  0
 18 50  1  0
 21 51  1  0
 21 52  1  0
 21 53  1  0
 24 54  1  0
 25 55  1  0
 26 56  1  0
 27 57  1  0
M  CHG  2  10   1  20   1
M  END
>  <UniqueID>  (28) 
28

>  <SMILES>  (28) 
CCNCCOCCC[NH2+]c1c2sc3ccccc3[n+](C)c-2c2ccccc12

>  <Energy>  (28) 
111.51612459911277

>  <Genealogy>  (28) 
CCNCCOCCC[NH2+]c1c2sc3ccccc3[n+](C)c-2c2ccccc12 (protonated)
CCNCCOCCC[NH2+]c1c2sc3ccccc3[n+](C)c-2c2ccccc12 (3D coordinates assigned)
CCNCCOCCC[NH2+]c1c2sc3ccccc3[n+](C)c-2c2ccccc12 (optimized conformer: 111.51612459911277 kcal/mol)

>  <smiles>  (28) 
CCNCCOCCCNc1c2sc3ccccc3[n+](C)c-2c2ccccc12

>  <score_type>  (28) 
oracle

>  <origin>  (28) 
adg

>  <m_score__min__energy>  (28) 
-8.7100000000000009

>  <m_primary>  (28) 
energy

$$$$
