0:0
     RDKit          3D

 42 43  0  0  0  0  0  0  0  0999 V2000
   -4.9380   24.9340  -30.4650 C   0  0  0  0  0  0  0  0  0  0  0  0
   -3.5560   25.2160  -30.4550 O   0  0  0  0  0  0  0  0  0  0  0  0
   -2.9240   24.5500  -29.3760 C   0  0  0  0  0  0  0  0  0  0  0  0
   -2.1350   23.3470  -29.8850 C   0  0  0  0  0  0  0  0  0  0  0  0
   -2.9310   22.6300  -30.8040 O   0  0  0  0  0  0  0  0  0  0  0  0
   -2.1640   21.6500  -31.4870 C   0  0  0  0  0  0  0  0  0  0  0  0
   -2.3240   21.8320  -33.0080 C   0  0  0  0  0  0  0  0  0  0  0  0
   -3.8030   21.7420  -33.4120 C   0  0  0  0  0  0  0  0  0  0  0  0
   -4.5110   20.7220  -32.6280 N   0  0  0  0  0  0  0  0  0  0  0  0
   -5.9430   20.6550  -32.6950 C   0  0  0  0  0  0  0  0  0  0  0  0
   -6.8170   21.4060  -31.9310 C   0  0  0  0  0  0  0  0  0  0  0  0
   -8.0710   20.9790  -32.3410 C   0  0  0  0  0  0  0  0  0  0  0  0
   -9.3830   21.5420  -31.8920 C   0  0  0  0  0  0  0  0  0  0  0  0
   -9.4910   22.8510  -32.3260 F   0  0  0  0  0  0  0  0  0  0  0  0
  -10.4220   20.8000  -32.4230 F   0  0  0  0  0  0  0  0  0  0  0  0
   -9.4690   21.5120  -30.5120 F   0  0  0  0  0  0  0  0  0  0  0  0
   -7.9330   20.0380  -33.2980 N   0  0  0  0  0  0  0  0  0  0  0  0
   -6.6420   19.8250  -33.4980 N   0  0  0  0  0  0  0  0  0  0  0  0
   -6.1140   18.8420  -34.4390 C   0  0  0  0  0  0  0  0  0  0  0  0
   -3.7490   19.6590  -31.9600 C   0  0  0  0  0  0  0  0  0  0  0  0
   -2.6510   20.2480  -31.0520 C   0  0  0  0  0  0  0  0  0  0  0  0
   -5.3045   24.8592  -29.4305 H   0  0  0  0  0  0  0  0  0  0  0  0
   -5.4732   25.7414  -30.9861 H   0  0  0  0  0  0  0  0  0  0  0  0
   -5.1141   23.9814  -30.9861 H   0  0  0  0  0  0  0  0  0  0  0  0
   -2.2383   25.2465  -28.8713 H   0  0  0  0  0  0  0  0  0  0  0  0
   -3.6931   24.2012  -28.6711 H   0  0  0  0  0  0  0  0  0  0  0  0
   -1.2170   23.6922  -30.3832 H   0  0  0  0  0  0  0  0  0  0  0  0
   -1.8649   22.6958  -29.0406 H   0  0  0  0  0  0  0  0  0  0  0  0
   -1.0984   21.7589  -31.2368 H   0  0  0  0  0  0  0  0  0  0  0  0
   -1.9298   22.8173  -33.2974 H   0  0  0  0  0  0  0  0  0  0  0  0
   -1.7678   21.0333  -33.5206 H   0  0  0  0  0  0  0  0  0  0  0  0
   -4.2803   22.7185  -33.2430 H   0  0  0  0  0  0  0  0  0  0  0  0
   -3.8555   21.4607  -34.4741 H   0  0  0  0  0  0  0  0  0  0  0  0
   -6.5740   22.1659  -31.1737 H   0  0  0  0  0  0  0  0  0  0  0  0
   -8.7060   19.5500  -33.8060 H   0  0  0  0  0  0  0  0  0  0  0  0
   -5.6650   18.0061  -33.8826 H   0  0  0  0  0  0  0  0  0  0  0  0
   -6.9308   18.4646  -35.0718 H   0  0  0  0  0  0  0  0  0  0  0  0
   -5.3483   19.3146  -35.0718 H   0  0  0  0  0  0  0  0  0  0  0  0
   -4.4355   19.0555  -31.3480 H   0  0  0  0  0  0  0  0  0  0  0  0
   -3.2686   19.0375  -32.7301 H   0  0  0  0  0  0  0  0  0  0  0  0
   -3.0497   20.3216  -30.0294 H   0  0  0  0  0  0  0  0  0  0  0  0
   -1.7846   19.5736  -31.1197 H   0  0  0  0  0  0  0  0  0  0  0  0
  1  2  1  0
  2  3  1  0
  3  4  1  0
  4  5  1  0
  5  6  1  0
  6  7  1  0
  7  8  1  0
  8  9  1  0
  9 10  1  0
 10 11  2  0
 11 12  1  0
 12 13  1  0
 13 14  1  0
 13 15  1  0
 13 16  1  0
 12 17  2  0
 17 18  1  0
 18 19  1  0
  9 20  1  0
 20 21  1  0
 21  6  1  0
 18 10  1  0
  1 22  1  0
  1 23  1  0
  1 24  1  0
  3 25  1  0
  3 26  1  0
  4 27  1  0
  4 28  1  0
  6 29  1  0
  7 30  1  0
  7 31  1  0
  8 32  1  0
  8 33  1  0
 11 34  1  0
 17 35  1  0
 19 36  1  0
 19 37  1  0
 19 38  1  0
 20 39  1  0
 20 40  1  0
 21 41  1  0
 21 42  1  0
M  CHG  1  17   1
M  END
>  <UniqueID>  (1) 
1

>  <SMILES>  (1) 
COCCOC1CCN(c2cc(C(F)(F)F)[nH+]n2C)CC1

>  <Energy>  (1) 
77.76719945138719

>  <Genealogy>  (1) 
COCCOC1CCN(c2cc(C(F)(F)F)[nH+]n2C)CC1 (protonated)
COCCOC1CCN(c2cc(C(F)(F)F)[nH+]n2C)CC1 (3D coordinates assigned)
COCCOC1CCN(c2cc(C(F)(F)F)[nH+]n2C)CC1 (nonaromatic ring conformer: 77.76719945138719 kcal/mol)

>  <smiles>  (1) 
COCCOC1CCN(c2cc(C(F)(F)F)nn2C)CC1

>  <score_type>  (1) 
oracle

>  <origin>  (1) 
adg

>  <m_score__min__energy>  (1) 
-6.4000000000000004

>  <m_primary>  (1) 
energy

$$$$
1:0
     RDKit          3D

 33 35  0  0  0  0  0  0  0  0999 V2000
   -4.5630   18.0040  -32.2600 H   0  0  0  0  0  0  0  0  0  0  0  0
   -5.5410   17.7200  -32.4940 N   0  0  0  0  0  0  0  0  0  0  0  0
   -6.5500   18.5270  -32.3800 C   0  0  0  0  0  0  0  0  0  0  0  0
   -6.4020   19.8290  -31.8970 C   0  0  0  0  0  0  0  0  0  0  0  0
   -5.2630   20.4250  -31.4840 N   0  0  0  0  0  0  0  0  0  0  0  0
   -5.6130   21.6530  -31.1110 N   0  0  0  0  0  0  0  0  0  0  0  0
   -4.6870   22.6220  -30.5840 C   0  0  0  0  0  0  0  0  0  0  0  0
   -5.0070   23.9890  -30.6250 C   0  0  0  0  0  0  0  0  0  0  0  0
   -5.9612   24.3119  -31.0668 H   0  0  0  0  0  0  0  0  0  0  0  0
   -4.1250   24.9430  -30.1100 C   0  0  0  0  0  0  0  0  0  0  0  0
   -4.3848   26.0109  -30.1563 H   0  0  0  0  0  0  0  0  0  0  0  0
   -2.9070   24.5430  -29.5330 C   0  0  0  0  0  0  0  0  0  0  0  0
   -1.9870   25.4620  -29.0020 O   0  0  0  0  0  0  0  0  0  0  0  0
   -1.3850   25.3440  -27.7180 C   0  0  0  0  0  0  0  0  0  0  0  0
   -2.1482   25.4936  -26.9401 H   0  0  0  0  0  0  0  0  0  0  0  0
   -0.9435   24.3422  -27.6107 H   0  0  0  0  0  0  0  0  0  0  0  0
   -0.5980   26.1050  -27.6107 H   0  0  0  0  0  0  0  0  0  0  0  0
   -2.5930   23.1810  -29.4770 C   0  0  0  0  0  0  0  0  0  0  0  0
   -1.6444   22.8585  -29.0229 H   0  0  0  0  0  0  0  0  0  0  0  0
   -3.4740   22.2260  -29.9930 C   0  0  0  0  0  0  0  0  0  0  0  0
   -3.2167   21.1580  -29.9363 H   0  0  0  0  0  0  0  0  0  0  0  0
   -6.9500   21.7730  -31.2900 C   0  0  0  0  0  0  0  0  0  0  0  0
   -7.6260   22.7940  -30.9880 O   0  0  0  0  0  0  0  0  0  0  0  0
   -7.4690   20.6380  -31.7910 N   0  0  0  0  0  0  0  0  0  0  0  0
   -8.7300   20.2550  -32.1340 C   0  0  0  0  0  0  0  0  0  0  0  0
   -9.9020   21.1830  -31.9970 C   0  0  0  0  0  0  0  0  0  0  0  0
  -10.1141   21.3509  -30.9308 H   0  0  0  0  0  0  0  0  0  0  0  0
   -9.6678   22.1432  -32.4799 H   0  0  0  0  0  0  0  0  0  0  0  0
  -10.7829   20.7349  -32.4799 H   0  0  0  0  0  0  0  0  0  0  0  0
   -8.8900   18.9450  -32.6240 C   0  0  0  0  0  0  0  0  0  0  0  0
   -9.8876   18.5861  -32.9172 H   0  0  0  0  0  0  0  0  0  0  0  0
   -7.8050   18.1170  -32.7360 N   0  0  0  0  0  0  0  0  0  0  0  0
   -7.9490   17.1480  -33.1020 H   0  0  0  0  0  0  0  0  0  0  0  0
  1  2  1  0
  2  3  2  0
  3  4  1  0
  4  5  2  0
  5  6  1  0
  6  7  1  0
  7  8  2  0
  8  9  1  0
  8 10  1  0
 10 11  1  0
 10 12  2  0
 12 13  1  0
 13 14  1  0
 14 15  1  0
 14 16  1  0
 14 17  1  0
 12 18  1  0
 18 19  1  0
 18 20  2  0
 20 21  1  0
  6 22  1  0
 22 23  2  0
 22 24  1  0
 24 25  1  0
 25 26  1  0
 26 27  1  0
 26 28  1  0
 26 29  1  0
 25 30  2  0
 30 31  1  0
 30 32  1  0
 32 33  1  0
 32  3  1  0
 24  4  1  0
 20  7  1  0
M  END
>  <UniqueID>  (2) 
2

>  <SMILES>  (2) 
[H]/N=c1/[nH]cc(C)n2c(=O)n(-c3ccc(OC)cc3)nc12

>  <Energy>  (2) 
84.93066607208657

>  <Genealogy>  (2) 
[H]/N=c1/[nH]cc(C)n2c(=O)n(-c3ccc(OC)cc3)nc12 (cis-trans isomerization)
[H]/N=c1/[nH]cc(C)n2c(=O)n(-c3ccc(OC)cc3)nc12 (3D coordinates assigned)
[H]/N=c1/[nH]cc(C)n2c(=O)n(-c3ccc(OC)cc3)nc12 (optimized conformer: 84.93066607208657 kcal/mol)

>  <smiles>  (2) 
COc1ccc(-n2nc3c(=N)[nH]cc(C)n3c2=O)cc1

>  <score_type>  (2) 
oracle

>  <origin>  (2) 
adg

>  <m_score__min__energy>  (2) 
-6.25

>  <m_primary>  (2) 
energy

$$$$
2:0
     RDKit          3D

 42 44  0  0  0  0  0  0  0  0999 V2000
    1.2470   23.3450  -35.9490 C   0  0  0  0  0  0  0  0  0  0  0  0
    1.7770   22.3820  -35.0440 O   0  0  0  0  0  0  0  0  0  0  0  0
    1.0470   21.3100  -34.5100 C   0  0  0  0  0  0  0  0  0  0  0  0
    1.6070   20.0320  -34.3290 C   0  0  0  0  0  0  0  0  0  0  0  0
    0.8370   18.9970  -33.7960 C   0  0  0  0  0  0  0  0  0  0  0  0
   -0.4950   19.2230  -33.4390 C   0  0  0  0  0  0  0  0  0  0  0  0
   -1.0720   20.4930  -33.6100 C   0  0  0  0  0  0  0  0  0  0  0  0
   -2.4870   20.7360  -33.2290 C   0  0  0  0  0  0  0  0  0  0  0  0
   -2.8170   21.7500  -32.3110 C   0  0  0  0  0  0  0  0  0  0  0  0
   -4.1480   21.9760  -31.9530 C   0  0  0  0  0  0  0  0  0  0  0  0
   -5.1750   21.1890  -32.4970 C   0  0  0  0  0  0  0  0  0  0  0  0
   -6.5880   21.4390  -32.1290 C   0  0  0  0  0  0  0  0  0  0  0  0
   -7.4640   20.3440  -32.0250 C   0  0  0  0  0  0  0  0  0  0  0  0
   -8.8150   20.5400  -31.7360 C   0  0  0  0  0  0  0  0  0  0  0  0
   -9.3080   21.8300  -31.5450 C   0  0  0  0  0  0  0  0  0  0  0  0
   -8.4510   22.9270  -31.6320 C   0  0  0  0  0  0  0  0  0  0  0  0
   -7.0840   22.7500  -31.9200 C   0  0  0  0  0  0  0  0  0  0  0  0
   -6.1960   23.8820  -31.9340 N   0  0  0  0  0  0  0  0  0  0  0  0
   -5.5560   24.5900  -30.4870 S   0  0  0  0  0  0  0  0  0  0  0  0
   -4.0080   25.2860  -30.8110 N   0  0  0  0  0  0  0  0  0  0  0  0
   -6.4950   25.6490  -29.9810 O   0  0  0  0  0  0  0  0  0  0  0  0
   -5.4010   23.5230  -29.4420 O   0  0  0  0  0  0  0  0  0  0  0  0
   -4.8500   20.1850  -33.4220 C   0  0  0  0  0  0  0  0  0  0  0  0
   -3.5190   19.9570  -33.7810 C   0  0  0  0  0  0  0  0  0  0  0  0
   -0.2880   21.5310  -34.1470 C   0  0  0  0  0  0  0  0  0  0  0  0
    0.7927   24.1705  -35.3814 H   0  0  0  0  0  0  0  0  0  0  0  0
    2.0563   23.7373  -36.5824 H   0  0  0  0  0  0  0  0  0  0  0  0
    0.4826   22.8712  -36.5824 H   0  0  0  0  0  0  0  0  0  0  0  0
    2.6549   19.8480  -34.6084 H   0  0  0  0  0  0  0  0  0  0  0  0
    1.2802   18.0000  -33.6565 H   0  0  0  0  0  0  0  0  0  0  0  0
   -1.0958   18.4016  -33.0214 H   0  0  0  0  0  0  0  0  0  0  0  0
   -2.0209   22.3693  -31.8721 H   0  0  0  0  0  0  0  0  0  0  0  0
   -4.3932   22.7766  -31.2396 H   0  0  0  0  0  0  0  0  0  0  0  0
   -7.0808   19.3236  -32.1728 H   0  0  0  0  0  0  0  0  0  0  0  0
   -9.4915   19.6761  -31.6588 H   0  0  0  0  0  0  0  0  0  0  0  0
  -10.3749   21.9830  -31.3253 H   0  0  0  0  0  0  0  0  0  0  0  0
   -8.8471   23.9410  -31.4740 H   0  0  0  0  0  0  0  0  0  0  0  0
   -5.9850   24.3650  -32.8350 H   0  0  0  0  0  0  0  0  0  0  0  0
   -3.8680   26.0530  -30.1160 H   0  0  0  0  0  0  0  0  0  0  0  0
   -5.6484   19.5734  -33.8675 H   0  0  0  0  0  0  0  0  0  0  0  0
   -3.2767   19.1617  -34.5012 H   0  0  0  0  0  0  0  0  0  0  0  0
   -0.7293   22.5293  -34.2836 H   0  0  0  0  0  0  0  0  0  0  0  0
  1  2  1  0
  2  3  1  0
  3  4  2  0
  4  5  1  0
  5  6  2  0
  6  7  1  0
  7  8  1  0
  8  9  2  0
  9 10  1  0
 10 11  2  0
 11 12  1  0
 12 13  2  0
 13 14  1  0
 14 15  2  0
 15 16  1  0
 16 17  2  0
 17 18  1  0
 18 19  1  0
 19 20  1  0
 19 21  2  0
 19 22  2  0
 11 23  1  0
 23 24  2  0
  7 25  2  0
 25  3  1  0
 24  8  1  0
 17 12  1  0
  1 26  1  0
  1 27  1  0
  1 28  1  0
  4 29  1  0
  5 30  1  0
  6 31  1  0
  9 32  1  0
 10 33  1  0
 13 34  1  0
 14 35  1  0
 15 36  1  0
 16 37  1  0
 18 38  1  0
 20 39  1  0
 23 40  1  0
 24 41  1  0
 25 42  1  0
M  CHG  1  20  -1
M  END
>  <UniqueID>  (3) 
3

>  <SMILES>  (3) 
COc1cccc(-c2ccc(-c3ccccc3NS([NH-])(=O)=O)cc2)c1

>  <Energy>  (3) 
57.82664365846953

>  <Genealogy>  (3) 
COc1cccc(-c2ccc(-c3ccccc3NS([NH-])(=O)=O)cc2)c1 (protonated)
COc1cccc(-c2ccc(-c3ccccc3NS([NH-])(=O)=O)cc2)c1 (3D coordinates assigned)
COc1cccc(-c2ccc(-c3ccccc3NS([NH-])(=O)=O)cc2)c1 (optimized conformer: 57.82664365846953 kcal/mol)

>  <smiles>  (3) 
COc1cccc(-c2ccc(-c3ccccc3NS(N)(=O)=O)cc2)c1

>  <score_type>  (3) 
oracle

>  <origin>  (3) 
adg

>  <m_score__min__energy>  (3) 
-11.029999999999999

>  <m_primary>  (3) 
energy

$$$$
3:0
     RDKit          3D

 43 46  0  0  0  0  0  0  0  0999 V2000
   -7.6120   21.6540  -31.9540 C   0  0  0  0  0  0  0  0  0  0  0  0
   -6.6240   22.8120  -32.0770 C   0  0  0  0  0  0  0  0  0  0  0  0
   -6.5070   23.6140  -30.7760 C   0  0  0  0  0  0  0  0  0  0  0  0
   -5.1740   23.4720  -30.1910 N   0  0  0  0  0  0  0  0  0  0  0  0
   -4.7970   22.4080  -29.4840 N   0  0  0  0  0  0  0  0  0  0  0  0
   -3.5320   22.6360  -29.0750 C   0  0  0  0  0  0  0  0  0  0  0  0
   -2.6940   21.8370  -28.3150 C   0  0  0  0  0  0  0  0  0  0  0  0
   -3.1040   20.5800  -27.8460 C   0  0  0  0  0  0  0  0  0  0  0  0
   -2.2340   19.8020  -27.0870 C   0  0  0  0  0  0  0  0  0  0  0  0
   -0.9540   20.2700  -26.7900 C   0  0  0  0  0  0  0  0  0  0  0  0
   -0.5310   21.5210  -27.2480 C   0  0  0  0  0  0  0  0  0  0  0  0
   -1.3860   22.3420  -28.0240 C   0  0  0  0  0  0  0  0  0  0  0  0
   -0.9840   23.5950  -28.4960 N   0  0  0  0  0  0  0  0  0  0  0  0
    0.3670   24.1350  -28.2320 C   0  0  0  0  0  0  0  0  0  0  0  0
    0.5470   24.4640  -26.7700 C   0  0  0  0  0  0  0  0  0  0  0  0
    1.8030   24.3340  -26.1590 C   0  0  0  0  0  0  0  0  0  0  0  0
    1.9520   24.6630  -24.8100 C   0  0  0  0  0  0  0  0  0  0  0  0
    0.8870   25.1150  -24.0940 N   0  0  0  0  0  0  0  0  0  0  0  0
   -0.3380   25.2670  -24.6660 C   0  0  0  0  0  0  0  0  0  0  0  0
   -0.5290   24.9500  -26.0120 C   0  0  0  0  0  0  0  0  0  0  0  0
   -1.8320   24.3760  -29.2510 C   0  0  0  0  0  0  0  0  0  0  0  0
   -3.0950   23.9040  -29.5400 C   0  0  0  0  0  0  0  0  0  0  0  0
   -4.1730   24.3860  -30.2350 C   0  0  0  0  0  0  0  0  0  0  0  0
   -4.2390   25.5000  -30.8220 O   0  0  0  0  0  0  0  0  0  0  0  0
   -7.7950   21.4395  -30.8907 H   0  0  0  0  0  0  0  0  0  0  0  0
   -8.5596   21.9271  -32.4413 H   0  0  0  0  0  0  0  0  0  0  0  0
   -7.1931   20.7612  -32.4413 H   0  0  0  0  0  0  0  0  0  0  0  0
   -5.6340   22.4072  -32.3338 H   0  0  0  0  0  0  0  0  0  0  0  0
   -6.9945   23.4903  -32.8597 H   0  0  0  0  0  0  0  0  0  0  0  0
   -6.6945   24.6765  -30.9903 H   0  0  0  0  0  0  0  0  0  0  0  0
   -7.2472   23.2291  -30.0591 H   0  0  0  0  0  0  0  0  0  0  0  0
   -4.1132   20.2090  -28.0780 H   0  0  0  0  0  0  0  0  0  0  0  0
   -2.5567   18.8162  -26.7208 H   0  0  0  0  0  0  0  0  0  0  0  0
   -0.2718   19.6494  -26.1904 H   0  0  0  0  0  0  0  0  0  0  0  0
    0.4815   21.8736  -27.0021 H   0  0  0  0  0  0  0  0  0  0  0  0
    1.1167   23.3857  -28.5261 H   0  0  0  0  0  0  0  0  0  0  0  0
    0.4929   25.0592  -28.8151 H   0  0  0  0  0  0  0  0  0  0  0  0
    2.6658   23.9749  -26.7392 H   0  0  0  0  0  0  0  0  0  0  0  0
    2.9334   24.5564  -24.3248 H   0  0  0  0  0  0  0  0  0  0  0  0
    1.0140   25.3570  -23.0860 H   0  0  0  0  0  0  0  0  0  0  0  0
   -1.1807   25.6409  -24.0659 H   0  0  0  0  0  0  0  0  0  0  0  0
   -1.5178   25.0805  -26.4759 H   0  0  0  0  0  0  0  0  0  0  0  0
   -1.5064   25.3607  -29.6175 H   0  0  0  0  0  0  0  0  0  0  0  0
  1  2  1  0
  2  3  1  0
  3  4  1  0
  4  5  1  0
  5  6  2  0
  6  7  1  0
  7  8  2  0
  8  9  1  0
  9 10  2  0
 10 11  1  0
 11 12  2  0
 12 13  1  0
 13 14  1  0
 14 15  1  0
 15 16  2  0
 16 17  1  0
 17 18  2  0
 18 19  1  0
 19 20  2  0
 13 21  1  0
 21 22  2  0
 22 23  1  0
 23 24  2  0
 23  4  1  0
 22  6  1  0
 12  7  1  0
 20 15  1  0
  1 25  1  0
  1 26  1  0
  1 27  1  0
  2 28  1  0
  2 29  1  0
  3 30  1  0
  3 31  1  0
  8 32  1  0
  9 33  1  0
 10 34  1  0
 11 35  1  0
 14 36  1  0
 14 37  1  0
 16 38  1  0
 17 39  1  0
 18 40  1  0
 19 41  1  0
 20 42  1  0
 21 43  1  0
M  CHG  1  18   1
M  END
>  <UniqueID>  (4) 
4

>  <SMILES>  (4) 
CCCn1nc2c3ccccc3n(Cc3cc[nH+]cc3)cc-2c1=O

>  <Energy>  (4) 
91.18727076887953

>  <Genealogy>  (4) 
CCCn1nc2c3ccccc3n(Cc3cc[nH+]cc3)cc-2c1=O (protonated)
CCCn1nc2c3ccccc3n(Cc3cc[nH+]cc3)cc-2c1=O (3D coordinates assigned)
CCCn1nc2c3ccccc3n(Cc3cc[nH+]cc3)cc-2c1=O (optimized conformer: 91.18727076887953 kcal/mol)

>  <smiles>  (4) 
CCCn1nc2c3ccccc3n(Cc3ccncc3)cc-2c1=O

>  <score_type>  (4) 
oracle

>  <origin>  (4) 
adg

>  <m_score__min__energy>  (4) 
-7.6500000000000004

>  <m_primary>  (4) 
energy

$$$$
4:0
     RDKit          3D

 40 40  0  0  0  0  0  0  0  0999 V2000
   -4.2200   25.6820  -31.7800 H   0  0  0  0  0  0  0  0  0  0  0  0
   -4.1460   25.2200  -30.8470 N   0  0  0  0  0  0  0  0  0  0  0  0
   -5.1240   24.5600  -30.3070 C   0  0  0  0  0  0  0  0  0  0  0  0
   -5.8310   23.4930  -31.0580 C   0  0  0  0  0  0  0  0  0  0  0  0
   -7.2270   23.5280  -31.2160 C   0  0  0  0  0  0  0  0  0  0  0  0
   -7.8051   24.3564  -30.7808 H   0  0  0  0  0  0  0  0  0  0  0  0
   -7.8860   22.5180  -31.9220 C   0  0  0  0  0  0  0  0  0  0  0  0
   -8.9796   22.5571  -32.0342 H   0  0  0  0  0  0  0  0  0  0  0  0
   -7.1680   21.4550  -32.4890 C   0  0  0  0  0  0  0  0  0  0  0  0
   -7.8810   20.4330  -33.2140 N   0  0  0  0  0  0  0  0  0  0  0  0
   -7.5520   20.1840  -34.1750 H   0  0  0  0  0  0  0  0  0  0  0  0
   -9.0500   19.7140  -32.7030 C   0  0  0  0  0  0  0  0  0  0  0  0
   -9.8618   20.4313  -32.5120 H   0  0  0  0  0  0  0  0  0  0  0  0
   -9.3686   18.9732  -33.4512 H   0  0  0  0  0  0  0  0  0  0  0  0
   -8.7010   18.9850  -31.3970 C   0  0  0  0  0  0  0  0  0  0  0  0
   -8.5846   19.7301  -30.5962 H   0  0  0  0  0  0  0  0  0  0  0  0
   -9.5173   18.2816  -31.1758 H   0  0  0  0  0  0  0  0  0  0  0  0
   -7.3990   18.1740  -31.5110 C   0  0  0  0  0  0  0  0  0  0  0  0
   -6.5483   18.8630  -31.4036 H   0  0  0  0  0  0  0  0  0  0  0  0
   -7.4197   17.4127  -30.7173 H   0  0  0  0  0  0  0  0  0  0  0  0
   -7.2580   17.4280  -32.8550 C   0  0  0  0  0  0  0  0  0  0  0  0
   -7.6546   16.4099  -32.7280 H   0  0  0  0  0  0  0  0  0  0  0  0
   -7.8163   18.0119  -33.6015 H   0  0  0  0  0  0  0  0  0  0  0  0
   -5.8080   17.3220  -33.3680 C   0  0  0  0  0  0  0  0  0  0  0  0
   -5.1387   17.2440  -32.4985 H   0  0  0  0  0  0  0  0  0  0  0  0
   -5.7653   16.4354  -34.0177 H   0  0  0  0  0  0  0  0  0  0  0  0
   -5.3540   18.5210  -34.2220 C   0  0  0  0  0  0  0  0  0  0  0  0
   -5.3525   18.2194  -35.2798 H   0  0  0  0  0  0  0  0  0  0  0  0
   -6.0564   19.3469  -34.0360 H   0  0  0  0  0  0  0  0  0  0  0  0
   -3.9540   19.0120  -33.8510 C   0  0  0  0  0  0  0  0  0  0  0  0
   -3.8558   19.0465  -32.7559 H   0  0  0  0  0  0  0  0  0  0  0  0
   -3.2024   18.3238  -34.2651 H   0  0  0  0  0  0  0  0  0  0  0  0
   -3.7969   20.0189  -34.2651 H   0  0  0  0  0  0  0  0  0  0  0  0
   -5.7710   21.4140  -32.3220 C   0  0  0  0  0  0  0  0  0  0  0  0
   -5.1941   20.5813  -32.7508 H   0  0  0  0  0  0  0  0  0  0  0  0
   -5.1110   22.4240  -31.6150 C   0  0  0  0  0  0  0  0  0  0  0  0
   -4.0185   22.3806  -31.4942 H   0  0  0  0  0  0  0  0  0  0  0  0
   -5.5060   24.8700  -28.9640 N   0  0  0  0  0  0  0  0  0  0  0  0
   -6.3420   24.4270  -28.5230 H   0  0  0  0  0  0  0  0  0  0  0  0
   -4.9820   25.5910  -28.4190 H   0  0  0  0  0  0  0  0  0  0  0  0
  1  2  1  0
  2  3  2  0
  3  4  1  0
  4  5  2  0
  5  6  1  0
  5  7  1  0
  7  8  1  0
  7  9  2  0
  9 10  1  0
 10 11  1  0
 10 12  1  0
 12 13  1  0
 12 14  1  0
 12 15  1  0
 15 16  1  0
 15 17  1  0
 15 18  1  0
 18 19  1  0
 18 20  1  0
 18 21  1  0
 21 22  1  0
 21 23  1  0
 21 24  1  0
 24 25  1  0
 24 26  1  0
 24 27  1  0
 27 28  1  0
 27 29  1  0
 27 30  1  0
 30 31  1  0
 30 32  1  0
 30 33  1  0
  9 34  1  0
 34 35  1  0
 34 36  2  0
 36 37  1  0
  3 38  1  0
 38 39  1  0
 38 40  1  0
 36  4  1  0
M  END
>  <UniqueID>  (5) 
5

>  <SMILES>  (5) 
[H]/N=C(/N)c1ccc(NCCCCCCC)cc1

>  <Energy>  (5) 
33.13577304964164

>  <Genealogy>  (5) 
[H]/N=C(/N)c1ccc(NCCCCCCC)cc1 (cis-trans isomerization)
[H]/N=C(/N)c1ccc(NCCCCCCC)cc1 (3D coordinates assigned)
[H]/N=C(/N)c1ccc(NCCCCCCC)cc1 (optimized conformer: 33.13577304964164 kcal/mol)

>  <smiles>  (5) 
CCCCCCCNc1ccc(C(=N)N)cc1

>  <score_type>  (5) 
oracle

>  <origin>  (5) 
adg

>  <m_score__min__energy>  (5) 
-8.1400000000000006

>  <m_primary>  (5) 
energy

$$$$
5:0
     RDKit          3D

 44 46  0  0  0  0  0  0  0  0999 V2000
   -1.4600   26.3830  -26.4660 C   0  0  0  0  0  0  0  0  0  0  0  0
   -0.8120   26.7470  -27.7970 C   0  0  0  0  0  0  0  0  0  0  0  0
   -1.4350   26.0430  -28.8720 O   0  0  0  0  0  0  0  0  0  0  0  0
   -1.6160   24.6510  -28.9470 C   0  0  0  0  0  0  0  0  0  0  0  0
   -0.7800   23.7420  -28.2650 C   0  0  0  0  0  0  0  0  0  0  0  0
   -0.9890   22.3680  -28.3820 C   0  0  0  0  0  0  0  0  0  0  0  0
   -2.0240   21.8830  -29.1830 C   0  0  0  0  0  0  0  0  0  0  0  0
   -2.8580   22.7710  -29.8640 C   0  0  0  0  0  0  0  0  0  0  0  0
   -2.6690   24.1600  -29.7380 C   0  0  0  0  0  0  0  0  0  0  0  0
   -3.4910   25.1000  -30.4470 N   0  0  0  0  0  0  0  0  0  0  0  0
   -4.9230   25.1430  -30.4720 C   0  0  0  0  0  0  0  0  0  0  0  0
   -5.5340   26.2070  -30.7610 O   0  0  0  0  0  0  0  0  0  0  0  0
   -5.6980   23.8790  -30.2540 C   0  0  0  0  0  0  0  0  0  0  0  0
   -7.0410   23.9250  -30.9810 C   0  0  0  0  0  0  0  0  0  0  0  0
   -7.8260   22.7440  -30.6440 N   0  0  0  0  0  0  0  0  0  0  0  0
   -7.8770   21.6000  -31.2660 C   0  0  0  0  0  0  0  0  0  0  0  0
   -9.0780   20.8280  -31.2280 N   0  0  0  0  0  0  0  0  0  0  0  0
   -8.8750   19.3830  -32.1340 S   0  0  0  0  0  0  0  0  0  0  0  0
   -9.8080   19.3320  -33.3110 O   0  0  0  0  0  0  0  0  0  0  0  0
   -8.9830   18.1650  -31.2610 O   0  0  0  0  0  0  0  0  0  0  0  0
   -7.2400   19.7280  -32.5940 C   0  0  0  0  0  0  0  0  0  0  0  0
   -6.4250   18.9210  -33.3850 C   0  0  0  0  0  0  0  0  0  0  0  0
   -5.1210   19.3450  -33.6580 C   0  0  0  0  0  0  0  0  0  0  0  0
   -4.6510   20.5590  -33.1340 C   0  0  0  0  0  0  0  0  0  0  0  0
   -5.4820   21.3640  -32.3390 C   0  0  0  0  0  0  0  0  0  0  0  0
   -6.7980   20.9430  -32.0690 C   0  0  0  0  0  0  0  0  0  0  0  0
   -0.8264   26.7389  -25.6402 H   0  0  0  0  0  0  0  0  0  0  0  0
   -2.4505   26.8568  -26.3987 H   0  0  0  0  0  0  0  0  0  0  0  0
   -1.5707   25.2907  -26.3987 H   0  0  0  0  0  0  0  0  0  0  0  0
   -0.9167   27.8290  -27.9654 H   0  0  0  0  0  0  0  0  0  0  0  0
    0.2512   26.4671  -27.7605 H   0  0  0  0  0  0  0  0  0  0  0  0
    0.0411   24.1189  -27.6376 H   0  0  0  0  0  0  0  0  0  0  0  0
   -0.3371   21.6655  -27.8421 H   0  0  0  0  0  0  0  0  0  0  0  0
   -2.1827   20.7986  -29.2777 H   0  0  0  0  0  0  0  0  0  0  0  0
   -3.6663   22.3838  -30.5018 H   0  0  0  0  0  0  0  0  0  0  0  0
   -5.1127   23.0287  -30.6340 H   0  0  0  0  0  0  0  0  0  0  0  0
   -5.8877   23.7669  -29.1763 H   0  0  0  0  0  0  0  0  0  0  0  0
   -7.5905   24.8278  -30.6761 H   0  0  0  0  0  0  0  0  0  0  0  0
   -6.8655   23.9466  -32.0667 H   0  0  0  0  0  0  0  0  0  0  0  0
   -9.9520   21.0990  -30.7250 H   0  0  0  0  0  0  0  0  0  0  0  0
   -6.8004   17.9684  -33.7871 H   0  0  0  0  0  0  0  0  0  0  0  0
   -4.4623   18.7259  -34.2847 H   0  0  0  0  0  0  0  0  0  0  0  0
   -3.6218   20.8828  -33.3482 H   0  0  0  0  0  0  0  0  0  0  0  0
   -5.1085   22.3147  -31.9309 H   0  0  0  0  0  0  0  0  0  0  0  0
  1  2  1  0
  2  3  1  0
  3  4  1  0
  4  5  2  0
  5  6  1  0
  6  7  2  0
  7  8  1  0
  8  9  2  0
  9 10  1  0
 10 11  1  0
 11 12  2  0
 11 13  1  0
 13 14  1  0
 14 15  1  0
 15 16  2  3
 16 17  1  0
 17 18  1  0
 18 19  2  0
 18 20  2  0
 18 21  1  0
 21 22  2  0
 22 23  1  0
 23 24  2  0
 24 25  1  0
 25 26  2  0
  9  4  1  0
 26 16  1  0
 26 21  1  0
  1 27  1  0
  1 28  1  0
  1 29  1  0
  2 30  1  0
  2 31  1  0
  5 32  1  0
  6 33  1  0
  7 34  1  0
  8 35  1  0
 13 36  1  0
 13 37  1  0
 14 38  1  0
 14 39  1  0
 17 40  1  0
 22 41  1  0
 23 42  1  0
 24 43  1  0
 25 44  1  0
M  CHG  1  10  -1
M  END
>  <UniqueID>  (6) 
6

>  <SMILES>  (6) 
CCOc1ccccc1[N-]C(=O)CCN=C1NS(=O)(=O)c2ccccc21

>  <Energy>  (6) 
71.32812132343781

>  <Genealogy>  (6) 
CCOc1ccccc1[N-]C(=O)CCN=C1NS(=O)(=O)c2ccccc21 (protonated)
CCOc1ccccc1[N-]C(=O)CCN=C1NS(=O)(=O)c2ccccc21 (3D coordinates assigned)
CCOc1ccccc1[N-]C(=O)CCN=C1NS(=O)(=O)c2ccccc21 (nonaromatic ring conformer: 71.32812132343781 kcal/mol)

>  <smiles>  (6) 
CCOc1ccccc1NC(=O)CCN=C1NS(=O)(=O)c2ccccc21

>  <score_type>  (6) 
oracle

>  <origin>  (6) 
adg

>  <m_score__min__energy>  (6) 
-11.42

>  <m_primary>  (6) 
energy

$$$$
6:0
     RDKit          3D

 29 31  0  0  1  0  0  0  0  0999 V2000
   -2.7040   24.5510  -28.9950 C   0  0  0  0  0  0  0  0  0  0  0  0
   -3.4770   25.0940  -30.0370 O   0  0  0  0  0  0  0  0  0  0  0  0
   -4.5150   24.3630  -30.5940 C   0  0  0  0  0  0  0  0  0  0  0  0
   -5.8330   24.8220  -30.5230 C   0  0  0  0  0  0  0  0  0  0  0  0
   -6.8580   24.0700  -31.0900 C   0  0  0  0  0  0  0  0  0  0  0  0
   -6.5500   22.8570  -31.7260 C   0  0  0  0  0  0  0  0  0  0  0  0
   -7.5280   22.1240  -32.3330 N   0  0  0  0  0  0  0  0  0  0  0  0
   -7.7120   20.8830  -32.3010 C   0  0  0  0  0  0  0  0  0  0  0  0
   -8.7040   20.3910  -31.5350 N   0  0  0  0  0  0  0  0  0  0  0  0
   -8.9820   19.0800  -31.4340 C   0  0  0  0  0  0  0  0  0  0  0  0
   -8.2310   18.2150  -32.1320 N   0  0  0  0  0  0  0  0  0  0  0  0
   -7.2350   18.6740  -32.9060 C   0  0  0  0  0  0  0  0  0  0  0  0
   -6.3470   18.0500  -33.6940 N   0  0  0  0  0  0  0  0  0  0  0  0
   -5.5530   18.9680  -34.2570 C   0  0  0  0  0  0  0  0  0  0  0  0
   -5.9090   20.2250  -33.8430 N   0  0  0  0  0  0  0  0  0  0  0  0
   -6.9350   20.0320  -33.0210 C   0  0  0  0  0  0  0  0  0  0  0  0
   -5.2220   22.4090  -31.7890 C   0  0  0  0  0  0  0  0  0  0  0  0
   -4.1990   23.1660  -31.2190 C   0  0  0  0  0  0  0  0  0  0  0  0
   -3.1312   24.8511  -28.0268 H   0  0  0  0  0  0  0  0  0  0  0  0
   -2.7044   23.4537  -29.0716 H   0  0  0  0  0  0  0  0  0  0  0  0
   -1.6719   24.9236  -29.0716 H   0  0  0  0  0  0  0  0  0  0  0  0
   -6.0596   25.7741  -30.0209 H   0  0  0  0  0  0  0  0  0  0  0  0
   -7.8988   24.4226  -31.0402 H   0  0  0  0  0  0  0  0  0  0  0  0
   -9.3100   21.0330  -30.9760 H   0  0  0  0  0  0  0  0  0  0  0  0
   -9.8044   18.7254  -30.7953 H   0  0  0  0  0  0  0  0  0  0  0  0
   -4.7311   18.7454  -34.9534 H   0  0  0  0  0  0  0  0  0  0  0  0
   -5.3950   21.0310  -34.1880 H   0  0  0  0  0  0  0  0  0  0  0  0
   -4.9871   21.4580  -32.2894 H   0  0  0  0  0  0  0  0  0  0  0  0
   -3.1563   22.8187  -31.2644 H   0  0  0  0  0  0  0  0  0  0  0  0
  1  2  1  0
  2  3  1  0
  3  4  2  0
  4  5  1  0
  5  6  2  0
  6  7  1  0
  7  8  2  0
  8  9  1  0
  9 10  1  0
 10 11  2  0
 11 12  1  0
 12 13  1  0
 13 14  2  0
 14 15  1  0
 15 16  1  0
  6 17  1  0
 17 18  2  0
 18  3  1  0
 16  8  1  0
 16 12  2  0
  1 19  1  0
  1 20  1  0
  1 21  1  0
  4 22  1  0
  5 23  1  0
  9 24  1  0
 10 25  1  0
 14 26  1  0
 15 27  1  0
 17 28  1  0
 18 29  1  0
M  END
>  <smiles>  (7) 
COc1ccc(N=c2[nH]cnc3nc[nH]c23)cc1

>  <score_type>  (7) 
oracle

>  <origin>  (7) 
adg

>  <m_score__min__energy>  (7) 
-6.79

>  <m_primary>  (7) 
energy

$$$$
7:0
     RDKit          3D

 39 41  0  0  0  0  0  0  0  0999 V2000
   -5.8290   16.0040  -33.8710 C   0  0  0  0  0  0  0  0  0  0  0  0
   -6.2170   16.9510  -32.7880 C   0  0  0  0  0  0  0  0  0  0  0  0
   -6.8570   18.1200  -32.9910 N   0  0  0  0  0  0  0  0  0  0  0  0
   -7.0610   18.5870  -31.7670 N   0  0  0  0  0  0  0  0  0  0  0  0
   -7.7710   19.8330  -31.4750 C   0  0  2  0  0  0  0  0  0  0  0  0
   -9.0970   19.8940  -32.2490 C   0  0  0  0  0  0  0  0  0  0  0  0
   -9.8610   21.1920  -31.9300 C   0  0  0  0  0  0  0  0  0  0  0  0
   -8.9200   22.3970  -31.7380 C   0  0  0  0  0  0  0  0  0  0  0  0
   -7.6350   22.1590  -32.4200 N   0  0  0  0  0  0  0  0  0  0  0  0
   -6.8320   23.3870  -32.6150 C   0  0  0  0  0  0  0  0  0  0  0  0
   -6.0030   23.7800  -31.4090 C   0  0  0  0  0  0  0  0  0  0  0  0
   -6.5030   24.6970  -30.4680 C   0  0  0  0  0  0  0  0  0  0  0  0
   -5.7340   25.0570  -29.3570 C   0  0  0  0  0  0  0  0  0  0  0  0
   -4.4600   24.5130  -29.1800 C   0  0  0  0  0  0  0  0  0  0  0  0
   -3.9490   23.6110  -30.1170 C   0  0  0  0  0  0  0  0  0  0  0  0
   -4.7140   23.2480  -31.2300 C   0  0  0  0  0  0  0  0  0  0  0  0
   -6.8720   21.0590  -31.7870 C   0  0  0  0  0  0  0  0  0  0  0  0
   -6.6050   17.7470  -30.8500 N   0  0  0  0  0  0  0  0  0  0  0  0
   -6.0700   16.7120  -31.4720 N   0  0  0  0  0  0  0  0  0  0  0  0
   -5.4477   15.0735  -33.4252 H   0  0  0  0  0  0  0  0  0  0  0  0
   -6.7075   15.7792  -34.4937 H   0  0  0  0  0  0  0  0  0  0  0  0
   -5.0453   16.4602  -34.4937 H   0  0  0  0  0  0  0  0  0  0  0  0
   -8.0101   19.8588  -30.4016 H   0  0  0  0  0  0  0  0  0  0  0  0
   -8.8861   19.8563  -33.3279 H   0  0  0  0  0  0  0  0  0  0  0  0
   -9.7187   19.0377  -31.9485 H   0  0  0  0  0  0  0  0  0  0  0  0
  -10.5487   21.4100  -32.7604 H   0  0  0  0  0  0  0  0  0  0  0  0
  -10.4040   21.0375  -30.9859 H   0  0  0  0  0  0  0  0  0  0  0  0
   -9.3926   23.2967  -32.1590 H   0  0  0  0  0  0  0  0  0  0  0  0
   -8.7331   22.5362  -30.6630 H   0  0  0  0  0  0  0  0  0  0  0  0
   -6.1518   23.2242  -33.4640 H   0  0  0  0  0  0  0  0  0  0  0  0
   -7.5432   24.2071  -32.7929 H   0  0  0  0  0  0  0  0  0  0  0  0
   -7.5033   25.1331  -30.6063 H   0  0  0  0  0  0  0  0  0  0  0  0
   -6.1334   25.7702  -28.6209 H   0  0  0  0  0  0  0  0  0  0  0  0
   -3.8587   24.7946  -28.3030 H   0  0  0  0  0  0  0  0  0  0  0  0
   -2.9439   23.1860  -29.9790 H   0  0  0  0  0  0  0  0  0  0  0  0
   -4.3053   22.5430  -31.9688 H   0  0  0  0  0  0  0  0  0  0  0  0
   -6.0682   20.7456  -32.4694 H   0  0  0  0  0  0  0  0  0  0  0  0
   -6.4635   21.4318  -30.8361 H   0  0  0  0  0  0  0  0  0  0  0  0
   -5.6410   15.8810  -31.0100 H   0  0  0  0  0  0  0  0  0  0  0  0
  1  2  1  0
  2  3  2  0
  3  4  1  0
  4  5  1  0
  5  6  1  0
  6  7  1  0
  7  8  1  0
  8  9  1  0
  9 10  1  0
 10 11  1  0
 11 12  2  0
 12 13  1  0
 13 14  2  0
 14 15  1  0
 15 16  2  0
  9 17  1  0
  4 18  1  0
 18 19  2  0
 19  2  1  0
 17  5  1  0
 16 11  1  0
  1 20  1  0
  1 21  1  0
  1 22  1  0
  5 23  1  1
  6 24  1  0
  6 25  1  0
  7 26  1  0
  7 27  1  0
  8 28  1  0
  8 29  1  0
 10 30  1  0
 10 31  1  0
 12 32  1  0
 13 33  1  0
 14 34  1  0
 15 35  1  0
 16 36  1  0
 17 37  1  0
 17 38  1  0
 19 39  1  0
M  CHG  1  19   1
M  END
>  <UniqueID>  (8) 
7

>  <SMILES>  (8) 
Cc1nn([C@@H]2CCCN(Cc3ccccc3)C2)n[nH+]1

>  <Energy>  (8) 
85.6308236294444

>  <Genealogy>  (8) 
Cc1nn(C2CCCN(Cc3ccccc3)C2)n[nH+]1 (protonated)
Cc1nn([C@@H]2CCCN(Cc3ccccc3)C2)n[nH+]1 (chirality)
Cc1nn([C@@H]2CCCN(Cc3ccccc3)C2)n[nH+]1 (3D coordinates assigned)
Cc1nn([C@@H]2CCCN(Cc3ccccc3)C2)n[nH+]1 (nonaromatic ring conformer: 85.6308236294444 kcal/mol)

>  <smiles>  (8) 
Cc1nnn(C2CCCN(Cc3ccccc3)C2)n1

>  <score_type>  (8) 
oracle

>  <origin>  (8) 
adg

>  <m_score__min__energy>  (8) 
-7.7300000000000004

>  <m_primary>  (8) 
energy

$$$$
8:0
     RDKit          3D

 40 42  0  0  0  0  0  0  0  0999 V2000
   -3.0460   19.3930  -33.6170 C   0  0  0  0  0  0  0  0  0  0  0  0
   -3.1000   20.9060  -33.4360 C   0  0  0  0  0  0  0  0  0  0  0  0
   -4.3570   21.3090  -32.7230 C   0  0  0  0  0  0  0  0  0  0  0  0
   -5.5000   20.4770  -32.7540 C   0  0  0  0  0  0  0  0  0  0  0  0
   -6.6700   20.8890  -32.0870 C   0  0  0  0  0  0  0  0  0  0  0  0
   -7.9210   20.0500  -32.0990 C   0  0  0  0  0  0  0  0  0  0  0  0
   -7.8680   19.0760  -33.0790 F   0  0  0  0  0  0  0  0  0  0  0  0
   -9.0170   20.8610  -32.3230 F   0  0  0  0  0  0  0  0  0  0  0  0
   -6.6440   22.1070  -31.4770 N   0  0  0  0  0  0  0  0  0  0  0  0
   -7.6150   22.7180  -30.8150 N   0  0  0  0  0  0  0  0  0  0  0  0
   -7.1410   23.9050  -30.3730 C   0  0  0  0  0  0  0  0  0  0  0  0
   -5.8140   24.0440  -30.7730 C   0  0  0  0  0  0  0  0  0  0  0  0
   -4.9040   25.1760  -30.5400 C   0  0  0  0  0  0  0  0  0  0  0  0
   -5.3800   26.3390  -30.4710 O   0  0  0  0  0  0  0  0  0  0  0  0
   -3.4840   25.0020  -30.4320 N   0  0  0  0  0  0  0  0  0  0  0  0
   -2.7720   24.5600  -29.2340 C   0  0  0  0  0  0  0  0  0  0  0  0
   -2.3810   23.1090  -29.3490 C   0  0  0  0  0  0  0  0  0  0  0  0
   -1.6620   22.6500  -30.4670 C   0  0  0  0  0  0  0  0  0  0  0  0
   -1.2660   21.3110  -30.5490 C   0  0  0  0  0  0  0  0  0  0  0  0
   -1.5890   20.4210  -29.5220 C   0  0  0  0  0  0  0  0  0  0  0  0
   -2.3140   20.8670  -28.4120 C   0  0  0  0  0  0  0  0  0  0  0  0
   -2.7170   19.7480  -27.1220 Cl  0  0  0  0  0  0  0  0  0  0  0  0
   -2.7140   22.2050  -28.3270 C   0  0  0  0  0  0  0  0  0  0  0  0
   -5.5570   22.8880  -31.4750 C   0  0  0  0  0  0  0  0  0  0  0  0
   -4.4070   22.5150  -32.0850 N   0  0  0  0  0  0  0  0  0  0  0  0
   -3.0286   18.9061  -32.6308 H   0  0  0  0  0  0  0  0  0  0  0  0
   -3.9328   19.0586  -34.1754 H   0  0  0  0  0  0  0  0  0  0  0  0
   -2.1376   19.1227  -34.1754 H   0  0  0  0  0  0  0  0  0  0  0  0
   -2.2301   21.2306  -32.8462 H   0  0  0  0  0  0  0  0  0  0  0  0
   -3.0871   21.3820  -34.4276 H   0  0  0  0  0  0  0  0  0  0  0  0
   -5.4756   19.5185  -33.2932 H   0  0  0  0  0  0  0  0  0  0  0  0
   -8.0066   19.5523  -31.1218 H   0  0  0  0  0  0  0  0  0  0  0  0
   -8.5820   22.3510  -30.6720 H   0  0  0  0  0  0  0  0  0  0  0  0
   -7.7122   24.6429  -29.7906 H   0  0  0  0  0  0  0  0  0  0  0  0
   -1.8647   25.1692  -29.1083 H   0  0  0  0  0  0  0  0  0  0  0  0
   -3.4361   24.6786  -28.3651 H   0  0  0  0  0  0  0  0  0  0  0  0
   -1.4100   23.3466  -31.2801 H   0  0  0  0  0  0  0  0  0  0  0  0
   -0.6994   20.9584  -31.4234 H   0  0  0  0  0  0  0  0  0  0  0  0
   -1.2732   19.3693  -29.5861 H   0  0  0  0  0  0  0  0  0  0  0  0
   -3.2913   22.5502  -27.4566 H   0  0  0  0  0  0  0  0  0  0  0  0
  1  2  1  0
  2  3  1  0
  3  4  1  0
  4  5  2  0
  5  6  1  0
  6  7  1  0
  6  8  1  0
  5  9  1  0
  9 10  1  0
 10 11  2  0
 11 12  1  0
 12 13  1  0
 13 14  2  0
 13 15  1  0
 15 16  1  0
 16 17  1  0
 17 18  2  0
 18 19  1  0
 19 20  2  0
 20 21  1  0
 21 22  1  0
 21 23  2  0
 12 24  2  0
 24 25  1  0
 25  3  2  0
 24  9  1  0
 23 17  1  0
  1 26  1  0
  1 27  1  0
  1 28  1  0
  2 29  1  0
  2 30  1  0
  4 31  1  0
  6 32  1  0
 10 33  1  0
 11 34  1  0
 16 35  1  0
 16 36  1  0
 18 37  1  0
 19 38  1  0
 20 39  1  0
 23 40  1  0
M  CHG  2  10   1  15  -1
M  END
>  <UniqueID>  (9) 
8

>  <SMILES>  (9) 
CCc1cc(C(F)F)n2[nH+]cc(C(=O)[N-]Cc3cccc(Cl)c3)c2n1

>  <Energy>  (9) 
77.90535413949239

>  <Genealogy>  (9) 
CCc1cc(C(F)F)n2[nH+]cc(C(=O)[N-]Cc3cccc(Cl)c3)c2n1 (protonated)
CCc1cc(C(F)F)n2[nH+]cc(C(=O)[N-]Cc3cccc(Cl)c3)c2n1 (3D coordinates assigned)
CCc1cc(C(F)F)n2[nH+]cc(C(=O)[N-]Cc3cccc(Cl)c3)c2n1 (optimized conformer: 77.90535413949239 kcal/mol)

>  <smiles>  (9) 
CCc1cc(C(F)F)n2ncc(C(=O)NCc3cccc(Cl)c3)c2n1

>  <score_type>  (9) 
oracle

>  <origin>  (9) 
adg

>  <m_score__min__energy>  (9) 
-8.9900000000000002

>  <m_primary>  (9) 
energy

$$$$
9:0
     RDKit          3D

 34 36  0  0  1  0  0  0  0  0999 V2000
   -8.8550   21.5360  -31.9350 C   0  0  0  0  0  0  0  0  0  0  0  0
   -7.6210   22.2810  -31.6560 C   0  0  0  0  0  0  0  0  0  0  0  0
   -6.4080   21.8750  -32.2110 C   0  0  0  0  0  0  0  0  0  0  0  0
   -5.2410   22.5720  -31.9540 C   0  0  0  0  0  0  0  0  0  0  0  0
   -5.2230   23.6900  -31.1420 C   0  0  0  0  0  0  0  0  0  0  0  0
   -4.0380   24.4260  -30.8580 N   0  0  0  0  0  0  0  0  0  0  0  0
   -3.2470   24.0180  -29.9550 C   0  0  0  0  0  0  0  0  0  0  0  0
   -3.2390   24.6940  -28.7790 N   0  0  0  0  0  0  0  0  0  0  0  0
   -2.4420   24.3460  -27.7600 C   0  0  0  0  0  0  0  0  0  0  0  0
   -2.4840   25.2700  -26.2620 Cl  0  0  0  0  0  0  0  0  0  0  0  0
   -1.6170   23.2920  -27.8930 N   0  0  0  0  0  0  0  0  0  0  0  0
   -1.5880   22.5840  -29.0480 C   0  0  0  0  0  0  0  0  0  0  0  0
   -2.4080   22.9450  -30.0910 C   0  0  0  0  0  0  0  0  0  0  0  0
   -2.2170   22.1070  -31.1380 N   0  0  0  0  0  0  0  0  0  0  0  0
   -1.2780   21.2390  -30.7220 C   0  0  0  0  0  0  0  0  0  0  0  0
   -0.8900   21.5140  -29.4640 N   0  0  0  0  0  0  0  0  0  0  0  0
    0.0920   20.8370  -28.6320 C   0  0  0  0  0  0  0  0  0  0  0  0
   -6.4330   24.0880  -30.5920 C   0  0  0  0  0  0  0  0  0  0  0  0
   -6.5460   25.2760  -29.7000 C   0  0  0  0  0  0  0  0  0  0  0  0
   -7.6020   23.3970  -30.8450 C   0  0  0  0  0  0  0  0  0  0  0  0
   -9.3319   21.2481  -30.9865 H   0  0  0  0  0  0  0  0  0  0  0  0
   -9.5430   22.1698  -32.5138 H   0  0  0  0  0  0  0  0  0  0  0  0
   -8.6146   20.6320  -32.5138 H   0  0  0  0  0  0  0  0  0  0  0  0
   -6.3786   20.9887  -32.8618 H   0  0  0  0  0  0  0  0  0  0  0  0
   -4.3009   22.2265  -32.4088 H   0  0  0  0  0  0  0  0  0  0  0  0
   -3.8810   25.5270  -28.6540 H   0  0  0  0  0  0  0  0  0  0  0  0
   -0.8799   20.4133  -31.3301 H   0  0  0  0  0  0  0  0  0  0  0  0
   -0.1489   21.0031  -27.5716 H   0  0  0  0  0  0  0  0  0  0  0  0
    0.0741   19.7585  -28.8475 H   0  0  0  0  0  0  0  0  0  0  0  0
    1.0936   21.2374  -28.8475 H   0  0  0  0  0  0  0  0  0  0  0  0
   -6.5150   24.9502  -28.6498 H   0  0  0  0  0  0  0  0  0  0  0  0
   -5.7091   25.9625  -29.8958 H   0  0  0  0  0  0  0  0  0  0  0  0
   -7.4973   25.7924  -29.8958 H   0  0  0  0  0  0  0  0  0  0  0  0
   -8.5405   23.7449  -30.3888 H   0  0  0  0  0  0  0  0  0  0  0  0
  1  2  1  0
  2  3  2  0
  3  4  1  0
  4  5  2  0
  5  6  1  0
  6  7  2  0
  7  8  1  0
  8  9  1  0
  9 10  1  0
  9 11  2  0
 11 12  1  0
 12 13  2  0
 13 14  1  0
 14 15  2  0
 15 16  1  0
 16 17  1  0
  5 18  1  0
 18 19  1  0
 18 20  2  0
 20  2  1  0
 13  7  1  0
 16 12  1  0
  1 21  1  0
  1 22  1  0
  1 23  1  0
  3 24  1  0
  4 25  1  0
  8 26  1  0
 15 27  1  0
 17 28  1  0
 17 29  1  0
 17 30  1  0
 19 31  1  0
 19 32  1  0
 19 33  1  0
 20 34  1  0
M  END
>  <smiles>  (10) 
Cc1ccc(N=c2[nH]c(Cl)nc3c2ncn3C)c(C)c1

>  <score_type>  (10) 
oracle

>  <origin>  (10) 
adg

>  <m_score__min__energy>  (10) 
-7.3799999999999999

>  <m_primary>  (10) 
energy

$$$$
10:0
     RDKit          3D

 39 41  0  0  0  0  0  0  0  0999 V2000
   -5.7410   25.7050  -30.0930 C   0  0  0  0  0  0  0  0  0  0  0  0
   -4.8270   24.9230  -30.8560 O   0  0  0  0  0  0  0  0  0  0  0  0
   -5.0800   23.6160  -31.3030 C   0  0  0  0  0  0  0  0  0  0  0  0
   -4.0180   22.7100  -31.3320 C   0  0  0  0  0  0  0  0  0  0  0  0
   -4.2130   21.4010  -31.7710 C   0  0  0  0  0  0  0  0  0  0  0  0
   -5.4810   20.9710  -32.1950 C   0  0  0  0  0  0  0  0  0  0  0  0
   -5.6550   19.5770  -32.6700 C   0  0  0  0  0  0  0  0  0  0  0  0
   -6.9160   18.9620  -32.6080 C   0  0  0  0  0  0  0  0  0  0  0  0
   -7.0850   17.6470  -33.0480 C   0  0  0  0  0  0  0  0  0  0  0  0
   -5.9930   16.9220  -33.5550 C   0  0  0  0  0  0  0  0  0  0  0  0
   -6.1180   15.5970  -34.0090 C   0  0  0  0  0  0  0  0  0  0  0  0
   -7.2420   15.0210  -33.9700 O   0  0  0  0  0  0  0  0  0  0  0  0
   -5.0230   14.9320  -34.4930 N   0  0  0  0  0  0  0  0  0  0  0  0
   -5.1510   13.5470  -34.9650 C   0  0  0  0  0  0  0  0  0  0  0  0
   -3.8050   15.5510  -34.5320 C   0  0  0  0  0  0  0  0  0  0  0  0
   -3.6620   16.8290  -34.0970 N   0  0  0  0  0  0  0  0  0  0  0  0
   -4.7230   17.5300  -33.6130 C   0  0  0  0  0  0  0  0  0  0  0  0
   -4.5600   18.8510  -33.1690 C   0  0  0  0  0  0  0  0  0  0  0  0
   -6.5680   21.8710  -32.1580 C   0  0  0  0  0  0  0  0  0  0  0  0
   -7.8420   21.4170  -32.5440 O   0  0  0  0  0  0  0  0  0  0  0  0
   -9.0400   21.6370  -31.8080 C   0  0  0  0  0  0  0  0  0  0  0  0
   -6.3570   23.1930  -31.7170 C   0  0  0  0  0  0  0  0  0  0  0  0
   -5.5542   25.5452  -29.0208 H   0  0  0  0  0  0  0  0  0  0  0  0
   -5.6034   26.7693  -30.3345 H   0  0  0  0  0  0  0  0  0  0  0  0
   -6.7712   25.4044  -30.3345 H   0  0  0  0  0  0  0  0  0  0  0  0
   -3.0181   23.0319  -31.0055 H   0  0  0  0  0  0  0  0  0  0  0  0
   -3.3663   20.6990  -31.7854 H   0  0  0  0  0  0  0  0  0  0  0  0
   -7.7767   19.5197  -32.2102 H   0  0  0  0  0  0  0  0  0  0  0  0
   -8.0780   17.1765  -32.9974 H   0  0  0  0  0  0  0  0  0  0  0  0
   -5.2136   12.8694  -34.1007 H   0  0  0  0  0  0  0  0  0  0  0  0
   -6.0620   13.4498  -35.5739 H   0  0  0  0  0  0  0  0  0  0  0  0
   -4.2733   13.2845  -35.5739 H   0  0  0  0  0  0  0  0  0  0  0  0
   -2.9309   15.0076  -34.9202 H   0  0  0  0  0  0  0  0  0  0  0  0
   -2.7150   17.2700  -34.1440 H   0  0  0  0  0  0  0  0  0  0  0  0
   -3.5670   19.3223  -33.2118 H   0  0  0  0  0  0  0  0  0  0  0  0
   -8.8211   21.5968  -30.7307 H   0  0  0  0  0  0  0  0  0  0  0  0
   -9.4502   22.6255  -32.0622 H   0  0  0  0  0  0  0  0  0  0  0  0
   -9.7747   20.8587  -32.0622 H   0  0  0  0  0  0  0  0  0  0  0  0
   -7.1986   23.9010  -31.6962 H   0  0  0  0  0  0  0  0  0  0  0  0
  1  2  1  0
  2  3  1  0
  3  4  2  0
  4  5  1  0
  5  6  2  0
  6  7  1  0
  7  8  2  0
  8  9  1  0
  9 10  2  0
 10 11  1  0
 11 12  2  0
 11 13  1  0
 13 14  1  0
 13 15  1  0
 15 16  2  0
 16 17  1  0
 17 18  2  0
  6 19  1  0
 19 20  1  0
 20 21  1  0
 19 22  2  0
 22  3  1  0
 18  7  1  0
 17 10  1  0
  1 23  1  0
  1 24  1  0
  1 25  1  0
  4 26  1  0
  5 27  1  0
  8 28  1  0
  9 29  1  0
 14 30  1  0
 14 31  1  0
 14 32  1  0
 15 33  1  0
 16 34  1  0
 18 35  1  0
 21 36  1  0
 21 37  1  0
 21 38  1  0
 22 39  1  0
M  CHG  1  16   1
M  END
>  <UniqueID>  (11) 
9

>  <SMILES>  (11) 
COc1ccc(-c2ccc3c(=O)n(C)c[nH+]c3c2)c(OC)c1

>  <Energy>  (11) 
52.46115287713256

>  <Genealogy>  (11) 
COc1ccc(-c2ccc3c(=O)n(C)c[nH+]c3c2)c(OC)c1 (protonated)
COc1ccc(-c2ccc3c(=O)n(C)c[nH+]c3c2)c(OC)c1 (3D coordinates assigned)
COc1ccc(-c2ccc3c(=O)n(C)c[nH+]c3c2)c(OC)c1 (optimized conformer: 52.46115287713256 kcal/mol)

>  <smiles>  (11) 
COc1ccc(-c2ccc3c(=O)n(C)cnc3c2)c(OC)c1

>  <score_type>  (11) 
oracle

>  <origin>  (11) 
adg

>  <m_score__min__energy>  (11) 
-6.54

>  <m_primary>  (11) 
energy

$$$$
11:0
     RDKit          3D

 51 54  0  0  0  0  0  0  0  0999 V2000
   -7.0286   16.8857  -34.4389 H   0  0  0  0  0  0  0  0  0  0  0  0
   -6.1010   17.4570  -34.2870 C   0  0  0  0  0  0  0  0  0  0  0  0
   -4.8640   16.8080  -34.3380 C   0  0  0  0  0  0  0  0  0  0  0  0
   -4.8189   15.7267  -34.5350 H   0  0  0  0  0  0  0  0  0  0  0  0
   -3.6840   17.5310  -34.1390 C   0  0  0  0  0  0  0  0  0  0  0  0
   -2.7120   17.0182  -34.1869 H   0  0  0  0  0  0  0  0  0  0  0  0
   -3.7360   18.9110  -33.8780 C   0  0  0  0  0  0  0  0  0  0  0  0
   -2.4600   19.6930  -33.6910 C   0  0  0  0  0  0  0  0  0  0  0  0
   -1.7262   19.3721  -34.4450 H   0  0  0  0  0  0  0  0  0  0  0  0
   -2.0747   19.5037  -32.6782 H   0  0  0  0  0  0  0  0  0  0  0  0
   -2.7070   21.1370  -33.8410 N   0  0  0  0  0  0  0  0  0  0  0  0
   -3.4480   21.2780  -34.5570 H   0  0  0  0  0  0  0  0  0  0  0  0
   -1.8430   21.5940  -34.2180 H   0  0  0  0  0  0  0  0  0  0  0  0
   -3.0210   21.7250  -32.5490 C   0  0  0  0  0  0  0  0  0  0  0  0
   -4.3460   22.1270  -32.3320 C   0  0  0  0  0  0  0  0  0  0  0  0
   -5.1137   21.8807  -33.0803 H   0  0  0  0  0  0  0  0  0  0  0  0
   -4.7110   22.8350  -31.1830 C   0  0  0  0  0  0  0  0  0  0  0  0
   -5.9480   23.2010  -30.9640 N   0  0  0  0  0  0  0  0  0  0  0  0
   -7.1530   22.5220  -31.3530 C   0  0  0  0  0  0  0  0  0  0  0  0
   -8.2890   23.2770  -31.6710 C   0  0  0  0  0  0  0  0  0  0  0  0
   -8.2375   24.3757  -31.6581 H   0  0  0  0  0  0  0  0  0  0  0  0
   -9.4890   22.6400  -32.0050 C   0  0  0  0  0  0  0  0  0  0  0  0
  -10.3727   23.2380  -32.2726 H   0  0  0  0  0  0  0  0  0  0  0  0
   -9.5660   21.2440  -31.9990 C   0  0  0  0  0  0  0  0  0  0  0  0
  -10.5070   20.7441  -32.2720 H   0  0  0  0  0  0  0  0  0  0  0  0
   -8.4470   20.4830  -31.6460 C   0  0  0  0  0  0  0  0  0  0  0  0
   -8.5580   18.5780  -31.6110 Br  0  0  0  0  0  0  0  0  0  0  0  0
   -7.2460   21.1190  -31.3120 C   0  0  0  0  0  0  0  0  0  0  0  0
   -6.3720   20.5200  -31.0165 H   0  0  0  0  0  0  0  0  0  0  0  0
   -3.7000   23.2270  -30.2880 C   0  0  0  0  0  0  0  0  0  0  0  0
   -4.0020   24.0300  -29.1660 C   0  0  0  0  0  0  0  0  0  0  0  0
   -5.0438   24.3270  -28.9752 H   0  0  0  0  0  0  0  0  0  0  0  0
   -2.9980   24.4500  -28.2990 C   0  0  0  0  0  0  0  0  0  0  0  0
   -3.2497   25.0709  -27.4266 H   0  0  0  0  0  0  0  0  0  0  0  0
   -1.6780   24.0860  -28.5340 C   0  0  0  0  0  0  0  0  0  0  0  0
   -0.4130   24.6520  -27.4570 Cl  0  0  0  0  0  0  0  0  0  0  0  0
   -1.3560   23.2800  -29.6270 C   0  0  0  0  0  0  0  0  0  0  0  0
   -0.3055   23.0051  -29.8028 H   0  0  0  0  0  0  0  0  0  0  0  0
   -2.3560   22.8080  -30.5160 C   0  0  0  0  0  0  0  0  0  0  0  0
   -2.0570   21.9760  -31.5860 N   0  0  0  0  0  0  0  0  0  0  0  0
   -0.7370   21.2990  -31.6530 C   0  0  0  0  0  0  0  0  0  0  0  0
    0.0459   22.0138  -31.3595 H   0  0  0  0  0  0  0  0  0  0  0  0
   -0.5826   20.9481  -32.6840 H   0  0  0  0  0  0  0  0  0  0  0  0
   -0.6770   20.0890  -30.7230 C   0  0  0  0  0  0  0  0  0  0  0  0
   -0.6939   20.4292  -29.6771 H   0  0  0  0  0  0  0  0  0  0  0  0
   -1.5440   19.4387  -30.9111 H   0  0  0  0  0  0  0  0  0  0  0  0
    0.2501   19.5276  -30.9111 H   0  0  0  0  0  0  0  0  0  0  0  0
   -4.9810   19.5590  -33.8450 C   0  0  0  0  0  0  0  0  0  0  0  0
   -5.0300   20.6427  -33.6627 H   0  0  0  0  0  0  0  0  0  0  0  0
   -6.1590   18.8320  -34.0430 C   0  0  0  0  0  0  0  0  0  0  0  0
   -7.1325   19.3429  -34.0067 H   0  0  0  0  0  0  0  0  0  0  0  0
  1  2  1  0
  2  3  2  0
  3  4  1  0
  3  5  1  0
  5  6  1  0
  5  7  2  0
  7  8  1  0
  8  9  1  0
  8 10  1  0
  8 11  1  0
 11 12  1  0
 11 13  1  0
 11 14  1  0
 14 15  2  0
 15 16  1  0
 15 17  1  0
 17 18  2  0
 18 19  1  0
 19 20  2  0
 20 21  1  0
 20 22  1  0
 22 23  1  0
 22 24  2  0
 24 25  1  0
 24 26  1  0
 26 27  1  0
 26 28  2  0
 28 29  1  0
 17 30  1  0
 30 31  2  0
 31 32  1  0
 31 33  1  0
 33 34  1  0
 33 35  2  0
 35 36  1  0
 35 37  1  0
 37 38  1  0
 37 39  2  0
 39 40  1  0
 40 41  1  0
 41 42  1  0
 41 43  1  0
 41 44  1  0
 44 45  1  0
 44 46  1  0
 44 47  1  0
  7 48  1  0
 48 49  1  0
 48 50  2  0
 50 51  1  0
 50  2  1  0
 40 14  1  0
 28 19  1  0
 39 30  1  0
M  CHG  1  11   1
M  END
>  <UniqueID>  (12) 
10

>  <SMILES>  (12) 
CCn1c([NH2+]Cc2ccccc2)c/c(=N\c2cccc(Br)c2)c2ccc(Cl)cc21

>  <Energy>  (12) 
80.67082866491155

>  <Genealogy>  (12) 
CCn1c([NH2+]Cc2ccccc2)cc(=Nc2cccc(Br)c2)c2ccc(Cl)cc21 (protonated)
CCn1c([NH2+]Cc2ccccc2)c/c(=N\c2cccc(Br)c2)c2ccc(Cl)cc21 (cis-trans isomerization)
CCn1c([NH2+]Cc2ccccc2)c/c(=N\c2cccc(Br)c2)c2ccc(Cl)cc21 (3D coordinates assigned)
CCn1c([NH2+]Cc2ccccc2)c/c(=N\c2cccc(Br)c2)c2ccc(Cl)cc21 (optimized conformer: 80.67082866491155 kcal/mol)

>  <smiles>  (12) 
CCn1c(NCc2ccccc2)cc(=Nc2cccc(Br)c2)c2ccc(Cl)cc21

>  <score_type>  (12) 
oracle

>  <origin>  (12) 
adg

>  <m_score__min__energy>  (12) 
-9.5299999999999994

>  <m_primary>  (12) 
energy

$$$$
12:0
     RDKit          3D

 28 29  0  0  0  0  0  0  0  0999 V2000
   -5.3730   25.2990  -30.4680 C   0  0  0  0  0  0  0  0  0  0  0  0
   -5.9230   24.1640  -31.3450 C   0  0  0  0  0  0  0  0  0  0  0  0
   -7.2310   23.7400  -30.7700 C   0  0  0  0  0  0  0  0  0  0  0  0
   -8.3900   23.0500  -31.9510 S   0  0  0  0  0  0  0  0  0  0  0  0
   -8.0110   21.3180  -32.2730 C   0  0  0  0  0  0  0  0  0  0  0  0
   -8.8700   20.3750  -31.8320 N   0  0  0  0  0  0  0  0  0  0  0  0
   -8.6610   19.0660  -32.0320 C   0  0  0  0  0  0  0  0  0  0  0  0
   -9.4670   18.1540  -31.6190 N   0  0  0  0  0  0  0  0  0  0  0  0
   -7.5050   18.7060  -32.7250 C   0  0  0  0  0  0  0  0  0  0  0  0
   -7.2360   17.3610  -32.9640 C   0  0  0  0  0  0  0  0  0  0  0  0
   -6.0780   17.0210  -33.6580 C   0  0  0  0  0  0  0  0  0  0  0  0
   -5.1990   18.0110  -34.1090 C   0  0  0  0  0  0  0  0  0  0  0  0
   -5.4770   19.3350  -33.8650 C   0  0  0  0  0  0  0  0  0  0  0  0
   -6.6340   19.7040  -33.1690 C   0  0  0  0  0  0  0  0  0  0  0  0
   -6.8830   21.0090  -32.9460 N   0  0  0  0  0  0  0  0  0  0  0  0
   -5.4999   25.0371  -29.4072 H   0  0  0  0  0  0  0  0  0  0  0  0
   -4.3044   25.4447  -30.6844 H   0  0  0  0  0  0  0  0  0  0  0  0
   -5.9209   26.2280  -30.6844 H   0  0  0  0  0  0  0  0  0  0  0  0
   -6.0652   24.5220  -32.3754 H   0  0  0  0  0  0  0  0  0  0  0  0
   -5.2196   23.3186  -31.3667 H   0  0  0  0  0  0  0  0  0  0  0  0
   -7.0347   22.9792  -30.0001 H   0  0  0  0  0  0  0  0  0  0  0  0
   -7.7023   24.6514  -30.3734 H   0  0  0  0  0  0  0  0  0  0  0  0
   -9.5660   18.0360  -30.5750 H   0  0  0  0  0  0  0  0  0  0  0  0
   -7.9263   16.5808  -32.6107 H   0  0  0  0  0  0  0  0  0  0  0  0
   -5.8519   15.9624  -33.8537 H   0  0  0  0  0  0  0  0  0  0  0  0
   -4.2876   17.7309  -34.6575 H   0  0  0  0  0  0  0  0  0  0  0  0
   -4.7837   20.1117  -34.2200 H   0  0  0  0  0  0  0  0  0  0  0  0
   -6.2200   21.7330  -33.2880 H   0  0  0  0  0  0  0  0  0  0  0  0
  1  2  1  0
  2  3  1  0
  3  4  1  0
  4  5  1  0
  5  6  2  0
  6  7  1  0
  7  8  2  3
  7  9  1  0
  9 10  2  0
 10 11  1  0
 11 12  2  0
 12 13  1  0
 13 14  2  0
 14 15  1  0
 15  5  1  0
 14  9  1  0
  1 16  1  0
  1 17  1  0
  1 18  1  0
  2 19  1  0
  2 20  1  0
  3 21  1  0
  3 22  1  0
  8 23  1  0
 10 24  1  0
 11 25  1  0
 12 26  1  0
 13 27  1  0
 15 28  1  0
M  END
>  <smiles>  (13) 
CCCSc1nc(=N)c2ccccc2[nH]1

>  <score_type>  (13) 
oracle

>  <origin>  (13) 
adg

>  <m_score__min__energy>  (13) 
-6.25

>  <m_primary>  (13) 
energy

$$$$
13:0
     RDKit          3D

 62 61  0  0  0  0  0  0  0  0999 V2000
   -2.6370   24.9520  -26.7310 C   0  0  0  0  0  0  0  0  0  0  0  0
   -1.5690   25.5830  -27.6160 C   0  0  0  0  0  0  0  0  0  0  0  0
   -0.8360   24.5260  -28.3860 C   0  0  0  0  0  0  0  0  0  0  0  0
    0.4240   24.5220  -28.3820 O   0  0  0  0  0  0  0  0  0  0  0  0
   -1.5620   23.5590  -29.1580 N   0  0  0  0  0  0  0  0  0  0  0  0
   -0.8870   22.5750  -30.0000 C   0  0  0  0  0  0  0  0  0  0  0  0
   -1.9200   21.6800  -30.6960 C   0  0  0  0  0  0  0  0  0  0  0  0
   -3.1790   21.4660  -29.8470 C   0  0  0  0  0  0  0  0  0  0  0  0
   -4.1730   22.4970  -30.1680 N   0  0  0  0  0  0  0  0  0  0  0  0
   -4.8180   23.0370  -28.9650 C   0  0  0  0  0  0  0  0  0  0  0  0
   -5.0410   24.5470  -29.1310 C   0  0  0  0  0  0  0  0  0  0  0  0
   -6.2290   24.9010  -30.0460 C   0  0  0  0  0  0  0  0  0  0  0  0
   -5.9880   24.5650  -31.5250 C   0  0  0  0  0  0  0  0  0  0  0  0
   -6.4760   23.2120  -31.8270 N   0  0  0  0  0  0  0  0  0  0  0  0
   -7.5640   22.8140  -30.9160 C   0  0  0  0  0  0  0  0  0  0  0  0
   -8.7170   22.1660  -31.6940 C   0  0  0  0  0  0  0  0  0  0  0  0
   -8.3290   20.8320  -32.3580 C   0  0  0  0  0  0  0  0  0  0  0  0
   -7.2360   20.0830  -31.5880 C   0  0  0  0  0  0  0  0  0  0  0  0
   -5.9180   20.5820  -32.0010 N   0  0  0  0  0  0  0  0  0  0  0  0
   -5.2910   19.7100  -33.0040 C   0  0  0  0  0  0  0  0  0  0  0  0
   -3.7690   19.9270  -33.0760 C   0  0  0  0  0  0  0  0  0  0  0  0
   -3.3710   21.3520  -33.4910 C   0  0  0  0  0  0  0  0  0  0  0  0
   -4.2810   22.3410  -32.9160 N   0  0  0  0  0  0  0  0  0  0  0  0
   -2.3754   25.1066  -25.6738 H   0  0  0  0  0  0  0  0  0  0  0  0
   -3.6101   25.4202  -26.9402 H   0  0  0  0  0  0  0  0  0  0  0  0
   -2.6964   23.8737  -26.9402 H   0  0  0  0  0  0  0  0  0  0  0  0
   -2.0473   26.2788  -28.3210 H   0  0  0  0  0  0  0  0  0  0  0  0
   -0.8519   26.1225  -26.9798 H   0  0  0  0  0  0  0  0  0  0  0  0
   -2.6050   23.5350  -29.0970 H   0  0  0  0  0  0  0  0  0  0  0  0
   -0.2869   23.0969  -30.7599 H   0  0  0  0  0  0  0  0  0  0  0  0
   -0.2345   21.9507  -29.3719 H   0  0  0  0  0  0  0  0  0  0  0  0
   -2.2114   22.1509  -31.6464 H   0  0  0  0  0  0  0  0  0  0  0  0
   -1.4549   20.6964  -30.8577 H   0  0  0  0  0  0  0  0  0  0  0  0
   -3.6001   20.4727  -30.0614 H   0  0  0  0  0  0  0  0  0  0  0  0
   -2.9155   21.5332  -28.7811 H   0  0  0  0  0  0  0  0  0  0  0  0
   -4.9190   22.0630  -30.7590 H   0  0  0  0  0  0  0  0  0  0  0  0
   -5.7870   22.5386  -28.8147 H   0  0  0  0  0  0  0  0  0  0  0  0
   -4.1714   22.8579  -28.0934 H   0  0  0  0  0  0  0  0  0  0  0  0
   -5.2261   24.9819  -28.1377 H   0  0  0  0  0  0  0  0  0  0  0  0
   -4.1367   24.9551  -29.6061 H   0  0  0  0  0  0  0  0  0  0  0  0
   -7.1116   24.3419  -29.7018 H   0  0  0  0  0  0  0  0  0  0  0  0
   -6.3720   25.9898  -29.9819 H   0  0  0  0  0  0  0  0  0  0  0  0
   -6.5223   25.2922  -32.1540 H   0  0  0  0  0  0  0  0  0  0  0  0
   -4.9084   24.6101  -31.7307 H   0  0  0  0  0  0  0  0  0  0  0  0
   -5.6790   22.5440  -31.7000 H   0  0  0  0  0  0  0  0  0  0  0  0
   -7.1743   22.0932  -30.1821 H   0  0  0  0  0  0  0  0  0  0  0  0
   -7.9434   23.7121  -30.4066 H   0  0  0  0  0  0  0  0  0  0  0  0
   -9.5478   21.9807  -30.9973 H   0  0  0  0  0  0  0  0  0  0  0  0
   -8.9985   22.8611  -32.4988 H   0  0  0  0  0  0  0  0  0  0  0  0
   -9.2226   20.1927  -32.4115 H   0  0  0  0  0  0  0  0  0  0  0  0
   -7.9323   21.0620  -33.3579 H   0  0  0  0  0  0  0  0  0  0  0  0
   -7.3690   20.2480  -30.5086 H   0  0  0  0  0  0  0  0  0  0  0  0
   -7.3057   19.0069  -31.8053 H   0  0  0  0  0  0  0  0  0  0  0  0
   -6.0610   21.5230  -32.4400 H   0  0  0  0  0  0  0  0  0  0  0  0
   -5.4893   18.6612  -32.7382 H   0  0  0  0  0  0  0  0  0  0  0  0
   -5.7190   19.9555  -33.9871 H   0  0  0  0  0  0  0  0  0  0  0  0
   -3.3408   19.7211  -32.0839 H   0  0  0  0  0  0  0  0  0  0  0  0
   -3.3816   19.2456  -33.8478 H   0  0  0  0  0  0  0  0  0  0  0  0
   -2.3491   21.5565  -33.1390 H   0  0  0  0  0  0  0  0  0  0  0  0
   -3.4239   21.4243  -34.5873 H   0  0  0  0  0  0  0  0  0  0  0  0
   -5.2230   22.2000  -33.3470 H   0  0  0  0  0  0  0  0  0  0  0  0
   -4.4000   22.1290  -31.8980 H   0  0  0  0  0  0  0  0  0  0  0  0
  1  2  1  0
  2  3  1  0
  3  4  2  0
  3  5  1  0
  5  6  1  0
  6  7  1  0
  7  8  1  0
  8  9  1  0
  9 10  1  0
 10 11  1  0
 11 12  1  0
 12 13  1  0
 13 14  1  0
 14 15  1  0
 15 16  1  0
 16 17  1  0
 17 18  1  0
 18 19  1  0
 19 20  1  0
 20 21  1  0
 21 22  1  0
 22 23  1  0
  1 24  1  0
  1 25  1  0
  1 26  1  0
  2 27  1  0
  2 28  1  0
  5 29  1  0
  6 30  1  0
  6 31  1  0
  7 32  1  0
  7 33  1  0
  8 34  1  0
  8 35  1  0
  9 36  1  0
 10 37  1  0
 10 38  1  0
 11 39  1  0
 11 40  1  0
 12 41  1  0
 12 42  1  0
 13 43  1  0
 13 44  1  0
 14 45  1  0
 15 46  1  0
 15 47  1  0
 16 48  1  0
 16 49  1  0
 17 50  1  0
 17 51  1  0
 18 52  1  0
 18 53  1  0
 19 54  1  0
 20 55  1  0
 20 56  1  0
 21 57  1  0
 21 58  1  0
 22 59  1  0
 22 60  1  0
 23 61  1  0
 23 62  1  0
M  END
>  <UniqueID>  (14) 
11

>  <SMILES>  (14) 
CCC(=O)NCCCNCCCCNCCCCNCCCN

>  <Energy>  (14) 
28.53509009441589

>  <Genealogy>  (14) 
CCC(=O)NCCCNCCCCNCCCCNCCCN (3D coordinates assigned)
CCC(=O)NCCCNCCCCNCCCCNCCCN (optimized conformer: 28.53509009441589 kcal/mol)

>  <smiles>  (14) 
CCC(=O)NCCCNCCCCNCCCCNCCCN

>  <score_type>  (14) 
oracle

>  <origin>  (14) 
adg

>  <m_score__min__energy>  (14) 
-4.8600000000000003

>  <m_primary>  (14) 
energy

$$$$
14:0
     RDKit          3D

 39 40  0  0  0  0  0  0  0  0999 V2000
   -6.8900   23.3540  -29.7310 C   0  0  0  0  0  0  0  0  0  0  0  0
   -6.3980   22.7840  -30.9980 N   0  0  0  0  0  0  0  0  0  0  0  0
   -5.4290   23.7070  -31.6290 C   0  0  0  0  0  0  0  0  0  0  0  0
   -5.2430   24.9780  -30.7860 C   0  0  0  0  0  0  0  0  0  0  0  0
   -3.8280   25.2890  -30.5830 N   0  0  0  0  0  0  0  0  0  0  0  0
   -2.9560   24.6870  -29.6180 C   0  0  0  0  0  0  0  0  0  0  0  0
   -2.1840   25.4270  -28.9560 O   0  0  0  0  0  0  0  0  0  0  0  0
   -2.9220   23.2300  -29.3890 C   0  0  0  0  0  0  0  0  0  0  0  0
   -2.6740   22.3470  -30.4540 C   0  0  0  0  0  0  0  0  0  0  0  0
   -2.6460   20.9670  -30.2340 C   0  0  0  0  0  0  0  0  0  0  0  0
   -2.8770   20.4560  -28.9550 C   0  0  0  0  0  0  0  0  0  0  0  0
   -3.1440   21.3250  -27.8930 C   0  0  0  0  0  0  0  0  0  0  0  0
   -3.1740   22.7070  -28.1070 C   0  0  0  0  0  0  0  0  0  0  0  0
   -3.4270   23.5350  -27.0620 F   0  0  0  0  0  0  0  0  0  0  0  0
   -7.5270   22.4880  -31.9050 C   0  0  0  0  0  0  0  0  0  0  0  0
   -7.6930   21.0000  -32.0610 C   0  0  0  0  0  0  0  0  0  0  0  0
   -8.9610   20.4030  -31.9480 C   0  0  0  0  0  0  0  0  0  0  0  0
   -9.1000   19.0180  -32.0770 C   0  0  0  0  0  0  0  0  0  0  0  0
   -7.9790   18.2200  -32.3150 C   0  0  0  0  0  0  0  0  0  0  0  0
   -6.7140   18.8060  -32.4240 C   0  0  0  0  0  0  0  0  0  0  0  0
   -6.5700   20.1900  -32.2960 C   0  0  0  0  0  0  0  0  0  0  0  0
   -6.4299   22.8209  -28.8860 H   0  0  0  0  0  0  0  0  0  0  0  0
   -6.6238   24.4201  -29.6807 H   0  0  0  0  0  0  0  0  0  0  0  0
   -7.9836   23.2464  -29.6807 H   0  0  0  0  0  0  0  0  0  0  0  0
   -4.4595   23.1969  -31.7279 H   0  0  0  0  0  0  0  0  0  0  0  0
   -5.8167   23.9975  -32.6166 H   0  0  0  0  0  0  0  0  0  0  0  0
   -5.7232   25.8221  -31.3026 H   0  0  0  0  0  0  0  0  0  0  0  0
   -5.7018   24.8070  -29.8010 H   0  0  0  0  0  0  0  0  0  0  0  0
   -2.5012   22.7438  -31.4653 H   0  0  0  0  0  0  0  0  0  0  0  0
   -2.4416   20.2820  -31.0700 H   0  0  0  0  0  0  0  0  0  0  0  0
   -2.8489   19.3699  -28.7832 H   0  0  0  0  0  0  0  0  0  0  0  0
   -3.3309   20.9212  -26.8870 H   0  0  0  0  0  0  0  0  0  0  0  0
   -8.4505   22.9146  -31.4866 H   0  0  0  0  0  0  0  0  0  0  0  0
   -7.3211   22.9312  -32.8905 H   0  0  0  0  0  0  0  0  0  0  0  0
   -9.8462   21.0276  -31.7575 H   0  0  0  0  0  0  0  0  0  0  0  0
  -10.0945   18.5558  -31.9909 H   0  0  0  0  0  0  0  0  0  0  0  0
   -8.0910   17.1305  -32.4167 H   0  0  0  0  0  0  0  0  0  0  0  0
   -5.8313   18.1768  -32.6107 H   0  0  0  0  0  0  0  0  0  0  0  0
   -5.5729   20.6470  -32.3796 H   0  0  0  0  0  0  0  0  0  0  0  0
  1  2  1  0
  2  3  1  0
  3  4  1  0
  4  5  1  0
  5  6  1  0
  6  7  2  0
  6  8  1  0
  8  9  2  0
  9 10  1  0
 10 11  2  0
 11 12  1  0
 12 13  2  0
 13 14  1  0
  2 15  1  0
 15 16  1  0
 16 17  2  0
 17 18  1  0
 18 19  2  0
 19 20  1  0
 20 21  2  0
 13  8  1  0
 21 16  1  0
  1 22  1  0
  1 23  1  0
  1 24  1  0
  3 25  1  0
  3 26  1  0
  4 27  1  0
  4 28  1  0
  9 29  1  0
 10 30  1  0
 11 31  1  0
 12 32  1  0
 15 33  1  0
 15 34  1  0
 17 35  1  0
 18 36  1  0
 19 37  1  0
 20 38  1  0
 21 39  1  0
M  CHG  1   5  -1
M  END
>  <UniqueID>  (15) 
12

>  <SMILES>  (15) 
CN(CC[N-]C(=O)c1ccccc1F)Cc1ccccc1

>  <Energy>  (15) 
42.67701972685848

>  <Genealogy>  (15) 
CN(CC[N-]C(=O)c1ccccc1F)Cc1ccccc1 (protonated)
CN(CC[N-]C(=O)c1ccccc1F)Cc1ccccc1 (3D coordinates assigned)
CN(CC[N-]C(=O)c1ccccc1F)Cc1ccccc1 (optimized conformer: 42.67701972685848 kcal/mol)

>  <smiles>  (15) 
CN(CCNC(=O)c1ccccc1F)Cc1ccccc1

>  <score_type>  (15) 
oracle

>  <origin>  (15) 
adg

>  <m_score__min__energy>  (15) 
-9.3399999999999999

>  <m_primary>  (15) 
energy

$$$$
15:0
     RDKit          3D

 53 55  0  0  0  0  0  0  0  0999 V2000
    0.5090   19.3140  -31.3670 C   0  0  0  0  0  0  0  0  0  0  0  0
    0.5090   18.7150  -30.0740 O   0  0  0  0  0  0  0  0  0  0  0  0
   -0.3980   19.0370  -29.0530 C   0  0  0  0  0  0  0  0  0  0  0  0
   -0.3800   18.2660  -27.8830 C   0  0  0  0  0  0  0  0  0  0  0  0
   -1.2640   18.5430  -26.8390 C   0  0  0  0  0  0  0  0  0  0  0  0
   -2.1750   19.5950  -26.9510 C   0  0  0  0  0  0  0  0  0  0  0  0
   -2.2090   20.3800  -28.1140 C   0  0  0  0  0  0  0  0  0  0  0  0
   -3.2030   21.5060  -28.2320 C   0  0  0  0  0  0  0  0  0  0  0  0
   -2.8250   22.4200  -29.3330 N   0  0  0  0  0  0  0  0  0  0  0  0
   -1.5150   23.0780  -29.0900 C   0  0  0  0  0  0  0  0  0  0  0  0
   -1.6700   24.4530  -28.4470 C   0  0  0  0  0  0  0  0  0  0  0  0
   -2.4310   25.2950  -29.3490 N   0  0  0  0  0  0  0  0  0  0  0  0
   -3.5380   24.7320  -30.0440 C   0  0  0  0  0  0  0  0  0  0  0  0
   -4.1930   25.4540  -30.8410 O   0  0  0  0  0  0  0  0  0  0  0  0
   -3.9620   23.3020  -29.7450 C   0  0  1  0  0  0  0  0  0  0  0  0
   -4.6600   22.6480  -30.9600 C   0  0  0  0  0  0  0  0  0  0  0  0
   -3.7300   21.8690  -31.8690 C   0  0  0  0  0  0  0  0  0  0  0  0
   -2.5650   22.3090  -32.0760 O   0  0  0  0  0  0  0  0  0  0  0  0
   -4.1740   20.6810  -32.5620 N   0  0  0  0  0  0  0  0  0  0  0  0
   -3.4990   19.3940  -32.3560 C   0  0  0  0  0  0  0  0  0  0  0  0
   -5.3420   20.7480  -33.4550 C   0  0  0  0  0  0  0  0  0  0  0  0
   -6.5290   20.0800  -32.8140 C   0  0  0  0  0  0  0  0  0  0  0  0
   -7.5630   20.8480  -32.2620 C   0  0  0  0  0  0  0  0  0  0  0  0
   -8.6690   20.2200  -31.6870 C   0  0  0  0  0  0  0  0  0  0  0  0
   -8.7330   18.8250  -31.6730 C   0  0  0  0  0  0  0  0  0  0  0  0
   -7.7240   18.0920  -32.2150 N   0  0  0  0  0  0  0  0  0  0  0  0
   -6.6360   18.6800  -32.7800 C   0  0  0  0  0  0  0  0  0  0  0  0
   -1.3170   20.0980  -29.1630 C   0  0  0  0  0  0  0  0  0  0  0  0
    1.5461   19.4681  -31.6997 H   0  0  0  0  0  0  0  0  0  0  0  0
   -0.0095   18.6532  -32.0772 H   0  0  0  0  0  0  0  0  0  0  0  0
   -0.0095   20.2831  -31.3222 H   0  0  0  0  0  0  0  0  0  0  0  0
    0.3360   17.4365  -27.7867 H   0  0  0  0  0  0  0  0  0  0  0  0
   -1.2429   17.9307  -25.9254 H   0  0  0  0  0  0  0  0  0  0  0  0
   -2.8687   19.8094  -26.1247 H   0  0  0  0  0  0  0  0  0  0  0  0
   -4.2002   21.0884  -28.4349 H   0  0  0  0  0  0  0  0  0  0  0  0
   -3.2126   22.0715  -27.2885 H   0  0  0  0  0  0  0  0  0  0  0  0
   -0.9169   22.4403  -28.4224 H   0  0  0  0  0  0  0  0  0  0  0  0
   -1.0205   23.2145  -30.0631 H   0  0  0  0  0  0  0  0  0  0  0  0
   -2.2025   24.3577  -27.4892 H   0  0  0  0  0  0  0  0  0  0  0  0
   -0.6812   24.8966  -28.2586 H   0  0  0  0  0  0  0  0  0  0  0  0
   -4.6625   23.3881  -28.9012 H   0  0  0  0  0  0  0  0  0  0  0  0
   -5.4314   21.9595  -30.5847 H   0  0  0  0  0  0  0  0  0  0  0  0
   -5.0761   23.4683  -31.5634 H   0  0  0  0  0  0  0  0  0  0  0  0
   -3.3980   19.2014  -31.2777 H   0  0  0  0  0  0  0  0  0  0  0  0
   -4.0920   18.5909  -32.8180 H   0  0  0  0  0  0  0  0  0  0  0  0
   -2.5012   19.4252  -32.8180 H   0  0  0  0  0  0  0  0  0  0  0  0
   -5.5841   21.8018  -33.6573 H   0  0  0  0  0  0  0  0  0  0  0  0
   -5.1038   20.2288  -34.3951 H   0  0  0  0  0  0  0  0  0  0  0  0
   -7.5030   21.9462  -32.2818 H   0  0  0  0  0  0  0  0  0  0  0  0
   -9.4820   20.8178  -31.2493 H   0  0  0  0  0  0  0  0  0  0  0  0
   -9.6000   18.3189  -31.2233 H   0  0  0  0  0  0  0  0  0  0  0  0
   -5.8379   18.0579  -33.2114 H   0  0  0  0  0  0  0  0  0  0  0  0
   -1.3370   20.7106  -30.0764 H   0  0  0  0  0  0  0  0  0  0  0  0
  1  2  1  0
  2  3  1  0
  3  4  2  0
  4  5  1  0
  5  6  2  0
  6  7  1  0
  7  8  1  0
  8  9  1  0
  9 10  1  0
 10 11  1  0
 11 12  1  0
 12 13  1  0
 13 14  2  0
 13 15  1  0
 15 16  1  0
 16 17  1  0
 17 18  2  0
 17 19  1  0
 19 20  1  0
 19 21  1  0
 21 22  1  0
 22 23  2  0
 23 24  1  0
 24 25  2  0
 25 26  1  0
 26 27  2  0
  7 28  2  0
 28  3  1  0
 15  9  1  0
 27 22  1  0
  1 29  1  0
  1 30  1  0
  1 31  1  0
  4 32  1  0
  5 33  1  0
  6 34  1  0
  8 35  1  0
  8 36  1  0
 10 37  1  0
 10 38  1  0
 11 39  1  0
 11 40  1  0
 15 41  1  1
 16 42  1  0
 16 43  1  0
 20 44  1  0
 20 45  1  0
 20 46  1  0
 21 47  1  0
 21 48  1  0
 23 49  1  0
 24 50  1  0
 25 51  1  0
 27 52  1  0
 28 53  1  0
M  CHG  1  12  -1
M  END
>  <UniqueID>  (16) 
13

>  <SMILES>  (16) 
COc1cccc(CN2CC[N-]C(=O)[C@H]2CC(=O)N(C)Cc2cccnc2)c1

>  <Energy>  (16) 
62.45078120959816

>  <Genealogy>  (16) 
COc1cccc(CN2CC[N-]C(=O)C2CC(=O)N(C)Cc2cccnc2)c1 (protonated)
COc1cccc(CN2CC[N-]C(=O)[C@H]2CC(=O)N(C)Cc2cccnc2)c1 (chirality)
COc1cccc(CN2CC[N-]C(=O)[C@H]2CC(=O)N(C)Cc2cccnc2)c1 (3D coordinates assigned)
COc1cccc(CN2CC[N-]C(=O)[C@H]2CC(=O)N(C)Cc2cccnc2)c1 (nonaromatic ring conformer: 62.45078120959816 kcal/mol)

>  <smiles>  (16) 
COc1cccc(CN2CCNC(=O)C2CC(=O)N(C)Cc2cccnc2)c1

>  <score_type>  (16) 
oracle

>  <origin>  (16) 
adg

>  <m_score__min__energy>  (16) 
-10.26

>  <m_primary>  (16) 
energy

$$$$
16:0
     RDKit          3D

 36 37  0  0  0  0  0  0  0  0999 V2000
   -9.1080   18.5680  -31.6180 C   0  0  0  0  0  0  0  0  0  0  0  0
   -8.9900   19.8080  -32.5060 C   0  0  0  0  0  0  0  0  0  0  0  0
   -8.2790   20.9870  -31.7810 C   0  0  2  0  0  0  0  0  0  0  0  0
   -9.2800   22.0860  -31.3780 C   0  0  0  0  0  0  0  0  0  0  0  0
   -7.1030   21.5500  -32.5170 N   0  0  2  0  0  0  0  0  0  0  0  0
   -5.8050   20.8180  -32.4090 C   0  0  0  0  0  0  0  0  0  0  0  0
   -5.7900   19.3960  -32.9170 C   0  0  0  0  0  0  0  0  0  0  0  0
   -5.8060   18.2560  -32.1170 C   0  0  0  0  0  0  0  0  0  0  0  0
   -5.9070   17.0630  -32.8410 C   0  0  0  0  0  0  0  0  0  0  0  0
   -6.0040   17.2500  -34.2130 C   0  0  0  0  0  0  0  0  0  0  0  0
   -5.9690   18.9010  -34.5180 S   0  0  0  0  0  0  0  0  0  0  0  0
   -6.9790   22.9860  -32.3260 C   0  0  0  0  0  0  0  0  0  0  0  0
   -7.5720   23.7890  -33.0970 O   0  0  0  0  0  0  0  0  0  0  0  0
   -6.1340   23.5580  -31.2520 C   0  0  0  0  0  0  0  0  0  0  0  0
   -6.5310   24.4090  -30.2220 C   0  0  0  0  0  0  0  0  0  0  0  0
   -5.4840   24.7700  -29.3630 C   0  0  0  0  0  0  0  0  0  0  0  0
   -4.2610   24.2110  -29.7080 C   0  0  0  0  0  0  0  0  0  0  0  0
   -4.4850   23.2680  -31.0790 S   0  0  0  0  0  0  0  0  0  0  0  0
   -9.0793   18.8701  -30.5607 H   0  0  0  0  0  0  0  0  0  0  0  0
  -10.0589   18.0562  -31.8274 H   0  0  0  0  0  0  0  0  0  0  0  0
   -8.2707   17.8860  -31.8274 H   0  0  0  0  0  0  0  0  0  0  0  0
   -8.4130   19.5458  -33.4051 H   0  0  0  0  0  0  0  0  0  0  0  0
  -10.0079   20.1358  -32.7639 H   0  0  0  0  0  0  0  0  0  0  0  0
   -7.8557   20.5499  -30.8646 H   0  0  0  0  0  0  0  0  0  0  0  0
   -9.3356   22.1470  -30.2811 H   0  0  0  0  0  0  0  0  0  0  0  0
   -8.9457   23.0527  -31.7825 H   0  0  0  0  0  0  0  0  0  0  0  0
  -10.2737   21.8432  -31.7825 H   0  0  0  0  0  0  0  0  0  0  0  0
   -7.3380   21.4460  -33.5320 H   0  0  0  0  0  0  0  0  0  0  0  0
   -5.0533   21.3844  -32.9784 H   0  0  0  0  0  0  0  0  0  0  0  0
   -5.6007   20.7445  -31.3306 H   0  0  0  0  0  0  0  0  0  0  0  0
   -5.7450   18.2903  -31.0192 H   0  0  0  0  0  0  0  0  0  0  0  0
   -5.9093   16.0702  -32.3674 H   0  0  0  0  0  0  0  0  0  0  0  0
   -6.0890   16.4553  -34.9687 H   0  0  0  0  0  0  0  0  0  0  0  0
   -7.5649   24.7627  -30.0957 H   0  0  0  0  0  0  0  0  0  0  0  0
   -5.6187   25.4341  -28.4965 H   0  0  0  0  0  0  0  0  0  0  0  0
   -3.3101   24.3600  -29.1755 H   0  0  0  0  0  0  0  0  0  0  0  0
  1  2  1  0
  2  3  1  0
  3  4  1  0
  3  5  1  0
  5  6  1  0
  6  7  1  0
  7  8  2  0
  8  9  1  0
  9 10  2  0
 10 11  1  0
  5 12  1  0
 12 13  2  0
 12 14  1  0
 14 15  2  0
 15 16  1  0
 16 17  2  0
 17 18  1  0
 11  7  1  0
 18 14  1  0
  1 19  1  0
  1 20  1  0
  1 21  1  0
  2 22  1  0
  2 23  1  0
  3 24  1  1
  4 25  1  0
  4 26  1  0
  4 27  1  0
  5 28  1  6
  6 29  1  0
  6 30  1  0
  8 31  1  0
  9 32  1  0
 10 33  1  0
 15 34  1  0
 16 35  1  0
 17 36  1  0
M  CHG  1   5   1
M  END
>  <UniqueID>  (17) 
14

>  <SMILES>  (17) 
CC[C@H](C)[N@H+](Cc1cccs1)C(=O)c1cccs1

>  <Energy>  (17) 
98.89752332619608

>  <Genealogy>  (17) 
CCC(C)[NH+](Cc1cccs1)C(=O)c1cccs1 (protonated)
CC[C@H](C)[N@H+](Cc1cccs1)C(=O)c1cccs1 (chirality)
CC[C@H](C)[N@H+](Cc1cccs1)C(=O)c1cccs1 (3D coordinates assigned)
CC[C@H](C)[N@H+](Cc1cccs1)C(=O)c1cccs1 (optimized conformer: 98.89752332619608 kcal/mol)

>  <smiles>  (17) 
CCC(C)N(Cc1cccs1)C(=O)c1cccs1

>  <score_type>  (17) 
oracle

>  <origin>  (17) 
adg

>  <m_score__min__energy>  (17) 
-6.0899999999999999

>  <m_primary>  (17) 
energy

$$$$
17:0
     RDKit          3D

 31 32  0  0  0  0  0  0  0  0999 V2000
   -6.4390   24.3530  -30.3560 C   0  0  0  0  0  0  0  0  0  0  0  0
   -5.3770   23.6000  -31.0460 N   0  0  0  0  0  0  0  0  0  0  0  0
   -5.8360   23.0390  -32.3360 C   0  0  0  0  0  0  0  0  0  0  0  0
   -6.8750   21.9450  -32.1920 C   0  0  0  0  0  0  0  0  0  0  0  0
   -8.2130   22.2670  -31.9080 C   0  0  0  0  0  0  0  0  0  0  0  0
   -9.1730   21.2570  -31.7840 C   0  0  0  0  0  0  0  0  0  0  0  0
   -8.8020   19.9180  -31.9380 C   0  0  0  0  0  0  0  0  0  0  0  0
   -7.4730   19.5870  -32.2120 C   0  0  0  0  0  0  0  0  0  0  0  0
   -6.5110   20.5960  -32.3370 C   0  0  0  0  0  0  0  0  0  0  0  0
   -4.7700   22.5780  -30.1670 C   0  0  0  0  0  0  0  0  0  0  0  0
   -3.8310   23.2080  -29.2280 N   0  0  0  0  0  0  0  0  0  0  0  0
   -3.2580   24.4460  -29.3650 C   0  0  0  0  0  0  0  0  0  0  0  0
   -3.4890   25.3010  -30.4450 O   0  0  0  0  0  0  0  0  0  0  0  0
   -2.3920   24.8090  -28.3390 C   0  0  0  0  0  0  0  0  0  0  0  0
   -2.3200   23.5420  -27.2340 S   0  0  0  0  0  0  0  0  0  0  0  0
   -3.3950   22.5920  -28.1020 C   0  0  0  0  0  0  0  0  0  0  0  0
   -3.7560   21.4360  -27.7510 O   0  0  0  0  0  0  0  0  0  0  0  0
   -6.3071   24.2595  -29.2680 H   0  0  0  0  0  0  0  0  0  0  0  0
   -6.3819   25.4135  -30.6425 H   0  0  0  0  0  0  0  0  0  0  0  0
   -7.4209   23.9482  -30.6425 H   0  0  0  0  0  0  0  0  0  0  0  0
   -6.2708   23.8538  -32.9335 H   0  0  0  0  0  0  0  0  0  0  0  0
   -4.9578   22.5854  -32.8188 H   0  0  0  0  0  0  0  0  0  0  0  0
   -8.5073   23.3194  -31.7824 H   0  0  0  0  0  0  0  0  0  0  0  0
  -10.2194   21.5164  -31.5654 H   0  0  0  0  0  0  0  0  0  0  0  0
   -9.5576   19.1242  -31.8433 H   0  0  0  0  0  0  0  0  0  0  0  0
   -7.1822   18.5327  -32.3296 H   0  0  0  0  0  0  0  0  0  0  0  0
   -5.4648   20.3313  -32.5498 H   0  0  0  0  0  0  0  0  0  0  0  0
   -5.5634   22.0687  -29.6004 H   0  0  0  0  0  0  0  0  0  0  0  0
   -4.2243   21.8508  -30.7862 H   0  0  0  0  0  0  0  0  0  0  0  0
   -3.7030   24.9740  -31.3760 H   0  0  0  0  0  0  0  0  0  0  0  0
   -1.8472   25.7616  -28.2629 H   0  0  0  0  0  0  0  0  0  0  0  0
  1  2  1  0
  2  3  1  0
  3  4  1  0
  4  5  2  0
  5  6  1  0
  6  7  2  0
  7  8  1  0
  8  9  2  0
  2 10  1  0
 10 11  1  0
 11 12  1  0
 12 13  1  0
 12 14  2  0
 14 15  1  0
 15 16  1  0
 16 17  2  0
  9  4  1  0
 16 11  1  0
  1 18  1  0
  1 19  1  0
  1 20  1  0
  3 21  1  0
  3 22  1  0
  5 23  1  0
  6 24  1  0
  7 25  1  0
  8 26  1  0
  9 27  1  0
 10 28  1  0
 10 29  1  0
 13 30  1  0
 14 31  1  0
M  END
>  <UniqueID>  (18) 
15

>  <SMILES>  (18) 
CN(Cc1ccccc1)Cn1c(O)csc1=O

>  <Energy>  (18) 
65.98931766066872

>  <Genealogy>  (18) 
CN(Cc1ccccc1)Cn1c(O)csc1=O (3D coordinates assigned)
CN(Cc1ccccc1)Cn1c(O)csc1=O (optimized conformer: 65.98931766066872 kcal/mol)

>  <smiles>  (18) 
CN(Cc1ccccc1)Cn1c(O)csc1=O

>  <score_type>  (18) 
oracle

>  <origin>  (18) 
adg

>  <m_score__min__energy>  (18) 
-7.1100000000000003

>  <m_primary>  (18) 
energy

$$$$
18:0
     RDKit          3D

 40 43  0  0  0  0  0  0  0  0999 V2000
   -4.5980   24.8070  -31.0570 O   0  0  0  0  0  0  0  0  0  0  0  0
   -4.4280   23.7070  -30.0470 S   0  0  0  0  0  0  0  0  0  0  0  0
   -5.7870   23.2900  -29.5570 O   0  0  0  0  0  0  0  0  0  0  0  0
   -3.4700   24.2600  -28.6760 C   0  0  0  0  0  0  0  0  0  0  0  0
   -2.1370   24.6460  -28.8730 C   0  0  0  0  0  0  0  0  0  0  0  0
   -1.3890   25.1620  -27.8100 C   0  0  0  0  0  0  0  0  0  0  0  0
   -1.9720   25.2990  -26.5460 C   0  0  0  0  0  0  0  0  0  0  0  0
   -1.2500   25.8110  -25.5200 F   0  0  0  0  0  0  0  0  0  0  0  0
   -3.3000   24.9120  -26.3440 C   0  0  0  0  0  0  0  0  0  0  0  0
   -4.0490   24.3920  -27.4040 C   0  0  0  0  0  0  0  0  0  0  0  0
   -3.5890   22.3490  -30.7980 C   0  0  0  0  0  0  0  0  0  0  0  0
   -2.4950   21.7470  -30.1610 C   0  0  0  0  0  0  0  0  0  0  0  0
   -1.8040   20.7550  -30.7830 N   0  0  0  0  0  0  0  0  0  0  0  0
   -2.1400   20.3190  -32.0260 C   0  0  0  0  0  0  0  0  0  0  0  0
   -3.2210   20.8910  -32.6990 C   0  0  0  0  0  0  0  0  0  0  0  0
   -3.9540   21.9140  -32.0810 C   0  0  0  0  0  0  0  0  0  0  0  0
   -5.0600   22.4910  -32.7210 O   0  0  0  0  0  0  0  0  0  0  0  0
   -6.3970   22.2070  -32.4120 C   0  0  0  0  0  0  0  0  0  0  0  0
   -7.2770   23.2790  -32.2220 C   0  0  0  0  0  0  0  0  0  0  0  0
   -8.6250   23.0530  -31.9330 C   0  0  0  0  0  0  0  0  0  0  0  0
   -9.1170   21.7490  -31.8510 C   0  0  0  0  0  0  0  0  0  0  0  0
   -8.2590   20.6610  -32.0660 C   0  0  0  0  0  0  0  0  0  0  0  0
   -8.7380   19.3440  -32.0260 C   0  0  0  0  0  0  0  0  0  0  0  0
   -7.8700   18.2810  -32.2770 C   0  0  0  0  0  0  0  0  0  0  0  0
   -6.5300   18.5430  -32.5670 C   0  0  0  0  0  0  0  0  0  0  0  0
   -6.0770   19.8240  -32.5980 N   0  0  0  0  0  0  0  0  0  0  0  0
   -6.8910   20.8860  -32.3480 C   0  0  0  0  0  0  0  0  0  0  0  0
   -1.6777   24.5427  -29.8672 H   0  0  0  0  0  0  0  0  0  0  0  0
   -0.3420   25.4602  -27.9680 H   0  0  0  0  0  0  0  0  0  0  0  0
   -3.7568   25.0168  -25.3488 H   0  0  0  0  0  0  0  0  0  0  0  0
   -5.0930   24.0860  -27.2410 H   0  0  0  0  0  0  0  0  0  0  0  0
   -2.1950   22.0779  -29.1558 H   0  0  0  0  0  0  0  0  0  0  0  0
   -1.5596   19.5148  -32.5019 H   0  0  0  0  0  0  0  0  0  0  0  0
   -3.4954   20.5421  -33.7055 H   0  0  0  0  0  0  0  0  0  0  0  0
   -6.9030   24.3105  -32.3011 H   0  0  0  0  0  0  0  0  0  0  0  0
   -9.3010   23.9053  -31.7695 H   0  0  0  0  0  0  0  0  0  0  0  0
  -10.1778   21.5751  -31.6177 H   0  0  0  0  0  0  0  0  0  0  0  0
   -9.7961   19.1492  -31.7972 H   0  0  0  0  0  0  0  0  0  0  0  0
   -8.2386   17.2450  -32.2466 H   0  0  0  0  0  0  0  0  0  0  0  0
   -5.8395   17.7113  -32.7708 H   0  0  0  0  0  0  0  0  0  0  0  0
  1  2  2  0
  2  3  2  0
  2  4  1  0
  4  5  2  0
  5  6  1  0
  6  7  2  0
  7  8  1  0
  7  9  1  0
  9 10  2  0
  2 11  1  0
 11 12  2  0
 12 13  1  0
 13 14  2  0
 14 15  1  0
 15 16  2  0
 16 17  1  0
 17 18  1  0
 18 19  2  0
 19 20  1  0
 20 21  2  0
 21 22  1  0
 22 23  2  0
 23 24  1  0
 24 25  2  0
 25 26  1  0
 26 27  2  0
 10  4  1  0
 16 11  1  0
 27 18  1  0
 27 22  1  0
  5 28  1  0
  6 29  1  0
  9 30  1  0
 10 31  1  0
 12 32  1  0
 14 33  1  0
 15 34  1  0
 19 35  1  0
 20 36  1  0
 21 37  1  0
 23 38  1  0
 24 39  1  0
 25 40  1  0
M  END
>  <UniqueID>  (19) 
16

>  <SMILES>  (19) 
O=S(=O)(c1ccc(F)cc1)c1cnccc1Oc1cccc2cccnc12

>  <Energy>  (19) 
56.34192040295288

>  <Genealogy>  (19) 
O=S(=O)(c1ccc(F)cc1)c1cnccc1Oc1cccc2cccnc12 (3D coordinates assigned)
O=S(=O)(c1ccc(F)cc1)c1cnccc1Oc1cccc2cccnc12 (optimized conformer: 56.34192040295288 kcal/mol)

>  <smiles>  (19) 
O=S(=O)(c1ccc(F)cc1)c1cnccc1Oc1cccc2cccnc12

>  <score_type>  (19) 
oracle

>  <origin>  (19) 
adg

>  <m_score__min__energy>  (19) 
-9.3000000000000007

>  <m_primary>  (19) 
energy

$$$$
19:0
     RDKit          3D

 42 44  0  0  0  0  0  0  0  0999 V2000
   -1.4670   17.2810  -34.7970 C   0  0  0  0  0  0  0  0  0  0  0  0
   -2.9270   17.4080  -34.6980 N   0  0  0  0  0  0  0  0  0  0  0  0
   -3.7720   16.3640  -35.2920 C   0  0  0  0  0  0  0  0  0  0  0  0
   -3.5250   18.5460  -34.0220 C   0  0  0  0  0  0  0  0  0  0  0  0
   -2.7830   19.3090  -33.0960 C   0  0  0  0  0  0  0  0  0  0  0  0
   -3.3620   20.4000  -32.4430 C   0  0  0  0  0  0  0  0  0  0  0  0
   -4.6960   20.7520  -32.6910 C   0  0  0  0  0  0  0  0  0  0  0  0
   -5.3160   21.9040  -31.9910 C   0  0  0  0  0  0  0  0  0  0  0  0
   -4.5490   23.0580  -31.7780 C   0  0  0  0  0  0  0  0  0  0  0  0
   -5.0720   24.1380  -31.0610 C   0  0  0  0  0  0  0  0  0  0  0  0
   -4.2720   25.3060  -30.8450 N   0  0  0  0  0  0  0  0  0  0  0  0
   -6.3780   24.0490  -30.5580 C   0  0  0  0  0  0  0  0  0  0  0  0
   -6.8730   25.0060  -29.9030 O   0  0  0  0  0  0  0  0  0  0  0  0
   -7.1200   22.9290  -30.7780 N   0  0  0  0  0  0  0  0  0  0  0  0
   -6.6400   21.8650  -31.4870 C   0  0  0  0  0  0  0  0  0  0  0  0
   -7.5380   20.7100  -31.7360 C   0  0  0  0  0  0  0  0  0  0  0  0
   -7.2010   19.4400  -31.2390 C   0  0  0  0  0  0  0  0  0  0  0  0
   -8.0430   18.3480  -31.4720 C   0  0  0  0  0  0  0  0  0  0  0  0
   -9.2280   18.5170  -32.1920 C   0  0  0  0  0  0  0  0  0  0  0  0
   -9.5770   19.7800  -32.6770 C   0  0  0  0  0  0  0  0  0  0  0  0
   -8.7400   20.8760  -32.4460 C   0  0  0  0  0  0  0  0  0  0  0  0
   -5.4380   20.0080  -33.6190 C   0  0  0  0  0  0  0  0  0  0  0  0
   -4.8620   18.9170  -34.2750 C   0  0  0  0  0  0  0  0  0  0  0  0
   -1.0329   17.2432  -33.7870 H   0  0  0  0  0  0  0  0  0  0  0  0
   -1.2152   16.3576  -35.3391 H   0  0  0  0  0  0  0  0  0  0  0  0
   -1.0595   18.1471  -35.3391 H   0  0  0  0  0  0  0  0  0  0  0  0
   -4.2469   15.7773  -34.4918 H   0  0  0  0  0  0  0  0  0  0  0  0
   -4.5491   16.8314  -35.9145 H   0  0  0  0  0  0  0  0  0  0  0  0
   -3.1529   15.7013  -35.9145 H   0  0  0  0  0  0  0  0  0  0  0  0
   -1.7368   19.0420  -32.8857 H   0  0  0  0  0  0  0  0  0  0  0  0
   -2.7664   20.9874  -31.7287 H   0  0  0  0  0  0  0  0  0  0  0  0
   -3.5262   23.1141  -32.1788 H   0  0  0  0  0  0  0  0  0  0  0  0
   -3.6220   25.6630  -31.5810 H   0  0  0  0  0  0  0  0  0  0  0  0
   -4.3220   25.8270  -29.9410 H   0  0  0  0  0  0  0  0  0  0  0  0
   -8.0990   22.9000  -30.4090 H   0  0  0  0  0  0  0  0  0  0  0  0
   -6.2725   19.3042  -30.6651 H   0  0  0  0  0  0  0  0  0  0  0  0
   -7.7715   17.3538  -31.0874 H   0  0  0  0  0  0  0  0  0  0  0  0
   -9.8865   17.6556  -32.3772 H   0  0  0  0  0  0  0  0  0  0  0  0
  -10.5118   19.9124  -33.2415 H   0  0  0  0  0  0  0  0  0  0  0  0
   -9.0228   21.8708  -32.8208 H   0  0  0  0  0  0  0  0  0  0  0  0
   -6.4810   20.2850  -33.8322 H   0  0  0  0  0  0  0  0  0  0  0  0
   -5.4585   18.3405  -34.9974 H   0  0  0  0  0  0  0  0  0  0  0  0
  1  2  1  0
  2  3  1  0
  2  4  1  0
  4  5  2  0
  5  6  1  0
  6  7  2  0
  7  8  1  0
  8  9  1  0
  9 10  2  0
 10 11  1  0
 10 12  1  0
 12 13  2  0
 12 14  1  0
 14 15  1  0
 15 16  1  0
 16 17  2  0
 17 18  1  0
 18 19  2  0
 19 20  1  0
 20 21  2  0
  7 22  1  0
 22 23  2  0
 23  4  1  0
 15  8  2  0
 21 16  1  0
  1 24  1  0
  1 25  1  0
  1 26  1  0
  3 27  1  0
  3 28  1  0
  3 29  1  0
  5 30  1  0
  6 31  1  0
  9 32  1  0
 11 33  1  0
 11 34  1  0
 14 35  1  0
 17 36  1  0
 18 37  1  0
 19 38  1  0
 20 39  1  0
 21 40  1  0
 22 41  1  0
 23 42  1  0
M  END
>  <UniqueID>  (20) 
17

>  <SMILES>  (20) 
CN(C)c1ccc(-c2cc(N)c(=O)[nH]c2-c2ccccc2)cc1

>  <Energy>  (20) 
58.52898017175487

>  <Genealogy>  (20) 
CN(C)c1ccc(-c2cc(N)c(=O)[nH]c2-c2ccccc2)cc1 (3D coordinates assigned)
CN(C)c1ccc(-c2cc(N)c(=O)[nH]c2-c2ccccc2)cc1 (optimized conformer: 58.52898017175487 kcal/mol)

>  <smiles>  (20) 
CN(C)c1ccc(-c2cc(N)c(=O)[nH]c2-c2ccccc2)cc1

>  <score_type>  (20) 
oracle

>  <origin>  (20) 
adg

>  <m_score__min__energy>  (20) 
-7.9900000000000002

>  <m_primary>  (20) 
energy

$$$$
20:0
     RDKit          3D

 50 53  0  0  0  0  0  0  0  0999 V2000
   -4.9910   24.2890  -31.5790 O   0  0  0  0  0  0  0  0  0  0  0  0
   -4.7550   23.1450  -31.1030 C   0  0  0  0  0  0  0  0  0  0  0  0
   -4.8760   21.9760  -31.9880 C   0  0  0  0  0  0  0  0  0  0  0  0
   -3.8320   21.4260  -32.6390 N   0  0  0  0  0  0  0  0  0  0  0  0
   -4.3000   20.4280  -33.3330 O   0  0  0  0  0  0  0  0  0  0  0  0
   -5.5980   20.3050  -33.1720 C   0  0  0  0  0  0  0  0  0  0  0  0
   -6.0350   21.2870  -32.3020 C   0  0  0  0  0  0  0  0  0  0  0  0
   -7.4530   21.6400  -31.9150 C   0  0  0  0  0  0  0  0  0  0  0  0
   -8.4810   20.5100  -32.1300 C   0  0  0  0  0  0  0  0  0  0  0  0
   -7.9470   19.1160  -31.7400 C   0  0  0  0  0  0  0  0  0  0  0  0
   -7.2210   18.3860  -32.8920 C   0  0  0  0  0  0  0  0  0  0  0  0
   -6.4430   19.2860  -33.8700 C   0  0  0  0  0  0  0  0  0  0  0  0
   -4.3260   23.0060  -29.7360 N   0  0  0  0  0  0  0  0  0  0  0  0
   -4.7490   23.9780  -28.7220 C   0  0  0  0  0  0  0  0  0  0  0  0
   -3.5230   24.5220  -27.9890 C   0  0  0  0  0  0  0  0  0  0  0  0
   -2.6530   23.4310  -27.5130 N   0  0  0  0  0  0  0  0  0  0  0  0
   -1.6520   23.7130  -26.5120 C   0  0  0  0  0  0  0  0  0  0  0  0
   -0.7200   22.7320  -26.1310 C   0  0  0  0  0  0  0  0  0  0  0  0
    0.2410   23.0090  -25.1570 C   0  0  0  0  0  0  0  0  0  0  0  0
    0.2900   24.2680  -24.5540 C   0  0  0  0  0  0  0  0  0  0  0  0
   -0.6220   25.2690  -24.9320 C   0  0  0  0  0  0  0  0  0  0  0  0
   -0.5970   26.6330  -24.2920 C   0  0  0  0  0  0  0  0  0  0  0  0
    0.7120   27.0540  -24.1390 F   0  0  0  0  0  0  0  0  0  0  0  0
   -1.1980   26.6180  -23.0460 F   0  0  0  0  0  0  0  0  0  0  0  0
   -1.2670   27.5310  -25.1020 F   0  0  0  0  0  0  0  0  0  0  0  0
   -1.5980   24.9780  -25.9010 C   0  0  0  0  0  0  0  0  0  0  0  0
   -2.9330   22.0400  -27.9060 C   0  0  0  0  0  0  0  0  0  0  0  0
   -3.3530   21.9600  -29.3820 C   0  0  0  0  0  0  0  0  0  0  0  0
   -7.4597   21.9108  -30.8489 H   0  0  0  0  0  0  0  0  0  0  0  0
   -7.7579   22.4664  -32.5738 H   0  0  0  0  0  0  0  0  0  0  0  0
   -9.3703   20.7264  -31.5198 H   0  0  0  0  0  0  0  0  0  0  0  0
   -8.7126   20.4808  -33.2049 H   0  0  0  0  0  0  0  0  0  0  0  0
   -7.2412   19.2354  -30.9047 H   0  0  0  0  0  0  0  0  0  0  0  0
   -8.8181   18.5019  -31.4679 H   0  0  0  0  0  0  0  0  0  0  0  0
   -6.5082   17.6767  -32.4461 H   0  0  0  0  0  0  0  0  0  0  0  0
   -8.0120   17.9090  -33.4893 H   0  0  0  0  0  0  0  0  0  0  0  0
   -5.7904   18.6519  -34.4881 H   0  0  0  0  0  0  0  0  0  0  0  0
   -7.1806   19.8284  -34.4797 H   0  0  0  0  0  0  0  0  0  0  0  0
   -5.2815   24.8076  -29.2100 H   0  0  0  0  0  0  0  0  0  0  0  0
   -5.4168   23.4851  -28.0002 H   0  0  0  0  0  0  0  0  0  0  0  0
   -2.9504   25.1626  -28.6758 H   0  0  0  0  0  0  0  0  0  0  0  0
   -3.8678   25.0958  -27.1161 H   0  0  0  0  0  0  0  0  0  0  0  0
   -0.7481   21.7391  -26.6037 H   0  0  0  0  0  0  0  0  0  0  0  0
    0.9626   22.2325  -24.8632 H   0  0  0  0  0  0  0  0  0  0  0  0
    1.0443   24.4769  -23.7811 H   0  0  0  0  0  0  0  0  0  0  0  0
   -2.3286   25.7498  -26.1847 H   0  0  0  0  0  0  0  0  0  0  0  0
   -2.0271   21.4343  -27.7562 H   0  0  0  0  0  0  0  0  0  0  0  0
   -3.7574   21.6591  -27.2853 H   0  0  0  0  0  0  0  0  0  0  0  0
   -2.4594   22.0783  -30.0124 H   0  0  0  0  0  0  0  0  0  0  0  0
   -3.8299   20.9826  -29.5470 H   0  0  0  0  0  0  0  0  0  0  0  0
  1  2  2  0
  2  3  1  0
  3  4  2  0
  4  5  1  0
  5  6  1  0
  6  7  2  0
  7  8  1  0
  8  9  1  0
  9 10  1  0
 10 11  1  0
 11 12  1  0
  2 13  1  0
 13 14  1  0
 14 15  1  0
 15 16  1  0
 16 17  1  0
 17 18  2  0
 18 19  1  0
 19 20  2  0
 20 21  1  0
 21 22  1  0
 22 23  1  0
 22 24  1  0
 22 25  1  0
 21 26  2  0
 16 27  1  0
 27 28  1  0
  7  3  1  0
 28 13  1  0
 12  6  1  0
 26 17  1  0
  8 29  1  0
  8 30  1  0
  9 31  1  0
  9 32  1  0
 10 33  1  0
 10 34  1  0
 11 35  1  0
 11 36  1  0
 12 37  1  0
 12 38  1  0
 14 39  1  0
 14 40  1  0
 15 41  1  0
 15 42  1  0
 18 43  1  0
 19 44  1  0
 20 45  1  0
 26 46  1  0
 27 47  1  0
 27 48  1  0
 28 49  1  0
 28 50  1  0
M  END
>  <UniqueID>  (21) 
18

>  <SMILES>  (21) 
O=C(c1noc2c1CCCCC2)N1CCN(c2cccc(C(F)(F)F)c2)CC1

>  <Energy>  (21) 
97.12934408251634

>  <Genealogy>  (21) 
O=C(c1noc2c1CCCCC2)N1CCN(c2cccc(C(F)(F)F)c2)CC1 (3D coordinates assigned)
O=C(c1noc2c1CCCCC2)N1CCN(c2cccc(C(F)(F)F)c2)CC1 (nonaromatic ring conformer: 97.12934408251634 kcal/mol)

>  <smiles>  (21) 
O=C(c1noc2c1CCCCC2)N1CCN(c2cccc(C(F)(F)F)c2)CC1

>  <score_type>  (21) 
oracle

>  <origin>  (21) 
adg

>  <m_score__min__energy>  (21) 
-7.4699999999999998

>  <m_primary>  (21) 
energy

$$$$
21:0
     RDKit          3D

 30 32  0  0  0  0  0  0  0  0999 V2000
   -5.8269   22.8593  -33.0230 H   0  0  0  0  0  0  0  0  0  0  0  0
   -6.4340   22.7710  -32.1100 C   0  0  0  0  0  0  0  0  0  0  0  0
   -7.5280   21.9910  -32.1490 C   0  0  0  0  0  0  0  0  0  0  0  0
   -7.5130   20.5390  -32.2340 C   0  0  0  0  0  0  0  0  0  0  0  0
   -6.4340   19.6700  -32.4370 C   0  0  0  0  0  0  0  0  0  0  0  0
   -5.4134   20.0612  -32.5609 H   0  0  0  0  0  0  0  0  0  0  0  0
   -6.6820   18.2900  -32.4790 C   0  0  0  0  0  0  0  0  0  0  0  0
   -5.8495   17.5886  -32.6369 H   0  0  0  0  0  0  0  0  0  0  0  0
   -7.9910   17.7990  -32.3200 C   0  0  0  0  0  0  0  0  0  0  0  0
   -8.1788   16.7157  -32.3540 H   0  0  0  0  0  0  0  0  0  0  0  0
   -9.0580   18.6890  -32.1180 C   0  0  0  0  0  0  0  0  0  0  0  0
  -10.0841   18.3138  -31.9905 H   0  0  0  0  0  0  0  0  0  0  0  0
   -8.7920   20.0600  -32.0820 C   0  0  0  0  0  0  0  0  0  0  0  0
   -9.7840   21.1530  -31.8710 C   0  0  0  0  0  0  0  0  0  0  0  0
  -10.2545   21.0663  -30.8805 H   0  0  0  0  0  0  0  0  0  0  0  0
  -10.6036   21.1240  -32.6041 H   0  0  0  0  0  0  0  0  0  0  0  0
   -8.9510   22.4480  -31.9690 C   0  0  0  0  0  0  0  0  0  0  0  0
   -9.0517   23.0417  -31.0485 H   0  0  0  0  0  0  0  0  0  0  0  0
   -9.2844   23.0888  -32.7985 H   0  0  0  0  0  0  0  0  0  0  0  0
   -6.0010   23.5160  -30.9110 C   0  0  0  0  0  0  0  0  0  0  0  0
   -6.6740   24.6690  -30.4800 C   0  0  0  0  0  0  0  0  0  0  0  0
   -7.5601   25.0288  -31.0234 H   0  0  0  0  0  0  0  0  0  0  0  0
   -6.2110   25.3570  -29.3560 C   0  0  0  0  0  0  0  0  0  0  0  0
   -6.7427   26.2533  -29.0038 H   0  0  0  0  0  0  0  0  0  0  0  0
   -5.1030   24.9210  -28.6950 N   0  0  0  0  0  0  0  0  0  0  0  0
   -4.7680   25.4480  -27.8570 H   0  0  0  0  0  0  0  0  0  0  0  0
   -4.4170   23.8220  -29.1110 C   0  0  0  0  0  0  0  0  0  0  0  0
   -3.5204   23.4959  -28.5635 H   0  0  0  0  0  0  0  0  0  0  0  0
   -4.8470   23.1070  -30.2300 C   0  0  0  0  0  0  0  0  0  0  0  0
   -4.2832   22.2277  -30.5751 H   0  0  0  0  0  0  0  0  0  0  0  0
  1  2  1  0
  2  3  2  0
  3  4  1  0
  4  5  2  0
  5  6  1  0
  5  7  1  0
  7  8  1  0
  7  9  2  0
  9 10  1  0
  9 11  1  0
 11 12  1  0
 11 13  2  0
 13 14  1  0
 14 15  1  0
 14 16  1  0
 14 17  1  0
 17 18  1  0
 17 19  1  0
  2 20  1  0
 20 21  2  0
 21 22  1  0
 21 23  1  0
 23 24  1  0
 23 25  2  0
 25 26  1  0
 25 27  1  0
 27 28  1  0
 27 29  2  0
 29 30  1  0
 17  3  1  0
 29 20  1  0
 13  4  1  0
M  CHG  1  25   1
M  END
>  <UniqueID>  (22) 
19

>  <SMILES>  (22) 
C(=C1\CCc2ccccc21)\c1cc[nH+]cc1

>  <Energy>  (22) 
50.70720542217504

>  <Genealogy>  (22) 
C(=C1CCc2ccccc21)c1cc[nH+]cc1 (protonated)
C(=C1\CCc2ccccc21)\c1cc[nH+]cc1 (cis-trans isomerization)
C(=C1\CCc2ccccc21)\c1cc[nH+]cc1 (3D coordinates assigned)
C(=C1\CCc2ccccc21)\c1cc[nH+]cc1 (nonaromatic ring conformer: 50.70720542217504 kcal/mol)

>  <smiles>  (22) 
C(=C1CCc2ccccc21)c1ccncc1

>  <score_type>  (22) 
oracle

>  <origin>  (22) 
adg

>  <m_score__min__energy>  (22) 
-7.2000000000000002

>  <m_primary>  (22) 
energy

$$$$
22:0
     RDKit          3D

 24 26  0  0  0  0  0  0  0  0999 V2000
   -6.6750   15.9700  -34.4180 F   0  0  0  0  0  0  0  0  0  0  0  0
   -6.5520   17.1920  -33.8440 C   0  0  0  0  0  0  0  0  0  0  0  0
   -7.2400   17.4810  -32.6620 C   0  0  0  0  0  0  0  0  0  0  0  0
   -7.1150   18.7410  -32.0680 C   0  0  0  0  0  0  0  0  0  0  0  0
   -6.2980   19.7240  -32.6530 C   0  0  0  0  0  0  0  0  0  0  0  0
   -6.1680   21.0530  -32.0220 C   0  0  0  0  0  0  0  0  0  0  0  0
   -7.2320   21.8060  -31.6290 N   0  0  0  0  0  0  0  0  0  0  0  0
   -6.6340   22.8990  -31.1260 C   0  0  0  0  0  0  0  0  0  0  0  0
   -7.2350   24.0250  -30.5690 C   0  0  0  0  0  0  0  0  0  0  0  0
   -6.3910   25.0520  -30.1050 C   0  0  0  0  0  0  0  0  0  0  0  0
   -4.9850   24.9270  -30.2090 C   0  0  0  0  0  0  0  0  0  0  0  0
   -4.4130   23.7720  -30.7780 C   0  0  0  0  0  0  0  0  0  0  0  0
   -5.2820   22.7800  -31.2250 C   0  0  0  0  0  0  0  0  0  0  0  0
   -5.0010   21.6340  -31.7810 O   0  0  0  0  0  0  0  0  0  0  0  0
   -5.6090   19.4230  -33.8420 C   0  0  0  0  0  0  0  0  0  0  0  0
   -5.7370   18.1620  -34.4320 C   0  0  0  0  0  0  0  0  0  0  0  0
   -7.8806   16.7164  -32.1984 H   0  0  0  0  0  0  0  0  0  0  0  0
   -7.6588   18.9639  -31.1382 H   0  0  0  0  0  0  0  0  0  0  0  0
   -8.3292   24.1090  -30.4943 H   0  0  0  0  0  0  0  0  0  0  0  0
   -6.8273   25.9577  -29.6586 H   0  0  0  0  0  0  0  0  0  0  0  0
   -4.3354   25.7360  -29.8436 H   0  0  0  0  0  0  0  0  0  0  0  0
   -3.3224   23.6583  -30.8657 H   0  0  0  0  0  0  0  0  0  0  0  0
   -4.9664   20.1835  -34.3098 H   0  0  0  0  0  0  0  0  0  0  0  0
   -5.1947   17.9333  -35.3613 H   0  0  0  0  0  0  0  0  0  0  0  0
  1  2  1  0
  2  3  2  0
  3  4  1  0
  4  5  2  0
  5  6  1  0
  6  7  2  0
  7  8  1  0
  8  9  2  0
  9 10  1  0
 10 11  2  0
 11 12  1  0
 12 13  2  0
 13 14  1  0
  5 15  1  0
 15 16  2  0
 16  2  1  0
 14  6  1  0
 13  8  1  0
  3 17  1  0
  4 18  1  0
  9 19  1  0
 10 20  1  0
 11 21  1  0
 12 22  1  0
 15 23  1  0
 16 24  1  0
M  END
>  <UniqueID>  (23) 
20

>  <SMILES>  (23) 
Fc1ccc(-c2nc3ccccc3o2)cc1

>  <Energy>  (23) 
64.53514099252702

>  <Genealogy>  (23) 
Fc1ccc(-c2nc3ccccc3o2)cc1 (3D coordinates assigned)
Fc1ccc(-c2nc3ccccc3o2)cc1 (optimized conformer: 64.53514099252702 kcal/mol)

>  <smiles>  (23) 
Fc1ccc(-c2nc3ccccc3o2)cc1

>  <score_type>  (23) 
oracle

>  <origin>  (23) 
adg

>  <m_score__min__energy>  (23) 
-5.9299999999999997

>  <m_primary>  (23) 
energy

$$$$
23:0
     RDKit          3D

 35 37  0  0  0  0  0  0  0  0999 V2000
   -3.9280   20.6430  -32.9710 C   0  0  0  0  0  0  0  0  0  0  0  0
   -4.3690   22.1000  -33.0500 C   0  0  0  0  0  0  0  0  0  0  0  0
   -4.6450   22.6220  -31.7100 N   0  0  0  0  0  0  0  0  0  0  0  0
   -3.7240   23.2010  -30.9590 N   0  0  0  0  0  0  0  0  0  0  0  0
   -4.3080   23.4640  -29.7710 C   0  0  0  0  0  0  0  0  0  0  0  0
   -3.6050   24.1190  -28.6400 C   0  0  0  0  0  0  0  0  0  0  0  0
   -4.2370   24.3120  -27.3960 C   0  0  0  0  0  0  0  0  0  0  0  0
   -3.5540   24.9320  -26.3440 C   0  0  0  0  0  0  0  0  0  0  0  0
   -2.2390   25.3640  -26.5190 C   0  0  0  0  0  0  0  0  0  0  0  0
   -1.6010   25.1780  -27.7470 C   0  0  0  0  0  0  0  0  0  0  0  0
   -2.2780   24.5590  -28.8020 C   0  0  0  0  0  0  0  0  0  0  0  0
   -5.5940   23.0480  -29.7530 N   0  0  0  0  0  0  0  0  0  0  0  0
   -5.7820   22.5320  -30.9820 C   0  0  0  0  0  0  0  0  0  0  0  0
   -7.0580   21.9300  -31.4220 C   0  0  0  0  0  0  0  0  0  0  0  0
   -8.2140   22.7150  -31.5760 C   0  0  0  0  0  0  0  0  0  0  0  0
   -9.4200   22.1250  -31.9680 C   0  0  0  0  0  0  0  0  0  0  0  0
   -9.4840   20.7480  -32.1970 C   0  0  0  0  0  0  0  0  0  0  0  0
   -8.3440   19.9580  -32.0260 C   0  0  0  0  0  0  0  0  0  0  0  0
   -7.1370   20.5440  -31.6330 C   0  0  0  0  0  0  0  0  0  0  0  0
   -3.8375   20.3440  -31.9163 H   0  0  0  0  0  0  0  0  0  0  0  0
   -4.6738   20.0066  -33.4698 H   0  0  0  0  0  0  0  0  0  0  0  0
   -2.9545   20.5270  -33.4698 H   0  0  0  0  0  0  0  0  0  0  0  0
   -3.5695   22.6963  -33.5139 H   0  0  0  0  0  0  0  0  0  0  0  0
   -5.2861   22.1635  -33.6541 H   0  0  0  0  0  0  0  0  0  0  0  0
   -5.2734   23.9733  -27.2508 H   0  0  0  0  0  0  0  0  0  0  0  0
   -4.0553   25.0793  -25.3760 H   0  0  0  0  0  0  0  0  0  0  0  0
   -1.7050   25.8510  -25.6898 H   0  0  0  0  0  0  0  0  0  0  0  0
   -0.5643   25.5190  -27.8845 H   0  0  0  0  0  0  0  0  0  0  0  0
   -1.7694   24.4147  -29.7666 H   0  0  0  0  0  0  0  0  0  0  0  0
   -6.2960   23.1110  -28.9840 H   0  0  0  0  0  0  0  0  0  0  0  0
   -8.1699   23.7978  -31.3874 H   0  0  0  0  0  0  0  0  0  0  0  0
  -10.3191   22.7456  -32.0962 H   0  0  0  0  0  0  0  0  0  0  0  0
  -10.4314   20.2860  -32.5117 H   0  0  0  0  0  0  0  0  0  0  0  0
   -8.3964   18.8733  -32.2009 H   0  0  0  0  0  0  0  0  0  0  0  0
   -6.2452   19.9165  -31.4884 H   0  0  0  0  0  0  0  0  0  0  0  0
  1  2  1  0
  2  3  1  0
  3  4  1  0
  4  5  2  0
  5  6  1  0
  6  7  2  0
  7  8  1  0
  8  9  2  0
  9 10  1  0
 10 11  2  0
  5 12  1  0
 12 13  2  0
 13 14  1  0
 14 15  2  0
 15 16  1  0
 16 17  2  0
 17 18  1  0
 18 19  2  0
 13  3  1  0
 19 14  1  0
 11  6  1  0
  1 20  1  0
  1 21  1  0
  1 22  1  0
  2 23  1  0
  2 24  1  0
  7 25  1  0
  8 26  1  0
  9 27  1  0
 10 28  1  0
 11 29  1  0
 12 30  1  0
 15 31  1  0
 16 32  1  0
 17 33  1  0
 18 34  1  0
 19 35  1  0
M  CHG  1  12   1
M  END
>  <UniqueID>  (24) 
21

>  <SMILES>  (24) 
CCn1nc(-c2ccccc2)[nH+]c1-c1ccccc1

>  <Energy>  (24) 
75.58450229783823

>  <Genealogy>  (24) 
CCn1nc(-c2ccccc2)[nH+]c1-c1ccccc1 (protonated)
CCn1nc(-c2ccccc2)[nH+]c1-c1ccccc1 (3D coordinates assigned)
CCn1nc(-c2ccccc2)[nH+]c1-c1ccccc1 (optimized conformer: 75.58450229783823 kcal/mol)

>  <smiles>  (24) 
CCn1nc(-c2ccccc2)nc1-c1ccccc1

>  <score_type>  (24) 
oracle

>  <origin>  (24) 
adg

>  <m_score__min__energy>  (24) 
-7

>  <m_primary>  (24) 
energy

$$$$
24:0
     RDKit          3D

 24 25  0  0  0  0  0  0  0  0999 V2000
   -1.9770   25.6390  -28.9690 O   0  0  0  0  0  0  0  0  0  0  0  0
   -2.8240   24.7760  -29.3260 C   0  0  0  0  0  0  0  0  0  0  0  0
   -2.9510   23.5000  -28.5590 C   0  0  0  0  0  0  0  0  0  0  0  0
   -1.6730   22.3070  -29.0840 S   0  0  0  0  0  0  0  0  0  0  0  0
   -0.3280   23.1550  -28.2590 C   0  0  0  0  0  0  0  0  0  0  0  0
    0.1180   22.8250  -27.0310 N   0  0  0  0  0  0  0  0  0  0  0  0
    1.1000   23.7280  -26.8450 C   0  0  0  0  0  0  0  0  0  0  0  0
    1.2420   24.5530  -27.8990 N   0  0  0  0  0  0  0  0  0  0  0  0
    0.3400   24.1890  -28.7940 N   0  0  0  0  0  0  0  0  0  0  0  0
   -3.6750   25.0080  -30.4550 N   0  0  0  0  0  0  0  0  0  0  0  0
   -4.8280   24.2370  -30.8230 C   0  0  0  0  0  0  0  0  0  0  0  0
   -6.1340   24.6620  -30.5150 C   0  0  0  0  0  0  0  0  0  0  0  0
   -7.2350   23.9010  -30.9200 C   0  0  0  0  0  0  0  0  0  0  0  0
   -7.0440   22.7210  -31.6430 C   0  0  0  0  0  0  0  0  0  0  0  0
   -5.7520   22.3050  -31.9710 C   0  0  0  0  0  0  0  0  0  0  0  0
   -4.6480   23.0640  -31.5710 C   0  0  0  0  0  0  0  0  0  0  0  0
   -3.3980   22.6540  -31.9030 F   0  0  0  0  0  0  0  0  0  0  0  0
   -2.8313   23.7095  -27.4858 H   0  0  0  0  0  0  0  0  0  0  0  0
   -3.9431   23.0662  -28.7529 H   0  0  0  0  0  0  0  0  0  0  0  0
    1.7158   23.7848  -25.9353 H   0  0  0  0  0  0  0  0  0  0  0  0
   -6.2890   25.5955  -29.9541 H   0  0  0  0  0  0  0  0  0  0  0  0
   -8.2535   24.2321  -30.6688 H   0  0  0  0  0  0  0  0  0  0  0  0
   -7.9111   22.1197  -31.9538 H   0  0  0  0  0  0  0  0  0  0  0  0
   -5.6025   21.3786  -32.5450 H   0  0  0  0  0  0  0  0  0  0  0  0
  1  2  2  0
  2  3  1  0
  3  4  1  0
  4  5  1  0
  5  6  1  0
  6  7  2  0
  7  8  1  0
  8  9  1  0
  2 10  1  0
 10 11  1  0
 11 12  2  0
 12 13  1  0
 13 14  2  0
 14 15  1  0
 15 16  2  0
 16 17  1  0
  9  5  2  0
 16 11  1  0
  3 18  1  0
  3 19  1  0
  7 20  1  0
 12 21  1  0
 13 22  1  0
 14 23  1  0
 15 24  1  0
M  CHG  2   8  -1  10  -1
M  END
>  <UniqueID>  (25) 
22

>  <SMILES>  (25) 
O=C(CSc1nc[n-]n1)[N-]c1ccccc1F

>  <Energy>  (25) 
54.32206763906987

>  <Genealogy>  (25) 
O=C(CSc1nc[n-]n1)[N-]c1ccccc1F (protonated)
O=C(CSc1nc[n-]n1)[N-]c1ccccc1F (3D coordinates assigned)
O=C(CSc1nc[n-]n1)[N-]c1ccccc1F (optimized conformer: 54.32206763906987 kcal/mol)

>  <smiles>  (25) 
O=C(CSc1nc[nH]n1)Nc1ccccc1F

>  <score_type>  (25) 
oracle

>  <origin>  (25) 
adg

>  <m_score__min__energy>  (25) 
-8.6199999999999992

>  <m_primary>  (25) 
energy

$$$$
25:0
     RDKit          3D

 48 51  0  0  0  0  0  0  0  0999 V2000
   -3.7490   24.5940  -26.8540 C   0  0  0  0  0  0  0  0  0  0  0  0
   -3.3670   23.5430  -27.8910 C   0  0  0  0  0  0  0  0  0  0  0  0
   -2.3730   24.2380  -29.2070 S   0  0  0  0  0  0  0  0  0  0  0  0
   -1.1290   23.4050  -29.3450 O   0  0  0  0  0  0  0  0  0  0  0  0
   -1.9780   25.6510  -28.8810 O   0  0  0  0  0  0  0  0  0  0  0  0
   -3.2350   24.1870  -30.7090 N   0  0  0  0  0  0  0  0  0  0  0  0
   -4.6410   23.9400  -30.7620 C   0  0  0  0  0  0  0  0  0  0  0  0
   -5.5180   24.8640  -30.1860 C   0  0  0  0  0  0  0  0  0  0  0  0
   -6.8960   24.6790  -30.2950 C   0  0  0  0  0  0  0  0  0  0  0  0
   -7.3830   23.5650  -30.9770 C   0  0  0  0  0  0  0  0  0  0  0  0
   -6.5180   22.6650  -31.5140 N   0  0  0  0  0  0  0  0  0  0  0  0
   -5.1670   22.8130  -31.4260 C   0  0  0  0  0  0  0  0  0  0  0  0
   -4.3040   21.8030  -31.9720 N   0  0  0  0  0  0  0  0  0  0  0  0
   -3.0280   22.0150  -32.2550 N   0  0  0  0  0  0  0  0  0  0  0  0
   -2.5330   20.8910  -32.8130 C   0  0  0  0  0  0  0  0  0  0  0  0
   -1.1370   20.7630  -33.2950 C   0  0  0  0  0  0  0  0  0  0  0  0
   -0.6490   21.5620  -34.3470 C   0  0  0  0  0  0  0  0  0  0  0  0
    0.6720   21.4290  -34.7860 C   0  0  0  0  0  0  0  0  0  0  0  0
    1.2660   22.4310  -36.0980 Cl  0  0  0  0  0  0  0  0  0  0  0  0
    1.5200   20.4970  -34.1810 C   0  0  0  0  0  0  0  0  0  0  0  0
    1.0490   19.6970  -33.1380 C   0  0  0  0  0  0  0  0  0  0  0  0
    2.1150   18.5280  -32.3800 Cl  0  0  0  0  0  0  0  0  0  0  0  0
   -0.2730   19.8270  -32.6970 C   0  0  0  0  0  0  0  0  0  0  0  0
   -3.5360   19.9350  -32.8940 C   0  0  0  0  0  0  0  0  0  0  0  0
   -4.6400   20.5460  -32.3370 C   0  0  0  0  0  0  0  0  0  0  0  0
   -5.9960   19.9770  -32.3200 C   0  0  0  0  0  0  0  0  0  0  0  0
   -7.0010   20.5450  -33.1170 C   0  0  0  0  0  0  0  0  0  0  0  0
   -8.2930   20.0110  -33.1060 C   0  0  0  0  0  0  0  0  0  0  0  0
   -8.5850   18.9000  -32.3090 C   0  0  0  0  0  0  0  0  0  0  0  0
   -9.8380   18.3830  -32.2980 F   0  0  0  0  0  0  0  0  0  0  0  0
   -7.5810   18.3180  -31.5280 C   0  0  0  0  0  0  0  0  0  0  0  0
   -6.2880   18.8510  -31.5370 C   0  0  0  0  0  0  0  0  0  0  0  0
   -3.6000   24.1839  -25.8442 H   0  0  0  0  0  0  0  0  0  0  0  0
   -3.1172   25.4849  -26.9849 H   0  0  0  0  0  0  0  0  0  0  0  0
   -4.8054   24.8713  -26.9849 H   0  0  0  0  0  0  0  0  0  0  0  0
   -2.7941   22.7455  -27.3953 H   0  0  0  0  0  0  0  0  0  0  0  0
   -4.2929   23.1478  -28.3342 H   0  0  0  0  0  0  0  0  0  0  0  0
   -5.1212   25.7368  -29.6469 H   0  0  0  0  0  0  0  0  0  0  0  0
   -7.5913   25.4045  -29.8475 H   0  0  0  0  0  0  0  0  0  0  0  0
   -8.4677   23.4145  -31.0805 H   0  0  0  0  0  0  0  0  0  0  0  0
   -1.3122   22.2965  -34.8272 H   0  0  0  0  0  0  0  0  0  0  0  0
    2.5591   20.3937  -34.5268 H   0  0  0  0  0  0  0  0  0  0  0  0
   -0.6394   19.1925  -31.8765 H   0  0  0  0  0  0  0  0  0  0  0  0
   -3.4661   18.9187  -33.3090 H   0  0  0  0  0  0  0  0  0  0  0  0
   -6.7718   21.4131  -33.7525 H   0  0  0  0  0  0  0  0  0  0  0  0
   -9.0806   20.4654  -33.7250 H   0  0  0  0  0  0  0  0  0  0  0  0
   -7.8088   17.4399  -30.9059 H   0  0  0  0  0  0  0  0  0  0  0  0
   -5.4984   18.3859  -30.9285 H   0  0  0  0  0  0  0  0  0  0  0  0
  1  2  1  0
  2  3  1  0
  3  4  2  0
  3  5  2  0
  3  6  1  0
  6  7  1  0
  7  8  2  0
  8  9  1  0
  9 10  2  0
 10 11  1  0
 11 12  2  0
 12 13  1  0
 13 14  1  0
 14 15  2  0
 15 16  1  0
 16 17  2  0
 17 18  1  0
 18 19  1  0
 18 20  2  0
 20 21  1  0
 21 22  1  0
 21 23  2  0
 15 24  1  0
 24 25  2  0
 25 26  1  0
 26 27  2  0
 27 28  1  0
 28 29  2  0
 29 30  1  0
 29 31  1  0
 31 32  2  0
 12  7  1  0
 25 13  1  0
 32 26  1  0
 23 16  1  0
  1 33  1  0
  1 34  1  0
  1 35  1  0
  2 36  1  0
  2 37  1  0
  8 38  1  0
  9 39  1  0
 10 40  1  0
 17 41  1  0
 20 42  1  0
 23 43  1  0
 24 44  1  0
 27 45  1  0
 28 46  1  0
 31 47  1  0
 32 48  1  0
M  CHG  1   6  -1
M  END
>  <UniqueID>  (26) 
23

>  <SMILES>  (26) 
CCS(=O)(=O)[N-]c1cccnc1-n1nc(-c2cc(Cl)cc(Cl)c2)cc1-c1ccc(F)cc1

>  <Energy>  (26) 
96.40778096573806

>  <Genealogy>  (26) 
CCS(=O)(=O)[N-]c1cccnc1-n1nc(-c2cc(Cl)cc(Cl)c2)cc1-c1ccc(F)cc1 (protonated)
CCS(=O)(=O)[N-]c1cccnc1-n1nc(-c2cc(Cl)cc(Cl)c2)cc1-c1ccc(F)cc1 (3D coordinates assigned)
CCS(=O)(=O)[N-]c1cccnc1-n1nc(-c2cc(Cl)cc(Cl)c2)cc1-c1ccc(F)cc1 (optimized conformer: 96.40778096573806 kcal/mol)

>  <smiles>  (26) 
CCS(=O)(=O)Nc1cccnc1-n1nc(-c2cc(Cl)cc(Cl)c2)cc1-c1ccc(F)cc1

>  <score_type>  (26) 
oracle

>  <origin>  (26) 
adg

>  <m_score__min__energy>  (26) 
-11.42

>  <m_primary>  (26) 
energy

$$$$
26:0
     RDKit          3D

 43 45  0  0  0  0  0  0  0  0999 V2000
   -7.7080   23.0850  -31.6650 S   0  0  0  0  0  0  0  0  0  0  0  0
   -6.2650   23.7380  -31.2220 C   0  0  0  0  0  0  0  0  0  0  0  0
   -6.2370   25.0730  -30.8100 C   0  0  0  0  0  0  0  0  0  0  0  0
   -5.0240   25.6470  -30.4310 C   0  0  0  0  0  0  0  0  0  0  0  0
   -3.9020   24.9370  -30.4610 O   0  0  0  0  0  0  0  0  0  0  0  0
   -3.8700   23.6640  -30.8440 C   0  0  0  0  0  0  0  0  0  0  0  0
   -2.6500   22.9820  -30.8480 C   0  0  0  0  0  0  0  0  0  0  0  0
   -2.5920   21.6470  -31.2470 C   0  0  0  0  0  0  0  0  0  0  0  0
   -3.7480   20.9710  -31.6470 C   0  0  0  0  0  0  0  0  0  0  0  0
   -3.6270   19.6310  -32.0440 O   0  0  0  0  0  0  0  0  0  0  0  0
   -2.6450   19.1420  -32.9550 C   0  0  0  0  0  0  0  0  0  0  0  0
   -3.2890   18.1810  -33.9570 C   0  0  0  0  0  0  0  0  0  0  0  0
   -4.5510   17.4380  -33.4410 C   0  0  0  0  0  0  0  0  0  0  0  0
   -5.6660   18.2810  -32.9230 N   0  0  0  0  0  0  0  0  0  0  0  0
   -6.3500   19.0760  -33.9690 C   0  0  0  0  0  0  0  0  0  0  0  0
   -7.2750   20.1430  -33.3480 C   0  0  0  0  0  0  0  0  0  0  0  0
   -7.8950   19.6900  -32.0160 C   0  0  0  0  0  0  0  0  0  0  0  0
   -8.0000   18.1670  -31.9390 C   0  0  0  0  0  0  0  0  0  0  0  0
   -6.6100   17.5090  -32.0670 C   0  0  0  0  0  0  0  0  0  0  0  0
   -4.9830   21.6500  -31.6440 C   0  0  0  0  0  0  0  0  0  0  0  0
   -5.0560   23.0010  -31.2440 C   0  0  0  0  0  0  0  0  0  0  0  0
   -7.1634   25.6657  -30.7849 H   0  0  0  0  0  0  0  0  0  0  0  0
   -4.9962   26.6970  -30.1043 H   0  0  0  0  0  0  0  0  0  0  0  0
   -1.7317   23.5005  -30.5351 H   0  0  0  0  0  0  0  0  0  0  0  0
   -1.6262   21.1205  -31.2469 H   0  0  0  0  0  0  0  0  0  0  0  0
   -2.1989   19.9884  -33.4978 H   0  0  0  0  0  0  0  0  0  0  0  0
   -1.8666   18.6063  -32.3918 H   0  0  0  0  0  0  0  0  0  0  0  0
   -3.5748   18.7592  -34.8481 H   0  0  0  0  0  0  0  0  0  0  0  0
   -2.5382   17.4033  -34.1609 H   0  0  0  0  0  0  0  0  0  0  0  0
   -4.9471   16.8383  -34.2737 H   0  0  0  0  0  0  0  0  0  0  0  0
   -4.2060   16.8552  -32.5742 H   0  0  0  0  0  0  0  0  0  0  0  0
   -5.2060   18.9770  -32.2860 H   0  0  0  0  0  0  0  0  0  0  0  0
   -5.5931   19.5763  -34.5909 H   0  0  0  0  0  0  0  0  0  0  0  0
   -6.9646   18.3949  -34.5759 H   0  0  0  0  0  0  0  0  0  0  0  0
   -6.6885   21.0565  -33.1703 H   0  0  0  0  0  0  0  0  0  0  0  0
   -8.0994   20.3192  -34.0547 H   0  0  0  0  0  0  0  0  0  0  0  0
   -7.2651   20.0476  -31.1881 H   0  0  0  0  0  0  0  0  0  0  0  0
   -8.9088   20.1109  -31.9452 H   0  0  0  0  0  0  0  0  0  0  0  0
   -8.4435   17.8855  -30.9725 H   0  0  0  0  0  0  0  0  0  0  0  0
   -8.6309   17.8171  -32.7694 H   0  0  0  0  0  0  0  0  0  0  0  0
   -6.1736   17.4176  -31.0614 H   0  0  0  0  0  0  0  0  0  0  0  0
   -6.7572   16.5303  -32.5471 H   0  0  0  0  0  0  0  0  0  0  0  0
   -5.8967   21.1228  -31.9558 H   0  0  0  0  0  0  0  0  0  0  0  0
  1  2  2  0
  2  3  1  0
  3  4  2  0
  4  5  1  0
  5  6  1  0
  6  7  2  0
  7  8  1  0
  8  9  2  0
  9 10  1  0
 10 11  1  0
 11 12  1  0
 12 13  1  0
 13 14  1  0
 14 15  1  0
 15 16  1  0
 16 17  1  0
 17 18  1  0
 18 19  1  0
  9 20  1  0
 20 21  2  0
 21  2  1  0
 21  6  1  0
 19 14  1  0
  3 22  1  0
  4 23  1  0
  7 24  1  0
  8 25  1  0
 11 26  1  0
 11 27  1  0
 12 28  1  0
 12 29  1  0
 13 30  1  0
 13 31  1  0
 14 32  1  0
 15 33  1  0
 15 34  1  0
 16 35  1  0
 16 36  1  0
 17 37  1  0
 17 38  1  0
 18 39  1  0
 18 40  1  0
 19 41  1  0
 19 42  1  0
 20 43  1  0
M  CHG  1  14   1
M  END
>  <UniqueID>  (27) 
24

>  <SMILES>  (27) 
S=c1ccoc2ccc(OCCC[NH+]3CCCCC3)cc12

>  <Energy>  (27) 
59.8516097002225

>  <Genealogy>  (27) 
S=c1ccoc2ccc(OCCC[NH+]3CCCCC3)cc12 (protonated)
S=c1ccoc2ccc(OCCC[NH+]3CCCCC3)cc12 (3D coordinates assigned)
S=c1ccoc2ccc(OCCC[NH+]3CCCCC3)cc12 (nonaromatic ring conformer: 59.8516097002225 kcal/mol)

>  <smiles>  (27) 
S=c1ccoc2ccc(OCCCN3CCCCC3)cc12

>  <score_type>  (27) 
oracle

>  <origin>  (27) 
adg

>  <m_score__min__energy>  (27) 
-7.7599999999999998

>  <m_primary>  (27) 
energy

$$$$
27:0
     RDKit          3D

 42 43  0  0  0  0  0  0  0  0999 V2000
   -2.5753   22.4827  -27.0869 H   0  0  0  0  0  0  0  0  0  0  0  0
   -2.4580   23.4840  -27.5270 C   0  0  0  0  0  0  0  0  0  0  0  0
   -1.5320   24.2670  -27.0550 N   0  0  0  0  0  0  0  0  0  0  0  0
   -1.1580   24.3700  -25.6470 C   0  0  0  0  0  0  0  0  0  0  0  0
   -0.0645   24.2976  -25.5523 H   0  0  0  0  0  0  0  0  0  0  0  0
   -1.6311   23.5531  -25.0824 H   0  0  0  0  0  0  0  0  0  0  0  0
   -1.6290   25.7120  -25.0890 C   0  0  0  0  0  0  0  0  0  0  0  0
   -1.3332   25.7850  -24.0320 H   0  0  0  0  0  0  0  0  0  0  0  0
   -2.7230   25.7669  -25.1898 H   0  0  0  0  0  0  0  0  0  0  0  0
   -1.0100   26.8820  -25.8640 C   0  0  0  0  0  0  0  0  0  0  0  0
    0.0709   26.9152  -25.6626 H   0  0  0  0  0  0  0  0  0  0  0  0
   -1.4919   27.8145  -25.5351 H   0  0  0  0  0  0  0  0  0  0  0  0
   -1.2240   26.7290  -27.3020 N   0  0  0  0  0  0  0  0  0  0  0  0
   -2.1730   26.3210  -27.4650 H   0  0  0  0  0  0  0  0  0  0  0  0
   -0.5040   26.0850  -27.7050 H   0  0  0  0  0  0  0  0  0  0  0  0
   -1.1700   27.6600  -27.7750 H   0  0  0  0  0  0  0  0  0  0  0  0
   -3.3590   23.8820  -28.6290 C   0  0  0  0  0  0  0  0  0  0  0  0
   -3.0140   24.9200  -29.4970 C   0  0  0  0  0  0  0  0  0  0  0  0
   -1.8170   25.6120  -29.3430 O   0  0  0  0  0  0  0  0  0  0  0  0
   -3.8620   25.2740  -30.4920 N   0  0  0  0  0  0  0  0  0  0  0  0
   -5.0540   24.6520  -30.6660 C   0  0  0  0  0  0  0  0  0  0  0  0
   -5.8030   25.0270  -31.6070 O   0  0  0  0  0  0  0  0  0  0  0  0
   -5.4370   23.6370  -29.8220 N   0  0  0  0  0  0  0  0  0  0  0  0
   -6.7560   22.9860  -29.9790 C   0  0  0  0  0  0  0  0  0  0  0  0
   -6.7107   21.9755  -29.5469 H   0  0  0  0  0  0  0  0  0  0  0  0
   -7.5091   23.5973  -29.4603 H   0  0  0  0  0  0  0  0  0  0  0  0
   -7.1530   22.8800  -31.4600 C   0  0  0  0  0  0  0  0  0  0  0  0
   -8.2022   23.1914  -31.5710 H   0  0  0  0  0  0  0  0  0  0  0  0
   -6.4847   23.5319  -32.0417 H   0  0  0  0  0  0  0  0  0  0  0  0
   -7.0040   21.4740  -31.9770 C   0  0  0  0  0  0  0  0  0  0  0  0
   -8.0940   20.5870  -31.9390 C   0  0  0  0  0  0  0  0  0  0  0  0
   -9.0689   20.9321  -31.5641 H   0  0  0  0  0  0  0  0  0  0  0  0
   -7.9430   19.2680  -32.3760 C   0  0  0  0  0  0  0  0  0  0  0  0
   -8.8009   18.5800  -32.3509 H   0  0  0  0  0  0  0  0  0  0  0  0
   -6.7040   18.8210  -32.8450 C   0  0  0  0  0  0  0  0  0  0  0  0
   -6.4990   17.0160  -33.4340 Br  0  0  0  0  0  0  0  0  0  0  0  0
   -5.6140   19.6960  -32.8770 C   0  0  0  0  0  0  0  0  0  0  0  0
   -4.6386   19.3445  -33.2446 H   0  0  0  0  0  0  0  0  0  0  0  0
   -5.7610   21.0160  -32.4430 C   0  0  0  0  0  0  0  0  0  0  0  0
   -4.8993   21.6994  -32.4665 H   0  0  0  0  0  0  0  0  0  0  0  0
   -4.6010   23.2550  -28.8000 C   0  0  0  0  0  0  0  0  0  0  0  0
   -4.9420   22.3300  -28.0100 O   0  0  0  0  0  0  0  0  0  0  0  0
  1  2  1  0
  2  3  2  0
  3  4  1  0
  4  5  1  0
  4  6  1  0
  4  7  1  0
  7  8  1  0
  7  9  1  0
  7 10  1  0
 10 11  1  0
 10 12  1  0
 10 13  1  0
 13 14  1  0
 13 15  1  0
 13 16  1  0
  2 17  1  0
 17 18  2  0
 18 19  1  0
 18 20  1  0
 20 21  1  0
 21 22  2  0
 21 23  1  0
 23 24  1  0
 24 25  1  0
 24 26  1  0
 24 27  1  0
 27 28  1  0
 27 29  1  0
 27 30  1  0
 30 31  2  0
 31 32  1  0
 31 33  1  0
 33 34  1  0
 33 35  2  0
 35 36  1  0
 35 37  1  0
 37 38  1  0
 37 39  2  0
 39 40  1  0
 23 41  1  0
 41 42  2  0
 41 17  1  0
 39 30  1  0
M  CHG  3  13   1  19  -1  20  -1
M  END
>  <UniqueID>  (28) 
25

>  <SMILES>  (28) 
[NH3+]CCC/N=C\c1c([O-])[n-]c(=O)n(CCc2ccc(Br)cc2)c1=O

>  <Energy>  (28) 
44.724970632110825

>  <Genealogy>  (28) 
[NH3+]CCCN=Cc1c([O-])[n-]c(=O)n(CCc2ccc(Br)cc2)c1=O (protonated)
[NH3+]CCC/N=C\c1c([O-])[n-]c(=O)n(CCc2ccc(Br)cc2)c1=O (cis-trans isomerization)
[NH3+]CCC/N=C\c1c([O-])[n-]c(=O)n(CCc2ccc(Br)cc2)c1=O (3D coordinates assigned)
[NH3+]CCC/N=C\c1c([O-])[n-]c(=O)n(CCc2ccc(Br)cc2)c1=O (optimized conformer: 44.724970632110825 kcal/mol)

>  <smiles>  (28) 
NCCCN=Cc1c(O)[nH]c(=O)n(CCc2ccc(Br)cc2)c1=O

>  <score_type>  (28) 
oracle

>  <origin>  (28) 
adg

>  <m_score__min__energy>  (28) 
-10.74

>  <m_primary>  (28) 
energy

$$$$
28:0
     RDKit          3D

 34 36  0  0  0  0  0  0  0  0999 V2000
   -1.5960   25.2280  -28.1500 C   0  0  0  0  0  0  0  0  0  0  0  0
   -2.3670   25.2970  -29.3440 O   0  0  0  0  0  0  0  0  0  0  0  0
   -3.0730   24.2180  -29.8970 C   0  0  0  0  0  0  0  0  0  0  0  0
   -2.4110   22.9990  -30.0420 C   0  0  0  0  0  0  0  0  0  0  0  0
   -3.0580   21.8890  -30.5900 C   0  0  0  0  0  0  0  0  0  0  0  0
   -4.3990   21.9740  -31.0250 C   0  0  0  0  0  0  0  0  0  0  0  0
   -5.0790   20.8590  -31.6150 C   0  0  0  0  0  0  0  0  0  0  0  0
   -4.3450   19.5800  -31.9390 C   0  0  0  0  0  0  0  0  0  0  0  0
   -6.4600   21.0130  -31.8840 C   0  0  0  0  0  0  0  0  0  0  0  0
   -7.4870   20.1610  -32.3260 C   0  0  0  0  0  0  0  0  0  0  0  0
   -7.4470   18.6910  -32.6290 C   0  0  0  0  0  0  0  0  0  0  0  0
   -6.7800   18.0070  -31.6300 F   0  0  0  0  0  0  0  0  0  0  0  0
   -8.7370   18.1950  -32.7010 F   0  0  0  0  0  0  0  0  0  0  0  0
   -6.8320   18.4760  -33.8490 F   0  0  0  0  0  0  0  0  0  0  0  0
   -8.6370   20.8710  -32.4130 N   0  0  0  0  0  0  0  0  0  0  0  0
   -8.3890   22.1160  -32.0400 N   0  0  0  0  0  0  0  0  0  0  0  0
   -9.4050   23.1610  -31.9740 C   0  0  0  0  0  0  0  0  0  0  0  0
   -7.0930   22.2200  -31.7030 C   0  0  0  0  0  0  0  0  0  0  0  0
   -6.4370   23.3400  -31.2060 C   0  0  0  0  0  0  0  0  0  0  0  0
   -5.0850   23.2170  -30.8470 C   0  0  0  0  0  0  0  0  0  0  0  0
   -4.4150   24.3230  -30.2980 C   0  0  0  0  0  0  0  0  0  0  0  0
   -2.2641   25.2878  -27.2782 H   0  0  0  0  0  0  0  0  0  0  0  0
   -1.0440   24.2769  -28.1244 H   0  0  0  0  0  0  0  0  0  0  0  0
   -0.8839   26.0660  -28.1244 H   0  0  0  0  0  0  0  0  0  0  0  0
   -1.3630   22.9104  -29.7198 H   0  0  0  0  0  0  0  0  0  0  0  0
   -2.5161   20.9364  -30.6840 H   0  0  0  0  0  0  0  0  0  0  0  0
   -4.0560   19.0764  -31.0048 H   0  0  0  0  0  0  0  0  0  0  0  0
   -5.0011   18.9189  -32.5241 H   0  0  0  0  0  0  0  0  0  0  0  0
   -3.4431   19.8129  -32.5241 H   0  0  0  0  0  0  0  0  0  0  0  0
   -9.6276   23.3900  -30.9214 H   0  0  0  0  0  0  0  0  0  0  0  0
   -9.0327   24.0665  -32.4754 H   0  0  0  0  0  0  0  0  0  0  0  0
  -10.3206   22.8144  -32.4754 H   0  0  0  0  0  0  0  0  0  0  0  0
   -6.9640   24.2993  -31.0965 H   0  0  0  0  0  0  0  0  0  0  0  0
   -4.9459   25.2793  -30.1812 H   0  0  0  0  0  0  0  0  0  0  0  0
  1  2  1  0
  2  3  1  0
  3  4  2  0
  4  5  1  0
  5  6  2  0
  6  7  1  0
  7  8  1  0
  7  9  2  0
  9 10  1  0
 10 11  1  0
 11 12  1  0
 11 13  1  0
 11 14  1  0
 10 15  2  0
 15 16  1  0
 16 17  1  0
 16 18  1  0
 18 19  2  0
 19 20  1  0
 20 21  2  0
 21  3  1  0
 20  6  1  0
 18  9  1  0
  1 22  1  0
  1 23  1  0
  1 24  1  0
  4 25  1  0
  5 26  1  0
  8 27  1  0
  8 28  1  0
  8 29  1  0
 17 30  1  0
 17 31  1  0
 17 32  1  0
 19 33  1  0
 21 34  1  0
M  END
>  <UniqueID>  (29) 
26

>  <SMILES>  (29) 
COc1ccc2c(C)c3c(C(F)(F)F)nn(C)c3cc2c1

>  <Energy>  (29) 
83.08458258452791

>  <Genealogy>  (29) 
COc1ccc2c(C)c3c(C(F)(F)F)nn(C)c3cc2c1 (3D coordinates assigned)
COc1ccc2c(C)c3c(C(F)(F)F)nn(C)c3cc2c1 (optimized conformer: 83.08458258452791 kcal/mol)

>  <smiles>  (29) 
COc1ccc2c(C)c3c(C(F)(F)F)nn(C)c3cc2c1

>  <score_type>  (29) 
oracle

>  <origin>  (29) 
adg

>  <m_score__min__energy>  (29) 
-7.1699999999999999

>  <m_primary>  (29) 
energy

$$$$
29:0
     RDKit          3D

 55 57  0  0  0  0  0  0  0  0999 V2000
   -7.9710   18.7490  -32.3350 C   0  0  0  0  0  0  0  0  0  0  0  0
   -7.1230   19.7670  -32.8580 O   0  0  0  0  0  0  0  0  0  0  0  0
   -6.9970   21.0520  -32.3080 C   0  0  0  0  0  0  0  0  0  0  0  0
   -8.1140   21.8340  -31.9560 C   0  0  0  0  0  0  0  0  0  0  0  0
   -7.9340   23.1160  -31.4310 C   0  0  0  0  0  0  0  0  0  0  0  0
   -6.6470   23.6250  -31.2430 C   0  0  0  0  0  0  0  0  0  0  0  0
   -5.5270   22.8490  -31.5620 C   0  0  0  0  0  0  0  0  0  0  0  0
   -4.2230   23.4210  -31.3880 N   0  0  0  0  0  0  0  0  0  0  0  0
   -3.8580   24.4440  -30.4500 C   0  0  0  0  0  0  0  0  0  0  0  0
   -3.9120   25.6570  -30.7910 O   0  0  0  0  0  0  0  0  0  0  0  0
   -3.3950   24.0780  -29.1330 N   0  0  0  0  0  0  0  0  0  0  0  0
   -2.3510   24.8810  -28.4780 C   0  0  0  0  0  0  0  0  0  0  0  0
   -0.9620   24.5040  -29.0130 C   0  0  0  0  0  0  0  0  0  0  0  0
    0.0860   24.9190  -28.0520 N   0  0  0  0  0  0  0  0  0  0  0  0
    1.0010   23.8120  -27.6900 C   0  0  0  0  0  0  0  0  0  0  0  0
    0.3270   22.7390  -26.8060 C   0  0  0  0  0  0  0  0  0  0  0  0
   -0.8140   23.3040  -25.9460 C   0  0  0  0  0  0  0  0  0  0  0  0
   -0.5610   24.7680  -25.5950 C   0  0  0  0  0  0  0  0  0  0  0  0
   -0.4340   25.6430  -26.8610 C   0  0  0  0  0  0  0  0  0  0  0  0
   -3.9060   22.8740  -28.4610 C   0  0  0  0  0  0  0  0  0  0  0  0
   -2.8690   21.7860  -28.4880 C   0  0  0  0  0  0  0  0  0  0  0  0
   -2.7210   20.9220  -27.3900 C   0  0  0  0  0  0  0  0  0  0  0  0
   -1.7930   19.8780  -27.4340 C   0  0  0  0  0  0  0  0  0  0  0  0
   -1.0110   19.6820  -28.5760 C   0  0  0  0  0  0  0  0  0  0  0  0
   -0.1150   18.6660  -28.6190 F   0  0  0  0  0  0  0  0  0  0  0  0
   -1.1560   20.5330  -29.6760 C   0  0  0  0  0  0  0  0  0  0  0  0
   -2.0830   21.5800  -29.6350 C   0  0  0  0  0  0  0  0  0  0  0  0
   -5.7100   21.5680  -32.1130 C   0  0  0  0  0  0  0  0  0  0  0  0
   -7.9456   18.7795  -31.2357 H   0  0  0  0  0  0  0  0  0  0  0  0
   -9.0012   18.9155  -32.6827 H   0  0  0  0  0  0  0  0  0  0  0  0
   -7.6211   17.7658  -32.6827 H   0  0  0  0  0  0  0  0  0  0  0  0
   -9.1296   21.4348  -32.0946 H   0  0  0  0  0  0  0  0  0  0  0  0
   -8.8091   23.7269  -31.1647 H   0  0  0  0  0  0  0  0  0  0  0  0
   -6.5131   24.6406  -30.8423 H   0  0  0  0  0  0  0  0  0  0  0  0
   -2.5374   25.9468  -28.6762 H   0  0  0  0  0  0  0  0  0  0  0  0
   -2.3792   24.6838  -27.3962 H   0  0  0  0  0  0  0  0  0  0  0  0
   -0.9116   23.4147  -29.1576 H   0  0  0  0  0  0  0  0  0  0  0  0
   -0.7946   25.0181  -29.9710 H   0  0  0  0  0  0  0  0  0  0  0  0
    1.3553   23.3329  -28.6147 H   0  0  0  0  0  0  0  0  0  0  0  0
    1.8292   24.2449  -27.1097 H   0  0  0  0  0  0  0  0  0  0  0  0
   -0.0811   21.9526  -27.4580 H   0  0  0  0  0  0  0  0  0  0  0  0
    1.0932   22.3461  -26.1215 H   0  0  0  0  0  0  0  0  0  0  0  0
   -1.7583   23.2260  -26.5048 H   0  0  0  0  0  0  0  0  0  0  0  0
   -0.8696   22.7244  -25.0128 H   0  0  0  0  0  0  0  0  0  0  0  0
   -1.3993   25.1393  -24.9872 H   0  0  0  0  0  0  0  0  0  0  0  0
    0.3857   24.8294  -25.0383 H   0  0  0  0  0  0  0  0  0  0  0  0
   -1.4295   26.0412  -27.1066 H   0  0  0  0  0  0  0  0  0  0  0  0
    0.2949   26.4331  -26.6278 H   0  0  0  0  0  0  0  0  0  0  0  0
   -4.1509   23.1169  -27.4165 H   0  0  0  0  0  0  0  0  0  0  0  0
   -4.8072   22.5246  -28.9860 H   0  0  0  0  0  0  0  0  0  0  0  0
   -3.3385   21.0680  -26.4915 H   0  0  0  0  0  0  0  0  0  0  0  0
   -1.6777   19.2092  -26.5683 H   0  0  0  0  0  0  0  0  0  0  0  0
   -0.5405   20.3791  -30.5746 H   0  0  0  0  0  0  0  0  0  0  0  0
   -2.1973   22.2448  -30.5039 H   0  0  0  0  0  0  0  0  0  0  0  0
   -4.8335   20.9655  -32.3935 H   0  0  0  0  0  0  0  0  0  0  0  0
  1  2  1  0
  2  3  1  0
  3  4  2  0
  4  5  1  0
  5  6  2  0
  6  7  1  0
  7  8  1  0
  8  9  1  0
  9 10  2  0
  9 11  1  0
 11 12  1  0
 12 13  1  0
 13 14  1  0
 14 15  1  0
 15 16  1  0
 16 17  1  0
 17 18  1  0
 18 19  1  0
 11 20  1  0
 20 21  1  0
 21 22  2  0
 22 23  1  0
 23 24  2  0
 24 25  1  0
 24 26  1  0
 26 27  2  0
  7 28  2  0
 28  3  1  0
 19 14  1  0
 27 21  1  0
  1 29  1  0
  1 30  1  0
  1 31  1  0
  4 32  1  0
  5 33  1  0
  6 34  1  0
 12 35  1  0
 12 36  1  0
 13 37  1  0
 13 38  1  0
 15 39  1  0
 15 40  1  0
 16 41  1  0
 16 42  1  0
 17 43  1  0
 17 44  1  0
 18 45  1  0
 18 46  1  0
 19 47  1  0
 19 48  1  0
 20 49  1  0
 20 50  1  0
 22 51  1  0
 23 52  1  0
 26 53  1  0
 27 54  1  0
 28 55  1  0
M  CHG  1   8  -1
M  END
>  <UniqueID>  (30) 
27

>  <SMILES>  (30) 
COc1cccc([N-]C(=O)N(CCN2CCCCC2)Cc2ccc(F)cc2)c1

>  <Energy>  (30) 
62.289420581114186

>  <Genealogy>  (30) 
COc1cccc([N-]C(=O)N(CCN2CCCCC2)Cc2ccc(F)cc2)c1 (protonated)
COc1cccc([N-]C(=O)N(CCN2CCCCC2)Cc2ccc(F)cc2)c1 (3D coordinates assigned)
COc1cccc([N-]C(=O)N(CCN2CCCCC2)Cc2ccc(F)cc2)c1 (nonaromatic ring conformer: 62.289420581114186 kcal/mol)

>  <smiles>  (30) 
COc1cccc(NC(=O)N(CCN2CCCCC2)Cc2ccc(F)cc2)c1

>  <score_type>  (30) 
oracle

>  <origin>  (30) 
adg

>  <m_score__min__energy>  (30) 
-9.5899999999999999

>  <m_primary>  (30) 
energy

$$$$
30:0
     RDKit          3D

 39 41  0  0  0  0  0  0  0  0999 V2000
   -1.3450   23.8660  -28.0670 C   0  0  0  0  0  0  0  0  0  0  0  0
   -1.3640   25.1360  -28.6020 C   0  0  0  0  0  0  0  0  0  0  0  0
   -2.4530   25.2970  -29.3170 O   0  0  0  0  0  0  0  0  0  0  0  0
   -3.1570   24.1870  -29.2800 C   0  0  0  0  0  0  0  0  0  0  0  0
   -4.4500   24.0150  -29.9810 C   0  0  0  0  0  0  0  0  0  0  0  0
   -5.6590   24.4640  -29.4240 C   0  0  0  0  0  0  0  0  0  0  0  0
   -6.8580   24.2850  -30.1160 C   0  0  0  0  0  0  0  0  0  0  0  0
   -6.8440   23.6600  -31.3650 C   0  0  0  0  0  0  0  0  0  0  0  0
   -8.3780   23.4250  -32.2650 S   0  0  0  0  0  0  0  0  0  0  0  0
   -8.6880   21.7730  -31.5420 C   0  0  0  0  0  0  0  0  0  0  0  0
   -8.3740   20.6250  -32.5220 C   0  0  0  0  0  0  0  0  0  0  0  0
   -6.8490   20.4360  -32.7080 C   0  0  0  0  0  0  0  0  0  0  0  0
   -6.5490   19.1080  -33.4100 C   0  0  0  0  0  0  0  0  0  0  0  0
   -7.0370   17.8960  -32.5890 C   0  0  0  0  0  0  0  0  0  0  0  0
   -8.1710   18.2320  -31.6010 C   0  0  0  0  0  0  0  0  0  0  0  0
   -9.1140   19.3060  -32.1590 C   0  0  0  0  0  0  0  0  0  0  0  0
   -5.6680   23.2250  -31.8950 N   0  0  0  0  0  0  0  0  0  0  0  0
   -4.4870   23.3890  -31.2380 C   0  0  0  0  0  0  0  0  0  0  0  0
   -2.4980   23.2500  -28.5010 C   0  0  0  0  0  0  0  0  0  0  0  0
   -0.5660   23.4318  -27.4231 H   0  0  0  0  0  0  0  0  0  0  0  0
   -0.5853   25.8985  -28.4526 H   0  0  0  0  0  0  0  0  0  0  0  0
   -5.6608   24.9575  -28.4409 H   0  0  0  0  0  0  0  0  0  0  0  0
   -7.8064   24.6334  -29.6811 H   0  0  0  0  0  0  0  0  0  0  0  0
   -8.0565   21.6558  -30.6490 H   0  0  0  0  0  0  0  0  0  0  0  0
   -9.7582   21.7146  -31.2946 H   0  0  0  0  0  0  0  0  0  0  0  0
   -8.7745   20.9204  -33.5030 H   0  0  0  0  0  0  0  0  0  0  0  0
   -6.4543   21.2631  -33.3164 H   0  0  0  0  0  0  0  0  0  0  0  0
   -6.3705   20.4281  -31.7176 H   0  0  0  0  0  0  0  0  0  0  0  0
   -7.0538   19.1012  -34.3873 H   0  0  0  0  0  0  0  0  0  0  0  0
   -5.4582   19.0234  -33.5244 H   0  0  0  0  0  0  0  0  0  0  0  0
   -7.4011   17.1278  -33.2871 H   0  0  0  0  0  0  0  0  0  0  0  0
   -6.1821   17.5485  -31.9904 H   0  0  0  0  0  0  0  0  0  0  0  0
   -8.7506   17.3188  -31.4004 H   0  0  0  0  0  0  0  0  0  0  0  0
   -7.7161   18.6225  -30.6787 H   0  0  0  0  0  0  0  0  0  0  0  0
   -9.5977   18.9130  -33.0654 H   0  0  0  0  0  0  0  0  0  0  0  0
   -9.8489   19.5423  -31.3754 H   0  0  0  0  0  0  0  0  0  0  0  0
   -5.6660   22.7580  -32.8290 H   0  0  0  0  0  0  0  0  0  0  0  0
   -3.5539   23.0283  -31.6953 H   0  0  0  0  0  0  0  0  0  0  0  0
   -2.8276   22.2251  -28.2755 H   0  0  0  0  0  0  0  0  0  0  0  0
  1  2  2  0
  2  3  1  0
  3  4  1  0
  4  5  1  0
  5  6  2  0
  6  7  1  0
  7  8  2  0
  8  9  1  0
  9 10  1  0
 10 11  1  0
 11 12  1  0
 12 13  1  0
 13 14  1  0
 14 15  1  0
 15 16  1  0
  8 17  1  0
 17 18  2  0
  4 19  2  0
 19  1  1  0
 18  5  1  0
 16 11  1  0
  1 20  1  0
  2 21  1  0
  6 22  1  0
  7 23  1  0
 10 24  1  0
 10 25  1  0
 11 26  1  0
 12 27  1  0
 12 28  1  0
 13 29  1  0
 13 30  1  0
 14 31  1  0
 14 32  1  0
 15 33  1  0
 15 34  1  0
 16 35  1  0
 16 36  1  0
 17 37  1  0
 18 38  1  0
 19 39  1  0
M  CHG  1  17   1
M  END
>  <UniqueID>  (31) 
28

>  <SMILES>  (31) 
c1coc(-c2ccc(SCC3CCCCC3)[nH+]c2)c1

>  <Energy>  (31) 
64.6633049296153

>  <Genealogy>  (31) 
c1coc(-c2ccc(SCC3CCCCC3)[nH+]c2)c1 (protonated)
c1coc(-c2ccc(SCC3CCCCC3)[nH+]c2)c1 (3D coordinates assigned)
c1coc(-c2ccc(SCC3CCCCC3)[nH+]c2)c1 (nonaromatic ring conformer: 64.6633049296153 kcal/mol)

>  <smiles>  (31) 
c1coc(-c2ccc(SCC3CCCCC3)nc2)c1

>  <score_type>  (31) 
oracle

>  <origin>  (31) 
adg

>  <m_score__min__energy>  (31) 
-8.0999999999999996

>  <m_primary>  (31) 
energy

$$$$
31:0
     RDKit          3D

 36 38  0  0  0  0  0  0  0  0999 V2000
   -6.0130   26.1436  -31.5084 H   0  0  0  0  0  0  0  0  0  0  0  0
   -5.4500   25.3280  -31.0310 C   0  0  0  0  0  0  0  0  0  0  0  0
   -4.2390   25.5800  -30.4670 N   0  0  0  0  0  0  0  0  0  0  0  0
   -3.5040   24.6130  -29.8550 C   0  0  0  0  0  0  0  0  0  0  0  0
   -2.3520   24.9440  -29.3390 N   0  0  0  0  0  0  0  0  0  0  0  0
   -1.7400   24.4210  -28.1160 C   0  0  0  0  0  0  0  0  0  0  0  0
   -0.6952   24.7607  -28.0619 H   0  0  0  0  0  0  0  0  0  0  0  0
   -1.7846   23.3222  -28.1416 H   0  0  0  0  0  0  0  0  0  0  0  0
   -2.4900   24.9120  -26.8820 C   0  0  0  0  0  0  0  0  0  0  0  0
   -1.9683   24.5705  -25.9758 H   0  0  0  0  0  0  0  0  0  0  0  0
   -2.5294   26.0113  -26.8901 H   0  0  0  0  0  0  0  0  0  0  0  0
   -3.5132   24.5084  -26.8901 H   0  0  0  0  0  0  0  0  0  0  0  0
   -4.0160   23.3000  -29.7940 C   0  0  0  0  0  0  0  0  0  0  0  0
   -3.4419   22.5034  -29.2981 H   0  0  0  0  0  0  0  0  0  0  0  0
   -5.2570   23.0200  -30.3680 C   0  0  0  0  0  0  0  0  0  0  0  0
   -5.6661   22.0001  -30.3190 H   0  0  0  0  0  0  0  0  0  0  0  0
   -5.9830   24.0330  -31.0060 C   0  0  0  0  0  0  0  0  0  0  0  0
   -7.3390   23.7490  -31.5920 C   0  0  0  0  0  0  0  0  0  0  0  0
   -8.1160   24.1316  -30.9138 H   0  0  0  0  0  0  0  0  0  0  0  0
   -7.4197   24.2448  -32.5706 H   0  0  0  0  0  0  0  0  0  0  0  0
   -7.5220   22.2720  -31.7730 C   0  0  0  0  0  0  0  0  0  0  0  0
   -6.6820   21.5870  -32.5970 N   0  0  0  0  0  0  0  0  0  0  0  0
   -6.7790   20.2420  -32.7690 C   0  0  0  0  0  0  0  0  0  0  0  0
   -5.9000   19.5770  -33.6310 C   0  0  0  0  0  0  0  0  0  0  0  0
   -5.1286   20.1431  -34.1736 H   0  0  0  0  0  0  0  0  0  0  0  0
   -6.0020   18.1920  -33.8030 C   0  0  0  0  0  0  0  0  0  0  0  0
   -5.3097   17.6705  -34.4804 H   0  0  0  0  0  0  0  0  0  0  0  0
   -6.9830   17.4690  -33.1150 C   0  0  0  0  0  0  0  0  0  0  0  0
   -7.0598   16.3806  -33.2545 H   0  0  0  0  0  0  0  0  0  0  0  0
   -7.8660   18.1240  -32.2510 C   0  0  0  0  0  0  0  0  0  0  0  0
   -8.6349   17.5515  -31.7116 H   0  0  0  0  0  0  0  0  0  0  0  0
   -7.7700   19.5120  -32.0730 C   0  0  0  0  0  0  0  0  0  0  0  0
   -8.6360   20.1980  -31.2120 C   0  0  0  0  0  0  0  0  0  0  0  0
   -9.4135   19.6495  -30.6600 H   0  0  0  0  0  0  0  0  0  0  0  0
   -8.5100   21.5800  -31.0560 C   0  0  0  0  0  0  0  0  0  0  0  0
   -9.1815   22.1232  -30.3748 H   0  0  0  0  0  0  0  0  0  0  0  0
  1  2  1  0
  2  3  1  0
  3  4  1  0
  4  5  2  0
  5  6  1  0
  6  7  1  0
  6  8  1  0
  6  9  1  0
  9 10  1  0
  9 11  1  0
  9 12  1  0
  4 13  1  0
 13 14  1  0
 13 15  2  0
 15 16  1  0
 15 17  1  0
 17 18  1  0
 18 19  1  0
 18 20  1  0
 18 21  1  0
 21 22  2  0
 22 23  1  0
 23 24  2  0
 24 25  1  0
 24 26  1  0
 26 27  1  0
 26 28  2  0
 28 29  1  0
 28 30  1  0
 30 31  1  0
 30 32  2  0
 32 33  1  0
 33 34  1  0
 33 35  2  0
 35 36  1  0
 17  2  2  0
 35 21  1  0
 32 23  1  0
M  CHG  1   3  -1
M  END
>  <UniqueID>  (32) 
29

>  <SMILES>  (32) 
CC/N=c1\ccc(Cc2ccc3ccccc3n2)c[n-]1

>  <Energy>  (32) 
40.07905687844283

>  <Genealogy>  (32) 
CCN=c1ccc(Cc2ccc3ccccc3n2)c[n-]1 (protonated)
CC/N=c1\ccc(Cc2ccc3ccccc3n2)c[n-]1 (cis-trans isomerization)
CC/N=c1\ccc(Cc2ccc3ccccc3n2)c[n-]1 (3D coordinates assigned)
CC/N=c1\ccc(Cc2ccc3ccccc3n2)c[n-]1 (optimized conformer: 40.07905687844283 kcal/mol)

>  <smiles>  (32) 
CCN=c1ccc(Cc2ccc3ccccc3n2)c[nH]1

>  <score_type>  (32) 
oracle

>  <origin>  (32) 
adg

>  <m_score__min__energy>  (32) 
-10.619999999999999

>  <m_primary>  (32) 
energy

$$$$
32:0
     RDKit          3D

 41 43  0  0  1  0  0  0  0  0999 V2000
   -3.3320   24.1400  -27.6620 C   0  0  0  0  0  0  0  0  0  0  0  0
   -3.5410   24.4630  -29.0510 N   0  0  0  0  0  0  0  0  0  0  0  0
   -4.6490   24.4390  -29.6680 C   0  0  0  0  0  0  0  0  0  0  0  0
   -5.6270   25.2660  -29.1940 N   0  0  0  0  0  0  0  0  0  0  0  0
   -6.8150   25.2990  -29.7820 C   0  0  0  0  0  0  0  0  0  0  0  0
   -7.0610   24.5200  -30.8430 N   0  0  0  0  0  0  0  0  0  0  0  0
   -6.1180   23.6970  -31.3290 C   0  0  0  0  0  0  0  0  0  0  0  0
   -6.4650   22.9050  -32.4590 N   0  0  0  0  0  0  0  0  0  0  0  0
   -6.8840   21.7010  -32.4170 C   0  0  0  0  0  0  0  0  0  0  0  0
   -4.8400   23.6190  -30.7480 C   0  0  0  0  0  0  0  0  0  0  0  0
   -8.4480   20.1270  -31.6090 C   0  0  0  0  0  0  0  0  0  0  0  0
   -7.7590   19.1580  -32.3360 C   0  0  0  0  0  0  0  0  0  0  0  0
   -6.6510   19.4930  -33.0830 C   0  0  0  0  0  0  0  0  0  0  0  0
   -5.9550   18.4280  -33.8380 C   0  0  0  0  0  0  0  0  0  0  0  0
   -6.2220   20.7740  -33.1160 N   0  0  0  0  0  0  0  0  0  0  0  0
   -7.9990   21.4370  -31.6480 C   0  0  0  0  0  0  0  0  0  0  0  0
   -3.8720   22.7140  -31.3180 C   0  0  0  0  0  0  0  0  0  0  0  0
   -2.8020   22.3920  -30.5500 N   0  0  0  0  0  0  0  0  0  0  0  0
   -1.8490   21.5640  -30.9800 C   0  0  0  0  0  0  0  0  0  0  0  0
   -0.7100   21.2650  -30.0730 C   0  0  0  0  0  0  0  0  0  0  0  0
   -1.8940   21.0040  -32.1940 N   0  0  0  0  0  0  0  0  0  0  0  0
   -2.9570   21.3070  -32.9940 C   0  0  0  0  0  0  0  0  0  0  0  0
   -3.0580   20.7980  -34.1800 N   0  0  0  0  0  0  0  0  0  0  0  0
   -3.9180   22.1560  -32.5280 N   0  0  0  0  0  0  0  0  0  0  0  0
   -3.8218   24.8969  -27.0318 H   0  0  0  0  0  0  0  0  0  0  0  0
   -3.7614   23.1503  -27.4470 H   0  0  0  0  0  0  0  0  0  0  0  0
   -2.2533   24.1262  -27.4470 H   0  0  0  0  0  0  0  0  0  0  0  0
   -5.4350   25.8770  -28.3630 H   0  0  0  0  0  0  0  0  0  0  0  0
   -7.5996   25.9673  -29.3976 H   0  0  0  0  0  0  0  0  0  0  0  0
   -8.5105   22.2343  -31.0887 H   0  0  0  0  0  0  0  0  0  0  0  0
   -9.3330   19.8564  -31.0145 H   0  0  0  0  0  0  0  0  0  0  0  0
   -8.1038   18.1137  -32.3131 H   0  0  0  0  0  0  0  0  0  0  0  0
   -5.4930   17.7210  -33.1333 H   0  0  0  0  0  0  0  0  0  0  0  0
   -6.6791   17.8942  -34.4711 H   0  0  0  0  0  0  0  0  0  0  0  0
   -5.1754   18.8769  -34.4711 H   0  0  0  0  0  0  0  0  0  0  0  0
   -5.3890   21.0220  -33.6790 H   0  0  0  0  0  0  0  0  0  0  0  0
   -1.0411   21.3519  -29.0276 H   0  0  0  0  0  0  0  0  0  0  0  0
   -0.3510   20.2422  -30.2601 H   0  0  0  0  0  0  0  0  0  0  0  0
    0.1051   21.9796  -30.2601 H   0  0  0  0  0  0  0  0  0  0  0  0
   -2.4030   21.0440  -34.9540 H   0  0  0  0  0  0  0  0  0  0  0  0
   -4.6910   22.3450  -33.1750 H   0  0  0  0  0  0  0  0  0  0  0  0
  1  2  1  0
  2  3  2  0
  3  4  1  0
  4  5  1  0
  5  6  2  0
  6  7  1  0
  7  8  1  0
  8  9  2  0
  9 10  1  0
 10 11  2  0
 11 12  1  0
 12 13  2  0
 13 14  1  0
 13 15  1  0
  7 16  2  0
 16 17  1  0
 17 18  2  0
 18 19  1  0
 19 20  1  0
 19 21  2  0
 21 22  1  0
 22 23  2  3
 22 24  1  0
 16  3  1  0
 24 17  1  0
 15  9  1  0
  1 25  1  0
  1 26  1  0
  1 27  1  0
  4 28  1  0
  5 29  1  0
 10 30  1  0
 11 31  1  0
 12 32  1  0
 14 33  1  0
 14 34  1  0
 14 35  1  0
 15 36  1  0
 20 37  1  0
 20 38  1  0
 20 39  1  0
 23 40  1  0
 24 41  1  0
M  END
>  <smiles>  (33) 
CN=c1[nH]cnc(N=c2cccc(C)[nH]2)c1-c1nc(C)nc(=N)[nH]1

>  <score_type>  (33) 
oracle

>  <origin>  (33) 
adg

>  <m_score__min__energy>  (33) 
-8.1099999999999994

>  <m_primary>  (33) 
energy

$$$$
33:0
     RDKit          3D

 34 36  0  0  0  0  0  0  0  0999 V2000
   -2.1670   20.7730  -29.2460 N   0  0  0  0  0  0  0  0  0  0  0  0
   -2.3040   22.2010  -29.3580 C   0  0  0  0  0  0  0  0  0  0  0  0
   -3.4010   22.7480  -30.0630 C   0  0  0  0  0  0  0  0  0  0  0  0
   -4.4190   21.8880  -30.7050 C   0  0  0  0  0  0  0  0  0  0  0  0
   -4.0860   20.7440  -31.1210 O   0  0  0  0  0  0  0  0  0  0  0  0
   -5.7600   22.3670  -30.8920 N   0  0  0  0  0  0  0  0  0  0  0  0
   -6.8190   21.5620  -31.4310 C   0  0  0  0  0  0  0  0  0  0  0  0
   -6.5920   20.8290  -32.6050 C   0  0  0  0  0  0  0  0  0  0  0  0
   -7.6100   20.0470  -33.1600 C   0  0  0  0  0  0  0  0  0  0  0  0
   -8.8700   20.0070  -32.5550 C   0  0  0  0  0  0  0  0  0  0  0  0
   -9.8570   19.2520  -33.0950 F   0  0  0  0  0  0  0  0  0  0  0  0
   -9.1130   20.7560  -31.4000 C   0  0  0  0  0  0  0  0  0  0  0  0
   -8.0980   21.5390  -30.8410 C   0  0  0  0  0  0  0  0  0  0  0  0
   -8.3780   22.3070  -29.7590 F   0  0  0  0  0  0  0  0  0  0  0  0
   -3.4710   24.1410  -30.2000 C   0  0  0  0  0  0  0  0  0  0  0  0
   -4.4150   24.6820  -30.8360 O   0  0  0  0  0  0  0  0  0  0  0  0
   -2.4970   24.9200  -29.6780 N   0  0  0  0  0  0  0  0  0  0  0  0
   -1.4540   24.3940  -28.9940 C   0  0  0  0  0  0  0  0  0  0  0  0
   -0.5570   25.1690  -28.5650 O   0  0  0  0  0  0  0  0  0  0  0  0
   -1.3760   23.0400  -28.7780 N   0  0  0  0  0  0  0  0  0  0  0  0
   -0.2480   22.4920  -27.9990 C   0  0  0  0  0  0  0  0  0  0  0  0
   -0.1120   23.0510  -26.5820 C   0  0  0  0  0  0  0  0  0  0  0  0
   -0.6640   21.6570  -26.7890 C   0  0  0  0  0  0  0  0  0  0  0  0
   -1.2540   20.3250  -29.0130 H   0  0  0  0  0  0  0  0  0  0  0  0
   -2.9810   20.1340  -29.3770 H   0  0  0  0  0  0  0  0  0  0  0  0
   -5.9560   23.3810  -30.7230 H   0  0  0  0  0  0  0  0  0  0  0  0
   -5.6067   20.8695  -33.0925 H   0  0  0  0  0  0  0  0  0  0  0  0
   -7.4195   19.4633  -34.0727 H   0  0  0  0  0  0  0  0  0  0  0  0
  -10.1066   20.7294  -30.9289 H   0  0  0  0  0  0  0  0  0  0  0  0
    0.4316   22.3556  -28.8532 H   0  0  0  0  0  0  0  0  0  0  0  0
    0.8854   23.1865  -26.1384 H   0  0  0  0  0  0  0  0  0  0  0  0
   -0.4649   23.9572  -26.0679 H   0  0  0  0  0  0  0  0  0  0  0  0
   -0.0671   20.7810  -26.4951 H   0  0  0  0  0  0  0  0  0  0  0  0
   -1.5832   21.1340  -26.4866 H   0  0  0  0  0  0  0  0  0  0  0  0
  1  2  1  0
  2  3  2  0
  3  4  1  0
  4  5  2  0
  4  6  1  0
  6  7  1  0
  7  8  2  0
  8  9  1  0
  9 10  2  0
 10 11  1  0
 10 12  1  0
 12 13  2  0
 13 14  1  0
  3 15  1  0
 15 16  2  0
 15 17  1  0
 17 18  1  0
 18 19  2  0
 18 20  1  0
 20 21  1  0
 21 22  1  0
 22 23  1  0
 20  2  1  0
 23 21  1  0
 13  7  1  0
  1 24  1  0
  1 25  1  0
  6 26  1  0
  8 27  1  0
  9 28  1  0
 12 29  1  0
 21 30  1  0
 22 31  1  0
 22 32  1  0
 23 33  1  0
 23 34  1  0
M  CHG  1  17  -1
M  END
>  <UniqueID>  (34) 
30

>  <SMILES>  (34) 
Nc1c(C(=O)Nc2ccc(F)cc2F)c(=O)[n-]c(=O)n1C1CC1

>  <Energy>  (34) 
319.1920766481014

>  <Genealogy>  (34) 
Nc1c(C(=O)Nc2ccc(F)cc2F)c(=O)[n-]c(=O)n1C1CC1 (protonated)
Nc1c(C(=O)Nc2ccc(F)cc2F)c(=O)[n-]c(=O)n1C1CC1 (3D coordinates assigned)
Nc1c(C(=O)Nc2ccc(F)cc2F)c(=O)[n-]c(=O)n1C1CC1 (nonaromatic ring conformer: 319.1920766481014 kcal/mol)

>  <smiles>  (34) 
Nc1c(C(=O)Nc2ccc(F)cc2F)c(=O)[nH]c(=O)n1C1CC1

>  <score_type>  (34) 
oracle

>  <origin>  (34) 
adg

>  <m_score__min__energy>  (34) 
-7.3899999999999997

>  <m_primary>  (34) 
energy

$$$$
34:0
     RDKit          3D

 61 65  0  0  0  0  0  0  0  0999 V2000
   -2.2030   24.9190  -28.5840 C   0  0  0  0  0  0  0  0  0  0  0  0
   -3.0480   25.1750  -29.7030 O   0  0  0  0  0  0  0  0  0  0  0  0
   -4.2950   24.5640  -29.9100 C   0  0  0  0  0  0  0  0  0  0  0  0
   -5.4870   25.3100  -29.9980 C   0  0  0  0  0  0  0  0  0  0  0  0
   -6.7100   24.6630  -30.2090 C   0  0  0  0  0  0  0  0  0  0  0  0
   -6.7560   23.2760  -30.3450 C   0  0  0  0  0  0  0  0  0  0  0  0
   -5.5810   22.5250  -30.2600 C   0  0  0  0  0  0  0  0  0  0  0  0
   -4.3500   23.1600  -30.0360 C   0  0  0  0  0  0  0  0  0  0  0  0
   -3.1540   22.3750  -29.9020 N   0  0  0  0  0  0  0  0  0  0  0  0
   -2.0500   22.6460  -30.8290 C   0  0  0  0  0  0  0  0  0  0  0  0
   -0.7610   21.9440  -30.4240 C   0  0  0  0  0  0  0  0  0  0  0  0
   -0.9710   20.5420  -30.0160 N   0  0  0  0  0  0  0  0  0  0  0  0
   -1.2320   19.5940  -31.1400 C   0  0  0  0  0  0  0  0  0  0  0  0
   -0.6970   20.0170  -32.5240 C   0  0  0  0  0  0  0  0  0  0  0  0
   -1.8020   20.6750  -33.3610 C   0  0  0  0  0  0  0  0  0  0  0  0
   -2.5560   19.6330  -34.1880 C   0  0  0  0  0  0  0  0  0  0  0  0
   -3.9730   19.6300  -33.8350 N   0  0  0  0  0  0  0  0  0  0  0  0
   -4.7390   20.7110  -33.2740 C   0  0  0  0  0  0  0  0  0  0  0  0
   -4.3220   21.8920  -33.1430 O   0  0  0  0  0  0  0  0  0  0  0  0
   -6.0550   20.2150  -32.8760 C   0  0  0  0  0  0  0  0  0  0  0  0
   -7.1880   20.8010  -32.3120 C   0  0  0  0  0  0  0  0  0  0  0  0
   -8.3060   19.9660  -32.0630 C   0  0  0  0  0  0  0  0  0  0  0  0
   -8.2650   18.5800  -32.3720 C   0  0  0  0  0  0  0  0  0  0  0  0
   -7.0980   18.0260  -32.9370 C   0  0  0  0  0  0  0  0  0  0  0  0
   -6.9240   16.6750  -33.2880 C   0  0  0  0  0  0  0  0  0  0  0  0
   -5.6910   16.2490  -33.8510 C   0  0  0  0  0  0  0  0  0  0  0  0
   -4.6350   17.1660  -34.0710 C   0  0  0  0  0  0  0  0  0  0  0  0
   -4.8470   18.5030  -33.7180 C   0  0  0  0  0  0  0  0  0  0  0  0
   -6.0380   18.8840  -33.1700 C   0  0  0  0  0  0  0  0  0  0  0  0
   -1.8760   20.4490  -28.8510 C   0  0  0  0  0  0  0  0  0  0  0  0
   -3.2090   21.2130  -29.0020 C   0  0  0  0  0  0  0  0  0  0  0  0
   -2.7648   25.0892  -27.6537 H   0  0  0  0  0  0  0  0  0  0  0  0
   -1.8564   23.8756  -28.6173 H   0  0  0  0  0  0  0  0  0  0  0  0
   -1.3356   25.5947  -28.6173 H   0  0  0  0  0  0  0  0  0  0  0  0
   -5.4563   26.4052  -29.9005 H   0  0  0  0  0  0  0  0  0  0  0  0
   -7.6380   25.2506  -30.2677 H   0  0  0  0  0  0  0  0  0  0  0  0
   -7.7184   22.7726  -30.5194 H   0  0  0  0  0  0  0  0  0  0  0  0
   -5.6211   21.4312  -30.3692 H   0  0  0  0  0  0  0  0  0  0  0  0
   -2.3393   22.3004  -31.8324 H   0  0  0  0  0  0  0  0  0  0  0  0
   -1.8592   23.7292  -30.8130 H   0  0  0  0  0  0  0  0  0  0  0  0
   -0.0695   21.9602  -31.2794 H   0  0  0  0  0  0  0  0  0  0  0  0
   -0.3529   22.4815  -29.5554 H   0  0  0  0  0  0  0  0  0  0  0  0
   -0.0350   20.2440  -29.6480 H   0  0  0  0  0  0  0  0  0  0  0  0
   -0.7690   18.6304  -30.8811 H   0  0  0  0  0  0  0  0  0  0  0  0
   -2.3262   19.5558  -31.2457 H   0  0  0  0  0  0  0  0  0  0  0  0
    0.1266   20.7334  -32.3881 H   0  0  0  0  0  0  0  0  0  0  0  0
   -0.3429   19.1199  -33.0529 H   0  0  0  0  0  0  0  0  0  0  0  0
   -2.5098   21.1813  -32.6882 H   0  0  0  0  0  0  0  0  0  0  0  0
   -1.3382   21.3988  -34.0473 H   0  0  0  0  0  0  0  0  0  0  0  0
   -2.4493   19.8721  -35.2564 H   0  0  0  0  0  0  0  0  0  0  0  0
   -2.1344   18.6388  -33.9788 H   0  0  0  0  0  0  0  0  0  0  0  0
   -7.2131   21.8735  -32.0689 H   0  0  0  0  0  0  0  0  0  0  0  0
   -9.2180   20.3972  -31.6244 H   0  0  0  0  0  0  0  0  0  0  0  0
   -9.1388   17.9426  -32.1716 H   0  0  0  0  0  0  0  0  0  0  0  0
   -7.7378   15.9525  -33.1275 H   0  0  0  0  0  0  0  0  0  0  0  0
   -5.5549   15.1911  -34.1199 H   0  0  0  0  0  0  0  0  0  0  0  0
   -3.6791   16.8379  -34.5053 H   0  0  0  0  0  0  0  0  0  0  0  0
   -2.1078   19.3871  -28.6821 H   0  0  0  0  0  0  0  0  0  0  0  0
   -1.3451   20.9175  -28.0092 H   0  0  0  0  0  0  0  0  0  0  0  0
   -3.9626   20.5131  -29.3921 H   0  0  0  0  0  0  0  0  0  0  0  0
   -3.4568   21.6047  -28.0044 H   0  0  0  0  0  0  0  0  0  0  0  0
  1  2  1  0
  2  3  1  0
  3  4  2  0
  4  5  1  0
  5  6  2  0
  6  7  1  0
  7  8  2  0
  8  9  1  0
  9 10  1  0
 10 11  1  0
 11 12  1  0
 12 13  1  0
 13 14  1  0
 14 15  1  0
 15 16  1  0
 16 17  1  0
 17 18  1  0
 18 19  2  0
 18 20  1  0
 20 21  1  0
 21 22  2  0
 22 23  1  0
 23 24  2  0
 24 25  1  0
 25 26  2  0
 26 27  1  0
 27 28  2  0
 28 29  1  0
 12 30  1  0
 30 31  1  0
  8  3  1  0
 31  9  1  0
 28 17  1  0
 29 20  2  0
 29 24  1  0
  1 32  1  0
  1 33  1  0
  1 34  1  0
  4 35  1  0
  5 36  1  0
  6 37  1  0
  7 38  1  0
 10 39  1  0
 10 40  1  0
 11 41  1  0
 11 42  1  0
 12 43  1  0
 13 44  1  0
 13 45  1  0
 14 46  1  0
 14 47  1  0
 15 48  1  0
 15 49  1  0
 16 50  1  0
 16 51  1  0
 21 52  1  0
 22 53  1  0
 23 54  1  0
 25 55  1  0
 26 56  1  0
 27 57  1  0
 30 58  1  0
 30 59  1  0
 31 60  1  0
 31 61  1  0
M  CHG  1  12   1
M  END
>  <UniqueID>  (35) 
31

>  <SMILES>  (35) 
COc1ccccc1N1CC[NH+](CCCCN2C(=O)c3cccc4cccc2c34)CC1

>  <Energy>  (35) 
120.8425423153498

>  <Genealogy>  (35) 
COc1ccccc1N1CC[NH+](CCCCN2C(=O)c3cccc4cccc2c34)CC1 (protonated)
COc1ccccc1N1CC[NH+](CCCCN2C(=O)c3cccc4cccc2c34)CC1 (3D coordinates assigned)
COc1ccccc1N1CC[NH+](CCCCN2C(=O)c3cccc4cccc2c34)CC1 (nonaromatic ring conformer: 120.8425423153498 kcal/mol)

>  <smiles>  (35) 
COc1ccccc1N1CCN(CCCCN2C(=O)c3cccc4cccc2c34)CC1

>  <score_type>  (35) 
oracle

>  <origin>  (35) 
adg

>  <m_score__min__energy>  (35) 
-9.2300000000000004

>  <m_primary>  (35) 
energy

$$$$
35:0
     RDKit          3D

 40 43  0  0  0  0  0  0  0  0999 V2000
   -9.2600   18.5670  -32.0030 C   0  0  0  0  0  0  0  0  0  0  0  0
   -9.4600   19.8970  -32.3680 C   0  0  0  0  0  0  0  0  0  0  0  0
   -8.4040   20.7500  -32.4220 N   0  0  0  0  0  0  0  0  0  0  0  0
   -7.1430   20.3300  -32.1250 C   0  0  0  0  0  0  0  0  0  0  0  0
   -6.0430   21.2510  -32.1940 N   0  0  0  0  0  0  0  0  0  0  0  0
   -4.8870   21.0420  -33.0670 C   0  0  0  0  0  0  0  0  0  0  0  0
   -3.8000   21.9950  -32.5500 C   0  0  0  0  0  0  0  0  0  0  0  0
   -4.6180   23.0720  -31.8330 C   0  0  1  0  0  0  0  0  0  0  0  0
   -5.7760   22.3030  -31.2220 C   0  0  1  0  0  0  0  0  0  0  0  0
   -6.9340   23.2850  -30.9680 C   0  0  0  0  0  0  0  0  0  0  0  0
   -6.3980   24.6680  -30.5080 C   0  0  0  0  0  0  0  0  0  0  0  0
   -4.9680   24.5830  -29.9130 C   0  0  0  0  0  0  0  0  0  0  0  0
   -3.9680   23.9810  -30.8460 N   0  0  0  0  0  0  0  0  0  0  0  0
   -2.8370   23.3990  -30.0920 C   0  0  0  0  0  0  0  0  0  0  0  0
   -2.4900   24.2590  -28.9160 C   0  0  0  0  0  0  0  0  0  0  0  0
   -1.6140   25.2860  -28.9790 N   0  0  0  0  0  0  0  0  0  0  0  0
   -1.4320   25.8720  -27.7650 C   0  0  0  0  0  0  0  0  0  0  0  0
   -2.1520   25.3020  -26.7210 C   0  0  0  0  0  0  0  0  0  0  0  0
   -3.0420   24.0200  -27.3450 S   0  0  0  0  0  0  0  0  0  0  0  0
   -6.9350   19.0320  -31.7690 N   0  0  0  0  0  0  0  0  0  0  0  0
   -7.9650   18.1490  -31.7030 C   0  0  0  0  0  0  0  0  0  0  0  0
  -10.1044   17.8638  -31.9529 H   0  0  0  0  0  0  0  0  0  0  0  0
  -10.4710   20.2554  -32.6119 H   0  0  0  0  0  0  0  0  0  0  0  0
   -4.5435   19.9988  -33.0058 H   0  0  0  0  0  0  0  0  0  0  0  0
   -5.1326   21.2390  -34.1210 H   0  0  0  0  0  0  0  0  0  0  0  0
   -3.1203   21.4824  -31.8534 H   0  0  0  0  0  0  0  0  0  0  0  0
   -3.1514   22.3929  -33.3444 H   0  0  0  0  0  0  0  0  0  0  0  0
   -4.8803   23.8301  -32.5856 H   0  0  0  0  0  0  0  0  0  0  0  0
   -5.5883   21.8445  -30.2399 H   0  0  0  0  0  0  0  0  0  0  0  0
   -7.5083   23.4125  -31.8975 H   0  0  0  0  0  0  0  0  0  0  0  0
   -7.5745   22.8747  -30.1734 H   0  0  0  0  0  0  0  0  0  0  0  0
   -6.3798   25.3453  -31.3746 H   0  0  0  0  0  0  0  0  0  0  0  0
   -7.0671   25.0398  -29.7180 H   0  0  0  0  0  0  0  0  0  0  0  0
   -4.6367   25.6001  -29.6568 H   0  0  0  0  0  0  0  0  0  0  0  0
   -5.0232   23.9273  -29.0316 H   0  0  0  0  0  0  0  0  0  0  0  0
   -3.1171   22.3964  -29.7366 H   0  0  0  0  0  0  0  0  0  0  0  0
   -1.9624   23.3364  -30.7562 H   0  0  0  0  0  0  0  0  0  0  0  0
   -0.7640   26.7338  -27.6198 H   0  0  0  0  0  0  0  0  0  0  0  0
   -2.1411   25.6319  -25.6717 H   0  0  0  0  0  0  0  0  0  0  0  0
   -7.7770   17.1047  -31.4129 H   0  0  0  0  0  0  0  0  0  0  0  0
  1  2  2  0
  2  3  1  0
  3  4  2  0
  4  5  1  0
  5  6  1  0
  6  7  1  0
  7  8  1  0
  8  9  1  0
  9 10  1  0
 10 11  1  0
 11 12  1  0
 12 13  1  0
 13 14  1  0
 14 15  1  0
 15 16  2  0
 16 17  1  0
 17 18  2  0
 18 19  1  0
  4 20  1  0
 20 21  2  0
 21  1  1  0
  9  5  1  0
 19 15  1  0
 13  8  1  0
  1 22  1  0
  2 23  1  0
  6 24  1  0
  6 25  1  0
  7 26  1  0
  7 27  1  0
  8 28  1  6
  9 29  1  1
 10 30  1  0
 10 31  1  0
 11 32  1  0
 11 33  1  0
 12 34  1  0
 12 35  1  0
 14 36  1  0
 14 37  1  0
 17 38  1  0
 18 39  1  0
 21 40  1  0
M  END
>  <UniqueID>  (36) 
32

>  <SMILES>  (36) 
c1cnc(N2CC[C@H]3[C@H]2CCCN3Cc2nccs2)nc1

>  <Energy>  (36) 
95.10110871728983

>  <Genealogy>  (36) 
c1cnc(N2CC[C@H]3[C@H]2CCCN3Cc2nccs2)nc1 (chirality)
c1cnc(N2CC[C@H]3[C@H]2CCCN3Cc2nccs2)nc1 (3D coordinates assigned)
c1cnc(N2CC[C@H]3[C@H]2CCCN3Cc2nccs2)nc1 (nonaromatic ring conformer: 95.10110871728983 kcal/mol)

>  <smiles>  (36) 
c1cnc(N2CCC3C2CCCN3Cc2nccs2)nc1

>  <score_type>  (36) 
oracle

>  <origin>  (36) 
adg

>  <m_score__min__energy>  (36) 
-8.1699999999999999

>  <m_primary>  (36) 
energy

$$$$
36:0
     RDKit          3D

 37 39  0  0  0  0  0  0  0  0999 V2000
   -0.0890   24.5840  -28.5550 O   0  0  0  0  0  0  0  0  0  0  0  0
   -1.2230   24.0520  -28.7000 C   0  0  0  0  0  0  0  0  0  0  0  0
   -2.1930   24.7160  -29.3860 N   0  0  0  0  0  0  0  0  0  0  0  0
   -3.4240   24.1650  -29.5750 C   0  0  0  0  0  0  0  0  0  0  0  0
   -4.6960   25.0670  -30.4680 S   0  0  0  0  0  0  0  0  0  0  0  0
   -5.7660   23.6430  -30.9330 C   0  0  0  0  0  0  0  0  0  0  0  0
   -7.2490   24.0470  -31.0970 C   0  0  0  0  0  0  0  0  0  0  0  0
   -8.0520   23.0570  -31.9680 C   0  0  0  0  0  0  0  0  0  0  0  0
   -7.4900   21.6340  -31.8870 C   0  0  0  0  0  0  0  0  0  0  0  0
   -6.0260   21.5650  -32.3720 C   0  0  0  0  0  0  0  0  0  0  0  0
   -5.2470   22.8800  -32.1640 C   0  0  0  0  0  0  0  0  0  0  0  0
   -3.7150   22.9520  -29.0400 N   0  0  0  0  0  0  0  0  0  0  0  0
   -2.7860   22.2490  -28.3440 C   0  0  0  0  0  0  0  0  0  0  0  0
   -3.1090   20.9920  -27.8190 C   0  0  0  0  0  0  0  0  0  0  0  0
   -2.1560   20.2610  -27.0880 C   0  0  0  0  0  0  0  0  0  0  0  0
   -2.4890   18.8860  -26.5670 C   0  0  0  0  0  0  0  0  0  0  0  0
   -2.7330   18.9620  -25.2080 F   0  0  0  0  0  0  0  0  0  0  0  0
   -3.6120   18.3800  -27.1990 F   0  0  0  0  0  0  0  0  0  0  0  0
   -1.4390   18.0110  -26.7880 F   0  0  0  0  0  0  0  0  0  0  0  0
   -0.8620   20.7880  -26.9290 C   0  0  0  0  0  0  0  0  0  0  0  0
   -0.5360   22.0430  -27.4510 C   0  0  0  0  0  0  0  0  0  0  0  0
   -1.4960   22.7840  -28.1590 C   0  0  0  0  0  0  0  0  0  0  0  0
   -1.9910   25.6670  -29.7700 H   0  0  0  0  0  0  0  0  0  0  0  0
   -5.7131   22.9440  -30.0853 H   0  0  0  0  0  0  0  0  0  0  0  0
   -7.7121   24.0921  -30.1003 H   0  0  0  0  0  0  0  0  0  0  0  0
   -7.2697   25.0228  -31.6044 H   0  0  0  0  0  0  0  0  0  0  0  0
   -9.0963   23.0465  -31.6226 H   0  0  0  0  0  0  0  0  0  0  0  0
   -7.9819   23.3907  -33.0138 H   0  0  0  0  0  0  0  0  0  0  0  0
   -7.5350   21.2928  -30.8422 H   0  0  0  0  0  0  0  0  0  0  0  0
   -8.0965   20.9901  -32.5408 H   0  0  0  0  0  0  0  0  0  0  0  0
   -5.5130   20.7649  -31.8182 H   0  0  0  0  0  0  0  0  0  0  0  0
   -6.0523   21.3719  -33.4546 H   0  0  0  0  0  0  0  0  0  0  0  0
   -4.1816   22.6473  -32.0195 H   0  0  0  0  0  0  0  0  0  0  0  0
   -5.3876   23.5134  -33.0523 H   0  0  0  0  0  0  0  0  0  0  0  0
   -4.1138   20.5740  -27.9793 H   0  0  0  0  0  0  0  0  0  0  0  0
   -0.0995   20.2074  -26.3890 H   0  0  0  0  0  0  0  0  0  0  0  0
    0.4752   22.4513  -27.3068 H   0  0  0  0  0  0  0  0  0  0  0  0
  1  2  2  0
  2  3  1  0
  3  4  1  0
  4  5  1  0
  5  6  1  0
  6  7  1  0
  7  8  1  0
  8  9  1  0
  9 10  1  0
 10 11  1  0
  4 12  2  0
 12 13  1  0
 13 14  2  0
 14 15  1  0
 15 16  1  0
 16 17  1  0
 16 18  1  0
 16 19  1  0
 15 20  2  0
 20 21  1  0
 21 22  2  0
 22  2  1  0
 11  6  1  0
 22 13  1  0
  3 23  1  0
  6 24  1  0
  7 25  1  0
  7 26  1  0
  8 27  1  0
  8 28  1  0
  9 29  1  0
  9 30  1  0
 10 31  1  0
 10 32  1  0
 11 33  1  0
 11 34  1  0
 14 35  1  0
 20 36  1  0
 21 37  1  0
M  END
>  <UniqueID>  (37) 
33

>  <SMILES>  (37) 
O=c1[nH]c(SC2CCCCC2)nc2cc(C(F)(F)F)ccc12

>  <Energy>  (37) 
43.03450652107587

>  <Genealogy>  (37) 
O=c1[nH]c(SC2CCCCC2)nc2cc(C(F)(F)F)ccc12 (3D coordinates assigned)
O=c1[nH]c(SC2CCCCC2)nc2cc(C(F)(F)F)ccc12 (nonaromatic ring conformer: 43.03450652107587 kcal/mol)

>  <smiles>  (37) 
O=c1[nH]c(SC2CCCCC2)nc2cc(C(F)(F)F)ccc12

>  <score_type>  (37) 
oracle

>  <origin>  (37) 
adg

>  <m_score__min__energy>  (37) 
-8.3000000000000007

>  <m_primary>  (37) 
energy

$$$$
37:0
     RDKit          3D

 51 55  0  0  0  0  0  0  0  0999 V2000
   -9.4840   20.5410  -31.9730 Cl  0  0  0  0  0  0  0  0  0  0  0  0
   -7.9840   19.7670  -32.4490 C   0  0  0  0  0  0  0  0  0  0  0  0
   -7.1980   20.3270  -33.4610 C   0  0  0  0  0  0  0  0  0  0  0  0
   -6.0020   19.7120  -33.8390 C   0  0  0  0  0  0  0  0  0  0  0  0
   -5.5850   18.5250  -33.2130 C   0  0  0  0  0  0  0  0  0  0  0  0
   -4.2710   17.8950  -33.5890 C   0  0  0  0  0  0  0  0  0  0  0  0
   -3.1220   18.5480  -32.7950 C   0  0  0  0  0  0  0  0  0  0  0  0
   -1.9650   18.9320  -33.6500 N   0  0  2  0  0  0  0  0  0  0  0  0
   -0.6550   18.7110  -32.9660 C   0  0  0  0  0  0  0  0  0  0  0  0
    0.1260   20.0070  -32.6500 C   0  0  0  0  0  0  0  0  0  0  0  0
   -0.7600   21.0750  -32.1530 N   0  0  0  0  0  0  0  0  0  0  0  0
   -1.1730   20.8130  -30.7470 C   0  0  0  0  0  0  0  0  0  0  0  0
   -2.0900   21.9080  -30.1910 C   0  0  0  0  0  0  0  0  0  0  0  0
   -3.2170   22.1000  -31.1360 C   0  0  0  0  0  0  0  0  0  0  0  0
   -3.1040   21.8950  -32.4920 C   0  0  0  0  0  0  0  0  0  0  0  0
   -4.2400   22.2620  -33.1320 N   0  0  0  0  0  0  0  0  0  0  0  0
   -5.0750   22.6850  -32.1630 C   0  0  0  0  0  0  0  0  0  0  0  0
   -6.3750   23.1640  -32.3160 C   0  0  0  0  0  0  0  0  0  0  0  0
   -7.0680   23.5680  -31.1600 C   0  0  0  0  0  0  0  0  0  0  0  0
   -6.4510   23.4910  -29.8910 C   0  0  0  0  0  0  0  0  0  0  0  0
   -5.1360   23.0090  -29.7650 C   0  0  0  0  0  0  0  0  0  0  0  0
   -4.4790   22.6070  -30.9270 C   0  0  0  0  0  0  0  0  0  0  0  0
   -1.8290   21.4210  -33.1450 C   0  0  2  0  0  0  0  0  0  0  0  0
   -2.0810   20.3040  -34.1980 C   0  0  0  0  0  0  0  0  0  0  0  0
   -6.3730   17.9750  -32.1880 C   0  0  0  0  0  0  0  0  0  0  0  0
   -7.5710   18.5920  -31.8130 C   0  0  0  0  0  0  0  0  0  0  0  0
   -7.5217   21.2524  -33.9598 H   0  0  0  0  0  0  0  0  0  0  0  0
   -5.3833   20.1593  -34.6309 H   0  0  0  0  0  0  0  0  0  0  0  0
   -4.3051   16.8194  -33.3610 H   0  0  0  0  0  0  0  0  0  0  0  0
   -4.0953   18.0450  -34.6645 H   0  0  0  0  0  0  0  0  0  0  0  0
   -3.5075   19.4521  -32.3011 H   0  0  0  0  0  0  0  0  0  0  0  0
   -2.7608   17.8042  -32.0695 H   0  0  0  0  0  0  0  0  0  0  0  0
   -1.9780   18.2850  -34.4760 H   0  0  0  0  0  0  0  0  0  0  0  0
   -0.8456   18.1845  -32.0192 H   0  0  0  0  0  0  0  0  0  0  0  0
   -0.0315   18.1299  -33.6613 H   0  0  0  0  0  0  0  0  0  0  0  0
    0.8836   19.7877  -31.8832 H   0  0  0  0  0  0  0  0  0  0  0  0
    0.5946   20.3584  -33.5811 H   0  0  0  0  0  0  0  0  0  0  0  0
   -1.7077   19.8524  -30.7095 H   0  0  0  0  0  0  0  0  0  0  0  0
   -0.2630   20.7936  -30.1294 H   0  0  0  0  0  0  0  0  0  0  0  0
   -2.4776   21.6039  -29.2075 H   0  0  0  0  0  0  0  0  0  0  0  0
   -1.5296   22.8475  -30.0756 H   0  0  0  0  0  0  0  0  0  0  0  0
   -4.4280   22.2490  -34.1590 H   0  0  0  0  0  0  0  0  0  0  0  0
   -6.8443   23.2243  -33.3090 H   0  0  0  0  0  0  0  0  0  0  0  0
   -8.0974   23.9465  -31.2447 H   0  0  0  0  0  0  0  0  0  0  0  0
   -7.0035   23.8105  -28.9951 H   0  0  0  0  0  0  0  0  0  0  0  0
   -4.6428   22.9512  -28.7835 H   0  0  0  0  0  0  0  0  0  0  0  0
   -1.4323   22.2780  -33.7090 H   0  0  0  0  0  0  0  0  0  0  0  0
   -3.0956   20.4314  -34.6035 H   0  0  0  0  0  0  0  0  0  0  0  0
   -1.3044   20.4087  -34.9700 H   0  0  0  0  0  0  0  0  0  0  0  0
   -6.0467   17.0562  -31.6788 H   0  0  0  0  0  0  0  0  0  0  0  0
   -8.1893   18.1523  -31.0165 H   0  0  0  0  0  0  0  0  0  0  0  0
  1  2  1  0
  2  3  2  0
  3  4  1  0
  4  5  2  0
  5  6  1  0
  6  7  1  0
  7  8  1  0
  8  9  1  0
  9 10  1  0
 10 11  1  0
 11 12  1  0
 12 13  1  0
 13 14  1  0
 14 15  2  0
 15 16  1  0
 16 17  1  0
 17 18  2  0
 18 19  1  0
 19 20  2  0
 20 21  1  0
 21 22  2  0
 15 23  1  0
 23 24  1  0
  5 25  1  0
 25 26  2  0
 26  2  1  0
 24  8  1  0
 23 11  1  0
 22 14  1  0
 22 17  1  0
  3 27  1  0
  4 28  1  0
  6 29  1  0
  6 30  1  0
  7 31  1  0
  7 32  1  0
  8 33  1  6
  9 34  1  0
  9 35  1  0
 10 36  1  0
 10 37  1  0
 12 38  1  0
 12 39  1  0
 13 40  1  0
 13 41  1  0
 16 42  1  0
 18 43  1  0
 19 44  1  0
 20 45  1  0
 21 46  1  0
 23 47  1  6
 24 48  1  0
 24 49  1  0
 25 50  1  0
 26 51  1  0
M  CHG  1   8   1
M  END
>  <UniqueID>  (38) 
34

>  <SMILES>  (38) 
Clc1ccc(CC[N@@H+]2CCN3CCc4c([nH]c5ccccc45)[C@@H]3C2)cc1

>  <Energy>  (38) 
110.2805607544164

>  <Genealogy>  (38) 
Clc1ccc(CC[NH+]2CCN3CCc4c([nH]c5ccccc45)C3C2)cc1 (protonated)
Clc1ccc(CC[N@@H+]2CCN3CCc4c([nH]c5ccccc45)[C@@H]3C2)cc1 (chirality)
Clc1ccc(CC[N@@H+]2CCN3CCc4c([nH]c5ccccc45)[C@@H]3C2)cc1 (3D coordinates assigned)
Clc1ccc(CC[N@@H+]2CCN3CCc4c([nH]c5ccccc45)[C@@H]3C2)cc1 (nonaromatic ring conformer: 110.2805607544164 kcal/mol)

>  <smiles>  (38) 
Clc1ccc(CCN2CCN3CCc4c([nH]c5ccccc45)C3C2)cc1

>  <score_type>  (38) 
oracle

>  <origin>  (38) 
adg

>  <m_score__min__energy>  (38) 
-8.4800000000000004

>  <m_primary>  (38) 
energy

$$$$
38:0
     RDKit          3D

 64 68  0  0  0  0  0  0  0  0999 V2000
   -7.3030   21.3340  -32.6140 C   0  0  0  0  0  0  0  0  0  0  0  0
   -6.6600   22.2050  -31.5880 C   0  0  0  0  0  0  0  0  0  0  0  0
   -7.1720   22.4930  -30.3400 C   0  0  0  0  0  0  0  0  0  0  0  0
   -6.2710   23.3610  -29.7590 C   0  0  0  0  0  0  0  0  0  0  0  0
   -5.2740   23.5550  -30.6980 C   0  0  0  0  0  0  0  0  0  0  0  0
   -4.0990   24.4280  -30.5360 C   0  0  0  0  0  0  0  0  0  0  0  0
   -4.2010   25.6490  -30.8340 O   0  0  0  0  0  0  0  0  0  0  0  0
   -2.8080   23.9220  -30.0200 C   0  0  0  0  0  0  0  0  0  0  0  0
   -1.8690   24.6700  -29.3350 C   0  0  0  0  0  0  0  0  0  0  0  0
   -1.9830   26.0060  -28.9680 O   0  0  0  0  0  0  0  0  0  0  0  0
   -0.7930   23.8560  -29.0920 C   0  0  0  0  0  0  0  0  0  0  0  0
    0.3780   24.2510  -28.4520 O   0  0  0  0  0  0  0  0  0  0  0  0
   -1.0090   22.6220  -29.5920 N   0  0  0  0  0  0  0  0  0  0  0  0
   -0.0440   21.5160  -29.5900 C   0  0  0  0  0  0  0  0  0  0  0  0
   -0.6920   20.2160  -29.0980 C   0  0  0  0  0  0  0  0  0  0  0  0
   -0.6200   20.1210  -27.6220 N   0  0  0  0  0  0  0  0  0  0  0  0
   -1.3450   18.9410  -27.0930 C   0  0  0  0  0  0  0  0  0  0  0  0
   -2.8070   19.2660  -26.7200 C   0  0  0  0  0  0  0  0  0  0  0  0
   -3.2820   20.3590  -27.4760 O   0  0  0  0  0  0  0  0  0  0  0  0
   -2.6080   21.5450  -27.0930 C   0  0  0  0  0  0  0  0  0  0  0  0
   -1.0770   21.3590  -26.9610 C   0  0  0  0  0  0  0  0  0  0  0  0
   -2.2390   22.6520  -30.1720 C   0  0  0  0  0  0  0  0  0  0  0  0
   -2.8000   21.5550  -30.9860 C   0  0  0  0  0  0  0  0  0  0  0  0
   -3.8370   20.7590  -30.4880 C   0  0  0  0  0  0  0  0  0  0  0  0
   -4.4230   19.7770  -31.2880 C   0  0  0  0  0  0  0  0  0  0  0  0
   -3.9890   19.5610  -32.6170 C   0  0  0  0  0  0  0  0  0  0  0  0
   -4.6230   18.5550  -33.4670 N   0  0  0  0  0  0  0  0  0  0  0  0
   -3.8080   17.8430  -34.4750 C   0  0  0  0  0  0  0  0  0  0  0  0
   -4.6150   16.8700  -35.3400 C   0  0  0  0  0  0  0  0  0  0  0  0
   -5.6020   16.2140  -34.5810 O   0  0  0  0  0  0  0  0  0  0  0  0
   -6.5790   17.1590  -34.2150 C   0  0  0  0  0  0  0  0  0  0  0  0
   -6.0200   18.1560  -33.1970 C   0  0  0  0  0  0  0  0  0  0  0  0
   -2.9340   20.3710  -33.1000 C   0  0  0  0  0  0  0  0  0  0  0  0
   -2.3500   21.3510  -32.2940 C   0  0  0  0  0  0  0  0  0  0  0  0
   -5.5290   22.8440  -31.7720 O   0  0  0  0  0  0  0  0  0  0  0  0
   -7.8848   20.5460  -32.1135 H   0  0  0  0  0  0  0  0  0  0  0  0
   -7.9718   21.9403  -33.2426 H   0  0  0  0  0  0  0  0  0  0  0  0
   -6.5266   20.8734  -33.2426 H   0  0  0  0  0  0  0  0  0  0  0  0
   -8.1046   22.1102  -29.8998 H   0  0  0  0  0  0  0  0  0  0  0  0
   -6.3327   23.8071  -28.7554 H   0  0  0  0  0  0  0  0  0  0  0  0
    0.3312   21.3652  -30.6130 H   0  0  0  0  0  0  0  0  0  0  0  0
    0.7803   21.7740  -28.9089 H   0  0  0  0  0  0  0  0  0  0  0  0
   -1.7467   20.1977  -29.4100 H   0  0  0  0  0  0  0  0  0  0  0  0
   -0.1501   19.3638  -29.5340 H   0  0  0  0  0  0  0  0  0  0  0  0
   -1.3432   18.1525  -27.8600 H   0  0  0  0  0  0  0  0  0  0  0  0
   -0.8303   18.6145  -26.1773 H   0  0  0  0  0  0  0  0  0  0  0  0
   -3.4357   18.3863  -26.9222 H   0  0  0  0  0  0  0  0  0  0  0  0
   -2.8505   19.5279  -25.6525 H   0  0  0  0  0  0  0  0  0  0  0  0
   -2.8025   22.3182  -27.8508 H   0  0  0  0  0  0  0  0  0  0  0  0
   -2.9895   21.8332  -26.1024 H   0  0  0  0  0  0  0  0  0  0  0  0
   -0.5718   22.2187  -27.4253 H   0  0  0  0  0  0  0  0  0  0  0  0
   -0.8304   21.2885  -25.8913 H   0  0  0  0  0  0  0  0  0  0  0  0
   -4.1932   20.9082  -29.4580 H   0  0  0  0  0  0  0  0  0  0  0  0
   -5.2364   19.1603  -30.8781 H   0  0  0  0  0  0  0  0  0  0  0  0
   -3.3408   18.5892  -35.1345 H   0  0  0  0  0  0  0  0  0  0  0  0
   -3.0649   17.2462  -33.9258 H   0  0  0  0  0  0  0  0  0  0  0  0
   -5.1005   17.4301  -36.1528 H   0  0  0  0  0  0  0  0  0  0  0  0
   -3.9281   16.1135  -35.7473 H   0  0  0  0  0  0  0  0  0  0  0  0
   -6.9057   17.7053  -35.1122 H   0  0  0  0  0  0  0  0  0  0  0  0
   -7.4274   16.6285  -33.7581 H   0  0  0  0  0  0  0  0  0  0  0  0
   -6.6488   19.0584  -33.2124 H   0  0  0  0  0  0  0  0  0  0  0  0
   -6.0297   17.6567  -32.2169 H   0  0  0  0  0  0  0  0  0  0  0  0
   -2.5678   20.2265  -34.1271 H   0  0  0  0  0  0  0  0  0  0  0  0
   -1.5298   21.9670  -32.6913 H   0  0  0  0  0  0  0  0  0  0  0  0
  1  2  1  0
  2  3  2  0
  3  4  1  0
  4  5  2  0
  5  6  1  0
  6  7  2  0
  6  8  1  0
  8  9  1  0
  9 10  1  0
  9 11  2  0
 11 12  1  0
 11 13  1  0
 13 14  1  0
 14 15  1  0
 15 16  1  0
 16 17  1  0
 17 18  1  0
 18 19  1  0
 19 20  1  0
 20 21  1  0
 13 22  1  0
 22 23  1  0
 23 24  2  0
 24 25  1  0
 25 26  2  0
 26 27  1  0
 27 28  1  0
 28 29  1  0
 29 30  1  0
 30 31  1  0
 31 32  1  0
 26 33  1  0
 33 34  2  0
  5 35  1  0
 35  2  1  0
 22  8  2  0
 34 23  1  0
 21 16  1  0
 32 27  1  0
  1 36  1  0
  1 37  1  0
  1 38  1  0
  3 39  1  0
  4 40  1  0
 14 41  1  0
 14 42  1  0
 15 43  1  0
 15 44  1  0
 17 45  1  0
 17 46  1  0
 18 47  1  0
 18 48  1  0
 20 49  1  0
 20 50  1  0
 21 51  1  0
 21 52  1  0
 24 53  1  0
 25 54  1  0
 28 55  1  0
 28 56  1  0
 29 57  1  0
 29 58  1  0
 31 59  1  0
 31 60  1  0
 32 61  1  0
 32 62  1  0
 33 63  1  0
 34 64  1  0
M  CHG  2  10  -1  12  -1
M  END
>  <UniqueID>  (39) 
35

>  <SMILES>  (39) 
Cc1ccc(C(=O)c2c([O-])c([O-])n(CCN3CCOCC3)c2-c2ccc(N3CCOCC3)cc2)o1

>  <Energy>  (39) 
145.90893802730355

>  <Genealogy>  (39) 
Cc1ccc(C(=O)c2c([O-])c([O-])n(CCN3CCOCC3)c2-c2ccc(N3CCOCC3)cc2)o1 (protonated)
Cc1ccc(C(=O)c2c([O-])c([O-])n(CCN3CCOCC3)c2-c2ccc(N3CCOCC3)cc2)o1 (3D coordinates assigned)
Cc1ccc(C(=O)c2c([O-])c([O-])n(CCN3CCOCC3)c2-c2ccc(N3CCOCC3)cc2)o1 (nonaromatic ring conformer: 145.90893802730355 kcal/mol)

>  <smiles>  (39) 
Cc1ccc(C(=O)c2c(O)c(O)n(CCN3CCOCC3)c2-c2ccc(N3CCOCC3)cc2)o1

>  <score_type>  (39) 
oracle

>  <origin>  (39) 
adg

>  <m_score__min__energy>  (39) 
-13.449999999999999

>  <m_primary>  (39) 
energy

$$$$
39:0
     RDKit          3D

 44 46  0  0  0  0  0  0  0  0999 V2000
   -4.0023   18.2178  -34.6346 H   0  0  0  0  0  0  0  0  0  0  0  0
   -4.6630   18.6890  -33.8920 C   0  0  0  0  0  0  0  0  0  0  0  0
   -4.2280   19.8170  -33.1880 C   0  0  0  0  0  0  0  0  0  0  0  0
   -3.2254   20.2272  -33.3789 H   0  0  0  0  0  0  0  0  0  0  0  0
   -5.0660   20.4310  -32.2360 C   0  0  0  0  0  0  0  0  0  0  0  0
   -4.6220   21.6250  -31.4710 C   0  0  0  0  0  0  0  0  0  0  0  0
   -3.3190   21.7160  -31.0770 N   0  0  0  0  0  0  0  0  0  0  0  0
   -2.8510   22.7780  -30.3710 C   0  0  0  0  0  0  0  0  0  0  0  0
   -1.5500   22.8330  -30.0020 N   0  0  0  0  0  0  0  0  0  0  0  0
   -1.0440   23.8790  -29.2920 C   0  0  0  0  0  0  0  0  0  0  0  0
    0.2150   23.8850  -28.9630 N   0  0  0  0  0  0  0  0  0  0  0  0
    0.7520   23.4930  -27.6590 C   0  0  0  0  0  0  0  0  0  0  0  0
    0.8844   24.3913  -27.0381 H   0  0  0  0  0  0  0  0  0  0  0  0
    1.7177   22.9887  -27.8112 H   0  0  0  0  0  0  0  0  0  0  0  0
   -0.1980   22.5310  -26.9520 C   0  0  0  0  0  0  0  0  0  0  0  0
   -0.0886   22.6418  -25.8631 H   0  0  0  0  0  0  0  0  0  0  0  0
   -1.2342   22.7599  -27.2416 H   0  0  0  0  0  0  0  0  0  0  0  0
    0.0439   21.4977  -27.2416 H   0  0  0  0  0  0  0  0  0  0  0  0
   -1.9130   24.9520  -28.9300 C   0  0  0  0  0  0  0  0  0  0  0  0
   -1.5330   26.0040  -28.2500 N   0  0  0  0  0  0  0  0  0  0  0  0
   -1.2950   26.1370  -26.8140 C   0  0  0  0  0  0  0  0  0  0  0  0
   -0.3130   25.7092  -26.5638 H   0  0  0  0  0  0  0  0  0  0  0  0
   -1.3126   27.2012  -26.5361 H   0  0  0  0  0  0  0  0  0  0  0  0
   -2.3810   25.3950  -26.0500 C   0  0  0  0  0  0  0  0  0  0  0  0
   -2.2127   25.5100  -24.9691 H   0  0  0  0  0  0  0  0  0  0  0  0
   -3.3645   25.8108  -26.3142 H   0  0  0  0  0  0  0  0  0  0  0  0
   -2.3512   24.3276  -26.3142 H   0  0  0  0  0  0  0  0  0  0  0  0
   -3.2230   24.8830  -29.3110 N   0  0  0  0  0  0  0  0  0  0  0  0
   -3.8680   25.6640  -29.0500 H   0  0  0  0  0  0  0  0  0  0  0  0
   -3.7100   23.8270  -30.0190 C   0  0  0  0  0  0  0  0  0  0  0  0
   -5.0540   23.7590  -30.4010 C   0  0  0  0  0  0  0  0  0  0  0  0
   -5.7455   24.5709  -30.1314 H   0  0  0  0  0  0  0  0  0  0  0  0
   -5.5160   22.6570  -31.1260 C   0  0  0  0  0  0  0  0  0  0  0  0
   -6.5727   22.5961  -31.4256 H   0  0  0  0  0  0  0  0  0  0  0  0
   -6.3360   19.8760  -31.9940 C   0  0  0  0  0  0  0  0  0  0  0  0
   -6.9958   20.3325  -31.2415 H   0  0  0  0  0  0  0  0  0  0  0  0
   -6.7670   18.7500  -32.7010 C   0  0  0  0  0  0  0  0  0  0  0  0
   -7.7640   18.3281  -32.5061 H   0  0  0  0  0  0  0  0  0  0  0  0
   -5.9340   18.1590  -33.6550 C   0  0  0  0  0  0  0  0  0  0  0  0
   -6.4860   16.7090  -34.5570 S   0  0  0  0  0  0  0  0  0  0  0  0
   -5.5820   15.5500  -33.4850 C   0  0  0  0  0  0  0  0  0  0  0  0
   -5.7756   15.7983  -32.4310 H   0  0  0  0  0  0  0  0  0  0  0  0
   -5.9201   14.5231  -33.6879 H   0  0  0  0  0  0  0  0  0  0  0  0
   -4.5037   15.6279  -33.6879 H   0  0  0  0  0  0  0  0  0  0  0  0
  1  2  1  0
  2  3  2  0
  3  4  1  0
  3  5  1  0
  5  6  1  0
  6  7  2  0
  7  8  1  0
  8  9  1  0
  9 10  1  0
 10 11  2  0
 11 12  1  0
 12 13  1  0
 12 14  1  0
 12 15  1  0
 15 16  1  0
 15 17  1  0
 15 18  1  0
 10 19  1  0
 19 20  2  0
 20 21  1  0
 21 22  1  0
 21 23  1  0
 21 24  1  0
 24 25  1  0
 24 26  1  0
 24 27  1  0
 19 28  1  0
 28 29  1  0
 28 30  1  0
 30 31  1  0
 31 32  1  0
 31 33  2  0
 33 34  1  0
  5 35  2  0
 35 36  1  0
 35 37  1  0
 37 38  1  0
 37 39  2  0
 39 40  1  0
 40 41  1  0
 41 42  1  0
 41 43  1  0
 41 44  1  0
 39  2  1  0
 33  6  1  0
 30  8  2  0
M  CHG  1   9  -1
M  END
>  <UniqueID>  (40) 
36

>  <SMILES>  (40) 
CC/N=c1\[n-]c2nc(-c3ccc(SC)cc3)ccc2[nH]\c1=N\CC

>  <Energy>  (40) 
49.80856219947725

>  <Genealogy>  (40) 
CCN=c1[n-]c2nc(-c3ccc(SC)cc3)ccc2[nH]c1=NCC (protonated)
CC/N=c1\[n-]c2nc(-c3ccc(SC)cc3)ccc2[nH]\c1=N\CC (cis-trans isomerization)
CC/N=c1\[n-]c2nc(-c3ccc(SC)cc3)ccc2[nH]\c1=N\CC (3D coordinates assigned)
CC/N=c1\[n-]c2nc(-c3ccc(SC)cc3)ccc2[nH]\c1=N\CC (optimized conformer: 49.80856219947725 kcal/mol)

>  <smiles>  (40) 
CCN=c1[nH]c2ccc(-c3ccc(SC)cc3)nc2[nH]c1=NCC

>  <score_type>  (40) 
oracle

>  <origin>  (40) 
adg

>  <m_score__min__energy>  (40) 
-8.0800000000000001

>  <m_primary>  (40) 
energy

$$$$
40:0
     RDKit          3D

 44 47  0  0  0  0  0  0  0  0999 V2000
   -8.7990   22.2990  -30.7450 O   0  0  0  0  0  0  0  0  0  0  0  0
   -8.2630   21.3260  -31.3450 C   0  0  0  0  0  0  0  0  0  0  0  0
   -8.7990   19.9470  -31.1100 C   0  0  0  0  0  0  0  0  0  0  0  0
   -9.0090   19.1420  -32.7210 S   0  0  0  0  0  0  0  0  0  0  0  0
   -7.2510   19.2050  -33.0800 C   0  0  0  0  0  0  0  0  0  0  0  0
   -6.6200   18.0590  -33.5770 C   0  0  0  0  0  0  0  0  0  0  0  0
   -5.2700   18.0950  -33.9270 C   0  0  0  0  0  0  0  0  0  0  0  0
   -4.5430   19.2760  -33.7760 C   0  0  0  0  0  0  0  0  0  0  0  0
   -5.1560   20.4180  -33.2550 C   0  0  0  0  0  0  0  0  0  0  0  0
   -6.5170   20.3980  -32.8840 C   0  0  0  0  0  0  0  0  0  0  0  0
   -7.1390   21.5370  -32.2320 N   0  0  0  0  0  0  0  0  0  0  0  0
   -6.6510   22.9070  -32.4790 C   0  0  0  0  0  0  0  0  0  0  0  0
   -5.6480   23.3500  -31.4370 C   0  0  0  0  0  0  0  0  0  0  0  0
   -4.3180   22.8960  -31.4610 C   0  0  0  0  0  0  0  0  0  0  0  0
   -3.4140   23.2970  -30.4740 C   0  0  0  0  0  0  0  0  0  0  0  0
   -3.8230   24.1500  -29.4380 C   0  0  0  0  0  0  0  0  0  0  0  0
   -2.8970   24.5650  -28.4150 N   0  0  0  0  0  0  0  0  0  0  0  0
   -1.4630   24.6410  -28.7150 C   0  0  0  0  0  0  0  0  0  0  0  0
   -0.8030   25.6890  -27.8130 C   0  0  0  0  0  0  0  0  0  0  0  0
   -1.1050   25.4420  -26.4520 O   0  0  0  0  0  0  0  0  0  0  0  0
   -2.4940   25.6060  -26.2320 C   0  0  0  0  0  0  0  0  0  0  0  0
   -3.2960   24.5520  -27.0040 C   0  0  0  0  0  0  0  0  0  0  0  0
   -5.1580   24.5820  -29.3970 C   0  0  0  0  0  0  0  0  0  0  0  0
   -6.0630   24.1810  -30.3830 C   0  0  0  0  0  0  0  0  0  0  0  0
   -8.0912   19.3717  -30.4952 H   0  0  0  0  0  0  0  0  0  0  0  0
   -9.7621   19.9976  -30.5809 H   0  0  0  0  0  0  0  0  0  0  0  0
   -7.1909   17.1258  -33.6922 H   0  0  0  0  0  0  0  0  0  0  0  0
   -4.7793   17.1931  -34.3216 H   0  0  0  0  0  0  0  0  0  0  0  0
   -3.4830   19.3081  -34.0683 H   0  0  0  0  0  0  0  0  0  0  0  0
   -4.5718   21.3420  -33.1328 H   0  0  0  0  0  0  0  0  0  0  0  0
   -6.1723   22.9400  -33.4688 H   0  0  0  0  0  0  0  0  0  0  0  0
   -7.5135   23.5879  -32.4301 H   0  0  0  0  0  0  0  0  0  0  0  0
   -3.9864   22.2199  -32.2628 H   0  0  0  0  0  0  0  0  0  0  0  0
   -2.3737   22.9412  -30.5095 H   0  0  0  0  0  0  0  0  0  0  0  0
   -0.9992   23.6598  -28.5359 H   0  0  0  0  0  0  0  0  0  0  0  0
   -1.3252   24.9272  -29.7681 H   0  0  0  0  0  0  0  0  0  0  0  0
    0.2873   25.6505  -27.9533 H   0  0  0  0  0  0  0  0  0  0  0  0
   -1.1890   26.6824  -28.0854 H   0  0  0  0  0  0  0  0  0  0  0  0
   -2.7035   25.5025  -25.1571 H   0  0  0  0  0  0  0  0  0  0  0  0
   -2.7914   26.6041  -26.5859 H   0  0  0  0  0  0  0  0  0  0  0  0
   -3.0992   23.5575  -26.5772 H   0  0  0  0  0  0  0  0  0  0  0  0
   -4.3691   24.7808  -26.9261 H   0  0  0  0  0  0  0  0  0  0  0  0
   -5.4940   25.2409  -28.5828 H   0  0  0  0  0  0  0  0  0  0  0  0
   -7.1087   24.5186  -30.3336 H   0  0  0  0  0  0  0  0  0  0  0  0
  1  2  2  0
  2  3  1  0
  3  4  1  0
  4  5  1  0
  5  6  2  0
  6  7  1  0
  7  8  2  0
  8  9  1  0
  9 10  2  0
 10 11  1  0
 11 12  1  0
 12 13  1  0
 13 14  2  0
 14 15  1  0
 15 16  2  0
 16 17  1  0
 17 18  1  0
 18 19  1  0
 19 20  1  0
 20 21  1  0
 21 22  1  0
 16 23  1  0
 23 24  2  0
 11  2  1  0
 24 13  1  0
 10  5  1  0
 22 17  1  0
  3 25  1  0
  3 26  1  0
  6 27  1  0
  7 28  1  0
  8 29  1  0
  9 30  1  0
 12 31  1  0
 12 32  1  0
 14 33  1  0
 15 34  1  0
 18 35  1  0
 18 36  1  0
 19 37  1  0
 19 38  1  0
 21 39  1  0
 21 40  1  0
 22 41  1  0
 22 42  1  0
 23 43  1  0
 24 44  1  0
M  END
>  <UniqueID>  (41) 
37

>  <SMILES>  (41) 
O=C1CSc2ccccc2N1Cc1ccc(N2CCOCC2)cc1

>  <Energy>  (41) 
59.4545738542535

>  <Genealogy>  (41) 
O=C1CSc2ccccc2N1Cc1ccc(N2CCOCC2)cc1 (3D coordinates assigned)
O=C1CSc2ccccc2N1Cc1ccc(N2CCOCC2)cc1 (nonaromatic ring conformer: 59.4545738542535 kcal/mol)

>  <smiles>  (41) 
O=C1CSc2ccccc2N1Cc1ccc(N2CCOCC2)cc1

>  <score_type>  (41) 
oracle

>  <origin>  (41) 
adg

>  <m_score__min__energy>  (41) 
-8.3399999999999999

>  <m_primary>  (41) 
energy

$$$$
41:0
     RDKit          3D

 34 36  0  0  0  0  0  0  0  0999 V2000
   -3.8640   26.4740  -29.9720 H   0  0  0  0  0  0  0  0  0  0  0  0
   -4.6730   26.0930  -30.4380 O   0  0  0  0  0  0  0  0  0  0  0  0
   -4.8070   24.7480  -30.7920 C   0  0  0  0  0  0  0  0  0  0  0  0
   -5.9150   24.4150  -31.5750 C   0  0  0  0  0  0  0  0  0  0  0  0
   -6.5638   25.2141  -31.9631 H   0  0  0  0  0  0  0  0  0  0  0  0
   -6.2100   23.0900  -31.8710 C   0  0  0  0  0  0  0  0  0  0  0  0
   -7.0845   22.8516  -32.4943 H   0  0  0  0  0  0  0  0  0  0  0  0
   -5.4060   22.0600  -31.3840 C   0  0  0  0  0  0  0  0  0  0  0  0
   -5.7730   20.7060  -31.6820 N   0  0  0  0  0  0  0  0  0  0  0  0
   -7.0000   20.3230  -31.8820 C   0  0  0  0  0  0  0  0  0  0  0  0
   -7.3230   19.1840  -32.6540 N   0  0  0  0  0  0  0  0  0  0  0  0
   -6.3500   18.2910  -33.2760 C   0  0  0  0  0  0  0  0  0  0  0  0
   -5.7801   17.7679  -32.4940 H   0  0  0  0  0  0  0  0  0  0  0  0
   -6.8757   17.5544  -33.9014 H   0  0  0  0  0  0  0  0  0  0  0  0
   -5.6611   18.8778  -33.9014 H   0  0  0  0  0  0  0  0  0  0  0  0
   -8.7600   18.9970  -32.7020 C   0  0  0  0  0  0  0  0  0  0  0  0
   -9.1111   19.0022  -33.7445 H   0  0  0  0  0  0  0  0  0  0  0  0
   -9.0547   18.0328  -32.2622 H   0  0  0  0  0  0  0  0  0  0  0  0
   -9.3710   20.1800  -31.9260 C   0  0  0  0  0  0  0  0  0  0  0  0
   -9.9741   20.8023  -32.6035 H   0  0  0  0  0  0  0  0  0  0  0  0
  -10.0253   19.8178  -31.1193 H   0  0  0  0  0  0  0  0  0  0  0  0
   -8.2080   21.0050  -31.3510 C   0  0  0  0  0  0  0  0  0  0  0  0
   -8.2558   22.0472  -31.6996 H   0  0  0  0  0  0  0  0  0  0  0  0
   -8.2221   21.0556  -30.2523 H   0  0  0  0  0  0  0  0  0  0  0  0
   -4.2400   22.3650  -30.6470 C   0  0  0  0  0  0  0  0  0  0  0  0
   -3.3890   21.3340  -30.2010 C   0  0  0  0  0  0  0  0  0  0  0  0
   -3.6515   20.2852  -30.4035 H   0  0  0  0  0  0  0  0  0  0  0  0
   -2.2200   21.6300  -29.5070 C   0  0  0  0  0  0  0  0  0  0  0  0
   -1.5781   20.8152  -29.1409 H   0  0  0  0  0  0  0  0  0  0  0  0
   -1.8610   22.9530  -29.2750 C   0  0  0  0  0  0  0  0  0  0  0  0
   -0.9285   23.1778  -28.7366 H   0  0  0  0  0  0  0  0  0  0  0  0
   -2.6730   24.0000  -29.7190 C   0  0  0  0  0  0  0  0  0  0  0  0
   -2.2000   25.2940  -29.5430 O   0  0  0  0  0  0  0  0  0  0  0  0
   -3.9080   23.7270  -30.3670 C   0  0  0  0  0  0  0  0  0  0  0  0
  1  2  1  0
  2  3  1  0
  3  4  2  0
  4  5  1  0
  4  6  1  0
  6  7  1  0
  6  8  2  0
  8  9  1  0
  9 10  2  0
 10 11  1  0
 11 12  1  0
 12 13  1  0
 12 14  1  0
 12 15  1  0
 11 16  1  0
 16 17  1  0
 16 18  1  0
 16 19  1  0
 19 20  1  0
 19 21  1  0
 19 22  1  0
 22 23  1  0
 22 24  1  0
  8 25  1  0
 25 26  2  0
 26 27  1  0
 26 28  1  0
 28 29  1  0
 28 30  2  0
 30 31  1  0
 30 32  1  0
 32 33  1  0
 32 34  2  0
 34  3  1  0
 22 10  1  0
 34 25  1  0
M  CHG  1  33  -1
M  END
>  <UniqueID>  (42) 
38

>  <SMILES>  (42) 
CN1CCC/C1=N\c1ccc(O)c2c([O-])cccc12

>  <Energy>  (42) 
59.66982193454208

>  <Genealogy>  (42) 
CN1CCCC1=Nc1ccc(O)c2c([O-])cccc12 (protonated)
CN1CCC/C1=N\c1ccc(O)c2c([O-])cccc12 (cis-trans isomerization)
CN1CCC/C1=N\c1ccc(O)c2c([O-])cccc12 (3D coordinates assigned)
CN1CCC/C1=N\c1ccc(O)c2c([O-])cccc12 (nonaromatic ring conformer: 59.66982193454208 kcal/mol)

>  <smiles>  (42) 
CN1CCCC1=Nc1ccc(O)c2c(O)cccc12

>  <score_type>  (42) 
oracle

>  <origin>  (42) 
adg

>  <m_score__min__energy>  (42) 
-10.67

>  <m_primary>  (42) 
energy

$$$$
42:0
     RDKit          3D

 47 50  0  0  0  0  0  0  0  0999 V2000
    0.2070   16.1790  -31.6710 C   0  0  0  0  0  0  0  0  0  0  0  0
    0.1930   16.3990  -33.1790 C   0  0  0  0  0  0  0  0  0  0  0  0
   -0.7560   17.4530  -33.5270 N   0  0  0  0  0  0  0  0  0  0  0  0
   -0.4100   18.6720  -33.9260 N   0  0  0  0  0  0  0  0  0  0  0  0
   -1.5420   19.3600  -34.2230 C   0  0  0  0  0  0  0  0  0  0  0  0
   -2.6220   18.5290  -34.0120 C   0  0  0  0  0  0  0  0  0  0  0  0
   -3.9910   18.6950  -34.1620 C   0  0  0  0  0  0  0  0  0  0  0  0
   -4.8160   17.5900  -33.8520 C   0  0  0  0  0  0  0  0  0  0  0  0
   -6.3150   17.7060  -33.9500 C   0  0  0  0  0  0  0  0  0  0  0  0
   -6.8670   18.3970  -32.7730 N   0  0  0  0  0  0  0  0  0  0  0  0
   -8.0920   17.8690  -32.1480 C   0  0  0  0  0  0  0  0  0  0  0  0
   -9.1150   18.9840  -31.9080 C   0  0  0  0  0  0  0  0  0  0  0  0
   -9.3640   19.6960  -33.0890 O   0  0  0  0  0  0  0  0  0  0  0  0
   -6.3730   19.6960  -32.3750 C   0  0  0  0  0  0  0  0  0  0  0  0
   -5.2400   19.7830  -31.6270 N   0  0  0  0  0  0  0  0  0  0  0  0
   -4.7340   20.9810  -31.2400 C   0  0  0  0  0  0  0  0  0  0  0  0
   -5.3730   22.1710  -31.6110 C   0  0  0  0  0  0  0  0  0  0  0  0
   -4.8400   23.4950  -31.2000 C   0  0  0  0  0  0  0  0  0  0  0  0
   -5.4830   24.7190  -31.2360 C   0  0  0  0  0  0  0  0  0  0  0  0
   -4.6520   25.6710  -30.7750 N   0  0  0  0  0  0  0  0  0  0  0  0
   -3.5020   25.1050  -30.4460 N   0  0  0  0  0  0  0  0  0  0  0  0
   -3.5870   23.7840  -30.6920 C   0  0  0  0  0  0  0  0  0  0  0  0
   -6.5340   22.0620  -32.3910 C   0  0  0  0  0  0  0  0  0  0  0  0
   -7.0060   20.8420  -32.7590 N   0  0  0  0  0  0  0  0  0  0  0  0
   -4.2150   16.3780  -33.4110 C   0  0  0  0  0  0  0  0  0  0  0  0
   -2.8570   16.2760  -33.2840 N   0  0  0  0  0  0  0  0  0  0  0  0
   -2.0930   17.3550  -33.5840 C   0  0  0  0  0  0  0  0  0  0  0  0
    0.1452   17.1502  -31.1582 H   0  0  0  0  0  0  0  0  0  0  0  0
   -0.6534   15.5570  -31.3832 H   0  0  0  0  0  0  0  0  0  0  0  0
    1.1393   15.6711  -31.3832 H   0  0  0  0  0  0  0  0  0  0  0  0
    1.1994   16.6918  -33.5127 H   0  0  0  0  0  0  0  0  0  0  0  0
   -0.1106   15.4652  -33.6748 H   0  0  0  0  0  0  0  0  0  0  0  0
   -1.5896   20.4020  -34.5722 H   0  0  0  0  0  0  0  0  0  0  0  0
   -4.4173   19.6481  -34.5082 H   0  0  0  0  0  0  0  0  0  0  0  0
   -6.5737   18.2745  -34.8555 H   0  0  0  0  0  0  0  0  0  0  0  0
   -6.7433   16.6939  -33.9960 H   0  0  0  0  0  0  0  0  0  0  0  0
   -8.5355   17.1115  -32.8110 H   0  0  0  0  0  0  0  0  0  0  0  0
   -7.8251   17.4256  -31.1773 H   0  0  0  0  0  0  0  0  0  0  0  0
  -10.0554   18.5393  -31.5504 H   0  0  0  0  0  0  0  0  0  0  0  0
   -8.7090   19.6783  -31.1576 H   0  0  0  0  0  0  0  0  0  0  0  0
   -9.3830   19.0290  -33.8250 H   0  0  0  0  0  0  0  0  0  0  0  0
   -3.8179   21.0179  -30.6322 H   0  0  0  0  0  0  0  0  0  0  0  0
   -6.5120   24.8875  -31.5865 H   0  0  0  0  0  0  0  0  0  0  0  0
   -2.7862   23.0506  -30.5165 H   0  0  0  0  0  0  0  0  0  0  0  0
   -7.0664   22.9712  -32.7072 H   0  0  0  0  0  0  0  0  0  0  0  0
   -7.8530   20.8080  -33.3650 H   0  0  0  0  0  0  0  0  0  0  0  0
   -4.8500   15.5129  -33.1694 H   0  0  0  0  0  0  0  0  0  0  0  0
  1  2  1  0
  2  3  1  0
  3  4  1  0
  4  5  2  0
  5  6  1  0
  6  7  2  0
  7  8  1  0
  8  9  1  0
  9 10  1  0
 10 11  1  0
 11 12  1  0
 12 13  1  0
 10 14  1  0
 14 15  2  0
 15 16  1  0
 16 17  2  0
 17 18  1  0
 18 19  1  0
 19 20  2  0
 20 21  1  0
 21 22  1  0
 17 23  1  0
 23 24  2  0
  8 25  2  0
 25 26  1  0
 26 27  2  0
 27  3  1  0
 27  6  1  0
 24 14  1  0
 22 18  2  0
  1 28  1  0
  1 29  1  0
  1 30  1  0
  2 31  1  0
  2 32  1  0
  5 33  1  0
  7 34  1  0
  9 35  1  0
  9 36  1  0
 11 37  1  0
 11 38  1  0
 12 39  1  0
 12 40  1  0
 13 41  1  0
 16 42  1  0
 19 43  1  0
 22 44  1  0
 23 45  1  0
 24 46  1  0
 25 47  1  0
M  CHG  2  21  -1  24   1
M  END
>  <UniqueID>  (43) 
39

>  <SMILES>  (43) 
CCn1ncc2cc(CN(CCO)c3ncc(-c4cn[n-]c4)c[nH+]3)cnc21

>  <Energy>  (43) 
118.35903759386301

>  <Genealogy>  (43) 
CCn1ncc2cc(CN(CCO)c3ncc(-c4cn[n-]c4)c[nH+]3)cnc21 (protonated)
CCn1ncc2cc(CN(CCO)c3ncc(-c4cn[n-]c4)c[nH+]3)cnc21 (3D coordinates assigned)
CCn1ncc2cc(CN(CCO)c3ncc(-c4cn[n-]c4)c[nH+]3)cnc21 (optimized conformer: 118.35903759386301 kcal/mol)

>  <smiles>  (43) 
CCn1ncc2cc(CN(CCO)c3ncc(-c4cn[nH]c4)cn3)cnc21

>  <score_type>  (43) 
oracle

>  <origin>  (43) 
adg

>  <m_score__min__energy>  (43) 
-8.4399999999999995

>  <m_primary>  (43) 
energy

$$$$
43:0
     RDKit          3D

 42 44  0  0  0  0  0  0  0  0999 V2000
   -6.4100   24.6380  -29.7270 C   0  0  0  0  0  0  0  0  0  0  0  0
   -6.0600   23.5960  -30.7070 N   0  0  0  0  0  0  0  0  0  0  0  0
   -6.9130   23.7020  -31.9120 C   0  0  0  0  0  0  0  0  0  0  0  0
   -7.6940   22.4300  -32.0820 C   0  0  0  0  0  0  0  0  0  0  0  0
   -9.0540   22.3730  -31.7530 C   0  0  0  0  0  0  0  0  0  0  0  0
   -9.7570   21.1740  -31.8850 C   0  0  0  0  0  0  0  0  0  0  0  0
   -9.1070   20.0230  -32.3350 C   0  0  0  0  0  0  0  0  0  0  0  0
   -7.7370   20.0530  -32.6590 C   0  0  0  0  0  0  0  0  0  0  0  0
   -7.0550   18.8590  -33.1140 N   0  0  0  0  0  0  0  0  0  0  0  0
   -6.1050   18.8350  -34.2170 C   0  0  0  0  0  0  0  0  0  0  0  0
   -5.7670   17.3690  -34.4440 C   0  0  0  0  0  0  0  0  0  0  0  0
   -6.1970   16.6430  -33.1760 C   0  0  0  0  0  0  0  0  0  0  0  0
   -7.2280   17.5450  -32.5120 C   0  0  0  0  0  0  0  0  0  0  0  0
   -7.0410   21.2700  -32.5280 C   0  0  0  0  0  0  0  0  0  0  0  0
   -4.6240   23.6660  -31.0430 C   0  0  0  0  0  0  0  0  0  0  0  0
   -4.2160   22.4360  -31.7960 C   0  0  0  0  0  0  0  0  0  0  0  0
   -3.7880   21.2460  -31.2440 C   0  0  0  0  0  0  0  0  0  0  0  0
   -3.6150   20.4140  -32.3340 C   0  0  0  0  0  0  0  0  0  0  0  0
   -3.9230   21.0810  -33.4240 O   0  0  0  0  0  0  0  0  0  0  0  0
   -4.2880   22.2940  -33.1310 N   0  0  0  0  0  0  0  0  0  0  0  0
   -6.2774   24.2432  -28.7089 H   0  0  0  0  0  0  0  0  0  0  0  0
   -5.7556   25.5105  -29.8700 H   0  0  0  0  0  0  0  0  0  0  0  0
   -7.4584   24.9386  -29.8700 H   0  0  0  0  0  0  0  0  0  0  0  0
   -7.6078   24.5470  -31.7970 H   0  0  0  0  0  0  0  0  0  0  0  0
   -6.2810   23.8670  -32.7971 H   0  0  0  0  0  0  0  0  0  0  0  0
   -9.5693   23.2745  -31.3899 H   0  0  0  0  0  0  0  0  0  0  0  0
  -10.8272   21.1359  -31.6335 H   0  0  0  0  0  0  0  0  0  0  0  0
   -9.6706   19.0839  -32.4374 H   0  0  0  0  0  0  0  0  0  0  0  0
   -6.5576   19.2678  -35.1213 H   0  0  0  0  0  0  0  0  0  0  0  0
   -5.2059   19.4262  -33.9887 H   0  0  0  0  0  0  0  0  0  0  0  0
   -6.3166   16.9794  -35.3136 H   0  0  0  0  0  0  0  0  0  0  0  0
   -4.6954   17.2274  -34.6480 H   0  0  0  0  0  0  0  0  0  0  0  0
   -6.6436   15.6690  -33.4248 H   0  0  0  0  0  0  0  0  0  0  0  0
   -5.3424   16.4470  -32.5117 H   0  0  0  0  0  0  0  0  0  0  0  0
   -8.2441   17.1684  -32.7008 H   0  0  0  0  0  0  0  0  0  0  0  0
   -7.0917   17.5794  -31.4210 H   0  0  0  0  0  0  0  0  0  0  0  0
   -5.9708   21.3124  -32.7786 H   0  0  0  0  0  0  0  0  0  0  0  0
   -4.4379   24.5535  -31.6657 H   0  0  0  0  0  0  0  0  0  0  0  0
   -4.0376   23.7337  -30.1148 H   0  0  0  0  0  0  0  0  0  0  0  0
   -3.6227   21.0133  -30.1817 H   0  0  0  0  0  0  0  0  0  0  0  0
   -3.2761   19.3682  -32.2957 H   0  0  0  0  0  0  0  0  0  0  0  0
   -4.5960   23.0100  -33.8250 H   0  0  0  0  0  0  0  0  0  0  0  0
  1  2  1  0
  2  3  1  0
  3  4  1  0
  4  5  2  0
  5  6  1  0
  6  7  2  0
  7  8  1  0
  8  9  1  0
  9 10  1  0
 10 11  1  0
 11 12  1  0
 12 13  1  0
  8 14  2  0
  2 15  1  0
 15 16  1  0
 16 17  1  0
 17 18  2  0
 18 19  1  0
 19 20  1  0
 14  4  1  0
 20 16  2  0
 13  9  1  0
  1 21  1  0
  1 22  1  0
  1 23  1  0
  3 24  1  0
  3 25  1  0
  5 26  1  0
  6 27  1  0
  7 28  1  0
 10 29  1  0
 10 30  1  0
 11 31  1  0
 11 32  1  0
 12 33  1  0
 12 34  1  0
 13 35  1  0
 13 36  1  0
 14 37  1  0
 15 38  1  0
 15 39  1  0
 17 40  1  0
 18 41  1  0
 20 42  1  0
M  CHG  1  20   1
M  END
>  <UniqueID>  (44) 
40

>  <SMILES>  (44) 
CN(Cc1cccc(N2CCCC2)c1)Cc1cco[nH+]1

>  <Energy>  (44) 
73.49460989133746

>  <Genealogy>  (44) 
CN(Cc1cccc(N2CCCC2)c1)Cc1cco[nH+]1 (protonated)
CN(Cc1cccc(N2CCCC2)c1)Cc1cco[nH+]1 (3D coordinates assigned)
CN(Cc1cccc(N2CCCC2)c1)Cc1cco[nH+]1 (nonaromatic ring conformer: 73.49460989133746 kcal/mol)

>  <smiles>  (44) 
CN(Cc1cccc(N2CCCC2)c1)Cc1ccon1

>  <score_type>  (44) 
oracle

>  <origin>  (44) 
adg

>  <m_score__min__energy>  (44) 
-6.9299999999999997

>  <m_primary>  (44) 
energy

$$$$
44:0
     RDKit          3D

 45 47  0  0  0  0  0  0  0  0999 V2000
   -3.1880   24.1980  -27.4900 C   0  0  0  0  0  0  0  0  0  0  0  0
   -2.2930   24.7480  -28.5950 C   0  0  0  0  0  0  0  0  0  0  0  0
   -3.0780   25.2170  -29.6930 O   0  0  0  0  0  0  0  0  0  0  0  0
   -4.3160   24.6940  -30.1040 C   0  0  0  0  0  0  0  0  0  0  0  0
   -5.5410   25.2020  -29.6210 C   0  0  0  0  0  0  0  0  0  0  0  0
   -6.7500   24.6120  -30.0000 C   0  0  0  0  0  0  0  0  0  0  0  0
   -6.7530   23.5090  -30.8550 C   0  0  0  0  0  0  0  0  0  0  0  0
   -5.5490   23.0010  -31.3450 C   0  0  0  0  0  0  0  0  0  0  0  0
   -4.3320   23.6010  -30.9970 C   0  0  0  0  0  0  0  0  0  0  0  0
   -3.1220   23.0510  -31.5310 N   0  0  0  0  0  0  0  0  0  0  0  0
   -2.3390   22.0320  -30.8980 C   0  0  0  0  0  0  0  0  0  0  0  0
   -2.1140   22.0730  -29.6580 O   0  0  0  0  0  0  0  0  0  0  0  0
   -1.7540   20.9230  -31.7180 C   0  0  0  0  0  0  0  0  0  0  0  0
   -2.2780   21.0290  -33.4670 S   0  0  0  0  0  0  0  0  0  0  0  0
   -3.7810   20.0700  -33.2410 C   0  0  0  0  0  0  0  0  0  0  0  0
   -4.9660   20.7090  -33.0940 N   0  0  0  0  0  0  0  0  0  0  0  0
   -6.1160   20.0500  -32.9220 N   0  0  0  0  0  0  0  0  0  0  0  0
   -6.1150   18.6760  -32.8720 C   0  0  0  0  0  0  0  0  0  0  0  0
   -4.9370   18.0170  -33.0400 N   0  0  0  0  0  0  0  0  0  0  0  0
   -3.7700   18.6800  -33.2200 C   0  0  0  0  0  0  0  0  0  0  0  0
   -2.6990   18.0360  -33.3740 O   0  0  0  0  0  0  0  0  0  0  0  0
   -7.3270   17.8300  -32.7040 C   0  0  0  0  0  0  0  0  0  0  0  0
   -8.5550   18.1570  -32.2650 C   0  0  0  0  0  0  0  0  0  0  0  0
   -9.0470   19.4390  -31.6420 C   0  0  0  0  0  0  0  0  0  0  0  0
   -8.0250   20.5560  -31.4890 C   0  0  0  0  0  0  0  0  0  0  0  0
   -7.3330   20.8460  -32.8150 C   0  0  0  0  0  0  0  0  0  0  0  0
   -2.7629   24.4593  -26.5097 H   0  0  0  0  0  0  0  0  0  0  0  0
   -4.1937   24.6342  -27.5815 H   0  0  0  0  0  0  0  0  0  0  0  0
   -3.2532   23.1038  -27.5815 H   0  0  0  0  0  0  0  0  0  0  0  0
   -1.6964   25.5813  -28.1955 H   0  0  0  0  0  0  0  0  0  0  0  0
   -1.6332   23.9426  -28.9500 H   0  0  0  0  0  0  0  0  0  0  0  0
   -5.5442   26.0675  -28.9421 H   0  0  0  0  0  0  0  0  0  0  0  0
   -7.7007   25.0177  -29.6238 H   0  0  0  0  0  0  0  0  0  0  0  0
   -7.7052   23.0396  -31.1430 H   0  0  0  0  0  0  0  0  0  0  0  0
   -5.5558   22.1238  -32.0087 H   0  0  0  0  0  0  0  0  0  0  0  0
   -0.6568   20.9842  -31.6699 H   0  0  0  0  0  0  0  0  0  0  0  0
   -2.1129   19.9670  -31.3090 H   0  0  0  0  0  0  0  0  0  0  0  0
   -7.1987   16.7735  -32.9819 H   0  0  0  0  0  0  0  0  0  0  0  0
   -9.3158   17.3705  -32.3773 H   0  0  0  0  0  0  0  0  0  0  0  0
   -9.8680   19.8206  -32.2669 H   0  0  0  0  0  0  0  0  0  0  0  0
   -9.3400   19.1703  -30.6164 H   0  0  0  0  0  0  0  0  0  0  0  0
   -8.5360   21.4666  -31.1428 H   0  0  0  0  0  0  0  0  0  0  0  0
   -7.2658   20.2397  -30.7585 H   0  0  0  0  0  0  0  0  0  0  0  0
   -8.0101   20.5910  -33.6436 H   0  0  0  0  0  0  0  0  0  0  0  0
   -7.0737   21.9139  -32.8632 H   0  0  0  0  0  0  0  0  0  0  0  0
  1  2  1  0
  2  3  1  0
  3  4  1  0
  4  5  2  0
  5  6  1  0
  6  7  2  0
  7  8  1  0
  8  9  2  0
  9 10  1  0
 10 11  1  0
 11 12  2  0
 11 13  1  0
 13 14  1  0
 14 15  1  0
 15 16  2  0
 16 17  1  0
 17 18  1  0
 18 19  2  0
 19 20  1  0
 20 21  2  0
 18 22  1  0
 22 23  2  0
 23 24  1  0
 24 25  1  0
 25 26  1  0
  9  4  1  0
 20 15  1  0
 26 17  1  0
  1 27  1  0
  1 28  1  0
  1 29  1  0
  2 30  1  0
  2 31  1  0
  5 32  1  0
  6 33  1  0
  7 34  1  0
  8 35  1  0
 13 36  1  0
 13 37  1  0
 22 38  1  0
 23 39  1  0
 24 40  1  0
 24 41  1  0
 25 42  1  0
 25 43  1  0
 26 44  1  0
 26 45  1  0
M  CHG  1  10  -1
M  END
>  <UniqueID>  (45) 
41

>  <SMILES>  (45) 
CCOc1ccccc1[N-]C(=O)CSc1nn2c(nc1=O)C=CCCC2

>  <Energy>  (45) 
57.525677534247436

>  <Genealogy>  (45) 
CCOc1ccccc1[N-]C(=O)CSc1nn2c(nc1=O)C=CCCC2 (protonated)
CCOc1ccccc1[N-]C(=O)CSc1nn2c(nc1=O)C=CCCC2 (3D coordinates assigned)
CCOc1ccccc1[N-]C(=O)CSc1nn2c(nc1=O)C=CCCC2 (nonaromatic ring conformer: 57.525677534247436 kcal/mol)

>  <smiles>  (45) 
CCOc1ccccc1NC(=O)CSc1nn2c(nc1=O)C=CCCC2

>  <score_type>  (45) 
oracle

>  <origin>  (45) 
adg

>  <m_score__min__energy>  (45) 
-9.6099999999999994

>  <m_primary>  (45) 
energy

$$$$
45:0
     RDKit          3D

 32 33  0  0  0  0  0  0  0  0999 V2000
   -5.6490   25.6760  -30.2110 C   0  0  0  0  0  0  0  0  0  0  0  0
   -4.6020   24.9450  -30.8390 O   0  0  0  0  0  0  0  0  0  0  0  0
   -4.6620   23.5770  -31.1430 C   0  0  0  0  0  0  0  0  0  0  0  0
   -3.5280   22.7450  -31.1020 C   0  0  0  0  0  0  0  0  0  0  0  0
   -3.6410   21.3900  -31.4200 C   0  0  0  0  0  0  0  0  0  0  0  0
   -4.8800   20.8510  -31.7730 C   0  0  0  0  0  0  0  0  0  0  0  0
   -6.0270   21.6600  -31.8030 C   0  0  0  0  0  0  0  0  0  0  0  0
   -7.3140   21.1320  -32.1750 N   0  0  0  0  0  0  0  0  0  0  0  0
   -8.4530   21.5250  -31.6280 N   0  0  0  0  0  0  0  0  0  0  0  0
   -9.4250   20.7490  -32.0760 N   0  0  0  0  0  0  0  0  0  0  0  0
   -8.9510   19.8240  -32.8960 N   0  0  0  0  0  0  0  0  0  0  0  0
   -7.6300   20.0770  -32.9620 C   0  0  0  0  0  0  0  0  0  0  0  0
   -6.4760   19.0250  -33.8550 S   0  0  0  0  0  0  0  0  0  0  0  0
   -6.9870   17.4640  -33.0370 C   0  0  0  0  0  0  0  0  0  0  0  0
   -6.4570   16.2410  -33.7860 C   0  0  0  0  0  0  0  0  0  0  0  0
   -6.4780   17.4680  -31.5950 C   0  0  0  0  0  0  0  0  0  0  0  0
   -5.9000   23.0270  -31.4980 C   0  0  0  0  0  0  0  0  0  0  0  0
   -5.5435   25.6023  -29.1186 H   0  0  0  0  0  0  0  0  0  0  0  0
   -5.5923   26.7318  -30.5145 H   0  0  0  0  0  0  0  0  0  0  0  0
   -6.6206   25.2589  -30.5145 H   0  0  0  0  0  0  0  0  0  0  0  0
   -2.5506   23.1628  -30.8189 H   0  0  0  0  0  0  0  0  0  0  0  0
   -2.7506   20.7447  -31.3923 H   0  0  0  0  0  0  0  0  0  0  0  0
   -4.9578   19.7842  -32.0296 H   0  0  0  0  0  0  0  0  0  0  0  0
  -10.4280   20.8380  -31.8020 H   0  0  0  0  0  0  0  0  0  0  0  0
   -8.0853   17.4028  -33.0454 H   0  0  0  0  0  0  0  0  0  0  0  0
   -6.1279   15.4815  -33.0615 H   0  0  0  0  0  0  0  0  0  0  0  0
   -7.2550   15.8237  -34.4177 H   0  0  0  0  0  0  0  0  0  0  0  0
   -5.6068   16.5379  -34.4177 H   0  0  0  0  0  0  0  0  0  0  0  0
   -7.3339   17.4613  -30.9040 H   0  0  0  0  0  0  0  0  0  0  0  0
   -5.8599   16.5747  -31.4218 H   0  0  0  0  0  0  0  0  0  0  0  0
   -5.8741   18.3709  -31.4218 H   0  0  0  0  0  0  0  0  0  0  0  0
   -6.7879   23.6750  -31.5390 H   0  0  0  0  0  0  0  0  0  0  0  0
  1  2  1  0
  2  3  1  0
  3  4  2  0
  4  5  1  0
  5  6  2  0
  6  7  1  0
  7  8  1  0
  8  9  1  0
  9 10  2  0
 10 11  1  0
 11 12  2  0
 12 13  1  0
 13 14  1  0
 14 15  1  0
 14 16  1  0
  7 17  2  0
 17  3  1  0
 12  8  1  0
  1 18  1  0
  1 19  1  0
  1 20  1  0
  4 21  1  0
  5 22  1  0
  6 23  1  0
 10 24  1  0
 14 25  1  0
 15 26  1  0
 15 27  1  0
 15 28  1  0
 16 29  1  0
 16 30  1  0
 16 31  1  0
 17 32  1  0
M  CHG  1  10   1
M  END
>  <UniqueID>  (46) 
42

>  <SMILES>  (46) 
COc1cccc(-n2n[nH+]nc2SC(C)C)c1

>  <Energy>  (46) 
70.45549031862036

>  <Genealogy>  (46) 
COc1cccc(-n2n[nH+]nc2SC(C)C)c1 (protonated)
COc1cccc(-n2n[nH+]nc2SC(C)C)c1 (3D coordinates assigned)
COc1cccc(-n2n[nH+]nc2SC(C)C)c1 (optimized conformer: 70.45549031862036 kcal/mol)

>  <smiles>  (46) 
COc1cccc(-n2nnnc2SC(C)C)c1

>  <score_type>  (46) 
oracle

>  <origin>  (46) 
adg

>  <m_score__min__energy>  (46) 
-6.8700000000000001

>  <m_primary>  (46) 
energy

$$$$
46:0
     RDKit          3D

 32 34  0  0  0  0  0  0  0  0999 V2000
   -4.5710   24.1590  -26.6100 O   0  0  0  0  0  0  0  0  0  0  0  0
   -4.2150   24.1640  -27.8170 C   0  0  0  0  0  0  0  0  0  0  0  0
   -2.9730   23.6870  -28.2100 C   0  0  0  0  0  0  0  0  0  0  0  0
   -2.5980   23.7030  -29.5540 C   0  0  0  0  0  0  0  0  0  0  0  0
   -1.2380   23.1630  -29.8510 C   0  0  0  0  0  0  0  0  0  0  0  0
   -1.5030   21.5540  -30.6490 S   0  0  0  0  0  0  0  0  0  0  0  0
   -3.0740   21.5670  -31.5000 C   0  0  0  0  0  0  0  0  0  0  0  0
   -3.3120   22.3030  -32.6060 N   0  0  0  0  0  0  0  0  0  0  0  0
   -4.5590   22.0840  -32.9770 N   0  0  0  0  0  0  0  0  0  0  0  0
   -5.1580   21.2120  -32.1330 C   0  0  0  0  0  0  0  0  0  0  0  0
   -6.5250   20.7050  -32.1850 C   0  0  0  0  0  0  0  0  0  0  0  0
   -6.8330   19.3890  -32.4580 C   0  0  0  0  0  0  0  0  0  0  0  0
   -8.1420   18.9430  -32.4990 C   0  0  0  0  0  0  0  0  0  0  0  0
   -9.1560   19.8690  -32.2550 C   0  0  0  0  0  0  0  0  0  0  0  0
   -8.8750   21.1920  -31.9800 C   0  0  0  0  0  0  0  0  0  0  0  0
   -7.5490   21.5930  -31.9490 C   0  0  0  0  0  0  0  0  0  0  0  0
   -4.2050   20.8980  -31.2110 N   0  0  0  0  0  0  0  0  0  0  0  0
   -3.4180   24.1760  -30.5070 N   0  0  0  0  0  0  0  0  0  0  0  0
   -4.6260   24.6360  -30.1030 C   0  0  0  0  0  0  0  0  0  0  0  0
   -5.4400   25.0920  -30.9440 O   0  0  0  0  0  0  0  0  0  0  0  0
   -5.0100   24.6320  -28.8130 N   0  0  0  0  0  0  0  0  0  0  0  0
   -2.2772   23.2924  -27.4549 H   0  0  0  0  0  0  0  0  0  0  0  0
   -0.6968   23.8408  -30.5275 H   0  0  0  0  0  0  0  0  0  0  0  0
   -0.6344   23.0651  -28.9366 H   0  0  0  0  0  0  0  0  0  0  0  0
   -4.9970   22.5350  -33.8100 H   0  0  0  0  0  0  0  0  0  0  0  0
   -6.0174   18.6758  -32.6480 H   0  0  0  0  0  0  0  0  0  0  0  0
   -8.3758   17.8905  -32.7173 H   0  0  0  0  0  0  0  0  0  0  0  0
  -10.2044   19.5371  -32.2824 H   0  0  0  0  0  0  0  0  0  0  0  0
   -9.6850   21.9115  -31.7898 H   0  0  0  0  0  0  0  0  0  0  0  0
   -7.3099   22.6443  -31.7309 H   0  0  0  0  0  0  0  0  0  0  0  0
   -3.1140   24.1750  -31.5000 H   0  0  0  0  0  0  0  0  0  0  0  0
   -5.9490   24.9910  -28.4970 H   0  0  0  0  0  0  0  0  0  0  0  0
  1  2  2  0
  2  3  1  0
  3  4  2  0
  4  5  1  0
  5  6  1  0
  6  7  1  0
  7  8  2  0
  8  9  1  0
  9 10  1  0
 10 11  1  0
 11 12  2  0
 12 13  1  0
 13 14  2  0
 14 15  1  0
 15 16  2  0
 10 17  2  0
  4 18  1  0
 18 19  1  0
 19 20  2  0
 19 21  1  0
 21  2  1  0
 17  7  1  0
 16 11  1  0
  3 22  1  0
  5 23  1  0
  5 24  1  0
  9 25  1  0
 12 26  1  0
 13 27  1  0
 14 28  1  0
 15 29  1  0
 16 30  1  0
 18 31  1  0
 21 32  1  0
M  END
>  <smiles>  (47) 
O=c1cc(CSc2n[nH]c(-c3ccccc3)n2)[nH]c(=O)[nH]1

>  <score_type>  (47) 
oracle

>  <origin>  (47) 
adg

>  <m_score__min__energy>  (47) 
-7.5899999999999999

>  <m_primary>  (47) 
energy

$$$$
47:0
     RDKit          3D

 57 61  0  0  0  0  0  0  0  0999 V2000
   -6.5500   17.7680  -31.2370 C   0  0  0  0  0  0  0  0  0  0  0  0
   -7.3030   17.8970  -32.4960 N   0  0  0  0  0  0  0  0  0  0  0  0
   -6.5030   18.5330  -33.5710 C   0  0  0  0  0  0  0  0  0  0  0  0
   -6.7440   20.0510  -33.6960 C   0  0  0  0  0  0  0  0  0  0  0  0
   -7.1610   20.5950  -32.3950 N   0  0  0  0  0  0  0  0  0  0  0  0
   -7.0720   22.0680  -32.3130 C   0  0  0  0  0  0  0  0  0  0  0  0
   -5.9840   22.5610  -31.3950 C   0  0  0  0  0  0  0  0  0  0  0  0
   -4.6680   22.0940  -31.3800 C   0  0  0  0  0  0  0  0  0  0  0  0
   -3.8830   22.7650  -30.4380 C   0  0  0  0  0  0  0  0  0  0  0  0
   -2.5300   22.5750  -30.1590 C   0  0  0  0  0  0  0  0  0  0  0  0
   -1.7760   21.5660  -30.8420 N   0  0  0  0  0  0  0  0  0  0  0  0
   -0.7280   20.8530  -30.1110 C   0  0  0  0  0  0  0  0  0  0  0  0
   -0.4510   19.5070  -30.7890 C   0  0  0  0  0  0  0  0  0  0  0  0
   -0.2030   19.6830  -32.1720 O   0  0  0  0  0  0  0  0  0  0  0  0
   -1.3690   20.1700  -32.8100 C   0  0  0  0  0  0  0  0  0  0  0  0
   -1.7250   21.5730  -32.3050 C   0  0  0  0  0  0  0  0  0  0  0  0
   -1.9360   23.3670  -29.2150 N   0  0  0  0  0  0  0  0  0  0  0  0
   -2.6500   24.3200  -28.5260 C   0  0  0  0  0  0  0  0  0  0  0  0
   -2.0040   25.1620  -27.4870 C   0  0  0  0  0  0  0  0  0  0  0  0
   -2.5830   25.2690  -26.2070 C   0  0  0  0  0  0  0  0  0  0  0  0
   -1.9840   26.0580  -25.2220 C   0  0  0  0  0  0  0  0  0  0  0  0
   -0.7920   26.7410  -25.4930 C   0  0  0  0  0  0  0  0  0  0  0  0
   -0.0410   27.7310  -24.2530 Cl  0  0  0  0  0  0  0  0  0  0  0  0
   -0.1960   26.6260  -26.7520 C   0  0  0  0  0  0  0  0  0  0  0  0
   -0.7930   25.8390  -27.7430 C   0  0  0  0  0  0  0  0  0  0  0  0
   -3.9740   24.5070  -28.8050 N   0  0  0  0  0  0  0  0  0  0  0  0
   -4.5670   23.7360  -29.7450 C   0  0  0  0  0  0  0  0  0  0  0  0
   -6.1630   23.8070  -30.2560 S   0  0  0  0  0  0  0  0  0  0  0  0
   -8.4770   20.0660  -31.9870 C   0  0  0  0  0  0  0  0  0  0  0  0
   -8.6100   18.5560  -32.2940 C   0  0  0  0  0  0  0  0  0  0  0  0
   -7.2364   17.8856  -30.3855 H   0  0  0  0  0  0  0  0  0  0  0  0
   -6.0772   16.7758  -31.1925 H   0  0  0  0  0  0  0  0  0  0  0  0
   -5.7739   18.5463  -31.1925 H   0  0  0  0  0  0  0  0  0  0  0  0
   -5.4369   18.3654  -33.3581 H   0  0  0  0  0  0  0  0  0  0  0  0
   -6.8136   18.0751  -34.5217 H   0  0  0  0  0  0  0  0  0  0  0  0
   -5.8145   20.5436  -34.0174 H   0  0  0  0  0  0  0  0  0  0  0  0
   -7.5348   20.2346  -34.4382 H   0  0  0  0  0  0  0  0  0  0  0  0
   -6.8786   22.4605  -33.3222 H   0  0  0  0  0  0  0  0  0  0  0  0
   -8.0267   22.4242  -31.8987 H   0  0  0  0  0  0  0  0  0  0  0  0
   -4.2931   21.2921  -32.0330 H   0  0  0  0  0  0  0  0  0  0  0  0
    0.1913   21.4570  -30.1077 H   0  0  0  0  0  0  0  0  0  0  0  0
   -1.0589   20.6790  -29.0765 H   0  0  0  0  0  0  0  0  0  0  0  0
    0.4290   19.0417  -30.3210 H   0  0  0  0  0  0  0  0  0  0  0  0
   -1.3342   18.8626  -30.6681 H   0  0  0  0  0  0  0  0  0  0  0  0
   -1.1947   20.2116  -33.8953 H   0  0  0  0  0  0  0  0  0  0  0  0
   -2.2041   19.4919  -32.5800 H   0  0  0  0  0  0  0  0  0  0  0  0
   -0.9609   22.2889  -32.6419 H   0  0  0  0  0  0  0  0  0  0  0  0
   -2.7060   21.8690  -32.7049 H   0  0  0  0  0  0  0  0  0  0  0  0
   -0.9160   23.2390  -29.0360 H   0  0  0  0  0  0  0  0  0  0  0  0
   -3.5135   24.7273  -25.9816 H   0  0  0  0  0  0  0  0  0  0  0  0
   -2.4506   26.1431  -24.2295 H   0  0  0  0  0  0  0  0  0  0  0  0
    0.7446   27.1554  -26.9643 H   0  0  0  0  0  0  0  0  0  0  0  0
   -0.3145   25.7475  -28.7292 H   0  0  0  0  0  0  0  0  0  0  0  0
   -8.6035   20.2218  -30.9055 H   0  0  0  0  0  0  0  0  0  0  0  0
   -9.2515   20.6000  -32.5570 H   0  0  0  0  0  0  0  0  0  0  0  0
   -9.1227   18.0695  -31.4511 H   0  0  0  0  0  0  0  0  0  0  0  0
   -9.1799   18.4565  -33.2296 H   0  0  0  0  0  0  0  0  0  0  0  0
  1  2  1  0
  2  3  1  0
  3  4  1  0
  4  5  1  0
  5  6  1  0
  6  7  1  0
  7  8  2  0
  8  9  1  0
  9 10  2  0
 10 11  1  0
 11 12  1  0
 12 13  1  0
 13 14  1  0
 14 15  1  0
 15 16  1  0
 10 17  1  0
 17 18  2  0
 18 19  1  0
 19 20  2  0
 20 21  1  0
 21 22  2  0
 22 23  1  0
 22 24  1  0
 24 25  2  0
 18 26  1  0
 26 27  2  0
 27 28  1  0
  5 29  1  0
 29 30  1  0
 30  2  1  0
 28  7  1  0
 27  9  1  0
 16 11  1  0
 25 19  1  0
  1 31  1  0
  1 32  1  0
  1 33  1  0
  3 34  1  0
  3 35  1  0
  4 36  1  0
  4 37  1  0
  6 38  1  0
  6 39  1  0
  8 40  1  0
 12 41  1  0
 12 42  1  0
 13 43  1  0
 13 44  1  0
 15 45  1  0
 15 46  1  0
 16 47  1  0
 16 48  1  0
 17 49  1  0
 20 50  1  0
 21 51  1  0
 24 52  1  0
 25 53  1  0
 29 54  1  0
 29 55  1  0
 30 56  1  0
 30 57  1  0
M  CHG  1  17   1
M  END
>  <UniqueID>  (48) 
43

>  <SMILES>  (48) 
CN1CCN(Cc2cc3c(N4CCOCC4)[nH+]c(-c4ccc(Cl)cc4)nc3s2)CC1

>  <Energy>  (48) 
114.72610851621447

>  <Genealogy>  (48) 
CN1CCN(Cc2cc3c(N4CCOCC4)[nH+]c(-c4ccc(Cl)cc4)nc3s2)CC1 (protonated)
CN1CCN(Cc2cc3c(N4CCOCC4)[nH+]c(-c4ccc(Cl)cc4)nc3s2)CC1 (3D coordinates assigned)
CN1CCN(Cc2cc3c(N4CCOCC4)[nH+]c(-c4ccc(Cl)cc4)nc3s2)CC1 (nonaromatic ring conformer: 114.72610851621447 kcal/mol)

>  <smiles>  (48) 
CN1CCN(Cc2cc3c(N4CCOCC4)nc(-c4ccc(Cl)cc4)nc3s2)CC1

>  <score_type>  (48) 
oracle

>  <origin>  (48) 
adg

>  <m_score__min__energy>  (48) 
-8.1699999999999999

>  <m_primary>  (48) 
energy

$$$$
48:0
     RDKit          3D

 47 50  0  0  0  0  0  0  0  0999 V2000
   -2.5400   17.1710  -33.3150 O   0  0  0  0  0  0  0  0  0  0  0  0
   -3.4550   17.3680  -34.1600 C   0  0  0  0  0  0  0  0  0  0  0  0
   -4.0520   16.1990  -34.8890 C   0  0  0  0  0  0  0  0  0  0  0  0
   -5.1930   15.5550  -34.0890 C   0  0  0  0  0  0  0  0  0  0  0  0
   -5.9160   16.5620  -33.2330 C   0  0  0  0  0  0  0  0  0  0  0  0
   -5.7100   16.5870  -31.8440 C   0  0  0  0  0  0  0  0  0  0  0  0
   -6.4380   17.4670  -31.0400 C   0  0  0  0  0  0  0  0  0  0  0  0
   -7.3800   18.3260  -31.6140 C   0  0  0  0  0  0  0  0  0  0  0  0
   -7.5900   18.3090  -32.9950 C   0  0  0  0  0  0  0  0  0  0  0  0
   -6.8630   17.4310  -33.8030 C   0  0  0  0  0  0  0  0  0  0  0  0
   -3.9450   18.6940  -34.4140 N   0  0  0  0  0  0  0  0  0  0  0  0
   -3.7460   19.8140  -33.5350 C   0  0  0  0  0  0  0  0  0  0  0  0
   -4.8530   20.3900  -32.8960 C   0  0  0  0  0  0  0  0  0  0  0  0
   -4.6870   21.4520  -32.0040 C   0  0  0  0  0  0  0  0  0  0  0  0
   -3.4020   21.9420  -31.7150 C   0  0  0  0  0  0  0  0  0  0  0  0
   -3.2220   23.0570  -30.7610 C   0  0  0  0  0  0  0  0  0  0  0  0
   -3.8790   24.2290  -30.8450 N   0  0  0  0  0  0  0  0  0  0  0  0
   -3.4640   24.9700  -29.8320 N   0  0  0  0  0  0  0  0  0  0  0  0
   -2.5640   24.2330  -29.1530 C   0  0  0  0  0  0  0  0  0  0  0  0
   -1.8740   24.7020  -27.9290 C   0  0  0  0  0  0  0  0  0  0  0  0
   -1.8370   23.8790  -26.7870 C   0  0  0  0  0  0  0  0  0  0  0  0
   -1.1800   24.3020  -25.6280 C   0  0  0  0  0  0  0  0  0  0  0  0
   -0.5530   25.5480  -25.5930 C   0  0  0  0  0  0  0  0  0  0  0  0
   -0.5850   26.3760  -26.7160 C   0  0  0  0  0  0  0  0  0  0  0  0
   -1.2400   25.9610  -27.8800 C   0  0  0  0  0  0  0  0  0  0  0  0
   -1.2500   26.7930  -28.9520 F   0  0  0  0  0  0  0  0  0  0  0  0
   -2.3810   23.0160  -29.7080 N   0  0  0  0  0  0  0  0  0  0  0  0
   -2.2890   21.3520  -32.3390 C   0  0  0  0  0  0  0  0  0  0  0  0
   -2.4590   20.2950  -33.2380 C   0  0  0  0  0  0  0  0  0  0  0  0
   -4.4455   16.5450  -35.8562 H   0  0  0  0  0  0  0  0  0  0  0  0
   -3.2642   15.4446  -35.0317 H   0  0  0  0  0  0  0  0  0  0  0  0
   -5.9101   15.1050  -34.7913 H   0  0  0  0  0  0  0  0  0  0  0  0
   -4.7571   14.7935  -33.4256 H   0  0  0  0  0  0  0  0  0  0  0  0
   -4.9723   15.9108  -31.3874 H   0  0  0  0  0  0  0  0  0  0  0  0
   -6.2699   17.4842  -29.9531 H   0  0  0  0  0  0  0  0  0  0  0  0
   -7.9556   19.0150  -30.9784 H   0  0  0  0  0  0  0  0  0  0  0  0
   -8.3285   18.9876  -33.4468 H   0  0  0  0  0  0  0  0  0  0  0  0
   -7.0323   17.4196  -34.8898 H   0  0  0  0  0  0  0  0  0  0  0  0
   -4.4620   18.8600  -35.3080 H   0  0  0  0  0  0  0  0  0  0  0  0
   -5.8620   20.0019  -33.0991 H   0  0  0  0  0  0  0  0  0  0  0  0
   -5.5666   21.9071  -31.5253 H   0  0  0  0  0  0  0  0  0  0  0  0
   -2.3290   22.8954  -26.8071 H   0  0  0  0  0  0  0  0  0  0  0  0
   -1.1572   23.6511  -24.7415 H   0  0  0  0  0  0  0  0  0  0  0  0
   -0.0338   25.8775  -24.6809 H   0  0  0  0  0  0  0  0  0  0  0  0
   -0.0929   27.3593  -26.6855 H   0  0  0  0  0  0  0  0  0  0  0  0
   -1.2777   21.7245  -32.1185 H   0  0  0  0  0  0  0  0  0  0  0  0
   -1.5804   19.8370  -33.7158 H   0  0  0  0  0  0  0  0  0  0  0  0
  1  2  2  0
  2  3  1  0
  3  4  1  0
  4  5  1  0
  5  6  2  0
  6  7  1  0
  7  8  2  0
  8  9  1  0
  9 10  2  0
  2 11  1  0
 11 12  1  0
 12 13  2  0
 13 14  1  0
 14 15  2  0
 15 16  1  0
 16 17  2  0
 17 18  1  0
 18 19  1  0
 19 20  1  0
 20 21  2  0
 21 22  1  0
 22 23  2  0
 23 24  1  0
 24 25  2  0
 25 26  1  0
 19 27  2  0
 15 28  1  0
 28 29  2  0
 10  5  1  0
 29 12  1  0
 27 16  1  0
 25 20  1  0
  3 30  1  0
  3 31  1  0
  4 32  1  0
  4 33  1  0
  6 34  1  0
  7 35  1  0
  8 36  1  0
  9 37  1  0
 10 38  1  0
 11 39  1  0
 13 40  1  0
 14 41  1  0
 21 42  1  0
 22 43  1  0
 23 44  1  0
 24 45  1  0
 28 46  1  0
 29 47  1  0
M  CHG  1  18  -1
M  END
>  <UniqueID>  (49) 
44

>  <SMILES>  (49) 
O=C(CCc1ccccc1)Nc1ccc(-c2n[n-]c(-c3ccccc3F)n2)cc1

>  <Energy>  (49) 
83.8526503647735

>  <Genealogy>  (49) 
O=C(CCc1ccccc1)Nc1ccc(-c2n[n-]c(-c3ccccc3F)n2)cc1 (protonated)
O=C(CCc1ccccc1)Nc1ccc(-c2n[n-]c(-c3ccccc3F)n2)cc1 (3D coordinates assigned)
O=C(CCc1ccccc1)Nc1ccc(-c2n[n-]c(-c3ccccc3F)n2)cc1 (optimized conformer: 83.8526503647735 kcal/mol)

>  <smiles>  (49) 
O=C(CCc1ccccc1)Nc1ccc(-c2n[nH]c(-c3ccccc3F)n2)cc1

>  <score_type>  (49) 
oracle

>  <origin>  (49) 
adg

>  <m_score__min__energy>  (49) 
-10.68

>  <m_primary>  (49) 
energy

$$$$
