0:0
     RDKit          3D

 55 55  0  0  0  0  0  0  0  0999 V2000
   -5.2510   17.8080  -34.9560 C   0  0  0  0  0  0  0  0  0  0  0  0
   -5.7860   19.0180  -34.2020 C   0  0  0  0  0  0  0  0  0  0  0  0
   -7.0140   18.6350  -33.4650 N   0  0  0  0  0  0  0  0  0  0  0  0
   -6.8590   17.3730  -32.7040 C   0  0  0  0  0  0  0  0  0  0  0  0
   -6.2910   17.5670  -31.2900 C   0  0  0  0  0  0  0  0  0  0  0  0
   -7.5790   19.7320  -32.6520 C   0  0  0  0  0  0  0  0  0  0  0  0
   -9.0830   19.5250  -32.4350 C   0  0  0  0  0  0  0  0  0  0  0  0
   -9.7330   20.7730  -32.2840 O   0  0  0  0  0  0  0  0  0  0  0  0
   -9.1560   21.5310  -31.2350 C   0  0  0  0  0  0  0  0  0  0  0  0
   -8.3730   22.7290  -31.7900 C   0  0  0  0  0  0  0  0  0  0  0  0
   -6.9020   22.6950  -31.3640 C   0  0  0  0  0  0  0  0  0  0  0  0
   -6.2720   23.9900  -31.6520 N   0  0  0  0  0  0  0  0  0  0  0  0
   -6.4830   24.9650  -30.5690 C   0  0  0  0  0  0  0  0  0  0  0  0
   -5.3330   25.9730  -30.4520 C   0  0  0  0  0  0  0  0  0  0  0  0
   -4.0910   25.2840  -30.5750 O   0  0  0  0  0  0  0  0  0  0  0  0
   -3.7370   24.1450  -29.8360 C   0  0  0  0  0  0  0  0  0  0  0  0
   -3.6290   24.1690  -28.4310 C   0  0  0  0  0  0  0  0  0  0  0  0
   -3.2760   23.0120  -27.7310 C   0  0  0  0  0  0  0  0  0  0  0  0
   -3.0240   21.8270  -28.4210 C   0  0  0  0  0  0  0  0  0  0  0  0
   -3.1260   21.7910  -29.8140 C   0  0  0  0  0  0  0  0  0  0  0  0
   -3.4830   22.9500  -30.5310 C   0  0  0  0  0  0  0  0  0  0  0  0
   -3.5950   22.9560  -31.9300 O   0  0  0  0  0  0  0  0  0  0  0  0
   -3.8970   21.8100  -32.7190 C   0  0  0  0  0  0  0  0  0  0  0  0
   -4.9145   17.0470  -34.2365 H   0  0  0  0  0  0  0  0  0  0  0  0
   -6.0474   17.3883  -35.5881 H   0  0  0  0  0  0  0  0  0  0  0  0
   -4.4046   18.1147  -35.5881 H   0  0  0  0  0  0  0  0  0  0  0  0
   -5.0260   19.3723  -33.4900 H   0  0  0  0  0  0  0  0  0  0  0  0
   -6.0211   19.8214  -34.9157 H   0  0  0  0  0  0  0  0  0  0  0  0
   -7.8466   16.8961  -32.6185 H   0  0  0  0  0  0  0  0  0  0  0  0
   -6.1380   16.7525  -33.2564 H   0  0  0  0  0  0  0  0  0  0  0  0
   -7.0588   17.3047  -30.5473 H   0  0  0  0  0  0  0  0  0  0  0  0
   -5.4134   16.9176  -31.1551 H   0  0  0  0  0  0  0  0  0  0  0  0
   -5.9940   18.6175  -31.1551 H   0  0  0  0  0  0  0  0  0  0  0  0
   -7.0730   19.7557  -31.6756 H   0  0  0  0  0  0  0  0  0  0  0  0
   -7.4254   20.6825  -33.1840 H   0  0  0  0  0  0  0  0  0  0  0  0
   -9.5059   18.9981  -33.3031 H   0  0  0  0  0  0  0  0  0  0  0  0
   -9.2346   18.9295  -31.5227 H   0  0  0  0  0  0  0  0  0  0  0  0
   -9.9553   21.8982  -30.5745 H   0  0  0  0  0  0  0  0  0  0  0  0
   -8.4615   20.8860  -30.6768 H   0  0  0  0  0  0  0  0  0  0  0  0
   -8.4259   22.7106  -32.8886 H   0  0  0  0  0  0  0  0  0  0  0  0
   -8.8240   23.6479  -31.3873 H   0  0  0  0  0  0  0  0  0  0  0  0
   -6.8386   22.4897  -30.2852 H   0  0  0  0  0  0  0  0  0  0  0  0
   -6.3797   21.9042  -31.9224 H   0  0  0  0  0  0  0  0  0  0  0  0
   -5.2440   23.8480  -31.7970 H   0  0  0  0  0  0  0  0  0  0  0  0
   -7.4150   25.5149  -30.7664 H   0  0  0  0  0  0  0  0  0  0  0  0
   -6.5347   24.4065  -29.6227 H   0  0  0  0  0  0  0  0  0  0  0  0
   -5.4184   26.7230  -31.2521 H   0  0  0  0  0  0  0  0  0  0  0  0
   -5.3810   26.4765  -29.4752 H   0  0  0  0  0  0  0  0  0  0  0  0
   -3.8234   25.1027  -27.8828 H   0  0  0  0  0  0  0  0  0  0  0  0
   -3.1969   23.0363  -26.6341 H   0  0  0  0  0  0  0  0  0  0  0  0
   -2.7443   20.9185  -27.8675 H   0  0  0  0  0  0  0  0  0  0  0  0
   -2.9266   20.8533  -30.3534 H   0  0  0  0  0  0  0  0  0  0  0  0
   -4.1212   20.9591  -32.0589 H   0  0  0  0  0  0  0  0  0  0  0  0
   -4.7700   22.0216  -33.3538 H   0  0  0  0  0  0  0  0  0  0  0  0
   -3.0331   21.5639  -33.3538 H   0  0  0  0  0  0  0  0  0  0  0  0
  1  2  1  0
  2  3  1  0
  3  4  1  0
  4  5  1  0
  3  6  1  0
  6  7  1  0
  7  8  1  0
  8  9  1  0
  9 10  1  0
 10 11  1  0
 11 12  1  0
 12 13  1  0
 13 14  1  0
 14 15  1  0
 15 16  1  0
 16 17  2  0
 17 18  1  0
 18 19  2  0
 19 20  1  0
 20 21  2  0
 21 22  1  0
 22 23  1  0
 21 16  1  0
  1 24  1  0
  1 25  1  0
  1 26  1  0
  2 27  1  0
  2 28  1  0
  4 29  1  0
  4 30  1  0
  5 31  1  0
  5 32  1  0
  5 33  1  0
  6 34  1  0
  6 35  1  0
  7 36  1  0
  7 37  1  0
  9 38  1  0
  9 39  1  0
 10 40  1  0
 10 41  1  0
 11 42  1  0
 11 43  1  0
 12 44  1  0
 13 45  1  0
 13 46  1  0
 14 47  1  0
 14 48  1  0
 17 49  1  0
 18 50  1  0
 19 51  1  0
 20 52  1  0
 23 53  1  0
 23 54  1  0
 23 55  1  0
M  END
>  <UniqueID>  (1) 
1

>  <SMILES>  (1) 
CCN(CC)CCOCCCNCCOc1ccccc1OC

>  <Energy>  (1) 
48.46019546050625

>  <Genealogy>  (1) 
CCN(CC)CCOCCCNCCOc1ccccc1OC (3D coordinates assigned)
CCN(CC)CCOCCCNCCOc1ccccc1OC (optimized conformer: 48.46019546050625 kcal/mol)

>  <smiles>  (1) 
CCN(CC)CCOCCCNCCOc1ccccc1OC

>  <score_type>  (1) 
oracle

>  <origin>  (1) 
adg

>  <m_score__min__energy>  (1) 
-7.5099999999999998

>  <m_primary>  (1) 
energy

$$$$
1:0
     RDKit          3D

 56 59  0  0  0  0  0  0  0  0999 V2000
   -3.8520   24.3560  -27.1740 C   0  0  0  0  0  0  0  0  0  0  0  0
   -2.6540   24.6600  -28.0710 C   0  0  0  0  0  0  0  0  0  0  0  0
   -3.0100   24.4780  -29.4950 N   0  0  0  0  0  0  0  0  0  0  0  0
   -2.3880   23.2730  -30.0740 C   0  0  0  0  0  0  0  0  0  0  0  0
   -4.4730   24.5200  -29.7280 C   0  0  0  0  0  0  0  0  0  0  0  0
   -5.0450   23.2270  -30.3430 C   0  0  0  0  0  0  0  0  0  0  0  0
   -6.2670   23.5320  -31.2150 C   0  0  0  0  0  0  0  0  0  0  0  0
   -6.1070   22.9610  -32.5490 N   0  0  0  0  0  0  0  0  0  0  0  0
   -5.9490   21.5460  -32.7160 C   0  0  0  0  0  0  0  0  0  0  0  0
   -4.6960   21.0090  -33.0530 C   0  0  0  0  0  0  0  0  0  0  0  0
   -4.5640   19.6160  -33.2730 C   0  0  0  0  0  0  0  0  0  0  0  0
   -5.7000   18.8220  -33.2860 N   0  0  0  0  0  0  0  0  0  0  0  0
   -5.6870   17.5030  -33.9490 C   0  0  0  0  0  0  0  0  0  0  0  0
   -6.8810   19.3000  -32.7500 C   0  0  0  0  0  0  0  0  0  0  0  0
   -7.9650   18.4390  -32.4420 C   0  0  0  0  0  0  0  0  0  0  0  0
   -9.1690   18.9460  -31.9540 C   0  0  0  0  0  0  0  0  0  0  0  0
   -9.3220   20.3140  -31.7500 C   0  0  0  0  0  0  0  0  0  0  0  0
   -8.2620   21.1800  -32.0080 C   0  0  0  0  0  0  0  0  0  0  0  0
   -7.0300   20.6850  -32.4850 C   0  0  0  0  0  0  0  0  0  0  0  0
   -3.1660   19.0620  -33.4170 C   0  0  0  0  0  0  0  0  0  0  0  0
   -2.9460   17.7450  -33.6900 N   0  0  0  0  0  0  0  0  0  0  0  0
   -1.7010   17.2110  -33.7970 C   0  0  0  0  0  0  0  0  0  0  0  0
   -0.5800   18.0140  -33.6040 C   0  0  0  0  0  0  0  0  0  0  0  0
   -0.7560   19.3590  -33.2880 C   0  0  0  0  0  0  0  0  0  0  0  0
   -2.0470   19.8970  -33.1950 C   0  0  0  0  0  0  0  0  0  0  0  0
   -2.2280   21.3080  -32.7150 C   0  0  0  0  0  0  0  0  0  0  0  0
   -3.5050   21.9180  -33.2790 C   0  0  0  0  0  0  0  0  0  0  0  0
   -3.5492   24.4328  -26.1193 H   0  0  0  0  0  0  0  0  0  0  0  0
   -4.6558   25.0787  -27.3783 H   0  0  0  0  0  0  0  0  0  0  0  0
   -4.2139   23.3375  -27.3783 H   0  0  0  0  0  0  0  0  0  0  0  0
   -2.3353   25.7002  -27.9082 H   0  0  0  0  0  0  0  0  0  0  0  0
   -1.8374   23.9677  -27.8185 H   0  0  0  0  0  0  0  0  0  0  0  0
   -2.0465   22.6115  -29.2642 H   0  0  0  0  0  0  0  0  0  0  0  0
   -3.1248   22.7423  -30.6949 H   0  0  0  0  0  0  0  0  0  0  0  0
   -1.5286   23.5662  -30.6949 H   0  0  0  0  0  0  0  0  0  0  0  0
   -4.9724   24.6953  -28.7637 H   0  0  0  0  0  0  0  0  0  0  0  0
   -4.6580   25.3270  -30.4522 H   0  0  0  0  0  0  0  0  0  0  0  0
   -4.2711   22.7491  -30.9616 H   0  0  0  0  0  0  0  0  0  0  0  0
   -5.3530   22.5558  -29.5278 H   0  0  0  0  0  0  0  0  0  0  0  0
   -7.1629   23.1018  -30.7436 H   0  0  0  0  0  0  0  0  0  0  0  0
   -6.3702   24.6232  -31.3084 H   0  0  0  0  0  0  0  0  0  0  0  0
   -6.0080   23.5750  -33.3890 H   0  0  0  0  0  0  0  0  0  0  0  0
   -5.6792   16.7097  -33.1870 H   0  0  0  0  0  0  0  0  0  0  0  0
   -6.5842   17.3994  -34.5770 H   0  0  0  0  0  0  0  0  0  0  0  0
   -4.7880   17.4171  -34.5770 H   0  0  0  0  0  0  0  0  0  0  0  0
   -7.8544   17.3547  -32.5903 H   0  0  0  0  0  0  0  0  0  0  0  0
  -10.0008   18.2621  -31.7295 H   0  0  0  0  0  0  0  0  0  0  0  0
  -10.2804   20.7116  -31.3849 H   0  0  0  0  0  0  0  0  0  0  0  0
   -8.3866   22.2597  -31.8383 H   0  0  0  0  0  0  0  0  0  0  0  0
   -1.5788   16.1443  -34.0361 H   0  0  0  0  0  0  0  0  0  0  0  0
    0.4312   17.5917  -33.6998 H   0  0  0  0  0  0  0  0  0  0  0  0
    0.1200   20.0004  -33.1110 H   0  0  0  0  0  0  0  0  0  0  0  0
   -2.2835   21.3097  -31.6164 H   0  0  0  0  0  0  0  0  0  0  0  0
   -1.3722   21.9073  -33.0591 H   0  0  0  0  0  0  0  0  0  0  0  0
   -3.6909   22.8821  -32.7831 H   0  0  0  0  0  0  0  0  0  0  0  0
   -3.3745   22.0563  -34.3624 H   0  0  0  0  0  0  0  0  0  0  0  0
  1  2  1  0
  2  3  1  0
  3  4  1  0
  3  5  1  0
  5  6  1  0
  6  7  1  0
  7  8  1  0
  8  9  1  0
  9 10  2  0
 10 11  1  0
 11 12  2  0
 12 13  1  0
 12 14  1  0
 14 15  2  0
 15 16  1  0
 16 17  2  0
 17 18  1  0
 18 19  2  0
 11 20  1  0
 20 21  2  0
 21 22  1  0
 22 23  2  0
 23 24  1  0
 24 25  2  0
 25 26  1  0
 26 27  1  0
 19  9  1  0
 25 20  1  0
 27 10  1  0
 19 14  1  0
  1 28  1  0
  1 29  1  0
  1 30  1  0
  2 31  1  0
  2 32  1  0
  4 33  1  0
  4 34  1  0
  4 35  1  0
  5 36  1  0
  5 37  1  0
  6 38  1  0
  6 39  1  0
  7 40  1  0
  7 41  1  0
  8 42  1  0
 13 43  1  0
 13 44  1  0
 13 45  1  0
 15 46  1  0
 16 47  1  0
 17 48  1  0
 18 49  1  0
 22 50  1  0
 23 51  1  0
 24 52  1  0
 26 53  1  0
 26 54  1  0
 27 55  1  0
 27 56  1  0
M  CHG  1  12   1
M  END
>  <UniqueID>  (2) 
2

>  <SMILES>  (2) 
CCN(C)CCCNc1c2c([n+](C)c3ccccc13)-c1ncccc1CC2

>  <Energy>  (2) 
88.35956081002804

>  <Genealogy>  (2) 
CCN(C)CCCNc1c2c([n+](C)c3ccccc13)-c1ncccc1CC2 (3D coordinates assigned)
CCN(C)CCCNc1c2c([n+](C)c3ccccc13)-c1ncccc1CC2 (nonaromatic ring conformer: 88.35956081002804 kcal/mol)

>  <smiles>  (2) 
CCN(C)CCCNc1c2c([n+](C)c3ccccc13)-c1ncccc1CC2

>  <score_type>  (2) 
oracle

>  <origin>  (2) 
adg

>  <m_score__min__energy>  (2) 
-8.6500000000000004

>  <m_primary>  (2) 
energy

$$$$
2:0
     RDKit          3D

 44 46  0  0  1  0  0  0  0  0999 V2000
   -3.3030   23.8800  -28.1810 C   0  0  0  0  0  0  0  0  0  0  0  0
   -2.5730   24.5020  -29.3420 C   0  0  0  0  0  0  0  0  0  0  0  0
   -3.4380   24.9400  -30.3520 O   0  0  0  0  0  0  0  0  0  0  0  0
   -4.7580   24.6090  -30.4850 C   0  0  0  0  0  0  0  0  0  0  0  0
   -5.7600   25.3440  -29.9330 C   0  0  0  0  0  0  0  0  0  0  0  0
   -7.0650   24.9420  -30.1140 C   0  0  0  0  0  0  0  0  0  0  0  0
   -7.4130   23.8160  -30.8350 C   0  0  0  0  0  0  0  0  0  0  0  0
   -6.3630   23.0970  -31.3790 C   0  0  0  0  0  0  0  0  0  0  0  0
   -5.0490   23.4590  -31.2250 C   0  0  0  0  0  0  0  0  0  0  0  0
   -3.9010   22.6430  -31.8230 C   0  0  0  0  0  0  0  0  0  0  0  0
   -4.5970   22.1040  -32.9370 N   0  0  0  0  0  0  0  0  0  0  0  0
   -4.4650   20.8740  -33.2510 C   0  0  0  0  0  0  0  0  0  0  0  0
   -3.2660   20.5540  -33.8310 N   0  0  0  0  0  0  0  0  0  0  0  0
   -2.9630   19.3090  -34.2180 C   0  0  0  0  0  0  0  0  0  0  0  0
   -3.8860   18.3560  -34.0200 N   0  0  0  0  0  0  0  0  0  0  0  0
   -5.0930   18.6230  -33.4480 C   0  0  0  0  0  0  0  0  0  0  0  0
   -5.4350   19.9070  -33.0370 C   0  0  0  0  0  0  0  0  0  0  0  0
   -6.7090   20.2590  -32.4130 C   0  0  0  0  0  0  0  0  0  0  0  0
   -7.5470   19.0390  -32.6810 N   0  0  0  0  0  0  0  0  0  0  0  0
   -8.8780   19.2450  -32.1760 C   0  0  0  0  0  0  0  0  0  0  0  0
   -6.9000   17.8730  -32.1500 C   0  0  0  0  0  0  0  0  0  0  0  0
   -5.9980   17.4530  -33.2980 C   0  0  0  0  0  0  0  0  0  0  0  0
   -2.8721   24.2471  -27.2378 H   0  0  0  0  0  0  0  0  0  0  0  0
   -4.3675   24.1529  -28.2286 H   0  0  0  0  0  0  0  0  0  0  0  0
   -3.2026   22.7856  -28.2286 H   0  0  0  0  0  0  0  0  0  0  0  0
   -1.9964   25.3636  -28.9743 H   0  0  0  0  0  0  0  0  0  0  0  0
   -1.9197   23.7305  -29.7755 H   0  0  0  0  0  0  0  0  0  0  0  0
   -5.5314   26.2480  -29.3494 H   0  0  0  0  0  0  0  0  0  0  0  0
   -7.8671   25.5453  -29.6637 H   0  0  0  0  0  0  0  0  0  0  0  0
   -8.4610   23.5096  -30.9686 H   0  0  0  0  0  0  0  0  0  0  0  0
   -6.5930   22.1930  -31.9621 H   0  0  0  0  0  0  0  0  0  0  0  0
   -3.0549   23.2764  -32.1277 H   0  0  0  0  0  0  0  0  0  0  0  0
   -3.4286   21.9118  -31.1506 H   0  0  0  0  0  0  0  0  0  0  0  0
   -2.5280   21.2830  -33.9950 H   0  0  0  0  0  0  0  0  0  0  0  0
   -1.9929   19.0760  -34.6813 H   0  0  0  0  0  0  0  0  0  0  0  0
   -6.5894   20.4304  -31.3330 H   0  0  0  0  0  0  0  0  0  0  0  0
   -7.1481   21.1887  -32.8038 H   0  0  0  0  0  0  0  0  0  0  0  0
   -8.8575   19.2418  -31.0762 H   0  0  0  0  0  0  0  0  0  0  0  0
   -9.2598   20.2129  -32.5328 H   0  0  0  0  0  0  0  0  0  0  0  0
   -9.5346   18.4378  -32.5328 H   0  0  0  0  0  0  0  0  0  0  0  0
   -6.3141   18.1168  -31.2515 H   0  0  0  0  0  0  0  0  0  0  0  0
   -7.6005   17.0876  -31.8298 H   0  0  0  0  0  0  0  0  0  0  0  0
   -5.4324   16.5439  -33.0458 H   0  0  0  0  0  0  0  0  0  0  0  0
   -6.5486   17.2065  -34.2178 H   0  0  0  0  0  0  0  0  0  0  0  0
  1  2  1  0
  2  3  1  0
  3  4  1  0
  4  5  2  0
  5  6  1  0
  6  7  2  0
  7  8  1  0
  8  9  2  0
  9 10  1  0
 10 11  1  0
 11 12  2  0
 12 13  1  0
 13 14  1  0
 14 15  2  0
 15 16  1  0
 16 17  2  0
 17 18  1  0
 18 19  1  0
 19 20  1  0
 19 21  1  0
 21 22  1  0
  9  4  1  0
 17 12  1  0
 22 16  1  0
  1 23  1  0
  1 24  1  0
  1 25  1  0
  2 26  1  0
  2 27  1  0
  5 28  1  0
  6 29  1  0
  7 30  1  0
  8 31  1  0
 10 32  1  0
 10 33  1  0
 13 34  1  0
 14 35  1  0
 18 36  1  0
 18 37  1  0
 20 38  1  0
 20 39  1  0
 20 40  1  0
 21 41  1  0
 21 42  1  0
 22 43  1  0
 22 44  1  0
M  END
>  <smiles>  (3) 
CCOc1ccccc1CN=c1[nH]cnc2c1CN(C)CC2

>  <score_type>  (3) 
oracle

>  <origin>  (3) 
adg

>  <m_score__min__energy>  (3) 
-8.0500000000000007

>  <m_primary>  (3) 
energy

$$$$
3:0
     RDKit          3D

 25 26  0  0  0  0  0  0  0  0999 V2000
   -7.7770   17.8360  -31.9660 C   0  0  0  0  0  0  0  0  0  0  0  0
   -9.0960   18.5980  -31.9380 C   0  0  0  0  0  0  0  0  0  0  0  0
   -8.9470   19.8910  -32.5250 O   0  0  0  0  0  0  0  0  0  0  0  0
   -7.8510   20.7500  -32.3430 C   0  0  0  0  0  0  0  0  0  0  0  0
   -6.5990   20.5330  -32.9540 C   0  0  0  0  0  0  0  0  0  0  0  0
   -5.5410   21.4190  -32.7300 C   0  0  0  0  0  0  0  0  0  0  0  0
   -5.7190   22.5320  -31.9010 C   0  0  0  0  0  0  0  0  0  0  0  0
   -6.9640   22.7570  -31.2940 C   0  0  0  0  0  0  0  0  0  0  0  0
   -8.0180   21.8630  -31.5080 C   0  0  0  0  0  0  0  0  0  0  0  0
   -7.1420   23.8630  -30.4540 O   0  0  0  0  0  0  0  0  0  0  0  0
   -6.2500   24.9820  -30.4370 C   0  0  0  0  0  0  0  0  0  0  0  0
   -4.8510   24.5810  -30.8110 C   0  0  0  0  0  0  0  0  0  0  0  0
   -3.8770   25.3020  -30.4700 O   0  0  0  0  0  0  0  0  0  0  0  0
   -4.6350   23.4230  -31.6230 N   0  0  0  0  0  0  0  0  0  0  0  0
   -7.4431   17.6431  -30.9358 H   0  0  0  0  0  0  0  0  0  0  0  0
   -7.9171   16.8797  -32.4912 H   0  0  0  0  0  0  0  0  0  0  0  0
   -7.0185   18.4351  -32.4912 H   0  0  0  0  0  0  0  0  0  0  0  0
   -9.8520   18.0312  -32.5012 H   0  0  0  0  0  0  0  0  0  0  0  0
   -9.4105   18.7202  -30.8910 H   0  0  0  0  0  0  0  0  0  0  0  0
   -6.4539   19.6622  -33.6102 H   0  0  0  0  0  0  0  0  0  0  0  0
   -4.5659   21.2406  -33.2068 H   0  0  0  0  0  0  0  0  0  0  0  0
   -8.9869   22.0350  -31.0164 H   0  0  0  0  0  0  0  0  0  0  0  0
   -6.6089   25.7353  -31.1537 H   0  0  0  0  0  0  0  0  0  0  0  0
   -6.2292   25.3895  -29.4155 H   0  0  0  0  0  0  0  0  0  0  0  0
   -3.6760   23.2180  -31.9860 H   0  0  0  0  0  0  0  0  0  0  0  0
  1  2  1  0
  2  3  1  0
  3  4  1  0
  4  5  2  0
  5  6  1  0
  6  7  2  0
  7  8  1  0
  8  9  2  0
  8 10  1  0
 10 11  1  0
 11 12  1  0
 12 13  2  0
 12 14  1  0
  9  4  1  0
 14  7  1  0
  1 15  1  0
  1 16  1  0
  1 17  1  0
  2 18  1  0
  2 19  1  0
  5 20  1  0
  6 21  1  0
  9 22  1  0
 11 23  1  0
 11 24  1  0
 14 25  1  0
M  END
>  <UniqueID>  (4) 
3

>  <SMILES>  (4) 
CCOc1ccc2c(c1)OCC(=O)N2

>  <Energy>  (4) 
24.211712688796073

>  <Genealogy>  (4) 
CCOc1ccc2c(c1)OCC(=O)N2 (3D coordinates assigned)
CCOc1ccc2c(c1)OCC(=O)N2 (nonaromatic ring conformer: 24.211712688796073 kcal/mol)

>  <smiles>  (4) 
CCOc1ccc2c(c1)OCC(=O)N2

>  <score_type>  (4) 
oracle

>  <origin>  (4) 
adg

>  <m_score__min__energy>  (4) 
-5.6200000000000001

>  <m_primary>  (4) 
energy

$$$$
4:0
     RDKit          3D

 55 56  0  0  0  0  0  0  0  0999 V2000
   -6.8290   19.4880  -33.1390 C   0  0  0  0  0  0  0  0  0  0  0  0
   -7.9790   18.9650  -32.7130 C   0  0  0  0  0  0  0  0  0  0  0  0
   -8.7410   19.5900  -31.5720 C   0  0  0  0  0  0  0  0  0  0  0  0
   -9.3500   20.9540  -31.9480 C   0  0  0  0  0  0  0  0  0  0  0  0
   -8.5740   22.1620  -31.3840 C   0  0  0  0  0  0  0  0  0  0  0  0
   -7.5270   22.7600  -32.3340 C   0  0  0  0  0  0  0  0  0  0  0  0
   -6.7160   23.7890  -31.6770 C   0  0  0  0  0  0  0  0  0  0  0  0
   -6.0180   24.6350  -31.1780 C   0  0  0  0  0  0  0  0  0  0  0  0
   -5.2080   25.6640  -30.5210 C   0  0  0  0  0  0  0  0  0  0  0  0
   -3.8460   25.2400  -30.4500 O   0  0  0  0  0  0  0  0  0  0  0  0
   -3.3720   24.1640  -29.6790 C   0  0  0  0  0  0  0  0  0  0  0  0
   -3.9460   22.8790  -29.7320 C   0  0  0  0  0  0  0  0  0  0  0  0
   -3.4410   21.8470  -28.9360 C   0  0  0  0  0  0  0  0  0  0  0  0
   -2.3590   22.0810  -28.0770 C   0  0  0  0  0  0  0  0  0  0  0  0
   -1.7520   20.7820  -27.0460 S   0  0  0  0  0  0  0  0  0  0  0  0
   -1.2260   21.3710  -25.7650 O   0  0  0  0  0  0  0  0  0  0  0  0
   -2.8870   19.8600  -26.6990 O   0  0  0  0  0  0  0  0  0  0  0  0
   -0.4860   19.8670  -27.8260 N   0  0  0  0  0  0  0  0  0  0  0  0
   -0.6100   18.4410  -27.5090 C   0  0  0  0  0  0  0  0  0  0  0  0
    0.6260   17.6740  -28.0210 C   0  0  0  0  0  0  0  0  0  0  0  0
    1.2870   18.3260  -29.1820 N   0  0  0  0  0  0  0  0  0  0  0  0
    2.3930   19.2110  -28.7650 C   0  0  0  0  0  0  0  0  0  0  0  0
    0.3190   19.0340  -30.0480 C   0  0  0  0  0  0  0  0  0  0  0  0
   -0.5110   20.0900  -29.2820 C   0  0  0  0  0  0  0  0  0  0  0  0
   -1.7820   23.3560  -28.0280 C   0  0  0  0  0  0  0  0  0  0  0  0
   -2.2870   24.3890  -28.8240 C   0  0  0  0  0  0  0  0  0  0  0  0
   -6.2867   19.0184  -33.9729 H   0  0  0  0  0  0  0  0  0  0  0  0
   -6.4225   20.3891  -32.6566 H   0  0  0  0  0  0  0  0  0  0  0  0
   -8.3780   18.0637  -33.2014 H   0  0  0  0  0  0  0  0  0  0  0  0
   -9.5535   18.9102  -31.2759 H   0  0  0  0  0  0  0  0  0  0  0  0
   -8.0323   19.7557  -30.7472 H   0  0  0  0  0  0  0  0  0  0  0  0
   -9.3673   21.0350  -33.0449 H   0  0  0  0  0  0  0  0  0  0  0  0
  -10.3568   20.9868  -31.5061 H   0  0  0  0  0  0  0  0  0  0  0  0
   -9.3009   22.9499  -31.1375 H   0  0  0  0  0  0  0  0  0  0  0  0
   -8.0198   21.7908  -30.5093 H   0  0  0  0  0  0  0  0  0  0  0  0
   -6.8642   21.9551  -32.6845 H   0  0  0  0  0  0  0  0  0  0  0  0
   -8.0588   23.2305  -33.1741 H   0  0  0  0  0  0  0  0  0  0  0  0
   -5.2692   26.5991  -31.0971 H   0  0  0  0  0  0  0  0  0  0  0  0
   -5.5891   25.8287  -29.5024 H   0  0  0  0  0  0  0  0  0  0  0  0
   -4.7960   22.6866  -30.4032 H   0  0  0  0  0  0  0  0  0  0  0  0
   -3.8952   20.8463  -28.9841 H   0  0  0  0  0  0  0  0  0  0  0  0
   -0.6896   18.3163  -26.4190 H   0  0  0  0  0  0  0  0  0  0  0  0
   -1.5100   18.0406  -27.9986 H   0  0  0  0  0  0  0  0  0  0  0  0
    1.3552   17.6007  -27.2007 H   0  0  0  0  0  0  0  0  0  0  0  0
    0.2783   16.6864  -28.3582 H   0  0  0  0  0  0  0  0  0  0  0  0
    1.7200   17.5680  -29.7630 H   0  0  0  0  0  0  0  0  0  0  0  0
    2.4390   19.2478  -27.6666 H   0  0  0  0  0  0  0  0  0  0  0  0
    3.3431   18.8210  -29.1589 H   0  0  0  0  0  0  0  0  0  0  0  0
    2.2208   20.2235  -29.1589 H   0  0  0  0  0  0  0  0  0  0  0  0
    0.8722   19.5389  -30.8537 H   0  0  0  0  0  0  0  0  0  0  0  0
   -0.3826   18.2840  -30.4420 H   0  0  0  0  0  0  0  0  0  0  0  0
   -0.0988   21.0874  -29.4949 H   0  0  0  0  0  0  0  0  0  0  0  0
   -1.5551   20.0086  -29.6186 H   0  0  0  0  0  0  0  0  0  0  0  0
   -0.9283   23.5457  -27.3608 H   0  0  0  0  0  0  0  0  0  0  0  0
   -1.8274   25.3873  -28.7777 H   0  0  0  0  0  0  0  0  0  0  0  0
  1  2  2  0
  2  3  1  0
  3  4  1  0
  4  5  1  0
  5  6  1  0
  6  7  1  0
  7  8  3  0
  8  9  1  0
  9 10  1  0
 10 11  1  0
 11 12  2  0
 12 13  1  0
 13 14  2  0
 14 15  1  0
 15 16  2  0
 15 17  2  0
 15 18  1  0
 18 19  1  0
 19 20  1  0
 20 21  1  0
 21 22  1  0
 21 23  1  0
 23 24  1  0
 14 25  1  0
 25 26  2  0
 26 11  1  0
 24 18  1  0
  1 27  1  0
  1 28  1  0
  2 29  1  0
  3 30  1  0
  3 31  1  0
  4 32  1  0
  4 33  1  0
  5 34  1  0
  5 35  1  0
  6 36  1  0
  6 37  1  0
  9 38  1  0
  9 39  1  0
 12 40  1  0
 13 41  1  0
 19 42  1  0
 19 43  1  0
 20 44  1  0
 20 45  1  0
 21 46  1  0
 22 47  1  0
 22 48  1  0
 22 49  1  0
 23 50  1  0
 23 51  1  0
 24 52  1  0
 24 53  1  0
 25 54  1  0
 26 55  1  0
M  CHG  1  21   1
M  END
>  <UniqueID>  (5) 
4

>  <SMILES>  (5) 
C=CCCCCC#CCOc1ccc(S(=O)(=O)N2CC[NH+](C)CC2)cc1

>  <Energy>  (5) 
47.57438747863903

>  <Genealogy>  (5) 
C=CCCCCC#CCOc1ccc(S(=O)(=O)N2CC[NH+](C)CC2)cc1 (protonated)
C=CCCCCC#CCOc1ccc(S(=O)(=O)N2CC[NH+](C)CC2)cc1 (3D coordinates assigned)
C=CCCCCC#CCOc1ccc(S(=O)(=O)N2CC[NH+](C)CC2)cc1 (nonaromatic ring conformer: 47.57438747863903 kcal/mol)

>  <smiles>  (5) 
C=CCCCCC#CCOc1ccc(S(=O)(=O)N2CCN(C)CC2)cc1

>  <score_type>  (5) 
oracle

>  <origin>  (5) 
adg

>  <m_score__min__energy>  (5) 
-7.8300000000000001

>  <m_primary>  (5) 
energy

$$$$
5:0
     RDKit          3D

 51 53  0  0  0  0  0  0  0  0999 V2000
   -6.0960   25.5990  -29.4600 C   0  0  0  0  0  0  0  0  0  0  0  0
   -5.5050   25.7270  -30.8600 C   0  0  0  0  0  0  0  0  0  0  0  0
   -4.1260   25.2230  -30.8700 N   0  0  0  0  0  0  0  0  0  0  0  0
   -3.8610   24.3630  -29.7080 C   0  0  0  0  0  0  0  0  0  0  0  0
   -4.3510   22.9380  -29.9740 C   0  0  0  0  0  0  0  0  0  0  0  0
   -4.4710   22.6900  -31.4110 N   0  0  0  0  0  0  0  0  0  0  0  0
   -5.0410   21.4630  -31.8840 C   0  0  0  0  0  0  0  0  0  0  0  0
   -6.4410   21.3260  -31.8740 C   0  0  0  0  0  0  0  0  0  0  0  0
   -7.2600   22.3220  -31.2940 C   0  0  0  0  0  0  0  0  0  0  0  0
   -8.6470   22.2110  -31.3240 C   0  0  0  0  0  0  0  0  0  0  0  0
   -9.2440   21.1190  -31.9410 C   0  0  0  0  0  0  0  0  0  0  0  0
   -8.4560   20.1220  -32.5150 C   0  0  0  0  0  0  0  0  0  0  0  0
   -7.0390   20.1880  -32.4690 C   0  0  0  0  0  0  0  0  0  0  0  0
   -6.2480   19.2000  -33.0160 N   0  0  0  0  0  0  0  0  0  0  0  0
   -6.8490   17.9000  -33.3910 C   0  0  0  0  0  0  0  0  0  0  0  0
   -4.8880   19.4050  -33.1750 C   0  0  0  0  0  0  0  0  0  0  0  0
   -4.1230   18.5720  -34.0210 C   0  0  0  0  0  0  0  0  0  0  0  0
   -2.7300   18.6930  -34.1200 C   0  0  0  0  0  0  0  0  0  0  0  0
   -1.9950   17.8690  -34.9880 O   0  0  0  0  0  0  0  0  0  0  0  0
   -1.8750   16.4530  -34.8760 C   0  0  0  0  0  0  0  0  0  0  0  0
   -2.0650   19.6480  -33.3250 C   0  0  0  0  0  0  0  0  0  0  0  0
   -0.6610   19.7850  -33.2960 O   0  0  0  0  0  0  0  0  0  0  0  0
    0.1680   20.3270  -34.3180 C   0  0  0  0  0  0  0  0  0  0  0  0
   -2.8110   20.5200  -32.5100 C   0  0  0  0  0  0  0  0  0  0  0  0
   -1.7720   21.6170  -31.3000 Br  0  0  0  0  0  0  0  0  0  0  0  0
   -4.2370   20.4780  -32.5100 C   0  0  0  0  0  0  0  0  0  0  0  0
   -5.3076   25.7698  -28.7122 H   0  0  0  0  0  0  0  0  0  0  0  0
   -6.8935   26.3453  -29.3290 H   0  0  0  0  0  0  0  0  0  0  0  0
   -6.5132   24.5897  -29.3290 H   0  0  0  0  0  0  0  0  0  0  0  0
   -6.1120   25.1420  -31.5667 H   0  0  0  0  0  0  0  0  0  0  0  0
   -5.5049   26.7862  -31.1569 H   0  0  0  0  0  0  0  0  0  0  0  0
   -3.4880   26.0510  -30.8030 H   0  0  0  0  0  0  0  0  0  0  0  0
   -2.7789   24.3431  -29.5115 H   0  0  0  0  0  0  0  0  0  0  0  0
   -4.3969   24.7670  -28.8364 H   0  0  0  0  0  0  0  0  0  0  0  0
   -3.6339   22.2237  -29.5433 H   0  0  0  0  0  0  0  0  0  0  0  0
   -5.3408   22.8130  -29.5106 H   0  0  0  0  0  0  0  0  0  0  0  0
   -3.9760   23.3020  -32.1000 H   0  0  0  0  0  0  0  0  0  0  0  0
   -6.7952   23.1953  -30.8131 H   0  0  0  0  0  0  0  0  0  0  0  0
   -9.2708   22.9885  -30.8588 H   0  0  0  0  0  0  0  0  0  0  0  0
  -10.3406   21.0406  -31.9769 H   0  0  0  0  0  0  0  0  0  0  0  0
   -8.9412   19.2692  -33.0123 H   0  0  0  0  0  0  0  0  0  0  0  0
   -7.1081   17.3396  -32.4806 H   0  0  0  0  0  0  0  0  0  0  0  0
   -7.7580   18.0741  -33.9855 H   0  0  0  0  0  0  0  0  0  0  0  0
   -6.1275   17.3204  -33.9855 H   0  0  0  0  0  0  0  0  0  0  0  0
   -4.6358   17.8052  -34.6202 H   0  0  0  0  0  0  0  0  0  0  0  0
   -1.8510   16.1700  -33.8133 H   0  0  0  0  0  0  0  0  0  0  0  0
   -2.7356   15.9723  -35.3641 H   0  0  0  0  0  0  0  0  0  0  0  0
   -0.9458   16.1240  -35.3641 H   0  0  0  0  0  0  0  0  0  0  0  0
    1.0049   20.8742  -33.8596 H   0  0  0  0  0  0  0  0  0  0  0  0
    0.5614   19.5111  -34.9422 H   0  0  0  0  0  0  0  0  0  0  0  0
   -0.4216   21.0146  -34.9422 H   0  0  0  0  0  0  0  0  0  0  0  0
  1  2  1  0
  2  3  1  0
  3  4  1  0
  4  5  1  0
  5  6  1  0
  6  7  1  0
  7  8  2  0
  8  9  1  0
  9 10  2  0
 10 11  1  0
 11 12  2  0
 12 13  1  0
 13 14  2  0
 14 15  1  0
 14 16  1  0
 16 17  2  0
 17 18  1  0
 18 19  1  0
 19 20  1  0
 18 21  2  0
 21 22  1  0
 22 23  1  0
 21 24  1  0
 24 25  1  0
 24 26  2  0
 26  7  1  0
 13  8  1  0
 26 16  1  0
  1 27  1  0
  1 28  1  0
  1 29  1  0
  2 30  1  0
  2 31  1  0
  3 32  1  0
  4 33  1  0
  4 34  1  0
  5 35  1  0
  5 36  1  0
  6 37  1  0
  9 38  1  0
 10 39  1  0
 11 40  1  0
 12 41  1  0
 15 42  1  0
 15 43  1  0
 15 44  1  0
 17 45  1  0
 20 46  1  0
 20 47  1  0
 20 48  1  0
 23 49  1  0
 23 50  1  0
 23 51  1  0
M  CHG  1  14   1
M  END
>  <UniqueID>  (6) 
5

>  <SMILES>  (6) 
CCNCCNc1c2ccccc2[n+](C)c2cc(OC)c(OC)c(Br)c12

>  <Energy>  (6) 
85.06355176233689

>  <Genealogy>  (6) 
CCNCCNc1c2ccccc2[n+](C)c2cc(OC)c(OC)c(Br)c12 (3D coordinates assigned)
CCNCCNc1c2ccccc2[n+](C)c2cc(OC)c(OC)c(Br)c12 (optimized conformer: 85.06355176233689 kcal/mol)

>  <smiles>  (6) 
CCNCCNc1c2ccccc2[n+](C)c2cc(OC)c(OC)c(Br)c12

>  <score_type>  (6) 
oracle

>  <origin>  (6) 
adg

>  <m_score__min__energy>  (6) 
-8.3399999999999999

>  <m_primary>  (6) 
energy

$$$$
6:0
     RDKit          3D

 45 47  0  0  0  0  0  0  0  0999 V2000
   -4.8619   23.3279  -28.7141 H   0  0  0  0  0  0  0  0  0  0  0  0
   -3.7890   23.0910  -28.7660 C   0  0  0  0  0  0  0  0  0  0  0  0
   -3.2710   22.0430  -28.0000 C   0  0  0  0  0  0  0  0  0  0  0  0
   -3.9374   21.4695  -27.3389 H   0  0  0  0  0  0  0  0  0  0  0  0
   -1.9110   21.7170  -28.0670 C   0  0  0  0  0  0  0  0  0  0  0  0
   -1.4390   20.6620  -27.2730 O   0  0  0  0  0  0  0  0  0  0  0  0
   -1.9140   19.3200  -27.3520 C   0  0  0  0  0  0  0  0  0  0  0  0
   -1.0581   18.6297  -27.3826 H   0  0  0  0  0  0  0  0  0  0  0  0
   -2.5171   19.1985  -28.2638 H   0  0  0  0  0  0  0  0  0  0  0  0
   -2.7700   19.0110  -26.1350 C   0  0  0  0  0  0  0  0  0  0  0  0
   -2.1953   19.2184  -25.2203 H   0  0  0  0  0  0  0  0  0  0  0  0
   -3.6721   19.6402  -26.1519 H   0  0  0  0  0  0  0  0  0  0  0  0
   -3.0622   17.9507  -26.1519 H   0  0  0  0  0  0  0  0  0  0  0  0
   -1.0700   22.4530  -28.9240 C   0  0  0  0  0  0  0  0  0  0  0  0
   -0.0010   22.2024  -28.9909 H   0  0  0  0  0  0  0  0  0  0  0  0
   -1.5890   23.5010  -29.6900 C   0  0  0  0  0  0  0  0  0  0  0  0
   -0.9289   24.0625  -30.3675 H   0  0  0  0  0  0  0  0  0  0  0  0
   -2.9500   23.8410  -29.5990 C   0  0  0  0  0  0  0  0  0  0  0  0
   -3.5140   24.9050  -30.3780 N   0  0  0  0  0  0  0  0  0  0  0  0
   -4.8670   24.9770  -30.8470 C   0  0  0  0  0  0  0  0  0  0  0  0
   -5.4470   26.0950  -30.8460 O   0  0  0  0  0  0  0  0  0  0  0  0
   -5.5710   23.7930  -31.3890 C   0  0  0  0  0  0  0  0  0  0  0  0
   -4.7210   22.4700  -31.9990 S   0  0  0  0  0  0  0  0  0  0  0  0
   -5.7640   21.2700  -32.5540 C   0  0  0  0  0  0  0  0  0  0  0  0
   -5.2520   20.1710  -33.0340 N   0  0  0  0  0  0  0  0  0  0  0  0
   -5.8850   19.2260  -33.9530 C   0  0  0  0  0  0  0  0  0  0  0  0
   -6.6928   19.7357  -34.4986 H   0  0  0  0  0  0  0  0  0  0  0  0
   -5.1298   18.8537  -34.6609 H   0  0  0  0  0  0  0  0  0  0  0  0
   -6.4700   18.0380  -33.1740 C   0  0  0  0  0  0  0  0  0  0  0  0
   -6.1409   17.2689  -33.8883 H   0  0  0  0  0  0  0  0  0  0  0  0
   -7.7600   18.3260  -32.4200 C   0  0  0  0  0  0  0  0  0  0  0  0
   -8.2409   19.3113  -32.5092 H   0  0  0  0  0  0  0  0  0  0  0  0
   -8.7492   17.8485  -32.3603 H   0  0  0  0  0  0  0  0  0  0  0  0
   -6.4490   18.1850  -31.6590 C   0  0  0  0  0  0  0  0  0  0  0  0
   -5.9825   19.0684  -31.1985 H   0  0  0  0  0  0  0  0  0  0  0  0
   -6.0983   17.5635  -30.8219 H   0  0  0  0  0  0  0  0  0  0  0  0
   -7.1110   21.4910  -32.4790 N   0  0  0  0  0  0  0  0  0  0  0  0
   -7.7610   20.7500  -32.8210 H   0  0  0  0  0  0  0  0  0  0  0  0
   -7.6940   22.6380  -31.9910 C   0  0  0  0  0  0  0  0  0  0  0  0
   -9.1950   22.7220  -31.9580 C   0  0  0  0  0  0  0  0  0  0  0  0
   -9.5383   22.7412  -30.9131 H   0  0  0  0  0  0  0  0  0  0  0  0
   -9.5222   23.6399  -32.4684 H   0  0  0  0  0  0  0  0  0  0  0  0
   -9.6226   21.8464  -32.4684 H   0  0  0  0  0  0  0  0  0  0  0  0
   -6.9660   23.7330  -31.4570 C   0  0  0  0  0  0  0  0  0  0  0  0
   -7.5368   24.5906  -31.0714 H   0  0  0  0  0  0  0  0  0  0  0  0
  1  2  1  0
  2  3  2  0
  3  4  1  0
  3  5  1  0
  5  6  1  0
  6  7  1  0
  7  8  1  0
  7  9  1  0
  7 10  1  0
 10 11  1  0
 10 12  1  0
 10 13  1  0
  5 14  2  0
 14 15  1  0
 14 16  1  0
 16 17  1  0
 16 18  2  0
 18 19  1  0
 19 20  1  0
 20 21  2  0
 20 22  1  0
 22 23  1  0
 23 24  1  0
 24 25  2  0
 25 26  1  0
 26 27  1  0
 26 28  1  0
 26 29  1  0
 29 30  1  0
 29 31  1  0
 31 32  1  0
 31 33  1  0
 31 34  1  0
 34 35  1  0
 34 36  1  0
 24 37  1  0
 37 38  1  0
 37 39  2  0
 39 40  1  0
 40 41  1  0
 40 42  1  0
 40 43  1  0
 39 44  1  0
 44 45  1  0
 18  2  1  0
 44 22  2  0
 34 29  1  0
M  CHG  2  19  -1  37   1
M  END
>  <UniqueID>  (7) 
6

>  <SMILES>  (7) 
CCOc1ccc([N-]C(=O)c2cc(C)[nH+]/c(=N\CC3CC3)s2)cc1

>  <Energy>  (7) 
316.0285022638168

>  <Genealogy>  (7) 
CCOc1ccc([N-]C(=O)c2cc(C)[nH+]c(=NCC3CC3)s2)cc1 (protonated)
CCOc1ccc([N-]C(=O)c2cc(C)[nH+]/c(=N\CC3CC3)s2)cc1 (cis-trans isomerization)
CCOc1ccc([N-]C(=O)c2cc(C)[nH+]/c(=N\CC3CC3)s2)cc1 (3D coordinates assigned)
CCOc1ccc([N-]C(=O)c2cc(C)[nH+]/c(=N\CC3CC3)s2)cc1 (nonaromatic ring conformer: 316.0285022638168 kcal/mol)

>  <smiles>  (7) 
CCOc1ccc(NC(=O)c2cc(C)nc(=NCC3CC3)s2)cc1

>  <score_type>  (7) 
oracle

>  <origin>  (7) 
adg

>  <m_score__min__energy>  (7) 
-9.1099999999999994

>  <m_primary>  (7) 
energy

$$$$
7:0
     RDKit          3D

 53 55  0  0  0  0  0  0  0  0999 V2000
   -7.7480   18.2060  -31.2400 C   0  0  0  0  0  0  0  0  0  0  0  0
   -9.0980   18.3880  -31.9270 C   0  0  0  0  0  0  0  0  0  0  0  0
   -9.2850   19.7400  -32.2960 O   0  0  0  0  0  0  0  0  0  0  0  0
   -8.5240   20.6090  -31.4780 C   0  0  0  0  0  0  0  0  0  0  0  0
   -8.0100   21.8070  -32.2840 C   0  0  0  0  0  0  0  0  0  0  0  0
   -6.5380   21.7690  -32.4100 N   0  0  0  0  0  0  0  0  0  0  0  0
   -5.7640   22.8580  -32.0400 C   0  0  0  0  0  0  0  0  0  0  0  0
   -6.4970   24.3550  -31.3440 S   0  0  0  0  0  0  0  0  0  0  0  0
   -5.6840   24.1840  -29.7160 C   0  0  0  0  0  0  0  0  0  0  0  0
   -4.1880   24.3210  -29.8300 C   0  0  0  0  0  0  0  0  0  0  0  0
   -3.7330   25.2880  -30.4950 O   0  0  0  0  0  0  0  0  0  0  0  0
   -3.2700   23.4020  -29.1940 N   0  0  0  0  0  0  0  0  0  0  0  0
   -3.7220   22.1470  -28.5740 C   0  0  0  0  0  0  0  0  0  0  0  0
   -2.7080   21.0300  -28.8410 C   0  0  0  0  0  0  0  0  0  0  0  0
   -1.3380   21.4490  -28.5160 N   0  0  0  0  0  0  0  0  0  0  0  0
   -0.3020   20.4470  -28.4830 C   0  0  0  0  0  0  0  0  0  0  0  0
    1.0280   20.7110  -27.8480 C   0  0  0  0  0  0  0  0  0  0  0  0
   -0.5000   19.3200  -29.0120 O   0  0  0  0  0  0  0  0  0  0  0  0
   -1.0660   22.8510  -28.1600 C   0  0  0  0  0  0  0  0  0  0  0  0
   -1.8590   23.8010  -29.0670 C   0  0  0  0  0  0  0  0  0  0  0  0
   -4.4070   22.8350  -32.2090 N   0  0  0  0  0  0  0  0  0  0  0  0
   -3.8040   21.7340  -32.7210 C   0  0  0  0  0  0  0  0  0  0  0  0
   -2.4300   21.5810  -32.9250 C   0  0  0  0  0  0  0  0  0  0  0  0
   -2.1100   20.3400  -33.4720 C   0  0  0  0  0  0  0  0  0  0  0  0
   -3.5330   19.4500  -33.6930 S   0  0  0  0  0  0  0  0  0  0  0  0
   -4.5490   20.6440  -33.0920 C   0  0  0  0  0  0  0  0  0  0  0  0
   -5.9300   20.6540  -32.9480 C   0  0  0  0  0  0  0  0  0  0  0  0
   -6.6040   19.6510  -33.3120 O   0  0  0  0  0  0  0  0  0  0  0  0
   -7.8864   18.2247  -30.1489 H   0  0  0  0  0  0  0  0  0  0  0  0
   -7.3121   17.2410  -31.5379 H   0  0  0  0  0  0  0  0  0  0  0  0
   -7.0721   19.0212  -31.5379 H   0  0  0  0  0  0  0  0  0  0  0  0
   -9.1340   17.7581  -32.8281 H   0  0  0  0  0  0  0  0  0  0  0  0
   -9.8960   18.0950  -31.2289 H   0  0  0  0  0  0  0  0  0  0  0  0
   -9.1553   20.9732  -30.6541 H   0  0  0  0  0  0  0  0  0  0  0  0
   -7.6603   20.0540  -31.0832 H   0  0  0  0  0  0  0  0  0  0  0  0
   -8.4576   21.7833  -33.2885 H   0  0  0  0  0  0  0  0  0  0  0  0
   -8.2927   22.7305  -31.7575 H   0  0  0  0  0  0  0  0  0  0  0  0
   -6.0644   24.9660  -29.0424 H   0  0  0  0  0  0  0  0  0  0  0  0
   -5.9102   23.1829  -29.3202 H   0  0  0  0  0  0  0  0  0  0  0  0
   -3.8235   22.2938  -27.4886 H   0  0  0  0  0  0  0  0  0  0  0  0
   -4.6923   21.8620  -29.0066 H   0  0  0  0  0  0  0  0  0  0  0  0
   -2.9692   20.1570  -28.2248 H   0  0  0  0  0  0  0  0  0  0  0  0
   -2.7453   20.7826  -29.9122 H   0  0  0  0  0  0  0  0  0  0  0  0
    0.9223   20.6900  -26.7533 H   0  0  0  0  0  0  0  0  0  0  0  0
    1.7443   19.9375  -28.1621 H   0  0  0  0  0  0  0  0  0  0  0  0
    1.3945   21.6994  -28.1621 H   0  0  0  0  0  0  0  0  0  0  0  0
   -1.3586   23.0217  -27.1135 H   0  0  0  0  0  0  0  0  0  0  0  0
    0.0081   23.0487  -28.2914 H   0  0  0  0  0  0  0  0  0  0  0  0
   -1.8147   24.8149  -28.6426 H   0  0  0  0  0  0  0  0  0  0  0  0
   -1.4072   23.7656  -30.0693 H   0  0  0  0  0  0  0  0  0  0  0  0
   -3.8300   23.6630  -31.9400 H   0  0  0  0  0  0  0  0  0  0  0  0
   -1.6852   22.3530  -32.6813 H   0  0  0  0  0  0  0  0  0  0  0  0
   -1.0957   19.9942  -33.7203 H   0  0  0  0  0  0  0  0  0  0  0  0
  1  2  1  0
  2  3  1  0
  3  4  1  0
  4  5  1  0
  5  6  1  0
  6  7  1  0
  7  8  1  0
  8  9  1  0
  9 10  1  0
 10 11  2  0
 10 12  1  0
 12 13  1  0
 13 14  1  0
 14 15  1  0
 15 16  1  0
 16 17  1  0
 16 18  2  0
 15 19  1  0
 19 20  1  0
  7 21  2  0
 21 22  1  0
 22 23  1  0
 23 24  2  0
 24 25  1  0
 25 26  1  0
 26 27  1  0
 27 28  2  0
 27  6  1  0
 20 12  1  0
 26 22  2  0
  1 29  1  0
  1 30  1  0
  1 31  1  0
  2 32  1  0
  2 33  1  0
  4 34  1  0
  4 35  1  0
  5 36  1  0
  5 37  1  0
  9 38  1  0
  9 39  1  0
 13 40  1  0
 13 41  1  0
 14 42  1  0
 14 43  1  0
 17 44  1  0
 17 45  1  0
 17 46  1  0
 19 47  1  0
 19 48  1  0
 20 49  1  0
 20 50  1  0
 21 51  1  0
 23 52  1  0
 24 53  1  0
M  CHG  1  21   1
M  END
>  <UniqueID>  (8) 
7

>  <SMILES>  (8) 
CCOCCn1c(SCC(=O)N2CCN(C(C)=O)CC2)[nH+]c2ccsc2c1=O

>  <Energy>  (8) 
83.2657485804622

>  <Genealogy>  (8) 
CCOCCn1c(SCC(=O)N2CCN(C(C)=O)CC2)[nH+]c2ccsc2c1=O (protonated)
CCOCCn1c(SCC(=O)N2CCN(C(C)=O)CC2)[nH+]c2ccsc2c1=O (3D coordinates assigned)
CCOCCn1c(SCC(=O)N2CCN(C(C)=O)CC2)[nH+]c2ccsc2c1=O (nonaromatic ring conformer: 83.2657485804622 kcal/mol)

>  <smiles>  (8) 
CCOCCn1c(SCC(=O)N2CCN(C(C)=O)CC2)nc2ccsc2c1=O

>  <score_type>  (8) 
oracle

>  <origin>  (8) 
adg

>  <m_score__min__energy>  (8) 
-7.9100000000000001

>  <m_primary>  (8) 
energy

$$$$
8:0
     RDKit          3D

 48 51  0  0  0  0  0  0  0  0999 V2000
   -0.9940   21.9180  -30.8670 C   0  0  0  0  0  0  0  0  0  0  0  0
   -0.9450   20.7980  -31.8210 N   0  0  0  0  0  0  0  0  0  0  0  0
    0.4160   20.2310  -31.8390 C   0  0  0  0  0  0  0  0  0  0  0  0
   -1.3520   21.2500  -33.1700 C   0  0  0  0  0  0  0  0  0  0  0  0
   -2.8750   21.1870  -33.3340 C   0  0  0  0  0  0  0  0  0  0  0  0
   -3.5000   20.4660  -32.2260 N   0  0  0  0  0  0  0  0  0  0  0  0
   -4.8980   20.1650  -32.2600 C   0  0  0  0  0  0  0  0  0  0  0  0
   -5.3760   18.9200  -32.7230 C   0  0  0  0  0  0  0  0  0  0  0  0
   -4.4820   17.9500  -33.2160 C   0  0  0  0  0  0  0  0  0  0  0  0
   -4.9540   16.7330  -33.7040 C   0  0  0  0  0  0  0  0  0  0  0  0
   -6.3190   16.4680  -33.7180 C   0  0  0  0  0  0  0  0  0  0  0  0
   -7.2290   17.4090  -33.2350 C   0  0  0  0  0  0  0  0  0  0  0  0
   -6.7850   18.6470  -32.7090 C   0  0  0  0  0  0  0  0  0  0  0  0
   -7.6770   19.5850  -32.2040 N   0  0  0  0  0  0  0  0  0  0  0  0
   -9.1170   19.2880  -32.0860 C   0  0  0  0  0  0  0  0  0  0  0  0
   -7.1880   20.8110  -31.8310 C   0  0  0  0  0  0  0  0  0  0  0  0
   -7.9130   21.8810  -31.4180 N   0  0  0  0  0  0  0  0  0  0  0  0
   -7.0040   22.8460  -31.1670 C   0  0  0  0  0  0  0  0  0  0  0  0
   -7.2620   24.1430  -30.7280 C   0  0  0  0  0  0  0  0  0  0  0  0
   -6.1690   25.0090  -30.5440 C   0  0  0  0  0  0  0  0  0  0  0  0
   -4.8510   24.5690  -30.8100 C   0  0  0  0  0  0  0  0  0  0  0  0
   -3.7700   25.4290  -30.6340 O   0  0  0  0  0  0  0  0  0  0  0  0
   -4.6200   23.2560  -31.2590 C   0  0  0  0  0  0  0  0  0  0  0  0
   -5.7210   22.4120  -31.4200 C   0  0  0  0  0  0  0  0  0  0  0  0
   -5.8390   21.1020  -31.8500 C   0  0  0  0  0  0  0  0  0  0  0  0
   -0.9768   21.5255  -29.8396 H   0  0  0  0  0  0  0  0  0  0  0  0
   -0.1236   22.5720  -31.0243 H   0  0  0  0  0  0  0  0  0  0  0  0
   -1.9182   22.4935  -31.0243 H   0  0  0  0  0  0  0  0  0  0  0  0
    0.7661   20.0851  -30.8065 H   0  0  0  0  0  0  0  0  0  0  0  0
    0.4032   19.2634  -32.3620 H   0  0  0  0  0  0  0  0  0  0  0  0
    1.0940   20.9215  -32.3620 H   0  0  0  0  0  0  0  0  0  0  0  0
   -1.0168   22.2871  -33.3183 H   0  0  0  0  0  0  0  0  0  0  0  0
   -0.8913   20.5858  -33.9161 H   0  0  0  0  0  0  0  0  0  0  0  0
   -3.2745   22.2114  -33.3655 H   0  0  0  0  0  0  0  0  0  0  0  0
   -3.1015   20.6517  -34.2679 H   0  0  0  0  0  0  0  0  0  0  0  0
   -2.9470   20.1770  -31.3860 H   0  0  0  0  0  0  0  0  0  0  0  0
   -3.4012   18.1548  -33.2159 H   0  0  0  0  0  0  0  0  0  0  0  0
   -4.2451   15.9802  -34.0790 H   0  0  0  0  0  0  0  0  0  0  0  0
   -6.6844   15.5086  -34.1131 H   0  0  0  0  0  0  0  0  0  0  0  0
   -8.3059   17.1864  -33.2631 H   0  0  0  0  0  0  0  0  0  0  0  0
   -9.3937   19.2309  -31.0229 H   0  0  0  0  0  0  0  0  0  0  0  0
   -9.6970   20.0854  -32.5735 H   0  0  0  0  0  0  0  0  0  0  0  0
   -9.3342   18.3262  -32.5735 H   0  0  0  0  0  0  0  0  0  0  0  0
   -8.9470   21.9870  -31.3340 H   0  0  0  0  0  0  0  0  0  0  0  0
   -8.2905   24.4799  -30.5311 H   0  0  0  0  0  0  0  0  0  0  0  0
   -6.3404   26.0365  -30.1905 H   0  0  0  0  0  0  0  0  0  0  0  0
   -3.8600   26.4280  -30.7790 H   0  0  0  0  0  0  0  0  0  0  0  0
   -3.6009   22.9040  -31.4771 H   0  0  0  0  0  0  0  0  0  0  0  0
  1  2  1  0
  2  3  1  0
  2  4  1  0
  4  5  1  0
  5  6  1  0
  6  7  1  0
  7  8  2  0
  8  9  1  0
  9 10  2  0
 10 11  1  0
 11 12  2  0
 12 13  1  0
 13 14  2  0
 14 15  1  0
 14 16  1  0
 16 17  1  0
 17 18  1  0
 18 19  2  0
 19 20  1  0
 20 21  2  0
 21 22  1  0
 21 23  1  0
 23 24  2  0
 24 25  1  0
 25  7  1  0
 13  8  1  0
 25 16  2  0
 24 18  1  0
  1 26  1  0
  1 27  1  0
  1 28  1  0
  3 29  1  0
  3 30  1  0
  3 31  1  0
  4 32  1  0
  4 33  1  0
  5 34  1  0
  5 35  1  0
  6 36  1  0
  9 37  1  0
 10 38  1  0
 11 39  1  0
 12 40  1  0
 15 41  1  0
 15 42  1  0
 15 43  1  0
 17 44  1  0
 19 45  1  0
 20 46  1  0
 22 47  1  0
 23 48  1  0
M  CHG  1  14   1
M  END
>  <UniqueID>  (9) 
8

>  <SMILES>  (9) 
CN(C)CCNc1c2ccccc2[n+](C)c2[nH]c3ccc(O)cc3c12

>  <Energy>  (9) 
106.34993615249554

>  <Genealogy>  (9) 
CN(C)CCNc1c2ccccc2[n+](C)c2[nH]c3ccc(O)cc3c12 (3D coordinates assigned)
CN(C)CCNc1c2ccccc2[n+](C)c2[nH]c3ccc(O)cc3c12 (optimized conformer: 106.34993615249554 kcal/mol)

>  <smiles>  (9) 
CN(C)CCNc1c2ccccc2[n+](C)c2[nH]c3ccc(O)cc3c12

>  <score_type>  (9) 
oracle

>  <origin>  (9) 
adg

>  <m_score__min__energy>  (9) 
-9.3599999999999994

>  <m_primary>  (9) 
energy

$$$$
9:0
     RDKit          3D

 63 63  0  0  0  0  0  0  0  0999 V2000
    0.1570   20.8230  -33.5780 C   0  0  0  0  0  0  0  0  0  0  0  0
   -1.2410   20.2980  -33.9010 C   0  0  0  0  0  0  0  0  0  0  0  0
   -2.2560   21.3480  -33.6950 N   0  0  0  0  0  0  0  0  0  0  0  0
   -3.5650   20.8040  -33.2820 C   0  0  0  0  0  0  0  0  0  0  0  0
   -3.5240   19.9850  -31.9750 C   0  0  0  0  0  0  0  0  0  0  0  0
   -2.9920   20.7870  -30.7750 C   0  0  0  0  0  0  0  0  0  0  0  0
   -2.9420   22.2260  -31.0820 N   0  0  0  0  0  0  0  0  0  0  0  0
   -1.8230   22.9100  -30.4080 C   0  0  0  0  0  0  0  0  0  0  0  0
   -2.3080   23.4840  -29.0730 C   0  0  0  0  0  0  0  0  0  0  0  0
   -3.7010   24.1170  -29.1760 C   0  0  0  0  0  0  0  0  0  0  0  0
   -3.8780   24.7980  -30.4670 N   0  0  0  0  0  0  0  0  0  0  0  0
   -5.0640   25.6710  -30.4980 C   0  0  0  0  0  0  0  0  0  0  0  0
   -6.4180   24.9200  -30.4700 C   0  0  0  0  0  0  0  0  0  0  0  0
   -6.6730   24.0380  -31.7040 C   0  0  0  0  0  0  0  0  0  0  0  0
   -5.7120   22.9290  -31.7430 N   0  0  0  0  0  0  0  0  0  0  0  0
   -6.2990   21.6940  -31.2040 C   0  0  0  0  0  0  0  0  0  0  0  0
   -7.8310   21.8030  -31.1750 C   0  0  0  0  0  0  0  0  0  0  0  0
   -8.5390   20.9030  -32.2000 C   0  0  0  0  0  0  0  0  0  0  0  0
   -7.6790   19.7400  -32.6270 C   0  0  0  0  0  0  0  0  0  0  0  0
   -6.8500   19.8490  -33.7570 C   0  0  0  0  0  0  0  0  0  0  0  0
   -6.0670   18.7670  -34.1670 C   0  0  0  0  0  0  0  0  0  0  0  0
   -6.1040   17.5670  -33.4510 C   0  0  0  0  0  0  0  0  0  0  0  0
   -6.9250   17.4480  -32.3270 C   0  0  0  0  0  0  0  0  0  0  0  0
   -7.7110   18.5290  -31.9150 C   0  0  0  0  0  0  0  0  0  0  0  0
    0.2872   20.8719  -32.4868 H   0  0  0  0  0  0  0  0  0  0  0  0
    0.9109   20.1467  -34.0073 H   0  0  0  0  0  0  0  0  0  0  0  0
    0.2794   21.8283  -34.0073 H   0  0  0  0  0  0  0  0  0  0  0  0
   -1.2694   19.9701  -34.9506 H   0  0  0  0  0  0  0  0  0  0  0  0
   -1.4646   19.4554  -33.2301 H   0  0  0  0  0  0  0  0  0  0  0  0
   -1.9310   21.9860  -32.9280 H   0  0  0  0  0  0  0  0  0  0  0  0
   -2.3570   21.9270  -34.5600 H   0  0  0  0  0  0  0  0  0  0  0  0
   -4.2594   21.6453  -33.1406 H   0  0  0  0  0  0  0  0  0  0  0  0
   -3.8871   20.1156  -34.0772 H   0  0  0  0  0  0  0  0  0  0  0  0
   -4.5440   19.6443  -31.7435 H   0  0  0  0  0  0  0  0  0  0  0  0
   -2.8347   19.1433  -32.1376 H   0  0  0  0  0  0  0  0  0  0  0  0
   -3.6554   20.6261  -29.9124 H   0  0  0  0  0  0  0  0  0  0  0  0
   -1.9727   20.4418  -30.5472 H   0  0  0  0  0  0  0  0  0  0  0  0
   -3.8360   22.6470  -30.7320 H   0  0  0  0  0  0  0  0  0  0  0  0
   -1.0103   22.1916  -30.2251 H   0  0  0  0  0  0  0  0  0  0  0  0
   -1.4529   23.7259  -31.0462 H   0  0  0  0  0  0  0  0  0  0  0  0
   -2.3438   22.6717  -28.3322 H   0  0  0  0  0  0  0  0  0  0  0  0
   -1.6036   24.2742  -28.7739 H   0  0  0  0  0  0  0  0  0  0  0  0
   -4.4621   23.3288  -29.0781 H   0  0  0  0  0  0  0  0  0  0  0  0
   -3.8081   24.8594  -28.3714 H   0  0  0  0  0  0  0  0  0  0  0  0
   -3.9030   24.1130  -31.2550 H   0  0  0  0  0  0  0  0  0  0  0  0
   -5.0228   26.3369  -29.6234 H   0  0  0  0  0  0  0  0  0  0  0  0
   -5.0276   26.2126  -31.4547 H   0  0  0  0  0  0  0  0  0  0  0  0
   -6.4387   24.2784  -29.5767 H   0  0  0  0  0  0  0  0  0  0  0  0
   -7.2060   25.6874  -30.4605 H   0  0  0  0  0  0  0  0  0  0  0  0
   -7.6942   23.6321  -31.6555 H   0  0  0  0  0  0  0  0  0  0  0  0
   -6.5535   24.6480  -32.6115 H   0  0  0  0  0  0  0  0  0  0  0  0
   -4.8930   23.1920  -31.1450 H   0  0  0  0  0  0  0  0  0  0  0  0
   -6.0072   20.8453  -31.8401 H   0  0  0  0  0  0  0  0  0  0  0  0
   -5.9309   21.5394  -30.1790 H   0  0  0  0  0  0  0  0  0  0  0  0
   -8.1791   21.5233  -30.1697 H   0  0  0  0  0  0  0  0  0  0  0  0
   -8.0821   22.8419  -31.4351 H   0  0  0  0  0  0  0  0  0  0  0  0
   -9.4639   20.5132  -31.7500 H   0  0  0  0  0  0  0  0  0  0  0  0
   -8.7528   21.5103  -33.0919 H   0  0  0  0  0  0  0  0  0  0  0  0
   -6.8176   20.7922  -34.3220 H   0  0  0  0  0  0  0  0  0  0  0  0
   -5.4216   18.8594  -35.0530 H   0  0  0  0  0  0  0  0  0  0  0  0
   -5.4862   16.7157  -33.7729 H   0  0  0  0  0  0  0  0  0  0  0  0
   -6.9533   16.5027  -31.7652 H   0  0  0  0  0  0  0  0  0  0  0  0
   -8.3569   18.4308  -31.0300 H   0  0  0  0  0  0  0  0  0  0  0  0
  1  2  1  0
  2  3  1  0
  3  4  1  0
  4  5  1  0
  5  6  1  0
  6  7  1  0
  7  8  1  0
  8  9  1  0
  9 10  1  0
 10 11  1  0
 11 12  1  0
 12 13  1  0
 13 14  1  0
 14 15  1  0
 15 16  1  0
 16 17  1  0
 17 18  1  0
 18 19  1  0
 19 20  2  0
 20 21  1  0
 21 22  2  0
 22 23  1  0
 23 24  2  0
 24 19  1  0
  1 25  1  0
  1 26  1  0
  1 27  1  0
  2 28  1  0
  2 29  1  0
  3 30  1  0
  3 31  1  0
  4 32  1  0
  4 33  1  0
  5 34  1  0
  5 35  1  0
  6 36  1  0
  6 37  1  0
  7 38  1  0
  8 39  1  0
  8 40  1  0
  9 41  1  0
  9 42  1  0
 10 43  1  0
 10 44  1  0
 11 45  1  0
 12 46  1  0
 12 47  1  0
 13 48  1  0
 13 49  1  0
 14 50  1  0
 14 51  1  0
 15 52  1  0
 16 53  1  0
 16 54  1  0
 17 55  1  0
 17 56  1  0
 18 57  1  0
 18 58  1  0
 20 59  1  0
 21 60  1  0
 22 61  1  0
 23 62  1  0
 24 63  1  0
M  CHG  1   3   1
M  END
>  <UniqueID>  (10) 
9

>  <SMILES>  (10) 
CC[NH2+]CCCNCCCNCCCNCCCc1ccccc1

>  <Energy>  (10) 
43.69394887739209

>  <Genealogy>  (10) 
CC[NH2+]CCCNCCCNCCCNCCCc1ccccc1 (protonated)
CC[NH2+]CCCNCCCNCCCNCCCc1ccccc1 (3D coordinates assigned)
CC[NH2+]CCCNCCCNCCCNCCCc1ccccc1 (optimized conformer: 43.69394887739209 kcal/mol)

>  <smiles>  (10) 
CCNCCCNCCCNCCCNCCCc1ccccc1

>  <score_type>  (10) 
oracle

>  <origin>  (10) 
adg

>  <m_score__min__energy>  (10) 
-8.0399999999999991

>  <m_primary>  (10) 
energy

$$$$
10:0
     RDKit          3D

 44 46  0  0  0  0  0  0  0  0999 V2000
   -9.2030   20.9580  -31.9320 C   0  0  0  0  0  0  0  0  0  0  0  0
   -9.1310   19.9670  -33.0870 C   0  0  0  0  0  0  0  0  0  0  0  0
   -8.4380   18.7450  -32.6580 N   0  0  0  0  0  0  0  0  0  0  0  0
   -7.6570   18.9690  -31.4310 C   0  0  0  0  0  0  0  0  0  0  0  0
   -6.3400   18.1580  -31.4430 C   0  0  2  0  0  0  0  0  0  0  0  0
   -5.1660   19.0460  -31.9300 C   0  0  0  0  0  0  0  0  0  0  0  0
   -5.6340   19.9860  -32.9730 N   0  0  0  0  0  0  0  0  0  0  0  0
   -4.7400   21.1490  -33.1790 C   0  0  0  0  0  0  0  0  0  0  0  0
   -5.0870   22.3480  -32.3200 C   0  0  0  0  0  0  0  0  0  0  0  0
   -6.4000   22.8390  -32.2590 C   0  0  0  0  0  0  0  0  0  0  0  0
   -6.6980   23.9470  -31.4640 C   0  0  0  0  0  0  0  0  0  0  0  0
   -5.6770   24.5650  -30.7420 C   0  0  0  0  0  0  0  0  0  0  0  0
   -4.4050   24.0930  -30.8220 N   0  0  0  0  0  0  0  0  0  0  0  0
   -4.0900   23.0140  -31.5890 C   0  0  0  0  0  0  0  0  0  0  0  0
   -5.9980   19.3050  -34.2350 C   0  0  0  0  0  0  0  0  0  0  0  0
   -5.4240   17.9130  -34.3420 C   0  0  0  0  0  0  0  0  0  0  0  0
   -4.5990   17.5570  -35.3510 N   0  0  0  0  0  0  0  0  0  0  0  0
   -4.2840   16.2730  -35.0900 C   0  0  0  0  0  0  0  0  0  0  0  0
   -4.9150   15.8680  -33.9360 C   0  0  0  0  0  0  0  0  0  0  0  0
   -5.6300   16.9030  -33.4650 N   0  0  0  0  0  0  0  0  0  0  0  0
   -6.5040   16.8800  -32.2920 C   0  0  0  0  0  0  0  0  0  0  0  0
   -9.1634   20.4124  -30.9777 H   0  0  0  0  0  0  0  0  0  0  0  0
   -8.3530   21.6536  -31.9922 H   0  0  0  0  0  0  0  0  0  0  0  0
  -10.1446   21.5235  -31.9922 H   0  0  0  0  0  0  0  0  0  0  0  0
  -10.1504   19.7124  -33.4127 H   0  0  0  0  0  0  0  0  0  0  0  0
   -8.5762   20.4232  -33.9201 H   0  0  0  0  0  0  0  0  0  0  0  0
   -7.7680   18.4800  -33.4170 H   0  0  0  0  0  0  0  0  0  0  0  0
   -7.4171   20.0395  -31.3501 H   0  0  0  0  0  0  0  0  0  0  0  0
   -8.2594   18.6374  -30.5724 H   0  0  0  0  0  0  0  0  0  0  0  0
   -6.1001   17.8365  -30.4187 H   0  0  0  0  0  0  0  0  0  0  0  0
   -4.7655   19.6172  -31.0795 H   0  0  0  0  0  0  0  0  0  0  0  0
   -4.3810   18.4022  -32.3534 H   0  0  0  0  0  0  0  0  0  0  0  0
   -3.7105   20.8407  -32.9442 H   0  0  0  0  0  0  0  0  0  0  0  0
   -4.8578   21.4614  -34.2271 H   0  0  0  0  0  0  0  0  0  0  0  0
   -7.1963   22.3497  -32.8390 H   0  0  0  0  0  0  0  0  0  0  0  0
   -7.7280   24.3291  -31.4074 H   0  0  0  0  0  0  0  0  0  0  0  0
   -5.9015   25.4350  -30.1074 H   0  0  0  0  0  0  0  0  0  0  0  0
   -3.0490   22.6617  -31.6366 H   0  0  0  0  0  0  0  0  0  0  0  0
   -7.0944   19.2373  -34.2929 H   0  0  0  0  0  0  0  0  0  0  0  0
   -5.5785   19.8978  -35.0612 H   0  0  0  0  0  0  0  0  0  0  0  0
   -3.6234   15.6446  -35.7054 H   0  0  0  0  0  0  0  0  0  0  0  0
   -4.8458   14.8700  -33.4787 H   0  0  0  0  0  0  0  0  0  0  0  0
   -7.5493   16.8038  -32.6259 H   0  0  0  0  0  0  0  0  0  0  0  0
   -6.2284   16.0144  -31.6717 H   0  0  0  0  0  0  0  0  0  0  0  0
  1  2  1  0
  2  3  1  0
  3  4  1  0
  4  5  1  0
  5  6  1  0
  6  7  1  0
  7  8  1  0
  8  9  1  0
  9 10  2  0
 10 11  1  0
 11 12  2  0
 12 13  1  0
 13 14  2  0
  7 15  1  0
 15 16  1  0
 16 17  2  0
 17 18  1  0
 18 19  2  0
 19 20  1  0
 20 21  1  0
 21  5  1  0
 14  9  1  0
 20 16  1  0
  1 22  1  0
  1 23  1  0
  1 24  1  0
  2 25  1  0
  2 26  1  0
  3 27  1  0
  4 28  1  0
  4 29  1  0
  5 30  1  1
  6 31  1  0
  6 32  1  0
  8 33  1  0
  8 34  1  0
 10 35  1  0
 11 36  1  0
 12 37  1  0
 14 38  1  0
 15 39  1  0
 15 40  1  0
 18 41  1  0
 19 42  1  0
 21 43  1  0
 21 44  1  0
M  END
>  <UniqueID>  (11) 
10

>  <SMILES>  (11) 
CCNC[C@@H]1CN(Cc2cccnc2)Cc2nccn2C1

>  <Energy>  (11) 
81.85392310325558

>  <Genealogy>  (11) 
CCNC[C@@H]1CN(Cc2cccnc2)Cc2nccn2C1 (chirality)
CCNC[C@@H]1CN(Cc2cccnc2)Cc2nccn2C1 (3D coordinates assigned)
CCNC[C@@H]1CN(Cc2cccnc2)Cc2nccn2C1 (nonaromatic ring conformer: 81.85392310325558 kcal/mol)

>  <smiles>  (11) 
CCNCC1CN(Cc2cccnc2)Cc2nccn2C1

>  <score_type>  (11) 
oracle

>  <origin>  (11) 
adg

>  <m_score__min__energy>  (11) 
-5.8499999999999996

>  <m_primary>  (11) 
energy

$$$$
11:0
     RDKit          3D

 45 46  0  0  0  0  0  0  0  0999 V2000
    0.2910   23.8600  -27.8540 C   0  0  0  0  0  0  0  0  0  0  0  0
   -0.6620   24.2690  -28.9740 C   0  0  0  0  0  0  0  0  0  0  0  0
   -1.6900   25.2130  -28.4740 N   0  0  0  0  0  0  0  0  0  0  0  0
   -1.2690   25.7760  -27.1700 C   0  0  0  0  0  0  0  0  0  0  0  0
   -2.3500   25.6050  -26.1020 C   0  0  0  0  0  0  0  0  0  0  0  0
   -3.0280   24.5670  -28.3940 C   0  0  0  0  0  0  0  0  0  0  0  0
   -3.4600   24.0550  -29.7700 C   0  0  0  0  0  0  0  0  0  0  0  0
   -3.8960   25.1310  -30.5810 O   0  0  0  0  0  0  0  0  0  0  0  0
   -5.1950   25.5430  -30.2090 C   0  0  0  0  0  0  0  0  0  0  0  0
   -6.1960   24.4750  -30.6230 C   0  0  0  0  0  0  0  0  0  0  0  0
   -5.8930   24.0290  -31.9430 O   0  0  0  0  0  0  0  0  0  0  0  0
   -5.7770   22.6820  -32.3230 C   0  0  0  0  0  0  0  0  0  0  0  0
   -4.5500   22.1250  -32.7230 C   0  0  0  0  0  0  0  0  0  0  0  0
   -4.4970   20.7780  -33.0910 C   0  0  0  0  0  0  0  0  0  0  0  0
   -3.4040   20.2680  -33.4510 O   0  0  0  0  0  0  0  0  0  0  0  0
   -5.5930   20.0280  -33.0630 O   0  0  0  0  0  0  0  0  0  0  0  0
   -6.7780   20.5040  -32.6930 C   0  0  0  0  0  0  0  0  0  0  0  0
   -7.8940   19.6600  -32.6860 C   0  0  0  0  0  0  0  0  0  0  0  0
   -9.1430   20.1500  -32.2990 C   0  0  0  0  0  0  0  0  0  0  0  0
   -9.2850   21.4870  -31.9170 C   0  0  0  0  0  0  0  0  0  0  0  0
   -8.1770   22.3420  -31.9190 C   0  0  0  0  0  0  0  0  0  0  0  0
   -6.9150   21.8580  -32.3060 C   0  0  0  0  0  0  0  0  0  0  0  0
   -0.1794   24.0619  -26.8803 H   0  0  0  0  0  0  0  0  0  0  0  0
    0.5154   22.7863  -27.9373 H   0  0  0  0  0  0  0  0  0  0  0  0
    1.2238   24.4370  -27.9373 H   0  0  0  0  0  0  0  0  0  0  0  0
   -0.0874   24.7540  -29.7769 H   0  0  0  0  0  0  0  0  0  0  0  0
   -1.1663   23.3681  -29.3535 H   0  0  0  0  0  0  0  0  0  0  0  0
   -0.3557   25.2607  -26.8379 H   0  0  0  0  0  0  0  0  0  0  0  0
   -1.0887   26.8527  -27.3047 H   0  0  0  0  0  0  0  0  0  0  0  0
   -1.8938   25.6772  -25.1037 H   0  0  0  0  0  0  0  0  0  0  0  0
   -3.1072   26.3945  -26.2170 H   0  0  0  0  0  0  0  0  0  0  0  0
   -2.8266   24.6203  -26.2170 H   0  0  0  0  0  0  0  0  0  0  0  0
   -2.9802   23.7215  -27.6919 H   0  0  0  0  0  0  0  0  0  0  0  0
   -3.7608   25.3094  -28.0449 H   0  0  0  0  0  0  0  0  0  0  0  0
   -2.6079   23.5569  -30.2556 H   0  0  0  0  0  0  0  0  0  0  0  0
   -4.2899   23.3443  -29.6426 H   0  0  0  0  0  0  0  0  0  0  0  0
   -5.2380   25.6849  -29.1190 H   0  0  0  0  0  0  0  0  0  0  0  0
   -5.4391   26.4920  -30.7088 H   0  0  0  0  0  0  0  0  0  0  0  0
   -6.1365   23.6261  -29.9260 H   0  0  0  0  0  0  0  0  0  0  0  0
   -7.2123   24.8953  -30.6011 H   0  0  0  0  0  0  0  0  0  0  0  0
   -3.6405   22.7433  -32.7461 H   0  0  0  0  0  0  0  0  0  0  0  0
   -7.7871   18.6072  -32.9863 H   0  0  0  0  0  0  0  0  0  0  0  0
  -10.0171   19.4823  -32.2948 H   0  0  0  0  0  0  0  0  0  0  0  0
  -10.2711   21.8686  -31.6137 H   0  0  0  0  0  0  0  0  0  0  0  0
   -8.2936   23.3934  -31.6176 H   0  0  0  0  0  0  0  0  0  0  0  0
  1  2  1  0
  2  3  1  0
  3  4  1  0
  4  5  1  0
  3  6  1  0
  6  7  1  0
  7  8  1  0
  8  9  1  0
  9 10  1  0
 10 11  1  0
 11 12  1  0
 12 13  2  0
 13 14  1  0
 14 15  2  0
 14 16  1  0
 16 17  1  0
 17 18  2  0
 18 19  1  0
 19 20  2  0
 20 21  1  0
 21 22  2  0
 22 12  1  0
 22 17  1  0
  1 23  1  0
  1 24  1  0
  1 25  1  0
  2 26  1  0
  2 27  1  0
  4 28  1  0
  4 29  1  0
  5 30  1  0
  5 31  1  0
  5 32  1  0
  6 33  1  0
  6 34  1  0
  7 35  1  0
  7 36  1  0
  9 37  1  0
  9 38  1  0
 10 39  1  0
 10 40  1  0
 13 41  1  0
 18 42  1  0
 19 43  1  0
 20 44  1  0
 21 45  1  0
M  END
>  <UniqueID>  (12) 
11

>  <SMILES>  (12) 
CCN(CC)CCOCCOc1cc(=O)oc2ccccc12

>  <Energy>  (12) 
46.144541938535234

>  <Genealogy>  (12) 
CCN(CC)CCOCCOc1cc(=O)oc2ccccc12 (3D coordinates assigned)
CCN(CC)CCOCCOc1cc(=O)oc2ccccc12 (optimized conformer: 46.144541938535234 kcal/mol)

>  <smiles>  (12) 
CCN(CC)CCOCCOc1cc(=O)oc2ccccc12

>  <score_type>  (12) 
oracle

>  <origin>  (12) 
adg

>  <m_score__min__energy>  (12) 
-7.4199999999999999

>  <m_primary>  (12) 
energy

$$$$
12:0
     RDKit          3D

 23 23  0  0  0  0  0  0  0  0999 V2000
   -3.5190   24.1290  -28.6870 C   0  0  0  0  0  0  0  0  0  0  0  0
   -3.6480   24.2760  -30.2000 C   0  0  0  0  0  0  0  0  0  0  0  0
   -4.2740   25.5610  -30.5410 N   0  0  0  0  0  0  0  0  0  0  0  0
   -5.6920   25.5850  -30.1630 C   0  0  0  0  0  0  0  0  0  0  0  0
   -6.3630   24.3260  -30.6360 C   0  0  0  0  0  0  0  0  0  0  0  0
   -6.2400   23.9200  -31.9750 C   0  0  0  0  0  0  0  0  0  0  0  0
   -6.8330   22.7300  -32.4070 C   0  0  0  0  0  0  0  0  0  0  0  0
   -7.5430   21.9330  -31.5050 C   0  0  0  0  0  0  0  0  0  0  0  0
   -7.6570   22.3230  -30.1670 C   0  0  0  0  0  0  0  0  0  0  0  0
   -7.0640   23.5110  -29.7300 C   0  0  0  0  0  0  0  0  0  0  0  0
   -4.1664   24.8667  -28.1904 H   0  0  0  0  0  0  0  0  0  0  0  0
   -3.8239   23.1147  -28.3898 H   0  0  0  0  0  0  0  0  0  0  0  0
   -2.4737   24.2995  -28.3898 H   0  0  0  0  0  0  0  0  0  0  0  0
   -2.6476   24.2288  -30.6548 H   0  0  0  0  0  0  0  0  0  0  0  0
   -4.2782   23.4604  -30.5841 H   0  0  0  0  0  0  0  0  0  0  0  0
   -4.2240   25.6730  -31.5820 H   0  0  0  0  0  0  0  0  0  0  0  0
   -5.7777   25.6562  -29.0687 H   0  0  0  0  0  0  0  0  0  0  0  0
   -6.1788   26.4546  -30.6286 H   0  0  0  0  0  0  0  0  0  0  0  0
   -5.6751   24.5406  -32.6862 H   0  0  0  0  0  0  0  0  0  0  0  0
   -6.7406   22.4205  -33.4585 H   0  0  0  0  0  0  0  0  0  0  0  0
   -8.0122   20.9989  -31.8475 H   0  0  0  0  0  0  0  0  0  0  0  0
   -8.2142   21.6939  -29.4572 H   0  0  0  0  0  0  0  0  0  0  0  0
   -7.1461   23.8090  -28.6743 H   0  0  0  0  0  0  0  0  0  0  0  0
  1  2  1  0
  2  3  1  0
  3  4  1  0
  4  5  1  0
  5  6  2  0
  6  7  1  0
  7  8  2  0
  8  9  1  0
  9 10  2  0
 10  5  1  0
  1 11  1  0
  1 12  1  0
  1 13  1  0
  2 14  1  0
  2 15  1  0
  3 16  1  0
  4 17  1  0
  4 18  1  0
  6 19  1  0
  7 20  1  0
  8 21  1  0
  9 22  1  0
 10 23  1  0
M  END
>  <UniqueID>  (13) 
12

>  <SMILES>  (13) 
CCNCc1ccccc1

>  <Energy>  (13) 
17.401963289595436

>  <Genealogy>  (13) 
CCNCc1ccccc1 (3D coordinates assigned)
CCNCc1ccccc1 (optimized conformer: 17.401963289595436 kcal/mol)

>  <smiles>  (13) 
CCNCc1ccccc1

>  <score_type>  (13) 
oracle

>  <origin>  (13) 
adg

>  <m_score__min__energy>  (13) 
-5.1399999999999997

>  <m_primary>  (13) 
energy

$$$$
13:0
     RDKit          3D

 49 51  0  0  0  0  0  0  0  0999 V2000
   -3.3590   23.7920  -27.5950 C   0  0  0  0  0  0  0  0  0  0  0  0
   -2.2140   23.2760  -28.4650 C   0  0  0  0  0  0  0  0  0  0  0  0
   -2.6560   23.0830  -29.8570 N   0  0  0  0  0  0  0  0  0  0  0  0
   -2.3040   21.7370  -30.3640 C   0  0  0  0  0  0  0  0  0  0  0  0
   -1.8760   21.7460  -31.8460 C   0  0  0  0  0  0  0  0  0  0  0  0
   -2.4950   20.6170  -32.6810 C   0  0  0  0  0  0  0  0  0  0  0  0
   -3.6340   21.0990  -33.4620 N   0  0  0  0  0  0  0  0  0  0  0  0
   -4.9860   20.8700  -33.0270 C   0  0  0  0  0  0  0  0  0  0  0  0
   -5.6070   19.6300  -33.2610 C   0  0  0  0  0  0  0  0  0  0  0  0
   -4.9020   18.5690  -33.8690 C   0  0  0  0  0  0  0  0  0  0  0  0
   -5.5060   17.3290  -34.0590 C   0  0  0  0  0  0  0  0  0  0  0  0
   -6.8150   17.1210  -33.6400 C   0  0  0  0  0  0  0  0  0  0  0  0
   -7.5380   18.1600  -33.0540 C   0  0  0  0  0  0  0  0  0  0  0  0
   -6.9640   19.4460  -32.8850 C   0  0  0  0  0  0  0  0  0  0  0  0
   -7.6870   20.5010  -32.3600 N   0  0  0  0  0  0  0  0  0  0  0  0
   -9.1600   20.4060  -32.2480 C   0  0  0  0  0  0  0  0  0  0  0  0
   -7.0360   21.6520  -31.9570 C   0  0  0  0  0  0  0  0  0  0  0  0
   -7.6820   22.6360  -31.1680 C   0  0  0  0  0  0  0  0  0  0  0  0
   -7.0260   23.8070  -30.7920 C   0  0  0  0  0  0  0  0  0  0  0  0
   -5.6970   24.0340  -31.1690 C   0  0  0  0  0  0  0  0  0  0  0  0
   -5.0200   25.2420  -30.7770 N   0  0  0  0  0  0  0  0  0  0  0  0
   -3.7730   25.2800  -30.7090 O   0  0  0  0  0  0  0  0  0  0  0  0
   -5.7330   26.3750  -30.4580 O   0  0  0  0  0  0  0  0  0  0  0  0
   -5.0290   23.0550  -31.9170 C   0  0  0  0  0  0  0  0  0  0  0  0
   -5.6790   21.8650  -32.3120 C   0  0  0  0  0  0  0  0  0  0  0  0
   -3.0954   23.6732  -26.5337 H   0  0  0  0  0  0  0  0  0  0  0  0
   -3.5340   24.8560  -27.8125 H   0  0  0  0  0  0  0  0  0  0  0  0
   -4.2720   23.2183  -27.8125 H   0  0  0  0  0  0  0  0  0  0  0  0
   -1.3909   24.0055  -28.4465 H   0  0  0  0  0  0  0  0  0  0  0  0
   -1.8787   22.3075  -28.0657 H   0  0  0  0  0  0  0  0  0  0  0  0
   -2.1760   23.8000  -30.4530 H   0  0  0  0  0  0  0  0  0  0  0  0
   -3.6850   23.2580  -29.9280 H   0  0  0  0  0  0  0  0  0  0  0  0
   -1.4733   21.3412  -29.7613 H   0  0  0  0  0  0  0  0  0  0  0  0
   -3.2035   21.1089  -30.2843 H   0  0  0  0  0  0  0  0  0  0  0  0
   -2.1771   22.7076  -32.2872 H   0  0  0  0  0  0  0  0  0  0  0  0
   -0.7866   21.5946  -31.8637 H   0  0  0  0  0  0  0  0  0  0  0  0
   -1.7327   20.2188  -33.3668 H   0  0  0  0  0  0  0  0  0  0  0  0
   -2.8495   19.8322  -31.9966 H   0  0  0  0  0  0  0  0  0  0  0  0
   -3.4640   21.7570  -34.2550 H   0  0  0  0  0  0  0  0  0  0  0  0
   -3.8633   18.7236  -34.1965 H   0  0  0  0  0  0  0  0  0  0  0  0
   -4.9470   16.5134  -34.5410 H   0  0  0  0  0  0  0  0  0  0  0  0
   -7.2822   16.1338  -33.7710 H   0  0  0  0  0  0  0  0  0  0  0  0
   -8.5696   17.9792  -32.7176 H   0  0  0  0  0  0  0  0  0  0  0  0
   -9.4466   20.3875  -31.1861 H   0  0  0  0  0  0  0  0  0  0  0  0
   -9.6218   21.2762  -32.7373 H   0  0  0  0  0  0  0  0  0  0  0  0
   -9.5062   19.4837  -32.7373 H   0  0  0  0  0  0  0  0  0  0  0  0
   -8.7211   22.4726  -30.8461 H   0  0  0  0  0  0  0  0  0  0  0  0
   -7.5581   24.5606  -30.1928 H   0  0  0  0  0  0  0  0  0  0  0  0
   -3.9788   23.2165  -32.2018 H   0  0  0  0  0  0  0  0  0  0  0  0
  1  2  1  0
  2  3  1  0
  3  4  1  0
  4  5  1  0
  5  6  1  0
  6  7  1  0
  7  8  1  0
  8  9  2  0
  9 10  1  0
 10 11  2  0
 11 12  1  0
 12 13  2  0
 13 14  1  0
 14 15  2  0
 15 16  1  0
 15 17  1  0
 17 18  2  0
 18 19  1  0
 19 20  2  0
 20 21  1  0
 21 22  2  0
 21 23  1  0
 20 24  1  0
 24 25  2  0
 25  8  1  0
 14  9  1  0
 25 17  1  0
  1 26  1  0
  1 27  1  0
  1 28  1  0
  2 29  1  0
  2 30  1  0
  3 31  1  0
  3 32  1  0
  4 33  1  0
  4 34  1  0
  5 35  1  0
  5 36  1  0
  6 37  1  0
  6 38  1  0
  7 39  1  0
 10 40  1  0
 11 41  1  0
 12 42  1  0
 13 43  1  0
 16 44  1  0
 16 45  1  0
 16 46  1  0
 18 47  1  0
 19 48  1  0
 24 49  1  0
M  CHG  4   3   1  15   1  21   1  23  -1
M  END
>  <UniqueID>  (14) 
13

>  <SMILES>  (14) 
CC[NH2+]CCCNc1c2ccccc2[n+](C)c2ccc([N+](=O)[O-])cc12

>  <Energy>  (14) 
74.39749882410126

>  <Genealogy>  (14) 
CC[NH2+]CCCNc1c2ccccc2[n+](C)c2ccc([N+](=O)[O-])cc12 (protonated)
CC[NH2+]CCCNc1c2ccccc2[n+](C)c2ccc([N+](=O)[O-])cc12 (3D coordinates assigned)
CC[NH2+]CCCNc1c2ccccc2[n+](C)c2ccc([N+](=O)[O-])cc12 (optimized conformer: 74.39749882410126 kcal/mol)

>  <smiles>  (14) 
CCNCCCNc1c2ccccc2[n+](C)c2ccc([N+](=O)[O-])cc12

>  <score_type>  (14) 
oracle

>  <origin>  (14) 
adg

>  <m_score__min__energy>  (14) 
-8.8699999999999992

>  <m_primary>  (14) 
energy

$$$$
14:0
     RDKit          3D

 38 38  0  0  0  0  0  0  0  0999 V2000
   -6.4520   24.9770  -29.7650 C   0  0  0  0  0  0  0  0  0  0  0  0
   -6.7250   23.5000  -30.0390 C   0  0  0  0  0  0  0  0  0  0  0  0
   -6.8370   23.2590  -31.4960 N   0  0  0  0  0  0  0  0  0  0  0  0
   -8.2380   23.4040  -31.9540 C   0  0  0  0  0  0  0  0  0  0  0  0
   -9.0220   22.1250  -31.6730 C   0  0  0  0  0  0  0  0  0  0  0  0
   -6.2690   21.9430  -31.8800 C   0  0  0  0  0  0  0  0  0  0  0  0
   -4.9290   22.1350  -32.5950 C   0  0  0  0  0  0  0  0  0  0  0  0
   -4.0630   23.0650  -31.8470 N   0  0  0  0  0  0  0  0  0  0  0  0
   -2.9130   22.3910  -31.2260 C   0  0  0  0  0  0  0  0  0  0  0  0
   -2.5650   23.0300  -29.9040 C   0  0  0  0  0  0  0  0  0  0  0  0
   -1.9000   22.2660  -28.9290 C   0  0  0  0  0  0  0  0  0  0  0  0
   -1.5390   22.8330  -27.7060 C   0  0  0  0  0  0  0  0  0  0  0  0
   -1.8350   24.1720  -27.4400 C   0  0  0  0  0  0  0  0  0  0  0  0
   -1.3370   24.9460  -25.7660 Br  0  0  0  0  0  0  0  0  0  0  0  0
   -2.4920   24.9440  -28.4000 C   0  0  0  0  0  0  0  0  0  0  0  0
   -2.8560   24.3900  -29.6320 C   0  0  0  0  0  0  0  0  0  0  0  0
   -3.4970   25.2140  -30.5610 O   0  0  0  0  0  0  0  0  0  0  0  0
   -6.4203   25.1487  -28.6789 H   0  0  0  0  0  0  0  0  0  0  0  0
   -5.4863   25.2600  -30.2093 H   0  0  0  0  0  0  0  0  0  0  0  0
   -7.2527   25.5865  -30.2093 H   0  0  0  0  0  0  0  0  0  0  0  0
   -5.8988   22.8972  -29.6341 H   0  0  0  0  0  0  0  0  0  0  0  0
   -7.6714   23.2157  -29.5558 H   0  0  0  0  0  0  0  0  0  0  0  0
   -8.7091   24.2430  -31.4209 H   0  0  0  0  0  0  0  0  0  0  0  0
   -8.2424   23.5958  -33.0371 H   0  0  0  0  0  0  0  0  0  0  0  0
   -9.1106   21.9805  -30.5861 H   0  0  0  0  0  0  0  0  0  0  0  0
  -10.0260   22.2057  -32.1152 H   0  0  0  0  0  0  0  0  0  0  0  0
   -8.4945   21.2670  -32.1152 H   0  0  0  0  0  0  0  0  0  0  0  0
   -6.1149   21.3358  -30.9758 H   0  0  0  0  0  0  0  0  0  0  0  0
   -6.9689   21.4338  -32.5589 H   0  0  0  0  0  0  0  0  0  0  0  0
   -4.4235   21.1618  -32.6805 H   0  0  0  0  0  0  0  0  0  0  0  0
   -5.1199   22.5572  -33.5926 H   0  0  0  0  0  0  0  0  0  0  0  0
   -4.6300   23.4880  -31.0740 H   0  0  0  0  0  0  0  0  0  0  0  0
   -3.1622   21.3325  -31.0601 H   0  0  0  0  0  0  0  0  0  0  0  0
   -2.0473   22.4805  -31.8988 H   0  0  0  0  0  0  0  0  0  0  0  0
   -1.6620   21.2114  -29.1320 H   0  0  0  0  0  0  0  0  0  0  0  0
   -1.0206   22.2246  -26.9503 H   0  0  0  0  0  0  0  0  0  0  0  0
   -2.7255   25.9974  -28.1857 H   0  0  0  0  0  0  0  0  0  0  0  0
   -3.4030   25.1020  -31.5620 H   0  0  0  0  0  0  0  0  0  0  0  0
  1  2  1  0
  2  3  1  0
  3  4  1  0
  4  5  1  0
  3  6  1  0
  6  7  1  0
  7  8  1  0
  8  9  1  0
  9 10  1  0
 10 11  2  0
 11 12  1  0
 12 13  2  0
 13 14  1  0
 13 15  1  0
 15 16  2  0
 16 17  1  0
 16 10  1  0
  1 18  1  0
  1 19  1  0
  1 20  1  0
  2 21  1  0
  2 22  1  0
  4 23  1  0
  4 24  1  0
  5 25  1  0
  5 26  1  0
  5 27  1  0
  6 28  1  0
  6 29  1  0
  7 30  1  0
  7 31  1  0
  8 32  1  0
  9 33  1  0
  9 34  1  0
 11 35  1  0
 12 36  1  0
 15 37  1  0
 17 38  1  0
M  END
>  <UniqueID>  (15) 
14

>  <SMILES>  (15) 
CCN(CC)CCNCc1ccc(Br)cc1O

>  <Energy>  (15) 
33.86406915264815

>  <Genealogy>  (15) 
CCN(CC)CCNCc1ccc(Br)cc1O (3D coordinates assigned)
CCN(CC)CCNCc1ccc(Br)cc1O (optimized conformer: 33.86406915264815 kcal/mol)

>  <smiles>  (15) 
CCN(CC)CCNCc1ccc(Br)cc1O

>  <score_type>  (15) 
oracle

>  <origin>  (15) 
adg

>  <m_score__min__energy>  (15) 
-7.21

>  <m_primary>  (15) 
energy

$$$$
15:0
     RDKit          3D

 46 48  0  0  0  0  0  0  0  0999 V2000
   -6.0860   17.0270  -31.1060 C   0  0  0  0  0  0  0  0  0  0  0  0
   -5.7710   18.5200  -31.1860 C   0  0  0  0  0  0  0  0  0  0  0  0
   -6.3150   19.1230  -32.4100 N   0  0  0  0  0  0  0  0  0  0  0  0
   -7.4470   19.8520  -32.5530 C   0  0  0  0  0  0  0  0  0  0  0  0
   -8.5820   20.2840  -31.2260 S   0  0  0  0  0  0  0  0  0  0  0  0
   -8.4880   22.0920  -31.4960 C   0  0  0  0  0  0  0  0  0  0  0  0
   -7.1400   22.5340  -32.0910 C   0  0  0  0  0  0  0  0  0  0  0  0
   -6.1670   22.9280  -31.0460 N   0  0  0  0  0  0  0  0  0  0  0  0
   -6.5260   24.2370  -30.4410 C   0  0  0  0  0  0  0  0  0  0  0  0
   -5.7050   25.3940  -31.0300 C   0  0  0  0  0  0  0  0  0  0  0  0
   -4.2600   25.2100  -30.8010 N   0  0  0  0  0  0  0  0  0  0  0  0
   -3.8450   23.7970  -30.7310 C   0  0  0  0  0  0  0  0  0  0  0  0
   -4.7710   22.8850  -31.5480 C   0  0  0  0  0  0  0  0  0  0  0  0
   -7.6800   20.1680  -33.8430 N   0  0  0  0  0  0  0  0  0  0  0  0
   -6.6830   19.6440  -34.5370 N   0  0  0  0  0  0  0  0  0  0  0  0
   -5.8700   19.0020  -33.6800 C   0  0  0  0  0  0  0  0  0  0  0  0
   -4.6820   18.2420  -34.1050 C   0  0  0  0  0  0  0  0  0  0  0  0
   -4.8550   16.9740  -34.6770 C   0  0  0  0  0  0  0  0  0  0  0  0
   -3.7470   16.2370  -35.1040 C   0  0  0  0  0  0  0  0  0  0  0  0
   -2.4610   16.7580  -34.9510 C   0  0  0  0  0  0  0  0  0  0  0  0
   -2.2780   18.0120  -34.3650 C   0  0  0  0  0  0  0  0  0  0  0  0
   -3.3820   18.7580  -33.9360 C   0  0  0  0  0  0  0  0  0  0  0  0
   -3.1020   20.3060  -33.1450 Cl  0  0  0  0  0  0  0  0  0  0  0  0
   -6.1504   16.7219  -30.0511 H   0  0  0  0  0  0  0  0  0  0  0  0
   -7.0460   16.8276  -31.6046 H   0  0  0  0  0  0  0  0  0  0  0  0
   -5.2884   16.4567  -31.6046 H   0  0  0  0  0  0  0  0  0  0  0  0
   -6.2111   19.0249  -30.3134 H   0  0  0  0  0  0  0  0  0  0  0  0
   -4.6777   18.6405  -31.1999 H   0  0  0  0  0  0  0  0  0  0  0  0
   -9.2914   22.3869  -32.1871 H   0  0  0  0  0  0  0  0  0  0  0  0
   -8.5948   22.5803  -30.5161 H   0  0  0  0  0  0  0  0  0  0  0  0
   -6.7184   21.6995  -32.6705 H   0  0  0  0  0  0  0  0  0  0  0  0
   -7.3245   23.4120  -32.7275 H   0  0  0  0  0  0  0  0  0  0  0  0
   -7.5932   24.4309  -30.6241 H   0  0  0  0  0  0  0  0  0  0  0  0
   -6.3076   24.1823  -29.3643 H   0  0  0  0  0  0  0  0  0  0  0  0
   -5.8903   25.4473  -32.1130 H   0  0  0  0  0  0  0  0  0  0  0  0
   -6.0155   26.3236  -30.5305 H   0  0  0  0  0  0  0  0  0  0  0  0
   -3.7480   25.6690  -31.5900 H   0  0  0  0  0  0  0  0  0  0  0  0
   -2.8214   23.7075  -31.1238 H   0  0  0  0  0  0  0  0  0  0  0  0
   -3.8965   23.4793  -29.6792 H   0  0  0  0  0  0  0  0  0  0  0  0
   -4.7594   23.2137  -32.5977 H   0  0  0  0  0  0  0  0  0  0  0  0
   -4.4047   21.8520  -31.4541 H   0  0  0  0  0  0  0  0  0  0  0  0
   -6.5830   19.7060  -35.5740 H   0  0  0  0  0  0  0  0  0  0  0  0
   -5.8668   16.5574  -34.7902 H   0  0  0  0  0  0  0  0  0  0  0  0
   -3.8883   15.2463  -35.5607 H   0  0  0  0  0  0  0  0  0  0  0  0
   -1.5901   16.1795  -35.2928 H   0  0  0  0  0  0  0  0  0  0  0  0
   -1.2623   18.4153  -34.2400 H   0  0  0  0  0  0  0  0  0  0  0  0
  1  2  1  0
  2  3  1  0
  3  4  1  0
  4  5  1  0
  5  6  1  0
  6  7  1  0
  7  8  1  0
  8  9  1  0
  9 10  1  0
 10 11  1  0
 11 12  1  0
 12 13  1  0
  4 14  2  0
 14 15  1  0
 15 16  2  0
 16 17  1  0
 17 18  2  0
 18 19  1  0
 19 20  2  0
 20 21  1  0
 21 22  2  0
 22 23  1  0
 16  3  1  0
 22 17  1  0
 13  8  1  0
  1 24  1  0
  1 25  1  0
  1 26  1  0
  2 27  1  0
  2 28  1  0
  6 29  1  0
  6 30  1  0
  7 31  1  0
  7 32  1  0
  9 33  1  0
  9 34  1  0
 10 35  1  0
 10 36  1  0
 11 37  1  0
 12 38  1  0
 12 39  1  0
 13 40  1  0
 13 41  1  0
 15 42  1  0
 18 43  1  0
 19 44  1  0
 20 45  1  0
 21 46  1  0
M  CHG  1  15   1
M  END
>  <UniqueID>  (16) 
15

>  <SMILES>  (16) 
CCn1c(SCCN2CCNCC2)n[nH+]c1-c1ccccc1Cl

>  <Energy>  (16) 
95.01390950412906

>  <Genealogy>  (16) 
CCn1c(SCCN2CCNCC2)n[nH+]c1-c1ccccc1Cl (protonated)
CCn1c(SCCN2CCNCC2)n[nH+]c1-c1ccccc1Cl (3D coordinates assigned)
CCn1c(SCCN2CCNCC2)n[nH+]c1-c1ccccc1Cl (nonaromatic ring conformer: 95.01390950412906 kcal/mol)

>  <smiles>  (16) 
CCn1c(SCCN2CCNCC2)nnc1-c1ccccc1Cl

>  <score_type>  (16) 
oracle

>  <origin>  (16) 
adg

>  <m_score__min__energy>  (16) 
-8.5

>  <m_primary>  (16) 
energy

$$$$
16:0
     RDKit          3D

 35 36  0  0  0  0  0  0  0  0999 V2000
   -1.6870   25.1710  -28.1510 C   0  0  0  0  0  0  0  0  0  0  0  0
   -2.4870   24.3140  -29.1260 C   0  0  0  0  0  0  0  0  0  0  0  0
   -3.8960   24.2150  -28.7000 N   0  0  0  0  0  0  0  0  0  0  0  0
   -4.2210   22.9320  -28.0430 C   0  0  0  0  0  0  0  0  0  0  0  0
   -3.1560   21.8460  -28.2300 C   0  0  0  0  0  0  0  0  0  0  0  0
   -5.0460   24.6650  -29.9520 S   0  0  0  0  0  0  0  0  0  0  0  0
   -6.0050   25.6890  -29.4110 O   0  0  0  0  0  0  0  0  0  0  0  0
   -4.2980   25.3060  -31.0870 O   0  0  0  0  0  0  0  0  0  0  0  0
   -5.9720   23.3040  -30.6030 C   0  0  0  0  0  0  0  0  0  0  0  0
   -7.2450   23.0010  -30.0960 C   0  0  0  0  0  0  0  0  0  0  0  0
   -7.9850   21.9390  -30.6280 C   0  0  0  0  0  0  0  0  0  0  0  0
   -7.4630   21.1790  -31.6780 C   0  0  0  0  0  0  0  0  0  0  0  0
   -6.2080   21.4980  -32.2160 C   0  0  0  0  0  0  0  0  0  0  0  0
   -5.4710   22.5650  -31.6870 C   0  0  0  0  0  0  0  0  0  0  0  0
   -5.7200   20.7550  -33.3380 N   0  0  0  0  0  0  0  0  0  0  0  0
   -6.4630   19.6370  -33.8330 C   0  0  0  0  0  0  0  0  0  0  0  0
   -6.0960   19.0540  -34.8860 O   0  0  0  0  0  0  0  0  0  0  0  0
   -7.6320   19.1100  -33.0490 C   0  0  0  0  0  0  0  0  0  0  0  0
   -8.2050   20.1200  -32.2130 O   0  0  0  0  0  0  0  0  0  0  0  0
   -1.9471   24.8923  -27.1192 H   0  0  0  0  0  0  0  0  0  0  0  0
   -0.6118   25.0066  -28.3152 H   0  0  0  0  0  0  0  0  0  0  0  0
   -1.9249   26.2323  -28.3152 H   0  0  0  0  0  0  0  0  0  0  0  0
   -2.4436   24.7694  -30.1264 H   0  0  0  0  0  0  0  0  0  0  0  0
   -2.0525   23.3037  -29.1468 H   0  0  0  0  0  0  0  0  0  0  0  0
   -4.3408   23.1164  -26.9652 H   0  0  0  0  0  0  0  0  0  0  0  0
   -5.1416   22.5582  -28.5149 H   0  0  0  0  0  0  0  0  0  0  0  0
   -2.8126   21.4958  -27.2454 H   0  0  0  0  0  0  0  0  0  0  0  0
   -3.5867   21.0025  -28.7894 H   0  0  0  0  0  0  0  0  0  0  0  0
   -2.3042   22.2602  -28.7894 H   0  0  0  0  0  0  0  0  0  0  0  0
   -7.6638   23.6020  -29.2753 H   0  0  0  0  0  0  0  0  0  0  0  0
   -8.9784   21.7023  -30.2192 H   0  0  0  0  0  0  0  0  0  0  0  0
   -4.4951   22.8254  -32.1227 H   0  0  0  0  0  0  0  0  0  0  0  0
   -4.8350   21.0400  -33.8160 H   0  0  0  0  0  0  0  0  0  0  0  0
   -8.3990   18.7501  -33.7506 H   0  0  0  0  0  0  0  0  0  0  0  0
   -7.2738   18.2934  -32.4050 H   0  0  0  0  0  0  0  0  0  0  0  0
  1  2  1  0
  2  3  1  0
  3  4  1  0
  4  5  1  0
  3  6  1  0
  6  7  2  0
  6  8  2  0
  6  9  1  0
  9 10  2  0
 10 11  1  0
 11 12  2  0
 12 13  1  0
 13 14  2  0
 13 15  1  0
 15 16  1  0
 16 17  2  0
 16 18  1  0
 18 19  1  0
 14  9  1  0
 19 12  1  0
  1 20  1  0
  1 21  1  0
  1 22  1  0
  2 23  1  0
  2 24  1  0
  4 25  1  0
  4 26  1  0
  5 27  1  0
  5 28  1  0
  5 29  1  0
 10 30  1  0
 11 31  1  0
 14 32  1  0
 15 33  1  0
 18 34  1  0
 18 35  1  0
M  END
>  <UniqueID>  (17) 
16

>  <SMILES>  (17) 
CCN(CC)S(=O)(=O)c1ccc2c(c1)NC(=O)CO2

>  <Energy>  (17) 
36.72123462167225

>  <Genealogy>  (17) 
CCN(CC)S(=O)(=O)c1ccc2c(c1)NC(=O)CO2 (3D coordinates assigned)
CCN(CC)S(=O)(=O)c1ccc2c(c1)NC(=O)CO2 (nonaromatic ring conformer: 36.72123462167225 kcal/mol)

>  <smiles>  (17) 
CCN(CC)S(=O)(=O)c1ccc2c(c1)NC(=O)CO2

>  <score_type>  (17) 
oracle

>  <origin>  (17) 
adg

>  <m_score__min__energy>  (17) 
-7.0899999999999999

>  <m_primary>  (17) 
energy

$$$$
17:0
     RDKit          3D

 45 47  0  0  0  0  0  0  0  0999 V2000
   -6.3630   25.6640  -29.5860 C   0  0  0  0  0  0  0  0  0  0  0  0
   -5.3320   25.8180  -30.7080 C   0  0  0  0  0  0  0  0  0  0  0  0
   -4.4480   24.6480  -30.8290 N   0  0  0  0  0  0  0  0  0  0  0  0
   -4.2020   24.0000  -29.5340 C   0  0  0  0  0  0  0  0  0  0  0  0
   -3.5310   22.6430  -29.7550 C   0  0  0  0  0  0  0  0  0  0  0  0
   -2.9440   22.5360  -31.1650 C   0  0  0  0  0  0  0  0  0  0  0  0
   -3.9710   22.6510  -32.1500 O   0  0  0  0  0  0  0  0  0  0  0  0
   -4.8320   21.5900  -32.4640 C   0  0  0  0  0  0  0  0  0  0  0  0
   -4.3230   20.4530  -33.1140 C   0  0  0  0  0  0  0  0  0  0  0  0
   -2.9500   20.3240  -33.3990 C   0  0  0  0  0  0  0  0  0  0  0  0
   -2.4710   19.1950  -34.0650 C   0  0  0  0  0  0  0  0  0  0  0  0
   -3.3510   18.1820  -34.4510 C   0  0  0  0  0  0  0  0  0  0  0  0
   -4.7130   18.2920  -34.1680 C   0  0  0  0  0  0  0  0  0  0  0  0
   -5.2110   19.4220  -33.4970 C   0  0  0  0  0  0  0  0  0  0  0  0
   -6.5410   19.5240  -33.2180 N   0  0  0  0  0  0  0  0  0  0  0  0
   -7.0620   20.5930  -32.5410 C   0  0  0  0  0  0  0  0  0  0  0  0
   -8.4470   20.6620  -32.2270 C   0  0  0  0  0  0  0  0  0  0  0  0
   -9.4130   19.5840  -32.6480 C   0  0  0  0  0  0  0  0  0  0  0  0
   -8.9360   21.7580  -31.4980 C   0  0  0  0  0  0  0  0  0  0  0  0
   -8.0790   22.7700  -31.0740 C   0  0  0  0  0  0  0  0  0  0  0  0
   -6.7220   22.7170  -31.3830 C   0  0  0  0  0  0  0  0  0  0  0  0
   -6.2020   21.6470  -32.1330 C   0  0  0  0  0  0  0  0  0  0  0  0
   -5.8584   25.7394  -28.6115 H   0  0  0  0  0  0  0  0  0  0  0  0
   -7.1182   26.4593  -29.6703 H   0  0  0  0  0  0  0  0  0  0  0  0
   -6.8529   24.6827  -29.6703 H   0  0  0  0  0  0  0  0  0  0  0  0
   -5.8654   25.9564  -31.6600 H   0  0  0  0  0  0  0  0  0  0  0  0
   -4.7029   26.6871  -30.4652 H   0  0  0  0  0  0  0  0  0  0  0  0
   -3.5310   24.9470  -31.2410 H   0  0  0  0  0  0  0  0  0  0  0  0
   -3.5446   24.6380  -28.9250 H   0  0  0  0  0  0  0  0  0  0  0  0
   -5.1595   23.8521  -29.0132 H   0  0  0  0  0  0  0  0  0  0  0  0
   -2.7222   22.5192  -29.0198 H   0  0  0  0  0  0  0  0  0  0  0  0
   -4.2903   21.8563  -29.6343 H   0  0  0  0  0  0  0  0  0  0  0  0
   -2.2103   23.3422  -31.3127 H   0  0  0  0  0  0  0  0  0  0  0  0
   -2.4597   21.5542  -31.2725 H   0  0  0  0  0  0  0  0  0  0  0  0
   -2.2513   21.1174  -33.0951 H   0  0  0  0  0  0  0  0  0  0  0  0
   -1.3975   19.1029  -34.2864 H   0  0  0  0  0  0  0  0  0  0  0  0
   -2.9699   17.2956  -34.9792 H   0  0  0  0  0  0  0  0  0  0  0  0
   -5.4010   17.4894  -34.4720 H   0  0  0  0  0  0  0  0  0  0  0  0
   -7.1630   18.7410  -33.5230 H   0  0  0  0  0  0  0  0  0  0  0  0
   -9.8412   19.1061  -31.7546 H   0  0  0  0  0  0  0  0  0  0  0  0
  -10.2202   20.0290  -33.2483 H   0  0  0  0  0  0  0  0  0  0  0  0
   -8.8824   18.8303  -33.2483 H   0  0  0  0  0  0  0  0  0  0  0  0
  -10.0081   21.8177  -31.2593 H   0  0  0  0  0  0  0  0  0  0  0  0
   -8.4755   23.6153  -30.4923 H   0  0  0  0  0  0  0  0  0  0  0  0
   -6.0519   23.5181  -31.0378 H   0  0  0  0  0  0  0  0  0  0  0  0
  1  2  1  0
  2  3  1  0
  3  4  1  0
  4  5  1  0
  5  6  1  0
  6  7  1  0
  7  8  1  0
  8  9  2  0
  9 10  1  0
 10 11  2  0
 11 12  1  0
 12 13  2  0
 13 14  1  0
 14 15  2  0
 15 16  1  0
 16 17  2  0
 17 18  1  0
 17 19  1  0
 19 20  2  0
 20 21  1  0
 21 22  2  0
 22  8  1  0
 14  9  1  0
 22 16  1  0
  1 23  1  0
  1 24  1  0
  1 25  1  0
  2 26  1  0
  2 27  1  0
  3 28  1  0
  4 29  1  0
  4 30  1  0
  5 31  1  0
  5 32  1  0
  6 33  1  0
  6 34  1  0
 10 35  1  0
 11 36  1  0
 12 37  1  0
 13 38  1  0
 15 39  1  0
 18 40  1  0
 18 41  1  0
 18 42  1  0
 19 43  1  0
 20 44  1  0
 21 45  1  0
M  CHG  1  15   1
M  END
>  <UniqueID>  (18) 
17

>  <SMILES>  (18) 
CCNCCCOc1c2ccccc2[nH+]c2c(C)cccc12

>  <Energy>  (18) 
55.888191486145786

>  <Genealogy>  (18) 
CCNCCCOc1c2ccccc2[nH+]c2c(C)cccc12 (protonated)
CCNCCCOc1c2ccccc2[nH+]c2c(C)cccc12 (3D coordinates assigned)
CCNCCCOc1c2ccccc2[nH+]c2c(C)cccc12 (optimized conformer: 55.888191486145786 kcal/mol)

>  <smiles>  (18) 
CCNCCCOc1c2ccccc2nc2c(C)cccc12

>  <score_type>  (18) 
oracle

>  <origin>  (18) 
adg

>  <m_score__min__energy>  (18) 
-8.3800000000000008

>  <m_primary>  (18) 
energy

$$$$
18:0
     RDKit          3D

 60 62  0  0  0  0  0  0  0  0999 V2000
   -1.7160   25.4910  -26.6500 C   0  0  0  0  0  0  0  0  0  0  0  0
   -0.8290   25.8630  -27.8360 C   0  0  0  0  0  0  0  0  0  0  0  0
   -0.0370   24.6950  -28.2760 N   0  0  0  0  0  0  0  0  0  0  0  0
    1.1960   24.5890  -27.4770 C   0  0  0  0  0  0  0  0  0  0  0  0
   -0.8250   23.4440  -28.1920 C   0  0  0  0  0  0  0  0  0  0  0  0
   -1.2540   22.9510  -29.5830 C   0  0  0  0  0  0  0  0  0  0  0  0
   -2.7760   22.9970  -29.8110 C   0  0  0  0  0  0  0  0  0  0  0  0
   -3.3820   24.3810  -29.5410 C   0  0  0  0  0  0  0  0  0  0  0  0
   -3.8820   24.9510  -30.7950 N   0  0  0  0  0  0  0  0  0  0  0  0
   -5.3460   24.8820  -30.8600 C   0  0  0  0  0  0  0  0  0  0  0  0
   -5.8030   23.4220  -30.9510 C   0  0  0  0  0  0  0  0  0  0  0  0
   -5.8100   22.9450  -32.3380 N   0  0  0  0  0  0  0  0  0  0  0  0
   -5.7440   21.5460  -32.6710 C   0  0  0  0  0  0  0  0  0  0  0  0
   -6.8750   20.7250  -32.5230 C   0  0  0  0  0  0  0  0  0  0  0  0
   -8.1310   21.2770  -32.1900 C   0  0  0  0  0  0  0  0  0  0  0  0
   -9.2320   20.4560  -31.9630 C   0  0  0  0  0  0  0  0  0  0  0  0
   -9.1020   19.0770  -32.0620 C   0  0  0  0  0  0  0  0  0  0  0  0
   -7.8830   18.5120  -32.4350 C   0  0  0  0  0  0  0  0  0  0  0  0
   -6.7570   19.3230  -32.7250 C   0  0  0  0  0  0  0  0  0  0  0  0
   -5.5660   18.7850  -33.1800 N   0  0  0  0  0  0  0  0  0  0  0  0
   -5.5220   17.3800  -33.6470 C   0  0  0  0  0  0  0  0  0  0  0  0
   -4.4280   19.5670  -33.2360 C   0  0  0  0  0  0  0  0  0  0  0  0
   -3.1440   19.0020  -33.4560 C   0  0  0  0  0  0  0  0  0  0  0  0
   -2.0100   19.8080  -33.5530 C   0  0  0  0  0  0  0  0  0  0  0  0
   -2.1180   21.1870  -33.4280 C   0  0  0  0  0  0  0  0  0  0  0  0
   -3.3570   21.7670  -33.1710 C   0  0  0  0  0  0  0  0  0  0  0  0
   -4.5150   20.9700  -33.0390 C   0  0  0  0  0  0  0  0  0  0  0  0
   -1.1862   25.7132  -25.7120 H   0  0  0  0  0  0  0  0  0  0  0  0
   -2.6478   26.0742  -26.6918 H   0  0  0  0  0  0  0  0  0  0  0  0
   -1.9530   24.4177  -26.6918 H   0  0  0  0  0  0  0  0  0  0  0  0
   -1.4618   26.2056  -28.6680 H   0  0  0  0  0  0  0  0  0  0  0  0
   -0.1409   26.6642  -27.5284 H   0  0  0  0  0  0  0  0  0  0  0  0
    0.9425   24.6108  -26.4068 H   0  0  0  0  0  0  0  0  0  0  0  0
    1.7062   23.6437  -27.7138 H   0  0  0  0  0  0  0  0  0  0  0  0
    1.8601   25.4334  -27.7138 H   0  0  0  0  0  0  0  0  0  0  0  0
   -0.2118   22.6674  -27.7115 H   0  0  0  0  0  0  0  0  0  0  0  0
   -1.7323   23.6477  -27.6043 H   0  0  0  0  0  0  0  0  0  0  0  0
   -0.7695   23.5841  -30.3410 H   0  0  0  0  0  0  0  0  0  0  0  0
   -0.9480   21.8973  -29.6603 H   0  0  0  0  0  0  0  0  0  0  0  0
   -2.9822   22.7220  -30.8559 H   0  0  0  0  0  0  0  0  0  0  0  0
   -3.2360   22.2928  -29.1022 H   0  0  0  0  0  0  0  0  0  0  0  0
   -4.2123   24.2841  -28.8260 H   0  0  0  0  0  0  0  0  0  0  0  0
   -2.6101   25.0425  -29.1208 H   0  0  0  0  0  0  0  0  0  0  0  0
   -3.4930   24.3900  -31.5900 H   0  0  0  0  0  0  0  0  0  0  0  0
   -5.7720   25.3405  -29.9554 H   0  0  0  0  0  0  0  0  0  0  0  0
   -5.6917   25.4229  -31.7533 H   0  0  0  0  0  0  0  0  0  0  0  0
   -5.1174   22.7957  -30.3614 H   0  0  0  0  0  0  0  0  0  0  0  0
   -6.8288   23.3570  -30.5591 H   0  0  0  0  0  0  0  0  0  0  0  0
   -5.7730   23.6460  -33.1120 H   0  0  0  0  0  0  0  0  0  0  0  0
   -8.2409   22.3685  -32.1090 H   0  0  0  0  0  0  0  0  0  0  0  0
  -10.2050   20.8996  -31.7052 H   0  0  0  0  0  0  0  0  0  0  0  0
   -9.9635   18.4282  -31.8455 H   0  0  0  0  0  0  0  0  0  0  0  0
   -7.7935   17.4179  -32.5055 H   0  0  0  0  0  0  0  0  0  0  0  0
   -5.5009   16.7054  -32.7784 H   0  0  0  0  0  0  0  0  0  0  0  0
   -6.4139   17.1675  -34.2547 H   0  0  0  0  0  0  0  0  0  0  0  0
   -4.6185   17.2237  -34.2547 H   0  0  0  0  0  0  0  0  0  0  0  0
   -3.0421   17.9109  -33.5515 H   0  0  0  0  0  0  0  0  0  0  0  0
   -1.0258   19.3495  -33.7293 H   0  0  0  0  0  0  0  0  0  0  0  0
   -1.2248   21.8206  -33.5320 H   0  0  0  0  0  0  0  0  0  0  0  0
   -3.4349   22.8595  -33.0695 H   0  0  0  0  0  0  0  0  0  0  0  0
  1  2  1  0
  2  3  1  0
  3  4  1  0
  3  5  1  0
  5  6  1  0
  6  7  1  0
  7  8  1  0
  8  9  1  0
  9 10  1  0
 10 11  1  0
 11 12  1  0
 12 13  1  0
 13 14  2  0
 14 15  1  0
 15 16  2  0
 16 17  1  0
 17 18  2  0
 18 19  1  0
 19 20  2  0
 20 21  1  0
 20 22  1  0
 22 23  2  0
 23 24  1  0
 24 25  2  0
 25 26  1  0
 26 27  2  0
 27 13  1  0
 19 14  1  0
 27 22  1  0
  1 28  1  0
  1 29  1  0
  1 30  1  0
  2 31  1  0
  2 32  1  0
  4 33  1  0
  4 34  1  0
  4 35  1  0
  5 36  1  0
  5 37  1  0
  6 38  1  0
  6 39  1  0
  7 40  1  0
  7 41  1  0
  8 42  1  0
  8 43  1  0
  9 44  1  0
 10 45  1  0
 10 46  1  0
 11 47  1  0
 11 48  1  0
 12 49  1  0
 15 50  1  0
 16 51  1  0
 17 52  1  0
 18 53  1  0
 21 54  1  0
 21 55  1  0
 21 56  1  0
 23 57  1  0
 24 58  1  0
 25 59  1  0
 26 60  1  0
M  CHG  1  20   1
M  END
>  <UniqueID>  (19) 
18

>  <SMILES>  (19) 
CCN(C)CCCCNCCNc1c2ccccc2[n+](C)c2ccccc12

>  <Energy>  (19) 
76.35736050288239

>  <Genealogy>  (19) 
CCN(C)CCCCNCCNc1c2ccccc2[n+](C)c2ccccc12 (3D coordinates assigned)
CCN(C)CCCCNCCNc1c2ccccc2[n+](C)c2ccccc12 (optimized conformer: 76.35736050288239 kcal/mol)

>  <smiles>  (19) 
CCN(C)CCCCNCCNc1c2ccccc2[n+](C)c2ccccc12

>  <score_type>  (19) 
oracle

>  <origin>  (19) 
adg

>  <m_score__min__energy>  (19) 
-9.5099999999999998

>  <m_primary>  (19) 
energy

$$$$
19:0
     RDKit          3D

 50 54  0  0  0  0  0  0  0  0999 V2000
   -3.8310   24.3040  -27.2040 C   0  0  0  0  0  0  0  0  0  0  0  0
   -2.7000   24.4830  -28.2120 C   0  0  0  0  0  0  0  0  0  0  0  0
   -3.2320   24.9070  -29.5160 N   0  0  0  0  0  0  0  0  0  0  0  0
   -3.5160   23.7540  -30.3790 C   0  0  0  0  0  0  0  0  0  0  0  0
   -5.0220   23.6880  -30.6810 C   0  0  0  0  0  0  0  0  0  0  0  0
   -5.3870   23.3660  -32.1490 C   0  0  0  0  0  0  0  0  0  0  0  0
   -5.8410   21.9810  -32.3430 N   0  0  0  0  0  0  0  0  0  0  0  0
   -7.1360   21.5840  -32.2400 C   0  0  0  0  0  0  0  0  0  0  0  0
   -8.2270   22.3370  -31.7830 C   0  0  0  0  0  0  0  0  0  0  0  0
   -9.4970   21.7340  -31.7760 C   0  0  0  0  0  0  0  0  0  0  0  0
   -9.6610   20.4080  -32.2220 C   0  0  0  0  0  0  0  0  0  0  0  0
   -8.5570   19.6690  -32.6780 C   0  0  0  0  0  0  0  0  0  0  0  0
   -7.3040   20.2870  -32.6700 C   0  0  0  0  0  0  0  0  0  0  0  0
   -6.0550   19.8480  -33.0530 C   0  0  0  0  0  0  0  0  0  0  0  0
   -5.6440   18.6510  -33.6290 C   0  0  0  0  0  0  0  0  0  0  0  0
   -4.3150   18.4880  -33.9690 C   0  0  0  0  0  0  0  0  0  0  0  0
   -3.3430   19.4820  -33.7010 C   0  0  0  0  0  0  0  0  0  0  0  0
   -1.9850   19.2830  -34.0130 C   0  0  0  0  0  0  0  0  0  0  0  0
   -1.0340   20.2390  -33.6680 C   0  0  0  0  0  0  0  0  0  0  0  0
   -1.4140   21.3890  -32.9840 C   0  0  0  0  0  0  0  0  0  0  0  0
   -2.7550   21.6160  -32.6710 C   0  0  0  0  0  0  0  0  0  0  0  0
   -3.7570   20.7040  -33.0670 C   0  0  0  0  0  0  0  0  0  0  0  0
   -5.1560   20.8860  -32.8100 C   0  0  0  0  0  0  0  0  0  0  0  0
   -4.2140   17.1650  -34.5660 C   0  0  0  0  0  0  0  0  0  0  0  0
   -3.1710   16.6200  -35.0110 O   0  0  0  0  0  0  0  0  0  0  0  0
   -5.4870   16.5390  -34.5880 N   0  0  0  0  0  0  0  0  0  0  0  0
   -6.4640   17.4480  -33.9980 C   0  0  0  0  0  0  0  0  0  0  0  0
   -3.4260   24.3681  -26.1833 H   0  0  0  0  0  0  0  0  0  0  0  0
   -4.5817   25.0945  -27.3509 H   0  0  0  0  0  0  0  0  0  0  0  0
   -4.3009   23.3203  -27.3509 H   0  0  0  0  0  0  0  0  0  0  0  0
   -2.0019   25.2476  -27.8403 H   0  0  0  0  0  0  0  0  0  0  0  0
   -2.1800   23.5217  -28.3364 H   0  0  0  0  0  0  0  0  0  0  0  0
   -4.1380   25.4020  -29.3420 H   0  0  0  0  0  0  0  0  0  0  0  0
   -2.9587   23.8574  -31.3217 H   0  0  0  0  0  0  0  0  0  0  0  0
   -3.2078   22.8313  -29.8655 H   0  0  0  0  0  0  0  0  0  0  0  0
   -5.4631   22.9087  -30.0421 H   0  0  0  0  0  0  0  0  0  0  0  0
   -5.4170   24.6953  -30.4827 H   0  0  0  0  0  0  0  0  0  0  0  0
   -6.1919   24.0453  -32.4661 H   0  0  0  0  0  0  0  0  0  0  0  0
   -4.4745   23.4977  -32.7490 H   0  0  0  0  0  0  0  0  0  0  0  0
   -8.0926   23.3731  -31.4388 H   0  0  0  0  0  0  0  0  0  0  0  0
  -10.3690   22.3019  -31.4196 H   0  0  0  0  0  0  0  0  0  0  0  0
  -10.6603   19.9482  -32.2131 H   0  0  0  0  0  0  0  0  0  0  0  0
   -8.6755   18.6340  -33.0311 H   0  0  0  0  0  0  0  0  0  0  0  0
   -1.6730   18.3654  -34.5332 H   0  0  0  0  0  0  0  0  0  0  0  0
    0.0213   20.0846  -33.9371 H   0  0  0  0  0  0  0  0  0  0  0  0
   -0.6520   22.1249  -32.6876 H   0  0  0  0  0  0  0  0  0  0  0  0
   -3.0351   22.5184  -32.1077 H   0  0  0  0  0  0  0  0  0  0  0  0
   -5.6910   15.5880  -34.9660 H   0  0  0  0  0  0  0  0  0  0  0  0
   -7.2450   17.7126  -34.7261 H   0  0  0  0  0  0  0  0  0  0  0  0
   -6.9933   17.0099  -33.1390 H   0  0  0  0  0  0  0  0  0  0  0  0
  1  2  1  0
  2  3  1  0
  3  4  1  0
  4  5  1  0
  5  6  1  0
  6  7  1  0
  7  8  1  0
  8  9  2  0
  9 10  1  0
 10 11  2  0
 11 12  1  0
 12 13  2  0
 13 14  1  0
 14 15  2  0
 15 16  1  0
 16 17  2  0
 17 18  1  0
 18 19  2  0
 19 20  1  0
 20 21  2  0
 21 22  1  0
 22 23  2  0
 16 24  1  0
 24 25  2  0
 24 26  1  0
 26 27  1  0
 23  7  1  0
 13  8  1  0
 23 14  1  0
 27 15  1  0
 22 17  1  0
  1 28  1  0
  1 29  1  0
  1 30  1  0
  2 31  1  0
  2 32  1  0
  3 33  1  0
  4 34  1  0
  4 35  1  0
  5 36  1  0
  5 37  1  0
  6 38  1  0
  6 39  1  0
  9 40  1  0
 10 41  1  0
 11 42  1  0
 12 43  1  0
 18 44  1  0
 19 45  1  0
 20 46  1  0
 21 47  1  0
 26 48  1  0
 27 49  1  0
 27 50  1  0
M  END
>  <UniqueID>  (20) 
19

>  <SMILES>  (20) 
CCNCCCn1c2ccccc2c2c3c(c4ccccc4c21)C(=O)NC3

>  <Energy>  (20) 
129.09606043741283

>  <Genealogy>  (20) 
CCNCCCn1c2ccccc2c2c3c(c4ccccc4c21)C(=O)NC3 (3D coordinates assigned)
CCNCCCn1c2ccccc2c2c3c(c4ccccc4c21)C(=O)NC3 (nonaromatic ring conformer: 129.09606043741283 kcal/mol)

>  <smiles>  (20) 
CCNCCCn1c2ccccc2c2c3c(c4ccccc4c21)C(=O)NC3

>  <score_type>  (20) 
oracle

>  <origin>  (20) 
adg

>  <m_score__min__energy>  (20) 
-10.52

>  <m_primary>  (20) 
energy

$$$$
20:0
     RDKit          3D

 35 36  0  0  0  0  0  0  0  0999 V2000
   -3.5380   23.7990  -28.9860 C   0  0  0  0  0  0  0  0  0  0  0  0
   -3.4920   24.3190  -30.4250 C   0  0  0  0  0  0  0  0  0  0  0  0
   -4.7570   24.9580  -30.8340 N   0  0  0  0  0  0  0  0  0  0  0  0
   -5.8610   24.6750  -29.9070 C   0  0  0  0  0  0  0  0  0  0  0  0
   -6.7310   23.5710  -30.4460 C   0  0  0  0  0  0  0  0  0  0  0  0
   -7.2990   22.8270  -29.6570 O   0  0  0  0  0  0  0  0  0  0  0  0
   -6.8560   23.3660  -31.8810 N   0  0  2  0  0  0  0  0  0  0  0  0
   -8.2600   23.4260  -32.3370 C   0  0  0  0  0  0  0  0  0  0  0  0
   -9.1130   22.2560  -31.8240 C   0  0  0  0  0  0  0  0  0  0  0  0
   -8.3880   20.9370  -31.8820 C   0  0  0  0  0  0  0  0  0  0  0  0
   -9.1110   19.7520  -31.6780 C   0  0  0  0  0  0  0  0  0  0  0  0
   -8.4580   18.5170  -31.6670 C   0  0  0  0  0  0  0  0  0  0  0  0
   -7.0750   18.4570  -31.8530 C   0  0  0  0  0  0  0  0  0  0  0  0
   -6.3440   19.6320  -32.0460 C   0  0  0  0  0  0  0  0  0  0  0  0
   -6.9880   20.8790  -32.0450 C   0  0  0  0  0  0  0  0  0  0  0  0
   -6.1820   22.1260  -32.3240 C   0  0  0  0  0  0  0  0  0  0  0  0
   -3.4631   24.6456  -28.2876 H   0  0  0  0  0  0  0  0  0  0  0  0
   -4.4866   23.2680  -28.8181 H   0  0  0  0  0  0  0  0  0  0  0  0
   -2.6973   23.1097  -28.8181 H   0  0  0  0  0  0  0  0  0  0  0  0
   -2.6807   25.0572  -30.5078 H   0  0  0  0  0  0  0  0  0  0  0  0
   -3.3228   23.4571  -31.0872 H   0  0  0  0  0  0  0  0  0  0  0  0
   -4.6250   25.9950  -30.8960 H   0  0  0  0  0  0  0  0  0  0  0  0
   -5.4479   24.3686  -28.9346 H   0  0  0  0  0  0  0  0  0  0  0  0
   -6.4700   25.5836  -29.7905 H   0  0  0  0  0  0  0  0  0  0  0  0
   -6.3610   24.1570  -32.3570 H   0  0  0  0  0  0  0  0  0  0  0  0
   -8.7043   24.3662  -31.9784 H   0  0  0  0  0  0  0  0  0  0  0  0
   -8.2500   23.3665  -33.4353 H   0  0  0  0  0  0  0  0  0  0  0  0
   -9.3941   22.4571  -30.7797 H   0  0  0  0  0  0  0  0  0  0  0  0
   -9.9956   22.1782  -32.4759 H   0  0  0  0  0  0  0  0  0  0  0  0
  -10.1995   19.7957  -31.5257 H   0  0  0  0  0  0  0  0  0  0  0  0
   -9.0329   17.5921  -31.5119 H   0  0  0  0  0  0  0  0  0  0  0  0
   -6.5612   17.4844  -31.8475 H   0  0  0  0  0  0  0  0  0  0  0  0
   -5.2561   19.5793  -32.1998 H   0  0  0  0  0  0  0  0  0  0  0  0
   -5.2189   22.0447  -31.7988 H   0  0  0  0  0  0  0  0  0  0  0  0
   -6.0532   22.1952  -33.4142 H   0  0  0  0  0  0  0  0  0  0  0  0
  1  2  1  0
  2  3  1  0
  3  4  1  0
  4  5  1  0
  5  6  2  0
  5  7  1  0
  7  8  1  0
  8  9  1  0
  9 10  1  0
 10 11  2  0
 11 12  1  0
 12 13  2  0
 13 14  1  0
 14 15  2  0
 15 16  1  0
 16  7  1  0
 15 10  1  0
  1 17  1  0
  1 18  1  0
  1 19  1  0
  2 20  1  0
  2 21  1  0
  3 22  1  0
  4 23  1  0
  4 24  1  0
  7 25  1  6
  8 26  1  0
  8 27  1  0
  9 28  1  0
  9 29  1  0
 11 30  1  0
 12 31  1  0
 13 32  1  0
 14 33  1  0
 16 34  1  0
 16 35  1  0
M  CHG  1   7   1
M  END
>  <UniqueID>  (21) 
20

>  <SMILES>  (21) 
CCNCC(=O)[N@@H+]1CCc2ccccc2C1

>  <Energy>  (21) 
38.45196051684366

>  <Genealogy>  (21) 
CCNCC(=O)[NH+]1CCc2ccccc2C1 (protonated)
CCNCC(=O)[N@@H+]1CCc2ccccc2C1 (chirality)
CCNCC(=O)[N@@H+]1CCc2ccccc2C1 (3D coordinates assigned)
CCNCC(=O)[N@@H+]1CCc2ccccc2C1 (nonaromatic ring conformer: 38.45196051684366 kcal/mol)

>  <smiles>  (21) 
CCNCC(=O)N1CCc2ccccc2C1

>  <score_type>  (21) 
oracle

>  <origin>  (21) 
adg

>  <m_score__min__energy>  (21) 
-6.8700000000000001

>  <m_primary>  (21) 
energy

$$$$
21:0
     RDKit          3D

 37 39  0  0  0  0  0  0  0  0999 V2000
   -4.5790   16.9570  -35.0180 C   0  0  0  0  0  0  0  0  0  0  0  0
   -3.5690   17.7250  -34.1730 C   0  0  0  0  0  0  0  0  0  0  0  0
   -4.1330   19.0110  -33.7400 N   0  0  0  0  0  0  0  0  0  0  0  0
   -3.3260   20.2360  -33.8080 C   0  0  0  0  0  0  0  0  0  0  0  0
   -3.6030   21.0910  -32.6110 C   0  0  0  0  0  0  0  0  0  0  0  0
   -2.9970   20.9930  -31.3760 C   0  0  0  0  0  0  0  0  0  0  0  0
   -3.4410   21.9820  -30.6350 O   0  0  0  0  0  0  0  0  0  0  0  0
   -4.2780   22.6790  -31.3740 C   0  0  0  0  0  0  0  0  0  0  0  0
   -4.9810   23.8780  -30.9070 C   0  0  0  0  0  0  0  0  0  0  0  0
   -6.2510   23.9090  -30.3680 C   0  0  0  0  0  0  0  0  0  0  0  0
   -6.4950   25.2340  -30.0740 C   0  0  0  0  0  0  0  0  0  0  0  0
   -5.3610   25.9260  -30.4530 C   0  0  0  0  0  0  0  0  0  0  0  0
   -4.4770   25.0900  -30.9450 O   0  0  0  0  0  0  0  0  0  0  0  0
   -4.4050   22.1680  -32.6140 N   0  0  0  0  0  0  0  0  0  0  0  0
   -5.4610   19.0650  -33.1850 C   0  0  0  0  0  0  0  0  0  0  0  0
   -5.8430   18.1680  -32.1750 C   0  0  0  0  0  0  0  0  0  0  0  0
   -7.1350   18.2130  -31.6430 C   0  0  0  0  0  0  0  0  0  0  0  0
   -8.0550   19.1520  -32.1160 C   0  0  0  0  0  0  0  0  0  0  0  0
   -9.3090   19.1940  -31.6000 F   0  0  0  0  0  0  0  0  0  0  0  0
   -7.6840   20.0480  -33.1230 C   0  0  0  0  0  0  0  0  0  0  0  0
   -6.3920   20.0060  -33.6560 C   0  0  0  0  0  0  0  0  0  0  0  0
   -5.2795   16.4243  -34.3581 H   0  0  0  0  0  0  0  0  0  0  0  0
   -5.1368   17.6612  -35.6528 H   0  0  0  0  0  0  0  0  0  0  0  0
   -4.0495   16.2313  -35.6528 H   0  0  0  0  0  0  0  0  0  0  0  0
   -3.3090   17.1270  -33.2871 H   0  0  0  0  0  0  0  0  0  0  0  0
   -2.6706   17.9161  -34.7783 H   0  0  0  0  0  0  0  0  0  0  0  0
   -2.2588   19.9700  -33.8280 H   0  0  0  0  0  0  0  0  0  0  0  0
   -3.5857   20.7926  -34.7206 H   0  0  0  0  0  0  0  0  0  0  0  0
   -2.2725   20.2250  -31.0674 H   0  0  0  0  0  0  0  0  0  0  0  0
   -6.9267   23.0561  -30.2068 H   0  0  0  0  0  0  0  0  0  0  0  0
   -7.4081   25.6549  -29.6278 H   0  0  0  0  0  0  0  0  0  0  0  0
   -5.2203   27.0127  -30.3570 H   0  0  0  0  0  0  0  0  0  0  0  0
   -4.9810   22.5340  -33.4050 H   0  0  0  0  0  0  0  0  0  0  0  0
   -5.1223   17.4262  -31.8004 H   0  0  0  0  0  0  0  0  0  0  0  0
   -7.4277   17.5081  -30.8509 H   0  0  0  0  0  0  0  0  0  0  0  0
   -8.4089   20.7864  -33.4962 H   0  0  0  0  0  0  0  0  0  0  0  0
   -6.1031   20.7129  -34.4477 H   0  0  0  0  0  0  0  0  0  0  0  0
  1  2  1  0
  2  3  1  0
  3  4  1  0
  4  5  1  0
  5  6  2  0
  6  7  1  0
  7  8  1  0
  8  9  1  0
  9 10  2  0
 10 11  1  0
 11 12  2  0
 12 13  1  0
  8 14  2  0
  3 15  1  0
 15 16  2  0
 16 17  1  0
 17 18  2  0
 18 19  1  0
 18 20  1  0
 20 21  2  0
 14  5  1  0
 21 15  1  0
 13  9  1  0
  1 22  1  0
  1 23  1  0
  1 24  1  0
  2 25  1  0
  2 26  1  0
  4 27  1  0
  4 28  1  0
  6 29  1  0
 10 30  1  0
 11 31  1  0
 12 32  1  0
 14 33  1  0
 16 34  1  0
 17 35  1  0
 20 36  1  0
 21 37  1  0
M  CHG  1  14   1
M  END
>  <UniqueID>  (22) 
21

>  <SMILES>  (22) 
CCN(Cc1coc(-c2ccco2)[nH+]1)c1ccc(F)cc1

>  <Energy>  (22) 
93.36739750420739

>  <Genealogy>  (22) 
CCN(Cc1coc(-c2ccco2)[nH+]1)c1ccc(F)cc1 (protonated)
CCN(Cc1coc(-c2ccco2)[nH+]1)c1ccc(F)cc1 (3D coordinates assigned)
CCN(Cc1coc(-c2ccco2)[nH+]1)c1ccc(F)cc1 (optimized conformer: 93.36739750420739 kcal/mol)

>  <smiles>  (22) 
CCN(Cc1coc(-c2ccco2)n1)c1ccc(F)cc1

>  <score_type>  (22) 
oracle

>  <origin>  (22) 
adg

>  <m_score__min__energy>  (22) 
-7.04

>  <m_primary>  (22) 
energy

$$$$
22:0
     RDKit          3D

 48 49  0  0  0  0  0  0  0  0999 V2000
   -3.2260   24.5330  -27.0820 C   0  0  0  0  0  0  0  0  0  0  0  0
   -1.9680   24.8740  -27.8870 C   0  0  0  0  0  0  0  0  0  0  0  0
   -2.1990   24.8310  -29.3420 N   0  0  0  0  0  0  0  0  0  0  0  0
   -2.8190   23.5740  -29.7830 C   0  0  0  0  0  0  0  0  0  0  0  0
   -4.2590   23.7990  -30.1600 C   0  0  0  0  0  0  0  0  0  0  0  0
   -4.8220   25.0830  -30.0880 C   0  0  0  0  0  0  0  0  0  0  0  0
   -6.1520   25.2880  -30.4590 C   0  0  0  0  0  0  0  0  0  0  0  0
   -6.9300   24.2180  -30.9070 C   0  0  0  0  0  0  0  0  0  0  0  0
   -6.3840   22.9260  -30.9890 C   0  0  0  0  0  0  0  0  0  0  0  0
   -7.2140   21.7930  -31.4690 C   0  0  0  0  0  0  0  0  0  0  0  0
   -8.6160   21.8930  -31.4820 C   0  0  0  0  0  0  0  0  0  0  0  0
   -9.3790   20.8200  -31.9440 C   0  0  0  0  0  0  0  0  0  0  0  0
   -8.7490   19.6620  -32.3930 C   0  0  0  0  0  0  0  0  0  0  0  0
   -7.3540   19.5910  -32.3770 C   0  0  0  0  0  0  0  0  0  0  0  0
   -6.5260   18.1010  -32.9440 S   0  0  0  0  0  0  0  0  0  0  0  0
   -5.4660   18.9530  -34.1650 C   0  0  0  0  0  0  0  0  0  0  0  0
   -4.0500   19.1560  -33.6180 C   0  0  0  0  0  0  0  0  0  0  0  0
   -4.0110   20.3090  -32.6920 N   0  0  0  0  0  0  0  0  0  0  0  0
   -2.9020   20.1780  -31.7300 C   0  0  0  0  0  0  0  0  0  0  0  0
   -3.8570   21.5650  -33.4440 C   0  0  0  0  0  0  0  0  0  0  0  0
   -6.6220   20.6420  -31.9120 N   0  0  0  0  0  0  0  0  0  0  0  0
   -5.0430   22.7260  -30.6130 C   0  0  0  0  0  0  0  0  0  0  0  0
   -3.0011   24.5940  -26.0070 H   0  0  0  0  0  0  0  0  0  0  0  0
   -4.0251   25.2470  -27.3305 H   0  0  0  0  0  0  0  0  0  0  0  0
   -3.5551   23.5132  -27.3305 H   0  0  0  0  0  0  0  0  0  0  0  0
   -1.6373   25.8865  -27.6123 H   0  0  0  0  0  0  0  0  0  0  0  0
   -1.2040   24.1196  -27.6479 H   0  0  0  0  0  0  0  0  0  0  0  0
   -1.2900   24.9570  -29.8450 H   0  0  0  0  0  0  0  0  0  0  0  0
   -2.2725   23.1878  -30.6561 H   0  0  0  0  0  0  0  0  0  0  0  0
   -2.7771   22.8483  -28.9574 H   0  0  0  0  0  0  0  0  0  0  0  0
   -4.2134   25.9299  -29.7383 H   0  0  0  0  0  0  0  0  0  0  0  0
   -6.5889   26.2957  -30.3983 H   0  0  0  0  0  0  0  0  0  0  0  0
   -7.9772   24.3880  -31.1976 H   0  0  0  0  0  0  0  0  0  0  0  0
   -9.1086   22.8114  -31.1301 H   0  0  0  0  0  0  0  0  0  0  0  0
  -10.4768   20.8887  -31.9536 H   0  0  0  0  0  0  0  0  0  0  0  0
   -9.3442   18.8114  -32.7568 H   0  0  0  0  0  0  0  0  0  0  0  0
   -5.4139   18.3463  -35.0811 H   0  0  0  0  0  0  0  0  0  0  0  0
   -5.9029   19.9395  -34.3795 H   0  0  0  0  0  0  0  0  0  0  0  0
   -3.7366   18.2492  -33.0799 H   0  0  0  0  0  0  0  0  0  0  0  0
   -3.3692   19.3530  -34.4593 H   0  0  0  0  0  0  0  0  0  0  0  0
   -3.2983   20.2248  -30.7049 H   0  0  0  0  0  0  0  0  0  0  0  0
   -2.3954   19.2138  -31.8836 H   0  0  0  0  0  0  0  0  0  0  0  0
   -2.1847   20.9977  -31.8836 H   0  0  0  0  0  0  0  0  0  0  0  0
   -3.7542   22.4037  -32.7398 H   0  0  0  0  0  0  0  0  0  0  0  0
   -2.9594   21.5056  -34.0771 H   0  0  0  0  0  0  0  0  0  0  0  0
   -4.7423   21.7242  -34.0771 H   0  0  0  0  0  0  0  0  0  0  0  0
   -5.5810   20.5490  -31.8860 H   0  0  0  0  0  0  0  0  0  0  0  0
   -4.6045   21.7190  -30.6746 H   0  0  0  0  0  0  0  0  0  0  0  0
  1  2  1  0
  2  3  1  0
  3  4  1  0
  4  5  1  0
  5  6  2  0
  6  7  1  0
  7  8  2  0
  8  9  1  0
  9 10  1  0
 10 11  2  0
 11 12  1  0
 12 13  2  0
 13 14  1  0
 14 15  1  0
 15 16  1  0
 16 17  1  0
 17 18  1  0
 18 19  1  0
 18 20  1  0
 14 21  2  0
  9 22  2  0
 22  5  1  0
 21 10  1  0
  1 23  1  0
  1 24  1  0
  1 25  1  0
  2 26  1  0
  2 27  1  0
  3 28  1  0
  4 29  1  0
  4 30  1  0
  6 31  1  0
  7 32  1  0
  8 33  1  0
 11 34  1  0
 12 35  1  0
 13 36  1  0
 16 37  1  0
 16 38  1  0
 17 39  1  0
 17 40  1  0
 19 41  1  0
 19 42  1  0
 19 43  1  0
 20 44  1  0
 20 45  1  0
 20 46  1  0
 21 47  1  0
 22 48  1  0
M  CHG  1  21   1
M  END
>  <UniqueID>  (23) 
22

>  <SMILES>  (23) 
CCNCc1cccc(-c2cccc(SCCN(C)C)[nH+]2)c1

>  <Energy>  (23) 
45.88059788744427

>  <Genealogy>  (23) 
CCNCc1cccc(-c2cccc(SCCN(C)C)[nH+]2)c1 (protonated)
CCNCc1cccc(-c2cccc(SCCN(C)C)[nH+]2)c1 (3D coordinates assigned)
CCNCc1cccc(-c2cccc(SCCN(C)C)[nH+]2)c1 (optimized conformer: 45.88059788744427 kcal/mol)

>  <smiles>  (23) 
CCNCc1cccc(-c2cccc(SCCN(C)C)n2)c1

>  <score_type>  (23) 
oracle

>  <origin>  (23) 
adg

>  <m_score__min__energy>  (23) 
-7.54

>  <m_primary>  (23) 
energy

$$$$
