0:0
     RDKit          3D

 29 30  0  0  0  0  0  0  0  0999 V2000
   -2.9370   24.5260  -28.9330 C   0  0  0  0  0  0  0  0  0  0  0  0
   -4.1610   24.2690  -29.7610 C   0  0  0  0  0  0  0  0  0  0  0  0
   -4.1080   23.3760  -30.8430 C   0  0  0  0  0  0  0  0  0  0  0  0
   -5.2560   23.1130  -31.5950 C   0  0  0  0  0  0  0  0  0  0  0  0
   -6.4660   23.7380  -31.2710 C   0  0  0  0  0  0  0  0  0  0  0  0
   -7.9320   23.4230  -32.2610 S   0  0  0  0  0  0  0  0  0  0  0  0
   -8.5150   22.0160  -31.2490 C   0  0  0  0  0  0  0  0  0  0  0  0
   -8.0760   20.7040  -31.8420 C   0  0  0  0  0  0  0  0  0  0  0  0
   -8.8650   19.5560  -31.6750 C   0  0  0  0  0  0  0  0  0  0  0  0
   -8.4370   18.3270  -32.1820 C   0  0  0  0  0  0  0  0  0  0  0  0
   -7.2140   18.2290  -32.8550 C   0  0  0  0  0  0  0  0  0  0  0  0
   -6.7030   16.6630  -33.4710 Cl  0  0  0  0  0  0  0  0  0  0  0  0
   -6.4170   19.3740  -33.0250 C   0  0  0  0  0  0  0  0  0  0  0  0
   -4.8650   19.2920  -33.8470 Cl  0  0  0  0  0  0  0  0  0  0  0  0
   -6.8510   20.6050  -32.5220 C   0  0  0  0  0  0  0  0  0  0  0  0
   -6.5310   24.6070  -30.1760 C   0  0  0  0  0  0  0  0  0  0  0  0
   -5.3840   24.8690  -29.4200 C   0  0  0  0  0  0  0  0  0  0  0  0
   -3.1981   24.4712  -27.8658 H   0  0  0  0  0  0  0  0  0  0  0  0
   -2.1731   23.7687  -29.1630 H   0  0  0  0  0  0  0  0  0  0  0  0
   -2.5422   25.5266  -29.1630 H   0  0  0  0  0  0  0  0  0  0  0  0
   -3.1595   22.8816  -31.0997 H   0  0  0  0  0  0  0  0  0  0  0  0
   -5.2089   22.4138  -32.4429 H   0  0  0  0  0  0  0  0  0  0  0  0
   -8.1015   22.1078  -30.2338 H   0  0  0  0  0  0  0  0  0  0  0  0
   -9.6145   22.0369  -31.2217 H   0  0  0  0  0  0  0  0  0  0  0  0
   -9.8250   19.6242  -31.1424 H   0  0  0  0  0  0  0  0  0  0  0  0
   -9.0638   17.4325  -32.0518 H   0  0  0  0  0  0  0  0  0  0  0  0
   -6.2287   21.5015  -32.6599 H   0  0  0  0  0  0  0  0  0  0  0  0
   -7.4854   25.0846  -29.9096 H   0  0  0  0  0  0  0  0  0  0  0  0
   -5.4400   25.5471  -28.5557 H   0  0  0  0  0  0  0  0  0  0  0  0
  1  2  1  0
  2  3  2  0
  3  4  1  0
  4  5  2  0
  5  6  1  0
  6  7  1  0
  7  8  1  0
  8  9  2  0
  9 10  1  0
 10 11  2  0
 11 12  1  0
 11 13  1  0
 13 14  1  0
 13 15  2  0
  5 16  1  0
 16 17  2  0
 17  2  1  0
 15  8  1  0
  1 18  1  0
  1 19  1  0
  1 20  1  0
  3 21  1  0
  4 22  1  0
  7 23  1  0
  7 24  1  0
  9 25  1  0
 10 26  1  0
 15 27  1  0
 16 28  1  0
 17 29  1  0
M  END
>  <UniqueID>  (1) 
1

>  <SMILES>  (1) 
Cc1ccc(SCc2ccc(Cl)c(Cl)c2)cc1

>  <Energy>  (1) 
23.790514947886706

>  <Genealogy>  (1) 
Cc1ccc(SCc2ccc(Cl)c(Cl)c2)cc1 (3D coordinates assigned)
Cc1ccc(SCc2ccc(Cl)c(Cl)c2)cc1 (optimized conformer: 23.790514947886706 kcal/mol)

>  <smiles>  (1) 
Cc1ccc(SCc2ccc(Cl)c(Cl)c2)cc1

>  <score_type>  (1) 
oracle

>  <origin>  (1) 
adg

>  <m_score__min__energy>  (1) 
-7.8499999999999996

>  <m_primary>  (1) 
energy

$$$$
1:0
     RDKit          3D

 26 28  0  0  0  0  0  0  0  0999 V2000
   -5.3620   26.4190  -30.4680 O   0  0  0  0  0  0  0  0  0  0  0  0
   -4.7650   25.3150  -30.5570 C   0  0  0  0  0  0  0  0  0  0  0  0
   -3.5400   25.1350  -29.9790 N   0  0  0  0  0  0  0  0  0  0  0  0
   -2.8750   23.9370  -30.0740 C   0  0  0  0  0  0  0  0  0  0  0  0
   -1.4110   23.7640  -29.3740 S   0  0  0  0  0  0  0  0  0  0  0  0
   -3.4290   22.8880  -30.7550 N   0  0  0  0  0  0  0  0  0  0  0  0
   -4.6470   23.0700  -31.3230 C   0  0  0  0  0  0  0  0  0  0  0  0
   -5.3180   24.2450  -31.2440 C   0  0  0  0  0  0  0  0  0  0  0  0
   -6.4840   24.0530  -31.9570 C   0  0  0  0  0  0  0  0  0  0  0  0
   -6.4770   22.7840  -32.4430 N   0  0  0  0  0  0  0  0  0  0  0  0
   -5.3580   22.1880  -32.0420 N   0  0  0  0  0  0  0  0  0  0  0  0
   -4.9590   20.8390  -32.4290 C   0  0  0  0  0  0  0  0  0  0  0  0
   -6.1540   19.9280  -32.4150 C   0  0  0  0  0  0  0  0  0  0  0  0
   -7.2740   20.2360  -31.6240 C   0  0  0  0  0  0  0  0  0  0  0  0
   -8.3670   19.3660  -31.5810 C   0  0  0  0  0  0  0  0  0  0  0  0
   -8.3460   18.1780  -32.3170 C   0  0  0  0  0  0  0  0  0  0  0  0
   -7.2290   17.8570  -33.0950 C   0  0  0  0  0  0  0  0  0  0  0  0
   -6.1340   18.7250  -33.1400 C   0  0  0  0  0  0  0  0  0  0  0  0
   -7.2801   24.7973  -32.1059 H   0  0  0  0  0  0  0  0  0  0  0  0
   -4.5298   20.8620  -33.4416 H   0  0  0  0  0  0  0  0  0  0  0  0
   -4.2099   20.4645  -31.7159 H   0  0  0  0  0  0  0  0  0  0  0  0
   -7.2905   21.1657  -31.0363 H   0  0  0  0  0  0  0  0  0  0  0  0
   -9.2448   19.6165  -30.9672 H   0  0  0  0  0  0  0  0  0  0  0  0
   -9.2080   17.4955  -32.2843 H   0  0  0  0  0  0  0  0  0  0  0  0
   -7.2120   16.9207  -33.6721 H   0  0  0  0  0  0  0  0  0  0  0  0
   -5.2533   18.4649  -33.7455 H   0  0  0  0  0  0  0  0  0  0  0  0
  1  2  2  0
  2  3  1  0
  3  4  1  0
  4  5  2  0
  4  6  1  0
  6  7  1  0
  7  8  2  0
  8  9  1  0
  9 10  2  0
 10 11  1  0
 11 12  1  0
 12 13  1  0
 13 14  2  0
 14 15  1  0
 15 16  2  0
 16 17  1  0
 17 18  2  0
  8  2  1  0
 18 13  1  0
 11  7  1  0
  9 19  1  0
 12 20  1  0
 12 21  1  0
 14 22  1  0
 15 23  1  0
 16 24  1  0
 17 25  1  0
 18 26  1  0
M  CHG  2   3  -1   6  -1
M  END
>  <UniqueID>  (2) 
2

>  <SMILES>  (2) 
O=c1[n-]c(=S)[n-]c2c1cnn2Cc1ccccc1

>  <Energy>  (2) 
69.52644014081446

>  <Genealogy>  (2) 
O=c1[n-]c(=S)[n-]c2c1cnn2Cc1ccccc1 (protonated)
O=c1[n-]c(=S)[n-]c2c1cnn2Cc1ccccc1 (3D coordinates assigned)
O=c1[n-]c(=S)[n-]c2c1cnn2Cc1ccccc1 (optimized conformer: 69.52644014081446 kcal/mol)

>  <smiles>  (2) 
O=c1[nH]c(=S)[nH]c2c1cnn2Cc1ccccc1

>  <score_type>  (2) 
oracle

>  <origin>  (2) 
adg

>  <m_score__min__energy>  (2) 
-9.0399999999999991

>  <m_primary>  (2) 
energy

$$$$
2:0
     RDKit          3D

 54 56  0  0  0  0  0  0  0  0999 V2000
   -8.8220   22.2680  -31.5840 C   0  0  0  0  0  0  0  0  0  0  0  0
   -7.7660   22.9640  -32.2390 O   0  0  0  0  0  0  0  0  0  0  0  0
   -6.6270   23.4750  -31.5950 C   0  0  0  0  0  0  0  0  0  0  0  0
   -6.7030   24.5640  -30.7070 C   0  0  0  0  0  0  0  0  0  0  0  0
   -5.5550   25.0440  -30.0740 C   0  0  0  0  0  0  0  0  0  0  0  0
   -4.3110   24.4450  -30.3170 C   0  0  0  0  0  0  0  0  0  0  0  0
   -3.1020   24.9300  -29.7170 N   0  0  0  0  0  0  0  0  0  0  0  0
   -2.3000   24.2570  -28.7390 C   0  0  0  0  0  0  0  0  0  0  0  0
   -2.8150   23.8050  -27.6830 O   0  0  0  0  0  0  0  0  0  0  0  0
   -0.8320   24.0660  -28.9790 C   0  0  0  0  0  0  0  0  0  0  0  0
   -0.0560   25.0010  -28.2260 O   0  0  0  0  0  0  0  0  0  0  0  0
   -0.3720   25.4730  -26.9390 C   0  0  0  0  0  0  0  0  0  0  0  0
   -0.8410   26.7830  -26.7120 C   0  0  0  0  0  0  0  0  0  0  0  0
   -1.1520   27.2070  -25.4190 C   0  0  0  0  0  0  0  0  0  0  0  0
   -0.9970   26.3360  -24.3410 C   0  0  0  0  0  0  0  0  0  0  0  0
   -0.5290   25.0370  -24.5510 C   0  0  0  0  0  0  0  0  0  0  0  0
   -0.2140   24.5970  -25.8520 C   0  0  0  0  0  0  0  0  0  0  0  0
    0.2510   23.2970  -26.1050 O   0  0  0  0  0  0  0  0  0  0  0  0
   -0.5760   22.1380  -26.1560 C   0  0  0  0  0  0  0  0  0  0  0  0
   -4.2280   23.3800  -31.2190 C   0  0  0  0  0  0  0  0  0  0  0  0
   -5.3800   22.8710  -31.8440 C   0  0  0  0  0  0  0  0  0  0  0  0
   -5.2830   21.7750  -32.7720 N   0  0  0  0  0  0  0  0  0  0  0  0
   -5.7530   20.4500  -32.4760 C   0  0  0  0  0  0  0  0  0  0  0  0
   -6.6310   20.2850  -31.5840 O   0  0  0  0  0  0  0  0  0  0  0  0
   -5.2540   19.2770  -33.2340 C   0  0  0  0  0  0  0  0  0  0  0  0
   -6.1420   18.2610  -33.6320 C   0  0  0  0  0  0  0  0  0  0  0  0
   -5.6770   17.1470  -34.3380 C   0  0  0  0  0  0  0  0  0  0  0  0
   -4.3190   17.0310  -34.6640 C   0  0  0  0  0  0  0  0  0  0  0  0
   -3.8170   15.8140  -35.3830 C   0  0  0  0  0  0  0  0  0  0  0  0
   -3.4240   18.0270  -34.2470 C   0  0  0  0  0  0  0  0  0  0  0  0
   -3.8870   19.1430  -33.5420 C   0  0  0  0  0  0  0  0  0  0  0  0
   -8.6956   22.3513  -30.4945 H   0  0  0  0  0  0  0  0  0  0  0  0
   -9.7872   22.7075  -31.8758 H   0  0  0  0  0  0  0  0  0  0  0  0
   -8.7987   21.2077  -31.8758 H   0  0  0  0  0  0  0  0  0  0  0  0
   -7.6745   25.0408  -30.5101 H   0  0  0  0  0  0  0  0  0  0  0  0
   -5.6268   25.8958  -29.3817 H   0  0  0  0  0  0  0  0  0  0  0  0
   -0.5503   23.0451  -28.6817 H   0  0  0  0  0  0  0  0  0  0  0  0
   -0.6311   24.2298  -30.0480 H   0  0  0  0  0  0  0  0  0  0  0  0
   -0.9625   27.4748  -27.5585 H   0  0  0  0  0  0  0  0  0  0  0  0
   -1.5199   28.2298  -25.2501 H   0  0  0  0  0  0  0  0  0  0  0  0
   -1.2438   26.6727  -23.3233 H   0  0  0  0  0  0  0  0  0  0  0  0
   -0.4058   24.3545  -23.6972 H   0  0  0  0  0  0  0  0  0  0  0  0
   -0.8104   21.8095  -25.1327 H   0  0  0  0  0  0  0  0  0  0  0  0
   -1.5092   22.3765  -26.6873 H   0  0  0  0  0  0  0  0  0  0  0  0
   -0.0470   21.3331  -26.6873 H   0  0  0  0  0  0  0  0  0  0  0  0
   -3.2477   22.9341  -31.4428 H   0  0  0  0  0  0  0  0  0  0  0  0
   -4.9540   21.9740  -33.7440 H   0  0  0  0  0  0  0  0  0  0  0  0
   -7.2109   18.3435  -33.3858 H   0  0  0  0  0  0  0  0  0  0  0  0
   -6.3811   16.3574  -34.6391 H   0  0  0  0  0  0  0  0  0  0  0  0
   -3.5047   15.0570  -34.6486 H   0  0  0  0  0  0  0  0  0  0  0  0
   -4.6194   15.4038  -36.0138 H   0  0  0  0  0  0  0  0  0  0  0  0
   -2.9588   16.0888  -36.0138 H   0  0  0  0  0  0  0  0  0  0  0  0
   -2.3524   17.9301  -34.4755 H   0  0  0  0  0  0  0  0  0  0  0  0
   -3.1774   19.9218  -33.2259 H   0  0  0  0  0  0  0  0  0  0  0  0
  1  2  1  0
  2  3  1  0
  3  4  2  0
  4  5  1  0
  5  6  2  0
  6  7  1  0
  7  8  1  0
  8  9  2  0
  8 10  1  0
 10 11  1  0
 11 12  1  0
 12 13  2  0
 13 14  1  0
 14 15  2  0
 15 16  1  0
 16 17  2  0
 17 18  1  0
 18 19  1  0
  6 20  1  0
 20 21  2  0
 21 22  1  0
 22 23  1  0
 23 24  2  0
 23 25  1  0
 25 26  2  0
 26 27  1  0
 27 28  2  0
 28 29  1  0
 28 30  1  0
 30 31  2  0
 21  3  1  0
 31 25  1  0
 17 12  1  0
  1 32  1  0
  1 33  1  0
  1 34  1  0
  4 35  1  0
  5 36  1  0
 10 37  1  0
 10 38  1  0
 13 39  1  0
 14 40  1  0
 15 41  1  0
 16 42  1  0
 19 43  1  0
 19 44  1  0
 19 45  1  0
 20 46  1  0
 22 47  1  0
 26 48  1  0
 27 49  1  0
 29 50  1  0
 29 51  1  0
 29 52  1  0
 30 53  1  0
 31 54  1  0
M  CHG  1   7  -1
M  END
>  <UniqueID>  (3) 
3

>  <SMILES>  (3) 
COc1ccc([N-]C(=O)COc2ccccc2OC)cc1NC(=O)c1ccc(C)cc1

>  <Energy>  (3) 
63.24489844281415

>  <Genealogy>  (3) 
COc1ccc([N-]C(=O)COc2ccccc2OC)cc1NC(=O)c1ccc(C)cc1 (protonated)
COc1ccc([N-]C(=O)COc2ccccc2OC)cc1NC(=O)c1ccc(C)cc1 (3D coordinates assigned)
COc1ccc([N-]C(=O)COc2ccccc2OC)cc1NC(=O)c1ccc(C)cc1 (optimized conformer: 63.24489844281415 kcal/mol)

>  <smiles>  (3) 
COc1ccc(NC(=O)COc2ccccc2OC)cc1NC(=O)c1ccc(C)cc1

>  <score_type>  (3) 
oracle

>  <origin>  (3) 
adg

>  <m_score__min__energy>  (3) 
-10.24

>  <m_primary>  (3) 
energy

$$$$
3:0
     RDKit          3D

 33 34  0  0  0  0  0  0  0  0999 V2000
   -8.3250   20.1840  -32.3560 C   0  0  0  0  0  0  0  0  0  0  0  0
   -7.5700   21.3640  -31.8190 C   0  0  0  0  0  0  0  0  0  0  0  0
   -6.4170   21.8230  -32.4750 C   0  0  0  0  0  0  0  0  0  0  0  0
   -5.6890   22.8980  -31.9530 C   0  0  0  0  0  0  0  0  0  0  0  0
   -6.1030   23.5180  -30.7650 C   0  0  0  0  0  0  0  0  0  0  0  0
   -5.1720   24.8440  -30.0720 S   0  0  0  0  0  0  0  0  0  0  0  0
   -3.8870   25.0320  -30.8300 O   0  0  0  0  0  0  0  0  0  0  0  0
   -5.9760   26.1100  -30.1750 O   0  0  0  0  0  0  0  0  0  0  0  0
   -4.8260   24.5180  -28.4010 N   0  0  0  0  0  0  0  0  0  0  0  0
   -4.4680   23.1070  -28.2380 C   0  0  0  0  0  0  0  0  0  0  0  0
   -3.1880   22.8120  -28.9810 C   0  0  0  0  0  0  0  0  0  0  0  0
   -3.1990   21.8520  -30.0080 C   0  0  0  0  0  0  0  0  0  0  0  0
   -2.0360   21.5780  -30.7340 C   0  0  0  0  0  0  0  0  0  0  0  0
   -0.8570   22.2680  -30.4520 C   0  0  0  0  0  0  0  0  0  0  0  0
   -0.8360   23.2370  -29.4460 C   0  0  0  0  0  0  0  0  0  0  0  0
   -1.9950   23.5200  -28.7120 C   0  0  0  0  0  0  0  0  0  0  0  0
   -1.8930   24.8840  -27.3650 Br  0  0  0  0  0  0  0  0  0  0  0  0
   -7.2410   23.0470  -30.0980 C   0  0  0  0  0  0  0  0  0  0  0  0
   -7.9680   21.9720  -30.6190 C   0  0  0  0  0  0  0  0  0  0  0  0
   -8.7096   19.5829  -31.5189 H   0  0  0  0  0  0  0  0  0  0  0  0
   -9.1660   20.5360  -32.9714 H   0  0  0  0  0  0  0  0  0  0  0  0
   -7.6530   19.5679  -32.9714 H   0  0  0  0  0  0  0  0  0  0  0  0
   -6.0843   21.3356  -33.4033 H   0  0  0  0  0  0  0  0  0  0  0  0
   -4.7902   23.2575  -32.4754 H   0  0  0  0  0  0  0  0  0  0  0  0
   -5.7100   24.7010  -27.8740 H   0  0  0  0  0  0  0  0  0  0  0  0
   -4.3281   22.8874  -27.1693 H   0  0  0  0  0  0  0  0  0  0  0  0
   -5.2751   22.4796  -28.6443 H   0  0  0  0  0  0  0  0  0  0  0  0
   -4.1288   21.3128  -30.2419 H   0  0  0  0  0  0  0  0  0  0  0  0
   -2.0508   20.8174  -31.5285 H   0  0  0  0  0  0  0  0  0  0  0  0
    0.0575   22.0488  -31.0226 H   0  0  0  0  0  0  0  0  0  0  0  0
    0.0954   23.7805  -29.2291 H   0  0  0  0  0  0  0  0  0  0  0  0
   -7.5640   23.5244  -29.1611 H   0  0  0  0  0  0  0  0  0  0  0  0
   -8.8558   21.6015  -30.0856 H   0  0  0  0  0  0  0  0  0  0  0  0
  1  2  1  0
  2  3  2  0
  3  4  1  0
  4  5  2  0
  5  6  1  0
  6  7  2  0
  6  8  2  0
  6  9  1  0
  9 10  1  0
 10 11  1  0
 11 12  2  0
 12 13  1  0
 13 14  2  0
 14 15  1  0
 15 16  2  0
 16 17  1  0
  5 18  1  0
 18 19  2  0
 19  2  1  0
 16 11  1  0
  1 20  1  0
  1 21  1  0
  1 22  1  0
  3 23  1  0
  4 24  1  0
  9 25  1  0
 10 26  1  0
 10 27  1  0
 12 28  1  0
 13 29  1  0
 14 30  1  0
 15 31  1  0
 18 32  1  0
 19 33  1  0
M  END
>  <UniqueID>  (4) 
4

>  <SMILES>  (4) 
Cc1ccc(S(=O)(=O)NCc2ccccc2Br)cc1

>  <Energy>  (4) 
30.438890618362134

>  <Genealogy>  (4) 
Cc1ccc(S(=O)(=O)NCc2ccccc2Br)cc1 (3D coordinates assigned)
Cc1ccc(S(=O)(=O)NCc2ccccc2Br)cc1 (optimized conformer: 30.438890618362134 kcal/mol)

>  <smiles>  (4) 
Cc1ccc(S(=O)(=O)NCc2ccccc2Br)cc1

>  <score_type>  (4) 
oracle

>  <origin>  (4) 
adg

>  <m_score__min__energy>  (4) 
-8.5399999999999991

>  <m_primary>  (4) 
energy

$$$$
4:0
     RDKit          3D

 62 65  0  0  0  0  0  0  0  0999 V2000
   -2.2390   24.6890  -28.9530 C   0  0  0  0  0  0  0  0  0  0  0  0
   -3.2610   23.9940  -28.0540 C   0  0  0  0  0  0  0  0  0  0  0  0
   -4.6040   23.7490  -28.7740 C   0  0  0  0  0  0  0  0  0  0  0  0
   -4.8100   24.6440  -30.0060 C   0  0  0  0  0  0  0  0  0  0  0  0
   -6.2510   25.1700  -30.1250 C   0  0  0  0  0  0  0  0  0  0  0  0
   -7.2280   24.0930  -30.6160 C   0  0  0  0  0  0  0  0  0  0  0  0
   -7.0370   23.7610  -32.1010 C   0  0  0  0  0  0  0  0  0  0  0  0
   -6.3060   22.5020  -32.2490 N   0  0  0  0  0  0  0  0  0  0  0  0
   -4.9630   22.3660  -32.3440 C   0  0  0  0  0  0  0  0  0  0  0  0
   -4.6220   21.0250  -32.4830 C   0  0  0  0  0  0  0  0  0  0  0  0
   -3.2480   20.4930  -32.5720 C   0  0  0  0  0  0  0  0  0  0  0  0
   -3.0710   19.3150  -32.9830 O   0  0  0  0  0  0  0  0  0  0  0  0
   -2.1120   21.2830  -32.1830 N   0  0  0  0  0  0  0  0  0  0  0  0
   -2.0950   21.9280  -30.8720 C   0  0  0  0  0  0  0  0  0  0  0  0
   -1.6260   20.9700  -29.8050 C   0  0  0  0  0  0  0  0  0  0  0  0
   -2.3890   20.8680  -28.6290 C   0  0  0  0  0  0  0  0  0  0  0  0
   -2.0510   19.9550  -27.6300 C   0  0  0  0  0  0  0  0  0  0  0  0
   -0.9460   19.1320  -27.7920 C   0  0  0  0  0  0  0  0  0  0  0  0
   -0.1610   19.2300  -28.9450 C   0  0  0  0  0  0  0  0  0  0  0  0
   -0.4670   20.1610  -29.9450 C   0  0  0  0  0  0  0  0  0  0  0  0
    0.3990   20.2080  -31.0560 O   0  0  0  0  0  0  0  0  0  0  0  0
    0.0320   20.0460  -32.4290 C   0  0  2  0  0  0  0  0  0  0  0  0
    1.2670   19.8050  -33.3030 C   0  0  0  0  0  0  0  0  0  0  0  0
   -0.8640   21.1900  -32.9390 C   0  0  0  0  0  0  0  0  0  0  0  0
   -5.8210   20.3280  -32.4650 C   0  0  0  0  0  0  0  0  0  0  0  0
   -6.1030   18.9590  -32.5130 C   0  0  0  0  0  0  0  0  0  0  0  0
   -7.4480   18.5560  -32.4580 C   0  0  0  0  0  0  0  0  0  0  0  0
   -8.4760   19.5150  -32.3390 C   0  0  0  0  0  0  0  0  0  0  0  0
   -8.1680   20.8840  -32.2690 C   0  0  0  0  0  0  0  0  0  0  0  0
   -6.8230   21.2600  -32.3310 C   0  0  0  0  0  0  0  0  0  0  0  0
   -1.4893   25.1988  -28.3300 H   0  0  0  0  0  0  0  0  0  0  0  0
   -1.7410   23.9415  -29.5880 H   0  0  0  0  0  0  0  0  0  0  0  0
   -2.7511   25.4269  -29.5880 H   0  0  0  0  0  0  0  0  0  0  0  0
   -2.8495   23.0254  -27.7337 H   0  0  0  0  0  0  0  0  0  0  0  0
   -3.4554   24.6521  -27.1943 H   0  0  0  0  0  0  0  0  0  0  0  0
   -4.6395   22.6981  -29.0970 H   0  0  0  0  0  0  0  0  0  0  0  0
   -5.4039   23.9924  -28.0593 H   0  0  0  0  0  0  0  0  0  0  0  0
   -4.1268   25.5031  -29.9348 H   0  0  0  0  0  0  0  0  0  0  0  0
   -4.6051   24.0333  -30.8977 H   0  0  0  0  0  0  0  0  0  0  0  0
   -6.5812   25.5225  -29.1367 H   0  0  0  0  0  0  0  0  0  0  0  0
   -6.2508   25.9848  -30.8640 H   0  0  0  0  0  0  0  0  0  0  0  0
   -7.0698   23.1778  -30.0266 H   0  0  0  0  0  0  0  0  0  0  0  0
   -8.2483   24.4839  -30.4891 H   0  0  0  0  0  0  0  0  0  0  0  0
   -8.0220   23.6676  -32.5817 H   0  0  0  0  0  0  0  0  0  0  0  0
   -6.4608   24.5679  -32.5773 H   0  0  0  0  0  0  0  0  0  0  0  0
   -4.2436   23.1976  -32.3154 H   0  0  0  0  0  0  0  0  0  0  0  0
   -1.4144   22.7916  -30.9046 H   0  0  0  0  0  0  0  0  0  0  0  0
   -3.1172   22.2524  -30.6274 H   0  0  0  0  0  0  0  0  0  0  0  0
   -3.2661   21.5181  -28.4944 H   0  0  0  0  0  0  0  0  0  0  0  0
   -2.6592   19.8878  -26.7159 H   0  0  0  0  0  0  0  0  0  0  0  0
   -0.6869   18.4010  -27.0120 H   0  0  0  0  0  0  0  0  0  0  0  0
    0.7082   18.5671  -29.0680 H   0  0  0  0  0  0  0  0  0  0  0  0
   -0.5901   19.1419  -32.5043 H   0  0  0  0  0  0  0  0  0  0  0  0
    2.1433   19.6340  -32.6604 H   0  0  0  0  0  0  0  0  0  0  0  0
    1.1002   18.9225  -33.9381 H   0  0  0  0  0  0  0  0  0  0  0  0
    1.4443   20.6855  -33.9381 H   0  0  0  0  0  0  0  0  0  0  0  0
   -0.3178   22.1399  -32.8420 H   0  0  0  0  0  0  0  0  0  0  0  0
   -1.1162   20.9833  -33.9895 H   0  0  0  0  0  0  0  0  0  0  0  0
   -5.2939   18.2179  -32.5917 H   0  0  0  0  0  0  0  0  0  0  0  0
   -7.7009   17.4866  -32.5080 H   0  0  0  0  0  0  0  0  0  0  0  0
   -9.5258   19.1886  -32.3008 H   0  0  0  0  0  0  0  0  0  0  0  0
   -8.9623   21.6383  -32.1683 H   0  0  0  0  0  0  0  0  0  0  0  0
  1  2  1  0
  2  3  1  0
  3  4  1  0
  4  5  1  0
  5  6  1  0
  6  7  1  0
  7  8  1  0
  8  9  1  0
  9 10  2  0
 10 11  1  0
 11 12  2  0
 11 13  1  0
 13 14  1  0
 14 15  1  0
 15 16  2  0
 16 17  1  0
 17 18  2  0
 18 19  1  0
 19 20  2  0
 20 21  1  0
 21 22  1  0
 22 23  1  0
 22 24  1  0
 10 25  1  0
 25 26  2  0
 26 27  1  0
 27 28  2  0
 28 29  1  0
 29 30  2  0
 30  8  1  0
 24 13  1  0
 30 25  1  0
 20 15  1  0
  1 31  1  0
  1 32  1  0
  1 33  1  0
  2 34  1  0
  2 35  1  0
  3 36  1  0
  3 37  1  0
  4 38  1  0
  4 39  1  0
  5 40  1  0
  5 41  1  0
  6 42  1  0
  6 43  1  0
  7 44  1  0
  7 45  1  0
  9 46  1  0
 14 47  1  0
 14 48  1  0
 16 49  1  0
 17 50  1  0
 18 51  1  0
 19 52  1  0
 22 53  1  1
 23 54  1  0
 23 55  1  0
 23 56  1  0
 24 57  1  0
 24 58  1  0
 26 59  1  0
 27 60  1  0
 28 61  1  0
 29 62  1  0
M  END
>  <UniqueID>  (5) 
5

>  <SMILES>  (5) 
CCCCCCCn1cc(C(=O)N2Cc3ccccc3O[C@H](C)C2)c2ccccc21

>  <Energy>  (5) 
101.91540143380254

>  <Genealogy>  (5) 
CCCCCCCn1cc(C(=O)N2Cc3ccccc3O[C@H](C)C2)c2ccccc21 (chirality)
CCCCCCCn1cc(C(=O)N2Cc3ccccc3O[C@H](C)C2)c2ccccc21 (3D coordinates assigned)
CCCCCCCn1cc(C(=O)N2Cc3ccccc3O[C@H](C)C2)c2ccccc21 (nonaromatic ring conformer: 101.91540143380254 kcal/mol)

>  <smiles>  (5) 
CCCCCCCn1cc(C(=O)N2Cc3ccccc3OC(C)C2)c2ccccc21

>  <score_type>  (5) 
oracle

>  <origin>  (5) 
adg

>  <m_score__min__energy>  (5) 
-7.6900000000000004

>  <m_primary>  (5) 
energy

$$$$
5:0
     RDKit          3D

 38 39  0  0  0  0  0  0  0  0999 V2000
   -8.7230   18.6330  -31.8970 C   0  0  0  0  0  0  0  0  0  0  0  0
   -7.3670   18.8830  -32.4880 C   0  0  0  0  0  0  0  0  0  0  0  0
   -6.8300   17.9860  -33.4230 C   0  0  0  0  0  0  0  0  0  0  0  0
   -5.5390   18.1860  -33.9370 C   0  0  0  0  0  0  0  0  0  0  0  0
   -4.9800   17.2380  -34.9580 C   0  0  0  0  0  0  0  0  0  0  0  0
   -4.7970   19.3050  -33.5310 C   0  0  0  0  0  0  0  0  0  0  0  0
   -5.3280   20.2130  -32.5980 C   0  0  0  0  0  0  0  0  0  0  0  0
   -4.5690   21.3440  -32.1380 N   0  0  0  0  0  0  0  0  0  0  0  0
   -3.4230   21.2510  -31.2780 C   0  0  0  0  0  0  0  0  0  0  0  0
   -2.8900   20.1350  -31.0340 O   0  0  0  0  0  0  0  0  0  0  0  0
   -2.8020   22.4960  -30.7360 C   0  0  0  0  0  0  0  0  0  0  0  0
   -3.5030   23.6250  -31.2420 O   0  0  0  0  0  0  0  0  0  0  0  0
   -4.3310   24.4210  -30.4470 C   0  0  0  0  0  0  0  0  0  0  0  0
   -4.2300   25.6780  -30.4670 O   0  0  0  0  0  0  0  0  0  0  0  0
   -5.3160   23.7660  -29.5340 C   0  0  0  0  0  0  0  0  0  0  0  0
   -6.5330   23.3670  -30.3040 C   0  0  0  0  0  0  0  0  0  0  0  0
   -7.5310   22.5070  -29.8620 C   0  0  0  0  0  0  0  0  0  0  0  0
   -8.5060   22.2510  -30.8330 C   0  0  0  0  0  0  0  0  0  0  0  0
   -8.2730   22.8960  -32.0420 C   0  0  0  0  0  0  0  0  0  0  0  0
   -6.8490   23.7790  -31.9040 S   0  0  0  0  0  0  0  0  0  0  0  0
   -6.6020   19.9770  -32.0600 C   0  0  0  0  0  0  0  0  0  0  0  0
   -8.6526   18.6460  -30.7993 H   0  0  0  0  0  0  0  0  0  0  0  0
   -9.4182   19.4181  -32.2292 H   0  0  0  0  0  0  0  0  0  0  0  0
   -9.0925   17.6516  -32.2292 H   0  0  0  0  0  0  0  0  0  0  0  0
   -7.4234   17.1214  -33.7552 H   0  0  0  0  0  0  0  0  0  0  0  0
   -4.4852   16.3989  -34.4471 H   0  0  0  0  0  0  0  0  0  0  0  0
   -5.7963   16.8540  -35.5875 H   0  0  0  0  0  0  0  0  0  0  0  0
   -4.2489   17.7664  -35.5875 H   0  0  0  0  0  0  0  0  0  0  0  0
   -3.7922   19.4734  -33.9456 H   0  0  0  0  0  0  0  0  0  0  0  0
   -4.8050   22.2850  -32.5280 H   0  0  0  0  0  0  0  0  0  0  0  0
   -2.8602   22.4884  -29.6376 H   0  0  0  0  0  0  0  0  0  0  0  0
   -1.7469   22.5473  -31.0429 H   0  0  0  0  0  0  0  0  0  0  0  0
   -4.8589   22.8720  -29.0847 H   0  0  0  0  0  0  0  0  0  0  0  0
   -5.6032   24.4735  -28.7422 H   0  0  0  0  0  0  0  0  0  0  0  0
   -7.5526   22.0718  -28.8520 H   0  0  0  0  0  0  0  0  0  0  0  0
   -9.3751   21.6004  -30.6559 H   0  0  0  0  0  0  0  0  0  0  0  0
   -8.9111   22.8385  -32.9361 H   0  0  0  0  0  0  0  0  0  0  0  0
   -7.0046   20.6570  -31.2948 H   0  0  0  0  0  0  0  0  0  0  0  0
  1  2  1  0
  2  3  2  0
  3  4  1  0
  4  5  1  0
  4  6  2  0
  6  7  1  0
  7  8  1  0
  8  9  1  0
  9 10  2  0
  9 11  1  0
 11 12  1  0
 12 13  1  0
 13 14  2  0
 13 15  1  0
 15 16  1  0
 16 17  2  0
 17 18  1  0
 18 19  2  0
 19 20  1  0
  7 21  2  0
 21  2  1  0
 20 16  1  0
  1 22  1  0
  1 23  1  0
  1 24  1  0
  3 25  1  0
  5 26  1  0
  5 27  1  0
  5 28  1  0
  6 29  1  0
  8 30  1  0
 11 31  1  0
 11 32  1  0
 15 33  1  0
 15 34  1  0
 17 35  1  0
 18 36  1  0
 19 37  1  0
 21 38  1  0
M  END
>  <UniqueID>  (6) 
6

>  <SMILES>  (6) 
Cc1cc(C)cc(NC(=O)COC(=O)Cc2cccs2)c1

>  <Energy>  (6) 
59.053812988014066

>  <Genealogy>  (6) 
Cc1cc(C)cc(NC(=O)COC(=O)Cc2cccs2)c1 (3D coordinates assigned)
Cc1cc(C)cc(NC(=O)COC(=O)Cc2cccs2)c1 (optimized conformer: 59.053812988014066 kcal/mol)

>  <smiles>  (6) 
Cc1cc(C)cc(NC(=O)COC(=O)Cc2cccs2)c1

>  <score_type>  (6) 
oracle

>  <origin>  (6) 
adg

>  <m_score__min__energy>  (6) 
-7.8899999999999997

>  <m_primary>  (6) 
energy

$$$$
6:0
     RDKit          3D

 50 53  0  0  0  0  0  0  0  0999 V2000
   -2.5060   24.6770  -27.2110 C   0  0  0  0  0  0  0  0  0  0  0  0
   -2.0580   25.0660  -28.5870 C   0  0  0  0  0  0  0  0  0  0  0  0
   -0.8920   25.5130  -28.7530 O   0  0  0  0  0  0  0  0  0  0  0  0
   -2.9230   24.9410  -29.7230 N   0  0  0  0  0  0  0  0  0  0  0  0
   -3.3480   23.6900  -30.2750 C   0  0  0  0  0  0  0  0  0  0  0  0
   -4.5950   23.6220  -30.9040 C   0  0  0  0  0  0  0  0  0  0  0  0
   -5.0560   22.4160  -31.4330 C   0  0  0  0  0  0  0  0  0  0  0  0
   -4.2700   21.2560  -31.3510 C   0  0  0  0  0  0  0  0  0  0  0  0
   -4.7530   20.0160  -31.9100 N   0  0  0  0  0  0  0  0  0  0  0  0
   -4.1710   19.5040  -33.1250 C   0  0  0  0  0  0  0  0  0  0  0  0
   -3.5000   20.2640  -33.8760 O   0  0  0  0  0  0  0  0  0  0  0  0
   -4.3640   18.0900  -33.4890 C   0  0  0  0  0  0  0  0  0  0  0  0
   -3.8150   17.5490  -34.6650 C   0  0  0  0  0  0  0  0  0  0  0  0
   -4.0030   16.1940  -34.9770 C   0  0  0  0  0  0  0  0  0  0  0  0
   -3.3850   15.6080  -36.2120 C   0  0  0  0  0  0  0  0  0  0  0  0
   -4.7140   15.3740  -34.0910 C   0  0  0  0  0  0  0  0  0  0  0  0
   -5.2600   15.9070  -32.9210 C   0  0  0  0  0  0  0  0  0  0  0  0
   -5.0960   17.2670  -32.6210 C   0  0  0  0  0  0  0  0  0  0  0  0
   -5.6650   17.8140  -31.4240 N   0  0  0  0  0  0  0  0  0  0  0  0
   -5.8060   19.2570  -31.2060 C   0  0  2  0  0  0  0  0  0  0  0  0
   -7.1900   19.6980  -31.6380 C   0  0  0  0  0  0  0  0  0  0  0  0
   -7.6520   20.9830  -31.2980 C   0  0  0  0  0  0  0  0  0  0  0  0
   -8.9310   21.3990  -31.6810 C   0  0  0  0  0  0  0  0  0  0  0  0
   -9.7630   20.5380  -32.3980 C   0  0  0  0  0  0  0  0  0  0  0  0
   -9.3210   19.2540  -32.7280 C   0  0  0  0  0  0  0  0  0  0  0  0
   -8.0440   18.8330  -32.3480 C   0  0  0  0  0  0  0  0  0  0  0  0
   -3.0030   21.3310  -30.7470 C   0  0  0  0  0  0  0  0  0  0  0  0
   -2.5300   22.5410  -30.2190 C   0  0  0  0  0  0  0  0  0  0  0  0
   -1.2060   22.5960  -29.6740 N   0  0  0  0  0  0  0  0  0  0  0  0
   -1.8965   25.2062  -26.4637 H   0  0  0  0  0  0  0  0  0  0  0  0
   -3.5640   24.9478  -27.0796 H   0  0  0  0  0  0  0  0  0  0  0  0
   -2.3863   23.5915  -27.0796 H   0  0  0  0  0  0  0  0  0  0  0  0
   -5.2170   24.5258  -30.9823 H   0  0  0  0  0  0  0  0  0  0  0  0
   -6.0425   22.3740  -31.9178 H   0  0  0  0  0  0  0  0  0  0  0  0
   -3.2351   18.1914  -35.3440 H   0  0  0  0  0  0  0  0  0  0  0  0
   -2.6144   14.8773  -35.9251 H   0  0  0  0  0  0  0  0  0  0  0  0
   -4.1617   15.1068  -36.8082 H   0  0  0  0  0  0  0  0  0  0  0  0
   -2.9257   16.4102  -36.8082 H   0  0  0  0  0  0  0  0  0  0  0  0
   -4.8429   14.3054  -34.3178 H   0  0  0  0  0  0  0  0  0  0  0  0
   -5.8206   15.2576  -32.2325 H   0  0  0  0  0  0  0  0  0  0  0  0
   -6.1490   17.1730  -30.7550 H   0  0  0  0  0  0  0  0  0  0  0  0
   -5.6835   19.4681  -30.1334 H   0  0  0  0  0  0  0  0  0  0  0  0
   -7.0033   21.6642  -30.7277 H   0  0  0  0  0  0  0  0  0  0  0  0
   -9.2821   22.4073  -31.4165 H   0  0  0  0  0  0  0  0  0  0  0  0
  -10.7663   20.8699  -32.7033 H   0  0  0  0  0  0  0  0  0  0  0  0
   -9.9795   18.5736  -33.2879 H   0  0  0  0  0  0  0  0  0  0  0  0
   -7.7038   17.8191  -32.6053 H   0  0  0  0  0  0  0  0  0  0  0  0
   -2.3750   20.4298  -30.6878 H   0  0  0  0  0  0  0  0  0  0  0  0
   -0.6750   21.7180  -29.4770 H   0  0  0  0  0  0  0  0  0  0  0  0
   -0.7200   23.5030  -29.5050 H   0  0  0  0  0  0  0  0  0  0  0  0
  1  2  1  0
  2  3  2  0
  2  4  1  0
  4  5  1  0
  5  6  2  0
  6  7  1  0
  7  8  2  0
  8  9  1  0
  9 10  1  0
 10 11  2  0
 10 12  1  0
 12 13  2  0
 13 14  1  0
 14 15  1  0
 14 16  2  0
 16 17  1  0
 17 18  2  0
 18 19  1  0
 19 20  1  0
 20 21  1  0
 21 22  2  0
 22 23  1  0
 23 24  2  0
 24 25  1  0
 25 26  2  0
  8 27  1  0
 27 28  2  0
 28 29  1  0
 28  5  1  0
 20  9  1  0
 26 21  1  0
 18 12  1  0
  1 30  1  0
  1 31  1  0
  1 32  1  0
  6 33  1  0
  7 34  1  0
 13 35  1  0
 15 36  1  0
 15 37  1  0
 15 38  1  0
 16 39  1  0
 17 40  1  0
 19 41  1  0
 20 42  1  1
 22 43  1  0
 23 44  1  0
 24 45  1  0
 25 46  1  0
 26 47  1  0
 27 48  1  0
 29 49  1  0
 29 50  1  0
M  CHG  1   4  -1
M  END
>  <UniqueID>  (7) 
7

>  <SMILES>  (7) 
CC(=O)[N-]c1ccc(N2C(=O)c3cc(C)ccc3N[C@@H]2c2ccccc2)cc1N

>  <Energy>  (7) 
66.16185031591056

>  <Genealogy>  (7) 
CC(=O)[N-]c1ccc(N2C(=O)c3cc(C)ccc3NC2c2ccccc2)cc1N (protonated)
CC(=O)[N-]c1ccc(N2C(=O)c3cc(C)ccc3N[C@@H]2c2ccccc2)cc1N (chirality)
CC(=O)[N-]c1ccc(N2C(=O)c3cc(C)ccc3N[C@@H]2c2ccccc2)cc1N (3D coordinates assigned)
CC(=O)[N-]c1ccc(N2C(=O)c3cc(C)ccc3N[C@@H]2c2ccccc2)cc1N (nonaromatic ring conformer: 66.16185031591056 kcal/mol)

>  <smiles>  (7) 
CC(=O)Nc1ccc(N2C(=O)c3cc(C)ccc3NC2c2ccccc2)cc1N

>  <score_type>  (7) 
oracle

>  <origin>  (7) 
adg

>  <m_score__min__energy>  (7) 
-10.31

>  <m_primary>  (7) 
energy

$$$$
7:0
     RDKit          3D

 31 32  0  0  0  0  0  0  0  0999 V2000
   -2.9720   24.6910  -27.1040 C   0  0  0  0  0  0  0  0  0  0  0  0
   -4.1420   24.3060  -27.8840 N   0  0  0  0  0  0  0  0  0  0  0  0
   -4.1750   24.4520  -29.3110 C   0  0  0  0  0  0  0  0  0  0  0  0
   -3.1740   24.9220  -29.9170 O   0  0  0  0  0  0  0  0  0  0  0  0
   -5.3660   24.0570  -30.0840 C   0  0  0  0  0  0  0  0  0  0  0  0
   -6.5980   24.7090  -30.0690 C   0  0  0  0  0  0  0  0  0  0  0  0
   -7.5490   24.1500  -30.8650 N   0  0  0  0  0  0  0  0  0  0  0  0
   -7.0800   23.0640  -31.5200 C   0  0  0  0  0  0  0  0  0  0  0  0
   -7.8440   22.2700  -32.3820 O   0  0  0  0  0  0  0  0  0  0  0  0
   -7.9080   20.8700  -32.3460 C   0  0  0  0  0  0  0  0  0  0  0  0
   -8.9520   20.1820  -31.7020 C   0  0  0  0  0  0  0  0  0  0  0  0
   -8.9740   18.7840  -31.6950 C   0  0  0  0  0  0  0  0  0  0  0  0
   -7.9690   18.0630  -32.3410 C   0  0  0  0  0  0  0  0  0  0  0  0
   -6.9400   18.7360  -33.0170 C   0  0  0  0  0  0  0  0  0  0  0  0
   -5.8400   17.9580  -33.6950 C   0  0  0  0  0  0  0  0  0  0  0  0
   -5.7230   18.3340  -35.1020 N   0  0  0  0  0  0  0  0  0  0  0  0
   -6.9140   20.1400  -33.0110 C   0  0  0  0  0  0  0  0  0  0  0  0
   -5.4810   22.7390  -31.1290 S   0  0  0  0  0  0  0  0  0  0  0  0
   -3.2048   24.6144  -26.0316 H   0  0  0  0  0  0  0  0  0  0  0  0
   -2.1335   24.0214  -27.3459 H   0  0  0  0  0  0  0  0  0  0  0  0
   -2.6950   25.7277  -27.3459 H   0  0  0  0  0  0  0  0  0  0  0  0
   -4.9680   23.9170  -27.3780 H   0  0  0  0  0  0  0  0  0  0  0  0
   -6.7865   25.6059  -29.4607 H   0  0  0  0  0  0  0  0  0  0  0  0
   -9.7537   20.7455  -31.2023 H   0  0  0  0  0  0  0  0  0  0  0  0
   -9.7860   18.2509  -31.1787 H   0  0  0  0  0  0  0  0  0  0  0  0
   -7.9835   16.9633  -32.3202 H   0  0  0  0  0  0  0  0  0  0  0  0
   -4.8868   18.1656  -33.1868 H   0  0  0  0  0  0  0  0  0  0  0  0
   -6.0821   16.8865  -33.6377 H   0  0  0  0  0  0  0  0  0  0  0  0
   -4.8890   18.9550  -35.2170 H   0  0  0  0  0  0  0  0  0  0  0  0
   -6.5700   18.8850  -35.3750 H   0  0  0  0  0  0  0  0  0  0  0  0
   -6.1053   20.6719  -33.5335 H   0  0  0  0  0  0  0  0  0  0  0  0
  1  2  1  0
  2  3  1  0
  3  4  2  0
  3  5  1  0
  5  6  2  0
  6  7  1  0
  7  8  2  0
  8  9  1  0
  9 10  1  0
 10 11  2  0
 11 12  1  0
 12 13  2  0
 13 14  1  0
 14 15  1  0
 15 16  1  0
 14 17  2  0
  8 18  1  0
 18  5  1  0
 17 10  1  0
  1 19  1  0
  1 20  1  0
  1 21  1  0
  2 22  1  0
  6 23  1  0
 11 24  1  0
 12 25  1  0
 13 26  1  0
 15 27  1  0
 15 28  1  0
 16 29  1  0
 16 30  1  0
 17 31  1  0
M  END
>  <UniqueID>  (8) 
8

>  <SMILES>  (8) 
CNC(=O)c1cnc(Oc2cccc(CN)c2)s1

>  <Energy>  (8) 
60.97865083291111

>  <Genealogy>  (8) 
CNC(=O)c1cnc(Oc2cccc(CN)c2)s1 (3D coordinates assigned)
CNC(=O)c1cnc(Oc2cccc(CN)c2)s1 (optimized conformer: 60.97865083291111 kcal/mol)

>  <smiles>  (8) 
CNC(=O)c1cnc(Oc2cccc(CN)c2)s1

>  <score_type>  (8) 
oracle

>  <origin>  (8) 
adg

>  <m_score__min__energy>  (8) 
-7.0700000000000003

>  <m_primary>  (8) 
energy

$$$$
8:0
     RDKit          3D

 27 28  0  0  0  0  0  0  0  0999 V2000
   -8.7220   22.0820  -30.9650 O   0  0  0  0  0  0  0  0  0  0  0  0
   -7.5130   22.1000  -31.3270 C   0  0  0  0  0  0  0  0  0  0  0  0
   -6.9760   20.9860  -32.0600 N   0  0  0  0  0  0  0  0  0  0  0  0
   -7.7520   19.7750  -32.3170 C   0  0  0  0  0  0  0  0  0  0  0  0
   -6.9290   18.7890  -33.0930 C   0  0  0  0  0  0  0  0  0  0  0  0
   -7.2520   17.4220  -33.0960 C   0  0  0  0  0  0  0  0  0  0  0  0
   -6.4760   16.5380  -33.8470 C   0  0  0  0  0  0  0  0  0  0  0  0
   -5.3940   17.0190  -34.5880 C   0  0  0  0  0  0  0  0  0  0  0  0
   -5.1040   18.3850  -34.5660 C   0  0  0  0  0  0  0  0  0  0  0  0
   -5.8710   19.2320  -33.8280 N   0  0  0  0  0  0  0  0  0  0  0  0
   -6.6780   23.2810  -31.0030 C   0  0  0  0  0  0  0  0  0  0  0  0
   -7.1590   24.2670  -30.1240 C   0  0  0  0  0  0  0  0  0  0  0  0
   -6.3710   25.3780  -29.8150 C   0  0  0  0  0  0  0  0  0  0  0  0
   -5.1010   25.4940  -30.3790 C   0  0  0  0  0  0  0  0  0  0  0  0
   -4.6380   24.5280  -31.2150 N   0  0  0  0  0  0  0  0  0  0  0  0
   -5.3850   23.4380  -31.5360 C   0  0  0  0  0  0  0  0  0  0  0  0
   -6.0260   21.0500  -32.4850 H   0  0  0  0  0  0  0  0  0  0  0  0
   -8.0512   19.3247  -31.3590 H   0  0  0  0  0  0  0  0  0  0  0  0
   -8.6452   20.0378  -32.9028 H   0  0  0  0  0  0  0  0  0  0  0  0
   -8.1079   17.0520  -32.5124 H   0  0  0  0  0  0  0  0  0  0  0  0
   -6.7160   15.4645  -33.8554 H   0  0  0  0  0  0  0  0  0  0  0  0
   -4.7769   16.3292  -35.1825 H   0  0  0  0  0  0  0  0  0  0  0  0
   -4.2549   18.7761  -35.1457 H   0  0  0  0  0  0  0  0  0  0  0  0
   -8.1592   24.1632  -29.6781 H   0  0  0  0  0  0  0  0  0  0  0  0
   -6.7487   26.1542  -29.1332 H   0  0  0  0  0  0  0  0  0  0  0  0
   -4.4739   26.3675  -30.1471 H   0  0  0  0  0  0  0  0  0  0  0  0
   -4.9767   22.6754  -32.2155 H   0  0  0  0  0  0  0  0  0  0  0  0
  1  2  2  0
  2  3  1  0
  3  4  1  0
  4  5  1  0
  5  6  2  0
  6  7  1  0
  7  8  2  0
  8  9  1  0
  9 10  2  0
  2 11  1  0
 11 12  2  0
 12 13  1  0
 13 14  2  0
 14 15  1  0
 15 16  2  0
 10  5  1  0
 16 11  1  0
  3 17  1  0
  4 18  1  0
  4 19  1  0
  6 20  1  0
  7 21  1  0
  8 22  1  0
  9 23  1  0
 12 24  1  0
 13 25  1  0
 14 26  1  0
 16 27  1  0
M  END
>  <UniqueID>  (9) 
9

>  <SMILES>  (9) 
O=C(NCc1ccccn1)c1cccnc1

>  <Energy>  (9) 
29.174026439341446

>  <Genealogy>  (9) 
O=C(NCc1ccccn1)c1cccnc1 (3D coordinates assigned)
O=C(NCc1ccccn1)c1cccnc1 (optimized conformer: 29.174026439341446 kcal/mol)

>  <smiles>  (9) 
O=C(NCc1ccccn1)c1cccnc1

>  <score_type>  (9) 
oracle

>  <origin>  (9) 
adg

>  <m_score__min__energy>  (9) 
-6.3300000000000001

>  <m_primary>  (9) 
energy

$$$$
9:0
     RDKit          3D

 36 38  0  0  0  0  0  0  0  0999 V2000
   -0.6100   24.1050  -25.8510 F   0  0  0  0  0  0  0  0  0  0  0  0
   -1.3770   24.2080  -26.9630 C   0  0  0  0  0  0  0  0  0  0  0  0
   -2.4480   23.3760  -27.2060 C   0  0  0  0  0  0  0  0  0  0  0  0
   -3.1610   23.5420  -28.3340 N   0  0  0  0  0  0  0  0  0  0  0  0
   -2.9100   24.4680  -29.2580 C   0  0  0  0  0  0  0  0  0  0  0  0
   -3.5730   24.6400  -30.3300 N   0  0  0  0  0  0  0  0  0  0  0  0
   -4.5830   23.7290  -30.7470 C   0  0  0  0  0  0  0  0  0  0  0  0
   -4.2450   22.6650  -31.5610 C   0  0  0  0  0  0  0  0  0  0  0  0
   -5.2130   21.7730  -31.9740 C   0  0  0  0  0  0  0  0  0  0  0  0
   -6.5440   21.8830  -31.6130 C   0  0  0  0  0  0  0  0  0  0  0  0
   -7.5460   20.9760  -32.0290 N   0  0  0  0  0  0  0  0  0  0  0  0
   -8.8460   20.9690  -31.3690 C   0  0  0  0  0  0  0  0  0  0  0  0
   -9.8300   20.3780  -32.3820 C   0  0  0  0  0  0  0  0  0  0  0  0
   -9.5040   19.0100  -32.6940 N   0  0  0  0  0  0  0  0  0  0  0  0
   -8.0960   18.7440  -32.6700 C   0  0  0  0  0  0  0  0  0  0  0  0
   -7.3600   20.0210  -33.0990 C   0  0  0  0  0  0  0  0  0  0  0  0
   -6.8750   22.9480  -30.8020 C   0  0  0  0  0  0  0  0  0  0  0  0
   -5.9050   23.8600  -30.3740 C   0  0  0  0  0  0  0  0  0  0  0  0
   -1.8590   25.2950  -29.0360 N   0  0  0  0  0  0  0  0  0  0  0  0
   -1.1130   25.1770  -27.9280 C   0  0  0  0  0  0  0  0  0  0  0  0
   -2.7160   22.5873  -26.4876 H   0  0  0  0  0  0  0  0  0  0  0  0
   -3.2013   22.5288  -31.8806 H   0  0  0  0  0  0  0  0  0  0  0  0
   -4.9125   20.9353  -32.6205 H   0  0  0  0  0  0  0  0  0  0  0  0
   -8.8111   20.3471  -30.4624 H   0  0  0  0  0  0  0  0  0  0  0  0
   -9.1460   21.9808  -31.0588 H   0  0  0  0  0  0  0  0  0  0  0  0
  -10.8450   20.4168  -31.9597 H   0  0  0  0  0  0  0  0  0  0  0  0
   -9.7701   20.9683  -33.3082 H   0  0  0  0  0  0  0  0  0  0  0  0
   -9.9190   18.7410  -33.6050 H   0  0  0  0  0  0  0  0  0  0  0  0
   -7.7878   18.4603  -31.6529 H   0  0  0  0  0  0  0  0  0  0  0  0
   -7.8535   17.9173  -33.3540 H   0  0  0  0  0  0  0  0  0  0  0  0
   -6.2893   19.8135  -33.2424 H   0  0  0  0  0  0  0  0  0  0  0  0
   -7.7515   20.4070  -34.0517 H   0  0  0  0  0  0  0  0  0  0  0  0
   -7.9201   23.0826  -30.4862 H   0  0  0  0  0  0  0  0  0  0  0  0
   -6.2019   24.6986  -29.7270 H   0  0  0  0  0  0  0  0  0  0  0  0
   -1.6060   26.0530  -29.7310 H   0  0  0  0  0  0  0  0  0  0  0  0
   -0.2683   25.8652  -27.7769 H   0  0  0  0  0  0  0  0  0  0  0  0
  1  2  1  0
  2  3  1  0
  3  4  2  0
  4  5  1  0
  5  6  2  3
  6  7  1  0
  7  8  2  0
  8  9  1  0
  9 10  2  0
 10 11  1  0
 11 12  1  0
 12 13  1  0
 13 14  1  0
 14 15  1  0
 15 16  1  0
 10 17  1  0
 17 18  2  0
  5 19  1  0
 19 20  1  0
 20  2  2  0
 18  7  1  0
 16 11  1  0
  3 21  1  0
  8 22  1  0
  9 23  1  0
 12 24  1  0
 12 25  1  0
 13 26  1  0
 13 27  1  0
 14 28  1  0
 15 29  1  0
 15 30  1  0
 16 31  1  0
 16 32  1  0
 17 33  1  0
 18 34  1  0
 19 35  1  0
 20 36  1  0
M  END
>  <smiles>  (10) 
Fc1cnc(=Nc2ccc(N3CCNCC3)cc2)[nH]c1

>  <score_type>  (10) 
oracle

>  <origin>  (10) 
adg

>  <m_score__min__energy>  (10) 
-7.6399999999999997

>  <m_primary>  (10) 
energy

$$$$
10:0
     RDKit          3D

 18 19  0  0  0  0  0  0  0  0999 V2000
   -8.6320   22.4030  -31.4450 F   0  0  0  0  0  0  0  0  0  0  0  0
   -7.5100   21.8430  -31.9610 C   0  0  0  0  0  0  0  0  0  0  0  0
   -7.6300   20.6350  -32.6560 C   0  0  0  0  0  0  0  0  0  0  0  0
   -6.5040   20.0210  -33.2040 C   0  0  0  0  0  0  0  0  0  0  0  0
   -5.2500   20.6140  -33.0590 C   0  0  0  0  0  0  0  0  0  0  0  0
   -5.1130   21.8210  -32.3660 C   0  0  0  0  0  0  0  0  0  0  0  0
   -3.8740   22.3610  -32.2490 F   0  0  0  0  0  0  0  0  0  0  0  0
   -6.2450   22.4550  -31.8050 C   0  0  0  0  0  0  0  0  0  0  0  0
   -6.1130   23.7030  -31.0880 N   0  0  0  0  0  0  0  0  0  0  0  0
   -5.1460   24.5840  -31.2990 N   0  0  0  0  0  0  0  0  0  0  0  0
   -5.3630   25.6010  -30.4470 C   0  0  0  0  0  0  0  0  0  0  0  0
   -6.4910   25.3020  -29.7180 C   0  0  0  0  0  0  0  0  0  0  0  0
   -6.9440   24.1070  -30.1370 N   0  0  0  0  0  0  0  0  0  0  0  0
   -8.6185   20.1664  -32.7710 H   0  0  0  0  0  0  0  0  0  0  0  0
   -6.6047   19.0711  -33.7494 H   0  0  0  0  0  0  0  0  0  0  0  0
   -4.3629   20.1292  -33.4926 H   0  0  0  0  0  0  0  0  0  0  0  0
   -4.7493   26.5087  -30.3501 H   0  0  0  0  0  0  0  0  0  0  0  0
   -6.9413   25.9279  -28.9335 H   0  0  0  0  0  0  0  0  0  0  0  0
  1  2  1  0
  2  3  2  0
  3  4  1  0
  4  5  2  0
  5  6  1  0
  6  7  1  0
  6  8  2  0
  8  9  1  0
  9 10  1  0
 10 11  2  0
 11 12  1  0
 12 13  2  0
  8  2  1  0
 13  9  1  0
  3 14  1  0
  4 15  1  0
  5 16  1  0
 11 17  1  0
 12 18  1  0
M  END
>  <UniqueID>  (11) 
10

>  <SMILES>  (11) 
Fc1cccc(F)c1-n1nccn1

>  <Energy>  (11) 
55.48350484369819

>  <Genealogy>  (11) 
Fc1cccc(F)c1-n1nccn1 (3D coordinates assigned)
Fc1cccc(F)c1-n1nccn1 (optimized conformer: 55.48350484369819 kcal/mol)

>  <smiles>  (11) 
Fc1cccc(F)c1-n1nccn1

>  <score_type>  (11) 
oracle

>  <origin>  (11) 
adg

>  <m_score__min__energy>  (11) 
-5.0300000000000002

>  <m_primary>  (11) 
energy

$$$$
11:0
     RDKit          3D

 65 69  0  0  0  0  0  0  0  0999 V2000
   -3.8700   25.6090  -30.7850 O   0  0  0  0  0  0  0  0  0  0  0  0
   -4.6750   24.7690  -30.3070 C   0  0  0  0  0  0  0  0  0  0  0  0
   -5.8810   25.2100  -29.7740 O   0  0  0  0  0  0  0  0  0  0  0  0
   -4.3190   23.3310  -30.2460 C   0  0  0  0  0  0  0  0  0  0  0  0
   -3.4070   22.7870  -29.2820 C   0  0  0  0  0  0  0  0  0  0  0  0
   -2.7090   23.7650  -28.3030 C   0  0  2  0  0  0  0  0  0  0  0  0
   -3.5970   24.5630  -27.3280 C   0  0  0  0  0  0  0  0  0  0  0  0
   -2.7210   25.2490  -26.2650 C   0  0  0  0  0  0  0  0  0  0  0  0
   -1.4380   25.8540  -26.8770 C   0  0  0  0  0  0  0  0  0  0  0  0
   -1.5580   25.9960  -28.3370 N   0  0  0  0  0  0  0  0  0  0  0  0
   -1.6570   24.6780  -28.9890 C   0  0  0  0  0  0  0  0  0  0  0  0
   -3.2300   21.4050  -29.2700 N   0  0  0  0  0  0  0  0  0  0  0  0
   -2.3750   20.6490  -28.3380 C   0  0  0  0  0  0  0  0  0  0  0  0
   -1.3060   21.5070  -27.7120 C   0  0  0  0  0  0  0  0  0  0  0  0
   -0.2120   21.9490  -28.4720 C   0  0  0  0  0  0  0  0  0  0  0  0
    0.7800   22.7400  -27.8880 C   0  0  0  0  0  0  0  0  0  0  0  0
    0.7150   23.0780  -26.5250 C   0  0  0  0  0  0  0  0  0  0  0  0
    1.7610   23.9320  -25.9070 C   0  0  0  0  0  0  0  0  0  0  0  0
    2.8730   24.3610  -26.6570 C   0  0  0  0  0  0  0  0  0  0  0  0
    3.8530   25.1680  -26.0720 C   0  0  0  0  0  0  0  0  0  0  0  0
    3.7360   25.5560  -24.7350 C   0  0  0  0  0  0  0  0  0  0  0  0
    2.6380   25.1370  -23.9810 C   0  0  0  0  0  0  0  0  0  0  0  0
    1.6550   24.3300  -24.5610 C   0  0  0  0  0  0  0  0  0  0  0  0
   -0.3540   22.5880  -25.7540 C   0  0  0  0  0  0  0  0  0  0  0  0
   -1.3460   21.7980  -26.3400 C   0  0  0  0  0  0  0  0  0  0  0  0
   -3.8730   20.6350  -30.1540 N   0  0  0  0  0  0  0  0  0  0  0  0
   -4.7140   21.1150  -31.0910 C   0  0  0  0  0  0  0  0  0  0  0  0
   -5.5720   19.9650  -32.1730 S   0  0  0  0  0  0  0  0  0  0  0  0
   -4.3900   20.1430  -33.5600 C   0  0  0  0  0  0  0  0  0  0  0  0
   -2.9690   20.1920  -33.0670 C   0  0  0  0  0  0  0  0  0  0  0  0
   -2.3540   19.0310  -32.5720 C   0  0  0  0  0  0  0  0  0  0  0  0
   -1.0520   19.0850  -32.0650 C   0  0  0  0  0  0  0  0  0  0  0  0
   -0.3580   20.2990  -32.0430 C   0  0  0  0  0  0  0  0  0  0  0  0
   -0.9640   21.4590  -32.5330 C   0  0  0  0  0  0  0  0  0  0  0  0
   -2.2640   21.4080  -33.0450 C   0  0  0  0  0  0  0  0  0  0  0  0
   -4.9410   22.4780  -31.1660 C   0  0  0  0  0  0  0  0  0  0  0  0
   -5.7290   22.9360  -32.0400 O   0  0  0  0  0  0  0  0  0  0  0  0
   -2.1874   23.0554  -27.6439 H   0  0  0  0  0  0  0  0  0  0  0  0
   -4.1578   25.3266  -27.8869 H   0  0  0  0  0  0  0  0  0  0  0  0
   -4.2984   23.8762  -26.8316 H   0  0  0  0  0  0  0  0  0  0  0  0
   -3.3022   26.0536  -25.7908 H   0  0  0  0  0  0  0  0  0  0  0  0
   -2.4211   24.4887  -25.5287 H   0  0  0  0  0  0  0  0  0  0  0  0
   -1.2624   26.8453  -26.4337 H   0  0  0  0  0  0  0  0  0  0  0  0
   -0.5979   25.1773  -26.6617 H   0  0  0  0  0  0  0  0  0  0  0  0
   -0.6930   26.4690  -28.6910 H   0  0  0  0  0  0  0  0  0  0  0  0
   -1.9451   24.8232  -30.0406 H   0  0  0  0  0  0  0  0  0  0  0  0
   -0.6767   24.1855  -28.9083 H   0  0  0  0  0  0  0  0  0  0  0  0
   -3.0060   20.2324  -27.5391 H   0  0  0  0  0  0  0  0  0  0  0  0
   -1.8739   19.8557  -28.9121 H   0  0  0  0  0  0  0  0  0  0  0  0
   -0.1354   21.6709  -29.5335 H   0  0  0  0  0  0  0  0  0  0  0  0
    1.6195   23.1017  -28.4999 H   0  0  0  0  0  0  0  0  0  0  0  0
    2.9711   24.0590  -27.7102 H   0  0  0  0  0  0  0  0  0  0  0  0
    4.7182   25.4983  -26.6656 H   0  0  0  0  0  0  0  0  0  0  0  0
    4.5083   26.1911  -24.2766 H   0  0  0  0  0  0  0  0  0  0  0  0
    2.5464   25.4426  -22.9283 H   0  0  0  0  0  0  0  0  0  0  0  0
    0.7925   24.0037  -23.9613 H   0  0  0  0  0  0  0  0  0  0  0  0
   -0.4095   22.8284  -24.6820 H   0  0  0  0  0  0  0  0  0  0  0  0
   -2.1644   21.4012  -25.7213 H   0  0  0  0  0  0  0  0  0  0  0  0
   -4.5038   19.2855  -34.2396 H   0  0  0  0  0  0  0  0  0  0  0  0
   -4.6082   21.0863  -34.0822 H   0  0  0  0  0  0  0  0  0  0  0  0
   -2.8985   18.0753  -32.5831 H   0  0  0  0  0  0  0  0  0  0  0  0
   -0.5730   18.1714  -31.6830 H   0  0  0  0  0  0  0  0  0  0  0  0
    0.6647   20.3408  -31.6401 H   0  0  0  0  0  0  0  0  0  0  0  0
   -0.4175   22.4135  -32.5159 H   0  0  0  0  0  0  0  0  0  0  0  0
   -2.7368   22.3227  -33.4320 H   0  0  0  0  0  0  0  0  0  0  0  0
  1  2  2  0
  2  3  1  0
  2  4  1  0
  4  5  2  0
  5  6  1  0
  6  7  1  0
  7  8  1  0
  8  9  1  0
  9 10  1  0
 10 11  1  0
  5 12  1  0
 12 13  1  0
 13 14  1  0
 14 15  2  0
 15 16  1  0
 16 17  2  0
 17 18  1  0
 18 19  2  0
 19 20  1  0
 20 21  2  0
 21 22  1  0
 22 23  2  0
 17 24  1  0
 24 25  2  0
 12 26  1  0
 26 27  2  0
 27 28  1  0
 28 29  1  0
 29 30  1  0
 30 31  2  0
 31 32  1  0
 32 33  2  0
 33 34  1  0
 34 35  2  0
 27 36  1  0
 36 37  2  0
 36  4  1  0
 11  6  1  0
 25 14  1  0
 35 30  1  0
 23 18  1  0
  6 38  1  1
  7 39  1  0
  7 40  1  0
  8 41  1  0
  8 42  1  0
  9 43  1  0
  9 44  1  0
 10 45  1  0
 11 46  1  0
 11 47  1  0
 13 48  1  0
 13 49  1  0
 15 50  1  0
 16 51  1  0
 19 52  1  0
 20 53  1  0
 21 54  1  0
 22 55  1  0
 23 56  1  0
 24 57  1  0
 25 58  1  0
 29 59  1  0
 29 60  1  0
 31 61  1  0
 32 62  1  0
 33 63  1  0
 34 64  1  0
 35 65  1  0
M  CHG  1   3  -1
M  END
>  <UniqueID>  (12) 
11

>  <SMILES>  (12) 
O=C([O-])c1c([C@@H]2CCCNC2)n(Cc2ccc(-c3ccccc3)cc2)nc(SCc2ccccc2)c1=O

>  <Energy>  (12) 
97.96103845216884

>  <Genealogy>  (12) 
O=C([O-])c1c(C2CCCNC2)n(Cc2ccc(-c3ccccc3)cc2)nc(SCc2ccccc2)c1=O (protonated)
O=C([O-])c1c([C@@H]2CCCNC2)n(Cc2ccc(-c3ccccc3)cc2)nc(SCc2ccccc2)c1=O (chirality)
O=C([O-])c1c([C@@H]2CCCNC2)n(Cc2ccc(-c3ccccc3)cc2)nc(SCc2ccccc2)c1=O (3D coordinates assigned)
O=C([O-])c1c([C@@H]2CCCNC2)n(Cc2ccc(-c3ccccc3)cc2)nc(SCc2ccccc2)c1=O (nonaromatic ring conformer: 97.96103845216884 kcal/mol)

>  <smiles>  (12) 
O=C(O)c1c(C2CCCNC2)n(Cc2ccc(-c3ccccc3)cc2)nc(SCc2ccccc2)c1=O

>  <score_type>  (12) 
oracle

>  <origin>  (12) 
adg

>  <m_score__min__energy>  (12) 
-11.369999999999999

>  <m_primary>  (12) 
energy

$$$$
12:0
     RDKit          3D

 41 43  0  0  0  0  0  0  0  0999 V2000
   -5.9940   24.5550  -29.5700 C   0  0  0  0  0  0  0  0  0  0  0  0
   -4.3110   24.0910  -29.9520 S   0  0  0  0  0  0  0  0  0  0  0  0
   -4.2240   23.7320  -31.4090 O   0  0  0  0  0  0  0  0  0  0  0  0
   -3.4480   25.2980  -29.7190 O   0  0  0  0  0  0  0  0  0  0  0  0
   -3.6920   22.7820  -28.9560 N   0  0  0  0  0  0  0  0  0  0  0  0
   -3.8460   21.4790  -29.5880 C   0  0  0  0  0  0  0  0  0  0  0  0
   -3.0510   20.5210  -28.7330 C   0  0  0  0  0  0  0  0  0  0  0  0
   -1.9330   21.3660  -28.1390 C   0  0  0  0  0  0  0  0  0  0  0  0
   -2.3140   22.8500  -28.4130 C   0  0  1  0  0  0  0  0  0  0  0  0
   -1.2880   23.4860  -29.3980 C   0  0  0  0  0  0  0  0  0  0  0  0
    0.1410   23.5840  -28.8210 C   0  0  0  0  0  0  0  0  0  0  0  0
    0.1980   23.5310  -27.2870 C   0  0  0  0  0  0  0  0  0  0  0  0
   -0.9970   24.1410  -26.6860 N   0  0  0  0  0  0  0  0  0  0  0  0
   -0.8580   25.1700  -25.6750 C   0  0  0  0  0  0  0  0  0  0  0  0
   -0.2220   24.9190  -24.4440 C   0  0  0  0  0  0  0  0  0  0  0  0
   -0.1230   25.9110  -23.5190 N   0  0  0  0  0  0  0  0  0  0  0  0
   -0.6290   27.1490  -23.7590 C   0  0  0  0  0  0  0  0  0  0  0  0
   -1.2600   27.4070  -24.9740 C   0  0  0  0  0  0  0  0  0  0  0  0
   -1.3600   26.4170  -25.8980 N   0  0  0  0  0  0  0  0  0  0  0  0
   -2.3350   23.6750  -27.0970 C   0  0  0  0  0  0  0  0  0  0  0  0
   -6.1256   24.5913  -28.4785 H   0  0  0  0  0  0  0  0  0  0  0  0
   -6.2075   25.5455  -29.9982 H   0  0  0  0  0  0  0  0  0  0  0  0
   -6.6849   23.8138  -29.9982 H   0  0  0  0  0  0  0  0  0  0  0  0
   -4.9059   21.1854  -29.6109 H   0  0  0  0  0  0  0  0  0  0  0  0
   -3.4934   21.4859  -30.6299 H   0  0  0  0  0  0  0  0  0  0  0  0
   -3.6812   20.0974  -27.9372 H   0  0  0  0  0  0  0  0  0  0  0  0
   -2.6648   19.6696  -29.3126 H   0  0  0  0  0  0  0  0  0  0  0  0
   -1.8541   21.1867  -27.0566 H   0  0  0  0  0  0  0  0  0  0  0  0
   -0.9604   21.1138  -28.5867 H   0  0  0  0  0  0  0  0  0  0  0  0
   -1.2539   22.8716  -30.3098 H   0  0  0  0  0  0  0  0  0  0  0  0
   -1.6267   24.5130  -29.5992 H   0  0  0  0  0  0  0  0  0  0  0  0
    0.7332   22.7467  -29.2187 H   0  0  0  0  0  0  0  0  0  0  0  0
    0.5401   24.5640  -29.1216 H   0  0  0  0  0  0  0  0  0  0  0  0
    0.2634   22.4806  -26.9671 H   0  0  0  0  0  0  0  0  0  0  0  0
    1.0810   24.0956  -26.9530 H   0  0  0  0  0  0  0  0  0  0  0  0
    0.1937   23.9231  -24.2311 H   0  0  0  0  0  0  0  0  0  0  0  0
    0.3520   25.7200  -22.6090 H   0  0  0  0  0  0  0  0  0  0  0  0
   -0.5412   27.9408  -23.0004 H   0  0  0  0  0  0  0  0  0  0  0  0
   -1.6738   28.4045  -25.1831 H   0  0  0  0  0  0  0  0  0  0  0  0
   -2.7481   23.0452  -26.2953 H   0  0  0  0  0  0  0  0  0  0  0  0
   -2.9522   24.5673  -27.2785 H   0  0  0  0  0  0  0  0  0  0  0  0
  1  2  1  0
  2  3  2  0
  2  4  2  0
  2  5  1  0
  5  6  1  0
  6  7  1  0
  7  8  1  0
  8  9  1  0
  9 10  1  0
 10 11  1  0
 11 12  1  0
 12 13  1  0
 13 14  1  0
 14 15  2  0
 15 16  1  0
 16 17  2  0
 17 18  1  0
 18 19  2  0
 13 20  1  0
  9  5  1  6
 19 14  1  0
 20  9  1  0
  1 21  1  0
  1 22  1  0
  1 23  1  0
  6 24  1  0
  6 25  1  0
  7 26  1  0
  7 27  1  0
  8 28  1  0
  8 29  1  0
 10 30  1  0
 10 31  1  0
 11 32  1  0
 11 33  1  0
 12 34  1  0
 12 35  1  0
 15 36  1  0
 16 37  1  0
 17 38  1  0
 18 39  1  0
 20 40  1  0
 20 41  1  0
M  CHG  1  16   1
M  END
>  <UniqueID>  (13) 
12

>  <SMILES>  (13) 
CS(=O)(=O)N1CCC[C@@]12CCCN(c1c[nH+]ccn1)C2

>  <Energy>  (13) 
56.78434415847692

>  <Genealogy>  (13) 
CS(=O)(=O)N1CCCC12CCCN(c1c[nH+]ccn1)C2 (protonated)
CS(=O)(=O)N1CCC[C@@]12CCCN(c1c[nH+]ccn1)C2 (chirality)
CS(=O)(=O)N1CCC[C@@]12CCCN(c1c[nH+]ccn1)C2 (3D coordinates assigned)
CS(=O)(=O)N1CCC[C@@]12CCCN(c1c[nH+]ccn1)C2 (nonaromatic ring conformer: 56.78434415847692 kcal/mol)

>  <smiles>  (13) 
CS(=O)(=O)N1CCCC12CCCN(c1cnccn1)C2

>  <score_type>  (13) 
oracle

>  <origin>  (13) 
adg

>  <m_score__min__energy>  (13) 
-7.2400000000000002

>  <m_primary>  (13) 
energy

$$$$
13:0
     RDKit          3D

 39 41  0  0  0  0  0  0  0  0999 V2000
   -9.4810   21.8490  -31.4130 C   0  0  0  0  0  0  0  0  0  0  0  0
   -8.5620   20.7370  -31.8440 C   0  0  0  0  0  0  0  0  0  0  0  0
   -8.9530   19.4040  -31.6230 C   0  0  0  0  0  0  0  0  0  0  0  0
   -8.1390   18.3490  -32.0420 C   0  0  0  0  0  0  0  0  0  0  0  0
   -6.9290   18.6100  -32.6840 C   0  0  0  0  0  0  0  0  0  0  0  0
   -6.5190   19.9290  -32.8940 C   0  0  0  0  0  0  0  0  0  0  0  0
   -7.3110   20.9980  -32.4540 C   0  0  0  0  0  0  0  0  0  0  0  0
   -6.8440   22.3380  -32.6700 N   0  0  0  0  0  0  0  0  0  0  0  0
   -5.8740   22.9890  -31.8320 C   0  0  0  0  0  0  0  0  0  0  0  0
   -4.5270   22.5830  -31.8150 C   0  0  0  0  0  0  0  0  0  0  0  0
   -3.6020   23.2350  -30.9960 C   0  0  0  0  0  0  0  0  0  0  0  0
   -4.0070   24.3020  -30.1750 C   0  0  0  0  0  0  0  0  0  0  0  0
   -3.0670   25.0030  -29.3430 N   0  0  0  0  0  0  0  0  0  0  0  0
   -2.0870   24.3610  -28.5080 C   0  0  0  0  0  0  0  0  0  0  0  0
   -1.0310   23.6130  -29.0600 C   0  0  0  0  0  0  0  0  0  0  0  0
   -0.1060   22.9760  -28.2270 C   0  0  0  0  0  0  0  0  0  0  0  0
   -0.2360   23.0670  -26.8390 C   0  0  0  0  0  0  0  0  0  0  0  0
   -1.2940   23.7890  -26.2820 C   0  0  0  0  0  0  0  0  0  0  0  0
   -2.2210   24.4270  -27.1120 C   0  0  0  0  0  0  0  0  0  0  0  0
   -5.3400   24.7330  -30.2240 C   0  0  0  0  0  0  0  0  0  0  0  0
   -6.2660   24.0800  -31.0430 C   0  0  0  0  0  0  0  0  0  0  0  0
   -9.5157   21.8910  -30.3143 H   0  0  0  0  0  0  0  0  0  0  0  0
   -9.1071   22.8064  -31.8049 H   0  0  0  0  0  0  0  0  0  0  0  0
  -10.4917   21.6621  -31.8049 H   0  0  0  0  0  0  0  0  0  0  0  0
   -9.9061   19.1910  -31.1169 H   0  0  0  0  0  0  0  0  0  0  0  0
   -8.4533   17.3098  -31.8651 H   0  0  0  0  0  0  0  0  0  0  0  0
   -6.2969   17.7769  -33.0253 H   0  0  0  0  0  0  0  0  0  0  0  0
   -5.5677   20.1298  -33.4084 H   0  0  0  0  0  0  0  0  0  0  0  0
   -7.1530   22.8220  -33.5440 H   0  0  0  0  0  0  0  0  0  0  0  0
   -4.2002   21.7469  -32.4507 H   0  0  0  0  0  0  0  0  0  0  0  0
   -2.5506   22.9117  -30.9934 H   0  0  0  0  0  0  0  0  0  0  0  0
   -3.1010   26.0470  -29.3410 H   0  0  0  0  0  0  0  0  0  0  0  0
   -0.9325   23.5288  -30.1523 H   0  0  0  0  0  0  0  0  0  0  0  0
    0.7245   22.4029  -28.6649 H   0  0  0  0  0  0  0  0  0  0  0  0
    0.4951   22.5699  -26.1845 H   0  0  0  0  0  0  0  0  0  0  0  0
   -1.3981   23.8558  -25.1890 H   0  0  0  0  0  0  0  0  0  0  0  0
   -3.0598   24.9837  -26.6687 H   0  0  0  0  0  0  0  0  0  0  0  0
   -5.6596   25.5907  -29.6140 H   0  0  0  0  0  0  0  0  0  0  0  0
   -7.3103   24.4247  -31.0687 H   0  0  0  0  0  0  0  0  0  0  0  0
  1  2  1  0
  2  3  2  0
  3  4  1  0
  4  5  2  0
  5  6  1  0
  6  7  2  0
  7  8  1  0
  8  9  1  0
  9 10  2  0
 10 11  1  0
 11 12  2  0
 12 13  1  0
 13 14  1  0
 14 15  2  0
 15 16  1  0
 16 17  2  0
 17 18  1  0
 18 19  2  0
 12 20  1  0
 20 21  2  0
  7  2  1  0
 21  9  1  0
 19 14  1  0
  1 22  1  0
  1 23  1  0
  1 24  1  0
  3 25  1  0
  4 26  1  0
  5 27  1  0
  6 28  1  0
  8 29  1  0
 10 30  1  0
 11 31  1  0
 13 32  1  0
 15 33  1  0
 16 34  1  0
 17 35  1  0
 18 36  1  0
 19 37  1  0
 20 38  1  0
 21 39  1  0
M  END
>  <UniqueID>  (14) 
13

>  <SMILES>  (14) 
Cc1ccccc1Nc1ccc(Nc2ccccc2)cc1

>  <Energy>  (14) 
53.75855119008426

>  <Genealogy>  (14) 
Cc1ccccc1Nc1ccc(Nc2ccccc2)cc1 (3D coordinates assigned)
Cc1ccccc1Nc1ccc(Nc2ccccc2)cc1 (optimized conformer: 53.75855119008426 kcal/mol)

>  <smiles>  (14) 
Cc1ccccc1Nc1ccc(Nc2ccccc2)cc1

>  <score_type>  (14) 
oracle

>  <origin>  (14) 
adg

>  <m_score__min__energy>  (14) 
-8.8100000000000005

>  <m_primary>  (14) 
energy

$$$$
14:0
     RDKit          3D

 31 32  0  0  0  0  0  0  0  0999 V2000
   -3.7810   25.6780  -31.5930 H   0  0  0  0  0  0  0  0  0  0  0  0
   -4.3400   25.1650  -30.8780 N   0  0  0  0  0  0  0  0  0  0  0  0
   -5.0030   24.0800  -31.1340 C   0  0  0  0  0  0  0  0  0  0  0  0
   -6.3340   24.1020  -31.3900 N   0  0  0  0  0  0  0  0  0  0  0  0
   -6.6040   22.8060  -31.6420 C   0  0  0  0  0  0  0  0  0  0  0  0
   -5.4820   22.0480  -31.5470 C   0  0  0  0  0  0  0  0  0  0  0  0
   -5.5340   20.6880  -31.8410 C   0  0  0  0  0  0  0  0  0  0  0  0
   -4.4910   19.9800  -31.8030 O   0  0  0  0  0  0  0  0  0  0  0  0
   -6.7490   20.1400  -32.1890 N   0  0  0  0  0  0  0  0  0  0  0  0
   -6.8340   18.7110  -32.5330 C   0  0  0  0  0  0  0  0  0  0  0  0
   -6.8696   18.1132  -31.6103 H   0  0  0  0  0  0  0  0  0  0  0  0
   -7.7445   18.5294  -33.1229 H   0  0  0  0  0  0  0  0  0  0  0  0
   -5.9514   18.4227  -33.1229 H   0  0  0  0  0  0  0  0  0  0  0  0
   -7.8720   20.9420  -32.2970 C   0  0  0  0  0  0  0  0  0  0  0  0
   -8.9650   20.4420  -32.6840 O   0  0  0  0  0  0  0  0  0  0  0  0
   -7.8100   22.2850  -31.9980 N   0  0  0  0  0  0  0  0  0  0  0  0
   -8.9870   23.1510  -32.1430 C   0  0  0  0  0  0  0  0  0  0  0  0
   -9.3634   23.4279  -31.1472 H   0  0  0  0  0  0  0  0  0  0  0  0
   -8.7074   24.0603  -32.6952 H   0  0  0  0  0  0  0  0  0  0  0  0
   -9.7719   22.6135  -32.6952 H   0  0  0  0  0  0  0  0  0  0  0  0
   -4.4440   22.8380  -31.2030 N   0  0  0  0  0  0  0  0  0  0  0  0
   -3.0320   22.4680  -31.0370 C   0  0  0  0  0  0  0  0  0  0  0  0
   -2.9444   21.3719  -31.0087 H   0  0  0  0  0  0  0  0  0  0  0  0
   -2.4537   22.8688  -31.8825 H   0  0  0  0  0  0  0  0  0  0  0  0
   -2.4830   23.0530  -29.7340 C   0  0  0  0  0  0  0  0  0  0  0  0
   -1.4752   22.6496  -29.5565 H   0  0  0  0  0  0  0  0  0  0  0  0
   -2.4518   24.1483  -29.8307 H   0  0  0  0  0  0  0  0  0  0  0  0
   -3.3760   22.6990  -28.5490 C   0  0  0  0  0  0  0  0  0  0  0  0
   -2.8417   22.9108  -27.6111 H   0  0  0  0  0  0  0  0  0  0  0  0
   -4.2961   23.3004  -28.5907 H   0  0  0  0  0  0  0  0  0  0  0  0
   -3.6341   21.6305  -28.5907 H   0  0  0  0  0  0  0  0  0  0  0  0
  1  2  1  0
  2  3  2  0
  3  4  1  0
  4  5  1  0
  5  6  2  0
  6  7  1  0
  7  8  2  0
  7  9  1  0
  9 10  1  0
 10 11  1  0
 10 12  1  0
 10 13  1  0
  9 14  1  0
 14 15  2  0
 14 16  1  0
 16 17  1  0
 17 18  1  0
 17 19  1  0
 17 20  1  0
  6 21  1  0
 21 22  1  0
 22 23  1  0
 22 24  1  0
 22 25  1  0
 25 26  1  0
 25 27  1  0
 25 28  1  0
 28 29  1  0
 28 30  1  0
 28 31  1  0
 21  3  1  0
 16  5  1  0
M  CHG  1   4  -1
M  END
>  <UniqueID>  (15) 
14

>  <SMILES>  (15) 
[H]/N=c1/[n-]c2c(c(=O)n(C)c(=O)n2C)n1CCC

>  <Energy>  (15) 
73.0919744853287

>  <Genealogy>  (15) 
CCCn1c(=N)[n-]c2c1c(=O)n(C)c(=O)n2C (protonated)
[H]/N=c1/[n-]c2c(c(=O)n(C)c(=O)n2C)n1CCC (cis-trans isomerization)
[H]/N=c1/[n-]c2c(c(=O)n(C)c(=O)n2C)n1CCC (3D coordinates assigned)
[H]/N=c1/[n-]c2c(c(=O)n(C)c(=O)n2C)n1CCC (optimized conformer: 73.0919744853287 kcal/mol)

>  <smiles>  (15) 
CCCn1c(=N)[nH]c2c1c(=O)n(C)c(=O)n2C

>  <score_type>  (15) 
oracle

>  <origin>  (15) 
adg

>  <m_score__min__energy>  (15) 
-6.4900000000000002

>  <m_primary>  (15) 
energy

$$$$
15:0
     RDKit          3D

 42 44  0  0  0  0  0  0  0  0999 V2000
   -4.1840   25.5460  -30.8520 O   0  0  0  0  0  0  0  0  0  0  0  0
   -3.7030   24.9220  -29.8680 C   0  0  0  0  0  0  0  0  0  0  0  0
   -4.4850   23.8050  -29.2320 C   0  0  0  0  0  0  0  0  0  0  0  0
   -4.8430   22.7330  -30.1860 N   0  0  0  0  0  0  0  0  0  0  0  0
   -3.8840   22.6000  -31.2970 C   0  0  0  0  0  0  0  0  0  0  0  0
   -4.1170   21.2600  -31.9950 C   0  0  0  0  0  0  0  0  0  0  0  0
   -5.5490   21.0330  -32.2200 N   0  0  0  0  0  0  0  0  0  0  0  0
   -5.9980   19.7840  -32.7640 C   0  0  0  0  0  0  0  0  0  0  0  0
   -5.2740   19.1780  -33.8020 C   0  0  0  0  0  0  0  0  0  0  0  0
   -5.6780   17.9370  -34.3110 C   0  0  0  0  0  0  0  0  0  0  0  0
   -6.8060   17.3000  -33.7900 C   0  0  0  0  0  0  0  0  0  0  0  0
   -7.5330   17.9000  -32.7560 C   0  0  0  0  0  0  0  0  0  0  0  0
   -7.1300   19.1350  -32.2380 C   0  0  0  0  0  0  0  0  0  0  0  0
   -7.8190   19.6720  -31.2020 F   0  0  0  0  0  0  0  0  0  0  0  0
   -6.5130   22.1130  -31.9840 C   0  0  0  0  0  0  0  0  0  0  0  0
   -6.2580   22.8070  -30.6310 C   0  0  0  0  0  0  0  0  0  0  0  0
   -2.4240   25.2820  -29.3360 N   0  0  0  0  0  0  0  0  0  0  0  0
   -1.8780   24.8300  -28.0890 C   0  0  0  0  0  0  0  0  0  0  0  0
   -1.4510   23.5010  -27.9790 C   0  0  0  0  0  0  0  0  0  0  0  0
   -0.8750   23.0380  -26.7920 C   0  0  0  0  0  0  0  0  0  0  0  0
   -0.7070   23.9070  -25.7100 C   0  0  0  0  0  0  0  0  0  0  0  0
   -1.1140   25.2390  -25.8140 C   0  0  0  0  0  0  0  0  0  0  0  0
   -0.8470   26.4360  -24.3470 Br  0  0  0  0  0  0  0  0  0  0  0  0
   -1.6900   25.7040  -27.0020 C   0  0  0  0  0  0  0  0  0  0  0  0
   -3.8785   23.3678  -28.4252 H   0  0  0  0  0  0  0  0  0  0  0  0
   -5.4240   24.2352  -28.8535 H   0  0  0  0  0  0  0  0  0  0  0  0
   -4.0335   23.4207  -32.0140 H   0  0  0  0  0  0  0  0  0  0  0  0
   -2.8557   22.6440  -30.9088 H   0  0  0  0  0  0  0  0  0  0  0  0
   -3.5955   21.2621  -32.9635 H   0  0  0  0  0  0  0  0  0  0  0  0
   -3.7285   20.4554  -31.3533 H   0  0  0  0  0  0  0  0  0  0  0  0
   -4.3869   19.6787  -34.2171 H   0  0  0  0  0  0  0  0  0  0  0  0
   -5.1057   17.4636  -35.1224 H   0  0  0  0  0  0  0  0  0  0  0  0
   -7.1231   16.3266  -34.1924 H   0  0  0  0  0  0  0  0  0  0  0  0
   -8.4239   17.3990  -32.3494 H   0  0  0  0  0  0  0  0  0  0  0  0
   -6.4230   22.8559  -32.7902 H   0  0  0  0  0  0  0  0  0  0  0  0
   -7.5233   21.6783  -31.9658 H   0  0  0  0  0  0  0  0  0  0  0  0
   -6.5389   23.8664  -30.7244 H   0  0  0  0  0  0  0  0  0  0  0  0
   -6.8626   22.2806  -29.8777 H   0  0  0  0  0  0  0  0  0  0  0  0
   -1.5695   22.8167  -28.8320 H   0  0  0  0  0  0  0  0  0  0  0  0
   -0.5538   21.9892  -26.7096 H   0  0  0  0  0  0  0  0  0  0  0  0
   -0.2542   23.5417  -24.7765 H   0  0  0  0  0  0  0  0  0  0  0  0
   -1.9970   26.7569  -27.0864 H   0  0  0  0  0  0  0  0  0  0  0  0
  1  2  2  0
  2  3  1  0
  3  4  1  0
  4  5  1  0
  5  6  1  0
  6  7  1  0
  7  8  1  0
  8  9  2  0
  9 10  1  0
 10 11  2  0
 11 12  1  0
 12 13  2  0
 13 14  1  0
  7 15  1  0
 15 16  1  0
  2 17  1  0
 17 18  1  0
 18 19  2  0
 19 20  1  0
 20 21  2  0
 21 22  1  0
 22 23  1  0
 22 24  2  0
 16  4  1  0
 24 18  1  0
 13  8  1  0
  3 25  1  0
  3 26  1  0
  5 27  1  0
  5 28  1  0
  6 29  1  0
  6 30  1  0
  9 31  1  0
 10 32  1  0
 11 33  1  0
 12 34  1  0
 15 35  1  0
 15 36  1  0
 16 37  1  0
 16 38  1  0
 19 39  1  0
 20 40  1  0
 21 41  1  0
 24 42  1  0
M  CHG  1  17  -1
M  END
>  <UniqueID>  (16) 
15

>  <SMILES>  (16) 
O=C(CN1CCN(c2ccccc2F)CC1)[N-]c1cccc(Br)c1

>  <Energy>  (16) 
59.18413809647212

>  <Genealogy>  (16) 
O=C(CN1CCN(c2ccccc2F)CC1)[N-]c1cccc(Br)c1 (protonated)
O=C(CN1CCN(c2ccccc2F)CC1)[N-]c1cccc(Br)c1 (3D coordinates assigned)
O=C(CN1CCN(c2ccccc2F)CC1)[N-]c1cccc(Br)c1 (nonaromatic ring conformer: 59.18413809647212 kcal/mol)

>  <smiles>  (16) 
O=C(CN1CCN(c2ccccc2F)CC1)Nc1cccc(Br)c1

>  <score_type>  (16) 
oracle

>  <origin>  (16) 
adg

>  <m_score__min__energy>  (16) 
-10.32

>  <m_primary>  (16) 
energy

$$$$
16:0
     RDKit          3D

 46 49  0  0  0  0  0  0  0  0999 V2000
   -1.2340   21.3770  -26.4410 C   0  0  0  0  0  0  0  0  0  0  0  0
   -0.4030   22.5320  -26.4770 O   0  0  0  0  0  0  0  0  0  0  0  0
   -0.7280   23.7660  -25.8910 C   0  0  0  0  0  0  0  0  0  0  0  0
   -0.2140   24.1560  -24.6390 C   0  0  0  0  0  0  0  0  0  0  0  0
   -0.5330   25.4060  -24.1010 C   0  0  0  0  0  0  0  0  0  0  0  0
   -1.3600   26.2810  -24.8050 C   0  0  0  0  0  0  0  0  0  0  0  0
   -1.8800   25.9060  -26.0450 C   0  0  0  0  0  0  0  0  0  0  0  0
   -1.5790   24.6480  -26.5900 C   0  0  0  0  0  0  0  0  0  0  0  0
   -2.1320   24.2720  -27.8620 N   0  0  0  0  0  0  0  0  0  0  0  0
   -3.5910   24.1810  -28.0100 C   0  0  0  0  0  0  0  0  0  0  0  0
   -4.0050   24.0760  -29.4820 C   0  0  0  0  0  0  0  0  0  0  0  0
   -3.1710   23.0840  -30.1780 N   0  0  0  0  0  0  0  0  0  0  0  0
   -3.7380   22.1840  -31.1510 C   0  0  0  0  0  0  0  0  0  0  0  0
   -4.9950   21.6980  -31.0630 N   0  0  0  0  0  0  0  0  0  0  0  0
   -5.3050   20.8560  -32.0890 C   0  0  0  0  0  0  0  0  0  0  0  0
   -6.6440   20.2120  -32.1830 C   0  0  0  0  0  0  0  0  0  0  0  0
   -7.8320   20.9700  -32.2420 C   0  0  0  0  0  0  0  0  0  0  0  0
   -9.0760   20.3360  -32.3220 C   0  0  0  0  0  0  0  0  0  0  0  0
   -9.1550   18.9440  -32.3410 C   0  0  0  0  0  0  0  0  0  0  0  0
   -7.9890   18.1790  -32.2790 C   0  0  0  0  0  0  0  0  0  0  0  0
   -6.7420   18.8060  -32.2010 C   0  0  0  0  0  0  0  0  0  0  0  0
   -4.2660   20.6630  -33.0080 C   0  0  0  0  0  0  0  0  0  0  0  0
   -2.9470   21.5790  -32.5080 S   0  0  0  0  0  0  0  0  0  0  0  0
   -1.7170   23.0560  -29.9550 C   0  0  0  0  0  0  0  0  0  0  0  0
   -1.2590   24.1950  -29.0370 C   0  0  0  0  0  0  0  0  0  0  0  0
   -1.4328   21.1008  -25.3950 H   0  0  0  0  0  0  0  0  0  0  0  0
   -2.1848   21.5934  -26.9501 H   0  0  0  0  0  0  0  0  0  0  0  0
   -0.7267   20.5443  -26.9501 H   0  0  0  0  0  0  0  0  0  0  0  0
    0.4427   23.4724  -24.0810 H   0  0  0  0  0  0  0  0  0  0  0  0
   -0.1309   25.7002  -23.1203 H   0  0  0  0  0  0  0  0  0  0  0  0
   -1.6027   27.2673  -24.3828 H   0  0  0  0  0  0  0  0  0  0  0  0
   -2.5294   26.6004  -26.5982 H   0  0  0  0  0  0  0  0  0  0  0  0
   -3.9489   23.2894  -27.4744 H   0  0  0  0  0  0  0  0  0  0  0  0
   -4.0362   25.0962  -27.5926 H   0  0  0  0  0  0  0  0  0  0  0  0
   -5.0596   23.7689  -29.5412 H   0  0  0  0  0  0  0  0  0  0  0  0
   -3.8702   25.0564  -29.9622 H   0  0  0  0  0  0  0  0  0  0  0  0
   -7.7796   22.0686  -32.2250 H   0  0  0  0  0  0  0  0  0  0  0  0
   -9.9956   20.9377  -32.3701 H   0  0  0  0  0  0  0  0  0  0  0  0
  -10.1353   18.4491  -32.4048 H   0  0  0  0  0  0  0  0  0  0  0  0
   -8.0515   17.0809  -32.2915 H   0  0  0  0  0  0  0  0  0  0  0  0
   -5.8279   18.1959  -32.1532 H   0  0  0  0  0  0  0  0  0  0  0  0
   -4.3057   20.0232  -33.9019 H   0  0  0  0  0  0  0  0  0  0  0  0
   -1.4463   22.0954  -29.4925 H   0  0  0  0  0  0  0  0  0  0  0  0
   -1.2197   23.1807  -30.9282 H   0  0  0  0  0  0  0  0  0  0  0  0
   -0.2252   24.0074  -28.7114 H   0  0  0  0  0  0  0  0  0  0  0  0
   -1.3092   25.1458  -29.5878 H   0  0  0  0  0  0  0  0  0  0  0  0
  1  2  1  0
  2  3  1  0
  3  4  2  0
  4  5  1  0
  5  6  2  0
  6  7  1  0
  7  8  2  0
  8  9  1  0
  9 10  1  0
 10 11  1  0
 11 12  1  0
 12 13  1  0
 13 14  2  0
 14 15  1  0
 15 16  1  0
 16 17  2  0
 17 18  1  0
 18 19  2  0
 19 20  1  0
 20 21  2  0
 15 22  2  0
 22 23  1  0
 12 24  1  0
 24 25  1  0
  8  3  1  0
 25  9  1  0
 23 13  1  0
 21 16  1  0
  1 26  1  0
  1 27  1  0
  1 28  1  0
  4 29  1  0
  5 30  1  0
  6 31  1  0
  7 32  1  0
 10 33  1  0
 10 34  1  0
 11 35  1  0
 11 36  1  0
 17 37  1  0
 18 38  1  0
 19 39  1  0
 20 40  1  0
 21 41  1  0
 22 42  1  0
 24 43  1  0
 24 44  1  0
 25 45  1  0
 25 46  1  0
M  END
>  <UniqueID>  (17) 
16

>  <SMILES>  (17) 
COc1ccccc1N1CCN(c2nc(-c3ccccc3)cs2)CC1

>  <Energy>  (17) 
86.04367727332075

>  <Genealogy>  (17) 
COc1ccccc1N1CCN(c2nc(-c3ccccc3)cs2)CC1 (3D coordinates assigned)
COc1ccccc1N1CCN(c2nc(-c3ccccc3)cs2)CC1 (nonaromatic ring conformer: 86.04367727332075 kcal/mol)

>  <smiles>  (17) 
COc1ccccc1N1CCN(c2nc(-c3ccccc3)cs2)CC1

>  <score_type>  (17) 
oracle

>  <origin>  (17) 
adg

>  <m_score__min__energy>  (17) 
-8.1400000000000006

>  <m_primary>  (17) 
energy

$$$$
17:0
     RDKit          3D

 52 54  0  0  0  0  0  0  0  0999 V2000
   -1.7940   19.9250  -26.4280 C   0  0  0  0  0  0  0  0  0  0  0  0
   -2.7070   19.8540  -27.6480 C   0  0  0  0  0  0  0  0  0  0  0  0
   -2.4550   20.9870  -28.5470 N   0  0  0  0  0  0  0  0  0  0  0  0
   -1.6250   20.9980  -29.6160 C   0  0  0  0  0  0  0  0  0  0  0  0
   -0.7470   19.8580  -30.0330 C   0  0  0  0  0  0  0  0  0  0  0  0
   -1.6380   22.2390  -30.2240 C   0  0  0  0  0  0  0  0  0  0  0  0
   -2.5130   23.0190  -29.4930 C   0  0  0  0  0  0  0  0  0  0  0  0
   -2.7680   24.4540  -29.7260 C   0  0  0  0  0  0  0  0  0  0  0  0
   -1.9740   25.3060  -29.2490 O   0  0  0  0  0  0  0  0  0  0  0  0
   -3.8970   24.9000  -30.4870 N   0  0  0  0  0  0  0  0  0  0  0  0
   -5.0510   24.0990  -30.7730 C   0  0  0  0  0  0  0  0  0  0  0  0
   -5.8880   23.6290  -29.7460 C   0  0  0  0  0  0  0  0  0  0  0  0
   -6.9800   22.8130  -30.0450 C   0  0  0  0  0  0  0  0  0  0  0  0
   -7.2470   22.4480  -31.3710 C   0  0  0  0  0  0  0  0  0  0  0  0
   -8.5800   21.3490  -31.7390 S   0  0  0  0  0  0  0  0  0  0  0  0
   -9.1580   20.8270  -30.4530 O   0  0  0  0  0  0  0  0  0  0  0  0
   -9.6600   22.1100  -32.4580 O   0  0  0  0  0  0  0  0  0  0  0  0
   -8.0620   20.0110  -32.7440 N   0  0  0  0  0  0  0  0  0  0  0  0
   -6.6170   20.1040  -33.0700 C   0  0  0  0  0  0  0  0  0  0  0  0
   -5.7800   19.1110  -32.2450 C   0  0  0  0  0  0  0  0  0  0  0  0
   -6.1560   17.7580  -32.4570 O   0  0  0  0  0  0  0  0  0  0  0  0
   -7.5540   17.5790  -32.6650 C   0  0  0  0  0  0  0  0  0  0  0  0
   -8.4270   18.7220  -32.1150 C   0  0  0  0  0  0  0  0  0  0  0  0
   -6.4390   22.9520  -32.4000 C   0  0  0  0  0  0  0  0  0  0  0  0
   -5.3540   23.7840  -32.1020 C   0  0  0  0  0  0  0  0  0  0  0  0
   -3.0270   22.2130  -28.4840 C   0  0  0  0  0  0  0  0  0  0  0  0
   -4.0560   22.6210  -27.4670 C   0  0  0  0  0  0  0  0  0  0  0  0
   -2.4015   19.8778  -25.5122 H   0  0  0  0  0  0  0  0  0  0  0  0
   -1.0914   19.0788  -26.4460 H   0  0  0  0  0  0  0  0  0  0  0  0
   -1.2307   20.8697  -26.4460 H   0  0  0  0  0  0  0  0  0  0  0  0
   -2.5170   18.9146  -28.1879 H   0  0  0  0  0  0  0  0  0  0  0  0
   -3.7535   19.8936  -27.3113 H   0  0  0  0  0  0  0  0  0  0  0  0
   -0.3560   19.3503  -29.1390 H   0  0  0  0  0  0  0  0  0  0  0  0
   -1.3317   19.1453  -30.6331 H   0  0  0  0  0  0  0  0  0  0  0  0
    0.0914   20.2414  -30.6331 H   0  0  0  0  0  0  0  0  0  0  0  0
   -1.0659   22.5446  -31.1125 H   0  0  0  0  0  0  0  0  0  0  0  0
   -5.6812   23.9057  -28.7016 H   0  0  0  0  0  0  0  0  0  0  0  0
   -7.6338   22.4549  -29.2361 H   0  0  0  0  0  0  0  0  0  0  0  0
   -8.5980   20.0900  -33.6400 H   0  0  0  0  0  0  0  0  0  0  0  0
   -6.4783   19.8845  -34.1389 H   0  0  0  0  0  0  0  0  0  0  0  0
   -6.2767   21.1217  -32.8279 H   0  0  0  0  0  0  0  0  0  0  0  0
   -4.7222   19.2285  -32.5230 H   0  0  0  0  0  0  0  0  0  0  0  0
   -5.9531   19.3380  -31.1827 H   0  0  0  0  0  0  0  0  0  0  0  0
   -7.7339   17.4980  -33.7472 H   0  0  0  0  0  0  0  0  0  0  0  0
   -7.8409   16.6704  -32.1153 H   0  0  0  0  0  0  0  0  0  0  0  0
   -9.4838   18.5032  -32.3279 H   0  0  0  0  0  0  0  0  0  0  0  0
   -8.2634   18.8001  -31.0300 H   0  0  0  0  0  0  0  0  0  0  0  0
   -6.6589   22.6923  -33.4460 H   0  0  0  0  0  0  0  0  0  0  0  0
   -4.7368   24.1920  -32.9160 H   0  0  0  0  0  0  0  0  0  0  0  0
   -3.6547   22.4619  -26.4552 H   0  0  0  0  0  0  0  0  0  0  0  0
   -4.3021   23.6847  -27.6008 H   0  0  0  0  0  0  0  0  0  0  0  0
   -4.9642   22.0149  -27.6008 H   0  0  0  0  0  0  0  0  0  0  0  0
  1  2  1  0
  2  3  1  0
  3  4  1  0
  4  5  1  0
  4  6  2  0
  6  7  1  0
  7  8  1  0
  8  9  2  0
  8 10  1  0
 10 11  1  0
 11 12  2  0
 12 13  1  0
 13 14  2  0
 14 15  1  0
 15 16  2  0
 15 17  2  0
 15 18  1  0
 18 19  1  0
 19 20  1  0
 20 21  1  0
 21 22  1  0
 22 23  1  0
 14 24  1  0
 24 25  2  0
  7 26  2  0
 26 27  1  0
 26  3  1  0
 25 11  1  0
 23 18  1  0
  1 28  1  0
  1 29  1  0
  1 30  1  0
  2 31  1  0
  2 32  1  0
  5 33  1  0
  5 34  1  0
  5 35  1  0
  6 36  1  0
 12 37  1  0
 13 38  1  0
 18 39  1  0
 19 40  1  0
 19 41  1  0
 20 42  1  0
 20 43  1  0
 22 44  1  0
 22 45  1  0
 23 46  1  0
 23 47  1  0
 24 48  1  0
 25 49  1  0
 27 50  1  0
 27 51  1  0
 27 52  1  0
M  CHG  2  10  -1  18   1
M  END
>  <UniqueID>  (18) 
17

>  <SMILES>  (18) 
CCn1c(C)cc(C(=O)[N-]c2ccc(S(=O)(=O)[NH+]3CCOCC3)cc2)c1C

>  <Energy>  (18) 
91.2565616347572

>  <Genealogy>  (18) 
CCn1c(C)cc(C(=O)[N-]c2ccc(S(=O)(=O)[NH+]3CCOCC3)cc2)c1C (protonated)
CCn1c(C)cc(C(=O)[N-]c2ccc(S(=O)(=O)[NH+]3CCOCC3)cc2)c1C (3D coordinates assigned)
CCn1c(C)cc(C(=O)[N-]c2ccc(S(=O)(=O)[NH+]3CCOCC3)cc2)c1C (nonaromatic ring conformer: 91.2565616347572 kcal/mol)

>  <smiles>  (18) 
CCn1c(C)cc(C(=O)Nc2ccc(S(=O)(=O)N3CCOCC3)cc2)c1C

>  <score_type>  (18) 
oracle

>  <origin>  (18) 
adg

>  <m_score__min__energy>  (18) 
-10.33

>  <m_primary>  (18) 
energy

$$$$
18:0
     RDKit          3D

 32 33  0  0  0  0  0  0  0  0999 V2000
   -9.3991   22.4412  -31.0328 H   0  0  0  0  0  0  0  0  0  0  0  0
   -8.3740   22.2830  -31.3990 C   0  0  0  0  0  0  0  0  0  0  0  0
   -7.3880   23.2380  -31.1430 C   0  0  0  0  0  0  0  0  0  0  0  0
   -7.6351   24.1394  -30.5630 H   0  0  0  0  0  0  0  0  0  0  0  0
   -6.0810   23.0510  -31.6240 C   0  0  0  0  0  0  0  0  0  0  0  0
   -5.0350   23.9840  -31.3150 N   0  0  0  0  0  0  0  0  0  0  0  0
   -4.1790   23.9130  -30.3340 C   0  0  0  0  0  0  0  0  0  0  0  0
   -4.2270   22.8360  -29.5090 N   0  0  0  0  0  0  0  0  0  0  0  0
   -3.3620   22.6930  -28.4740 C   0  0  0  0  0  0  0  0  0  0  0  0
   -3.4560   21.4970  -27.5810 C   0  0  0  0  0  0  0  0  0  0  0  0
   -3.4305   21.8211  -26.5301 H   0  0  0  0  0  0  0  0  0  0  0  0
   -4.3987   20.9655  -27.7780 H   0  0  0  0  0  0  0  0  0  0  0  0
   -2.6079   20.8247  -27.7780 H   0  0  0  0  0  0  0  0  0  0  0  0
   -2.3910   23.6700  -28.2460 C   0  0  0  0  0  0  0  0  0  0  0  0
   -1.6897   23.5776  -27.4036 H   0  0  0  0  0  0  0  0  0  0  0  0
   -2.3270   24.7730  -29.1130 C   0  0  0  0  0  0  0  0  0  0  0  0
   -1.3660   25.7840  -28.9600 O   0  0  0  0  0  0  0  0  0  0  0  0
   -0.6930   26.0810  -27.7410 C   0  0  0  0  0  0  0  0  0  0  0  0
   -1.3320   25.7990  -26.8912 H   0  0  0  0  0  0  0  0  0  0  0  0
    0.2491   25.5150  -27.6950 H   0  0  0  0  0  0  0  0  0  0  0  0
   -0.4761   27.1584  -27.6950 H   0  0  0  0  0  0  0  0  0  0  0  0
   -3.2160   24.8670  -30.1390 N   0  0  0  0  0  0  0  0  0  0  0  0
   -3.1130   25.6740  -30.7920 H   0  0  0  0  0  0  0  0  0  0  0  0
   -5.7630   21.8740  -32.3140 C   0  0  0  0  0  0  0  0  0  0  0  0
   -4.7281   21.6953  -32.6410 H   0  0  0  0  0  0  0  0  0  0  0  0
   -6.7560   20.9210  -32.5910 C   0  0  0  0  0  0  0  0  0  0  0  0
   -6.4050   19.6540  -33.3140 C   0  0  0  0  0  0  0  0  0  0  0  0
   -6.1858   18.8628  -32.5819 H   0  0  0  0  0  0  0  0  0  0  0  0
   -7.2515   19.3454  -33.9451 H   0  0  0  0  0  0  0  0  0  0  0  0
   -5.5204   19.8250  -33.9451 H   0  0  0  0  0  0  0  0  0  0  0  0
   -8.0620   21.1270  -32.1190 C   0  0  0  0  0  0  0  0  0  0  0  0
   -8.8416   20.3765  -32.3165 H   0  0  0  0  0  0  0  0  0  0  0  0
  1  2  1  0
  2  3  2  0
  3  4  1  0
  3  5  1  0
  5  6  1  0
  6  7  2  0
  7  8  1  0
  8  9  2  0
  9 10  1  0
 10 11  1  0
 10 12  1  0
 10 13  1  0
  9 14  1  0
 14 15  1  0
 14 16  2  0
 16 17  1  0
 17 18  1  0
 18 19  1  0
 18 20  1  0
 18 21  1  0
 16 22  1  0
 22 23  1  0
  5 24  2  0
 24 25  1  0
 24 26  1  0
 26 27  1  0
 27 28  1  0
 27 29  1  0
 27 30  1  0
 26 31  2  0
 31 32  1  0
 31  2  1  0
 22  7  1  0
M  END
>  <UniqueID>  (19) 
18

>  <SMILES>  (19) 
COc1cc(C)n/c(=N/c2cccc(C)c2)[nH]1

>  <Energy>  (19) 
38.903942471729714

>  <Genealogy>  (19) 
COc1cc(C)n/c(=N/c2cccc(C)c2)[nH]1 (cis-trans isomerization)
COc1cc(C)n/c(=N/c2cccc(C)c2)[nH]1 (3D coordinates assigned)
COc1cc(C)n/c(=N/c2cccc(C)c2)[nH]1 (optimized conformer: 38.903942471729714 kcal/mol)

>  <smiles>  (19) 
COc1cc(C)nc(=Nc2cccc(C)c2)[nH]1

>  <score_type>  (19) 
oracle

>  <origin>  (19) 
adg

>  <m_score__min__energy>  (19) 
-7.4100000000000001

>  <m_primary>  (19) 
energy

$$$$
19:0
     RDKit          3D

 31 34  0  0  0  0  0  0  0  0999 V2000
   -0.8690   27.2260  -28.1250 O   0  0  0  0  0  0  0  0  0  0  0  0
   -0.8150   26.1900  -27.4090 C   0  0  0  0  0  0  0  0  0  0  0  0
   -0.6910   26.2700  -25.9280 C   0  0  0  0  0  0  0  0  0  0  0  0
   -0.6550   27.5080  -25.2730 C   0  0  0  0  0  0  0  0  0  0  0  0
   -0.5330   27.5620  -23.8850 C   0  0  0  0  0  0  0  0  0  0  0  0
   -0.4480   26.3750  -23.1570 C   0  0  0  0  0  0  0  0  0  0  0  0
   -0.4830   25.1720  -23.7920 N   0  0  0  0  0  0  0  0  0  0  0  0
   -0.6030   25.0830  -25.1500 C   0  0  0  0  0  0  0  0  0  0  0  0
   -0.6330   23.7500  -25.8180 C   0  0  0  0  0  0  0  0  0  0  0  0
   -0.4650   22.6920  -25.1580 O   0  0  0  0  0  0  0  0  0  0  0  0
   -0.8210   23.7180  -27.2800 C   0  0  0  0  0  0  0  0  0  0  0  0
   -0.8720   24.8600  -28.0210 C   0  0  0  0  0  0  0  0  0  0  0  0
   -0.9380   24.5720  -29.3340 N   0  0  0  0  0  0  0  0  0  0  0  0
   -0.9270   23.2170  -29.3560 C   0  0  0  0  0  0  0  0  0  0  0  0
   -0.8610   22.6650  -28.1200 N   0  0  0  0  0  0  0  0  0  0  0  0
   -0.8710   21.2620  -27.8180 C   0  0  0  0  0  0  0  0  0  0  0  0
    0.2440   20.4620  -28.1140 C   0  0  0  0  0  0  0  0  0  0  0  0
    0.2400   19.1010  -27.7920 C   0  0  0  0  0  0  0  0  0  0  0  0
   -0.8710   18.5340  -27.1620 C   0  0  0  0  0  0  0  0  0  0  0  0
   -1.9780   19.3280  -26.8460 C   0  0  0  0  0  0  0  0  0  0  0  0
   -3.4910   18.5550  -25.9750 Br  0  0  0  0  0  0  0  0  0  0  0  0
   -1.9760   20.6900  -27.1670 C   0  0  0  0  0  0  0  0  0  0  0  0
   -0.7231   28.4391  -25.8548 H   0  0  0  0  0  0  0  0  0  0  0  0
   -0.5040   28.5326  -23.3683 H   0  0  0  0  0  0  0  0  0  0  0  0
   -0.3520   26.4118  -22.0618 H   0  0  0  0  0  0  0  0  0  0  0  0
   -0.4160   24.3060  -23.2110 H   0  0  0  0  0  0  0  0  0  0  0  0
   -0.9675   22.6255  -30.2826 H   0  0  0  0  0  0  0  0  0  0  0  0
    1.1241   20.9073  -28.6010 H   0  0  0  0  0  0  0  0  0  0  0  0
    1.1122   18.4763  -28.0349 H   0  0  0  0  0  0  0  0  0  0  0  0
   -0.8748   17.4622  -26.9144 H   0  0  0  0  0  0  0  0  0  0  0  0
   -2.8434   21.3151  -26.9084 H   0  0  0  0  0  0  0  0  0  0  0  0
  1  2  2  0
  2  3  1  0
  3  4  2  0
  4  5  1  0
  5  6  2  0
  6  7  1  0
  7  8  2  0
  8  9  1  0
  9 10  2  0
  9 11  1  0
 11 12  2  0
 12 13  1  0
 13 14  2  0
 14 15  1  0
 15 16  1  0
 16 17  2  0
 17 18  1  0
 18 19  2  0
 19 20  1  0
 20 21  1  0
 20 22  2  0
 12  2  1  0
 22 16  1  0
  8  3  1  0
 15 11  1  0
  4 23  1  0
  5 24  1  0
  6 25  1  0
  7 26  1  0
 14 27  1  0
 17 28  1  0
 18 29  1  0
 19 30  1  0
 22 31  1  0
M  CHG  1   7   1
M  END
>  <UniqueID>  (20) 
19

>  <SMILES>  (20) 
O=C1c2ccc[nH+]c2C(=O)c2c1ncn2-c1cccc(Br)c1

>  <Energy>  (20) 
78.31673707977015

>  <Genealogy>  (20) 
O=C1c2ccc[nH+]c2C(=O)c2c1ncn2-c1cccc(Br)c1 (protonated)
O=C1c2ccc[nH+]c2C(=O)c2c1ncn2-c1cccc(Br)c1 (3D coordinates assigned)
O=C1c2ccc[nH+]c2C(=O)c2c1ncn2-c1cccc(Br)c1 (nonaromatic ring conformer: 78.31673707977015 kcal/mol)

>  <smiles>  (20) 
O=C1c2cccnc2C(=O)c2c1ncn2-c1cccc(Br)c1

>  <score_type>  (20) 
oracle

>  <origin>  (20) 
adg

>  <m_score__min__energy>  (20) 
-7.8200000000000003

>  <m_primary>  (20) 
energy

$$$$
20:0
     RDKit          3D

 25 26  0  0  0  0  0  0  0  0999 V2000
   -1.8210   25.5390  -28.9690 O   0  0  0  0  0  0  0  0  0  0  0  0
   -2.6610   24.6740  -29.3370 C   0  0  0  0  0  0  0  0  0  0  0  0
   -3.4870   24.9090  -30.4800 N   0  0  0  0  0  0  0  0  0  0  0  0
   -5.2140   24.9560  -30.3840 S   0  0  0  0  0  0  0  0  0  0  0  0
   -5.6210   25.1010  -28.9450 O   0  0  0  0  0  0  0  0  0  0  0  0
   -5.7380   26.1170  -31.1800 O   0  0  0  0  0  0  0  0  0  0  0  0
   -5.8710   23.4630  -31.0430 C   0  0  0  0  0  0  0  0  0  0  0  0
   -5.0690   22.6160  -31.8230 C   0  0  0  0  0  0  0  0  0  0  0  0
   -5.6000   21.4330  -32.3480 C   0  0  0  0  0  0  0  0  0  0  0  0
   -6.9310   21.0870  -32.0890 C   0  0  0  0  0  0  0  0  0  0  0  0
   -7.5940   19.6010  -32.7440 Cl  0  0  0  0  0  0  0  0  0  0  0  0
   -7.7280   21.9220  -31.3000 C   0  0  0  0  0  0  0  0  0  0  0  0
   -7.2010   23.1060  -30.7770 C   0  0  0  0  0  0  0  0  0  0  0  0
   -2.8390   23.4220  -28.5370 C   0  0  2  0  0  0  0  0  0  0  0  0
   -1.5430   22.6670  -28.2460 C   0  0  0  0  0  0  0  0  0  0  0  0
   -2.5230   22.1280  -29.2690 C   0  0  0  0  0  0  0  0  0  0  0  0
   -2.0970   22.2130  -30.5840 F   0  0  0  0  0  0  0  0  0  0  0  0
   -3.2320   21.0110  -28.8650 F   0  0  0  0  0  0  0  0  0  0  0  0
   -4.0206   22.8828  -32.0221 H   0  0  0  0  0  0  0  0  0  0  0  0
   -4.9709   20.7744  -32.9648 H   0  0  0  0  0  0  0  0  0  0  0  0
   -8.7721   21.6464  -31.0905 H   0  0  0  0  0  0  0  0  0  0  0  0
   -7.8307   23.7594  -30.1553 H   0  0  0  0  0  0  0  0  0  0  0  0
   -3.6873   23.7893  -27.9409 H   0  0  0  0  0  0  0  0  0  0  0  0
   -0.5787   23.0826  -28.5735 H   0  0  0  0  0  0  0  0  0  0  0  0
   -1.0624   22.2655  -27.3417 H   0  0  0  0  0  0  0  0  0  0  0  0
  1  2  2  0
  2  3  1  0
  3  4  1  0
  4  5  2  0
  4  6  2  0
  4  7  1  0
  7  8  2  0
  8  9  1  0
  9 10  2  0
 10 11  1  0
 10 12  1  0
 12 13  2  0
  2 14  1  0
 14 15  1  0
 15 16  1  0
 16 17  1  0
 16 18  1  0
 13  7  1  0
 16 14  1  0
  8 19  1  0
  9 20  1  0
 12 21  1  0
 13 22  1  0
 14 23  1  1
 15 24  1  0
 15 25  1  0
M  CHG  1   3  -1
M  END
>  <UniqueID>  (21) 
20

>  <SMILES>  (21) 
O=C([N-]S(=O)(=O)c1ccc(Cl)cc1)[C@@H]1CC1(F)F

>  <Energy>  (21) 
295.0295775813976

>  <Genealogy>  (21) 
O=C([N-]S(=O)(=O)c1ccc(Cl)cc1)C1CC1(F)F (protonated)
O=C([N-]S(=O)(=O)c1ccc(Cl)cc1)[C@@H]1CC1(F)F (chirality)
O=C([N-]S(=O)(=O)c1ccc(Cl)cc1)[C@@H]1CC1(F)F (3D coordinates assigned)
O=C([N-]S(=O)(=O)c1ccc(Cl)cc1)[C@@H]1CC1(F)F (nonaromatic ring conformer: 295.0295775813976 kcal/mol)

>  <smiles>  (21) 
O=C(NS(=O)(=O)c1ccc(Cl)cc1)C1CC1(F)F

>  <score_type>  (21) 
oracle

>  <origin>  (21) 
adg

>  <m_score__min__energy>  (21) 
-8.2699999999999996

>  <m_primary>  (21) 
energy

$$$$
21:0
     RDKit          3D

 52 55  0  0  0  0  0  0  0  0999 V2000
   -2.4610   19.9300  -27.0740 C   0  0  0  0  0  0  0  0  0  0  0  0
   -1.0950   20.4500  -26.8870 N   0  0  0  0  0  0  0  0  0  0  0  0
   -1.1600   21.7510  -26.1990 C   0  0  0  0  0  0  0  0  0  0  0  0
   -0.3950   20.6010  -28.1840 C   0  0  0  0  0  0  0  0  0  0  0  0
   -1.3890   20.5660  -29.3540 C   0  0  0  0  0  0  0  0  0  0  0  0
   -1.2700   21.8280  -30.2190 C   0  0  0  0  0  0  0  0  0  0  0  0
   -2.5980   22.3830  -30.5200 N   0  0  0  0  0  0  0  0  0  0  0  0
   -2.9020   23.7660  -30.1250 C   0  0  0  0  0  0  0  0  0  0  0  0
   -1.9160   24.2380  -29.1050 C   0  0  0  0  0  0  0  0  0  0  0  0
   -2.1960   24.7370  -27.8540 C   0  0  0  0  0  0  0  0  0  0  0  0
   -1.0210   25.1440  -27.3360 N   0  0  0  0  0  0  0  0  0  0  0  0
   -0.7810   25.7700  -26.0580 C   0  0  0  0  0  0  0  0  0  0  0  0
   -0.9880   27.1470  -25.8610 C   0  0  0  0  0  0  0  0  0  0  0  0
   -0.7340   27.7240  -24.6140 C   0  0  0  0  0  0  0  0  0  0  0  0
   -0.2750   26.9240  -23.5690 C   0  0  0  0  0  0  0  0  0  0  0  0
   -0.0800   25.5920  -23.7650 N   0  0  0  0  0  0  0  0  0  0  0  0
   -0.3200   25.0060  -24.9700 C   0  0  0  0  0  0  0  0  0  0  0  0
   -0.0750   24.9070  -28.2340 N   0  0  0  0  0  0  0  0  0  0  0  0
   -0.5920   24.3600  -29.3260 N   0  0  0  0  0  0  0  0  0  0  0  0
   -3.5500   21.5870  -31.2580 C   0  0  0  0  0  0  0  0  0  0  0  0
   -4.8280   21.3940  -30.8410 N   0  0  0  0  0  0  0  0  0  0  0  0
   -5.5130   20.6040  -31.7060 C   0  0  0  0  0  0  0  0  0  0  0  0
   -6.8450   20.2260  -31.5400 C   0  0  0  0  0  0  0  0  0  0  0  0
   -7.4400   19.4010  -32.5130 C   0  0  0  0  0  0  0  0  0  0  0  0
   -9.1170   18.9170  -32.3380 Cl  0  0  0  0  0  0  0  0  0  0  0  0
   -6.6940   18.9670  -33.6310 C   0  0  0  0  0  0  0  0  0  0  0  0
   -5.3560   19.3570  -33.7860 C   0  0  0  0  0  0  0  0  0  0  0  0
   -4.7930   20.1720  -32.8090 C   0  0  0  0  0  0  0  0  0  0  0  0
   -3.2340   20.7860  -32.7240 S   0  0  0  0  0  0  0  0  0  0  0  0
   -2.9239   19.7538  -26.0918 H   0  0  0  0  0  0  0  0  0  0  0  0
   -3.0589   20.6634  -27.6349 H   0  0  0  0  0  0  0  0  0  0  0  0
   -2.4199   18.9846  -27.6349 H   0  0  0  0  0  0  0  0  0  0  0  0
   -1.1520   21.5911  -25.1107 H   0  0  0  0  0  0  0  0  0  0  0  0
   -0.2912   22.3615  -26.4863 H   0  0  0  0  0  0  0  0  0  0  0  0
   -2.0853   22.2719  -26.4863 H   0  0  0  0  0  0  0  0  0  0  0  0
    0.1391   21.5626  -28.1946 H   0  0  0  0  0  0  0  0  0  0  0  0
    0.3116   19.7660  -28.2998 H   0  0  0  0  0  0  0  0  0  0  0  0
   -1.1804   19.6832  -29.9762 H   0  0  0  0  0  0  0  0  0  0  0  0
   -2.4088   20.5185  -28.9443 H   0  0  0  0  0  0  0  0  0  0  0  0
   -0.6787   22.5814  -29.6780 H   0  0  0  0  0  0  0  0  0  0  0  0
   -0.7771   21.5610  -31.1655 H   0  0  0  0  0  0  0  0  0  0  0  0
   -2.8495   24.4170  -31.0101 H   0  0  0  0  0  0  0  0  0  0  0  0
   -3.9127   23.8028  -29.6925 H   0  0  0  0  0  0  0  0  0  0  0  0
   -3.1834   24.7926  -27.3723 H   0  0  0  0  0  0  0  0  0  0  0  0
   -1.3508   27.7714  -26.6907 H   0  0  0  0  0  0  0  0  0  0  0  0
   -0.8950   28.8010  -24.4583 H   0  0  0  0  0  0  0  0  0  0  0  0
   -0.0702   27.3702  -22.5846 H   0  0  0  0  0  0  0  0  0  0  0  0
    0.2600   25.0070  -22.9700 H   0  0  0  0  0  0  0  0  0  0  0  0
   -0.1521   23.9260  -25.0943 H   0  0  0  0  0  0  0  0  0  0  0  0
   -7.4195   20.5659  -30.6657 H   0  0  0  0  0  0  0  0  0  0  0  0
   -7.1654   18.3191  -34.3847 H   0  0  0  0  0  0  0  0  0  0  0  0
   -4.7681   19.0279  -34.6555 H   0  0  0  0  0  0  0  0  0  0  0  0
  1  2  1  0
  2  3  1  0
  2  4  1  0
  4  5  1  0
  5  6  1  0
  6  7  1  0
  7  8  1  0
  8  9  1  0
  9 10  2  0
 10 11  1  0
 11 12  1  0
 12 13  2  0
 13 14  1  0
 14 15  2  0
 15 16  1  0
 16 17  2  0
 11 18  1  0
 18 19  2  0
  7 20  1  0
 20 21  2  0
 21 22  1  0
 22 23  2  0
 23 24  1  0
 24 25  1  0
 24 26  2  0
 26 27  1  0
 27 28  2  0
 28 29  1  0
 19  9  1  0
 29 20  1  0
 17 12  1  0
 28 22  1  0
  1 30  1  0
  1 31  1  0
  1 32  1  0
  3 33  1  0
  3 34  1  0
  3 35  1  0
  4 36  1  0
  4 37  1  0
  5 38  1  0
  5 39  1  0
  6 40  1  0
  6 41  1  0
  8 42  1  0
  8 43  1  0
 10 44  1  0
 13 45  1  0
 14 46  1  0
 15 47  1  0
 16 48  1  0
 17 49  1  0
 23 50  1  0
 26 51  1  0
 27 52  1  0
M  CHG  1  16   1
M  END
>  <UniqueID>  (22) 
21

>  <SMILES>  (22) 
CN(C)CCCN(Cc1cn(-c2ccc[nH+]c2)nn1)c1nc2cc(Cl)ccc2s1

>  <Energy>  (22) 
120.9929682353501

>  <Genealogy>  (22) 
CN(C)CCCN(Cc1cn(-c2ccc[nH+]c2)nn1)c1nc2cc(Cl)ccc2s1 (protonated)
CN(C)CCCN(Cc1cn(-c2ccc[nH+]c2)nn1)c1nc2cc(Cl)ccc2s1 (3D coordinates assigned)
CN(C)CCCN(Cc1cn(-c2ccc[nH+]c2)nn1)c1nc2cc(Cl)ccc2s1 (optimized conformer: 120.9929682353501 kcal/mol)

>  <smiles>  (22) 
CN(C)CCCN(Cc1cn(-c2cccnc2)nn1)c1nc2cc(Cl)ccc2s1

>  <score_type>  (22) 
oracle

>  <origin>  (22) 
adg

>  <m_score__min__energy>  (22) 
-9.3499999999999996

>  <m_primary>  (22) 
energy

$$$$
22:0
     RDKit          3D

 42 46  0  0  1  0  0  0  0  0999 V2000
   -3.8670   24.5120  -28.0570 N   0  0  0  0  0  0  0  0  0  0  0  0
   -4.4450   24.3320  -29.1930 C   0  0  0  0  0  0  0  0  0  0  0  0
   -5.2360   25.2960  -29.6990 N   0  0  0  0  0  0  0  0  0  0  0  0
   -5.8480   25.1540  -30.8900 C   0  0  0  0  0  0  0  0  0  0  0  0
   -5.6840   24.0310  -31.6150 N   0  0  0  0  0  0  0  0  0  0  0  0
   -4.9010   23.0420  -31.1440 C   0  0  0  0  0  0  0  0  0  0  0  0
   -4.2590   23.1730  -29.9090 C   0  0  0  0  0  0  0  0  0  0  0  0
   -3.5190   22.0460  -29.6500 C   0  0  0  0  0  0  0  0  0  0  0  0
   -2.6720   21.6870  -28.5330 C   0  0  0  0  0  0  0  0  0  0  0  0
   -1.5990   22.5330  -28.2230 C   0  0  0  0  0  0  0  0  0  0  0  0
   -0.7310   22.2530  -27.1870 C   0  0  0  0  0  0  0  0  0  0  0  0
   -0.8880   21.1230  -26.4120 C   0  0  0  0  0  0  0  0  0  0  0  0
   -1.9380   20.2780  -26.7020 C   0  0  0  0  0  0  0  0  0  0  0  0
   -2.8080   20.5750  -27.7550 C   0  0  0  0  0  0  0  0  0  0  0  0
   -3.7110   21.2430  -30.7190 N   0  0  0  0  0  0  0  0  0  0  0  0
   -4.5180   21.8230  -31.5930 N   0  0  0  0  0  0  0  0  0  0  0  0
   -4.9850   21.2980  -32.8830 C   0  0  1  0  0  0  0  0  0  0  0  0
   -4.0180   20.2650  -33.4220 C   0  0  0  0  0  0  0  0  0  0  0  0
   -4.3750   19.0720  -32.5550 C   0  0  0  0  0  0  0  0  0  0  0  0
   -5.8530   19.1580  -32.5230 C   0  0  0  0  0  0  0  0  0  0  0  0
   -6.8200   18.1810  -32.3410 C   0  0  0  0  0  0  0  0  0  0  0  0
   -6.4910   16.8720  -32.1470 F   0  0  0  0  0  0  0  0  0  0  0  0
   -8.1730   18.4830  -32.3470 C   0  0  0  0  0  0  0  0  0  0  0  0
   -8.5200   19.8070  -32.5420 C   0  0  0  0  0  0  0  0  0  0  0  0
   -9.8460   20.1150  -32.5490 F   0  0  0  0  0  0  0  0  0  0  0  0
   -7.5640   20.7890  -32.7240 C   0  0  0  0  0  0  0  0  0  0  0  0
   -6.2090   20.4780  -32.7180 C   0  0  0  0  0  0  0  0  0  0  0  0
   -4.0500   25.3350  -27.4650 H   0  0  0  0  0  0  0  0  0  0  0  0
   -5.3670   26.1830  -29.1280 H   0  0  0  0  0  0  0  0  0  0  0  0
   -6.4875   25.9624  -31.2741 H   0  0  0  0  0  0  0  0  0  0  0  0
   -1.4444   23.4435  -28.8205 H   0  0  0  0  0  0  0  0  0  0  0  0
    0.0997   22.9425  -26.9760 H   0  0  0  0  0  0  0  0  0  0  0  0
   -0.1954   20.9023  -25.5864 H   0  0  0  0  0  0  0  0  0  0  0  0
   -2.0915   19.3680  -26.1034 H   0  0  0  0  0  0  0  0  0  0  0  0
   -3.6369   19.8830  -27.9650 H   0  0  0  0  0  0  0  0  0  0  0  0
   -5.1171   22.1836  -33.5220 H   0  0  0  0  0  0  0  0  0  0  0  0
   -4.1957   20.0598  -34.4880 H   0  0  0  0  0  0  0  0  0  0  0  0
   -2.9597   20.5620  -33.3794 H   0  0  0  0  0  0  0  0  0  0  0  0
   -4.0377   18.1294  -33.0108 H   0  0  0  0  0  0  0  0  0  0  0  0
   -3.9046   19.0850  -31.5607 H   0  0  0  0  0  0  0  0  0  0  0  0
   -8.9363   17.7041  -32.2031 H   0  0  0  0  0  0  0  0  0  0  0  0
   -7.8801   21.8316  -32.8758 H   0  0  0  0  0  0  0  0  0  0  0  0
  1  2  2  3
  2  3  1  0
  3  4  1  0
  4  5  2  0
  5  6  1  0
  6  7  2  0
  7  8  1  0
  8  9  1  0
  9 10  2  0
 10 11  1  0
 11 12  2  0
 12 13  1  0
 13 14  2  0
  8 15  2  0
 15 16  1  0
 16 17  1  0
 17 18  1  0
 18 19  1  0
 19 20  1  0
 20 21  2  0
 21 22  1  0
 21 23  1  0
 23 24  2  0
 24 25  1  0
 24 26  1  0
 26 27  2  0
  7  2  1  0
 14  9  1  0
 27 17  1  0
 16  6  1  0
 27 20  1  0
  1 28  1  0
  3 29  1  0
  4 30  1  0
 10 31  1  0
 11 32  1  0
 12 33  1  0
 13 34  1  0
 14 35  1  0
 17 36  1  6
 18 37  1  0
 18 38  1  0
 19 39  1  0
 19 40  1  0
 23 41  1  0
 26 42  1  0
M  END
>  <smiles>  (23) 
N=c1[nH]cnc2c1c(-c1ccccc1)nn2C1CCc2c(F)cc(F)cc21

>  <score_type>  (23) 
oracle

>  <origin>  (23) 
adg

>  <m_score__min__energy>  (23) 
-9

>  <m_primary>  (23) 
energy

$$$$
23:0
     RDKit          3D

 52 54  0  0  0  0  0  0  0  0999 V2000
    0.0130   20.5920  -29.2770 C   0  0  0  0  0  0  0  0  0  0  0  0
   -0.1330   21.4680  -30.3920 O   0  0  0  0  0  0  0  0  0  0  0  0
   -1.2590   21.5070  -31.2330 C   0  0  0  0  0  0  0  0  0  0  0  0
   -1.2980   20.8000  -32.4540 C   0  0  0  0  0  0  0  0  0  0  0  0
   -2.4400   20.8480  -33.2620 C   0  0  0  0  0  0  0  0  0  0  0  0
   -3.5530   21.5920  -32.8620 C   0  0  0  0  0  0  0  0  0  0  0  0
   -3.5260   22.3000  -31.6560 C   0  0  0  0  0  0  0  0  0  0  0  0
   -2.3800   22.2740  -30.8410 C   0  0  0  0  0  0  0  0  0  0  0  0
   -2.3950   23.0070  -29.5280 C   0  0  0  0  0  0  0  0  0  0  0  0
   -2.8470   24.3800  -29.7460 N   0  0  0  0  0  0  0  0  0  0  0  0
   -4.1880   24.7790  -30.0550 C   0  0  0  0  0  0  0  0  0  0  0  0
   -4.3580   25.6770  -30.9180 O   0  0  0  0  0  0  0  0  0  0  0  0
   -5.3930   24.1650  -29.3730 C   0  0  0  0  0  0  0  0  0  0  0  0
   -6.1740   23.2430  -30.2320 N   0  0  0  0  0  0  0  0  0  0  0  0
   -7.4280   22.7890  -29.5970 C   0  0  0  0  0  0  0  0  0  0  0  0
   -8.2550   21.9100  -30.5530 C   0  0  0  0  0  0  0  0  0  0  0  0
   -7.4300   21.4720  -31.6970 N   0  0  0  0  0  0  0  0  0  0  0  0
   -8.1660   20.5190  -32.5500 C   0  0  0  0  0  0  0  0  0  0  0  0
   -7.2590   19.3920  -32.9750 C   0  0  0  0  0  0  0  0  0  0  0  0
   -6.2240   19.6320  -33.8970 C   0  0  0  0  0  0  0  0  0  0  0  0
   -5.3670   18.5960  -34.2840 C   0  0  0  0  0  0  0  0  0  0  0  0
   -5.5360   17.3120  -33.7520 C   0  0  0  0  0  0  0  0  0  0  0  0
   -6.5640   17.0650  -32.8350 C   0  0  0  0  0  0  0  0  0  0  0  0
   -7.4230   18.1020  -32.4460 C   0  0  0  0  0  0  0  0  0  0  0  0
   -7.0010   22.6480  -32.4870 C   0  0  0  0  0  0  0  0  0  0  0  0
   -6.4100   23.7560  -31.5920 C   0  0  0  0  0  0  0  0  0  0  0  0
   -0.0828   21.1669  -28.3441 H   0  0  0  0  0  0  0  0  0  0  0  0
   -0.7687   19.8189  -29.3133 H   0  0  0  0  0  0  0  0  0  0  0  0
    1.0032   20.1142  -29.3133 H   0  0  0  0  0  0  0  0  0  0  0  0
   -0.4268   20.2085  -32.7721 H   0  0  0  0  0  0  0  0  0  0  0  0
   -2.4613   20.2984  -34.2146 H   0  0  0  0  0  0  0  0  0  0  0  0
   -4.4513   21.6210  -33.4962 H   0  0  0  0  0  0  0  0  0  0  0  0
   -4.4063   22.8806  -31.3431 H   0  0  0  0  0  0  0  0  0  0  0  0
   -3.0804   22.5007  -28.8324 H   0  0  0  0  0  0  0  0  0  0  0  0
   -1.3818   23.0163  -29.0997 H   0  0  0  0  0  0  0  0  0  0  0  0
   -5.0431   23.6040  -28.4939 H   0  0  0  0  0  0  0  0  0  0  0  0
   -6.0641   24.9958  -29.1094 H   0  0  0  0  0  0  0  0  0  0  0  0
   -7.1829   22.2063  -28.6968 H   0  0  0  0  0  0  0  0  0  0  0  0
   -8.0254   23.6754  -29.3373 H   0  0  0  0  0  0  0  0  0  0  0  0
   -8.6180   21.0256  -30.0088 H   0  0  0  0  0  0  0  0  0  0  0  0
   -9.1045   22.4976  -30.9313 H   0  0  0  0  0  0  0  0  0  0  0  0
   -9.0161   20.1080  -31.9858 H   0  0  0  0  0  0  0  0  0  0  0  0
   -8.5284   21.0450  -33.4455 H   0  0  0  0  0  0  0  0  0  0  0  0
   -6.0877   20.6399  -34.3161 H   0  0  0  0  0  0  0  0  0  0  0  0
   -4.5604   18.7903  -35.0063 H   0  0  0  0  0  0  0  0  0  0  0  0
   -4.8611   16.4978  -34.0546 H   0  0  0  0  0  0  0  0  0  0  0  0
   -6.6980   16.0556  -32.4189 H   0  0  0  0  0  0  0  0  0  0  0  0
   -8.2286   17.9043  -31.7236 H   0  0  0  0  0  0  0  0  0  0  0  0
   -6.2367   22.3304  -33.2115 H   0  0  0  0  0  0  0  0  0  0  0  0
   -7.8851   23.0571  -32.9978 H   0  0  0  0  0  0  0  0  0  0  0  0
   -5.4569   24.0991  -32.0209 H   0  0  0  0  0  0  0  0  0  0  0  0
   -7.1227   24.5923  -31.5403 H   0  0  0  0  0  0  0  0  0  0  0  0
  1  2  1  0
  2  3  1  0
  3  4  2  0
  4  5  1  0
  5  6  2  0
  6  7  1  0
  7  8  2  0
  8  9  1  0
  9 10  1  0
 10 11  1  0
 11 12  2  0
 11 13  1  0
 13 14  1  0
 14 15  1  0
 15 16  1  0
 16 17  1  0
 17 18  1  0
 18 19  1  0
 19 20  2  0
 20 21  1  0
 21 22  2  0
 22 23  1  0
 23 24  2  0
 17 25  1  0
 25 26  1  0
  8  3  1  0
 26 14  1  0
 24 19  1  0
  1 27  1  0
  1 28  1  0
  1 29  1  0
  4 30  1  0
  5 31  1  0
  6 32  1  0
  7 33  1  0
  9 34  1  0
  9 35  1  0
 13 36  1  0
 13 37  1  0
 15 38  1  0
 15 39  1  0
 16 40  1  0
 16 41  1  0
 18 42  1  0
 18 43  1  0
 20 44  1  0
 21 45  1  0
 22 46  1  0
 23 47  1  0
 24 48  1  0
 25 49  1  0
 25 50  1  0
 26 51  1  0
 26 52  1  0
M  CHG  1  10  -1
M  END
>  <UniqueID>  (24) 
22

>  <SMILES>  (24) 
COc1ccccc1C[N-]C(=O)CN1CCN(Cc2ccccc2)CC1

>  <Energy>  (24) 
62.12934319836775

>  <Genealogy>  (24) 
COc1ccccc1C[N-]C(=O)CN1CCN(Cc2ccccc2)CC1 (protonated)
COc1ccccc1C[N-]C(=O)CN1CCN(Cc2ccccc2)CC1 (3D coordinates assigned)
COc1ccccc1C[N-]C(=O)CN1CCN(Cc2ccccc2)CC1 (nonaromatic ring conformer: 62.12934319836775 kcal/mol)

>  <smiles>  (24) 
COc1ccccc1CNC(=O)CN1CCN(Cc2ccccc2)CC1

>  <score_type>  (24) 
oracle

>  <origin>  (24) 
adg

>  <m_score__min__energy>  (24) 
-11.140000000000001

>  <m_primary>  (24) 
energy

$$$$
24:0
     RDKit          3D

 33 34  0  0  0  0  0  0  0  0999 V2000
   -1.1500   26.0330  -27.7520 C   0  0  0  0  0  0  0  0  0  0  0  0
   -1.8390   25.6680  -28.9430 O   0  0  0  0  0  0  0  0  0  0  0  0
   -2.2070   24.3550  -29.2780 C   0  0  0  0  0  0  0  0  0  0  0  0
   -1.5730   23.2330  -28.7090 C   0  0  0  0  0  0  0  0  0  0  0  0
   -1.9720   21.9430  -29.0610 C   0  0  0  0  0  0  0  0  0  0  0  0
   -2.9970   21.7570  -29.9880 C   0  0  0  0  0  0  0  0  0  0  0  0
   -3.6300   22.8600  -30.5630 C   0  0  0  0  0  0  0  0  0  0  0  0
   -3.2490   24.1690  -30.2020 C   0  0  0  0  0  0  0  0  0  0  0  0
   -3.8730   25.3130  -30.7310 O   0  0  0  0  0  0  0  0  0  0  0  0
   -5.2540   25.6600  -30.6010 C   0  0  0  0  0  0  0  0  0  0  0  0
   -5.9920   24.6750  -29.6850 C   0  0  0  0  0  0  0  0  0  0  0  0
   -6.6900   23.5880  -30.4600 C   0  0  0  0  0  0  0  0  0  0  0  0
   -7.5490   22.6910  -29.8040 C   0  0  0  0  0  0  0  0  0  0  0  0
   -8.2400   21.7170  -30.5320 C   0  0  0  0  0  0  0  0  0  0  0  0
   -8.0780   21.6320  -31.9170 C   0  0  0  0  0  0  0  0  0  0  0  0
   -7.2240   22.5190  -32.5780 C   0  0  0  0  0  0  0  0  0  0  0  0
   -6.5290   23.4930  -31.8540 C   0  0  0  0  0  0  0  0  0  0  0  0
   -1.7393   25.7208  -26.8772 H   0  0  0  0  0  0  0  0  0  0  0  0
   -0.1687   25.5365  -27.7292 H   0  0  0  0  0  0  0  0  0  0  0  0
   -1.0096   27.1238  -27.7292 H   0  0  0  0  0  0  0  0  0  0  0  0
   -0.7588   23.3746  -27.9831 H   0  0  0  0  0  0  0  0  0  0  0  0
   -1.4774   21.0718  -28.6067 H   0  0  0  0  0  0  0  0  0  0  0  0
   -3.3072   20.7391  -30.2666 H   0  0  0  0  0  0  0  0  0  0  0  0
   -4.4305   22.7075  -31.3019 H   0  0  0  0  0  0  0  0  0  0  0  0
   -5.3309   26.6715  -30.1756 H   0  0  0  0  0  0  0  0  0  0  0  0
   -5.7173   25.6211  -31.5979 H   0  0  0  0  0  0  0  0  0  0  0  0
   -5.2634   24.2117  -29.0035 H   0  0  0  0  0  0  0  0  0  0  0  0
   -6.7574   25.2386  -29.1313 H   0  0  0  0  0  0  0  0  0  0  0  0
   -7.6788   22.7548  -28.7135 H   0  0  0  0  0  0  0  0  0  0  0  0
   -8.9118   21.0171  -30.0135 H   0  0  0  0  0  0  0  0  0  0  0  0
   -8.6233   20.8660  -32.4879 H   0  0  0  0  0  0  0  0  0  0  0  0
   -7.0983   22.4510  -33.6687 H   0  0  0  0  0  0  0  0  0  0  0  0
   -5.8542   24.1871  -32.3765 H   0  0  0  0  0  0  0  0  0  0  0  0
  1  2  1  0
  2  3  1  0
  3  4  2  0
  4  5  1  0
  5  6  2  0
  6  7  1  0
  7  8  2  0
  8  9  1  0
  9 10  1  0
 10 11  1  0
 11 12  1  0
 12 13  2  0
 13 14  1  0
 14 15  2  0
 15 16  1  0
 16 17  2  0
  8  3  1  0
 17 12  1  0
  1 18  1  0
  1 19  1  0
  1 20  1  0
  4 21  1  0
  5 22  1  0
  6 23  1  0
  7 24  1  0
 10 25  1  0
 10 26  1  0
 11 27  1  0
 11 28  1  0
 13 29  1  0
 14 30  1  0
 15 31  1  0
 16 32  1  0
 17 33  1  0
M  END
>  <UniqueID>  (25) 
23

>  <SMILES>  (25) 
COc1ccccc1OCCc1ccccc1

>  <Energy>  (25) 
30.507842362591134

>  <Genealogy>  (25) 
COc1ccccc1OCCc1ccccc1 (3D coordinates assigned)
COc1ccccc1OCCc1ccccc1 (optimized conformer: 30.507842362591134 kcal/mol)

>  <smiles>  (25) 
COc1ccccc1OCCc1ccccc1

>  <score_type>  (25) 
oracle

>  <origin>  (25) 
adg

>  <m_score__min__energy>  (25) 
-7.29

>  <m_primary>  (25) 
energy

$$$$
25:0
     RDKit          3D

 33 34  0  0  0  0  0  0  0  0999 V2000
    0.2930   26.7210  -24.6960 C   0  0  0  0  0  0  0  0  0  0  0  0
   -0.5600   26.2350  -25.3960 C   0  0  0  0  0  0  0  0  0  0  0  0
   -1.5790   25.6560  -26.2320 C   0  0  0  0  0  0  0  0  0  0  0  0
   -2.8820   25.4970  -25.7430 C   0  0  0  0  0  0  0  0  0  0  0  0
   -3.8710   24.9330  -26.5540 C   0  0  0  0  0  0  0  0  0  0  0  0
   -3.5740   24.5330  -27.8660 C   0  0  0  0  0  0  0  0  0  0  0  0
   -4.6040   23.9340  -28.6730 N   0  0  0  0  0  0  0  0  0  0  0  0
   -4.6110   23.9670  -30.1110 C   0  0  0  0  0  0  0  0  0  0  0  0
   -3.9610   24.8600  -30.7190 O   0  0  0  0  0  0  0  0  0  0  0  0
   -5.4180   22.9940  -30.8880 C   0  0  0  0  0  0  0  0  0  0  0  0
   -4.7940   21.9090  -31.5200 C   0  0  0  0  0  0  0  0  0  0  0  0
   -5.5450   20.9820  -32.2440 C   0  0  0  0  0  0  0  0  0  0  0  0
   -6.9390   21.1110  -32.3470 C   0  0  0  0  0  0  0  0  0  0  0  0
   -7.7080   20.0620  -33.1060 C   0  0  0  0  0  0  0  0  0  0  0  0
   -7.5820   22.2140  -31.7300 C   0  0  0  0  0  0  0  0  0  0  0  0
   -9.0050   22.4170  -31.8250 N   0  0  0  0  0  0  0  0  0  0  0  0
   -9.4700   23.4520  -32.3430 O   0  0  0  0  0  0  0  0  0  0  0  0
   -9.8670   21.5520  -31.1910 O   0  0  0  0  0  0  0  0  0  0  0  0
   -6.8120   23.1300  -30.9910 C   0  0  0  0  0  0  0  0  0  0  0  0
   -2.2580   24.6760  -28.3440 C   0  0  0  0  0  0  0  0  0  0  0  0
   -1.2690   25.2400  -27.5320 C   0  0  0  0  0  0  0  0  0  0  0  0
    1.0712   27.1644  -24.0574 H   0  0  0  0  0  0  0  0  0  0  0  0
   -3.1273   25.8164  -24.7194 H   0  0  0  0  0  0  0  0  0  0  0  0
   -4.8899   24.8017  -26.1608 H   0  0  0  0  0  0  0  0  0  0  0  0
   -5.4470   23.5550  -28.1860 H   0  0  0  0  0  0  0  0  0  0  0  0
   -3.7033   21.7875  -31.4445 H   0  0  0  0  0  0  0  0  0  0  0  0
   -5.0388   20.1405  -32.7397 H   0  0  0  0  0  0  0  0  0  0  0  0
   -8.2043   19.3850  -32.3951 H   0  0  0  0  0  0  0  0  0  0  0  0
   -8.4651   20.5484  -33.7387 H   0  0  0  0  0  0  0  0  0  0  0  0
   -7.0164   19.4864  -33.7387 H   0  0  0  0  0  0  0  0  0  0  0  0
   -7.3111   23.9689  -30.4840 H   0  0  0  0  0  0  0  0  0  0  0  0
   -2.0061   24.3424  -29.3615 H   0  0  0  0  0  0  0  0  0  0  0  0
   -0.2448   25.3570  -27.9159 H   0  0  0  0  0  0  0  0  0  0  0  0
  1  2  3  0
  2  3  1  0
  3  4  2  0
  4  5  1  0
  5  6  2  0
  6  7  1  0
  7  8  1  0
  8  9  2  0
  8 10  1  0
 10 11  2  0
 11 12  1  0
 12 13  2  0
 13 14  1  0
 13 15  1  0
 15 16  1  0
 16 17  2  0
 16 18  1  0
 15 19  2  0
  6 20  1  0
 20 21  2  0
 21  3  1  0
 19 10  1  0
  1 22  1  0
  4 23  1  0
  5 24  1  0
  7 25  1  0
 11 26  1  0
 12 27  1  0
 14 28  1  0
 14 29  1  0
 14 30  1  0
 19 31  1  0
 20 32  1  0
 21 33  1  0
M  CHG  2  16   1  18  -1
M  END
>  <UniqueID>  (26) 
24

>  <SMILES>  (26) 
C#Cc1ccc(NC(=O)c2ccc(C)c([N+](=O)[O-])c2)cc1

>  <Energy>  (26) 
42.04095242807515

>  <Genealogy>  (26) 
C#Cc1ccc(NC(=O)c2ccc(C)c([N+](=O)[O-])c2)cc1 (3D coordinates assigned)
C#Cc1ccc(NC(=O)c2ccc(C)c([N+](=O)[O-])c2)cc1 (optimized conformer: 42.04095242807515 kcal/mol)

>  <smiles>  (26) 
C#Cc1ccc(NC(=O)c2ccc(C)c([N+](=O)[O-])c2)cc1

>  <score_type>  (26) 
oracle

>  <origin>  (26) 
adg

>  <m_score__min__energy>  (26) 
-8

>  <m_primary>  (26) 
energy

$$$$
26:0
     RDKit          3D

 33 35  0  0  0  0  0  0  0  0999 V2000
   -3.8710   25.6710  -31.5980 H   0  0  0  0  0  0  0  0  0  0  0  0
   -4.4180   25.2070  -30.8400 N   0  0  0  0  0  0  0  0  0  0  0  0
   -4.8280   23.9800  -30.9250 C   0  0  0  0  0  0  0  0  0  0  0  0
   -4.1190   22.8960  -30.5510 N   0  0  0  0  0  0  0  0  0  0  0  0
   -2.7960   22.8380  -29.9310 C   0  0  0  0  0  0  0  0  0  0  0  0
   -2.5581   21.7939  -29.6794 H   0  0  0  0  0  0  0  0  0  0  0  0
   -2.0510   23.2332  -30.6372 H   0  0  0  0  0  0  0  0  0  0  0  0
   -2.7730   23.6690  -28.6770 C   0  0  0  0  0  0  0  0  0  0  0  0
   -1.6270   24.4020  -28.3220 C   0  0  0  0  0  0  0  0  0  0  0  0
   -0.7301   24.3592  -28.9574 H   0  0  0  0  0  0  0  0  0  0  0  0
   -1.6240   25.1850  -27.1640 C   0  0  0  0  0  0  0  0  0  0  0  0
   -0.7243   25.7553  -26.8897 H   0  0  0  0  0  0  0  0  0  0  0  0
   -2.7610   25.2450  -26.3540 C   0  0  0  0  0  0  0  0  0  0  0  0
   -2.7559   25.8628  -25.4439 H   0  0  0  0  0  0  0  0  0  0  0  0
   -3.9050   24.5200  -26.7000 C   0  0  0  0  0  0  0  0  0  0  0  0
   -4.7997   24.5677  -26.0618 H   0  0  0  0  0  0  0  0  0  0  0  0
   -3.9130   23.7340  -27.8570 C   0  0  0  0  0  0  0  0  0  0  0  0
   -4.8148   23.1645  -28.1263 H   0  0  0  0  0  0  0  0  0  0  0  0
   -4.8770   21.8320  -30.7630 N   0  0  0  0  0  0  0  0  0  0  0  0
   -6.0400   22.2890  -31.2820 C   0  0  0  0  0  0  0  0  0  0  0  0
   -7.1690   21.4030  -31.6590 C   0  0  0  0  0  0  0  0  0  0  0  0
   -6.9540   20.0700  -32.0600 C   0  0  0  0  0  0  0  0  0  0  0  0
   -5.9305   19.6686  -32.0964 H   0  0  0  0  0  0  0  0  0  0  0  0
   -8.0330   19.2540  -32.4120 C   0  0  0  0  0  0  0  0  0  0  0  0
   -7.8549   18.2148  -32.7256 H   0  0  0  0  0  0  0  0  0  0  0  0
   -9.3350   19.7530  -32.3670 C   0  0  0  0  0  0  0  0  0  0  0  0
  -10.1819   19.1076  -32.6431 H   0  0  0  0  0  0  0  0  0  0  0  0
   -9.5620   21.0730  -31.9710 C   0  0  0  0  0  0  0  0  0  0  0  0
  -10.5884   21.4670  -31.9370 H   0  0  0  0  0  0  0  0  0  0  0  0
   -8.4880   21.8940  -31.6180 C   0  0  0  0  0  0  0  0  0  0  0  0
   -8.6744   22.9321  -31.3056 H   0  0  0  0  0  0  0  0  0  0  0  0
   -6.0380   23.6380  -31.3960 N   0  0  0  0  0  0  0  0  0  0  0  0
   -6.7860   24.2780  -31.7440 H   0  0  0  0  0  0  0  0  0  0  0  0
  1  2  1  0
  2  3  2  0
  3  4  1  0
  4  5  1  0
  5  6  1  0
  5  7  1  0
  5  8  1  0
  8  9  2  0
  9 10  1  0
  9 11  1  0
 11 12  1  0
 11 13  2  0
 13 14  1  0
 13 15  1  0
 15 16  1  0
 15 17  2  0
 17 18  1  0
  4 19  1  0
 19 20  2  0
 20 21  1  0
 21 22  2  0
 22 23  1  0
 22 24  1  0
 24 25  1  0
 24 26  2  0
 26 27  1  0
 26 28  1  0
 28 29  1  0
 28 30  2  0
 30 31  1  0
 20 32  1  0
 32 33  1  0
 32  3  1  0
 17  8  1  0
 30 21  1  0
M  END
>  <UniqueID>  (27) 
25

>  <SMILES>  (27) 
[H]/N=c1/[nH]c(-c2ccccc2)nn1Cc1ccccc1

>  <Energy>  (27) 
72.16409541638768

>  <Genealogy>  (27) 
[H]/N=c1/[nH]c(-c2ccccc2)nn1Cc1ccccc1 (cis-trans isomerization)
[H]/N=c1/[nH]c(-c2ccccc2)nn1Cc1ccccc1 (3D coordinates assigned)
[H]/N=c1/[nH]c(-c2ccccc2)nn1Cc1ccccc1 (optimized conformer: 72.16409541638768 kcal/mol)

>  <smiles>  (27) 
N=c1[nH]c(-c2ccccc2)nn1Cc1ccccc1

>  <score_type>  (27) 
oracle

>  <origin>  (27) 
adg

>  <m_score__min__energy>  (27) 
-7.6200000000000001

>  <m_primary>  (27) 
energy

$$$$
27:0
     RDKit          3D

 41 42  0  0  0  0  0  0  0  0999 V2000
   -1.0150   26.0490  -27.1380 C   0  0  0  0  0  0  0  0  0  0  0  0
   -0.1300   24.8980  -27.5870 C   0  0  0  0  0  0  0  0  0  0  0  0
   -0.4460   24.5560  -28.9330 O   0  0  0  0  0  0  0  0  0  0  0  0
   -1.1450   23.4010  -29.3210 C   0  0  0  0  0  0  0  0  0  0  0  0
   -0.4820   22.1800  -29.5560 C   0  0  0  0  0  0  0  0  0  0  0  0
   -1.2020   21.0360  -29.9300 C   0  0  0  0  0  0  0  0  0  0  0  0
   -0.4850   19.7490  -30.2140 C   0  0  0  0  0  0  0  0  0  0  0  0
   -2.5890   21.1180  -30.0940 C   0  0  0  0  0  0  0  0  0  0  0  0
   -3.2560   22.3210  -29.8620 C   0  0  0  0  0  0  0  0  0  0  0  0
   -2.5470   23.4680  -29.4690 C   0  0  0  0  0  0  0  0  0  0  0  0
   -3.2970   24.7600  -29.2330 C   0  0  0  0  0  0  0  0  0  0  0  0
   -3.8650   25.2810  -30.4730 N   0  0  0  0  0  0  0  0  0  0  0  0
   -5.2460   25.1580  -30.8140 C   0  0  0  0  0  0  0  0  0  0  0  0
   -6.1110   25.7220  -30.0930 O   0  0  0  0  0  0  0  0  0  0  0  0
   -5.6280   24.4000  -31.9270 O   0  0  0  0  0  0  0  0  0  0  0  0
   -5.3870   23.0000  -32.0370 C   0  0  0  0  0  0  0  0  0  0  0  0
   -6.6990   22.2700  -32.1220 C   0  0  0  0  0  0  0  0  0  0  0  0
   -7.8630   22.8230  -31.5710 C   0  0  0  0  0  0  0  0  0  0  0  0
   -9.0610   22.1070  -31.6050 C   0  0  0  0  0  0  0  0  0  0  0  0
   -9.0840   20.8400  -32.1910 C   0  0  0  0  0  0  0  0  0  0  0  0
   -7.9460   20.3120  -32.7140 N   0  0  0  0  0  0  0  0  0  0  0  0
   -6.7650   20.9860  -32.6860 C   0  0  0  0  0  0  0  0  0  0  0  0
   -1.0418   26.0838  -26.0389 H   0  0  0  0  0  0  0  0  0  0  0  0
   -0.6099   26.9956  -27.5251 H   0  0  0  0  0  0  0  0  0  0  0  0
   -2.0339   25.9007  -27.5251 H   0  0  0  0  0  0  0  0  0  0  0  0
    0.9257   25.2002  -27.5232 H   0  0  0  0  0  0  0  0  0  0  0  0
   -0.3010   24.0275  -26.9367 H   0  0  0  0  0  0  0  0  0  0  0  0
    0.6109   22.1236  -29.4450 H   0  0  0  0  0  0  0  0  0  0  0  0
   -0.2142   19.2630  -29.2651 H   0  0  0  0  0  0  0  0  0  0  0  0
   -1.1421   19.0831  -30.7926 H   0  0  0  0  0  0  0  0  0  0  0  0
    0.4271   19.9573  -30.7926 H   0  0  0  0  0  0  0  0  0  0  0  0
   -3.1564   20.2293  -30.4075 H   0  0  0  0  0  0  0  0  0  0  0  0
   -4.3476   22.3718  -29.9880 H   0  0  0  0  0  0  0  0  0  0  0  0
   -4.1109   24.5755  -28.5164 H   0  0  0  0  0  0  0  0  0  0  0  0
   -2.5894   25.5035  -28.8374 H   0  0  0  0  0  0  0  0  0  0  0  0
   -4.7967   22.7998  -32.9434 H   0  0  0  0  0  0  0  0  0  0  0  0
   -4.8314   22.6533  -31.1532 H   0  0  0  0  0  0  0  0  0  0  0  0
   -7.8326   23.8219  -31.1114 H   0  0  0  0  0  0  0  0  0  0  0  0
   -9.9775   22.5367  -31.1745 H   0  0  0  0  0  0  0  0  0  0  0  0
  -10.0234   20.2689  -32.2294 H   0  0  0  0  0  0  0  0  0  0  0  0
   -5.8595   20.5240  -33.1062 H   0  0  0  0  0  0  0  0  0  0  0  0
  1  2  1  0
  2  3  1  0
  3  4  1  0
  4  5  2  0
  5  6  1  0
  6  7  1  0
  6  8  2  0
  8  9  1  0
  9 10  2  0
 10 11  1  0
 11 12  1  0
 12 13  1  0
 13 14  2  0
 13 15  1  0
 15 16  1  0
 16 17  1  0
 17 18  2  0
 18 19  1  0
 19 20  2  0
 20 21  1  0
 21 22  2  0
 10  4  1  0
 22 17  1  0
  1 23  1  0
  1 24  1  0
  1 25  1  0
  2 26  1  0
  2 27  1  0
  5 28  1  0
  7 29  1  0
  7 30  1  0
  7 31  1  0
  8 32  1  0
  9 33  1  0
 11 34  1  0
 11 35  1  0
 16 36  1  0
 16 37  1  0
 18 38  1  0
 19 39  1  0
 20 40  1  0
 22 41  1  0
M  CHG  1  12  -1
M  END
>  <UniqueID>  (28) 
26

>  <SMILES>  (28) 
CCOc1cc(C)ccc1C[N-]C(=O)OCc1cccnc1

>  <Energy>  (28) 
30.014313057801083

>  <Genealogy>  (28) 
CCOc1cc(C)ccc1C[N-]C(=O)OCc1cccnc1 (protonated)
CCOc1cc(C)ccc1C[N-]C(=O)OCc1cccnc1 (3D coordinates assigned)
CCOc1cc(C)ccc1C[N-]C(=O)OCc1cccnc1 (optimized conformer: 30.014313057801083 kcal/mol)

>  <smiles>  (28) 
CCOc1cc(C)ccc1CNC(=O)OCc1cccnc1

>  <score_type>  (28) 
oracle

>  <origin>  (28) 
adg

>  <m_score__min__energy>  (28) 
-8.3599999999999994

>  <m_primary>  (28) 
energy

$$$$
28:0
     RDKit          3D

 32 34  0  0  0  0  0  0  0  0999 V2000
   -4.4740   25.6690  -31.2070 O   0  0  0  0  0  0  0  0  0  0  0  0
   -4.5410   24.7150  -30.3860 C   0  0  0  0  0  0  0  0  0  0  0  0
   -5.7030   23.8020  -30.4520 C   0  0  0  0  0  0  0  0  0  0  0  0
   -6.2850   23.0790  -29.4190 C   0  0  0  0  0  0  0  0  0  0  0  0
   -7.3390   22.3830  -29.9760 C   0  0  0  0  0  0  0  0  0  0  0  0
   -7.4280   22.6630  -31.2900 N   0  0  0  0  0  0  0  0  0  0  0  0
   -8.3700   22.0710  -32.2360 C   0  0  0  0  0  0  0  0  0  0  0  0
   -8.1230   20.5930  -32.3460 C   0  0  0  0  0  0  0  0  0  0  0  0
   -7.0290   20.1110  -33.0830 C   0  0  0  0  0  0  0  0  0  0  0  0
   -6.7760   18.7370  -33.1500 C   0  0  0  0  0  0  0  0  0  0  0  0
   -7.6060   17.8370  -32.4740 C   0  0  0  0  0  0  0  0  0  0  0  0
   -8.6870   18.3110  -31.7260 C   0  0  0  0  0  0  0  0  0  0  0  0
   -8.9440   19.6850  -31.6570 C   0  0  0  0  0  0  0  0  0  0  0  0
   -6.4330   23.5200  -31.5920 C   0  0  0  0  0  0  0  0  0  0  0  0
   -3.4520   24.5480  -29.4030 C   0  0  0  0  0  0  0  0  0  0  0  0
   -3.4170   23.5960  -28.4000 C   0  0  0  0  0  0  0  0  0  0  0  0
   -2.2370   23.8090  -27.7220 C   0  0  0  0  0  0  0  0  0  0  0  0
   -1.6250   24.8750  -28.3470 C   0  0  0  0  0  0  0  0  0  0  0  0
   -2.3730   25.2930  -29.3420 O   0  0  0  0  0  0  0  0  0  0  0  0
   -5.9687   23.0639  -28.3656 H   0  0  0  0  0  0  0  0  0  0  0  0
   -8.0064   21.7015  -29.4282 H   0  0  0  0  0  0  0  0  0  0  0  0
   -9.3977   22.2439  -31.8840 H   0  0  0  0  0  0  0  0  0  0  0  0
   -8.2322   22.5358  -33.2234 H   0  0  0  0  0  0  0  0  0  0  0  0
   -6.3690   20.8163  -33.6092 H   0  0  0  0  0  0  0  0  0  0  0  0
   -5.9228   18.3637  -33.7354 H   0  0  0  0  0  0  0  0  0  0  0  0
   -7.4080   16.7565  -32.5311 H   0  0  0  0  0  0  0  0  0  0  0  0
   -9.3369   17.6032  -31.1906 H   0  0  0  0  0  0  0  0  0  0  0  0
   -9.7915   20.0550  -31.0614 H   0  0  0  0  0  0  0  0  0  0  0  0
   -6.2323   23.9320  -32.5920 H   0  0  0  0  0  0  0  0  0  0  0  0
   -4.1749   22.8276  -28.1877 H   0  0  0  0  0  0  0  0  0  0  0  0
   -1.8595   23.2434  -26.8574 H   0  0  0  0  0  0  0  0  0  0  0  0
   -0.6571   25.3093  -28.0562 H   0  0  0  0  0  0  0  0  0  0  0  0
  1  2  2  0
  2  3  1  0
  3  4  1  0
  4  5  2  0
  5  6  1  0
  6  7  1  0
  7  8  1  0
  8  9  2  0
  9 10  1  0
 10 11  2  0
 11 12  1  0
 12 13  2  0
  6 14  1  0
  2 15  1  0
 15 16  2  0
 16 17  1  0
 17 18  2  0
 18 19  1  0
 14  3  2  0
 19 15  1  0
 13  8  1  0
  4 20  1  0
  5 21  1  0
  7 22  1  0
  7 23  1  0
  9 24  1  0
 10 25  1  0
 11 26  1  0
 12 27  1  0
 13 28  1  0
 14 29  1  0
 16 30  1  0
 17 31  1  0
 18 32  1  0
M  END
>  <UniqueID>  (29) 
27

>  <SMILES>  (29) 
O=C(c1ccn(Cc2ccccc2)c1)c1ccco1

>  <Energy>  (29) 
84.86148838825655

>  <Genealogy>  (29) 
O=C(c1ccn(Cc2ccccc2)c1)c1ccco1 (3D coordinates assigned)
O=C(c1ccn(Cc2ccccc2)c1)c1ccco1 (optimized conformer: 84.86148838825655 kcal/mol)

>  <smiles>  (29) 
O=C(c1ccn(Cc2ccccc2)c1)c1ccco1

>  <score_type>  (29) 
oracle

>  <origin>  (29) 
adg

>  <m_score__min__energy>  (29) 
-8.1500000000000004

>  <m_primary>  (29) 
energy

$$$$
29:0
     RDKit          3D

 58 62  0  0  0  0  0  0  0  0999 V2000
   -6.1350   17.0650  -31.4240 C   0  0  0  0  0  0  0  0  0  0  0  0
   -6.6660   18.2490  -32.0990 N   0  0  0  0  0  0  0  0  0  0  0  0
   -7.3550   19.1970  -31.4810 N   0  0  0  0  0  0  0  0  0  0  0  0
   -7.6740   20.1470  -32.3790 C   0  0  0  0  0  0  0  0  0  0  0  0
   -8.3990   21.4160  -32.0480 C   0  0  0  0  0  0  0  0  0  0  0  0
   -7.4300   22.4430  -31.5260 C   0  0  0  0  0  0  0  0  0  0  0  0
   -6.6410   23.1920  -32.4170 C   0  0  0  0  0  0  0  0  0  0  0  0
   -5.7660   24.1700  -31.9300 C   0  0  0  0  0  0  0  0  0  0  0  0
   -5.6810   24.4150  -30.5550 C   0  0  0  0  0  0  0  0  0  0  0  0
   -6.4770   23.6850  -29.6650 C   0  0  0  0  0  0  0  0  0  0  0  0
   -7.3480   22.7040  -30.1470 C   0  0  0  0  0  0  0  0  0  0  0  0
   -7.1590   19.8040  -33.6160 C   0  0  0  0  0  0  0  0  0  0  0  0
   -6.5260   18.5900  -33.4030 C   0  0  0  0  0  0  0  0  0  0  0  0
   -5.7830   17.8360  -34.4330 C   0  0  0  0  0  0  0  0  0  0  0  0
   -6.2840   16.8030  -34.9540 O   0  0  0  0  0  0  0  0  0  0  0  0
   -4.5030   18.3150  -34.8670 N   0  0  0  0  0  0  0  0  0  0  0  0
   -3.5170   18.9720  -34.0580 C   0  0  0  0  0  0  0  0  0  0  0  0
   -2.2570   18.3760  -33.9200 C   0  0  0  0  0  0  0  0  0  0  0  0
   -1.2550   19.0030  -33.1770 C   0  0  0  0  0  0  0  0  0  0  0  0
   -1.4950   20.2430  -32.5810 C   0  0  0  0  0  0  0  0  0  0  0  0
   -2.7440   20.8650  -32.7240 C   0  0  0  0  0  0  0  0  0  0  0  0
   -2.9930   22.2260  -32.1290 C   0  0  0  0  0  0  0  0  0  0  0  0
   -2.9430   22.1550  -30.6350 C   0  0  0  0  0  0  0  0  0  0  0  0
   -2.5410   23.1810  -29.8530 N   0  0  0  0  0  0  0  0  0  0  0  0
   -2.6220   22.8780  -28.5280 C   0  0  0  0  0  0  0  0  0  0  0  0
   -2.2410   23.8500  -27.4750 C   0  0  0  0  0  0  0  0  0  0  0  0
   -3.2200   24.7120  -26.9420 C   0  0  0  0  0  0  0  0  0  0  0  0
   -2.8950   25.6240  -25.9350 C   0  0  0  0  0  0  0  0  0  0  0  0
   -1.5890   25.6920  -25.4490 C   0  0  0  0  0  0  0  0  0  0  0  0
   -0.6040   24.8520  -25.9710 C   0  0  0  0  0  0  0  0  0  0  0  0
   -0.9160   23.9320  -26.9810 C   0  0  0  0  0  0  0  0  0  0  0  0
    0.4010   22.9600  -27.6410 Cl  0  0  0  0  0  0  0  0  0  0  0  0
   -3.0790   21.5850  -28.2530 C   0  0  0  0  0  0  0  0  0  0  0  0
   -3.4030   20.8240  -29.7170 S   0  0  0  0  0  0  0  0  0  0  0  0
   -3.7520   20.2270  -33.4680 C   0  0  0  0  0  0  0  0  0  0  0  0
   -6.1977   17.2049  -30.3347 H   0  0  0  0  0  0  0  0  0  0  0  0
   -6.7235   16.1823  -31.7148 H   0  0  0  0  0  0  0  0  0  0  0  0
   -5.0845   16.9174  -31.7148 H   0  0  0  0  0  0  0  0  0  0  0  0
   -7.5880   19.2030  -30.4630 H   0  0  0  0  0  0  0  0  0  0  0  0
   -8.8869   21.8035  -32.9545 H   0  0  0  0  0  0  0  0  0  0  0  0
   -9.1549   21.2085  -31.2763 H   0  0  0  0  0  0  0  0  0  0  0  0
   -6.7116   23.0089  -33.4994 H   0  0  0  0  0  0  0  0  0  0  0  0
   -5.1438   24.7472  -32.6298 H   0  0  0  0  0  0  0  0  0  0  0  0
   -4.9892   25.1806  -30.1740 H   0  0  0  0  0  0  0  0  0  0  0  0
   -6.4170   23.8836  -28.5847 H   0  0  0  0  0  0  0  0  0  0  0  0
   -7.9725   22.1333  -29.4439 H   0  0  0  0  0  0  0  0  0  0  0  0
   -7.2349   20.3682  -34.5573 H   0  0  0  0  0  0  0  0  0  0  0  0
   -2.0555   17.4072  -34.4004 H   0  0  0  0  0  0  0  0  0  0  0  0
   -0.2740   18.5191  -33.0607 H   0  0  0  0  0  0  0  0  0  0  0  0
   -0.7019   20.7335  -31.9975 H   0  0  0  0  0  0  0  0  0  0  0  0
   -2.2218   22.9248  -32.4854 H   0  0  0  0  0  0  0  0  0  0  0  0
   -3.9891   22.5756  -32.4382 H   0  0  0  0  0  0  0  0  0  0  0  0
   -4.2510   24.6663  -27.3229 H   0  0  0  0  0  0  0  0  0  0  0  0
   -3.6693   26.2890  -25.5249 H   0  0  0  0  0  0  0  0  0  0  0  0
   -1.3353   26.4083  -24.6537 H   0  0  0  0  0  0  0  0  0  0  0  0
    0.4249   24.9126  -25.5867 H   0  0  0  0  0  0  0  0  0  0  0  0
   -3.2045   21.1431  -27.2535 H   0  0  0  0  0  0  0  0  0  0  0  0
   -4.7314   20.7128  -33.5896 H   0  0  0  0  0  0  0  0  0  0  0  0
  1  2  1  0
  2  3  1  0
  3  4  2  0
  4  5  1  0
  5  6  1  0
  6  7  2  0
  7  8  1  0
  8  9  2  0
  9 10  1  0
 10 11  2  0
  4 12  1  0
 12 13  2  0
 13 14  1  0
 14 15  2  0
 14 16  1  0
 16 17  1  0
 17 18  2  0
 18 19  1  0
 19 20  2  0
 20 21  1  0
 21 22  1  0
 22 23  1  0
 23 24  2  0
 24 25  1  0
 25 26  1  0
 26 27  2  0
 27 28  1  0
 28 29  2  0
 29 30  1  0
 30 31  2  0
 31 32  1  0
 25 33  2  0
 33 34  1  0
 21 35  2  0
 13  2  1  0
 35 17  1  0
 11  6  1  0
 34 23  1  0
 31 26  1  0
  1 36  1  0
  1 37  1  0
  1 38  1  0
  3 39  1  0
  5 40  1  0
  5 41  1  0
  7 42  1  0
  8 43  1  0
  9 44  1  0
 10 45  1  0
 11 46  1  0
 12 47  1  0
 18 48  1  0
 19 49  1  0
 20 50  1  0
 22 51  1  0
 22 52  1  0
 27 53  1  0
 28 54  1  0
 29 55  1  0
 30 56  1  0
 33 57  1  0
 35 58  1  0
M  CHG  2   3   1  16  -1
M  END
>  <UniqueID>  (30) 
28

>  <SMILES>  (30) 
Cn1[nH+]c(Cc2ccccc2)cc1C(=O)[N-]c1cccc(Cc2nc(-c3ccccc3Cl)cs2)c1

>  <Energy>  (30) 
128.821223303449

>  <Genealogy>  (30) 
Cn1[nH+]c(Cc2ccccc2)cc1C(=O)[N-]c1cccc(Cc2nc(-c3ccccc3Cl)cs2)c1 (protonated)
Cn1[nH+]c(Cc2ccccc2)cc1C(=O)[N-]c1cccc(Cc2nc(-c3ccccc3Cl)cs2)c1 (3D coordinates assigned)
Cn1[nH+]c(Cc2ccccc2)cc1C(=O)[N-]c1cccc(Cc2nc(-c3ccccc3Cl)cs2)c1 (optimized conformer: 128.821223303449 kcal/mol)

>  <smiles>  (30) 
Cn1nc(Cc2ccccc2)cc1C(=O)Nc1cccc(Cc2nc(-c3ccccc3Cl)cs2)c1

>  <score_type>  (30) 
oracle

>  <origin>  (30) 
adg

>  <m_score__min__energy>  (30) 
-11.24

>  <m_primary>  (30) 
energy

$$$$
30:0
     RDKit          3D

 52 56  0  0  0  0  0  0  0  0999 V2000
   -5.3520   16.0650  -34.0390 C   0  0  0  0  0  0  0  0  0  0  0  0
   -5.8700   17.3310  -33.4360 C   0  0  0  0  0  0  0  0  0  0  0  0
   -7.2360   17.4460  -33.0910 C   0  0  0  0  0  0  0  0  0  0  0  0
   -7.6920   18.6410  -32.5060 C   0  0  0  0  0  0  0  0  0  0  0  0
   -9.1210   18.7990  -32.0770 C   0  0  0  0  0  0  0  0  0  0  0  0
   -6.7790   19.6220  -32.2820 N   0  0  0  0  0  0  0  0  0  0  0  0
   -6.9850   20.7910  -31.7000 N   0  0  0  0  0  0  0  0  0  0  0  0
   -5.7900   21.4330  -31.6670 C   0  0  0  0  0  0  0  0  0  0  0  0
   -5.6380   22.8030  -31.1340 C   0  0  0  0  0  0  0  0  0  0  0  0
   -6.7460   23.6570  -31.0050 C   0  0  0  0  0  0  0  0  0  0  0  0
   -6.5860   24.9440  -30.4860 C   0  0  0  0  0  0  0  0  0  0  0  0
   -5.3260   25.3870  -30.0810 C   0  0  0  0  0  0  0  0  0  0  0  0
   -4.2080   24.5380  -30.1890 C   0  0  0  0  0  0  0  0  0  0  0  0
   -2.9180   24.9310  -29.7970 O   0  0  0  0  0  0  0  0  0  0  0  0
   -2.3420   24.7070  -28.5100 C   0  0  0  0  0  0  0  0  0  0  0  0
   -2.0280   23.2470  -28.3120 C   0  0  0  0  0  0  0  0  0  0  0  0
   -3.0320   22.3610  -27.8860 C   0  0  0  0  0  0  0  0  0  0  0  0
   -2.7420   21.0080  -27.6930 C   0  0  0  0  0  0  0  0  0  0  0  0
   -1.4470   20.5300  -27.9140 C   0  0  0  0  0  0  0  0  0  0  0  0
   -0.4390   21.4060  -28.3260 C   0  0  0  0  0  0  0  0  0  0  0  0
   -0.7260   22.7620  -28.5200 C   0  0  0  0  0  0  0  0  0  0  0  0
   -4.3770   23.2480  -30.7050 C   0  0  0  0  0  0  0  0  0  0  0  0
   -4.7980   20.6270  -32.2470 C   0  0  0  0  0  0  0  0  0  0  0  0
   -3.3360   20.8420  -32.3230 C   0  0  0  0  0  0  0  0  0  0  0  0
   -2.7350   21.3430  -33.4850 C   0  0  0  0  0  0  0  0  0  0  0  0
   -1.3920   21.5450  -33.5240 N   0  0  0  0  0  0  0  0  0  0  0  0
   -0.6130   21.2710  -32.4450 C   0  0  0  0  0  0  0  0  0  0  0  0
   -1.1740   20.7940  -31.3050 N   0  0  0  0  0  0  0  0  0  0  0  0
   -2.5130   20.5800  -31.2210 C   0  0  0  0  0  0  0  0  0  0  0  0
   -5.4910   19.4970  -32.6210 C   0  0  0  0  0  0  0  0  0  0  0  0
   -5.0100   18.3610  -33.1820 N   0  0  0  0  0  0  0  0  0  0  0  0
   -5.0665   15.3673  -33.2379 H   0  0  0  0  0  0  0  0  0  0  0  0
   -6.1354   15.6079  -34.6614 H   0  0  0  0  0  0  0  0  0  0  0  0
   -4.4729   16.2882  -34.6614 H   0  0  0  0  0  0  0  0  0  0  0  0
   -7.9313   16.6141  -33.2771 H   0  0  0  0  0  0  0  0  0  0  0  0
   -9.1755   18.8050  -30.9784 H   0  0  0  0  0  0  0  0  0  0  0  0
   -9.5189   19.7466  -32.4691 H   0  0  0  0  0  0  0  0  0  0  0  0
   -9.7163   17.9612  -32.4691 H   0  0  0  0  0  0  0  0  0  0  0  0
   -7.7434   23.3109  -31.3139 H   0  0  0  0  0  0  0  0  0  0  0  0
   -7.4563   25.6108  -30.3962 H   0  0  0  0  0  0  0  0  0  0  0  0
   -5.2060   26.4027  -29.6761 H   0  0  0  0  0  0  0  0  0  0  0  0
   -1.4136   25.2906  -28.4237 H   0  0  0  0  0  0  0  0  0  0  0  0
   -3.0636   25.0202  -27.7411 H   0  0  0  0  0  0  0  0  0  0  0  0
   -4.0506   22.7342  -27.7037 H   0  0  0  0  0  0  0  0  0  0  0  0
   -3.5339   20.3178  -27.3666 H   0  0  0  0  0  0  0  0  0  0  0  0
   -1.2213   19.4640  -27.7636 H   0  0  0  0  0  0  0  0  0  0  0  0
    0.5802   21.0296  -28.4978 H   0  0  0  0  0  0  0  0  0  0  0  0
    0.0711   23.4508  -28.8366 H   0  0  0  0  0  0  0  0  0  0  0  0
   -3.5107   22.5738  -30.7754 H   0  0  0  0  0  0  0  0  0  0  0  0
   -3.3510   21.5731  -34.3668 H   0  0  0  0  0  0  0  0  0  0  0  0
    0.4734   21.4360  -32.4955 H   0  0  0  0  0  0  0  0  0  0  0  0
   -2.9511   20.2004  -30.2861 H   0  0  0  0  0  0  0  0  0  0  0  0
  1  2  1  0
  2  3  1  0
  3  4  2  0
  4  5  1  0
  4  6  1  0
  6  7  1  0
  7  8  2  0
  8  9  1  0
  9 10  2  0
 10 11  1  0
 11 12  2  0
 12 13  1  0
 13 14  1  0
 14 15  1  0
 15 16  1  0
 16 17  2  0
 17 18  1  0
 18 19  2  0
 19 20  1  0
 20 21  2  0
 13 22  2  0
  8 23  1  0
 23 24  1  0
 24 25  2  0
 25 26  1  0
 26 27  2  0
 27 28  1  0
 28 29  2  0
 23 30  2  0
 30 31  1  0
 31  2  2  0
 30  6  1  0
 22  9  1  0
 29 24  1  0
 21 16  1  0
  1 32  1  0
  1 33  1  0
  1 34  1  0
  3 35  1  0
  5 36  1  0
  5 37  1  0
  5 38  1  0
 10 39  1  0
 11 40  1  0
 12 41  1  0
 15 42  1  0
 15 43  1  0
 17 44  1  0
 18 45  1  0
 19 46  1  0
 20 47  1  0
 21 48  1  0
 22 49  1  0
 25 50  1  0
 27 51  1  0
 29 52  1  0
M  END
>  <UniqueID>  (31) 
29

>  <SMILES>  (31) 
Cc1cc(C)n2nc(-c3cccc(OCc4ccccc4)c3)c(-c3cncnc3)c2n1

>  <Energy>  (31) 
102.96314892804216

>  <Genealogy>  (31) 
Cc1cc(C)n2nc(-c3cccc(OCc4ccccc4)c3)c(-c3cncnc3)c2n1 (3D coordinates assigned)
Cc1cc(C)n2nc(-c3cccc(OCc4ccccc4)c3)c(-c3cncnc3)c2n1 (optimized conformer: 102.96314892804216 kcal/mol)

>  <smiles>  (31) 
Cc1cc(C)n2nc(-c3cccc(OCc4ccccc4)c3)c(-c3cncnc3)c2n1

>  <score_type>  (31) 
oracle

>  <origin>  (31) 
adg

>  <m_score__min__energy>  (31) 
-10.029999999999999

>  <m_primary>  (31) 
energy

$$$$
31:0
     RDKit          3D

 43 46  0  0  0  0  0  0  0  0999 V2000
   -2.1010   22.2470  -28.6770 O   0  0  0  0  0  0  0  0  0  0  0  0
   -2.7730   22.9140  -29.5100 C   0  0  0  0  0  0  0  0  0  0  0  0
   -2.9280   24.3880  -29.3180 C   0  0  0  0  0  0  0  0  0  0  0  0
   -3.5810   24.9560  -30.4900 N   0  0  0  0  0  0  0  0  0  0  0  0
   -4.9790   25.2560  -30.5830 C   0  0  0  0  0  0  0  0  0  0  0  0
   -5.3540   26.4490  -30.4320 O   0  0  0  0  0  0  0  0  0  0  0  0
   -5.9960   24.2100  -30.8120 C   0  0  0  0  0  0  0  0  0  0  0  0
   -6.5960   23.5680  -29.7170 C   0  0  0  0  0  0  0  0  0  0  0  0
   -7.5700   22.5860  -29.9230 C   0  0  0  0  0  0  0  0  0  0  0  0
   -7.9620   22.2500  -31.2220 C   0  0  0  0  0  0  0  0  0  0  0  0
   -8.9090   21.2990  -31.4200 F   0  0  0  0  0  0  0  0  0  0  0  0
   -7.3860   22.9020  -32.3150 C   0  0  0  0  0  0  0  0  0  0  0  0
   -6.4110   23.8830  -32.1130 C   0  0  0  0  0  0  0  0  0  0  0  0
   -3.3460   22.2770  -30.6590 N   0  0  0  0  0  0  0  0  0  0  0  0
   -3.0890   20.8730  -30.9830 C   0  0  0  0  0  0  0  0  0  0  0  0
   -1.9680   20.7580  -31.9800 C   0  0  0  0  0  0  0  0  0  0  0  0
   -0.6320   21.1310  -31.8150 C   0  0  0  0  0  0  0  0  0  0  0  0
    0.2580   20.9330  -32.8830 C   0  0  0  0  0  0  0  0  0  0  0  0
   -0.1920   20.3680  -34.0930 C   0  0  0  0  0  0  0  0  0  0  0  0
   -1.5370   19.9930  -34.2430 C   0  0  0  0  0  0  0  0  0  0  0  0
   -2.4030   20.2000  -33.1680 C   0  0  0  0  0  0  0  0  0  0  0  0
   -3.8150   19.9070  -33.0430 C   0  0  0  0  0  0  0  0  0  0  0  0
   -4.6990   19.3370  -33.9600 C   0  0  0  0  0  0  0  0  0  0  0  0
   -6.0350   19.1580  -33.5690 C   0  0  0  0  0  0  0  0  0  0  0  0
   -6.4590   19.5440  -32.2820 C   0  0  0  0  0  0  0  0  0  0  0  0
   -5.5500   20.1140  -31.3750 C   0  0  0  0  0  0  0  0  0  0  0  0
   -4.2250   20.2900  -31.7790 C   0  0  0  0  0  0  0  0  0  0  0  0
   -3.5412   24.5806  -28.4253 H   0  0  0  0  0  0  0  0  0  0  0  0
   -1.9387   24.8502  -29.1849 H   0  0  0  0  0  0  0  0  0  0  0  0
   -6.2988   23.8385  -28.6931 H   0  0  0  0  0  0  0  0  0  0  0  0
   -8.0282   22.0774  -29.0619 H   0  0  0  0  0  0  0  0  0  0  0  0
   -7.7004   22.6428  -33.3368 H   0  0  0  0  0  0  0  0  0  0  0  0
   -5.9673   24.4007  -32.9762 H   0  0  0  0  0  0  0  0  0  0  0  0
   -3.8410   22.8730  -31.3620 H   0  0  0  0  0  0  0  0  0  0  0  0
   -2.9043   20.3799  -30.0172 H   0  0  0  0  0  0  0  0  0  0  0  0
   -0.2844   21.5706  -30.8684 H   0  0  0  0  0  0  0  0  0  0  0  0
    1.3140   21.2210  -32.7743 H   0  0  0  0  0  0  0  0  0  0  0  0
    0.5135   20.2200  -34.9239 H   0  0  0  0  0  0  0  0  0  0  0  0
   -1.8982   19.5483  -35.1820 H   0  0  0  0  0  0  0  0  0  0  0  0
   -4.3581   19.0363  -34.9617 H   0  0  0  0  0  0  0  0  0  0  0  0
   -6.7554   18.7137  -34.2716 H   0  0  0  0  0  0  0  0  0  0  0  0
   -7.5082   19.3982  -31.9855 H   0  0  0  0  0  0  0  0  0  0  0  0
   -5.8751   20.4152  -30.3682 H   0  0  0  0  0  0  0  0  0  0  0  0
  1  2  2  0
  2  3  1  0
  3  4  1  0
  4  5  1  0
  5  6  2  0
  5  7  1  0
  7  8  2  0
  8  9  1  0
  9 10  2  0
 10 11  1  0
 10 12  1  0
 12 13  2  0
  2 14  1  0
 14 15  1  0
 15 16  1  0
 16 17  2  0
 17 18  1  0
 18 19  2  0
 19 20  1  0
 20 21  2  0
 21 22  1  0
 22 23  2  0
 23 24  1  0
 24 25  2  0
 25 26  1  0
 26 27  2  0
 13  7  1  0
 27 15  1  0
 21 16  1  0
 27 22  1  0
  3 28  1  0
  3 29  1  0
  8 30  1  0
  9 31  1  0
 12 32  1  0
 13 33  1  0
 14 34  1  0
 15 35  1  0
 17 36  1  0
 18 37  1  0
 19 38  1  0
 20 39  1  0
 23 40  1  0
 24 41  1  0
 25 42  1  0
 26 43  1  0
M  CHG  1   4  -1
M  END
>  <UniqueID>  (32) 
30

>  <SMILES>  (32) 
O=C(C[N-]C(=O)c1ccc(F)cc1)NC1c2ccccc2-c2ccccc21

>  <Energy>  (32) 
70.63647486482492

>  <Genealogy>  (32) 
O=C(C[N-]C(=O)c1ccc(F)cc1)NC1c2ccccc2-c2ccccc21 (protonated)
O=C(C[N-]C(=O)c1ccc(F)cc1)NC1c2ccccc2-c2ccccc21 (3D coordinates assigned)
O=C(C[N-]C(=O)c1ccc(F)cc1)NC1c2ccccc2-c2ccccc21 (nonaromatic ring conformer: 70.63647486482492 kcal/mol)

>  <smiles>  (32) 
O=C(CNC(=O)c1ccc(F)cc1)NC1c2ccccc2-c2ccccc21

>  <score_type>  (32) 
oracle

>  <origin>  (32) 
adg

>  <m_score__min__energy>  (32) 
-11.99

>  <m_primary>  (32) 
energy

$$$$
32:0
     RDKit          3D

 36 38  0  0  0  0  0  0  0  0999 V2000
   -3.4770   20.7750  -32.0430 C   0  0  0  0  0  0  0  0  0  0  0  0
   -4.3330   21.9600  -31.6700 C   0  0  0  0  0  0  0  0  0  0  0  0
   -3.7100   23.1240  -31.1960 C   0  0  0  0  0  0  0  0  0  0  0  0
   -4.4780   24.2340  -30.8430 C   0  0  0  0  0  0  0  0  0  0  0  0
   -3.9130   25.2760  -30.4190 O   0  0  0  0  0  0  0  0  0  0  0  0
   -5.8340   24.1950  -30.9560 N   0  0  0  0  0  0  0  0  0  0  0  0
   -6.4810   23.0840  -31.4120 C   0  0  0  0  0  0  0  0  0  0  0  0
   -7.8790   23.0800  -31.5170 C   0  0  0  0  0  0  0  0  0  0  0  0
   -8.5520   21.9510  -31.9800 C   0  0  0  0  0  0  0  0  0  0  0  0
   -7.8410   20.7950  -32.3460 C   0  0  0  0  0  0  0  0  0  0  0  0
   -8.5090   19.6100  -32.8230 N   0  0  0  0  0  0  0  0  0  0  0  0
   -8.2540   18.2580  -32.3250 C   0  0  0  0  0  0  0  0  0  0  0  0
   -6.9180   17.7540  -32.8060 C   0  0  0  0  0  0  0  0  0  0  0  0
   -6.1150   16.9530  -31.9760 C   0  0  0  0  0  0  0  0  0  0  0  0
   -4.8770   16.4870  -32.4330 C   0  0  0  0  0  0  0  0  0  0  0  0
   -4.4370   16.8100  -33.7190 C   0  0  0  0  0  0  0  0  0  0  0  0
   -3.2380   16.3570  -34.1600 F   0  0  0  0  0  0  0  0  0  0  0  0
   -5.2360   17.5970  -34.5540 C   0  0  0  0  0  0  0  0  0  0  0  0
   -6.4730   18.0640  -34.1020 C   0  0  0  0  0  0  0  0  0  0  0  0
   -6.4390   20.7960  -32.2500 C   0  0  0  0  0  0  0  0  0  0  0  0
   -5.7440   21.9310  -31.7830 C   0  0  0  0  0  0  0  0  0  0  0  0
   -3.1188   20.2792  -31.1288 H   0  0  0  0  0  0  0  0  0  0  0  0
   -4.0721   20.0650  -32.6361 H   0  0  0  0  0  0  0  0  0  0  0  0
   -2.6160   21.1168  -32.6361 H   0  0  0  0  0  0  0  0  0  0  0  0
   -2.6146   23.1617  -31.1025 H   0  0  0  0  0  0  0  0  0  0  0  0
   -6.3830   25.0420  -30.6860 H   0  0  0  0  0  0  0  0  0  0  0  0
   -8.4497   23.9760  -31.2314 H   0  0  0  0  0  0  0  0  0  0  0  0
   -9.6490   21.9646  -32.0597 H   0  0  0  0  0  0  0  0  0  0  0  0
   -9.1870   19.7040  -33.6140 H   0  0  0  0  0  0  0  0  0  0  0  0
   -8.2596   18.2718  -31.2251 H   0  0  0  0  0  0  0  0  0  0  0  0
   -9.0405   17.5886  -32.7034 H   0  0  0  0  0  0  0  0  0  0  0  0
   -6.4604   16.6917  -30.9648 H   0  0  0  0  0  0  0  0  0  0  0  0
   -4.2490   15.8650  -31.7782 H   0  0  0  0  0  0  0  0  0  0  0  0
   -4.8905   17.8487  -35.5676 H   0  0  0  0  0  0  0  0  0  0  0  0
   -7.1015   18.6775  -34.7643 H   0  0  0  0  0  0  0  0  0  0  0  0
   -5.8752   19.8982  -32.5434 H   0  0  0  0  0  0  0  0  0  0  0  0
  1  2  1  0
  2  3  2  0
  3  4  1  0
  4  5  2  0
  4  6  1  0
  6  7  1  0
  7  8  2  0
  8  9  1  0
  9 10  2  0
 10 11  1  0
 11 12  1  0
 12 13  1  0
 13 14  2  0
 14 15  1  0
 15 16  2  0
 16 17  1  0
 16 18  1  0
 18 19  2  0
 10 20  1  0
 20 21  2  0
 21  2  1  0
 21  7  1  0
 19 13  1  0
  1 22  1  0
  1 23  1  0
  1 24  1  0
  3 25  1  0
  6 26  1  0
  8 27  1  0
  9 28  1  0
 11 29  1  0
 12 30  1  0
 12 31  1  0
 14 32  1  0
 15 33  1  0
 18 34  1  0
 19 35  1  0
 20 36  1  0
M  END
>  <UniqueID>  (33) 
31

>  <SMILES>  (33) 
Cc1cc(=O)[nH]c2ccc(NCc3ccc(F)cc3)cc12

>  <Energy>  (33) 
42.91175427216954

>  <Genealogy>  (33) 
Cc1cc(=O)[nH]c2ccc(NCc3ccc(F)cc3)cc12 (3D coordinates assigned)
Cc1cc(=O)[nH]c2ccc(NCc3ccc(F)cc3)cc12 (optimized conformer: 42.91175427216954 kcal/mol)

>  <smiles>  (33) 
Cc1cc(=O)[nH]c2ccc(NCc3ccc(F)cc3)cc12

>  <score_type>  (33) 
oracle

>  <origin>  (33) 
adg

>  <m_score__min__energy>  (33) 
-8.3900000000000006

>  <m_primary>  (33) 
energy

$$$$
33:0
     RDKit          3D

 35 37  0  0  0  0  0  0  0  0999 V2000
   -6.0330   19.1390  -34.5680 C   0  0  0  0  0  0  0  0  0  0  0  0
   -6.5400   19.8500  -33.3570 C   0  0  0  0  0  0  0  0  0  0  0  0
   -6.1100   21.0680  -32.9620 N   0  0  0  0  0  0  0  0  0  0  0  0
   -6.7850   21.5380  -31.8740 C   0  0  0  0  0  0  0  0  0  0  0  0
   -6.4820   22.8510  -31.2520 C   0  0  0  0  0  0  0  0  0  0  0  0
   -7.5150   23.6690  -30.7590 C   0  0  0  0  0  0  0  0  0  0  0  0
   -7.2240   24.9080  -30.1840 C   0  0  0  0  0  0  0  0  0  0  0  0
   -5.9020   25.3440  -30.0850 C   0  0  0  0  0  0  0  0  0  0  0  0
   -4.8550   24.5300  -30.5480 C   0  0  0  0  0  0  0  0  0  0  0  0
   -3.4840   24.9500  -30.4680 N   0  0  0  0  0  0  0  0  0  0  0  0
   -2.5590   24.6220  -29.4230 C   0  0  0  0  0  0  0  0  0  0  0  0
   -1.8360   25.5380  -28.9490 O   0  0  0  0  0  0  0  0  0  0  0  0
   -2.3910   23.2340  -28.9280 C   0  0  0  0  0  0  0  0  0  0  0  0
   -3.3090   22.6760  -28.0180 C   0  0  0  0  0  0  0  0  0  0  0  0
   -3.1430   21.3660  -27.5610 C   0  0  0  0  0  0  0  0  0  0  0  0
   -2.0680   20.5960  -28.0120 C   0  0  0  0  0  0  0  0  0  0  0  0
   -1.1600   21.1340  -28.9280 C   0  0  0  0  0  0  0  0  0  0  0  0
   -1.3220   22.4450  -29.3880 C   0  0  0  0  0  0  0  0  0  0  0  0
   -5.1510   23.2990  -31.1460 C   0  0  0  0  0  0  0  0  0  0  0  0
   -7.7840   20.6800  -31.4060 C   0  0  0  0  0  0  0  0  0  0  0  0
   -7.8030   19.3150  -32.3890 S   0  0  0  0  0  0  0  0  0  0  0  0
   -5.4201   18.2795  -34.2588 H   0  0  0  0  0  0  0  0  0  0  0  0
   -6.8839   18.7854  -35.1687 H   0  0  0  0  0  0  0  0  0  0  0  0
   -5.4214   19.8283  -35.1687 H   0  0  0  0  0  0  0  0  0  0  0  0
   -5.3610   21.5950  -33.4640 H   0  0  0  0  0  0  0  0  0  0  0  0
   -8.5593   23.3303  -30.8269 H   0  0  0  0  0  0  0  0  0  0  0  0
   -8.0399   25.5426  -29.8077 H   0  0  0  0  0  0  0  0  0  0  0  0
   -5.6795   26.3267  -29.6437 H   0  0  0  0  0  0  0  0  0  0  0  0
   -4.1616   23.2746  -27.6648 H   0  0  0  0  0  0  0  0  0  0  0  0
   -3.8605   20.9399  -26.8443 H   0  0  0  0  0  0  0  0  0  0  0  0
   -1.9364   19.5669  -27.6463 H   0  0  0  0  0  0  0  0  0  0  0  0
   -0.3169   20.5258  -29.2877 H   0  0  0  0  0  0  0  0  0  0  0  0
   -0.6085   22.8614  -30.1143 H   0  0  0  0  0  0  0  0  0  0  0  0
   -4.3344   22.6746  -31.5376 H   0  0  0  0  0  0  0  0  0  0  0  0
   -8.4430   20.8650  -30.5449 H   0  0  0  0  0  0  0  0  0  0  0  0
  1  2  1  0
  2  3  2  0
  3  4  1  0
  4  5  1  0
  5  6  2  0
  6  7  1  0
  7  8  2  0
  8  9  1  0
  9 10  1  0
 10 11  1  0
 11 12  2  0
 11 13  1  0
 13 14  2  0
 14 15  1  0
 15 16  2  0
 16 17  1  0
 17 18  2  0
  9 19  2  0
  4 20  2  0
 20 21  1  0
 21  2  1  0
 19  5  1  0
 18 13  1  0
  1 22  1  0
  1 23  1  0
  1 24  1  0
  3 25  1  0
  6 26  1  0
  7 27  1  0
  8 28  1  0
 14 29  1  0
 15 30  1  0
 16 31  1  0
 17 32  1  0
 18 33  1  0
 19 34  1  0
 20 35  1  0
M  CHG  2   3   1  10  -1
M  END
>  <UniqueID>  (34) 
32

>  <SMILES>  (34) 
Cc1[nH+]c(-c2cccc([N-]C(=O)c3ccccc3)c2)cs1

>  <Energy>  (34) 
75.43653740510597

>  <Genealogy>  (34) 
Cc1[nH+]c(-c2cccc([N-]C(=O)c3ccccc3)c2)cs1 (protonated)
Cc1[nH+]c(-c2cccc([N-]C(=O)c3ccccc3)c2)cs1 (3D coordinates assigned)
Cc1[nH+]c(-c2cccc([N-]C(=O)c3ccccc3)c2)cs1 (optimized conformer: 75.43653740510597 kcal/mol)

>  <smiles>  (34) 
Cc1nc(-c2cccc(NC(=O)c3ccccc3)c2)cs1

>  <score_type>  (34) 
oracle

>  <origin>  (34) 
adg

>  <m_score__min__energy>  (34) 
-9.4399999999999995

>  <m_primary>  (34) 
energy

$$$$
34:0
     RDKit          3D

 33 35  0  0  0  0  0  0  0  0999 V2000
   -0.1838   23.4012  -28.0914 H   0  0  0  0  0  0  0  0  0  0  0  0
   -1.0310   23.4030  -28.7930 C   0  0  0  0  0  0  0  0  0  0  0  0
   -1.7500   24.4860  -29.1400 N   0  0  0  0  0  0  0  0  0  0  0  0
   -2.6710   24.0190  -30.0080 C   0  0  0  0  0  0  0  0  0  0  0  0
   -3.5940   24.8110  -30.4800 N   0  0  0  0  0  0  0  0  0  0  0  0
   -5.2640   25.0130  -30.0420 S   0  0  0  0  0  0  0  0  0  0  0  0
   -5.7480   26.3670  -30.4760 O   0  0  0  0  0  0  0  0  0  0  0  0
   -5.3640   24.9360  -28.5460 O   0  0  0  0  0  0  0  0  0  0  0  0
   -6.2730   23.7300  -30.7000 C   0  0  0  0  0  0  0  0  0  0  0  0
   -7.1700   23.0430  -29.8710 C   0  0  0  0  0  0  0  0  0  0  0  0
   -7.2466   23.3081  -28.8062 H   0  0  0  0  0  0  0  0  0  0  0  0
   -7.9680   22.0210  -30.3950 C   0  0  0  0  0  0  0  0  0  0  0  0
   -8.6644   21.4774  -29.7397 H   0  0  0  0  0  0  0  0  0  0  0  0
   -7.8820   21.6890  -31.7510 C   0  0  0  0  0  0  0  0  0  0  0  0
   -8.8760   20.4010  -32.4050 Cl  0  0  0  0  0  0  0  0  0  0  0  0
   -7.0030   22.3880  -32.5860 C   0  0  0  0  0  0  0  0  0  0  0  0
   -6.9416   22.1346  -33.6546 H   0  0  0  0  0  0  0  0  0  0  0  0
   -6.2030   23.4080  -32.0630 C   0  0  0  0  0  0  0  0  0  0  0  0
   -5.5167   23.9596  -32.7224 H   0  0  0  0  0  0  0  0  0  0  0  0
   -2.5530   22.6790  -30.2230 N   0  0  0  0  0  0  0  0  0  0  0  0
   -3.1480   21.8160  -31.2000 C   0  0  0  0  0  0  0  0  0  0  0  0
   -4.1690   20.9320  -30.8190 C   0  0  0  0  0  0  0  0  0  0  0  0
   -4.5606   20.9566  -29.7914 H   0  0  0  0  0  0  0  0  0  0  0  0
   -4.6900   20.0200  -31.7420 C   0  0  0  0  0  0  0  0  0  0  0  0
   -5.5080   19.3462  -31.4472 H   0  0  0  0  0  0  0  0  0  0  0  0
   -4.1720   19.9640  -33.0390 C   0  0  0  0  0  0  0  0  0  0  0  0
   -4.5936   19.2586  -33.7702 H   0  0  0  0  0  0  0  0  0  0  0  0
   -3.1180   20.8050  -33.4060 C   0  0  0  0  0  0  0  0  0  0  0  0
   -2.7007   20.7508  -34.4223 H   0  0  0  0  0  0  0  0  0  0  0  0
   -2.5930   21.7150  -32.4840 C   0  0  0  0  0  0  0  0  0  0  0  0
   -1.7427   22.3533  -32.7661 H   0  0  0  0  0  0  0  0  0  0  0  0
   -1.5190   22.2990  -29.4510 C   0  0  0  0  0  0  0  0  0  0  0  0
   -1.1286   21.2745  -29.3611 H   0  0  0  0  0  0  0  0  0  0  0  0
  1  2  1  0
  2  3  1  0
  3  4  1  0
  4  5  2  0
  5  6  1  0
  6  7  2  0
  6  8  2  0
  6  9  1  0
  9 10  2  0
 10 11  1  0
 10 12  1  0
 12 13  1  0
 12 14  2  0
 14 15  1  0
 14 16  1  0
 16 17  1  0
 16 18  2  0
 18 19  1  0
  4 20  1  0
 20 21  1  0
 21 22  2  0
 22 23  1  0
 22 24  1  0
 24 25  1  0
 24 26  2  0
 26 27  1  0
 26 28  1  0
 28 29  1  0
 28 30  2  0
 30 31  1  0
 20 32  1  0
 32 33  1  0
 32  2  2  0
 18  9  1  0
 30 21  1  0
M  CHG  1   3  -1
M  END
>  <UniqueID>  (35) 
33

>  <SMILES>  (35) 
O=S(=O)(/N=c1/[n-]ccn1-c1ccccc1)c1ccc(Cl)cc1

>  <Energy>  (35) 
81.12315187048799

>  <Genealogy>  (35) 
O=S(=O)(N=c1[n-]ccn1-c1ccccc1)c1ccc(Cl)cc1 (protonated)
O=S(=O)(/N=c1/[n-]ccn1-c1ccccc1)c1ccc(Cl)cc1 (cis-trans isomerization)
O=S(=O)(/N=c1/[n-]ccn1-c1ccccc1)c1ccc(Cl)cc1 (3D coordinates assigned)
O=S(=O)(/N=c1/[n-]ccn1-c1ccccc1)c1ccc(Cl)cc1 (optimized conformer: 81.12315187048799 kcal/mol)

>  <smiles>  (35) 
O=S(=O)(N=c1[nH]ccn1-c1ccccc1)c1ccc(Cl)cc1

>  <score_type>  (35) 
oracle

>  <origin>  (35) 
adg

>  <m_score__min__energy>  (35) 
-9.4900000000000002

>  <m_primary>  (35) 
energy

$$$$
35:0
     RDKit          3D

 32 34  0  0  0  0  0  0  0  0999 V2000
   -2.6630   23.2710  -27.2630 N   0  0  0  0  0  0  0  0  0  0  0  0
   -3.2800   23.2810  -28.3870 C   0  0  0  0  0  0  0  0  0  0  0  0
   -3.5540   22.0070  -28.8830 N   0  0  0  0  0  0  0  0  0  0  0  0
   -4.1910   21.9510  -30.0540 C   0  0  0  0  0  0  0  0  0  0  0  0
   -4.5950   23.0790  -30.8050 C   0  0  0  0  0  0  0  0  0  0  0  0
   -5.2620   22.7560  -32.0810 C   0  0  0  0  0  0  0  0  0  0  0  0
   -6.6420   22.3340  -32.0620 C   0  0  0  0  0  0  0  0  0  0  0  0
   -7.6340   23.3190  -32.1660 C   0  0  0  0  0  0  0  0  0  0  0  0
   -8.9870   22.9810  -32.2490 C   0  0  0  0  0  0  0  0  0  0  0  0
   -9.7960   23.9560  -32.3390 O   0  0  0  0  0  0  0  0  0  0  0  0
   -9.3960   21.7150  -32.2330 O   0  0  0  0  0  0  0  0  0  0  0  0
   -8.4870   20.7540  -32.1320 C   0  0  0  0  0  0  0  0  0  0  0  0
   -8.9740   19.4690  -32.1150 C   0  0  0  0  0  0  0  0  0  0  0  0
   -8.0650   18.4070  -32.0060 C   0  0  0  0  0  0  0  0  0  0  0  0
   -6.6860   18.6690  -31.9190 C   0  0  0  0  0  0  0  0  0  0  0  0
   -6.3000   19.9570  -31.9470 C   0  0  0  0  0  0  0  0  0  0  0  0
   -7.1330   21.0280  -32.0510 C   0  0  0  0  0  0  0  0  0  0  0  0
   -4.3040   24.2610  -30.2810 C   0  0  0  0  0  0  0  0  0  0  0  0
   -4.5800   25.4470  -30.7730 N   0  0  0  0  0  0  0  0  0  0  0  0
   -3.6520   24.3450  -29.0780 N   0  0  0  0  0  0  0  0  0  0  0  0
   -2.0940   22.5130  -26.8690 H   0  0  0  0  0  0  0  0  0  0  0  0
   -3.2500   21.1740  -28.3380 H   0  0  0  0  0  0  0  0  0  0  0  0
   -4.4182   20.9561  -30.4646 H   0  0  0  0  0  0  0  0  0  0  0  0
   -5.2092   23.6572  -32.7095 H   0  0  0  0  0  0  0  0  0  0  0  0
   -4.7204   21.8705  -32.4450 H   0  0  0  0  0  0  0  0  0  0  0  0
   -7.3413   24.3792  -32.1826 H   0  0  0  0  0  0  0  0  0  0  0  0
  -10.0549   19.2775  -32.1855 H   0  0  0  0  0  0  0  0  0  0  0  0
   -8.4303   17.3696  -31.9885 H   0  0  0  0  0  0  0  0  0  0  0  0
   -5.9529   17.8536  -31.8316 H   0  0  0  0  0  0  0  0  0  0  0  0
   -5.2213   20.1617  -31.8803 H   0  0  0  0  0  0  0  0  0  0  0  0
   -3.9130   25.6410  -31.5900 H   0  0  0  0  0  0  0  0  0  0  0  0
   -3.4250   25.3080  -28.6640 H   0  0  0  0  0  0  0  0  0  0  0  0
  1  2  2  3
  2  3  1  0
  3  4  1  0
  4  5  2  0
  5  6  1  0
  6  7  1  0
  7  8  2  0
  8  9  1  0
  9 10  2  0
  9 11  1  0
 11 12  1  0
 12 13  2  0
 13 14  1  0
 14 15  2  0
 15 16  1  0
 16 17  2  0
  5 18  1  0
 18 19  2  3
 18 20  1  0
 20  2  1  0
 17  7  1  0
 17 12  1  0
  1 21  1  0
  3 22  1  0
  4 23  1  0
  6 24  1  0
  6 25  1  0
  8 26  1  0
 13 27  1  0
 14 28  1  0
 15 29  1  0
 16 30  1  0
 19 31  1  0
 20 32  1  0
M  END
>  <smiles>  (36) 
N=c1[nH]cc(Cc2cc(=O)oc3ccccc23)c(=N)[nH]1

>  <score_type>  (36) 
oracle

>  <origin>  (36) 
adg

>  <m_score__min__energy>  (36) 
-7.4500000000000002

>  <m_primary>  (36) 
energy

$$$$
36:0
     RDKit          3D

 39 41  0  0  0  0  0  0  0  0999 V2000
   -0.1490   20.5670  -29.6300 N   0  0  0  0  0  0  0  0  0  0  0  0
   -0.6290   20.6340  -28.4110 C   0  0  0  0  0  0  0  0  0  0  0  0
   -1.5230   19.6530  -27.9350 C   0  0  0  0  0  0  0  0  0  0  0  0
   -2.0160   19.7380  -26.6600 C   0  0  0  0  0  0  0  0  0  0  0  0
   -3.1200   18.5860  -25.9690 Cl  0  0  0  0  0  0  0  0  0  0  0  0
   -1.6060   20.7800  -25.9130 N   0  0  0  0  0  0  0  0  0  0  0  0
   -0.7660   21.7240  -26.3110 C   0  0  0  0  0  0  0  0  0  0  0  0
   -0.2730   23.0510  -25.1780 S   0  0  0  0  0  0  0  0  0  0  0  0
   -1.2280   24.4800  -25.7230 C   0  0  0  0  0  0  0  0  0  0  0  0
   -2.0000   24.2970  -26.9550 C   0  0  0  0  0  0  0  0  0  0  0  0
   -3.3700   24.1520  -26.8930 C   0  0  0  0  0  0  0  0  0  0  0  0
   -4.0320   24.0060  -28.0550 C   0  0  0  0  0  0  0  0  0  0  0  0
   -3.4100   23.9970  -29.3160 C   0  0  0  0  0  0  0  0  0  0  0  0
   -4.1840   23.8620  -30.4410 C   0  0  0  0  0  0  0  0  0  0  0  0
   -3.9650   25.3870  -30.8070 O   0  0  0  0  0  0  0  0  0  0  0  0
   -4.9430   23.7540  -31.5560 N   0  0  0  0  0  0  0  0  0  0  0  0
   -5.9680   22.9770  -31.6370 C   0  0  0  0  0  0  0  0  0  0  0  0
   -5.7440   21.7460  -32.2890 C   0  0  0  0  0  0  0  0  0  0  0  0
   -6.7630   20.8610  -32.4040 C   0  0  0  0  0  0  0  0  0  0  0  0
   -7.9650   21.1930  -31.8840 N   0  0  0  0  0  0  0  0  0  0  0  0
   -8.2580   22.3150  -31.2670 C   0  0  0  0  0  0  0  0  0  0  0  0
   -7.2200   23.2400  -31.1410 C   0  0  0  0  0  0  0  0  0  0  0  0
   -2.0370   24.1390  -29.3560 C   0  0  0  0  0  0  0  0  0  0  0  0
   -1.3100   24.2950  -28.1560 C   0  0  0  0  0  0  0  0  0  0  0  0
   -0.2620   21.6650  -27.5790 N   0  0  0  0  0  0  0  0  0  0  0  0
   -0.6390   19.9190  -30.2470 H   0  0  0  0  0  0  0  0  0  0  0  0
   -1.8243   18.8200  -28.5872 H   0  0  0  0  0  0  0  0  0  0  0  0
   -1.9820   20.8640  -24.9280 H   0  0  0  0  0  0  0  0  0  0  0  0
   -1.9317   24.7425  -24.9193 H   0  0  0  0  0  0  0  0  0  0  0  0
   -0.4909   25.2656  -25.9454 H   0  0  0  0  0  0  0  0  0  0  0  0
   -3.9014   24.1556  -25.9299 H   0  0  0  0  0  0  0  0  0  0  0  0
   -5.1248   23.8866  -28.0163 H   0  0  0  0  0  0  0  0  0  0  0  0
   -4.7519   21.5074  -32.6998 H   0  0  0  0  0  0  0  0  0  0  0  0
   -6.6154   19.8949  -32.9088 H   0  0  0  0  0  0  0  0  0  0  0  0
   -8.7140   20.5090  -32.0020 H   0  0  0  0  0  0  0  0  0  0  0  0
   -9.2649   22.5146  -30.8717 H   0  0  0  0  0  0  0  0  0  0  0  0
   -7.4094   24.1979  -30.6345 H   0  0  0  0  0  0  0  0  0  0  0  0
   -1.5104   24.1306  -30.3217 H   0  0  0  0  0  0  0  0  0  0  0  0
   -0.2165   24.4127  -28.1744 H   0  0  0  0  0  0  0  0  0  0  0  0
  1  2  2  3
  2  3  1  0
  3  4  2  0
  4  5  1  0
  4  6  1  0
  6  7  1  0
  7  8  1  0
  8  9  1  0
  9 10  1  0
 10 11  2  0
 11 12  1  0
 12 13  2  0
 13 14  1  0
 14 15  2  0
 14 16  1  0
 16 17  2  3
 17 18  1  0
 18 19  2  0
 19 20  1  0
 20 21  1  0
 21 22  2  0
 13 23  1  0
 23 24  2  0
  7 25  2  0
 25  2  1  0
 24 10  1  0
 22 17  1  0
  1 26  1  0
  3 27  1  0
  6 28  1  0
  9 29  1  0
  9 30  1  0
 11 31  1  0
 12 32  1  0
 18 33  1  0
 19 34  1  0
 20 35  1  0
 21 36  1  0
 22 37  1  0
 23 38  1  0
 24 39  1  0
M  END
>  <smiles>  (37) 
N=c1cc(Cl)[nH]c(SCc2ccc(C(=O)N=c3cc[nH]cc3)cc2)n1

>  <score_type>  (37) 
oracle

>  <origin>  (37) 
adg

>  <m_score__min__energy>  (37) 
-8.6799999999999997

>  <m_primary>  (37) 
energy

$$$$
37:0
     RDKit          3D

 44 47  0  0  0  0  0  0  0  0999 V2000
   -5.9925   25.3411  -29.9841 H   0  0  0  0  0  0  0  0  0  0  0  0
   -5.2220   24.6050  -30.2570 C   0  0  0  0  0  0  0  0  0  0  0  0
   -3.9470   24.8960  -29.9350 C   0  0  0  0  0  0  0  0  0  0  0  0
   -3.4473   25.6526  -30.5578 H   0  0  0  0  0  0  0  0  0  0  0  0
   -3.1170   24.2950  -28.8040 C   0  0  2  0  0  0  0  0  0  0  0  0
   -2.6420   22.8690  -29.1090 C   0  0  0  0  0  0  0  0  0  0  0  0
   -1.7800   22.6530  -30.2070 C   0  0  0  0  0  0  0  0  0  0  0  0
   -1.4753   23.5046  -30.8330 H   0  0  0  0  0  0  0  0  0  0  0  0
   -1.3090   21.3730  -30.5090 C   0  0  0  0  0  0  0  0  0  0  0  0
   -0.6370   21.2237  -31.3670 H   0  0  0  0  0  0  0  0  0  0  0  0
   -1.6890   20.2840  -29.7250 C   0  0  0  0  0  0  0  0  0  0  0  0
   -1.3129   19.2776  -29.9608 H   0  0  0  0  0  0  0  0  0  0  0  0
   -2.5470   20.4730  -28.6410 C   0  0  0  0  0  0  0  0  0  0  0  0
   -2.8482   19.6130  -28.0249 H   0  0  0  0  0  0  0  0  0  0  0  0
   -3.0260   21.7510  -28.3340 C   0  0  0  0  0  0  0  0  0  0  0  0
   -3.7078   21.8871  -27.4816 H   0  0  0  0  0  0  0  0  0  0  0  0
   -4.2020   24.1880  -27.3180 S   0  0  0  0  0  0  0  0  0  0  0  0
   -3.1220   25.2370  -26.3620 C   0  0  0  0  0  0  0  0  0  0  0  0
   -3.4190   25.5890  -25.2280 O   0  0  0  0  0  0  0  0  0  0  0  0
   -1.8800   25.7060  -27.0240 C   0  0  1  0  0  0  0  0  0  0  0  0
   -1.7668   26.7978  -26.9529 H   0  0  0  0  0  0  0  0  0  0  0  0
   -0.6410   25.1090  -26.3550 C   0  0  0  0  0  0  0  0  0  0  0  0
   -0.7526   25.1628  -25.2620 H   0  0  0  0  0  0  0  0  0  0  0  0
   -0.5295   24.0583  -26.6609 H   0  0  0  0  0  0  0  0  0  0  0  0
    0.2503   25.6765  -26.6609 H   0  0  0  0  0  0  0  0  0  0  0  0
   -1.9960   25.2520  -28.4420 C   0  0  0  0  0  0  0  0  0  0  0  0
   -1.2120   25.6670  -29.2810 O   0  0  0  0  0  0  0  0  0  0  0  0
   -5.6690   23.3810  -30.9450 C   0  0  0  0  0  0  0  0  0  0  0  0
   -4.7960   22.6790  -31.7860 C   0  0  0  0  0  0  0  0  0  0  0  0
   -3.7738   23.0519  -31.9476 H   0  0  0  0  0  0  0  0  0  0  0  0
   -5.2170   21.5070  -32.4210 C   0  0  0  0  0  0  0  0  0  0  0  0
   -4.5181   20.9493  -33.0617 H   0  0  0  0  0  0  0  0  0  0  0  0
   -6.5270   21.0400  -32.2440 C   0  0  0  0  0  0  0  0  0  0  0  0
   -6.9540   19.8510  -32.8540 C   0  0  0  0  0  0  0  0  0  0  0  0
   -6.2564   19.2741  -33.4789 H   0  0  0  0  0  0  0  0  0  0  0  0
   -8.2640   19.3970  -32.6700 C   0  0  0  0  0  0  0  0  0  0  0  0
   -8.5922   18.4606  -33.1447 H   0  0  0  0  0  0  0  0  0  0  0  0
   -9.1570   20.1310  -31.8840 C   0  0  0  0  0  0  0  0  0  0  0  0
  -10.1871   19.7715  -31.7442 H   0  0  0  0  0  0  0  0  0  0  0  0
   -8.7460   21.3200  -31.2750 C   0  0  0  0  0  0  0  0  0  0  0  0
   -9.4544   21.8957  -30.6612 H   0  0  0  0  0  0  0  0  0  0  0  0
   -7.4310   21.7810  -31.4450 C   0  0  0  0  0  0  0  0  0  0  0  0
   -7.0010   22.9620  -30.8210 C   0  0  0  0  0  0  0  0  0  0  0  0
   -7.7115   23.5611  -30.2325 H   0  0  0  0  0  0  0  0  0  0  0  0
  1  2  1  0
  2  3  2  0
  3  4  1  0
  5  3  1  0
  5  6  1  6
  6  7  2  0
  7  8  1  0
  7  9  1  0
  9 10  1  0
  9 11  2  0
 11 12  1  0
 11 13  1  0
 13 14  1  0
 13 15  2  0
 15 16  1  0
  5 17  1  0
 17 18  1  0
 18 19  2  0
 18 20  1  0
 20 21  1  6
 20 22  1  0
 22 23  1  0
 22 24  1  0
 22 25  1  0
 20 26  1  0
 26 27  2  0
  2 28  1  0
 28 29  2  0
 29 30  1  0
 29 31  1  0
 31 32  1  0
 31 33  2  0
 33 34  1  0
 34 35  1  0
 34 36  2  0
 36 37  1  0
 36 38  1  0
 38 39  1  0
 38 40  2  0
 40 41  1  0
 40 42  1  0
 42 43  2  0
 43 44  1  0
 26  5  1  0
 43 28  1  0
 15  6  1  0
 42 33  1  0
M  END
>  <UniqueID>  (38) 
34

>  <SMILES>  (38) 
C[C@@H]1C(=O)S[C@](/C=C\c2ccc3ccccc3c2)(c2ccccc2)C1=O

>  <Energy>  (38) 
64.36241106053343

>  <Genealogy>  (38) 
C[C@@H]1C(=O)S[C@](C=Cc2ccc3ccccc3c2)(c2ccccc2)C1=O (chirality)
C[C@@H]1C(=O)S[C@](/C=C\c2ccc3ccccc3c2)(c2ccccc2)C1=O (cis-trans isomerization)
C[C@@H]1C(=O)S[C@](/C=C\c2ccc3ccccc3c2)(c2ccccc2)C1=O (3D coordinates assigned)
C[C@@H]1C(=O)S[C@](/C=C\c2ccc3ccccc3c2)(c2ccccc2)C1=O (nonaromatic ring conformer: 64.36241106053343 kcal/mol)

>  <smiles>  (38) 
CC1C(=O)SC(C=Cc2ccc3ccccc3c2)(c2ccccc2)C1=O

>  <score_type>  (38) 
oracle

>  <origin>  (38) 
adg

>  <m_score__min__energy>  (38) 
-9.9499999999999993

>  <m_primary>  (38) 
energy

$$$$
38:0
     RDKit          3D

 42 44  0  0  0  0  0  0  0  0999 V2000
   -7.9650   22.8120  -30.8860 C   0  0  0  0  0  0  0  0  0  0  0  0
   -6.4280   22.8070  -31.0670 C   0  0  1  0  0  0  0  0  0  0  0  0
   -5.9330   21.6840  -32.0040 C   0  0  0  0  0  0  0  0  0  0  0  0
   -6.8730   20.8040  -32.5910 C   0  0  0  0  0  0  0  0  0  0  0  0
   -6.4630   19.7720  -33.4390 C   0  0  0  0  0  0  0  0  0  0  0  0
   -5.1100   19.5920  -33.7190 C   0  0  0  0  0  0  0  0  0  0  0  0
   -4.1620   20.4430  -33.1500 C   0  0  0  0  0  0  0  0  0  0  0  0
   -4.5640   21.4780  -32.3000 C   0  0  0  0  0  0  0  0  0  0  0  0
   -5.9720   24.1900  -31.6190 C   0  0  0  0  0  0  0  0  0  0  0  0
   -4.8780   24.5840  -30.7070 C   0  0  0  0  0  0  0  0  0  0  0  0
   -4.2120   25.6450  -30.8430 O   0  0  0  0  0  0  0  0  0  0  0  0
   -4.7030   23.6870  -29.6230 N   0  0  0  0  0  0  0  0  0  0  0  0
   -3.6580   23.7400  -28.6330 C   0  0  0  0  0  0  0  0  0  0  0  0
   -2.4890   22.9730  -28.7790 C   0  0  0  0  0  0  0  0  0  0  0  0
   -1.4860   23.0170  -27.8070 C   0  0  0  0  0  0  0  0  0  0  0  0
   -1.6360   23.8250  -26.6740 C   0  0  0  0  0  0  0  0  0  0  0  0
   -0.3800   23.8640  -25.4410 S   0  0  0  0  0  0  0  0  0  0  0  0
   -0.5880   25.3130  -24.4320 C   0  0  0  0  0  0  0  0  0  0  0  0
    0.9740   23.8970  -26.0950 O   0  0  0  0  0  0  0  0  0  0  0  0
   -0.4710   22.6350  -24.5830 O   0  0  0  0  0  0  0  0  0  0  0  0
   -2.8070   24.5760  -26.5110 C   0  0  0  0  0  0  0  0  0  0  0  0
   -3.8120   24.5320  -27.4820 C   0  0  0  0  0  0  0  0  0  0  0  0
   -5.7450   22.6700  -29.6690 C   0  0  0  0  0  0  0  0  0  0  0  0
   -8.2079   22.8128  -29.8131 H   0  0  0  0  0  0  0  0  0  0  0  0
   -8.3869   23.7115  -31.3581 H   0  0  0  0  0  0  0  0  0  0  0  0
   -8.3927   21.9152  -31.3581 H   0  0  0  0  0  0  0  0  0  0  0  0
   -7.9439   20.9346  -32.3762 H   0  0  0  0  0  0  0  0  0  0  0  0
   -7.2101   19.1001  -33.8866 H   0  0  0  0  0  0  0  0  0  0  0  0
   -4.7896   18.7797  -34.3880 H   0  0  0  0  0  0  0  0  0  0  0  0
   -3.0941   20.2992  -33.3709 H   0  0  0  0  0  0  0  0  0  0  0  0
   -3.8068   22.1407  -31.8556 H   0  0  0  0  0  0  0  0  0  0  0  0
   -5.6080   24.0996  -32.6531 H   0  0  0  0  0  0  0  0  0  0  0  0
   -6.7877   24.9273  -31.6520 H   0  0  0  0  0  0  0  0  0  0  0  0
   -2.3629   22.3334  -29.6650 H   0  0  0  0  0  0  0  0  0  0  0  0
   -0.5746   22.4140  -27.9328 H   0  0  0  0  0  0  0  0  0  0  0  0
   -0.5473   25.0292  -23.3700 H   0  0  0  0  0  0  0  0  0  0  0  0
    0.2163   26.0308  -24.6509 H   0  0  0  0  0  0  0  0  0  0  0  0
   -1.5617   25.7755  -24.6509 H   0  0  0  0  0  0  0  0  0  0  0  0
   -2.9364   25.2025  -25.6161 H   0  0  0  0  0  0  0  0  0  0  0  0
   -4.7303   25.1217  -27.3441 H   0  0  0  0  0  0  0  0  0  0  0  0
   -5.3050   21.6682  -29.5564 H   0  0  0  0  0  0  0  0  0  0  0  0
   -6.4713   22.8038  -28.8538 H   0  0  0  0  0  0  0  0  0  0  0  0
  2  1  1  1
  2  3  1  0
  3  4  2  0
  4  5  1  0
  5  6  2  0
  6  7  1  0
  7  8  2  0
  2  9  1  0
  9 10  1  0
 10 11  2  0
 10 12  1  0
 12 13  1  0
 13 14  2  0
 14 15  1  0
 15 16  2  0
 16 17  1  0
 17 18  1  0
 17 19  2  0
 17 20  2  0
 16 21  1  0
 21 22  2  0
 12 23  1  0
 23  2  1  0
  8  3  1  0
 22 13  1  0
  1 24  1  0
  1 25  1  0
  1 26  1  0
  4 27  1  0
  5 28  1  0
  6 29  1  0
  7 30  1  0
  8 31  1  0
  9 32  1  0
  9 33  1  0
 14 34  1  0
 15 35  1  0
 18 36  1  0
 18 37  1  0
 18 38  1  0
 21 39  1  0
 22 40  1  0
 23 41  1  0
 23 42  1  0
M  END
>  <UniqueID>  (39) 
35

>  <SMILES>  (39) 
C[C@@]1(c2ccccc2)CC(=O)N(c2ccc(S(C)(=O)=O)cc2)C1

>  <Energy>  (39) 
58.24883189130662

>  <Genealogy>  (39) 
C[C@@]1(c2ccccc2)CC(=O)N(c2ccc(S(C)(=O)=O)cc2)C1 (chirality)
C[C@@]1(c2ccccc2)CC(=O)N(c2ccc(S(C)(=O)=O)cc2)C1 (3D coordinates assigned)
C[C@@]1(c2ccccc2)CC(=O)N(c2ccc(S(C)(=O)=O)cc2)C1 (nonaromatic ring conformer: 58.24883189130662 kcal/mol)

>  <smiles>  (39) 
CC1(c2ccccc2)CC(=O)N(c2ccc(S(C)(=O)=O)cc2)C1

>  <score_type>  (39) 
oracle

>  <origin>  (39) 
adg

>  <m_score__min__energy>  (39) 
-8.6799999999999997

>  <m_primary>  (39) 
energy

$$$$
39:0
     RDKit          3D

 21 22  0  0  0  0  0  0  0  0999 V2000
   -7.9630   23.4220  -31.6820 C   0  0  0  0  0  0  0  0  0  0  0  0
   -7.8980   21.9500  -31.9650 C   0  0  0  0  0  0  0  0  0  0  0  0
   -8.8170   21.0820  -31.3600 C   0  0  0  0  0  0  0  0  0  0  0  0
   -8.7320   19.7100  -31.5980 C   0  0  0  0  0  0  0  0  0  0  0  0
   -7.7240   19.2090  -32.4290 C   0  0  0  0  0  0  0  0  0  0  0  0
   -7.6150   17.8340  -32.6850 C   0  0  0  0  0  0  0  0  0  0  0  0
   -6.5960   17.3570  -33.5150 C   0  0  0  0  0  0  0  0  0  0  0  0
   -5.6840   18.2450  -34.0910 C   0  0  0  0  0  0  0  0  0  0  0  0
   -5.7830   19.6170  -33.8400 C   0  0  0  0  0  0  0  0  0  0  0  0
   -6.8020   20.1100  -33.0110 C   0  0  0  0  0  0  0  0  0  0  0  0
   -6.9090   21.4490  -32.7600 N   0  0  0  0  0  0  0  0  0  0  0  0
   -7.9703   23.5863  -30.5944 H   0  0  0  0  0  0  0  0  0  0  0  0
   -7.0859   23.9191  -32.1221 H   0  0  0  0  0  0  0  0  0  0  0  0
   -8.8805   23.8398  -32.1221 H   0  0  0  0  0  0  0  0  0  0  0  0
   -9.6018   21.4807  -30.7004 H   0  0  0  0  0  0  0  0  0  0  0  0
   -9.4556   19.0239  -31.1336 H   0  0  0  0  0  0  0  0  0  0  0  0
   -8.3308   17.1316  -32.2330 H   0  0  0  0  0  0  0  0  0  0  0  0
   -6.5120   16.2786  -33.7153 H   0  0  0  0  0  0  0  0  0  0  0  0
   -4.8854   17.8635  -34.7442 H   0  0  0  0  0  0  0  0  0  0  0  0
   -5.0604   20.3114  -34.2935 H   0  0  0  0  0  0  0  0  0  0  0  0
   -6.2170   22.1070  -33.1870 H   0  0  0  0  0  0  0  0  0  0  0  0
  1  2  1  0
  2  3  2  0
  3  4  1  0
  4  5  2  0
  5  6  1  0
  6  7  2  0
  7  8  1  0
  8  9  2  0
  9 10  1  0
 10 11  2  0
 11  2  1  0
 10  5  1  0
  1 12  1  0
  1 13  1  0
  1 14  1  0
  3 15  1  0
  4 16  1  0
  6 17  1  0
  7 18  1  0
  8 19  1  0
  9 20  1  0
 11 21  1  0
M  CHG  1  11   1
M  END
>  <UniqueID>  (40) 
36

>  <SMILES>  (40) 
Cc1ccc2ccccc2[nH+]1

>  <Energy>  (40) 
23.731985457826628

>  <Genealogy>  (40) 
Cc1ccc2ccccc2[nH+]1 (protonated)
Cc1ccc2ccccc2[nH+]1 (3D coordinates assigned)
Cc1ccc2ccccc2[nH+]1 (optimized conformer: 23.731985457826628 kcal/mol)

>  <smiles>  (40) 
Cc1ccc2ccccc2n1

>  <score_type>  (40) 
oracle

>  <origin>  (40) 
adg

>  <m_score__min__energy>  (40) 
-5.1399999999999997

>  <m_primary>  (40) 
energy

$$$$
40:0
     RDKit          3D

 29 30  0  0  1  0  0  0  0  0999 V2000
   -6.1080   18.8850  -34.7940 N   0  0  0  0  0  0  0  0  0  0  0  0
   -5.2340   21.5000  -32.5650 C   0  0  0  0  0  0  0  0  0  0  0  0
   -7.2810   19.7290  -33.0410 C   0  0  0  0  0  0  0  0  0  0  0  0
   -7.3160   20.6460  -32.0160 C   0  0  0  0  0  0  0  0  0  0  0  0
   -6.3120   21.5230  -31.7750 N   0  0  0  0  0  0  0  0  0  0  0  0
   -6.4450   22.4410  -30.6800 C   0  0  1  0  0  0  0  0  0  0  0  0
   -5.2070   22.6540  -30.0780 O   0  0  0  0  0  0  0  0  0  0  0  0
   -5.2510   23.9070  -29.5000 C   0  0  1  0  0  0  0  0  0  0  0  0
   -3.8870   24.5800  -29.5470 C   0  0  0  0  0  0  0  0  0  0  0  0
   -3.5320   24.9170  -30.8390 O   0  0  0  0  0  0  0  0  0  0  0  0
   -6.2220   24.7460  -30.2720 C   0  0  2  0  0  0  0  0  0  0  0  0
   -7.1280   25.3150  -29.3870 O   0  0  0  0  0  0  0  0  0  0  0  0
   -6.8610   23.7870  -31.2320 C   0  0  1  0  0  0  0  0  0  0  0  0
   -6.3330   23.9640  -32.4940 F   0  0  0  0  0  0  0  0  0  0  0  0
   -6.1540   19.7280  -33.8410 C   0  0  0  0  0  0  0  0  0  0  0  0
   -4.2770   22.2950  -32.3810 O   0  0  0  0  0  0  0  0  0  0  0  0
   -5.1670   20.6100  -33.5830 N   0  0  0  0  0  0  0  0  0  0  0  0
   -6.7860   18.9180  -35.5640 H   0  0  0  0  0  0  0  0  0  0  0  0
   -8.1114   19.0291  -33.2157 H   0  0  0  0  0  0  0  0  0  0  0  0
   -8.2001   20.6681  -31.3619 H   0  0  0  0  0  0  0  0  0  0  0  0
   -7.1712   22.0270  -29.9650 H   0  0  0  0  0  0  0  0  0  0  0  0
   -5.5560   23.8036  -28.4482 H   0  0  0  0  0  0  0  0  0  0  0  0
   -3.9181   25.4936  -28.9352 H   0  0  0  0  0  0  0  0  0  0  0  0
   -3.1400   23.8727  -29.1576 H   0  0  0  0  0  0  0  0  0  0  0  0
   -3.7640   24.1830  -31.4480 H   0  0  0  0  0  0  0  0  0  0  0  0
   -5.7649   25.5852  -30.8169 H   0  0  0  0  0  0  0  0  0  0  0  0
   -6.8640   25.1500  -28.4430 H   0  0  0  0  0  0  0  0  0  0  0  0
   -7.9504   23.9095  -31.3225 H   0  0  0  0  0  0  0  0  0  0  0  0
   -4.3360   20.5670  -34.2220 H   0  0  0  0  0  0  0  0  0  0  0  0
  1  2  2  3
  2  3  1  0
  3  4  2  0
  4  5  1  0
  5  6  1  0
  6  7  1  0
  7  8  1  0
  8  9  1  0
  9 10  1  0
  8 11  1  0
 11 12  1  0
 11 13  1  0
 13 14  1  0
  5 15  1  0
 15 16  2  0
 15 17  1  0
 17  2  1  0
 13  6  1  0
  1 18  1  0
  3 19  1  0
  4 20  1  0
  6 21  1  1
  8 22  1  1
  9 23  1  0
  9 24  1  0
 10 25  1  0
 11 26  1  6
 12 27  1  0
 13 28  1  6
 17 29  1  0
M  END
>  <smiles>  (41) 
N=c1ccn(C2OC(CO)C(O)C2F)c(=O)[nH]1

>  <score_type>  (41) 
oracle

>  <origin>  (41) 
adg

>  <m_score__min__energy>  (41) 
-6.8899999999999997

>  <m_primary>  (41) 
energy

$$$$
41:0
     RDKit          3D

 39 40  0  0  0  0  0  0  0  0999 V2000
   -3.3740   23.8180  -29.3060 C   0  0  0  0  0  0  0  0  0  0  0  0
   -4.5240   23.3200  -30.1960 C   0  0  0  0  0  0  0  0  0  0  0  0
   -5.1060   24.3550  -31.0860 N   0  0  0  0  0  0  0  0  0  0  0  0
   -5.3100   25.6730  -30.4480 C   0  0  0  0  0  0  0  0  0  0  0  0
   -6.4540   25.6400  -29.4340 C   0  0  0  0  0  0  0  0  0  0  0  0
   -6.2090   23.8730  -31.9530 C   0  0  0  0  0  0  0  0  0  0  0  0
   -6.0920   22.4190  -32.3490 C   0  0  0  0  0  0  0  0  0  0  0  0
   -7.2140   21.5780  -32.3160 C   0  0  0  0  0  0  0  0  0  0  0  0
   -7.1030   20.2340  -32.6820 C   0  0  0  0  0  0  0  0  0  0  0  0
   -5.8670   19.7080  -33.1000 C   0  0  0  0  0  0  0  0  0  0  0  0
   -5.7470   18.2790  -33.4860 C   0  0  0  0  0  0  0  0  0  0  0  0
   -4.5060   17.7430  -33.8780 C   0  0  0  0  0  0  0  0  0  0  0  0
   -4.3970   16.3970  -34.2400 C   0  0  0  0  0  0  0  0  0  0  0  0
   -5.5230   15.5710  -34.2140 C   0  0  0  0  0  0  0  0  0  0  0  0
   -6.7600   16.0890  -33.8260 C   0  0  0  0  0  0  0  0  0  0  0  0
   -6.8750   17.4350  -33.4640 C   0  0  0  0  0  0  0  0  0  0  0  0
   -4.7480   20.5580  -33.1510 C   0  0  0  0  0  0  0  0  0  0  0  0
   -4.8610   21.9010  -32.7840 C   0  0  0  0  0  0  0  0  0  0  0  0
   -3.6507   23.6982  -28.2481 H   0  0  0  0  0  0  0  0  0  0  0  0
   -2.4672   23.2319  -29.5165 H   0  0  0  0  0  0  0  0  0  0  0  0
   -3.1811   24.8803  -29.5165 H   0  0  0  0  0  0  0  0  0  0  0  0
   -4.1425   22.5016  -30.8243 H   0  0  0  0  0  0  0  0  0  0  0  0
   -5.3294   23.0020  -29.5176 H   0  0  0  0  0  0  0  0  0  0  0  0
   -4.3841   25.9660  -29.9313 H   0  0  0  0  0  0  0  0  0  0  0  0
   -5.5694   26.3977  -31.2339 H   0  0  0  0  0  0  0  0  0  0  0  0
   -6.0409   25.6519  -28.4146 H   0  0  0  0  0  0  0  0  0  0  0  0
   -7.0980   26.5199  -29.5790 H   0  0  0  0  0  0  0  0  0  0  0  0
   -7.0462   24.7244  -29.5790 H   0  0  0  0  0  0  0  0  0  0  0  0
   -7.1576   24.0087  -31.4128 H   0  0  0  0  0  0  0  0  0  0  0  0
   -6.1617   24.4597  -32.8822 H   0  0  0  0  0  0  0  0  0  0  0  0
   -8.1882   21.9792  -31.9998 H   0  0  0  0  0  0  0  0  0  0  0  0
   -7.9885   19.5826  -32.6430 H   0  0  0  0  0  0  0  0  0  0  0  0
   -3.6152   18.3880  -33.8997 H   0  0  0  0  0  0  0  0  0  0  0  0
   -3.4228   15.9878  -34.5458 H   0  0  0  0  0  0  0  0  0  0  0  0
   -5.4351   14.5123  -34.4993 H   0  0  0  0  0  0  0  0  0  0  0  0
   -7.6459   15.4373  -33.8050 H   0  0  0  0  0  0  0  0  0  0  0  0
   -7.8526   17.8374  -33.1601 H   0  0  0  0  0  0  0  0  0  0  0  0
   -3.7765   20.1624  -33.4823 H   0  0  0  0  0  0  0  0  0  0  0  0
   -3.9799   22.5575  -32.8360 H   0  0  0  0  0  0  0  0  0  0  0  0
  1  2  1  0
  2  3  1  0
  3  4  1  0
  4  5  1  0
  3  6  1  0
  6  7  1  0
  7  8  2  0
  8  9  1  0
  9 10  2  0
 10 11  1  0
 11 12  2  0
 12 13  1  0
 13 14  2  0
 14 15  1  0
 15 16  2  0
 10 17  1  0
 17 18  2  0
 18  7  1  0
 16 11  1  0
  1 19  1  0
  1 20  1  0
  1 21  1  0
  2 22  1  0
  2 23  1  0
  4 24  1  0
  4 25  1  0
  5 26  1  0
  5 27  1  0
  5 28  1  0
  6 29  1  0
  6 30  1  0
  8 31  1  0
  9 32  1  0
 12 33  1  0
 13 34  1  0
 14 35  1  0
 15 36  1  0
 16 37  1  0
 17 38  1  0
 18 39  1  0
M  END
>  <UniqueID>  (42) 
37

>  <SMILES>  (42) 
CCN(CC)Cc1ccc(-c2ccccc2)cc1

>  <Energy>  (42) 
49.24522754968929

>  <Genealogy>  (42) 
CCN(CC)Cc1ccc(-c2ccccc2)cc1 (3D coordinates assigned)
CCN(CC)Cc1ccc(-c2ccccc2)cc1 (optimized conformer: 49.24522754968929 kcal/mol)

>  <smiles>  (42) 
CCN(CC)Cc1ccc(-c2ccccc2)cc1

>  <score_type>  (42) 
oracle

>  <origin>  (42) 
adg

>  <m_score__min__energy>  (42) 
-6.8499999999999996

>  <m_primary>  (42) 
energy

$$$$
42:0
     RDKit          3D

 38 41  0  0  0  0  0  0  0  0999 V2000
   -9.7650   22.4540  -32.3850 F   0  0  0  0  0  0  0  0  0  0  0  0
   -8.5230   22.6590  -31.8850 C   0  0  0  0  0  0  0  0  0  0  0  0
   -7.5950   23.4160  -32.6040 C   0  0  0  0  0  0  0  0  0  0  0  0
   -6.3130   23.6320  -32.0880 C   0  0  0  0  0  0  0  0  0  0  0  0
   -5.9440   23.0750  -30.8500 C   0  0  0  0  0  0  0  0  0  0  0  0
   -4.6000   23.3080  -30.2810 C   0  0  0  0  0  0  0  0  0  0  0  0
   -4.3870   24.1240  -29.2330 N   0  0  0  0  0  0  0  0  0  0  0  0
   -3.0450   24.1370  -29.0850 C   0  0  0  0  0  0  0  0  0  0  0  0
   -2.3520   24.9200  -28.0380 C   0  0  0  0  0  0  0  0  0  0  0  0
   -1.2030   25.6690  -28.3500 C   0  0  0  0  0  0  0  0  0  0  0  0
   -0.5490   26.4070  -27.3600 C   0  0  0  0  0  0  0  0  0  0  0  0
   -1.0350   26.4070  -26.0480 C   0  0  0  0  0  0  0  0  0  0  0  0
   -0.2130   27.3350  -24.8070 Cl  0  0  0  0  0  0  0  0  0  0  0  0
   -2.1760   25.6650  -25.7280 C   0  0  0  0  0  0  0  0  0  0  0  0
   -2.8320   24.9260  -26.7170 C   0  0  0  0  0  0  0  0  0  0  0  0
   -2.3970   23.3650  -29.9840 N   0  0  0  0  0  0  0  0  0  0  0  0
   -3.3770   22.8350  -30.7360 C   0  0  0  0  0  0  0  0  0  0  0  0
   -3.1180   21.8430  -31.8010 C   0  0  0  0  0  0  0  0  0  0  0  0
   -4.1670   21.1340  -32.4070 C   0  0  0  0  0  0  0  0  0  0  0  0
   -3.8810   20.1900  -33.3970 C   0  0  0  0  0  0  0  0  0  0  0  0
   -2.5930   19.9480  -33.7600 N   0  0  0  0  0  0  0  0  0  0  0  0
   -1.5560   20.6050  -33.1730 C   0  0  0  0  0  0  0  0  0  0  0  0
   -1.7990   21.5570  -32.1810 C   0  0  0  0  0  0  0  0  0  0  0  0
   -6.8900   22.3340  -30.1240 C   0  0  0  0  0  0  0  0  0  0  0  0
   -8.1720   22.1220  -30.6430 C   0  0  0  0  0  0  0  0  0  0  0  0
   -7.8732   23.8434  -33.5786 H   0  0  0  0  0  0  0  0  0  0  0  0
   -5.5905   24.2398  -32.6524 H   0  0  0  0  0  0  0  0  0  0  0  0
   -0.8168   25.6738  -29.3800 H   0  0  0  0  0  0  0  0  0  0  0  0
    0.3496   26.9890  -27.6126 H   0  0  0  0  0  0  0  0  0  0  0  0
   -2.5581   25.6627  -24.6965 H   0  0  0  0  0  0  0  0  0  0  0  0
   -3.7300   24.3452  -26.4595 H   0  0  0  0  0  0  0  0  0  0  0  0
   -5.2080   21.3203  -32.1044 H   0  0  0  0  0  0  0  0  0  0  0  0
   -4.7003   19.6410  -33.8841 H   0  0  0  0  0  0  0  0  0  0  0  0
   -2.3960   19.2390  -34.5010 H   0  0  0  0  0  0  0  0  0  0  0  0
   -0.5231   20.3854  -33.4810 H   0  0  0  0  0  0  0  0  0  0  0  0
   -0.9595   22.0802  -31.6998 H   0  0  0  0  0  0  0  0  0  0  0  0
   -6.6219   21.9178  -29.1417 H   0  0  0  0  0  0  0  0  0  0  0  0
   -8.9047   21.5319  -30.0729 H   0  0  0  0  0  0  0  0  0  0  0  0
  1  2  1  0
  2  3  2  0
  3  4  1  0
  4  5  2  0
  5  6  1  0
  6  7  1  0
  7  8  1  0
  8  9  1  0
  9 10  2  0
 10 11  1  0
 11 12  2  0
 12 13  1  0
 12 14  1  0
 14 15  2  0
  8 16  2  0
 16 17  1  0
 17 18  1  0
 18 19  2  0
 19 20  1  0
 20 21  2  0
 21 22  1  0
 22 23  2  0
  5 24  1  0
 24 25  2  0
 25  2  1  0
 17  6  2  0
 23 18  1  0
 15  9  1  0
  3 26  1  0
  4 27  1  0
 10 28  1  0
 11 29  1  0
 14 30  1  0
 15 31  1  0
 19 32  1  0
 20 33  1  0
 21 34  1  0
 22 35  1  0
 23 36  1  0
 24 37  1  0
 25 38  1  0
M  CHG  2   7  -1  21   1
M  END
>  <UniqueID>  (43) 
38

>  <SMILES>  (43) 
Fc1ccc(-c2[n-]c(-c3ccc(Cl)cc3)nc2-c2cc[nH+]cc2)cc1

>  <Energy>  (43) 
79.06266418392848

>  <Genealogy>  (43) 
Fc1ccc(-c2[n-]c(-c3ccc(Cl)cc3)nc2-c2cc[nH+]cc2)cc1 (protonated)
Fc1ccc(-c2[n-]c(-c3ccc(Cl)cc3)nc2-c2cc[nH+]cc2)cc1 (3D coordinates assigned)
Fc1ccc(-c2[n-]c(-c3ccc(Cl)cc3)nc2-c2cc[nH+]cc2)cc1 (optimized conformer: 79.06266418392848 kcal/mol)

>  <smiles>  (43) 
Fc1ccc(-c2[nH]c(-c3ccc(Cl)cc3)nc2-c2ccncc2)cc1

>  <score_type>  (43) 
oracle

>  <origin>  (43) 
adg

>  <m_score__min__energy>  (43) 
-7.5700000000000003

>  <m_primary>  (43) 
energy

$$$$
43:0
     RDKit          3D

 62 65  0  0  0  0  0  0  0  0999 V2000
   -9.4660   21.4330  -31.9950 C   0  0  0  0  0  0  0  0  0  0  0  0
   -8.6560   22.5220  -31.3010 C   0  0  0  0  0  0  0  0  0  0  0  0
   -7.8330   23.2100  -32.2410 O   0  0  0  0  0  0  0  0  0  0  0  0
   -6.4500   23.3650  -32.0900 C   0  0  0  0  0  0  0  0  0  0  0  0
   -5.7500   23.8050  -33.0430 O   0  0  0  0  0  0  0  0  0  0  0  0
   -5.8220   23.0260  -30.7910 C   0  0  0  0  0  0  0  0  0  0  0  0
   -5.7360   23.9290  -29.7800 C   0  0  0  0  0  0  0  0  0  0  0  0
   -6.3730   25.2880  -29.8530 C   0  0  0  0  0  0  0  0  0  0  0  0
   -4.8690   23.6670  -28.6570 N   0  0  0  0  0  0  0  0  0  0  0  0
   -4.0300   22.6690  -28.6130 C   0  0  0  0  0  0  0  0  0  0  0  0
   -2.8840   22.7170  -27.6390 C   0  0  0  0  0  0  0  0  0  0  0  0
   -1.5060   22.4600  -28.3370 C   0  0  1  0  0  0  0  0  0  0  0  0
   -0.9950   21.0460  -28.0560 C   0  0  0  0  0  0  0  0  0  0  0  0
    0.2620   20.5760  -28.4930 C   0  0  0  0  0  0  0  0  0  0  0  0
    0.6650   19.2650  -28.2240 C   0  0  0  0  0  0  0  0  0  0  0  0
   -0.1760   18.3920  -27.5130 C   0  0  0  0  0  0  0  0  0  0  0  0
    0.1840   17.0690  -27.2220 O   0  0  0  0  0  0  0  0  0  0  0  0
    1.4710   16.5120  -27.4740 C   0  0  0  0  0  0  0  0  0  0  0  0
   -1.4220   18.8540  -27.0770 C   0  0  0  0  0  0  0  0  0  0  0  0
   -1.8280   20.1640  -27.3450 C   0  0  0  0  0  0  0  0  0  0  0  0
   -1.4980   22.8580  -29.8490 C   0  0  0  0  0  0  0  0  0  0  0  0
   -2.7410   22.4060  -30.5920 C   0  0  0  0  0  0  0  0  0  0  0  0
   -2.8340   22.6100  -31.7930 O   0  0  0  0  0  0  0  0  0  0  0  0
   -3.8740   21.7760  -29.8080 C   0  0  2  0  0  0  0  0  0  0  0  0
   -5.2410   21.6410  -30.5270 C   0  0  2  0  0  0  0  0  0  0  0  0
   -5.3150   20.6320  -31.6800 C   0  0  0  0  0  0  0  0  0  0  0  0
   -6.5430   19.9900  -31.9360 C   0  0  0  0  0  0  0  0  0  0  0  0
   -6.6590   19.0430  -32.9530 C   0  0  0  0  0  0  0  0  0  0  0  0
   -5.5440   18.6890  -33.7110 C   0  0  0  0  0  0  0  0  0  0  0  0
   -4.2980   19.2600  -33.4450 C   0  0  0  0  0  0  0  0  0  0  0  0
   -3.1970   18.8440  -34.2090 O   0  0  0  0  0  0  0  0  0  0  0  0
   -1.8450   19.1910  -33.9320 C   0  0  0  0  0  0  0  0  0  0  0  0
   -4.1840   20.2220  -32.4220 C   0  0  0  0  0  0  0  0  0  0  0  0
   -9.9426   20.7922  -31.2386 H   0  0  0  0  0  0  0  0  0  0  0  0
  -10.2406   21.8965  -32.6236 H   0  0  0  0  0  0  0  0  0  0  0  0
   -8.7993   20.8245  -32.6236 H   0  0  0  0  0  0  0  0  0  0  0  0
   -9.3438   23.2393  -30.8293 H   0  0  0  0  0  0  0  0  0  0  0  0
   -8.0127   22.0558  -30.5402 H   0  0  0  0  0  0  0  0  0  0  0  0
   -6.5498   25.6652  -28.8349 H   0  0  0  0  0  0  0  0  0  0  0  0
   -5.7045   25.9780  -30.3887 H   0  0  0  0  0  0  0  0  0  0  0  0
   -7.3310   25.2156  -30.3887 H   0  0  0  0  0  0  0  0  0  0  0  0
   -2.8621   23.7098  -27.1658 H   0  0  0  0  0  0  0  0  0  0  0  0
   -3.0394   21.9228  -26.8939 H   0  0  0  0  0  0  0  0  0  0  0  0
   -0.7750   23.1437  -27.8807 H   0  0  0  0  0  0  0  0  0  0  0  0
    0.9310   21.2479  -29.0507 H   0  0  0  0  0  0  0  0  0  0  0  0
    1.6479   18.9139  -28.5714 H   0  0  0  0  0  0  0  0  0  0  0  0
    1.9705   16.2958  -26.5181 H   0  0  0  0  0  0  0  0  0  0  0  0
    1.3613   15.5808  -28.0492 H   0  0  0  0  0  0  0  0  0  0  0  0
    2.0748   17.2293  -28.0492 H   0  0  0  0  0  0  0  0  0  0  0  0
   -2.0882   18.1803  -26.5182 H   0  0  0  0  0  0  0  0  0  0  0  0
   -2.8119   20.5097  -26.9952 H   0  0  0  0  0  0  0  0  0  0  0  0
   -1.4258   23.9532  -29.9220 H   0  0  0  0  0  0  0  0  0  0  0  0
   -0.6375   22.3555  -30.3150 H   0  0  0  0  0  0  0  0  0  0  0  0
   -3.6048   20.7301  -29.5992 H   0  0  0  0  0  0  0  0  0  0  0  0
   -5.9239   21.1316  -29.8312 H   0  0  0  0  0  0  0  0  0  0  0  0
   -7.4228   20.2395  -31.3247 H   0  0  0  0  0  0  0  0  0  0  0  0
   -7.6328   18.5742  -33.1576 H   0  0  0  0  0  0  0  0  0  0  0  0
   -5.6465   17.9551  -34.5239 H   0  0  0  0  0  0  0  0  0  0  0  0
   -1.6922   19.2302  -32.8434 H   0  0  0  0  0  0  0  0  0  0  0  0
   -1.1756   18.4356  -34.3693 H   0  0  0  0  0  0  0  0  0  0  0  0
   -1.6221   20.1755  -34.3693 H   0  0  0  0  0  0  0  0  0  0  0  0
   -3.2004   20.6604  -32.1975 H   0  0  0  0  0  0  0  0  0  0  0  0
  1  2  1  0
  2  3  1  0
  3  4  1  0
  4  5  2  0
  4  6  1  0
  6  7  2  0
  7  8  1  0
  7  9  1  0
  9 10  2  0
 10 11  1  0
 11 12  1  0
 12 13  1  0
 13 14  2  0
 14 15  1  0
 15 16  2  0
 16 17  1  0
 17 18  1  0
 16 19  1  0
 19 20  2  0
 12 21  1  0
 21 22  1  0
 22 23  2  0
 22 24  1  0
 24 25  1  0
 25 26  1  0
 26 27  2  0
 27 28  1  0
 28 29  2  0
 29 30  1  0
 30 31  1  0
 31 32  1  0
 30 33  2  0
 25  6  1  0
 33 26  1  0
 24 10  1  0
 20 13  1  0
  1 34  1  0
  1 35  1  0
  1 36  1  0
  2 37  1  0
  2 38  1  0
  8 39  1  0
  8 40  1  0
  8 41  1  0
 11 42  1  0
 11 43  1  0
 12 44  1  1
 14 45  1  0
 15 46  1  0
 18 47  1  0
 18 48  1  0
 18 49  1  0
 19 50  1  0
 20 51  1  0
 21 52  1  0
 21 53  1  0
 24 54  1  1
 25 55  1  1
 27 56  1  0
 28 57  1  0
 29 58  1  0
 32 59  1  0
 32 60  1  0
 32 61  1  0
 33 62  1  0
M  END
>  <UniqueID>  (44) 
39

>  <SMILES>  (44) 
CCOC(=O)C1=C(C)N=C2C[C@@H](c3ccc(OC)cc3)CC(=O)[C@@H]2C1c1cccc(OC)c1

>  <Energy>  (44) 
90.80516843494864

>  <Genealogy>  (44) 
CCOC(=O)C1=C(C)N=C2C[C@@H](c3ccc(OC)cc3)CC(=O)[C@@H]2C1c1cccc(OC)c1 (chirality)
CCOC(=O)C1=C(C)N=C2C[C@@H](c3ccc(OC)cc3)CC(=O)[C@@H]2C1c1cccc(OC)c1 (3D coordinates assigned)
CCOC(=O)C1=C(C)N=C2C[C@@H](c3ccc(OC)cc3)CC(=O)[C@@H]2C1c1cccc(OC)c1 (nonaromatic ring conformer: 90.80516843494864 kcal/mol)

>  <smiles>  (44) 
CCOC(=O)C1=C(C)N=C2CC(c3ccc(OC)cc3)CC(=O)C2C1c1cccc(OC)c1

>  <score_type>  (44) 
oracle

>  <origin>  (44) 
adg

>  <m_score__min__energy>  (44) 
-8.5199999999999996

>  <m_primary>  (44) 
energy

$$$$
44:0
     RDKit          3D

 37 38  0  0  0  0  0  0  0  0999 V2000
   -4.4110   17.0200  -33.1800 C   0  0  0  0  0  0  0  0  0  0  0  0
   -5.6030   17.9050  -33.0360 C   0  0  0  0  0  0  0  0  0  0  0  0
   -6.0690   18.8310  -33.9530 C   0  0  0  0  0  0  0  0  0  0  0  0
   -7.2290   19.3350  -33.4920 N   0  0  0  0  0  0  0  0  0  0  0  0
   -7.5100   18.7630  -32.3320 N   0  0  0  0  0  0  0  0  0  0  0  0
   -8.7370   18.9930  -31.5740 C   0  0  0  0  0  0  0  0  0  0  0  0
   -8.8320   20.4620  -31.1620 C   0  0  0  0  0  0  0  0  0  0  0  0
   -8.4910   21.3300  -32.3040 N   0  0  0  0  0  0  0  0  0  0  0  0
   -8.1560   22.7020  -31.8910 C   0  0  0  0  0  0  0  0  0  0  0  0
   -6.6700   22.8900  -31.8100 C   0  0  0  0  0  0  0  0  0  0  0  0
   -5.7100   22.0650  -32.3590 C   0  0  0  0  0  0  0  0  0  0  0  0
   -4.5010   22.5370  -32.0020 N   0  0  0  0  0  0  0  0  0  0  0  0
   -3.2220   21.9080  -32.2990 C   0  0  0  0  0  0  0  0  0  0  0  0
   -4.6360   23.6050  -31.2320 N   0  0  0  0  0  0  0  0  0  0  0  0
   -5.9550   23.8530  -31.1120 C   0  0  0  0  0  0  0  0  0  0  0  0
   -6.5160   24.9580  -30.2780 C   0  0  0  0  0  0  0  0  0  0  0  0
   -6.5490   17.8700  -32.0300 C   0  0  0  0  0  0  0  0  0  0  0  0
   -4.0376   16.7428  -32.1832 H   0  0  0  0  0  0  0  0  0  0  0  0
   -4.6936   16.1112  -33.7315 H   0  0  0  0  0  0  0  0  0  0  0  0
   -3.6228   17.5534  -33.7315 H   0  0  0  0  0  0  0  0  0  0  0  0
   -5.5760   19.1077  -34.8966 H   0  0  0  0  0  0  0  0  0  0  0  0
   -7.8300   20.0410  -33.9750 H   0  0  0  0  0  0  0  0  0  0  0  0
   -9.6046   18.7334  -32.1985 H   0  0  0  0  0  0  0  0  0  0  0  0
   -8.7252   18.3656  -30.6705 H   0  0  0  0  0  0  0  0  0  0  0  0
   -9.8578   20.6818  -30.8312 H   0  0  0  0  0  0  0  0  0  0  0  0
   -8.1257   20.6526  -30.3405 H   0  0  0  0  0  0  0  0  0  0  0  0
   -9.3340   21.3940  -32.9230 H   0  0  0  0  0  0  0  0  0  0  0  0
   -8.5689   23.4098  -32.6249 H   0  0  0  0  0  0  0  0  0  0  0  0
   -8.5876   22.8842  -30.8958 H   0  0  0  0  0  0  0  0  0  0  0  0
   -5.8995   21.1769  -32.9798 H   0  0  0  0  0  0  0  0  0  0  0  0
   -2.7100   21.6562  -31.3585 H   0  0  0  0  0  0  0  0  0  0  0  0
   -3.3912   20.9903  -32.8814 H   0  0  0  0  0  0  0  0  0  0  0  0
   -2.5984   22.6022  -32.8814 H   0  0  0  0  0  0  0  0  0  0  0  0
   -6.3916   24.7129  -29.2129 H   0  0  0  0  0  0  0  0  0  0  0  0
   -5.9839   25.8940  -30.5035 H   0  0  0  0  0  0  0  0  0  0  0  0
   -7.5856   25.0808  -30.5035 H   0  0  0  0  0  0  0  0  0  0  0  0
   -6.5218   17.2257  -31.1388 H   0  0  0  0  0  0  0  0  0  0  0  0
  1  2  1  0
  2  3  1  0
  3  4  2  0
  4  5  1  0
  5  6  1  0
  6  7  1  0
  7  8  1  0
  8  9  1  0
  9 10  1  0
 10 11  2  0
 11 12  1  0
 12 13  1  0
 12 14  1  0
 14 15  2  0
 15 16  1  0
  5 17  1  0
 17  2  2  0
 15 10  1  0
  1 18  1  0
  1 19  1  0
  1 20  1  0
  3 21  1  0
  4 22  1  0
  6 23  1  0
  6 24  1  0
  7 25  1  0
  7 26  1  0
  8 27  1  0
  9 28  1  0
  9 29  1  0
 11 30  1  0
 13 31  1  0
 13 32  1  0
 13 33  1  0
 16 34  1  0
 16 35  1  0
 16 36  1  0
 17 37  1  0
M  CHG  1   4   1
M  END
>  <UniqueID>  (45) 
40

>  <SMILES>  (45) 
Cc1c[nH+]n(CCNCc2cn(C)nc2C)c1

>  <Energy>  (45) 
88.84713940510936

>  <Genealogy>  (45) 
Cc1c[nH+]n(CCNCc2cn(C)nc2C)c1 (protonated)
Cc1c[nH+]n(CCNCc2cn(C)nc2C)c1 (3D coordinates assigned)
Cc1c[nH+]n(CCNCc2cn(C)nc2C)c1 (optimized conformer: 88.84713940510936 kcal/mol)

>  <smiles>  (45) 
Cc1cnn(CCNCc2cn(C)nc2C)c1

>  <score_type>  (45) 
oracle

>  <origin>  (45) 
adg

>  <m_score__min__energy>  (45) 
-6.0599999999999996

>  <m_primary>  (45) 
energy

$$$$
45:0
     RDKit          3D

 38 40  0  0  0  0  0  0  0  0999 V2000
   -2.0210   14.4180  -34.7970 N   0  0  0  0  0  0  0  0  0  0  0  0
   -3.0240   15.0360  -34.2270 C   0  0  0  0  0  0  0  0  0  0  0  0
   -3.4870   14.5230  -33.0720 N   0  0  0  0  0  0  0  0  0  0  0  0
   -4.5310   15.1400  -32.4510 C   0  0  0  0  0  0  0  0  0  0  0  0
   -4.9860   14.6610  -31.3440 N   0  0  0  0  0  0  0  0  0  0  0  0
   -5.0760   16.2760  -33.0360 C   0  0  0  0  0  0  0  0  0  0  0  0
   -6.1140   16.8650  -32.3900 N   0  0  0  0  0  0  0  0  0  0  0  0
   -6.6720   17.9600  -32.9130 C   0  0  0  0  0  0  0  0  0  0  0  0
   -7.7930   18.6510  -32.2780 C   0  0  0  0  0  0  0  0  0  0  0  0
   -8.0370   19.8950  -32.9880 N   0  0  0  0  0  0  0  0  0  0  0  0
   -7.5510   21.0870  -32.3940 C   0  0  0  0  0  0  0  0  0  0  0  0
   -8.4220   21.9720  -31.7990 C   0  0  0  0  0  0  0  0  0  0  0  0
   -7.9460   23.1470  -31.2130 C   0  0  0  0  0  0  0  0  0  0  0  0
   -6.6120   23.4770  -31.2000 C   0  0  0  0  0  0  0  0  0  0  0  0
   -6.0100   24.9190  -30.4840 S   0  0  0  0  0  0  0  0  0  0  0  0
   -6.1030   25.6570  -29.0240 F   0  0  0  0  0  0  0  0  0  0  0  0
   -5.2960   24.9210  -28.7540 F   0  0  0  0  0  0  0  0  0  0  0  0
   -5.3830   26.2930  -30.8610 F   0  0  0  0  0  0  0  0  0  0  0  0
   -4.7470   25.6200  -30.3660 F   0  0  0  0  0  0  0  0  0  0  0  0
   -3.9510   25.0210  -30.5240 F   0  0  0  0  0  0  0  0  0  0  0  0
   -5.7470   22.5660  -31.8090 C   0  0  0  0  0  0  0  0  0  0  0  0
   -6.2140   21.3990  -32.3920 C   0  0  0  0  0  0  0  0  0  0  0  0
   -6.1710   18.4620  -34.1040 C   0  0  0  0  0  0  0  0  0  0  0  0
   -5.1390   17.8790  -34.7490 N   0  0  0  0  0  0  0  0  0  0  0  0
   -4.5720   16.7740  -34.2250 C   0  0  0  0  0  0  0  0  0  0  0  0
   -3.5390   16.1340  -34.8070 N   0  0  0  0  0  0  0  0  0  0  0  0
   -2.1480   13.4440  -35.1320 H   0  0  0  0  0  0  0  0  0  0  0  0
   -3.0650   13.6580  -32.6350 H   0  0  0  0  0  0  0  0  0  0  0  0
   -5.7050   15.2000  -30.8010 H   0  0  0  0  0  0  0  0  0  0  0  0
   -8.6911   18.0174  -32.3222 H   0  0  0  0  0  0  0  0  0  0  0  0
   -7.5550   18.8614  -31.2249 H   0  0  0  0  0  0  0  0  0  0  0  0
   -8.5360   19.9320  -33.8830 H   0  0  0  0  0  0  0  0  0  0  0  0
   -9.4997   21.7522  -31.7851 H   0  0  0  0  0  0  0  0  0  0  0  0
   -8.6659   23.8341  -30.7443 H   0  0  0  0  0  0  0  0  0  0  0  0
   -4.6681   22.7799  -31.8264 H   0  0  0  0  0  0  0  0  0  0  0  0
   -5.4989   20.7084  -32.8629 H   0  0  0  0  0  0  0  0  0  0  0  0
   -6.6289   19.3637  -34.5368 H   0  0  0  0  0  0  0  0  0  0  0  0
   -3.1420   16.5060  -35.7220 H   0  0  0  0  0  0  0  0  0  0  0  0
  1  2  2  3
  2  3  1  0
  3  4  1  0
  4  5  2  3
  4  6  1  0
  6  7  2  0
  7  8  1  0
  8  9  1  0
  9 10  1  0
 10 11  1  0
 11 12  2  0
 12 13  1  0
 13 14  2  0
 14 15  1  0
 15 16  1  0
 15 17  1  0
 15 18  1  0
 15 19  1  0
 15 20  1  0
 14 21  1  0
 21 22  2  0
  8 23  2  0
 23 24  1  0
 24 25  2  0
 25 26  1  0
 26  2  1  0
 25  6  1  0
 22 11  1  0
  1 27  1  0
  3 28  1  0
  5 29  1  0
  9 30  1  0
  9 31  1  0
 10 32  1  0
 12 33  1  0
 13 34  1  0
 21 35  1  0
 22 36  1  0
 23 37  1  0
 26 38  1  0
M  END
>  <smiles>  (46) 
N=c1[nH]c(=N)c2nc(CNc3ccc(S(F)(F)(F)(F)F)cc3)cnc2[nH]1

>  <score_type>  (46) 
oracle

>  <origin>  (46) 
adg

>  <m_score__min__energy>  (46) 
-8.3499999999999996

>  <m_primary>  (46) 
energy

$$$$
46:0
     RDKit          3D

 34 35  0  0  0  0  0  0  0  0999 V2000
   -5.4290   17.0020  -34.3520 C   0  0  0  0  0  0  0  0  0  0  0  0
   -6.3050   17.9820  -33.6290 C   0  0  0  0  0  0  0  0  0  0  0  0
   -6.1570   19.3600  -33.8490 C   0  0  0  0  0  0  0  0  0  0  0  0
   -6.9480   20.2740  -33.1480 C   0  0  0  0  0  0  0  0  0  0  0  0
   -7.8840   19.8310  -32.2050 C   0  0  0  0  0  0  0  0  0  0  0  0
   -8.6450   20.7950  -31.5210 O   0  0  0  0  0  0  0  0  0  0  0  0
   -8.6900   22.1850  -31.8360 C   0  0  0  0  0  0  0  0  0  0  0  0
   -7.6210   22.9190  -31.0910 C   0  0  0  0  0  0  0  0  0  0  0  0
   -6.8220   23.9330  -31.5870 C   0  0  0  0  0  0  0  0  0  0  0  0
   -6.0370   24.2930  -30.5060 C   0  0  0  0  0  0  0  0  0  0  0  0
   -4.9800   25.3230  -30.4600 C   0  0  0  0  0  0  0  0  0  0  0  0
   -5.3200   26.5350  -30.4580 O   0  0  0  0  0  0  0  0  0  0  0  0
   -3.5800   25.0080  -30.4690 N   0  0  0  0  0  0  0  0  0  0  0  0
   -2.8130   24.4820  -29.3480 C   0  0  0  0  0  0  0  0  0  0  0  0
   -3.7380   23.8030  -28.3950 C   0  0  0  0  0  0  0  0  0  0  0  0
   -3.9820   22.5730  -28.5170 O   0  0  0  0  0  0  0  0  0  0  0  0
   -4.3760   24.5360  -27.4030 O   0  0  0  0  0  0  0  0  0  0  0  0
   -6.3550   23.5020  -29.4630 N   0  0  0  0  0  0  0  0  0  0  0  0
   -7.3070   22.7000  -29.8360 O   0  0  0  0  0  0  0  0  0  0  0  0
   -8.0270   18.4480  -31.9800 C   0  0  0  0  0  0  0  0  0  0  0  0
   -7.2350   17.5340  -32.6800 C   0  0  0  0  0  0  0  0  0  0  0  0
   -4.8818   16.3898  -33.6200 H   0  0  0  0  0  0  0  0  0  0  0  0
   -6.0511   16.3502  -34.9831 H   0  0  0  0  0  0  0  0  0  0  0  0
   -4.7118   17.5474  -34.9831 H   0  0  0  0  0  0  0  0  0  0  0  0
   -5.4153   19.7221  -34.5762 H   0  0  0  0  0  0  0  0  0  0  0  0
   -6.8345   21.3514  -33.3385 H   0  0  0  0  0  0  0  0  0  0  0  0
   -8.5358   22.3176  -32.9170 H   0  0  0  0  0  0  0  0  0  0  0  0
   -9.6713   22.5873  -31.5441 H   0  0  0  0  0  0  0  0  0  0  0  0
   -6.8127   24.3546  -32.6030 H   0  0  0  0  0  0  0  0  0  0  0  0
   -2.0703   23.7595  -29.7174 H   0  0  0  0  0  0  0  0  0  0  0  0
   -2.2953   25.3064  -28.8358 H   0  0  0  0  0  0  0  0  0  0  0  0
   -5.9330   23.5210  -28.5080 H   0  0  0  0  0  0  0  0  0  0  0  0
   -8.7656   18.0857  -31.2498 H   0  0  0  0  0  0  0  0  0  0  0  0
   -7.3417   16.4566  -32.4854 H   0  0  0  0  0  0  0  0  0  0  0  0
  1  2  1  0
  2  3  2  0
  3  4  1  0
  4  5  2  0
  5  6  1  0
  6  7  1  0
  7  8  1  0
  8  9  2  0
  9 10  1  0
 10 11  1  0
 11 12  2  0
 11 13  1  0
 13 14  1  0
 14 15  1  0
 15 16  2  0
 15 17  1  0
 10 18  2  0
 18 19  1  0
  5 20  1  0
 20 21  2  0
 21  2  1  0
 19  8  1  0
  1 22  1  0
  1 23  1  0
  1 24  1  0
  3 25  1  0
  4 26  1  0
  7 27  1  0
  7 28  1  0
  9 29  1  0
 14 30  1  0
 14 31  1  0
 18 32  1  0
 20 33  1  0
 21 34  1  0
M  CHG  3  13  -1  17  -1  18   1
M  END
>  <UniqueID>  (47) 
41

>  <SMILES>  (47) 
Cc1ccc(OCc2cc(C(=O)[N-]CC(=O)[O-])[nH+]o2)cc1

>  <Energy>  (47) 
63.4420211224064

>  <Genealogy>  (47) 
Cc1ccc(OCc2cc(C(=O)[N-]CC(=O)[O-])[nH+]o2)cc1 (protonated)
Cc1ccc(OCc2cc(C(=O)[N-]CC(=O)[O-])[nH+]o2)cc1 (3D coordinates assigned)
Cc1ccc(OCc2cc(C(=O)[N-]CC(=O)[O-])[nH+]o2)cc1 (optimized conformer: 63.4420211224064 kcal/mol)

>  <smiles>  (47) 
Cc1ccc(OCc2cc(C(=O)NCC(=O)O)no2)cc1

>  <score_type>  (47) 
oracle

>  <origin>  (47) 
adg

>  <m_score__min__energy>  (47) 
-10.93

>  <m_primary>  (47) 
energy

$$$$
47:0
     RDKit          3D

 24 25  0  0  0  0  0  0  0  0999 V2000
   -5.7090   24.9190  -29.3470 C   0  0  0  0  0  0  0  0  0  0  0  0
   -6.7860   24.9190  -30.4250 C   0  0  0  0  0  0  0  0  0  0  0  0
   -6.8200   23.6240  -31.1130 N   0  0  0  0  0  0  0  0  0  0  0  0
   -8.0050   22.9970  -31.2250 N   0  0  0  0  0  0  0  0  0  0  0  0
   -8.1440   21.8000  -31.8690 C   0  0  0  0  0  0  0  0  0  0  0  0
   -9.4840   21.1420  -31.9660 C   0  0  0  0  0  0  0  0  0  0  0  0
   -7.0020   21.2360  -32.4280 C   0  0  0  0  0  0  0  0  0  0  0  0
   -6.8030   20.0670  -33.1340 C   0  0  0  0  0  0  0  0  0  0  0  0
   -5.4450   20.0540  -33.4340 C   0  0  0  0  0  0  0  0  0  0  0  0
   -4.8340   21.1550  -32.9410 N   0  0  0  0  0  0  0  0  0  0  0  0
   -5.7990   21.8640  -32.3310 C   0  0  0  0  0  0  0  0  0  0  0  0
   -5.6840   23.0820  -31.6690 C   0  0  0  0  0  0  0  0  0  0  0  0
   -4.5690   23.6660  -31.5900 O   0  0  0  0  0  0  0  0  0  0  0  0
   -5.4499   23.8819  -29.0876 H   0  0  0  0  0  0  0  0  0  0  0  0
   -4.8145   25.4375  -29.7224 H   0  0  0  0  0  0  0  0  0  0  0  0
   -6.0852   25.4375  -28.4528 H   0  0  0  0  0  0  0  0  0  0  0  0
   -7.7646   25.1082  -29.9597 H   0  0  0  0  0  0  0  0  0  0  0  0
   -6.5576   25.7068  -31.1579 H   0  0  0  0  0  0  0  0  0  0  0  0
   -9.8728   20.9511  -30.9549 H   0  0  0  0  0  0  0  0  0  0  0  0
  -10.1781   21.8017  -32.5072 H   0  0  0  0  0  0  0  0  0  0  0  0
   -9.3864   20.1894  -32.5072 H   0  0  0  0  0  0  0  0  0  0  0  0
   -7.5550   19.3100  -33.4013 H   0  0  0  0  0  0  0  0  0  0  0  0
   -4.9370   19.2564  -33.9960 H   0  0  0  0  0  0  0  0  0  0  0  0
   -3.8220   21.4000  -33.0220 H   0  0  0  0  0  0  0  0  0  0  0  0
  1  2  1  0
  2  3  1  0
  3  4  1  0
  4  5  2  0
  5  6  1  0
  5  7  1  0
  7  8  1  0
  8  9  2  0
  9 10  1  0
 10 11  1  0
 11 12  1  0
 12 13  2  0
 12  3  1  0
 11  7  2  0
  1 14  1  0
  1 15  1  0
  1 16  1  0
  2 17  1  0
  2 18  1  0
  6 19  1  0
  6 20  1  0
  6 21  1  0
  8 22  1  0
  9 23  1  0
 10 24  1  0
M  END
>  <UniqueID>  (48) 
42

>  <SMILES>  (48) 
CCn1nc(C)c2cc[nH]c2c1=O

>  <Energy>  (48) 
55.44156204603362

>  <Genealogy>  (48) 
CCn1nc(C)c2cc[nH]c2c1=O (3D coordinates assigned)
CCn1nc(C)c2cc[nH]c2c1=O (optimized conformer: 55.44156204603362 kcal/mol)

>  <smiles>  (48) 
CCn1nc(C)c2cc[nH]c2c1=O

>  <score_type>  (48) 
oracle

>  <origin>  (48) 
adg

>  <m_score__min__energy>  (48) 
-5.6299999999999999

>  <m_primary>  (48) 
energy

$$$$
48:0
     RDKit          3D

 27 28  0  0  1  0  0  0  0  0999 V2000
   -2.0620   24.8330  -28.2350 C   0  0  0  0  0  0  0  0  0  0  0  0
   -2.7650   25.2680  -29.3500 O   0  0  0  0  0  0  0  0  0  0  0  0
   -3.8330   24.6240  -29.9640 C   0  0  0  0  0  0  0  0  0  0  0  0
   -5.0220   25.3140  -30.1010 C   0  0  0  0  0  0  0  0  0  0  0  0
   -6.1350   24.7550  -30.6980 C   0  0  0  0  0  0  0  0  0  0  0  0
   -6.0610   23.4460  -31.1830 C   0  0  0  0  0  0  0  0  0  0  0  0
   -4.8730   22.7550  -31.0480 C   0  0  0  0  0  0  0  0  0  0  0  0
   -4.7500   21.3540  -31.5510 C   0  0  0  0  0  0  0  0  0  0  0  0
   -5.5740   21.2280  -32.7360 N   0  0  0  0  0  0  0  0  0  0  0  0
   -6.6990   20.5980  -32.6390 C   0  0  0  0  0  0  0  0  0  0  0  0
   -7.3080   20.4060  -31.4390 N   0  0  0  0  0  0  0  0  0  0  0  0
   -8.4670   19.7170  -31.6460 C   0  0  0  0  0  0  0  0  0  0  0  0
   -8.5280   19.5090  -32.9730 N   0  0  0  0  0  0  0  0  0  0  0  0
   -7.4680   20.0390  -33.5630 N   0  0  0  0  0  0  0  0  0  0  0  0
   -3.7570   23.3330  -30.4420 C   0  0  0  0  0  0  0  0  0  0  0  0
   -2.5847   25.1565  -27.3228 H   0  0  0  0  0  0  0  0  0  0  0  0
   -1.9947   23.7352  -28.2493 H   0  0  0  0  0  0  0  0  0  0  0  0
   -1.0495   25.2627  -28.2493 H   0  0  0  0  0  0  0  0  0  0  0  0
   -5.0845   26.3445  -29.7214 H   0  0  0  0  0  0  0  0  0  0  0  0
   -7.0670   25.3320  -30.7906 H   0  0  0  0  0  0  0  0  0  0  0  0
   -6.9320   22.9756  -31.6628 H   0  0  0  0  0  0  0  0  0  0  0  0
   -3.7008   21.1384  -31.8016 H   0  0  0  0  0  0  0  0  0  0  0  0
   -5.0791   20.6417  -30.7801 H   0  0  0  0  0  0  0  0  0  0  0  0
   -9.1974   19.3988  -30.8875 H   0  0  0  0  0  0  0  0  0  0  0  0
   -9.3100   18.9970  -33.4800 H   0  0  0  0  0  0  0  0  0  0  0  0
   -7.2430   20.0330  -34.5990 H   0  0  0  0  0  0  0  0  0  0  0  0
   -2.8218   22.7619  -30.3461 H   0  0  0  0  0  0  0  0  0  0  0  0
  1  2  1  0
  2  3  1  0
  3  4  2  0
  4  5  1  0
  5  6  2  0
  6  7  1  0
  7  8  1  0
  8  9  1  0
  9 10  2  0
 10 11  1  0
 11 12  2  0
 12 13  1  0
 13 14  1  0
  7 15  2  0
 15  3  1  0
 14 10  1  0
  1 16  1  0
  1 17  1  0
  1 18  1  0
  4 19  1  0
  5 20  1  0
  6 21  1  0
  8 22  1  0
  8 23  1  0
 12 24  1  0
 13 25  1  0
 14 26  1  0
 15 27  1  0
M  END
>  <smiles>  (49) 
COc1cccc(CN=c2nc[nH][nH]2)c1

>  <score_type>  (49) 
oracle

>  <origin>  (49) 
adg

>  <m_score__min__energy>  (49) 
-6.1100000000000003

>  <m_primary>  (49) 
energy

$$$$
