0:0
     RDKit          3D

 46 48  0  0  0  0  0  0  0  0999 V2000
   -6.4820   25.4480  -29.4090 C   0  0  0  0  0  0  0  0  0  0  0  0
   -5.5110   25.8520  -30.5140 C   0  0  0  0  0  0  0  0  0  0  0  0
   -4.6060   24.7240  -30.8330 N   0  0  0  0  0  0  0  0  0  0  0  0
   -3.9790   24.1980  -29.6060 C   0  0  0  0  0  0  0  0  0  0  0  0
   -5.3110   23.6380  -31.5480 C   0  0  0  0  0  0  0  0  0  0  0  0
   -4.3560   22.4800  -31.8750 C   0  0  0  0  0  0  0  0  0  0  0  0
   -4.7480   21.7820  -33.1040 N   0  0  0  0  0  0  0  0  0  0  0  0
   -5.1850   20.4100  -33.1010 C   0  0  0  0  0  0  0  0  0  0  0  0
   -4.3070   19.3770  -33.4710 C   0  0  0  0  0  0  0  0  0  0  0  0
   -2.9280   19.6250  -33.6430 C   0  0  0  0  0  0  0  0  0  0  0  0
   -2.0560   18.5940  -33.9820 C   0  0  0  0  0  0  0  0  0  0  0  0
   -2.5350   17.2970  -34.1280 C   0  0  0  0  0  0  0  0  0  0  0  0
   -3.8900   17.0240  -33.9440 C   0  0  0  0  0  0  0  0  0  0  0  0
   -4.8090   18.0570  -33.6300 C   0  0  0  0  0  0  0  0  0  0  0  0
   -6.1560   17.8030  -33.4540 N   0  0  0  0  0  0  0  0  0  0  0  0
   -6.7330   16.5160  -33.9020 C   0  0  0  0  0  0  0  0  0  0  0  0
   -6.9660   18.7580  -32.8690 C   0  0  0  0  0  0  0  0  0  0  0  0
   -8.2720   18.4490  -32.4090 C   0  0  0  0  0  0  0  0  0  0  0  0
   -9.0970   19.4350  -31.8670 C   0  0  0  0  0  0  0  0  0  0  0  0
   -8.6410   20.7430  -31.7500 C   0  0  0  0  0  0  0  0  0  0  0  0
   -9.4470   21.6980  -31.2240 F   0  0  0  0  0  0  0  0  0  0  0  0
   -7.3490   21.0690  -32.1540 C   0  0  0  0  0  0  0  0  0  0  0  0
   -6.4950   20.0880  -32.7040 C   0  0  0  0  0  0  0  0  0  0  0  0
   -6.0218   25.6395  -28.4284 H   0  0  0  0  0  0  0  0  0  0  0  0
   -7.4072   26.0358  -29.5009 H   0  0  0  0  0  0  0  0  0  0  0  0
   -6.7172   24.3774  -29.5009 H   0  0  0  0  0  0  0  0  0  0  0  0
   -6.0791   26.1287  -31.4144 H   0  0  0  0  0  0  0  0  0  0  0  0
   -4.9120   26.7088  -30.1717 H   0  0  0  0  0  0  0  0  0  0  0  0
   -4.4841   24.6217  -28.7255 H   0  0  0  0  0  0  0  0  0  0  0  0
   -4.0699   23.1019  -29.5887 H   0  0  0  0  0  0  0  0  0  0  0  0
   -2.9154   24.4781  -29.5887 H   0  0  0  0  0  0  0  0  0  0  0  0
   -6.1279   23.2620  -30.9145 H   0  0  0  0  0  0  0  0  0  0  0  0
   -5.7075   24.0409  -32.4916 H   0  0  0  0  0  0  0  0  0  0  0  0
   -3.3398   22.8814  -32.0021 H   0  0  0  0  0  0  0  0  0  0  0  0
   -4.3951   21.7594  -31.0449 H   0  0  0  0  0  0  0  0  0  0  0  0
   -4.6050   22.2650  -34.0200 H   0  0  0  0  0  0  0  0  0  0  0  0
   -2.5379   20.6446  -33.5076 H   0  0  0  0  0  0  0  0  0  0  0  0
   -0.9874   18.8057  -34.1344 H   0  0  0  0  0  0  0  0  0  0  0  0
   -1.8426   16.4833  -34.3896 H   0  0  0  0  0  0  0  0  0  0  0  0
   -4.2519   15.9901  -34.0441 H   0  0  0  0  0  0  0  0  0  0  0  0
   -7.0044   15.9106  -33.0246 H   0  0  0  0  0  0  0  0  0  0  0  0
   -7.6313   16.7078  -34.5072 H   0  0  0  0  0  0  0  0  0  0  0  0
   -5.9922   15.9729  -34.5072 H   0  0  0  0  0  0  0  0  0  0  0  0
   -8.6403   17.4150  -32.4808 H   0  0  0  0  0  0  0  0  0  0  0  0
  -10.1120   19.1764  -31.5310 H   0  0  0  0  0  0  0  0  0  0  0  0
   -6.9894   22.1027  -32.0435 H   0  0  0  0  0  0  0  0  0  0  0  0
  1  2  1  0
  2  3  1  0
  3  4  1  0
  3  5  1  0
  5  6  1  0
  6  7  1  0
  7  8  1  0
  8  9  2  0
  9 10  1  0
 10 11  2  0
 11 12  1  0
 12 13  2  0
 13 14  1  0
 14 15  2  0
 15 16  1  0
 15 17  1  0
 17 18  2  0
 18 19  1  0
 19 20  2  0
 20 21  1  0
 20 22  1  0
 22 23  2  0
 23  8  1  0
 14  9  1  0
 23 17  1  0
  1 24  1  0
  1 25  1  0
  1 26  1  0
  2 27  1  0
  2 28  1  0
  4 29  1  0
  4 30  1  0
  4 31  1  0
  5 32  1  0
  5 33  1  0
  6 34  1  0
  6 35  1  0
  7 36  1  0
 10 37  1  0
 11 38  1  0
 12 39  1  0
 13 40  1  0
 16 41  1  0
 16 42  1  0
 16 43  1  0
 18 44  1  0
 19 45  1  0
 22 46  1  0
M  CHG  1  15   1
M  END
>  <UniqueID>  (1) 
1

>  <SMILES>  (1) 
CCN(C)CCNc1c2ccccc2[n+](C)c2ccc(F)cc12

>  <Energy>  (1) 
70.27867351216018

>  <Genealogy>  (1) 
CCN(C)CCNc1c2ccccc2[n+](C)c2ccc(F)cc12 (3D coordinates assigned)
CCN(C)CCNc1c2ccccc2[n+](C)c2ccc(F)cc12 (optimized conformer: 70.27867351216018 kcal/mol)

>  <smiles>  (1) 
CCN(C)CCNc1c2ccccc2[n+](C)c2ccc(F)cc12

>  <score_type>  (1) 
oracle

>  <origin>  (1) 
adg

>  <m_score__min__energy>  (1) 
-8.4600000000000009

>  <m_primary>  (1) 
energy

$$$$
1:0
     RDKit          3D

 57 61  0  0  0  0  0  0  0  0999 V2000
   -5.9010   13.6540  -33.9280 C   0  0  0  0  0  0  0  0  0  0  0  0
   -4.6740   14.3770  -33.5420 N   0  0  0  0  0  0  0  0  0  0  0  0
   -4.9410   15.4210  -32.5350 C   0  0  0  0  0  0  0  0  0  0  0  0
   -5.7260   16.6150  -33.1240 C   0  0  0  0  0  0  0  0  0  0  0  0
   -5.4830   16.8070  -34.5770 N   0  0  0  0  0  0  0  0  0  0  0  0
   -5.7660   18.2000  -34.9930 C   0  0  0  0  0  0  0  0  0  0  0  0
   -5.2090   19.1660  -33.9810 C   0  0  0  0  0  0  0  0  0  0  0  0
   -6.0620   19.9930  -33.2380 C   0  0  0  0  0  0  0  0  0  0  0  0
   -5.5390   20.9370  -32.3500 C   0  0  0  0  0  0  0  0  0  0  0  0
   -4.1470   21.0650  -32.1780 C   0  0  0  0  0  0  0  0  0  0  0  0
   -3.5870   22.0720  -31.2330 C   0  0  0  0  0  0  0  0  0  0  0  0
   -4.3670   23.1620  -30.8000 C   0  0  0  0  0  0  0  0  0  0  0  0
   -3.8430   24.1090  -29.9140 C   0  0  0  0  0  0  0  0  0  0  0  0
   -2.5360   23.9740  -29.4210 C   0  0  0  0  0  0  0  0  0  0  0  0
   -1.9970   24.9540  -28.4590 C   0  0  0  0  0  0  0  0  0  0  0  0
   -1.2280   26.0130  -28.8380 N   0  0  0  0  0  0  0  0  0  0  0  0
   -0.9530   26.6050  -27.6680 C   0  0  0  0  0  0  0  0  0  0  0  0
   -0.2020   27.7570  -27.4550 C   0  0  0  0  0  0  0  0  0  0  0  0
   -0.0610   28.2230  -26.1270 C   0  0  0  0  0  0  0  0  0  0  0  0
    0.7400   29.4760  -25.8690 C   0  0  0  0  0  0  0  0  0  0  0  0
    1.0090   30.1050  -27.0710 F   0  0  0  0  0  0  0  0  0  0  0  0
    0.0130   30.3340  -25.0610 F   0  0  0  0  0  0  0  0  0  0  0  0
    1.9390   29.1930  -25.2380 F   0  0  0  0  0  0  0  0  0  0  0  0
   -0.6800   27.5040  -25.0650 C   0  0  0  0  0  0  0  0  0  0  0  0
   -1.4330   26.3430  -25.3250 C   0  0  0  0  0  0  0  0  0  0  0  0
   -1.5470   25.9280  -26.6470 C   0  0  0  0  0  0  0  0  0  0  0  0
   -2.2030   24.8620  -27.1180 N   0  0  0  0  0  0  0  0  0  0  0  0
   -1.7540   22.8880  -29.8450 C   0  0  0  0  0  0  0  0  0  0  0  0
   -2.2690   21.9550  -30.7520 C   0  0  0  0  0  0  0  0  0  0  0  0
   -3.2950   20.2240  -32.9200 C   0  0  0  0  0  0  0  0  0  0  0  0
   -3.8210   19.2960  -33.8230 C   0  0  0  0  0  0  0  0  0  0  0  0
   -4.1140   16.4080  -34.9440 C   0  0  0  0  0  0  0  0  0  0  0  0
   -3.9280   14.8950  -34.7180 C   0  0  0  0  0  0  0  0  0  0  0  0
   -6.4396   13.3366  -33.0229 H   0  0  0  0  0  0  0  0  0  0  0  0
   -6.5450   14.3170  -34.5244 H   0  0  0  0  0  0  0  0  0  0  0  0
   -5.6331   12.7694  -34.5244 H   0  0  0  0  0  0  0  0  0  0  0  0
   -5.5284   14.9807  -31.7158 H   0  0  0  0  0  0  0  0  0  0  0  0
   -3.9723   15.7986  -32.1759 H   0  0  0  0  0  0  0  0  0  0  0  0
   -6.8007   16.4395  -32.9681 H   0  0  0  0  0  0  0  0  0  0  0  0
   -5.3803   17.5234  -32.6089 H   0  0  0  0  0  0  0  0  0  0  0  0
   -5.3001   18.3892  -35.9713 H   0  0  0  0  0  0  0  0  0  0  0  0
   -6.8547   18.3404  -35.0633 H   0  0  0  0  0  0  0  0  0  0  0  0
   -7.1517   19.8985  -33.3546 H   0  0  0  0  0  0  0  0  0  0  0  0
   -6.2206   21.5858  -31.7803 H   0  0  0  0  0  0  0  0  0  0  0  0
   -5.3999   23.2697  -31.1627 H   0  0  0  0  0  0  0  0  0  0  0  0
   -4.4592   24.9650  -29.6017 H   0  0  0  0  0  0  0  0  0  0  0  0
    0.2682   28.2896  -28.2948 H   0  0  0  0  0  0  0  0  0  0  0  0
   -0.5686   27.8596  -24.0300 H   0  0  0  0  0  0  0  0  0  0  0  0
   -1.9148   25.7833  -24.5098 H   0  0  0  0  0  0  0  0  0  0  0  0
   -0.7297   22.7696  -29.4618 H   0  0  0  0  0  0  0  0  0  0  0  0
   -1.6374   21.1214  -31.0927 H   0  0  0  0  0  0  0  0  0  0  0  0
   -2.2055   20.2983  -32.7876 H   0  0  0  0  0  0  0  0  0  0  0  0
   -3.1422   18.6633  -34.4138 H   0  0  0  0  0  0  0  0  0  0  0  0
   -3.9380   16.6424  -36.0042 H   0  0  0  0  0  0  0  0  0  0  0  0
   -3.3970   16.9578  -34.3166 H   0  0  0  0  0  0  0  0  0  0  0  0
   -4.2782   14.3630  -35.6148 H   0  0  0  0  0  0  0  0  0  0  0  0
   -2.8586   14.7251  -34.5243 H   0  0  0  0  0  0  0  0  0  0  0  0
  1  2  1  0
  2  3  1  0
  3  4  1  0
  4  5  1  0
  5  6  1  0
  6  7  1  0
  7  8  2  0
  8  9  1  0
  9 10  2  0
 10 11  1  0
 11 12  2  0
 12 13  1  0
 13 14  2  0
 14 15  1  0
 15 16  2  0
 16 17  1  0
 17 18  2  0
 18 19  1  0
 19 20  1  0
 20 21  1  0
 20 22  1  0
 20 23  1  0
 19 24  2  0
 24 25  1  0
 25 26  2  0
 26 27  1  0
 14 28  1  0
 28 29  2  0
 10 30  1  0
 30 31  2  0
  5 32  1  0
 32 33  1  0
 33  2  1  0
 31  7  1  0
 29 11  1  0
 27 15  1  0
 26 17  1  0
  1 34  1  0
  1 35  1  0
  1 36  1  0
  3 37  1  0
  3 38  1  0
  4 39  1  0
  4 40  1  0
  6 41  1  0
  6 42  1  0
  8 43  1  0
  9 44  1  0
 12 45  1  0
 13 46  1  0
 18 47  1  0
 24 48  1  0
 25 49  1  0
 28 50  1  0
 29 51  1  0
 30 52  1  0
 31 53  1  0
 32 54  1  0
 32 55  1  0
 33 56  1  0
 33 57  1  0
M  CHG  1  27  -1
M  END
>  <UniqueID>  (2) 
2

>  <SMILES>  (2) 
CN1CCN(Cc2ccc(-c3ccc(-c4nc5cc(C(F)(F)F)ccc5[n-]4)cc3)cc2)CC1

>  <Energy>  (2) 
115.98786324793093

>  <Genealogy>  (2) 
CN1CCN(Cc2ccc(-c3ccc(-c4nc5cc(C(F)(F)F)ccc5[n-]4)cc3)cc2)CC1 (protonated)
CN1CCN(Cc2ccc(-c3ccc(-c4nc5cc(C(F)(F)F)ccc5[n-]4)cc3)cc2)CC1 (3D coordinates assigned)
CN1CCN(Cc2ccc(-c3ccc(-c4nc5cc(C(F)(F)F)ccc5[n-]4)cc3)cc2)CC1 (nonaromatic ring conformer: 115.98786324793093 kcal/mol)

>  <smiles>  (2) 
CN1CCN(Cc2ccc(-c3ccc(-c4nc5cc(C(F)(F)F)ccc5[nH]4)cc3)cc2)CC1

>  <score_type>  (2) 
oracle

>  <origin>  (2) 
adg

>  <m_score__min__energy>  (2) 
-9.2400000000000002

>  <m_primary>  (2) 
energy

$$$$
2:0
     RDKit          3D

 61 63  0  0  0  0  0  0  0  0999 V2000
   -6.1800   25.6250  -29.7390 C   0  0  0  0  0  0  0  0  0  0  0  0
   -5.3410   24.3800  -29.4470 C   0  0  0  0  0  0  0  0  0  0  0  0
   -3.9950   24.3750  -30.1820 C   0  0  0  0  0  0  0  0  0  0  0  0
   -3.4580   23.0100  -30.2890 N   0  0  0  0  0  0  0  0  0  0  0  0
   -3.6030   22.2720  -29.0240 C   0  0  0  0  0  0  0  0  0  0  0  0
   -2.8900   20.9110  -29.0840 C   0  0  0  0  0  0  0  0  0  0  0  0
   -1.4130   21.0220  -29.5210 C   0  0  0  0  0  0  0  0  0  0  0  0
   -1.1950   20.5930  -30.9780 C   0  0  0  0  0  0  0  0  0  0  0  0
   -1.6000   21.6810  -31.8850 N   0  0  0  0  0  0  0  0  0  0  0  0
   -1.9180   21.1820  -33.2290 C   0  0  0  0  0  0  0  0  0  0  0  0
   -3.4340   21.2610  -33.4710 C   0  0  0  0  0  0  0  0  0  0  0  0
   -4.2130   21.4280  -32.2290 N   0  0  0  0  0  0  0  0  0  0  0  0
   -5.4670   20.6810  -32.2490 C   0  0  0  0  0  0  0  0  0  0  0  0
   -5.4890   19.2700  -32.4730 C   0  0  0  0  0  0  0  0  0  0  0  0
   -4.3080   18.5170  -32.7150 C   0  0  0  0  0  0  0  0  0  0  0  0
   -4.3680   17.1700  -33.0580 C   0  0  0  0  0  0  0  0  0  0  0  0
   -5.5900   16.5230  -33.1380 C   0  0  0  0  0  0  0  0  0  0  0  0
   -6.7600   17.2130  -32.8470 C   0  0  0  0  0  0  0  0  0  0  0  0
   -6.7370   18.5810  -32.4690 C   0  0  0  0  0  0  0  0  0  0  0  0
   -7.8970   19.2400  -32.1200 N   0  0  0  0  0  0  0  0  0  0  0  0
   -9.1110   18.4650  -31.7730 C   0  0  0  0  0  0  0  0  0  0  0  0
   -7.9220   20.6170  -32.0610 C   0  0  0  0  0  0  0  0  0  0  0  0
   -9.1530   21.3250  -31.9940 C   0  0  0  0  0  0  0  0  0  0  0  0
   -9.1840   22.7110  -31.8780 C   0  0  0  0  0  0  0  0  0  0  0  0
   -8.0000   23.4300  -31.8410 C   0  0  0  0  0  0  0  0  0  0  0  0
   -6.7780   22.7720  -31.9520 C   0  0  0  0  0  0  0  0  0  0  0  0
   -6.7090   21.3610  -32.0860 C   0  0  0  0  0  0  0  0  0  0  0  0
   -6.4918   26.0877  -28.7910 H   0  0  0  0  0  0  0  0  0  0  0  0
   -5.5810   26.3433  -30.3180 H   0  0  0  0  0  0  0  0  0  0  0  0
   -7.0706   25.3395  -30.3180 H   0  0  0  0  0  0  0  0  0  0  0  0
   -5.1490   24.3332  -28.3649 H   0  0  0  0  0  0  0  0  0  0  0  0
   -5.9117   23.5094  -29.8024 H   0  0  0  0  0  0  0  0  0  0  0  0
   -4.1354   24.7866  -31.1924 H   0  0  0  0  0  0  0  0  0  0  0  0
   -3.2820   24.9884  -29.6116 H   0  0  0  0  0  0  0  0  0  0  0  0
   -2.4320   23.0860  -30.4870 H   0  0  0  0  0  0  0  0  0  0  0  0
   -3.1670   22.8689  -28.2094 H   0  0  0  0  0  0  0  0  0  0  0  0
   -4.6741   22.0944  -28.8475 H   0  0  0  0  0  0  0  0  0  0  0  0
   -2.9264   20.4519  -28.0850 H   0  0  0  0  0  0  0  0  0  0  0  0
   -3.4105   20.2999  -29.8361 H   0  0  0  0  0  0  0  0  0  0  0  0
   -1.0902   22.0677  -29.4096 H   0  0  0  0  0  0  0  0  0  0  0  0
   -0.8250   20.3458  -28.8830 H   0  0  0  0  0  0  0  0  0  0  0  0
   -0.1309   20.3633  -31.1356 H   0  0  0  0  0  0  0  0  0  0  0  0
   -1.8022   19.7002  -31.1882 H   0  0  0  0  0  0  0  0  0  0  0  0
   -2.4540   22.1370  -31.4840 H   0  0  0  0  0  0  0  0  0  0  0  0
   -1.3965   21.7952  -33.9786 H   0  0  0  0  0  0  0  0  0  0  0  0
   -1.5918   20.1349  -33.3132 H   0  0  0  0  0  0  0  0  0  0  0  0
   -3.6387   22.1177  -34.1299 H   0  0  0  0  0  0  0  0  0  0  0  0
   -3.7427   20.3077  -33.9248 H   0  0  0  0  0  0  0  0  0  0  0  0
   -3.6310   21.1200  -31.4170 H   0  0  0  0  0  0  0  0  0  0  0  0
   -4.3300   22.4410  -32.0280 H   0  0  0  0  0  0  0  0  0  0  0  0
   -3.3277   19.0087  -32.6294 H   0  0  0  0  0  0  0  0  0  0  0  0
   -3.4407   16.6163  -33.2666 H   0  0  0  0  0  0  0  0  0  0  0  0
   -5.6340   15.4638  -33.4317 H   0  0  0  0  0  0  0  0  0  0  0  0
   -7.7246   16.6882  -32.9108 H   0  0  0  0  0  0  0  0  0  0  0  0
   -9.2067   18.4039  -30.6789 H   0  0  0  0  0  0  0  0  0  0  0  0
   -9.9971   18.9649  -32.1912 H   0  0  0  0  0  0  0  0  0  0  0  0
   -9.0306   17.4508  -32.1912 H   0  0  0  0  0  0  0  0  0  0  0  0
  -10.0995   20.7660  -32.0347 H   0  0  0  0  0  0  0  0  0  0  0  0
  -10.1485   23.2362  -31.8156 H   0  0  0  0  0  0  0  0  0  0  0  0
   -8.0256   24.5234  -31.7236 H   0  0  0  0  0  0  0  0  0  0  0  0
   -5.8471   23.3578  -31.9355 H   0  0  0  0  0  0  0  0  0  0  0  0
  1  2  1  0
  2  3  1  0
  3  4  1  0
  4  5  1  0
  5  6  1  0
  6  7  1  0
  7  8  1  0
  8  9  1  0
  9 10  1  0
 10 11  1  0
 11 12  1  0
 12 13  1  0
 13 14  2  0
 14 15  1  0
 15 16  2  0
 16 17  1  0
 17 18  2  0
 18 19  1  0
 19 20  2  0
 20 21  1  0
 20 22  1  0
 22 23  2  0
 23 24  1  0
 24 25  2  0
 25 26  1  0
 26 27  2  0
 27 13  1  0
 19 14  1  0
 27 22  1  0
  1 28  1  0
  1 29  1  0
  1 30  1  0
  2 31  1  0
  2 32  1  0
  3 33  1  0
  3 34  1  0
  4 35  1  0
  5 36  1  0
  5 37  1  0
  6 38  1  0
  6 39  1  0
  7 40  1  0
  7 41  1  0
  8 42  1  0
  8 43  1  0
  9 44  1  0
 10 45  1  0
 10 46  1  0
 11 47  1  0
 11 48  1  0
 12 49  1  0
 12 50  1  0
 15 51  1  0
 16 52  1  0
 17 53  1  0
 18 54  1  0
 21 55  1  0
 21 56  1  0
 21 57  1  0
 23 58  1  0
 24 59  1  0
 25 60  1  0
 26 61  1  0
M  CHG  2  12   1  20   1
M  END
>  <UniqueID>  (3) 
3

>  <SMILES>  (3) 
CCCNCCCCNCC[NH2+]c1c2ccccc2[n+](C)c2ccccc12

>  <Energy>  (3) 
81.76231529012979

>  <Genealogy>  (3) 
CCCNCCCCNCC[NH2+]c1c2ccccc2[n+](C)c2ccccc12 (protonated)
CCCNCCCCNCC[NH2+]c1c2ccccc2[n+](C)c2ccccc12 (3D coordinates assigned)
CCCNCCCCNCC[NH2+]c1c2ccccc2[n+](C)c2ccccc12 (optimized conformer: 81.76231529012979 kcal/mol)

>  <smiles>  (3) 
CCCNCCCCNCCNc1c2ccccc2[n+](C)c2ccccc12

>  <score_type>  (3) 
oracle

>  <origin>  (3) 
adg

>  <m_score__min__energy>  (3) 
-8.7799999999999994

>  <m_primary>  (3) 
energy

$$$$
3:0
     RDKit          3D

 44 45  0  0  0  0  0  0  0  0999 V2000
   -5.6840   18.5610  -34.1000 C   0  0  0  0  0  0  0  0  0  0  0  0
   -6.6000   19.0840  -32.9900 C   0  0  0  0  0  0  0  0  0  0  0  0
   -7.5020   20.1510  -33.4590 N   0  0  0  0  0  0  0  0  0  0  0  0
   -8.7750   20.1810  -32.7120 C   0  0  0  0  0  0  0  0  0  0  0  0
   -8.5450   20.3880  -31.1960 C   0  0  0  0  0  0  0  0  0  0  0  0
   -8.3940   21.8690  -30.8070 C   0  0  0  0  0  0  0  0  0  0  0  0
   -8.4340   22.8060  -32.0300 C   0  0  0  0  0  0  0  0  0  0  0  0
   -7.1130   22.9820  -32.6610 N   0  0  0  0  0  0  0  0  0  0  0  0
   -6.1810   23.8160  -31.8810 C   0  0  0  0  0  0  0  0  0  0  0  0
   -4.9350   23.0500  -31.4780 C   0  0  0  0  0  0  0  0  0  0  0  0
   -4.3310   22.2160  -32.4360 C   0  0  0  0  0  0  0  0  0  0  0  0
   -3.1440   21.5410  -32.1530 C   0  0  0  0  0  0  0  0  0  0  0  0
   -2.3310   20.4450  -33.4890 Br  0  0  0  0  0  0  0  0  0  0  0  0
   -2.5410   21.6780  -30.9030 C   0  0  0  0  0  0  0  0  0  0  0  0
   -3.1170   22.5000  -29.9260 C   0  0  0  0  0  0  0  0  0  0  0  0
   -2.4980   22.6400  -28.6750 C   0  0  0  0  0  0  0  0  0  0  0  0
   -3.0570   23.4670  -27.7000 C   0  0  0  0  0  0  0  0  0  0  0  0
   -4.2350   24.1640  -27.9660 C   0  0  0  0  0  0  0  0  0  0  0  0
   -4.8660   24.0370  -29.2060 C   0  0  0  0  0  0  0  0  0  0  0  0
   -4.3230   23.2020  -30.2060 C   0  0  0  0  0  0  0  0  0  0  0  0
   -4.8118   18.0630  -33.6514 H   0  0  0  0  0  0  0  0  0  0  0  0
   -6.2364   17.8422  -34.7230 H   0  0  0  0  0  0  0  0  0  0  0  0
   -5.3458   19.4021  -34.7230 H   0  0  0  0  0  0  0  0  0  0  0  0
   -7.2080   18.2490  -32.6116 H   0  0  0  0  0  0  0  0  0  0  0  0
   -5.9612   19.5087  -32.2016 H   0  0  0  0  0  0  0  0  0  0  0  0
   -7.6990   20.0240  -34.4790 H   0  0  0  0  0  0  0  0  0  0  0  0
   -6.9970   21.0600  -33.3460 H   0  0  0  0  0  0  0  0  0  0  0  0
   -9.3933   21.0064  -33.0946 H   0  0  0  0  0  0  0  0  0  0  0  0
   -9.2780   19.2130  -32.8532 H   0  0  0  0  0  0  0  0  0  0  0  0
   -9.4032   19.9682  -30.6508 H   0  0  0  0  0  0  0  0  0  0  0  0
   -7.6043   19.8817  -30.9340 H   0  0  0  0  0  0  0  0  0  0  0  0
   -9.2148   22.1408  -30.1270 H   0  0  0  0  0  0  0  0  0  0  0  0
   -7.4130   21.9901  -30.3243 H   0  0  0  0  0  0  0  0  0  0  0  0
   -9.1249   22.3828  -32.7740 H   0  0  0  0  0  0  0  0  0  0  0  0
   -8.7663   23.7939  -31.6784 H   0  0  0  0  0  0  0  0  0  0  0  0
   -7.2400   23.4180  -33.6040 H   0  0  0  0  0  0  0  0  0  0  0  0
   -5.8839   24.6821  -32.4907 H   0  0  0  0  0  0  0  0  0  0  0  0
   -6.6964   24.1342  -30.9628 H   0  0  0  0  0  0  0  0  0  0  0  0
   -4.8017   22.0944  -33.4227 H   0  0  0  0  0  0  0  0  0  0  0  0
   -1.6083   21.1378  -30.6832 H   0  0  0  0  0  0  0  0  0  0  0  0
   -1.5668   22.0948  -28.4614 H   0  0  0  0  0  0  0  0  0  0  0  0
   -2.5677   23.5692  -26.7202 H   0  0  0  0  0  0  0  0  0  0  0  0
   -4.6699   24.8174  -27.1953 H   0  0  0  0  0  0  0  0  0  0  0  0
   -5.7943   24.5927  -29.4047 H   0  0  0  0  0  0  0  0  0  0  0  0
  1  2  1  0
  2  3  1  0
  3  4  1  0
  4  5  1  0
  5  6  1  0
  6  7  1  0
  7  8  1  0
  8  9  1  0
  9 10  1  0
 10 11  2  0
 11 12  1  0
 12 13  1  0
 12 14  2  0
 14 15  1  0
 15 16  2  0
 16 17  1  0
 17 18  2  0
 18 19  1  0
 19 20  2  0
 20 10  1  0
 20 15  1  0
  1 21  1  0
  1 22  1  0
  1 23  1  0
  2 24  1  0
  2 25  1  0
  3 26  1  0
  3 27  1  0
  4 28  1  0
  4 29  1  0
  5 30  1  0
  5 31  1  0
  6 32  1  0
  6 33  1  0
  7 34  1  0
  7 35  1  0
  8 36  1  0
  9 37  1  0
  9 38  1  0
 11 39  1  0
 14 40  1  0
 16 41  1  0
 17 42  1  0
 18 43  1  0
 19 44  1  0
M  CHG  1   3   1
M  END
>  <UniqueID>  (4) 
4

>  <SMILES>  (4) 
CC[NH2+]CCCCNCc1cc(Br)cc2ccccc12

>  <Energy>  (4) 
43.80842356002445

>  <Genealogy>  (4) 
CC[NH2+]CCCCNCc1cc(Br)cc2ccccc12 (protonated)
CC[NH2+]CCCCNCc1cc(Br)cc2ccccc12 (3D coordinates assigned)
CC[NH2+]CCCCNCc1cc(Br)cc2ccccc12 (optimized conformer: 43.80842356002445 kcal/mol)

>  <smiles>  (4) 
CCNCCCCNCc1cc(Br)cc2ccccc12

>  <score_type>  (4) 
oracle

>  <origin>  (4) 
adg

>  <m_score__min__energy>  (4) 
-7.7000000000000002

>  <m_primary>  (4) 
energy

$$$$
4:0
     RDKit          3D

 58 60  0  0  0  0  0  0  0  0999 V2000
   -5.7280   18.2600  -35.1720 C   0  0  0  0  0  0  0  0  0  0  0  0
   -6.2010   17.3470  -34.0360 C   0  0  0  0  0  0  0  0  0  0  0  0
   -5.1380   17.1460  -33.0060 N   0  0  1  0  0  0  0  0  0  0  0  0
   -5.7380   16.7100  -31.7290 C   0  0  0  0  0  0  0  0  0  0  0  0
   -4.1180   16.1560  -33.4370 C   0  0  0  0  0  0  0  0  0  0  0  0
   -2.7190   16.7900  -33.5840 C   0  0  0  0  0  0  0  0  0  0  0  0
   -2.5880   17.9450  -32.7700 O   0  0  0  0  0  0  0  0  0  0  0  0
   -2.2510   19.0800  -33.5420 C   0  0  0  0  0  0  0  0  0  0  0  0
   -3.4090   20.0720  -33.5020 C   0  0  0  0  0  0  0  0  0  0  0  0
   -4.0840   20.0170  -32.2040 N   0  0  0  0  0  0  0  0  0  0  0  0
   -4.8680   21.1200  -31.7170 C   0  0  0  0  0  0  0  0  0  0  0  0
   -6.2690   21.0930  -31.8330 C   0  0  0  0  0  0  0  0  0  0  0  0
   -6.9250   20.0020  -32.4440 C   0  0  0  0  0  0  0  0  0  0  0  0
   -8.3160   19.9360  -32.4780 C   0  0  0  0  0  0  0  0  0  0  0  0
   -9.0740   20.9390  -31.8870 C   0  0  0  0  0  0  0  0  0  0  0  0
   -8.4490   22.0410  -31.3030 C   0  0  0  0  0  0  0  0  0  0  0  0
   -7.0360   22.1650  -31.3030 C   0  0  0  0  0  0  0  0  0  0  0  0
   -6.4050   23.2840  -30.7900 N   0  0  0  0  0  0  0  0  0  0  0  0
   -7.1800   24.5180  -30.5330 C   0  0  0  0  0  0  0  0  0  0  0  0
   -5.0400   23.2670  -30.5630 C   0  0  0  0  0  0  0  0  0  0  0  0
   -4.3940   24.2960  -29.8290 C   0  0  0  0  0  0  0  0  0  0  0  0
   -2.9970   24.3170  -29.6740 C   0  0  0  0  0  0  0  0  0  0  0  0
   -2.3270   25.3360  -28.9790 O   0  0  0  0  0  0  0  0  0  0  0  0
   -1.9240   25.2560  -27.6150 C   0  0  0  0  0  0  0  0  0  0  0  0
   -2.2350   23.2940  -30.2330 C   0  0  0  0  0  0  0  0  0  0  0  0
   -2.8470   22.2460  -30.9140 C   0  0  0  0  0  0  0  0  0  0  0  0
   -4.2480   22.2010  -31.0630 C   0  0  0  0  0  0  0  0  0  0  0  0
   -5.2611   19.1612  -34.7479 H   0  0  0  0  0  0  0  0  0  0  0  0
   -4.9942   17.7240  -35.7918 H   0  0  0  0  0  0  0  0  0  0  0  0
   -6.5891   18.5503  -35.7918 H   0  0  0  0  0  0  0  0  0  0  0  0
   -7.0801   17.8020  -33.5562 H   0  0  0  0  0  0  0  0  0  0  0  0
   -6.4490   16.3658  -34.4670 H   0  0  0  0  0  0  0  0  0  0  0  0
   -4.6470   18.0500  -32.8010 H   0  0  0  0  0  0  0  0  0  0  0  0
   -5.1615   17.1289  -30.8911 H   0  0  0  0  0  0  0  0  0  0  0  0
   -6.7777   17.0647  -31.6724 H   0  0  0  0  0  0  0  0  0  0  0  0
   -5.7217   15.6116  -31.6724 H   0  0  0  0  0  0  0  0  0  0  0  0
   -4.0660   15.3517  -32.6884 H   0  0  0  0  0  0  0  0  0  0  0  0
   -4.4185   15.7669  -34.4210 H   0  0  0  0  0  0  0  0  0  0  0  0
   -1.9586   16.0533  -33.2856 H   0  0  0  0  0  0  0  0  0  0  0  0
   -2.5815   17.0879  -34.6339 H   0  0  0  0  0  0  0  0  0  0  0  0
   -1.3473   19.5517  -33.1286 H   0  0  0  0  0  0  0  0  0  0  0  0
   -2.0579   18.7772  -34.5817 H   0  0  0  0  0  0  0  0  0  0  0  0
   -3.0214   21.0883  -33.6661 H   0  0  0  0  0  0  0  0  0  0  0  0
   -4.1301   19.8104  -34.2904 H   0  0  0  0  0  0  0  0  0  0  0  0
   -3.8510   19.2350  -31.5490 H   0  0  0  0  0  0  0  0  0  0  0  0
   -6.3310   19.1952  -32.8982 H   0  0  0  0  0  0  0  0  0  0  0  0
   -8.8144   19.0894  -32.9730 H   0  0  0  0  0  0  0  0  0  0  0  0
  -10.1714   20.8640  -31.8795 H   0  0  0  0  0  0  0  0  0  0  0  0
   -9.0614   22.8259  -30.8353 H   0  0  0  0  0  0  0  0  0  0  0  0
   -7.2762   24.6712  -29.4480 H   0  0  0  0  0  0  0  0  0  0  0  0
   -6.6594   25.3777  -30.9800 H   0  0  0  0  0  0  0  0  0  0  0  0
   -8.1805   24.4224  -30.9800 H   0  0  0  0  0  0  0  0  0  0  0  0
   -4.9989   25.0932  -29.3722 H   0  0  0  0  0  0  0  0  0  0  0  0
   -2.7943   25.4288  -26.9648 H   0  0  0  0  0  0  0  0  0  0  0  0
   -1.5081   24.2578  -27.4135 H   0  0  0  0  0  0  0  0  0  0  0  0
   -1.1584   26.0197  -27.4135 H   0  0  0  0  0  0  0  0  0  0  0  0
   -1.1395   23.3146  -30.1353 H   0  0  0  0  0  0  0  0  0  0  0  0
   -2.2295   21.4423  -31.3416 H   0  0  0  0  0  0  0  0  0  0  0  0
  1  2  1  0
  2  3  1  0
  3  4  1  0
  3  5  1  0
  5  6  1  0
  6  7  1  0
  7  8  1  0
  8  9  1  0
  9 10  1  0
 10 11  1  0
 11 12  2  0
 12 13  1  0
 13 14  2  0
 14 15  1  0
 15 16  2  0
 16 17  1  0
 17 18  2  0
 18 19  1  0
 18 20  1  0
 20 21  2  0
 21 22  1  0
 22 23  1  0
 23 24  1  0
 22 25  2  0
 25 26  1  0
 26 27  2  0
 27 11  1  0
 17 12  1  0
 27 20  1  0
  1 28  1  0
  1 29  1  0
  1 30  1  0
  2 31  1  0
  2 32  1  0
  3 33  1  1
  4 34  1  0
  4 35  1  0
  4 36  1  0
  5 37  1  0
  5 38  1  0
  6 39  1  0
  6 40  1  0
  8 41  1  0
  8 42  1  0
  9 43  1  0
  9 44  1  0
 10 45  1  0
 13 46  1  0
 14 47  1  0
 15 48  1  0
 16 49  1  0
 19 50  1  0
 19 51  1  0
 19 52  1  0
 21 53  1  0
 24 54  1  0
 24 55  1  0
 24 56  1  0
 25 57  1  0
 26 58  1  0
M  CHG  2   3   1  18   1
M  END
>  <UniqueID>  (5) 
5

>  <SMILES>  (5) 
CC[N@@H+](C)CCOCCNc1c2ccccc2[n+](C)c2cc(OC)ccc12

>  <Energy>  (5) 
88.00050665760081

>  <Genealogy>  (5) 
CC[NH+](C)CCOCCNc1c2ccccc2[n+](C)c2cc(OC)ccc12 (protonated)
CC[N@@H+](C)CCOCCNc1c2ccccc2[n+](C)c2cc(OC)ccc12 (chirality)
CC[N@@H+](C)CCOCCNc1c2ccccc2[n+](C)c2cc(OC)ccc12 (3D coordinates assigned)
CC[N@@H+](C)CCOCCNc1c2ccccc2[n+](C)c2cc(OC)ccc12 (optimized conformer: 88.00050665760081 kcal/mol)

>  <smiles>  (5) 
CCN(C)CCOCCNc1c2ccccc2[n+](C)c2cc(OC)ccc12

>  <score_type>  (5) 
oracle

>  <origin>  (5) 
adg

>  <m_score__min__energy>  (5) 
-6.8200000000000003

>  <m_primary>  (5) 
energy

$$$$
5:0
     RDKit          3D

 44 46  0  0  0  0  0  0  0  0999 V2000
    0.3130   22.4170  -35.7340 C   0  0  0  0  0  0  0  0  0  0  0  0
    0.2690   21.1670  -34.8490 C   0  0  0  0  0  0  0  0  0  0  0  0
   -1.0860   20.8940  -34.3080 N   0  0  1  0  0  0  0  0  0  0  0  0
   -1.3410   19.4410  -34.2230 C   0  0  0  0  0  0  0  0  0  0  0  0
   -1.2430   21.5240  -32.9660 C   0  0  0  0  0  0  0  0  0  0  0  0
   -2.6250   21.2500  -32.3360 C   0  0  0  0  0  0  0  0  0  0  0  0
   -3.7110   21.5210  -33.2830 N   0  0  0  0  0  0  0  0  0  0  0  0
   -5.0660   21.1100  -33.0440 C   0  0  0  0  0  0  0  0  0  0  0  0
   -5.5130   19.8170  -33.3860 C   0  0  0  0  0  0  0  0  0  0  0  0
   -4.6510   18.9040  -34.0220 C   0  0  0  0  0  0  0  0  0  0  0  0
   -5.0630   17.6000  -34.2830 C   0  0  0  0  0  0  0  0  0  0  0  0
   -6.3370   17.1800  -33.9080 C   0  0  0  0  0  0  0  0  0  0  0  0
   -6.8300   15.5230  -34.2050 Cl  0  0  0  0  0  0  0  0  0  0  0  0
   -7.2190   18.0710  -33.2930 C   0  0  0  0  0  0  0  0  0  0  0  0
   -6.8450   19.4140  -33.0420 C   0  0  0  0  0  0  0  0  0  0  0  0
   -7.7220   20.3190  -32.4580 N   0  0  0  0  0  0  0  0  0  0  0  0
   -9.1370   19.9610  -32.2300 C   0  0  0  0  0  0  0  0  0  0  0  0
   -7.2520   21.5590  -32.0880 C   0  0  0  0  0  0  0  0  0  0  0  0
   -7.9660   22.5530  -31.3830 C   0  0  0  0  0  0  0  0  0  0  0  0
   -7.2310   23.7150  -31.1750 C   0  0  0  0  0  0  0  0  0  0  0  0
   -5.6980   23.5170  -31.8400 S   0  0  0  0  0  0  0  0  0  0  0  0
   -5.9570   21.9500  -32.3890 C   0  0  0  0  0  0  0  0  0  0  0  0
    0.3446   23.3148  -35.0992 H   0  0  0  0  0  0  0  0  0  0  0  0
    1.2106   22.3852  -36.3691 H   0  0  0  0  0  0  0  0  0  0  0  0
   -0.5846   22.4484  -36.3691 H   0  0  0  0  0  0  0  0  0  0  0  0
    0.5899   20.3013  -35.4470 H   0  0  0  0  0  0  0  0  0  0  0  0
    0.9384   21.3423  -33.9939 H   0  0  0  0  0  0  0  0  0  0  0  0
   -1.7830   21.2980  -34.9710 H   0  0  0  0  0  0  0  0  0  0  0  0
   -1.3940   19.1392  -33.1665 H   0  0  0  0  0  0  0  0  0  0  0  0
   -2.2941   19.2063  -34.7196 H   0  0  0  0  0  0  0  0  0  0  0  0
   -0.5248   18.8958  -34.7196 H   0  0  0  0  0  0  0  0  0  0  0  0
   -0.4662   21.1250  -32.2971 H   0  0  0  0  0  0  0  0  0  0  0  0
   -1.1481   22.6120  -33.0972 H   0  0  0  0  0  0  0  0  0  0  0  0
   -2.6745   20.1952  -32.0279 H   0  0  0  0  0  0  0  0  0  0  0  0
   -2.7478   21.9173  -31.4702 H   0  0  0  0  0  0  0  0  0  0  0  0
   -3.4690   21.9210  -34.2180 H   0  0  0  0  0  0  0  0  0  0  0  0
   -3.6406   19.2243  -34.3161 H   0  0  0  0  0  0  0  0  0  0  0  0
   -4.3806   16.8995  -34.7867 H   0  0  0  0  0  0  0  0  0  0  0  0
   -8.2206   17.7243  -32.9987 H   0  0  0  0  0  0  0  0  0  0  0  0
   -9.3330   19.9114  -31.1487 H   0  0  0  0  0  0  0  0  0  0  0  0
   -9.7861   20.7232  -32.6857 H   0  0  0  0  0  0  0  0  0  0  0  0
   -9.3455   18.9818  -32.6857 H   0  0  0  0  0  0  0  0  0  0  0  0
   -9.0005   22.4211  -31.0333 H   0  0  0  0  0  0  0  0  0  0  0  0
   -7.5929   24.6169  -30.6596 H   0  0  0  0  0  0  0  0  0  0  0  0
  1  2  1  0
  2  3  1  0
  3  4  1  0
  3  5  1  0
  5  6  1  0
  6  7  1  0
  7  8  1  0
  8  9  2  0
  9 10  1  0
 10 11  2  0
 11 12  1  0
 12 13  1  0
 12 14  2  0
 14 15  1  0
 15 16  2  0
 16 17  1  0
 16 18  1  0
 18 19  1  0
 19 20  2  0
 20 21  1  0
 21 22  1  0
 22  8  1  0
 15  9  1  0
 22 18  2  0
  1 23  1  0
  1 24  1  0
  1 25  1  0
  2 26  1  0
  2 27  1  0
  3 28  1  6
  4 29  1  0
  4 30  1  0
  4 31  1  0
  5 32  1  0
  5 33  1  0
  6 34  1  0
  6 35  1  0
  7 36  1  0
 10 37  1  0
 11 38  1  0
 14 39  1  0
 17 40  1  0
 17 41  1  0
 17 42  1  0
 19 43  1  0
 20 44  1  0
M  CHG  2   3   1  16   1
M  END
>  <UniqueID>  (6) 
6

>  <SMILES>  (6) 
CC[N@@H+](C)CCNc1c2ccc(Cl)cc2[n+](C)c2ccsc12

>  <Energy>  (6) 
92.78842768401833

>  <Genealogy>  (6) 
CC[NH+](C)CCNc1c2ccc(Cl)cc2[n+](C)c2ccsc12 (protonated)
CC[N@@H+](C)CCNc1c2ccc(Cl)cc2[n+](C)c2ccsc12 (chirality)
CC[N@@H+](C)CCNc1c2ccc(Cl)cc2[n+](C)c2ccsc12 (3D coordinates assigned)
CC[N@@H+](C)CCNc1c2ccc(Cl)cc2[n+](C)c2ccsc12 (optimized conformer: 92.78842768401833 kcal/mol)

>  <smiles>  (6) 
CCN(C)CCNc1c2ccc(Cl)cc2[n+](C)c2ccsc12

>  <score_type>  (6) 
oracle

>  <origin>  (6) 
adg

>  <m_score__min__energy>  (6) 
-6.8700000000000001

>  <m_primary>  (6) 
energy

$$$$
6:0
     RDKit          3D

 65 67  0  0  0  0  0  0  0  0999 V2000
   -0.6890   19.1960  -31.7120 C   0  0  0  0  0  0  0  0  0  0  0  0
   -0.3640   20.6680  -31.4480 C   0  0  0  0  0  0  0  0  0  0  0  0
   -0.9590   21.5480  -32.4690 N   0  0  0  0  0  0  0  0  0  0  0  0
   -1.5120   20.7990  -33.6140 C   0  0  0  0  0  0  0  0  0  0  0  0
   -3.0330   20.6960  -33.4680 C   0  0  0  0  0  0  0  0  0  0  0  0
   -3.4640   21.0400  -32.1120 N   0  0  0  0  0  0  0  0  0  0  0  0
   -4.8530   21.1990  -31.7730 C   0  0  0  0  0  0  0  0  0  0  0  0
   -5.7570   20.1720  -32.1070 C   0  0  0  0  0  0  0  0  0  0  0  0
   -5.2950   18.9550  -32.6610 C   0  0  0  0  0  0  0  0  0  0  0  0
   -6.1920   17.9690  -33.0600 C   0  0  0  0  0  0  0  0  0  0  0  0
   -7.5590   18.1770  -32.9320 C   0  0  0  0  0  0  0  0  0  0  0  0
   -8.0380   19.3610  -32.3700 C   0  0  0  0  0  0  0  0  0  0  0  0
   -7.1480   20.3700  -31.9160 C   0  0  0  0  0  0  0  0  0  0  0  0
   -7.6080   21.5330  -31.3330 N   0  0  0  0  0  0  0  0  0  0  0  0
   -9.0190   21.6230  -30.8880 C   0  0  0  0  0  0  0  0  0  0  0  0
   -6.7490   22.5950  -31.1250 C   0  0  0  0  0  0  0  0  0  0  0  0
   -7.2400   23.8830  -30.8010 C   0  0  0  0  0  0  0  0  0  0  0  0
   -6.3770   24.9250  -30.4880 C   0  0  0  0  0  0  0  0  0  0  0  0
   -5.0070   24.7130  -30.4680 C   0  0  0  0  0  0  0  0  0  0  0  0
   -4.4660   23.4660  -30.8250 C   0  0  0  0  0  0  0  0  0  0  0  0
   -3.0780   23.2330  -30.7420 O   0  0  0  0  0  0  0  0  0  0  0  0
   -2.3470   22.9180  -29.5540 C   0  0  0  0  0  0  0  0  0  0  0  0
   -3.1330   21.9490  -28.6520 C   0  0  0  0  0  0  0  0  0  0  0  0
   -2.6200   20.4790  -28.7290 C   0  0  0  0  0  0  0  0  0  0  0  0
   -1.9800   19.9400  -27.4880 N   0  0  0  0  0  0  0  0  0  0  0  0
   -1.4520   21.0300  -26.6340 C   0  0  0  0  0  0  0  0  0  0  0  0
   -3.0210   19.2120  -26.7180 C   0  0  0  0  0  0  0  0  0  0  0  0
   -0.8930   18.9820  -27.8120 C   0  0  0  0  0  0  0  0  0  0  0  0
   -5.3400   22.4200  -31.2480 C   0  0  0  0  0  0  0  0  0  0  0  0
   -0.8054   18.6686  -30.7537 H   0  0  0  0  0  0  0  0  0  0  0  0
   -1.6246   19.1243  -32.2860 H   0  0  0  0  0  0  0  0  0  0  0  0
    0.1294   18.7370  -32.2860 H   0  0  0  0  0  0  0  0  0  0  0  0
   -0.7593   20.9490  -30.4607 H   0  0  0  0  0  0  0  0  0  0  0  0
    0.7286   20.7902  -31.4839 H   0  0  0  0  0  0  0  0  0  0  0  0
   -1.7450   22.0670  -32.0090 H   0  0  0  0  0  0  0  0  0  0  0  0
   -1.2679   21.3248  -34.5488 H   0  0  0  0  0  0  0  0  0  0  0  0
   -1.0761   19.7893  -33.6375 H   0  0  0  0  0  0  0  0  0  0  0  0
   -3.5085   21.3861  -34.1805 H   0  0  0  0  0  0  0  0  0  0  0  0
   -3.3308   19.6571  -33.6728 H   0  0  0  0  0  0  0  0  0  0  0  0
   -2.7550   21.0640  -31.3440 H   0  0  0  0  0  0  0  0  0  0  0  0
   -4.2143   18.7863  -32.7776 H   0  0  0  0  0  0  0  0  0  0  0  0
   -5.8175   17.0228  -33.4777 H   0  0  0  0  0  0  0  0  0  0  0  0
   -8.2658   17.4068  -33.2744 H   0  0  0  0  0  0  0  0  0  0  0  0
   -9.1232   19.5153  -32.2771 H   0  0  0  0  0  0  0  0  0  0  0  0
   -9.0573   21.6254  -29.7887 H   0  0  0  0  0  0  0  0  0  0  0  0
   -9.4662   22.5515  -31.2725 H   0  0  0  0  0  0  0  0  0  0  0  0
   -9.5806   20.7588  -31.2725 H   0  0  0  0  0  0  0  0  0  0  0  0
   -8.3254   24.0616  -30.7972 H   0  0  0  0  0  0  0  0  0  0  0  0
   -6.7814   25.9212  -30.2553 H   0  0  0  0  0  0  0  0  0  0  0  0
   -4.3351   25.5310  -30.1690 H   0  0  0  0  0  0  0  0  0  0  0  0
   -1.3917   22.4506  -29.8348 H   0  0  0  0  0  0  0  0  0  0  0  0
   -2.1758   23.8499  -28.9952 H   0  0  0  0  0  0  0  0  0  0  0  0
   -3.0474   22.2943  -27.6111 H   0  0  0  0  0  0  0  0  0  0  0  0
   -4.1748   21.9487  -29.0052 H   0  0  0  0  0  0  0  0  0  0  0  0
   -3.4786   19.8355  -28.9712 H   0  0  0  0  0  0  0  0  0  0  0  0
   -1.8285   20.4815  -29.4929 H   0  0  0  0  0  0  0  0  0  0  0  0
   -1.5819   20.7618  -25.5751 H   0  0  0  0  0  0  0  0  0  0  0  0
   -0.3828   21.1771  -26.8465 H   0  0  0  0  0  0  0  0  0  0  0  0
   -1.9994   21.9602  -26.8465 H   0  0  0  0  0  0  0  0  0  0  0  0
   -2.8374   19.3404  -25.6411 H   0  0  0  0  0  0  0  0  0  0  0  0
   -4.0130   19.6143  -26.9714 H   0  0  0  0  0  0  0  0  0  0  0  0
   -2.9835   18.1422  -26.9714 H   0  0  0  0  0  0  0  0  0  0  0  0
   -0.4548   18.5958  -26.8799 H   0  0  0  0  0  0  0  0  0  0  0  0
   -1.3033   18.1464  -28.3981 H   0  0  0  0  0  0  0  0  0  0  0  0
   -0.1156   19.4940  -28.3981 H   0  0  0  0  0  0  0  0  0  0  0  0
  1  2  1  0
  2  3  1  0
  3  4  1  0
  4  5  1  0
  5  6  1  0
  6  7  1  0
  7  8  2  0
  8  9  1  0
  9 10  2  0
 10 11  1  0
 11 12  2  0
 12 13  1  0
 13 14  2  0
 14 15  1  0
 14 16  1  0
 16 17  2  0
 17 18  1  0
 18 19  2  0
 19 20  1  0
 20 21  1  0
 21 22  1  0
 22 23  1  0
 23 24  1  0
 24 25  1  0
 25 26  1  0
 25 27  1  0
 25 28  1  0
 20 29  2  0
 29  7  1  0
 13  8  1  0
 29 16  1  0
  1 30  1  0
  1 31  1  0
  1 32  1  0
  2 33  1  0
  2 34  1  0
  3 35  1  0
  4 36  1  0
  4 37  1  0
  5 38  1  0
  5 39  1  0
  6 40  1  0
  9 41  1  0
 10 42  1  0
 11 43  1  0
 12 44  1  0
 15 45  1  0
 15 46  1  0
 15 47  1  0
 17 48  1  0
 18 49  1  0
 19 50  1  0
 22 51  1  0
 22 52  1  0
 23 53  1  0
 23 54  1  0
 24 55  1  0
 24 56  1  0
 26 57  1  0
 26 58  1  0
 26 59  1  0
 27 60  1  0
 27 61  1  0
 27 62  1  0
 28 63  1  0
 28 64  1  0
 28 65  1  0
M  CHG  2  14   1  25   1
M  END
>  <UniqueID>  (7) 
7

>  <SMILES>  (7) 
CCNCCNc1c2ccccc2[n+](C)c2cccc(OCCC[N+](C)(C)C)c12

>  <Energy>  (7) 
99.15447554223593

>  <Genealogy>  (7) 
CCNCCNc1c2ccccc2[n+](C)c2cccc(OCCC[N+](C)(C)C)c12 (3D coordinates assigned)
CCNCCNc1c2ccccc2[n+](C)c2cccc(OCCC[N+](C)(C)C)c12 (optimized conformer: 99.15447554223593 kcal/mol)

>  <smiles>  (7) 
CCNCCNc1c2ccccc2[n+](C)c2cccc(OCCC[N+](C)(C)C)c12

>  <score_type>  (7) 
oracle

>  <origin>  (7) 
adg

>  <m_score__min__energy>  (7) 
-7.3200000000000003

>  <m_primary>  (7) 
energy

$$$$
7:0
     RDKit          3D

 51 53  0  0  0  0  0  0  0  0999 V2000
   -3.5450   17.3670  -34.9210 C   0  0  0  0  0  0  0  0  0  0  0  0
   -2.3110   17.6920  -34.0860 C   0  0  0  0  0  0  0  0  0  0  0  0
   -2.6530   18.6470  -33.0220 N   0  0  0  0  0  0  0  0  0  0  0  0
   -2.1810   20.0000  -33.3380 C   0  0  0  0  0  0  0  0  0  0  0  0
   -3.2000   21.0370  -32.8640 C   0  0  0  0  0  0  0  0  0  0  0  0
   -4.2460   20.4150  -32.0530 N   0  0  0  0  0  0  0  0  0  0  0  0
   -5.5040   21.0780  -31.8680 C   0  0  0  0  0  0  0  0  0  0  0  0
   -5.5190   22.4000  -31.3920 C   0  0  0  0  0  0  0  0  0  0  0  0
   -4.3250   23.0310  -30.9800 C   0  0  0  0  0  0  0  0  0  0  0  0
   -4.3330   24.3270  -30.4640 C   0  0  0  0  0  0  0  0  0  0  0  0
   -3.1110   24.8970  -30.0720 O   0  0  0  0  0  0  0  0  0  0  0  0
   -2.1010   24.2100  -29.3410 C   0  0  0  0  0  0  0  0  0  0  0  0
   -5.5510   25.0070  -30.3420 C   0  0  0  0  0  0  0  0  0  0  0  0
   -6.7380   24.4030  -30.7520 C   0  0  0  0  0  0  0  0  0  0  0  0
   -6.7450   23.1010  -31.3140 C   0  0  0  0  0  0  0  0  0  0  0  0
   -7.9080   22.5120  -31.7680 N   0  0  0  0  0  0  0  0  0  0  0  0
   -9.1160   23.3380  -31.9870 C   0  0  0  0  0  0  0  0  0  0  0  0
   -7.9370   21.1560  -32.0390 C   0  0  0  0  0  0  0  0  0  0  0  0
   -9.1640   20.4730  -32.2200 C   0  0  0  0  0  0  0  0  0  0  0  0
   -9.1950   19.1230  -32.5430 C   0  0  0  0  0  0  0  0  0  0  0  0
   -8.0180   18.4050  -32.6700 C   0  0  0  0  0  0  0  0  0  0  0  0
   -6.7730   19.0210  -32.4490 C   0  0  0  0  0  0  0  0  0  0  0  0
   -5.5890   18.2680  -32.5280 O   0  0  0  0  0  0  0  0  0  0  0  0
   -5.4930   16.8630  -32.3040 C   0  0  0  0  0  0  0  0  0  0  0  0
   -6.7250   20.4090  -32.1240 C   0  0  0  0  0  0  0  0  0  0  0  0
   -4.3908   17.1442  -34.2540 H   0  0  0  0  0  0  0  0  0  0  0  0
   -3.7959   18.2297  -35.5557 H   0  0  0  0  0  0  0  0  0  0  0  0
   -3.3384   16.4926  -35.5557 H   0  0  0  0  0  0  0  0  0  0  0  0
   -1.9251   16.7668  -33.6331 H   0  0  0  0  0  0  0  0  0  0  0  0
   -1.5458   18.1400  -34.7370 H   0  0  0  0  0  0  0  0  0  0  0  0
   -3.6980   18.6870  -32.9500 H   0  0  0  0  0  0  0  0  0  0  0  0
   -1.2200   20.1771  -32.8329 H   0  0  0  0  0  0  0  0  0  0  0  0
   -2.0545   20.0916  -34.4269 H   0  0  0  0  0  0  0  0  0  0  0  0
   -2.6836   21.7988  -32.2615 H   0  0  0  0  0  0  0  0  0  0  0  0
   -3.6689   21.4951  -33.7473 H   0  0  0  0  0  0  0  0  0  0  0  0
   -4.0780   19.5130  -31.5510 H   0  0  0  0  0  0  0  0  0  0  0  0
   -3.3709   22.4907  -31.0675 H   0  0  0  0  0  0  0  0  0  0  0  0
   -2.2812   24.3326  -28.2628 H   0  0  0  0  0  0  0  0  0  0  0  0
   -2.1258   23.1406  -29.5977 H   0  0  0  0  0  0  0  0  0  0  0  0
   -1.1155   24.6259  -29.5977 H   0  0  0  0  0  0  0  0  0  0  0  0
   -5.5709   26.0228  -29.9205 H   0  0  0  0  0  0  0  0  0  0  0  0
   -7.6875   24.9464  -30.6376 H   0  0  0  0  0  0  0  0  0  0  0  0
   -9.5420   23.6293  -31.0156 H   0  0  0  0  0  0  0  0  0  0  0  0
   -8.8450   24.2408  -32.5541 H   0  0  0  0  0  0  0  0  0  0  0  0
   -9.8589   22.7580  -32.5541 H   0  0  0  0  0  0  0  0  0  0  0  0
  -10.1100   21.0220  -32.1026 H   0  0  0  0  0  0  0  0  0  0  0  0
  -10.1610   18.6206  -32.6990 H   0  0  0  0  0  0  0  0  0  0  0  0
   -8.0570   17.3411  -32.9468 H   0  0  0  0  0  0  0  0  0  0  0  0
   -5.4794   16.6643  -31.2222 H   0  0  0  0  0  0  0  0  0  0  0  0
   -6.3588   16.3592  -32.7585 H   0  0  0  0  0  0  0  0  0  0  0  0
   -4.5667   16.4817  -32.7585 H   0  0  0  0  0  0  0  0  0  0  0  0
  1  2  1  0
  2  3  1  0
  3  4  1  0
  4  5  1  0
  5  6  1  0
  6  7  1  0
  7  8  2  0
  8  9  1  0
  9 10  2  0
 10 11  1  0
 11 12  1  0
 10 13  1  0
 13 14  2  0
 14 15  1  0
 15 16  2  0
 16 17  1  0
 16 18  1  0
 18 19  2  0
 19 20  1  0
 20 21  2  0
 21 22  1  0
 22 23  1  0
 23 24  1  0
 22 25  2  0
 25  7  1  0
 15  8  1  0
 25 18  1  0
  1 26  1  0
  1 27  1  0
  1 28  1  0
  2 29  1  0
  2 30  1  0
  3 31  1  0
  4 32  1  0
  4 33  1  0
  5 34  1  0
  5 35  1  0
  6 36  1  0
  9 37  1  0
 12 38  1  0
 12 39  1  0
 12 40  1  0
 13 41  1  0
 14 42  1  0
 17 43  1  0
 17 44  1  0
 17 45  1  0
 19 46  1  0
 20 47  1  0
 21 48  1  0
 24 49  1  0
 24 50  1  0
 24 51  1  0
M  CHG  1  16   1
M  END
>  <UniqueID>  (8) 
8

>  <SMILES>  (8) 
CCNCCNc1c2cc(OC)ccc2[n+](C)c2cccc(OC)c12

>  <Energy>  (8) 
74.81745088414664

>  <Genealogy>  (8) 
CCNCCNc1c2cc(OC)ccc2[n+](C)c2cccc(OC)c12 (3D coordinates assigned)
CCNCCNc1c2cc(OC)ccc2[n+](C)c2cccc(OC)c12 (optimized conformer: 74.81745088414664 kcal/mol)

>  <smiles>  (8) 
CCNCCNc1c2cc(OC)ccc2[n+](C)c2cccc(OC)c12

>  <score_type>  (8) 
oracle

>  <origin>  (8) 
adg

>  <m_score__min__energy>  (8) 
-7.9800000000000004

>  <m_primary>  (8) 
energy

$$$$
8:0
     RDKit          3D

 36 37  0  0  0  0  0  0  0  0999 V2000
   -6.6100   18.4870  -32.3770 C   0  0  0  0  0  0  0  0  0  0  0  0
   -8.0170   18.8890  -31.9520 C   0  0  0  0  0  0  0  0  0  0  0  0
   -8.4460   20.0710  -32.7110 N   0  0  0  0  0  0  0  0  0  0  0  0
   -9.4440   20.8750  -31.9850 C   0  0  0  0  0  0  0  0  0  0  0  0
   -8.8170   21.9560  -31.0850 C   0  0  0  0  0  0  0  0  0  0  0  0
   -7.3640   22.0180  -31.2480 N   0  0  0  0  0  0  0  0  0  0  0  0
   -6.6180   23.1960  -30.9050 C   0  0  0  0  0  0  0  0  0  0  0  0
   -7.1320   24.3710  -30.3860 C   0  0  0  0  0  0  0  0  0  0  0  0
   -6.1660   25.2560  -30.2840 O   0  0  0  0  0  0  0  0  0  0  0  0
   -5.0500   24.7110  -30.7140 C   0  0  0  0  0  0  0  0  0  0  0  0
   -3.8240   25.3660  -30.7250 O   0  0  0  0  0  0  0  0  0  0  0  0
   -5.2670   23.4070  -31.1220 C   0  0  0  0  0  0  0  0  0  0  0  0
   -4.2590   22.4520  -31.6300 C   0  0  0  0  0  0  0  0  0  0  0  0
   -4.5600   21.6160  -32.7190 C   0  0  0  0  0  0  0  0  0  0  0  0
   -3.6040   20.7180  -33.2040 C   0  0  0  0  0  0  0  0  0  0  0  0
   -2.3390   20.6530  -32.6140 C   0  0  0  0  0  0  0  0  0  0  0  0
   -2.0280   21.4880  -31.5370 C   0  0  0  0  0  0  0  0  0  0  0  0
   -2.9800   22.3860  -31.0480 C   0  0  0  0  0  0  0  0  0  0  0  0
   -5.9933   18.3108  -31.4833 H   0  0  0  0  0  0  0  0  0  0  0  0
   -6.6572   17.5664  -32.9772 H   0  0  0  0  0  0  0  0  0  0  0  0
   -6.1638   19.2936  -32.9772 H   0  0  0  0  0  0  0  0  0  0  0  0
   -8.7097   18.0574  -32.1485 H   0  0  0  0  0  0  0  0  0  0  0  0
   -8.0187   19.1261  -30.8779 H   0  0  0  0  0  0  0  0  0  0  0  0
   -7.6080   20.6550  -32.9370 H   0  0  0  0  0  0  0  0  0  0  0  0
  -10.0968   21.3683  -32.7202 H   0  0  0  0  0  0  0  0  0  0  0  0
  -10.0015   20.1890  -31.3303 H   0  0  0  0  0  0  0  0  0  0  0  0
   -9.2476   22.9333  -31.3485 H   0  0  0  0  0  0  0  0  0  0  0  0
   -9.0346   21.6996  -30.0376 H   0  0  0  0  0  0  0  0  0  0  0  0
   -6.8520   21.2040  -31.6530 H   0  0  0  0  0  0  0  0  0  0  0  0
   -8.1820   24.5378  -30.1037 H   0  0  0  0  0  0  0  0  0  0  0  0
   -3.3770   25.6020  -31.6030 H   0  0  0  0  0  0  0  0  0  0  0  0
   -5.5518   21.6683  -33.1918 H   0  0  0  0  0  0  0  0  0  0  0  0
   -3.8484   20.0613  -34.0519 H   0  0  0  0  0  0  0  0  0  0  0  0
   -1.5887   19.9455  -32.9967 H   0  0  0  0  0  0  0  0  0  0  0  0
   -1.0317   21.4380  -31.0735 H   0  0  0  0  0  0  0  0  0  0  0  0
   -2.7282   23.0447  -30.2037 H   0  0  0  0  0  0  0  0  0  0  0  0
  1  2  1  0
  2  3  1  0
  3  4  1  0
  4  5  1  0
  5  6  1  0
  6  7  1  0
  7  8  2  0
  8  9  1  0
  9 10  1  0
 10 11  1  0
 10 12  2  0
 12 13  1  0
 13 14  2  0
 14 15  1  0
 15 16  2  0
 16 17  1  0
 17 18  2  0
 12  7  1  0
 18 13  1  0
  1 19  1  0
  1 20  1  0
  1 21  1  0
  2 22  1  0
  2 23  1  0
  3 24  1  0
  4 25  1  0
  4 26  1  0
  5 27  1  0
  5 28  1  0
  6 29  1  0
  8 30  1  0
 11 31  1  0
 14 32  1  0
 15 33  1  0
 16 34  1  0
 17 35  1  0
 18 36  1  0
M  END
>  <UniqueID>  (9) 
9

>  <SMILES>  (9) 
CCNCCNc1coc(O)c1-c1ccccc1

>  <Energy>  (9) 
62.984604373732125

>  <Genealogy>  (9) 
CCNCCNc1coc(O)c1-c1ccccc1 (3D coordinates assigned)
CCNCCNc1coc(O)c1-c1ccccc1 (optimized conformer: 62.984604373732125 kcal/mol)

>  <smiles>  (9) 
CCNCCNc1coc(O)c1-c1ccccc1

>  <score_type>  (9) 
oracle

>  <origin>  (9) 
adg

>  <m_score__min__energy>  (9) 
-6.8899999999999997

>  <m_primary>  (9) 
energy

$$$$
9:0
     RDKit          3D

 43 44  0  0  0  0  0  0  0  0999 V2000
   -7.1840   17.7870  -31.2490 C   0  0  0  0  0  0  0  0  0  0  0  0
   -8.0000   18.9680  -31.7970 C   0  0  0  0  0  0  0  0  0  0  0  0
   -7.2340   20.2280  -31.9790 N   0  0  1  0  0  0  0  0  0  0  0  0
   -6.7800   20.4730  -33.3720 C   0  0  0  0  0  0  0  0  0  0  0  0
   -5.7100   19.4940  -33.8110 C   0  0  0  0  0  0  0  0  0  0  0  0
   -6.0900   18.2710  -34.3950 C   0  0  0  0  0  0  0  0  0  0  0  0
   -5.1260   17.3400  -34.7860 C   0  0  0  0  0  0  0  0  0  0  0  0
   -3.7700   17.6180  -34.6020 C   0  0  0  0  0  0  0  0  0  0  0  0
   -3.3770   18.8280  -34.0280 C   0  0  0  0  0  0  0  0  0  0  0  0
   -4.3340   19.7680  -33.6300 C   0  0  0  0  0  0  0  0  0  0  0  0
   -3.7700   21.2810  -32.9290 Cl  0  0  0  0  0  0  0  0  0  0  0  0
   -7.9760   21.3660  -31.4610 C   0  0  0  0  0  0  0  0  0  0  0  0
   -9.1720   21.4860  -31.6920 O   0  0  0  0  0  0  0  0  0  0  0  0
   -7.2950   22.4090  -30.6080 C   0  0  0  0  0  0  0  0  0  0  0  0
   -6.0230   22.8460  -31.2220 N   0  0  0  0  0  0  0  0  0  0  0  0
   -6.1890   24.1190  -31.9700 C   0  0  0  0  0  0  0  0  0  0  0  0
   -5.6990   25.3360  -31.1670 C   0  0  0  0  0  0  0  0  0  0  0  0
   -4.2750   25.2240  -30.8020 N   0  0  0  0  0  0  0  0  0  0  0  0
   -3.8030   23.8340  -30.6600 C   0  0  0  0  0  0  0  0  0  0  0  0
   -4.9310   22.8950  -30.2180 C   0  0  0  0  0  0  0  0  0  0  0  0
   -7.1995   17.8095  -30.1493 H   0  0  0  0  0  0  0  0  0  0  0  0
   -7.6231   16.8425  -31.6027 H   0  0  0  0  0  0  0  0  0  0  0  0
   -6.1452   17.8636  -31.6027 H   0  0  0  0  0  0  0  0  0  0  0  0
   -8.4117   18.6745  -32.7739 H   0  0  0  0  0  0  0  0  0  0  0  0
   -8.7732   19.1835  -31.0449 H   0  0  0  0  0  0  0  0  0  0  0  0
   -6.3720   20.1310  -31.3940 H   0  0  0  0  0  0  0  0  0  0  0  0
   -7.6435   20.3787  -34.0468 H   0  0  0  0  0  0  0  0  0  0  0  0
   -6.3468   21.4833  -33.4109 H   0  0  0  0  0  0  0  0  0  0  0  0
   -7.1564   18.0467  -34.5447 H   0  0  0  0  0  0  0  0  0  0  0  0
   -5.4349   16.3866  -35.2394 H   0  0  0  0  0  0  0  0  0  0  0  0
   -3.0114   16.8832  -34.9095 H   0  0  0  0  0  0  0  0  0  0  0  0
   -2.3076   19.0441  -33.8875 H   0  0  0  0  0  0  0  0  0  0  0  0
   -7.9609   23.2782  -30.5021 H   0  0  0  0  0  0  0  0  0  0  0  0
   -7.0767   21.9693  -29.6236 H   0  0  0  0  0  0  0  0  0  0  0  0
   -5.6134   24.0573  -32.9054 H   0  0  0  0  0  0  0  0  0  0  0  0
   -7.2625   24.2560  -32.1672 H   0  0  0  0  0  0  0  0  0  0  0  0
   -5.8389   26.2418  -31.7753 H   0  0  0  0  0  0  0  0  0  0  0  0
   -6.2838   25.3852  -30.2367 H   0  0  0  0  0  0  0  0  0  0  0  0
   -3.7020   25.6860  -31.5480 H   0  0  0  0  0  0  0  0  0  0  0  0
   -3.4114   23.4897  -31.6286 H   0  0  0  0  0  0  0  0  0  0  0  0
   -3.0189   23.8151  -29.8888 H   0  0  0  0  0  0  0  0  0  0  0  0
   -4.5219   21.8826  -30.0852 H   0  0  0  0  0  0  0  0  0  0  0  0
   -5.3472   23.2762  -29.2738 H   0  0  0  0  0  0  0  0  0  0  0  0
  1  2  1  0
  2  3  1  0
  3  4  1  0
  4  5  1  0
  5  6  2  0
  6  7  1  0
  7  8  2  0
  8  9  1  0
  9 10  2  0
 10 11  1  0
  3 12  1  0
 12 13  2  0
 12 14  1  0
 14 15  1  0
 15 16  1  0
 16 17  1  0
 17 18  1  0
 18 19  1  0
 19 20  1  0
 10  5  1  0
 20 15  1  0
  1 21  1  0
  1 22  1  0
  1 23  1  0
  2 24  1  0
  2 25  1  0
  3 26  1  1
  4 27  1  0
  4 28  1  0
  6 29  1  0
  7 30  1  0
  8 31  1  0
  9 32  1  0
 14 33  1  0
 14 34  1  0
 16 35  1  0
 16 36  1  0
 17 37  1  0
 17 38  1  0
 18 39  1  0
 19 40  1  0
 19 41  1  0
 20 42  1  0
 20 43  1  0
M  CHG  1   3   1
M  END
>  <UniqueID>  (10) 
10

>  <SMILES>  (10) 
CC[N@@H+](Cc1ccccc1Cl)C(=O)CN1CCNCC1

>  <Energy>  (10) 
55.127772358120545

>  <Genealogy>  (10) 
CC[NH+](Cc1ccccc1Cl)C(=O)CN1CCNCC1 (protonated)
CC[N@@H+](Cc1ccccc1Cl)C(=O)CN1CCNCC1 (chirality)
CC[N@@H+](Cc1ccccc1Cl)C(=O)CN1CCNCC1 (3D coordinates assigned)
CC[N@@H+](Cc1ccccc1Cl)C(=O)CN1CCNCC1 (nonaromatic ring conformer: 55.127772358120545 kcal/mol)

>  <smiles>  (10) 
CCN(Cc1ccccc1Cl)C(=O)CN1CCNCC1

>  <score_type>  (10) 
oracle

>  <origin>  (10) 
adg

>  <m_score__min__energy>  (10) 
-7.4900000000000002

>  <m_primary>  (10) 
energy

$$$$
10:0
     RDKit          3D

 44 46  0  0  0  0  0  0  0  0999 V2000
   -4.4369   15.3972  -34.4492 H   0  0  0  0  0  0  0  0  0  0  0  0
   -4.9740   16.3410  -34.2740 C   0  0  0  0  0  0  0  0  0  0  0  0
   -5.9850   16.6780  -32.9770 S   0  0  0  0  0  0  0  0  0  0  0  0
   -6.4020   18.2450  -33.4320 C   0  0  0  0  0  0  0  0  0  0  0  0
   -7.2700   19.2180  -32.7240 C   0  0  0  0  0  0  0  0  0  0  0  0
   -8.6150   19.1080  -32.7590 N   0  0  0  0  0  0  0  0  0  0  0  0
   -9.0990   20.1030  -32.0350 N   0  0  0  0  0  0  0  0  0  0  0  0
  -10.1130   20.2840  -31.8710 H   0  0  0  0  0  0  0  0  0  0  0  0
   -8.0630   20.8110  -31.5640 C   0  0  0  0  0  0  0  0  0  0  0  0
   -8.2480   22.2580  -30.5150 S   0  0  0  0  0  0  0  0  0  0  0  0
   -7.9010   23.4200  -31.8740 C   0  0  0  0  0  0  0  0  0  0  0  0
   -8.0302   22.9059  -32.8379 H   0  0  0  0  0  0  0  0  0  0  0  0
   -8.5963   24.2704  -31.8156 H   0  0  0  0  0  0  0  0  0  0  0  0
   -6.4980   23.9160  -31.7590 C   0  0  0  0  0  0  0  0  0  0  0  0
   -5.7040   23.7360  -32.7210 O   0  0  0  0  0  0  0  0  0  0  0  0
   -6.1050   24.6420  -30.5840 N   0  0  0  0  0  0  0  0  0  0  0  0
   -4.9390   24.6540  -30.0030 C   0  0  0  0  0  0  0  0  0  0  0  0
   -3.8680   25.2640  -30.5490 N   0  0  0  0  0  0  0  0  0  0  0  0
   -2.8830   25.1140  -29.7110 O   0  0  0  0  0  0  0  0  0  0  0  0
   -3.2650   24.4420  -28.6490 C   0  0  0  0  0  0  0  0  0  0  0  0
   -2.3780   24.1000  -27.4990 C   0  0  0  0  0  0  0  0  0  0  0  0
   -2.9058   24.3035  -26.5556 H   0  0  0  0  0  0  0  0  0  0  0  0
   -2.1102   23.0342  -27.5468 H   0  0  0  0  0  0  0  0  0  0  0  0
   -1.4640   24.7102  -27.5468 H   0  0  0  0  0  0  0  0  0  0  0  0
   -4.5970   24.1090  -28.7750 C   0  0  0  0  0  0  0  0  0  0  0  0
   -5.2323   23.5485  -28.0734 H   0  0  0  0  0  0  0  0  0  0  0  0
   -6.8860   20.2910  -31.9750 N   0  0  0  0  0  0  0  0  0  0  0  0
   -5.5570   20.7610  -31.5620 C   0  0  0  0  0  0  0  0  0  0  0  0
   -5.0959   20.0032  -30.9114 H   0  0  0  0  0  0  0  0  0  0  0  0
   -5.6785   21.7143  -31.0268 H   0  0  0  0  0  0  0  0  0  0  0  0
   -4.6440   21.0010  -32.7740 C   0  0  0  0  0  0  0  0  0  0  0  0
   -5.1960   21.5925  -33.5192 H   0  0  0  0  0  0  0  0  0  0  0  0
   -4.3526   20.0176  -33.1714 H   0  0  0  0  0  0  0  0  0  0  0  0
   -3.3590   21.7520  -32.4050 C   0  0  0  0  0  0  0  0  0  0  0  0
   -3.4678   22.8099  -32.6859 H   0  0  0  0  0  0  0  0  0  0  0  0
   -2.5183   21.2930  -32.9459 H   0  0  0  0  0  0  0  0  0  0  0  0
   -3.0800   21.6600  -30.9070 C   0  0  0  0  0  0  0  0  0  0  0  0
   -3.9795   21.9566  -30.3476 H   0  0  0  0  0  0  0  0  0  0  0  0
   -2.8110   20.6256  -30.6470 H   0  0  0  0  0  0  0  0  0  0  0  0
   -2.2485   22.3315  -30.6470 H   0  0  0  0  0  0  0  0  0  0  0  0
   -5.7270   18.5230  -34.6200 C   0  0  0  0  0  0  0  0  0  0  0  0
   -5.8079   19.4866  -35.1444 H   0  0  0  0  0  0  0  0  0  0  0  0
   -4.9370   17.4650  -35.0850 C   0  0  0  0  0  0  0  0  0  0  0  0
   -4.3419   17.5203  -36.0085 H   0  0  0  0  0  0  0  0  0  0  0  0
  1  2  1  0
  2  3  1  0
  3  4  1  0
  4  5  1  0
  5  6  2  0
  6  7  1  0
  7  8  1  0
  7  9  2  0
  9 10  1  0
 10 11  1  0
 11 12  1  0
 11 13  1  0
 11 14  1  0
 14 15  2  0
 14 16  1  0
 16 17  2  0
 17 18  1  0
 18 19  1  0
 19 20  1  0
 20 21  1  0
 21 22  1  0
 21 23  1  0
 21 24  1  0
 20 25  2  0
 25 26  1  0
  9 27  1  0
 27 28  1  0
 28 29  1  0
 28 30  1  0
 28 31  1  0
 31 32  1  0
 31 33  1  0
 31 34  1  0
 34 35  1  0
 34 36  1  0
 34 37  1  0
 37 38  1  0
 37 39  1  0
 37 40  1  0
  4 41  2  0
 41 42  1  0
 41 43  1  0
 43 44  1  0
 43  2  2  0
 27  5  1  0
 25 17  1  0
M  CHG  2   7   1  18  -1
M  END
>  <UniqueID>  (11) 
11

>  <SMILES>  (11) 
CCCCn1c(-c2cccs2)n[nH+]c1SCC(=O)/N=c1\cc(C)o[n-]1

>  <Energy>  (11) 
131.47160974100225

>  <Genealogy>  (11) 
CCCCn1c(-c2cccs2)n[nH+]c1SCC(=O)N=c1cc(C)o[n-]1 (protonated)
CCCCn1c(-c2cccs2)n[nH+]c1SCC(=O)/N=c1\cc(C)o[n-]1 (cis-trans isomerization)
CCCCn1c(-c2cccs2)n[nH+]c1SCC(=O)/N=c1\cc(C)o[n-]1 (3D coordinates assigned)
CCCCn1c(-c2cccs2)n[nH+]c1SCC(=O)/N=c1\cc(C)o[n-]1 (optimized conformer: 131.47160974100225 kcal/mol)

>  <smiles>  (11) 
CCCCn1c(SCC(=O)N=c2cc(C)o[nH]2)nnc1-c1cccs1

>  <score_type>  (11) 
oracle

>  <origin>  (11) 
adg

>  <m_score__min__energy>  (11) 
-10.27

>  <m_primary>  (11) 
energy

$$$$
11:0
     RDKit          3D

 46 47  0  0  0  0  0  0  0  0999 V2000
   -8.0430   23.4000  -31.7970 C   0  0  0  0  0  0  0  0  0  0  0  0
   -6.8120   23.3690  -32.6960 C   0  0  0  0  0  0  0  0  0  0  0  0
   -5.7610   24.1130  -32.1060 O   0  0  0  0  0  0  0  0  0  0  0  0
   -6.1640   24.6370  -30.8580 C   0  0  0  0  0  0  0  0  0  0  0  0
   -5.1920   25.7400  -30.4170 C   0  0  0  0  0  0  0  0  0  0  0  0
   -3.8490   25.2920  -30.4600 O   0  0  0  0  0  0  0  0  0  0  0  0
   -3.5960   24.3620  -29.4250 C   0  0  0  0  0  0  0  0  0  0  0  0
   -2.2440   23.6840  -29.6570 C   0  0  0  0  0  0  0  0  0  0  0  0
   -2.3020   22.5930  -30.7550 C   0  0  0  0  0  0  0  0  0  0  0  0
   -3.5060   22.6890  -31.5940 N   0  0  0  0  0  0  0  0  0  0  0  0
   -3.4580   21.7960  -32.7640 C   0  0  0  0  0  0  0  0  0  0  0  0
   -4.2900   20.5350  -32.5020 C   0  0  2  0  0  0  0  0  0  0  0  0
   -4.3940   19.6270  -33.7470 C   0  0  0  0  0  0  0  0  0  0  0  0
   -5.3230   18.5650  -33.5010 O   0  0  0  0  0  0  0  0  0  0  0  0
   -6.4980   18.7820  -32.7720 C   0  0  0  0  0  0  0  0  0  0  0  0
   -7.5040   17.8100  -32.7260 C   0  0  0  0  0  0  0  0  0  0  0  0
   -8.6690   18.0510  -31.9910 C   0  0  0  0  0  0  0  0  0  0  0  0
   -8.8350   19.2630  -31.3120 C   0  0  0  0  0  0  0  0  0  0  0  0
   -7.8330   20.2380  -31.3590 C   0  0  0  0  0  0  0  0  0  0  0  0
   -6.6520   19.9830  -32.0640 C   0  0  0  0  0  0  0  0  0  0  0  0
   -5.6010   20.9060  -32.0590 O   0  0  0  0  0  0  0  0  0  0  0  0
   -7.7277   23.3921  -30.7432 H   0  0  0  0  0  0  0  0  0  0  0  0
   -8.6221   24.3130  -31.9996 H   0  0  0  0  0  0  0  0  0  0  0  0
   -8.6673   22.5173  -31.9996 H   0  0  0  0  0  0  0  0  0  0  0  0
   -6.4878   22.3269  -32.8335 H   0  0  0  0  0  0  0  0  0  0  0  0
   -7.0655   23.8130  -33.6699 H   0  0  0  0  0  0  0  0  0  0  0  0
   -7.1764   25.0576  -30.9486 H   0  0  0  0  0  0  0  0  0  0  0  0
   -6.1621   23.8314  -30.1090 H   0  0  0  0  0  0  0  0  0  0  0  0
   -5.3028   26.6043  -31.0884 H   0  0  0  0  0  0  0  0  0  0  0  0
   -5.4313   26.0185  -29.3801 H   0  0  0  0  0  0  0  0  0  0  0  0
   -3.5804   24.8866  -28.4583 H   0  0  0  0  0  0  0  0  0  0  0  0
   -4.3888   23.5994  -29.4199 H   0  0  0  0  0  0  0  0  0  0  0  0
   -1.5141   24.4492  -29.9597 H   0  0  0  0  0  0  0  0  0  0  0  0
   -1.9531   23.1932  -28.7165 H   0  0  0  0  0  0  0  0  0  0  0  0
   -1.4162   22.6958  -31.3991 H   0  0  0  0  0  0  0  0  0  0  0  0
   -2.3291   21.6166  -30.2491 H   0  0  0  0  0  0  0  0  0  0  0  0
   -3.6110   23.6790  -31.9270 H   0  0  0  0  0  0  0  0  0  0  0  0
   -3.8632   22.3231  -33.6403 H   0  0  0  0  0  0  0  0  0  0  0  0
   -2.4138   21.5048  -32.9507 H   0  0  0  0  0  0  0  0  0  0  0  0
   -3.7751   19.9573  -31.7202 H   0  0  0  0  0  0  0  0  0  0  0  0
   -4.7400   20.2226  -34.6047 H   0  0  0  0  0  0  0  0  0  0  0  0
   -3.4047   19.1987  -33.9659 H   0  0  0  0  0  0  0  0  0  0  0  0
   -7.3787   16.8599  -33.2661 H   0  0  0  0  0  0  0  0  0  0  0  0
   -9.4574   17.2852  -31.9465 H   0  0  0  0  0  0  0  0  0  0  0  0
   -9.7557   19.4497  -30.7398 H   0  0  0  0  0  0  0  0  0  0  0  0
   -7.9730   21.2000  -30.8443 H   0  0  0  0  0  0  0  0  0  0  0  0
  1  2  1  0
  2  3  1  0
  3  4  1  0
  4  5  1  0
  5  6  1  0
  6  7  1  0
  7  8  1  0
  8  9  1  0
  9 10  1  0
 10 11  1  0
 11 12  1  0
 12 13  1  0
 13 14  1  0
 14 15  1  0
 15 16  2  0
 16 17  1  0
 17 18  2  0
 18 19  1  0
 19 20  2  0
 20 21  1  0
 21 12  1  0
 20 15  1  0
  1 22  1  0
  1 23  1  0
  1 24  1  0
  2 25  1  0
  2 26  1  0
  4 27  1  0
  4 28  1  0
  5 29  1  0
  5 30  1  0
  7 31  1  0
  7 32  1  0
  8 33  1  0
  8 34  1  0
  9 35  1  0
  9 36  1  0
 10 37  1  0
 11 38  1  0
 11 39  1  0
 12 40  1  1
 13 41  1  0
 13 42  1  0
 16 43  1  0
 17 44  1  0
 18 45  1  0
 19 46  1  0
M  END
>  <UniqueID>  (12) 
12

>  <SMILES>  (12) 
CCOCCOCCCNC[C@@H]1COc2ccccc2O1

>  <Energy>  (12) 
43.24391145696955

>  <Genealogy>  (12) 
CCOCCOCCCNC[C@@H]1COc2ccccc2O1 (chirality)
CCOCCOCCCNC[C@@H]1COc2ccccc2O1 (3D coordinates assigned)
CCOCCOCCCNC[C@@H]1COc2ccccc2O1 (nonaromatic ring conformer: 43.24391145696955 kcal/mol)

>  <smiles>  (12) 
CCOCCOCCCNCC1COc2ccccc2O1

>  <score_type>  (12) 
oracle

>  <origin>  (12) 
adg

>  <m_score__min__energy>  (12) 
-7.6399999999999997

>  <m_primary>  (12) 
energy

$$$$
12:0
     RDKit          3D

 44 47  0  0  0  0  0  0  0  0999 V2000
   -3.2870   24.8250  -26.6950 C   0  0  0  0  0  0  0  0  0  0  0  0
   -2.7910   24.4320  -28.0820 C   0  0  0  0  0  0  0  0  0  0  0  0
   -3.8370   23.7250  -28.8220 N   0  0  0  0  0  0  0  0  0  0  0  0
   -4.3910   24.2340  -30.0470 C   0  0  0  0  0  0  0  0  0  0  0  0
   -3.8960   25.2690  -30.5730 O   0  0  0  0  0  0  0  0  0  0  0  0
   -5.5260   23.5530  -30.7170 C   0  0  0  0  0  0  0  0  0  0  0  0
   -6.7710   24.1960  -30.8030 C   0  0  0  0  0  0  0  0  0  0  0  0
   -7.8480   23.5680  -31.4280 C   0  0  0  0  0  0  0  0  0  0  0  0
   -7.7020   22.2890  -31.9660 C   0  0  0  0  0  0  0  0  0  0  0  0
   -6.4700   21.6130  -31.8820 C   0  0  0  0  0  0  0  0  0  0  0  0
   -6.3200   20.2830  -32.4290 N   0  0  0  0  0  0  0  0  0  0  0  0
   -7.1280   19.1190  -32.0140 C   0  0  0  0  0  0  0  0  0  0  0  0
   -6.5770   18.0400  -32.8550 C   0  0  0  0  0  0  0  0  0  0  0  0
   -6.8920   16.7270  -32.9430 N   0  0  0  0  0  0  0  0  0  0  0  0
   -6.0940   16.1290  -33.8710 C   0  0  0  0  0  0  0  0  0  0  0  0
   -6.1880   14.6880  -34.2050 C   0  0  0  0  0  0  0  0  0  0  0  0
   -5.0490   13.8660  -34.1190 C   0  0  0  0  0  0  0  0  0  0  0  0
   -5.1310   12.5060  -34.4320 C   0  0  0  0  0  0  0  0  0  0  0  0
   -6.3470   11.9510  -34.8330 C   0  0  0  0  0  0  0  0  0  0  0  0
   -7.4850   12.7560  -34.9210 C   0  0  0  0  0  0  0  0  0  0  0  0
   -7.4100   14.1160  -34.6090 C   0  0  0  0  0  0  0  0  0  0  0  0
   -4.9930   17.2340  -34.5830 S   0  0  0  0  0  0  0  0  0  0  0  0
   -5.5950   18.4840  -33.6500 C   0  0  0  0  0  0  0  0  0  0  0  0
   -5.3340   19.9220  -33.4670 C   0  0  0  0  0  0  0  0  0  0  0  0
   -5.3870   22.2580  -31.2480 C   0  0  0  0  0  0  0  0  0  0  0  0
   -2.6668   24.3336  -25.9309 H   0  0  0  0  0  0  0  0  0  0  0  0
   -3.2183   25.9165  -26.5767 H   0  0  0  0  0  0  0  0  0  0  0  0
   -4.3338   24.5085  -26.5767 H   0  0  0  0  0  0  0  0  0  0  0  0
   -2.5074   25.3396  -28.6351 H   0  0  0  0  0  0  0  0  0  0  0  0
   -1.9224   23.7661  -27.9724 H   0  0  0  0  0  0  0  0  0  0  0  0
   -4.1680   22.8140  -28.4360 H   0  0  0  0  0  0  0  0  0  0  0  0
   -6.8978   25.2013  -30.3748 H   0  0  0  0  0  0  0  0  0  0  0  0
   -8.8173   24.0835  -31.4971 H   0  0  0  0  0  0  0  0  0  0  0  0
   -8.5571   21.8046  -32.4601 H   0  0  0  0  0  0  0  0  0  0  0  0
   -6.9917   18.9000  -30.9447 H   0  0  0  0  0  0  0  0  0  0  0  0
   -8.2108   19.2665  -32.1392 H   0  0  0  0  0  0  0  0  0  0  0  0
   -4.0873   14.2967  -33.8032 H   0  0  0  0  0  0  0  0  0  0  0  0
   -4.2349   11.8718  -34.3620 H   0  0  0  0  0  0  0  0  0  0  0  0
   -6.4092   10.8808  -35.0795 H   0  0  0  0  0  0  0  0  0  0  0  0
   -8.4433   12.3180  -35.2369 H   0  0  0  0  0  0  0  0  0  0  0  0
   -8.3107   14.7436  -34.6793 H   0  0  0  0  0  0  0  0  0  0  0  0
   -4.3054   20.1006  -33.1206 H   0  0  0  0  0  0  0  0  0  0  0  0
   -5.4272   20.5109  -34.3914 H   0  0  0  0  0  0  0  0  0  0  0  0
   -4.4197   21.7404  -31.1678 H   0  0  0  0  0  0  0  0  0  0  0  0
  1  2  1  0
  2  3  1  0
  3  4  1  0
  4  5  2  0
  4  6  1  0
  6  7  2  0
  7  8  1  0
  8  9  2  0
  9 10  1  0
 10 11  1  0
 11 12  1  0
 12 13  1  0
 13 14  1  0
 14 15  2  0
 15 16  1  0
 16 17  2  0
 17 18  1  0
 18 19  2  0
 19 20  1  0
 20 21  2  0
 15 22  1  0
 22 23  1  0
 23 24  1  0
 10 25  2  0
 25  6  1  0
 24 11  1  0
 23 13  2  0
 21 16  1  0
  1 26  1  0
  1 27  1  0
  1 28  1  0
  2 29  1  0
  2 30  1  0
  3 31  1  0
  7 32  1  0
  8 33  1  0
  9 34  1  0
 12 35  1  0
 12 36  1  0
 17 37  1  0
 18 38  1  0
 19 39  1  0
 20 40  1  0
 21 41  1  0
 24 42  1  0
 24 43  1  0
 25 44  1  0
M  END
>  <UniqueID>  (13) 
13

>  <SMILES>  (13) 
CCNC(=O)c1cccc(N2Cc3nc(-c4ccccc4)sc3C2)c1

>  <Energy>  (13) 
99.93210998043139

>  <Genealogy>  (13) 
CCNC(=O)c1cccc(N2Cc3nc(-c4ccccc4)sc3C2)c1 (3D coordinates assigned)
CCNC(=O)c1cccc(N2Cc3nc(-c4ccccc4)sc3C2)c1 (nonaromatic ring conformer: 99.93210998043139 kcal/mol)

>  <smiles>  (13) 
CCNC(=O)c1cccc(N2Cc3nc(-c4ccccc4)sc3C2)c1

>  <score_type>  (13) 
oracle

>  <origin>  (13) 
adg

>  <m_score__min__energy>  (13) 
-8.5199999999999996

>  <m_primary>  (13) 
energy

$$$$
13:0
     RDKit          3D

 33 34  0  0  0  0  0  0  0  0999 V2000
   -9.4760   20.8120  -31.8050 C   0  0  0  0  0  0  0  0  0  0  0  0
   -9.3740   19.5890  -32.7150 C   0  0  0  0  0  0  0  0  0  0  0  0
   -9.1260   18.2880  -31.9350 C   0  0  0  0  0  0  0  0  0  0  0  0
   -7.7020   18.1120  -31.5940 N   0  0  0  0  0  0  0  0  0  0  0  0
   -6.8240   18.3950  -32.7410 C   0  0  0  0  0  0  0  0  0  0  0  0
   -6.1410   19.7260  -32.6040 C   0  0  0  0  0  0  0  0  0  0  0  0
   -5.1440   20.2170  -33.4160 C   0  0  0  0  0  0  0  0  0  0  0  0
   -4.8530   21.4210  -32.9930 O   0  0  0  0  0  0  0  0  0  0  0  0
   -5.6370   21.6750  -31.9660 C   0  0  0  0  0  0  0  0  0  0  0  0
   -5.6120   22.9450  -31.2140 C   0  0  0  0  0  0  0  0  0  0  0  0
   -6.8150   23.5850  -30.8670 C   0  0  0  0  0  0  0  0  0  0  0  0
   -6.7940   24.7870  -30.1530 C   0  0  0  0  0  0  0  0  0  0  0  0
   -5.5760   25.3620  -29.7810 C   0  0  0  0  0  0  0  0  0  0  0  0
   -4.3750   24.7340  -30.1210 C   0  0  0  0  0  0  0  0  0  0  0  0
   -3.1930   25.2910  -29.7590 F   0  0  0  0  0  0  0  0  0  0  0  0
   -4.3900   23.5310  -30.8340 C   0  0  0  0  0  0  0  0  0  0  0  0
   -6.4680   20.6490  -31.6800 N   0  0  0  0  0  0  0  0  0  0  0  0
   -9.4491   20.4899  -30.7535 H   0  0  0  0  0  0  0  0  0  0  0  0
   -8.6311   21.4879  -32.0031 H   0  0  0  0  0  0  0  0  0  0  0  0
  -10.4212   21.3387  -32.0031 H   0  0  0  0  0  0  0  0  0  0  0  0
  -10.3146   19.4888  -33.2765 H   0  0  0  0  0  0  0  0  0  0  0  0
   -8.5150   19.7438  -33.3844 H   0  0  0  0  0  0  0  0  0  0  0  0
   -9.7134   18.3137  -31.0053 H   0  0  0  0  0  0  0  0  0  0  0  0
   -9.4294   17.4454  -32.5738 H   0  0  0  0  0  0  0  0  0  0  0  0
   -7.4410   18.7390  -30.7980 H   0  0  0  0  0  0  0  0  0  0  0  0
   -7.5390   17.1200  -31.3020 H   0  0  0  0  0  0  0  0  0  0  0  0
   -6.0592   17.6072  -32.8072 H   0  0  0  0  0  0  0  0  0  0  0  0
   -7.4443   18.4202  -33.6491 H   0  0  0  0  0  0  0  0  0  0  0  0
   -4.6778   19.6940  -34.2640 H   0  0  0  0  0  0  0  0  0  0  0  0
   -7.7769   23.1380  -31.1586 H   0  0  0  0  0  0  0  0  0  0  0  0
   -7.7389   25.2814  -29.8834 H   0  0  0  0  0  0  0  0  0  0  0  0
   -5.5627   26.3086  -29.2208 H   0  0  0  0  0  0  0  0  0  0  0  0
   -3.4419   23.0402  -31.0992 H   0  0  0  0  0  0  0  0  0  0  0  0
  1  2  1  0
  2  3  1  0
  3  4  1  0
  4  5  1  0
  5  6  1  0
  6  7  2  0
  7  8  1  0
  8  9  1  0
  9 10  1  0
 10 11  2  0
 11 12  1  0
 12 13  2  0
 13 14  1  0
 14 15  1  0
 14 16  2  0
  9 17  2  0
 17  6  1  0
 16 10  1  0
  1 18  1  0
  1 19  1  0
  1 20  1  0
  2 21  1  0
  2 22  1  0
  3 23  1  0
  3 24  1  0
  4 25  1  0
  4 26  1  0
  5 27  1  0
  5 28  1  0
  7 29  1  0
 11 30  1  0
 12 31  1  0
 13 32  1  0
 16 33  1  0
M  CHG  1   4   1
M  END
>  <UniqueID>  (14) 
14

>  <SMILES>  (14) 
CCC[NH2+]Cc1coc(-c2cccc(F)c2)n1

>  <Energy>  (14) 
57.56249174626052

>  <Genealogy>  (14) 
CCC[NH2+]Cc1coc(-c2cccc(F)c2)n1 (protonated)
CCC[NH2+]Cc1coc(-c2cccc(F)c2)n1 (3D coordinates assigned)
CCC[NH2+]Cc1coc(-c2cccc(F)c2)n1 (optimized conformer: 57.56249174626052 kcal/mol)

>  <smiles>  (14) 
CCCNCc1coc(-c2cccc(F)c2)n1

>  <score_type>  (14) 
oracle

>  <origin>  (14) 
adg

>  <m_score__min__energy>  (14) 
-5.5300000000000002

>  <m_primary>  (14) 
energy

$$$$
14:0
     RDKit          3D

 62 64  0  0  0  0  0  0  0  0999 V2000
   -8.3510   21.9330  -30.6010 C   0  0  0  0  0  0  0  0  0  0  0  0
   -9.1750   21.2600  -31.6970 C   0  0  0  0  0  0  0  0  0  0  0  0
   -9.0990   19.7250  -31.6230 C   0  0  0  0  0  0  0  0  0  0  0  0
   -7.9570   19.1320  -32.4730 C   0  0  0  0  0  0  0  0  0  0  0  0
   -6.8900   20.4200  -33.2250 S   0  0  0  0  0  0  0  0  0  0  0  0
   -5.6280   19.2810  -33.8390 C   0  0  0  0  0  0  0  0  0  0  0  0
   -6.1050   18.1650  -34.5300 C   0  0  0  0  0  0  0  0  0  0  0  0
   -5.2560   17.1230  -34.8630 C   0  0  0  0  0  0  0  0  0  0  0  0
   -3.9110   17.1800  -34.5210 C   0  0  0  0  0  0  0  0  0  0  0  0
   -3.3600   18.3250  -33.8920 C   0  0  0  0  0  0  0  0  0  0  0  0
   -4.2300   19.4100  -33.5680 C   0  0  0  0  0  0  0  0  0  0  0  0
   -3.6660   20.5620  -32.9730 C   0  0  0  0  0  0  0  0  0  0  0  0
   -4.3870   21.7990  -32.9180 N   0  0  0  0  0  0  0  0  0  0  0  0
   -4.9320   22.2690  -31.6450 C   0  0  0  0  0  0  0  0  0  0  0  0
   -5.4510   23.7030  -31.7650 C   0  0  0  0  0  0  0  0  0  0  0  0
   -4.6370   24.6040  -30.9160 N   0  0  0  0  0  0  0  0  0  0  0  0
   -3.6640   23.8690  -30.0780 C   0  0  0  0  0  0  0  0  0  0  0  0
   -3.8910   24.1280  -28.5890 C   0  0  0  0  0  0  0  0  0  0  0  0
   -5.4560   25.6090  -30.1940 C   0  0  0  0  0  0  0  0  0  0  0  0
   -6.8260   25.0910  -29.7300 C   0  0  0  0  0  0  0  0  0  0  0  0
   -2.3500   20.5220  -32.4860 C   0  0  0  0  0  0  0  0  0  0  0  0
   -1.8180   21.6010  -31.7460 C   0  0  0  0  0  0  0  0  0  0  0  0
   -0.5310   21.5340  -31.2180 C   0  0  0  0  0  0  0  0  0  0  0  0
    0.2410   20.3950  -31.4080 C   0  0  0  0  0  0  0  0  0  0  0  0
   -0.2550   19.3310  -32.1610 C   0  0  0  0  0  0  0  0  0  0  0  0
   -1.5440   19.3890  -32.7520 C   0  0  0  0  0  0  0  0  0  0  0  0
   -2.0130   18.3880  -33.5770 N   0  0  0  0  0  0  0  0  0  0  0  0
   -1.0700   17.3980  -34.1430 C   0  0  0  0  0  0  0  0  0  0  0  0
   -8.7295   21.6238  -29.6155 H   0  0  0  0  0  0  0  0  0  0  0  0
   -7.2969   21.6343  -30.6991 H   0  0  0  0  0  0  0  0  0  0  0  0
   -8.4332   23.0255  -30.6991 H   0  0  0  0  0  0  0  0  0  0  0  0
  -10.2255   21.5681  -31.5898 H   0  0  0  0  0  0  0  0  0  0  0  0
   -8.7630   21.5716  -32.6681 H   0  0  0  0  0  0  0  0  0  0  0  0
   -8.9423   19.4328  -30.5742 H   0  0  0  0  0  0  0  0  0  0  0  0
  -10.0442   19.3310  -32.0247 H   0  0  0  0  0  0  0  0  0  0  0  0
   -7.3354   18.4921  -31.8295 H   0  0  0  0  0  0  0  0  0  0  0  0
   -8.4163   18.5612  -33.2935 H   0  0  0  0  0  0  0  0  0  0  0  0
   -7.1668   18.1132  -34.8128 H   0  0  0  0  0  0  0  0  0  0  0  0
   -5.6482   16.2469  -35.4003 H   0  0  0  0  0  0  0  0  0  0  0  0
   -3.2610   16.3206  -34.7423 H   0  0  0  0  0  0  0  0  0  0  0  0
   -4.6900   22.2390  -33.8160 H   0  0  0  0  0  0  0  0  0  0  0  0
   -5.7604   21.6110  -31.3438 H   0  0  0  0  0  0  0  0  0  0  0  0
   -4.1299   22.2492  -30.8925 H   0  0  0  0  0  0  0  0  0  0  0  0
   -5.3835   24.0293  -32.8133 H   0  0  0  0  0  0  0  0  0  0  0  0
   -6.4989   23.7390  -31.4324 H   0  0  0  0  0  0  0  0  0  0  0  0
   -3.7686   22.7914  -30.2724 H   0  0  0  0  0  0  0  0  0  0  0  0
   -2.6543   24.2202  -30.3370 H   0  0  0  0  0  0  0  0  0  0  0  0
   -3.2795   23.4303  -27.9981 H   0  0  0  0  0  0  0  0  0  0  0  0
   -3.6030   25.1621  -28.3486 H   0  0  0  0  0  0  0  0  0  0  0  0
   -4.9539   23.9781  -28.3486 H   0  0  0  0  0  0  0  0  0  0  0  0
   -4.8941   25.9393  -29.3079 H   0  0  0  0  0  0  0  0  0  0  0  0
   -5.6516   26.4258  -30.9043 H   0  0  0  0  0  0  0  0  0  0  0  0
   -6.8600   25.0781  -28.6306 H   0  0  0  0  0  0  0  0  0  0  0  0
   -7.6171   25.7521  -30.1136 H   0  0  0  0  0  0  0  0  0  0  0  0
   -6.9818   24.0719  -30.1136 H   0  0  0  0  0  0  0  0  0  0  0  0
   -2.4263   22.5033  -31.5851 H   0  0  0  0  0  0  0  0  0  0  0  0
   -0.1254   22.3841  -30.6498 H   0  0  0  0  0  0  0  0  0  0  0  0
    1.2453   20.3321  -30.9638 H   0  0  0  0  0  0  0  0  0  0  0  0
    0.3633   18.4317  -32.2992 H   0  0  0  0  0  0  0  0  0  0  0  0
   -0.5627   16.8655  -33.3250 H   0  0  0  0  0  0  0  0  0  0  0  0
   -1.6235   16.6768  -34.7624 H   0  0  0  0  0  0  0  0  0  0  0  0
   -0.3228   17.9158  -34.7624 H   0  0  0  0  0  0  0  0  0  0  0  0
  1  2  1  0
  2  3  1  0
  3  4  1  0
  4  5  1  0
  5  6  1  0
  6  7  2  0
  7  8  1  0
  8  9  2  0
  9 10  1  0
 10 11  2  0
 11 12  1  0
 12 13  1  0
 13 14  1  0
 14 15  1  0
 15 16  1  0
 16 17  1  0
 17 18  1  0
 16 19  1  0
 19 20  1  0
 12 21  2  0
 21 22  1  0
 22 23  2  0
 23 24  1  0
 24 25  2  0
 25 26  1  0
 26 27  2  0
 27 28  1  0
 11  6  1  0
 26 21  1  0
 27 10  1  0
  1 29  1  0
  1 30  1  0
  1 31  1  0
  2 32  1  0
  2 33  1  0
  3 34  1  0
  3 35  1  0
  4 36  1  0
  4 37  1  0
  7 38  1  0
  8 39  1  0
  9 40  1  0
 13 41  1  0
 14 42  1  0
 14 43  1  0
 15 44  1  0
 15 45  1  0
 17 46  1  0
 17 47  1  0
 18 48  1  0
 18 49  1  0
 18 50  1  0
 19 51  1  0
 19 52  1  0
 20 53  1  0
 20 54  1  0
 20 55  1  0
 22 56  1  0
 23 57  1  0
 24 58  1  0
 25 59  1  0
 28 60  1  0
 28 61  1  0
 28 62  1  0
M  CHG  1  27   1
M  END
>  <UniqueID>  (15) 
15

>  <SMILES>  (15) 
CCCCSc1cccc2c1c(NCCN(CC)CC)c1ccccc1[n+]2C

>  <Energy>  (15) 
88.53870158783518

>  <Genealogy>  (15) 
CCCCSc1cccc2c1c(NCCN(CC)CC)c1ccccc1[n+]2C (3D coordinates assigned)
CCCCSc1cccc2c1c(NCCN(CC)CC)c1ccccc1[n+]2C (optimized conformer: 88.53870158783518 kcal/mol)

>  <smiles>  (15) 
CCCCSc1cccc2c1c(NCCN(CC)CC)c1ccccc1[n+]2C

>  <score_type>  (15) 
oracle

>  <origin>  (15) 
adg

>  <m_score__min__energy>  (15) 
-8.8300000000000001

>  <m_primary>  (15) 
energy

$$$$
15:0
     RDKit          3D

 47 49  0  0  0  0  0  0  0  0999 V2000
   -5.9220   25.6760  -30.0930 C   0  0  0  0  0  0  0  0  0  0  0  0
   -4.7180   25.1060  -30.8340 C   0  0  0  0  0  0  0  0  0  0  0  0
   -4.8150   23.6280  -30.8870 N   0  0  0  0  0  0  0  0  0  0  0  0
   -5.5030   23.0660  -29.6990 C   0  0  0  0  0  0  0  0  0  0  0  0
   -4.6000   22.9110  -28.4640 C   0  0  0  0  0  0  0  0  0  0  0  0
   -3.5230   22.9650  -31.1730 C   0  0  0  0  0  0  0  0  0  0  0  0
   -3.6890   21.8030  -32.1760 C   0  0  0  0  0  0  0  0  0  0  0  0
   -4.8170   21.9840  -33.1110 N   0  0  0  0  0  0  0  0  0  0  0  0
   -5.8830   21.0260  -32.8780 C   0  0  0  0  0  0  0  0  0  0  0  0
   -5.7480   19.6230  -33.0920 C   0  0  0  0  0  0  0  0  0  0  0  0
   -4.5800   19.0590  -33.6620 C   0  0  0  0  0  0  0  0  0  0  0  0
   -4.4830   17.6900  -33.8950 C   0  0  0  0  0  0  0  0  0  0  0  0
   -5.5410   16.8470  -33.5840 C   0  0  0  0  0  0  0  0  0  0  0  0
   -5.4140   15.1280  -33.9120 Cl  0  0  0  0  0  0  0  0  0  0  0  0
   -6.7040   17.3660  -33.0190 C   0  0  0  0  0  0  0  0  0  0  0  0
   -6.8320   18.7490  -32.7350 C   0  0  0  0  0  0  0  0  0  0  0  0
   -7.9810   19.2540  -32.1440 N   0  0  0  0  0  0  0  0  0  0  0  0
   -9.0190   18.3530  -31.6030 C   0  0  0  0  0  0  0  0  0  0  0  0
   -8.1470   20.6140  -32.0690 C   0  0  0  0  0  0  0  0  0  0  0  0
   -9.3140   21.2920  -31.6520 C   0  0  0  0  0  0  0  0  0  0  0  0
   -9.1780   22.6760  -31.6540 C   0  0  0  0  0  0  0  0  0  0  0  0
   -7.6310   23.0660  -32.1820 S   0  0  0  0  0  0  0  0  0  0  0  0
   -7.1210   21.4770  -32.4140 C   0  0  0  0  0  0  0  0  0  0  0  0
   -5.7559   25.5974  -29.0085 H   0  0  0  0  0  0  0  0  0  0  0  0
   -6.0551   26.7327  -30.3679 H   0  0  0  0  0  0  0  0  0  0  0  0
   -6.8238   25.1092  -30.3679 H   0  0  0  0  0  0  0  0  0  0  0  0
   -4.6957   25.5075  -31.8579 H   0  0  0  0  0  0  0  0  0  0  0  0
   -3.7971   25.3909  -30.3041 H   0  0  0  0  0  0  0  0  0  0  0  0
   -6.3370   23.7331  -29.4353 H   0  0  0  0  0  0  0  0  0  0  0  0
   -5.8377   22.0553  -29.9755 H   0  0  0  0  0  0  0  0  0  0  0  0
   -5.2056   23.0150  -27.5516 H   0  0  0  0  0  0  0  0  0  0  0  0
   -4.1262   21.9184  -28.4785 H   0  0  0  0  0  0  0  0  0  0  0  0
   -3.8223   23.6888  -28.4785 H   0  0  0  0  0  0  0  0  0  0  0  0
   -2.8281   23.7052  -31.5964 H   0  0  0  0  0  0  0  0  0  0  0  0
   -3.1325   22.5526  -30.2310 H   0  0  0  0  0  0  0  0  0  0  0  0
   -2.7624   21.7150  -32.7623 H   0  0  0  0  0  0  0  0  0  0  0  0
   -3.9005   20.8978  -31.5878 H   0  0  0  0  0  0  0  0  0  0  0  0
   -4.4710   21.9960  -34.0910 H   0  0  0  0  0  0  0  0  0  0  0  0
   -5.1980   22.9470  -32.9650 H   0  0  0  0  0  0  0  0  0  0  0  0
   -3.7359   19.7136  -33.9248 H   0  0  0  0  0  0  0  0  0  0  0  0
   -3.5618   17.2735  -34.3285 H   0  0  0  0  0  0  0  0  0  0  0  0
   -7.5398   16.6890  -32.7886 H   0  0  0  0  0  0  0  0  0  0  0  0
   -8.9898   18.3783  -30.5037 H   0  0  0  0  0  0  0  0  0  0  0  0
  -10.0088   18.6831  -31.9512 H   0  0  0  0  0  0  0  0  0  0  0  0
   -8.8313   17.3266  -31.9512 H   0  0  0  0  0  0  0  0  0  0  0  0
  -10.2390   20.7761  -31.3550 H   0  0  0  0  0  0  0  0  0  0  0  0
   -9.9549   23.3966  -31.3587 H   0  0  0  0  0  0  0  0  0  0  0  0
  1  2  1  0
  2  3  1  0
  3  4  1  0
  4  5  1  0
  3  6  1  0
  6  7  1  0
  7  8  1  0
  8  9  1  0
  9 10  2  0
 10 11  1  0
 11 12  2  0
 12 13  1  0
 13 14  1  0
 13 15  2  0
 15 16  1  0
 16 17  2  0
 17 18  1  0
 17 19  1  0
 19 20  1  0
 20 21  2  0
 21 22  1  0
 22 23  1  0
 23  9  1  0
 16 10  1  0
 23 19  2  0
  1 24  1  0
  1 25  1  0
  1 26  1  0
  2 27  1  0
  2 28  1  0
  4 29  1  0
  4 30  1  0
  5 31  1  0
  5 32  1  0
  5 33  1  0
  6 34  1  0
  6 35  1  0
  7 36  1  0
  7 37  1  0
  8 38  1  0
  8 39  1  0
 11 40  1  0
 12 41  1  0
 15 42  1  0
 18 43  1  0
 18 44  1  0
 18 45  1  0
 20 46  1  0
 21 47  1  0
M  CHG  2   8   1  17   1
M  END
>  <UniqueID>  (16) 
16

>  <SMILES>  (16) 
CCN(CC)CC[NH2+]c1c2ccc(Cl)cc2[n+](C)c2ccsc12

>  <Energy>  (16) 
95.24304672338778

>  <Genealogy>  (16) 
CCN(CC)CC[NH2+]c1c2ccc(Cl)cc2[n+](C)c2ccsc12 (protonated)
CCN(CC)CC[NH2+]c1c2ccc(Cl)cc2[n+](C)c2ccsc12 (3D coordinates assigned)
CCN(CC)CC[NH2+]c1c2ccc(Cl)cc2[n+](C)c2ccsc12 (optimized conformer: 95.24304672338778 kcal/mol)

>  <smiles>  (16) 
CCN(CC)CCNc1c2ccc(Cl)cc2[n+](C)c2ccsc12

>  <score_type>  (16) 
oracle

>  <origin>  (16) 
adg

>  <m_score__min__energy>  (16) 
-8.1600000000000001

>  <m_primary>  (16) 
energy

$$$$
16:0
     RDKit          3D

 52 54  0  0  0  0  0  0  0  0999 V2000
   -6.3430   17.4000  -31.2000 C   0  0  0  0  0  0  0  0  0  0  0  0
   -7.6410   17.8030  -31.8860 C   0  0  0  0  0  0  0  0  0  0  0  0
   -7.6980   19.2560  -32.0650 N   0  0  0  0  0  0  0  0  0  0  0  0
   -8.7130   20.0560  -31.6980 C   0  0  0  0  0  0  0  0  0  0  0  0
   -8.4180   21.3370  -32.1040 C   0  0  0  0  0  0  0  0  0  0  0  0
   -7.2250   21.3500  -32.7330 N   0  0  0  0  0  0  0  0  0  0  0  0
   -6.8120   20.0650  -32.6920 C   0  0  0  0  0  0  0  0  0  0  0  0
   -5.5260   19.6090  -33.3120 C   0  0  0  0  0  0  0  0  0  0  0  0
   -4.6840   20.7710  -33.6160 N   0  0  0  0  0  0  0  0  0  0  0  0
   -3.8000   21.0730  -32.4870 C   0  0  0  0  0  0  0  0  0  0  0  0
   -4.2550   22.3370  -31.8100 C   0  0  0  0  0  0  0  0  0  0  0  0
   -3.5220   22.8550  -30.7320 C   0  0  0  0  0  0  0  0  0  0  0  0
   -3.9400   24.0500  -30.1170 C   0  0  0  0  0  0  0  0  0  0  0  0
   -3.2640   24.6260  -29.0280 O   0  0  0  0  0  0  0  0  0  0  0  0
   -2.8830   23.9480  -27.8260 C   0  0  0  0  0  0  0  0  0  0  0  0
   -1.3950   23.5640  -27.8800 C   0  0  0  0  0  0  0  0  0  0  0  0
   -0.4780   24.8070  -27.9490 C   0  0  0  0  0  0  0  0  0  0  0  0
   -1.1780   26.0520  -27.5600 N   0  0  0  0  0  0  0  0  0  0  0  0
   -0.2090   27.1380  -27.3560 C   0  0  0  0  0  0  0  0  0  0  0  0
   -1.9820   25.8420  -26.3420 C   0  0  0  0  0  0  0  0  0  0  0  0
   -3.1460   24.8720  -26.6210 C   0  0  0  0  0  0  0  0  0  0  0  0
   -5.0790   24.6960  -30.6000 C   0  0  0  0  0  0  0  0  0  0  0  0
   -5.7740   24.1610  -31.6860 C   0  0  0  0  0  0  0  0  0  0  0  0
   -5.3510   23.0070  -32.2690 N   0  0  0  0  0  0  0  0  0  0  0  0
   -6.4767   17.4415  -30.1089 H   0  0  0  0  0  0  0  0  0  0  0  0
   -6.0736   16.3759  -31.4977 H   0  0  0  0  0  0  0  0  0  0  0  0
   -5.5409   18.0914  -31.4977 H   0  0  0  0  0  0  0  0  0  0  0  0
   -7.6969   17.3147  -32.8701 H   0  0  0  0  0  0  0  0  0  0  0  0
   -8.4875   17.4888  -31.2577 H   0  0  0  0  0  0  0  0  0  0  0  0
   -9.6224   19.7413  -31.1652 H   0  0  0  0  0  0  0  0  0  0  0  0
   -9.0578   22.2167  -31.9405 H   0  0  0  0  0  0  0  0  0  0  0  0
   -4.9965   18.9473  -32.6107 H   0  0  0  0  0  0  0  0  0  0  0  0
   -5.7435   19.0636  -34.2422 H   0  0  0  0  0  0  0  0  0  0  0  0
   -5.3150   21.5950  -33.7620 H   0  0  0  0  0  0  0  0  0  0  0  0
   -3.8295   20.2418  -31.7671 H   0  0  0  0  0  0  0  0  0  0  0  0
   -2.7721   21.2069  -32.8552 H   0  0  0  0  0  0  0  0  0  0  0  0
   -2.6258   22.3303  -30.3694 H   0  0  0  0  0  0  0  0  0  0  0  0
   -3.4764   23.0276  -27.7223 H   0  0  0  0  0  0  0  0  0  0  0  0
   -1.1441   22.9873  -26.9775 H   0  0  0  0  0  0  0  0  0  0  0  0
   -1.2304   22.9695  -28.7907 H   0  0  0  0  0  0  0  0  0  0  0  0
    0.3739   24.6547  -27.2699 H   0  0  0  0  0  0  0  0  0  0  0  0
   -0.1491   24.9213  -28.9924 H   0  0  0  0  0  0  0  0  0  0  0  0
   -0.0631   27.3015  -26.2781 H   0  0  0  0  0  0  0  0  0  0  0  0
    0.7508   26.8647  -27.8186 H   0  0  0  0  0  0  0  0  0  0  0  0
   -0.5895   28.0606  -27.8186 H   0  0  0  0  0  0  0  0  0  0  0  0
   -1.3409   25.4202  -25.5539 H   0  0  0  0  0  0  0  0  0  0  0  0
   -2.3957   26.8088  -26.0192 H   0  0  0  0  0  0  0  0  0  0  0  0
   -3.3043   24.2483  -25.7288 H   0  0  0  0  0  0  0  0  0  0  0  0
   -4.0314   25.4798  -26.8590 H   0  0  0  0  0  0  0  0  0  0  0  0
   -5.4284   25.6250  -30.1258 H   0  0  0  0  0  0  0  0  0  0  0  0
   -6.6670   24.6745  -32.0718 H   0  0  0  0  0  0  0  0  0  0  0  0
   -5.8870   22.6360  -33.0850 H   0  0  0  0  0  0  0  0  0  0  0  0
  1  2  1  0
  2  3  1  0
  3  4  1  0
  4  5  2  0
  5  6  1  0
  6  7  2  0
  7  8  1  0
  8  9  1  0
  9 10  1  0
 10 11  1  0
 11 12  2  0
 12 13  1  0
 13 14  1  0
 14 15  1  0
 15 16  1  0
 16 17  1  0
 17 18  1  0
 18 19  1  0
 18 20  1  0
 20 21  1  0
 13 22  2  0
 22 23  1  0
 23 24  2  0
  7  3  1  0
 24 11  1  0
 21 15  1  0
  1 25  1  0
  1 26  1  0
  1 27  1  0
  2 28  1  0
  2 29  1  0
  4 30  1  0
  5 31  1  0
  8 32  1  0
  8 33  1  0
  9 34  1  0
 10 35  1  0
 10 36  1  0
 12 37  1  0
 15 38  1  0
 16 39  1  0
 16 40  1  0
 17 41  1  0
 17 42  1  0
 19 43  1  0
 19 44  1  0
 19 45  1  0
 20 46  1  0
 20 47  1  0
 21 48  1  0
 21 49  1  0
 22 50  1  0
 23 51  1  0
 24 52  1  0
M  CHG  1  24   1
M  END
>  <UniqueID>  (17) 
17

>  <SMILES>  (17) 
CCn1ccnc1CNCc1cc(OC2CCN(C)CC2)cc[nH+]1

>  <Energy>  (17) 
78.52806239051293

>  <Genealogy>  (17) 
CCn1ccnc1CNCc1cc(OC2CCN(C)CC2)cc[nH+]1 (protonated)
CCn1ccnc1CNCc1cc(OC2CCN(C)CC2)cc[nH+]1 (3D coordinates assigned)
CCn1ccnc1CNCc1cc(OC2CCN(C)CC2)cc[nH+]1 (nonaromatic ring conformer: 78.52806239051293 kcal/mol)

>  <smiles>  (17) 
CCn1ccnc1CNCc1cc(OC2CCN(C)CC2)ccn1

>  <score_type>  (17) 
oracle

>  <origin>  (17) 
adg

>  <m_score__min__energy>  (17) 
-6.5999999999999996

>  <m_primary>  (17) 
energy

$$$$
17:0
     RDKit          3D

 73 75  0  0  0  0  0  0  0  0999 V2000
   -6.8470   24.9760  -30.0090 C   0  0  0  0  0  0  0  0  0  0  0  0
   -5.5400   25.6580  -30.4400 C   0  0  0  0  0  0  0  0  0  0  0  0
   -4.4700   24.7120  -30.8460 N   0  0  0  0  0  0  0  0  0  0  0  0
   -3.4990   24.5050  -29.7440 C   0  0  0  0  0  0  0  0  0  0  0  0
   -4.0750   23.6440  -28.6240 C   0  0  0  0  0  0  0  0  0  0  0  0
   -5.0220   23.4430  -31.3890 C   0  0  0  0  0  0  0  0  0  0  0  0
   -3.9250   22.5640  -32.0480 C   0  0  0  0  0  0  0  0  0  0  0  0
   -4.2740   21.8890  -33.3270 N   0  0  0  0  0  0  0  0  0  0  0  0
   -4.6880   20.4980  -33.2220 C   0  0  0  0  0  0  0  0  0  0  0  0
   -6.0420   20.1960  -32.9040 C   0  0  0  0  0  0  0  0  0  0  0  0
   -6.9580   21.2080  -32.5230 C   0  0  0  0  0  0  0  0  0  0  0  0
   -8.2910   20.9140  -32.2550 C   0  0  0  0  0  0  0  0  0  0  0  0
   -8.7510   19.6110  -32.3670 C   0  0  0  0  0  0  0  0  0  0  0  0
   -7.8710   18.5910  -32.7140 C   0  0  0  0  0  0  0  0  0  0  0  0
   -6.4940   18.8520  -32.9420 C   0  0  0  0  0  0  0  0  0  0  0  0
   -5.6110   17.8310  -33.2120 N   0  0  0  0  0  0  0  0  0  0  0  0
   -6.0110   16.4260  -32.9570 C   0  0  0  0  0  0  0  0  0  0  0  0
   -4.3380   18.1110  -33.6640 C   0  0  0  0  0  0  0  0  0  0  0  0
   -3.5500   17.0980  -34.2510 C   0  0  0  0  0  0  0  0  0  0  0  0
   -2.2320   17.3220  -34.6050 C   0  0  0  0  0  0  0  0  0  0  0  0
   -1.6230   18.5430  -34.3320 C   0  0  0  0  0  0  0  0  0  0  0  0
   -0.2390   18.7320  -34.6650 N   0  0  0  0  0  0  0  0  0  0  0  0
    0.5820   17.7380  -35.3630 C   0  0  0  0  0  0  0  0  0  0  0  0
    1.2620   18.3220  -36.6200 C   0  0  0  0  0  0  0  0  0  0  0  0
    1.5720   19.8330  -36.5260 C   0  0  0  0  0  0  0  0  0  0  0  0
    0.3170   20.7080  -36.6560 C   0  0  0  0  0  0  0  0  0  0  0  0
    0.1530   21.5560  -35.4670 N   0  0  0  0  0  0  0  0  0  0  0  0
    0.5930   22.9280  -35.7220 C   0  0  0  0  0  0  0  0  0  0  0  0
   -2.3900   19.6020  -33.7920 C   0  0  0  0  0  0  0  0  0  0  0  0
   -1.7560   20.8080  -33.4420 O   0  0  0  0  0  0  0  0  0  0  0  0
   -0.8180   20.9610  -32.3790 C   0  0  0  0  0  0  0  0  0  0  0  0
   -3.7980   19.4280  -33.5660 C   0  0  0  0  0  0  0  0  0  0  0  0
   -6.9010   24.9478  -28.9107 H   0  0  0  0  0  0  0  0  0  0  0  0
   -7.7035   25.5421  -30.4038 H   0  0  0  0  0  0  0  0  0  0  0  0
   -6.8725   23.9496  -30.4038 H   0  0  0  0  0  0  0  0  0  0  0  0
   -5.7592   26.3185  -31.2919 H   0  0  0  0  0  0  0  0  0  0  0  0
   -5.1638   26.2068  -29.5641 H   0  0  0  0  0  0  0  0  0  0  0  0
   -2.6045   24.0087  -30.1483 H   0  0  0  0  0  0  0  0  0  0  0  0
   -3.2528   25.4900  -29.3208 H   0  0  0  0  0  0  0  0  0  0  0  0
   -3.7901   24.0699  -27.6506 H   0  0  0  0  0  0  0  0  0  0  0  0
   -5.1716   23.6201  -28.7069 H   0  0  0  0  0  0  0  0  0  0  0  0
   -3.6786   22.6213  -28.7069 H   0  0  0  0  0  0  0  0  0  0  0  0
   -5.4840   22.8766  -30.5669 H   0  0  0  0  0  0  0  0  0  0  0  0
   -5.7614   23.6986  -32.1623 H   0  0  0  0  0  0  0  0  0  0  0  0
   -3.0551   23.2091  -32.2406 H   0  0  0  0  0  0  0  0  0  0  0  0
   -3.7491   21.7461  -31.3338 H   0  0  0  0  0  0  0  0  0  0  0  0
   -3.5180   22.0110  -34.0320 H   0  0  0  0  0  0  0  0  0  0  0  0
   -5.0310   22.4350  -33.7950 H   0  0  0  0  0  0  0  0  0  0  0  0
   -6.6078   22.2472  -32.4374 H   0  0  0  0  0  0  0  0  0  0  0  0
   -8.9808   21.7162  -31.9539 H   0  0  0  0  0  0  0  0  0  0  0  0
   -9.8112   19.3838  -32.1816 H   0  0  0  0  0  0  0  0  0  0  0  0
   -8.2490   17.5628  -32.8136 H   0  0  0  0  0  0  0  0  0  0  0  0
   -6.0611   16.2501  -31.8723 H   0  0  0  0  0  0  0  0  0  0  0  0
   -6.9981   16.2388  -33.4048 H   0  0  0  0  0  0  0  0  0  0  0  0
   -5.2705   15.7469  -33.4048 H   0  0  0  0  0  0  0  0  0  0  0  0
   -3.9942   16.1079  -34.4310 H   0  0  0  0  0  0  0  0  0  0  0  0
   -1.6599   16.5278  -35.1069 H   0  0  0  0  0  0  0  0  0  0  0  0
    0.2020   19.6490  -34.4250 H   0  0  0  0  0  0  0  0  0  0  0  0
    1.3603   17.3755  -34.6753 H   0  0  0  0  0  0  0  0  0  0  0  0
   -0.0794   16.9205  -35.6859 H   0  0  0  0  0  0  0  0  0  0  0  0
    2.2082   17.7848  -36.7819 H   0  0  0  0  0  0  0  0  0  0  0  0
    0.5533   18.1950  -37.4516 H   0  0  0  0  0  0  0  0  0  0  0  0
    2.0419   20.0353  -35.5522 H   0  0  0  0  0  0  0  0  0  0  0  0
    2.2400   20.0863  -37.3625 H   0  0  0  0  0  0  0  0  0  0  0  0
    0.4126   21.3475  -37.5459 H   0  0  0  0  0  0  0  0  0  0  0  0
   -0.5630   20.0547  -36.7501 H   0  0  0  0  0  0  0  0  0  0  0  0
   -0.8670   21.5950  -35.2330 H   0  0  0  0  0  0  0  0  0  0  0  0
    0.7585   23.4439  -34.7647 H   0  0  0  0  0  0  0  0  0  0  0  0
    1.5309   22.9115  -36.2965 H   0  0  0  0  0  0  0  0  0  0  0  0
   -0.1796   23.4600  -36.2965 H   0  0  0  0  0  0  0  0  0  0  0  0
   -1.3399   20.8759  -31.4144 H   0  0  0  0  0  0  0  0  0  0  0  0
   -0.0507   20.1761  -32.4513 H   0  0  0  0  0  0  0  0  0  0  0  0
   -0.3399   21.9490  -32.4513 H   0  0  0  0  0  0  0  0  0  0  0  0
  1  2  1  0
  2  3  1  0
  3  4  1  0
  4  5  1  0
  3  6  1  0
  6  7  1  0
  7  8  1  0
  8  9  1  0
  9 10  2  0
 10 11  1  0
 11 12  2  0
 12 13  1  0
 13 14  2  0
 14 15  1  0
 15 16  2  0
 16 17  1  0
 16 18  1  0
 18 19  2  0
 19 20  1  0
 20 21  2  0
 21 22  1  0
 22 23  1  0
 23 24  1  0
 24 25  1  0
 25 26  1  0
 26 27  1  0
 27 28  1  0
 21 29  1  0
 29 30  1  0
 30 31  1  0
 29 32  2  0
 32  9  1  0
 15 10  1  0
 32 18  1  0
  1 33  1  0
  1 34  1  0
  1 35  1  0
  2 36  1  0
  2 37  1  0
  4 38  1  0
  4 39  1  0
  5 40  1  0
  5 41  1  0
  5 42  1  0
  6 43  1  0
  6 44  1  0
  7 45  1  0
  7 46  1  0
  8 47  1  0
  8 48  1  0
 11 49  1  0
 12 50  1  0
 13 51  1  0
 14 52  1  0
 17 53  1  0
 17 54  1  0
 17 55  1  0
 19 56  1  0
 20 57  1  0
 22 58  1  0
 23 59  1  0
 23 60  1  0
 24 61  1  0
 24 62  1  0
 25 63  1  0
 25 64  1  0
 26 65  1  0
 26 66  1  0
 27 67  1  0
 28 68  1  0
 28 69  1  0
 28 70  1  0
 31 71  1  0
 31 72  1  0
 31 73  1  0
M  CHG  2   8   1  16   1
M  END
>  <UniqueID>  (18) 
18

>  <SMILES>  (18) 
CCN(CC)CC[NH2+]c1c2ccccc2[n+](C)c2ccc(NCCCCNC)c(OC)c12

>  <Energy>  (18) 
116.4086280068581

>  <Genealogy>  (18) 
CCN(CC)CC[NH2+]c1c2ccccc2[n+](C)c2ccc(NCCCCNC)c(OC)c12 (protonated)
CCN(CC)CC[NH2+]c1c2ccccc2[n+](C)c2ccc(NCCCCNC)c(OC)c12 (3D coordinates assigned)
CCN(CC)CC[NH2+]c1c2ccccc2[n+](C)c2ccc(NCCCCNC)c(OC)c12 (optimized conformer: 116.4086280068581 kcal/mol)

>  <smiles>  (18) 
CCN(CC)CCNc1c2ccccc2[n+](C)c2ccc(NCCCCNC)c(OC)c12

>  <score_type>  (18) 
oracle

>  <origin>  (18) 
adg

>  <m_score__min__energy>  (18) 
-8.2100000000000009

>  <m_primary>  (18) 
energy

$$$$
18:0
     RDKit          3D

 85 88  0  0  0  0  0  0  0  0999 V2000
   -9.4520   21.4170  -31.9230 C   0  0  0  0  0  0  0  0  0  0  0  0
   -7.9690   21.0500  -32.0130 C   0  0  0  0  0  0  0  0  0  0  0  0
   -7.6930   19.9020  -32.9070 N   0  0  0  0  0  0  0  0  0  0  0  0
   -8.0320   18.5760  -32.3270 C   0  0  0  0  0  0  0  0  0  0  0  0
   -6.9420   17.5030  -32.4640 C   0  0  0  0  0  0  0  0  0  0  0  0
   -6.4030   20.0070  -33.6230 C   0  0  0  0  0  0  0  0  0  0  0  0
   -5.2630   20.3890  -32.6590 C   0  0  0  0  0  0  0  0  0  0  0  0
   -4.5060   21.5610  -33.1370 N   0  0  0  0  0  0  0  0  0  0  0  0
   -3.9200   22.3180  -32.0310 C   0  0  0  0  0  0  0  0  0  0  0  0
   -4.7360   23.2020  -31.2490 C   0  0  0  0  0  0  0  0  0  0  0  0
   -6.0540   23.5830  -31.6360 C   0  0  0  0  0  0  0  0  0  0  0  0
   -6.8230   24.4400  -30.8520 C   0  0  0  0  0  0  0  0  0  0  0  0
   -6.3210   24.9400  -29.6650 C   0  0  0  0  0  0  0  0  0  0  0  0
   -5.0420   24.5930  -29.2540 C   0  0  0  0  0  0  0  0  0  0  0  0
   -4.2230   23.7310  -30.0290 C   0  0  0  0  0  0  0  0  0  0  0  0
   -2.9730   23.3720  -29.5870 N   0  0  0  0  0  0  0  0  0  0  0  0
   -2.3050   24.1880  -28.5470 C   0  0  0  0  0  0  0  0  0  0  0  0
   -2.2910   22.3480  -30.1950 C   0  0  0  0  0  0  0  0  0  0  0  0
   -1.2540   21.6420  -29.5120 C   0  0  0  0  0  0  0  0  0  0  0  0
   -1.1590   21.6050  -28.0820 N   0  0  0  0  0  0  0  0  0  0  0  0
   -2.3440   21.2960  -27.2860 C   0  0  0  0  0  0  0  0  0  0  0  0
   -3.0180   20.0060  -27.7930 C   0  0  0  0  0  0  0  0  0  0  0  0
   -2.5740   18.7760  -27.0980 N   0  0  0  0  0  0  0  0  0  0  0  0
   -3.1520   18.6390  -25.7520 C   0  0  0  0  0  0  0  0  0  0  0  0
   -1.1110   18.6300  -27.0640 C   0  0  0  0  0  0  0  0  0  0  0  0
   -0.3960   20.8540  -30.2580 C   0  0  0  0  0  0  0  0  0  0  0  0
    0.6560   20.2070  -29.8190 O   0  0  0  0  0  0  0  0  0  0  0  0
    1.2340   19.6330  -30.8500 C   0  0  0  0  0  0  0  0  0  0  0  0
    0.5260   19.9140  -32.0080 C   0  0  0  0  0  0  0  0  0  0  0  0
   -0.5480   20.6870  -31.6010 C   0  0  0  0  0  0  0  0  0  0  0  0
   -1.6360   21.2370  -32.3020 C   0  0  0  0  0  0  0  0  0  0  0  0
   -1.6360   21.2220  -33.7410 N   0  0  0  0  0  0  0  0  0  0  0  0
   -1.0760   20.1300  -34.5390 C   0  0  0  0  0  0  0  0  0  0  0  0
    0.0890   20.6140  -35.4130 C   0  0  0  0  0  0  0  0  0  0  0  0
    0.5990   21.9220  -34.9450 N   0  0  0  0  0  0  0  0  0  0  0  0
    0.2830   22.9770  -35.9190 C   0  0  0  0  0  0  0  0  0  0  0  0
    2.0530   21.8740  -34.7230 C   0  0  0  0  0  0  0  0  0  0  0  0
   -2.6090   21.9880  -31.5470 C   0  0  0  0  0  0  0  0  0  0  0  0
   -9.7481   21.4903  -30.8661 H   0  0  0  0  0  0  0  0  0  0  0  0
   -9.6212   22.3841  -32.4191 H   0  0  0  0  0  0  0  0  0  0  0  0
  -10.0527   20.6404  -32.4191 H   0  0  0  0  0  0  0  0  0  0  0  0
   -7.4172   21.9239  -32.3896 H   0  0  0  0  0  0  0  0  0  0  0  0
   -7.6490   20.7549  -31.0028 H   0  0  0  0  0  0  0  0  0  0  0  0
   -8.2384   18.7162  -31.2557 H   0  0  0  0  0  0  0  0  0  0  0  0
   -8.8969   18.2062  -32.8972 H   0  0  0  0  0  0  0  0  0  0  0  0
   -6.6158   17.1819  -31.4638 H   0  0  0  0  0  0  0  0  0  0  0  0
   -7.3448   16.6392  -33.0132 H   0  0  0  0  0  0  0  0  0  0  0  0
   -6.0846   17.9193  -33.0132 H   0  0  0  0  0  0  0  0  0  0  0  0
   -6.1704   19.0378  -34.0883 H   0  0  0  0  0  0  0  0  0  0  0  0
   -6.4911   20.7921  -34.3884 H   0  0  0  0  0  0  0  0  0  0  0  0
   -5.6937   20.6218  -31.6739 H   0  0  0  0  0  0  0  0  0  0  0  0
   -4.5692   19.5376  -32.5982 H   0  0  0  0  0  0  0  0  0  0  0  0
   -5.1210   22.1120  -33.7610 H   0  0  0  0  0  0  0  0  0  0  0  0
   -3.7760   21.2640  -33.8080 H   0  0  0  0  0  0  0  0  0  0  0  0
   -6.4731   23.1915  -32.5747 H   0  0  0  0  0  0  0  0  0  0  0  0
   -7.8351   24.7204  -31.1792 H   0  0  0  0  0  0  0  0  0  0  0  0
   -6.9347   25.6120  -29.0471 H   0  0  0  0  0  0  0  0  0  0  0  0
   -4.6541   24.9949  -28.3064 H   0  0  0  0  0  0  0  0  0  0  0  0
   -2.6009   23.8265  -27.5511 H   0  0  0  0  0  0  0  0  0  0  0  0
   -1.2140   24.1028  -28.6587 H   0  0  0  0  0  0  0  0  0  0  0  0
   -2.6040   25.2407  -28.6587 H   0  0  0  0  0  0  0  0  0  0  0  0
   -0.2180   21.4050  -27.6650 H   0  0  0  0  0  0  0  0  0  0  0  0
   -2.0481   21.1602  -26.2353 H   0  0  0  0  0  0  0  0  0  0  0  0
   -3.0581   22.1278  -27.3763 H   0  0  0  0  0  0  0  0  0  0  0  0
   -4.1046   20.1072  -27.6549 H   0  0  0  0  0  0  0  0  0  0  0  0
   -2.7314   19.8935  -28.8490 H   0  0  0  0  0  0  0  0  0  0  0  0
   -2.3728   18.8237  -24.9978 H   0  0  0  0  0  0  0  0  0  0  0  0
   -3.9648   19.3694  -25.6259 H   0  0  0  0  0  0  0  0  0  0  0  0
   -3.5505   17.6215  -25.6259 H   0  0  0  0  0  0  0  0  0  0  0  0
   -0.7701   18.5960  -26.0187 H   0  0  0  0  0  0  0  0  0  0  0  0
   -0.8235   17.6987  -27.5739 H   0  0  0  0  0  0  0  0  0  0  0  0
   -0.6451   19.4861  -27.5739 H   0  0  0  0  0  0  0  0  0  0  0  0
    2.1458   19.0196  -30.8013 H   0  0  0  0  0  0  0  0  0  0  0  0
    0.7662   19.5916  -33.0319 H   0  0  0  0  0  0  0  0  0  0  0  0
   -1.9520   22.0900  -34.2270 H   0  0  0  0  0  0  0  0  0  0  0  0
   -0.7125   19.3425  -33.8624 H   0  0  0  0  0  0  0  0  0  0  0  0
   -1.8664   19.7438  -35.1994 H   0  0  0  0  0  0  0  0  0  0  0  0
    0.9023   19.8747  -35.3690 H   0  0  0  0  0  0  0  0  0  0  0  0
   -0.2733   20.7295  -36.4452 H   0  0  0  0  0  0  0  0  0  0  0  0
    0.0071   23.8983  -35.3850 H   0  0  0  0  0  0  0  0  0  0  0  0
    1.1631   23.1687  -36.5503 H   0  0  0  0  0  0  0  0  0  0  0  0
   -0.5576   22.6533  -36.5503 H   0  0  0  0  0  0  0  0  0  0  0  0
    2.2589   21.8672  -33.6425 H   0  0  0  0  0  0  0  0  0  0  0  0
    2.4638   20.9618  -35.1803 H   0  0  0  0  0  0  0  0  0  0  0  0
    2.5231   22.7571  -35.1803 H   0  0  0  0  0  0  0  0  0  0  0  0
  1  2  1  0
  2  3  1  0
  3  4  1  0
  4  5  1  0
  3  6  1  0
  6  7  1  0
  7  8  1  0
  8  9  1  0
  9 10  2  0
 10 11  1  0
 11 12  2  0
 12 13  1  0
 13 14  2  0
 14 15  1  0
 15 16  2  0
 16 17  1  0
 16 18  1  0
 18 19  2  0
 19 20  1  0
 20 21  1  0
 21 22  1  0
 22 23  1  0
 23 24  1  0
 23 25  1  0
 19 26  1  0
 26 27  1  0
 27 28  1  0
 28 29  2  0
 29 30  1  0
 30 31  1  0
 31 32  1  0
 32 33  1  0
 33 34  1  0
 34 35  1  0
 35 36  1  0
 35 37  1  0
 31 38  2  0
 38  9  1  0
 15 10  1  0
 38 18  1  0
 30 26  2  0
  1 39  1  0
  1 40  1  0
  1 41  1  0
  2 42  1  0
  2 43  1  0
  4 44  1  0
  4 45  1  0
  5 46  1  0
  5 47  1  0
  5 48  1  0
  6 49  1  0
  6 50  1  0
  7 51  1  0
  7 52  1  0
  8 53  1  0
  8 54  1  0
 11 55  1  0
 12 56  1  0
 13 57  1  0
 14 58  1  0
 17 59  1  0
 17 60  1  0
 17 61  1  0
 20 62  1  0
 21 63  1  0
 21 64  1  0
 22 65  1  0
 22 66  1  0
 24 67  1  0
 24 68  1  0
 24 69  1  0
 25 70  1  0
 25 71  1  0
 25 72  1  0
 28 73  1  0
 29 74  1  0
 32 75  1  0
 33 76  1  0
 33 77  1  0
 34 78  1  0
 34 79  1  0
 36 80  1  0
 36 81  1  0
 36 82  1  0
 37 83  1  0
 37 84  1  0
 37 85  1  0
M  CHG  2   8   1  16   1
M  END
>  <UniqueID>  (19) 
19

>  <SMILES>  (19) 
CCN(CC)CC[NH2+]c1c2ccccc2[n+](C)c2c(NCCN(C)C)c3occc3c(NCCN(C)C)c12

>  <Energy>  (19) 
175.5039257494989

>  <Genealogy>  (19) 
CCN(CC)CC[NH2+]c1c2ccccc2[n+](C)c2c(NCCN(C)C)c3occc3c(NCCN(C)C)c12 (protonated)
CCN(CC)CC[NH2+]c1c2ccccc2[n+](C)c2c(NCCN(C)C)c3occc3c(NCCN(C)C)c12 (3D coordinates assigned)
CCN(CC)CC[NH2+]c1c2ccccc2[n+](C)c2c(NCCN(C)C)c3occc3c(NCCN(C)C)c12 (optimized conformer: 175.5039257494989 kcal/mol)

>  <smiles>  (19) 
CCN(CC)CCNc1c2ccccc2[n+](C)c2c(NCCN(C)C)c3occc3c(NCCN(C)C)c12

>  <score_type>  (19) 
oracle

>  <origin>  (19) 
adg

>  <m_score__min__energy>  (19) 
-7.8700000000000001

>  <m_primary>  (19) 
energy

$$$$
19:0
     RDKit          3D

 39 39  0  0  0  0  0  0  0  0999 V2000
   -6.6876   23.9981  -31.1858 H   0  0  0  0  0  0  0  0  0  0  0  0
   -5.8060   23.4350  -31.5260 C   0  0  0  0  0  0  0  0  0  0  0  0
   -4.6350   24.0020  -31.5050 N   0  0  0  0  0  0  0  0  0  0  0  0
   -4.1750   24.8340  -30.4960 O   0  0  0  0  0  0  0  0  0  0  0  0
   -4.2430   24.5100  -29.1080 C   0  0  0  0  0  0  0  0  0  0  0  0
   -5.2930   24.3473  -28.8232 H   0  0  0  0  0  0  0  0  0  0  0  0
   -3.8214   25.3406  -28.5228 H   0  0  0  0  0  0  0  0  0  0  0  0
   -3.4390   23.2390  -28.8260 C   0  0  0  0  0  0  0  0  0  0  0  0
   -4.0029   22.6064  -28.1247 H   0  0  0  0  0  0  0  0  0  0  0  0
   -2.4698   23.5295  -28.3945 H   0  0  0  0  0  0  0  0  0  0  0  0
   -3.1890   22.4800  -30.0620 N   0  0  0  0  0  0  0  0  0  0  0  0
   -2.7970   23.1240  -30.7890 H   0  0  0  0  0  0  0  0  0  0  0  0
   -4.0900   22.0720  -30.4080 H   0  0  0  0  0  0  0  0  0  0  0  0
   -2.2330   21.3910  -29.8140 C   0  0  0  0  0  0  0  0  0  0  0  0
   -2.5366   20.5063  -30.3929 H   0  0  0  0  0  0  0  0  0  0  0  0
   -2.2307   21.1633  -28.7378 H   0  0  0  0  0  0  0  0  0  0  0  0
   -0.8200   21.8010  -30.2300 C   0  0  0  0  0  0  0  0  0  0  0  0
   -0.2102   21.9780  -29.3318 H   0  0  0  0  0  0  0  0  0  0  0  0
   -0.3664   20.9974  -30.8287 H   0  0  0  0  0  0  0  0  0  0  0  0
   -0.8669   22.7226  -30.8287 H   0  0  0  0  0  0  0  0  0  0  0  0
   -5.9680   22.0410  -32.0020 C   0  0  0  0  0  0  0  0  0  0  0  0
   -7.2290   21.4180  -31.9690 C   0  0  0  0  0  0  0  0  0  0  0  0
   -8.0994   21.9719  -31.5874 H   0  0  0  0  0  0  0  0  0  0  0  0
   -7.3880   20.1050  -32.4150 C   0  0  0  0  0  0  0  0  0  0  0  0
   -9.1260   19.3050  -32.3500 Br  0  0  0  0  0  0  0  0  0  0  0  0
   -6.2910   19.3850  -32.9030 C   0  0  0  0  0  0  0  0  0  0  0  0
   -6.4940   18.0660  -33.3430 O   0  0  0  0  0  0  0  0  0  0  0  0
   -5.9370   17.5150  -34.5320 C   0  0  0  0  0  0  0  0  0  0  0  0
   -5.1779   16.7641  -34.2675 H   0  0  0  0  0  0  0  0  0  0  0  0
   -6.7330   17.0391  -35.1235 H   0  0  0  0  0  0  0  0  0  0  0  0
   -5.4698   18.3161  -35.1235 H   0  0  0  0  0  0  0  0  0  0  0  0
   -5.0270   20.0000  -32.9390 C   0  0  0  0  0  0  0  0  0  0  0  0
   -4.1613   19.4396  -33.3218 H   0  0  0  0  0  0  0  0  0  0  0  0
   -4.8550   21.3250  -32.4910 C   0  0  0  0  0  0  0  0  0  0  0  0
   -3.5990   21.9550  -32.5210 O   0  0  0  0  0  0  0  0  0  0  0  0
   -2.4850   21.5100  -33.2880 C   0  0  0  0  0  0  0  0  0  0  0  0
   -1.6793   21.1882  -32.6118 H   0  0  0  0  0  0  0  0  0  0  0  0
   -2.7907   20.6650  -33.9224 H   0  0  0  0  0  0  0  0  0  0  0  0
   -2.1243   22.3331  -33.9224 H   0  0  0  0  0  0  0  0  0  0  0  0
  1  2  1  0
  2  3  2  0
  3  4  1  0
  4  5  1  0
  5  6  1  0
  5  7  1  0
  5  8  1  0
  8  9  1  0
  8 10  1  0
  8 11  1  0
 11 12  1  0
 11 13  1  0
 11 14  1  0
 14 15  1  0
 14 16  1  0
 14 17  1  0
 17 18  1  0
 17 19  1  0
 17 20  1  0
  2 21  1  0
 21 22  2  0
 22 23  1  0
 22 24  1  0
 24 25  1  0
 24 26  2  0
 26 27  1  0
 27 28  1  0
 28 29  1  0
 28 30  1  0
 28 31  1  0
 26 32  1  0
 32 33  1  0
 32 34  2  0
 34 35  1  0
 35 36  1  0
 36 37  1  0
 36 38  1  0
 36 39  1  0
 34 21  1  0
M  CHG  1  11   1
M  END
>  <UniqueID>  (20) 
20

>  <SMILES>  (20) 
CC[NH2+]CCO/N=C/c1cc(Br)c(OC)cc1OC

>  <Energy>  (20) 
31.243992815886156

>  <Genealogy>  (20) 
CC[NH2+]CCON=Cc1cc(Br)c(OC)cc1OC (protonated)
CC[NH2+]CCO/N=C/c1cc(Br)c(OC)cc1OC (cis-trans isomerization)
CC[NH2+]CCO/N=C/c1cc(Br)c(OC)cc1OC (3D coordinates assigned)
CC[NH2+]CCO/N=C/c1cc(Br)c(OC)cc1OC (optimized conformer: 31.243992815886156 kcal/mol)

>  <smiles>  (20) 
CCNCCON=Cc1cc(Br)c(OC)cc1OC

>  <score_type>  (20) 
oracle

>  <origin>  (20) 
adg

>  <m_score__min__energy>  (20) 
-6.6200000000000001

>  <m_primary>  (20) 
energy

$$$$
20:0
     RDKit          3D

 47 50  0  0  0  0  0  0  0  0999 V2000
   -6.1030   25.3670  -29.7330 C   0  0  0  0  0  0  0  0  0  0  0  0
   -4.9630   24.6190  -30.4190 C   0  0  0  0  0  0  0  0  0  0  0  0
   -5.0790   23.1710  -30.1850 N   0  0  0  0  0  0  0  0  0  0  0  0
   -4.0590   22.5100  -29.3570 C   0  0  0  0  0  0  0  0  0  0  0  0
   -3.3800   23.5180  -28.4660 C   0  0  0  0  0  0  0  0  0  0  0  0
   -4.0370   24.0090  -27.3280 C   0  0  0  0  0  0  0  0  0  0  0  0
   -3.3970   24.9190  -26.4850 C   0  0  0  0  0  0  0  0  0  0  0  0
   -2.0970   25.3440  -26.7670 C   0  0  0  0  0  0  0  0  0  0  0  0
   -1.4220   24.8630  -27.8960 C   0  0  0  0  0  0  0  0  0  0  0  0
   -0.1190   25.3230  -28.1370 O   0  0  0  0  0  0  0  0  0  0  0  0
    0.8530   25.5500  -27.1230 C   0  0  0  0  0  0  0  0  0  0  0  0
   -2.0690   23.9410  -28.7420 C   0  0  0  0  0  0  0  0  0  0  0  0
   -6.1080   22.3960  -30.8440 C   0  0  0  0  0  0  0  0  0  0  0  0
   -5.9000   21.1950  -31.5530 C   0  0  0  0  0  0  0  0  0  0  0  0
   -7.0560   20.7220  -32.0670 N   0  0  0  0  0  0  0  0  0  0  0  0
   -7.5090   19.7290  -32.8480 C   0  0  0  0  0  0  0  0  0  0  0  0
   -6.7060   18.6190  -33.4020 C   0  0  0  0  0  0  0  0  0  0  0  0
   -5.7840   18.8610  -34.4360 C   0  0  0  0  0  0  0  0  0  0  0  0
   -5.0230   17.8140  -34.9640 C   0  0  0  0  0  0  0  0  0  0  0  0
   -5.1820   16.5150  -34.4750 C   0  0  0  0  0  0  0  0  0  0  0  0
   -4.4390   15.5030  -34.9860 F   0  0  0  0  0  0  0  0  0  0  0  0
   -6.1080   16.2610  -33.4590 C   0  0  0  0  0  0  0  0  0  0  0  0
   -6.8690   17.3060  -32.9260 C   0  0  0  0  0  0  0  0  0  0  0  0
   -8.8370   19.9180  -33.0700 N   0  0  0  0  0  0  0  0  0  0  0  0
   -9.2320   21.0200  -32.4320 N   0  0  0  0  0  0  0  0  0  0  0  0
   -8.1160   21.4690  -31.8350 C   0  0  0  0  0  0  0  0  0  0  0  0
   -7.7720   22.8340  -30.9300 S   0  0  0  0  0  0  0  0  0  0  0  0
   -5.9871   25.2910  -28.6418 H   0  0  0  0  0  0  0  0  0  0  0  0
   -6.0790   26.4255  -30.0314 H   0  0  0  0  0  0  0  0  0  0  0  0
   -7.0644   24.9236  -30.0314 H   0  0  0  0  0  0  0  0  0  0  0  0
   -5.0016   24.8146  -31.5008 H   0  0  0  0  0  0  0  0  0  0  0  0
   -4.0073   24.9701  -30.0027 H   0  0  0  0  0  0  0  0  0  0  0  0
   -4.5388   21.7399  -28.7350 H   0  0  0  0  0  0  0  0  0  0  0  0
   -3.3077   22.0472  -30.0138 H   0  0  0  0  0  0  0  0  0  0  0  0
   -5.0600   23.6758  -27.0992 H   0  0  0  0  0  0  0  0  0  0  0  0
   -3.9184   25.3026  -25.5956 H   0  0  0  0  0  0  0  0  0  0  0  0
   -1.5997   26.0615  -26.0978 H   0  0  0  0  0  0  0  0  0  0  0  0
    0.3838   25.4404  -26.1342 H   0  0  0  0  0  0  0  0  0  0  0  0
    1.6676   24.8179  -27.2255 H   0  0  0  0  0  0  0  0  0  0  0  0
    1.2591   26.5671  -27.2255 H   0  0  0  0  0  0  0  0  0  0  0  0
   -1.5437   23.5492  -29.6255 H   0  0  0  0  0  0  0  0  0  0  0  0
   -4.9219   20.7061  -31.6722 H   0  0  0  0  0  0  0  0  0  0  0  0
   -5.6610   19.8800  -34.8316 H   0  0  0  0  0  0  0  0  0  0  0  0
   -4.2974   18.0133  -35.7663 H   0  0  0  0  0  0  0  0  0  0  0  0
   -6.2382   15.2373  -33.0782 H   0  0  0  0  0  0  0  0  0  0  0  0
   -7.5994   17.0997  -32.1298 H   0  0  0  0  0  0  0  0  0  0  0  0
   -9.4700   19.3110  -33.6350 H   0  0  0  0  0  0  0  0  0  0  0  0
  1  2  1  0
  2  3  1  0
  3  4  1  0
  4  5  1  0
  5  6  2  0
  6  7  1  0
  7  8  2  0
  8  9  1  0
  9 10  1  0
 10 11  1  0
  9 12  2  0
  3 13  1  0
 13 14  2  0
 14 15  1  0
 15 16  1  0
 16 17  1  0
 17 18  2  0
 18 19  1  0
 19 20  2  0
 20 21  1  0
 20 22  1  0
 22 23  2  0
 16 24  2  0
 24 25  1  0
 25 26  2  0
 26 27  1  0
 12  5  1  0
 27 13  1  0
 26 15  1  0
 23 17  1  0
  1 28  1  0
  1 29  1  0
  1 30  1  0
  2 31  1  0
  2 32  1  0
  4 33  1  0
  4 34  1  0
  6 35  1  0
  7 36  1  0
  8 37  1  0
 11 38  1  0
 11 39  1  0
 11 40  1  0
 12 41  1  0
 14 42  1  0
 18 43  1  0
 19 44  1  0
 22 45  1  0
 23 46  1  0
 24 47  1  0
M  CHG  1  24   1
M  END
>  <UniqueID>  (21) 
21

>  <SMILES>  (21) 
CCN(Cc1cccc(OC)c1)c1cn2c(-c3ccc(F)cc3)[nH+]nc2s1

>  <Energy>  (21) 
137.07821260212737

>  <Genealogy>  (21) 
CCN(Cc1cccc(OC)c1)c1cn2c(-c3ccc(F)cc3)[nH+]nc2s1 (protonated)
CCN(Cc1cccc(OC)c1)c1cn2c(-c3ccc(F)cc3)[nH+]nc2s1 (3D coordinates assigned)
CCN(Cc1cccc(OC)c1)c1cn2c(-c3ccc(F)cc3)[nH+]nc2s1 (optimized conformer: 137.07821260212737 kcal/mol)

>  <smiles>  (21) 
CCN(Cc1cccc(OC)c1)c1cn2c(-c3ccc(F)cc3)nnc2s1

>  <score_type>  (21) 
oracle

>  <origin>  (21) 
adg

>  <m_score__min__energy>  (21) 
-8.8699999999999992

>  <m_primary>  (21) 
energy

$$$$
21:0
     RDKit          3D

 57 59  0  0  0  0  0  0  0  0999 V2000
   -6.4930   17.0660  -31.6060 C   0  0  0  0  0  0  0  0  0  0  0  0
   -6.2130   16.7940  -33.0930 C   0  0  0  0  0  0  0  0  0  0  0  0
   -5.1300   17.6150  -33.6980 N   0  0  1  0  0  0  0  0  0  0  0  0
   -4.5970   17.0450  -34.9490 C   0  0  0  0  0  0  0  0  0  0  0  0
   -5.5420   18.9980  -33.9060 C   0  0  0  0  0  0  0  0  0  0  0  0
   -6.1590   19.2850  -34.9230 O   0  0  0  0  0  0  0  0  0  0  0  0
   -5.2820   20.1310  -32.8900 C   0  0  0  0  0  0  0  0  0  0  0  0
   -6.6500   20.7780  -32.5610 C   0  0  0  0  0  0  0  0  0  0  0  0
   -6.6920   22.1620  -32.2800 C   0  0  0  0  0  0  0  0  0  0  0  0
   -7.8930   22.7990  -31.9620 C   0  0  0  0  0  0  0  0  0  0  0  0
   -9.0780   22.0690  -31.9050 C   0  0  0  0  0  0  0  0  0  0  0  0
   -9.0630   20.7000  -32.1610 C   0  0  0  0  0  0  0  0  0  0  0  0
   -7.8650   20.0540  -32.4830 C   0  0  0  0  0  0  0  0  0  0  0  0
   -4.5950   19.4600  -31.6570 C   0  0  0  0  0  0  0  0  0  0  0  0
   -3.7810   20.4780  -30.8430 C   0  0  0  0  0  0  0  0  0  0  0  0
   -2.6310   21.0000  -31.6180 N   0  0  0  0  0  0  0  0  0  0  0  0
   -2.1430   22.2790  -31.0600 C   0  0  0  0  0  0  0  0  0  0  0  0
   -3.2810   23.3000  -30.9690 C   0  0  0  0  0  0  0  0  0  0  0  0
   -3.5750   23.6230  -29.5730 N   0  0  0  0  0  0  0  0  0  0  0  0
   -2.7260   23.2620  -28.4430 C   0  0  0  0  0  0  0  0  0  0  0  0
   -3.4110   23.8680  -27.1940 C   0  0  0  0  0  0  0  0  0  0  0  0
   -4.6040   24.5440  -27.6830 N   0  0  0  0  0  0  0  0  0  0  0  0
   -4.6620   24.3880  -29.0820 C   0  0  0  0  0  0  0  0  0  0  0  0
   -5.9590   24.8420  -29.9720 S   0  0  0  0  0  0  0  0  0  0  0  0
   -2.8740   21.0780  -33.0840 C   0  0  0  0  0  0  0  0  0  0  0  0
   -4.3630   21.2830  -33.4290 C   0  0  0  0  0  0  0  0  0  0  0  0
   -5.8403   16.4319  -30.9880 H   0  0  0  0  0  0  0  0  0  0  0  0
   -6.2937   18.1246  -31.3830 H   0  0  0  0  0  0  0  0  0  0  0  0
   -7.5453   16.8361  -31.3830 H   0  0  0  0  0  0  0  0  0  0  0  0
   -5.9351   15.7349  -33.1980 H   0  0  0  0  0  0  0  0  0  0  0  0
   -7.1344   17.0641  -33.6297 H   0  0  0  0  0  0  0  0  0  0  0  0
   -4.3480   17.5730  -33.0150 H   0  0  0  0  0  0  0  0  0  0  0  0
   -3.8635   16.2605  -34.7112 H   0  0  0  0  0  0  0  0  0  0  0  0
   -5.4210   16.6112  -35.5346 H   0  0  0  0  0  0  0  0  0  0  0  0
   -4.1089   17.8380  -35.5346 H   0  0  0  0  0  0  0  0  0  0  0  0
   -5.7618   22.7482  -32.3123 H   0  0  0  0  0  0  0  0  0  0  0  0
   -7.9035   23.8795  -31.7561 H   0  0  0  0  0  0  0  0  0  0  0  0
  -10.0241   22.5729  -31.6582 H   0  0  0  0  0  0  0  0  0  0  0  0
   -9.9985   20.1237  -32.1096 H   0  0  0  0  0  0  0  0  0  0  0  0
   -7.8663   18.9714  -32.6779 H   0  0  0  0  0  0  0  0  0  0  0  0
   -5.3698   19.0227  -31.0102 H   0  0  0  0  0  0  0  0  0  0  0  0
   -3.9080   18.6836  -32.0247 H   0  0  0  0  0  0  0  0  0  0  0  0
   -4.4349   21.3177  -30.5649 H   0  0  0  0  0  0  0  0  0  0  0  0
   -3.3915   19.9709  -29.9479 H   0  0  0  0  0  0  0  0  0  0  0  0
   -1.7357   22.1018  -30.0537 H   0  0  0  0  0  0  0  0  0  0  0  0
   -1.3618   22.6787  -31.7233 H   0  0  0  0  0  0  0  0  0  0  0  0
   -2.9855   24.2183  -31.4976 H   0  0  0  0  0  0  0  0  0  0  0  0
   -4.1817   22.8678  -31.4294 H   0  0  0  0  0  0  0  0  0  0  0  0
   -2.6565   22.1682  -28.3495 H   0  0  0  0  0  0  0  0  0  0  0  0
   -1.7009   23.6410  -28.5679 H   0  0  0  0  0  0  0  0  0  0  0  0
   -3.6850   23.0735  -26.4843 H   0  0  0  0  0  0  0  0  0  0  0  0
   -2.7425   24.5614  -26.6627 H   0  0  0  0  0  0  0  0  0  0  0  0
   -5.3200   25.0220  -27.0900 H   0  0  0  0  0  0  0  0  0  0  0  0
   -2.2985   21.9221  -33.4919 H   0  0  0  0  0  0  0  0  0  0  0  0
   -2.5589   20.1208  -33.5250 H   0  0  0  0  0  0  0  0  0  0  0  0
   -4.6973   22.2335  -32.9877 H   0  0  0  0  0  0  0  0  0  0  0  0
   -4.4490   21.2864  -34.5256 H   0  0  0  0  0  0  0  0  0  0  0  0
  1  2  1  0
  2  3  1  0
  3  4  1  0
  3  5  1  0
  5  6  2  0
  5  7  1  0
  7  8  1  0
  8  9  2  0
  9 10  1  0
 10 11  2  0
 11 12  1  0
 12 13  2  0
  7 14  1  0
 14 15  1  0
 15 16  1  0
 16 17  1  0
 17 18  1  0
 18 19  1  0
 19 20  1  0
 20 21  1  0
 21 22  1  0
 22 23  1  0
 23 24  2  0
 16 25  1  0
 25 26  1  0
 26  7  1  0
 13  8  1  0
 23 19  1  0
  1 27  1  0
  1 28  1  0
  1 29  1  0
  2 30  1  0
  2 31  1  0
  3 32  1  1
  4 33  1  0
  4 34  1  0
  4 35  1  0
  9 36  1  0
 10 37  1  0
 11 38  1  0
 12 39  1  0
 13 40  1  0
 14 41  1  0
 14 42  1  0
 15 43  1  0
 15 44  1  0
 17 45  1  0
 17 46  1  0
 18 47  1  0
 18 48  1  0
 20 49  1  0
 20 50  1  0
 21 51  1  0
 21 52  1  0
 22 53  1  0
 25 54  1  0
 25 55  1  0
 26 56  1  0
 26 57  1  0
M  CHG  1   3   1
M  END
>  <UniqueID>  (22) 
22

>  <SMILES>  (22) 
CC[N@@H+](C)C(=O)C1(c2ccccc2)CCN(CCN2CCNC2=S)CC1

>  <Energy>  (22) 
90.0860146452439

>  <Genealogy>  (22) 
CC[NH+](C)C(=O)C1(c2ccccc2)CCN(CCN2CCNC2=S)CC1 (protonated)
CC[N@@H+](C)C(=O)C1(c2ccccc2)CCN(CCN2CCNC2=S)CC1 (chirality)
CC[N@@H+](C)C(=O)C1(c2ccccc2)CCN(CCN2CCNC2=S)CC1 (3D coordinates assigned)
CC[N@@H+](C)C(=O)C1(c2ccccc2)CCN(CCN2CCNC2=S)CC1 (nonaromatic ring conformer: 90.0860146452439 kcal/mol)

>  <smiles>  (22) 
CCN(C)C(=O)C1(c2ccccc2)CCN(CCN2CCNC2=S)CC1

>  <score_type>  (22) 
oracle

>  <origin>  (22) 
adg

>  <m_score__min__energy>  (22) 
-7.5499999999999998

>  <m_primary>  (22) 
energy

$$$$
22:0
     RDKit          3D

 59 61  0  0  0  0  0  0  0  0999 V2000
   -1.2050   25.5860  -28.3330 C   0  0  0  0  0  0  0  0  0  0  0  0
   -1.6420   25.3260  -26.8930 C   0  0  0  0  0  0  0  0  0  0  0  0
   -3.1160   24.9170  -26.8090 C   0  0  0  0  0  0  0  0  0  0  0  0
   -3.5730   24.4060  -28.1080 N   0  0  0  0  0  0  0  0  0  0  0  0
   -4.2220   23.0880  -28.0080 C   0  0  0  0  0  0  0  0  0  0  0  0
   -3.4370   21.9440  -28.6860 C   0  0  0  0  0  0  0  0  0  0  0  0
   -1.9810   22.2780  -29.0310 C   0  0  0  0  0  0  0  0  0  0  0  0
   -1.8950   22.8970  -30.3600 N   0  0  0  0  0  0  0  0  0  0  0  0
   -1.4160   21.9400  -31.3650 C   0  0  0  0  0  0  0  0  0  0  0  0
   -2.3320   20.7130  -31.4260 C   0  0  0  0  0  0  0  0  0  0  0  0
   -3.1950   20.7530  -32.6080 N   0  0  0  0  0  0  0  0  0  0  0  0
   -4.6140   20.5390  -32.5150 C   0  0  0  0  0  0  0  0  0  0  0  0
   -5.1950   19.3790  -33.0560 C   0  0  0  0  0  0  0  0  0  0  0  0
   -4.4340   18.4890  -33.8420 C   0  0  0  0  0  0  0  0  0  0  0  0
   -5.0220   17.3640  -34.4140 C   0  0  0  0  0  0  0  0  0  0  0  0
   -6.3790   17.1190  -34.2320 C   0  0  0  0  0  0  0  0  0  0  0  0
   -7.1520   17.9880  -33.4610 C   0  0  0  0  0  0  0  0  0  0  0  0
   -6.5740   19.1220  -32.8340 C   0  0  0  0  0  0  0  0  0  0  0  0
   -7.3180   19.9750  -32.0430 N   0  0  0  0  0  0  0  0  0  0  0  0
   -8.6500   19.5560  -31.5510 C   0  0  0  0  0  0  0  0  0  0  0  0
   -6.8080   21.2110  -31.6900 C   0  0  0  0  0  0  0  0  0  0  0  0
   -7.6210   22.2160  -31.1140 C   0  0  0  0  0  0  0  0  0  0  0  0
   -7.0820   23.4350  -30.7060 C   0  0  0  0  0  0  0  0  0  0  0  0
   -5.7190   23.7040  -30.8710 C   0  0  0  0  0  0  0  0  0  0  0  0
   -5.1610   24.9580  -30.4360 N   0  0  0  0  0  0  0  0  0  0  0  0
   -5.8710   25.7970  -29.8390 O   0  0  0  0  0  0  0  0  0  0  0  0
   -3.8350   25.2530  -30.6650 O   0  0  0  0  0  0  0  0  0  0  0  0
   -4.9050   22.7350  -31.4730 C   0  0  0  0  0  0  0  0  0  0  0  0
   -5.4360   21.5010  -31.9010 C   0  0  0  0  0  0  0  0  0  0  0  0
   -0.2597   26.1484  -28.3334 H   0  0  0  0  0  0  0  0  0  0  0  0
   -1.0611   24.6266  -28.8514 H   0  0  0  0  0  0  0  0  0  0  0  0
   -1.9795   26.1703  -28.8514 H   0  0  0  0  0  0  0  0  0  0  0  0
   -1.0242   24.5180  -26.4741 H   0  0  0  0  0  0  0  0  0  0  0  0
   -1.5137   26.2585  -26.3239 H   0  0  0  0  0  0  0  0  0  0  0  0
   -3.2328   24.1317  -26.0476 H   0  0  0  0  0  0  0  0  0  0  0  0
   -3.7184   25.7959  -26.5358 H   0  0  0  0  0  0  0  0  0  0  0  0
   -4.2270   25.0940  -28.5450 H   0  0  0  0  0  0  0  0  0  0  0  0
   -4.3402   22.8414  -26.9425 H   0  0  0  0  0  0  0  0  0  0  0  0
   -5.1839   23.1679  -28.5356 H   0  0  0  0  0  0  0  0  0  0  0  0
   -3.4376   21.0791  -28.0063 H   0  0  0  0  0  0  0  0  0  0  0  0
   -3.9436   21.7458  -29.6421 H   0  0  0  0  0  0  0  0  0  0  0  0
   -1.5823   22.9762  -28.2803 H   0  0  0  0  0  0  0  0  0  0  0  0
   -1.3942   21.3476  -29.0339 H   0  0  0  0  0  0  0  0  0  0  0  0
   -2.8570   23.2040  -30.6380 H   0  0  0  0  0  0  0  0  0  0  0  0
   -1.4011   22.4286  -32.3504 H   0  0  0  0  0  0  0  0  0  0  0  0
   -0.4039   21.6117  -31.0859 H   0  0  0  0  0  0  0  0  0  0  0  0
   -1.7126   19.8048  -31.4649 H   0  0  0  0  0  0  0  0  0  0  0  0
   -2.9698   20.7104  -30.5298 H   0  0  0  0  0  0  0  0  0  0  0  0
   -2.7820   21.0270  -33.5300 H   0  0  0  0  0  0  0  0  0  0  0  0
   -3.3641   18.6858  -34.0049 H   0  0  0  0  0  0  0  0  0  0  0  0
   -4.4130   16.6685  -35.0102 H   0  0  0  0  0  0  0  0  0  0  0  0
   -6.8443   16.2375  -34.6973 H   0  0  0  0  0  0  0  0  0  0  0  0
   -8.2271   17.7907  -33.3373 H   0  0  0  0  0  0  0  0  0  0  0  0
   -8.6511   19.5556  -30.4510 H   0  0  0  0  0  0  0  0  0  0  0  0
   -9.4138   20.2573  -31.9182 H   0  0  0  0  0  0  0  0  0  0  0  0
   -8.8748   18.5438  -31.9182 H   0  0  0  0  0  0  0  0  0  0  0  0
   -8.6979   22.0318  -30.9859 H   0  0  0  0  0  0  0  0  0  0  0  0
   -7.7351   24.1934  -30.2495 H   0  0  0  0  0  0  0  0  0  0  0  0
   -3.8336   22.9406  -31.6140 H   0  0  0  0  0  0  0  0  0  0  0  0
  1  2  1  0
  2  3  1  0
  3  4  1  0
  4  5  1  0
  5  6  1  0
  6  7  1  0
  7  8  1  0
  8  9  1  0
  9 10  1  0
 10 11  1  0
 11 12  1  0
 12 13  2  0
 13 14  1  0
 14 15  2  0
 15 16  1  0
 16 17  2  0
 17 18  1  0
 18 19  2  0
 19 20  1  0
 19 21  1  0
 21 22  2  0
 22 23  1  0
 23 24  2  0
 24 25  1  0
 25 26  2  0
 25 27  1  0
 24 28  1  0
 28 29  2  0
 29 12  1  0
 18 13  1  0
 29 21  1  0
  1 30  1  0
  1 31  1  0
  1 32  1  0
  2 33  1  0
  2 34  1  0
  3 35  1  0
  3 36  1  0
  4 37  1  0
  5 38  1  0
  5 39  1  0
  6 40  1  0
  6 41  1  0
  7 42  1  0
  7 43  1  0
  8 44  1  0
  9 45  1  0
  9 46  1  0
 10 47  1  0
 10 48  1  0
 11 49  1  0
 14 50  1  0
 15 51  1  0
 16 52  1  0
 17 53  1  0
 20 54  1  0
 20 55  1  0
 20 56  1  0
 22 57  1  0
 23 58  1  0
 28 59  1  0
M  CHG  3  19   1  25   1  27  -1
M  END
>  <UniqueID>  (23) 
23

>  <SMILES>  (23) 
CCCNCCCNCCNc1c2ccccc2[n+](C)c2ccc([N+](=O)[O-])cc12

>  <Energy>  (23) 
74.25043783846046

>  <Genealogy>  (23) 
CCCNCCCNCCNc1c2ccccc2[n+](C)c2ccc([N+](=O)[O-])cc12 (3D coordinates assigned)
CCCNCCCNCCNc1c2ccccc2[n+](C)c2ccc([N+](=O)[O-])cc12 (optimized conformer: 74.25043783846046 kcal/mol)

>  <smiles>  (23) 
CCCNCCCNCCNc1c2ccccc2[n+](C)c2ccc([N+](=O)[O-])cc12

>  <score_type>  (23) 
oracle

>  <origin>  (23) 
adg

>  <m_score__min__energy>  (23) 
-10.119999999999999

>  <m_primary>  (23) 
energy

$$$$
23:0
     RDKit          3D

 80 83  0  0  0  0  0  0  0  0999 V2000
    0.6810   22.3450  -35.7500 C   0  0  0  0  0  0  0  0  0  0  0  0
   -0.1240   21.6010  -34.6850 C   0  0  0  0  0  0  0  0  0  0  0  0
   -0.2000   20.0890  -34.9480 C   0  0  0  0  0  0  0  0  0  0  0  0
    0.6400   19.2740  -33.9520 C   0  0  0  0  0  0  0  0  0  0  0  0
   -0.2310   18.4770  -33.0720 N   0  0  0  0  0  0  0  0  0  0  0  0
   -0.1540   18.9110  -31.6660 C   0  0  0  0  0  0  0  0  0  0  0  0
   -1.4200   19.6430  -31.1850 C   0  0  0  0  0  0  0  0  0  0  0  0
   -1.9580   20.5210  -32.2220 N   0  0  0  0  0  0  0  0  0  0  0  0
   -3.3700   20.7880  -32.2720 C   0  0  0  0  0  0  0  0  0  0  0  0
   -4.2190   19.9540  -33.0170 C   0  0  0  0  0  0  0  0  0  0  0  0
   -3.6970   18.8850  -33.7760 C   0  0  0  0  0  0  0  0  0  0  0  0
   -4.5330   18.0870  -34.5520 C   0  0  0  0  0  0  0  0  0  0  0  0
   -5.8960   18.3520  -34.6020 C   0  0  0  0  0  0  0  0  0  0  0  0
   -6.4360   19.4030  -33.8590 C   0  0  0  0  0  0  0  0  0  0  0  0
   -5.6160   20.2090  -33.0280 C   0  0  0  0  0  0  0  0  0  0  0  0
   -6.1390   21.2320  -32.2600 N   0  0  0  0  0  0  0  0  0  0  0  0
   -7.6000   21.3200  -32.0430 C   0  0  0  0  0  0  0  0  0  0  0  0
   -5.2950   22.1590  -31.6730 C   0  0  0  0  0  0  0  0  0  0  0  0
   -5.7850   23.3640  -31.1120 C   0  0  0  0  0  0  0  0  0  0  0  0
   -4.9310   24.2740  -30.4650 C   0  0  0  0  0  0  0  0  0  0  0  0
   -5.4040   25.4650  -29.8890 O   0  0  0  0  0  0  0  0  0  0  0  0
   -6.7240   25.6580  -29.3910 C   0  0  0  0  0  0  0  0  0  0  0  0
   -3.5650   24.0020  -30.3810 C   0  0  0  0  0  0  0  0  0  0  0  0
   -2.7430   24.9300  -29.7230 O   0  0  0  0  0  0  0  0  0  0  0  0
   -2.1210   24.7160  -28.4570 C   0  0  0  0  0  0  0  0  0  0  0  0
   -1.0360   23.6210  -28.5790 C   0  0  0  0  0  0  0  0  0  0  0  0
   -0.9550   22.6430  -27.4420 N   0  0  0  0  0  0  0  0  0  0  0  0
   -0.9150   23.3680  -26.1440 C   0  0  0  0  0  0  0  0  0  0  0  0
    0.2800   21.7910  -27.5690 C   0  0  0  0  0  0  0  0  0  0  0  0
    0.0450   20.4950  -28.3610 C   0  0  0  0  0  0  0  0  0  0  0  0
   -0.9890   19.6000  -27.6590 C   0  0  0  0  0  0  0  0  0  0  0  0
   -2.0200   20.4120  -26.8600 C   0  0  0  0  0  0  0  0  0  0  0  0
   -2.2090   21.8110  -27.4710 C   0  0  0  0  0  0  0  0  0  0  0  0
   -3.0540   22.8310  -30.9610 C   0  0  0  0  0  0  0  0  0  0  0  0
   -3.8980   21.9250  -31.6360 C   0  0  0  0  0  0  0  0  0  0  0  0
    1.4049   23.0140  -35.2617 H   0  0  0  0  0  0  0  0  0  0  0  0
    1.2184   21.6187  -36.3774 H   0  0  0  0  0  0  0  0  0  0  0  0
   -0.0008   22.9378  -36.3774 H   0  0  0  0  0  0  0  0  0  0  0  0
    0.3512   21.7646  -33.7065 H   0  0  0  0  0  0  0  0  0  0  0  0
   -1.1509   21.9946  -34.7093 H   0  0  0  0  0  0  0  0  0  0  0  0
   -1.2496   19.7696  -34.8681 H   0  0  0  0  0  0  0  0  0  0  0  0
    0.2041   19.9047  -35.9544 H   0  0  0  0  0  0  0  0  0  0  0  0
    1.3069   18.5991  -34.5085 H   0  0  0  0  0  0  0  0  0  0  0  0
    1.2302   19.9671  -33.3345 H   0  0  0  0  0  0  0  0  0  0  0  0
   -1.2200   18.5980  -33.3900 H   0  0  0  0  0  0  0  0  0  0  0  0
    0.0050   17.4600  -33.1530 H   0  0  0  0  0  0  0  0  0  0  0  0
   -0.0026   18.0233  -31.0343 H   0  0  0  0  0  0  0  0  0  0  0  0
    0.6823   19.6214  -31.5894 H   0  0  0  0  0  0  0  0  0  0  0  0
   -2.1833   18.8979  -30.9162 H   0  0  0  0  0  0  0  0  0  0  0  0
   -1.1519   20.2605  -30.3151 H   0  0  0  0  0  0  0  0  0  0  0  0
   -1.3170   21.1890  -32.7060 H   0  0  0  0  0  0  0  0  0  0  0  0
   -2.6165   18.6798  -33.7542 H   0  0  0  0  0  0  0  0  0  0  0  0
   -4.1146   17.2468  -35.1255 H   0  0  0  0  0  0  0  0  0  0  0  0
   -6.5521   17.7311  -35.2296 H   0  0  0  0  0  0  0  0  0  0  0  0
   -7.5148   19.6096  -33.9188 H   0  0  0  0  0  0  0  0  0  0  0  0
   -7.8102   21.3327  -30.9633 H   0  0  0  0  0  0  0  0  0  0  0  0
   -7.9840   22.2429  -32.5022 H   0  0  0  0  0  0  0  0  0  0  0  0
   -8.0920   20.4499  -32.5022 H   0  0  0  0  0  0  0  0  0  0  0  0
   -6.8585   23.5928  -31.1843 H   0  0  0  0  0  0  0  0  0  0  0  0
   -6.7050   25.6552  -28.2912 H   0  0  0  0  0  0  0  0  0  0  0  0
   -7.1134   26.6226  -29.7486 H   0  0  0  0  0  0  0  0  0  0  0  0
   -7.3733   24.8452  -29.7486 H   0  0  0  0  0  0  0  0  0  0  0  0
   -1.6562   25.6530  -28.1165 H   0  0  0  0  0  0  0  0  0  0  0  0
   -2.8814   24.3915  -27.7314 H   0  0  0  0  0  0  0  0  0  0  0  0
   -1.2349   23.0515  -29.4989 H   0  0  0  0  0  0  0  0  0  0  0  0
   -0.0746   24.1556  -28.5786 H   0  0  0  0  0  0  0  0  0  0  0  0
   -0.9550   22.6430  -25.3177 H   0  0  0  0  0  0  0  0  0  0  0  0
    0.0166   23.9491  -26.0772 H   0  0  0  0  0  0  0  0  0  0  0  0
   -1.7770   24.0481  -26.0772 H   0  0  0  0  0  0  0  0  0  0  0  0
    1.0575   22.3771  -28.0810 H   0  0  0  0  0  0  0  0  0  0  0  0
    0.5822   21.5012  -26.5518 H   0  0  0  0  0  0  0  0  0  0  0  0
   -0.3227   20.7493  -29.3660 H   0  0  0  0  0  0  0  0  0  0  0  0
    0.9964   19.9467  -28.4260 H   0  0  0  0  0  0  0  0  0  0  0  0
   -1.5185   19.0081  -28.4201 H   0  0  0  0  0  0  0  0  0  0  0  0
   -0.4484   18.9548  -26.9508 H   0  0  0  0  0  0  0  0  0  0  0  0
   -2.9833   19.8811  -26.8708 H   0  0  0  0  0  0  0  0  0  0  0  0
   -1.6554   20.5252  -25.8284 H   0  0  0  0  0  0  0  0  0  0  0  0
   -2.5284   21.6957  -28.5173 H   0  0  0  0  0  0  0  0  0  0  0  0
   -2.9634   22.3341  -26.8650 H   0  0  0  0  0  0  0  0  0  0  0  0
   -1.9777   22.6162  -30.8880 H   0  0  0  0  0  0  0  0  0  0  0  0
  1  2  1  0
  2  3  1  0
  3  4  1  0
  4  5  1  0
  5  6  1  0
  6  7  1  0
  7  8  1  0
  8  9  1  0
  9 10  2  0
 10 11  1  0
 11 12  2  0
 12 13  1  0
 13 14  2  0
 14 15  1  0
 15 16  2  0
 16 17  1  0
 16 18  1  0
 18 19  2  0
 19 20  1  0
 20 21  1  0
 21 22  1  0
 20 23  2  0
 23 24  1  0
 24 25  1  0
 25 26  1  0
 26 27  1  0
 27 28  1  0
 27 29  1  0
 29 30  1  0
 30 31  1  0
 31 32  1  0
 32 33  1  0
 23 34  1  0
 34 35  2  0
 35  9  1  0
 15 10  1  0
 35 18  1  0
 33 27  1  0
  1 36  1  0
  1 37  1  0
  1 38  1  0
  2 39  1  0
  2 40  1  0
  3 41  1  0
  3 42  1  0
  4 43  1  0
  4 44  1  0
  5 45  1  0
  5 46  1  0
  6 47  1  0
  6 48  1  0
  7 49  1  0
  7 50  1  0
  8 51  1  0
 11 52  1  0
 12 53  1  0
 13 54  1  0
 14 55  1  0
 17 56  1  0
 17 57  1  0
 17 58  1  0
 19 59  1  0
 22 60  1  0
 22 61  1  0
 22 62  1  0
 25 63  1  0
 25 64  1  0
 26 65  1  0
 26 66  1  0
 28 67  1  0
 28 68  1  0
 28 69  1  0
 29 70  1  0
 29 71  1  0
 30 72  1  0
 30 73  1  0
 31 74  1  0
 31 75  1  0
 32 76  1  0
 32 77  1  0
 33 78  1  0
 33 79  1  0
 34 80  1  0
M  CHG  3   5   1  16   1  27   1
M  END
>  <UniqueID>  (24) 
24

>  <SMILES>  (24) 
CCCC[NH2+]CCNc1c2ccccc2[n+](C)c2cc(OC)c(OCC[N+]3(C)CCCCC3)cc12

>  <Energy>  (24) 
115.56109829665778

>  <Genealogy>  (24) 
CCCC[NH2+]CCNc1c2ccccc2[n+](C)c2cc(OC)c(OCC[N+]3(C)CCCCC3)cc12 (protonated)
CCCC[NH2+]CCNc1c2ccccc2[n+](C)c2cc(OC)c(OCC[N+]3(C)CCCCC3)cc12 (3D coordinates assigned)
CCCC[NH2+]CCNc1c2ccccc2[n+](C)c2cc(OC)c(OCC[N+]3(C)CCCCC3)cc12 (nonaromatic ring conformer: 115.56109829665778 kcal/mol)

>  <smiles>  (24) 
CCCCNCCNc1c2ccccc2[n+](C)c2cc(OC)c(OCC[N+]3(C)CCCCC3)cc12

>  <score_type>  (24) 
oracle

>  <origin>  (24) 
adg

>  <m_score__min__energy>  (24) 
-7.7800000000000002

>  <m_primary>  (24) 
energy

$$$$
24:0
     RDKit          3D

 40 42  0  0  0  0  0  0  0  0999 V2000
   -6.0000   26.1050  -30.2560 O   0  0  0  0  0  0  0  0  0  0  0  0
   -5.2570   25.2190  -30.7530 C   0  0  0  0  0  0  0  0  0  0  0  0
   -5.8750   24.1590  -31.6190 C   0  0  0  0  0  0  0  0  0  0  0  0
   -5.8940   22.5450  -30.7580 S   0  0  0  0  0  0  0  0  0  0  0  0
   -7.4900   22.0170  -31.3940 C   0  0  0  0  0  0  0  0  0  0  0  0
   -8.5810   22.8050  -31.3880 N   0  0  0  0  0  0  0  0  0  0  0  0
   -9.5300   22.0890  -31.9730 N   0  0  0  0  0  0  0  0  0  0  0  0
   -9.0460   20.9120  -32.3410 N   0  0  0  0  0  0  0  0  0  0  0  0
   -7.7740   20.8380  -31.9890 N   0  0  0  0  0  0  0  0  0  0  0  0
   -6.9000   19.7150  -32.3600 C   0  0  0  0  0  0  0  0  0  0  0  0
   -7.5370   18.3560  -31.9780 C   0  0  0  0  0  0  0  0  0  0  0  0
   -7.0670   17.1940  -32.8750 C   0  0  0  0  0  0  0  0  0  0  0  0
   -5.6220   17.3930  -33.3460 C   0  0  0  0  0  0  0  0  0  0  0  0
   -5.4560   18.6820  -34.1780 C   0  0  0  0  0  0  0  0  0  0  0  0
   -6.4960   19.7690  -33.8410 C   0  0  0  0  0  0  0  0  0  0  0  0
   -3.8500   25.2730  -30.4910 N   0  0  0  0  0  0  0  0  0  0  0  0
   -3.0940   24.2620  -29.7660 C   0  0  0  0  0  0  0  0  0  0  0  0
   -2.2360   24.9290  -28.7450 C   0  0  0  0  0  0  0  0  0  0  0  0
   -2.0460   24.5060  -27.4450 C   0  0  0  0  0  0  0  0  0  0  0  0
   -1.2110   25.4390  -26.8700 C   0  0  0  0  0  0  0  0  0  0  0  0
   -0.9490   26.3750  -27.8510 C   0  0  0  0  0  0  0  0  0  0  0  0
   -1.5760   26.0450  -28.9570 O   0  0  0  0  0  0  0  0  0  0  0  0
   -6.9075   24.4496  -31.8630 H   0  0  0  0  0  0  0  0  0  0  0  0
   -5.2771   24.0614  -32.5372 H   0  0  0  0  0  0  0  0  0  0  0  0
   -5.9716   19.8134  -31.7784 H   0  0  0  0  0  0  0  0  0  0  0  0
   -7.2694   18.1245  -30.9365 H   0  0  0  0  0  0  0  0  0  0  0  0
   -8.6244   18.4544  -32.1120 H   0  0  0  0  0  0  0  0  0  0  0  0
   -7.1306   16.2551  -32.3054 H   0  0  0  0  0  0  0  0  0  0  0  0
   -7.7163   17.1602  -33.7623 H   0  0  0  0  0  0  0  0  0  0  0  0
   -4.9665   17.4526  -32.4647 H   0  0  0  0  0  0  0  0  0  0  0  0
   -5.3532   16.5395  -33.9857 H   0  0  0  0  0  0  0  0  0  0  0  0
   -4.4520   19.0906  -33.9907 H   0  0  0  0  0  0  0  0  0  0  0  0
   -5.6044   18.4078  -35.2329 H   0  0  0  0  0  0  0  0  0  0  0  0
   -6.0649   20.7572  -34.0590 H   0  0  0  0  0  0  0  0  0  0  0  0
   -7.3933   19.5924  -34.4523 H   0  0  0  0  0  0  0  0  0  0  0  0
   -3.7889   23.5703  -29.2673 H   0  0  0  0  0  0  0  0  0  0  0  0
   -2.4621   23.6989  -30.4686 H   0  0  0  0  0  0  0  0  0  0  0  0
   -2.4721   23.6112  -26.9678 H   0  0  0  0  0  0  0  0  0  0  0  0
   -0.8300   25.4384  -25.8381 H   0  0  0  0  0  0  0  0  0  0  0  0
   -0.3116   27.2627  -27.7252 H   0  0  0  0  0  0  0  0  0  0  0  0
  1  2  2  0
  2  3  1  0
  3  4  1  0
  4  5  1  0
  5  6  2  0
  6  7  1  0
  7  8  2  0
  8  9  1  0
  9 10  1  0
 10 11  1  0
 11 12  1  0
 12 13  1  0
 13 14  1  0
 14 15  1  0
  2 16  1  0
 16 17  1  0
 17 18  1  0
 18 19  2  0
 19 20  1  0
 20 21  2  0
 21 22  1  0
  9  5  1  0
 15 10  1  0
 22 18  1  0
  3 23  1  0
  3 24  1  0
 10 25  1  0
 11 26  1  0
 11 27  1  0
 12 28  1  0
 12 29  1  0
 13 30  1  0
 13 31  1  0
 14 32  1  0
 14 33  1  0
 15 34  1  0
 15 35  1  0
 17 36  1  0
 17 37  1  0
 19 38  1  0
 20 39  1  0
 21 40  1  0
M  CHG  1  16  -1
M  END
>  <UniqueID>  (25) 
25

>  <SMILES>  (25) 
O=C(CSc1nnnn1C1CCCCC1)[N-]Cc1ccco1

>  <Energy>  (25) 
102.08215967032032

>  <Genealogy>  (25) 
O=C(CSc1nnnn1C1CCCCC1)[N-]Cc1ccco1 (protonated)
O=C(CSc1nnnn1C1CCCCC1)[N-]Cc1ccco1 (3D coordinates assigned)
O=C(CSc1nnnn1C1CCCCC1)[N-]Cc1ccco1 (nonaromatic ring conformer: 102.08215967032032 kcal/mol)

>  <smiles>  (25) 
O=C(CSc1nnnn1C1CCCCC1)NCc1ccco1

>  <score_type>  (25) 
oracle

>  <origin>  (25) 
adg

>  <m_score__min__energy>  (25) 
-11.609999999999999

>  <m_primary>  (25) 
energy

$$$$
25:0
     RDKit          3D

 27 27  0  0  0  0  0  0  0  0999 V2000
   -3.8220   23.1900  -28.7560 C   0  0  0  0  0  0  0  0  0  0  0  0
   -2.8440   23.8370  -29.7300 C   0  0  0  0  0  0  0  0  0  0  0  0
   -3.5100   24.9210  -30.4660 N   0  0  0  0  0  0  0  0  0  0  0  0
   -4.8150   25.2920  -29.8900 C   0  0  0  0  0  0  0  0  0  0  0  0
   -5.9600   25.2750  -30.9170 C   0  0  0  0  0  0  0  0  0  0  0  0
   -5.7850   24.2360  -31.8820 O   0  0  0  0  0  0  0  0  0  0  0  0
   -6.5050   23.0290  -31.9630 C   0  0  0  0  0  0  0  0  0  0  0  0
   -7.8900   22.9440  -31.7140 C   0  0  0  0  0  0  0  0  0  0  0  0
   -8.5520   21.7180  -31.8210 C   0  0  0  0  0  0  0  0  0  0  0  0
   -7.8450   20.5650  -32.1660 C   0  0  0  0  0  0  0  0  0  0  0  0
   -8.7560   18.8910  -32.3100 Br  0  0  0  0  0  0  0  0  0  0  0  0
   -6.4700   20.6360  -32.4020 C   0  0  0  0  0  0  0  0  0  0  0  0
   -5.8020   21.8590  -32.3000 C   0  0  0  0  0  0  0  0  0  0  0  0
   -3.9200   21.9220  -32.6460 Br  0  0  0  0  0  0  0  0  0  0  0  0
   -3.5046   23.4000  -27.7239 H   0  0  0  0  0  0  0  0  0  0  0  0
   -4.8291   23.6006  -28.9206 H   0  0  0  0  0  0  0  0  0  0  0  0
   -3.8380   22.1025  -28.9206 H   0  0  0  0  0  0  0  0  0  0  0  0
   -1.9906   24.2475  -29.1704 H   0  0  0  0  0  0  0  0  0  0  0  0
   -2.4917   23.0788  -30.4448 H   0  0  0  0  0  0  0  0  0  0  0  0
   -3.6110   24.6590  -31.4740 H   0  0  0  0  0  0  0  0  0  0  0  0
   -5.0565   24.5813  -29.0859 H   0  0  0  0  0  0  0  0  0  0  0  0
   -4.7258   26.3235  -29.5183 H   0  0  0  0  0  0  0  0  0  0  0  0
   -6.9113   25.1149  -30.3885 H   0  0  0  0  0  0  0  0  0  0  0  0
   -5.9622   26.2394  -31.4461 H   0  0  0  0  0  0  0  0  0  0  0  0
   -8.4523   23.8471  -31.4341 H   0  0  0  0  0  0  0  0  0  0  0  0
   -9.6343   21.6614  -31.6326 H   0  0  0  0  0  0  0  0  0  0  0  0
   -5.9116   19.7266  -32.6689 H   0  0  0  0  0  0  0  0  0  0  0  0
  1  2  1  0
  2  3  1  0
  3  4  1  0
  4  5  1  0
  5  6  1  0
  6  7  1  0
  7  8  2  0
  8  9  1  0
  9 10  2  0
 10 11  1  0
 10 12  1  0
 12 13  2  0
 13 14  1  0
 13  7  1  0
  1 15  1  0
  1 16  1  0
  1 17  1  0
  2 18  1  0
  2 19  1  0
  3 20  1  0
  4 21  1  0
  4 22  1  0
  5 23  1  0
  5 24  1  0
  8 25  1  0
  9 26  1  0
 12 27  1  0
M  END
>  <UniqueID>  (26) 
26

>  <SMILES>  (26) 
CCNCCOc1ccc(Br)cc1Br

>  <Energy>  (26) 
25.07106626286977

>  <Genealogy>  (26) 
CCNCCOc1ccc(Br)cc1Br (3D coordinates assigned)
CCNCCOc1ccc(Br)cc1Br (optimized conformer: 25.07106626286977 kcal/mol)

>  <smiles>  (26) 
CCNCCOc1ccc(Br)cc1Br

>  <score_type>  (26) 
oracle

>  <origin>  (26) 
adg

>  <m_score__min__energy>  (26) 
-6.6299999999999999

>  <m_primary>  (26) 
energy

$$$$
26:0
     RDKit          3D

 55 57  0  0  0  0  0  0  0  0999 V2000
   -0.2890   25.9870  -36.5660 C   0  0  0  0  0  0  0  0  0  0  0  0
    0.6720   24.7950  -36.5650 C   0  0  0  0  0  0  0  0  0  0  0  0
    0.0580   23.5880  -35.9780 N   0  0  0  0  0  0  0  0  0  0  0  0
    0.8880   22.3770  -36.1460 C   0  0  0  0  0  0  0  0  0  0  0  0
    0.6480   21.3520  -35.0280 C   0  0  0  0  0  0  0  0  0  0  0  0
   -0.4610   21.7560  -34.2450 O   0  0  0  0  0  0  0  0  0  0  0  0
   -0.4170   21.1390  -32.9760 C   0  0  0  0  0  0  0  0  0  0  0  0
   -1.8260   21.0390  -32.3860 C   0  0  0  0  0  0  0  0  0  0  0  0
   -2.8820   21.0670  -33.4080 N   0  0  0  0  0  0  0  0  0  0  0  0
   -4.2500   20.6760  -33.1610 C   0  0  0  0  0  0  0  0  0  0  0  0
   -4.6980   19.4070  -33.5780 C   0  0  0  0  0  0  0  0  0  0  0  0
   -3.8180   18.4990  -34.2080 C   0  0  0  0  0  0  0  0  0  0  0  0
   -4.2740   17.2690  -34.6740 C   0  0  0  0  0  0  0  0  0  0  0  0
   -5.6140   16.9300  -34.5420 C   0  0  0  0  0  0  0  0  0  0  0  0
   -6.5030   17.8070  -33.9240 C   0  0  0  0  0  0  0  0  0  0  0  0
   -6.0620   19.0490  -33.3950 C   0  0  0  0  0  0  0  0  0  0  0  0
   -6.9260   19.9100  -32.7460 N   0  0  0  0  0  0  0  0  0  0  0  0
   -8.2680   19.4360  -32.3330 C   0  0  0  0  0  0  0  0  0  0  0  0
   -6.5230   21.1960  -32.4360 C   0  0  0  0  0  0  0  0  0  0  0  0
   -7.4420   22.1770  -31.9860 C   0  0  0  0  0  0  0  0  0  0  0  0
   -7.0080   23.4330  -31.5630 C   0  0  0  0  0  0  0  0  0  0  0  0
   -5.6440   23.7490  -31.5710 C   0  0  0  0  0  0  0  0  0  0  0  0
   -5.1540   24.9770  -31.1020 O   0  0  0  0  0  0  0  0  0  0  0  0
   -5.7510   25.7350  -30.0540 C   0  0  0  0  0  0  0  0  0  0  0  0
   -4.7330   22.8160  -32.0660 C   0  0  0  0  0  0  0  0  0  0  0  0
   -5.1590   21.5680  -32.5650 C   0  0  0  0  0  0  0  0  0  0  0  0
   -0.5196   26.2730  -35.5292 H   0  0  0  0  0  0  0  0  0  0  0  0
    0.1803   26.8359  -37.0848 H   0  0  0  0  0  0  0  0  0  0  0  0
   -1.2181   25.7085  -37.0848 H   0  0  0  0  0  0  0  0  0  0  0  0
    0.9657   24.5751  -37.6020 H   0  0  0  0  0  0  0  0  0  0  0  0
    1.5448   25.0637  -35.9518 H   0  0  0  0  0  0  0  0  0  0  0  0
   -0.1100   23.7630  -34.9610 H   0  0  0  0  0  0  0  0  0  0  0  0
   -0.8780   23.4220  -36.4150 H   0  0  0  0  0  0  0  0  0  0  0  0
    0.6443   21.9113  -37.1123 H   0  0  0  0  0  0  0  0  0  0  0  0
    1.9441   22.6820  -36.1047 H   0  0  0  0  0  0  0  0  0  0  0  0
    0.4434   20.3666  -35.4721 H   0  0  0  0  0  0  0  0  0  0  0  0
    1.5425   21.2893  -34.3908 H   0  0  0  0  0  0  0  0  0  0  0  0
    0.0065   20.1289  -33.0779 H   0  0  0  0  0  0  0  0  0  0  0  0
    0.2103   21.7441  -32.3049 H   0  0  0  0  0  0  0  0  0  0  0  0
   -1.9052   20.0952  -31.8265 H   0  0  0  0  0  0  0  0  0  0  0  0
   -1.9733   21.9155  -31.7378 H   0  0  0  0  0  0  0  0  0  0  0  0
   -2.6740   21.5710  -34.3000 H   0  0  0  0  0  0  0  0  0  0  0  0
   -2.7585   18.7674  -34.3320 H   0  0  0  0  0  0  0  0  0  0  0  0
   -3.5727   16.5657  -35.1468 H   0  0  0  0  0  0  0  0  0  0  0  0
   -5.9753   15.9650  -34.9270 H   0  0  0  0  0  0  0  0  0  0  0  0
   -7.5652   17.5325  -33.8444 H   0  0  0  0  0  0  0  0  0  0  0  0
   -8.3275   19.4150  -31.2348 H   0  0  0  0  0  0  0  0  0  0  0  0
   -9.0354   20.1175  -32.7288 H   0  0  0  0  0  0  0  0  0  0  0  0
   -8.4372   18.4237  -32.7288 H   0  0  0  0  0  0  0  0  0  0  0  0
   -8.5168   21.9433  -31.9702 H   0  0  0  0  0  0  0  0  0  0  0  0
   -7.7407   24.1790  -31.2215 H   0  0  0  0  0  0  0  0  0  0  0  0
   -5.4326   25.3307  -29.0818 H   0  0  0  0  0  0  0  0  0  0  0  0
   -5.4351   26.7855  -30.1355 H   0  0  0  0  0  0  0  0  0  0  0  0
   -6.8463   25.6741  -30.1355 H   0  0  0  0  0  0  0  0  0  0  0  0
   -3.6601   23.0588  -32.0671 H   0  0  0  0  0  0  0  0  0  0  0  0
  1  2  1  0
  2  3  1  0
  3  4  1  0
  4  5  1  0
  5  6  1  0
  6  7  1  0
  7  8  1  0
  8  9  1  0
  9 10  1  0
 10 11  2  0
 11 12  1  0
 12 13  2  0
 13 14  1  0
 14 15  2  0
 15 16  1  0
 16 17  2  0
 17 18  1  0
 17 19  1  0
 19 20  2  0
 20 21  1  0
 21 22  2  0
 22 23  1  0
 23 24  1  0
 22 25  1  0
 25 26  2  0
 26 10  1  0
 16 11  1  0
 26 19  1  0
  1 27  1  0
  1 28  1  0
  1 29  1  0
  2 30  1  0
  2 31  1  0
  3 32  1  0
  3 33  1  0
  4 34  1  0
  4 35  1  0
  5 36  1  0
  5 37  1  0
  7 38  1  0
  7 39  1  0
  8 40  1  0
  8 41  1  0
  9 42  1  0
 12 43  1  0
 13 44  1  0
 14 45  1  0
 15 46  1  0
 18 47  1  0
 18 48  1  0
 18 49  1  0
 20 50  1  0
 21 51  1  0
 24 52  1  0
 24 53  1  0
 24 54  1  0
 25 55  1  0
M  CHG  2   3   1  17   1
M  END
>  <UniqueID>  (27) 
27

>  <SMILES>  (27) 
CC[NH2+]CCOCCNc1c2ccccc2[n+](C)c2ccc(OC)cc12

>  <Energy>  (27) 
78.48386737324435

>  <Genealogy>  (27) 
CC[NH2+]CCOCCNc1c2ccccc2[n+](C)c2ccc(OC)cc12 (protonated)
CC[NH2+]CCOCCNc1c2ccccc2[n+](C)c2ccc(OC)cc12 (3D coordinates assigned)
CC[NH2+]CCOCCNc1c2ccccc2[n+](C)c2ccc(OC)cc12 (optimized conformer: 78.48386737324435 kcal/mol)

>  <smiles>  (27) 
CCNCCOCCNc1c2ccccc2[n+](C)c2ccc(OC)cc12

>  <score_type>  (27) 
oracle

>  <origin>  (27) 
adg

>  <m_score__min__energy>  (27) 
-8.3800000000000008

>  <m_primary>  (27) 
energy

$$$$
27:0
     RDKit          3D

 44 45  0  0  0  0  0  0  0  0999 V2000
   -1.4340   24.5340  -28.9500 C   0  0  0  0  0  0  0  0  0  0  0  0
   -2.4560   23.6000  -29.6000 C   0  0  0  0  0  0  0  0  0  0  0  0
   -3.8320   23.7560  -29.0860 N   0  0  0  0  0  0  0  0  0  0  0  0
   -4.3420   22.6630  -28.2290 C   0  0  0  0  0  0  0  0  0  0  0  0
   -3.3100   21.5790  -27.8850 C   0  0  0  0  0  0  0  0  0  0  0  0
   -4.9730   24.4360  -30.2270 S   0  0  0  0  0  0  0  0  0  0  0  0
   -4.2440   25.3190  -31.2000 O   0  0  0  0  0  0  0  0  0  0  0  0
   -6.0100   25.2610  -29.5180 O   0  0  0  0  0  0  0  0  0  0  0  0
   -5.7600   23.1440  -31.1280 C   0  0  0  0  0  0  0  0  0  0  0  0
   -7.0610   23.3200  -31.6460 C   0  0  0  0  0  0  0  0  0  0  0  0
   -7.6920   22.2790  -32.3420 C   0  0  0  0  0  0  0  0  0  0  0  0
   -7.0140   21.0640  -32.5020 C   0  0  0  0  0  0  0  0  0  0  0  0
   -5.7510   20.8990  -32.0060 C   0  0  0  0  0  0  0  0  0  0  0  0
   -5.0980   21.9170  -31.3080 C   0  0  0  0  0  0  0  0  0  0  0  0
   -5.2430   19.5530  -32.3220 C   0  0  0  0  0  0  0  0  0  0  0  0
   -6.3830   18.9500  -33.1870 C   0  0  2  0  0  0  0  0  0  0  0  0
   -5.8940   18.6640  -34.6150 C   0  0  0  0  0  0  0  0  0  0  0  0
   -7.5230   19.9180  -33.1900 N   0  0  1  0  0  0  0  0  0  0  0  0
   -8.6750   19.3860  -32.4840 C   0  0  0  0  0  0  0  0  0  0  0  0
   -8.5490   18.1830  -31.5950 C   0  0  0  0  0  0  0  0  0  0  0  0
   -9.7720   19.9170  -32.6030 O   0  0  0  0  0  0  0  0  0  0  0  0
   -1.5143   24.4606  -27.8554 H   0  0  0  0  0  0  0  0  0  0  0  0
   -0.4204   24.2436  -29.2636 H   0  0  0  0  0  0  0  0  0  0  0  0
   -1.6322   25.5696  -29.2636 H   0  0  0  0  0  0  0  0  0  0  0  0
   -2.4671   23.8000  -30.6816 H   0  0  0  0  0  0  0  0  0  0  0  0
   -2.1434   22.5731  -29.3595 H   0  0  0  0  0  0  0  0  0  0  0  0
   -4.7005   23.1051  -27.2877 H   0  0  0  0  0  0  0  0  0  0  0  0
   -5.1356   22.1635  -28.8040 H   0  0  0  0  0  0  0  0  0  0  0  0
   -3.2238   21.4884  -26.7921 H   0  0  0  0  0  0  0  0  0  0  0  0
   -3.6340   20.6168  -28.3082 H   0  0  0  0  0  0  0  0  0  0  0  0
   -2.3330   21.8553  -28.3082 H   0  0  0  0  0  0  0  0  0  0  0  0
   -7.5823   24.2780  -31.5031 H   0  0  0  0  0  0  0  0  0  0  0  0
   -8.7024   22.4144  -32.7553 H   0  0  0  0  0  0  0  0  0  0  0  0
   -4.0855   21.7619  -30.9069 H   0  0  0  0  0  0  0  0  0  0  0  0
   -4.3019   19.6076  -32.8889 H   0  0  0  0  0  0  0  0  0  0  0  0
   -5.0104   18.9543  -31.4290 H   0  0  0  0  0  0  0  0  0  0  0  0
   -6.7112   17.9893  -32.7634 H   0  0  0  0  0  0  0  0  0  0  0  0
   -4.9452   18.1091  -34.5734 H   0  0  0  0  0  0  0  0  0  0  0  0
   -6.6468   18.0638  -35.1470 H   0  0  0  0  0  0  0  0  0  0  0  0
   -5.7399   19.6144  -35.1470 H   0  0  0  0  0  0  0  0  0  0  0  0
   -7.7850   20.2100  -34.1610 H   0  0  0  0  0  0  0  0  0  0  0  0
   -8.5822   18.5000  -30.5422 H   0  0  0  0  0  0  0  0  0  0  0  0
   -9.3795   17.4902  -31.7957 H   0  0  0  0  0  0  0  0  0  0  0  0
   -7.5930   17.6773  -31.7957 H   0  0  0  0  0  0  0  0  0  0  0  0
  1  2  1  0
  2  3  1  0
  3  4  1  0
  4  5  1  0
  3  6  1  0
  6  7  2  0
  6  8  2  0
  6  9  1  0
  9 10  2  0
 10 11  1  0
 11 12  2  0
 12 13  1  0
 13 14  2  0
 13 15  1  0
 15 16  1  0
 16 17  1  0
 16 18  1  0
 18 19  1  0
 19 20  1  0
 19 21  2  0
 14  9  1  0
 18 12  1  0
  1 22  1  0
  1 23  1  0
  1 24  1  0
  2 25  1  0
  2 26  1  0
  4 27  1  0
  4 28  1  0
  5 29  1  0
  5 30  1  0
  5 31  1  0
 10 32  1  0
 11 33  1  0
 14 34  1  0
 15 35  1  0
 15 36  1  0
 16 37  1  1
 17 38  1  0
 17 39  1  0
 17 40  1  0
 18 41  1  6
 20 42  1  0
 20 43  1  0
 20 44  1  0
M  CHG  1  18   1
M  END
>  <UniqueID>  (28) 
28

>  <SMILES>  (28) 
CCN(CC)S(=O)(=O)c1ccc2c(c1)C[C@H](C)[N@H+]2C(C)=O

>  <Energy>  (28) 
58.1491328790266

>  <Genealogy>  (28) 
CCN(CC)S(=O)(=O)c1ccc2c(c1)CC(C)[NH+]2C(C)=O (protonated)
CCN(CC)S(=O)(=O)c1ccc2c(c1)C[C@H](C)[N@H+]2C(C)=O (chirality)
CCN(CC)S(=O)(=O)c1ccc2c(c1)C[C@H](C)[N@H+]2C(C)=O (3D coordinates assigned)
CCN(CC)S(=O)(=O)c1ccc2c(c1)C[C@H](C)[N@H+]2C(C)=O (nonaromatic ring conformer: 58.1491328790266 kcal/mol)

>  <smiles>  (28) 
CCN(CC)S(=O)(=O)c1ccc2c(c1)CC(C)N2C(C)=O

>  <score_type>  (28) 
oracle

>  <origin>  (28) 
adg

>  <m_score__min__energy>  (28) 
-8.4100000000000001

>  <m_primary>  (28) 
energy

$$$$
28:0
     RDKit          3D

 53 55  0  0  0  0  0  0  0  0999 V2000
   -8.8150   22.5090  -31.5800 C   0  0  0  0  0  0  0  0  0  0  0  0
   -7.8850   23.4260  -32.3800 C   0  0  0  0  0  0  0  0  0  0  0  0
   -6.5610   23.5720  -31.7490 N   0  0  0  0  0  0  0  0  0  0  0  0
   -6.5730   24.4820  -30.5910 C   0  0  0  0  0  0  0  0  0  0  0  0
   -5.1620   24.9890  -30.2970 C   0  0  0  0  0  0  0  0  0  0  0  0
   -4.2370   24.2630  -31.0750 O   0  0  0  0  0  0  0  0  0  0  0  0
   -3.4630   23.4200  -30.2500 C   0  0  0  0  0  0  0  0  0  0  0  0
   -3.8610   21.9620  -30.5020 C   0  0  0  0  0  0  0  0  0  0  0  0
   -4.7960   21.7890  -31.6360 N   0  0  0  0  0  0  0  0  0  0  0  0
   -4.7210   20.4670  -32.2530 C   0  0  0  0  0  0  0  0  0  0  0  0
   -5.8290   19.5680  -32.2180 C   0  0  0  0  0  0  0  0  0  0  0  0
   -7.0770   19.9210  -31.6390 C   0  0  0  0  0  0  0  0  0  0  0  0
   -8.1660   19.0550  -31.6800 C   0  0  0  0  0  0  0  0  0  0  0  0
   -8.0520   17.8220  -32.3000 C   0  0  0  0  0  0  0  0  0  0  0  0
   -6.8400   17.4330  -32.8570 C   0  0  0  0  0  0  0  0  0  0  0  0
   -5.6980   18.2720  -32.7980 C   0  0  0  0  0  0  0  0  0  0  0  0
   -4.4870   17.8550  -33.3070 N   0  0  0  0  0  0  0  0  0  0  0  0
   -4.2610   16.4180  -33.5880 C   0  0  0  0  0  0  0  0  0  0  0  0
   -3.4750   18.7660  -33.5220 C   0  0  0  0  0  0  0  0  0  0  0  0
   -2.3560   18.4360  -34.3230 C   0  0  0  0  0  0  0  0  0  0  0  0
   -1.2940   19.3180  -34.4830 C   0  0  0  0  0  0  0  0  0  0  0  0
   -1.3070   20.5650  -33.8550 C   0  0  0  0  0  0  0  0  0  0  0  0
   -0.1960   21.4700  -34.0030 N   0  0  0  0  0  0  0  0  0  0  0  0
    0.7050   21.5180  -33.1400 O   0  0  0  0  0  0  0  0  0  0  0  0
   -0.1080   22.3000  -35.0970 O   0  0  0  0  0  0  0  0  0  0  0  0
   -2.4290   20.9300  -33.0980 C   0  0  0  0  0  0  0  0  0  0  0  0
   -3.5450   20.0650  -32.9520 C   0  0  0  0  0  0  0  0  0  0  0  0
   -8.6519   22.6698  -30.5041 H   0  0  0  0  0  0  0  0  0  0  0  0
   -9.8611   22.7388  -31.8307 H   0  0  0  0  0  0  0  0  0  0  0  0
   -8.5999   21.4598  -31.8307 H   0  0  0  0  0  0  0  0  0  0  0  0
   -7.7519   23.0029  -33.3866 H   0  0  0  0  0  0  0  0  0  0  0  0
   -8.3493   24.4224  -32.4198 H   0  0  0  0  0  0  0  0  0  0  0  0
   -5.8730   23.9200  -32.4580 H   0  0  0  0  0  0  0  0  0  0  0  0
   -7.2276   25.3385  -30.8100 H   0  0  0  0  0  0  0  0  0  0  0  0
   -6.9461   23.9359  -29.7121 H   0  0  0  0  0  0  0  0  0  0  0  0
   -5.0953   26.0578  -30.5483 H   0  0  0  0  0  0  0  0  0  0  0  0
   -4.9350   24.8519  -29.2294 H   0  0  0  0  0  0  0  0  0  0  0  0
   -2.3966   23.5555  -30.4833 H   0  0  0  0  0  0  0  0  0  0  0  0
   -3.6399   23.6735  -29.1943 H   0  0  0  0  0  0  0  0  0  0  0  0
   -2.9489   21.3843  -30.7125 H   0  0  0  0  0  0  0  0  0  0  0  0
   -4.3814   21.6097  -29.5992 H   0  0  0  0  0  0  0  0  0  0  0  0
   -5.7710   21.9510  -31.2960 H   0  0  0  0  0  0  0  0  0  0  0  0
   -4.6790   22.5680  -32.3160 H   0  0  0  0  0  0  0  0  0  0  0  0
   -7.1852   20.8993  -31.1479 H   0  0  0  0  0  0  0  0  0  0  0  0
   -9.1197   19.3509  -31.2187 H   0  0  0  0  0  0  0  0  0  0  0  0
   -8.9215   17.1502  -32.3515 H   0  0  0  0  0  0  0  0  0  0  0  0
   -6.7647   16.4545  -33.3538 H   0  0  0  0  0  0  0  0  0  0  0  0
   -4.1745   15.8681  -32.6393 H   0  0  0  0  0  0  0  0  0  0  0  0
   -5.1076   16.0200  -34.1667 H   0  0  0  0  0  0  0  0  0  0  0  0
   -3.3331   16.2991  -34.1667 H   0  0  0  0  0  0  0  0  0  0  0  0
   -2.3261   17.4602  -34.8300 H   0  0  0  0  0  0  0  0  0  0  0  0
   -0.4364   19.0314  -35.1094 H   0  0  0  0  0  0  0  0  0  0  0  0
   -2.4450   21.9127  -32.6041 H   0  0  0  0  0  0  0  0  0  0  0  0
  1  2  1  0
  2  3  1  0
  3  4  1  0
  4  5  1  0
  5  6  1  0
  6  7  1  0
  7  8  1  0
  8  9  1  0
  9 10  1  0
 10 11  2  0
 11 12  1  0
 12 13  2  0
 13 14  1  0
 14 15  2  0
 15 16  1  0
 16 17  2  0
 17 18  1  0
 17 19  1  0
 19 20  2  0
 20 21  1  0
 21 22  2  0
 22 23  1  0
 23 24  2  0
 23 25  1  0
 22 26  1  0
 26 27  2  0
 27 10  1  0
 16 11  1  0
 27 19  1  0
  1 28  1  0
  1 29  1  0
  1 30  1  0
  2 31  1  0
  2 32  1  0
  3 33  1  0
  4 34  1  0
  4 35  1  0
  5 36  1  0
  5 37  1  0
  7 38  1  0
  7 39  1  0
  8 40  1  0
  8 41  1  0
  9 42  1  0
  9 43  1  0
 12 44  1  0
 13 45  1  0
 14 46  1  0
 15 47  1  0
 18 48  1  0
 18 49  1  0
 18 50  1  0
 20 51  1  0
 21 52  1  0
 26 53  1  0
M  CHG  4   9   1  17   1  23   1  25  -1
M  END
>  <UniqueID>  (29) 
29

>  <SMILES>  (29) 
CCNCCOCC[NH2+]c1c2ccccc2[n+](C)c2ccc([N+](=O)[O-])cc12

>  <Energy>  (29) 
77.30484140210184

>  <Genealogy>  (29) 
CCNCCOCC[NH2+]c1c2ccccc2[n+](C)c2ccc([N+](=O)[O-])cc12 (protonated)
CCNCCOCC[NH2+]c1c2ccccc2[n+](C)c2ccc([N+](=O)[O-])cc12 (3D coordinates assigned)
CCNCCOCC[NH2+]c1c2ccccc2[n+](C)c2ccc([N+](=O)[O-])cc12 (optimized conformer: 77.30484140210184 kcal/mol)

>  <smiles>  (29) 
CCNCCOCCNc1c2ccccc2[n+](C)c2ccc([N+](=O)[O-])cc12

>  <score_type>  (29) 
oracle

>  <origin>  (29) 
adg

>  <m_score__min__energy>  (29) 
-9.3200000000000003

>  <m_primary>  (29) 
energy

$$$$
29:0
     RDKit          3D

 58 61  0  0  0  0  0  0  0  0999 V2000
   -1.8740   20.4520  -27.2380 C   0  0  0  0  0  0  0  0  0  0  0  0
   -0.8780   20.4450  -28.3950 C   0  0  0  0  0  0  0  0  0  0  0  0
   -1.2110   21.4690  -29.4110 N   0  0  0  0  0  0  0  0  0  0  0  0
   -0.3070   22.6220  -29.2660 C   0  0  0  0  0  0  0  0  0  0  0  0
   -1.1300   20.9320  -30.7900 C   0  0  0  0  0  0  0  0  0  0  0  0
   -2.4450   20.9840  -31.4290 N   0  0  0  0  0  0  0  0  0  0  0  0
   -3.6940   20.9070  -30.7540 C   0  0  0  0  0  0  0  0  0  0  0  0
   -3.8530   20.3020  -29.6580 O   0  0  0  0  0  0  0  0  0  0  0  0
   -4.7940   21.4690  -31.6090 C   0  0  1  0  0  0  0  0  0  0  0  0
   -4.0440   21.8680  -32.8030 N   0  0  0  0  0  0  0  0  0  0  0  0
   -2.7800   21.6110  -32.6640 C   0  0  0  0  0  0  0  0  0  0  0  0
   -1.8370   21.8590  -33.7100 N   0  0  0  0  0  0  0  0  0  0  0  0
   -5.7590   20.3930  -31.9710 C   0  0  0  0  0  0  0  0  0  0  0  0
   -5.4550   19.1200  -32.4780 C   0  0  0  0  0  0  0  0  0  0  0  0
   -6.5050   18.2420  -32.7940 C   0  0  0  0  0  0  0  0  0  0  0  0
   -6.1210   16.5000  -33.4780 Br  0  0  0  0  0  0  0  0  0  0  0  0
   -7.8370   18.6510  -32.6160 C   0  0  0  0  0  0  0  0  0  0  0  0
   -8.1190   19.9380  -32.1280 C   0  0  0  0  0  0  0  0  0  0  0  0
   -7.0570   20.7880  -31.8070 C   0  0  0  0  0  0  0  0  0  0  0  0
   -7.1690   22.1920  -31.3550 C   0  0  0  0  0  0  0  0  0  0  0  0
   -5.7050   22.6380  -30.9960 C   0  0  1  0  0  0  0  0  0  0  0  0
   -5.6100   22.7500  -29.4420 C   0  0  0  0  0  0  0  0  0  0  0  0
   -4.2920   23.3640  -28.9070 C   0  0  0  0  0  0  0  0  0  0  0  0
   -3.5080   24.1940  -29.9470 C   0  0  2  0  0  0  0  0  0  0  0  0
   -2.6720   25.1270  -29.2810 O   0  0  0  0  0  0  0  0  0  0  0  0
   -2.4520   24.7370  -27.9430 C   0  0  0  0  0  0  0  0  0  0  0  0
   -4.4720   24.9710  -30.8390 C   0  0  0  0  0  0  0  0  0  0  0  0
   -5.4670   24.0700  -31.6020 C   0  0  0  0  0  0  0  0  0  0  0  0
   -1.3273   20.4482  -26.2835 H   0  0  0  0  0  0  0  0  0  0  0  0
   -2.4999   21.3546  -27.2984 H   0  0  0  0  0  0  0  0  0  0  0  0
   -2.5125   19.5583  -27.2984 H   0  0  0  0  0  0  0  0  0  0  0  0
    0.1283   20.6487  -28.0002 H   0  0  0  0  0  0  0  0  0  0  0  0
   -0.9200   19.4573  -28.8774 H   0  0  0  0  0  0  0  0  0  0  0  0
   -0.1449   22.8288  -28.1978 H   0  0  0  0  0  0  0  0  0  0  0  0
    0.6564   22.3952  -29.7459 H   0  0  0  0  0  0  0  0  0  0  0  0
   -0.7572   23.5035  -29.7459 H   0  0  0  0  0  0  0  0  0  0  0  0
   -0.4181   21.5343  -31.3735 H   0  0  0  0  0  0  0  0  0  0  0  0
   -0.7911   19.8863  -30.7493 H   0  0  0  0  0  0  0  0  0  0  0  0
   -4.4680   22.2160  -33.6920 H   0  0  0  0  0  0  0  0  0  0  0  0
   -0.8460   21.5460  -33.6340 H   0  0  0  0  0  0  0  0  0  0  0  0
   -2.1440   22.3230  -34.5930 H   0  0  0  0  0  0  0  0  0  0  0  0
   -4.4088   18.8140  -32.6259 H   0  0  0  0  0  0  0  0  0  0  0  0
   -8.6601   17.9629  -32.8589 H   0  0  0  0  0  0  0  0  0  0  0  0
   -9.1595   20.2714  -32.0006 H   0  0  0  0  0  0  0  0  0  0  0  0
   -7.5765   22.8229  -32.1587 H   0  0  0  0  0  0  0  0  0  0  0  0
   -7.8471   22.2899  -30.4944 H   0  0  0  0  0  0  0  0  0  0  0  0
   -6.4441   23.3770  -29.0939 H   0  0  0  0  0  0  0  0  0  0  0  0
   -5.6464   21.7200  -29.0577 H   0  0  0  0  0  0  0  0  0  0  0  0
   -4.5371   24.0189  -28.0579 H   0  0  0  0  0  0  0  0  0  0  0  0
   -3.6443   22.5210  -28.6245 H   0  0  0  0  0  0  0  0  0  0  0  0
   -2.9060   23.5053  -30.5579 H   0  0  0  0  0  0  0  0  0  0  0  0
   -2.8780   25.4922  -27.2662 H   0  0  0  0  0  0  0  0  0  0  0  0
   -2.9355   23.7661  -27.7599 H   0  0  0  0  0  0  0  0  0  0  0  0
   -1.3710   24.6486  -27.7599 H   0  0  0  0  0  0  0  0  0  0  0  0
   -5.0452   25.6671  -30.2089 H   0  0  0  0  0  0  0  0  0  0  0  0
   -3.8652   25.4939  -31.5929 H   0  0  0  0  0  0  0  0  0  0  0  0
   -6.4366   24.5886  -31.6310 H   0  0  0  0  0  0  0  0  0  0  0  0
   -5.0166   23.9022  -32.5914 H   0  0  0  0  0  0  0  0  0  0  0  0
  1  2  1  0
  2  3  1  0
  3  4  1  0
  3  5  1  0
  5  6  1  0
  6  7  1  0
  7  8  2  0
  9  7  1  1
  9 10  1  0
 10 11  2  0
 11 12  1  0
  9 13  1  0
 13 14  2  0
 14 15  1  0
 15 16  1  0
 15 17  2  0
 17 18  1  0
 18 19  2  0
 19 20  1  0
 21 20  1  1
 21 22  1  0
 22 23  1  0
 23 24  1  0
 24 25  1  0
 25 26  1  0
 24 27  1  0
 27 28  1  0
 11  6  1  0
 19 13  1  0
 28 21  1  0
  9 21  1  0
  1 29  1  0
  1 30  1  0
  1 31  1  0
  2 32  1  0
  2 33  1  0
  4 34  1  0
  4 35  1  0
  4 36  1  0
  5 37  1  0
  5 38  1  0
 10 39  1  0
 12 40  1  0
 12 41  1  0
 14 42  1  0
 17 43  1  0
 18 44  1  0
 20 45  1  0
 20 46  1  0
 22 47  1  0
 22 48  1  0
 23 49  1  0
 23 50  1  0
 24 51  1  6
 26 52  1  0
 26 53  1  0
 26 54  1  0
 27 55  1  0
 27 56  1  0
 28 57  1  0
 28 58  1  0
M  CHG  1  10   1
M  END
>  <UniqueID>  (30) 
30

>  <SMILES>  (30) 
CCN(C)CN1C(=O)[C@@]2([NH+]=C1N)c1cc(Br)ccc1CC21CCC(OC)CC1

>  <Energy>  (30) 
104.85981566285909

>  <Genealogy>  (30) 
CCN(C)CN1C(=O)C2([NH+]=C1N)c1cc(Br)ccc1CC21CCC(OC)CC1 (protonated)
CCN(C)CN1C(=O)[C@@]2([NH+]=C1N)c1cc(Br)ccc1CC21CCC(OC)CC1 (chirality)
CCN(C)CN1C(=O)[C@@]2([NH+]=C1N)c1cc(Br)ccc1CC21CCC(OC)CC1 (3D coordinates assigned)
CCN(C)CN1C(=O)[C@@]2([NH+]=C1N)c1cc(Br)ccc1CC21CCC(OC)CC1 (nonaromatic ring conformer: 104.85981566285909 kcal/mol)

>  <smiles>  (30) 
CCN(C)CN1C(=O)C2(N=C1N)c1cc(Br)ccc1CC21CCC(OC)CC1

>  <score_type>  (30) 
oracle

>  <origin>  (30) 
adg

>  <m_score__min__energy>  (30) 
-9.1600000000000001

>  <m_primary>  (30) 
energy

$$$$
30:0
     RDKit          3D

 54 56  0  0  0  0  0  0  0  0999 V2000
   -2.7730   24.5450  -27.2680 C   0  0  0  0  0  0  0  0  0  0  0  0
   -3.3170   23.3220  -28.0010 C   0  0  0  0  0  0  0  0  0  0  0  0
   -2.7650   23.1730  -29.4260 C   0  0  0  0  0  0  0  0  0  0  0  0
   -3.8670   23.0130  -30.4020 N   0  0  0  0  0  0  0  0  0  0  0  0
   -5.1240   23.6890  -30.0010 C   0  0  0  0  0  0  0  0  0  0  0  0
   -5.2440   25.1550  -30.4740 C   0  0  0  0  0  0  0  0  0  0  0  0
   -3.9770   25.6490  -30.8130 O   0  0  0  0  0  0  0  0  0  0  0  0
   -4.0650   21.6210  -30.8670 C   0  0  0  0  0  0  0  0  0  0  0  0
   -3.5270   21.4470  -32.3050 C   0  0  0  0  0  0  0  0  0  0  0  0
   -4.5620   21.6510  -33.3380 N   0  0  0  0  0  0  0  0  0  0  0  0
   -5.7550   20.8460  -33.0840 C   0  0  0  0  0  0  0  0  0  0  0  0
   -6.9580   21.4210  -32.5690 C   0  0  0  0  0  0  0  0  0  0  0  0
   -7.1330   22.8230  -32.4160 C   0  0  0  0  0  0  0  0  0  0  0  0
   -8.3280   23.3590  -31.9440 C   0  0  0  0  0  0  0  0  0  0  0  0
   -9.3900   22.5260  -31.6330 C   0  0  0  0  0  0  0  0  0  0  0  0
   -9.2550   21.1490  -31.7670 C   0  0  0  0  0  0  0  0  0  0  0  0
   -8.0380   20.5640  -32.2020 C   0  0  0  0  0  0  0  0  0  0  0  0
   -7.9020   19.1950  -32.2840 N   0  0  0  0  0  0  0  0  0  0  0  0
   -8.8720   18.3120  -31.5960 C   0  0  0  0  0  0  0  0  0  0  0  0
   -6.8540   18.6450  -32.9900 C   0  0  0  0  0  0  0  0  0  0  0  0
   -6.8620   17.2760  -33.3660 C   0  0  0  0  0  0  0  0  0  0  0  0
   -5.7800   16.7010  -34.0210 C   0  0  0  0  0  0  0  0  0  0  0  0
   -4.6660   17.4680  -34.3310 C   0  0  0  0  0  0  0  0  0  0  0  0
   -3.2950   16.7320  -35.1420 Cl  0  0  0  0  0  0  0  0  0  0  0  0
   -4.6450   18.8250  -34.0140 C   0  0  0  0  0  0  0  0  0  0  0  0
   -5.7420   19.4490  -33.3650 C   0  0  0  0  0  0  0  0  0  0  0  0
   -2.8447   24.3837  -26.1823 H   0  0  0  0  0  0  0  0  0  0  0  0
   -1.7204   24.7014  -27.5467 H   0  0  0  0  0  0  0  0  0  0  0  0
   -3.3617   25.4314  -27.5467 H   0  0  0  0  0  0  0  0  0  0  0  0
   -3.0488   22.4229  -27.4269 H   0  0  0  0  0  0  0  0  0  0  0  0
   -4.4062   23.4503  -28.0852 H   0  0  0  0  0  0  0  0  0  0  0  0
   -2.1829   24.0703  -29.6830 H   0  0  0  0  0  0  0  0  0  0  0  0
   -2.1262   22.2783  -29.4652 H   0  0  0  0  0  0  0  0  0  0  0  0
   -5.9678   23.1224  -30.4217 H   0  0  0  0  0  0  0  0  0  0  0  0
   -5.1276   23.7145  -28.9013 H   0  0  0  0  0  0  0  0  0  0  0  0
   -5.9020   25.2021  -31.3542 H   0  0  0  0  0  0  0  0  0  0  0  0
   -5.6669   25.7653  -29.6624 H   0  0  0  0  0  0  0  0  0  0  0  0
   -3.5030   24.9170  -31.2890 H   0  0  0  0  0  0  0  0  0  0  0  0
   -3.5284   20.9354  -30.1947 H   0  0  0  0  0  0  0  0  0  0  0  0
   -5.1414   21.3945  -30.8609 H   0  0  0  0  0  0  0  0  0  0  0  0
   -2.7206   22.1772  -32.4681 H   0  0  0  0  0  0  0  0  0  0  0  0
   -3.1690   20.4111  -32.3987 H   0  0  0  0  0  0  0  0  0  0  0  0
   -4.1720   21.4110  -34.2760 H   0  0  0  0  0  0  0  0  0  0  0  0
   -4.7420   22.6670  -33.4370 H   0  0  0  0  0  0  0  0  0  0  0  0
   -6.3058   23.4997  -32.6763 H   0  0  0  0  0  0  0  0  0  0  0  0
   -8.4291   24.4470  -31.8177 H   0  0  0  0  0  0  0  0  0  0  0  0
  -10.3399   22.9540  -31.2801 H   0  0  0  0  0  0  0  0  0  0  0  0
  -10.1103   20.4989  -31.5306 H   0  0  0  0  0  0  0  0  0  0  0  0
   -8.7559   18.4177  -30.5073 H   0  0  0  0  0  0  0  0  0  0  0  0
   -9.8948   18.5954  -31.8849 H   0  0  0  0  0  0  0  0  0  0  0  0
   -8.6856   17.2671  -31.8849 H   0  0  0  0  0  0  0  0  0  0  0  0
   -7.7422   16.6583  -33.1342 H   0  0  0  0  0  0  0  0  0  0  0  0
   -5.8065   15.6358  -34.2943 H   0  0  0  0  0  0  0  0  0  0  0  0
   -3.7598   19.4248  -34.2722 H   0  0  0  0  0  0  0  0  0  0  0  0
  1  2  1  0
  2  3  1  0
  3  4  1  0
  4  5  1  0
  5  6  1  0
  6  7  1  0
  4  8  1  0
  8  9  1  0
  9 10  1  0
 10 11  1  0
 11 12  2  0
 12 13  1  0
 13 14  2  0
 14 15  1  0
 15 16  2  0
 16 17  1  0
 17 18  2  0
 18 19  1  0
 18 20  1  0
 20 21  2  0
 21 22  1  0
 22 23  2  0
 23 24  1  0
 23 25  1  0
 25 26  2  0
 26 11  1  0
 17 12  1  0
 26 20  1  0
  1 27  1  0
  1 28  1  0
  1 29  1  0
  2 30  1  0
  2 31  1  0
  3 32  1  0
  3 33  1  0
  5 34  1  0
  5 35  1  0
  6 36  1  0
  6 37  1  0
  7 38  1  0
  8 39  1  0
  8 40  1  0
  9 41  1  0
  9 42  1  0
 10 43  1  0
 10 44  1  0
 13 45  1  0
 14 46  1  0
 15 47  1  0
 16 48  1  0
 19 49  1  0
 19 50  1  0
 19 51  1  0
 21 52  1  0
 22 53  1  0
 25 54  1  0
M  CHG  2  10   1  18   1
M  END
>  <UniqueID>  (31) 
31

>  <SMILES>  (31) 
CCCN(CCO)CC[NH2+]c1c2ccccc2[n+](C)c2ccc(Cl)cc12

>  <Energy>  (31) 
89.80869579578699

>  <Genealogy>  (31) 
CCCN(CCO)CC[NH2+]c1c2ccccc2[n+](C)c2ccc(Cl)cc12 (protonated)
CCCN(CCO)CC[NH2+]c1c2ccccc2[n+](C)c2ccc(Cl)cc12 (3D coordinates assigned)
CCCN(CCO)CC[NH2+]c1c2ccccc2[n+](C)c2ccc(Cl)cc12 (optimized conformer: 89.80869579578699 kcal/mol)

>  <smiles>  (31) 
CCCN(CCO)CCNc1c2ccccc2[n+](C)c2ccc(Cl)cc12

>  <score_type>  (31) 
oracle

>  <origin>  (31) 
adg

>  <m_score__min__energy>  (31) 
-9.2799999999999994

>  <m_primary>  (31) 
energy

$$$$
31:0
     RDKit          3D

 72 74  0  0  0  0  0  0  0  0999 V2000
   -7.5390   23.8080  -31.4520 C   0  0  0  0  0  0  0  0  0  0  0  0
   -7.1500   23.4310  -30.0150 C   0  0  0  0  0  0  0  0  0  0  0  0
   -6.0180   24.2140  -29.4500 N   0  0  2  0  0  0  0  0  0  0  0  0
   -6.1600   25.6510  -29.7480 C   0  0  0  0  0  0  0  0  0  0  0  0
   -4.6730   23.7360  -29.8600 C   0  0  0  0  0  0  0  0  0  0  0  0
   -4.7250   22.3620  -30.5590 C   0  0  0  0  0  0  0  0  0  0  0  0
   -3.8470   22.3110  -31.8150 C   0  0  0  0  0  0  0  0  0  0  0  0
   -4.5860   21.8050  -32.9750 N   0  0  0  0  0  0  0  0  0  0  0  0
   -4.8960   20.4090  -33.0720 C   0  0  0  0  0  0  0  0  0  0  0  0
   -6.1960   19.9520  -32.7570 C   0  0  0  0  0  0  0  0  0  0  0  0
   -7.1640   20.8370  -32.2390 C   0  0  0  0  0  0  0  0  0  0  0  0
   -8.4460   20.3890  -31.9290 C   0  0  0  0  0  0  0  0  0  0  0  0
   -8.7860   19.0560  -32.1240 C   0  0  0  0  0  0  0  0  0  0  0  0
   -7.8480   18.1570  -32.6300 C   0  0  0  0  0  0  0  0  0  0  0  0
   -6.5360   18.5780  -32.9580 C   0  0  0  0  0  0  0  0  0  0  0  0
   -5.5970   17.6970  -33.4590 N   0  0  0  0  0  0  0  0  0  0  0  0
   -5.9420   16.2840  -33.7090 C   0  0  0  0  0  0  0  0  0  0  0  0
   -4.3280   18.1540  -33.7010 C   0  0  0  0  0  0  0  0  0  0  0  0
   -3.0110   17.2600  -34.2470 S   0  0  0  0  0  0  0  0  0  0  0  0
   -1.9170   18.5310  -34.2380 C   0  0  0  0  0  0  0  0  0  0  0  0
   -2.5590   19.6960  -33.7940 C   0  0  0  0  0  0  0  0  0  0  0  0
   -1.8420   21.0220  -33.6170 C   0  0  0  0  0  0  0  0  0  0  0  0
   -0.6460   20.9780  -32.6520 C   0  0  0  0  0  0  0  0  0  0  0  0
    0.6070   21.2550  -33.3710 N   0  0  0  0  0  0  0  0  0  0  0  0
    0.8630   20.2480  -34.4120 C   0  0  0  0  0  0  0  0  0  0  0  0
    1.2830   20.9230  -35.7250 C   0  0  0  0  0  0  0  0  0  0  0  0
    0.4190   22.1610  -36.0520 C   0  0  0  0  0  0  0  0  0  0  0  0
    0.9670   23.4360  -35.5330 N   0  0  0  0  0  0  0  0  0  0  0  0
    2.4320   23.5150  -35.6310 C   0  0  0  0  0  0  0  0  0  0  0  0
    0.3270   24.6210  -36.1250 C   0  0  0  0  0  0  0  0  0  0  0  0
   -3.9380   19.4760  -33.5100 C   0  0  0  0  0  0  0  0  0  0  0  0
   -8.3287   24.5734  -31.4293 H   0  0  0  0  0  0  0  0  0  0  0  0
   -6.6584   24.2053  -31.9780 H   0  0  0  0  0  0  0  0  0  0  0  0
   -7.9085   22.9154  -31.9780 H   0  0  0  0  0  0  0  0  0  0  0  0
   -8.0282   23.5854  -29.3709 H   0  0  0  0  0  0  0  0  0  0  0  0
   -6.8159   22.3835  -30.0490 H   0  0  0  0  0  0  0  0  0  0  0  0
   -6.0810   24.1240  -28.4080 H   0  0  0  0  0  0  0  0  0  0  0  0
   -6.2159   26.2169  -28.8064 H   0  0  0  0  0  0  0  0  0  0  0  0
   -5.2912   25.9924  -30.3300 H   0  0  0  0  0  0  0  0  0  0  0  0
   -7.0788   25.8157  -30.3300 H   0  0  0  0  0  0  0  0  0  0  0  0
   -4.2339   24.4686  -30.5532 H   0  0  0  0  0  0  0  0  0  0  0  0
   -4.0643   23.6266  -28.9503 H   0  0  0  0  0  0  0  0  0  0  0  0
   -4.3769   21.5934  -29.8533 H   0  0  0  0  0  0  0  0  0  0  0  0
   -5.7650   22.1831  -30.8696 H   0  0  0  0  0  0  0  0  0  0  0  0
   -3.4853   23.3256  -32.0381 H   0  0  0  0  0  0  0  0  0  0  0  0
   -3.0084   21.6268  -31.6186 H   0  0  0  0  0  0  0  0  0  0  0  0
   -4.6730   22.3810  -33.8420 H   0  0  0  0  0  0  0  0  0  0  0  0
   -6.9037   21.8935  -32.0778 H   0  0  0  0  0  0  0  0  0  0  0  0
   -9.1911   21.0923  -31.5288 H   0  0  0  0  0  0  0  0  0  0  0  0
   -9.8002   18.7082  -31.8780 H   0  0  0  0  0  0  0  0  0  0  0  0
   -8.1314   17.1043  -32.7768 H   0  0  0  0  0  0  0  0  0  0  0  0
   -6.0694   15.7623  -32.7490 H   0  0  0  0  0  0  0  0  0  0  0  0
   -6.8794   16.2313  -34.2822 H   0  0  0  0  0  0  0  0  0  0  0  0
   -5.1344   15.8052  -34.2822 H   0  0  0  0  0  0  0  0  0  0  0  0
   -0.8599   18.4616  -34.5344 H   0  0  0  0  0  0  0  0  0  0  0  0
   -1.4767   21.3488  -34.6017 H   0  0  0  0  0  0  0  0  0  0  0  0
   -2.5731   21.7159  -33.1765 H   0  0  0  0  0  0  0  0  0  0  0  0
   -0.7871   21.7345  -31.8660 H   0  0  0  0  0  0  0  0  0  0  0  0
   -0.5857   19.9743  -32.2060 H   0  0  0  0  0  0  0  0  0  0  0  0
    0.4910   22.1800  -33.8460 H   0  0  0  0  0  0  0  0  0  0  0  0
    1.6681   19.5778  -34.0764 H   0  0  0  0  0  0  0  0  0  0  0  0
   -0.0602   19.6761  -34.5868 H   0  0  0  0  0  0  0  0  0  0  0  0
    2.3337   21.2376  -35.6404 H   0  0  0  0  0  0  0  0  0  0  0  0
    1.1454   20.1935  -36.5367 H   0  0  0  0  0  0  0  0  0  0  0  0
    0.3319   22.2423  -37.1455 H   0  0  0  0  0  0  0  0  0  0  0  0
   -0.5522   22.0091  -35.5583 H   0  0  0  0  0  0  0  0  0  0  0  0
    2.8663   23.5384  -34.6207 H   0  0  0  0  0  0  0  0  0  0  0  0
    2.8112   22.6360  -36.1728 H   0  0  0  0  0  0  0  0  0  0  0  0
    2.7145   24.4297  -36.1728 H   0  0  0  0  0  0  0  0  0  0  0  0
   -0.0308   25.2835  -35.3231 H   0  0  0  0  0  0  0  0  0  0  0  0
    1.0569   25.1596  -36.7473 H   0  0  0  0  0  0  0  0  0  0  0  0
   -0.5236   24.3059  -36.7473 H   0  0  0  0  0  0  0  0  0  0  0  0
  1  2  1  0
  2  3  1  0
  3  4  1  0
  3  5  1  0
  5  6  1  0
  6  7  1  0
  7  8  1  0
  8  9  1  0
  9 10  2  0
 10 11  1  0
 11 12  2  0
 12 13  1  0
 13 14  2  0
 14 15  1  0
 15 16  2  0
 16 17  1  0
 16 18  1  0
 18 19  1  0
 19 20  1  0
 20 21  2  0
 21 22  1  0
 22 23  1  0
 23 24  1  0
 24 25  1  0
 25 26  1  0
 26 27  1  0
 27 28  1  0
 28 29  1  0
 28 30  1  0
 21 31  1  0
 31  9  1  0
 15 10  1  0
 31 18  2  0
  1 32  1  0
  1 33  1  0
  1 34  1  0
  2 35  1  0
  2 36  1  0
  3 37  1  1
  4 38  1  0
  4 39  1  0
  4 40  1  0
  5 41  1  0
  5 42  1  0
  6 43  1  0
  6 44  1  0
  7 45  1  0
  7 46  1  0
  8 47  1  0
 11 48  1  0
 12 49  1  0
 13 50  1  0
 14 51  1  0
 17 52  1  0
 17 53  1  0
 17 54  1  0
 20 55  1  0
 22 56  1  0
 22 57  1  0
 23 58  1  0
 23 59  1  0
 24 60  1  0
 25 61  1  0
 25 62  1  0
 26 63  1  0
 26 64  1  0
 27 65  1  0
 27 66  1  0
 29 67  1  0
 29 68  1  0
 29 69  1  0
 30 70  1  0
 30 71  1  0
 30 72  1  0
M  CHG  2   3   1  16   1
M  END
>  <UniqueID>  (32) 
32

>  <SMILES>  (32) 
CC[N@H+](C)CCCNc1c2ccccc2[n+](C)c2scc(CCNCCCN(C)C)c12

>  <Energy>  (32) 
118.86925589331754

>  <Genealogy>  (32) 
CC[NH+](C)CCCNc1c2ccccc2[n+](C)c2scc(CCNCCCN(C)C)c12 (protonated)
CC[N@H+](C)CCCNc1c2ccccc2[n+](C)c2scc(CCNCCCN(C)C)c12 (chirality)
CC[N@H+](C)CCCNc1c2ccccc2[n+](C)c2scc(CCNCCCN(C)C)c12 (3D coordinates assigned)
CC[N@H+](C)CCCNc1c2ccccc2[n+](C)c2scc(CCNCCCN(C)C)c12 (optimized conformer: 118.86925589331754 kcal/mol)

>  <smiles>  (32) 
CCN(C)CCCNc1c2ccccc2[n+](C)c2scc(CCNCCCN(C)C)c12

>  <score_type>  (32) 
oracle

>  <origin>  (32) 
adg

>  <m_score__min__energy>  (32) 
-9.2300000000000004

>  <m_primary>  (32) 
energy

$$$$
