0:0
     RDKit          3D

 61 64  0  0  0  0  0  0  0  0999 V2000
   -1.5710   17.6170  -33.1920 C   0  0  0  0  0  0  0  0  0  0  0  0
   -2.4810   16.7500  -34.0560 C   0  0  0  0  0  0  0  0  0  0  0  0
   -3.8190   16.4740  -33.3460 C   0  0  0  0  0  0  0  0  0  0  0  0
   -4.8850   17.4330  -33.7110 N   0  0  0  0  0  0  0  0  0  0  0  0
   -6.1280   16.8220  -34.2290 C   0  0  0  0  0  0  0  0  0  0  0  0
   -7.2390   16.7820  -33.1810 C   0  0  0  0  0  0  0  0  0  0  0  0
   -7.5000   18.1660  -32.6820 C   0  0  0  0  0  0  0  0  0  0  0  0
   -8.8000   18.5670  -32.3500 C   0  0  0  0  0  0  0  0  0  0  0  0
   -9.0350   19.8600  -31.8870 C   0  0  0  0  0  0  0  0  0  0  0  0
   -7.9750   20.7530  -31.7270 C   0  0  0  0  0  0  0  0  0  0  0  0
   -6.6530   20.3540  -32.0130 C   0  0  0  0  0  0  0  0  0  0  0  0
   -6.4250   19.0560  -32.5230 C   0  0  0  0  0  0  0  0  0  0  0  0
   -4.9990   18.6070  -32.8000 C   0  0  2  0  0  0  0  0  0  0  0  0
   -4.1980   19.7730  -33.4020 C   0  0  0  0  0  0  0  0  0  0  0  0
   -4.2920   21.0170  -32.5410 C   0  0  0  0  0  0  0  0  0  0  0  0
   -3.2080   21.9230  -32.4490 C   0  0  0  0  0  0  0  0  0  0  0  0
   -2.0230   21.7350  -33.2460 N   0  0  0  0  0  0  0  0  0  0  0  0
   -0.8280   21.0360  -32.7690 C   0  0  0  0  0  0  0  0  0  0  0  0
    0.2920   21.1100  -33.8100 C   0  0  0  0  0  0  0  0  0  0  0  0
   -0.0430   22.1050  -34.8370 N   0  0  0  0  0  0  0  0  0  0  0  0
    1.0220   22.2180  -35.8430 C   0  0  0  0  0  0  0  0  0  0  0  0
    1.3880   23.6800  -36.0770 C   0  0  0  0  0  0  0  0  0  0  0  0
   -3.3090   23.0290  -31.5910 C   0  0  0  0  0  0  0  0  0  0  0  0
   -4.4620   23.2590  -30.8430 C   0  0  0  0  0  0  0  0  0  0  0  0
   -4.4860   24.3720  -29.9880 O   0  0  0  0  0  0  0  0  0  0  0  0
   -5.6710   24.9770  -29.4810 C   0  0  0  0  0  0  0  0  0  0  0  0
   -5.5540   22.3860  -30.9720 C   0  0  0  0  0  0  0  0  0  0  0  0
   -5.4940   21.2820  -31.8440 C   0  0  0  0  0  0  0  0  0  0  0  0
   -1.7776   17.4202  -32.1297 H   0  0  0  0  0  0  0  0  0  0  0  0
   -0.5200   17.3778  -33.4116 H   0  0  0  0  0  0  0  0  0  0  0  0
   -1.7591   18.6783  -33.4116 H   0  0  0  0  0  0  0  0  0  0  0  0
   -2.6782   17.2702  -35.0049 H   0  0  0  0  0  0  0  0  0  0  0  0
   -1.9777   15.7893  -34.2398 H   0  0  0  0  0  0  0  0  0  0  0  0
   -4.1540   15.4612  -33.6142 H   0  0  0  0  0  0  0  0  0  0  0  0
   -3.6420   16.5800  -32.2655 H   0  0  0  0  0  0  0  0  0  0  0  0
   -6.4771   17.4088  -35.0914 H   0  0  0  0  0  0  0  0  0  0  0  0
   -5.8981   15.7845  -34.5133 H   0  0  0  0  0  0  0  0  0  0  0  0
   -8.1558   16.3759  -33.6333 H   0  0  0  0  0  0  0  0  0  0  0  0
   -6.9302   16.1409  -32.3422 H   0  0  0  0  0  0  0  0  0  0  0  0
   -9.6365   17.8605  -32.4548 H   0  0  0  0  0  0  0  0  0  0  0  0
  -10.0603   20.1780  -31.6467 H   0  0  0  0  0  0  0  0  0  0  0  0
   -8.1720   21.7764  -31.3750 H   0  0  0  0  0  0  0  0  0  0  0  0
   -4.5953   18.2915  -31.8266 H   0  0  0  0  0  0  0  0  0  0  0  0
   -3.1423   19.4755  -33.4855 H   0  0  0  0  0  0  0  0  0  0  0  0
   -4.6196   20.0060  -34.3909 H   0  0  0  0  0  0  0  0  0  0  0  0
   -2.0190   22.0730  -34.2360 H   0  0  0  0  0  0  0  0  0  0  0  0
   -0.4844   21.5040  -31.8347 H   0  0  0  0  0  0  0  0  0  0  0  0
   -1.0811   19.9797  -32.5953 H   0  0  0  0  0  0  0  0  0  0  0  0
    1.2310   21.3989  -33.3152 H   0  0  0  0  0  0  0  0  0  0  0  0
    0.4092   20.1250  -34.2855 H   0  0  0  0  0  0  0  0  0  0  0  0
   -0.9070   21.7730  -35.3260 H   0  0  0  0  0  0  0  0  0  0  0  0
    1.9112   21.6749  -35.4904 H   0  0  0  0  0  0  0  0  0  0  0  0
    0.6626   21.7871  -36.7891 H   0  0  0  0  0  0  0  0  0  0  0  0
    1.5146   24.1858  -35.1084 H   0  0  0  0  0  0  0  0  0  0  0  0
    2.3279   23.7362  -36.6457 H   0  0  0  0  0  0  0  0  0  0  0  0
    0.5854   24.1724  -36.6457 H   0  0  0  0  0  0  0  0  0  0  0  0
   -2.4628   23.7268  -31.5075 H   0  0  0  0  0  0  0  0  0  0  0  0
   -5.6473   24.9649  -28.3813 H   0  0  0  0  0  0  0  0  0  0  0  0
   -5.7322   26.0167  -29.8350 H   0  0  0  0  0  0  0  0  0  0  0  0
   -6.5490   24.4168  -29.8350 H   0  0  0  0  0  0  0  0  0  0  0  0
   -6.4668   22.5665  -30.3852 H   0  0  0  0  0  0  0  0  0  0  0  0
  1  2  1  0
  2  3  1  0
  3  4  1  0
  4  5  1  0
  5  6  1  0
  6  7  1  0
  7  8  2  0
  8  9  1  0
  9 10  2  0
 10 11  1  0
 11 12  2  0
 12 13  1  0
 13 14  1  0
 14 15  1  0
 15 16  2  0
 16 17  1  0
 17 18  1  0
 18 19  1  0
 19 20  1  0
 20 21  1  0
 21 22  1  0
 16 23  1  0
 23 24  2  0
 24 25  1  0
 25 26  1  0
 24 27  1  0
 27 28  2  0
 13  4  1  0
 28 15  1  0
 12  7  1  0
 28 11  1  0
  1 29  1  0
  1 30  1  0
  1 31  1  0
  2 32  1  0
  2 33  1  0
  3 34  1  0
  3 35  1  0
  5 36  1  0
  5 37  1  0
  6 38  1  0
  6 39  1  0
  8 40  1  0
  9 41  1  0
 10 42  1  0
 13 43  1  1
 14 44  1  0
 14 45  1  0
 17 46  1  0
 18 47  1  0
 18 48  1  0
 19 49  1  0
 19 50  1  0
 20 51  1  0
 21 52  1  0
 21 53  1  0
 22 54  1  0
 22 55  1  0
 22 56  1  0
 23 57  1  0
 26 58  1  0
 26 59  1  0
 26 60  1  0
 27 61  1  0
M  END
>  <UniqueID>  (1) 
1

>  <SMILES>  (1) 
CCCN1CCc2cccc3c2[C@@H]1Cc1c(NCCNCC)cc(OC)cc1-3

>  <Energy>  (1) 
75.59621648298415

>  <Genealogy>  (1) 
CCCN1CCc2cccc3c2[C@@H]1Cc1c(NCCNCC)cc(OC)cc1-3 (chirality)
CCCN1CCc2cccc3c2[C@@H]1Cc1c(NCCNCC)cc(OC)cc1-3 (3D coordinates assigned)
CCCN1CCc2cccc3c2[C@@H]1Cc1c(NCCNCC)cc(OC)cc1-3 (nonaromatic ring conformer: 75.59621648298415 kcal/mol)

>  <smiles>  (1) 
CCCN1CCc2cccc3c2C1Cc1c(NCCNCC)cc(OC)cc1-3

>  <score_type>  (1) 
oracle

>  <origin>  (1) 
adg

>  <m_score__min__energy>  (1) 
-9.7699999999999996

>  <m_primary>  (1) 
energy

$$$$
1:0
     RDKit          3D

 62 65  0  0  0  0  0  0  0  0999 V2000
   -2.4660   20.3530  -27.8900 C   0  0  0  0  0  0  0  0  0  0  0  0
   -2.7610   20.9870  -29.2530 C   0  0  0  0  0  0  0  0  0  0  0  0
   -3.8450   21.9820  -29.1840 N   0  0  0  0  0  0  0  0  0  0  0  0
   -3.9220   22.6510  -27.8740 C   0  0  0  0  0  0  0  0  0  0  0  0
   -3.6100   24.1490  -28.0030 C   0  0  0  0  0  0  0  0  0  0  0  0
   -2.7080   24.4720  -29.2000 C   0  0  0  0  0  0  0  0  0  0  0  0
   -3.5190   24.8080  -30.3800 N   0  0  0  0  0  0  0  0  0  0  0  0
   -4.9440   24.9900  -30.0500 C   0  0  0  0  0  0  0  0  0  0  0  0
   -5.8420   23.8560  -30.5780 C   0  0  0  0  0  0  0  0  0  0  0  0
   -5.4390   23.4230  -31.9170 N   0  0  0  0  0  0  0  0  0  0  0  0
   -5.6330   22.0620  -32.3270 C   0  0  0  0  0  0  0  0  0  0  0  0
   -4.5300   21.2900  -32.7230 C   0  0  0  0  0  0  0  0  0  0  0  0
   -4.7200   19.9400  -33.0790 C   0  0  0  0  0  0  0  0  0  0  0  0
   -5.9960   19.4560  -33.2820 N   0  0  0  0  0  0  0  0  0  0  0  0
   -6.2150   18.2480  -34.1030 C   0  0  0  0  0  0  0  0  0  0  0  0
   -7.0830   20.1610  -32.8030 C   0  0  0  0  0  0  0  0  0  0  0  0
   -8.3840   19.5990  -32.7810 C   0  0  0  0  0  0  0  0  0  0  0  0
   -9.4700   20.3210  -32.2870 C   0  0  0  0  0  0  0  0  0  0  0  0
   -9.2900   21.6090  -31.7960 C   0  0  0  0  0  0  0  0  0  0  0  0
   -8.0210   22.1870  -31.7960 C   0  0  0  0  0  0  0  0  0  0  0  0
   -6.9110   21.4800  -32.3040 C   0  0  0  0  0  0  0  0  0  0  0  0
   -3.4830   19.1110  -33.2500 C   0  0  0  0  0  0  0  0  0  0  0  0
   -3.4640   17.7480  -32.8980 C   0  0  0  0  0  0  0  0  0  0  0  0
   -2.2910   17.0100  -33.0450 C   0  0  0  0  0  0  0  0  0  0  0  0
   -1.1350   17.6330  -33.5040 C   0  0  0  0  0  0  0  0  0  0  0  0
   -1.1560   19.0010  -33.7700 C   0  0  0  0  0  0  0  0  0  0  0  0
   -2.3040   19.7250  -33.6000 N   0  0  0  0  0  0  0  0  0  0  0  0
   -2.2770   21.1800  -33.8040 C   0  0  0  0  0  0  0  0  0  0  0  0
   -3.1350   21.8760  -32.7410 C   0  0  0  0  0  0  0  0  0  0  0  0
   -2.7847   21.0379  -27.0904 H   0  0  0  0  0  0  0  0  0  0  0  0
   -3.0151   19.4040  -27.8005 H   0  0  0  0  0  0  0  0  0  0  0  0
   -1.3864   20.1618  -27.8005 H   0  0  0  0  0  0  0  0  0  0  0  0
   -1.8490   21.4822  -29.6176 H   0  0  0  0  0  0  0  0  0  0  0  0
   -3.0828   20.1856  -29.9343 H   0  0  0  0  0  0  0  0  0  0  0  0
   -3.7100   22.7030  -29.9310 H   0  0  0  0  0  0  0  0  0  0  0  0
   -4.9363   22.5284  -27.4664 H   0  0  0  0  0  0  0  0  0  0  0  0
   -3.1797   22.1945  -27.2028 H   0  0  0  0  0  0  0  0  0  0  0  0
   -4.5574   24.6956  -28.1204 H   0  0  0  0  0  0  0  0  0  0  0  0
   -3.0710   24.4524  -27.0934 H   0  0  0  0  0  0  0  0  0  0  0  0
   -2.0642   25.3275  -28.9477 H   0  0  0  0  0  0  0  0  0  0  0  0
   -2.0930   23.5896  -29.4305 H   0  0  0  0  0  0  0  0  0  0  0  0
   -3.1380   25.6750  -30.8250 H   0  0  0  0  0  0  0  0  0  0  0  0
   -5.0458   25.0350  -28.9556 H   0  0  0  0  0  0  0  0  0  0  0  0
   -5.2744   25.9198  -30.5360 H   0  0  0  0  0  0  0  0  0  0  0  0
   -5.7747   22.9993  -29.8913 H   0  0  0  0  0  0  0  0  0  0  0  0
   -6.8729   24.2351  -30.6368 H   0  0  0  0  0  0  0  0  0  0  0  0
   -5.1510   24.1180  -32.6420 H   0  0  0  0  0  0  0  0  0  0  0  0
   -6.3722   17.3808  -33.4447 H   0  0  0  0  0  0  0  0  0  0  0  0
   -7.1017   18.3919  -34.7379 H   0  0  0  0  0  0  0  0  0  0  0  0
   -5.3342   18.0715  -34.7379 H   0  0  0  0  0  0  0  0  0  0  0  0
   -8.5394   18.5779  -33.1593 H   0  0  0  0  0  0  0  0  0  0  0  0
  -10.4731   19.8695  -32.2859 H   0  0  0  0  0  0  0  0  0  0  0  0
  -10.1502   22.1733  -31.4067 H   0  0  0  0  0  0  0  0  0  0  0  0
   -7.8843   23.2028  -31.3965 H   0  0  0  0  0  0  0  0  0  0  0  0
   -4.3729   17.2667  -32.5078 H   0  0  0  0  0  0  0  0  0  0  0  0
   -2.2793   15.9380  -32.7988 H   0  0  0  0  0  0  0  0  0  0  0  0
   -0.2135   17.0518  -33.6555 H   0  0  0  0  0  0  0  0  0  0  0  0
   -0.2416   19.5027  -34.1196 H   0  0  0  0  0  0  0  0  0  0  0  0
   -1.2401   21.5392  -33.7272 H   0  0  0  0  0  0  0  0  0  0  0  0
   -2.6800   21.4118  -34.8009 H   0  0  0  0  0  0  0  0  0  0  0  0
   -2.6710   21.7379  -31.7532 H   0  0  0  0  0  0  0  0  0  0  0  0
   -3.2010   22.9475  -32.9810 H   0  0  0  0  0  0  0  0  0  0  0  0
  1  2  1  0
  2  3  1  0
  3  4  1  0
  4  5  1  0
  5  6  1  0
  6  7  1  0
  7  8  1  0
  8  9  1  0
  9 10  1  0
 10 11  1  0
 11 12  2  0
 12 13  1  0
 13 14  2  0
 14 15  1  0
 14 16  1  0
 16 17  2  0
 17 18  1  0
 18 19  2  0
 19 20  1  0
 20 21  2  0
 13 22  1  0
 22 23  2  0
 23 24  1  0
 24 25  2  0
 25 26  1  0
 26 27  2  0
 27 28  1  0
 28 29  1  0
 21 11  1  0
 27 22  1  0
 29 12  1  0
 21 16  1  0
  1 30  1  0
  1 31  1  0
  1 32  1  0
  2 33  1  0
  2 34  1  0
  3 35  1  0
  4 36  1  0
  4 37  1  0
  5 38  1  0
  5 39  1  0
  6 40  1  0
  6 41  1  0
  7 42  1  0
  8 43  1  0
  8 44  1  0
  9 45  1  0
  9 46  1  0
 10 47  1  0
 15 48  1  0
 15 49  1  0
 15 50  1  0
 17 51  1  0
 18 52  1  0
 19 53  1  0
 20 54  1  0
 23 55  1  0
 24 56  1  0
 25 57  1  0
 26 58  1  0
 28 59  1  0
 28 60  1  0
 29 61  1  0
 29 62  1  0
M  CHG  2  14   1  27   1
M  END
>  <UniqueID>  (2) 
2

>  <SMILES>  (2) 
CCNCCCNCCNc1c2c([n+](C)c3ccccc13)-c1cccc[n+]1CC2

>  <Energy>  (2) 
89.28907792923566

>  <Genealogy>  (2) 
CCNCCCNCCNc1c2c([n+](C)c3ccccc13)-c1cccc[n+]1CC2 (3D coordinates assigned)
CCNCCCNCCNc1c2c([n+](C)c3ccccc13)-c1cccc[n+]1CC2 (nonaromatic ring conformer: 89.28907792923566 kcal/mol)

>  <smiles>  (2) 
CCNCCCNCCNc1c2c([n+](C)c3ccccc13)-c1cccc[n+]1CC2

>  <score_type>  (2) 
oracle

>  <origin>  (2) 
adg

>  <m_score__min__energy>  (2) 
-8.9100000000000001

>  <m_primary>  (2) 
energy

$$$$
2:0
     RDKit          3D

 47 49  0  0  0  0  0  0  0  0999 V2000
   -0.0780   22.7110  -24.7890 C   0  0  0  0  0  0  0  0  0  0  0  0
   -0.2950   24.1770  -24.9850 C   0  0  0  0  0  0  0  0  0  0  0  0
   -0.2600   25.0860  -23.9920 N   0  0  0  0  0  0  0  0  0  0  0  0
   -0.3660   26.2960  -24.5190 N   0  0  0  0  0  0  0  0  0  0  0  0
   -0.3200   27.5310  -23.7410 C   0  0  0  0  0  0  0  0  0  0  0  0
   -0.4740   26.1870  -25.8630 C   0  0  0  0  0  0  0  0  0  0  0  0
   -0.5040   27.3380  -26.8240 C   0  0  0  0  0  0  0  0  0  0  0  0
   -0.4170   24.8390  -26.1980 C   0  0  0  0  0  0  0  0  0  0  0  0
   -0.3630   24.2260  -27.5720 C   0  0  0  0  0  0  0  0  0  0  0  0
   -1.6250   24.4580  -28.3060 N   0  0  0  0  0  0  0  0  0  0  0  0
   -2.8020   24.1180  -27.4730 C   0  0  0  0  0  0  0  0  0  0  0  0
   -4.0920   24.1290  -28.2990 C   0  0  0  0  0  0  0  0  0  0  0  0
   -3.9870   23.1960  -29.4280 N   0  0  0  0  0  0  0  0  0  0  0  0
   -5.1820   22.6920  -30.0650 C   0  0  0  0  0  0  0  0  0  0  0  0
   -6.4510   23.1870  -29.7090 C   0  0  0  0  0  0  0  0  0  0  0  0
   -7.6050   22.7030  -30.3350 C   0  0  0  0  0  0  0  0  0  0  0  0
   -7.5070   21.7190  -31.3240 C   0  0  0  0  0  0  0  0  0  0  0  0
   -8.6940   21.2240  -31.9700 C   0  0  0  0  0  0  0  0  0  0  0  0
   -9.6500   20.8270  -32.4890 N   0  0  0  0  0  0  0  0  0  0  0  0
   -6.2500   21.2220  -31.6890 C   0  0  0  0  0  0  0  0  0  0  0  0
   -5.0960   21.7060  -31.0660 C   0  0  0  0  0  0  0  0  0  0  0  0
   -2.6620   22.6940  -29.8120 C   0  0  0  0  0  0  0  0  0  0  0  0
   -1.6080   23.8000  -29.6430 C   0  0  0  0  0  0  0  0  0  0  0  0
   -0.0447   22.4859  -23.7128 H   0  0  0  0  0  0  0  0  0  0  0  0
   -0.9033   22.1526  -25.2550 H   0  0  0  0  0  0  0  0  0  0  0  0
    0.8736   22.4157  -25.2550 H   0  0  0  0  0  0  0  0  0  0  0  0
   -0.1340   24.8840  -22.9740 H   0  0  0  0  0  0  0  0  0  0  0  0
   -0.3290   27.2890  -22.6680 H   0  0  0  0  0  0  0  0  0  0  0  0
    0.5994   28.0837  -23.9845 H   0  0  0  0  0  0  0  0  0  0  0  0
   -1.1957   28.1506  -23.9845 H   0  0  0  0  0  0  0  0  0  0  0  0
   -0.5286   28.2837  -26.2627 H   0  0  0  0  0  0  0  0  0  0  0  0
    0.3952   27.3106  -27.4571 H   0  0  0  0  0  0  0  0  0  0  0  0
   -1.4005   27.2638  -27.4571 H   0  0  0  0  0  0  0  0  0  0  0  0
    0.4682   24.6765  -28.1344 H   0  0  0  0  0  0  0  0  0  0  0  0
   -0.2137   23.1413  -27.4660 H   0  0  0  0  0  0  0  0  0  0  0  0
   -2.6597   23.1149  -27.0445 H   0  0  0  0  0  0  0  0  0  0  0  0
   -2.8933   24.8723  -26.6776 H   0  0  0  0  0  0  0  0  0  0  0  0
   -4.9346   23.8291  -27.6586 H   0  0  0  0  0  0  0  0  0  0  0  0
   -4.2557   25.1440  -28.6900 H   0  0  0  0  0  0  0  0  0  0  0  0
   -6.5360   23.9610  -28.9320 H   0  0  0  0  0  0  0  0  0  0  0  0
   -8.5912   23.0972  -30.0487 H   0  0  0  0  0  0  0  0  0  0  0  0
   -6.1703   20.4491  -32.4676 H   0  0  0  0  0  0  0  0  0  0  0  0
   -4.1118   21.3128  -31.3606 H   0  0  0  0  0  0  0  0  0  0  0  0
   -2.3977   21.8389  -29.1725 H   0  0  0  0  0  0  0  0  0  0  0  0
   -2.6879   22.3798  -30.8658 H   0  0  0  0  0  0  0  0  0  0  0  0
   -0.6135   23.3557  -29.7967 H   0  0  0  0  0  0  0  0  0  0  0  0
   -1.8445   24.5790  -30.3828 H   0  0  0  0  0  0  0  0  0  0  0  0
  1  2  1  0
  2  3  2  0
  3  4  1  0
  4  5  1  0
  4  6  1  0
  6  7  1  0
  6  8  2  0
  8  9  1  0
  9 10  1  0
 10 11  1  0
 11 12  1  0
 12 13  1  0
 13 14  1  0
 14 15  2  0
 15 16  1  0
 16 17  2  0
 17 18  1  0
 18 19  3  0
 17 20  1  0
 20 21  2  0
 13 22  1  0
 22 23  1  0
  8  2  1  0
 23 10  1  0
 21 14  1  0
  1 24  1  0
  1 25  1  0
  1 26  1  0
  3 27  1  0
  5 28  1  0
  5 29  1  0
  5 30  1  0
  7 31  1  0
  7 32  1  0
  7 33  1  0
  9 34  1  0
  9 35  1  0
 11 36  1  0
 11 37  1  0
 12 38  1  0
 12 39  1  0
 15 40  1  0
 16 41  1  0
 20 42  1  0
 21 43  1  0
 22 44  1  0
 22 45  1  0
 23 46  1  0
 23 47  1  0
M  CHG  1   3   1
M  END
>  <UniqueID>  (3) 
3

>  <SMILES>  (3) 
Cc1[nH+]n(C)c(C)c1CN1CCN(c2ccc(C#N)cc2)CC1

>  <Energy>  (3) 
85.00316469303456

>  <Genealogy>  (3) 
Cc1[nH+]n(C)c(C)c1CN1CCN(c2ccc(C#N)cc2)CC1 (protonated)
Cc1[nH+]n(C)c(C)c1CN1CCN(c2ccc(C#N)cc2)CC1 (3D coordinates assigned)
Cc1[nH+]n(C)c(C)c1CN1CCN(c2ccc(C#N)cc2)CC1 (nonaromatic ring conformer: 85.00316469303456 kcal/mol)

>  <smiles>  (3) 
Cc1nn(C)c(C)c1CN1CCN(c2ccc(C#N)cc2)CC1

>  <score_type>  (3) 
oracle

>  <origin>  (3) 
adg

>  <m_score__min__energy>  (3) 
-7.5599999999999996

>  <m_primary>  (3) 
energy

$$$$
3:0
     RDKit          3D

 27 27  0  0  0  0  0  0  0  0999 V2000
   -6.1190   25.2970  -29.4180 C   0  0  0  0  0  0  0  0  0  0  0  0
   -5.3410   25.5230  -30.7080 C   0  0  0  0  0  0  0  0  0  0  0  0
   -3.9110   25.2800  -30.4810 N   0  0  0  0  0  0  0  0  0  0  0  0
   -3.6920   24.2400  -29.4600 C   0  0  0  0  0  0  0  0  0  0  0  0
   -3.3970   22.8980  -30.1250 C   0  0  0  0  0  0  0  0  0  0  0  0
   -4.0180   22.8380  -31.4060 O   0  0  0  0  0  0  0  0  0  0  0  0
   -5.1130   22.0190  -31.7190 C   0  0  0  0  0  0  0  0  0  0  0  0
   -4.9740   20.6630  -32.0660 C   0  0  0  0  0  0  0  0  0  0  0  0
   -6.0720   19.9150  -32.3590 N   0  0  0  0  0  0  0  0  0  0  0  0
   -7.3280   20.4420  -32.3280 C   0  0  0  0  0  0  0  0  0  0  0  0
   -8.7000   19.4120  -32.7190 Cl  0  0  0  0  0  0  0  0  0  0  0  0
   -7.5110   21.7910  -31.9870 C   0  0  0  0  0  0  0  0  0  0  0  0
   -9.1110   22.5170  -31.9340 Cl  0  0  0  0  0  0  0  0  0  0  0  0
   -6.3940   22.5720  -31.6840 C   0  0  0  0  0  0  0  0  0  0  0  0
   -5.4629   25.4876  -28.5559 H   0  0  0  0  0  0  0  0  0  0  0  0
   -6.9785   25.9826  -29.3833 H   0  0  0  0  0  0  0  0  0  0  0  0
   -6.4774   24.2576  -29.3833 H   0  0  0  0  0  0  0  0  0  0  0  0
   -5.7095   24.8329  -31.4813 H   0  0  0  0  0  0  0  0  0  0  0  0
   -5.4827   26.5628  -31.0377 H   0  0  0  0  0  0  0  0  0  0  0  0
   -3.5010   24.9390  -31.3830 H   0  0  0  0  0  0  0  0  0  0  0  0
   -2.8391   24.5266  -28.8273 H   0  0  0  0  0  0  0  0  0  0  0  0
   -4.6004   24.1435  -28.8472 H   0  0  0  0  0  0  0  0  0  0  0  0
   -2.3095   22.7816  -30.2423 H   0  0  0  0  0  0  0  0  0  0  0  0
   -3.7947   22.0892  -29.4944 H   0  0  0  0  0  0  0  0  0  0  0  0
   -3.9741   20.2058  -32.1006 H   0  0  0  0  0  0  0  0  0  0  0  0
   -5.9430   18.9100  -32.6130 H   0  0  0  0  0  0  0  0  0  0  0  0
   -6.5245   23.6308  -31.4158 H   0  0  0  0  0  0  0  0  0  0  0  0
  1  2  1  0
  2  3  1  0
  3  4  1  0
  4  5  1  0
  5  6  1  0
  6  7  1  0
  7  8  2  0
  8  9  1  0
  9 10  2  0
 10 11  1  0
 10 12  1  0
 12 13  1  0
 12 14  2  0
 14  7  1  0
  1 15  1  0
  1 16  1  0
  1 17  1  0
  2 18  1  0
  2 19  1  0
  3 20  1  0
  4 21  1  0
  4 22  1  0
  5 23  1  0
  5 24  1  0
  8 25  1  0
  9 26  1  0
 14 27  1  0
M  CHG  1   9   1
M  END
>  <UniqueID>  (4) 
4

>  <SMILES>  (4) 
CCNCCOc1c[nH+]c(Cl)c(Cl)c1

>  <Energy>  (4) 
20.39574652587183

>  <Genealogy>  (4) 
CCNCCOc1c[nH+]c(Cl)c(Cl)c1 (protonated)
CCNCCOc1c[nH+]c(Cl)c(Cl)c1 (3D coordinates assigned)
CCNCCOc1c[nH+]c(Cl)c(Cl)c1 (optimized conformer: 20.39574652587183 kcal/mol)

>  <smiles>  (4) 
CCNCCOc1cnc(Cl)c(Cl)c1

>  <score_type>  (4) 
oracle

>  <origin>  (4) 
adg

>  <m_score__min__energy>  (4) 
-5.5700000000000003

>  <m_primary>  (4) 
energy

$$$$
4:0
     RDKit          3D

 59 61  0  0  0  0  0  0  0  0999 V2000
    0.2690   17.9150  -28.3970 C   0  0  0  0  0  0  0  0  0  0  0  0
   -0.7060   18.6320  -27.4580 C   0  0  0  0  0  0  0  0  0  0  0  0
   -1.5070   19.6740  -28.1720 N   0  0  0  0  0  0  0  0  0  0  0  0
   -2.7060   20.0530  -27.3820 C   0  0  0  0  0  0  0  0  0  0  0  0
   -3.0800   18.9790  -26.3510 C   0  0  0  0  0  0  0  0  0  0  0  0
   -0.6980   20.8910  -28.4490 C   0  0  0  0  0  0  0  0  0  0  0  0
   -0.5650   21.2050  -29.9490 C   0  0  0  0  0  0  0  0  0  0  0  0
   -1.6070   20.5680  -30.6560 O   0  0  0  0  0  0  0  0  0  0  0  0
   -1.6210   21.0110  -31.9950 C   0  0  0  0  0  0  0  0  0  0  0  0
   -3.0690   21.1090  -32.4770 C   0  0  0  0  0  0  0  0  0  0  0  0
   -3.9970   20.6060  -31.4630 N   0  0  0  0  0  0  0  0  0  0  0  0
   -5.3040   21.1760  -31.2800 C   0  0  0  0  0  0  0  0  0  0  0  0
   -6.4330   20.4310  -31.6610 C   0  0  0  0  0  0  0  0  0  0  0  0
   -6.3220   19.0590  -31.9780 C   0  0  0  0  0  0  0  0  0  0  0  0
   -7.4480   18.3120  -32.3140 C   0  0  0  0  0  0  0  0  0  0  0  0
   -8.7010   18.9130  -32.3280 C   0  0  0  0  0  0  0  0  0  0  0  0
   -8.8300   20.2730  -32.0470 C   0  0  0  0  0  0  0  0  0  0  0  0
   -7.6930   21.0710  -31.7530 C   0  0  0  0  0  0  0  0  0  0  0  0
   -7.7880   22.4380  -31.5770 N   0  0  0  0  0  0  0  0  0  0  0  0
   -9.0220   23.1490  -31.9840 C   0  0  0  0  0  0  0  0  0  0  0  0
   -6.7290   23.1420  -31.0310 C   0  0  0  0  0  0  0  0  0  0  0  0
   -6.8700   24.4980  -30.6410 C   0  0  0  0  0  0  0  0  0  0  0  0
   -5.7970   25.2170  -30.1290 C   0  0  0  0  0  0  0  0  0  0  0  0
   -4.5790   24.5940  -29.9120 C   0  0  0  0  0  0  0  0  0  0  0  0
   -4.4110   23.2360  -30.2010 C   0  0  0  0  0  0  0  0  0  0  0  0
   -3.2130   22.6050  -29.7270 N   0  0  0  0  0  0  0  0  0  0  0  0
   -5.4650   22.5080  -30.8320 C   0  0  0  0  0  0  0  0  0  0  0  0
    1.0145   17.3667  -27.8024 H   0  0  0  0  0  0  0  0  0  0  0  0
   -0.2858   17.2081  -29.0315 H   0  0  0  0  0  0  0  0  0  0  0  0
    0.7784   18.6553  -29.0315 H   0  0  0  0  0  0  0  0  0  0  0  0
   -1.3934   17.8900  -27.0257 H   0  0  0  0  0  0  0  0  0  0  0  0
   -0.1177   19.1328  -26.6750 H   0  0  0  0  0  0  0  0  0  0  0  0
   -1.8490   19.3110  -29.0940 H   0  0  0  0  0  0  0  0  0  0  0  0
   -2.4996   20.9955  -26.8537 H   0  0  0  0  0  0  0  0  0  0  0  0
   -3.5502   20.1632  -28.0785 H   0  0  0  0  0  0  0  0  0  0  0  0
   -2.9403   19.3803  -25.3364 H   0  0  0  0  0  0  0  0  0  0  0  0
   -4.1321   18.6889  -26.4889 H   0  0  0  0  0  0  0  0  0  0  0  0
   -2.4357   18.0982  -26.4889 H   0  0  0  0  0  0  0  0  0  0  0  0
   -1.1768   21.7487  -27.9539 H   0  0  0  0  0  0  0  0  0  0  0  0
    0.3153   20.7030  -28.0645 H   0  0  0  0  0  0  0  0  0  0  0  0
   -0.6282   22.2923  -30.1032 H   0  0  0  0  0  0  0  0  0  0  0  0
    0.4051   20.8389  -30.3161 H   0  0  0  0  0  0  0  0  0  0  0  0
   -1.1437   21.9999  -32.0604 H   0  0  0  0  0  0  0  0  0  0  0  0
   -1.0689   20.2987  -32.6258 H   0  0  0  0  0  0  0  0  0  0  0  0
   -3.3061   22.1617  -32.6904 H   0  0  0  0  0  0  0  0  0  0  0  0
   -3.1774   20.4967  -33.3844 H   0  0  0  0  0  0  0  0  0  0  0  0
   -3.7370   19.7450  -30.9280 H   0  0  0  0  0  0  0  0  0  0  0  0
   -5.3344   18.5750  -31.9592 H   0  0  0  0  0  0  0  0  0  0  0  0
   -7.3458   17.2467  -32.5682 H   0  0  0  0  0  0  0  0  0  0  0  0
   -9.5937   18.3142  -32.5614 H   0  0  0  0  0  0  0  0  0  0  0  0
   -9.8284   20.7347  -32.0532 H   0  0  0  0  0  0  0  0  0  0  0  0
   -9.5744   23.4673  -31.0876 H   0  0  0  0  0  0  0  0  0  0  0  0
   -8.7556   24.0321  -32.5833 H   0  0  0  0  0  0  0  0  0  0  0  0
   -9.6524   22.4757  -32.5833 H   0  0  0  0  0  0  0  0  0  0  0  0
   -7.8481   24.9903  -30.7459 H   0  0  0  0  0  0  0  0  0  0  0  0
   -5.9152   26.2853  -29.8950 H   0  0  0  0  0  0  0  0  0  0  0  0
   -3.7354   25.1732  -29.5083 H   0  0  0  0  0  0  0  0  0  0  0  0
   -3.1880   21.5730  -29.5670 H   0  0  0  0  0  0  0  0  0  0  0  0
   -2.2940   23.0950  -29.7690 H   0  0  0  0  0  0  0  0  0  0  0  0
  1  2  1  0
  2  3  1  0
  3  4  1  0
  4  5  1  0
  3  6  1  0
  6  7  1  0
  7  8  1  0
  8  9  1  0
  9 10  1  0
 10 11  1  0
 11 12  1  0
 12 13  2  0
 13 14  1  0
 14 15  2  0
 15 16  1  0
 16 17  2  0
 17 18  1  0
 18 19  2  0
 19 20  1  0
 19 21  1  0
 21 22  2  0
 22 23  1  0
 23 24  2  0
 24 25  1  0
 25 26  1  0
 25 27  2  0
 27 12  1  0
 18 13  1  0
 27 21  1  0
  1 28  1  0
  1 29  1  0
  1 30  1  0
  2 31  1  0
  2 32  1  0
  3 33  1  0
  4 34  1  0
  4 35  1  0
  5 36  1  0
  5 37  1  0
  5 38  1  0
  6 39  1  0
  6 40  1  0
  7 41  1  0
  7 42  1  0
  9 43  1  0
  9 44  1  0
 10 45  1  0
 10 46  1  0
 11 47  1  0
 14 48  1  0
 15 49  1  0
 16 50  1  0
 17 51  1  0
 20 52  1  0
 20 53  1  0
 20 54  1  0
 22 55  1  0
 23 56  1  0
 24 57  1  0
 26 58  1  0
 26 59  1  0
M  CHG  2   3   1  19   1
M  END
>  <UniqueID>  (5) 
5

>  <SMILES>  (5) 
CC[NH+](CC)CCOCCNc1c2ccccc2[n+](C)c2cccc(N)c12

>  <Energy>  (5) 
88.69929791465734

>  <Genealogy>  (5) 
CC[NH+](CC)CCOCCNc1c2ccccc2[n+](C)c2cccc(N)c12 (protonated)
CC[NH+](CC)CCOCCNc1c2ccccc2[n+](C)c2cccc(N)c12 (3D coordinates assigned)
CC[NH+](CC)CCOCCNc1c2ccccc2[n+](C)c2cccc(N)c12 (optimized conformer: 88.69929791465734 kcal/mol)

>  <smiles>  (5) 
CCN(CC)CCOCCNc1c2ccccc2[n+](C)c2cccc(N)c12

>  <score_type>  (5) 
oracle

>  <origin>  (5) 
adg

>  <m_score__min__energy>  (5) 
-6.2400000000000002

>  <m_primary>  (5) 
energy

$$$$
5:0
     RDKit          3D

 50 53  0  0  0  0  0  0  0  0999 V2000
    2.2820   25.6490  -25.7260 C   0  0  0  0  0  0  0  0  0  0  0  0
    2.6830   26.3260  -24.4120 C   0  0  0  0  0  0  0  0  0  0  0  0
    1.6510   26.1740  -23.3680 N   0  0  0  0  0  0  0  0  0  0  0  0
    0.4120   26.9320  -23.6560 C   0  0  0  0  0  0  0  0  0  0  0  0
   -0.8550   26.0680  -23.5180 C   0  0  0  0  0  0  0  0  0  0  0  0
   -0.7350   24.8390  -24.2320 O   0  0  0  0  0  0  0  0  0  0  0  0
   -1.2380   24.5890  -25.5220 C   0  0  0  0  0  0  0  0  0  0  0  0
   -1.9020   25.5640  -26.2800 C   0  0  0  0  0  0  0  0  0  0  0  0
   -2.3700   25.2640  -27.5580 C   0  0  0  0  0  0  0  0  0  0  0  0
   -2.1860   23.9850  -28.1080 C   0  0  0  0  0  0  0  0  0  0  0  0
   -1.5170   22.9780  -27.3500 C   0  0  0  0  0  0  0  0  0  0  0  0
   -1.0590   23.3110  -26.0570 C   0  0  0  0  0  0  0  0  0  0  0  0
   -1.2750   21.5490  -27.8930 C   0  0  0  0  0  0  0  0  0  0  0  0
   -1.9650   20.5180  -26.9800 C   0  0  0  0  0  0  0  0  0  0  0  0
    0.2400   21.2660  -27.9570 C   0  0  0  0  0  0  0  0  0  0  0  0
   -1.8320   21.3710  -29.2890 C   0  0  0  0  0  0  0  0  0  0  0  0
   -1.7750   20.2580  -30.0010 O   0  0  0  0  0  0  0  0  0  0  0  0
   -2.3630   20.4970  -31.1520 C   0  0  0  0  0  0  0  0  0  0  0  0
   -2.5370   19.6150  -32.2150 C   0  0  0  0  0  0  0  0  0  0  0  0
   -3.2010   20.0880  -33.3610 C   0  0  0  0  0  0  0  0  0  0  0  0
   -3.6720   21.4200  -33.4170 C   0  0  0  0  0  0  0  0  0  0  0  0
   -3.4820   22.2910  -32.3290 C   0  0  0  0  0  0  0  0  0  0  0  0
   -2.8200   21.7910  -31.2070 C   0  0  0  0  0  0  0  0  0  0  0  0
   -2.4770   22.3590  -30.0000 C   0  0  0  0  0  0  0  0  0  0  0  0
   -2.6910   23.6970  -29.4690 C   0  0  0  0  0  0  0  0  0  0  0  0
   -3.2840   24.5740  -30.1520 O   0  0  0  0  0  0  0  0  0  0  0  0
    1.7326   24.7214  -25.5078 H   0  0  0  0  0  0  0  0  0  0  0  0
    1.6400   26.3274  -26.3070 H   0  0  0  0  0  0  0  0  0  0  0  0
    3.1855   25.4120  -26.3070 H   0  0  0  0  0  0  0  0  0  0  0  0
    3.6195   25.8746  -24.0525 H   0  0  0  0  0  0  0  0  0  0  0  0
    2.8065   27.4009  -24.6103 H   0  0  0  0  0  0  0  0  0  0  0  0
    2.0400   26.4930  -22.4490 H   0  0  0  0  0  0  0  0  0  0  0  0
    1.4350   25.1560  -23.2580 H   0  0  0  0  0  0  0  0  0  0  0  0
    0.3425   27.7745  -22.9522 H   0  0  0  0  0  0  0  0  0  0  0  0
    0.4676   27.2785  -24.6985 H   0  0  0  0  0  0  0  0  0  0  0  0
   -1.0218   25.8471  -22.4534 H   0  0  0  0  0  0  0  0  0  0  0  0
   -1.7011   26.6295  -23.9410 H   0  0  0  0  0  0  0  0  0  0  0  0
   -2.0543   26.5708  -25.8638 H   0  0  0  0  0  0  0  0  0  0  0  0
   -2.8893   26.0377  -28.1425 H   0  0  0  0  0  0  0  0  0  0  0  0
   -0.5482   22.5447  -25.4554 H   0  0  0  0  0  0  0  0  0  0  0  0
   -1.7874   20.7834  -25.9274 H   0  0  0  0  0  0  0  0  0  0  0  0
   -3.0466   20.5167  -27.1803 H   0  0  0  0  0  0  0  0  0  0  0  0
   -1.5538   19.5176  -27.1803 H   0  0  0  0  0  0  0  0  0  0  0  0
    0.6424   21.1908  -26.9360 H   0  0  0  0  0  0  0  0  0  0  0  0
    0.4141   20.3198  -28.4903 H   0  0  0  0  0  0  0  0  0  0  0  0
    0.7439   22.0856  -28.4903 H   0  0  0  0  0  0  0  0  0  0  0  0
   -2.1668   18.5806  -32.1603 H   0  0  0  0  0  0  0  0  0  0  0  0
   -3.3549   19.4174  -34.2193 H   0  0  0  0  0  0  0  0  0  0  0  0
   -4.1910   21.7779  -34.3184 H   0  0  0  0  0  0  0  0  0  0  0  0
   -3.8426   23.3297  -32.3615 H   0  0  0  0  0  0  0  0  0  0  0  0
  1  2  1  0
  2  3  1  0
  3  4  1  0
  4  5  1  0
  5  6  1  0
  6  7  1  0
  7  8  2  0
  8  9  1  0
  9 10  2  0
 10 11  1  0
 11 12  2  0
 11 13  1  0
 13 14  1  0
 13 15  1  0
 13 16  1  0
 16 17  1  0
 17 18  1  0
 18 19  2  0
 19 20  1  0
 20 21  2  0
 21 22  1  0
 22 23  2  0
 23 24  1  0
 24 25  1  0
 25 26  2  0
 12  7  1  0
 24 16  2  0
 25 10  1  0
 23 18  1  0
  1 27  1  0
  1 28  1  0
  1 29  1  0
  2 30  1  0
  2 31  1  0
  3 32  1  0
  3 33  1  0
  4 34  1  0
  4 35  1  0
  5 36  1  0
  5 37  1  0
  8 38  1  0
  9 39  1  0
 12 40  1  0
 14 41  1  0
 14 42  1  0
 14 43  1  0
 15 44  1  0
 15 45  1  0
 15 46  1  0
 19 47  1  0
 20 48  1  0
 21 49  1  0
 22 50  1  0
M  CHG  1   3   1
M  END
>  <UniqueID>  (6) 
6

>  <SMILES>  (6) 
CC[NH2+]CCOc1ccc2c(c1)C(C)(C)c1oc3ccccc3c1C2=O

>  <Energy>  (6) 
91.81300335669842

>  <Genealogy>  (6) 
CC[NH2+]CCOc1ccc2c(c1)C(C)(C)c1oc3ccccc3c1C2=O (protonated)
CC[NH2+]CCOc1ccc2c(c1)C(C)(C)c1oc3ccccc3c1C2=O (3D coordinates assigned)
CC[NH2+]CCOc1ccc2c(c1)C(C)(C)c1oc3ccccc3c1C2=O (nonaromatic ring conformer: 91.81300335669842 kcal/mol)

>  <smiles>  (6) 
CCNCCOc1ccc2c(c1)C(C)(C)c1oc3ccccc3c1C2=O

>  <score_type>  (6) 
oracle

>  <origin>  (6) 
adg

>  <m_score__min__energy>  (6) 
-8.2899999999999991

>  <m_primary>  (6) 
energy

$$$$
6:0
     RDKit          3D

 80 84  0  0  0  0  0  0  0  0999 V2000
   -7.8420   22.3010  -29.8930 C   0  0  0  0  0  0  0  0  0  0  0  0
   -8.9600   21.7350  -30.6680 N   0  0  0  0  0  0  0  0  0  0  0  0
   -9.1050   22.4710  -31.9350 C   0  0  0  0  0  0  0  0  0  0  0  0
   -8.7490   20.2940  -30.9340 C   0  0  0  0  0  0  0  0  0  0  0  0
   -9.0880   19.9290  -32.3910 C   0  0  0  0  0  0  0  0  0  0  0  0
   -8.0170   19.1260  -33.0450 N   0  0  0  0  0  0  0  0  0  0  0  0
   -7.3740   18.2080  -32.0790 C   0  0  0  0  0  0  0  0  0  0  0  0
   -6.2750   17.3750  -32.7580 C   0  0  0  0  0  0  0  0  0  0  0  0
   -5.2620   18.2320  -33.4040 N   0  0  0  0  0  0  0  0  0  0  0  0
   -4.3100   18.8480  -32.4490 C   0  0  0  0  0  0  0  0  0  0  0  0
   -4.0650   20.3060  -32.8350 C   0  0  0  0  0  0  0  0  0  0  0  0
   -4.0560   21.1630  -31.6480 N   0  0  0  0  0  0  0  0  0  0  0  0
   -3.0580   21.1470  -30.6300 C   0  0  0  0  0  0  0  0  0  0  0  0
   -2.2340   20.2020  -30.4970 O   0  0  0  0  0  0  0  0  0  0  0  0
   -3.0890   22.3750  -29.7470 C   0  0  0  0  0  0  0  0  0  0  0  0
   -3.4630   21.9970  -28.2910 C   0  0  0  0  0  0  0  0  0  0  0  0
   -2.2040   21.7270  -27.4630 C   0  0  0  0  0  0  0  0  0  0  0  0
   -1.3480   22.9330  -27.3690 N   0  0  0  0  0  0  0  0  0  0  0  0
    0.0090   22.6490  -26.8550 C   0  0  0  0  0  0  0  0  0  0  0  0
    0.8810   23.9060  -26.6570 C   0  0  0  0  0  0  0  0  0  0  0  0
    0.1120   24.9600  -25.9050 C   0  0  0  0  0  0  0  0  0  0  0  0
   -0.1470   24.8010  -24.5350 C   0  0  0  0  0  0  0  0  0  0  0  0
   -0.8240   25.7990  -23.8250 C   0  0  0  0  0  0  0  0  0  0  0  0
   -1.2370   26.9640  -24.4770 C   0  0  0  0  0  0  0  0  0  0  0  0
   -0.9780   27.1330  -25.8390 C   0  0  0  0  0  0  0  0  0  0  0  0
   -0.2970   26.1400  -26.5500 C   0  0  0  0  0  0  0  0  0  0  0  0
   -1.3980   23.8620  -28.5260 C   0  0  0  0  0  0  0  0  0  0  0  0
   -1.7440   23.1500  -29.8420 C   0  0  0  0  0  0  0  0  0  0  0  0
   -4.2190   23.1240  -30.4150 C   0  0  0  0  0  0  0  0  0  0  0  0
   -4.7350   24.3840  -30.0920 C   0  0  0  0  0  0  0  0  0  0  0  0
   -5.7780   24.9070  -30.8730 C   0  0  0  0  0  0  0  0  0  0  0  0
   -6.2880   24.1740  -31.9600 C   0  0  0  0  0  0  0  0  0  0  0  0
   -5.7620   22.9120  -32.2730 C   0  0  0  0  0  0  0  0  0  0  0  0
   -4.7260   22.4060  -31.4830 C   0  0  0  0  0  0  0  0  0  0  0  0
   -5.8800   19.2060  -34.3240 C   0  0  0  0  0  0  0  0  0  0  0  0
   -6.9970   20.0170  -33.6410 C   0  0  0  0  0  0  0  0  0  0  0  0
   -8.0505   22.1955  -28.8181 H   0  0  0  0  0  0  0  0  0  0  0  0
   -6.9148   21.7637  -30.1412 H   0  0  0  0  0  0  0  0  0  0  0  0
   -7.7261   23.3664  -30.1412 H   0  0  0  0  0  0  0  0  0  0  0  0
   -9.3136   23.5299  -31.7221 H   0  0  0  0  0  0  0  0  0  0  0  0
   -8.1737   22.3901  -32.5147 H   0  0  0  0  0  0  0  0  0  0  0  0
   -9.9361   22.0429  -32.5147 H   0  0  0  0  0  0  0  0  0  0  0  0
   -7.6949   20.0462  -30.7403 H   0  0  0  0  0  0  0  0  0  0  0  0
   -9.4161   19.7216  -30.2727 H   0  0  0  0  0  0  0  0  0  0  0  0
  -10.0207   19.3459  -32.4001 H   0  0  0  0  0  0  0  0  0  0  0  0
   -9.1909   20.8682  -32.9542 H   0  0  0  0  0  0  0  0  0  0  0  0
   -8.4310   18.5550  -33.8230 H   0  0  0  0  0  0  0  0  0  0  0  0
   -6.9272   18.7978  -31.2651 H   0  0  0  0  0  0  0  0  0  0  0  0
   -8.1389   17.5233  -31.6839 H   0  0  0  0  0  0  0  0  0  0  0  0
   -5.7816   16.7495  -31.9994 H   0  0  0  0  0  0  0  0  0  0  0  0
   -6.7454   16.7544  -33.5349 H   0  0  0  0  0  0  0  0  0  0  0  0
   -4.7307   18.8042  -31.4336 H   0  0  0  0  0  0  0  0  0  0  0  0
   -3.3576   18.2983  -32.4780 H   0  0  0  0  0  0  0  0  0  0  0  0
   -3.0936   20.3858  -33.3449 H   0  0  0  0  0  0  0  0  0  0  0  0
   -4.8754   20.6354  -33.5019 H   0  0  0  0  0  0  0  0  0  0  0  0
   -4.0243   22.8260  -27.8353 H   0  0  0  0  0  0  0  0  0  0  0  0
   -4.0777   21.0850  -28.3086 H   0  0  0  0  0  0  0  0  0  0  0  0
   -2.5016   21.4198  -26.4496 H   0  0  0  0  0  0  0  0  0  0  0  0
   -1.6279   20.9322  -27.9593 H   0  0  0  0  0  0  0  0  0  0  0  0
   -0.0882   22.1392  -25.8851 H   0  0  0  0  0  0  0  0  0  0  0  0
    0.5122   22.0286  -27.6112 H   0  0  0  0  0  0  0  0  0  0  0  0
    1.7819   23.6369  -26.0860 H   0  0  0  0  0  0  0  0  0  0  0  0
    1.1654   24.3040  -27.6422 H   0  0  0  0  0  0  0  0  0  0  0  0
    0.1834   23.8884  -24.0172 H   0  0  0  0  0  0  0  0  0  0  0  0
   -1.0312   25.6663  -22.7529 H   0  0  0  0  0  0  0  0  0  0  0  0
   -1.7666   27.7487  -23.9169 H   0  0  0  0  0  0  0  0  0  0  0  0
   -1.3098   28.0475  -26.3525 H   0  0  0  0  0  0  0  0  0  0  0  0
   -0.0804   26.2830  -27.6189 H   0  0  0  0  0  0  0  0  0  0  0  0
   -2.1618   24.6287  -28.3291 H   0  0  0  0  0  0  0  0  0  0  0  0
   -0.3977   24.3050  -28.6404 H   0  0  0  0  0  0  0  0  0  0  0  0
   -1.8220   23.9006  -30.6424 H   0  0  0  0  0  0  0  0  0  0  0  0
   -0.9466   22.4231  -30.0557 H   0  0  0  0  0  0  0  0  0  0  0  0
   -4.3311   24.9539  -29.2423 H   0  0  0  0  0  0  0  0  0  0  0  0
   -6.1985   25.8949  -30.6337 H   0  0  0  0  0  0  0  0  0  0  0  0
   -7.1036   24.5928  -32.5677 H   0  0  0  0  0  0  0  0  0  0  0  0
   -6.1561   22.3333  -33.1214 H   0  0  0  0  0  0  0  0  0  0  0  0
   -5.1042   19.8999  -34.6799 H   0  0  0  0  0  0  0  0  0  0  0  0
   -6.3279   18.6474  -35.1591 H   0  0  0  0  0  0  0  0  0  0  0  0
   -6.5556   20.6383  -32.8478 H   0  0  0  0  0  0  0  0  0  0  0  0
   -7.4847   20.6462  -34.4001 H   0  0  0  0  0  0  0  0  0  0  0  0
  1  2  1  0
  2  3  1  0
  2  4  1  0
  4  5  1  0
  5  6  1  0
  6  7  1  0
  7  8  1  0
  8  9  1  0
  9 10  1  0
 10 11  1  0
 11 12  1  0
 12 13  1  0
 13 14  2  0
 13 15  1  0
 15 16  1  0
 16 17  1  0
 17 18  1  0
 18 19  1  0
 19 20  1  0
 20 21  1  0
 21 22  2  0
 22 23  1  0
 23 24  2  0
 24 25  1  0
 25 26  2  0
 18 27  1  0
 27 28  1  0
 15 29  1  0
 29 30  2  0
 30 31  1  0
 31 32  2  0
 32 33  1  0
 33 34  2  0
  9 35  1  0
 35 36  1  0
 36  6  1  0
 34 12  1  0
 28 15  1  0
 34 29  1  0
 26 21  1  0
  1 37  1  0
  1 38  1  0
  1 39  1  0
  3 40  1  0
  3 41  1  0
  3 42  1  0
  4 43  1  0
  4 44  1  0
  5 45  1  0
  5 46  1  0
  6 47  1  0
  7 48  1  0
  7 49  1  0
  8 50  1  0
  8 51  1  0
 10 52  1  0
 10 53  1  0
 11 54  1  0
 11 55  1  0
 16 56  1  0
 16 57  1  0
 17 58  1  0
 17 59  1  0
 19 60  1  0
 19 61  1  0
 20 62  1  0
 20 63  1  0
 22 64  1  0
 23 65  1  0
 24 66  1  0
 25 67  1  0
 26 68  1  0
 27 69  1  0
 27 70  1  0
 28 71  1  0
 28 72  1  0
 30 73  1  0
 31 74  1  0
 32 75  1  0
 33 76  1  0
 35 77  1  0
 35 78  1  0
 36 79  1  0
 36 80  1  0
M  CHG  1   6   1
M  END
>  <UniqueID>  (7) 
7

>  <SMILES>  (7) 
CN(C)CC[NH+]1CCN(CCN2C(=O)C3(CCN(CCc4ccccc4)CC3)c3ccccc32)CC1

>  <Energy>  (7) 
116.08821659389338

>  <Genealogy>  (7) 
CN(C)CC[NH+]1CCN(CCN2C(=O)C3(CCN(CCc4ccccc4)CC3)c3ccccc32)CC1 (protonated)
CN(C)CC[NH+]1CCN(CCN2C(=O)C3(CCN(CCc4ccccc4)CC3)c3ccccc32)CC1 (3D coordinates assigned)
CN(C)CC[NH+]1CCN(CCN2C(=O)C3(CCN(CCc4ccccc4)CC3)c3ccccc32)CC1 (nonaromatic ring conformer: 116.08821659389338 kcal/mol)

>  <smiles>  (7) 
CN(C)CCN1CCN(CCN2C(=O)C3(CCN(CCc4ccccc4)CC3)c3ccccc32)CC1

>  <score_type>  (7) 
oracle

>  <origin>  (7) 
adg

>  <m_score__min__energy>  (7) 
-9.3000000000000007

>  <m_primary>  (7) 
energy

$$$$
7:0
     RDKit          3D

 48 50  0  0  0  0  0  0  0  0999 V2000
   -6.2700   25.6020  -29.4680 C   0  0  0  0  0  0  0  0  0  0  0  0
   -5.6600   25.3690  -30.8540 C   0  0  0  0  0  0  0  0  0  0  0  0
   -4.1910   25.4270  -30.8400 N   0  0  0  0  0  0  0  0  0  0  0  0
   -3.6070   24.5430  -29.8220 C   0  0  0  0  0  0  0  0  0  0  0  0
   -3.1160   23.2470  -30.4660 C   0  0  0  0  0  0  0  0  0  0  0  0
   -3.7820   23.0130  -31.7490 N   0  0  0  0  0  0  0  0  0  0  0  0
   -3.9900   21.6800  -32.2510 C   0  0  0  0  0  0  0  0  0  0  0  0
   -2.9250   20.9680  -32.8270 C   0  0  0  0  0  0  0  0  0  0  0  0
   -1.6320   21.5330  -32.8900 C   0  0  0  0  0  0  0  0  0  0  0  0
   -0.5870   20.8610  -33.5130 C   0  0  0  0  0  0  0  0  0  0  0  0
   -0.8060   19.6180  -34.0910 C   0  0  0  0  0  0  0  0  0  0  0  0
    0.5080   18.7910  -34.9080 Cl  0  0  0  0  0  0  0  0  0  0  0  0
   -2.0700   19.0290  -34.0270 C   0  0  0  0  0  0  0  0  0  0  0  0
   -3.1550   19.6730  -33.3690 C   0  0  0  0  0  0  0  0  0  0  0  0
   -4.4060   19.0820  -33.2630 N   0  0  0  0  0  0  0  0  0  0  0  0
   -4.5840   17.6540  -33.6290 C   0  0  0  0  0  0  0  0  0  0  0  0
   -5.1940   17.5110  -35.0240 C   0  0  0  0  0  0  0  0  0  0  0  0
   -5.4780   19.8100  -32.7650 C   0  0  0  0  0  0  0  0  0  0  0  0
   -6.8080   19.3070  -32.7890 C   0  0  0  0  0  0  0  0  0  0  0  0
   -7.8780   20.0140  -32.2150 C   0  0  0  0  0  0  0  0  0  0  0  0
   -9.2160   19.4800  -32.2430 N   0  0  0  0  0  0  0  0  0  0  0  0
  -10.1570   20.1400  -32.7310 O   0  0  0  0  0  0  0  0  0  0  0  0
   -9.4810   18.2320  -31.7290 O   0  0  0  0  0  0  0  0  0  0  0  0
   -7.6270   21.2460  -31.6080 C   0  0  0  0  0  0  0  0  0  0  0  0
   -6.3450   21.7840  -31.6060 C   0  0  0  0  0  0  0  0  0  0  0  0
   -5.2690   21.1000  -32.2110 C   0  0  0  0  0  0  0  0  0  0  0  0
   -5.5396   25.3230  -28.6943 H   0  0  0  0  0  0  0  0  0  0  0  0
   -6.5337   26.6642  -29.3573 H   0  0  0  0  0  0  0  0  0  0  0  0
   -7.1747   24.9861  -29.3573 H   0  0  0  0  0  0  0  0  0  0  0  0
   -5.9704   24.3769  -31.2137 H   0  0  0  0  0  0  0  0  0  0  0  0
   -6.0197   26.1703  -31.5163 H   0  0  0  0  0  0  0  0  0  0  0  0
   -3.8820   26.4110  -30.6590 H   0  0  0  0  0  0  0  0  0  0  0  0
   -2.7595   25.0532  -29.3409 H   0  0  0  0  0  0  0  0  0  0  0  0
   -4.3755   24.3023  -29.0727 H   0  0  0  0  0  0  0  0  0  0  0  0
   -2.0307   23.3163  -30.6315 H   0  0  0  0  0  0  0  0  0  0  0  0
   -3.3505   22.4101  -29.7918 H   0  0  0  0  0  0  0  0  0  0  0  0
   -4.3260   23.7980  -32.1720 H   0  0  0  0  0  0  0  0  0  0  0  0
   -1.4494   22.5196  -32.4392 H   0  0  0  0  0  0  0  0  0  0  0  0
    0.4145   21.3145  -33.5481 H   0  0  0  0  0  0  0  0  0  0  0  0
   -2.2306   18.0466  -34.4950 H   0  0  0  0  0  0  0  0  0  0  0  0
   -3.6038   17.1550  -33.6134 H   0  0  0  0  0  0  0  0  0  0  0  0
   -5.2672   17.1912  -32.9017 H   0  0  0  0  0  0  0  0  0  0  0  0
   -6.2613   17.2608  -34.9336 H   0  0  0  0  0  0  0  0  0  0  0  0
   -5.0847   18.4591  -35.5709 H   0  0  0  0  0  0  0  0  0  0  0  0
   -4.6747   16.7102  -35.5709 H   0  0  0  0  0  0  0  0  0  0  0  0
   -7.0045   18.3376  -33.2703 H   0  0  0  0  0  0  0  0  0  0  0  0
   -8.4500   21.7953  -31.1276 H   0  0  0  0  0  0  0  0  0  0  0  0
   -6.1667   22.7574  -31.1257 H   0  0  0  0  0  0  0  0  0  0  0  0
  1  2  1  0
  2  3  1  0
  3  4  1  0
  4  5  1  0
  5  6  1  0
  6  7  1  0
  7  8  2  0
  8  9  1  0
  9 10  2  0
 10 11  1  0
 11 12  1  0
 11 13  2  0
 13 14  1  0
 14 15  2  0
 15 16  1  0
 16 17  1  0
 15 18  1  0
 18 19  2  0
 19 20  1  0
 20 21  1  0
 21 22  2  0
 21 23  1  0
 20 24  2  0
 24 25  1  0
 25 26  2  0
 26  7  1  0
 14  8  1  0
 26 18  1  0
  1 27  1  0
  1 28  1  0
  1 29  1  0
  2 30  1  0
  2 31  1  0
  3 32  1  0
  4 33  1  0
  4 34  1  0
  5 35  1  0
  5 36  1  0
  6 37  1  0
  9 38  1  0
 10 39  1  0
 13 40  1  0
 16 41  1  0
 16 42  1  0
 17 43  1  0
 17 44  1  0
 17 45  1  0
 19 46  1  0
 24 47  1  0
 25 48  1  0
M  CHG  3  15   1  21   1  23  -1
M  END
>  <UniqueID>  (8) 
8

>  <SMILES>  (8) 
CCNCCNc1c2ccc(Cl)cc2[n+](CC)c2cc([N+](=O)[O-])ccc12

>  <Energy>  (8) 
70.39250503213287

>  <Genealogy>  (8) 
CCNCCNc1c2ccc(Cl)cc2[n+](CC)c2cc([N+](=O)[O-])ccc12 (3D coordinates assigned)
CCNCCNc1c2ccc(Cl)cc2[n+](CC)c2cc([N+](=O)[O-])ccc12 (optimized conformer: 70.39250503213287 kcal/mol)

>  <smiles>  (8) 
CCNCCNc1c2ccc(Cl)cc2[n+](CC)c2cc([N+](=O)[O-])ccc12

>  <score_type>  (8) 
oracle

>  <origin>  (8) 
adg

>  <m_score__min__energy>  (8) 
-9.0099999999999998

>  <m_primary>  (8) 
energy

$$$$
8:0
     RDKit          3D

 55 55  0  0  0  0  0  0  0  0999 V2000
   -3.6770   21.3650  -33.2840 C   0  0  0  0  0  0  0  0  0  0  0  0
   -3.3350   20.6590  -31.9740 C   0  0  0  0  0  0  0  0  0  0  0  0
   -2.1080   21.2430  -31.3830 N   0  0  0  0  0  0  0  0  0  0  0  0
   -1.0080   21.2450  -32.3650 C   0  0  0  0  0  0  0  0  0  0  0  0
   -1.7010   20.5340  -30.1450 C   0  0  0  0  0  0  0  0  0  0  0  0
   -0.6470   21.3470  -29.3900 C   0  0  0  0  0  0  0  0  0  0  0  0
   -1.0270   22.7640  -29.3370 N   0  0  0  0  0  0  0  0  0  0  0  0
   -1.4480   23.1940  -27.9930 C   0  0  0  0  0  0  0  0  0  0  0  0
   -2.3640   24.4310  -28.0100 C   0  0  0  0  0  0  0  0  0  0  0  0
   -2.4360   25.0080  -29.3560 N   0  0  0  0  0  0  0  0  0  0  0  0
   -3.8570   24.4770  -30.2080 S   0  0  0  0  0  0  0  0  0  0  0  0
   -3.4470   23.5110  -31.2830 O   0  0  0  0  0  0  0  0  0  0  0  0
   -4.5350   25.6540  -30.8480 O   0  0  0  0  0  0  0  0  0  0  0  0
   -4.9940   23.6700  -29.0910 C   0  0  0  0  0  0  0  0  0  0  0  0
   -6.3670   23.5010  -29.7360 C   0  0  0  0  0  0  0  0  0  0  0  0
   -6.2010   23.2090  -31.1670 N   0  0  0  0  0  0  0  0  0  0  0  0
   -7.4590   23.2930  -31.9280 C   0  0  0  0  0  0  0  0  0  0  0  0
   -8.4660   22.1780  -31.5750 C   0  0  0  0  0  0  0  0  0  0  0  0
   -8.0200   20.8100  -32.0270 C   0  0  0  0  0  0  0  0  0  0  0  0
   -6.9050   20.6680  -32.8720 C   0  0  0  0  0  0  0  0  0  0  0  0
   -6.4890   19.3960  -33.2810 C   0  0  0  0  0  0  0  0  0  0  0  0
   -7.1760   18.2590  -32.8480 C   0  0  0  0  0  0  0  0  0  0  0  0
   -6.7710   17.0280  -33.2480 F   0  0  0  0  0  0  0  0  0  0  0  0
   -8.2760   18.3900  -31.9960 C   0  0  0  0  0  0  0  0  0  0  0  0
   -8.6910   19.6590  -31.5780 C   0  0  0  0  0  0  0  0  0  0  0  0
   -4.1470   22.3353  -33.0658 H   0  0  0  0  0  0  0  0  0  0  0  0
   -2.7569   21.5257  -33.8650 H   0  0  0  0  0  0  0  0  0  0  0  0
   -4.3735   20.7426  -33.8650 H   0  0  0  0  0  0  0  0  0  0  0  0
   -4.1703   20.7780  -31.2683 H   0  0  0  0  0  0  0  0  0  0  0  0
   -3.1631   19.5914  -32.1759 H   0  0  0  0  0  0  0  0  0  0  0  0
   -0.0438   21.2468  -31.8355 H   0  0  0  0  0  0  0  0  0  0  0  0
   -1.0782   20.3467  -32.9960 H   0  0  0  0  0  0  0  0  0  0  0  0
   -1.0814   22.1430  -32.9960 H   0  0  0  0  0  0  0  0  0  0  0  0
   -2.5815   20.3940  -29.5007 H   0  0  0  0  0  0  0  0  0  0  0  0
   -1.2735   19.5574  -30.4159 H   0  0  0  0  0  0  0  0  0  0  0  0
   -0.5568   20.9584  -28.3649 H   0  0  0  0  0  0  0  0  0  0  0  0
    0.3143   21.2574  -29.9171 H   0  0  0  0  0  0  0  0  0  0  0  0
   -1.8010   22.9420  -30.0230 H   0  0  0  0  0  0  0  0  0  0  0  0
   -1.9896   22.3647  -27.5145 H   0  0  0  0  0  0  0  0  0  0  0  0
   -0.5386   23.4689  -27.4385 H   0  0  0  0  0  0  0  0  0  0  0  0
   -3.3741   24.1360  -27.6897 H   0  0  0  0  0  0  0  0  0  0  0  0
   -1.9498   25.1855  -27.3250 H   0  0  0  0  0  0  0  0  0  0  0  0
   -4.5963   22.6791  -28.8267 H   0  0  0  0  0  0  0  0  0  0  0  0
   -5.1037   24.2936  -28.1915 H   0  0  0  0  0  0  0  0  0  0  0  0
   -6.9005   22.6701  -29.2513 H   0  0  0  0  0  0  0  0  0  0  0  0
   -6.9468   24.4279  -29.6148 H   0  0  0  0  0  0  0  0  0  0  0  0
   -5.4930   23.8630  -31.5740 H   0  0  0  0  0  0  0  0  0  0  0  0
   -7.9285   24.2655  -31.7188 H   0  0  0  0  0  0  0  0  0  0  0  0
   -7.2032   23.1741  -32.9912 H   0  0  0  0  0  0  0  0  0  0  0  0
   -8.5986   22.1595  -30.4832 H   0  0  0  0  0  0  0  0  0  0  0  0
   -9.4045   22.4064  -32.1013 H   0  0  0  0  0  0  0  0  0  0  0  0
   -6.3581   21.5596  -33.2126 H   0  0  0  0  0  0  0  0  0  0  0  0
   -5.6186   19.2910  -33.9453 H   0  0  0  0  0  0  0  0  0  0  0  0
   -8.8159   17.4948  -31.6538 H   0  0  0  0  0  0  0  0  0  0  0  0
   -9.5471   19.7568  -30.8942 H   0  0  0  0  0  0  0  0  0  0  0  0
  1  2  1  0
  2  3  1  0
  3  4  1  0
  3  5  1  0
  5  6  1  0
  6  7  1  0
  7  8  1  0
  8  9  1  0
  9 10  1  0
 10 11  1  0
 11 12  2  0
 11 13  2  0
 11 14  1  0
 14 15  1  0
 15 16  1  0
 16 17  1  0
 17 18  1  0
 18 19  1  0
 19 20  2  0
 20 21  1  0
 21 22  2  0
 22 23  1  0
 22 24  1  0
 24 25  2  0
 25 19  1  0
  1 26  1  0
  1 27  1  0
  1 28  1  0
  2 29  1  0
  2 30  1  0
  4 31  1  0
  4 32  1  0
  4 33  1  0
  5 34  1  0
  5 35  1  0
  6 36  1  0
  6 37  1  0
  7 38  1  0
  8 39  1  0
  8 40  1  0
  9 41  1  0
  9 42  1  0
 14 43  1  0
 14 44  1  0
 15 45  1  0
 15 46  1  0
 16 47  1  0
 17 48  1  0
 17 49  1  0
 18 50  1  0
 18 51  1  0
 20 52  1  0
 21 53  1  0
 24 54  1  0
 25 55  1  0
M  CHG  1  10  -1
M  END
>  <UniqueID>  (9) 
9

>  <SMILES>  (9) 
CCN(C)CCNCC[N-]S(=O)(=O)CCNCCc1ccc(F)cc1

>  <Energy>  (9) 
40.08389032973422

>  <Genealogy>  (9) 
CCN(C)CCNCC[N-]S(=O)(=O)CCNCCc1ccc(F)cc1 (protonated)
CCN(C)CCNCC[N-]S(=O)(=O)CCNCCc1ccc(F)cc1 (3D coordinates assigned)
CCN(C)CCNCC[N-]S(=O)(=O)CCNCCc1ccc(F)cc1 (optimized conformer: 40.08389032973422 kcal/mol)

>  <smiles>  (9) 
CCN(C)CCNCCNS(=O)(=O)CCNCCc1ccc(F)cc1

>  <score_type>  (9) 
oracle

>  <origin>  (9) 
adg

>  <m_score__min__energy>  (9) 
-8.1999999999999993

>  <m_primary>  (9) 
energy

$$$$
9:0
     RDKit          3D

 58 62  0  0  0  0  0  0  0  0999 V2000
   -6.4420   25.2940  -29.7810 C   0  0  0  0  0  0  0  0  0  0  0  0
   -5.3640   25.6820  -30.7970 C   0  0  0  0  0  0  0  0  0  0  0  0
   -4.0150   25.2690  -30.3780 N   0  0  0  0  0  0  0  0  0  0  0  0
   -4.0490   24.2110  -29.3600 C   0  0  0  0  0  0  0  0  0  0  0  0
   -3.7580   22.8590  -30.0110 C   0  0  0  0  0  0  0  0  0  0  0  0
   -4.1370   22.8680  -31.4230 N   0  0  0  0  0  0  0  0  0  0  0  0
   -4.6120   21.6710  -32.0530 C   0  0  0  0  0  0  0  0  0  0  0  0
   -3.7150   20.8350  -32.7360 C   0  0  0  0  0  0  0  0  0  0  0  0
   -4.2090   19.6760  -33.3840 C   0  0  0  0  0  0  0  0  0  0  0  0
   -5.5710   19.4910  -33.5150 N   0  0  0  0  0  0  0  0  0  0  0  0
   -6.1110   18.6370  -34.5890 C   0  0  0  0  0  0  0  0  0  0  0  0
   -6.4410   20.2090  -32.7190 C   0  0  0  0  0  0  0  0  0  0  0  0
   -7.8130   19.8710  -32.6250 C   0  0  0  0  0  0  0  0  0  0  0  0
   -8.6830   20.6170  -31.8280 C   0  0  0  0  0  0  0  0  0  0  0  0
   -8.2110   21.7080  -31.1070 C   0  0  0  0  0  0  0  0  0  0  0  0
   -6.8640   22.0580  -31.1720 C   0  0  0  0  0  0  0  0  0  0  0  0
   -5.9670   21.3170  -31.9700 C   0  0  0  0  0  0  0  0  0  0  0  0
   -3.1890   18.6970  -33.8730 C   0  0  0  0  0  0  0  0  0  0  0  0
   -3.3890   17.4050  -34.2490 N   0  0  0  0  0  0  0  0  0  0  0  0
   -2.1620   16.8720  -34.4000 C   0  0  0  0  0  0  0  0  0  0  0  0
   -1.8550   15.5490  -34.7160 C   0  0  0  0  0  0  0  0  0  0  0  0
   -0.4980   15.1620  -34.7160 C   0  0  0  0  0  0  0  0  0  0  0  0
   -0.1140   13.7630  -35.0970 C   0  0  0  0  0  0  0  0  0  0  0  0
    0.5070   16.1120  -34.4010 C   0  0  0  0  0  0  0  0  0  0  0  0
    0.1630   17.4330  -34.0660 C   0  0  0  0  0  0  0  0  0  0  0  0
   -1.1860   17.7810  -34.0930 C   0  0  0  0  0  0  0  0  0  0  0  0
   -1.8290   18.9500  -33.7520 C   0  0  0  0  0  0  0  0  0  0  0  0
   -1.2710   20.1000  -32.9800 C   0  0  0  0  0  0  0  0  0  0  0  0
   -2.2650   21.2680  -32.9480 C   0  0  0  0  0  0  0  0  0  0  0  0
   -6.0527   25.4341  -28.7618 H   0  0  0  0  0  0  0  0  0  0  0  0
   -7.3280   25.9297  -29.9257 H   0  0  0  0  0  0  0  0  0  0  0  0
   -6.7197   24.2395  -29.9257 H   0  0  0  0  0  0  0  0  0  0  0  0
   -5.5968   25.2009  -31.7584 H   0  0  0  0  0  0  0  0  0  0  0  0
   -5.3651   26.7788  -30.8808 H   0  0  0  0  0  0  0  0  0  0  0  0
   -3.4850   24.9240  -31.2130 H   0  0  0  0  0  0  0  0  0  0  0  0
   -3.2891   24.4181  -28.5921 H   0  0  0  0  0  0  0  0  0  0  0  0
   -5.0459   24.1844  -28.8959 H   0  0  0  0  0  0  0  0  0  0  0  0
   -2.6826   22.6433  -29.9280 H   0  0  0  0  0  0  0  0  0  0  0  0
   -4.3457   22.0861  -29.4941 H   0  0  0  0  0  0  0  0  0  0  0  0
   -4.1710   23.7630  -31.9630 H   0  0  0  0  0  0  0  0  0  0  0  0
   -6.6490   17.7862  -34.1454 H   0  0  0  0  0  0  0  0  0  0  0  0
   -6.8025   19.2239  -35.2114 H   0  0  0  0  0  0  0  0  0  0  0  0
   -5.2843   18.2639  -35.2114 H   0  0  0  0  0  0  0  0  0  0  0  0
   -8.1986   19.0083  -33.1881 H   0  0  0  0  0  0  0  0  0  0  0  0
   -9.7461   20.3406  -31.7702 H   0  0  0  0  0  0  0  0  0  0  0  0
   -8.9018   22.2956  -30.4845 H   0  0  0  0  0  0  0  0  0  0  0  0
   -6.4965   22.9200  -30.5959 H   0  0  0  0  0  0  0  0  0  0  0  0
   -4.2770   16.8660  -34.2970 H   0  0  0  0  0  0  0  0  0  0  0  0
   -2.6487   14.8270  -34.9586 H   0  0  0  0  0  0  0  0  0  0  0  0
    0.0496   13.1670  -34.1871 H   0  0  0  0  0  0  0  0  0  0  0  0
   -0.9211   13.3103  -35.6917 H   0  0  0  0  0  0  0  0  0  0  0  0
    0.8111   13.7858  -35.6917 H   0  0  0  0  0  0  0  0  0  0  0  0
    1.5652   15.8122  -34.4190 H   0  0  0  0  0  0  0  0  0  0  0  0
    0.9337   18.1683  -33.7914 H   0  0  0  0  0  0  0  0  0  0  0  0
   -1.0625   19.7756  -31.9498 H   0  0  0  0  0  0  0  0  0  0  0  0
   -0.3457   20.4377  -33.4697 H   0  0  0  0  0  0  0  0  0  0  0  0
   -1.9808   21.9435  -32.1277 H   0  0  0  0  0  0  0  0  0  0  0  0
   -2.2165   21.7584  -33.9314 H   0  0  0  0  0  0  0  0  0  0  0  0
  1  2  1  0
  2  3  1  0
  3  4  1  0
  4  5  1  0
  5  6  1  0
  6  7  1  0
  7  8  2  0
  8  9  1  0
  9 10  2  0
 10 11  1  0
 10 12  1  0
 12 13  2  0
 13 14  1  0
 14 15  2  0
 15 16  1  0
 16 17  2  0
  9 18  1  0
 18 19  1  0
 19 20  1  0
 20 21  2  0
 21 22  1  0
 22 23  1  0
 22 24  2  0
 24 25  1  0
 25 26  2  0
 26 27  1  0
 27 28  1  0
 28 29  1  0
 17  7  1  0
 27 18  2  0
 29  8  1  0
 17 12  1  0
 26 20  1  0
  1 30  1  0
  1 31  1  0
  1 32  1  0
  2 33  1  0
  2 34  1  0
  3 35  1  0
  4 36  1  0
  4 37  1  0
  5 38  1  0
  5 39  1  0
  6 40  1  0
 11 41  1  0
 11 42  1  0
 11 43  1  0
 13 44  1  0
 14 45  1  0
 15 46  1  0
 16 47  1  0
 19 48  1  0
 21 49  1  0
 23 50  1  0
 23 51  1  0
 23 52  1  0
 24 53  1  0
 25 54  1  0
 28 55  1  0
 28 56  1  0
 29 57  1  0
 29 58  1  0
M  CHG  1  10   1
M  END
>  <UniqueID>  (10) 
10

>  <SMILES>  (10) 
CCNCCNc1c2c([n+](C)c3ccccc13)-c1[nH]c3cc(C)ccc3c1CC2

>  <Energy>  (10) 
123.79400480378396

>  <Genealogy>  (10) 
CCNCCNc1c2c([n+](C)c3ccccc13)-c1[nH]c3cc(C)ccc3c1CC2 (3D coordinates assigned)
CCNCCNc1c2c([n+](C)c3ccccc13)-c1[nH]c3cc(C)ccc3c1CC2 (nonaromatic ring conformer: 123.79400480378396 kcal/mol)

>  <smiles>  (10) 
CCNCCNc1c2c([n+](C)c3ccccc13)-c1[nH]c3cc(C)ccc3c1CC2

>  <score_type>  (10) 
oracle

>  <origin>  (10) 
adg

>  <m_score__min__energy>  (10) 
-9.2200000000000006

>  <m_primary>  (10) 
energy

$$$$
10:0
     RDKit          3D

 39 40  0  0  0  0  0  0  0  0999 V2000
   -9.2850   22.3630  -31.8750 C   0  0  0  0  0  0  0  0  0  0  0  0
   -9.7470   20.9100  -31.9550 C   0  0  0  0  0  0  0  0  0  0  0  0
   -8.5940   19.9960  -31.8160 N   0  0  0  0  0  0  0  0  0  0  0  0
   -9.0630   18.6200  -31.5680 C   0  0  0  0  0  0  0  0  0  0  0  0
   -7.7100   20.0350  -33.0050 C   0  0  0  0  0  0  0  0  0  0  0  0
   -6.3890   20.7260  -32.6610 C   0  0  0  0  0  0  0  0  0  0  0  0
   -6.3890   21.1860  -31.2720 N   0  0  0  0  0  0  0  0  0  0  0  0
   -5.9010   22.4890  -30.9320 C   0  0  0  0  0  0  0  0  0  0  0  0
   -6.6540   23.4980  -30.3650 C   0  0  0  0  0  0  0  0  0  0  0  0
   -5.9120   24.5780  -30.2540 O   0  0  0  0  0  0  0  0  0  0  0  0
   -4.7120   24.3100  -30.7180 C   0  0  0  0  0  0  0  0  0  0  0  0
   -3.6640   25.2240  -30.7210 O   0  0  0  0  0  0  0  0  0  0  0  0
   -4.6370   23.0040  -31.1640 C   0  0  0  0  0  0  0  0  0  0  0  0
   -3.4300   22.2940  -31.6320 C   0  0  0  0  0  0  0  0  0  0  0  0
   -3.3690   21.7780  -32.9360 C   0  0  0  0  0  0  0  0  0  0  0  0
   -2.2180   21.1200  -33.3800 C   0  0  0  0  0  0  0  0  0  0  0  0
   -1.1150   20.9840  -32.5310 C   0  0  0  0  0  0  0  0  0  0  0  0
    0.4560   20.0850  -33.1390 Br  0  0  0  0  0  0  0  0  0  0  0  0
   -1.1630   21.5110  -31.2370 C   0  0  0  0  0  0  0  0  0  0  0  0
   -2.3170   22.1580  -30.7860 C   0  0  0  0  0  0  0  0  0  0  0  0
   -9.1905   22.6602  -30.8201 H   0  0  0  0  0  0  0  0  0  0  0  0
   -8.3099   22.4657  -32.3736 H   0  0  0  0  0  0  0  0  0  0  0  0
  -10.0217   23.0100  -32.3736 H   0  0  0  0  0  0  0  0  0  0  0  0
  -10.4658   20.7128  -31.1460 H   0  0  0  0  0  0  0  0  0  0  0  0
  -10.2227   20.7394  -32.9321 H   0  0  0  0  0  0  0  0  0  0  0  0
   -9.1233   18.4430  -30.4840 H   0  0  0  0  0  0  0  0  0  0  0  0
  -10.0579   18.4851  -32.0175 H   0  0  0  0  0  0  0  0  0  0  0  0
   -8.3576   17.9056  -32.0175 H   0  0  0  0  0  0  0  0  0  0  0  0
   -7.5057   19.0072  -33.3394 H   0  0  0  0  0  0  0  0  0  0  0  0
   -8.2112   20.5987  -33.8056 H   0  0  0  0  0  0  0  0  0  0  0  0
   -5.5620   20.0152  -32.8054 H   0  0  0  0  0  0  0  0  0  0  0  0
   -6.2649   21.5974  -33.3208 H   0  0  0  0  0  0  0  0  0  0  0  0
   -7.1220   20.7880  -30.6420 H   0  0  0  0  0  0  0  0  0  0  0  0
   -7.7061   23.4122  -30.0557 H   0  0  0  0  0  0  0  0  0  0  0  0
   -3.3370   25.6280  -31.5910 H   0  0  0  0  0  0  0  0  0  0  0  0
   -4.2300   21.8917  -33.6111 H   0  0  0  0  0  0  0  0  0  0  0  0
   -2.1799   20.7084  -34.3994 H   0  0  0  0  0  0  0  0  0  0  0  0
   -0.2913   21.4163  -30.5728 H   0  0  0  0  0  0  0  0  0  0  0  0
   -2.3537   22.5626  -29.7638 H   0  0  0  0  0  0  0  0  0  0  0  0
  1  2  1  0
  2  3  1  0
  3  4  1  0
  3  5  1  0
  5  6  1  0
  6  7  1  0
  7  8  1  0
  8  9  2  0
  9 10  1  0
 10 11  1  0
 11 12  1  0
 11 13  2  0
 13 14  1  0
 14 15  2  0
 15 16  1  0
 16 17  2  0
 17 18  1  0
 17 19  1  0
 19 20  2  0
 13  8  1  0
 20 14  1  0
  1 21  1  0
  1 22  1  0
  1 23  1  0
  2 24  1  0
  2 25  1  0
  4 26  1  0
  4 27  1  0
  4 28  1  0
  5 29  1  0
  5 30  1  0
  6 31  1  0
  6 32  1  0
  7 33  1  0
  9 34  1  0
 12 35  1  0
 15 36  1  0
 16 37  1  0
 19 38  1  0
 20 39  1  0
M  END
>  <UniqueID>  (11) 
11

>  <SMILES>  (11) 
CCN(C)CCNc1coc(O)c1-c1ccc(Br)cc1

>  <Energy>  (11) 
69.2864915755214

>  <Genealogy>  (11) 
CCN(C)CCNc1coc(O)c1-c1ccc(Br)cc1 (3D coordinates assigned)
CCN(C)CCNc1coc(O)c1-c1ccc(Br)cc1 (optimized conformer: 69.2864915755214 kcal/mol)

>  <smiles>  (11) 
CCN(C)CCNc1coc(O)c1-c1ccc(Br)cc1

>  <score_type>  (11) 
oracle

>  <origin>  (11) 
adg

>  <m_score__min__energy>  (11) 
-7.6699999999999999

>  <m_primary>  (11) 
energy

$$$$
11:0
     RDKit          3D

 42 43  0  0  0  0  0  0  0  0999 V2000
   -1.8620   23.5120  -27.7700 C   0  0  0  0  0  0  0  0  0  0  0  0
   -1.5960   24.2670  -29.0670 C   0  0  0  0  0  0  0  0  0  0  0  0
   -2.6780   25.2040  -29.3440 N   0  0  0  0  0  0  0  0  0  0  0  0
   -3.8500   24.8720  -30.0960 C   0  0  0  0  0  0  0  0  0  0  0  0
   -4.2920   25.6690  -30.9660 O   0  0  0  0  0  0  0  0  0  0  0  0
   -4.5960   23.6020  -29.8160 C   0  0  0  0  0  0  0  0  0  0  0  0
   -4.5760   22.7200  -31.0080 N   0  0  0  0  0  0  0  0  0  0  0  0
   -3.9070   21.4310  -30.7440 C   0  0  0  0  0  0  0  0  0  0  0  0
   -2.6800   21.2870  -31.6050 C   0  0  0  0  0  0  0  0  0  0  0  0
   -1.3990   21.2570  -31.0280 C   0  0  0  0  0  0  0  0  0  0  0  0
   -0.2640   21.1750  -31.8400 C   0  0  0  0  0  0  0  0  0  0  0  0
   -0.3970   21.1260  -33.2320 C   0  0  0  0  0  0  0  0  0  0  0  0
    1.0300   21.0390  -34.2480 Cl  0  0  0  0  0  0  0  0  0  0  0  0
   -1.6700   21.1570  -33.8120 C   0  0  0  0  0  0  0  0  0  0  0  0
   -2.8070   21.2370  -33.0040 C   0  0  0  0  0  0  0  0  0  0  0  0
   -6.1970   22.4350  -31.6020 S   0  0  0  0  0  0  0  0  0  0  0  0
   -7.1840   22.6420  -30.4870 O   0  0  0  0  0  0  0  0  0  0  0  0
   -6.5140   23.4220  -32.6910 O   0  0  0  0  0  0  0  0  0  0  0  0
   -6.3580   20.7960  -32.2380 C   0  0  0  0  0  0  0  0  0  0  0  0
   -7.1540   19.8570  -31.5650 C   0  0  0  0  0  0  0  0  0  0  0  0
   -7.2940   18.5610  -32.0740 C   0  0  0  0  0  0  0  0  0  0  0  0
   -6.6400   18.1970  -33.2540 C   0  0  0  0  0  0  0  0  0  0  0  0
   -6.8160   16.5720  -33.8900 Cl  0  0  0  0  0  0  0  0  0  0  0  0
   -5.8420   19.1300  -33.9270 C   0  0  0  0  0  0  0  0  0  0  0  0
   -5.7020   20.4250  -33.4200 C   0  0  0  0  0  0  0  0  0  0  0  0
   -1.6327   24.1628  -26.9133 H   0  0  0  0  0  0  0  0  0  0  0  0
   -2.9197   23.2126  -27.7303 H   0  0  0  0  0  0  0  0  0  0  0  0
   -1.2255   22.6157  -27.7303 H   0  0  0  0  0  0  0  0  0  0  0  0
   -0.6509   24.8224  -28.9752 H   0  0  0  0  0  0  0  0  0  0  0  0
   -1.5321   23.5433  -29.8930 H   0  0  0  0  0  0  0  0  0  0  0  0
   -4.1216   23.0812  -28.9712 H   0  0  0  0  0  0  0  0  0  0  0  0
   -5.6397   23.8469  -29.5695 H   0  0  0  0  0  0  0  0  0  0  0  0
   -3.6133   21.3859  -29.6849 H   0  0  0  0  0  0  0  0  0  0  0  0
   -4.6045   20.6136  -30.9794 H   0  0  0  0  0  0  0  0  0  0  0  0
   -1.2890   21.2982  -29.9343 H   0  0  0  0  0  0  0  0  0  0  0  0
    0.7364   21.1489  -31.3833 H   0  0  0  0  0  0  0  0  0  0  0  0
   -1.7758   21.1183  -34.9062 H   0  0  0  0  0  0  0  0  0  0  0  0
   -3.8057   21.2610  -33.4645 H   0  0  0  0  0  0  0  0  0  0  0  0
   -7.6692   20.1401  -30.6352 H   0  0  0  0  0  0  0  0  0  0  0  0
   -7.9199   17.8277  -31.5444 H   0  0  0  0  0  0  0  0  0  0  0  0
   -5.3251   18.8438  -34.8549 H   0  0  0  0  0  0  0  0  0  0  0  0
   -5.0744   21.1561  -33.9507 H   0  0  0  0  0  0  0  0  0  0  0  0
  1  2  1  0
  2  3  1  0
  3  4  1  0
  4  5  2  0
  4  6  1  0
  6  7  1  0
  7  8  1  0
  8  9  1  0
  9 10  2  0
 10 11  1  0
 11 12  2  0
 12 13  1  0
 12 14  1  0
 14 15  2  0
  7 16  1  0
 16 17  2  0
 16 18  2  0
 16 19  1  0
 19 20  2  0
 20 21  1  0
 21 22  2  0
 22 23  1  0
 22 24  1  0
 24 25  2  0
 15  9  1  0
 25 19  1  0
  1 26  1  0
  1 27  1  0
  1 28  1  0
  2 29  1  0
  2 30  1  0
  6 31  1  0
  6 32  1  0
  8 33  1  0
  8 34  1  0
 10 35  1  0
 11 36  1  0
 14 37  1  0
 15 38  1  0
 20 39  1  0
 21 40  1  0
 24 41  1  0
 25 42  1  0
M  CHG  1   3  -1
M  END
>  <UniqueID>  (12) 
12

>  <SMILES>  (12) 
CC[N-]C(=O)CN(Cc1ccc(Cl)cc1)S(=O)(=O)c1ccc(Cl)cc1

>  <Energy>  (12) 
36.184168209186716

>  <Genealogy>  (12) 
CC[N-]C(=O)CN(Cc1ccc(Cl)cc1)S(=O)(=O)c1ccc(Cl)cc1 (protonated)
CC[N-]C(=O)CN(Cc1ccc(Cl)cc1)S(=O)(=O)c1ccc(Cl)cc1 (3D coordinates assigned)
CC[N-]C(=O)CN(Cc1ccc(Cl)cc1)S(=O)(=O)c1ccc(Cl)cc1 (optimized conformer: 36.184168209186716 kcal/mol)

>  <smiles>  (12) 
CCNC(=O)CN(Cc1ccc(Cl)cc1)S(=O)(=O)c1ccc(Cl)cc1

>  <score_type>  (12) 
oracle

>  <origin>  (12) 
adg

>  <m_score__min__energy>  (12) 
-10.369999999999999

>  <m_primary>  (12) 
energy

$$$$
12:0
     RDKit          3D

 69 72  0  0  0  0  0  0  0  0999 V2000
   -9.0890   21.5450  -30.4830 C   0  0  0  0  0  0  0  0  0  0  0  0
   -9.6980   21.5650  -31.8860 C   0  0  0  0  0  0  0  0  0  0  0  0
   -9.5480   20.2800  -32.5900 N   0  0  0  0  0  0  0  0  0  0  0  0
   -8.9050   19.2450  -31.7670 C   0  0  0  0  0  0  0  0  0  0  0  0
   -7.4090   19.0530  -32.1240 C   0  0  0  0  0  0  0  0  0  0  0  0
   -6.8340   19.9210  -33.1950 N   0  0  0  0  0  0  0  0  0  0  0  0
   -5.3810   20.0330  -33.2550 C   0  0  0  0  0  0  0  0  0  0  0  0
   -4.6350   18.9640  -33.8410 C   0  0  0  0  0  0  0  0  0  0  0  0
   -5.2810   17.8680  -34.4750 C   0  0  0  0  0  0  0  0  0  0  0  0
   -4.5510   16.8250  -35.0370 C   0  0  0  0  0  0  0  0  0  0  0  0
   -3.1640   16.8340  -34.9730 C   0  0  0  0  0  0  0  0  0  0  0  0
   -2.5000   17.8850  -34.3450 C   0  0  0  0  0  0  0  0  0  0  0  0
   -3.2150   18.9710  -33.7740 C   0  0  0  0  0  0  0  0  0  0  0  0
   -2.5620   19.9770  -33.1030 N   0  0  0  0  0  0  0  0  0  0  0  0
   -1.0930   20.1220  -33.2310 C   0  0  0  0  0  0  0  0  0  0  0  0
   -3.2710   20.8570  -32.3130 C   0  0  0  0  0  0  0  0  0  0  0  0
   -2.6250   21.5340  -31.2550 C   0  0  0  0  0  0  0  0  0  0  0  0
   -3.3080   22.4420  -30.4430 C   0  0  0  0  0  0  0  0  0  0  0  0
   -2.6940   23.0470  -29.3290 O   0  0  0  0  0  0  0  0  0  0  0  0
   -2.8710   22.6580  -27.9660 C   0  0  0  0  0  0  0  0  0  0  0  0
   -3.1110   21.1340  -27.8920 C   0  0  0  0  0  0  0  0  0  0  0  0
   -2.0350   20.3440  -27.2030 N   0  0  0  0  0  0  0  0  0  0  0  0
   -1.1050   19.7510  -28.1960 C   0  0  0  0  0  0  0  0  0  0  0  0
   -2.6010   19.2690  -26.3470 C   0  0  0  0  0  0  0  0  0  0  0  0
   -1.2680   21.2760  -26.3400 C   0  0  0  0  0  0  0  0  0  0  0  0
   -4.6250   22.7940  -30.7640 C   0  0  0  0  0  0  0  0  0  0  0  0
   -5.2680   23.8240  -30.0430 C   0  0  0  0  0  0  0  0  0  0  0  0
   -6.4980   24.3230  -30.4680 C   0  0  0  0  0  0  0  0  0  0  0  0
   -7.0790   23.8260  -31.6270 C   0  0  0  0  0  0  0  0  0  0  0  0
   -6.4690   22.7840  -32.3250 C   0  0  0  0  0  0  0  0  0  0  0  0
   -5.2820   22.1730  -31.8610 C   0  0  0  0  0  0  0  0  0  0  0  0
   -4.6710   21.0410  -32.5070 C   0  0  0  0  0  0  0  0  0  0  0  0
   -9.8938   21.5714  -29.7336 H   0  0  0  0  0  0  0  0  0  0  0  0
   -8.4971   20.6269  -30.3532 H   0  0  0  0  0  0  0  0  0  0  0  0
   -8.4382   22.4223  -30.3532 H   0  0  0  0  0  0  0  0  0  0  0  0
  -10.7700   21.7964  -31.8009 H   0  0  0  0  0  0  0  0  0  0  0  0
   -9.1618   22.3278  -32.4697 H   0  0  0  0  0  0  0  0  0  0  0  0
  -10.4910   19.9440  -32.9110 H   0  0  0  0  0  0  0  0  0  0  0  0
   -8.9814   19.5366  -30.7091 H   0  0  0  0  0  0  0  0  0  0  0  0
   -9.4214   18.2932  -31.9604 H   0  0  0  0  0  0  0  0  0  0  0  0
   -6.8270   19.2323  -31.2080 H   0  0  0  0  0  0  0  0  0  0  0  0
   -7.3489   18.0327  -32.5308 H   0  0  0  0  0  0  0  0  0  0  0  0
   -7.2340   19.6550  -34.1200 H   0  0  0  0  0  0  0  0  0  0  0  0
   -7.2370   20.8810  -33.1010 H   0  0  0  0  0  0  0  0  0  0  0  0
   -6.3797   17.8438  -34.5223 H   0  0  0  0  0  0  0  0  0  0  0  0
   -5.0731   15.9930  -35.5322 H   0  0  0  0  0  0  0  0  0  0  0  0
   -2.5885   16.0095  -35.4191 H   0  0  0  0  0  0  0  0  0  0  0  0
   -1.4014   17.8736  -34.2903 H   0  0  0  0  0  0  0  0  0  0  0  0
   -0.6403   20.1667  -32.2295 H   0  0  0  0  0  0  0  0  0  0  0  0
   -0.6858   19.2597  -33.7793 H   0  0  0  0  0  0  0  0  0  0  0  0
   -0.8623   21.0473  -33.7793 H   0  0  0  0  0  0  0  0  0  0  0  0
   -1.5586   21.3415  -31.0661 H   0  0  0  0  0  0  0  0  0  0  0  0
   -1.9691   22.9154  -27.3912 H   0  0  0  0  0  0  0  0  0  0  0  0
   -3.7384   23.1865  -27.5438 H   0  0  0  0  0  0  0  0  0  0  0  0
   -4.0543   20.9650  -27.3520 H   0  0  0  0  0  0  0  0  0  0  0  0
   -3.1273   20.7793  -28.9331 H   0  0  0  0  0  0  0  0  0  0  0  0
   -0.2902   19.2314  -27.6706 H   0  0  0  0  0  0  0  0  0  0  0  0
   -1.6507   19.0337  -28.8267 H   0  0  0  0  0  0  0  0  0  0  0  0
   -0.6849   20.5483  -28.8267 H   0  0  0  0  0  0  0  0  0  0  0  0
   -2.4624   19.5323  -25.2880 H   0  0  0  0  0  0  0  0  0  0  0  0
   -3.6745   19.1579  -26.5597 H   0  0  0  0  0  0  0  0  0  0  0  0
   -2.0851   18.3211  -26.5597 H   0  0  0  0  0  0  0  0  0  0  0  0
   -1.4618   21.0406  -25.2831 H   0  0  0  0  0  0  0  0  0  0  0  0
   -0.1933   21.1685  -26.5486 H   0  0  0  0  0  0  0  0  0  0  0  0
   -1.5803   22.3099  -26.5486 H   0  0  0  0  0  0  0  0  0  0  0  0
   -4.7946   24.2355  -29.1393 H   0  0  0  0  0  0  0  0  0  0  0  0
   -7.0063   25.1072  -29.8877 H   0  0  0  0  0  0  0  0  0  0  0  0
   -8.0225   24.2550  -31.9955 H   0  0  0  0  0  0  0  0  0  0  0  0
   -6.9237   22.4283  -33.2613 H   0  0  0  0  0  0  0  0  0  0  0  0
  1  2  1  0
  2  3  1  0
  3  4  1  0
  4  5  1  0
  5  6  1  0
  6  7  1  0
  7  8  2  0
  8  9  1  0
  9 10  2  0
 10 11  1  0
 11 12  2  0
 12 13  1  0
 13 14  2  0
 14 15  1  0
 14 16  1  0
 16 17  2  0
 17 18  1  0
 18 19  1  0
 19 20  1  0
 20 21  1  0
 21 22  1  0
 22 23  1  0
 22 24  1  0
 22 25  1  0
 18 26  2  0
 26 27  1  0
 27 28  2  0
 28 29  1  0
 29 30  2  0
 30 31  1  0
 31 32  2  0
 32  7  1  0
 13  8  1  0
 32 16  1  0
 31 26  1  0
  1 33  1  0
  1 34  1  0
  1 35  1  0
  2 36  1  0
  2 37  1  0
  3 38  1  0
  4 39  1  0
  4 40  1  0
  5 41  1  0
  5 42  1  0
  6 43  1  0
  6 44  1  0
  9 45  1  0
 10 46  1  0
 11 47  1  0
 12 48  1  0
 15 49  1  0
 15 50  1  0
 15 51  1  0
 17 52  1  0
 20 53  1  0
 20 54  1  0
 21 55  1  0
 21 56  1  0
 23 57  1  0
 23 58  1  0
 23 59  1  0
 24 60  1  0
 24 61  1  0
 24 62  1  0
 25 63  1  0
 25 64  1  0
 25 65  1  0
 27 66  1  0
 28 67  1  0
 29 68  1  0
 30 69  1  0
M  CHG  3   6   1  14   1  22   1
M  END
>  <UniqueID>  (13) 
13

>  <SMILES>  (13) 
CCNCC[NH2+]c1c2ccccc2[n+](C)c2cc(OCC[N+](C)(C)C)c3ccccc3c12

>  <Energy>  (13) 
135.79393123620983

>  <Genealogy>  (13) 
CCNCC[NH2+]c1c2ccccc2[n+](C)c2cc(OCC[N+](C)(C)C)c3ccccc3c12 (protonated)
CCNCC[NH2+]c1c2ccccc2[n+](C)c2cc(OCC[N+](C)(C)C)c3ccccc3c12 (3D coordinates assigned)
CCNCC[NH2+]c1c2ccccc2[n+](C)c2cc(OCC[N+](C)(C)C)c3ccccc3c12 (optimized conformer: 135.79393123620983 kcal/mol)

>  <smiles>  (13) 
CCNCCNc1c2ccccc2[n+](C)c2cc(OCC[N+](C)(C)C)c3ccccc3c12

>  <score_type>  (13) 
oracle

>  <origin>  (13) 
adg

>  <m_score__min__energy>  (13) 
-7.7199999999999998

>  <m_primary>  (13) 
energy

$$$$
13:0
     RDKit          3D

 53 55  0  0  0  0  0  0  0  0999 V2000
   -2.8840   25.2640  -26.3070 C   0  0  0  0  0  0  0  0  0  0  0  0
   -1.4950   25.0340  -26.8940 C   0  0  0  0  0  0  0  0  0  0  0  0
   -1.2450   25.9550  -28.0920 C   0  0  0  0  0  0  0  0  0  0  0  0
   -1.6660   25.3090  -29.3310 N   0  0  0  0  0  0  0  0  0  0  0  0
   -1.8120   23.8970  -29.5420 C   0  0  0  0  0  0  0  0  0  0  0  0
   -0.7700   23.2170  -29.7360 O   0  0  0  0  0  0  0  0  0  0  0  0
   -3.1640   23.2120  -29.4680 C   0  0  1  0  0  0  0  0  0  0  0  0
   -4.3020   24.1210  -29.8570 C   0  0  0  0  0  0  0  0  0  0  0  0
   -5.6090   23.9960  -29.4270 C   0  0  0  0  0  0  0  0  0  0  0  0
   -6.3050   25.0070  -30.0520 C   0  0  0  0  0  0  0  0  0  0  0  0
   -5.3850   25.6830  -30.8280 C   0  0  0  0  0  0  0  0  0  0  0  0
   -4.2030   25.1290  -30.6940 O   0  0  0  0  0  0  0  0  0  0  0  0
   -3.1820   21.9900  -30.2950 N   0  0  0  0  0  0  0  0  0  0  0  0
   -3.1340   20.6520  -29.6770 C   0  0  0  0  0  0  0  0  0  0  0  0
   -1.9530   20.5270  -28.7090 C   0  0  0  0  0  0  0  0  0  0  0  0
   -2.3640   20.8580  -27.4000 O   0  0  0  0  0  0  0  0  0  0  0  0
   -1.2930   21.4590  -26.7080 C   0  0  0  0  0  0  0  0  0  0  0  0
   -3.1930   22.1240  -31.7300 C   0  0  0  0  0  0  0  0  0  0  0  0
   -2.1410   21.8850  -32.3830 O   0  0  0  0  0  0  0  0  0  0  0  0
   -4.4420   22.5330  -32.4600 C   0  0  0  0  0  0  0  0  0  0  0  0
   -5.2830   21.3690  -32.7310 N   0  0  0  0  0  0  0  0  0  0  0  0
   -4.8510   20.2410  -33.2890 N   0  0  0  0  0  0  0  0  0  0  0  0
   -5.8250   19.3320  -33.3440 N   0  0  0  0  0  0  0  0  0  0  0  0
   -6.9020   19.9170  -32.7890 C   0  0  0  0  0  0  0  0  0  0  0  0
   -8.1730   19.3900  -32.5830 C   0  0  0  0  0  0  0  0  0  0  0  0
   -9.1230   20.2170  -31.9490 C   0  0  0  0  0  0  0  0  0  0  0  0
   -8.7760   21.5300  -31.5430 C   0  0  0  0  0  0  0  0  0  0  0  0
   -7.4770   22.0280  -31.7670 C   0  0  0  0  0  0  0  0  0  0  0  0
   -6.5700   21.1790  -32.4030 C   0  0  0  0  0  0  0  0  0  0  0  0
   -2.8241   25.2541  -25.2087 H   0  0  0  0  0  0  0  0  0  0  0  0
   -3.2680   26.2380  -26.6445 H   0  0  0  0  0  0  0  0  0  0  0  0
   -3.5615   24.4658  -26.6445 H   0  0  0  0  0  0  0  0  0  0  0  0
   -0.7397   25.2371  -26.1206 H   0  0  0  0  0  0  0  0  0  0  0  0
   -1.4274   23.9903  -27.2347 H   0  0  0  0  0  0  0  0  0  0  0  0
   -1.8150   26.8862  -27.9577 H   0  0  0  0  0  0  0  0  0  0  0  0
   -0.1688   26.1741  -28.1533 H   0  0  0  0  0  0  0  0  0  0  0  0
   -3.3146   22.9369  -28.4137 H   0  0  0  0  0  0  0  0  0  0  0  0
   -6.0103   23.2452  -28.7304 H   0  0  0  0  0  0  0  0  0  0  0  0
   -7.3775   25.2306  -29.9528 H   0  0  0  0  0  0  0  0  0  0  0  0
   -5.6087   26.5535  -31.4621 H   0  0  0  0  0  0  0  0  0  0  0  0
   -4.0695   20.4787  -29.1249 H   0  0  0  0  0  0  0  0  0  0  0  0
   -3.0087   19.9056  -30.4752 H   0  0  0  0  0  0  0  0  0  0  0  0
   -1.5789   19.4927  -28.7226 H   0  0  0  0  0  0  0  0  0  0  0  0
   -1.1553   21.2167  -29.0220 H   0  0  0  0  0  0  0  0  0  0  0  0
   -1.4584   21.3662  -25.6245 H   0  0  0  0  0  0  0  0  0  0  0  0
   -0.3529   20.9567  -26.9798 H   0  0  0  0  0  0  0  0  0  0  0  0
   -1.2320   22.5232  -26.9798 H   0  0  0  0  0  0  0  0  0  0  0  0
   -5.0038   23.2491  -31.8423 H   0  0  0  0  0  0  0  0  0  0  0  0
   -4.1585   22.9965  -33.4165 H   0  0  0  0  0  0  0  0  0  0  0  0
   -8.4268   18.3684  -32.9021 H   0  0  0  0  0  0  0  0  0  0  0  0
  -10.1406   19.8405  -31.7682 H   0  0  0  0  0  0  0  0  0  0  0  0
   -9.5264   22.1650  -31.0493 H   0  0  0  0  0  0  0  0  0  0  0  0
   -7.1900   23.0427  -31.4539 H   0  0  0  0  0  0  0  0  0  0  0  0
  1  2  1  0
  2  3  1  0
  3  4  1  0
  4  5  1  0
  5  6  2  0
  5  7  1  0
  7  8  1  0
  8  9  2  0
  9 10  1  0
 10 11  2  0
 11 12  1  0
  7 13  1  0
 13 14  1  0
 14 15  1  0
 15 16  1  0
 16 17  1  0
 13 18  1  0
 18 19  2  0
 18 20  1  0
 20 21  1  0
 21 22  1  0
 22 23  2  0
 23 24  1  0
 24 25  2  0
 25 26  1  0
 26 27  2  0
 27 28  1  0
 28 29  2  0
 12  8  1  0
 29 21  1  0
 29 24  1  0
  1 30  1  0
  1 31  1  0
  1 32  1  0
  2 33  1  0
  2 34  1  0
  3 35  1  0
  3 36  1  0
  7 37  1  1
  9 38  1  0
 10 39  1  0
 11 40  1  0
 14 41  1  0
 14 42  1  0
 15 43  1  0
 15 44  1  0
 17 45  1  0
 17 46  1  0
 17 47  1  0
 20 48  1  0
 20 49  1  0
 25 50  1  0
 26 51  1  0
 27 52  1  0
 28 53  1  0
M  CHG  1   4  -1
M  END
>  <UniqueID>  (14) 
14

>  <SMILES>  (14) 
CCC[N-]C(=O)[C@@H](c1ccco1)N(CCOC)C(=O)Cn1nnc2ccccc21

>  <Energy>  (14) 
117.0800394862066

>  <Genealogy>  (14) 
CCC[N-]C(=O)C(c1ccco1)N(CCOC)C(=O)Cn1nnc2ccccc21 (protonated)
CCC[N-]C(=O)[C@@H](c1ccco1)N(CCOC)C(=O)Cn1nnc2ccccc21 (chirality)
CCC[N-]C(=O)[C@@H](c1ccco1)N(CCOC)C(=O)Cn1nnc2ccccc21 (3D coordinates assigned)
CCC[N-]C(=O)[C@@H](c1ccco1)N(CCOC)C(=O)Cn1nnc2ccccc21 (optimized conformer: 117.0800394862066 kcal/mol)

>  <smiles>  (14) 
CCCNC(=O)C(c1ccco1)N(CCOC)C(=O)Cn1nnc2ccccc21

>  <score_type>  (14) 
oracle

>  <origin>  (14) 
adg

>  <m_score__min__energy>  (14) 
-10.289999999999999

>  <m_primary>  (14) 
energy

$$$$
14:0
     RDKit          3D

 46 48  0  0  0  0  0  0  0  0999 V2000
   -3.7680   22.8310  -30.8630 C   0  0  0  0  0  0  0  0  0  0  0  0
   -4.2730   22.6680  -29.4330 C   0  0  0  0  0  0  0  0  0  0  0  0
   -4.7820   23.9470  -28.9140 N   0  0  0  0  0  0  0  0  0  0  0  0
   -4.9160   24.9440  -29.9840 C   0  0  0  0  0  0  0  0  0  0  0  0
   -6.3920   25.2890  -30.1920 C   0  0  0  0  0  0  0  0  0  0  0  0
   -7.2180   24.0770  -30.1060 N   0  0  0  0  0  0  0  0  0  0  0  0
   -7.8920   23.7920  -31.3790 C   0  0  0  0  0  0  0  0  0  0  0  0
   -7.8100   22.3200  -31.6740 C   0  0  0  0  0  0  0  0  0  0  0  0
   -8.8740   21.4690  -31.3310 C   0  0  0  0  0  0  0  0  0  0  0  0
   -8.8170   20.1060  -31.6380 C   0  0  0  0  0  0  0  0  0  0  0  0
   -7.6980   19.5810  -32.3010 C   0  0  0  0  0  0  0  0  0  0  0  0
   -7.6140   18.2220  -32.6210 C   0  0  0  0  0  0  0  0  0  0  0  0
   -6.4830   17.7200  -33.2780 C   0  0  0  0  0  0  0  0  0  0  0  0
   -5.4520   18.6170  -33.6440 C   0  0  0  0  0  0  0  0  0  0  0  0
   -5.5540   19.9330  -33.3130 N   0  0  0  0  0  0  0  0  0  0  0  0
   -6.6360   20.4350  -32.6620 C   0  0  0  0  0  0  0  0  0  0  0  0
   -6.6970   21.7990  -32.3530 C   0  0  0  0  0  0  0  0  0  0  0  0
   -4.1820   18.1370  -34.2970 C   0  0  0  0  0  0  0  0  0  0  0  0
   -4.3460   16.7680  -34.9680 C   0  0  0  0  0  0  0  0  0  0  0  0
   -5.0280   15.7860  -34.0150 C   0  0  0  0  0  0  0  0  0  0  0  0
   -6.4440   16.2640  -33.6780 C   0  0  0  0  0  0  0  0  0  0  0  0
   -2.7213   23.1688  -30.8459 H   0  0  0  0  0  0  0  0  0  0  0  0
   -3.8334   21.8661  -31.3872 H   0  0  0  0  0  0  0  0  0  0  0  0
   -4.3851   23.5756  -31.3872 H   0  0  0  0  0  0  0  0  0  0  0  0
   -5.0831   21.9240  -29.4184 H   0  0  0  0  0  0  0  0  0  0  0  0
   -3.4386   22.3349  -28.7983 H   0  0  0  0  0  0  0  0  0  0  0  0
   -5.7390   23.7710  -28.5270 H   0  0  0  0  0  0  0  0  0  0  0  0
   -4.3644   25.8541  -29.7058 H   0  0  0  0  0  0  0  0  0  0  0  0
   -4.5054   24.5312  -30.9173 H   0  0  0  0  0  0  0  0  0  0  0  0
   -6.7107   26.0007  -29.4162 H   0  0  0  0  0  0  0  0  0  0  0  0
   -6.5170   25.7361  -31.1892 H   0  0  0  0  0  0  0  0  0  0  0  0
   -6.5800   23.2700  -29.9010 H   0  0  0  0  0  0  0  0  0  0  0  0
   -8.9477   24.0934  -31.3099 H   0  0  0  0  0  0  0  0  0  0  0  0
   -7.4008   24.3546  -32.1866 H   0  0  0  0  0  0  0  0  0  0  0  0
   -9.7571   21.8774  -30.8179 H   0  0  0  0  0  0  0  0  0  0  0  0
   -9.6507   19.4447  -31.3592 H   0  0  0  0  0  0  0  0  0  0  0  0
   -8.4392   17.5447  -32.3558 H   0  0  0  0  0  0  0  0  0  0  0  0
   -5.8706   22.4645  -32.6430 H   0  0  0  0  0  0  0  0  0  0  0  0
   -3.8793   18.8694  -35.0598 H   0  0  0  0  0  0  0  0  0  0  0  0
   -3.4207   18.0336  -33.5098 H   0  0  0  0  0  0  0  0  0  0  0  0
   -4.9599   16.8795  -35.8739 H   0  0  0  0  0  0  0  0  0  0  0  0
   -3.3517   16.3780  -35.2310 H   0  0  0  0  0  0  0  0  0  0  0  0
   -5.0836   14.7968  -34.4928 H   0  0  0  0  0  0  0  0  0  0  0  0
   -4.4418   15.7250  -33.0862 H   0  0  0  0  0  0  0  0  0  0  0  0
   -7.0834   16.1238  -34.5620 H   0  0  0  0  0  0  0  0  0  0  0  0
   -6.8017   15.6726  -32.8223 H   0  0  0  0  0  0  0  0  0  0  0  0
  1  2  1  0
  2  3  1  0
  3  4  1  0
  4  5  1  0
  5  6  1  0
  6  7  1  0
  7  8  1  0
  8  9  2  0
  9 10  1  0
 10 11  2  0
 11 12  1  0
 12 13  2  0
 13 14  1  0
 14 15  2  0
 15 16  1  0
 16 17  2  0
 14 18  1  0
 18 19  1  0
 19 20  1  0
 20 21  1  0
 17  8  1  0
 16 11  1  0
 21 13  1  0
  1 22  1  0
  1 23  1  0
  1 24  1  0
  2 25  1  0
  2 26  1  0
  3 27  1  0
  4 28  1  0
  4 29  1  0
  5 30  1  0
  5 31  1  0
  6 32  1  0
  7 33  1  0
  7 34  1  0
  9 35  1  0
 10 36  1  0
 12 37  1  0
 17 38  1  0
 18 39  1  0
 18 40  1  0
 19 41  1  0
 19 42  1  0
 20 43  1  0
 20 44  1  0
 21 45  1  0
 21 46  1  0
M  END
>  <UniqueID>  (15) 
15

>  <SMILES>  (15) 
CCNCCNCc1ccc2cc3c(nc2c1)CCCC3

>  <Energy>  (15) 
42.45094460176277

>  <Genealogy>  (15) 
CCNCCNCc1ccc2cc3c(nc2c1)CCCC3 (3D coordinates assigned)
CCNCCNCc1ccc2cc3c(nc2c1)CCCC3 (nonaromatic ring conformer: 42.45094460176277 kcal/mol)

>  <smiles>  (15) 
CCNCCNCc1ccc2cc3c(nc2c1)CCCC3

>  <score_type>  (15) 
oracle

>  <origin>  (15) 
adg

>  <m_score__min__energy>  (15) 
-9.4900000000000002

>  <m_primary>  (15) 
energy

$$$$
15:0
     RDKit          3D

 34 36  0  0  0  0  0  0  0  0999 V2000
   -6.2400   25.2990  -29.9840 C   0  0  0  0  0  0  0  0  0  0  0  0
   -4.9150   24.5670  -29.7930 C   0  0  0  0  0  0  0  0  0  0  0  0
   -4.3030   24.2660  -31.0950 N   0  0  0  0  0  0  0  0  0  0  0  0
   -3.8890   22.8540  -31.2220 C   0  0  0  0  0  0  0  0  0  0  0  0
   -3.9960   22.3330  -32.6660 C   0  0  0  0  0  0  0  0  0  0  0  0
   -4.5070   20.9640  -32.6960 N   0  0  0  0  0  0  0  0  0  0  0  0
   -4.0380   19.9390  -33.4600 C   0  0  0  0  0  0  0  0  0  0  0  0
   -4.8820   18.8730  -33.4840 N   0  0  0  0  0  0  0  0  0  0  0  0
   -5.8810   19.2490  -32.6700 C   0  0  0  0  0  0  0  0  0  0  0  0
   -7.1920   18.9560  -32.7880 N   0  0  0  0  0  0  0  0  0  0  0  0
   -7.8090   20.0760  -32.3340 C   0  0  0  0  0  0  0  0  0  0  0  0
   -9.1770   20.3390  -32.3510 C   0  0  0  0  0  0  0  0  0  0  0  0
   -9.6080   21.6280  -31.9830 C   0  0  0  0  0  0  0  0  0  0  0  0
   -8.6730   22.6290  -31.6400 C   0  0  0  0  0  0  0  0  0  0  0  0
   -7.2920   22.3570  -31.6580 C   0  0  0  0  0  0  0  0  0  0  0  0
   -6.8930   21.0620  -31.9850 C   0  0  0  0  0  0  0  0  0  0  0  0
   -5.6610   20.4850  -32.1950 C   0  0  0  0  0  0  0  0  0  0  0  0
   -6.6721   25.5377  -29.0010 H   0  0  0  0  0  0  0  0  0  0  0  0
   -6.0673   26.2297  -30.5444 H   0  0  0  0  0  0  0  0  0  0  0  0
   -6.9359   24.6574  -30.5444 H   0  0  0  0  0  0  0  0  0  0  0  0
   -4.2315   25.2012  -29.2093 H   0  0  0  0  0  0  0  0  0  0  0  0
   -5.1027   23.6230  -29.2604 H   0  0  0  0  0  0  0  0  0  0  0  0
   -3.4860   24.9030  -31.2430 H   0  0  0  0  0  0  0  0  0  0  0  0
   -2.8440   22.7622  -30.8910 H   0  0  0  0  0  0  0  0  0  0  0  0
   -4.5665   22.2511  -30.5995 H   0  0  0  0  0  0  0  0  0  0  0  0
   -4.6784   22.9835  -33.2328 H   0  0  0  0  0  0  0  0  0  0  0  0
   -2.9918   22.3405  -33.1150 H   0  0  0  0  0  0  0  0  0  0  0  0
   -3.0799   19.9699  -33.9995 H   0  0  0  0  0  0  0  0  0  0  0  0
   -4.8530   18.0540  -34.1290 H   0  0  0  0  0  0  0  0  0  0  0  0
   -7.6260   18.1470  -33.2870 H   0  0  0  0  0  0  0  0  0  0  0  0
   -9.8992   19.5625  -32.6433 H   0  0  0  0  0  0  0  0  0  0  0  0
  -10.6836   21.8574  -31.9625 H   0  0  0  0  0  0  0  0  0  0  0  0
   -9.0272   23.6309  -31.3560 H   0  0  0  0  0  0  0  0  0  0  0  0
   -6.5543   23.1382  -31.4225 H   0  0  0  0  0  0  0  0  0  0  0  0
  1  2  1  0
  2  3  1  0
  3  4  1  0
  4  5  1  0
  5  6  1  0
  6  7  1  0
  7  8  2  0
  8  9  1  0
  9 10  1  0
 10 11  1  0
 11 12  2  0
 12 13  1  0
 13 14  2  0
 14 15  1  0
 15 16  2  0
 16 17  1  0
 17  6  1  0
 17  9  2  0
 16 11  1  0
  1 18  1  0
  1 19  1  0
  1 20  1  0
  2 21  1  0
  2 22  1  0
  3 23  1  0
  4 24  1  0
  4 25  1  0
  5 26  1  0
  5 27  1  0
  7 28  1  0
  8 29  1  0
 10 30  1  0
 12 31  1  0
 13 32  1  0
 14 33  1  0
 15 34  1  0
M  CHG  1   8   1
M  END
>  <UniqueID>  (16) 
16

>  <SMILES>  (16) 
CCNCCn1c[nH+]c2[nH]c3ccccc3c21

>  <Energy>  (16) 
129.80727015540316

>  <Genealogy>  (16) 
CCNCCn1c[nH+]c2[nH]c3ccccc3c21 (protonated)
CCNCCn1c[nH+]c2[nH]c3ccccc3c21 (3D coordinates assigned)
CCNCCn1c[nH+]c2[nH]c3ccccc3c21 (optimized conformer: 129.80727015540316 kcal/mol)

>  <smiles>  (16) 
CCNCCn1cnc2[nH]c3ccccc3c21

>  <score_type>  (16) 
oracle

>  <origin>  (16) 
adg

>  <m_score__min__energy>  (16) 
-6.5

>  <m_primary>  (16) 
energy

$$$$
16:0
     RDKit          3D

 41 43  0  0  0  0  0  0  0  0999 V2000
   -2.2390   24.0650  -29.3120 C   0  0  0  0  0  0  0  0  0  0  0  0
   -3.1030   24.8970  -30.0800 O   0  0  0  0  0  0  0  0  0  0  0  0
   -4.4050   24.5190  -30.4200 C   0  0  0  0  0  0  0  0  0  0  0  0
   -5.4920   25.3200  -30.0160 C   0  0  0  0  0  0  0  0  0  0  0  0
   -6.8010   24.9460  -30.3530 C   0  0  0  0  0  0  0  0  0  0  0  0
   -6.9580   23.7760  -31.0880 C   0  0  0  0  0  0  0  0  0  0  0  0
   -8.1130   23.2330  -31.5140 N   0  0  0  0  0  0  0  0  0  0  0  0
   -7.7430   22.1100  -32.1760 C   0  0  0  0  0  0  0  0  0  0  0  0
   -6.3550   21.9920  -32.1370 C   0  0  0  0  0  0  0  0  0  0  0  0
   -5.5490   20.9090  -32.7370 C   0  0  0  0  0  0  0  0  0  0  0  0
   -6.0160   19.6540  -33.0910 C   0  0  0  0  0  0  0  0  0  0  0  0
   -4.9390   18.9760  -33.6270 C   0  0  0  0  0  0  0  0  0  0  0  0
   -4.9930   17.5880  -34.2010 C   0  0  0  0  0  0  0  0  0  0  0  0
   -6.0160   16.7790  -33.5070 N   0  0  0  0  0  0  0  0  0  0  0  0
   -6.1500   15.4690  -34.1610 C   0  0  0  0  0  0  0  0  0  0  0  0
   -5.6600   16.5890  -32.0890 C   0  0  0  0  0  0  0  0  0  0  0  0
   -3.8400   19.7620  -33.6050 N   0  0  0  0  0  0  0  0  0  0  0  0
   -2.5220   19.4460  -34.1490 C   0  0  0  0  0  0  0  0  0  0  0  0
   -4.2040   20.9450  -33.0740 C   0  0  0  0  0  0  0  0  0  0  0  0
   -5.8910   23.0510  -31.4480 N   0  0  0  0  0  0  0  0  0  0  0  0
   -4.6390   23.3810  -31.1400 N   0  0  0  0  0  0  0  0  0  0  0  0
   -2.4194   24.2387  -28.2409 H   0  0  0  0  0  0  0  0  0  0  0  0
   -2.4381   23.0099  -29.5510 H   0  0  0  0  0  0  0  0  0  0  0  0
   -1.1922   24.3038  -29.5510 H   0  0  0  0  0  0  0  0  0  0  0  0
   -5.3138   26.2380  -29.4367 H   0  0  0  0  0  0  0  0  0  0  0  0
   -7.6668   25.5525  -30.0488 H   0  0  0  0  0  0  0  0  0  0  0  0
   -9.0820   23.5940  -31.3700 H   0  0  0  0  0  0  0  0  0  0  0  0
   -8.4292   21.4038  -32.6663 H   0  0  0  0  0  0  0  0  0  0  0  0
   -7.0408   19.2732  -32.9694 H   0  0  0  0  0  0  0  0  0  0  0  0
   -5.2437   17.6483  -35.2703 H   0  0  0  0  0  0  0  0  0  0  0  0
   -4.0114   17.1100  -34.0673 H   0  0  0  0  0  0  0  0  0  0  0  0
   -6.2304   14.6834  -33.3952 H   0  0  0  0  0  0  0  0  0  0  0  0
   -7.0534   15.4632  -34.7885 H   0  0  0  0  0  0  0  0  0  0  0  0
   -5.2665   15.2804  -34.7885 H   0  0  0  0  0  0  0  0  0  0  0  0
   -6.4515   17.0114  -31.4525 H   0  0  0  0  0  0  0  0  0  0  0  0
   -5.5543   15.5146  -31.8783 H   0  0  0  0  0  0  0  0  0  0  0  0
   -4.7086   17.0993  -31.8783 H   0  0  0  0  0  0  0  0  0  0  0  0
   -1.8154   19.2766  -33.3231 H   0  0  0  0  0  0  0  0  0  0  0  0
   -2.5883   18.5383  -34.7668 H   0  0  0  0  0  0  0  0  0  0  0  0
   -2.1695   20.2851  -34.7668 H   0  0  0  0  0  0  0  0  0  0  0  0
   -3.5368   21.8076  -32.9297 H   0  0  0  0  0  0  0  0  0  0  0  0
  1  2  1  0
  2  3  1  0
  3  4  1  0
  4  5  2  0
  5  6  1  0
  6  7  2  0
  7  8  1  0
  8  9  2  0
  9 10  1  0
 10 11  1  0
 11 12  2  0
 12 13  1  0
 13 14  1  0
 14 15  1  0
 14 16  1  0
 12 17  1  0
 17 18  1  0
 17 19  1  0
  9 20  1  0
 20 21  1  0
 21  3  2  0
 20  6  1  0
 19 10  2  0
  1 22  1  0
  1 23  1  0
  1 24  1  0
  4 25  1  0
  5 26  1  0
  7 27  1  0
  8 28  1  0
 11 29  1  0
 13 30  1  0
 13 31  1  0
 15 32  1  0
 15 33  1  0
 15 34  1  0
 16 35  1  0
 16 36  1  0
 16 37  1  0
 18 38  1  0
 18 39  1  0
 18 40  1  0
 19 41  1  0
M  CHG  1   7   1
M  END
>  <UniqueID>  (17) 
17

>  <SMILES>  (17) 
COc1ccc2[nH+]cc(-c3cc(CN(C)C)n(C)c3)n2n1

>  <Energy>  (17) 
103.02795098460226

>  <Genealogy>  (17) 
COc1ccc2[nH+]cc(-c3cc(CN(C)C)n(C)c3)n2n1 (protonated)
COc1ccc2[nH+]cc(-c3cc(CN(C)C)n(C)c3)n2n1 (3D coordinates assigned)
COc1ccc2[nH+]cc(-c3cc(CN(C)C)n(C)c3)n2n1 (optimized conformer: 103.02795098460226 kcal/mol)

>  <smiles>  (17) 
COc1ccc2ncc(-c3cc(CN(C)C)n(C)c3)n2n1

>  <score_type>  (17) 
oracle

>  <origin>  (17) 
adg

>  <m_score__min__energy>  (17) 
-6.7800000000000002

>  <m_primary>  (17) 
energy

$$$$
17:0
     RDKit          3D

 43 44  0  0  0  0  0  0  0  0999 V2000
   -3.0960   21.4710  -28.1350 C   0  0  0  0  0  0  0  0  0  0  0  0
   -3.2110   21.4020  -29.6560 C   0  0  0  0  0  0  0  0  0  0  0  0
   -2.4750   22.5240  -30.2820 N   0  0  0  0  0  0  0  0  0  0  0  0
   -1.1660   22.0820  -30.8120 C   0  0  0  0  0  0  0  0  0  0  0  0
   -1.3520   21.3570  -32.1430 C   0  0  0  0  0  0  0  0  0  0  0  0
   -2.3340   23.6730  -29.3540 C   0  0  0  0  0  0  0  0  0  0  0  0
   -3.5750   24.5610  -29.4360 C   0  0  0  0  0  0  0  0  0  0  0  0
   -3.9270   24.8240  -30.8390 N   0  0  0  0  0  0  0  0  0  0  0  0
   -5.3470   24.5530  -31.0920 C   0  0  0  0  0  0  0  0  0  0  0  0
   -5.5110   23.1710  -31.6600 C   0  0  0  0  0  0  0  0  0  0  0  0
   -4.4820   22.5190  -32.2630 N   0  0  0  0  0  0  0  0  0  0  0  0
   -5.0560   21.3870  -32.7060 C   0  0  0  0  0  0  0  0  0  0  0  0
   -4.4510   20.3610  -33.4270 C   0  0  0  0  0  0  0  0  0  0  0  0
   -5.2550   19.2760  -33.8220 C   0  0  0  0  0  0  0  0  0  0  0  0
   -6.6290   19.2480  -33.4950 C   0  0  0  0  0  0  0  0  0  0  0  0
   -7.2110   20.3030  -32.7680 C   0  0  0  0  0  0  0  0  0  0  0  0
   -6.3830   21.3620  -32.3850 C   0  0  0  0  0  0  0  0  0  0  0  0
   -6.6860   22.4840  -31.7060 N   0  0  0  0  0  0  0  0  0  0  0  0
   -7.9950   22.9140  -31.2130 C   0  0  0  0  0  0  0  0  0  0  0  0
   -3.9542   20.9561  -27.6787 H   0  0  0  0  0  0  0  0  0  0  0  0
   -2.1634   20.9832  -27.8153 H   0  0  0  0  0  0  0  0  0  0  0  0
   -3.0875   22.5235  -27.8153 H   0  0  0  0  0  0  0  0  0  0  0  0
   -2.7878   20.4498  -30.0084 H   0  0  0  0  0  0  0  0  0  0  0  0
   -4.2723   21.4715  -29.9365 H   0  0  0  0  0  0  0  0  0  0  0  0
   -0.5206   22.9597  -30.9637 H   0  0  0  0  0  0  0  0  0  0  0  0
   -0.7014   21.3935  -30.0908 H   0  0  0  0  0  0  0  0  0  0  0  0
   -1.6213   20.3073  -31.9543 H   0  0  0  0  0  0  0  0  0  0  0  0
   -2.1543   21.8439  -32.7168 H   0  0  0  0  0  0  0  0  0  0  0  0
   -0.4144   21.3975  -32.7168 H   0  0  0  0  0  0  0  0  0  0  0  0
   -2.2195   23.2997  -28.3256 H   0  0  0  0  0  0  0  0  0  0  0  0
   -1.4480   24.2607  -29.6362 H   0  0  0  0  0  0  0  0  0  0  0  0
   -4.4162   24.0544  -28.9404 H   0  0  0  0  0  0  0  0  0  0  0  0
   -3.3619   25.5178  -28.9369 H   0  0  0  0  0  0  0  0  0  0  0  0
   -3.3640   24.1730  -31.4360 H   0  0  0  0  0  0  0  0  0  0  0  0
   -5.9065   24.6280  -30.1479 H   0  0  0  0  0  0  0  0  0  0  0  0
   -5.7332   25.2888  -31.8127 H   0  0  0  0  0  0  0  0  0  0  0  0
   -3.3809   20.3974  -33.6792 H   0  0  0  0  0  0  0  0  0  0  0  0
   -4.8110   18.4445  -34.3889 H   0  0  0  0  0  0  0  0  0  0  0  0
   -7.2483   18.3955  -33.8109 H   0  0  0  0  0  0  0  0  0  0  0  0
   -8.2803   20.2946  -32.5101 H   0  0  0  0  0  0  0  0  0  0  0  0
   -7.9910   22.9127  -30.1130 H   0  0  0  0  0  0  0  0  0  0  0  0
   -8.2087   23.9295  -31.5777 H   0  0  0  0  0  0  0  0  0  0  0  0
   -8.7693   22.2230  -31.5777 H   0  0  0  0  0  0  0  0  0  0  0  0
  1  2  1  0
  2  3  1  0
  3  4  1  0
  4  5  1  0
  3  6  1  0
  6  7  1  0
  7  8  1  0
  8  9  1  0
  9 10  1  0
 10 11  2  0
 11 12  1  0
 12 13  2  0
 13 14  1  0
 14 15  2  0
 15 16  1  0
 16 17  2  0
 17 18  1  0
 18 19  1  0
 18 10  1  0
 17 12  1  0
  1 20  1  0
  1 21  1  0
  1 22  1  0
  2 23  1  0
  2 24  1  0
  4 25  1  0
  4 26  1  0
  5 27  1  0
  5 28  1  0
  5 29  1  0
  6 30  1  0
  6 31  1  0
  7 32  1  0
  7 33  1  0
  8 34  1  0
  9 35  1  0
  9 36  1  0
 13 37  1  0
 14 38  1  0
 15 39  1  0
 16 40  1  0
 19 41  1  0
 19 42  1  0
 19 43  1  0
M  END
>  <UniqueID>  (18) 
18

>  <SMILES>  (18) 
CCN(CC)CCNCc1nc2ccccc2n1C

>  <Energy>  (18) 
75.00965879680079

>  <Genealogy>  (18) 
CCN(CC)CCNCc1nc2ccccc2n1C (3D coordinates assigned)
CCN(CC)CCNCc1nc2ccccc2n1C (optimized conformer: 75.00965879680079 kcal/mol)

>  <smiles>  (18) 
CCN(CC)CCNCc1nc2ccccc2n1C

>  <score_type>  (18) 
oracle

>  <origin>  (18) 
adg

>  <m_score__min__energy>  (18) 
-6.6500000000000004

>  <m_primary>  (18) 
energy

$$$$
18:0
     RDKit          3D

 54 55  0  0  0  0  0  0  0  0999 V2000
   -2.3600   21.2870  -33.1320 C   0  0  0  0  0  0  0  0  0  0  0  0
   -3.8460   21.1980  -33.4690 C   0  0  0  0  0  0  0  0  0  0  0  0
   -4.2200   19.8160  -33.8010 N   0  0  0  0  0  0  0  0  0  0  0  0
   -3.0720   18.9070  -33.6780 C   0  0  0  0  0  0  0  0  0  0  0  0
   -3.5440   17.4740  -33.3930 C   0  0  0  0  0  0  0  0  0  0  0  0
   -4.6650   17.4360  -32.5300 O   0  0  0  0  0  0  0  0  0  0  0  0
   -5.6130   16.4860  -32.9760 C   0  0  0  0  0  0  0  0  0  0  0  0
   -6.5690   17.1280  -33.9920 C   0  0  0  0  0  0  0  0  0  0  0  0
   -6.7820   18.5760  -33.7930 N   0  0  0  0  0  0  0  0  0  0  0  0
   -7.7700   18.9130  -32.7580 C   0  0  0  0  0  0  0  0  0  0  0  0
   -7.4830   20.2370  -32.1130 C   0  0  0  0  0  0  0  0  0  0  0  0
   -6.2460   20.6530  -31.7810 N   0  0  0  0  0  0  0  0  0  0  0  0
   -6.4600   21.8820  -31.2580 C   0  0  0  0  0  0  0  0  0  0  0  0
   -5.3830   22.7490  -30.7430 C   0  0  0  0  0  0  0  0  0  0  0  0
   -4.1470   22.2040  -30.3590 C   0  0  0  0  0  0  0  0  0  0  0  0
   -3.1290   23.0290  -29.8720 C   0  0  0  0  0  0  0  0  0  0  0  0
   -3.3300   24.4170  -29.7640 C   0  0  0  0  0  0  0  0  0  0  0  0
   -2.3450   25.2960  -29.2820 O   0  0  0  0  0  0  0  0  0  0  0  0
   -1.8190   25.3050  -27.9540 C   0  0  0  0  0  0  0  0  0  0  0  0
   -2.8330   24.7380  -26.9670 C   0  0  0  0  0  0  0  0  0  0  0  0
   -4.5640   24.9570  -30.1430 C   0  0  0  0  0  0  0  0  0  0  0  0
   -5.5830   24.1330  -30.6300 C   0  0  0  0  0  0  0  0  0  0  0  0
   -7.7330   22.2190  -31.2600 O   0  0  0  0  0  0  0  0  0  0  0  0
   -8.3940   21.2170  -31.7840 C   0  0  0  0  0  0  0  0  0  0  0  0
   -9.8720   21.1890  -31.9930 C   0  0  0  0  0  0  0  0  0  0  0  0
   -2.2316   21.2947  -32.0395 H   0  0  0  0  0  0  0  0  0  0  0  0
   -1.8350   20.4187  -33.5568 H   0  0  0  0  0  0  0  0  0  0  0  0
   -1.9424   22.2118  -33.5568 H   0  0  0  0  0  0  0  0  0  0  0  0
   -4.4339   21.5331  -32.6018 H   0  0  0  0  0  0  0  0  0  0  0  0
   -4.0510   21.8393  -34.3389 H   0  0  0  0  0  0  0  0  0  0  0  0
   -4.9420   19.5060  -33.1080 H   0  0  0  0  0  0  0  0  0  0  0  0
   -2.4996   18.9188  -34.6173 H   0  0  0  0  0  0  0  0  0  0  0  0
   -2.4408   19.2447  -32.8428 H   0  0  0  0  0  0  0  0  0  0  0  0
   -3.8154   16.9956  -34.3456 H   0  0  0  0  0  0  0  0  0  0  0  0
   -2.7196   16.9425  -32.8950 H   0  0  0  0  0  0  0  0  0  0  0  0
   -5.0881   15.6447  -33.4522 H   0  0  0  0  0  0  0  0  0  0  0  0
   -6.1939   16.1264  -32.1139 H   0  0  0  0  0  0  0  0  0  0  0  0
   -6.1545   16.9757  -34.9995 H   0  0  0  0  0  0  0  0  0  0  0  0
   -7.5469   16.6433  -33.8553 H   0  0  0  0  0  0  0  0  0  0  0  0
   -7.0970   18.9980  -34.6970 H   0  0  0  0  0  0  0  0  0  0  0  0
   -8.7677   18.9522  -33.2195 H   0  0  0  0  0  0  0  0  0  0  0  0
   -7.7209   18.1388  -31.9782 H   0  0  0  0  0  0  0  0  0  0  0  0
   -3.9787   21.1201  -30.4420 H   0  0  0  0  0  0  0  0  0  0  0  0
   -2.1659   22.5905  -29.5717 H   0  0  0  0  0  0  0  0  0  0  0  0
   -0.9052   24.6934  -27.9238 H   0  0  0  0  0  0  0  0  0  0  0  0
   -1.5936   26.3437  -27.6708 H   0  0  0  0  0  0  0  0  0  0  0  0
   -2.4908   24.9293  -25.9392 H   0  0  0  0  0  0  0  0  0  0  0  0
   -3.8083   25.2217  -27.1248 H   0  0  0  0  0  0  0  0  0  0  0  0
   -2.9316   23.6538  -27.1248 H   0  0  0  0  0  0  0  0  0  0  0  0
   -4.7340   26.0404  -30.0569 H   0  0  0  0  0  0  0  0  0  0  0  0
   -6.5470   24.5723  -30.9262 H   0  0  0  0  0  0  0  0  0  0  0  0
  -10.3801   21.1794  -31.0174 H   0  0  0  0  0  0  0  0  0  0  0  0
  -10.1794   22.0815  -32.5578 H   0  0  0  0  0  0  0  0  0  0  0  0
  -10.1454   20.2855  -32.5578 H   0  0  0  0  0  0  0  0  0  0  0  0
  1  2  1  0
  2  3  1  0
  3  4  1  0
  4  5  1  0
  5  6  1  0
  6  7  1  0
  7  8  1  0
  8  9  1  0
  9 10  1  0
 10 11  1  0
 11 12  1  0
 12 13  2  0
 13 14  1  0
 14 15  2  0
 15 16  1  0
 16 17  2  0
 17 18  1  0
 18 19  1  0
 19 20  1  0
 17 21  1  0
 21 22  2  0
 13 23  1  0
 23 24  1  0
 24 25  1  0
 24 11  2  0
 22 14  1  0
  1 26  1  0
  1 27  1  0
  1 28  1  0
  2 29  1  0
  2 30  1  0
  3 31  1  0
  4 32  1  0
  4 33  1  0
  5 34  1  0
  5 35  1  0
  7 36  1  0
  7 37  1  0
  8 38  1  0
  8 39  1  0
  9 40  1  0
 10 41  1  0
 10 42  1  0
 15 43  1  0
 16 44  1  0
 19 45  1  0
 19 46  1  0
 20 47  1  0
 20 48  1  0
 20 49  1  0
 21 50  1  0
 22 51  1  0
 25 52  1  0
 25 53  1  0
 25 54  1  0
M  END
>  <UniqueID>  (19) 
19

>  <SMILES>  (19) 
CCNCCOCCNCc1nc(-c2ccc(OCC)cc2)oc1C

>  <Energy>  (19) 
74.4378426969278

>  <Genealogy>  (19) 
CCNCCOCCNCc1nc(-c2ccc(OCC)cc2)oc1C (3D coordinates assigned)
CCNCCOCCNCc1nc(-c2ccc(OCC)cc2)oc1C (optimized conformer: 74.4378426969278 kcal/mol)

>  <smiles>  (19) 
CCNCCOCCNCc1nc(-c2ccc(OCC)cc2)oc1C

>  <score_type>  (19) 
oracle

>  <origin>  (19) 
adg

>  <m_score__min__energy>  (19) 
-7.4900000000000002

>  <m_primary>  (19) 
energy

$$$$
19:0
     RDKit          3D

 59 62  0  0  0  0  0  0  0  0999 V2000
   -4.2150   24.2000  -27.5860 C   0  0  0  0  0  0  0  0  0  0  0  0
   -3.0240   24.5270  -28.4830 C   0  0  0  0  0  0  0  0  0  0  0  0
   -3.4450   24.5990  -29.8990 N   0  0  0  0  0  0  0  0  0  0  0  0
   -4.8860   24.8820  -30.0380 C   0  0  0  0  0  0  0  0  0  0  0  0
   -3.0310   23.4130  -30.6830 C   0  0  0  0  0  0  0  0  0  0  0  0
   -4.1430   22.3540  -30.8490 C   0  0  0  0  0  0  0  0  0  0  0  0
   -4.4000   22.0790  -32.2630 N   0  0  0  0  0  0  0  0  0  0  0  0
   -5.4640   21.1990  -32.6620 C   0  0  0  0  0  0  0  0  0  0  0  0
   -6.7920   21.5610  -32.3850 C   0  0  0  0  0  0  0  0  0  0  0  0
   -7.1260   22.8950  -32.0660 C   0  0  0  0  0  0  0  0  0  0  0  0
   -8.4530   23.2640  -31.8610 C   0  0  0  0  0  0  0  0  0  0  0  0
   -9.4650   22.3180  -31.9790 C   0  0  0  0  0  0  0  0  0  0  0  0
   -9.1530   20.9890  -32.2660 C   0  0  0  0  0  0  0  0  0  0  0  0
   -7.8070   20.5760  -32.4370 C   0  0  0  0  0  0  0  0  0  0  0  0
   -7.4660   19.2520  -32.6280 N   0  0  0  0  0  0  0  0  0  0  0  0
   -8.4430   18.1870  -32.3040 C   0  0  0  0  0  0  0  0  0  0  0  0
   -6.2080   18.9230  -33.1050 C   0  0  0  0  0  0  0  0  0  0  0  0
   -5.8980   17.6010  -33.5050 C   0  0  0  0  0  0  0  0  0  0  0  0
   -4.6170   17.2560  -33.9130 C   0  0  0  0  0  0  0  0  0  0  0  0
   -3.6400   18.2280  -34.0450 C   0  0  0  0  0  0  0  0  0  0  0  0
   -3.9330   19.5870  -33.8080 C   0  0  0  0  0  0  0  0  0  0  0  0
   -2.9830   20.6160  -34.2070 N   0  0  0  0  0  0  0  0  0  0  0  0
   -1.7470   20.5750  -33.4580 C   0  0  0  0  0  0  0  0  0  0  0  0
   -1.7640   20.3070  -32.0760 C   0  0  0  0  0  0  0  0  0  0  0  0
   -0.5710   20.2770  -31.3480 C   0  0  0  0  0  0  0  0  0  0  0  0
    0.6470   20.5110  -31.9880 C   0  0  0  0  0  0  0  0  0  0  0  0
    0.6760   20.7790  -33.3590 C   0  0  0  0  0  0  0  0  0  0  0  0
   -0.5130   20.8120  -34.0930 C   0  0  0  0  0  0  0  0  0  0  0  0
   -5.1880   19.9190  -33.1990 C   0  0  0  0  0  0  0  0  0  0  0  0
   -3.9134   24.2828  -26.5314 H   0  0  0  0  0  0  0  0  0  0  0  0
   -5.0327   24.9069  -27.7901 H   0  0  0  0  0  0  0  0  0  0  0  0
   -4.5571   23.1747  -27.7901 H   0  0  0  0  0  0  0  0  0  0  0  0
   -2.5997   25.4962  -28.1820 H   0  0  0  0  0  0  0  0  0  0  0  0
   -2.2703   23.7329  -28.3764 H   0  0  0  0  0  0  0  0  0  0  0  0
   -5.3401   24.9712  -29.0401 H   0  0  0  0  0  0  0  0  0  0  0  0
   -5.0232   25.8242  -30.5888 H   0  0  0  0  0  0  0  0  0  0  0  0
   -5.3693   24.0616  -30.5888 H   0  0  0  0  0  0  0  0  0  0  0  0
   -2.7212   23.7498  -31.6833 H   0  0  0  0  0  0  0  0  0  0  0  0
   -2.2124   22.9324  -30.1273 H   0  0  0  0  0  0  0  0  0  0  0  0
   -3.8302   21.4234  -30.3529 H   0  0  0  0  0  0  0  0  0  0  0  0
   -5.0665   22.7421  -30.3945 H   0  0  0  0  0  0  0  0  0  0  0  0
   -4.0370   22.7660  -32.9590 H   0  0  0  0  0  0  0  0  0  0  0  0
   -6.3307   23.6499  -31.9786 H   0  0  0  0  0  0  0  0  0  0  0  0
   -8.7008   24.3048  -31.6055 H   0  0  0  0  0  0  0  0  0  0  0  0
  -10.5148   22.6184  -31.8457 H   0  0  0  0  0  0  0  0  0  0  0  0
   -9.9627   20.2506  -32.3611 H   0  0  0  0  0  0  0  0  0  0  0  0
   -8.5315   18.0905  -31.2118 H   0  0  0  0  0  0  0  0  0  0  0  0
   -9.4234   18.4469  -32.7298 H   0  0  0  0  0  0  0  0  0  0  0  0
   -8.0997   17.2326  -32.7298 H   0  0  0  0  0  0  0  0  0  0  0  0
   -6.6861   16.8337  -33.4923 H   0  0  0  0  0  0  0  0  0  0  0  0
   -4.3769   16.2052  -34.1325 H   0  0  0  0  0  0  0  0  0  0  0  0
   -2.6209   17.9362  -34.3388 H   0  0  0  0  0  0  0  0  0  0  0  0
   -2.6990   20.4690  -35.2000 H   0  0  0  0  0  0  0  0  0  0  0  0
   -3.4350   21.5540  -34.1180 H   0  0  0  0  0  0  0  0  0  0  0  0
   -2.7208   20.1203  -31.5665 H   0  0  0  0  0  0  0  0  0  0  0  0
   -0.5923   20.0685  -30.2682 H   0  0  0  0  0  0  0  0  0  0  0  0
    1.5843   20.4844  -31.4130 H   0  0  0  0  0  0  0  0  0  0  0  0
    1.6367   20.9644  -33.8618 H   0  0  0  0  0  0  0  0  0  0  0  0
   -0.4845   21.0242  -35.1720 H   0  0  0  0  0  0  0  0  0  0  0  0
  1  2  1  0
  2  3  1  0
  3  4  1  0
  3  5  1  0
  5  6  1  0
  6  7  1  0
  7  8  1  0
  8  9  2  0
  9 10  1  0
 10 11  2  0
 11 12  1  0
 12 13  2  0
 13 14  1  0
 14 15  2  0
 15 16  1  0
 15 17  1  0
 17 18  2  0
 18 19  1  0
 19 20  2  0
 20 21  1  0
 21 22  1  0
 22 23  1  0
 23 24  2  0
 24 25  1  0
 25 26  2  0
 26 27  1  0
 27 28  2  0
 21 29  2  0
 29  8  1  0
 14  9  1  0
 29 17  1  0
 28 23  1  0
  1 30  1  0
  1 31  1  0
  1 32  1  0
  2 33  1  0
  2 34  1  0
  4 35  1  0
  4 36  1  0
  4 37  1  0
  5 38  1  0
  5 39  1  0
  6 40  1  0
  6 41  1  0
  7 42  1  0
 10 43  1  0
 11 44  1  0
 12 45  1  0
 13 46  1  0
 16 47  1  0
 16 48  1  0
 16 49  1  0
 18 50  1  0
 19 51  1  0
 20 52  1  0
 22 53  1  0
 22 54  1  0
 24 55  1  0
 25 56  1  0
 26 57  1  0
 27 58  1  0
 28 59  1  0
M  CHG  2  15   1  22   1
M  END
>  <UniqueID>  (20) 
20

>  <SMILES>  (20) 
CCN(C)CCNc1c2ccccc2[n+](C)c2cccc([NH2+]c3ccccc3)c12

>  <Energy>  (20) 
104.82085583397468

>  <Genealogy>  (20) 
CCN(C)CCNc1c2ccccc2[n+](C)c2cccc([NH2+]c3ccccc3)c12 (protonated)
CCN(C)CCNc1c2ccccc2[n+](C)c2cccc([NH2+]c3ccccc3)c12 (3D coordinates assigned)
CCN(C)CCNc1c2ccccc2[n+](C)c2cccc([NH2+]c3ccccc3)c12 (optimized conformer: 104.82085583397468 kcal/mol)

>  <smiles>  (20) 
CCN(C)CCNc1c2ccccc2[n+](C)c2cccc(Nc3ccccc3)c12

>  <score_type>  (20) 
oracle

>  <origin>  (20) 
adg

>  <m_score__min__energy>  (20) 
-7.9500000000000002

>  <m_primary>  (20) 
energy

$$$$
20:0
     RDKit          3D

 66 68  0  0  0  0  0  0  0  0999 V2000
   -3.4870   18.5790  -25.9860 C   0  0  0  0  0  0  0  0  0  0  0  0
   -2.3170   19.1900  -26.7540 C   0  0  0  0  0  0  0  0  0  0  0  0
   -2.7890   20.1540  -27.8490 C   0  0  0  0  0  0  0  0  0  0  0  0
   -2.8040   21.5470  -27.3350 N   0  0  0  0  0  0  0  0  0  0  0  0
   -3.7920   22.4020  -28.0370 C   0  0  0  0  0  0  0  0  0  0  0  0
   -3.8730   23.8340  -27.4840 C   0  0  0  0  0  0  0  0  0  0  0  0
   -1.4620   22.1720  -27.2750 C   0  0  0  0  0  0  0  0  0  0  0  0
   -0.7590   22.1500  -28.6420 C   0  0  0  0  0  0  0  0  0  0  0  0
   -1.2330   23.1840  -29.4850 O   0  0  0  0  0  0  0  0  0  0  0  0
   -1.7710   22.6480  -30.6780 C   0  0  0  0  0  0  0  0  0  0  0  0
   -0.8560   21.5400  -31.1840 C   0  0  0  0  0  0  0  0  0  0  0  0
   -1.5810   20.3240  -31.2090 O   0  0  0  0  0  0  0  0  0  0  0  0
   -2.9390   20.5450  -31.5350 C   0  0  0  0  0  0  0  0  0  0  0  0
   -3.1230   20.5590  -33.0570 C   0  0  0  0  0  0  0  0  0  0  0  0
   -4.3180   21.3120  -33.4320 N   0  0  0  0  0  0  0  0  0  0  0  0
   -5.5090   21.2870  -32.6270 C   0  0  0  0  0  0  0  0  0  0  0  0
   -6.3490   20.1620  -32.6490 C   0  0  0  0  0  0  0  0  0  0  0  0
   -5.9990   19.0120  -33.3890 C   0  0  0  0  0  0  0  0  0  0  0  0
   -6.8120   17.8820  -33.3740 C   0  0  0  0  0  0  0  0  0  0  0  0
   -7.9790   17.8730  -32.6180 C   0  0  0  0  0  0  0  0  0  0  0  0
   -8.3550   19.0040  -31.8950 C   0  0  0  0  0  0  0  0  0  0  0  0
   -7.5690   20.1860  -31.9210 C   0  0  0  0  0  0  0  0  0  0  0  0
   -7.9560   21.3340  -31.2540 N   0  0  0  0  0  0  0  0  0  0  0  0
   -9.3430   21.4690  -30.7550 C   0  0  0  0  0  0  0  0  0  0  0  0
   -7.0520   22.3640  -31.0690 C   0  0  0  0  0  0  0  0  0  0  0  0
   -7.3040   23.4280  -30.1650 C   0  0  0  0  0  0  0  0  0  0  0  0
   -6.3890   24.4680  -30.0030 C   0  0  0  0  0  0  0  0  0  0  0  0
   -5.1950   24.4660  -30.7140 C   0  0  0  0  0  0  0  0  0  0  0  0
   -4.9030   23.4200  -31.5830 C   0  0  0  0  0  0  0  0  0  0  0  0
   -5.8180   22.3630  -31.7750 C   0  0  0  0  0  0  0  0  0  0  0  0
   -3.3056   18.6737  -24.9052 H   0  0  0  0  0  0  0  0  0  0  0  0
   -4.4148   19.1077  -26.2498 H   0  0  0  0  0  0  0  0  0  0  0  0
   -3.5833   17.5155  -26.2498 H   0  0  0  0  0  0  0  0  0  0  0  0
   -1.6775   19.7402  -26.0481 H   0  0  0  0  0  0  0  0  0  0  0  0
   -1.7637   18.3715  -27.2376 H   0  0  0  0  0  0  0  0  0  0  0  0
   -2.1047   20.0911  -28.7080 H   0  0  0  0  0  0  0  0  0  0  0  0
   -3.8070   19.8748  -28.1583 H   0  0  0  0  0  0  0  0  0  0  0  0
   -3.5123   22.4553  -29.0995 H   0  0  0  0  0  0  0  0  0  0  0  0
   -4.7799   21.9425  -27.8857 H   0  0  0  0  0  0  0  0  0  0  0  0
   -3.8713   23.8031  -26.3844 H   0  0  0  0  0  0  0  0  0  0  0  0
   -3.0061   24.4125  -27.8359 H   0  0  0  0  0  0  0  0  0  0  0  0
   -4.7996   24.3111  -27.8359 H   0  0  0  0  0  0  0  0  0  0  0  0
   -1.5702   23.2165  -26.9473 H   0  0  0  0  0  0  0  0  0  0  0  0
   -0.8486   21.5962  -26.5664 H   0  0  0  0  0  0  0  0  0  0  0  0
    0.3226   22.2801  -28.4900 H   0  0  0  0  0  0  0  0  0  0  0  0
   -0.9728   21.1851  -29.1250 H   0  0  0  0  0  0  0  0  0  0  0  0
   -2.7717   22.2370  -30.4787 H   0  0  0  0  0  0  0  0  0  0  0  0
   -1.8492   23.4397  -31.4376 H   0  0  0  0  0  0  0  0  0  0  0  0
   -0.5073   21.7832  -32.1985 H   0  0  0  0  0  0  0  0  0  0  0  0
    0.0146   21.4419  -30.5189 H   0  0  0  0  0  0  0  0  0  0  0  0
   -3.5520   19.7406  -31.1023 H   0  0  0  0  0  0  0  0  0  0  0  0
   -3.2523   21.5172  -31.1268 H   0  0  0  0  0  0  0  0  0  0  0  0
   -2.2424   21.0265  -33.5217 H   0  0  0  0  0  0  0  0  0  0  0  0
   -3.2375   19.5222  -33.4062 H   0  0  0  0  0  0  0  0  0  0  0  0
   -4.2700   21.9640  -34.2460 H   0  0  0  0  0  0  0  0  0  0  0  0
   -5.0738   19.0087  -33.9840 H   0  0  0  0  0  0  0  0  0  0  0  0
   -6.5309   16.9952  -33.9609 H   0  0  0  0  0  0  0  0  0  0  0  0
   -8.6074   16.9706  -32.5904 H   0  0  0  0  0  0  0  0  0  0  0  0
   -9.2762   18.9802  -31.2943 H   0  0  0  0  0  0  0  0  0  0  0  0
   -9.3386   21.4686  -29.6550 H   0  0  0  0  0  0  0  0  0  0  0  0
   -9.7736   22.4133  -31.1196 H   0  0  0  0  0  0  0  0  0  0  0  0
   -9.9476   20.6255  -31.1196 H   0  0  0  0  0  0  0  0  0  0  0  0
   -8.2368   23.4328  -29.5820 H   0  0  0  0  0  0  0  0  0  0  0  0
   -6.6132   25.2925  -29.3102 H   0  0  0  0  0  0  0  0  0  0  0  0
   -4.4800   25.2926  -30.5894 H   0  0  0  0  0  0  0  0  0  0  0  0
   -3.9471   23.4167  -32.1273 H   0  0  0  0  0  0  0  0  0  0  0  0
  1  2  1  0
  2  3  1  0
  3  4  1  0
  4  5  1  0
  5  6  1  0
  4  7  1  0
  7  8  1  0
  8  9  1  0
  9 10  1  0
 10 11  1  0
 11 12  1  0
 12 13  1  0
 13 14  1  0
 14 15  1  0
 15 16  1  0
 16 17  2  0
 17 18  1  0
 18 19  2  0
 19 20  1  0
 20 21  2  0
 21 22  1  0
 22 23  2  0
 23 24  1  0
 23 25  1  0
 25 26  2  0
 26 27  1  0
 27 28  2  0
 28 29  1  0
 29 30  2  0
 30 16  1  0
 22 17  1  0
 30 25  1  0
  1 31  1  0
  1 32  1  0
  1 33  1  0
  2 34  1  0
  2 35  1  0
  3 36  1  0
  3 37  1  0
  5 38  1  0
  5 39  1  0
  6 40  1  0
  6 41  1  0
  6 42  1  0
  7 43  1  0
  7 44  1  0
  8 45  1  0
  8 46  1  0
 10 47  1  0
 10 48  1  0
 11 49  1  0
 11 50  1  0
 13 51  1  0
 13 52  1  0
 14 53  1  0
 14 54  1  0
 15 55  1  0
 18 56  1  0
 19 57  1  0
 20 58  1  0
 21 59  1  0
 24 60  1  0
 24 61  1  0
 24 62  1  0
 26 63  1  0
 27 64  1  0
 28 65  1  0
 29 66  1  0
M  CHG  1  23   1
M  END
>  <UniqueID>  (21) 
21

>  <SMILES>  (21) 
CCCN(CC)CCOCCOCCNc1c2ccccc2[n+](C)c2ccccc12

>  <Energy>  (21) 
92.18296918816749

>  <Genealogy>  (21) 
CCCN(CC)CCOCCOCCNc1c2ccccc2[n+](C)c2ccccc12 (3D coordinates assigned)
CCCN(CC)CCOCCOCCNc1c2ccccc2[n+](C)c2ccccc12 (optimized conformer: 92.18296918816749 kcal/mol)

>  <smiles>  (21) 
CCCN(CC)CCOCCOCCNc1c2ccccc2[n+](C)c2ccccc12

>  <score_type>  (21) 
oracle

>  <origin>  (21) 
adg

>  <m_score__min__energy>  (21) 
-9.6699999999999999

>  <m_primary>  (21) 
energy

$$$$
21:0
     RDKit          3D

 72 76  0  0  0  0  0  0  0  0999 V2000
   -6.1710   25.6310  -29.7180 C   0  0  0  0  0  0  0  0  0  0  0  0
   -5.1400   25.4030  -30.8220 C   0  0  0  0  0  0  0  0  0  0  0  0
   -5.3600   24.1260  -31.5170 N   0  0  0  0  0  0  0  0  0  0  0  0
   -6.7230   23.9970  -32.0640 C   0  0  0  0  0  0  0  0  0  0  0  0
   -7.1790   22.5710  -31.9690 C   0  0  0  0  0  0  0  0  0  0  0  0
   -8.3550   22.2300  -31.2850 C   0  0  0  0  0  0  0  0  0  0  0  0
   -8.7390   20.8910  -31.2050 C   0  0  0  0  0  0  0  0  0  0  0  0
   -7.9520   19.9010  -31.8100 C   0  0  0  0  0  0  0  0  0  0  0  0
   -8.3020   18.5500  -31.7360 C   0  0  0  0  0  0  0  0  0  0  0  0
   -7.4920   17.5970  -32.3450 C   0  0  0  0  0  0  0  0  0  0  0  0
   -6.3400   18.0000  -33.0250 C   0  0  0  0  0  0  0  0  0  0  0  0
   -5.9950   19.3210  -33.1050 N   0  0  0  0  0  0  0  0  0  0  0  0
   -4.7520   19.6870  -33.8120 C   0  0  0  0  0  0  0  0  0  0  0  0
   -3.9170   20.6720  -32.9890 C   0  0  0  0  0  0  0  0  0  0  0  0
   -3.3700   20.0070  -31.8680 O   0  0  0  0  0  0  0  0  0  0  0  0
   -2.4120   20.8100  -31.2040 C   0  0  0  0  0  0  0  0  0  0  0  0
   -3.0410   22.1040  -30.6660 C   0  0  0  0  0  0  0  0  0  0  0  0
   -4.3880   21.8650  -30.1290 N   0  0  0  0  0  0  0  0  0  0  0  0
   -4.7020   22.7880  -29.0280 C   0  0  0  0  0  0  0  0  0  0  0  0
   -4.0970   22.2860  -27.7150 C   0  0  0  0  0  0  0  0  0  0  0  0
   -2.6310   22.3430  -27.7550 N   0  0  0  0  0  0  0  0  0  0  0  0
   -1.8360   23.4410  -27.6530 C   0  0  0  0  0  0  0  0  0  0  0  0
   -2.2240   24.7780  -27.5130 C   0  0  0  0  0  0  0  0  0  0  0  0
   -1.2140   25.7530  -27.4040 C   0  0  0  0  0  0  0  0  0  0  0  0
    0.1480   25.3830  -27.4350 C   0  0  0  0  0  0  0  0  0  0  0  0
    0.5200   24.0340  -27.5640 C   0  0  0  0  0  0  0  0  0  0  0  0
   -0.4990   23.0900  -27.6650 C   0  0  0  0  0  0  0  0  0  0  0  0
   -0.4640   21.7190  -27.7570 C   0  0  0  0  0  0  0  0  0  0  0  0
    0.5940   20.8150  -27.7660 C   0  0  0  0  0  0  0  0  0  0  0  0
    0.3070   19.4740  -27.8270 N   0  0  0  0  0  0  0  0  0  0  0  0
    1.4050   18.5050  -27.8720 C   0  0  0  0  0  0  0  0  0  0  0  0
   -0.9950   19.0310  -27.9060 C   0  0  0  0  0  0  0  0  0  0  0  0
   -2.0720   19.9360  -27.8920 C   0  0  0  0  0  0  0  0  0  0  0  0
   -1.7700   21.2940  -27.8100 C   0  0  0  0  0  0  0  0  0  0  0  0
   -6.7810   20.2780  -32.5070 C   0  0  0  0  0  0  0  0  0  0  0  0
   -6.4410   21.5960  -32.5660 N   0  0  0  0  0  0  0  0  0  0  0  0
   -5.6867   25.5239  -28.7362 H   0  0  0  0  0  0  0  0  0  0  0  0
   -6.5904   26.6436  -29.8114 H   0  0  0  0  0  0  0  0  0  0  0  0
   -6.9783   24.8897  -29.8114 H   0  0  0  0  0  0  0  0  0  0  0  0
   -5.2120   26.2229  -31.5517 H   0  0  0  0  0  0  0  0  0  0  0  0
   -4.1427   25.3737  -30.3588 H   0  0  0  0  0  0  0  0  0  0  0  0
   -4.6910   24.0970  -32.3230 H   0  0  0  0  0  0  0  0  0  0  0  0
   -7.4084   24.6380  -31.4901 H   0  0  0  0  0  0  0  0  0  0  0  0
   -6.7202   24.3065  -33.1196 H   0  0  0  0  0  0  0  0  0  0  0  0
   -8.9697   23.0120  -30.8153 H   0  0  0  0  0  0  0  0  0  0  0  0
   -9.6578   20.6126  -30.6681 H   0  0  0  0  0  0  0  0  0  0  0  0
   -9.2118   18.2423  -31.1998 H   0  0  0  0  0  0  0  0  0  0  0  0
   -7.7574   16.5308  -32.2914 H   0  0  0  0  0  0  0  0  0  0  0  0
   -5.7008   17.2433  -33.5033 H   0  0  0  0  0  0  0  0  0  0  0  0
   -4.1601   18.7774  -33.9916 H   0  0  0  0  0  0  0  0  0  0  0  0
   -5.0212   20.1685  -34.7637 H   0  0  0  0  0  0  0  0  0  0  0  0
   -3.1026   21.0712  -33.6115 H   0  0  0  0  0  0  0  0  0  0  0  0
   -4.5576   21.4984  -32.6475 H   0  0  0  0  0  0  0  0  0  0  0  0
   -1.9893   20.2410  -30.3628 H   0  0  0  0  0  0  0  0  0  0  0  0
   -1.6273   21.0807  -31.9258 H   0  0  0  0  0  0  0  0  0  0  0  0
   -2.4029   22.5055  -29.8650 H   0  0  0  0  0  0  0  0  0  0  0  0
   -3.1227   22.8197  -31.4973 H   0  0  0  0  0  0  0  0  0  0  0  0
   -5.0770   22.0480  -30.8970 H   0  0  0  0  0  0  0  0  0  0  0  0
   -4.2893   23.7809  -29.2599 H   0  0  0  0  0  0  0  0  0  0  0  0
   -5.7946   22.8468  -28.9153 H   0  0  0  0  0  0  0  0  0  0  0  0
   -4.4589   22.9152  -26.8885 H   0  0  0  0  0  0  0  0  0  0  0  0
   -4.4028   21.2400  -27.5658 H   0  0  0  0  0  0  0  0  0  0  0  0
   -3.2872   25.0592  -27.4888 H   0  0  0  0  0  0  0  0  0  0  0  0
   -1.4887   26.8124  -27.2937 H   0  0  0  0  0  0  0  0  0  0  0  0
    0.9251   26.1576  -27.3575 H   0  0  0  0  0  0  0  0  0  0  0  0
    1.5782   23.7343  -27.5845 H   0  0  0  0  0  0  0  0  0  0  0  0
    1.6355   21.1667  -27.7252 H   0  0  0  0  0  0  0  0  0  0  0  0
    1.7037   18.2414  -26.8467 H   0  0  0  0  0  0  0  0  0  0  0  0
    1.0736   17.5996  -28.4016 H   0  0  0  0  0  0  0  0  0  0  0  0
    2.2621   18.9464  -28.4016 H   0  0  0  0  0  0  0  0  0  0  0  0
   -1.1958   17.9521  -27.9813 H   0  0  0  0  0  0  0  0  0  0  0  0
   -3.1132   19.5850  -27.9438 H   0  0  0  0  0  0  0  0  0  0  0  0
  1  2  1  0
  2  3  1  0
  3  4  1  0
  4  5  1  0
  5  6  2  0
  6  7  1  0
  7  8  2  0
  8  9  1  0
  9 10  2  0
 10 11  1  0
 11 12  2  0
 12 13  1  0
 13 14  1  0
 14 15  1  0
 15 16  1  0
 16 17  1  0
 17 18  1  0
 18 19  1  0
 19 20  1  0
 20 21  1  0
 21 22  1  0
 22 23  2  0
 23 24  1  0
 24 25  2  0
 25 26  1  0
 26 27  2  0
 27 28  1  0
 28 29  2  0
 29 30  1  0
 30 31  1  0
 30 32  2  0
 32 33  1  0
 33 34  2  0
 12 35  1  0
 35 36  2  0
 36  5  1  0
 35  8  1  0
 34 21  1  0
 27 22  1  0
 34 28  1  0
  1 37  1  0
  1 38  1  0
  1 39  1  0
  2 40  1  0
  2 41  1  0
  3 42  1  0
  4 43  1  0
  4 44  1  0
  6 45  1  0
  7 46  1  0
  9 47  1  0
 10 48  1  0
 11 49  1  0
 13 50  1  0
 13 51  1  0
 14 52  1  0
 14 53  1  0
 16 54  1  0
 16 55  1  0
 17 56  1  0
 17 57  1  0
 18 58  1  0
 19 59  1  0
 19 60  1  0
 20 61  1  0
 20 62  1  0
 23 63  1  0
 24 64  1  0
 25 65  1  0
 26 66  1  0
 29 67  1  0
 31 68  1  0
 31 69  1  0
 31 70  1  0
 32 71  1  0
 33 72  1  0
M  CHG  2  12   1  30   1
M  END
>  <UniqueID>  (22) 
22

>  <SMILES>  (22) 
CCNCc1ccc2ccc[n+](CCOCCNCCn3c4ccccc4c4c[n+](C)ccc43)c2n1

>  <Energy>  (22) 
111.16919463254366

>  <Genealogy>  (22) 
CCNCc1ccc2ccc[n+](CCOCCNCCn3c4ccccc4c4c[n+](C)ccc43)c2n1 (3D coordinates assigned)
CCNCc1ccc2ccc[n+](CCOCCNCCn3c4ccccc4c4c[n+](C)ccc43)c2n1 (optimized conformer: 111.16919463254366 kcal/mol)

>  <smiles>  (22) 
CCNCc1ccc2ccc[n+](CCOCCNCCn3c4ccccc4c4c[n+](C)ccc43)c2n1

>  <score_type>  (22) 
oracle

>  <origin>  (22) 
adg

>  <m_score__min__energy>  (22) 
-9.8499999999999996

>  <m_primary>  (22) 
energy

$$$$
22:0
     RDKit          3D

 57 58  0  0  0  0  0  0  0  0999 V2000
   -1.9000   24.8840  -28.6060 C   0  0  0  0  0  0  0  0  0  0  0  0
   -2.7830   24.1060  -29.5760 C   0  0  0  0  0  0  0  0  0  0  0  0
   -3.4870   25.0230  -30.4650 N   0  0  0  0  0  0  0  0  0  0  0  0
   -4.9140   25.1520  -30.5080 C   0  0  0  0  0  0  0  0  0  0  0  0
   -5.4610   26.2370  -30.1690 O   0  0  0  0  0  0  0  0  0  0  0  0
   -5.7840   23.9940  -30.9430 C   0  0  1  0  0  0  0  0  0  0  0  0
   -5.6390   23.6380  -32.4320 C   0  0  0  0  0  0  0  0  0  0  0  0
   -5.8150   22.1280  -32.5220 C   0  0  0  0  0  0  0  0  0  0  0  0
   -5.3450   21.5720  -31.1730 C   0  0  1  0  0  0  0  0  0  0  0  0
   -3.8370   21.2410  -31.2150 C   0  0  0  0  0  0  0  0  0  0  0  0
   -3.4400   20.7540  -32.5550 N   0  0  0  0  0  0  0  0  0  0  0  0
   -2.0770   21.1710  -32.9250 C   0  0  0  0  0  0  0  0  0  0  0  0
   -3.6740   19.3030  -32.7440 C   0  0  0  0  0  0  0  0  0  0  0  0
   -4.7220   18.9530  -33.8260 C   0  0  0  0  0  0  0  0  0  0  0  0
   -5.8400   18.1640  -33.2570 N   0  0  0  0  0  0  0  0  0  0  0  0
   -6.2200   17.0710  -34.1740 C   0  0  0  0  0  0  0  0  0  0  0  0
   -6.9990   19.0350  -32.9540 C   0  0  0  0  0  0  0  0  0  0  0  0
   -7.9640   18.3870  -31.9440 C   0  0  0  0  0  0  0  0  0  0  0  0
   -9.0840   19.2190  -31.6970 O   0  0  0  0  0  0  0  0  0  0  0  0
   -8.8850   20.4970  -32.2630 C   0  0  0  0  0  0  0  0  0  0  0  0
   -5.6290   22.6920  -30.1540 C   0  0  2  0  0  0  0  0  0  0  0  0
   -7.0910   22.7940  -29.7080 C   0  0  0  0  0  0  0  0  0  0  0  0
   -7.2380   24.1100  -30.4630 C   0  0  0  0  0  0  0  0  0  0  0  0
   -2.1826   24.6350  -27.5725 H   0  0  0  0  0  0  0  0  0  0  0  0
   -0.8465   24.6152  -28.7729 H   0  0  0  0  0  0  0  0  0  0  0  0
   -2.0340   25.9630  -28.7729 H   0  0  0  0  0  0  0  0  0  0  0  0
   -2.1558   23.4294  -30.1750 H   0  0  0  0  0  0  0  0  0  0  0  0
   -3.5209   23.5260  -29.0023 H   0  0  0  0  0  0  0  0  0  0  0  0
   -6.4126   24.1489  -33.0241 H   0  0  0  0  0  0  0  0  0  0  0  0
   -4.6628   23.9540  -32.8285 H   0  0  0  0  0  0  0  0  0  0  0  0
   -6.8717   21.8750  -32.6935 H   0  0  0  0  0  0  0  0  0  0  0  0
   -5.2404   21.7024  -33.3579 H   0  0  0  0  0  0  0  0  0  0  0  0
   -5.8631   20.6378  -30.9107 H   0  0  0  0  0  0  0  0  0  0  0  0
   -3.2624   22.1483  -30.9768 H   0  0  0  0  0  0  0  0  0  0  0  0
   -3.6302   20.4506  -30.4785 H   0  0  0  0  0  0  0  0  0  0  0  0
   -1.4885   21.3511  -32.0133 H   0  0  0  0  0  0  0  0  0  0  0  0
   -1.5994   20.3779  -33.5190 H   0  0  0  0  0  0  0  0  0  0  0  0
   -2.1250   22.0956  -33.5190 H   0  0  0  0  0  0  0  0  0  0  0  0
   -2.7193   18.8361  -33.0279 H   0  0  0  0  0  0  0  0  0  0  0  0
   -4.0736   18.9260  -31.7910 H   0  0  0  0  0  0  0  0  0  0  0  0
   -5.1217   19.8848  -34.2526 H   0  0  0  0  0  0  0  0  0  0  0  0
   -4.2307   18.3489  -34.6029 H   0  0  0  0  0  0  0  0  0  0  0  0
   -6.5259   16.1912  -33.5889 H   0  0  0  0  0  0  0  0  0  0  0  0
   -7.0569   17.3987  -34.8081 H   0  0  0  0  0  0  0  0  0  0  0  0
   -5.3603   16.8088  -34.8081 H   0  0  0  0  0  0  0  0  0  0  0  0
   -6.6302   19.9824  -32.5341 H   0  0  0  0  0  0  0  0  0  0  0  0
   -7.5513   19.2009  -33.8907 H   0  0  0  0  0  0  0  0  0  0  0  0
   -8.3137   17.4256  -32.3483 H   0  0  0  0  0  0  0  0  0  0  0  0
   -7.4263   18.2374  -30.9961 H   0  0  0  0  0  0  0  0  0  0  0  0
   -8.7693   21.2397  -31.4599 H   0  0  0  0  0  0  0  0  0  0  0  0
   -7.9779   20.4853  -32.8850 H   0  0  0  0  0  0  0  0  0  0  0  0
   -9.7528   20.7617  -32.8850 H   0  0  0  0  0  0  0  0  0  0  0  0
   -4.8666   22.5254  -29.3788 H   0  0  0  0  0  0  0  0  0  0  0  0
   -7.7327   21.9855  -30.0881 H   0  0  0  0  0  0  0  0  0  0  0  0
   -7.3499   22.7358  -28.6405 H   0  0  0  0  0  0  0  0  0  0  0  0
   -7.9821   24.0830  -31.2727 H   0  0  0  0  0  0  0  0  0  0  0  0
   -7.5829   25.0158  -29.9428 H   0  0  0  0  0  0  0  0  0  0  0  0
  1  2  1  0
  2  3  1  0
  3  4  1  0
  4  5  2  0
  6  4  1  1
  6  7  1  0
  7  8  1  0
  8  9  1  0
  9 10  1  0
 10 11  1  0
 11 12  1  0
 11 13  1  0
 13 14  1  0
 14 15  1  0
 15 16  1  0
 15 17  1  0
 17 18  1  0
 18 19  1  0
 19 20  1  0
  9 21  1  0
 21 22  1  0
 22 23  1  0
 21  6  1  0
 23  6  1  0
  1 24  1  0
  1 25  1  0
  1 26  1  0
  2 27  1  0
  2 28  1  0
  7 29  1  0
  7 30  1  0
  8 31  1  0
  8 32  1  0
  9 33  1  1
 10 34  1  0
 10 35  1  0
 12 36  1  0
 12 37  1  0
 12 38  1  0
 13 39  1  0
 13 40  1  0
 14 41  1  0
 14 42  1  0
 16 43  1  0
 16 44  1  0
 16 45  1  0
 17 46  1  0
 17 47  1  0
 18 48  1  0
 18 49  1  0
 20 50  1  0
 20 51  1  0
 20 52  1  0
 21 53  1  1
 22 54  1  0
 22 55  1  0
 23 56  1  0
 23 57  1  0
M  CHG  1   3  -1
M  END
>  <UniqueID>  (23) 
23

>  <SMILES>  (23) 
CC[N-]C(=O)[C@]12CCC1[C@H](CN(C)CCN(C)CCOC)CC2

>  <Energy>  (23) 
119.14063655573926

>  <Genealogy>  (23) 
CC[N-]C(=O)C12CCC(CN(C)CCN(C)CCOC)C1CC2 (protonated)
CC[N-]C(=O)[C@]12CCC1[C@H](CN(C)CCN(C)CCOC)CC2 (chirality)
CC[N-]C(=O)[C@]12CCC1[C@H](CN(C)CCN(C)CCOC)CC2 (3D coordinates assigned)
CC[N-]C(=O)[C@]12CCC1[C@H](CN(C)CCN(C)CCOC)CC2 (nonaromatic ring conformer: 119.14063655573926 kcal/mol)

>  <smiles>  (23) 
CCNC(=O)C12CCC(CN(C)CCN(C)CCOC)C1CC2

>  <score_type>  (23) 
oracle

>  <origin>  (23) 
adg

>  <m_score__min__energy>  (23) 
-8.7300000000000004

>  <m_primary>  (23) 
energy

$$$$
23:0
     RDKit          3D

 57 60  0  0  0  0  0  0  0  0999 V2000
   -1.6310   25.6470  -25.2170 C   0  0  0  0  0  0  0  0  0  0  0  0
   -0.3340   26.0140  -25.8080 N   0  0  0  0  0  0  0  0  0  0  0  0
    0.4730   26.7340  -24.8070 C   0  0  0  0  0  0  0  0  0  0  0  0
   -0.5250   26.8310  -27.0310 C   0  0  0  0  0  0  0  0  0  0  0  0
   -0.8690   25.9380  -28.2290 C   0  0  0  0  0  0  0  0  0  0  0  0
   -0.0940   24.6840  -28.1980 N   0  0  0  0  0  0  0  0  0  0  0  0
   -0.9470   23.4860  -28.1750 C   0  0  0  0  0  0  0  0  0  0  0  0
   -2.3510   23.8190  -28.6020 C   0  0  0  0  0  0  0  0  0  0  0  0
   -2.6830   23.8460  -29.9650 C   0  0  0  0  0  0  0  0  0  0  0  0
   -3.9680   24.2160  -30.3710 C   0  0  0  0  0  0  0  0  0  0  0  0
   -4.9430   24.5520  -29.4180 C   0  0  0  0  0  0  0  0  0  0  0  0
   -6.3300   24.9520  -29.8470 C   0  0  0  0  0  0  0  0  0  0  0  0
   -6.5960   24.5040  -31.2150 N   0  0  0  0  0  0  0  0  0  0  0  0
   -6.8040   23.1300  -31.5960 C   0  0  0  0  0  0  0  0  0  0  0  0
   -8.0280   22.5190  -31.3060 C   0  0  0  0  0  0  0  0  0  0  0  0
   -8.2660   21.1830  -31.6440 C   0  0  0  0  0  0  0  0  0  0  0  0
   -9.4790   20.6650  -31.3210 F   0  0  0  0  0  0  0  0  0  0  0  0
   -7.2710   20.4050  -32.2960 C   0  0  0  0  0  0  0  0  0  0  0  0
   -7.5190   19.0320  -32.6350 C   0  0  0  0  0  0  0  0  0  0  0  0
   -8.6440   18.5420  -32.3320 O   0  0  0  0  0  0  0  0  0  0  0  0
   -6.5840   18.1680  -33.2920 C   0  0  0  0  0  0  0  0  0  0  0  0
   -6.9440   16.8270  -33.5740 C   0  0  0  0  0  0  0  0  0  0  0  0
   -6.0530   15.9600  -34.2130 C   0  0  0  0  0  0  0  0  0  0  0  0
   -4.7860   16.4050  -34.5870 C   0  0  0  0  0  0  0  0  0  0  0  0
   -4.4050   17.7190  -34.3240 C   0  0  0  0  0  0  0  0  0  0  0  0
   -5.2940   18.5900  -33.6840 C   0  0  0  0  0  0  0  0  0  0  0  0
   -4.8330   20.1730  -33.3650 S   0  0  0  0  0  0  0  0  0  0  0  0
   -6.0440   21.0480  -32.5900 C   0  0  0  0  0  0  0  0  0  0  0  0
   -5.8150   22.3850  -32.2520 C   0  0  0  0  0  0  0  0  0  0  0  0
   -4.6080   24.5290  -28.0550 C   0  0  0  0  0  0  0  0  0  0  0  0
   -3.3220   24.1640  -27.6490 C   0  0  0  0  0  0  0  0  0  0  0  0
   -1.5534   25.6690  -24.1200 H   0  0  0  0  0  0  0  0  0  0  0  0
   -2.3990   26.3631  -25.5447 H   0  0  0  0  0  0  0  0  0  0  0  0
   -1.9099   24.6347  -25.5447 H   0  0  0  0  0  0  0  0  0  0  0  0
    0.1481   26.4442  -23.7968 H   0  0  0  0  0  0  0  0  0  0  0  0
    1.5346   26.4775  -24.9385 H   0  0  0  0  0  0  0  0  0  0  0  0
    0.3387   27.8178  -24.9385 H   0  0  0  0  0  0  0  0  0  0  0  0
   -1.3456   27.5444  -26.8646 H   0  0  0  0  0  0  0  0  0  0  0  0
    0.4096   27.3693  -27.2471 H   0  0  0  0  0  0  0  0  0  0  0  0
   -1.9421   25.6976  -28.2012 H   0  0  0  0  0  0  0  0  0  0  0  0
   -0.6174   26.4807  -29.1521 H   0  0  0  0  0  0  0  0  0  0  0  0
    0.4720   24.6760  -27.3170 H   0  0  0  0  0  0  0  0  0  0  0  0
   -0.5305   22.7340  -28.8613 H   0  0  0  0  0  0  0  0  0  0  0  0
   -0.9754   23.0941  -27.1476 H   0  0  0  0  0  0  0  0  0  0  0  0
   -1.9281   23.5746  -30.7177 H   0  0  0  0  0  0  0  0  0  0  0  0
   -4.2168   24.2442  -31.4421 H   0  0  0  0  0  0  0  0  0  0  0  0
   -7.0644   24.4947  -29.1677 H   0  0  0  0  0  0  0  0  0  0  0  0
   -6.4096   26.0485  -29.8114 H   0  0  0  0  0  0  0  0  0  0  0  0
   -6.7000   25.2450  -31.9460 H   0  0  0  0  0  0  0  0  0  0  0  0
   -8.8165   23.0987  -30.8038 H   0  0  0  0  0  0  0  0  0  0  0  0
   -7.9408   16.4622  -33.2854 H   0  0  0  0  0  0  0  0  0  0  0  0
   -6.3528   14.9224  -34.4216 H   0  0  0  0  0  0  0  0  0  0  0  0
   -4.0877   15.7193  -35.0893 H   0  0  0  0  0  0  0  0  0  0  0  0
   -3.4058   18.0717  -34.6193 H   0  0  0  0  0  0  0  0  0  0  0  0
   -4.8526   22.8551  -32.5025 H   0  0  0  0  0  0  0  0  0  0  0  0
   -5.3627   24.8000  -27.3020 H   0  0  0  0  0  0  0  0  0  0  0  0
   -3.0695   24.1469  -26.5785 H   0  0  0  0  0  0  0  0  0  0  0  0
  1  2  1  0
  2  3  1  0
  2  4  1  0
  4  5  1  0
  5  6  1  0
  6  7  1  0
  7  8  1  0
  8  9  2  0
  9 10  1  0
 10 11  2  0
 11 12  1  0
 12 13  1  0
 13 14  1  0
 14 15  2  0
 15 16  1  0
 16 17  1  0
 16 18  2  0
 18 19  1  0
 19 20  2  0
 19 21  1  0
 21 22  2  0
 22 23  1  0
 23 24  2  0
 24 25  1  0
 25 26  2  0
 26 27  1  0
 27 28  1  0
 28 29  2  0
 11 30  1  0
 30 31  2  0
 31  8  1  0
 29 14  1  0
 28 18  1  0
 26 21  1  0
  1 32  1  0
  1 33  1  0
  1 34  1  0
  3 35  1  0
  3 36  1  0
  3 37  1  0
  4 38  1  0
  4 39  1  0
  5 40  1  0
  5 41  1  0
  6 42  1  0
  7 43  1  0
  7 44  1  0
  9 45  1  0
 10 46  1  0
 12 47  1  0
 12 48  1  0
 13 49  1  0
 15 50  1  0
 22 51  1  0
 23 52  1  0
 24 53  1  0
 25 54  1  0
 29 55  1  0
 30 56  1  0
 31 57  1  0
M  END
>  <UniqueID>  (24) 
24

>  <SMILES>  (24) 
CN(C)CCNCc1ccc(CNc2cc(F)c3c(=O)c4ccccc4sc3c2)cc1

>  <Energy>  (24) 
73.05391977906531

>  <Genealogy>  (24) 
CN(C)CCNCc1ccc(CNc2cc(F)c3c(=O)c4ccccc4sc3c2)cc1 (3D coordinates assigned)
CN(C)CCNCc1ccc(CNc2cc(F)c3c(=O)c4ccccc4sc3c2)cc1 (optimized conformer: 73.05391977906531 kcal/mol)

>  <smiles>  (24) 
CN(C)CCNCc1ccc(CNc2cc(F)c3c(=O)c4ccccc4sc3c2)cc1

>  <score_type>  (24) 
oracle

>  <origin>  (24) 
adg

>  <m_score__min__energy>  (24) 
-10.470000000000001

>  <m_primary>  (24) 
energy

$$$$
24:0
     RDKit          3D

 57 59  0  0  0  0  0  0  0  0999 V2000
   -6.8350   25.2610  -29.7680 C   0  0  0  0  0  0  0  0  0  0  0  0
   -5.3660   24.8310  -29.7090 C   0  0  0  0  0  0  0  0  0  0  0  0
   -4.9090   24.6060  -28.3210 N   0  0  0  0  0  0  0  0  0  0  0  0
   -3.7260   23.7180  -28.2330 C   0  0  0  0  0  0  0  0  0  0  0  0
   -3.8470   22.4860  -29.1490 C   0  0  0  0  0  0  0  0  0  0  0  0
   -2.8180   22.4920  -30.1180 O   0  0  0  0  0  0  0  0  0  0  0  0
   -3.1600   21.6900  -31.2290 C   0  0  0  0  0  0  0  0  0  0  0  0
   -4.1620   22.4370  -32.1100 C   0  0  0  0  0  0  0  0  0  0  0  0
   -4.7000   21.5710  -33.1620 N   0  0  0  0  0  0  0  0  0  0  0  0
   -5.8610   20.7480  -32.9470 C   0  0  0  0  0  0  0  0  0  0  0  0
   -7.0560   21.3140  -32.4730 C   0  0  0  0  0  0  0  0  0  0  0  0
   -7.2020   22.7140  -32.3650 C   0  0  0  0  0  0  0  0  0  0  0  0
   -8.4030   23.2730  -31.9360 C   0  0  0  0  0  0  0  0  0  0  0  0
   -9.4830   22.4540  -31.6270 C   0  0  0  0  0  0  0  0  0  0  0  0
   -9.3640   21.0680  -31.7310 C   0  0  0  0  0  0  0  0  0  0  0  0
   -8.1420   20.4650  -32.1310 C   0  0  0  0  0  0  0  0  0  0  0  0
   -7.9990   19.0930  -32.2140 N   0  0  0  0  0  0  0  0  0  0  0  0
   -9.0030   18.2070  -31.5820 C   0  0  0  0  0  0  0  0  0  0  0  0
   -6.9070   18.5480  -32.8670 C   0  0  0  0  0  0  0  0  0  0  0  0
   -6.8540   17.1770  -33.2180 C   0  0  0  0  0  0  0  0  0  0  0  0
   -5.7190   16.6130  -33.8190 C   0  0  0  0  0  0  0  0  0  0  0  0
   -5.7160   15.1430  -34.1550 C   0  0  0  0  0  0  0  0  0  0  0  0
   -4.5940   17.4220  -34.0720 C   0  0  0  0  0  0  0  0  0  0  0  0
   -3.3450   16.8570  -34.6990 C   0  0  0  0  0  0  0  0  0  0  0  0
   -4.6580   18.7920  -33.7930 C   0  0  0  0  0  0  0  0  0  0  0  0
   -5.8060   19.3690  -33.2120 C   0  0  0  0  0  0  0  0  0  0  0  0
   -7.2250   25.3752  -28.7458 H   0  0  0  0  0  0  0  0  0  0  0  0
   -6.9152   26.2203  -30.3003 H   0  0  0  0  0  0  0  0  0  0  0  0
   -7.4198   24.4963  -30.3003 H   0  0  0  0  0  0  0  0  0  0  0  0
   -5.2464   23.8971  -30.2778 H   0  0  0  0  0  0  0  0  0  0  0  0
   -4.7580   25.6404  -30.1394 H   0  0  0  0  0  0  0  0  0  0  0  0
   -4.6760   25.5250  -27.8770 H   0  0  0  0  0  0  0  0  0  0  0  0
   -5.7030   24.2030  -27.7690 H   0  0  0  0  0  0  0  0  0  0  0  0
   -2.8328   24.2895  -28.5258 H   0  0  0  0  0  0  0  0  0  0  0  0
   -3.6528   23.3588  -27.1959 H   0  0  0  0  0  0  0  0  0  0  0  0
   -3.7676   21.5727  -28.5411 H   0  0  0  0  0  0  0  0  0  0  0  0
   -4.8203   22.5148  -29.6606 H   0  0  0  0  0  0  0  0  0  0  0  0
   -2.2545   21.4668  -31.8123 H   0  0  0  0  0  0  0  0  0  0  0  0
   -3.6113   20.7506  -30.8771 H   0  0  0  0  0  0  0  0  0  0  0  0
   -4.9916   22.7958  -31.4831 H   0  0  0  0  0  0  0  0  0  0  0  0
   -3.6409   23.2793  -32.5885 H   0  0  0  0  0  0  0  0  0  0  0  0
   -4.1910   21.5010  -34.0720 H   0  0  0  0  0  0  0  0  0  0  0  0
   -6.3578   23.3705  -32.6226 H   0  0  0  0  0  0  0  0  0  0  0  0
   -8.4974   24.3649  -31.8414 H   0  0  0  0  0  0  0  0  0  0  0  0
  -10.4338   22.9000  -31.2997 H   0  0  0  0  0  0  0  0  0  0  0  0
  -10.2309   20.4317  -31.4994 H   0  0  0  0  0  0  0  0  0  0  0  0
   -8.9197   18.2805  -30.4876 H   0  0  0  0  0  0  0  0  0  0  0  0
  -10.0119   18.5146  -31.8944 H   0  0  0  0  0  0  0  0  0  0  0  0
   -8.8233   17.1677  -31.8944 H   0  0  0  0  0  0  0  0  0  0  0  0
   -7.7256   16.5377  -33.0140 H   0  0  0  0  0  0  0  0  0  0  0  0
   -5.7148   14.5545  -33.2257 H   0  0  0  0  0  0  0  0  0  0  0  0
   -6.6136   14.8993  -34.7422 H   0  0  0  0  0  0  0  0  0  0  0  0
   -4.8174   14.9029  -34.7422 H   0  0  0  0  0  0  0  0  0  0  0  0
   -2.6482   16.5418  -33.9084 H   0  0  0  0  0  0  0  0  0  0  0  0
   -3.6079   15.9902  -35.3231 H   0  0  0  0  0  0  0  0  0  0  0  0
   -2.8675   17.6268  -35.3231 H   0  0  0  0  0  0  0  0  0  0  0  0
   -3.7954   19.4315  -34.0317 H   0  0  0  0  0  0  0  0  0  0  0  0
  1  2  1  0
  2  3  1  0
  3  4  1  0
  4  5  1  0
  5  6  1  0
  6  7  1  0
  7  8  1  0
  8  9  1  0
  9 10  1  0
 10 11  2  0
 11 12  1  0
 12 13  2  0
 13 14  1  0
 14 15  2  0
 15 16  1  0
 16 17  2  0
 17 18  1  0
 17 19  1  0
 19 20  2  0
 20 21  1  0
 21 22  1  0
 21 23  2  0
 23 24  1  0
 23 25  1  0
 25 26  2  0
 26 10  1  0
 16 11  1  0
 26 19  1  0
  1 27  1  0
  1 28  1  0
  1 29  1  0
  2 30  1  0
  2 31  1  0
  3 32  1  0
  3 33  1  0
  4 34  1  0
  4 35  1  0
  5 36  1  0
  5 37  1  0
  7 38  1  0
  7 39  1  0
  8 40  1  0
  8 41  1  0
  9 42  1  0
 12 43  1  0
 13 44  1  0
 14 45  1  0
 15 46  1  0
 18 47  1  0
 18 48  1  0
 18 49  1  0
 20 50  1  0
 22 51  1  0
 22 52  1  0
 22 53  1  0
 24 54  1  0
 24 55  1  0
 24 56  1  0
 25 57  1  0
M  CHG  2   3   1  17   1
M  END
>  <UniqueID>  (25) 
25

>  <SMILES>  (25) 
CC[NH2+]CCOCCNc1c2ccccc2[n+](C)c2cc(C)c(C)cc12

>  <Energy>  (25) 
80.88367538902261

>  <Genealogy>  (25) 
CC[NH2+]CCOCCNc1c2ccccc2[n+](C)c2cc(C)c(C)cc12 (protonated)
CC[NH2+]CCOCCNc1c2ccccc2[n+](C)c2cc(C)c(C)cc12 (3D coordinates assigned)
CC[NH2+]CCOCCNc1c2ccccc2[n+](C)c2cc(C)c(C)cc12 (optimized conformer: 80.88367538902261 kcal/mol)

>  <smiles>  (25) 
CCNCCOCCNc1c2ccccc2[n+](C)c2cc(C)c(C)cc12

>  <score_type>  (25) 
oracle

>  <origin>  (25) 
adg

>  <m_score__min__energy>  (25) 
-8.5600000000000005

>  <m_primary>  (25) 
energy

$$$$
25:0
     RDKit          3D

 60 64  0  0  0  0  0  0  0  0999 V2000
   -2.9170   20.8410  -30.0600 C   0  0  0  0  0  0  0  0  0  0  0  0
   -1.4720   20.6800  -29.5710 C   0  0  0  0  0  0  0  0  0  0  0  0
   -0.4900   20.5150  -30.6770 N   0  0  0  0  0  0  0  0  0  0  0  0
   -0.4430   19.1080  -31.1530 C   0  0  0  0  0  0  0  0  0  0  0  0
    0.9120   18.4350  -30.8960 C   0  0  0  0  0  0  0  0  0  0  0  0
   -0.6840   21.4620  -31.8120 C   0  0  0  0  0  0  0  0  0  0  0  0
   -0.4400   20.8830  -33.2270 C   0  0  0  0  0  0  0  0  0  0  0  0
   -1.6780   20.7570  -33.9980 N   0  0  0  0  0  0  0  0  0  0  0  0
   -2.4660   19.5630  -33.8900 C   0  0  0  0  0  0  0  0  0  0  0  0
   -3.7940   19.6390  -33.4850 C   0  0  0  0  0  0  0  0  0  0  0  0
   -4.5720   18.5080  -33.3480 C   0  0  0  0  0  0  0  0  0  0  0  0
   -4.0400   17.2500  -33.4900 N   0  0  0  0  0  0  0  0  0  0  0  0
   -4.7830   16.0740  -33.0090 C   0  0  0  0  0  0  0  0  0  0  0  0
   -2.7680   17.1280  -34.0290 C   0  0  0  0  0  0  0  0  0  0  0  0
   -2.2460   15.8730  -34.4270 C   0  0  0  0  0  0  0  0  0  0  0  0
   -0.9590   15.7650  -34.9540 C   0  0  0  0  0  0  0  0  0  0  0  0
   -0.1680   16.8980  -35.1160 C   0  0  0  0  0  0  0  0  0  0  0  0
   -0.6590   18.1530  -34.7630 C   0  0  0  0  0  0  0  0  0  0  0  0
   -1.9510   18.2910  -34.2210 C   0  0  0  0  0  0  0  0  0  0  0  0
   -5.9360   18.9370  -32.9510 C   0  0  0  0  0  0  0  0  0  0  0  0
   -7.1360   18.2190  -32.8940 C   0  0  0  0  0  0  0  0  0  0  0  0
   -8.3170   18.8910  -32.5530 C   0  0  0  0  0  0  0  0  0  0  0  0
   -8.3110   20.2800  -32.3130 C   0  0  0  0  0  0  0  0  0  0  0  0
   -9.5020   20.9430  -31.9760 C   0  0  0  0  0  0  0  0  0  0  0  0
   -9.5020   22.3230  -31.7640 C   0  0  0  0  0  0  0  0  0  0  0  0
   -8.3200   23.0540  -31.8890 C   0  0  0  0  0  0  0  0  0  0  0  0
   -7.1250   22.4120  -32.2250 C   0  0  0  0  0  0  0  0  0  0  0  0
   -7.1030   21.0220  -32.4380 C   0  0  0  0  0  0  0  0  0  0  0  0
   -5.9320   20.3190  -32.7780 C   0  0  0  0  0  0  0  0  0  0  0  0
   -4.5870   20.8030  -33.1050 C   0  0  0  0  0  0  0  0  0  0  0  0
   -4.1840   21.9950  -33.0770 O   0  0  0  0  0  0  0  0  0  0  0  0
   -3.5910   20.9161  -29.1939 H   0  0  0  0  0  0  0  0  0  0  0  0
   -2.9987   21.7538  -30.6684 H   0  0  0  0  0  0  0  0  0  0  0  0
   -3.1976   19.9686  -30.6684 H   0  0  0  0  0  0  0  0  0  0  0  0
   -1.1980   21.5740  -28.9916 H   0  0  0  0  0  0  0  0  0  0  0  0
   -1.4344   19.7639  -28.9633 H   0  0  0  0  0  0  0  0  0  0  0  0
    0.4540   20.7380  -30.2830 H   0  0  0  0  0  0  0  0  0  0  0  0
   -1.2239   18.5349  -30.6317 H   0  0  0  0  0  0  0  0  0  0  0  0
   -0.6030   19.1224  -32.2412 H   0  0  0  0  0  0  0  0  0  0  0  0
    1.0802   18.3515  -29.8122 H   0  0  0  0  0  0  0  0  0  0  0  0
    0.9140   17.4312  -31.3458 H   0  0  0  0  0  0  0  0  0  0  0  0
    1.7131   19.0400  -31.3458 H   0  0  0  0  0  0  0  0  0  0  0  0
   -1.7206   21.8277  -31.7720 H   0  0  0  0  0  0  0  0  0  0  0  0
    0.0751   22.2466  -31.6772 H   0  0  0  0  0  0  0  0  0  0  0  0
    0.2472   21.5500  -33.7682 H   0  0  0  0  0  0  0  0  0  0  0  0
   -0.0136   19.8759  -33.1090 H   0  0  0  0  0  0  0  0  0  0  0  0
   -2.1620   21.6190  -34.3310 H   0  0  0  0  0  0  0  0  0  0  0  0
   -4.7871   16.0676  -31.9090 H   0  0  0  0  0  0  0  0  0  0  0  0
   -5.8179   16.1175  -33.3792 H   0  0  0  0  0  0  0  0  0  0  0  0
   -4.2993   15.1581  -33.3792 H   0  0  0  0  0  0  0  0  0  0  0  0
   -2.8647   14.9700  -34.3189 H   0  0  0  0  0  0  0  0  0  0  0  0
   -0.5673   14.7786  -35.2431 H   0  0  0  0  0  0  0  0  0  0  0  0
    0.8489   16.8025  -35.5244 H   0  0  0  0  0  0  0  0  0  0  0  0
   -0.0314   19.0445  -34.9091 H   0  0  0  0  0  0  0  0  0  0  0  0
   -7.1516   17.1413  -33.1140 H   0  0  0  0  0  0  0  0  0  0  0  0
   -9.2590   18.3288  -32.4717 H   0  0  0  0  0  0  0  0  0  0  0  0
  -10.4380   20.3734  -31.8787 H   0  0  0  0  0  0  0  0  0  0  0  0
  -10.4377   22.8361  -31.4973 H   0  0  0  0  0  0  0  0  0  0  0  0
   -8.3289   24.1412  -31.7222 H   0  0  0  0  0  0  0  0  0  0  0  0
   -6.1981   22.9961  -32.3232 H   0  0  0  0  0  0  0  0  0  0  0  0
  1  2  1  0
  2  3  1  0
  3  4  1  0
  4  5  1  0
  3  6  1  0
  6  7  1  0
  7  8  1  0
  8  9  1  0
  9 10  2  0
 10 11  1  0
 11 12  2  0
 12 13  1  0
 12 14  1  0
 14 15  2  0
 15 16  1  0
 16 17  2  0
 17 18  1  0
 18 19  2  0
 11 20  1  0
 20 21  2  0
 21 22  1  0
 22 23  2  0
 23 24  1  0
 24 25  2  0
 25 26  1  0
 26 27  2  0
 27 28  1  0
 28 29  2  0
 29 30  1  0
 30 31  2  0
 19  9  1  0
 29 20  1  0
 30 10  1  0
 19 14  1  0
 28 23  1  0
  1 32  1  0
  1 33  1  0
  1 34  1  0
  2 35  1  0
  2 36  1  0
  3 37  1  0
  4 38  1  0
  4 39  1  0
  5 40  1  0
  5 41  1  0
  5 42  1  0
  6 43  1  0
  6 44  1  0
  7 45  1  0
  7 46  1  0
  8 47  1  0
 13 48  1  0
 13 49  1  0
 13 50  1  0
 15 51  1  0
 16 52  1  0
 17 53  1  0
 18 54  1  0
 21 55  1  0
 22 56  1  0
 24 57  1  0
 25 58  1  0
 26 59  1  0
 27 60  1  0
M  CHG  2   3   1  12   1
M  END
>  <UniqueID>  (26) 
26

>  <SMILES>  (26) 
CC[NH+](CC)CCNc1c2c([n+](C)c3ccccc13)-c1ccc3ccccc3c1C2=O

>  <Energy>  (26) 
127.7224878284475

>  <Genealogy>  (26) 
CC[NH+](CC)CCNc1c2c([n+](C)c3ccccc13)-c1ccc3ccccc3c1C2=O (protonated)
CC[NH+](CC)CCNc1c2c([n+](C)c3ccccc13)-c1ccc3ccccc3c1C2=O (3D coordinates assigned)
CC[NH+](CC)CCNc1c2c([n+](C)c3ccccc13)-c1ccc3ccccc3c1C2=O (nonaromatic ring conformer: 127.7224878284475 kcal/mol)

>  <smiles>  (26) 
CCN(CC)CCNc1c2c([n+](C)c3ccccc13)-c1ccc3ccccc3c1C2=O

>  <score_type>  (26) 
oracle

>  <origin>  (26) 
adg

>  <m_score__min__energy>  (26) 
-7.8200000000000003

>  <m_primary>  (26) 
energy

$$$$
26:0
     RDKit          3D

 73 77  0  0  0  0  0  0  0  0999 V2000
    0.6380   21.7620  -35.7240 C   0  0  0  0  0  0  0  0  0  0  0  0
    0.0640   20.6710  -34.8150 C   0  0  0  0  0  0  0  0  0  0  0  0
   -1.2430   21.0460  -34.2470 N   0  0  0  0  0  0  0  0  0  0  0  0
   -1.1750   21.3110  -32.8010 C   0  0  0  0  0  0  0  0  0  0  0  0
   -2.5810   21.2920  -32.1920 C   0  0  0  0  0  0  0  0  0  0  0  0
   -3.6080   21.3150  -33.2350 N   0  0  0  0  0  0  0  0  0  0  0  0
   -4.9780   20.9840  -32.9670 C   0  0  0  0  0  0  0  0  0  0  0  0
   -5.8690   21.9120  -32.3780 C   0  0  0  0  0  0  0  0  0  0  0  0
   -5.4720   23.2450  -32.1500 C   0  0  0  0  0  0  0  0  0  0  0  0
   -6.3320   24.1450  -31.5240 C   0  0  0  0  0  0  0  0  0  0  0  0
   -7.5960   23.7370  -31.1150 C   0  0  0  0  0  0  0  0  0  0  0  0
   -8.0300   22.4330  -31.3570 C   0  0  0  0  0  0  0  0  0  0  0  0
   -7.1970   21.4980  -32.0200 C   0  0  0  0  0  0  0  0  0  0  0  0
   -7.6380   20.2140  -32.3170 N   0  0  0  0  0  0  0  0  0  0  0  0
   -9.0260   19.7990  -32.0360 C   0  0  0  0  0  0  0  0  0  0  0  0
   -6.7480   19.3360  -32.8820 C   0  0  0  0  0  0  0  0  0  0  0  0
   -6.9700   18.0260  -33.1580 N   0  0  0  0  0  0  0  0  0  0  0  0
   -5.8180   17.5810  -33.6980 C   0  0  0  0  0  0  0  0  0  0  0  0
   -5.5530   16.2900  -34.1460 C   0  0  0  0  0  0  0  0  0  0  0  0
   -4.2810   16.0210  -34.6810 C   0  0  0  0  0  0  0  0  0  0  0  0
   -3.3000   17.0460  -34.7680 C   0  0  0  0  0  0  0  0  0  0  0  0
   -2.0180   16.8260  -35.2960 O   0  0  0  0  0  0  0  0  0  0  0  0
   -0.9390   16.1810  -34.6190 C   0  0  0  0  0  0  0  0  0  0  0  0
    0.0700   17.1930  -34.0170 C   0  0  0  0  0  0  0  0  0  0  0  0
    0.1740   17.2280  -32.5200 N   0  0  0  0  0  0  0  0  0  0  0  0
   -0.0580   15.8640  -31.9680 C   0  0  0  0  0  0  0  0  0  0  0  0
    1.5830   17.6310  -32.1620 C   0  0  0  0  0  0  0  0  0  0  0  0
    1.7450   19.1470  -31.9670 C   0  0  0  0  0  0  0  0  0  0  0  0
    0.8780   19.6420  -30.7970 C   0  0  0  0  0  0  0  0  0  0  0  0
   -0.3910   18.7930  -30.6080 C   0  0  0  0  0  0  0  0  0  0  0  0
   -0.8380   18.1790  -31.9440 C   0  0  0  0  0  0  0  0  0  0  0  0
   -3.6050   18.3400  -34.3080 C   0  0  0  0  0  0  0  0  0  0  0  0
   -4.8710   18.5770  -33.7670 C   0  0  0  0  0  0  0  0  0  0  0  0
   -5.4630   19.7060  -33.2270 C   0  0  0  0  0  0  0  0  0  0  0  0
    1.0620   22.5679  -35.1069 H   0  0  0  0  0  0  0  0  0  0  0  0
    1.4270   21.3326  -36.3590 H   0  0  0  0  0  0  0  0  0  0  0  0
   -0.1627   22.1690  -36.3590 H   0  0  0  0  0  0  0  0  0  0  0  0
   -0.0571   19.7489  -35.4024 H   0  0  0  0  0  0  0  0  0  0  0  0
    0.7647   20.5263  -33.9795 H   0  0  0  0  0  0  0  0  0  0  0  0
   -1.6060   21.8990  -34.7350 H   0  0  0  0  0  0  0  0  0  0  0  0
   -0.5597   20.5373  -32.3185 H   0  0  0  0  0  0  0  0  0  0  0  0
   -0.7274   22.3026  -32.6388 H   0  0  0  0  0  0  0  0  0  0  0  0
   -2.6998   20.3783  -31.5911 H   0  0  0  0  0  0  0  0  0  0  0  0
   -2.7014   22.1868  -31.5636 H   0  0  0  0  0  0  0  0  0  0  0  0
   -3.3390   21.5770  -34.2110 H   0  0  0  0  0  0  0  0  0  0  0  0
   -4.4735   23.5781  -32.4694 H   0  0  0  0  0  0  0  0  0  0  0  0
   -6.0092   25.1825  -31.3528 H   0  0  0  0  0  0  0  0  0  0  0  0
   -8.2584   24.4463  -30.5973 H   0  0  0  0  0  0  0  0  0  0  0  0
   -9.0339   22.1264  -31.0281 H   0  0  0  0  0  0  0  0  0  0  0  0
   -9.1817   19.7525  -30.9481 H   0  0  0  0  0  0  0  0  0  0  0  0
   -9.7228   20.5281  -32.4752 H   0  0  0  0  0  0  0  0  0  0  0  0
   -9.2082   18.8071  -32.4752 H   0  0  0  0  0  0  0  0  0  0  0  0
   -7.8170   17.4440  -32.9780 H   0  0  0  0  0  0  0  0  0  0  0  0
   -6.3178   15.5019  -34.0832 H   0  0  0  0  0  0  0  0  0  0  0  0
   -4.0426   15.0074  -35.0357 H   0  0  0  0  0  0  0  0  0  0  0  0
   -1.3500   15.5654  -33.8053 H   0  0  0  0  0  0  0  0  0  0  0  0
   -0.3997   15.5673  -35.3556 H   0  0  0  0  0  0  0  0  0  0  0  0
    1.0658   16.9485  -34.4152 H   0  0  0  0  0  0  0  0  0  0  0  0
   -0.3074   18.1853  -34.3050 H   0  0  0  0  0  0  0  0  0  0  0  0
   -0.0507   15.9071  -30.8689 H   0  0  0  0  0  0  0  0  0  0  0  0
   -1.0328   15.4894  -32.3138 H   0  0  0  0  0  0  0  0  0  0  0  0
    0.7381   15.1882  -32.3138 H   0  0  0  0  0  0  0  0  0  0  0  0
    1.8648   17.1255  -31.2265 H   0  0  0  0  0  0  0  0  0  0  0  0
    2.2315   17.3368  -33.0004 H   0  0  0  0  0  0  0  0  0  0  0  0
    2.8004   19.3727  -31.7547 H   0  0  0  0  0  0  0  0  0  0  0  0
    1.4221   19.6576  -32.8863 H   0  0  0  0  0  0  0  0  0  0  0  0
    1.4732   19.5984  -29.8730 H   0  0  0  0  0  0  0  0  0  0  0  0
    0.5626   20.6709  -31.0248 H   0  0  0  0  0  0  0  0  0  0  0  0
   -0.1815   17.9851  -29.8915 H   0  0  0  0  0  0  0  0  0  0  0  0
   -1.1960   19.4399  -30.2293 H   0  0  0  0  0  0  0  0  0  0  0  0
   -1.7793   17.6335  -31.7818 H   0  0  0  0  0  0  0  0  0  0  0  0
   -0.9605   19.0040  -32.6612 H   0  0  0  0  0  0  0  0  0  0  0  0
   -2.8620   19.1485  -34.3730 H   0  0  0  0  0  0  0  0  0  0  0  0
  1  2  1  0
  2  3  1  0
  3  4  1  0
  4  5  1  0
  5  6  1  0
  6  7  1  0
  7  8  2  0
  8  9  1  0
  9 10  2  0
 10 11  1  0
 11 12  2  0
 12 13  1  0
 13 14  2  0
 14 15  1  0
 14 16  1  0
 16 17  1  0
 17 18  1  0
 18 19  2  0
 19 20  1  0
 20 21  2  0
 21 22  1  0
 22 23  1  0
 23 24  1  0
 24 25  1  0
 25 26  1  0
 25 27  1  0
 27 28  1  0
 28 29  1  0
 29 30  1  0
 30 31  1  0
 21 32  1  0
 32 33  2  0
 33 34  1  0
 34  7  1  0
 13  8  1  0
 34 16  2  0
 33 18  1  0
 31 25  1  0
  1 35  1  0
  1 36  1  0
  1 37  1  0
  2 38  1  0
  2 39  1  0
  3 40  1  0
  4 41  1  0
  4 42  1  0
  5 43  1  0
  5 44  1  0
  6 45  1  0
  9 46  1  0
 10 47  1  0
 11 48  1  0
 12 49  1  0
 15 50  1  0
 15 51  1  0
 15 52  1  0
 17 53  1  0
 19 54  1  0
 20 55  1  0
 23 56  1  0
 23 57  1  0
 24 58  1  0
 24 59  1  0
 26 60  1  0
 26 61  1  0
 26 62  1  0
 27 63  1  0
 27 64  1  0
 28 65  1  0
 28 66  1  0
 29 67  1  0
 29 68  1  0
 30 69  1  0
 30 70  1  0
 31 71  1  0
 31 72  1  0
 32 73  1  0
M  CHG  2  14   1  25   1
M  END
>  <UniqueID>  (27) 
27

>  <SMILES>  (27) 
CCNCCNc1c2ccccc2[n+](C)c2[nH]c3ccc(OCC[N+]4(C)CCCCC4)cc3c12

>  <Energy>  (27) 
147.4791432093302

>  <Genealogy>  (27) 
CCNCCNc1c2ccccc2[n+](C)c2[nH]c3ccc(OCC[N+]4(C)CCCCC4)cc3c12 (3D coordinates assigned)
CCNCCNc1c2ccccc2[n+](C)c2[nH]c3ccc(OCC[N+]4(C)CCCCC4)cc3c12 (nonaromatic ring conformer: 147.4791432093302 kcal/mol)

>  <smiles>  (27) 
CCNCCNc1c2ccccc2[n+](C)c2[nH]c3ccc(OCC[N+]4(C)CCCCC4)cc3c12

>  <score_type>  (27) 
oracle

>  <origin>  (27) 
adg

>  <m_score__min__energy>  (27) 
-9.0899999999999999

>  <m_primary>  (27) 
energy

$$$$
27:0
     RDKit          3D

 45 46  0  0  0  0  0  0  0  0999 V2000
   -4.9740   23.5520  -29.0630 C   0  0  0  0  0  0  0  0  0  0  0  0
   -4.4800   24.8360  -29.7210 C   0  0  0  0  0  0  0  0  0  0  0  0
   -4.4070   24.6720  -31.1790 N   0  0  0  0  0  0  0  0  0  0  0  0
   -5.6210   24.0410  -31.7110 C   0  0  0  0  0  0  0  0  0  0  0  0
   -5.2900   22.6720  -32.2340 C   0  0  0  0  0  0  0  0  0  0  0  0
   -3.9540   22.3260  -32.5310 C   0  0  0  0  0  0  0  0  0  0  0  0
   -3.6390   21.0590  -33.0580 C   0  0  0  0  0  0  0  0  0  0  0  0
   -2.2200   20.6630  -33.3400 C   0  0  0  0  0  0  0  0  0  0  0  0
   -4.6970   20.1670  -33.2640 C   0  0  0  0  0  0  0  0  0  0  0  0
   -4.5850   18.9050  -33.7360 N   0  0  0  0  0  0  0  0  0  0  0  0
   -5.8610   18.4570  -33.7620 C   0  0  0  0  0  0  0  0  0  0  0  0
   -6.2360   17.0680  -34.1690 C   0  0  0  0  0  0  0  0  0  0  0  0
   -6.7160   19.4480  -33.2960 C   0  0  0  0  0  0  0  0  0  0  0  0
   -8.1410   19.3370  -33.0980 N   0  0  0  0  0  0  0  0  0  0  0  0
   -8.4920   19.3200  -31.6680 C   0  0  0  0  0  0  0  0  0  0  0  0
   -9.0910   20.6540  -31.1950 C   0  0  0  0  0  0  0  0  0  0  0  0
   -9.3790   21.4790  -32.3090 O   0  0  0  0  0  0  0  0  0  0  0  0
   -9.2210   22.8390  -31.9680 C   0  0  0  0  0  0  0  0  0  0  0  0
   -5.9660   20.5220  -32.9870 N   0  0  0  0  0  0  0  0  0  0  0  0
   -6.3110   21.7390  -32.4900 C   0  0  0  0  0  0  0  0  0  0  0  0
   -4.9321   23.6609  -27.9692 H   0  0  0  0  0  0  0  0  0  0  0  0
   -6.0114   23.3570  -29.3726 H   0  0  0  0  0  0  0  0  0  0  0  0
   -4.3349   22.7120  -29.3726 H   0  0  0  0  0  0  0  0  0  0  0  0
   -5.1747   25.6550  -29.4832 H   0  0  0  0  0  0  0  0  0  0  0  0
   -3.4751   25.0679  -29.3384 H   0  0  0  0  0  0  0  0  0  0  0  0
   -4.3390   25.6270  -31.6040 H   0  0  0  0  0  0  0  0  0  0  0  0
   -6.3702   23.9556  -30.9101 H   0  0  0  0  0  0  0  0  0  0  0  0
   -6.0243   24.6566  -32.5286 H   0  0  0  0  0  0  0  0  0  0  0  0
   -3.1501   23.0544  -32.3487 H   0  0  0  0  0  0  0  0  0  0  0  0
   -1.6853   20.5138  -32.3903 H   0  0  0  0  0  0  0  0  0  0  0  0
   -2.2084   19.7273  -33.9182 H   0  0  0  0  0  0  0  0  0  0  0  0
   -1.7256   21.4575  -33.9182 H   0  0  0  0  0  0  0  0  0  0  0  0
   -6.4015   16.4548  -33.2709 H   0  0  0  0  0  0  0  0  0  0  0  0
   -7.1583   17.0977  -34.7678 H   0  0  0  0  0  0  0  0  0  0  0  0
   -5.4241   16.6295  -34.7678 H   0  0  0  0  0  0  0  0  0  0  0  0
   -8.6420   20.1130  -33.5860 H   0  0  0  0  0  0  0  0  0  0  0  0
   -8.4690   18.4440  -33.5320 H   0  0  0  0  0  0  0  0  0  0  0  0
   -9.2281   18.5212  -31.4946 H   0  0  0  0  0  0  0  0  0  0  0  0
   -7.5672   19.1472  -31.0981 H   0  0  0  0  0  0  0  0  0  0  0  0
  -10.0187   20.4590  -30.6369 H   0  0  0  0  0  0  0  0  0  0  0  0
   -8.3648   21.1653  -30.5459 H   0  0  0  0  0  0  0  0  0  0  0  0
   -9.2089   22.9435  -30.8730 H   0  0  0  0  0  0  0  0  0  0  0  0
   -8.2733   23.2133  -32.3826 H   0  0  0  0  0  0  0  0  0  0  0  0
  -10.0576   23.4206  -32.3826 H   0  0  0  0  0  0  0  0  0  0  0  0
   -7.3640   21.9885  -32.2926 H   0  0  0  0  0  0  0  0  0  0  0  0
  1  2  1  0
  2  3  1  0
  3  4  1  0
  4  5  1  0
  5  6  1  0
  6  7  2  0
  7  8  1  0
  7  9  1  0
  9 10  2  0
 10 11  1  0
 11 12  1  0
 11 13  2  0
 13 14  1  0
 14 15  1  0
 15 16  1  0
 16 17  1  0
 17 18  1  0
 13 19  1  0
 19 20  1  0
 20  5  2  0
 19  9  1  0
  1 21  1  0
  1 22  1  0
  1 23  1  0
  2 24  1  0
  2 25  1  0
  3 26  1  0
  4 27  1  0
  4 28  1  0
  6 29  1  0
  8 30  1  0
  8 31  1  0
  8 32  1  0
 12 33  1  0
 12 34  1  0
 12 35  1  0
 14 36  1  0
 14 37  1  0
 15 38  1  0
 15 39  1  0
 16 40  1  0
 16 41  1  0
 18 42  1  0
 18 43  1  0
 18 44  1  0
 20 45  1  0
M  CHG  1  14   1
M  END
>  <UniqueID>  (28) 
28

>  <SMILES>  (28) 
CCNCc1cc(C)c2nc(C)c([NH2+]CCOC)n2c1

>  <Energy>  (28) 
74.88396869463375

>  <Genealogy>  (28) 
CCNCc1cc(C)c2nc(C)c([NH2+]CCOC)n2c1 (protonated)
CCNCc1cc(C)c2nc(C)c([NH2+]CCOC)n2c1 (3D coordinates assigned)
CCNCc1cc(C)c2nc(C)c([NH2+]CCOC)n2c1 (optimized conformer: 74.88396869463375 kcal/mol)

>  <smiles>  (28) 
CCNCc1cc(C)c2nc(C)c(NCCOC)n2c1

>  <score_type>  (28) 
oracle

>  <origin>  (28) 
adg

>  <m_score__min__energy>  (28) 
-6.9000000000000004

>  <m_primary>  (28) 
energy

$$$$
