1:0
     RDKit          3D

 43 44  0  0  0  0  0  0  0  0999 V2000
   -2.3680   24.9520  -26.9340 C   0  0  0  0  0  0  0  0  0  0  0  0
   -1.6220   25.3940  -28.1680 C   0  0  0  0  0  0  0  0  0  0  0  0
   -2.3850   25.2600  -29.3330 O   0  0  0  0  0  0  0  0  0  0  0  0
   -3.0640   24.1340  -29.7110 C   0  0  0  0  0  0  0  0  0  0  0  0
   -2.4580   23.0090  -29.6500 O   0  0  0  0  0  0  0  0  0  0  0  0
   -4.4410   24.1190  -30.1840 C   0  0  0  0  0  0  0  0  0  0  0  0
   -5.3470   24.9190  -29.6970 C   0  0  0  0  0  0  0  0  0  0  0  0
   -6.7610   25.0020  -30.0860 C   0  0  0  0  0  0  0  0  0  0  0  0
   -7.0530   24.1140  -31.2400 C   0  0  0  0  0  0  0  0  0  0  0  0
   -6.2090   22.9760  -31.4030 N   0  0  0  0  0  0  0  0  0  0  0  0
   -6.7230   21.7510  -30.9000 C   0  0  0  0  0  0  0  0  0  0  0  0
   -8.2200   21.7190  -30.8410 C   0  0  0  0  0  0  0  0  0  0  0  0
   -8.7830   21.0570  -32.1070 C   0  0  0  0  0  0  0  0  0  0  0  0
   -7.8960   19.9340  -32.5030 C   0  0  0  0  0  0  0  0  0  0  0  0
   -8.0560   18.7240  -31.8400 C   0  0  0  0  0  0  0  0  0  0  0  0
   -7.2480   17.6400  -32.1730 C   0  0  0  0  0  0  0  0  0  0  0  0
   -6.2930   17.8140  -33.1770 C   0  0  0  0  0  0  0  0  0  0  0  0
   -6.1350   19.0160  -33.8340 C   0  0  0  0  0  0  0  0  0  0  0  0
   -6.9350   20.0880  -33.5040 C   0  0  0  0  0  0  0  0  0  0  0  0
   -4.8310   23.1730  -31.2480 C   0  0  0  0  0  0  0  0  0  0  0  0
   -1.8193   25.2771  -26.0377 H   0  0  0  0  0  0  0  0  0  0  0  0
   -3.3722   25.4010  -26.9321 H   0  0  0  0  0  0  0  0  0  0  0  0
   -2.4566   23.8556  -26.9321 H   0  0  0  0  0  0  0  0  0  0  0  0
   -1.3407   26.4509  -28.0503 H   0  0  0  0  0  0  0  0  0  0  0  0
   -0.7372   24.7488  -28.2723 H   0  0  0  0  0  0  0  0  0  0  0  0
   -5.0161   25.6089  -28.9067 H   0  0  0  0  0  0  0  0  0  0  0  0
   -7.3862   24.6994  -29.2331 H   0  0  0  0  0  0  0  0  0  0  0  0
   -6.9814   26.0389  -30.3796 H   0  0  0  0  0  0  0  0  0  0  0  0
   -8.0850   23.7501  -31.1276 H   0  0  0  0  0  0  0  0  0  0  0  0
   -6.8784   24.7332  -32.1322 H   0  0  0  0  0  0  0  0  0  0  0  0
   -6.3813   20.9342  -31.5527 H   0  0  0  0  0  0  0  0  0  0  0  0
   -6.3528   21.6394  -29.8702 H   0  0  0  0  0  0  0  0  0  0  0  0
   -8.5373   21.1447  -29.9581 H   0  0  0  0  0  0  0  0  0  0  0  0
   -8.6001   22.7490  -30.7734 H   0  0  0  0  0  0  0  0  0  0  0  0
   -9.7940   20.6740  -31.9040 H   0  0  0  0  0  0  0  0  0  0  0  0
   -8.8323   21.7953  -32.9209 H   0  0  0  0  0  0  0  0  0  0  0  0
   -8.8189   18.6224  -31.0541 H   0  0  0  0  0  0  0  0  0  0  0  0
   -7.3588   16.6735  -31.6596 H   0  0  0  0  0  0  0  0  0  0  0  0
   -5.6475   16.9668  -33.4519 H   0  0  0  0  0  0  0  0  0  0  0  0
   -5.3720   19.1187  -34.6197 H   0  0  0  0  0  0  0  0  0  0  0  0
   -6.8183   21.0515  -34.0218 H   0  0  0  0  0  0  0  0  0  0  0  0
   -4.3727   22.1992  -31.0206 H   0  0  0  0  0  0  0  0  0  0  0  0
   -4.4811   23.6177  -32.1913 H   0  0  0  0  0  0  0  0  0  0  0  0
  1  2  1  0
  2  3  1  0
  3  4  1  0
  4  5  2  0
  4  6  1  0
  6  7  2  0
  7  8  1  0
  8  9  1  0
  9 10  1  0
 10 11  1  0
 11 12  1  0
 12 13  1  0
 13 14  1  0
 14 15  2  0
 15 16  1  0
 16 17  2  0
 17 18  1  0
 18 19  2  0
 10 20  1  0
 20  6  1  0
 19 14  1  0
  1 21  1  0
  1 22  1  0
  1 23  1  0
  2 24  1  0
  2 25  1  0
  7 26  1  0
  8 27  1  0
  8 28  1  0
  9 29  1  0
  9 30  1  0
 11 31  1  0
 11 32  1  0
 12 33  1  0
 12 34  1  0
 13 35  1  0
 13 36  1  0
 15 37  1  0
 16 38  1  0
 17 39  1  0
 18 40  1  0
 19 41  1  0
 20 42  1  0
 20 43  1  0
M  END
>  <smiles>  (1) 
CCOC(=O)C1=CCCN(CCCc2ccccc2)C1

>  <score_type>  (1) 
oracle

>  <origin>  (1) 
adg

>  <m_score__min__energy>  (1) 
-7.8600000000000003

>  <m_primary>  (1) 
energy

$$$$
2:0
     RDKit          3D

 67 70  0  0  0  0  0  0  0  0999 V2000
   -3.7600   24.5290  -29.2890 C   0  0  0  0  0  0  0  0  0  0  0  0
   -3.9190   25.2120  -30.4690 O   0  0  0  0  0  0  0  0  0  0  0  0
   -5.2640   25.2390  -30.8410 C   0  0  0  0  0  0  0  0  0  0  0  0
   -5.7710   24.0130  -31.4920 C   0  0  0  0  0  0  0  0  0  0  0  0
   -5.3740   22.7170  -30.9340 N   0  0  0  0  0  0  0  0  0  0  0  0
   -5.4290   21.5450  -31.7250 C   0  0  0  0  0  0  0  0  0  0  0  0
   -6.7070   20.9840  -31.8480 C   0  0  0  0  0  0  0  0  0  0  0  0
   -7.7690   21.5150  -31.1490 C   0  0  0  0  0  0  0  0  0  0  0  0
   -9.0540   21.0230  -31.1930 C   0  0  0  0  0  0  0  0  0  0  0  0
   -9.2910   19.9280  -31.9860 C   0  0  0  0  0  0  0  0  0  0  0  0
   -8.2290   19.3670  -32.7040 C   0  0  0  0  0  0  0  0  0  0  0  0
   -6.9520   19.8850  -32.6380 C   0  0  0  0  0  0  0  0  0  0  0  0
   -5.9480   19.3150  -33.3220 N   0  0  0  0  0  0  0  0  0  0  0  0
   -6.1260   18.1740  -34.1860 C   0  0  0  0  0  0  0  0  0  0  0  0
   -4.7110   19.8320  -33.2140 C   0  0  0  0  0  0  0  0  0  0  0  0
   -3.7040   19.1930  -33.9030 C   0  0  0  0  0  0  0  0  0  0  0  0
   -2.4170   19.6570  -33.7990 C   0  0  0  0  0  0  0  0  0  0  0  0
   -2.1660   20.7500  -33.0070 C   0  0  0  0  0  0  0  0  0  0  0  0
   -3.1550   21.4260  -32.2920 C   0  0  0  0  0  0  0  0  0  0  0  0
   -2.7350   22.4810  -31.4710 N   0  0  0  0  0  0  0  0  0  0  0  0
   -1.5330   22.3030  -30.6170 C   0  0  0  0  0  0  0  0  0  0  0  0
   -1.8090   21.2550  -29.5650 C   0  0  0  0  0  0  0  0  0  0  0  0
   -1.3350   21.7820  -28.2370 C   0  0  0  0  0  0  0  0  0  0  0  0
   -1.4020   20.7930  -27.1900 N   0  0  0  0  0  0  0  0  0  0  0  0
   -1.2200   21.4780  -25.9230 C   0  0  0  0  0  0  0  0  0  0  0  0
   -0.3150   19.8360  -27.2960 C   0  0  0  0  0  0  0  0  0  0  0  0
   -0.8120   18.4450  -27.6100 C   0  0  0  0  0  0  0  0  0  0  0  0
   -1.6940   17.9630  -26.6510 O   0  0  0  0  0  0  0  0  0  0  0  0
   -2.5780   18.9380  -26.2000 C   0  0  0  0  0  0  0  0  0  0  0  0
   -2.6760   20.1140  -27.1480 C   0  0  0  0  0  0  0  0  0  0  0  0
   -4.4280   20.9500  -32.4160 C   0  0  0  0  0  0  0  0  0  0  0  0
   -3.9197   25.2149  -28.4440 H   0  0  0  0  0  0  0  0  0  0  0  0
   -4.4912   23.7088  -29.2387 H   0  0  0  0  0  0  0  0  0  0  0  0
   -2.7417   24.1160  -29.2387 H   0  0  0  0  0  0  0  0  0  0  0  0
   -5.8624   25.4132  -29.9346 H   0  0  0  0  0  0  0  0  0  0  0  0
   -5.3525   26.0374  -31.5925 H   0  0  0  0  0  0  0  0  0  0  0  0
   -6.8697   24.0583  -31.4617 H   0  0  0  0  0  0  0  0  0  0  0  0
   -5.3168   24.0288  -32.4937 H   0  0  0  0  0  0  0  0  0  0  0  0
   -5.0810   22.6260  -29.9120 H   0  0  0  0  0  0  0  0  0  0  0  0
   -7.5771   22.3915  -30.5126 H   0  0  0  0  0  0  0  0  0  0  0  0
   -9.8628   21.4912  -30.6128 H   0  0  0  0  0  0  0  0  0  0  0  0
  -10.3010   19.4978  -32.0561 H   0  0  0  0  0  0  0  0  0  0  0  0
   -8.4176   18.4886  -33.3387 H   0  0  0  0  0  0  0  0  0  0  0  0
   -6.2670   17.2701  -33.5753 H   0  0  0  0  0  0  0  0  0  0  0  0
   -7.0108   18.3293  -34.8209 H   0  0  0  0  0  0  0  0  0  0  0  0
   -5.2360   18.0524  -34.8209 H   0  0  0  0  0  0  0  0  0  0  0  0
   -3.9296   18.3185  -34.5310 H   0  0  0  0  0  0  0  0  0  0  0  0
   -1.5989   19.1609  -34.3418 H   0  0  0  0  0  0  0  0  0  0  0  0
   -1.1300   21.1120  -32.9322 H   0  0  0  0  0  0  0  0  0  0  0  0
   -3.1380   23.4130  -31.3260 H   0  0  0  0  0  0  0  0  0  0  0  0
   -0.6855   21.9816  -31.2403 H   0  0  0  0  0  0  0  0  0  0  0  0
   -1.2889   23.2570  -30.1268 H   0  0  0  0  0  0  0  0  0  0  0  0
   -2.8886   21.0489  -29.5195 H   0  0  0  0  0  0  0  0  0  0  0  0
   -1.2819   20.3217  -29.8123 H   0  0  0  0  0  0  0  0  0  0  0  0
   -0.2913   22.1132  -28.3420 H   0  0  0  0  0  0  0  0  0  0  0  0
   -1.9985   22.6121  -27.9529 H   0  0  0  0  0  0  0  0  0  0  0  0
   -1.4064   20.7763  -25.0967 H   0  0  0  0  0  0  0  0  0  0  0  0
   -0.1898   21.8578  -25.8562 H   0  0  0  0  0  0  0  0  0  0  0  0
   -1.9259   22.3190  -25.8562 H   0  0  0  0  0  0  0  0  0  0  0  0
    0.3652   20.1591  -28.0978 H   0  0  0  0  0  0  0  0  0  0  0  0
    0.2011   19.8004  -26.3252 H   0  0  0  0  0  0  0  0  0  0  0  0
   -1.3259   18.4658  -28.5824 H   0  0  0  0  0  0  0  0  0  0  0  0
    0.0606   17.7755  -27.6261 H   0  0  0  0  0  0  0  0  0  0  0  0
   -3.5756   18.4873  -26.0926 H   0  0  0  0  0  0  0  0  0  0  0  0
   -2.1988   19.3142  -25.2384 H   0  0  0  0  0  0  0  0  0  0  0  0
   -2.9358   19.7551  -28.1548 H   0  0  0  0  0  0  0  0  0  0  0  0
   -3.4551   20.8079  -26.7993 H   0  0  0  0  0  0  0  0  0  0  0  0
  1  2  1  0
  2  3  1  0
  3  4  1  0
  4  5  1  0
  5  6  1  0
  6  7  2  0
  7  8  1  0
  8  9  2  0
  9 10  1  0
 10 11  2  0
 11 12  1  0
 12 13  2  0
 13 14  1  0
 13 15  1  0
 15 16  2  0
 16 17  1  0
 17 18  2  0
 18 19  1  0
 19 20  1  0
 20 21  1  0
 21 22  1  0
 22 23  1  0
 23 24  1  0
 24 25  1  0
 24 26  1  0
 26 27  1  0
 27 28  1  0
 28 29  1  0
 29 30  1  0
 19 31  2  0
 31  6  1  0
 12  7  1  0
 31 15  1  0
 30 24  1  0
  1 32  1  0
  1 33  1  0
  1 34  1  0
  3 35  1  0
  3 36  1  0
  4 37  1  0
  4 38  1  0
  5 39  1  0
  8 40  1  0
  9 41  1  0
 10 42  1  0
 11 43  1  0
 14 44  1  0
 14 45  1  0
 14 46  1  0
 16 47  1  0
 17 48  1  0
 18 49  1  0
 20 50  1  0
 21 51  1  0
 21 52  1  0
 22 53  1  0
 22 54  1  0
 23 55  1  0
 23 56  1  0
 25 57  1  0
 25 58  1  0
 25 59  1  0
 26 60  1  0
 26 61  1  0
 27 62  1  0
 27 63  1  0
 29 64  1  0
 29 65  1  0
 30 66  1  0
 30 67  1  0
M  CHG  2  13   1  24   1
M  END
>  <smiles>  (2) 
COCCNc1c2ccccc2[n+](C)c2cccc(NCCC[N+]3(C)CCOCC3)c12

>  <score_type>  (2) 
oracle

>  <origin>  (2) 
adg

>  <m_score__min__energy>  (2) 
-8.7300000000000004

>  <m_primary>  (2) 
energy

$$$$
3:0
     RDKit          3D

 25 24  0  0  0  0  0  0  0  0999 V2000
   -6.4830   25.2390  -29.7360 C   0  0  0  0  0  0  0  0  0  0  0  0
   -5.4030   25.6840  -30.7340 C   0  0  0  0  0  0  0  0  0  0  0  0
   -4.4160   24.6620  -30.8180 N   0  0  0  0  0  0  0  0  0  0  0  0
   -4.9460   23.4270  -31.3300 C   0  0  0  0  0  0  0  0  0  0  0  0
   -3.8230   22.4680  -31.5950 C   0  0  0  0  0  0  0  0  0  0  0  0
   -2.6610   22.9540  -31.0310 O   0  0  0  0  0  0  0  0  0  0  0  0
   -2.0510   22.1660  -30.0920 C   0  0  0  0  0  0  0  0  0  0  0  0
   -2.0660   22.9530  -28.7670 C   0  0  0  0  0  0  0  0  0  0  0  0
   -1.4720   24.2470  -29.0250 N   0  0  0  0  0  0  0  0  0  0  0  0
   -0.2260   24.4500  -28.9620 O   0  0  0  0  0  0  0  0  0  0  0  0
   -2.3590   25.2740  -29.3480 O   0  0  0  0  0  0  0  0  0  0  0  0
   -6.1179   25.3894  -28.7093 H   0  0  0  0  0  0  0  0  0  0  0  0
   -7.3944   25.8349  -29.8921 H   0  0  0  0  0  0  0  0  0  0  0  0
   -6.7100   24.1741  -29.8921 H   0  0  0  0  0  0  0  0  0  0  0  0
   -5.8559   25.8445  -31.7235 H   0  0  0  0  0  0  0  0  0  0  0  0
   -4.9433   26.6247  -30.3967 H   0  0  0  0  0  0  0  0  0  0  0  0
   -3.5110   24.9270  -31.2060 H   0  0  0  0  0  0  0  0  0  0  0  0
   -5.6339   22.9898  -30.5913 H   0  0  0  0  0  0  0  0  0  0  0  0
   -5.4875   23.6229  -32.2672 H   0  0  0  0  0  0  0  0  0  0  0  0
   -4.0640   21.4899  -31.1531 H   0  0  0  0  0  0  0  0  0  0  0  0
   -3.6849   22.3556  -32.6805 H   0  0  0  0  0  0  0  0  0  0  0  0
   -2.6015   21.2207  -29.9765 H   0  0  0  0  0  0  0  0  0  0  0  0
   -1.0214   21.9217  -30.3925 H   0  0  0  0  0  0  0  0  0  0  0  0
   -3.1009   23.0778  -28.4156 H   0  0  0  0  0  0  0  0  0  0  0  0
   -1.5030   22.4154  -27.9898 H   0  0  0  0  0  0  0  0  0  0  0  0
  1  2  1  0
  2  3  1  0
  3  4  1  0
  4  5  1  0
  5  6  1  0
  6  7  1  0
  7  8  1  0
  8  9  1  0
  9 10  2  0
  9 11  1  0
  1 12  1  0
  1 13  1  0
  1 14  1  0
  2 15  1  0
  2 16  1  0
  3 17  1  0
  4 18  1  0
  4 19  1  0
  5 20  1  0
  5 21  1  0
  7 22  1  0
  7 23  1  0
  8 24  1  0
  8 25  1  0
M  CHG  2   9   1  11  -1
M  END
>  <smiles>  (3) 
CCNCCOCC[N+](=O)[O-]

>  <score_type>  (3) 
oracle

>  <origin>  (3) 
adg

>  <m_score__min__energy>  (3) 
-4.3600000000000003

>  <m_primary>  (3) 
energy

$$$$
4:0
     RDKit          3D

 78 81  0  0  0  0  0  0  0  0999 V2000
   -6.1190   17.4130  -31.1960 C   0  0  0  0  0  0  0  0  0  0  0  0
   -6.7860   17.8260  -32.4450 C   0  0  0  0  0  0  0  0  0  0  0  0
   -6.6220   19.2670  -32.7930 N   0  0  0  0  0  0  0  0  0  0  0  0
   -5.6690   19.3010  -33.8720 C   0  0  0  0  0  0  0  0  0  0  0  0
   -5.6990   18.1520  -34.8170 C   0  0  0  0  0  0  0  0  0  0  0  0
   -7.9370   19.7730  -33.0970 C   0  0  0  0  0  0  0  0  0  0  0  0
   -8.9150   19.6220  -31.9700 C   0  0  0  0  0  0  0  0  0  0  0  0
   -8.5250   20.5010  -30.9310 O   0  0  0  0  0  0  0  0  0  0  0  0
   -9.3780   21.5960  -30.8080 C   0  0  0  0  0  0  0  0  0  0  0  0
   -9.1750   22.5900  -31.9240 C   0  0  0  0  0  0  0  0  0  0  0  0
   -7.8720   22.6880  -32.3820 O   0  0  0  0  0  0  0  0  0  0  0  0
   -6.7380   23.0400  -31.7320 C   0  0  0  0  0  0  0  0  0  0  0  0
   -6.5270   24.1440  -30.9500 C   0  0  0  0  0  0  0  0  0  0  0  0
   -5.3060   24.4000  -30.3170 C   0  0  0  0  0  0  0  0  0  0  0  0
   -4.2570   23.5230  -30.4710 C   0  0  0  0  0  0  0  0  0  0  0  0
   -4.4360   22.4190  -31.2430 C   0  0  0  0  0  0  0  0  0  0  0  0
   -5.6430   22.1700  -31.8660 C   0  0  0  0  0  0  0  0  0  0  0  0
   -3.3550   21.4360  -31.4590 C   0  0  0  0  0  0  0  0  0  0  0  0
   -2.0870   21.6780  -30.7660 C   0  0  0  0  0  0  0  0  0  0  0  0
   -1.9610   22.8940  -29.9690 C   0  0  0  0  0  0  0  0  0  0  0  0
   -0.7470   23.1550  -29.3520 C   0  0  0  0  0  0  0  0  0  0  0  0
   -0.4970   24.2540  -28.5810 C   0  0  0  0  0  0  0  0  0  0  0  0
    0.6560   24.5780  -27.9540 O   0  0  0  0  0  0  0  0  0  0  0  0
    0.9070   25.2270  -26.7570 C   0  0  0  0  0  0  0  0  0  0  0  0
   -0.0500   25.0160  -25.6610 C   0  0  0  0  0  0  0  0  0  0  0  0
   -0.9080   26.0940  -25.2760 N   0  0  0  0  0  0  0  0  0  0  0  0
   -2.3290   25.6690  -25.4880 C   0  0  0  0  0  0  0  0  0  0  0  0
   -0.7790   27.3360  -25.9290 C   0  0  0  0  0  0  0  0  0  0  0  0
   -0.2290   28.4740  -25.1180 C   0  0  0  0  0  0  0  0  0  0  0  0
    0.7200   28.1190  -24.1850 O   0  0  0  0  0  0  0  0  0  0  0  0
    0.2960   27.1040  -23.3450 C   0  0  0  0  0  0  0  0  0  0  0  0
   -0.8240   26.2700  -23.8470 C   0  0  0  0  0  0  0  0  0  0  0  0
   -1.5680   25.1520  -28.4300 C   0  0  0  0  0  0  0  0  0  0  0  0
   -2.7910   24.9050  -29.0420 C   0  0  0  0  0  0  0  0  0  0  0  0
   -2.9850   23.7780  -29.8100 C   0  0  0  0  0  0  0  0  0  0  0  0
   -6.6999   17.7727  -30.3339 H   0  0  0  0  0  0  0  0  0  0  0  0
   -6.0527   16.3155  -31.1613 H   0  0  0  0  0  0  0  0  0  0  0  0
   -5.1070   17.8428  -31.1613 H   0  0  0  0  0  0  0  0  0  0  0  0
   -6.3726   17.2255  -33.2687 H   0  0  0  0  0  0  0  0  0  0  0  0
   -7.8630   17.6649  -32.2896 H   0  0  0  0  0  0  0  0  0  0  0  0
   -5.8533   20.2169  -34.4527 H   0  0  0  0  0  0  0  0  0  0  0  0
   -4.6808   19.2581  -33.3908 H   0  0  0  0  0  0  0  0  0  0  0  0
   -5.7236   17.2105  -34.2488 H   0  0  0  0  0  0  0  0  0  0  0  0
   -6.5956   18.2215  -35.4504 H   0  0  0  0  0  0  0  0  0  0  0  0
   -4.8000   18.1746  -35.4504 H   0  0  0  0  0  0  0  0  0  0  0  0
   -7.8502   20.8421  -33.3409 H   0  0  0  0  0  0  0  0  0  0  0  0
   -8.3230   19.1810  -33.9399 H   0  0  0  0  0  0  0  0  0  0  0  0
   -9.9266   19.8796  -32.3167 H   0  0  0  0  0  0  0  0  0  0  0  0
   -8.9236   18.5832  -31.6083 H   0  0  0  0  0  0  0  0  0  0  0  0
  -10.4190   21.2413  -30.8317 H   0  0  0  0  0  0  0  0  0  0  0  0
   -9.1543   22.0994  -29.8558 H   0  0  0  0  0  0  0  0  0  0  0  0
   -9.8135   22.2919  -32.7686 H   0  0  0  0  0  0  0  0  0  0  0  0
   -9.4344   23.5765  -31.5122 H   0  0  0  0  0  0  0  0  0  0  0  0
   -7.3516   24.8592  -30.8139 H   0  0  0  0  0  0  0  0  0  0  0  0
   -5.1848   25.3007  -29.6973 H   0  0  0  0  0  0  0  0  0  0  0  0
   -5.7500   21.2662  -32.4838 H   0  0  0  0  0  0  0  0  0  0  0  0
   -3.7292   20.4544  -31.1329 H   0  0  0  0  0  0  0  0  0  0  0  0
   -3.1134   21.5081  -32.5297 H   0  0  0  0  0  0  0  0  0  0  0  0
   -1.9155   20.8261  -30.0916 H   0  0  0  0  0  0  0  0  0  0  0  0
   -1.3523   21.8034  -31.5750 H   0  0  0  0  0  0  0  0  0  0  0  0
    0.0678   22.4295  -29.4928 H   0  0  0  0  0  0  0  0  0  0  0  0
    1.8939   24.8953  -26.4021 H   0  0  0  0  0  0  0  0  0  0  0  0
    0.8308   26.2981  -26.9956 H   0  0  0  0  0  0  0  0  0  0  0  0
   -0.6977   24.1769  -25.9549 H   0  0  0  0  0  0  0  0  0  0  0  0
    0.5878   24.8568  -24.7790 H   0  0  0  0  0  0  0  0  0  0  0  0
   -2.8173   25.5229  -24.5132 H   0  0  0  0  0  0  0  0  0  0  0  0
   -2.8638   26.4465  -26.0532 H   0  0  0  0  0  0  0  0  0  0  0  0
   -2.3491   24.7255  -26.0532 H   0  0  0  0  0  0  0  0  0  0  0  0
   -0.1131   27.1904  -26.7923 H   0  0  0  0  0  0  0  0  0  0  0  0
   -1.8064   27.6349  -26.1842 H   0  0  0  0  0  0  0  0  0  0  0  0
    0.2269   29.1972  -25.8102 H   0  0  0  0  0  0  0  0  0  0  0  0
   -1.0774   28.8861  -24.5519 H   0  0  0  0  0  0  0  0  0  0  0  0
    1.1533   26.4401  -23.1597 H   0  0  0  0  0  0  0  0  0  0  0  0
   -0.0878   27.6052  -22.4442 H   0  0  0  0  0  0  0  0  0  0  0  0
   -0.7270   25.2727  -23.3931 H   0  0  0  0  0  0  0  0  0  0  0  0
   -1.7384   26.8138  -23.5675 H   0  0  0  0  0  0  0  0  0  0  0  0
   -1.4367   26.0589  -27.8215 H   0  0  0  0  0  0  0  0  0  0  0  0
   -3.6165   25.6202  -28.9112 H   0  0  0  0  0  0  0  0  0  0  0  0
  1  2  1  0
  2  3  1  0
  3  4  1  0
  4  5  1  0
  3  6  1  0
  6  7  1  0
  7  8  1  0
  8  9  1  0
  9 10  1  0
 10 11  1  0
 11 12  1  0
 12 13  2  0
 13 14  1  0
 14 15  2  0
 15 16  1  0
 16 17  2  0
 16 18  1  0
 18 19  1  0
 19 20  1  0
 20 21  2  0
 21 22  1  0
 22 23  1  0
 23 24  1  0
 24 25  1  0
 25 26  1  0
 26 27  1  0
 26 28  1  0
 28 29  1  0
 29 30  1  0
 30 31  1  0
 31 32  1  0
 22 33  2  0
 33 34  1  0
 34 35  2  0
 17 12  1  0
 35 20  1  0
 35 15  1  0
 32 26  1  0
  1 36  1  0
  1 37  1  0
  1 38  1  0
  2 39  1  0
  2 40  1  0
  4 41  1  0
  4 42  1  0
  5 43  1  0
  5 44  1  0
  5 45  1  0
  6 46  1  0
  6 47  1  0
  7 48  1  0
  7 49  1  0
  9 50  1  0
  9 51  1  0
 10 52  1  0
 10 53  1  0
 13 54  1  0
 14 55  1  0
 17 56  1  0
 18 57  1  0
 18 58  1  0
 19 59  1  0
 19 60  1  0
 21 61  1  0
 24 62  1  0
 24 63  1  0
 25 64  1  0
 25 65  1  0
 27 66  1  0
 27 67  1  0
 27 68  1  0
 28 69  1  0
 28 70  1  0
 29 71  1  0
 29 72  1  0
 31 73  1  0
 31 74  1  0
 32 75  1  0
 32 76  1  0
 33 77  1  0
 34 78  1  0
M  CHG  1  26   1
M  END
>  <smiles>  (4) 
CCN(CC)CCOCCOc1ccc2c(c1)CCc1cc(OCC[N+]3(C)CCOCC3)ccc1-2

>  <score_type>  (4) 
oracle

>  <origin>  (4) 
adg

>  <m_score__min__energy>  (4) 
-9.1400000000000006

>  <m_primary>  (4) 
energy

$$$$
5:0
     RDKit          3D

 50 52  0  0  0  0  0  0  0  0999 V2000
   -3.3910   16.6390  -35.2430 C   0  0  0  0  0  0  0  0  0  0  0  0
   -4.5210   17.2700  -34.5180 C   0  0  0  0  0  0  0  0  0  0  0  0
   -5.5800   16.4500  -34.1430 C   0  0  0  0  0  0  0  0  0  0  0  0
   -6.6490   16.9960  -33.4680 C   0  0  0  0  0  0  0  0  0  0  0  0
   -6.7320   18.3360  -33.1330 C   0  0  0  0  0  0  0  0  0  0  0  0
   -7.8610   18.9210  -32.4250 C   0  0  0  0  0  0  0  0  0  0  0  0
   -8.0740   18.5560  -31.2340 O   0  0  0  0  0  0  0  0  0  0  0  0
   -8.7310   19.8790  -32.9990 N   0  0  0  0  0  0  0  0  0  0  0  0
   -9.8480   20.4900  -32.3390 C   0  0  0  0  0  0  0  0  0  0  0  0
   -9.4720   21.8870  -31.8390 C   0  0  0  0  0  0  0  0  0  0  0  0
   -8.0530   21.8550  -31.3700 C   0  0  0  0  0  0  0  0  0  0  0  0
   -7.4570   23.1350  -31.3870 N   0  0  0  0  0  0  0  0  0  0  0  0
   -6.8820   23.5280  -30.1150 C   0  0  0  0  0  0  0  0  0  0  0  0
   -5.5450   22.9650  -29.8150 C   0  0  0  0  0  0  0  0  0  0  0  0
   -4.8100   22.5010  -31.0150 C   0  0  0  0  0  0  0  0  0  0  0  0
   -5.3120   22.7090  -32.2950 C   0  0  0  0  0  0  0  0  0  0  0  0
   -4.3920   22.1640  -33.1080 N   0  0  0  0  0  0  0  0  0  0  0  0
   -3.3770   21.6470  -32.3980 N   0  0  0  0  0  0  0  0  0  0  0  0
   -2.1900   20.9760  -32.8890 C   0  0  0  0  0  0  0  0  0  0  0  0
   -3.6020   21.8380  -31.0810 C   0  0  0  0  0  0  0  0  0  0  0  0
   -2.7510   21.4400  -29.9220 C   0  0  0  0  0  0  0  0  0  0  0  0
   -6.6150   23.4210  -32.4900 C   0  0  0  0  0  0  0  0  0  0  0  0
   -5.6620   19.1240  -33.5210 C   0  0  0  0  0  0  0  0  0  0  0  0
   -4.5680   18.6130  -34.2020 C   0  0  0  0  0  0  0  0  0  0  0  0
   -2.6692   16.2359  -34.5174 H   0  0  0  0  0  0  0  0  0  0  0  0
   -3.7708   15.8224  -35.8746 H   0  0  0  0  0  0  0  0  0  0  0  0
   -2.8951   17.3908  -35.8746 H   0  0  0  0  0  0  0  0  0  0  0  0
   -5.5638   15.3766  -34.3831 H   0  0  0  0  0  0  0  0  0  0  0  0
   -7.4787   16.3335  -33.1806 H   0  0  0  0  0  0  0  0  0  0  0  0
   -8.5510   20.1760  -33.9970 H   0  0  0  0  0  0  0  0  0  0  0  0
  -10.6868   20.5714  -33.0460 H   0  0  0  0  0  0  0  0  0  0  0  0
  -10.1383   19.8688  -31.4789 H   0  0  0  0  0  0  0  0  0  0  0  0
   -9.5764   22.6148  -32.6572 H   0  0  0  0  0  0  0  0  0  0  0  0
  -10.1359   22.1841  -31.0138 H   0  0  0  0  0  0  0  0  0  0  0  0
   -8.0285   21.4664  -30.3412 H   0  0  0  0  0  0  0  0  0  0  0  0
   -7.4851   21.2087  -32.0555 H   0  0  0  0  0  0  0  0  0  0  0  0
   -6.7969   24.6247  -30.1066 H   0  0  0  0  0  0  0  0  0  0  0  0
   -7.5566   23.1280  -29.3437 H   0  0  0  0  0  0  0  0  0  0  0  0
   -4.9446   23.7419  -29.3191 H   0  0  0  0  0  0  0  0  0  0  0  0
   -5.7037   22.0843  -29.1753 H   0  0  0  0  0  0  0  0  0  0  0  0
   -1.5838   20.6333  -32.0375 H   0  0  0  0  0  0  0  0  0  0  0  0
   -2.4846   20.1108  -33.5011 H   0  0  0  0  0  0  0  0  0  0  0  0
   -1.6006   21.6746  -33.5011 H   0  0  0  0  0  0  0  0  0  0  0  0
   -3.2716   21.6835  -28.9841 H   0  0  0  0  0  0  0  0  0  0  0  0
   -2.5575   20.3580  -29.9637 H   0  0  0  0  0  0  0  0  0  0  0  0
   -1.7965   21.9851  -29.9637 H   0  0  0  0  0  0  0  0  0  0  0  0
   -6.4392   24.5052  -32.5505 H   0  0  0  0  0  0  0  0  0  0  0  0
   -7.0909   23.0841  -33.4228 H   0  0  0  0  0  0  0  0  0  0  0  0
   -5.6806   20.1970  -33.2796 H   0  0  0  0  0  0  0  0  0  0  0  0
   -3.7391   19.2763  -34.4900 H   0  0  0  0  0  0  0  0  0  0  0  0
  1  2  1  0
  2  3  2  0
  3  4  1  0
  4  5  2  0
  5  6  1  0
  6  7  2  0
  6  8  1  0
  8  9  1  0
  9 10  1  0
 10 11  1  0
 11 12  1  0
 12 13  1  0
 13 14  1  0
 14 15  1  0
 15 16  1  0
 16 17  2  0
 17 18  1  0
 18 19  1  0
 18 20  1  0
 20 21  1  0
 16 22  1  0
  5 23  1  0
 23 24  2  0
 24  2  1  0
 22 12  1  0
 20 15  2  0
  1 25  1  0
  1 26  1  0
  1 27  1  0
  3 28  1  0
  4 29  1  0
  8 30  1  0
  9 31  1  0
  9 32  1  0
 10 33  1  0
 10 34  1  0
 11 35  1  0
 11 36  1  0
 13 37  1  0
 13 38  1  0
 14 39  1  0
 14 40  1  0
 19 41  1  0
 19 42  1  0
 19 43  1  0
 21 44  1  0
 21 45  1  0
 21 46  1  0
 22 47  1  0
 22 48  1  0
 23 49  1  0
 24 50  1  0
M  END
>  <smiles>  (5) 
Cc1ccc(C(=O)NCCCN2CCc3c(nn(C)c3C)C2)cc1

>  <score_type>  (5) 
oracle

>  <origin>  (5) 
adg

>  <m_score__min__energy>  (5) 
-8.6500000000000004

>  <m_primary>  (5) 
energy

$$$$
6:0
     RDKit          3D

 63 65  0  0  0  0  0  0  0  0999 V2000
   -0.8250   20.5670  -29.8960 C   0  0  0  0  0  0  0  0  0  0  0  0
   -1.9310   20.5670  -28.8670 C   0  0  0  0  0  0  0  0  0  0  0  0
   -1.3950   21.3440  -27.7050 N   0  0  0  0  0  0  0  0  0  0  0  0
   -1.3520   20.4400  -26.5870 C   0  0  0  0  0  0  0  0  0  0  0  0
   -2.3690   19.3670  -26.6930 C   0  0  0  0  0  0  0  0  0  0  0  0
   -0.1810   21.9680  -28.0940 C   0  0  0  0  0  0  0  0  0  0  0  0
    0.1420   23.3410  -27.7100 C   0  0  0  0  0  0  0  0  0  0  0  0
    0.0140   24.1790  -28.8140 O   0  0  0  0  0  0  0  0  0  0  0  0
   -1.2320   24.7080  -28.9770 C   0  0  0  0  0  0  0  0  0  0  0  0
   -2.2610   23.8340  -29.6080 C   0  0  0  0  0  0  0  0  0  0  0  0
   -3.6410   24.4720  -29.5610 C   0  0  0  0  0  0  0  0  0  0  0  0
   -3.9720   25.1460  -30.7730 N   0  0  0  0  0  0  0  0  0  0  0  0
   -5.3650   25.2920  -31.0530 C   0  0  0  0  0  0  0  0  0  0  0  0
   -6.0640   23.9830  -31.1080 C   0  0  0  0  0  0  0  0  0  0  0  0
   -5.8590   23.2350  -32.3210 N   0  0  0  0  0  0  0  0  0  0  0  0
   -5.8740   21.8280  -32.4160 C   0  0  0  0  0  0  0  0  0  0  0  0
   -4.6200   21.2340  -32.6590 C   0  0  0  0  0  0  0  0  0  0  0  0
   -3.4820   22.0010  -32.7850 C   0  0  0  0  0  0  0  0  0  0  0  0
   -2.2350   21.4240  -33.0260 C   0  0  0  0  0  0  0  0  0  0  0  0
   -2.1550   20.0450  -33.1370 C   0  0  0  0  0  0  0  0  0  0  0  0
   -3.2710   19.2500  -33.0160 C   0  0  0  0  0  0  0  0  0  0  0  0
   -4.4770   19.8700  -32.7790 C   0  0  0  0  0  0  0  0  0  0  0  0
   -5.5680   19.0790  -32.6620 N   0  0  0  0  0  0  0  0  0  0  0  0
   -6.7950   19.6150  -32.4290 C   0  0  0  0  0  0  0  0  0  0  0  0
   -7.8710   18.7580  -32.3370 C   0  0  0  0  0  0  0  0  0  0  0  0
   -9.1270   19.2750  -32.1220 C   0  0  0  0  0  0  0  0  0  0  0  0
   -9.2660   20.6620  -32.0040 C   0  0  0  0  0  0  0  0  0  0  0  0
   -8.1770   21.4820  -32.1000 C   0  0  0  0  0  0  0  0  0  0  0  0
   -6.9250   20.9830  -32.3120 C   0  0  0  0  0  0  0  0  0  0  0  0
   -0.5566   19.5299  -30.1458 H   0  0  0  0  0  0  0  0  0  0  0  0
   -1.1683   21.0855  -30.8033 H   0  0  0  0  0  0  0  0  0  0  0  0
    0.0552   21.0855  -29.4882 H   0  0  0  0  0  0  0  0  0  0  0  0
   -2.8321   21.0516  -29.2709 H   0  0  0  0  0  0  0  0  0  0  0  0
   -2.2194   19.5458  -28.5773 H   0  0  0  0  0  0  0  0  0  0  0  0
   -0.3543   19.9789  -26.5429 H   0  0  0  0  0  0  0  0  0  0  0  0
   -1.5669   21.0192  -25.6769 H   0  0  0  0  0  0  0  0  0  0  0  0
   -2.6716   19.0477  -25.6848 H   0  0  0  0  0  0  0  0  0  0  0  0
   -3.2469   19.7463  -27.2364 H   0  0  0  0  0  0  0  0  0  0  0  0
   -1.9432   18.5106  -27.2364 H   0  0  0  0  0  0  0  0  0  0  0  0
    0.6295   21.3387  -27.6976 H   0  0  0  0  0  0  0  0  0  0  0  0
   -0.3053   22.0561  -29.1834 H   0  0  0  0  0  0  0  0  0  0  0  0
   -0.5469   23.6711  -26.9185 H   0  0  0  0  0  0  0  0  0  0  0  0
    1.1769   23.3819  -27.3394 H   0  0  0  0  0  0  0  0  0  0  0  0
   -1.6041   24.9934  -27.9820 H   0  0  0  0  0  0  0  0  0  0  0  0
   -1.0977   25.5439  -29.6793 H   0  0  0  0  0  0  0  0  0  0  0  0
   -1.9846   23.6576  -30.6580 H   0  0  0  0  0  0  0  0  0  0  0  0
   -2.2996   22.8878  -29.0483 H   0  0  0  0  0  0  0  0  0  0  0  0
   -4.3877   23.6848  -29.3798 H   0  0  0  0  0  0  0  0  0  0  0  0
   -3.6368   25.2188  -28.7534 H   0  0  0  0  0  0  0  0  0  0  0  0
   -3.4890   26.0660  -30.8410 H   0  0  0  0  0  0  0  0  0  0  0  0
   -5.8231   25.9058  -30.2634 H   0  0  0  0  0  0  0  0  0  0  0  0
   -5.4640   25.7705  -32.0385 H   0  0  0  0  0  0  0  0  0  0  0  0
   -5.7095   23.3710  -30.2655 H   0  0  0  0  0  0  0  0  0  0  0  0
   -7.1401   24.2066  -31.0625 H   0  0  0  0  0  0  0  0  0  0  0  0
   -5.6850   23.7690  -33.2110 H   0  0  0  0  0  0  0  0  0  0  0  0
   -3.5588   23.0945  -32.6933 H   0  0  0  0  0  0  0  0  0  0  0  0
   -1.3356   22.0494  -33.1257 H   0  0  0  0  0  0  0  0  0  0  0  0
   -1.1781   19.5761  -33.3259 H   0  0  0  0  0  0  0  0  0  0  0  0
   -3.2021   18.1558  -33.1056 H   0  0  0  0  0  0  0  0  0  0  0  0
   -7.7263   17.6719  -32.4346 H   0  0  0  0  0  0  0  0  0  0  0  0
  -10.0022   18.6132  -32.0446 H   0  0  0  0  0  0  0  0  0  0  0  0
  -10.2617   21.0969  -31.8323 H   0  0  0  0  0  0  0  0  0  0  0  0
   -8.3130   22.5693  -32.0041 H   0  0  0  0  0  0  0  0  0  0  0  0
  1  2  1  0
  2  3  1  0
  3  4  1  0
  4  5  1  0
  3  6  1  0
  6  7  1  0
  7  8  1  0
  8  9  1  0
  9 10  1  0
 10 11  1  0
 11 12  1  0
 12 13  1  0
 13 14  1  0
 14 15  1  0
 15 16  1  0
 16 17  2  0
 17 18  1  0
 18 19  2  0
 19 20  1  0
 20 21  2  0
 21 22  1  0
 22 23  2  0
 23 24  1  0
 24 25  2  0
 25 26  1  0
 26 27  2  0
 27 28  1  0
 28 29  2  0
 29 16  1  0
 22 17  1  0
 29 24  1  0
  1 30  1  0
  1 31  1  0
  1 32  1  0
  2 33  1  0
  2 34  1  0
  4 35  1  0
  4 36  1  0
  5 37  1  0
  5 38  1  0
  5 39  1  0
  6 40  1  0
  6 41  1  0
  7 42  1  0
  7 43  1  0
  9 44  1  0
  9 45  1  0
 10 46  1  0
 10 47  1  0
 11 48  1  0
 11 49  1  0
 12 50  1  0
 13 51  1  0
 13 52  1  0
 14 53  1  0
 14 54  1  0
 15 55  1  0
 18 56  1  0
 19 57  1  0
 20 58  1  0
 21 59  1  0
 25 60  1  0
 26 61  1  0
 27 62  1  0
 28 63  1  0
M  END
>  <smiles>  (6) 
CCN(CC)CCOCCCNCCNc1c2ccccc2nc2ccccc12

>  <score_type>  (6) 
oracle

>  <origin>  (6) 
adg

>  <m_score__min__energy>  (6) 
-9.6999999999999993

>  <m_primary>  (6) 
energy

$$$$
7:0
     RDKit          3D

 34 34  0  0  0  0  0  0  0  0999 V2000
   -3.8070   24.1820  -27.6010 C   0  0  0  0  0  0  0  0  0  0  0  0
   -2.6400   24.6610  -28.4380 C   0  0  0  0  0  0  0  0  0  0  0  0
   -3.0820   24.7630  -29.7390 O   0  0  0  0  0  0  0  0  0  0  0  0
   -3.7100   23.6610  -30.2410 C   0  0  0  0  0  0  0  0  0  0  0  0
   -4.8180   23.9410  -31.1700 C   0  0  0  0  0  0  0  0  0  0  0  0
   -5.1840   25.1770  -31.2180 O   0  0  0  0  0  0  0  0  0  0  0  0
   -5.4760   22.9770  -31.9780 N   0  0  0  0  0  0  0  0  0  0  0  0
   -4.7840   21.7530  -32.3260 C   0  0  0  0  0  0  0  0  0  0  0  0
   -5.6300   20.5270  -32.3140 C   0  0  0  0  0  0  0  0  0  0  0  0
   -6.9710   20.8220  -32.8950 C   0  0  0  0  0  0  0  0  0  0  0  0
   -7.8300   21.2220  -31.8000 N   0  0  0  0  0  0  0  0  0  0  0  0
   -9.1800   20.7110  -31.9740 C   0  0  0  0  0  0  0  0  0  0  0  0
   -7.9160   22.6570  -31.6730 C   0  0  0  0  0  0  0  0  0  0  0  0
   -6.8240   23.3960  -32.3530 C   0  0  0  0  0  0  0  0  0  0  0  0
   -3.5592   24.2837  -26.5341 H   0  0  0  0  0  0  0  0  0  0  0  0
   -4.6959   24.7880  -27.8304 H   0  0  0  0  0  0  0  0  0  0  0  0
   -4.0138   23.1262  -27.8304 H   0  0  0  0  0  0  0  0  0  0  0  0
   -2.2974   25.6427  -28.0790 H   0  0  0  0  0  0  0  0  0  0  0  0
   -1.7966   23.9583  -28.3677 H   0  0  0  0  0  0  0  0  0  0  0  0
   -2.9621   23.0566  -30.7752 H   0  0  0  0  0  0  0  0  0  0  0  0
   -4.1569   23.1443  -29.3788 H   0  0  0  0  0  0  0  0  0  0  0  0
   -4.3689   21.8714  -33.3378 H   0  0  0  0  0  0  0  0  0  0  0  0
   -4.0152   21.6039  -31.5535 H   0  0  0  0  0  0  0  0  0  0  0  0
   -5.1407   19.7419  -32.9092 H   0  0  0  0  0  0  0  0  0  0  0  0
   -5.7553   20.1872  -31.2753 H   0  0  0  0  0  0  0  0  0  0  0  0
   -6.8929   21.6363  -33.6304 H   0  0  0  0  0  0  0  0  0  0  0  0
   -7.3778   19.9391  -33.4098 H   0  0  0  0  0  0  0  0  0  0  0  0
   -9.6365   20.5382  -30.9882 H   0  0  0  0  0  0  0  0  0  0  0  0
   -9.7804   21.4441  -32.5327 H   0  0  0  0  0  0  0  0  0  0  0  0
   -9.1445   19.7641  -32.5327 H   0  0  0  0  0  0  0  0  0  0  0  0
   -8.8738   22.9843  -32.1036 H   0  0  0  0  0  0  0  0  0  0  0  0
   -7.8301   22.8843  -30.6002 H   0  0  0  0  0  0  0  0  0  0  0  0
   -6.9376   23.2531  -33.4377 H   0  0  0  0  0  0  0  0  0  0  0  0
   -6.9200   24.4467  -32.0418 H   0  0  0  0  0  0  0  0  0  0  0  0
  1  2  1  0
  2  3  1  0
  3  4  1  0
  4  5  1  0
  5  6  2  0
  5  7  1  0
  7  8  1  0
  8  9  1  0
  9 10  1  0
 10 11  1  0
 11 12  1  0
 11 13  1  0
 13 14  1  0
 14  7  1  0
  1 15  1  0
  1 16  1  0
  1 17  1  0
  2 18  1  0
  2 19  1  0
  4 20  1  0
  4 21  1  0
  8 22  1  0
  8 23  1  0
  9 24  1  0
  9 25  1  0
 10 26  1  0
 10 27  1  0
 12 28  1  0
 12 29  1  0
 12 30  1  0
 13 31  1  0
 13 32  1  0
 14 33  1  0
 14 34  1  0
M  END
>  <smiles>  (7) 
CCOCC(=O)N1CCCN(C)CC1

>  <score_type>  (7) 
oracle

>  <origin>  (7) 
adg

>  <m_score__min__energy>  (7) 
-3.9500000000000002

>  <m_primary>  (7) 
energy

$$$$
8:0
     RDKit          3D

 60 63  0  0  0  0  0  0  0  0999 V2000
   -0.4060   20.9230  -31.9680 C   0  0  0  0  0  0  0  0  0  0  0  0
   -1.0510   21.5160  -33.1510 N   0  0  0  0  0  0  0  0  0  0  0  0
   -0.1240   21.2080  -34.2530 C   0  0  0  0  0  0  0  0  0  0  0  0
   -2.2450   20.7210  -33.4350 C   0  0  0  0  0  0  0  0  0  0  0  0
   -3.3500   21.0100  -32.4660 C   0  0  0  0  0  0  0  0  0  0  0  0
   -4.5630   21.3320  -33.2390 N   0  0  0  0  0  0  0  0  0  0  0  0
   -5.7320   20.6370  -32.8690 C   0  0  0  0  0  0  0  0  0  0  0  0
   -5.7980   19.3180  -33.3500 C   0  0  0  0  0  0  0  0  0  0  0  0
   -4.7810   18.8250  -34.1420 C   0  0  0  0  0  0  0  0  0  0  0  0
   -4.7550   17.5520  -34.6640 C   0  0  0  0  0  0  0  0  0  0  0  0
   -5.8110   16.7280  -34.3730 C   0  0  0  0  0  0  0  0  0  0  0  0
   -6.8550   17.2040  -33.5710 C   0  0  0  0  0  0  0  0  0  0  0  0
   -6.8520   18.4860  -33.0630 C   0  0  0  0  0  0  0  0  0  0  0  0
   -7.8560   18.9430  -32.2970 N   0  0  0  0  0  0  0  0  0  0  0  0
   -8.9850   18.1390  -31.9390 C   0  0  0  0  0  0  0  0  0  0  0  0
   -7.8250   20.2150  -31.8160 C   0  0  0  0  0  0  0  0  0  0  0  0
   -8.8820   20.6340  -31.0370 C   0  0  0  0  0  0  0  0  0  0  0  0
   -8.8750   21.9100  -30.5460 C   0  0  0  0  0  0  0  0  0  0  0  0
   -7.8220   22.7420  -30.8370 C   0  0  0  0  0  0  0  0  0  0  0  0
   -6.7300   22.3630  -31.6190 C   0  0  0  0  0  0  0  0  0  0  0  0
   -5.7580   23.3340  -31.8940 N   0  0  0  0  0  0  0  0  0  0  0  0
   -6.1120   24.7320  -31.5950 C   0  0  0  0  0  0  0  0  0  0  0  0
   -5.4520   25.2330  -30.3570 C   0  0  0  0  0  0  0  0  0  0  0  0
   -4.3410   24.3980  -29.9000 C   0  0  0  0  0  0  0  0  0  0  0  0
   -4.2370   24.1420  -28.5380 C   0  0  0  0  0  0  0  0  0  0  0  0
   -3.2170   23.3660  -28.0270 C   0  0  0  0  0  0  0  0  0  0  0  0
   -2.2970   22.8470  -28.9000 C   0  0  0  0  0  0  0  0  0  0  0  0
   -2.4030   23.1040  -30.2560 C   0  0  0  0  0  0  0  0  0  0  0  0
   -3.4060   23.8590  -30.6960 N   0  0  0  0  0  0  0  0  0  0  0  0
   -6.7580   21.0780  -32.0990 C   0  0  0  0  0  0  0  0  0  0  0  0
   -0.8589   21.3394  -31.0561 H   0  0  0  0  0  0  0  0  0  0  0  0
   -0.5465   19.8321  -31.9820 H   0  0  0  0  0  0  0  0  0  0  0  0
    0.6693   21.1544  -31.9820 H   0  0  0  0  0  0  0  0  0  0  0  0
    0.8433   20.8866  -33.8394 H   0  0  0  0  0  0  0  0  0  0  0  0
   -0.5446   20.4013  -34.8714 H   0  0  0  0  0  0  0  0  0  0  0  0
    0.0218   22.1060  -34.8714 H   0  0  0  0  0  0  0  0  0  0  0  0
   -2.5937   20.9533  -34.4521 H   0  0  0  0  0  0  0  0  0  0  0  0
   -1.9779   19.6580  -33.3414 H   0  0  0  0  0  0  0  0  0  0  0  0
   -3.5330   20.1278  -31.8350 H   0  0  0  0  0  0  0  0  0  0  0  0
   -3.0764   21.8543  -31.8161 H   0  0  0  0  0  0  0  0  0  0  0  0
   -4.5210   22.0240  -34.0460 H   0  0  0  0  0  0  0  0  0  0  0  0
   -3.9371   19.4924  -34.3707 H   0  0  0  0  0  0  0  0  0  0  0  0
   -3.9187   17.2088  -35.2908 H   0  0  0  0  0  0  0  0  0  0  0  0
   -5.8379   15.7011  -34.7664 H   0  0  0  0  0  0  0  0  0  0  0  0
   -7.6996   16.5382  -33.3401 H   0  0  0  0  0  0  0  0  0  0  0  0
   -9.0629   18.0835  -30.8432 H   0  0  0  0  0  0  0  0  0  0  0  0
   -9.9008   18.5894  -32.3494 H   0  0  0  0  0  0  0  0  0  0  0  0
   -8.8588   17.1262  -32.3494 H   0  0  0  0  0  0  0  0  0  0  0  0
   -9.7170   19.9534  -30.8141 H   0  0  0  0  0  0  0  0  0  0  0  0
   -9.7073   22.2677  -29.9220 H   0  0  0  0  0  0  0  0  0  0  0  0
   -7.8402   23.7642  -30.4311 H   0  0  0  0  0  0  0  0  0  0  0  0
   -4.8240   23.2570  -32.2950 H   0  0  0  0  0  0  0  0  0  0  0  0
   -5.8021   25.3634  -32.4407 H   0  0  0  0  0  0  0  0  0  0  0  0
   -7.1996   24.7758  -31.4363 H   0  0  0  0  0  0  0  0  0  0  0  0
   -5.0672   26.2444  -30.5543 H   0  0  0  0  0  0  0  0  0  0  0  0
   -6.2114   25.2188  -29.5613 H   0  0  0  0  0  0  0  0  0  0  0  0
   -4.9844   24.5675  -27.8522 H   0  0  0  0  0  0  0  0  0  0  0  0
   -3.1442   23.1691  -26.9472 H   0  0  0  0  0  0  0  0  0  0  0  0
   -1.4723   22.2247  -28.5223 H   0  0  0  0  0  0  0  0  0  0  0  0
   -1.6673   22.6892  -30.9607 H   0  0  0  0  0  0  0  0  0  0  0  0
  1  2  1  0
  2  3  1  0
  2  4  1  0
  4  5  1  0
  5  6  1  0
  6  7  1  0
  7  8  2  0
  8  9  1  0
  9 10  2  0
 10 11  1  0
 11 12  2  0
 12 13  1  0
 13 14  2  0
 14 15  1  0
 14 16  1  0
 16 17  2  0
 17 18  1  0
 18 19  2  0
 19 20  1  0
 20 21  1  0
 21 22  1  0
 22 23  1  0
 23 24  1  0
 24 25  2  0
 25 26  1  0
 26 27  2  0
 27 28  1  0
 28 29  2  0
 20 30  2  0
 30  7  1  0
 13  8  1  0
 30 16  1  0
 29 24  1  0
  1 31  1  0
  1 32  1  0
  1 33  1  0
  3 34  1  0
  3 35  1  0
  3 36  1  0
  4 37  1  0
  4 38  1  0
  5 39  1  0
  5 40  1  0
  6 41  1  0
  9 42  1  0
 10 43  1  0
 11 44  1  0
 12 45  1  0
 15 46  1  0
 15 47  1  0
 15 48  1  0
 17 49  1  0
 18 50  1  0
 19 51  1  0
 21 52  1  0
 22 53  1  0
 22 54  1  0
 23 55  1  0
 23 56  1  0
 25 57  1  0
 26 58  1  0
 27 59  1  0
 28 60  1  0
M  CHG  1  14   1
M  END
>  <smiles>  (8) 
CN(C)CCNc1c2ccccc2[n+](C)c2cccc(NCCc3ccccn3)c12

>  <score_type>  (8) 
oracle

>  <origin>  (8) 
adg

>  <m_score__min__energy>  (8) 
-9.9900000000000002

>  <m_primary>  (8) 
energy

$$$$
9:0
     RDKit          3D

 85 88  0  0  0  0  0  0  0  0999 V2000
   -6.5120   17.5280  -31.1820 C   0  0  0  0  0  0  0  0  0  0  0  0
   -7.5570   18.1710  -32.0180 C   0  0  0  0  0  0  0  0  0  0  0  0
   -7.6540   19.5880  -31.9830 N   0  0  0  0  0  0  0  0  0  0  0  0
   -9.0470   19.8930  -32.4280 C   0  0  0  0  0  0  0  0  0  0  0  0
   -9.4950   21.2260  -31.9170 C   0  0  0  0  0  0  0  0  0  0  0  0
   -6.8480   20.3150  -32.9530 C   0  0  0  0  0  0  0  0  0  0  0  0
   -5.7150   19.5760  -33.5500 C   0  0  0  0  0  0  0  0  0  0  0  0
   -5.9200   18.9100  -34.6930 O   0  0  0  0  0  0  0  0  0  0  0  0
   -5.5240   17.7250  -35.0760 C   0  0  0  0  0  0  0  0  0  0  0  0
   -5.4680   16.5380  -34.1830 C   0  0  0  0  0  0  0  0  0  0  0  0
   -4.2410   16.4630  -33.3040 C   0  0  0  0  0  0  0  0  0  0  0  0
   -3.0250   16.5940  -34.0430 N   0  0  0  0  0  0  0  0  0  0  0  0
   -1.9210   16.8150  -33.1510 C   0  0  0  0  0  0  0  0  0  0  0  0
   -1.3030   18.1250  -33.4090 C   0  0  0  0  0  0  0  0  0  0  0  0
   -1.7260   19.2340  -33.0230 O   0  0  0  0  0  0  0  0  0  0  0  0
   -0.0960   18.1320  -34.1770 N   0  0  0  0  0  0  0  0  0  0  0  0
    0.6050   19.3220  -34.5070 C   0  0  0  0  0  0  0  0  0  0  0  0
    1.9900   19.2850  -34.3090 C   0  0  0  0  0  0  0  0  0  0  0  0
    2.7650   20.3880  -34.6000 C   0  0  0  0  0  0  0  0  0  0  0  0
    2.1450   21.5190  -35.0880 C   0  0  0  0  0  0  0  0  0  0  0  0
    2.9390   22.6270  -35.3770 C   0  0  0  0  0  0  0  0  0  0  0  0
    4.1830   22.5820  -35.1930 O   0  0  0  0  0  0  0  0  0  0  0  0
    2.2870   23.7410  -35.8640 C   0  0  0  0  0  0  0  0  0  0  0  0
    3.0030   24.8770  -36.1760 C   0  0  0  0  0  0  0  0  0  0  0  0
    2.3820   26.0020  -36.6640 C   0  0  0  0  0  0  0  0  0  0  0  0
    1.0010   26.0710  -36.8750 C   0  0  0  0  0  0  0  0  0  0  0  0
    0.4550   27.2560  -37.3680 N   0  0  0  0  0  0  0  0  0  0  0  0
    1.0570   28.2040  -38.2110 C   0  0  0  0  0  0  0  0  0  0  0  0
    2.2300   28.0290  -38.6060 O   0  0  0  0  0  0  0  0  0  0  0  0
    0.2750   29.3920  -38.6060 C   0  0  0  0  0  0  0  0  0  0  0  0
   -0.6500   29.9460  -37.5970 C   0  0  0  0  0  0  0  0  0  0  0  0
   -0.6950   29.4800  -36.3070 N   0  0  0  0  0  0  0  0  0  0  0  0
   -1.6970   28.7000  -35.7410 C   0  0  0  0  0  0  0  0  0  0  0  0
   -1.1440   28.1580  -34.4220 C   0  0  0  0  0  0  0  0  0  0  0  0
    0.2640   28.6790  -34.3930 C   0  0  0  0  0  0  0  0  0  0  0  0
    0.2580   29.8580  -35.3380 C   0  0  0  0  0  0  0  0  0  0  0  0
    0.3030   24.9270  -36.5580 C   0  0  0  0  0  0  0  0  0  0  0  0
    0.9240   23.7830  -36.0630 C   0  0  0  0  0  0  0  0  0  0  0  0
    0.1980   22.6900  -35.7680 N   0  0  0  0  0  0  0  0  0  0  0  0
    0.7600   21.5550  -35.2860 C   0  0  0  0  0  0  0  0  0  0  0  0
   -0.0320   20.4430  -34.9950 C   0  0  0  0  0  0  0  0  0  0  0  0
   -6.7513   17.6752  -30.1185 H   0  0  0  0  0  0  0  0  0  0  0  0
   -6.4759   16.4513  -31.4041 H   0  0  0  0  0  0  0  0  0  0  0  0
   -5.5346   17.9811  -31.4041 H   0  0  0  0  0  0  0  0  0  0  0  0
   -7.3667   17.8808  -33.0618 H   0  0  0  0  0  0  0  0  0  0  0  0
   -8.5081   17.8176  -31.5931 H   0  0  0  0  0  0  0  0  0  0  0  0
   -9.0797   19.9001  -33.5275 H   0  0  0  0  0  0  0  0  0  0  0  0
   -9.7195   19.1205  -32.0267 H   0  0  0  0  0  0  0  0  0  0  0  0
   -9.4919   21.2169  -30.8170 H   0  0  0  0  0  0  0  0  0  0  0  0
   -8.8099   22.0067  -32.2791 H   0  0  0  0  0  0  0  0  0  0  0  0
  -10.5126   21.4344  -32.2791 H   0  0  0  0  0  0  0  0  0  0  0  0
   -7.5119   20.6290  -33.7720 H   0  0  0  0  0  0  0  0  0  0  0  0
   -6.3934   21.1452  -32.3925 H   0  0  0  0  0  0  0  0  0  0  0  0
   -4.9139   20.3059  -33.7383 H   0  0  0  0  0  0  0  0  0  0  0  0
   -5.4890   18.7889  -32.8156 H   0  0  0  0  0  0  0  0  0  0  0  0
   -6.1884   17.4425  -35.9060 H   0  0  0  0  0  0  0  0  0  0  0  0
   -4.4530   17.9080  -35.2477 H   0  0  0  0  0  0  0  0  0  0  0  0
   -6.3545   16.5575  -33.5320 H   0  0  0  0  0  0  0  0  0  0  0  0
   -5.4316   15.6572  -34.8409 H   0  0  0  0  0  0  0  0  0  0  0  0
   -4.2903   17.2726  -32.5609 H   0  0  0  0  0  0  0  0  0  0  0  0
   -4.2345   15.4723  -32.8260 H   0  0  0  0  0  0  0  0  0  0  0  0
   -2.8490   15.8830  -34.7610 H   0  0  0  0  0  0  0  0  0  0  0  0
   -2.2829   16.7839  -32.1127 H   0  0  0  0  0  0  0  0  0  0  0  0
   -1.1691   16.0290  -33.3147 H   0  0  0  0  0  0  0  0  0  0  0  0
    0.3200   17.2350  -34.5330 H   0  0  0  0  0  0  0  0  0  0  0  0
    2.4628   18.3715  -33.9193 H   0  0  0  0  0  0  0  0  0  0  0  0
    3.8540   20.3661  -34.4462 H   0  0  0  0  0  0  0  0  0  0  0  0
    4.0934   24.8833  -36.0315 H   0  0  0  0  0  0  0  0  0  0  0  0
    2.9962   26.8840  -36.8982 H   0  0  0  0  0  0  0  0  0  0  0  0
   -0.5470   27.4770  -37.0710 H   0  0  0  0  0  0  0  0  0  0  0  0
    0.9879   30.1853  -38.8750 H   0  0  0  0  0  0  0  0  0  0  0  0
   -0.3687   29.0517  -39.4305 H   0  0  0  0  0  0  0  0  0  0  0  0
   -0.4193   31.0193  -37.5269 H   0  0  0  0  0  0  0  0  0  0  0  0
   -1.6281   29.6282  -37.9872 H   0  0  0  0  0  0  0  0  0  0  0  0
   -2.5922   29.3112  -35.5535 H   0  0  0  0  0  0  0  0  0  0  0  0
   -1.9860   27.8796  -36.4144 H   0  0  0  0  0  0  0  0  0  0  0  0
   -1.7220   28.5388  -33.5671 H   0  0  0  0  0  0  0  0  0  0  0  0
   -1.1970   27.0614  -34.3531 H   0  0  0  0  0  0  0  0  0  0  0  0
    0.5383   28.9982  -33.3767 H   0  0  0  0  0  0  0  0  0  0  0  0
    0.9965   27.9134  -34.6884 H   0  0  0  0  0  0  0  0  0  0  0  0
   -0.0481   30.7789  -34.8200 H   0  0  0  0  0  0  0  0  0  0  0  0
    1.2478   30.0779  -35.7646 H   0  0  0  0  0  0  0  0  0  0  0  0
   -0.7876   24.9164  -36.7014 H   0  0  0  0  0  0  0  0  0  0  0  0
   -0.8590   22.6620  -35.8990 H   0  0  0  0  0  0  0  0  0  0  0  0
   -1.1210   20.4605  -35.1489 H   0  0  0  0  0  0  0  0  0  0  0  0
  1  2  1  0
  2  3  1  0
  3  4  1  0
  4  5  1  0
  3  6  1  0
  6  7  1  0
  7  8  1  0
  8  9  1  0
  9 10  1  0
 10 11  1  0
 11 12  1  0
 12 13  1  0
 13 14  1  0
 14 15  2  0
 14 16  1  0
 16 17  1  0
 17 18  2  0
 18 19  1  0
 19 20  2  0
 20 21  1  0
 21 22  2  0
 21 23  1  0
 23 24  2  0
 24 25  1  0
 25 26  2  0
 26 27  1  0
 27 28  1  0
 28 29  2  0
 28 30  1  0
 30 31  1  0
 31 32  1  0
 32 33  1  0
 33 34  1  0
 34 35  1  0
 35 36  1  0
 26 37  1  0
 37 38  2  0
 38 39  1  0
 39 40  1  0
 40 41  2  0
 41 17  1  0
 40 20  1  0
 38 23  1  0
 36 32  1  0
  1 42  1  0
  1 43  1  0
  1 44  1  0
  2 45  1  0
  2 46  1  0
  4 47  1  0
  4 48  1  0
  5 49  1  0
  5 50  1  0
  5 51  1  0
  6 52  1  0
  6 53  1  0
  7 54  1  0
  7 55  1  0
  9 56  1  0
  9 57  1  0
 10 58  1  0
 10 59  1  0
 11 60  1  0
 11 61  1  0
 12 62  1  0
 13 63  1  0
 13 64  1  0
 16 65  1  0
 18 66  1  0
 19 67  1  0
 24 68  1  0
 25 69  1  0
 27 70  1  0
 30 71  1  0
 30 72  1  0
 31 73  1  0
 31 74  1  0
 33 75  1  0
 33 76  1  0
 34 77  1  0
 34 78  1  0
 35 79  1  0
 35 80  1  0
 36 81  1  0
 36 82  1  0
 37 83  1  0
 39 84  1  0
 41 85  1  0
M  END
>  <smiles>  (9) 
CCN(CC)CCOCCCNCC(=O)Nc1ccc2c(=O)c3ccc(NC(=O)CCN4CCCC4)cc3[nH]c2c1

>  <score_type>  (9) 
oracle

>  <origin>  (9) 
adg

>  <m_score__min__energy>  (9) 
-10.08

>  <m_primary>  (9) 
energy

$$$$
10:0
     RDKit          3D

 68 70  0  0  0  0  0  0  0  0999 V2000
   -0.7380   22.5150  -29.4650 C   0  0  0  0  0  0  0  0  0  0  0  0
   -0.1460   23.7800  -28.8150 C   0  0  0  0  0  0  0  0  0  0  0  0
   -1.0030   24.8790  -28.9580 N   0  0  0  0  0  0  0  0  0  0  0  0
   -1.5690   25.5570  -27.8910 C   0  0  0  0  0  0  0  0  0  0  0  0
   -2.2040   24.8420  -26.7670 C   0  0  0  0  0  0  0  0  0  0  0  0
   -3.6680   24.6010  -26.8850 C   0  0  0  0  0  0  0  0  0  0  0  0
   -4.1520   24.5270  -28.1510 O   0  0  0  0  0  0  0  0  0  0  0  0
   -4.1390   23.3610  -28.8330 C   0  0  0  0  0  0  0  0  0  0  0  0
   -3.7670   23.5530  -30.2700 C   0  0  0  0  0  0  0  0  0  0  0  0
   -4.2930   24.6980  -30.8430 O   0  0  0  0  0  0  0  0  0  0  0  0
   -5.6590   24.8260  -30.8190 C   0  0  0  0  0  0  0  0  0  0  0  0
   -6.3910   23.5080  -31.0030 C   0  0  0  0  0  0  0  0  0  0  0  0
   -6.0930   22.9600  -32.3230 N   0  0  0  0  0  0  0  0  0  0  0  0
   -6.0180   21.5680  -32.5820 C   0  0  0  0  0  0  0  0  0  0  0  0
   -7.1090   20.7110  -32.4330 C   0  0  0  0  0  0  0  0  0  0  0  0
   -6.9200   19.3760  -32.7160 C   0  0  0  0  0  0  0  0  0  0  0  0
   -5.7060   18.8920  -33.1300 N   0  0  0  0  0  0  0  0  0  0  0  0
   -5.5280   17.4960  -33.4250 C   0  0  0  0  0  0  0  0  0  0  0  0
   -4.6390   19.6990  -33.2810 C   0  0  0  0  0  0  0  0  0  0  0  0
   -4.8310   21.0490  -32.9950 C   0  0  0  0  0  0  0  0  0  0  0  0
   -3.6050   21.9090  -33.1810 C   0  0  0  0  0  0  0  0  0  0  0  0
   -2.5090   21.2370  -32.3900 C   0  0  0  0  0  0  0  0  0  0  0  0
   -2.2780   19.8050  -32.7170 C   0  0  0  0  0  0  0  0  0  0  0  0
   -3.3100   19.2840  -33.7130 C   0  0  0  0  0  0  0  0  0  0  0  0
   -7.9940   18.3530  -32.5990 C   0  0  0  0  0  0  0  0  0  0  0  0
   -9.0660   18.9250  -31.6990 C   0  0  0  0  0  0  0  0  0  0  0  0
   -9.4890   20.3070  -32.1290 C   0  0  0  0  0  0  0  0  0  0  0  0
   -8.3680   21.3110  -31.9860 C   0  0  0  0  0  0  0  0  0  0  0  0
   -1.0644   21.8176  -28.6795 H   0  0  0  0  0  0  0  0  0  0  0  0
   -1.5996   22.7928  -30.0898 H   0  0  0  0  0  0  0  0  0  0  0  0
    0.0273   22.0314  -30.0898 H   0  0  0  0  0  0  0  0  0  0  0  0
    0.0154   23.5894  -27.7437 H   0  0  0  0  0  0  0  0  0  0  0  0
    0.8037   24.0147  -29.3181 H   0  0  0  0  0  0  0  0  0  0  0  0
   -0.7930   25.5090  -29.7620 H   0  0  0  0  0  0  0  0  0  0  0  0
   -0.7674   26.1705  -27.4540 H   0  0  0  0  0  0  0  0  0  0  0  0
   -2.4257   26.0613  -28.3618 H   0  0  0  0  0  0  0  0  0  0  0  0
   -1.7097   23.8642  -26.6690 H   0  0  0  0  0  0  0  0  0  0  0  0
   -2.0833   25.4998  -25.8937 H   0  0  0  0  0  0  0  0  0  0  0  0
   -3.8959   23.6508  -26.3799 H   0  0  0  0  0  0  0  0  0  0  0  0
   -4.1538   25.4762  -26.4289 H   0  0  0  0  0  0  0  0  0  0  0  0
   -3.4087   22.6845  -28.3650 H   0  0  0  0  0  0  0  0  0  0  0  0
   -5.1538   22.9379  -28.7996 H   0  0  0  0  0  0  0  0  0  0  0  0
   -2.6704   23.6051  -30.3387 H   0  0  0  0  0  0  0  0  0  0  0  0
   -4.1880   22.7002  -30.8227 H   0  0  0  0  0  0  0  0  0  0  0  0
   -5.9521   25.2554  -29.8496 H   0  0  0  0  0  0  0  0  0  0  0  0
   -5.9396   25.4741  -31.6623 H   0  0  0  0  0  0  0  0  0  0  0  0
   -6.0643   22.7972  -30.2297 H   0  0  0  0  0  0  0  0  0  0  0  0
   -7.4743   23.6774  -30.9149 H   0  0  0  0  0  0  0  0  0  0  0  0
   -5.9260   23.6180  -33.1220 H   0  0  0  0  0  0  0  0  0  0  0  0
   -5.4557   16.9290  -32.4852 H   0  0  0  0  0  0  0  0  0  0  0  0
   -6.3870   17.1319  -34.0077 H   0  0  0  0  0  0  0  0  0  0  0  0
   -4.6051   17.3591  -34.0077 H   0  0  0  0  0  0  0  0  0  0  0  0
   -3.3321   21.9623  -34.2453 H   0  0  0  0  0  0  0  0  0  0  0  0
   -3.7776   22.9403  -32.8394 H   0  0  0  0  0  0  0  0  0  0  0  0
   -1.5723   21.7834  -32.5745 H   0  0  0  0  0  0  0  0  0  0  0  0
   -2.8327   21.2614  -31.3390 H   0  0  0  0  0  0  0  0  0  0  0  0
   -1.2740   19.6956  -33.1528 H   0  0  0  0  0  0  0  0  0  0  0  0
   -2.3687   19.2207  -31.7894 H   0  0  0  0  0  0  0  0  0  0  0  0
   -3.1009   19.6973  -34.7107 H   0  0  0  0  0  0  0  0  0  0  0  0
   -3.2604   18.1861  -33.7591 H   0  0  0  0  0  0  0  0  0  0  0  0
   -8.4140   18.1334  -33.5916 H   0  0  0  0  0  0  0  0  0  0  0  0
   -7.5951   17.4166  -32.1819 H   0  0  0  0  0  0  0  0  0  0  0  0
   -9.9428   18.2613  -31.7255 H   0  0  0  0  0  0  0  0  0  0  0  0
   -8.6517   18.9982  -30.6826 H   0  0  0  0  0  0  0  0  0  0  0  0
   -9.8016   20.2711  -33.1830 H   0  0  0  0  0  0  0  0  0  0  0  0
  -10.3173   20.6269  -31.4797 H   0  0  0  0  0  0  0  0  0  0  0  0
   -8.5895   22.1965  -32.5999 H   0  0  0  0  0  0  0  0  0  0  0  0
   -8.2763   21.6072  -30.9306 H   0  0  0  0  0  0  0  0  0  0  0  0
  1  2  1  0
  2  3  1  0
  3  4  1  0
  4  5  1  0
  5  6  1  0
  6  7  1  0
  7  8  1  0
  8  9  1  0
  9 10  1  0
 10 11  1  0
 11 12  1  0
 12 13  1  0
 13 14  1  0
 14 15  2  0
 15 16  1  0
 16 17  2  0
 17 18  1  0
 17 19  1  0
 19 20  2  0
 20 21  1  0
 21 22  1  0
 22 23  1  0
 23 24  1  0
 16 25  1  0
 25 26  1  0
 26 27  1  0
 27 28  1  0
 20 14  1  0
 28 15  1  0
 24 19  1  0
  1 29  1  0
  1 30  1  0
  1 31  1  0
  2 32  1  0
  2 33  1  0
  3 34  1  0
  4 35  1  0
  4 36  1  0
  5 37  1  0
  5 38  1  0
  6 39  1  0
  6 40  1  0
  8 41  1  0
  8 42  1  0
  9 43  1  0
  9 44  1  0
 11 45  1  0
 11 46  1  0
 12 47  1  0
 12 48  1  0
 13 49  1  0
 18 50  1  0
 18 51  1  0
 18 52  1  0
 21 53  1  0
 21 54  1  0
 22 55  1  0
 22 56  1  0
 23 57  1  0
 23 58  1  0
 24 59  1  0
 24 60  1  0
 25 61  1  0
 25 62  1  0
 26 63  1  0
 26 64  1  0
 27 65  1  0
 27 66  1  0
 28 67  1  0
 28 68  1  0
M  CHG  1  17   1
M  END
>  <smiles>  (10) 
CCNCCCOCCOCCNc1c2c([n+](C)c3c1CCCC3)CCCC2

>  <score_type>  (10) 
oracle

>  <origin>  (10) 
adg

>  <m_score__min__energy>  (10) 
-9.2599999999999998

>  <m_primary>  (10) 
energy

$$$$
11:0
     RDKit          3D

 74 77  0  0  0  0  0  0  0  0999 V2000
   -0.9120   26.4900  -26.6860 C   0  0  0  0  0  0  0  0  0  0  0  0
   -0.8750   26.7860  -28.1530 C   0  0  0  0  0  0  0  0  0  0  0  0
   -1.4840   25.8410  -28.9710 O   0  0  0  0  0  0  0  0  0  0  0  0
   -1.3640   24.4740  -28.9060 C   0  0  0  0  0  0  0  0  0  0  0  0
   -0.1770   23.7840  -28.8550 C   0  0  0  0  0  0  0  0  0  0  0  0
   -0.1160   22.4020  -28.7890 C   0  0  0  0  0  0  0  0  0  0  0  0
   -1.3060   21.6630  -28.7730 C   0  0  0  0  0  0  0  0  0  0  0  0
   -1.2120   19.7610  -28.6840 Br  0  0  0  0  0  0  0  0  0  0  0  0
   -2.5130   22.3350  -28.8240 C   0  0  0  0  0  0  0  0  0  0  0  0
   -2.5370   23.7180  -28.8890 C   0  0  0  0  0  0  0  0  0  0  0  0
   -3.8340   24.4600  -28.9420 C   0  0  0  0  0  0  0  0  0  0  0  0
   -3.9280   25.3210  -30.0740 N   0  0  0  0  0  0  0  0  0  0  0  0
   -4.9910   25.0640  -30.9850 C   0  0  0  0  0  0  0  0  0  0  0  0
   -5.7850   23.8020  -30.6240 C   0  0  0  0  0  0  0  0  0  0  0  0
   -7.2340   23.9990  -30.8630 C   0  0  0  0  0  0  0  0  0  0  0  0
   -7.7910   23.3240  -32.0460 C   0  0  0  0  0  0  0  0  0  0  0  0
   -7.9570   21.9580  -32.1540 N   0  0  0  0  0  0  0  0  0  0  0  0
   -8.3230   21.1010  -31.1160 C   0  0  0  0  0  0  0  0  0  0  0  0
   -9.1190   19.9460  -31.7770 C   0  0  0  0  0  0  0  0  0  0  0  0
   -8.2210   18.8710  -32.3100 C   0  0  0  0  0  0  0  0  0  0  0  0
   -7.2980   19.2980  -33.3160 N   0  0  0  0  0  0  0  0  0  0  0  0
   -5.9360   18.9400  -33.3940 C   0  0  0  0  0  0  0  0  0  0  0  0
   -5.6640   17.5990  -33.6860 C   0  0  0  0  0  0  0  0  0  0  0  0
   -6.7130   16.7210  -33.8790 C   0  0  0  0  0  0  0  0  0  0  0  0
   -6.5090   15.3870  -34.1650 C   0  0  0  0  0  0  0  0  0  0  0  0
   -5.2030   14.9620  -34.2510 C   0  0  0  0  0  0  0  0  0  0  0  0
   -4.1600   15.8360  -34.0590 C   0  0  0  0  0  0  0  0  0  0  0  0
   -4.3560   17.1910  -33.7690 C   0  0  0  0  0  0  0  0  0  0  0  0
   -3.3030   18.0270  -33.5820 N   0  0  0  0  0  0  0  0  0  0  0  0
   -1.9950   17.4690  -33.7030 C   0  0  0  0  0  0  0  0  0  0  0  0
   -3.5820   19.3130  -33.3010 C   0  0  0  0  0  0  0  0  0  0  0  0
   -2.5450   20.1950  -33.1010 C   0  0  0  0  0  0  0  0  0  0  0  0
   -2.8310   21.5260  -32.8100 C   0  0  0  0  0  0  0  0  0  0  0  0
   -4.1170   22.0060  -32.7110 C   0  0  0  0  0  0  0  0  0  0  0  0
   -5.1440   21.1120  -32.9130 C   0  0  0  0  0  0  0  0  0  0  0  0
   -4.8810   19.7930  -33.2030 C   0  0  0  0  0  0  0  0  0  0  0  0
   -0.7950   27.4259  -26.1200 H   0  0  0  0  0  0  0  0  0  0  0  0
   -1.8753   26.0247  -26.4300 H   0  0  0  0  0  0  0  0  0  0  0  0
   -0.0929   25.8019  -26.4300 H   0  0  0  0  0  0  0  0  0  0  0  0
   -1.3783   27.7503  -28.3167 H   0  0  0  0  0  0  0  0  0  0  0  0
    0.1886   26.7869  -28.4336 H   0  0  0  0  0  0  0  0  0  0  0  0
    0.7643   24.3531  -28.8671 H   0  0  0  0  0  0  0  0  0  0  0  0
    0.8567   21.8899  -28.7496 H   0  0  0  0  0  0  0  0  0  0  0  0
   -3.4566   21.7698  -28.8129 H   0  0  0  0  0  0  0  0  0  0  0  0
   -4.6558   23.7301  -28.9856 H   0  0  0  0  0  0  0  0  0  0  0  0
   -3.8955   25.0875  -28.0406 H   0  0  0  0  0  0  0  0  0  0  0  0
   -3.0500   25.6520  -30.4800 H   0  0  0  0  0  0  0  0  0  0  0  0
   -5.6758   25.9248  -30.9792 H   0  0  0  0  0  0  0  0  0  0  0  0
   -4.5471   24.9055  -31.9789 H   0  0  0  0  0  0  0  0  0  0  0  0
   -5.4293   22.9643  -31.2419 H   0  0  0  0  0  0  0  0  0  0  0  0
   -5.6324   23.5858  -29.5563 H   0  0  0  0  0  0  0  0  0  0  0  0
   -7.7741   23.6289  -29.9791 H   0  0  0  0  0  0  0  0  0  0  0  0
   -7.3597   25.0757  -31.0497 H   0  0  0  0  0  0  0  0  0  0  0  0
   -8.7915   23.7573  -32.1917 H   0  0  0  0  0  0  0  0  0  0  0  0
   -6.9875   23.4931  -32.7779 H   0  0  0  0  0  0  0  0  0  0  0  0
   -8.1300   21.5600  -33.0950 H   0  0  0  0  0  0  0  0  0  0  0  0
   -7.4282   20.7085  -30.6107 H   0  0  0  0  0  0  0  0  0  0  0  0
   -8.9241   21.6218  -30.3561 H   0  0  0  0  0  0  0  0  0  0  0  0
   -9.7923   19.5054  -31.0270 H   0  0  0  0  0  0  0  0  0  0  0  0
   -9.6821   20.3657  -32.6236 H   0  0  0  0  0  0  0  0  0  0  0  0
   -7.6431   18.4609  -31.4687 H   0  0  0  0  0  0  0  0  0  0  0  0
   -8.8785   18.1312  -32.7901 H   0  0  0  0  0  0  0  0  0  0  0  0
   -7.6470   19.9450  -34.0860 H   0  0  0  0  0  0  0  0  0  0  0  0
   -7.7437   17.0976  -33.8022 H   0  0  0  0  0  0  0  0  0  0  0  0
   -7.3508   14.6955  -34.3172 H   0  0  0  0  0  0  0  0  0  0  0  0
   -4.9906   13.9066  -34.4769 H   0  0  0  0  0  0  0  0  0  0  0  0
   -3.1308   15.4556  -34.1363 H   0  0  0  0  0  0  0  0  0  0  0  0
   -1.5781   17.2911  -32.7007 H   0  0  0  0  0  0  0  0  0  0  0  0
   -2.0518   16.5168  -34.2508 H   0  0  0  0  0  0  0  0  0  0  0  0
   -1.3470   18.1690  -34.2508 H   0  0  0  0  0  0  0  0  0  0  0  0
   -1.5020   19.8524  -33.1703 H   0  0  0  0  0  0  0  0  0  0  0  0
   -1.9945   22.2228  -32.6527 H   0  0  0  0  0  0  0  0  0  0  0  0
   -4.3164   23.0627  -32.4795 H   0  0  0  0  0  0  0  0  0  0  0  0
   -6.1864   21.4559  -32.8418 H   0  0  0  0  0  0  0  0  0  0  0  0
  1  2  1  0
  2  3  1  0
  3  4  1  0
  4  5  2  0
  5  6  1  0
  6  7  2  0
  7  8  1  0
  7  9  1  0
  9 10  2  0
 10 11  1  0
 11 12  1  0
 12 13  1  0
 13 14  1  0
 14 15  1  0
 15 16  1  0
 16 17  1  0
 17 18  1  0
 18 19  1  0
 19 20  1  0
 20 21  1  0
 21 22  1  0
 22 23  1  0
 23 24  2  0
 24 25  1  0
 25 26  2  0
 26 27  1  0
 27 28  2  0
 28 29  1  0
 29 30  1  0
 29 31  2  0
 31 32  1  0
 32 33  2  0
 33 34  1  0
 34 35  2  0
 35 36  1  0
 10  4  1  0
 36 22  2  0
 28 23  1  0
 36 31  1  0
  1 37  1  0
  1 38  1  0
  1 39  1  0
  2 40  1  0
  2 41  1  0
  5 42  1  0
  6 43  1  0
  9 44  1  0
 11 45  1  0
 11 46  1  0
 12 47  1  0
 13 48  1  0
 13 49  1  0
 14 50  1  0
 14 51  1  0
 15 52  1  0
 15 53  1  0
 16 54  1  0
 16 55  1  0
 17 56  1  0
 18 57  1  0
 18 58  1  0
 19 59  1  0
 19 60  1  0
 20 61  1  0
 20 62  1  0
 21 63  1  0
 24 64  1  0
 25 65  1  0
 26 66  1  0
 27 67  1  0
 30 68  1  0
 30 69  1  0
 30 70  1  0
 32 71  1  0
 33 72  1  0
 34 73  1  0
 35 74  1  0
M  CHG  1  29   1
M  END
>  <smiles>  (11) 
CCOc1ccc(Br)cc1CNCCCCNCCCNc1c2ccccc2[n+](C)c2ccccc12

>  <score_type>  (11) 
oracle

>  <origin>  (11) 
adg

>  <m_score__min__energy>  (11) 
-10.970000000000001

>  <m_primary>  (11) 
energy

$$$$
12:0
     RDKit          3D

 52 54  0  0  0  0  0  0  0  0999 V2000
   -5.6630   23.3850  -29.4350 C   0  0  0  0  0  0  0  0  0  0  0  0
   -5.2690   24.4670  -30.4480 C   0  0  0  0  0  0  0  0  0  0  0  0
   -5.9970   25.7090  -30.0140 C   0  0  0  0  0  0  0  0  0  0  0  0
   -3.8430   24.6000  -30.4820 N   0  0  0  0  0  0  0  0  0  0  0  0
   -3.1380   23.3710  -30.1740 C   0  0  0  0  0  0  0  0  0  0  0  0
   -2.8150   22.6930  -31.4980 C   0  0  0  0  0  0  0  0  0  0  0  0
   -3.3990   21.2830  -31.4350 C   0  0  0  0  0  0  0  0  0  0  0  0
   -3.3430   20.7190  -32.8600 C   0  0  0  0  0  0  0  0  0  0  0  0
   -4.6060   21.0400  -33.4830 N   0  0  0  0  0  0  0  0  0  0  0  0
   -5.7550   20.3280  -33.1070 C   0  0  0  0  0  0  0  0  0  0  0  0
   -5.8390   18.9610  -33.2630 C   0  0  0  0  0  0  0  0  0  0  0  0
   -4.7320   18.3360  -33.8100 C   0  0  0  0  0  0  0  0  0  0  0  0
   -4.7420   16.9700  -33.9990 C   0  0  0  0  0  0  0  0  0  0  0  0
   -5.8850   16.2980  -33.6200 C   0  0  0  0  0  0  0  0  0  0  0  0
   -6.9870   16.9220  -33.0760 C   0  0  0  0  0  0  0  0  0  0  0  0
   -6.9780   18.2870  -32.8860 C   0  0  0  0  0  0  0  0  0  0  0  0
   -8.0610   18.8720  -32.3570 N   0  0  0  0  0  0  0  0  0  0  0  0
   -9.2540   18.2150  -31.9480 C   0  0  0  0  0  0  0  0  0  0  0  0
   -7.9940   20.2180  -32.1980 C   0  0  0  0  0  0  0  0  0  0  0  0
   -9.0450   20.9480  -31.6650 C   0  0  0  0  0  0  0  0  0  0  0  0
   -8.9750   22.3300  -31.5050 C   0  0  0  0  0  0  0  0  0  0  0  0
   -7.8450   23.0240  -31.8750 C   0  0  0  0  0  0  0  0  0  0  0  0
   -6.7890   22.3170  -32.4070 C   0  0  0  0  0  0  0  0  0  0  0  0
   -6.8740   20.9470  -32.5590 C   0  0  0  0  0  0  0  0  0  0  0  0
   -5.5228   23.7700  -28.4141 H   0  0  0  0  0  0  0  0  0  0  0  0
   -6.7183   23.1118  -29.5821 H   0  0  0  0  0  0  0  0  0  0  0  0
   -5.0305   22.4972  -29.5821 H   0  0  0  0  0  0  0  0  0  0  0  0
   -5.5536   24.2283  -31.4834 H   0  0  0  0  0  0  0  0  0  0  0  0
   -6.0232   25.7536  -28.9152 H   0  0  0  0  0  0  0  0  0  0  0  0
   -5.4754   26.5952  -30.4046 H   0  0  0  0  0  0  0  0  0  0  0  0
   -7.0251   25.6868  -30.4046 H   0  0  0  0  0  0  0  0  0  0  0  0
   -3.4920   24.9870  -31.3830 H   0  0  0  0  0  0  0  0  0  0  0  0
   -2.2091   23.5958  -29.6293 H   0  0  0  0  0  0  0  0  0  0  0  0
   -3.7539   22.7161  -29.5401 H   0  0  0  0  0  0  0  0  0  0  0  0
   -3.2690   23.2526  -32.3291 H   0  0  0  0  0  0  0  0  0  0  0  0
   -1.7284   22.6595  -31.6658 H   0  0  0  0  0  0  0  0  0  0  0  0
   -2.8033   20.6559  -30.7554 H   0  0  0  0  0  0  0  0  0  0  0  0
   -4.4315   21.2989  -31.0559 H   0  0  0  0  0  0  0  0  0  0  0  0
   -2.5162   21.1818  -33.4187 H   0  0  0  0  0  0  0  0  0  0  0  0
   -3.1718   19.6325  -32.8492 H   0  0  0  0  0  0  0  0  0  0  0  0
   -4.7160   21.7870  -34.2140 H   0  0  0  0  0  0  0  0  0  0  0  0
   -3.8479   18.9263  -34.0928 H   0  0  0  0  0  0  0  0  0  0  0  0
   -3.8795   16.4417  -34.4314 H   0  0  0  0  0  0  0  0  0  0  0  0
   -5.9190   15.2074  -33.7591 H   0  0  0  0  0  0  0  0  0  0  0  0
   -7.8715   16.3320  -32.7942 H   0  0  0  0  0  0  0  0  0  0  0  0
   -9.3003   18.1895  -30.8493 H   0  0  0  0  0  0  0  0  0  0  0  0
  -10.1255   18.7604  -32.3392 H   0  0  0  0  0  0  0  0  0  0  0  0
   -9.2590   17.1869  -32.3392 H   0  0  0  0  0  0  0  0  0  0  0  0
   -9.9608   20.4207  -31.3596 H   0  0  0  0  0  0  0  0  0  0  0  0
   -9.8316   22.8725  -31.0785 H   0  0  0  0  0  0  0  0  0  0  0  0
   -7.7868   24.1152  -31.7491 H   0  0  0  0  0  0  0  0  0  0  0  0
   -5.8741   22.8461  -32.7121 H   0  0  0  0  0  0  0  0  0  0  0  0
  1  2  1  0
  2  3  1  0
  2  4  1  0
  4  5  1  0
  5  6  1  0
  6  7  1  0
  7  8  1  0
  8  9  1  0
  9 10  1  0
 10 11  2  0
 11 12  1  0
 12 13  2  0
 13 14  1  0
 14 15  2  0
 15 16  1  0
 16 17  2  0
 17 18  1  0
 17 19  1  0
 19 20  2  0
 20 21  1  0
 21 22  2  0
 22 23  1  0
 23 24  2  0
 24 10  1  0
 16 11  1  0
 24 19  1  0
  1 25  1  0
  1 26  1  0
  1 27  1  0
  2 28  1  0
  3 29  1  0
  3 30  1  0
  3 31  1  0
  4 32  1  0
  5 33  1  0
  5 34  1  0
  6 35  1  0
  6 36  1  0
  7 37  1  0
  7 38  1  0
  8 39  1  0
  8 40  1  0
  9 41  1  0
 12 42  1  0
 13 43  1  0
 14 44  1  0
 15 45  1  0
 18 46  1  0
 18 47  1  0
 18 48  1  0
 20 49  1  0
 21 50  1  0
 22 51  1  0
 23 52  1  0
M  CHG  1  17   1
M  END
>  <smiles>  (12) 
CC(C)NCCCCNc1c2ccccc2[n+](C)c2ccccc12

>  <score_type>  (12) 
oracle

>  <origin>  (12) 
adg

>  <m_score__min__energy>  (12) 
-9.2699999999999996

>  <m_primary>  (12) 
energy

$$$$
13:0
     RDKit          3D

 57 59  0  0  0  0  0  0  0  0999 V2000
   -0.6820   26.1020  -36.8250 C   0  0  0  0  0  0  0  0  0  0  0  0
    0.6460   25.7940  -37.4830 C   0  0  0  0  0  0  0  0  0  0  0  0
    1.0190   24.5090  -37.2040 O   0  0  0  0  0  0  0  0  0  0  0  0
    1.8060   24.3590  -36.0910 C   0  0  0  0  0  0  0  0  0  0  0  0
    1.6710   23.0120  -35.4090 C   0  0  0  0  0  0  0  0  0  0  0  0
    0.2580   22.6440  -35.4150 N   0  0  0  0  0  0  0  0  0  0  0  0
    0.0340   21.3640  -36.0820 C   0  0  0  0  0  0  0  0  0  0  0  0
   -0.1050   20.2300  -35.1070 C   0  0  0  0  0  0  0  0  0  0  0  0
   -1.1590   20.3310  -34.2390 O   0  0  0  0  0  0  0  0  0  0  0  0
   -0.8620   20.8640  -33.0140 C   0  0  0  0  0  0  0  0  0  0  0  0
   -2.1070   21.5800  -32.3810 C   0  0  0  0  0  0  0  0  0  0  0  0
   -3.2140   21.3640  -33.2500 N   0  0  0  0  0  0  0  0  0  0  0  0
   -4.5360   20.9920  -33.0950 C   0  0  0  0  0  0  0  0  0  0  0  0
   -5.5610   21.7280  -32.5540 C   0  0  0  0  0  0  0  0  0  0  0  0
   -5.3410   23.0160  -32.1450 C   0  0  0  0  0  0  0  0  0  0  0  0
   -6.3240   23.8260  -31.5940 C   0  0  0  0  0  0  0  0  0  0  0  0
   -7.5990   23.3620  -31.4270 C   0  0  0  0  0  0  0  0  0  0  0  0
   -7.8530   22.0580  -31.8330 C   0  0  0  0  0  0  0  0  0  0  0  0
   -6.8590   21.2530  -32.3870 C   0  0  0  0  0  0  0  0  0  0  0  0
   -7.1850   20.0140  -32.7580 N   0  0  0  0  0  0  0  0  0  0  0  0
   -8.4870   19.4230  -32.6450 C   0  0  0  0  0  0  0  0  0  0  0  0
   -6.2090   19.2340  -33.3030 C   0  0  0  0  0  0  0  0  0  0  0  0
   -6.5430   17.9460  -33.6770 C   0  0  0  0  0  0  0  0  0  0  0  0
   -5.6360   17.0590  -34.2300 C   0  0  0  0  0  0  0  0  0  0  0  0
   -4.3590   17.4960  -34.4050 C   0  0  0  0  0  0  0  0  0  0  0  0
   -4.0200   18.7980  -34.0270 C   0  0  0  0  0  0  0  0  0  0  0  0
   -4.9180   19.6810  -33.4780 C   0  0  0  0  0  0  0  0  0  0  0  0
   -0.5645   26.0748  -35.7316 H   0  0  0  0  0  0  0  0  0  0  0  0
   -1.0203   27.1025  -37.1326 H   0  0  0  0  0  0  0  0  0  0  0  0
   -1.4262   25.3526  -37.1326 H   0  0  0  0  0  0  0  0  0  0  0  0
    0.5503   25.9173  -38.5719 H   0  0  0  0  0  0  0  0  0  0  0  0
    1.4098   26.4840  -37.0951 H   0  0  0  0  0  0  0  0  0  0  0  0
    2.8561   24.4894  -36.3914 H   0  0  0  0  0  0  0  0  0  0  0  0
    1.4723   25.1148  -35.3648 H   0  0  0  0  0  0  0  0  0  0  0  0
    2.2559   22.2569  -35.9545 H   0  0  0  0  0  0  0  0  0  0  0  0
    2.0478   23.0662  -34.3770 H   0  0  0  0  0  0  0  0  0  0  0  0
   -0.3110   23.3490  -35.9210 H   0  0  0  0  0  0  0  0  0  0  0  0
   -0.8876   21.4325  -36.6787 H   0  0  0  0  0  0  0  0  0  0  0  0
    0.9087   21.1573  -36.7162 H   0  0  0  0  0  0  0  0  0  0  0  0
   -0.2262   19.3002  -35.6821 H   0  0  0  0  0  0  0  0  0  0  0  0
    0.8031   20.2490  -34.4866 H   0  0  0  0  0  0  0  0  0  0  0  0
   -0.5345   20.0564  -32.3427 H   0  0  0  0  0  0  0  0  0  0  0  0
   -0.0650   21.6105  -33.1465 H   0  0  0  0  0  0  0  0  0  0  0  0
   -2.3201   21.1552  -31.3890 H   0  0  0  0  0  0  0  0  0  0  0  0
   -1.9143   22.6562  -32.2600 H   0  0  0  0  0  0  0  0  0  0  0  0
   -2.9280   21.5660  -34.2800 H   0  0  0  0  0  0  0  0  0  0  0  0
   -4.3291   23.4318  -32.2595 H   0  0  0  0  0  0  0  0  0  0  0  0
   -6.0744   24.8528  -31.2883 H   0  0  0  0  0  0  0  0  0  0  0  0
   -8.3879   23.9925  -30.9910 H   0  0  0  0  0  0  0  0  0  0  0  0
   -8.8672   21.6491  -31.7139 H   0  0  0  0  0  0  0  0  0  0  0  0
   -8.7454   19.3057  -31.5822 H   0  0  0  0  0  0  0  0  0  0  0  0
   -9.2283   20.0729  -33.1330 H   0  0  0  0  0  0  0  0  0  0  0  0
   -8.4858   18.4372  -33.1330 H   0  0  0  0  0  0  0  0  0  0  0  0
   -7.5797   17.6098  -33.5279 H   0  0  0  0  0  0  0  0  0  0  0  0
   -5.9356   16.0402  -34.5170 H   0  0  0  0  0  0  0  0  0  0  0  0
   -3.5998   16.8297  -34.8405 H   0  0  0  0  0  0  0  0  0  0  0  0
   -2.9828   19.1324  -34.1764 H   0  0  0  0  0  0  0  0  0  0  0  0
  1  2  1  0
  2  3  1  0
  3  4  1  0
  4  5  1  0
  5  6  1  0
  6  7  1  0
  7  8  1  0
  8  9  1  0
  9 10  1  0
 10 11  1  0
 11 12  1  0
 12 13  1  0
 13 14  2  0
 14 15  1  0
 15 16  2  0
 16 17  1  0
 17 18  2  0
 18 19  1  0
 19 20  2  0
 20 21  1  0
 20 22  1  0
 22 23  2  0
 23 24  1  0
 24 25  2  0
 25 26  1  0
 26 27  2  0
 27 13  1  0
 19 14  1  0
 27 22  1  0
  1 28  1  0
  1 29  1  0
  1 30  1  0
  2 31  1  0
  2 32  1  0
  4 33  1  0
  4 34  1  0
  5 35  1  0
  5 36  1  0
  6 37  1  0
  7 38  1  0
  7 39  1  0
  8 40  1  0
  8 41  1  0
 10 42  1  0
 10 43  1  0
 11 44  1  0
 11 45  1  0
 12 46  1  0
 15 47  1  0
 16 48  1  0
 17 49  1  0
 18 50  1  0
 21 51  1  0
 21 52  1  0
 21 53  1  0
 23 54  1  0
 24 55  1  0
 25 56  1  0
 26 57  1  0
M  CHG  1  20   1
M  END
>  <smiles>  (13) 
CCOCCNCCOCCNc1c2ccccc2[n+](C)c2ccccc12

>  <score_type>  (13) 
oracle

>  <origin>  (13) 
adg

>  <m_score__min__energy>  (13) 
-8.8699999999999992

>  <m_primary>  (13) 
energy

$$$$
14:0
     RDKit          3D

 41 42  0  0  1  0  0  0  0  0999 V2000
   -9.2620   19.2940  -32.6960 C   0  0  0  0  0  0  0  0  0  0  0  0
   -8.4280   18.6410  -31.6400 C   0  0  0  0  0  0  0  0  0  0  0  0
   -6.9960   18.8560  -31.7790 N   0  0  0  0  0  0  0  0  0  0  0  0
   -6.3950   17.7900  -32.5570 C   0  0  0  0  0  0  0  0  0  0  0  0
   -5.5060   18.2350  -33.6300 C   0  0  0  0  0  0  0  0  0  0  0  0
   -5.1130   19.4970  -33.8290 C   0  0  0  0  0  0  0  0  0  0  0  0
   -3.7670   20.0140  -33.3830 C   0  0  0  0  0  0  0  0  0  0  0  0
   -3.9520   21.1880  -32.6230 N   0  0  0  0  0  0  0  0  0  0  0  0
   -4.1240   22.2850  -31.9120 C   0  0  0  0  0  0  0  0  0  0  0  0
   -3.2750   23.0970  -31.2060 C   0  0  0  0  0  0  0  0  0  0  0  0
   -3.6910   24.1200  -30.4040 C   0  0  0  0  0  0  0  0  0  0  0  0
   -2.7210   24.8910  -29.7090 O   0  0  0  0  0  0  0  0  0  0  0  0
   -2.0950   24.5260  -28.5340 C   0  0  0  0  0  0  0  0  0  0  0  0
   -5.0140   24.3730  -30.2870 C   0  0  0  0  0  0  0  0  0  0  0  0
   -5.9250   23.6290  -30.9490 C   0  0  0  0  0  0  0  0  0  0  0  0
   -7.2680   23.9620  -30.7840 C   0  0  0  0  0  0  0  0  0  0  0  0
   -8.1550   23.1910  -31.4810 C   0  0  0  0  0  0  0  0  0  0  0  0
   -7.7900   22.1230  -32.3230 C   0  0  0  0  0  0  0  0  0  0  0  0
   -6.4520   21.9090  -32.3880 N   0  0  0  0  0  0  0  0  0  0  0  0
   -5.5410   22.6200  -31.7360 C   0  0  0  0  0  0  0  0  0  0  0  0
  -10.0430   19.9055  -32.2204 H   0  0  0  0  0  0  0  0  0  0  0  0
   -8.6245   19.9356  -33.3221 H   0  0  0  0  0  0  0  0  0  0  0  0
   -9.7319   18.5212  -33.3221 H   0  0  0  0  0  0  0  0  0  0  0  0
   -8.7409   19.0367  -30.6625 H   0  0  0  0  0  0  0  0  0  0  0  0
   -8.5913   17.5578  -31.7399 H   0  0  0  0  0  0  0  0  0  0  0  0
   -6.7650   19.7930  -32.1260 H   0  0  0  0  0  0  0  0  0  0  0  0
   -5.8133   17.1544  -31.8732 H   0  0  0  0  0  0  0  0  0  0  0  0
   -7.2255   17.2592  -33.0454 H   0  0  0  0  0  0  0  0  0  0  0  0
   -5.1316   17.4714  -34.3277 H   0  0  0  0  0  0  0  0  0  0  0  0
   -5.7998   20.1881  -34.3395 H   0  0  0  0  0  0  0  0  0  0  0  0
   -3.2652   19.2524  -32.7680 H   0  0  0  0  0  0  0  0  0  0  0  0
   -3.1454   20.2363  -34.2629 H   0  0  0  0  0  0  0  0  0  0  0  0
   -4.7020   21.6590  -33.6480 H   0  0  0  0  0  0  0  0  0  0  0  0
   -2.1938   22.9132  -31.2908 H   0  0  0  0  0  0  0  0  0  0  0  0
   -2.6913   24.8737  -27.6775 H   0  0  0  0  0  0  0  0  0  0  0  0
   -1.9998   23.4308  -28.4941 H   0  0  0  0  0  0  0  0  0  0  0  0
   -1.0950   24.9826  -28.4941 H   0  0  0  0  0  0  0  0  0  0  0  0
   -5.3530   25.1975  -29.6426 H   0  0  0  0  0  0  0  0  0  0  0  0
   -7.5923   24.7898  -30.1363 H   0  0  0  0  0  0  0  0  0  0  0  0
   -9.2259   23.4199  -31.3774 H   0  0  0  0  0  0  0  0  0  0  0  0
   -8.5226   21.5178  -32.8772 H   0  0  0  0  0  0  0  0  0  0  0  0
  1  2  1  0
  2  3  1  0
  3  4  1  0
  4  5  1  0
  5  6  2  0
  6  7  1  0
  7  8  1  0
  8  9  1  0
  9 10  2  0
 10 11  1  0
 11 12  1  0
 12 13  1  0
 11 14  2  0
 14 15  1  0
 15 16  2  0
 16 17  1  0
 17 18  2  0
 18 19  1  0
 19 20  2  0
 20  9  1  0
 20 15  1  0
  1 21  1  0
  1 22  1  0
  1 23  1  0
  2 24  1  0
  2 25  1  0
  3 26  1  0
  4 27  1  0
  4 28  1  0
  5 29  1  0
  6 30  1  0
  7 31  1  0
  7 32  1  0
  8 33  1  0
 10 34  1  0
 13 35  1  0
 13 36  1  0
 13 37  1  0
 14 38  1  0
 16 39  1  0
 17 40  1  0
 18 41  1  0
M  END
>  <smiles>  (14) 
CCNCC=CCNc1cc(OC)cc2cccnc12

>  <score_type>  (14) 
oracle

>  <origin>  (14) 
adg

>  <m_score__min__energy>  (14) 
-7.8399999999999999

>  <m_primary>  (14) 
energy

$$$$
15:0
     RDKit          3D

 68 70  0  0  0  0  0  0  0  0999 V2000
   -3.9320   24.2130  -29.5690 C   0  0  0  0  0  0  0  0  0  0  0  0
   -4.3330   24.5700  -30.8330 O   0  0  0  0  0  0  0  0  0  0  0  0
   -5.6900   24.6930  -30.9790 C   0  0  0  0  0  0  0  0  0  0  0  0
   -6.3100   23.7840  -32.0150 C   0  0  0  0  0  0  0  0  0  0  0  0
   -7.1940   22.8140  -31.4760 N   0  0  0  0  0  0  0  0  0  0  0  0
   -7.2150   22.7830  -30.0270 C   0  0  0  0  0  0  0  0  0  0  0  0
   -8.5390   23.0560  -31.9610 C   0  0  0  0  0  0  0  0  0  0  0  0
   -9.3150   21.7650  -31.9740 C   0  0  0  0  0  0  0  0  0  0  0  0
   -8.6750   20.6910  -31.4160 O   0  0  0  0  0  0  0  0  0  0  0  0
   -9.0570   19.4460  -31.8740 C   0  0  0  0  0  0  0  0  0  0  0  0
   -7.8340   18.5580  -32.0610 C   0  0  0  0  0  0  0  0  0  0  0  0
   -6.9370   18.9930  -33.1780 C   0  0  0  0  0  0  0  0  0  0  0  0
   -6.5820   20.3790  -33.1150 N   0  0  0  0  0  0  0  0  0  0  0  0
   -5.2180   20.6630  -32.9150 C   0  0  0  0  0  0  0  0  0  0  0  0
   -4.7260   20.9580  -31.5570 C   0  0  0  0  0  0  0  0  0  0  0  0
   -3.5100   21.6830  -31.3850 N   0  0  0  0  0  0  0  0  0  0  0  0
   -2.2580   21.0780  -31.0240 C   0  0  0  0  0  0  0  0  0  0  0  0
   -1.2570   20.8880  -31.9810 C   0  0  0  0  0  0  0  0  0  0  0  0
   -1.4590   21.3020  -33.2880 C   0  0  0  0  0  0  0  0  0  0  0  0
   -0.4930   21.1350  -34.2640 C   0  0  0  0  0  0  0  0  0  0  0  0
    0.7060   20.5420  -33.9490 C   0  0  0  0  0  0  0  0  0  0  0  0
    0.9170   20.1230  -32.6350 C   0  0  0  0  0  0  0  0  0  0  0  0
   -0.0470   20.2900  -31.6560 C   0  0  0  0  0  0  0  0  0  0  0  0
    0.2150   19.8720  -30.4140 N   0  0  0  0  0  0  0  0  0  0  0  0
    1.4350   19.2410  -29.9770 C   0  0  0  0  0  0  0  0  0  0  0  0
   -0.7380   20.0470  -29.4600 C   0  0  0  0  0  0  0  0  0  0  0  0
   -0.4870   19.6440  -28.1520 C   0  0  0  0  0  0  0  0  0  0  0  0
   -1.4060   19.8200  -27.1340 C   0  0  0  0  0  0  0  0  0  0  0  0
   -2.6120   20.4120  -27.4240 C   0  0  0  0  0  0  0  0  0  0  0  0
   -2.8400   20.8030  -28.7350 C   0  0  0  0  0  0  0  0  0  0  0  0
   -1.9600   20.6430  -29.7560 C   0  0  0  0  0  0  0  0  0  0  0  0
   -4.5379   24.7524  -28.8261 H   0  0  0  0  0  0  0  0  0  0  0  0
   -4.0657   23.1295  -29.4342 H   0  0  0  0  0  0  0  0  0  0  0  0
   -2.8712   24.4711  -29.4342 H   0  0  0  0  0  0  0  0  0  0  0  0
   -6.1582   24.4722  -30.0084 H   0  0  0  0  0  0  0  0  0  0  0  0
   -5.8678   25.7207  -31.3285 H   0  0  0  0  0  0  0  0  0  0  0  0
   -6.8713   24.4050  -32.7287 H   0  0  0  0  0  0  0  0  0  0  0  0
   -5.4848   23.2336  -32.4905 H   0  0  0  0  0  0  0  0  0  0  0  0
   -6.6388   23.6335  -29.6337 H   0  0  0  0  0  0  0  0  0  0  0  0
   -8.2546   22.8497  -29.6738 H   0  0  0  0  0  0  0  0  0  0  0  0
   -6.7675   21.8423  -29.6738 H   0  0  0  0  0  0  0  0  0  0  0  0
   -9.0414   23.7778  -31.3002 H   0  0  0  0  0  0  0  0  0  0  0  0
   -8.4901   23.4614  -32.9824 H   0  0  0  0  0  0  0  0  0  0  0  0
  -10.2523   21.9265  -31.4214 H   0  0  0  0  0  0  0  0  0  0  0  0
   -9.4656   21.5118  -33.0338 H   0  0  0  0  0  0  0  0  0  0  0  0
   -9.7350   18.9818  -31.1427 H   0  0  0  0  0  0  0  0  0  0  0  0
   -9.5696   19.5602  -32.8405 H   0  0  0  0  0  0  0  0  0  0  0  0
   -7.2534   18.5660  -31.1267 H   0  0  0  0  0  0  0  0  0  0  0  0
   -8.2030   17.5543  -32.3186 H   0  0  0  0  0  0  0  0  0  0  0  0
   -6.0149   18.3946  -33.1380 H   0  0  0  0  0  0  0  0  0  0  0  0
   -7.4902   18.8416  -34.1167 H   0  0  0  0  0  0  0  0  0  0  0  0
   -7.1400   20.7930  -32.3340 H   0  0  0  0  0  0  0  0  0  0  0  0
   -4.6539   19.7905  -33.2764 H   0  0  0  0  0  0  0  0  0  0  0  0
   -5.0718   21.6114  -33.4526 H   0  0  0  0  0  0  0  0  0  0  0  0
   -5.5145   21.5342  -31.0509 H   0  0  0  0  0  0  0  0  0  0  0  0
   -4.4895   19.9637  -31.1502 H   0  0  0  0  0  0  0  0  0  0  0  0
   -3.4450   22.7410  -31.5140 H   0  0  0  0  0  0  0  0  0  0  0  0
   -2.4142   21.7767  -33.5569 H   0  0  0  0  0  0  0  0  0  0  0  0
   -0.6845   21.4768  -35.2919 H   0  0  0  0  0  0  0  0  0  0  0  0
    1.4821   20.4008  -34.7157 H   0  0  0  0  0  0  0  0  0  0  0  0
    1.8733   19.6481  -32.3705 H   0  0  0  0  0  0  0  0  0  0  0  0
    1.4661   19.2249  -28.8776 H   0  0  0  0  0  0  0  0  0  0  0  0
    1.4724   18.2105  -30.3600 H   0  0  0  0  0  0  0  0  0  0  0  0
    2.2976   19.8060  -30.3600 H   0  0  0  0  0  0  0  0  0  0  0  0
    0.4772   19.1683  -27.9195 H   0  0  0  0  0  0  0  0  0  0  0  0
   -1.1758   19.4918  -26.1096 H   0  0  0  0  0  0  0  0  0  0  0  0
   -3.3704   20.5703  -26.6431 H   0  0  0  0  0  0  0  0  0  0  0  0
   -3.8054   21.2779  -28.9643 H   0  0  0  0  0  0  0  0  0  0  0  0
  1  2  1  0
  2  3  1  0
  3  4  1  0
  4  5  1  0
  5  6  1  0
  5  7  1  0
  7  8  1  0
  8  9  1  0
  9 10  1  0
 10 11  1  0
 11 12  1  0
 12 13  1  0
 13 14  1  0
 14 15  1  0
 15 16  1  0
 16 17  1  0
 17 18  2  0
 18 19  1  0
 19 20  2  0
 20 21  1  0
 21 22  2  0
 22 23  1  0
 23 24  2  0
 24 25  1  0
 24 26  1  0
 26 27  2  0
 27 28  1  0
 28 29  2  0
 29 30  1  0
 30 31  2  0
 31 17  1  0
 23 18  1  0
 31 26  1  0
  1 32  1  0
  1 33  1  0
  1 34  1  0
  3 35  1  0
  3 36  1  0
  4 37  1  0
  4 38  1  0
  6 39  1  0
  6 40  1  0
  6 41  1  0
  7 42  1  0
  7 43  1  0
  8 44  1  0
  8 45  1  0
 10 46  1  0
 10 47  1  0
 11 48  1  0
 11 49  1  0
 12 50  1  0
 12 51  1  0
 13 52  1  0
 14 53  1  0
 14 54  1  0
 15 55  1  0
 15 56  1  0
 16 57  1  0
 19 58  1  0
 20 59  1  0
 21 60  1  0
 22 61  1  0
 25 62  1  0
 25 63  1  0
 25 64  1  0
 27 65  1  0
 28 66  1  0
 29 67  1  0
 30 68  1  0
M  CHG  1  24   1
M  END
>  <smiles>  (15) 
COCCN(C)CCOCCCNCCNc1c2ccccc2[n+](C)c2ccccc12

>  <score_type>  (15) 
oracle

>  <origin>  (15) 
adg

>  <m_score__min__energy>  (15) 
-8.75

>  <m_primary>  (15) 
energy

$$$$
16:0
     RDKit          3D

 68 70  0  0  0  0  0  0  0  0999 V2000
   -6.6080   25.2060  -29.7300 C   0  0  0  0  0  0  0  0  0  0  0  0
   -5.5210   26.0070  -30.4100 C   0  0  0  0  0  0  0  0  0  0  0  0
   -4.6060   25.0570  -31.0580 N   0  0  0  0  0  0  0  0  0  0  0  0
   -3.9840   24.2080  -30.0760 C   0  0  0  0  0  0  0  0  0  0  0  0
   -4.6420   22.8490  -30.0350 C   0  0  0  0  0  0  0  0  0  0  0  0
   -3.8840   21.8190  -30.8490 C   0  0  0  0  0  0  0  0  0  0  0  0
   -3.6590   22.3130  -32.2380 C   0  0  0  0  0  0  0  0  0  0  0  0
   -4.5960   21.7740  -33.2000 N   0  0  0  0  0  0  0  0  0  0  0  0
   -5.5980   20.8350  -32.9040 C   0  0  0  0  0  0  0  0  0  0  0  0
   -6.8150   21.3330  -32.4610 C   0  0  0  0  0  0  0  0  0  0  0  0
   -6.9690   22.7030  -32.3300 C   0  0  0  0  0  0  0  0  0  0  0  0
   -8.1400   23.2900  -31.8950 C   0  0  0  0  0  0  0  0  0  0  0  0
   -9.1800   22.4420  -31.5860 C   0  0  0  0  0  0  0  0  0  0  0  0
   -9.0470   21.0530  -31.7100 C   0  0  0  0  0  0  0  0  0  0  0  0
   -7.8650   20.4980  -32.1470 C   0  0  0  0  0  0  0  0  0  0  0  0
   -7.7430   19.1740  -32.2620 N   0  0  0  0  0  0  0  0  0  0  0  0
   -8.7770   18.2300  -31.9660 C   0  0  0  0  0  0  0  0  0  0  0  0
   -6.5570   18.6740  -32.6930 C   0  0  0  0  0  0  0  0  0  0  0  0
   -6.4190   17.2860  -32.8020 C   0  0  0  0  0  0  0  0  0  0  0  0
   -5.2420   16.7050  -33.2210 C   0  0  0  0  0  0  0  0  0  0  0  0
   -4.1930   17.5460  -33.5340 C   0  0  0  0  0  0  0  0  0  0  0  0
   -4.2600   18.9190  -33.4470 C   0  0  0  0  0  0  0  0  0  0  0  0
   -3.2570   19.7540  -33.7420 O   0  0  0  0  0  0  0  0  0  0  0  0
   -1.9670   19.6400  -34.1770 C   0  0  0  0  0  0  0  0  0  0  0  0
   -0.9500   20.6010  -33.6820 C   0  0  0  0  0  0  0  0  0  0  0  0
   -0.3970   20.1970  -32.3730 N   0  0  0  0  0  0  0  0  0  0  0  0
    1.0170   19.9740  -32.6200 C   0  0  0  0  0  0  0  0  0  0  0  0
   -0.9390   18.9170  -31.9690 C   0  0  0  0  0  0  0  0  0  0  0  0
   -0.5240   21.2210  -31.3820 C   0  0  0  0  0  0  0  0  0  0  0  0
   -5.4790   19.4700  -33.0170 C   0  0  0  0  0  0  0  0  0  0  0  0
   -6.4961   25.2885  -28.6388 H   0  0  0  0  0  0  0  0  0  0  0  0
   -7.5922   25.5964  -30.0282 H   0  0  0  0  0  0  0  0  0  0  0  0
   -6.5266   24.1503  -30.0282 H   0  0  0  0  0  0  0  0  0  0  0  0
   -5.9634   26.6748  -31.1638 H   0  0  0  0  0  0  0  0  0  0  0  0
   -4.9806   26.6239  -29.6769 H   0  0  0  0  0  0  0  0  0  0  0  0
   -3.9130   25.6550  -31.5800 H   0  0  0  0  0  0  0  0  0  0  0  0
   -2.9208   24.0846  -30.3299 H   0  0  0  0  0  0  0  0  0  0  0  0
   -4.0942   24.6788  -29.0880 H   0  0  0  0  0  0  0  0  0  0  0  0
   -4.6884   22.5096  -28.9897 H   0  0  0  0  0  0  0  0  0  0  0  0
   -5.6476   22.9483  -30.4696 H   0  0  0  0  0  0  0  0  0  0  0  0
   -2.9120   21.6247  -30.3721 H   0  0  0  0  0  0  0  0  0  0  0  0
   -4.4770   20.8936  -30.8924 H   0  0  0  0  0  0  0  0  0  0  0  0
   -3.7521   23.4090  -32.2373 H   0  0  0  0  0  0  0  0  0  0  0  0
   -2.6554   21.9804  -32.5417 H   0  0  0  0  0  0  0  0  0  0  0  0
   -4.5430   22.0990  -34.2120 H   0  0  0  0  0  0  0  0  0  0  0  0
   -6.1190   23.3533  -32.5843 H   0  0  0  0  0  0  0  0  0  0  0  0
   -8.2377   24.3815  -31.7998 H   0  0  0  0  0  0  0  0  0  0  0  0
  -10.1336   22.8634  -31.2350 H   0  0  0  0  0  0  0  0  0  0  0  0
   -9.8947   20.3996  -31.4559 H   0  0  0  0  0  0  0  0  0  0  0  0
   -8.8835   18.1328  -30.8755 H   0  0  0  0  0  0  0  0  0  0  0  0
   -9.7267   18.5791  -32.3975 H   0  0  0  0  0  0  0  0  0  0  0  0
   -8.5156   17.2525  -32.3975 H   0  0  0  0  0  0  0  0  0  0  0  0
   -7.2729   16.6414  -32.5464 H   0  0  0  0  0  0  0  0  0  0  0  0
   -5.1420   15.6126  -33.3030 H   0  0  0  0  0  0  0  0  0  0  0  0
   -3.2492   17.0936  -33.8724 H   0  0  0  0  0  0  0  0  0  0  0  0
   -1.6212   18.6337  -33.8982 H   0  0  0  0  0  0  0  0  0  0  0  0
   -2.0327   19.8586  -35.2531 H   0  0  0  0  0  0  0  0  0  0  0  0
   -0.1292   20.6568  -34.4122 H   0  0  0  0  0  0  0  0  0  0  0  0
   -1.4389   21.5784  -33.5570 H   0  0  0  0  0  0  0  0  0  0  0  0
    1.5481   19.8902  -31.6604 H   0  0  0  0  0  0  0  0  0  0  0  0
    1.1469   19.0443  -33.1933 H   0  0  0  0  0  0  0  0  0  0  0  0
    1.4267   20.8186  -33.1933 H   0  0  0  0  0  0  0  0  0  0  0  0
   -0.9634   18.8593  -30.8708 H   0  0  0  0  0  0  0  0  0  0  0  0
   -1.9598   18.8097  -32.3646 H   0  0  0  0  0  0  0  0  0  0  0  0
   -0.3057   18.1093  -32.3646 H   0  0  0  0  0  0  0  0  0  0  0  0
   -0.4681   20.7705  -30.3800 H   0  0  0  0  0  0  0  0  0  0  0  0
    0.2906   21.9504  -31.5020 H   0  0  0  0  0  0  0  0  0  0  0  0
   -1.4921   21.7294  -31.5020 H   0  0  0  0  0  0  0  0  0  0  0  0
  1  2  1  0
  2  3  1  0
  3  4  1  0
  4  5  1  0
  5  6  1  0
  6  7  1  0
  7  8  1  0
  8  9  1  0
  9 10  2  0
 10 11  1  0
 11 12  2  0
 12 13  1  0
 13 14  2  0
 14 15  1  0
 15 16  2  0
 16 17  1  0
 16 18  1  0
 18 19  2  0
 19 20  1  0
 20 21  2  0
 21 22  1  0
 22 23  1  0
 23 24  1  0
 24 25  1  0
 25 26  1  0
 26 27  1  0
 26 28  1  0
 26 29  1  0
 22 30  2  0
 30  9  1  0
 15 10  1  0
 30 18  1  0
  1 31  1  0
  1 32  1  0
  1 33  1  0
  2 34  1  0
  2 35  1  0
  3 36  1  0
  4 37  1  0
  4 38  1  0
  5 39  1  0
  5 40  1  0
  6 41  1  0
  6 42  1  0
  7 43  1  0
  7 44  1  0
  8 45  1  0
 11 46  1  0
 12 47  1  0
 13 48  1  0
 14 49  1  0
 17 50  1  0
 17 51  1  0
 17 52  1  0
 19 53  1  0
 20 54  1  0
 21 55  1  0
 24 56  1  0
 24 57  1  0
 25 58  1  0
 25 59  1  0
 27 60  1  0
 27 61  1  0
 27 62  1  0
 28 63  1  0
 28 64  1  0
 28 65  1  0
 29 66  1  0
 29 67  1  0
 29 68  1  0
M  CHG  2  16   1  26   1
M  END
>  <smiles>  (16) 
CCNCCCCNc1c2ccccc2[n+](C)c2cccc(OCC[N+](C)(C)C)c12

>  <score_type>  (16) 
oracle

>  <origin>  (16) 
adg

>  <m_score__min__energy>  (16) 
-8.4600000000000009

>  <m_primary>  (16) 
energy

$$$$
