0:0
     RDKit          3D

 43 45  0  0  0  0  0  0  0  0999 V2000
   -0.6030   22.1130  -30.1500 O   0  0  0  0  0  0  0  0  0  0  0  0
   -1.8050   22.1170  -29.7710 C   0  0  0  0  0  0  0  0  0  0  0  0
   -2.1600   22.6800  -28.4230 C   0  0  0  0  0  0  0  0  0  0  0  0
   -2.7390   24.0990  -28.5370 C   0  0  0  0  0  0  0  0  0  0  0  0
   -3.8850   24.1410  -29.4990 C   0  0  0  0  0  0  0  0  0  0  0  0
   -4.9220   23.2830  -29.4740 N   0  0  0  0  0  0  0  0  0  0  0  0
   -5.5960   23.6510  -30.5850 C   0  0  0  0  0  0  0  0  0  0  0  0
   -6.8110   22.9680  -31.0760 C   0  0  0  0  0  0  0  0  0  0  0  0
   -7.8990   23.7160  -31.5620 C   0  0  0  0  0  0  0  0  0  0  0  0
   -9.0370   23.0710  -32.0500 C   0  0  0  0  0  0  0  0  0  0  0  0
   -9.1020   21.6760  -32.0620 C   0  0  0  0  0  0  0  0  0  0  0  0
   -8.0260   20.9220  -31.5840 C   0  0  0  0  0  0  0  0  0  0  0  0
   -8.1180   19.0120  -31.5940 Br  0  0  0  0  0  0  0  0  0  0  0  0
   -6.8840   21.5650  -31.0940 C   0  0  0  0  0  0  0  0  0  0  0  0
   -5.0030   24.6750  -31.2300 N   0  0  0  0  0  0  0  0  0  0  0  0
   -3.9460   24.9460  -30.5290 O   0  0  0  0  0  0  0  0  0  0  0  0
   -2.8420   21.6520  -30.6450 N   0  0  0  0  0  0  0  0  0  0  0  0
   -2.6030   21.4250  -32.0700 C   0  0  0  0  0  0  0  0  0  0  0  0
   -3.8950   21.5670  -32.8860 C   0  0  0  0  0  0  0  0  0  0  0  0
   -4.3460   20.2520  -33.4680 C   0  0  0  0  0  0  0  0  0  0  0  0
   -5.6890   20.0590  -33.8380 C   0  0  0  0  0  0  0  0  0  0  0  0
   -6.1060   18.8320  -34.3630 C   0  0  0  0  0  0  0  0  0  0  0  0
   -5.1870   17.7910  -34.5220 C   0  0  0  0  0  0  0  0  0  0  0  0
   -3.8500   17.9740  -34.1570 C   0  0  0  0  0  0  0  0  0  0  0  0
   -3.4290   19.1990  -33.6290 C   0  0  0  0  0  0  0  0  0  0  0  0
   -2.9072   22.0266  -27.9488 H   0  0  0  0  0  0  0  0  0  0  0  0
   -1.2422   22.7305  -27.8188 H   0  0  0  0  0  0  0  0  0  0  0  0
   -3.0901   24.4238  -27.5464 H   0  0  0  0  0  0  0  0  0  0  0  0
   -1.9488   24.7686  -28.9075 H   0  0  0  0  0  0  0  0  0  0  0  0
   -7.8528   24.8150  -31.5575 H   0  0  0  0  0  0  0  0  0  0  0  0
   -9.8845   23.6630  -32.4259 H   0  0  0  0  0  0  0  0  0  0  0  0
   -9.9997   21.1705  -32.4475 H   0  0  0  0  0  0  0  0  0  0  0  0
   -6.0384   20.9686  -30.7207 H   0  0  0  0  0  0  0  0  0  0  0  0
   -3.8140   21.6030  -30.2690 H   0  0  0  0  0  0  0  0  0  0  0  0
   -1.8693   22.1607  -32.4311 H   0  0  0  0  0  0  0  0  0  0  0  0
   -2.2247   20.4000  -32.1978 H   0  0  0  0  0  0  0  0  0  0  0  0
   -4.6880   21.9549  -32.2298 H   0  0  0  0  0  0  0  0  0  0  0  0
   -3.6946   22.2554  -33.7202 H   0  0  0  0  0  0  0  0  0  0  0  0
   -6.4143   20.8766  -33.7139 H   0  0  0  0  0  0  0  0  0  0  0  0
   -7.1576   18.6860  -34.6509 H   0  0  0  0  0  0  0  0  0  0  0  0
   -5.5163   16.8261  -34.9350 H   0  0  0  0  0  0  0  0  0  0  0  0
   -3.1283   17.1538  -34.2851 H   0  0  0  0  0  0  0  0  0  0  0  0
   -2.3772   19.3387  -33.3389 H   0  0  0  0  0  0  0  0  0  0  0  0
  1  2  2  0
  2  3  1  0
  3  4  1  0
  4  5  1  0
  5  6  2  0
  6  7  1  0
  7  8  1  0
  8  9  2  0
  9 10  1  0
 10 11  2  0
 11 12  1  0
 12 13  1  0
 12 14  2  0
  7 15  2  0
 15 16  1  0
  2 17  1  0
 17 18  1  0
 18 19  1  0
 19 20  1  0
 20 21  2  0
 21 22  1  0
 22 23  2  0
 23 24  1  0
 24 25  2  0
 16  5  1  0
 25 20  1  0
 14  8  1  0
  3 26  1  0
  3 27  1  0
  4 28  1  0
  4 29  1  0
  9 30  1  0
 10 31  1  0
 11 32  1  0
 14 33  1  0
 17 34  1  0
 18 35  1  0
 18 36  1  0
 19 37  1  0
 19 38  1  0
 21 39  1  0
 22 40  1  0
 23 41  1  0
 24 42  1  0
 25 43  1  0
M  END
>  <UniqueID>  (1) 
1

>  <SMILES>  (1) 
O=C(CCc1nc(-c2cccc(Br)c2)no1)NCCc1ccccc1

>  <Energy>  (1) 
67.35132815630566

>  <Genealogy>  (1) 
O=C(CCc1nc(-c2cccc(Br)c2)no1)NCCc1ccccc1 (3D coordinates assigned)
O=C(CCc1nc(-c2cccc(Br)c2)no1)NCCc1ccccc1 (optimized conformer: 67.35132815630566 kcal/mol)

>  <smiles>  (1) 
O=C(CCc1nc(-c2cccc(Br)c2)no1)NCCc1ccccc1

>  <score_type>  (1) 
oracle

>  <origin>  (1) 
adg

>  <m_score__min__energy>  (1) 
-9.2699999999999996

>  <m_primary>  (1) 
energy

$$$$
1:0
     RDKit          3D

 57 62  0  0  0  0  0  0  0  0999 V2000
   -0.4790   22.7150  -25.1780 C   0  0  0  0  0  0  0  0  0  0  0  0
    0.5350   23.5610  -25.9040 C   0  0  0  0  0  0  0  0  0  0  0  0
    1.3230   24.4790  -25.1860 C   0  0  0  0  0  0  0  0  0  0  0  0
    2.2210   25.3190  -25.8560 C   0  0  0  0  0  0  0  0  0  0  0  0
    2.3360   25.2590  -27.2460 C   0  0  0  0  0  0  0  0  0  0  0  0
    1.5490   24.3610  -27.9750 C   0  0  0  0  0  0  0  0  0  0  0  0
    0.6650   23.4960  -27.3120 C   0  0  0  0  0  0  0  0  0  0  0  0
   -0.1440   22.5920  -28.0850 N   0  0  0  0  0  0  0  0  0  0  0  0
    0.0910   21.2810  -28.2360 C   0  0  0  0  0  0  0  0  0  0  0  0
    1.0970   20.5740  -27.6630 N   0  0  0  0  0  0  0  0  0  0  0  0
    1.1450   19.2250  -27.8510 C   0  0  0  0  0  0  0  0  0  0  0  0
    0.1300   18.5710  -28.5750 C   0  0  0  0  0  0  0  0  0  0  0  0
   -0.9170   19.3100  -29.1450 C   0  0  0  0  0  0  0  0  0  0  0  0
   -0.8720   20.7060  -29.0130 C   0  0  0  0  0  0  0  0  0  0  0  0
   -1.7240   21.6800  -29.4330 N   0  0  0  0  0  0  0  0  0  0  0  0
   -2.7500   21.7010  -30.3480 C   0  0  0  0  0  0  0  0  0  0  0  0
   -3.0260   20.6260  -31.2200 C   0  0  0  0  0  0  0  0  0  0  0  0
   -4.1000   20.6810  -32.1240 C   0  0  0  0  0  0  0  0  0  0  0  0
   -4.3400   19.5810  -33.0220 N   0  0  0  0  0  0  0  0  0  0  0  0
   -3.2860   18.8110  -33.6640 C   0  0  0  0  0  0  0  0  0  0  0  0
   -3.9870   17.6220  -34.3070 C   0  0  0  0  0  0  0  0  0  0  0  0
   -5.4600   18.0350  -34.4290 C   0  0  1  0  0  0  0  0  0  0  0  0
   -6.3530   16.8960  -34.2190 N   0  0  0  0  0  0  0  0  0  0  0  0
   -5.6710   19.1070  -33.3620 C   0  0  0  0  0  0  0  0  0  0  0  0
   -4.8970   21.8280  -32.1770 C   0  0  0  0  0  0  0  0  0  0  0  0
   -5.9090   21.9270  -33.0740 F   0  0  0  0  0  0  0  0  0  0  0  0
   -4.5900   22.9280  -31.3840 C   0  0  0  0  0  0  0  0  0  0  0  0
   -3.4990   22.8950  -30.4970 C   0  0  0  0  0  0  0  0  0  0  0  0
   -3.1100   24.0550  -29.7940 C   0  0  0  0  0  0  0  0  0  0  0  0
   -3.7540   25.1380  -29.9500 O   0  0  0  0  0  0  0  0  0  0  0  0
   -1.9890   24.0340  -28.9370 C   0  0  0  0  0  0  0  0  0  0  0  0
   -1.6060   25.2640  -28.2170 C   0  0  0  0  0  0  0  0  0  0  0  0
   -1.2290   26.4270  -28.9560 N   0  0  0  0  0  0  0  0  0  0  0  0
   -1.6350   25.3030  -26.9580 O   0  0  0  0  0  0  0  0  0  0  0  0
   -1.2870   22.8100  -28.8020 C   0  0  0  0  0  0  0  0  0  0  0  0
   -0.3421   22.8292  -24.0925 H   0  0  0  0  0  0  0  0  0  0  0  0
   -1.4929   23.0388  -25.4558 H   0  0  0  0  0  0  0  0  0  0  0  0
   -0.3422   21.6595  -25.4558 H   0  0  0  0  0  0  0  0  0  0  0  0
    1.2331   24.5373  -24.0912 H   0  0  0  0  0  0  0  0  0  0  0  0
    2.8379   26.0286  -25.2851 H   0  0  0  0  0  0  0  0  0  0  0  0
    3.0455   25.9178  -27.7681 H   0  0  0  0  0  0  0  0  0  0  0  0
    1.6234   24.3329  -29.0721 H   0  0  0  0  0  0  0  0  0  0  0  0
    1.9813   18.6441  -27.4348 H   0  0  0  0  0  0  0  0  0  0  0  0
    0.1582   17.4778  -28.6939 H   0  0  0  0  0  0  0  0  0  0  0  0
   -1.7427   18.8135  -29.6758 H   0  0  0  0  0  0  0  0  0  0  0  0
   -2.3891   19.7296  -31.1913 H   0  0  0  0  0  0  0  0  0  0  0  0
   -2.7777   19.4173  -34.4282 H   0  0  0  0  0  0  0  0  0  0  0  0
   -2.5169   18.4922  -32.9451 H   0  0  0  0  0  0  0  0  0  0  0  0
   -3.5616   17.4154  -35.3002 H   0  0  0  0  0  0  0  0  0  0  0  0
   -3.8671   16.7051  -33.7113 H   0  0  0  0  0  0  0  0  0  0  0  0
   -5.6906   18.4129  -35.4360 H   0  0  0  0  0  0  0  0  0  0  0  0
   -6.8700   16.7250  -35.1120 H   0  0  0  0  0  0  0  0  0  0  0  0
   -5.7660   16.0440  -34.0490 H   0  0  0  0  0  0  0  0  0  0  0  0
   -6.2828   19.9303  -33.7594 H   0  0  0  0  0  0  0  0  0  0  0  0
   -6.2007   18.7105  -32.4832 H   0  0  0  0  0  0  0  0  0  0  0  0
   -5.2081   23.8354  -31.4512 H   0  0  0  0  0  0  0  0  0  0  0  0
   -0.9200   26.3570  -29.9550 H   0  0  0  0  0  0  0  0  0  0  0  0
  1  2  1  0
  2  3  2  0
  3  4  1  0
  4  5  2  0
  5  6  1  0
  6  7  2  0
  7  8  1  0
  8  9  1  0
  9 10  2  0
 10 11  1  0
 11 12  2  0
 12 13  1  0
 13 14  2  0
 14 15  1  0
 15 16  1  0
 16 17  2  0
 17 18  1  0
 18 19  1  0
 19 20  1  0
 20 21  1  0
 21 22  1  0
 22 23  1  0
 22 24  1  0
 18 25  2  0
 25 26  1  0
 25 27  1  0
 27 28  2  0
 28 29  1  0
 29 30  2  0
 29 31  1  0
 31 32  1  0
 32 33  1  0
 32 34  2  0
 31 35  2  0
  7  2  1  0
 35  8  1  0
 14  9  1  0
 35 15  1  0
 28 16  1  0
 24 19  1  0
  1 36  1  0
  1 37  1  0
  1 38  1  0
  3 39  1  0
  4 40  1  0
  5 41  1  0
  6 42  1  0
 11 43  1  0
 12 44  1  0
 13 45  1  0
 17 46  1  0
 20 47  1  0
 20 48  1  0
 21 49  1  0
 21 50  1  0
 22 51  1  6
 23 52  1  0
 23 53  1  0
 24 54  1  0
 24 55  1  0
 27 56  1  0
 33 57  1  0
M  CHG  1  33  -1
M  END
>  <UniqueID>  (2) 
2

>  <SMILES>  (2) 
Cc1ccccc1-n1c2ncccc2n2c3cc(N4CC[C@@H](N)C4)c(F)cc3c(=O)c(C([NH-])=O)c12

>  <Energy>  (2) 
147.5528710416116

>  <Genealogy>  (2) 
Cc1ccccc1-n1c2ncccc2n2c3cc(N4CCC(N)C4)c(F)cc3c(=O)c(C([NH-])=O)c12 (protonated)
Cc1ccccc1-n1c2ncccc2n2c3cc(N4CC[C@@H](N)C4)c(F)cc3c(=O)c(C([NH-])=O)c12 (chirality)
Cc1ccccc1-n1c2ncccc2n2c3cc(N4CC[C@@H](N)C4)c(F)cc3c(=O)c(C([NH-])=O)c12 (3D coordinates assigned)
Cc1ccccc1-n1c2ncccc2n2c3cc(N4CC[C@@H](N)C4)c(F)cc3c(=O)c(C([NH-])=O)c12 (nonaromatic ring conformer: 147.5528710416116 kcal/mol)

>  <smiles>  (2) 
Cc1ccccc1-n1c2ncccc2n2c3cc(N4CCC(N)C4)c(F)cc3c(=O)c(C(N)=O)c12

>  <score_type>  (2) 
oracle

>  <origin>  (2) 
adg

>  <m_score__min__energy>  (2) 
-10.48

>  <m_primary>  (2) 
energy

$$$$
2:0
     RDKit          3D

 34 37  0  0  0  0  0  0  0  0999 V2000
   -0.8550   26.5770  -27.8920 C   0  0  0  0  0  0  0  0  0  0  0  0
   -1.5100   25.9700  -28.9640 O   0  0  0  0  0  0  0  0  0  0  0  0
   -1.8080   24.6460  -29.1200 C   0  0  0  0  0  0  0  0  0  0  0  0
   -0.9660   23.6040  -28.7500 C   0  0  0  0  0  0  0  0  0  0  0  0
   -1.3100   22.2790  -28.9270 C   0  0  0  0  0  0  0  0  0  0  0  0
   -2.5340   21.9370  -29.4940 C   0  0  0  0  0  0  0  0  0  0  0  0
   -3.3740   22.9600  -29.8640 C   0  0  0  0  0  0  0  0  0  0  0  0
   -3.0380   24.2960  -29.6890 C   0  0  0  0  0  0  0  0  0  0  0  0
   -3.8650   25.2750  -30.0540 N   0  0  0  0  0  0  0  0  0  0  0  0
   -5.0430   25.0010  -30.5990 C   0  0  0  0  0  0  0  0  0  0  0  0
   -5.4290   23.6830  -30.7950 C   0  0  0  0  0  0  0  0  0  0  0  0
   -6.5730   23.1740  -31.3290 N   0  0  0  0  0  0  0  0  0  0  0  0
   -6.4300   21.8390  -31.2830 C   0  0  0  0  0  0  0  0  0  0  0  0
   -7.4840   20.9350  -31.7800 C   0  0  0  0  0  0  0  0  0  0  0  0
   -8.7730   21.3620  -31.8670 C   0  0  0  0  0  0  0  0  0  0  0  0
   -9.7970   20.5520  -32.3270 C   0  0  0  0  0  0  0  0  0  0  0  0
   -9.4930   19.2570  -32.7130 C   0  0  0  0  0  0  0  0  0  0  0  0
   -8.1790   18.7930  -32.6340 C   0  0  0  0  0  0  0  0  0  0  0  0
   -7.1940   19.6470  -32.1660 C   0  0  0  0  0  0  0  0  0  0  0  0
   -5.2550   21.5210  -30.7490 N   0  0  0  0  0  0  0  0  0  0  0  0
   -4.5900   22.6430  -30.4270 C   0  0  0  0  0  0  0  0  0  0  0  0
   -1.2673   26.1949  -26.9465 H   0  0  0  0  0  0  0  0  0  0  0  0
    0.2198   26.3486  -27.9422 H   0  0  0  0  0  0  0  0  0  0  0  0
   -1.0011   27.6661  -27.9422 H   0  0  0  0  0  0  0  0  0  0  0  0
    0.0088   23.8436  -28.3003 H   0  0  0  0  0  0  0  0  0  0  0  0
   -0.6115   21.4876  -28.6176 H   0  0  0  0  0  0  0  0  0  0  0  0
   -2.8192   20.8848  -29.6409 H   0  0  0  0  0  0  0  0  0  0  0  0
   -5.7147   25.8200  -30.8959 H   0  0  0  0  0  0  0  0  0  0  0  0
   -7.3610   23.7600  -31.6810 H   0  0  0  0  0  0  0  0  0  0  0  0
   -9.0107   22.3911  -31.5598 H   0  0  0  0  0  0  0  0  0  0  0  0
  -10.8290   20.9284  -32.3847 H   0  0  0  0  0  0  0  0  0  0  0  0
  -10.2885   18.5931  -33.0824 H   0  0  0  0  0  0  0  0  0  0  0  0
   -7.9297   17.7658  -32.9385 H   0  0  0  0  0  0  0  0  0  0  0  0
   -6.1565   19.2871  -32.1016 H   0  0  0  0  0  0  0  0  0  0  0  0
  1  2  1  0
  2  3  1  0
  3  4  2  0
  4  5  1  0
  5  6  2  0
  6  7  1  0
  7  8  2  0
  8  9  1  0
  9 10  2  0
 10 11  1  0
 11 12  1  0
 12 13  1  0
 13 14  1  0
 14 15  2  0
 15 16  1  0
 16 17  2  0
 17 18  1  0
 18 19  2  0
 13 20  2  0
 20 21  1  0
  8  3  1  0
 21 11  2  0
 21  7  1  0
 19 14  1  0
  1 22  1  0
  1 23  1  0
  1 24  1  0
  4 25  1  0
  5 26  1  0
  6 27  1  0
 10 28  1  0
 12 29  1  0
 15 30  1  0
 16 31  1  0
 17 32  1  0
 18 33  1  0
 19 34  1  0
M  END
>  <smiles>  (3) 
COc1cccc2c1ncc1[nH]c(-c3ccccc3)nc12

>  <score_type>  (3) 
oracle

>  <origin>  (3) 
adg

>  <m_score__min__energy>  (3) 
-8.2400000000000002

>  <m_primary>  (3) 
energy

$$$$
3:0
     RDKit          3D

 31 32  0  0  0  0  0  0  0  0999 V2000
   -4.9880   25.0840  -30.4880 C   0  0  0  0  0  0  0  0  0  0  0  0
   -3.5780   24.9800  -30.3210 O   0  0  0  0  0  0  0  0  0  0  0  0
   -2.9480   24.1770  -29.3550 C   0  0  0  0  0  0  0  0  0  0  0  0
   -3.3640   22.8570  -29.0950 C   0  0  0  0  0  0  0  0  0  0  0  0
   -2.7130   22.0900  -28.1270 C   0  0  0  0  0  0  0  0  0  0  0  0
   -3.1210   20.8170  -27.8830 N   0  0  0  0  0  0  0  0  0  0  0  0
   -2.4980   20.0470  -26.9520 C   0  0  0  0  0  0  0  0  0  0  0  0
   -2.9900   18.6650  -26.6760 C   0  0  0  0  0  0  0  0  0  0  0  0
   -1.4640   20.5570  -26.2320 N   0  0  0  0  0  0  0  0  0  0  0  0
   -1.0130   21.8260  -26.4340 C   0  0  0  0  0  0  0  0  0  0  0  0
    0.0590   22.3210  -25.6830 O   0  0  0  0  0  0  0  0  0  0  0  0
   -0.1130   22.9870  -24.4390 C   0  0  0  0  0  0  0  0  0  0  0  0
   -1.6350   22.6330  -27.4020 C   0  0  0  0  0  0  0  0  0  0  0  0
   -1.2170   23.9480  -27.6590 C   0  0  0  0  0  0  0  0  0  0  0  0
   -1.8710   24.7240  -28.6360 C   0  0  0  0  0  0  0  0  0  0  0  0
   -1.4840   26.0420  -28.9220 O   0  0  0  0  0  0  0  0  0  0  0  0
   -0.8460   26.9160  -27.9950 C   0  0  0  0  0  0  0  0  0  0  0  0
   -5.4725   25.1197  -29.5011 H   0  0  0  0  0  0  0  0  0  0  0  0
   -5.2244   26.0020  -31.0460 H   0  0  0  0  0  0  0  0  0  0  0  0
   -5.3566   24.2106  -31.0460 H   0  0  0  0  0  0  0  0  0  0  0  0
   -4.2063   22.4280  -29.6576 H   0  0  0  0  0  0  0  0  0  0  0  0
   -3.0465   18.5062  -25.5890 H   0  0  0  0  0  0  0  0  0  0  0  0
   -3.9891   18.5364  -27.1178 H   0  0  0  0  0  0  0  0  0  0  0  0
   -2.2969   17.9340  -27.1178 H   0  0  0  0  0  0  0  0  0  0  0  0
    0.0696   22.2800  -23.6163 H   0  0  0  0  0  0  0  0  0  0  0  0
    0.5988   23.8228  -24.3690 H   0  0  0  0  0  0  0  0  0  0  0  0
   -1.1405   23.3736  -24.3690 H   0  0  0  0  0  0  0  0  0  0  0  0
   -0.3746   24.3747  -27.0948 H   0  0  0  0  0  0  0  0  0  0  0  0
   -1.0796   26.5959  -26.9689 H   0  0  0  0  0  0  0  0  0  0  0  0
    0.2425   26.8838  -28.1503 H   0  0  0  0  0  0  0  0  0  0  0  0
   -1.2083   27.9429  -28.1503 H   0  0  0  0  0  0  0  0  0  0  0  0
  1  2  1  0
  2  3  1  0
  3  4  2  0
  4  5  1  0
  5  6  2  0
  6  7  1  0
  7  8  1  0
  7  9  2  0
  9 10  1  0
 10 11  1  0
 11 12  1  0
 10 13  2  0
 13 14  1  0
 14 15  2  0
 15 16  1  0
 16 17  1  0
 15  3  1  0
 13  5  1  0
  1 18  1  0
  1 19  1  0
  1 20  1  0
  4 21  1  0
  8 22  1  0
  8 23  1  0
  8 24  1  0
 12 25  1  0
 12 26  1  0
 12 27  1  0
 14 28  1  0
 17 29  1  0
 17 30  1  0
 17 31  1  0
M  END
>  <UniqueID>  (4) 
3

>  <SMILES>  (4) 
COc1cc2nc(C)nc(OC)c2cc1OC

>  <Energy>  (4) 
30.48004876334459

>  <Genealogy>  (4) 
COc1cc2nc(C)nc(OC)c2cc1OC (3D coordinates assigned)
COc1cc2nc(C)nc(OC)c2cc1OC (optimized conformer: 30.48004876334459 kcal/mol)

>  <smiles>  (4) 
COc1cc2nc(C)nc(OC)c2cc1OC

>  <score_type>  (4) 
oracle

>  <origin>  (4) 
adg

>  <m_score__min__energy>  (4) 
-6.1900000000000004

>  <m_primary>  (4) 
energy

$$$$
4:0
     RDKit          3D

 44 47  0  0  0  0  0  0  0  0999 V2000
   -1.5720   26.0600  -27.2590 C   0  0  0  0  0  0  0  0  0  0  0  0
   -1.8880   25.6310  -28.5800 O   0  0  0  0  0  0  0  0  0  0  0  0
   -1.7220   24.3180  -29.0470 C   0  0  0  0  0  0  0  0  0  0  0  0
   -0.6970   23.4760  -28.5590 C   0  0  0  0  0  0  0  0  0  0  0  0
   -0.5990   22.1860  -29.0740 C   0  0  0  0  0  0  0  0  0  0  0  0
   -1.4600   21.7150  -30.0320 C   0  0  0  0  0  0  0  0  0  0  0  0
   -2.4820   22.5220  -30.5310 C   0  0  0  0  0  0  0  0  0  0  0  0
   -2.6180   23.8390  -30.0340 C   0  0  0  0  0  0  0  0  0  0  0  0
   -3.6230   24.7040  -30.4940 O   0  0  0  0  0  0  0  0  0  0  0  0
   -4.9830   24.6520  -30.0750 C   0  0  0  0  0  0  0  0  0  0  0  0
   -1.1070   20.3040  -30.4290 C   0  0  1  0  0  0  0  0  0  0  0  0
   -0.6530   20.2530  -31.9060 C   0  0  0  0  0  0  0  0  0  0  0  0
    0.3770   19.2300  -32.2190 N   0  0  1  0  0  0  0  0  0  0  0  0
    1.7450   19.6820  -31.8990 C   0  0  0  0  0  0  0  0  0  0  0  0
    0.0900   17.9280  -31.6490 C   0  0  0  0  0  0  0  0  0  0  0  0
   -0.4060   17.0320  -32.3880 O   0  0  0  0  0  0  0  0  0  0  0  0
    0.3690   17.6030  -30.2250 C   0  0  0  0  0  0  0  0  0  0  0  0
    0.6530   16.2670  -29.8860 C   0  0  0  0  0  0  0  0  0  0  0  0
    0.9380   15.9120  -28.5680 C   0  0  0  0  0  0  0  0  0  0  0  0
    0.9290   16.8800  -27.5670 C   0  0  0  0  0  0  0  0  0  0  0  0
    0.6350   18.2080  -27.8800 C   0  0  0  0  0  0  0  0  0  0  0  0
    0.3600   18.5920  -29.2080 C   0  0  0  0  0  0  0  0  0  0  0  0
   -0.0120   19.9530  -29.5130 N   0  0  0  0  0  0  0  0  0  0  0  0
    0.3170   21.1220  -28.7560 C   0  0  0  0  0  0  0  0  0  0  0  0
    1.3050   21.2200  -27.9820 O   0  0  0  0  0  0  0  0  0  0  0  0
   -2.0611   25.3960  -26.5310 H   0  0  0  0  0  0  0  0  0  0  0  0
   -0.4823   26.0250  -27.1129 H   0  0  0  0  0  0  0  0  0  0  0  0
   -1.9286   27.0903  -27.1129 H   0  0  0  0  0  0  0  0  0  0  0  0
    0.0061   23.8311  -27.7912 H   0  0  0  0  0  0  0  0  0  0  0  0
   -3.1712   22.1404  -31.2987 H   0  0  0  0  0  0  0  0  0  0  0  0
   -5.0283   24.6503  -28.9759 H   0  0  0  0  0  0  0  0  0  0  0  0
   -5.5200   25.5303  -30.4627 H   0  0  0  0  0  0  0  0  0  0  0  0
   -5.4513   23.7353  -30.4627 H   0  0  0  0  0  0  0  0  0  0  0  0
   -1.9534   19.6052  -30.3564 H   0  0  0  0  0  0  0  0  0  0  0  0
   -1.5374   20.0455  -32.5263 H   0  0  0  0  0  0  0  0  0  0  0  0
   -0.1868   21.2273  -32.1144 H   0  0  0  0  0  0  0  0  0  0  0  0
    0.3680   19.1140  -33.2620 H   0  0  0  0  0  0  0  0  0  0  0  0
    1.8714   19.7237  -30.8071 H   0  0  0  0  0  0  0  0  0  0  0  0
    2.4734   18.9768  -32.3257 H   0  0  0  0  0  0  0  0  0  0  0  0
    1.9099   20.6824  -32.3257 H   0  0  0  0  0  0  0  0  0  0  0  0
    0.6501   15.4945  -30.6691 H   0  0  0  0  0  0  0  0  0  0  0  0
    1.1702   14.8661  -28.3187 H   0  0  0  0  0  0  0  0  0  0  0  0
    1.1540   16.5976  -26.5279 H   0  0  0  0  0  0  0  0  0  0  0  0
    0.6177   18.9638  -27.0809 H   0  0  0  0  0  0  0  0  0  0  0  0
  1  2  1  0
  2  3  1  0
  3  4  2  0
  4  5  1  0
  5  6  2  0
  6  7  1  0
  7  8  2  0
  8  9  1  0
  9 10  1  0
  6 11  1  0
 11 12  1  0
 12 13  1  0
 13 14  1  0
 13 15  1  0
 15 16  2  0
 15 17  1  0
 17 18  2  0
 18 19  1  0
 19 20  2  0
 20 21  1  0
 21 22  2  0
 22 23  1  0
 23 24  1  0
 24 25  2  0
  8  3  1  0
 23 11  1  0
 24  5  1  0
 22 17  1  0
  1 26  1  0
  1 27  1  0
  1 28  1  0
  4 29  1  0
  7 30  1  0
 10 31  1  0
 10 32  1  0
 10 33  1  0
 11 34  1  6
 12 35  1  0
 12 36  1  0
 13 37  1  6
 14 38  1  0
 14 39  1  0
 14 40  1  0
 18 41  1  0
 19 42  1  0
 20 43  1  0
 21 44  1  0
M  CHG  1  13   1
M  END
>  <UniqueID>  (5) 
4

>  <SMILES>  (5) 
COc1cc2c(cc1OC)[C@H]1C[N@@H+](C)C(=O)c3ccccc3N1C2=O

>  <Energy>  (5) 
87.14962901185643

>  <Genealogy>  (5) 
COc1cc2c(cc1OC)C1C[NH+](C)C(=O)c3ccccc3N1C2=O (protonated)
COc1cc2c(cc1OC)[C@H]1C[N@@H+](C)C(=O)c3ccccc3N1C2=O (chirality)
COc1cc2c(cc1OC)[C@H]1C[N@@H+](C)C(=O)c3ccccc3N1C2=O (3D coordinates assigned)
COc1cc2c(cc1OC)[C@H]1C[N@@H+](C)C(=O)c3ccccc3N1C2=O (nonaromatic ring conformer: 87.14962901185643 kcal/mol)

>  <smiles>  (5) 
COc1cc2c(cc1OC)C1CN(C)C(=O)c3ccccc3N1C2=O

>  <score_type>  (5) 
oracle

>  <origin>  (5) 
adg

>  <m_score__min__energy>  (5) 
-5.5300000000000002

>  <m_primary>  (5) 
energy

$$$$
5:0
     RDKit          3D

 45 47  0  0  0  0  0  0  0  0999 V2000
   -5.7270   16.1200  -34.2090 C   0  0  0  0  0  0  0  0  0  0  0  0
   -5.0730   17.2700  -34.7380 O   0  0  0  0  0  0  0  0  0  0  0  0
   -4.9270   18.4850  -34.0510 C   0  0  0  0  0  0  0  0  0  0  0  0
   -3.6710   19.0430  -33.7710 C   0  0  0  0  0  0  0  0  0  0  0  0
   -3.5840   20.2920  -33.1610 C   0  0  0  0  0  0  0  0  0  0  0  0
   -4.7450   20.9800  -32.7780 C   0  0  0  0  0  0  0  0  0  0  0  0
   -4.6390   22.2860  -32.2980 C   0  0  0  0  0  0  0  0  0  0  0  0
   -5.7790   23.0440  -32.0170 C   0  0  0  0  0  0  0  0  0  0  0  0
   -5.6280   24.4070  -31.5770 N   0  0  0  0  0  0  0  0  0  0  0  0
   -5.6160   24.7880  -30.1640 C   0  0  0  0  0  0  0  0  0  0  0  0
   -4.3570   24.2540  -29.4590 C   0  0  0  0  0  0  0  0  0  0  0  0
   -4.6150   23.7520  -28.0860 N   0  0  0  0  0  0  0  0  0  0  0  0
   -4.2080   22.3390  -27.9910 C   0  0  0  0  0  0  0  0  0  0  0  0
   -3.8990   24.5430  -27.0670 C   0  0  0  0  0  0  0  0  0  0  0  0
   -7.0560   22.4400  -32.0990 C   0  0  0  0  0  0  0  0  0  0  0  0
   -8.2210   23.1910  -31.8430 C   0  0  0  0  0  0  0  0  0  0  0  0
   -9.4710   22.5830  -31.8230 C   0  0  0  0  0  0  0  0  0  0  0  0
   -9.5770   21.2100  -31.9890 C   0  0  0  0  0  0  0  0  0  0  0  0
   -8.4480   20.4310  -32.2560 C   0  0  0  0  0  0  0  0  0  0  0  0
   -8.7090   18.5390  -32.0020 Br  0  0  0  0  0  0  0  0  0  0  0  0
   -7.1770   21.0570  -32.4430 C   0  0  0  0  0  0  0  0  0  0  0  0
   -6.0180   20.3730  -32.9250 C   0  0  0  0  0  0  0  0  0  0  0  0
   -6.0840   19.1610  -33.6490 C   0  0  0  0  0  0  0  0  0  0  0  0
   -5.7050   16.1588  -33.1099 H   0  0  0  0  0  0  0  0  0  0  0  0
   -6.7712   16.1007  -34.5543 H   0  0  0  0  0  0  0  0  0  0  0  0
   -5.2098   15.2127  -34.5543 H   0  0  0  0  0  0  0  0  0  0  0  0
   -2.7546   18.4940  -34.0332 H   0  0  0  0  0  0  0  0  0  0  0  0
   -2.5973   20.7425  -32.9781 H   0  0  0  0  0  0  0  0  0  0  0  0
   -3.6433   22.7254  -32.1384 H   0  0  0  0  0  0  0  0  0  0  0  0
   -5.6470   25.1730  -32.2880 H   0  0  0  0  0  0  0  0  0  0  0  0
   -5.6331   25.8852  -30.0872 H   0  0  0  0  0  0  0  0  0  0  0  0
   -6.5012   24.3535  -29.6766 H   0  0  0  0  0  0  0  0  0  0  0  0
   -3.9450   23.4296  -30.0594 H   0  0  0  0  0  0  0  0  0  0  0  0
   -3.6549   25.0960  -29.3690 H   0  0  0  0  0  0  0  0  0  0  0  0
   -5.6400   23.7960  -27.8810 H   0  0  0  0  0  0  0  0  0  0  0  0
   -4.1252   22.0516  -26.9324 H   0  0  0  0  0  0  0  0  0  0  0  0
   -4.9605   21.7067  -28.4848 H   0  0  0  0  0  0  0  0  0  0  0  0
   -3.2344   22.2039  -28.4848 H   0  0  0  0  0  0  0  0  0  0  0  0
   -4.2018   24.2085  -26.0638 H   0  0  0  0  0  0  0  0  0  0  0  0
   -2.8148   24.4024  -27.1887 H   0  0  0  0  0  0  0  0  0  0  0  0
   -4.1466   25.6078  -27.1887 H   0  0  0  0  0  0  0  0  0  0  0  0
   -8.1400   24.2721  -31.6566 H   0  0  0  0  0  0  0  0  0  0  0  0
  -10.3760   23.1907  -31.6755 H   0  0  0  0  0  0  0  0  0  0  0  0
  -10.5626   20.7281  -31.9094 H   0  0  0  0  0  0  0  0  0  0  0  0
   -7.0679   18.7394  -33.9023 H   0  0  0  0  0  0  0  0  0  0  0  0
  1  2  1  0
  2  3  1  0
  3  4  2  0
  4  5  1  0
  5  6  2  0
  6  7  1  0
  7  8  2  0
  8  9  1  0
  9 10  1  0
 10 11  1  0
 11 12  1  0
 12 13  1  0
 12 14  1  0
  8 15  1  0
 15 16  2  0
 16 17  1  0
 17 18  2  0
 18 19  1  0
 19 20  1  0
 19 21  2  0
 21 22  1  0
 22 23  2  0
 23  3  1  0
 22  6  1  0
 21 15  1  0
  1 24  1  0
  1 25  1  0
  1 26  1  0
  4 27  1  0
  5 28  1  0
  7 29  1  0
  9 30  1  0
 10 31  1  0
 10 32  1  0
 11 33  1  0
 11 34  1  0
 12 35  1  0
 13 36  1  0
 13 37  1  0
 13 38  1  0
 14 39  1  0
 14 40  1  0
 14 41  1  0
 16 42  1  0
 17 43  1  0
 18 44  1  0
 23 45  1  0
M  CHG  1  12   1
M  END
>  <UniqueID>  (6) 
5

>  <SMILES>  (6) 
COc1ccc2cc(NCC[NH+](C)C)c3cccc(Br)c3c2c1

>  <Energy>  (6) 
73.0475506693932

>  <Genealogy>  (6) 
COc1ccc2cc(NCC[NH+](C)C)c3cccc(Br)c3c2c1 (protonated)
COc1ccc2cc(NCC[NH+](C)C)c3cccc(Br)c3c2c1 (3D coordinates assigned)
COc1ccc2cc(NCC[NH+](C)C)c3cccc(Br)c3c2c1 (optimized conformer: 73.0475506693932 kcal/mol)

>  <smiles>  (6) 
COc1ccc2cc(NCCN(C)C)c3cccc(Br)c3c2c1

>  <score_type>  (6) 
oracle

>  <origin>  (6) 
adg

>  <m_score__min__energy>  (6) 
-8.0700000000000003

>  <m_primary>  (6) 
energy

$$$$
6:0
     RDKit          3D

 32 32  0  0  0  0  0  0  0  0999 V2000
   -3.9040   24.5180  -26.9430 C   0  0  0  0  0  0  0  0  0  0  0  0
   -3.6640   23.8530  -28.2950 C   0  0  0  0  0  0  0  0  0  0  0  0
   -4.9830   23.6230  -29.0370 C   0  0  0  0  0  0  0  0  0  0  0  0
   -5.2190   24.8340  -30.3280 S   0  0  0  0  0  0  0  0  0  0  0  0
   -5.9460   26.0140  -29.7440 O   0  0  0  0  0  0  0  0  0  0  0  0
   -3.8810   25.2960  -30.8390 O   0  0  0  0  0  0  0  0  0  0  0  0
   -6.1800   24.1490  -31.6090 N   0  0  0  0  0  0  0  0  0  0  0  0
   -7.0800   23.1160  -31.0860 C   0  0  0  0  0  0  0  0  0  0  0  0
   -7.9440   22.5330  -32.2090 C   0  0  0  0  0  0  0  0  0  0  0  0
   -7.9090   21.0220  -32.2220 C   0  0  0  0  0  0  0  0  0  0  0  0
   -9.0960   20.3130  -31.9630 C   0  0  0  0  0  0  0  0  0  0  0  0
   -9.0990   18.9160  -31.9410 C   0  0  0  0  0  0  0  0  0  0  0  0
   -7.9170   18.2100  -32.1690 C   0  0  0  0  0  0  0  0  0  0  0  0
   -6.7290   18.9000  -32.4180 C   0  0  0  0  0  0  0  0  0  0  0  0
   -6.7130   20.2990  -32.4430 C   0  0  0  0  0  0  0  0  0  0  0  0
   -5.1750   21.1050  -32.7470 Cl  0  0  0  0  0  0  0  0  0  0  0  0
   -3.6497   23.8134  -26.1375 H   0  0  0  0  0  0  0  0  0  0  0  0
   -3.2729   25.4149  -26.8584 H   0  0  0  0  0  0  0  0  0  0  0  0
   -4.9625   24.8051  -26.8584 H   0  0  0  0  0  0  0  0  0  0  0  0
   -3.0170   24.5011  -28.9045 H   0  0  0  0  0  0  0  0  0  0  0  0
   -3.1838   22.8781  -28.1249 H   0  0  0  0  0  0  0  0  0  0  0  0
   -4.9718   22.6185  -29.4853 H   0  0  0  0  0  0  0  0  0  0  0  0
   -5.8086   23.7176  -28.3163 H   0  0  0  0  0  0  0  0  0  0  0  0
   -5.5150   23.6920  -32.2740 H   0  0  0  0  0  0  0  0  0  0  0  0
   -6.4820   22.3104  -30.6349 H   0  0  0  0  0  0  0  0  0  0  0  0
   -7.7392   23.5697  -30.3312 H   0  0  0  0  0  0  0  0  0  0  0  0
   -8.9834   22.8632  -32.0656 H   0  0  0  0  0  0  0  0  0  0  0  0
   -7.5423   22.8911  -33.1684 H   0  0  0  0  0  0  0  0  0  0  0  0
  -10.0300   20.8632  -31.7762 H   0  0  0  0  0  0  0  0  0  0  0  0
  -10.0344   18.3718  -31.7437 H   0  0  0  0  0  0  0  0  0  0  0  0
   -7.9213   17.1101  -32.1525 H   0  0  0  0  0  0  0  0  0  0  0  0
   -5.7991   18.3399  -32.5958 H   0  0  0  0  0  0  0  0  0  0  0  0
  1  2  1  0
  2  3  1  0
  3  4  1  0
  4  5  2  0
  4  6  2  0
  4  7  1  0
  7  8  1  0
  8  9  1  0
  9 10  1  0
 10 11  2  0
 11 12  1  0
 12 13  2  0
 13 14  1  0
 14 15  2  0
 15 16  1  0
 15 10  1  0
  1 17  1  0
  1 18  1  0
  1 19  1  0
  2 20  1  0
  2 21  1  0
  3 22  1  0
  3 23  1  0
  7 24  1  0
  8 25  1  0
  8 26  1  0
  9 27  1  0
  9 28  1  0
 11 29  1  0
 12 30  1  0
 13 31  1  0
 14 32  1  0
M  END
>  <UniqueID>  (7) 
6

>  <SMILES>  (7) 
CCCS(=O)(=O)NCCc1ccccc1Cl

>  <Energy>  (7) 
17.951418110298487

>  <Genealogy>  (7) 
CCCS(=O)(=O)NCCc1ccccc1Cl (3D coordinates assigned)
CCCS(=O)(=O)NCCc1ccccc1Cl (optimized conformer: 17.951418110298487 kcal/mol)

>  <smiles>  (7) 
CCCS(=O)(=O)NCCc1ccccc1Cl

>  <score_type>  (7) 
oracle

>  <origin>  (7) 
adg

>  <m_score__min__energy>  (7) 
-7.6299999999999999

>  <m_primary>  (7) 
energy

$$$$
7:0
     RDKit          3D

 48 50  0  0  0  0  0  0  0  0999 V2000
   -3.4360   16.8400  -34.7630 C   0  0  0  0  0  0  0  0  0  0  0  0
   -4.3210   18.0780  -34.6440 C   0  0  0  0  0  0  0  0  0  0  0  0
   -5.8080   17.7010  -34.7030 C   0  0  0  0  0  0  0  0  0  0  0  0
   -6.2240   16.7680  -33.5530 C   0  0  0  0  0  0  0  0  0  0  0  0
   -5.8030   17.2750  -32.1640 C   0  0  0  0  0  0  0  0  0  0  0  0
   -6.0140   18.7190  -32.0400 N   0  0  0  0  0  0  0  0  0  0  0  0
   -5.0450   19.6320  -31.7900 C   0  0  0  0  0  0  0  0  0  0  0  0
   -5.5960   20.9050  -31.6920 C   0  0  0  0  0  0  0  0  0  0  0  0
   -4.8570   22.1860  -31.4450 C   0  0  0  0  0  0  0  0  0  0  0  0
   -5.4310   22.8820  -30.2740 N   0  0  0  0  0  0  0  0  0  0  0  0
   -6.2250   24.0780  -30.6490 C   0  0  0  0  0  0  0  0  0  0  0  0
   -5.4200   25.3910  -30.5710 C   0  0  0  0  0  0  0  0  0  0  0  0
   -4.0000   25.1320  -30.8140 N   0  0  0  0  0  0  0  0  0  0  0  0
   -3.4250   24.2930  -29.7490 C   0  0  0  0  0  0  0  0  0  0  0  0
   -4.4050   23.2020  -29.2610 C   0  0  0  0  0  0  0  0  0  0  0  0
   -6.9510   20.7460  -31.8930 C   0  0  0  0  0  0  0  0  0  0  0  0
   -7.9880   21.6810  -31.9030 C   0  0  0  0  0  0  0  0  0  0  0  0
   -9.2920   21.2120  -32.1330 C   0  0  0  0  0  0  0  0  0  0  0  0
   -9.5300   19.8380  -32.3450 C   0  0  0  0  0  0  0  0  0  0  0  0
   -8.4680   18.9170  -32.3310 C   0  0  0  0  0  0  0  0  0  0  0  0
   -7.1770   19.4070  -32.1000 C   0  0  0  0  0  0  0  0  0  0  0  0
   -3.1764   16.4769  -33.7576 H   0  0  0  0  0  0  0  0  0  0  0  0
   -3.9776   16.0532  -35.3086 H   0  0  0  0  0  0  0  0  0  0  0  0
   -2.5163   17.0978  -35.3086 H   0  0  0  0  0  0  0  0  0  0  0  0
   -4.1144   18.5767  -33.6856 H   0  0  0  0  0  0  0  0  0  0  0  0
   -4.0970   18.7503  -35.4853 H   0  0  0  0  0  0  0  0  0  0  0  0
   -6.4080   18.6212  -34.6456 H   0  0  0  0  0  0  0  0  0  0  0  0
   -5.9802   17.1649  -35.6480 H   0  0  0  0  0  0  0  0  0  0  0  0
   -7.3191   16.6649  -33.5680 H   0  0  0  0  0  0  0  0  0  0  0  0
   -5.7104   15.8088  -33.7148 H   0  0  0  0  0  0  0  0  0  0  0  0
   -6.3994   16.7583  -31.3977 H   0  0  0  0  0  0  0  0  0  0  0  0
   -4.7315   17.0670  -32.0277 H   0  0  0  0  0  0  0  0  0  0  0  0
   -3.9754   19.3997  -31.6802 H   0  0  0  0  0  0  0  0  0  0  0  0
   -3.7968   21.9640  -31.2534 H   0  0  0  0  0  0  0  0  0  0  0  0
   -4.9483   22.8325  -32.3303 H   0  0  0  0  0  0  0  0  0  0  0  0
   -6.5848   23.9493  -31.6805 H   0  0  0  0  0  0  0  0  0  0  0  0
   -7.0530   24.1592  -29.9295 H   0  0  0  0  0  0  0  0  0  0  0  0
   -5.7959   26.0927  -31.3302 H   0  0  0  0  0  0  0  0  0  0  0  0
   -5.5378   25.8236  -29.5665 H   0  0  0  0  0  0  0  0  0  0  0  0
   -3.4950   26.0480  -30.8180 H   0  0  0  0  0  0  0  0  0  0  0  0
   -2.5179   23.8052  -30.1353 H   0  0  0  0  0  0  0  0  0  0  0  0
   -3.1996   24.9467  -28.8935 H   0  0  0  0  0  0  0  0  0  0  0  0
   -3.8347   22.2893  -29.0335 H   0  0  0  0  0  0  0  0  0  0  0  0
   -4.9197   23.5848  -28.3674 H   0  0  0  0  0  0  0  0  0  0  0  0
   -7.7902   22.7501  -31.7362 H   0  0  0  0  0  0  0  0  0  0  0  0
  -10.1330   21.9209  -32.1479 H   0  0  0  0  0  0  0  0  0  0  0  0
  -10.5561   19.4838  -32.5229 H   0  0  0  0  0  0  0  0  0  0  0  0
   -8.6459   17.8442  -32.4965 H   0  0  0  0  0  0  0  0  0  0  0  0
  1  2  1  0
  2  3  1  0
  3  4  1  0
  4  5  1  0
  5  6  1  0
  6  7  1  0
  7  8  2  0
  8  9  1  0
  9 10  1  0
 10 11  1  0
 11 12  1  0
 12 13  1  0
 13 14  1  0
 14 15  1  0
  8 16  1  0
 16 17  2  0
 17 18  1  0
 18 19  2  0
 19 20  1  0
 20 21  2  0
 21  6  1  0
 15 10  1  0
 21 16  1  0
  1 22  1  0
  1 23  1  0
  1 24  1  0
  2 25  1  0
  2 26  1  0
  3 27  1  0
  3 28  1  0
  4 29  1  0
  4 30  1  0
  5 31  1  0
  5 32  1  0
  7 33  1  0
  9 34  1  0
  9 35  1  0
 11 36  1  0
 11 37  1  0
 12 38  1  0
 12 39  1  0
 13 40  1  0
 14 41  1  0
 14 42  1  0
 15 43  1  0
 15 44  1  0
 17 45  1  0
 18 46  1  0
 19 47  1  0
 20 48  1  0
M  END
>  <UniqueID>  (8) 
7

>  <SMILES>  (8) 
CCCCCn1cc(CN2CCNCC2)c2ccccc21

>  <Energy>  (8) 
81.72626127448243

>  <Genealogy>  (8) 
CCCCCn1cc(CN2CCNCC2)c2ccccc21 (3D coordinates assigned)
CCCCCn1cc(CN2CCNCC2)c2ccccc21 (nonaromatic ring conformer: 81.72626127448243 kcal/mol)

>  <smiles>  (8) 
CCCCCn1cc(CN2CCNCC2)c2ccccc21

>  <score_type>  (8) 
oracle

>  <origin>  (8) 
adg

>  <m_score__min__energy>  (8) 
-8.6799999999999997

>  <m_primary>  (8) 
energy

$$$$
8:0
     RDKit          3D

 59 62  0  0  0  0  0  0  0  0999 V2000
   -5.7520   18.5380  -34.8140 C   0  0  0  0  0  0  0  0  0  0  0  0
   -4.8560   18.4240  -33.5860 C   0  0  0  0  0  0  0  0  0  0  0  0
   -5.4520   19.0730  -32.4630 O   0  0  0  0  0  0  0  0  0  0  0  0
   -6.7650   19.5730  -32.3970 C   0  0  0  0  0  0  0  0  0  0  0  0
   -7.8900   18.7260  -32.4660 C   0  0  0  0  0  0  0  0  0  0  0  0
   -9.1790   19.2520  -32.3840 C   0  0  0  0  0  0  0  0  0  0  0  0
   -9.3670   20.6240  -32.2250 C   0  0  0  0  0  0  0  0  0  0  0  0
   -8.2650   21.4770  -32.1610 C   0  0  0  0  0  0  0  0  0  0  0  0
   -6.9580   20.9690  -32.2680 C   0  0  0  0  0  0  0  0  0  0  0  0
   -5.7740   21.9200  -32.2130 C   0  0  0  0  0  0  0  0  0  0  0  0
   -5.4270   22.3700  -30.8450 N   0  0  0  0  0  0  0  0  0  0  0  0
   -4.3620   21.5700  -30.2030 C   0  0  0  0  0  0  0  0  0  0  0  0
   -3.8790   22.2460  -28.9140 C   0  0  0  0  0  0  0  0  0  0  0  0
   -3.3160   23.6010  -29.1640 N   0  0  0  0  0  0  0  0  0  0  0  0
   -1.8390   23.6040  -29.1370 C   0  0  0  0  0  0  0  0  0  0  0  0
   -1.3330   24.4270  -27.9750 C   0  0  0  0  0  0  0  0  0  0  0  0
   -1.1380   23.8010  -26.7340 C   0  0  0  0  0  0  0  0  0  0  0  0
   -0.6630   24.5230  -25.6400 C   0  0  0  0  0  0  0  0  0  0  0  0
   -0.3730   25.8880  -25.7650 C   0  0  0  0  0  0  0  0  0  0  0  0
    0.1070   26.6140  -24.6630 C   0  0  0  0  0  0  0  0  0  0  0  0
    0.3990   27.9850  -24.7870 C   0  0  0  0  0  0  0  0  0  0  0  0
    0.8800   28.7520  -23.7140 O   0  0  0  0  0  0  0  0  0  0  0  0
    1.2130   30.1330  -23.7970 C   0  0  0  0  0  0  0  0  0  0  0  0
    0.2080   28.6180  -26.0180 C   0  0  0  0  0  0  0  0  0  0  0  0
   -0.2690   27.9050  -27.1210 C   0  0  0  0  0  0  0  0  0  0  0  0
   -0.5650   26.5360  -27.0100 C   0  0  0  0  0  0  0  0  0  0  0  0
   -1.0460   25.8010  -28.1130 C   0  0  0  0  0  0  0  0  0  0  0  0
   -1.2340   26.4310  -29.3400 O   0  0  0  0  0  0  0  0  0  0  0  0
   -3.8110   24.2280  -30.4130 C   0  0  0  0  0  0  0  0  0  0  0  0
   -5.2670   23.8360  -30.6980 C   0  0  0  0  0  0  0  0  0  0  0  0
   -6.7963   18.6709  -34.4949 H   0  0  0  0  0  0  0  0  0  0  0  0
   -5.4398   19.4037  -35.4166 H   0  0  0  0  0  0  0  0  0  0  0  0
   -5.6665   17.6217  -35.4166 H   0  0  0  0  0  0  0  0  0  0  0  0
   -4.7024   17.3609  -33.3488 H   0  0  0  0  0  0  0  0  0  0  0  0
   -3.8936   18.9098  -33.8048 H   0  0  0  0  0  0  0  0  0  0  0  0
   -7.7499   17.6415  -32.5855 H   0  0  0  0  0  0  0  0  0  0  0  0
  -10.0496   18.5824  -32.4450 H   0  0  0  0  0  0  0  0  0  0  0  0
  -10.3848   21.0343  -32.1499 H   0  0  0  0  0  0  0  0  0  0  0  0
   -8.4199   22.5576  -32.0255 H   0  0  0  0  0  0  0  0  0  0  0  0
   -4.8993   21.4088  -32.6415 H   0  0  0  0  0  0  0  0  0  0  0  0
   -6.0596   22.8177  -32.7810 H   0  0  0  0  0  0  0  0  0  0  0  0
   -4.7560   20.5718  -29.9615 H   0  0  0  0  0  0  0  0  0  0  0  0
   -3.5137   21.4874  -30.8984 H   0  0  0  0  0  0  0  0  0  0  0  0
   -4.7297   22.3383  -28.2227 H   0  0  0  0  0  0  0  0  0  0  0  0
   -3.0797   21.6230  -28.4862 H   0  0  0  0  0  0  0  0  0  0  0  0
   -1.4767   22.5705  -29.0337 H   0  0  0  0  0  0  0  0  0  0  0  0
   -1.4668   24.0443  -30.0738 H   0  0  0  0  0  0  0  0  0  0  0  0
   -1.3622   22.7298  -26.6234 H   0  0  0  0  0  0  0  0  0  0  0  0
   -0.5152   24.0184  -24.6738 H   0  0  0  0  0  0  0  0  0  0  0  0
    0.2556   26.1082  -23.6975 H   0  0  0  0  0  0  0  0  0  0  0  0
    1.3130   30.5476  -22.7831 H   0  0  0  0  0  0  0  0  0  0  0  0
    2.1648   30.2489  -24.3361 H   0  0  0  0  0  0  0  0  0  0  0  0
    0.4186   30.6700  -24.3361 H   0  0  0  0  0  0  0  0  0  0  0  0
    0.4356   29.6894  -26.1199 H   0  0  0  0  0  0  0  0  0  0  0  0
   -0.4137   28.4190  -28.0827 H   0  0  0  0  0  0  0  0  0  0  0  0
   -3.7478   25.3217  -30.3137 H   0  0  0  0  0  0  0  0  0  0  0  0
   -3.1879   23.8749  -31.2479 H   0  0  0  0  0  0  0  0  0  0  0  0
   -5.8974   24.1806  -29.8651 H   0  0  0  0  0  0  0  0  0  0  0  0
   -5.5675   24.3080  -31.6451 H   0  0  0  0  0  0  0  0  0  0  0  0
  1  2  1  0
  2  3  1  0
  3  4  1  0
  4  5  2  0
  5  6  1  0
  6  7  2  0
  7  8  1  0
  8  9  2  0
  9 10  1  0
 10 11  1  0
 11 12  1  0
 12 13  1  0
 13 14  1  0
 14 15  1  0
 15 16  1  0
 16 17  2  0
 17 18  1  0
 18 19  2  0
 19 20  1  0
 20 21  2  0
 21 22  1  0
 22 23  1  0
 21 24  1  0
 24 25  2  0
 25 26  1  0
 26 27  2  0
 27 28  1  0
 14 29  1  0
 29 30  1  0
  9  4  1  0
 30 11  1  0
 27 16  1  0
 26 19  1  0
  1 31  1  0
  1 32  1  0
  1 33  1  0
  2 34  1  0
  2 35  1  0
  5 36  1  0
  6 37  1  0
  7 38  1  0
  8 39  1  0
 10 40  1  0
 10 41  1  0
 12 42  1  0
 12 43  1  0
 13 44  1  0
 13 45  1  0
 15 46  1  0
 15 47  1  0
 17 48  1  0
 18 49  1  0
 20 50  1  0
 23 51  1  0
 23 52  1  0
 23 53  1  0
 24 54  1  0
 25 55  1  0
 29 56  1  0
 29 57  1  0
 30 58  1  0
 30 59  1  0
M  CHG  1  28  -1
M  END
>  <UniqueID>  (9) 
8

>  <SMILES>  (9) 
CCOc1ccccc1CN1CCN(Cc2ccc3cc(OC)ccc3c2[O-])CC1

>  <Energy>  (9) 
79.99079992230836

>  <Genealogy>  (9) 
CCOc1ccccc1CN1CCN(Cc2ccc3cc(OC)ccc3c2[O-])CC1 (protonated)
CCOc1ccccc1CN1CCN(Cc2ccc3cc(OC)ccc3c2[O-])CC1 (3D coordinates assigned)
CCOc1ccccc1CN1CCN(Cc2ccc3cc(OC)ccc3c2[O-])CC1 (nonaromatic ring conformer: 79.99079992230836 kcal/mol)

>  <smiles>  (9) 
CCOc1ccccc1CN1CCN(Cc2ccc3cc(OC)ccc3c2O)CC1

>  <score_type>  (9) 
oracle

>  <origin>  (9) 
adg

>  <m_score__min__energy>  (9) 
-11.41

>  <m_primary>  (9) 
energy

$$$$
9:0
     RDKit          3D

 54 56  0  0  0  0  0  0  0  0999 V2000
   -6.0370   26.0220  -29.8310 C   0  0  0  0  0  0  0  0  0  0  0  0
   -5.9410   24.6910  -30.5240 C   0  0  0  0  0  0  0  0  0  0  0  0
   -7.1170   23.9830  -30.7960 C   0  0  0  0  0  0  0  0  0  0  0  0
   -7.0630   22.7220  -31.3810 C   0  0  0  0  0  0  0  0  0  0  0  0
   -5.8350   22.1580  -31.7450 C   0  0  0  0  0  0  0  0  0  0  0  0
   -5.8400   20.8130  -32.3540 C   0  0  0  0  0  0  0  0  0  0  0  0
   -4.9190   20.4140  -33.2590 N   0  0  0  0  0  0  0  0  0  0  0  0
   -5.3170   19.1740  -33.6080 C   0  0  0  0  0  0  0  0  0  0  0  0
   -4.5920   18.3230  -34.6010 C   0  0  0  0  0  0  0  0  0  0  0  0
   -6.4770   18.8460  -32.9290 C   0  0  0  0  0  0  0  0  0  0  0  0
   -7.2470   17.5630  -33.0240 C   0  0  0  0  0  0  0  0  0  0  0  0
   -6.7900   19.8770  -32.1230 N   0  0  0  0  0  0  0  0  0  0  0  0
   -7.9490   19.9920  -31.2380 C   0  0  0  0  0  0  0  0  0  0  0  0
   -4.6340   22.8660  -31.5010 C   0  0  0  0  0  0  0  0  0  0  0  0
   -3.3060   22.2900  -31.9310 C   0  0  0  0  0  0  0  0  0  0  0  0
   -4.6920   24.1030  -30.8080 C   0  0  0  0  0  0  0  0  0  0  0  0
   -3.5270   24.7610  -30.3880 O   0  0  0  0  0  0  0  0  0  0  0  0
   -2.5890   24.2020  -29.4620 C   0  0  0  0  0  0  0  0  0  0  0  0
   -3.1100   24.2520  -28.0180 C   0  0  0  0  0  0  0  0  0  0  0  0
   -2.1710   23.5430  -27.0290 C   0  0  0  0  0  0  0  0  0  0  0  0
   -1.6350   24.5200  -26.0200 C   0  0  0  0  0  0  0  0  0  0  0  0
   -2.0930   25.8450  -25.9960 C   0  0  0  0  0  0  0  0  0  0  0  0
   -1.6130   26.7310  -25.0300 C   0  0  0  0  0  0  0  0  0  0  0  0
   -0.6820   26.2810  -24.0900 C   0  0  0  0  0  0  0  0  0  0  0  0
   -0.2530   24.9900  -24.1160 N   0  0  0  0  0  0  0  0  0  0  0  0
   -0.7070   24.1090  -25.0490 C   0  0  0  0  0  0  0  0  0  0  0  0
   -6.0260   25.8698  -28.7416 H   0  0  0  0  0  0  0  0  0  0  0  0
   -5.1818   26.6495  -30.1222 H   0  0  0  0  0  0  0  0  0  0  0  0
   -6.9734   26.5203  -30.1222 H   0  0  0  0  0  0  0  0  0  0  0  0
   -8.0917   24.4270  -30.5453 H   0  0  0  0  0  0  0  0  0  0  0  0
   -7.9937   22.1633  -31.5590 H   0  0  0  0  0  0  0  0  0  0  0  0
   -3.9676   17.5901  -34.0691 H   0  0  0  0  0  0  0  0  0  0  0  0
   -5.3212   17.7940  -35.2322 H   0  0  0  0  0  0  0  0  0  0  0  0
   -3.9539   18.9589  -35.2322 H   0  0  0  0  0  0  0  0  0  0  0  0
   -7.4691   17.1929  -32.0122 H   0  0  0  0  0  0  0  0  0  0  0  0
   -8.1885   17.7396  -33.5647 H   0  0  0  0  0  0  0  0  0  0  0  0
   -6.6483   16.8152  -33.5647 H   0  0  0  0  0  0  0  0  0  0  0  0
   -7.6151   19.9589  -30.1904 H   0  0  0  0  0  0  0  0  0  0  0  0
   -8.4630   20.9456  -31.4290 H   0  0  0  0  0  0  0  0  0  0  0  0
   -8.6404   19.1580  -31.4290 H   0  0  0  0  0  0  0  0  0  0  0  0
   -2.7126   22.0326  -31.0413 H   0  0  0  0  0  0  0  0  0  0  0  0
   -3.4764   21.3849  -32.5325 H   0  0  0  0  0  0  0  0  0  0  0  0
   -2.7616   23.0329  -32.5325 H   0  0  0  0  0  0  0  0  0  0  0  0
   -2.4007   23.1534  -29.7360 H   0  0  0  0  0  0  0  0  0  0  0  0
   -1.6652   24.7970  -29.5117 H   0  0  0  0  0  0  0  0  0  0  0  0
   -3.2111   25.3048  -27.7156 H   0  0  0  0  0  0  0  0  0  0  0  0
   -4.0777   23.7296  -27.9934 H   0  0  0  0  0  0  0  0  0  0  0  0
   -2.7271   22.7509  -26.5061 H   0  0  0  0  0  0  0  0  0  0  0  0
   -1.3281   23.1092  -27.5870 H   0  0  0  0  0  0  0  0  0  0  0  0
   -2.8301   26.1861  -26.7379 H   0  0  0  0  0  0  0  0  0  0  0  0
   -1.9642   27.7732  -25.0089 H   0  0  0  0  0  0  0  0  0  0  0  0
   -0.2949   26.9724  -23.3270 H   0  0  0  0  0  0  0  0  0  0  0  0
    0.4410   24.6680  -23.4030 H   0  0  0  0  0  0  0  0  0  0  0  0
   -0.3454   23.0702  -25.0425 H   0  0  0  0  0  0  0  0  0  0  0  0
  1  2  1  0
  2  3  2  0
  3  4  1  0
  4  5  2  0
  5  6  1  0
  6  7  2  0
  7  8  1  0
  8  9  1  0
  8 10  2  0
 10 11  1  0
 10 12  1  0
 12 13  1  0
  5 14  1  0
 14 15  1  0
 14 16  2  0
 16 17  1  0
 17 18  1  0
 18 19  1  0
 19 20  1  0
 20 21  1  0
 21 22  2  0
 22 23  1  0
 23 24  2  0
 24 25  1  0
 25 26  2  0
 16  2  1  0
 26 21  1  0
 12  6  1  0
  1 27  1  0
  1 28  1  0
  1 29  1  0
  3 30  1  0
  4 31  1  0
  9 32  1  0
  9 33  1  0
  9 34  1  0
 11 35  1  0
 11 36  1  0
 11 37  1  0
 13 38  1  0
 13 39  1  0
 13 40  1  0
 15 41  1  0
 15 42  1  0
 15 43  1  0
 18 44  1  0
 18 45  1  0
 19 46  1  0
 19 47  1  0
 20 48  1  0
 20 49  1  0
 22 50  1  0
 23 51  1  0
 24 52  1  0
 25 53  1  0
 26 54  1  0
M  CHG  1  25   1
M  END
>  <UniqueID>  (10) 
9

>  <SMILES>  (10) 
Cc1ccc(-c2nc(C)c(C)n2C)c(C)c1OCCCc1ccc[nH+]c1

>  <Energy>  (10) 
92.31288731512373

>  <Genealogy>  (10) 
Cc1ccc(-c2nc(C)c(C)n2C)c(C)c1OCCCc1ccc[nH+]c1 (protonated)
Cc1ccc(-c2nc(C)c(C)n2C)c(C)c1OCCCc1ccc[nH+]c1 (3D coordinates assigned)
Cc1ccc(-c2nc(C)c(C)n2C)c(C)c1OCCCc1ccc[nH+]c1 (optimized conformer: 92.31288731512373 kcal/mol)

>  <smiles>  (10) 
Cc1ccc(-c2nc(C)c(C)n2C)c(C)c1OCCCc1cccnc1

>  <score_type>  (10) 
oracle

>  <origin>  (10) 
adg

>  <m_score__min__energy>  (10) 
-9.9800000000000004

>  <m_primary>  (10) 
energy

$$$$
10:0
     RDKit          3D

 47 49  0  0  0  0  0  0  0  0999 V2000
   -6.0550   24.9000  -29.7540 C   0  0  0  0  0  0  0  0  0  0  0  0
   -4.9250   24.4480  -30.6860 C   0  0  0  0  0  0  0  0  0  0  0  0
   -4.5530   23.0230  -30.4980 N   0  0  2  0  0  0  0  0  0  0  0  0
   -4.3520   22.7200  -29.0650 C   0  0  0  0  0  0  0  0  0  0  0  0
   -3.3200   22.7220  -31.2740 C   0  0  0  0  0  0  0  0  0  0  0  0
   -3.4690   21.5080  -32.2100 C   0  0  0  0  0  0  0  0  0  0  0  0
   -4.6480   21.6320  -33.0660 N   0  0  0  0  0  0  0  0  0  0  0  0
   -5.7970   20.8030  -32.8360 C   0  0  0  0  0  0  0  0  0  0  0  0
   -7.0170   21.3800  -32.4450 C   0  0  0  0  0  0  0  0  0  0  0  0
   -7.1370   22.7790  -32.2990 C   0  0  0  0  0  0  0  0  0  0  0  0
   -8.3620   23.3570  -31.9710 C   0  0  0  0  0  0  0  0  0  0  0  0
   -9.4850   22.5570  -31.8020 C   0  0  0  0  0  0  0  0  0  0  0  0
   -9.3880   21.1720  -31.9310 C   0  0  0  0  0  0  0  0  0  0  0  0
   -8.1470   20.5480  -32.2210 C   0  0  0  0  0  0  0  0  0  0  0  0
   -8.0260   19.1730  -32.3090 N   0  0  0  0  0  0  0  0  0  0  0  0
   -9.1110   18.3010  -31.8070 C   0  0  0  0  0  0  0  0  0  0  0  0
   -6.8750   18.6120  -32.8350 C   0  0  0  0  0  0  0  0  0  0  0  0
   -6.8030   17.2370  -33.1760 C   0  0  0  0  0  0  0  0  0  0  0  0
   -5.6140   16.6690  -33.6360 C   0  0  0  0  0  0  0  0  0  0  0  0
   -5.5550   14.9620  -34.0410 Cl  0  0  0  0  0  0  0  0  0  0  0  0
   -4.4750   17.4530  -33.7770 C   0  0  0  0  0  0  0  0  0  0  0  0
   -4.5270   18.8160  -33.4940 C   0  0  0  0  0  0  0  0  0  0  0  0
   -5.7260   19.4170  -33.0570 C   0  0  0  0  0  0  0  0  0  0  0  0
   -5.7398   24.7739  -28.7077 H   0  0  0  0  0  0  0  0  0  0  0  0
   -6.2845   25.9591  -29.9428 H   0  0  0  0  0  0  0  0  0  0  0  0
   -6.9516   24.2913  -29.9428 H   0  0  0  0  0  0  0  0  0  0  0  0
   -5.2508   24.5908  -31.7269 H   0  0  0  0  0  0  0  0  0  0  0  0
   -4.0387   25.0538  -30.4464 H   0  0  0  0  0  0  0  0  0  0  0  0
   -5.3410   22.4330  -30.8560 H   0  0  0  0  0  0  0  0  0  0  0  0
   -4.8578   23.4825  -28.4545 H   0  0  0  0  0  0  0  0  0  0  0  0
   -4.7727   21.7295  -28.8371 H   0  0  0  0  0  0  0  0  0  0  0  0
   -3.2759   22.7225  -28.8371 H   0  0  0  0  0  0  0  0  0  0  0  0
   -3.0670   23.6028  -31.8825 H   0  0  0  0  0  0  0  0  0  0  0  0
   -2.5303   22.4781  -30.5482 H   0  0  0  0  0  0  0  0  0  0  0  0
   -2.5733   21.4337  -32.8441 H   0  0  0  0  0  0  0  0  0  0  0  0
   -3.5862   20.6069  -31.5901 H   0  0  0  0  0  0  0  0  0  0  0  0
   -4.5460   22.0690  -34.0110 H   0  0  0  0  0  0  0  0  0  0  0  0
   -6.2547   23.4194  -32.4456 H   0  0  0  0  0  0  0  0  0  0  0  0
   -8.4396   24.4471  -31.8459 H   0  0  0  0  0  0  0  0  0  0  0  0
  -10.4552   23.0182  -31.5653 H   0  0  0  0  0  0  0  0  0  0  0  0
  -10.2885   20.5528  -31.8059 H   0  0  0  0  0  0  0  0  0  0  0  0
   -9.1056   18.3053  -30.7070 H   0  0  0  0  0  0  0  0  0  0  0  0
  -10.0796   18.6748  -32.1704 H   0  0  0  0  0  0  0  0  0  0  0  0
   -8.9543   17.2746  -32.1704 H   0  0  0  0  0  0  0  0  0  0  0  0
   -7.6996   16.6076  -33.0762 H   0  0  0  0  0  0  0  0  0  0  0  0
   -3.5319   16.9969  -34.1123 H   0  0  0  0  0  0  0  0  0  0  0  0
   -3.6226   19.4307  -33.6127 H   0  0  0  0  0  0  0  0  0  0  0  0
  1  2  1  0
  2  3  1  0
  3  4  1  0
  3  5  1  0
  5  6  1  0
  6  7  1  0
  7  8  1  0
  8  9  2  0
  9 10  1  0
 10 11  2  0
 11 12  1  0
 12 13  2  0
 13 14  1  0
 14 15  2  0
 15 16  1  0
 15 17  1  0
 17 18  2  0
 18 19  1  0
 19 20  1  0
 19 21  2  0
 21 22  1  0
 22 23  2  0
 23  8  1  0
 14  9  1  0
 23 17  1  0
  1 24  1  0
  1 25  1  0
  1 26  1  0
  2 27  1  0
  2 28  1  0
  3 29  1  6
  4 30  1  0
  4 31  1  0
  4 32  1  0
  5 33  1  0
  5 34  1  0
  6 35  1  0
  6 36  1  0
  7 37  1  0
 10 38  1  0
 11 39  1  0
 12 40  1  0
 13 41  1  0
 16 42  1  0
 16 43  1  0
 16 44  1  0
 18 45  1  0
 21 46  1  0
 22 47  1  0
M  CHG  2   3   1  15   1
M  END
>  <UniqueID>  (11) 
10

>  <SMILES>  (11) 
CC[N@H+](C)CCNc1c2ccccc2[n+](C)c2cc(Cl)ccc12

>  <Energy>  (11) 
75.13328754284183

>  <Genealogy>  (11) 
CC[NH+](C)CCNc1c2ccccc2[n+](C)c2cc(Cl)ccc12 (protonated)
CC[N@H+](C)CCNc1c2ccccc2[n+](C)c2cc(Cl)ccc12 (chirality)
CC[N@H+](C)CCNc1c2ccccc2[n+](C)c2cc(Cl)ccc12 (3D coordinates assigned)
CC[N@H+](C)CCNc1c2ccccc2[n+](C)c2cc(Cl)ccc12 (optimized conformer: 75.13328754284183 kcal/mol)

>  <smiles>  (11) 
CCN(C)CCNc1c2ccccc2[n+](C)c2cc(Cl)ccc12

>  <score_type>  (11) 
oracle

>  <origin>  (11) 
adg

>  <m_score__min__energy>  (11) 
-7.04

>  <m_primary>  (11) 
energy

$$$$
11:0
     RDKit          3D

 72 76  0  0  0  0  0  0  0  0999 V2000
   -9.9666   17.8681  -32.0189 H   0  0  0  0  0  0  0  0  0  0  0  0
   -9.0920   18.5330  -31.9640 C   0  0  0  0  0  0  0  0  0  0  0  0
   -9.2670   19.8700  -31.7990 N   0  0  0  0  0  0  0  0  0  0  0  0
   -8.2210   20.7370  -31.7380 C   0  0  0  0  0  0  0  0  0  0  0  0
   -8.4760   22.0030  -31.5580 N   0  0  0  0  0  0  0  0  0  0  0  0
   -7.6650   23.1200  -31.9590 C   0  0  0  0  0  0  0  0  0  0  0  0
   -8.0320   23.8030  -32.9520 O   0  0  0  0  0  0  0  0  0  0  0  0
   -6.3830   23.4400  -31.2850 C   0  0  0  0  0  0  0  0  0  0  0  0
   -5.1640   22.9550  -31.7910 C   0  0  0  0  0  0  0  0  0  0  0  0
   -5.1567   22.3424  -32.7046 H   0  0  0  0  0  0  0  0  0  0  0  0
   -3.9620   23.2460  -31.1410 C   0  0  0  0  0  0  0  0  0  0  0  0
   -3.0146   22.8618  -31.5469 H   0  0  0  0  0  0  0  0  0  0  0  0
   -3.9550   24.0250  -29.9740 C   0  0  0  0  0  0  0  0  0  0  0  0
   -2.6520   24.3310  -29.2670 C   0  0  0  0  0  0  0  0  0  0  0  0
   -2.8451   25.0978  -28.5023 H   0  0  0  0  0  0  0  0  0  0  0  0
   -1.9438   24.6703  -30.0372 H   0  0  0  0  0  0  0  0  0  0  0  0
   -2.0370   23.1590  -28.6060 N   0  0  0  0  0  0  0  0  0  0  0  0
   -2.3570   23.0620  -27.1710 C   0  0  0  0  0  0  0  0  0  0  0  0
   -3.4378   22.8911  -27.0586 H   0  0  0  0  0  0  0  0  0  0  0  0
   -2.0516   24.0028  -26.6897 H   0  0  0  0  0  0  0  0  0  0  0  0
   -1.5940   21.9040  -26.4860 C   0  0  0  0  0  0  0  0  0  0  0  0
   -2.3093   21.3275  -25.8811 H   0  0  0  0  0  0  0  0  0  0  0  0
   -0.7991   22.3600  -25.8776 H   0  0  0  0  0  0  0  0  0  0  0  0
   -0.9340   20.9800  -27.4340 N   0  0  0  0  0  0  0  0  0  0  0  0
   -1.7470   19.8120  -27.8400 C   0  0  0  0  0  0  0  0  0  0  0  0
   -1.0658   19.0078  -28.1550 H   0  0  0  0  0  0  0  0  0  0  0  0
   -2.4064   20.1477  -28.6539 H   0  0  0  0  0  0  0  0  0  0  0  0
   -2.6500   19.2720  -26.7280 C   0  0  0  0  0  0  0  0  0  0  0  0
   -2.2197   19.5293  -25.7489 H   0  0  0  0  0  0  0  0  0  0  0  0
   -3.6505   19.7202  -26.8180 H   0  0  0  0  0  0  0  0  0  0  0  0
   -2.7286   18.1785  -26.8180 H   0  0  0  0  0  0  0  0  0  0  0  0
   -0.1490   21.6110  -28.5230 C   0  0  0  0  0  0  0  0  0  0  0  0
   -0.2675   21.0074  -29.4350 H   0  0  0  0  0  0  0  0  0  0  0  0
    0.8986   21.6531  -28.1901 H   0  0  0  0  0  0  0  0  0  0  0  0
   -0.5900   23.0480  -28.8280 C   0  0  0  0  0  0  0  0  0  0  0  0
   -0.3574   23.2911  -29.8753 H   0  0  0  0  0  0  0  0  0  0  0  0
   -0.0571   23.7491  -28.1688 H   0  0  0  0  0  0  0  0  0  0  0  0
   -5.1680   24.5300  -29.4820 C   0  0  0  0  0  0  0  0  0  0  0  0
   -5.1720   25.1585  -28.5792 H   0  0  0  0  0  0  0  0  0  0  0  0
   -6.3710   24.2400  -30.1310 C   0  0  0  0  0  0  0  0  0  0  0  0
   -7.3155   24.6413  -29.7350 H   0  0  0  0  0  0  0  0  0  0  0  0
   -6.9060   20.2310  -31.8320 C   0  0  0  0  0  0  0  0  0  0  0  0
   -6.0461   20.9157  -31.7896 H   0  0  0  0  0  0  0  0  0  0  0  0
   -6.7010   18.8480  -31.9800 C   0  0  0  0  0  0  0  0  0  0  0  0
   -5.4170   18.2890  -32.0800 O   0  0  0  0  0  0  0  0  0  0  0  0
   -4.2680   18.9570  -32.5300 C   0  0  0  0  0  0  0  0  0  0  0  0
   -3.8730   18.9360  -33.9000 C   0  0  0  0  0  0  0  0  0  0  0  0
   -4.6880   18.2740  -34.8310 O   0  0  0  0  0  0  0  0  0  0  0  0
   -5.2730   16.9920  -34.6270 C   0  0  0  0  0  0  0  0  0  0  0  0
   -5.3620   16.7970  -33.5481 H   0  0  0  0  0  0  0  0  0  0  0  0
   -6.2716   16.9671  -35.0877 H   0  0  0  0  0  0  0  0  0  0  0  0
   -4.6374   16.2214  -35.0877 H   0  0  0  0  0  0  0  0  0  0  0  0
   -2.6890   19.6050  -34.2980 C   0  0  0  0  0  0  0  0  0  0  0  0
   -2.3485   19.5747  -35.3435 H   0  0  0  0  0  0  0  0  0  0  0  0
   -1.9650   20.3040  -33.3290 C   0  0  0  0  0  0  0  0  0  0  0  0
   -2.3850   20.3620  -32.0280 C   0  0  0  0  0  0  0  0  0  0  0  0
   -3.5270   19.7000  -31.5920 C   0  0  0  0  0  0  0  0  0  0  0  0
   -3.8437   19.7555  -30.5400 H   0  0  0  0  0  0  0  0  0  0  0  0
   -1.4920   21.1520  -31.3350 C   0  0  0  0  0  0  0  0  0  0  0  0
   -1.5238   21.4167  -30.2678 H   0  0  0  0  0  0  0  0  0  0  0  0
   -0.5440   21.5420  -32.2720 C   0  0  0  0  0  0  0  0  0  0  0  0
    0.3273   22.1771  -32.0543 H   0  0  0  0  0  0  0  0  0  0  0  0
   -0.8410   21.0320  -33.4910 N   0  0  0  0  0  0  0  0  0  0  0  0
   -0.0520   21.1590  -34.6840 C   0  0  0  0  0  0  0  0  0  0  0  0
    0.4490   22.2760  -34.9810 O   0  0  0  0  0  0  0  0  0  0  0  0
    0.2010   20.0390  -35.5390 N   0  0  0  0  0  0  0  0  0  0  0  0
    1.2260   20.0080  -36.5720 C   0  0  0  0  0  0  0  0  0  0  0  0
    2.2199   19.9779  -36.1016 H   0  0  0  0  0  0  0  0  0  0  0  0
    1.0892   19.1136  -37.1975 H   0  0  0  0  0  0  0  0  0  0  0  0
    1.1435   20.9090  -37.1975 H   0  0  0  0  0  0  0  0  0  0  0  0
   -7.8070   18.0010  -32.0640 C   0  0  0  0  0  0  0  0  0  0  0  0
   -7.6658   16.9197  -32.2083 H   0  0  0  0  0  0  0  0  0  0  0  0
  1  2  1  0
  2  3  1  0
  3  4  1  0
  4  5  2  0
  5  6  1  0
  6  7  2  0
  6  8  1  0
  8  9  2  0
  9 10  1  0
  9 11  1  0
 11 12  1  0
 11 13  2  0
 13 14  1  0
 14 15  1  0
 14 16  1  0
 14 17  1  0
 17 18  1  0
 18 19  1  0
 18 20  1  0
 18 21  1  0
 21 22  1  0
 21 23  1  0
 21 24  1  0
 24 25  1  0
 25 26  1  0
 25 27  1  0
 25 28  1  0
 28 29  1  0
 28 30  1  0
 28 31  1  0
 24 32  1  0
 32 33  1  0
 32 34  1  0
 32 35  1  0
 35 36  1  0
 35 37  1  0
 13 38  1  0
 38 39  1  0
 38 40  2  0
 40 41  1  0
  4 42  1  0
 42 43  1  0
 42 44  2  0
 44 45  1  0
 45 46  1  0
 46 47  2  0
 47 48  1  0
 48 49  1  0
 49 50  1  0
 49 51  1  0
 49 52  1  0
 47 53  1  0
 53 54  1  0
 53 55  2  0
 55 56  1  0
 56 57  2  0
 57 58  1  0
 56 59  1  0
 59 60  1  0
 59 61  2  0
 61 62  1  0
 61 63  1  0
 63 64  1  0
 64 65  2  0
 64 66  1  0
 66 67  1  0
 67 68  1  0
 67 69  1  0
 67 70  1  0
 44 71  1  0
 71 72  1  0
 71  2  2  0
 40  8  1  0
 57 46  1  0
 35 17  1  0
 63 55  1  0
M  CHG  2   3  -1  66  -1
M  END
>  <UniqueID>  (12) 
11

>  <SMILES>  (12) 
CCN1CCN(Cc2ccc(C(=O)/N=c3\cc(Oc4cc5ccn(C(=O)[N-]C)c5cc4OC)cc[n-]3)cc2)CC1

>  <Energy>  (12) 
141.503532931584

>  <Genealogy>  (12) 
CCN1CCN(Cc2ccc(C(=O)N=c3cc(Oc4cc5ccn(C(=O)[N-]C)c5cc4OC)cc[n-]3)cc2)CC1 (protonated)
CCN1CCN(Cc2ccc(C(=O)/N=c3\cc(Oc4cc5ccn(C(=O)[N-]C)c5cc4OC)cc[n-]3)cc2)CC1 (cis-trans isomerization)
CCN1CCN(Cc2ccc(C(=O)/N=c3\cc(Oc4cc5ccn(C(=O)[N-]C)c5cc4OC)cc[n-]3)cc2)CC1 (3D coordinates assigned)
CCN1CCN(Cc2ccc(C(=O)/N=c3\cc(Oc4cc5ccn(C(=O)[N-]C)c5cc4OC)cc[n-]3)cc2)CC1 (nonaromatic ring conformer: 141.503532931584 kcal/mol)

>  <smiles>  (12) 
CCN1CCN(Cc2ccc(C(=O)N=c3cc(Oc4cc5ccn(C(=O)NC)c5cc4OC)cc[nH]3)cc2)CC1

>  <score_type>  (12) 
oracle

>  <origin>  (12) 
adg

>  <m_score__min__energy>  (12) 
-11.82

>  <m_primary>  (12) 
energy

$$$$
12:0
     RDKit          3D

 53 56  0  0  0  0  0  0  0  0999 V2000
   -4.4740   14.6770  -32.4450 C   0  0  0  0  0  0  0  0  0  0  0  0
   -5.3060   15.9260  -32.4860 C   0  0  0  0  0  0  0  0  0  0  0  0
   -5.5860   16.5500  -33.7100 C   0  0  0  0  0  0  0  0  0  0  0  0
   -6.3250   17.7350  -33.7440 C   0  0  0  0  0  0  0  0  0  0  0  0
   -6.7880   18.3250  -32.5540 C   0  0  0  0  0  0  0  0  0  0  0  0
   -7.5150   19.5720  -32.5800 N   0  0  0  0  0  0  0  0  0  0  0  0
   -8.6340   19.7940  -31.6580 C   0  0  0  0  0  0  0  0  0  0  0  0
   -8.8830   21.2970  -31.4230 C   0  0  0  0  0  0  0  0  0  0  0  0
   -7.6360   22.0930  -31.4450 N   0  0  0  0  0  0  0  0  0  0  0  0
   -6.9580   22.2650  -30.1400 C   0  0  0  0  0  0  0  0  0  0  0  0
   -6.0000   23.4370  -30.0970 C   0  0  0  0  0  0  0  0  0  0  0  0
   -6.4150   24.7460  -30.3500 C   0  0  0  0  0  0  0  0  0  0  0  0
   -5.0810   25.7680  -30.2870 S   0  0  0  0  0  0  0  0  0  0  0  0
   -3.9660   24.5720  -29.9220 C   0  0  0  0  0  0  0  0  0  0  0  0
   -2.5760   24.8130  -29.6990 N   0  0  0  0  0  0  0  0  0  0  0  0
   -4.6130   23.3420  -29.8250 C   0  0  0  0  0  0  0  0  0  0  0  0
   -3.9020   22.0910  -29.4950 C   0  0  0  0  0  0  0  0  0  0  0  0
   -3.7640   21.7810  -28.2800 O   0  0  0  0  0  0  0  0  0  0  0  0
   -3.3770   21.1860  -30.5480 C   0  0  0  0  0  0  0  0  0  0  0  0
   -4.2500   20.4740  -31.3940 C   0  0  0  0  0  0  0  0  0  0  0  0
   -3.7430   19.6280  -32.3840 C   0  0  0  0  0  0  0  0  0  0  0  0
   -2.3630   19.4740  -32.5380 C   0  0  0  0  0  0  0  0  0  0  0  0
   -1.7290   18.4110  -33.7810 Cl  0  0  0  0  0  0  0  0  0  0  0  0
   -1.4870   20.1690  -31.6980 C   0  0  0  0  0  0  0  0  0  0  0  0
   -1.9890   21.0180  -30.7080 C   0  0  0  0  0  0  0  0  0  0  0  0
   -6.7400   21.8910  -32.6100 C   0  0  0  0  0  0  0  0  0  0  0  0
   -7.1230   20.6740  -33.4600 C   0  0  0  0  0  0  0  0  0  0  0  0
   -6.4830   17.7050  -31.3280 C   0  0  0  0  0  0  0  0  0  0  0  0
   -5.7460   16.5190  -31.2950 C   0  0  0  0  0  0  0  0  0  0  0  0
   -4.2865   14.3955  -31.3983 H   0  0  0  0  0  0  0  0  0  0  0  0
   -5.0104   13.8622  -32.9533 H   0  0  0  0  0  0  0  0  0  0  0  0
   -3.5155   14.8581  -32.9533 H   0  0  0  0  0  0  0  0  0  0  0  0
   -5.2222   16.1045  -34.6476 H   0  0  0  0  0  0  0  0  0  0  0  0
   -6.5469   18.2112  -34.7104 H   0  0  0  0  0  0  0  0  0  0  0  0
   -9.5427   19.3435  -32.0838 H   0  0  0  0  0  0  0  0  0  0  0  0
   -8.3826   19.3308  -30.6925 H   0  0  0  0  0  0  0  0  0  0  0  0
   -9.5526   21.6703  -32.2118 H   0  0  0  0  0  0  0  0  0  0  0  0
   -9.3299   21.4074  -30.4239 H   0  0  0  0  0  0  0  0  0  0  0  0
   -7.7264   22.4170  -29.3677 H   0  0  0  0  0  0  0  0  0  0  0  0
   -6.3607   21.3574  -29.9680 H   0  0  0  0  0  0  0  0  0  0  0  0
   -7.4490   25.0587  -30.5573 H   0  0  0  0  0  0  0  0  0  0  0  0
   -2.1090   25.6690  -30.0700 H   0  0  0  0  0  0  0  0  0  0  0  0
   -2.0040   24.1190  -29.1690 H   0  0  0  0  0  0  0  0  0  0  0  0
   -5.3379   20.5847  -31.2745 H   0  0  0  0  0  0  0  0  0  0  0  0
   -4.4327   19.0816  -33.0441 H   0  0  0  0  0  0  0  0  0  0  0  0
   -0.4003   20.0471  -31.8169 H   0  0  0  0  0  0  0  0  0  0  0  0
   -1.2940   21.5590  -30.0489 H   0  0  0  0  0  0  0  0  0  0  0  0
   -6.7831   22.7886  -33.2444 H   0  0  0  0  0  0  0  0  0  0  0  0
   -5.7280   21.7116  -32.2180 H   0  0  0  0  0  0  0  0  0  0  0  0
   -7.9648   20.9358  -34.1179 H   0  0  0  0  0  0  0  0  0  0  0  0
   -6.2624   20.3674  -34.0726 H   0  0  0  0  0  0  0  0  0  0  0  0
   -6.8282   18.1585  -30.3872 H   0  0  0  0  0  0  0  0  0  0  0  0
   -5.5098   16.0481  -30.3293 H   0  0  0  0  0  0  0  0  0  0  0  0
  1  2  1  0
  2  3  2  0
  3  4  1  0
  4  5  2  0
  5  6  1  0
  6  7  1  0
  7  8  1  0
  8  9  1  0
  9 10  1  0
 10 11  1  0
 11 12  2  0
 12 13  1  0
 13 14  1  0
 14 15  1  0
 14 16  2  0
 16 17  1  0
 17 18  2  0
 17 19  1  0
 19 20  2  0
 20 21  1  0
 21 22  2  0
 22 23  1  0
 22 24  1  0
 24 25  2  0
  9 26  1  0
 26 27  1  0
  5 28  1  0
 28 29  2  0
 29  2  1  0
 27  6  1  0
 16 11  1  0
 25 19  1  0
  1 30  1  0
  1 31  1  0
  1 32  1  0
  3 33  1  0
  4 34  1  0
  7 35  1  0
  7 36  1  0
  8 37  1  0
  8 38  1  0
 10 39  1  0
 10 40  1  0
 12 41  1  0
 15 42  1  0
 15 43  1  0
 20 44  1  0
 21 45  1  0
 24 46  1  0
 25 47  1  0
 26 48  1  0
 26 49  1  0
 27 50  1  0
 27 51  1  0
 28 52  1  0
 29 53  1  0
M  END
>  <UniqueID>  (13) 
12

>  <SMILES>  (13) 
Cc1ccc(N2CCN(Cc3csc(N)c3C(=O)c3ccc(Cl)cc3)CC2)cc1

>  <Energy>  (13) 
101.27943331359236

>  <Genealogy>  (13) 
Cc1ccc(N2CCN(Cc3csc(N)c3C(=O)c3ccc(Cl)cc3)CC2)cc1 (3D coordinates assigned)
Cc1ccc(N2CCN(Cc3csc(N)c3C(=O)c3ccc(Cl)cc3)CC2)cc1 (nonaromatic ring conformer: 101.27943331359236 kcal/mol)

>  <smiles>  (13) 
Cc1ccc(N2CCN(Cc3csc(N)c3C(=O)c3ccc(Cl)cc3)CC2)cc1

>  <score_type>  (13) 
oracle

>  <origin>  (13) 
adg

>  <m_score__min__energy>  (13) 
-10.17

>  <m_primary>  (13) 
energy

$$$$
13:0
     RDKit          3D

 67 71  0  0  0  0  0  0  0  0999 V2000
   -1.2392   15.9839  -35.9793 H   0  0  0  0  0  0  0  0  0  0  0  0
   -2.1810   16.2010  -35.4540 C   0  0  0  0  0  0  0  0  0  0  0  0
   -2.3840   17.4310  -34.9270 N   0  0  0  0  0  0  0  0  0  0  0  0
   -3.5250   17.7500  -34.2670 C   0  0  0  0  0  0  0  0  0  0  0  0
   -3.6720   19.0360  -33.7350 C   0  0  0  0  0  0  0  0  0  0  0  0
   -2.8609   19.7699  -33.8512 H   0  0  0  0  0  0  0  0  0  0  0  0
   -4.8460   19.3980  -33.0540 C   0  0  0  0  0  0  0  0  0  0  0  0
   -4.9990   20.7620  -32.4890 C   0  0  0  0  0  0  0  0  0  0  0  0
   -3.9140   21.4000  -31.8610 C   0  0  0  0  0  0  0  0  0  0  0  0
   -2.9447   20.8849  -31.7889 H   0  0  0  0  0  0  0  0  0  0  0  0
   -4.0590   22.6840  -31.3280 C   0  0  0  0  0  0  0  0  0  0  0  0
   -3.2041   23.1715  -30.8365 H   0  0  0  0  0  0  0  0  0  0  0  0
   -5.2880   23.3550  -31.4160 C   0  0  0  0  0  0  0  0  0  0  0  0
   -5.4560   24.7270  -30.8190 C   0  0  0  0  0  0  0  0  0  0  0  0
   -5.2629   25.4838  -31.5936 H   0  0  0  0  0  0  0  0  0  0  0  0
   -6.4836   24.8232  -30.4385 H   0  0  0  0  0  0  0  0  0  0  0  0
   -4.5190   24.9280  -29.7040 N   0  0  0  0  0  0  0  0  0  0  0  0
   -3.5400   24.8510  -30.0670 H   0  0  0  0  0  0  0  0  0  0  0  0
   -4.7190   23.9630  -28.6080 C   0  0  0  0  0  0  0  0  0  0  0  0
   -5.7952   23.7584  -28.5082 H   0  0  0  0  0  0  0  0  0  0  0  0
   -4.1591   23.0493  -28.8562 H   0  0  0  0  0  0  0  0  0  0  0  0
   -4.1860   24.4940  -27.2580 C   0  0  0  0  0  0  0  0  0  0  0  0
   -4.4521   25.5579  -27.1729 H   0  0  0  0  0  0  0  0  0  0  0  0
   -4.6458   23.8840  -26.4664 H   0  0  0  0  0  0  0  0  0  0  0  0
   -2.7200   24.3650  -27.1100 N   0  0  0  0  0  0  0  0  0  0  0  0
   -2.0870   23.3800  -28.0110 C   0  0  0  0  0  0  0  0  0  0  0  0
   -1.2403   22.9171  -27.4830 H   0  0  0  0  0  0  0  0  0  0  0  0
   -2.8577   22.6436  -28.2827 H   0  0  0  0  0  0  0  0  0  0  0  0
   -1.5630   24.0050  -29.3290 C   0  0  0  0  0  0  0  0  0  0  0  0
   -0.5300   23.6627  -29.4891 H   0  0  0  0  0  0  0  0  0  0  0  0
   -2.2416   23.6799  -30.1313 H   0  0  0  0  0  0  0  0  0  0  0  0
   -1.5700   25.4200  -29.3290 O   0  0  0  0  0  0  0  0  0  0  0  0
   -1.0190   25.9010  -28.1260 C   0  0  0  0  0  0  0  0  0  0  0  0
   -0.0718   25.3794  -27.9241 H   0  0  0  0  0  0  0  0  0  0  0  0
   -0.8354   26.9817  -28.2177 H   0  0  0  0  0  0  0  0  0  0  0  0
   -1.9950   25.6500  -26.9690 C   0  0  0  0  0  0  0  0  0  0  0  0
   -1.4286   25.6344  -26.0261 H   0  0  0  0  0  0  0  0  0  0  0  0
   -2.7408   26.4586  -26.9779 H   0  0  0  0  0  0  0  0  0  0  0  0
   -6.3730   22.7210  -32.0390 C   0  0  0  0  0  0  0  0  0  0  0  0
   -7.3420   23.2371  -32.1078 H   0  0  0  0  0  0  0  0  0  0  0  0
   -6.2300   21.4370  -32.5730 C   0  0  0  0  0  0  0  0  0  0  0  0
   -7.0868   20.9509  -33.0626 H   0  0  0  0  0  0  0  0  0  0  0  0
   -5.8720   18.4510  -32.9140 C   0  0  0  0  0  0  0  0  0  0  0  0
   -6.7969   18.7247  -32.3852 H   0  0  0  0  0  0  0  0  0  0  0  0
   -5.7310   17.1650  -33.4390 C   0  0  0  0  0  0  0  0  0  0  0  0
   -6.5449   16.4350  -33.3180 H   0  0  0  0  0  0  0  0  0  0  0  0
   -4.5550   16.7930  -34.1230 C   0  0  0  0  0  0  0  0  0  0  0  0
   -4.3870   15.5000  -34.6820 C   0  0  0  0  0  0  0  0  0  0  0  0
   -5.3700   14.6410  -34.5540 N   0  0  0  0  0  0  0  0  0  0  0  0
   -5.5410   13.5920  -33.5940 C   0  0  0  0  0  0  0  0  0  0  0  0
   -6.5180   12.6140  -33.8180 C   0  0  0  0  0  0  0  0  0  0  0  0
   -7.1645   12.6780  -34.7057 H   0  0  0  0  0  0  0  0  0  0  0  0
   -6.6740   11.5580  -32.9180 C   0  0  0  0  0  0  0  0  0  0  0  0
   -7.4544   10.8018  -33.0889 H   0  0  0  0  0  0  0  0  0  0  0  0
   -5.8410   11.4600  -31.8010 C   0  0  0  0  0  0  0  0  0  0  0  0
   -5.9717   10.6317  -31.0891 H   0  0  0  0  0  0  0  0  0  0  0  0
   -4.8420   12.4130  -31.5870 C   0  0  0  0  0  0  0  0  0  0  0  0
   -4.1824   12.3271  -30.7109 H   0  0  0  0  0  0  0  0  0  0  0  0
   -4.6750   13.4840  -32.4880 C   0  0  0  0  0  0  0  0  0  0  0  0
   -3.6730   14.4520  -32.3200 O   0  0  0  0  0  0  0  0  0  0  0  0
   -2.2770   14.1730  -32.3100 C   0  0  0  0  0  0  0  0  0  0  0  0
   -1.9246   14.1026  -31.2704 H   0  0  0  0  0  0  0  0  0  0  0  0
   -2.0899   13.2197  -32.8260 H   0  0  0  0  0  0  0  0  0  0  0  0
   -1.7379   14.9812  -32.8260 H   0  0  0  0  0  0  0  0  0  0  0  0
   -3.1550   15.2010  -35.3390 C   0  0  0  0  0  0  0  0  0  0  0  0
   -2.7980   13.8920  -35.8320 C   0  0  0  0  0  0  0  0  0  0  0  0
   -2.5180   12.8440  -36.2360 N   0  0  0  0  0  0  0  0  0  0  0  0
  1  2  1  0
  2  3  1  0
  3  4  1  0
  4  5  2  0
  5  6  1  0
  5  7  1  0
  7  8  1  0
  8  9  2  0
  9 10  1  0
  9 11  1  0
 11 12  1  0
 11 13  2  0
 13 14  1  0
 14 15  1  0
 14 16  1  0
 14 17  1  0
 17 18  1  0
 17 19  1  0
 19 20  1  0
 19 21  1  0
 19 22  1  0
 22 23  1  0
 22 24  1  0
 22 25  1  0
 25 26  1  0
 26 27  1  0
 26 28  1  0
 26 29  1  0
 29 30  1  0
 29 31  1  0
 29 32  1  0
 32 33  1  0
 33 34  1  0
 33 35  1  0
 33 36  1  0
 36 37  1  0
 36 38  1  0
 13 39  1  0
 39 40  1  0
 39 41  2  0
 41 42  1  0
  7 43  2  0
 43 44  1  0
 43 45  1  0
 45 46  1  0
 45 47  2  0
 47 48  1  0
 48 49  2  0
 49 50  1  0
 50 51  2  0
 51 52  1  0
 51 53  1  0
 53 54  1  0
 53 55  2  0
 55 56  1  0
 55 57  1  0
 57 58  1  0
 57 59  2  0
 59 60  1  0
 60 61  1  0
 61 62  1  0
 61 63  1  0
 61 64  1  0
 48 65  1  0
 65 66  1  0
 66 67  3  0
 65  2  2  0
 47  4  1  0
 59 50  1  0
 41  8  1  0
 36 25  1  0
M  CHG  1   3  -1
M  END
>  <UniqueID>  (14) 
13

>  <SMILES>  (14) 
COc1ccccc1/N=c1\c(C#N)c[n-]c2cc(-c3ccc(CNCCN4CCOCC4)cc3)ccc12

>  <Energy>  (14) 
111.97101049705418

>  <Genealogy>  (14) 
COc1ccccc1N=c1c(C#N)c[n-]c2cc(-c3ccc(CNCCN4CCOCC4)cc3)ccc12 (protonated)
COc1ccccc1/N=c1\c(C#N)c[n-]c2cc(-c3ccc(CNCCN4CCOCC4)cc3)ccc12 (cis-trans isomerization)
COc1ccccc1/N=c1\c(C#N)c[n-]c2cc(-c3ccc(CNCCN4CCOCC4)cc3)ccc12 (3D coordinates assigned)
COc1ccccc1/N=c1\c(C#N)c[n-]c2cc(-c3ccc(CNCCN4CCOCC4)cc3)ccc12 (nonaromatic ring conformer: 111.97101049705418 kcal/mol)

>  <smiles>  (14) 
COc1ccccc1N=c1c(C#N)c[nH]c2cc(-c3ccc(CNCCN4CCOCC4)cc3)ccc12

>  <score_type>  (14) 
oracle

>  <origin>  (14) 
adg

>  <m_score__min__energy>  (14) 
-10.710000000000001

>  <m_primary>  (14) 
energy

$$$$
14:0
     RDKit          3D

 43 45  0  0  0  0  0  0  0  0999 V2000
   -5.4360   25.2600  -30.1640 C   0  0  0  0  0  0  0  0  0  0  0  0
   -4.0380   25.3060  -30.4340 O   0  0  0  0  0  0  0  0  0  0  0  0
   -3.1380   24.2480  -30.2300 C   0  0  0  0  0  0  0  0  0  0  0  0
   -3.3680   22.9940  -30.8190 C   0  0  0  0  0  0  0  0  0  0  0  0
   -2.4790   21.9370  -30.6250 C   0  0  0  0  0  0  0  0  0  0  0  0
   -1.3610   22.1010  -29.8060 C   0  0  0  0  0  0  0  0  0  0  0  0
   -1.0880   23.3540  -29.2150 C   0  0  0  0  0  0  0  0  0  0  0  0
    0.0870   23.4560  -28.4420 O   0  0  0  0  0  0  0  0  0  0  0  0
    0.2920   22.9840  -27.1150 C   0  0  0  0  0  0  0  0  0  0  0  0
   -1.9830   24.4420  -29.4230 C   0  0  0  0  0  0  0  0  0  0  0  0
   -1.6850   25.6770  -28.8180 O   0  0  0  0  0  0  0  0  0  0  0  0
   -1.2580   25.9050  -27.4790 C   0  0  0  0  0  0  0  0  0  0  0  0
   -0.4600   20.9010  -29.6100 C   0  0  1  0  0  0  0  0  0  0  0  0
   -0.9740   20.0040  -28.4830 C   0  0  0  0  0  0  0  0  0  0  0  0
   -2.1290   20.3970  -27.7780 C   0  0  0  0  0  0  0  0  0  0  0  0
   -2.6400   19.6100  -26.7420 C   0  0  0  0  0  0  0  0  0  0  0  0
   -2.0040   18.4220  -26.3870 C   0  0  0  0  0  0  0  0  0  0  0  0
   -0.8530   18.0180  -27.0650 C   0  0  0  0  0  0  0  0  0  0  0  0
   -0.3360   18.8010  -28.1020 C   0  0  0  0  0  0  0  0  0  0  0  0
   -0.2750   20.2090  -30.9800 C   0  0  0  0  0  0  0  0  0  0  0  0
   -1.5380   19.8880  -31.6870 N   0  0  0  0  0  0  0  0  0  0  0  0
   -2.7570   20.5800  -31.2200 C   0  0  0  0  0  0  0  0  0  0  0  0
   -5.5994   25.2546  -29.0762 H   0  0  0  0  0  0  0  0  0  0  0  0
   -5.9236   26.1426  -30.6037 H   0  0  0  0  0  0  0  0  0  0  0  0
   -5.8645   24.3473  -30.6037 H   0  0  0  0  0  0  0  0  0  0  0  0
   -4.2619   22.8433  -31.4421 H   0  0  0  0  0  0  0  0  0  0  0  0
   -0.0404   23.7493  -26.3982 H   0  0  0  0  0  0  0  0  0  0  0  0
   -0.2864   22.0612  -26.9606 H   0  0  0  0  0  0  0  0  0  0  0  0
    1.3612   22.7767  -26.9606 H   0  0  0  0  0  0  0  0  0  0  0  0
   -2.0084   25.5043  -26.7816 H   0  0  0  0  0  0  0  0  0  0  0  0
   -0.2948   25.4011  -27.3105 H   0  0  0  0  0  0  0  0  0  0  0  0
   -1.1409   26.9857  -27.3105 H   0  0  0  0  0  0  0  0  0  0  0  0
    0.5416   21.1986  -29.2660 H   0  0  0  0  0  0  0  0  0  0  0  0
   -2.6354   21.3359  -28.0466 H   0  0  0  0  0  0  0  0  0  0  0  0
   -3.5460   19.9291  -26.2059 H   0  0  0  0  0  0  0  0  0  0  0  0
   -2.4089   17.8030  -25.5728 H   0  0  0  0  0  0  0  0  0  0  0  0
   -0.3509   17.0808  -26.7829 H   0  0  0  0  0  0  0  0  0  0  0  0
    0.5755   18.4780  -28.6262 H   0  0  0  0  0  0  0  0  0  0  0  0
    0.3180   20.8756  -31.6234 H   0  0  0  0  0  0  0  0  0  0  0  0
    0.2213   19.2482  -30.7785 H   0  0  0  0  0  0  0  0  0  0  0  0
   -1.4070   20.0930  -32.7050 H   0  0  0  0  0  0  0  0  0  0  0  0
   -3.4368   20.7061  -32.0755 H   0  0  0  0  0  0  0  0  0  0  0  0
   -3.2010   19.9603  -30.4270 H   0  0  0  0  0  0  0  0  0  0  0  0
  1  2  1  0
  2  3  1  0
  3  4  2  0
  4  5  1  0
  5  6  2  0
  6  7  1  0
  7  8  1  0
  8  9  1  0
  7 10  2  0
 10 11  1  0
 11 12  1  0
  6 13  1  0
 13 14  1  0
 14 15  2  0
 15 16  1  0
 16 17  2  0
 17 18  1  0
 18 19  2  0
 13 20  1  0
 20 21  1  0
 21 22  1  0
 10  3  1  0
 19 14  1  0
 22  5  1  0
  1 23  1  0
  1 24  1  0
  1 25  1  0
  4 26  1  0
  9 27  1  0
  9 28  1  0
  9 29  1  0
 12 30  1  0
 12 31  1  0
 12 32  1  0
 13 33  1  1
 15 34  1  0
 16 35  1  0
 17 36  1  0
 18 37  1  0
 19 38  1  0
 20 39  1  0
 20 40  1  0
 21 41  1  0
 22 42  1  0
 22 43  1  0
M  END
>  <UniqueID>  (15) 
14

>  <SMILES>  (15) 
COc1cc2c(c(OC)c1OC)[C@@H](c1ccccc1)CNC2

>  <Energy>  (15) 
63.73488119838866

>  <Genealogy>  (15) 
COc1cc2c(c(OC)c1OC)[C@@H](c1ccccc1)CNC2 (chirality)
COc1cc2c(c(OC)c1OC)[C@@H](c1ccccc1)CNC2 (3D coordinates assigned)
COc1cc2c(c(OC)c1OC)[C@@H](c1ccccc1)CNC2 (nonaromatic ring conformer: 63.73488119838866 kcal/mol)

>  <smiles>  (15) 
COc1cc2c(c(OC)c1OC)C(c1ccccc1)CNC2

>  <score_type>  (15) 
oracle

>  <origin>  (15) 
adg

>  <m_score__min__energy>  (15) 
-6.9199999999999999

>  <m_primary>  (15) 
energy

$$$$
15:0
     RDKit          3D

 24 25  0  0  0  0  0  0  0  0999 V2000
   -6.4860   17.4380  -31.6200 C   0  0  0  0  0  0  0  0  0  0  0  0
   -7.5320   17.9960  -31.8380 C   0  0  0  0  0  0  0  0  0  0  0  0
   -8.8060   18.6730  -32.1030 C   0  0  0  0  0  0  0  0  0  0  0  0
   -8.5780   19.9000  -32.8670 N   0  0  0  0  0  0  0  0  0  0  0  0
   -7.8710   21.0540  -32.3700 C   0  0  0  0  0  0  0  0  0  0  0  0
   -8.6050   22.1820  -31.9680 C   0  0  0  0  0  0  0  0  0  0  0  0
   -7.9580   23.3210  -31.4820 C   0  0  0  0  0  0  0  0  0  0  0  0
   -6.5610   23.3500  -31.3910 C   0  0  0  0  0  0  0  0  0  0  0  0
   -5.8900   24.4810  -30.9080 C   0  0  0  0  0  0  0  0  0  0  0  0
   -4.5320   24.4860  -30.8270 N   0  0  0  0  0  0  0  0  0  0  0  0
   -3.7880   23.4130  -31.2050 C   0  0  0  0  0  0  0  0  0  0  0  0
   -4.4110   22.2620  -31.6940 C   0  0  0  0  0  0  0  0  0  0  0  0
   -5.8080   22.2240  -31.7900 C   0  0  0  0  0  0  0  0  0  0  0  0
   -6.4650   21.0830  -32.2760 C   0  0  0  0  0  0  0  0  0  0  0  0
   -5.5315   16.9288  -31.4211 H   0  0  0  0  0  0  0  0  0  0  0  0
   -9.4605   18.0026  -32.6794 H   0  0  0  0  0  0  0  0  0  0  0  0
   -9.2813   18.9303  -31.1449 H   0  0  0  0  0  0  0  0  0  0  0  0
   -8.9880   19.9430  -33.8280 H   0  0  0  0  0  0  0  0  0  0  0  0
   -9.7028   22.1685  -32.0366 H   0  0  0  0  0  0  0  0  0  0  0  0
   -8.5469   24.1962  -31.1704 H   0  0  0  0  0  0  0  0  0  0  0  0
   -6.4621   25.3664  -30.5938 H   0  0  0  0  0  0  0  0  0  0  0  0
   -2.6915   23.4510  -31.1256 H   0  0  0  0  0  0  0  0  0  0  0  0
   -3.8099   21.3934  -32.0009 H   0  0  0  0  0  0  0  0  0  0  0  0
   -5.8786   20.2054  -32.5857 H   0  0  0  0  0  0  0  0  0  0  0  0
  1  2  3  0
  2  3  1  0
  3  4  1  0
  4  5  1  0
  5  6  2  0
  6  7  1  0
  7  8  2  0
  8  9  1  0
  9 10  2  0
 10 11  1  0
 11 12  2  0
 12 13  1  0
 13 14  2  0
 14  5  1  0
 13  8  1  0
  1 15  1  0
  3 16  1  0
  3 17  1  0
  4 18  1  0
  6 19  1  0
  7 20  1  0
  9 21  1  0
 11 22  1  0
 12 23  1  0
 14 24  1  0
M  END
>  <UniqueID>  (16) 
15

>  <SMILES>  (16) 
C#CCNc1ccc2cnccc2c1

>  <Energy>  (16) 
25.3565639772195

>  <Genealogy>  (16) 
C#CCNc1ccc2cnccc2c1 (3D coordinates assigned)
C#CCNc1ccc2cnccc2c1 (optimized conformer: 25.3565639772195 kcal/mol)

>  <smiles>  (16) 
C#CCNc1ccc2cnccc2c1

>  <score_type>  (16) 
oracle

>  <origin>  (16) 
adg

>  <m_score__min__energy>  (16) 
-6.3499999999999996

>  <m_primary>  (16) 
energy

$$$$
16:0
     RDKit          3D

 62 64  0  0  0  0  0  0  0  0999 V2000
    2.3270   26.2610  -23.7550 C   0  0  0  0  0  0  0  0  0  0  0  0
    1.4780   25.3640  -24.6690 C   0  0  0  0  0  0  0  0  0  0  0  0
    0.0660   25.1760  -24.2260 N   0  0  0  0  0  0  0  0  0  0  0  0
   -0.5110   23.8710  -24.6480 C   0  0  0  0  0  0  0  0  0  0  0  0
   -0.1460   22.7090  -23.7120 C   0  0  0  0  0  0  0  0  0  0  0  0
   -0.8440   26.2710  -24.6530 C   0  0  0  0  0  0  0  0  0  0  0  0
   -0.3510   27.0370  -25.8910 C   0  0  0  0  0  0  0  0  0  0  0  0
   -0.9680   26.4940  -27.0400 O   0  0  0  0  0  0  0  0  0  0  0  0
   -0.3030   25.3220  -27.4730 C   0  0  0  0  0  0  0  0  0  0  0  0
   -0.9530   24.7720  -28.7490 C   0  0  0  0  0  0  0  0  0  0  0  0
   -2.3270   25.2700  -28.8840 N   0  0  0  0  0  0  0  0  0  0  0  0
   -3.2870   24.2070  -28.5650 C   0  0  0  0  0  0  0  0  0  0  0  0
   -3.8720   23.6640  -29.8300 C   0  0  0  0  0  0  0  0  0  0  0  0
   -5.1230   23.9640  -30.3570 C   0  0  0  0  0  0  0  0  0  0  0  0
   -5.2900   23.3440  -31.5510 N   0  0  0  0  0  0  0  0  0  0  0  0
   -6.5080   23.3660  -32.3620 C   0  0  0  0  0  0  0  0  0  0  0  0
   -7.2580   22.0700  -32.2040 C   0  0  0  0  0  0  0  0  0  0  0  0
   -6.7730   20.8860  -32.7850 C   0  0  0  0  0  0  0  0  0  0  0  0
   -7.4620   19.6820  -32.6100 C   0  0  0  0  0  0  0  0  0  0  0  0
   -8.6370   19.6500  -31.8520 C   0  0  0  0  0  0  0  0  0  0  0  0
   -9.3010   18.4800  -31.6790 F   0  0  0  0  0  0  0  0  0  0  0  0
   -9.1250   20.8230  -31.2710 C   0  0  0  0  0  0  0  0  0  0  0  0
   -8.4400   22.0300  -31.4450 C   0  0  0  0  0  0  0  0  0  0  0  0
   -4.1520   22.6560  -31.7840 C   0  0  0  0  0  0  0  0  0  0  0  0
   -3.8380   21.8530  -32.8850 C   0  0  0  0  0  0  0  0  0  0  0  0
   -2.5730   21.2380  -32.9150 C   0  0  0  0  0  0  0  0  0  0  0  0
   -1.6570   21.4370  -31.8600 C   0  0  0  0  0  0  0  0  0  0  0  0
   -1.9960   22.2490  -30.7640 C   0  0  0  0  0  0  0  0  0  0  0  0
   -3.2590   22.8410  -30.7570 C   0  0  0  0  0  0  0  0  0  0  0  0
    2.1055   26.0270  -22.7032 H   0  0  0  0  0  0  0  0  0  0  0  0
    3.3939   26.0817  -23.9537 H   0  0  0  0  0  0  0  0  0  0  0  0
    2.0893   27.3165  -23.9537 H   0  0  0  0  0  0  0  0  0  0  0  0
    1.4645   25.8137  -25.6728 H   0  0  0  0  0  0  0  0  0  0  0  0
    1.9448   24.3682  -24.6452 H   0  0  0  0  0  0  0  0  0  0  0  0
    0.0720   25.1820  -23.1770 H   0  0  0  0  0  0  0  0  0  0  0  0
   -1.6065   23.9666  -24.6737 H   0  0  0  0  0  0  0  0  0  0  0  0
   -0.0898   23.6352  -25.6364 H   0  0  0  0  0  0  0  0  0  0  0  0
   -0.2483   23.0345  -22.6663 H   0  0  0  0  0  0  0  0  0  0  0  0
   -0.8211   21.8610  -23.8997 H   0  0  0  0  0  0  0  0  0  0  0  0
    0.8927   22.3993  -23.8997 H   0  0  0  0  0  0  0  0  0  0  0  0
   -1.8275   25.8353  -24.8831 H   0  0  0  0  0  0  0  0  0  0  0  0
   -0.8883   26.9934  -23.8247 H   0  0  0  0  0  0  0  0  0  0  0  0
   -0.6160   28.1005  -25.7971 H   0  0  0  0  0  0  0  0  0  0  0  0
    0.7419   26.9450  -25.9758 H   0  0  0  0  0  0  0  0  0  0  0  0
    0.7513   25.5595  -27.6779 H   0  0  0  0  0  0  0  0  0  0  0  0
   -0.3751   24.5609  -26.6821 H   0  0  0  0  0  0  0  0  0  0  0  0
   -0.3648   25.0925  -29.6215 H   0  0  0  0  0  0  0  0  0  0  0  0
   -0.9777   23.6739  -28.6897 H   0  0  0  0  0  0  0  0  0  0  0  0
   -2.4670   26.0370  -28.1820 H   0  0  0  0  0  0  0  0  0  0  0  0
   -2.7727   23.3996  -28.0232 H   0  0  0  0  0  0  0  0  0  0  0  0
   -4.0914   24.6173  -27.9368 H   0  0  0  0  0  0  0  0  0  0  0  0
   -5.8700   24.6114  -29.8745 H   0  0  0  0  0  0  0  0  0  0  0  0
   -7.1479   24.1989  -32.0351 H   0  0  0  0  0  0  0  0  0  0  0  0
   -6.2343   23.4971  -33.4193 H   0  0  0  0  0  0  0  0  0  0  0  0
   -5.8478   20.9065  -33.3797 H   0  0  0  0  0  0  0  0  0  0  0  0
   -7.0794   18.7585  -33.0692 H   0  0  0  0  0  0  0  0  0  0  0  0
  -10.0496   20.7973  -30.6756 H   0  0  0  0  0  0  0  0  0  0  0  0
   -8.8279   22.9513  -30.9860 H   0  0  0  0  0  0  0  0  0  0  0  0
   -4.5585   21.7066  -33.7031 H   0  0  0  0  0  0  0  0  0  0  0  0
   -2.2962   20.5982  -33.7659 H   0  0  0  0  0  0  0  0  0  0  0  0
   -0.6699   20.9528  -31.8957 H   0  0  0  0  0  0  0  0  0  0  0  0
   -1.2880   22.4124  -29.9382 H   0  0  0  0  0  0  0  0  0  0  0  0
  1  2  1  0
  2  3  1  0
  3  4  1  0
  4  5  1  0
  3  6  1  0
  6  7  1  0
  7  8  1  0
  8  9  1  0
  9 10  1  0
 10 11  1  0
 11 12  1  0
 12 13  1  0
 13 14  2  0
 14 15  1  0
 15 16  1  0
 16 17  1  0
 17 18  2  0
 18 19  1  0
 19 20  2  0
 20 21  1  0
 20 22  1  0
 22 23  2  0
 15 24  1  0
 24 25  2  0
 25 26  1  0
 26 27  2  0
 27 28  1  0
 28 29  2  0
 29 13  1  0
 23 17  1  0
 29 24  1  0
  1 30  1  0
  1 31  1  0
  1 32  1  0
  2 33  1  0
  2 34  1  0
  3 35  1  0
  4 36  1  0
  4 37  1  0
  5 38  1  0
  5 39  1  0
  5 40  1  0
  6 41  1  0
  6 42  1  0
  7 43  1  0
  7 44  1  0
  9 45  1  0
  9 46  1  0
 10 47  1  0
 10 48  1  0
 11 49  1  0
 12 50  1  0
 12 51  1  0
 14 52  1  0
 16 53  1  0
 16 54  1  0
 18 55  1  0
 19 56  1  0
 22 57  1  0
 23 58  1  0
 25 59  1  0
 26 60  1  0
 27 61  1  0
 28 62  1  0
M  CHG  1   3   1
M  END
>  <UniqueID>  (17) 
16

>  <SMILES>  (17) 
CC[NH+](CC)CCOCCNCc1cn(Cc2ccc(F)cc2)c2ccccc12

>  <Energy>  (17) 
96.29746276920979

>  <Genealogy>  (17) 
CC[NH+](CC)CCOCCNCc1cn(Cc2ccc(F)cc2)c2ccccc12 (protonated)
CC[NH+](CC)CCOCCNCc1cn(Cc2ccc(F)cc2)c2ccccc12 (3D coordinates assigned)
CC[NH+](CC)CCOCCNCc1cn(Cc2ccc(F)cc2)c2ccccc12 (optimized conformer: 96.29746276920979 kcal/mol)

>  <smiles>  (17) 
CCN(CC)CCOCCNCc1cn(Cc2ccc(F)cc2)c2ccccc12

>  <score_type>  (17) 
oracle

>  <origin>  (17) 
adg

>  <m_score__min__energy>  (17) 
-8.4399999999999995

>  <m_primary>  (17) 
energy

$$$$
17:0
     RDKit          3D

 38 39  0  0  0  0  0  0  0  0999 V2000
   -2.9800   19.2710  -26.8020 C   0  0  0  0  0  0  0  0  0  0  0  0
   -1.8530   20.2880  -26.9500 C   0  0  0  0  0  0  0  0  0  0  0  0
   -2.1370   21.2080  -28.0530 N   0  0  0  0  0  0  0  0  0  0  0  0
   -2.4130   20.8290  -29.3160 C   0  0  0  0  0  0  0  0  0  0  0  0
   -2.6580   21.9350  -30.1000 C   0  0  0  0  0  0  0  0  0  0  0  0
   -3.0280   21.8700  -31.9750 Br  0  0  0  0  0  0  0  0  0  0  0  0
   -2.5340   23.0500  -29.2780 C   0  0  0  0  0  0  0  0  0  0  0  0
   -2.6660   24.4660  -29.6830 C   0  0  0  0  0  0  0  0  0  0  0  0
   -1.7910   25.3070  -29.3430 O   0  0  0  0  0  0  0  0  0  0  0  0
   -3.7830   24.8850  -30.4710 N   0  0  0  0  0  0  0  0  0  0  0  0
   -5.1460   24.3990  -30.2770 C   0  0  0  0  0  0  0  0  0  0  0  0
   -5.9290   24.4060  -31.5960 C   0  0  0  0  0  0  0  0  0  0  0  0
   -6.8470   23.2150  -31.6980 C   0  0  0  0  0  0  0  0  0  0  0  0
   -8.2260   23.3990  -31.8890 C   0  0  0  0  0  0  0  0  0  0  0  0
   -9.0830   22.2950  -31.9420 C   0  0  0  0  0  0  0  0  0  0  0  0
   -8.5720   21.0020  -31.7980 C   0  0  0  0  0  0  0  0  0  0  0  0
   -7.2010   20.8110  -31.5990 C   0  0  0  0  0  0  0  0  0  0  0  0
   -6.3410   21.9130  -31.5470 C   0  0  0  0  0  0  0  0  0  0  0  0
   -2.2290   22.5600  -28.0100 C   0  0  0  0  0  0  0  0  0  0  0  0
   -1.9960   23.3970  -26.7810 C   0  0  0  0  0  0  0  0  0  0  0  0
   -3.1762   19.0939  -25.7342 H   0  0  0  0  0  0  0  0  0  0  0  0
   -3.8900   19.6596  -27.2825 H   0  0  0  0  0  0  0  0  0  0  0  0
   -2.6866   18.3260  -27.2825 H   0  0  0  0  0  0  0  0  0  0  0  0
   -1.7568   20.8609  -26.0159 H   0  0  0  0  0  0  0  0  0  0  0  0
   -0.9158   19.7533  -27.1638 H   0  0  0  0  0  0  0  0  0  0  0  0
   -2.4390   19.7878  -29.6698 H   0  0  0  0  0  0  0  0  0  0  0  0
   -5.1086   23.3711  -29.8871 H   0  0  0  0  0  0  0  0  0  0  0  0
   -5.6558   25.0648  -29.5651 H   0  0  0  0  0  0  0  0  0  0  0  0
   -6.5293   25.3261  -31.6507 H   0  0  0  0  0  0  0  0  0  0  0  0
   -5.2086   24.3594  -32.4260 H   0  0  0  0  0  0  0  0  0  0  0  0
   -8.6336   24.4149  -31.9973 H   0  0  0  0  0  0  0  0  0  0  0  0
  -10.1616   22.4446  -32.0974 H   0  0  0  0  0  0  0  0  0  0  0  0
   -9.2478   20.1352  -31.8412 H   0  0  0  0  0  0  0  0  0  0  0  0
   -6.7987   19.7938  -31.4833 H   0  0  0  0  0  0  0  0  0  0  0  0
   -5.2636   21.7595  -31.3871 H   0  0  0  0  0  0  0  0  0  0  0  0
   -2.1663   22.7851  -25.8829 H   0  0  0  0  0  0  0  0  0  0  0  0
   -0.9604   23.7680  -26.7809 H   0  0  0  0  0  0  0  0  0  0  0  0
   -2.6909   24.2497  -26.7809 H   0  0  0  0  0  0  0  0  0  0  0  0
  1  2  1  0
  2  3  1  0
  3  4  1  0
  4  5  2  0
  5  6  1  0
  5  7  1  0
  7  8  1  0
  8  9  2  0
  8 10  1  0
 10 11  1  0
 11 12  1  0
 12 13  1  0
 13 14  2  0
 14 15  1  0
 15 16  2  0
 16 17  1  0
 17 18  2  0
  7 19  2  0
 19 20  1  0
 19  3  1  0
 18 13  1  0
  1 21  1  0
  1 22  1  0
  1 23  1  0
  2 24  1  0
  2 25  1  0
  4 26  1  0
 11 27  1  0
 11 28  1  0
 12 29  1  0
 12 30  1  0
 14 31  1  0
 15 32  1  0
 16 33  1  0
 17 34  1  0
 18 35  1  0
 20 36  1  0
 20 37  1  0
 20 38  1  0
M  CHG  1  10  -1
M  END
>  <UniqueID>  (18) 
17

>  <SMILES>  (18) 
CCn1cc(Br)c(C(=O)[N-]CCc2ccccc2)c1C

>  <Energy>  (18) 
56.71919834149628

>  <Genealogy>  (18) 
CCn1cc(Br)c(C(=O)[N-]CCc2ccccc2)c1C (protonated)
CCn1cc(Br)c(C(=O)[N-]CCc2ccccc2)c1C (3D coordinates assigned)
CCn1cc(Br)c(C(=O)[N-]CCc2ccccc2)c1C (optimized conformer: 56.71919834149628 kcal/mol)

>  <smiles>  (18) 
CCn1cc(Br)c(C(=O)NCCc2ccccc2)c1C

>  <score_type>  (18) 
oracle

>  <origin>  (18) 
adg

>  <m_score__min__energy>  (18) 
-9

>  <m_primary>  (18) 
energy

$$$$
18:0
     RDKit          3D

 44 45  0  0  0  0  0  0  0  0999 V2000
   -1.9270   23.4710  -29.0910 C   0  0  0  0  0  0  0  0  0  0  0  0
   -1.2410   22.6490  -30.1920 C   0  0  0  0  0  0  0  0  0  0  0  0
   -2.1770   21.9160  -31.0740 N   0  0  0  0  0  0  0  0  0  0  0  0
   -2.8420   20.8020  -30.3750 C   0  0  0  0  0  0  0  0  0  0  0  0
   -1.5420   21.4810  -32.3370 C   0  0  0  0  0  0  0  0  0  0  0  0
   -2.5720   21.3950  -33.4870 C   0  0  0  0  0  0  0  0  0  0  0  0
   -3.8990   21.9340  -33.1120 N   0  0  0  0  0  0  0  0  0  0  0  0
   -4.9510   20.9000  -33.0450 C   0  0  0  0  0  0  0  0  0  0  0  0
   -6.1740   21.3770  -32.2860 C   0  0  0  0  0  0  0  0  0  0  0  0
   -7.3760   20.6380  -32.3520 C   0  0  0  0  0  0  0  0  0  0  0  0
   -7.3970   19.4400  -33.0870 O   0  0  0  0  0  0  0  0  0  0  0  0
   -7.6110   18.1500  -32.5280 C   0  0  0  0  0  0  0  0  0  0  0  0
   -8.5240   21.1170  -31.6910 C   0  0  0  0  0  0  0  0  0  0  0  0
   -8.4880   22.3150  -30.9790 C   0  0  0  0  0  0  0  0  0  0  0  0
   -7.3050   23.0560  -30.9150 C   0  0  0  0  0  0  0  0  0  0  0  0
   -7.2460   24.2670  -30.2190 C   0  0  0  0  0  0  0  0  0  0  0  0
   -6.0490   24.9820  -30.1860 C   0  0  0  0  0  0  0  0  0  0  0  0
   -4.9350   24.4640  -30.8520 C   0  0  0  0  0  0  0  0  0  0  0  0
   -3.8460   25.0930  -30.8360 O   0  0  0  0  0  0  0  0  0  0  0  0
   -5.0200   23.3090  -31.5050 O   0  0  0  0  0  0  0  0  0  0  0  0
   -6.1410   22.5910  -31.5660 C   0  0  0  0  0  0  0  0  0  0  0  0
   -1.6144   23.0964  -28.1051 H   0  0  0  0  0  0  0  0  0  0  0  0
   -1.6394   24.5282  -29.1896 H   0  0  0  0  0  0  0  0  0  0  0  0
   -3.0185   23.3772  -29.1896 H   0  0  0  0  0  0  0  0  0  0  0  0
   -0.6458   23.3339  -30.8138 H   0  0  0  0  0  0  0  0  0  0  0  0
   -0.6261   21.8914  -29.6842 H   0  0  0  0  0  0  0  0  0  0  0  0
   -2.7553   20.9472  -29.2881 H   0  0  0  0  0  0  0  0  0  0  0  0
   -3.9047   20.7740  -30.6576 H   0  0  0  0  0  0  0  0  0  0  0  0
   -2.3623   19.8533  -30.6576 H   0  0  0  0  0  0  0  0  0  0  0  0
   -0.7592   22.2035  -32.6112 H   0  0  0  0  0  0  0  0  0  0  0  0
   -1.1129   20.4801  -32.1815 H   0  0  0  0  0  0  0  0  0  0  0  0
   -2.1897   21.9682  -34.3445 H   0  0  0  0  0  0  0  0  0  0  0  0
   -2.7048   20.3311  -33.7330 H   0  0  0  0  0  0  0  0  0  0  0  0
   -4.1860   22.6180  -33.8510 H   0  0  0  0  0  0  0  0  0  0  0  0
   -3.8550   22.4630  -32.2120 H   0  0  0  0  0  0  0  0  0  0  0  0
   -5.2512   20.6329  -34.0690 H   0  0  0  0  0  0  0  0  0  0  0  0
   -4.5383   20.0319  -32.5101 H   0  0  0  0  0  0  0  0  0  0  0  0
   -7.5995   18.2196  -31.4303 H   0  0  0  0  0  0  0  0  0  0  0  0
   -8.5856   17.7633  -32.8607 H   0  0  0  0  0  0  0  0  0  0  0  0
   -6.8135   17.4693  -32.8607 H   0  0  0  0  0  0  0  0  0  0  0  0
   -9.4591   20.5395  -31.7371 H   0  0  0  0  0  0  0  0  0  0  0  0
   -9.3917   22.6773  -30.4671 H   0  0  0  0  0  0  0  0  0  0  0  0
   -8.1366   24.6529  -29.7015 H   0  0  0  0  0  0  0  0  0  0  0  0
   -5.9829   25.9374  -29.6449 H   0  0  0  0  0  0  0  0  0  0  0  0
  1  2  1  0
  2  3  1  0
  3  4  1  0
  3  5  1  0
  5  6  1  0
  6  7  1  0
  7  8  1  0
  8  9  1  0
  9 10  2  0
 10 11  1  0
 11 12  1  0
 10 13  1  0
 13 14  2  0
 14 15  1  0
 15 16  1  0
 16 17  2  0
 17 18  1  0
 18 19  2  0
 18 20  1  0
 20 21  1  0
 21  9  1  0
 21 15  2  0
  1 22  1  0
  1 23  1  0
  1 24  1  0
  2 25  1  0
  2 26  1  0
  4 27  1  0
  4 28  1  0
  4 29  1  0
  5 30  1  0
  5 31  1  0
  6 32  1  0
  6 33  1  0
  7 34  1  0
  7 35  1  0
  8 36  1  0
  8 37  1  0
 12 38  1  0
 12 39  1  0
 12 40  1  0
 13 41  1  0
 14 42  1  0
 16 43  1  0
 17 44  1  0
M  CHG  1   7   1
M  END
>  <UniqueID>  (19) 
18

>  <SMILES>  (19) 
CCN(C)CC[NH2+]Cc1c(OC)ccc2ccc(=O)oc12

>  <Energy>  (19) 
50.84703849837148

>  <Genealogy>  (19) 
CCN(C)CC[NH2+]Cc1c(OC)ccc2ccc(=O)oc12 (protonated)
CCN(C)CC[NH2+]Cc1c(OC)ccc2ccc(=O)oc12 (3D coordinates assigned)
CCN(C)CC[NH2+]Cc1c(OC)ccc2ccc(=O)oc12 (optimized conformer: 50.84703849837148 kcal/mol)

>  <smiles>  (19) 
CCN(C)CCNCc1c(OC)ccc2ccc(=O)oc12

>  <score_type>  (19) 
oracle

>  <origin>  (19) 
adg

>  <m_score__min__energy>  (19) 
-6.0700000000000003

>  <m_primary>  (19) 
energy

$$$$
19:0
     RDKit          3D

 52 55  0  0  0  0  0  0  0  0999 V2000
   -9.5470   21.2110  -31.9500 C   0  0  0  0  0  0  0  0  0  0  0  0
   -8.9820   20.0790  -32.8120 C   0  0  0  0  0  0  0  0  0  0  0  0
   -7.7780   19.4720  -32.2000 N   0  0  0  0  0  0  0  0  0  0  0  0
   -8.1090   18.1840  -31.5640 C   0  0  0  0  0  0  0  0  0  0  0  0
   -6.6050   19.3600  -33.1020 C   0  0  0  0  0  0  0  0  0  0  0  0
   -5.6650   20.5920  -33.0920 C   0  0  0  0  0  0  0  0  0  0  0  0
   -6.3770   21.8230  -32.7010 N   0  0  0  0  0  0  0  0  0  0  0  0
   -5.5550   22.6620  -31.8590 C   0  0  0  0  0  0  0  0  0  0  0  0
   -6.0420   23.8890  -31.3830 C   0  0  0  0  0  0  0  0  0  0  0  0
   -5.2620   24.6800  -30.5410 C   0  0  0  0  0  0  0  0  0  0  0  0
   -3.9820   24.2630  -30.1660 C   0  0  0  0  0  0  0  0  0  0  0  0
   -3.2430   25.0500  -29.3450 N   0  0  0  0  0  0  0  0  0  0  0  0
   -1.9910   24.7070  -28.9520 C   0  0  0  0  0  0  0  0  0  0  0  0
   -1.2750   25.5640  -28.1120 C   0  0  0  0  0  0  0  0  0  0  0  0
    0.0170   25.2180  -27.7230 C   0  0  0  0  0  0  0  0  0  0  0  0
    0.5740   24.0610  -28.1640 N   0  0  0  0  0  0  0  0  0  0  0  0
   -0.0950   23.2060  -28.9810 C   0  0  0  0  0  0  0  0  0  0  0  0
   -1.4110   23.4980  -29.3960 C   0  0  0  0  0  0  0  0  0  0  0  0
   -2.1610   22.6410  -30.2390 C   0  0  0  0  0  0  0  0  0  0  0  0
   -1.4500   21.0750  -30.8110 S   0  0  0  0  0  0  0  0  0  0  0  0
   -1.5800   20.2940  -29.2010 C   0  0  0  0  0  0  0  0  0  0  0  0
   -0.5750   19.4360  -28.7410 C   0  0  0  0  0  0  0  0  0  0  0  0
   -0.7130   18.8340  -27.4890 C   0  0  0  0  0  0  0  0  0  0  0  0
   -1.8450   19.0910  -26.7140 C   0  0  0  0  0  0  0  0  0  0  0  0
   -2.8310   19.9460  -27.2110 C   0  0  0  0  0  0  0  0  0  0  0  0
   -2.6800   20.5240  -28.4320 N   0  0  0  0  0  0  0  0  0  0  0  0
   -3.4620   23.0350  -30.6390 C   0  0  0  0  0  0  0  0  0  0  0  0
   -4.2630   22.2450  -31.4910 C   0  0  0  0  0  0  0  0  0  0  0  0
   -9.4215   20.9596  -30.8865 H   0  0  0  0  0  0  0  0  0  0  0  0
   -9.0091   22.1445  -32.1721 H   0  0  0  0  0  0  0  0  0  0  0  0
  -10.6163   21.3423  -32.1721 H   0  0  0  0  0  0  0  0  0  0  0  0
   -9.7520   19.3023  -32.9295 H   0  0  0  0  0  0  0  0  0  0  0  0
   -8.6951   20.5010  -33.7865 H   0  0  0  0  0  0  0  0  0  0  0  0
   -8.0800   18.2970  -30.4702 H   0  0  0  0  0  0  0  0  0  0  0  0
   -9.1169   17.8705  -31.8736 H   0  0  0  0  0  0  0  0  0  0  0  0
   -7.3771   17.4234  -31.8736 H   0  0  0  0  0  0  0  0  0  0  0  0
   -6.0203   18.4796  -32.7971 H   0  0  0  0  0  0  0  0  0  0  0  0
   -7.0036   19.2797  -34.1241 H   0  0  0  0  0  0  0  0  0  0  0  0
   -4.8487   20.4109  -32.3772 H   0  0  0  0  0  0  0  0  0  0  0  0
   -5.2754   20.7322  -34.1111 H   0  0  0  0  0  0  0  0  0  0  0  0
   -6.6250   22.3560  -33.5670 H   0  0  0  0  0  0  0  0  0  0  0  0
   -7.2770   21.5850  -32.2220 H   0  0  0  0  0  0  0  0  0  0  0  0
   -7.0462   24.2289  -31.6764 H   0  0  0  0  0  0  0  0  0  0  0  0
   -5.6561   25.6375  -30.1698 H   0  0  0  0  0  0  0  0  0  0  0  0
   -1.7275   26.5032  -27.7612 H   0  0  0  0  0  0  0  0  0  0  0  0
    0.5869   25.8831  -27.0575 H   0  0  0  0  0  0  0  0  0  0  0  0
    0.3927   22.2804  -29.3208 H   0  0  0  0  0  0  0  0  0  0  0  0
    0.3135   19.2381  -29.3587 H   0  0  0  0  0  0  0  0  0  0  0  0
    0.0694   18.1580  -27.1138 H   0  0  0  0  0  0  0  0  0  0  0  0
   -1.9591   18.6257  -25.7238 H   0  0  0  0  0  0  0  0  0  0  0  0
   -3.7313   20.1521  -26.6135 H   0  0  0  0  0  0  0  0  0  0  0  0
   -3.8717   21.2903  -31.8724 H   0  0  0  0  0  0  0  0  0  0  0  0
  1  2  1  0
  2  3  1  0
  3  4  1  0
  3  5  1  0
  5  6  1  0
  6  7  1  0
  7  8  1  0
  8  9  2  0
  9 10  1  0
 10 11  2  0
 11 12  1  0
 12 13  2  0
 13 14  1  0
 14 15  2  0
 15 16  1  0
 16 17  2  0
 17 18  1  0
 18 19  2  0
 19 20  1  0
 20 21  1  0
 21 22  2  0
 22 23  1  0
 23 24  2  0
 24 25  1  0
 25 26  2  0
 19 27  1  0
 27 28  2  0
 28  8  1  0
 27 11  1  0
 18 13  1  0
 26 21  1  0
  1 29  1  0
  1 30  1  0
  1 31  1  0
  2 32  1  0
  2 33  1  0
  4 34  1  0
  4 35  1  0
  4 36  1  0
  5 37  1  0
  5 38  1  0
  6 39  1  0
  6 40  1  0
  7 41  1  0
  7 42  1  0
  9 43  1  0
 10 44  1  0
 14 45  1  0
 15 46  1  0
 17 47  1  0
 22 48  1  0
 23 49  1  0
 24 50  1  0
 25 51  1  0
 28 52  1  0
M  CHG  1   7   1
M  END
>  <UniqueID>  (20) 
19

>  <SMILES>  (20) 
CCN(C)CC[NH2+]c1ccc2nc3ccncc3c(Sc3ccccn3)c2c1

>  <Energy>  (20) 
64.63078844585918

>  <Genealogy>  (20) 
CCN(C)CC[NH2+]c1ccc2nc3ccncc3c(Sc3ccccn3)c2c1 (protonated)
CCN(C)CC[NH2+]c1ccc2nc3ccncc3c(Sc3ccccn3)c2c1 (3D coordinates assigned)
CCN(C)CC[NH2+]c1ccc2nc3ccncc3c(Sc3ccccn3)c2c1 (optimized conformer: 64.63078844585918 kcal/mol)

>  <smiles>  (20) 
CCN(C)CCNc1ccc2nc3ccncc3c(Sc3ccccn3)c2c1

>  <score_type>  (20) 
oracle

>  <origin>  (20) 
adg

>  <m_score__min__energy>  (20) 
-7.9900000000000002

>  <m_primary>  (20) 
energy

$$$$
20:0
     RDKit          3D

 65 67  0  0  0  0  0  0  0  0999 V2000
   -6.8460   17.0430  -33.4770 C   0  0  0  0  0  0  0  0  0  0  0  0
   -5.8210   17.7900  -34.3290 C   0  0  0  0  0  0  0  0  0  0  0  0
   -4.4890   17.7980  -33.6820 N   0  0  0  0  0  0  0  0  0  0  0  0
   -3.8050   16.5020  -33.8650 C   0  0  0  0  0  0  0  0  0  0  0  0
   -3.6570   18.9060  -34.2060 C   0  0  0  0  0  0  0  0  0  0  0  0
   -3.6980   20.1310  -33.2720 C   0  0  0  0  0  0  0  0  0  0  0  0
   -4.3500   19.8300  -31.9790 N   0  0  0  0  0  0  0  0  0  0  0  0
   -5.0300   21.0000  -31.4390 C   0  0  0  0  0  0  0  0  0  0  0  0
   -6.4300   21.1690  -31.6020 C   0  0  0  0  0  0  0  0  0  0  0  0
   -7.2400   20.1570  -32.1720 C   0  0  0  0  0  0  0  0  0  0  0  0
   -8.5960   20.3690  -32.4080 C   0  0  0  0  0  0  0  0  0  0  0  0
   -9.1750   21.5890  -32.0920 C   0  0  0  0  0  0  0  0  0  0  0  0
   -8.4140   22.5870  -31.4900 C   0  0  0  0  0  0  0  0  0  0  0  0
   -7.0430   22.3840  -31.1810 C   0  0  0  0  0  0  0  0  0  0  0  0
   -6.3110   23.3400  -30.5050 N   0  0  0  0  0  0  0  0  0  0  0  0
   -7.0090   24.4480  -29.8130 C   0  0  0  0  0  0  0  0  0  0  0  0
   -4.9390   23.2280  -30.4090 C   0  0  0  0  0  0  0  0  0  0  0  0
   -4.1380   24.3080  -29.9490 C   0  0  0  0  0  0  0  0  0  0  0  0
   -2.7610   24.1690  -29.7550 C   0  0  0  0  0  0  0  0  0  0  0  0
   -2.0290   25.2910  -29.3300 O   0  0  0  0  0  0  0  0  0  0  0  0
   -1.4070   25.4310  -28.0520 C   0  0  0  0  0  0  0  0  0  0  0  0
   -2.2940   24.8410  -26.9460 C   0  0  0  0  0  0  0  0  0  0  0  0
   -2.3150   25.7270  -25.6920 C   0  0  0  0  0  0  0  0  0  0  0  0
   -0.9710   25.8130  -25.0760 N   0  0  0  0  0  0  0  0  0  0  0  0
   -0.9480   26.7930  -23.9770 C   0  0  0  0  0  0  0  0  0  0  0  0
   -0.5580   24.4960  -24.5670 C   0  0  0  0  0  0  0  0  0  0  0  0
   -2.1650   22.9250  -29.9890 C   0  0  0  0  0  0  0  0  0  0  0  0
   -2.9130   21.8740  -30.5050 C   0  0  0  0  0  0  0  0  0  0  0  0
   -4.2900   22.0230  -30.7890 C   0  0  0  0  0  0  0  0  0  0  0  0
   -6.6246   17.2043  -32.4117 H   0  0  0  0  0  0  0  0  0  0  0  0
   -7.8546   17.4193  -33.7030 H   0  0  0  0  0  0  0  0  0  0  0  0
   -6.7967   15.9676  -33.7030 H   0  0  0  0  0  0  0  0  0  0  0  0
   -5.7408   17.2961  -35.3086 H   0  0  0  0  0  0  0  0  0  0  0  0
   -6.1575   18.8308  -34.4450 H   0  0  0  0  0  0  0  0  0  0  0  0
   -3.5752   16.0666  -32.8813 H   0  0  0  0  0  0  0  0  0  0  0  0
   -4.4595   15.8178  -34.4250 H   0  0  0  0  0  0  0  0  0  0  0  0
   -2.8709   16.6563  -34.4250 H   0  0  0  0  0  0  0  0  0  0  0  0
   -2.6168   18.5602  -34.2971 H   0  0  0  0  0  0  0  0  0  0  0  0
   -4.0565   19.2049  -35.1863 H   0  0  0  0  0  0  0  0  0  0  0  0
   -2.6673   20.4635  -33.0794 H   0  0  0  0  0  0  0  0  0  0  0  0
   -4.2866   20.9149  -33.7710 H   0  0  0  0  0  0  0  0  0  0  0  0
   -3.6400   19.4660  -31.3030 H   0  0  0  0  0  0  0  0  0  0  0  0
   -5.0120   19.0260  -32.0500 H   0  0  0  0  0  0  0  0  0  0  0  0
   -6.7907   19.1874  -32.4327 H   0  0  0  0  0  0  0  0  0  0  0  0
   -9.2090   19.5674  -32.8458 H   0  0  0  0  0  0  0  0  0  0  0  0
  -10.2367   21.7681  -32.3173 H   0  0  0  0  0  0  0  0  0  0  0  0
   -8.8839   23.5519  -31.2489 H   0  0  0  0  0  0  0  0  0  0  0  0
   -6.9235   24.3123  -28.7248 H   0  0  0  0  0  0  0  0  0  0  0  0
   -6.5510   25.4060  -30.1002 H   0  0  0  0  0  0  0  0  0  0  0  0
   -8.0709   24.4486  -30.1002 H   0  0  0  0  0  0  0  0  0  0  0  0
   -4.6137   25.2776  -29.7404 H   0  0  0  0  0  0  0  0  0  0  0  0
   -0.4422   24.9027  -28.0607 H   0  0  0  0  0  0  0  0  0  0  0  0
   -1.2557   26.5015  -27.8490 H   0  0  0  0  0  0  0  0  0  0  0  0
   -3.3206   24.7426  -27.3286 H   0  0  0  0  0  0  0  0  0  0  0  0
   -1.8793   23.8621  -26.6636 H   0  0  0  0  0  0  0  0  0  0  0  0
   -2.6470   26.7376  -25.9720 H   0  0  0  0  0  0  0  0  0  0  0  0
   -3.0058   25.2811  -24.9613 H   0  0  0  0  0  0  0  0  0  0  0  0
   -0.9604   26.2633  -23.0130 H   0  0  0  0  0  0  0  0  0  0  0  0
   -0.0353   27.4028  -24.0485 H   0  0  0  0  0  0  0  0  0  0  0  0
   -1.8311   27.4449  -24.0485 H   0  0  0  0  0  0  0  0  0  0  0  0
   -0.5624   24.5101  -23.4671 H   0  0  0  0  0  0  0  0  0  0  0  0
   -1.2584   23.7278  -24.9266 H   0  0  0  0  0  0  0  0  0  0  0  0
    0.4556   24.2653  -24.9266 H   0  0  0  0  0  0  0  0  0  0  0  0
   -1.0985   22.7783  -29.7632 H   0  0  0  0  0  0  0  0  0  0  0  0
   -2.4244   20.9072  -30.6963 H   0  0  0  0  0  0  0  0  0  0  0  0
  1  2  1  0
  2  3  1  0
  3  4  1  0
  3  5  1  0
  5  6  1  0
  6  7  1  0
  7  8  1  0
  8  9  2  0
  9 10  1  0
 10 11  2  0
 11 12  1  0
 12 13  2  0
 13 14  1  0
 14 15  2  0
 15 16  1  0
 15 17  1  0
 17 18  2  0
 18 19  1  0
 19 20  1  0
 20 21  1  0
 21 22  1  0
 22 23  1  0
 23 24  1  0
 24 25  1  0
 24 26  1  0
 19 27  2  0
 27 28  1  0
 28 29  2  0
 29  8  1  0
 14  9  1  0
 29 17  1  0
  1 30  1  0
  1 31  1  0
  1 32  1  0
  2 33  1  0
  2 34  1  0
  4 35  1  0
  4 36  1  0
  4 37  1  0
  5 38  1  0
  5 39  1  0
  6 40  1  0
  6 41  1  0
  7 42  1  0
  7 43  1  0
 10 44  1  0
 11 45  1  0
 12 46  1  0
 13 47  1  0
 16 48  1  0
 16 49  1  0
 16 50  1  0
 18 51  1  0
 21 52  1  0
 21 53  1  0
 22 54  1  0
 22 55  1  0
 23 56  1  0
 23 57  1  0
 25 58  1  0
 25 59  1  0
 25 60  1  0
 26 61  1  0
 26 62  1  0
 26 63  1  0
 27 64  1  0
 28 65  1  0
M  CHG  2   7   1  15   1
M  END
>  <UniqueID>  (21) 
20

>  <SMILES>  (21) 
CCN(C)CC[NH2+]c1c2ccccc2[n+](C)c2cc(OCCCN(C)C)ccc12

>  <Energy>  (21) 
93.32990632148817

>  <Genealogy>  (21) 
CCN(C)CC[NH2+]c1c2ccccc2[n+](C)c2cc(OCCCN(C)C)ccc12 (protonated)
CCN(C)CC[NH2+]c1c2ccccc2[n+](C)c2cc(OCCCN(C)C)ccc12 (3D coordinates assigned)
CCN(C)CC[NH2+]c1c2ccccc2[n+](C)c2cc(OCCCN(C)C)ccc12 (optimized conformer: 93.32990632148817 kcal/mol)

>  <smiles>  (21) 
CCN(C)CCNc1c2ccccc2[n+](C)c2cc(OCCCN(C)C)ccc12

>  <score_type>  (21) 
oracle

>  <origin>  (21) 
adg

>  <m_score__min__energy>  (21) 
-8.0399999999999991

>  <m_primary>  (21) 
energy

$$$$
21:0
     RDKit          3D

 44 46  0  0  0  0  0  0  0  0999 V2000
   -1.9130   17.5360  -33.5270 C   0  0  0  0  0  0  0  0  0  0  0  0
   -2.2840   18.6840  -32.5900 C   0  0  0  0  0  0  0  0  0  0  0  0
   -3.2800   19.5830  -33.2170 N   0  0  0  0  0  0  0  0  0  0  0  0
   -2.6360   20.7770  -33.8280 C   0  0  0  0  0  0  0  0  0  0  0  0
   -1.5890   21.3360  -32.8730 C   0  0  0  0  0  0  0  0  0  0  0  0
   -4.1060   18.8420  -34.1960 C   0  0  0  0  0  0  0  0  0  0  0  0
   -5.4670   18.4700  -33.5980 C   0  0  0  0  0  0  0  0  0  0  0  0
   -6.4990   19.3780  -34.0970 N   0  0  0  0  0  0  0  0  0  0  0  0
   -7.2780   20.1880  -33.2080 C   0  0  0  0  0  0  0  0  0  0  0  0
   -8.6290   19.9890  -33.1060 N   0  0  0  0  0  0  0  0  0  0  0  0
   -9.4120   20.7290  -32.2550 C   0  0  0  0  0  0  0  0  0  0  0  0
   -8.8470   21.7410  -31.4610 C   0  0  0  0  0  0  0  0  0  0  0  0
   -7.4790   21.9530  -31.5850 C   0  0  0  0  0  0  0  0  0  0  0  0
   -6.7020   21.2040  -32.4390 C   0  0  0  0  0  0  0  0  0  0  0  0
   -5.4170   21.6290  -32.4390 N   0  0  0  0  0  0  0  0  0  0  0  0
   -5.3920   22.6490  -31.5530 C   0  0  0  0  0  0  0  0  0  0  0  0
   -4.2930   23.4310  -31.2000 C   0  0  0  0  0  0  0  0  0  0  0  0
   -4.4920   24.4620  -30.2630 C   0  0  0  0  0  0  0  0  0  0  0  0
   -5.7720   24.6920  -29.7080 C   0  0  0  0  0  0  0  0  0  0  0  0
   -6.8670   23.8940  -30.0840 C   0  0  0  0  0  0  0  0  0  0  0  0
   -6.6390   22.8760  -31.0080 C   0  0  0  0  0  0  0  0  0  0  0  0
   -1.6283   16.6551  -32.9328 H   0  0  0  0  0  0  0  0  0  0  0  0
   -2.7764   17.2869  -34.1614 H   0  0  0  0  0  0  0  0  0  0  0  0
   -1.0671   17.8393  -34.1614 H   0  0  0  0  0  0  0  0  0  0  0  0
   -2.7075   18.2690  -31.6635 H   0  0  0  0  0  0  0  0  0  0  0  0
   -1.3758   19.2656  -32.3732 H   0  0  0  0  0  0  0  0  0  0  0  0
   -2.1530   20.4892  -34.7734 H   0  0  0  0  0  0  0  0  0  0  0  0
   -3.3993   21.5444  -34.0240 H   0  0  0  0  0  0  0  0  0  0  0  0
   -1.9105   21.1643  -31.8351 H   0  0  0  0  0  0  0  0  0  0  0  0
   -0.6272   20.8314  -33.0471 H   0  0  0  0  0  0  0  0  0  0  0  0
   -1.4732   22.4159  -33.0471 H   0  0  0  0  0  0  0  0  0  0  0  0
   -4.2635   19.4723  -35.0836 H   0  0  0  0  0  0  0  0  0  0  0  0
   -3.5788   17.9160  -34.4689 H   0  0  0  0  0  0  0  0  0  0  0  0
   -5.7205   17.4385  -33.8838 H   0  0  0  0  0  0  0  0  0  0  0  0
   -5.4139   18.5519  -32.5023 H   0  0  0  0  0  0  0  0  0  0  0  0
   -6.9060   19.1620  -35.0350 H   0  0  0  0  0  0  0  0  0  0  0  0
   -9.0820   19.2410  -33.6780 H   0  0  0  0  0  0  0  0  0  0  0  0
  -10.4917   20.5277  -32.1943 H   0  0  0  0  0  0  0  0  0  0  0  0
   -9.4605   22.3394  -30.7714 H   0  0  0  0  0  0  0  0  0  0  0  0
   -4.6200   21.2770  -33.0160 H   0  0  0  0  0  0  0  0  0  0  0  0
   -3.3016   23.2479  -31.6400 H   0  0  0  0  0  0  0  0  0  0  0  0
   -3.6445   25.0943  -29.9598 H   0  0  0  0  0  0  0  0  0  0  0  0
   -5.9122   25.5014  -28.9765 H   0  0  0  0  0  0  0  0  0  0  0  0
   -7.8686   24.0672  -29.6635 H   0  0  0  0  0  0  0  0  0  0  0  0
  1  2  1  0
  2  3  1  0
  3  4  1  0
  4  5  1  0
  3  6  1  0
  6  7  1  0
  7  8  1  0
  8  9  1  0
  9 10  2  0
 10 11  1  0
 11 12  2  0
 12 13  1  0
 13 14  2  0
 14 15  1  0
 15 16  1  0
 16 17  2  0
 17 18  1  0
 18 19  2  0
 19 20  1  0
 20 21  2  0
 14  9  1  0
 21 16  1  0
 21 13  1  0
  1 22  1  0
  1 23  1  0
  1 24  1  0
  2 25  1  0
  2 26  1  0
  4 27  1  0
  4 28  1  0
  5 29  1  0
  5 30  1  0
  5 31  1  0
  6 32  1  0
  6 33  1  0
  7 34  1  0
  7 35  1  0
  8 36  1  0
 10 37  1  0
 11 38  1  0
 12 39  1  0
 15 40  1  0
 17 41  1  0
 18 42  1  0
 19 43  1  0
 20 44  1  0
M  CHG  1  10   1
M  END
>  <UniqueID>  (22) 
21

>  <SMILES>  (22) 
CCN(CC)CCNc1[nH+]ccc2c1[nH]c1ccccc12

>  <Energy>  (22) 
88.27710129119481

>  <Genealogy>  (22) 
CCN(CC)CCNc1[nH+]ccc2c1[nH]c1ccccc12 (protonated)
CCN(CC)CCNc1[nH+]ccc2c1[nH]c1ccccc12 (3D coordinates assigned)
CCN(CC)CCNc1[nH+]ccc2c1[nH]c1ccccc12 (optimized conformer: 88.27710129119481 kcal/mol)

>  <smiles>  (22) 
CCN(CC)CCNc1nccc2c1[nH]c1ccccc12

>  <score_type>  (22) 
oracle

>  <origin>  (22) 
adg

>  <m_score__min__energy>  (22) 
-7.4100000000000001

>  <m_primary>  (22) 
energy

$$$$
22:0
     RDKit          3D

 59 62  0  0  0  0  0  0  0  0999 V2000
   -6.4840   16.3910  -33.7480 C   0  0  0  0  0  0  0  0  0  0  0  0
   -7.2130   17.1200  -32.7650 O   0  0  0  0  0  0  0  0  0  0  0  0
   -7.1830   18.5150  -32.6310 C   0  0  0  0  0  0  0  0  0  0  0  0
   -5.9960   19.2700  -32.8110 C   0  0  0  0  0  0  0  0  0  0  0  0
   -6.0110   20.6660  -32.6640 C   0  0  0  0  0  0  0  0  0  0  0  0
   -7.2140   21.2880  -32.3190 C   0  0  0  0  0  0  0  0  0  0  0  0
   -8.3660   20.5660  -32.1690 C   0  0  0  0  0  0  0  0  0  0  0  0
   -8.3800   19.1790  -32.3110 C   0  0  0  0  0  0  0  0  0  0  0  0
   -9.5150   21.4650  -31.8770 C   0  0  0  0  0  0  0  0  0  0  0  0
   -8.8810   22.8770  -31.9070 C   0  0  0  0  0  0  0  0  0  0  0  0
   -7.4460   22.6740  -32.1230 N   0  0  0  0  0  0  0  0  0  0  0  0
   -6.4920   23.7580  -32.3720 C   0  0  0  0  0  0  0  0  0  0  0  0
   -6.1150   24.5010  -31.0790 C   0  0  0  0  0  0  0  0  0  0  0  0
   -6.3130   23.6650  -29.8040 C   0  0  0  0  0  0  0  0  0  0  0  0
   -5.1040   22.8950  -29.4400 N   0  0  0  0  0  0  0  0  0  0  0  0
   -4.4420   23.5090  -28.2620 C   0  0  0  0  0  0  0  0  0  0  0  0
   -2.9650   23.0900  -28.1120 C   0  0  0  0  0  0  0  0  0  0  0  0
   -2.7210   21.8230  -28.8060 N   0  0  0  0  0  0  0  0  0  0  0  0
   -2.2730   20.6560  -28.0860 C   0  0  0  0  0  0  0  0  0  0  0  0
   -3.1050   20.0780  -27.1080 C   0  0  0  0  0  0  0  0  0  0  0  0
   -2.7110   18.9240  -26.4320 C   0  0  0  0  0  0  0  0  0  0  0  0
   -1.4830   18.3300  -26.7190 C   0  0  0  0  0  0  0  0  0  0  0  0
   -0.6420   18.8910  -27.6820 C   0  0  0  0  0  0  0  0  0  0  0  0
   -1.0250   20.0590  -28.3730 C   0  0  0  0  0  0  0  0  0  0  0  0
   -0.1870   20.6550  -29.3290 O   0  0  0  0  0  0  0  0  0  0  0  0
   -0.0290   20.1940  -30.6660 C   0  0  0  0  0  0  0  0  0  0  0  0
   -3.0940   21.7290  -30.2260 C   0  0  0  0  0  0  0  0  0  0  0  0
   -4.1650   22.7710  -30.5730 C   0  0  0  0  0  0  0  0  0  0  0  0
   -5.7903   15.6973  -33.2504 H   0  0  0  0  0  0  0  0  0  0  0  0
   -7.1845   15.8213  -34.3763 H   0  0  0  0  0  0  0  0  0  0  0  0
   -5.9143   17.0915  -34.3763 H   0  0  0  0  0  0  0  0  0  0  0  0
   -5.0568   18.7580  -33.0676 H   0  0  0  0  0  0  0  0  0  0  0  0
   -5.0961   21.2572  -32.8170 H   0  0  0  0  0  0  0  0  0  0  0  0
   -9.3134   18.6131  -32.1747 H   0  0  0  0  0  0  0  0  0  0  0  0
  -10.2963   21.3677  -32.6452 H   0  0  0  0  0  0  0  0  0  0  0  0
  -10.0082   21.2355  -30.9209 H   0  0  0  0  0  0  0  0  0  0  0  0
   -9.3103   23.4708  -32.7275 H   0  0  0  0  0  0  0  0  0  0  0  0
   -9.0731   23.4236  -30.9719 H   0  0  0  0  0  0  0  0  0  0  0  0
   -5.5799   23.3334  -32.8166 H   0  0  0  0  0  0  0  0  0  0  0  0
   -6.9672   24.4796  -33.0527 H   0  0  0  0  0  0  0  0  0  0  0  0
   -5.0561   24.7920  -31.1422 H   0  0  0  0  0  0  0  0  0  0  0  0
   -6.7857   25.3693  -31.0007 H   0  0  0  0  0  0  0  0  0  0  0  0
   -6.5640   24.3415  -28.9737 H   0  0  0  0  0  0  0  0  0  0  0  0
   -7.1225   22.9458  -29.9975 H   0  0  0  0  0  0  0  0  0  0  0  0
   -4.4868   24.6032  -28.3659 H   0  0  0  0  0  0  0  0  0  0  0  0
   -4.9753   23.1585  -27.3660 H   0  0  0  0  0  0  0  0  0  0  0  0
   -2.3212   23.8701  -28.5444 H   0  0  0  0  0  0  0  0  0  0  0  0
   -2.7371   22.9615  -27.0436 H   0  0  0  0  0  0  0  0  0  0  0  0
   -4.0751   20.5414  -26.8751 H   0  0  0  0  0  0  0  0  0  0  0  0
   -3.3704   18.4815  -25.6708 H   0  0  0  0  0  0  0  0  0  0  0  0
   -1.1761   17.4180  -26.1860 H   0  0  0  0  0  0  0  0  0  0  0  0
    0.3264   18.4184  -27.9033 H   0  0  0  0  0  0  0  0  0  0  0  0
    0.3276   19.1535  -30.6553 H   0  0  0  0  0  0  0  0  0  0  0  0
   -0.9959   20.2449  -31.1881 H   0  0  0  0  0  0  0  0  0  0  0  0
    0.7034   20.8273  -31.1881 H   0  0  0  0  0  0  0  0  0  0  0  0
   -2.2030   21.9060  -30.8463 H   0  0  0  0  0  0  0  0  0  0  0  0
   -3.4997   20.7252  -30.4204 H   0  0  0  0  0  0  0  0  0  0  0  0
   -3.6857   23.7428  -30.7622 H   0  0  0  0  0  0  0  0  0  0  0  0
   -4.7112   22.4549  -31.4740 H   0  0  0  0  0  0  0  0  0  0  0  0
  1  2  1  0
  2  3  1  0
  3  4  2  0
  4  5  1  0
  5  6  2  0
  6  7  1  0
  7  8  2  0
  7  9  1  0
  9 10  1  0
 10 11  1  0
 11 12  1  0
 12 13  1  0
 13 14  1  0
 14 15  1  0
 15 16  1  0
 16 17  1  0
 17 18  1  0
 18 19  1  0
 19 20  2  0
 20 21  1  0
 21 22  2  0
 22 23  1  0
 23 24  2  0
 24 25  1  0
 25 26  1  0
 18 27  1  0
 27 28  1  0
  8  3  1  0
 28 15  1  0
 11  6  1  0
 24 19  1  0
  1 29  1  0
  1 30  1  0
  1 31  1  0
  4 32  1  0
  5 33  1  0
  8 34  1  0
  9 35  1  0
  9 36  1  0
 10 37  1  0
 10 38  1  0
 12 39  1  0
 12 40  1  0
 13 41  1  0
 13 42  1  0
 14 43  1  0
 14 44  1  0
 16 45  1  0
 16 46  1  0
 17 47  1  0
 17 48  1  0
 20 49  1  0
 21 50  1  0
 22 51  1  0
 23 52  1  0
 26 53  1  0
 26 54  1  0
 26 55  1  0
 27 56  1  0
 27 57  1  0
 28 58  1  0
 28 59  1  0
M  END
>  <UniqueID>  (23) 
22

>  <SMILES>  (23) 
COc1ccc2c(c1)CCN2CCCN1CCN(c2ccccc2OC)CC1

>  <Energy>  (23) 
76.14674917851596

>  <Genealogy>  (23) 
COc1ccc2c(c1)CCN2CCCN1CCN(c2ccccc2OC)CC1 (3D coordinates assigned)
COc1ccc2c(c1)CCN2CCCN1CCN(c2ccccc2OC)CC1 (nonaromatic ring conformer: 76.14674917851596 kcal/mol)

>  <smiles>  (23) 
COc1ccc2c(c1)CCN2CCCN1CCN(c2ccccc2OC)CC1

>  <score_type>  (23) 
oracle

>  <origin>  (23) 
adg

>  <m_score__min__energy>  (23) 
-8.8800000000000008

>  <m_primary>  (23) 
energy

$$$$
23:0
     RDKit          3D

 40 42  0  0  0  0  0  0  0  0999 V2000
   -4.5400   23.6200  -28.4630 C   0  0  0  0  0  0  0  0  0  0  0  0
   -3.4830   24.5680  -29.0390 C   0  0  0  0  0  0  0  0  0  0  0  0
   -3.7000   24.8580  -30.4650 N   0  0  0  0  0  0  0  0  0  0  0  0
   -5.1040   25.1730  -30.7590 C   0  0  0  0  0  0  0  0  0  0  0  0
   -5.7140   24.0650  -31.6160 C   0  0  0  0  0  0  0  0  0  0  0  0
   -4.9640   22.8240  -31.4430 N   0  0  0  0  0  0  0  0  0  0  0  0
   -5.3980   21.5990  -32.0550 C   0  0  0  0  0  0  0  0  0  0  0  0
   -6.7430   21.1740  -31.9980 C   0  0  0  0  0  0  0  0  0  0  0  0
   -7.7240   21.9670  -31.3700 C   0  0  0  0  0  0  0  0  0  0  0  0
   -9.0600   21.5730  -31.3630 C   0  0  0  0  0  0  0  0  0  0  0  0
   -9.4440   20.3950  -31.9930 C   0  0  0  0  0  0  0  0  0  0  0  0
   -8.4940   19.5880  -32.6210 C   0  0  0  0  0  0  0  0  0  0  0  0
   -7.1210   19.9390  -32.6210 C   0  0  0  0  0  0  0  0  0  0  0  0
   -6.1620   19.1330  -33.2190 N   0  0  0  0  0  0  0  0  0  0  0  0
   -6.5160   17.7960  -33.7400 C   0  0  0  0  0  0  0  0  0  0  0  0
   -4.8720   19.5990  -33.3250 C   0  0  0  0  0  0  0  0  0  0  0  0
   -3.7990   18.9670  -33.9940 C   0  0  0  0  0  0  0  0  0  0  0  0
   -2.5990   19.6640  -33.8910 C   0  0  0  0  0  0  0  0  0  0  0  0
   -2.8550   21.0640  -32.9930 S   0  0  0  0  0  0  0  0  0  0  0  0
   -4.4960   20.7980  -32.7410 C   0  0  0  0  0  0  0  0  0  0  0  0
   -4.5027   23.6535  -27.3641 H   0  0  0  0  0  0  0  0  0  0  0  0
   -5.5377   23.9316  -28.8057 H   0  0  0  0  0  0  0  0  0  0  0  0
   -4.3384   22.5944  -28.8057 H   0  0  0  0  0  0  0  0  0  0  0  0
   -3.5150   25.5138  -28.4783 H   0  0  0  0  0  0  0  0  0  0  0  0
   -2.5050   24.0734  -28.9447 H   0  0  0  0  0  0  0  0  0  0  0  0
   -3.1010   25.6700  -30.7470 H   0  0  0  0  0  0  0  0  0  0  0  0
   -5.6648   25.2563  -29.8164 H   0  0  0  0  0  0  0  0  0  0  0  0
   -5.1558   26.1258  -31.3062 H   0  0  0  0  0  0  0  0  0  0  0  0
   -6.7588   23.9037  -31.3119 H   0  0  0  0  0  0  0  0  0  0  0  0
   -5.6731   24.3650  -32.6735 H   0  0  0  0  0  0  0  0  0  0  0  0
   -4.2940   22.7690  -30.6430 H   0  0  0  0  0  0  0  0  0  0  0  0
   -7.4316   22.9074  -30.8800 H   0  0  0  0  0  0  0  0  0  0  0  0
   -9.8130   22.1956  -30.8577 H   0  0  0  0  0  0  0  0  0  0  0  0
  -10.5029   20.0970  -31.9967 H   0  0  0  0  0  0  0  0  0  0  0  0
   -8.8163   18.6644  -33.1242 H   0  0  0  0  0  0  0  0  0  0  0  0
   -6.6974   17.1109  -32.8987 H   0  0  0  0  0  0  0  0  0  0  0  0
   -7.4253   17.8709  -34.3545 H   0  0  0  0  0  0  0  0  0  0  0  0
   -5.6888   17.4111  -34.3545 H   0  0  0  0  0  0  0  0  0  0  0  0
   -3.9024   18.0186  -34.5415 H   0  0  0  0  0  0  0  0  0  0  0  0
   -1.6386   19.3506  -34.3261 H   0  0  0  0  0  0  0  0  0  0  0  0
  1  2  1  0
  2  3  1  0
  3  4  1  0
  4  5  1  0
  5  6  1  0
  6  7  1  0
  7  8  2  0
  8  9  1  0
  9 10  2  0
 10 11  1  0
 11 12  2  0
 12 13  1  0
 13 14  2  0
 14 15  1  0
 14 16  1  0
 16 17  1  0
 17 18  2  0
 18 19  1  0
 19 20  1  0
 20  7  1  0
 13  8  1  0
 20 16  2  0
  1 21  1  0
  1 22  1  0
  1 23  1  0
  2 24  1  0
  2 25  1  0
  3 26  1  0
  4 27  1  0
  4 28  1  0
  5 29  1  0
  5 30  1  0
  6 31  1  0
  9 32  1  0
 10 33  1  0
 11 34  1  0
 12 35  1  0
 15 36  1  0
 15 37  1  0
 15 38  1  0
 17 39  1  0
 18 40  1  0
M  CHG  1  14   1
M  END
>  <UniqueID>  (24) 
23

>  <SMILES>  (24) 
CCNCCNc1c2ccccc2[n+](C)c2ccsc12

>  <Energy>  (24) 
84.87601902169708

>  <Genealogy>  (24) 
CCNCCNc1c2ccccc2[n+](C)c2ccsc12 (3D coordinates assigned)
CCNCCNc1c2ccccc2[n+](C)c2ccsc12 (optimized conformer: 84.87601902169708 kcal/mol)

>  <smiles>  (24) 
CCNCCNc1c2ccccc2[n+](C)c2ccsc12

>  <score_type>  (24) 
oracle

>  <origin>  (24) 
adg

>  <m_score__min__energy>  (24) 
-8.0999999999999996

>  <m_primary>  (24) 
energy

$$$$
24:0
     RDKit          3D

 61 63  0  0  0  0  0  0  0  0999 V2000
   -9.1850   22.4780  -31.8410 C   0  0  0  0  0  0  0  0  0  0  0  0
   -8.6180   21.3740  -30.9370 C   0  0  0  0  0  0  0  0  0  0  0  0
   -8.8200   20.0020  -31.4580 N   0  0  0  0  0  0  0  0  0  0  0  0
   -9.5680   19.9960  -32.7290 C   0  0  0  0  0  0  0  0  0  0  0  0
   -7.5580   19.2370  -31.5510 C   0  0  0  0  0  0  0  0  0  0  0  0
   -7.8290   17.8030  -32.0280 C   0  0  0  0  0  0  0  0  0  0  0  0
   -6.6390   17.1820  -32.4730 O   0  0  0  0  0  0  0  0  0  0  0  0
   -6.8690   16.3360  -33.5880 C   0  0  0  0  0  0  0  0  0  0  0  0
   -5.6620   16.3740  -34.5280 C   0  0  0  0  0  0  0  0  0  0  0  0
   -5.5350   17.6810  -35.1900 N   0  0  0  0  0  0  0  0  0  0  0  0
   -4.7730   18.5810  -34.3600 C   0  0  0  0  0  0  0  0  0  0  0  0
   -3.4450   18.2810  -34.0210 C   0  0  0  0  0  0  0  0  0  0  0  0
   -2.7170   19.1340  -33.1900 C   0  0  0  0  0  0  0  0  0  0  0  0
   -3.3060   20.2990  -32.6690 C   0  0  0  0  0  0  0  0  0  0  0  0
   -4.6450   20.6020  -32.9920 C   0  0  0  0  0  0  0  0  0  0  0  0
   -5.3680   19.7400  -33.8350 C   0  0  0  0  0  0  0  0  0  0  0  0
   -5.2810   21.8210  -32.4360 C   0  0  0  0  0  0  0  0  0  0  0  0
   -6.4770   22.0970  -32.7290 O   0  0  0  0  0  0  0  0  0  0  0  0
   -4.5160   22.7150  -31.5350 C   0  0  0  0  0  0  0  0  0  0  0  0
   -5.1090   23.8720  -31.0040 C   0  0  0  0  0  0  0  0  0  0  0  0
   -4.3860   24.7130  -30.1560 C   0  0  0  0  0  0  0  0  0  0  0  0
   -3.0670   24.4100  -29.8120 C   0  0  0  0  0  0  0  0  0  0  0  0
   -2.3560   25.3150  -28.9550 N   0  0  0  0  0  0  0  0  0  0  0  0
   -1.2530   24.9870  -28.1000 C   0  0  0  0  0  0  0  0  0  0  0  0
   -0.1110   24.7550  -28.5820 O   0  0  0  0  0  0  0  0  0  0  0  0
   -1.4800   24.8240  -26.6290 C   0  0  0  0  0  0  0  0  0  0  0  0
   -1.9130   26.0410  -26.0510 O   0  0  0  0  0  0  0  0  0  0  0  0
   -1.2410   26.2660  -24.8300 C   0  0  0  0  0  0  0  0  0  0  0  0
   -2.4570   23.2690  -30.3610 C   0  0  0  0  0  0  0  0  0  0  0  0
   -3.1770   22.4120  -31.2140 C   0  0  0  0  0  0  0  0  0  0  0  0
   -2.5360   21.2010  -31.7800 C   0  0  0  0  0  0  0  0  0  0  0  0
   -1.3350   20.9340  -31.5020 O   0  0  0  0  0  0  0  0  0  0  0  0
   -9.5994   23.2848  -31.2186 H   0  0  0  0  0  0  0  0  0  0  0  0
   -8.3820   22.8804  -32.4760 H   0  0  0  0  0  0  0  0  0  0  0  0
   -9.9799   22.0597  -32.4760 H   0  0  0  0  0  0  0  0  0  0  0  0
   -7.5374   21.5437  -30.8209 H   0  0  0  0  0  0  0  0  0  0  0  0
   -9.1626   21.4343  -29.9832 H   0  0  0  0  0  0  0  0  0  0  0  0
  -10.6477   19.9873  -32.5190 H   0  0  0  0  0  0  0  0  0  0  0  0
   -9.3143   20.8962  -33.3080 H   0  0  0  0  0  0  0  0  0  0  0  0
   -9.2999   19.1000  -33.3080 H   0  0  0  0  0  0  0  0  0  0  0  0
   -6.8855   19.7345  -32.2653 H   0  0  0  0  0  0  0  0  0  0  0  0
   -7.0932   19.1974  -30.5548 H   0  0  0  0  0  0  0  0  0  0  0  0
   -8.2486   17.2203  -31.1947 H   0  0  0  0  0  0  0  0  0  0  0  0
   -8.5384   17.8419  -32.8678 H   0  0  0  0  0  0  0  0  0  0  0  0
   -7.0261   15.3052  -33.2375 H   0  0  0  0  0  0  0  0  0  0  0  0
   -7.7609   16.6846  -34.1293 H   0  0  0  0  0  0  0  0  0  0  0  0
   -4.7494   16.1780  -33.9459 H   0  0  0  0  0  0  0  0  0  0  0  0
   -5.8043   15.6069  -35.3034 H   0  0  0  0  0  0  0  0  0  0  0  0
   -6.4840   18.0890  -35.3590 H   0  0  0  0  0  0  0  0  0  0  0  0
   -5.0630   17.5650  -36.1170 H   0  0  0  0  0  0  0  0  0  0  0  0
   -2.9743   17.3673  -34.4128 H   0  0  0  0  0  0  0  0  0  0  0  0
   -1.6732   18.8924  -32.9407 H   0  0  0  0  0  0  0  0  0  0  0  0
   -6.4125   19.9761  -34.0865 H   0  0  0  0  0  0  0  0  0  0  0  0
   -6.1507   24.1174  -31.2581 H   0  0  0  0  0  0  0  0  0  0  0  0
   -4.8592   25.6217  -29.7556 H   0  0  0  0  0  0  0  0  0  0  0  0
   -2.2478   24.0535  -26.4655 H   0  0  0  0  0  0  0  0  0  0  0  0
   -0.5326   24.5257  -26.1562 H   0  0  0  0  0  0  0  0  0  0  0  0
   -1.9170   26.0397  -23.9923 H   0  0  0  0  0  0  0  0  0  0  0  0
   -0.3560   25.6152  -24.7732 H   0  0  0  0  0  0  0  0  0  0  0  0
   -0.9263   27.3185  -24.7732 H   0  0  0  0  0  0  0  0  0  0  0  0
   -1.4072   23.0438  -30.1217 H   0  0  0  0  0  0  0  0  0  0  0  0
  1  2  1  0
  2  3  1  0
  3  4  1  0
  3  5  1  0
  5  6  1  0
  6  7  1  0
  7  8  1  0
  8  9  1  0
  9 10  1  0
 10 11  1  0
 11 12  2  0
 12 13  1  0
 13 14  2  0
 14 15  1  0
 15 16  2  0
 15 17  1  0
 17 18  2  0
 17 19  1  0
 19 20  2  0
 20 21  1  0
 21 22  2  0
 22 23  1  0
 23 24  1  0
 24 25  2  0
 24 26  1  0
 26 27  1  0
 27 28  1  0
 22 29  1  0
 29 30  2  0
 30 31  1  0
 31 32  2  0
 16 11  1  0
 30 19  1  0
 31 14  1  0
  1 33  1  0
  1 34  1  0
  1 35  1  0
  2 36  1  0
  2 37  1  0
  4 38  1  0
  4 39  1  0
  4 40  1  0
  5 41  1  0
  5 42  1  0
  6 43  1  0
  6 44  1  0
  8 45  1  0
  8 46  1  0
  9 47  1  0
  9 48  1  0
 10 49  1  0
 10 50  1  0
 12 51  1  0
 13 52  1  0
 16 53  1  0
 20 54  1  0
 21 55  1  0
 26 56  1  0
 26 57  1  0
 28 58  1  0
 28 59  1  0
 28 60  1  0
 29 61  1  0
M  CHG  2  10   1  23  -1
M  END
>  <UniqueID>  (25) 
24

>  <SMILES>  (25) 
CCN(C)CCOCC[NH2+]c1ccc2c(c1)C(=O)c1ccc([N-]C(=O)COC)cc1C2=O

>  <Energy>  (25) 
74.14239559812994

>  <Genealogy>  (25) 
CCN(C)CCOCC[NH2+]c1ccc2c(c1)C(=O)c1ccc([N-]C(=O)COC)cc1C2=O (protonated)
CCN(C)CCOCC[NH2+]c1ccc2c(c1)C(=O)c1ccc([N-]C(=O)COC)cc1C2=O (3D coordinates assigned)
CCN(C)CCOCC[NH2+]c1ccc2c(c1)C(=O)c1ccc([N-]C(=O)COC)cc1C2=O (nonaromatic ring conformer: 74.14239559812994 kcal/mol)

>  <smiles>  (25) 
CCN(C)CCOCCNc1ccc2c(c1)C(=O)c1ccc(NC(=O)COC)cc1C2=O

>  <score_type>  (25) 
oracle

>  <origin>  (25) 
adg

>  <m_score__min__energy>  (25) 
-9.5399999999999991

>  <m_primary>  (25) 
energy

$$$$
25:0
     RDKit          3D

 67 71  0  0  0  0  0  0  0  0999 V2000
    2.8600   26.0380  -27.2860 C   0  0  0  0  0  0  0  0  0  0  0  0
    1.8480   26.3720  -26.2890 N   0  0  0  0  0  0  0  0  0  0  0  0
    0.4710   25.9900  -26.4490 C   0  0  0  0  0  0  0  0  0  0  0  0
    0.1200   25.0650  -27.4480 C   0  0  0  0  0  0  0  0  0  0  0  0
   -1.2220   24.7140  -27.6720 C   0  0  0  0  0  0  0  0  0  0  0  0
   -1.5580   23.7750  -28.7140 N   0  0  0  0  0  0  0  0  0  0  0  0
   -0.7580   22.7880  -29.1040 N   0  0  0  0  0  0  0  0  0  0  0  0
   -1.3600   22.1190  -30.1190 C   0  0  0  0  0  0  0  0  0  0  0  0
   -0.7210   20.9620  -30.8220 C   0  0  0  0  0  0  0  0  0  0  0  0
   -2.5980   22.6980  -30.3660 C   0  0  0  0  0  0  0  0  0  0  0  0
   -3.6180   22.4890  -31.3080 C   0  0  0  0  0  0  0  0  0  0  0  0
   -3.6060   21.4020  -32.2410 N   0  0  0  0  0  0  0  0  0  0  0  0
   -2.7900   21.2710  -33.3040 C   0  0  0  0  0  0  0  0  0  0  0  0
   -3.1000   20.1980  -34.0620 N   0  0  0  0  0  0  0  0  0  0  0  0
   -4.1710   19.6570  -33.4450 C   0  0  0  0  0  0  0  0  0  0  0  0
   -4.8410   18.4350  -33.9070 C   0  0  0  0  0  0  0  0  0  0  0  0
   -5.7820   18.3120  -34.9140 C   0  0  0  0  0  0  0  0  0  0  0  0
   -6.1960   17.0310  -34.9710 N   0  0  0  0  0  0  0  0  0  0  0  0
   -5.5360   16.3530  -34.0440 N   0  0  0  0  0  0  0  0  0  0  0  0
   -5.7380   14.9370  -33.7790 C   0  0  0  0  0  0  0  0  0  0  0  0
   -4.7060   17.1730  -33.3730 C   0  0  0  0  0  0  0  0  0  0  0  0
   -4.4960   20.4010  -32.3320 C   0  0  0  0  0  0  0  0  0  0  0  0
   -4.6870   23.4080  -31.3050 C   0  0  0  0  0  0  0  0  0  0  0  0
   -4.7030   24.4740  -30.3820 C   0  0  0  0  0  0  0  0  0  0  0  0
   -3.6870   24.6290  -29.4870 N   0  0  0  0  0  0  0  0  0  0  0  0
   -2.6660   23.7360  -29.4790 C   0  0  0  0  0  0  0  0  0  0  0  0
   -2.2130   25.2720  -26.8510 C   0  0  0  0  0  0  0  0  0  0  0  0
   -1.8780   26.1920  -25.8580 C   0  0  0  0  0  0  0  0  0  0  0  0
   -0.5430   26.5730  -25.6490 C   0  0  0  0  0  0  0  0  0  0  0  0
   -0.2390   27.5140  -24.5420 C   0  0  0  0  0  0  0  0  0  0  0  0
   -0.8720   28.6020  -24.4420 O   0  0  0  0  0  0  0  0  0  0  0  0
    0.7990   27.2050  -23.5970 N   0  0  0  0  0  0  0  0  0  0  0  0
    1.3900   28.2070  -22.7130 C   0  0  0  0  0  0  0  0  0  0  0  0
    2.9130   28.0280  -22.6460 C   0  0  0  0  0  0  0  0  0  0  0  0
    3.3500   26.9820  -23.5970 N   0  0  0  0  0  0  0  0  0  0  0  0
    3.8370   25.7950  -22.8690 C   0  0  0  0  0  0  0  0  0  0  0  0
    4.4160   27.4840  -24.4820 C   0  0  0  0  0  0  0  0  0  0  0  0
    3.7871   25.7320  -26.7792 H   0  0  0  0  0  0  0  0  0  0  0  0
    2.4964   25.2122  -27.9152 H   0  0  0  0  0  0  0  0  0  0  0  0
    3.0593   26.9180  -27.9152 H   0  0  0  0  0  0  0  0  0  0  0  0
    2.1680   26.7780  -25.3800 H   0  0  0  0  0  0  0  0  0  0  0  0
    0.9087   24.6087  -28.0642 H   0  0  0  0  0  0  0  0  0  0  0  0
   -0.3290   20.2523  -30.0785 H   0  0  0  0  0  0  0  0  0  0  0  0
   -1.4684   20.4576  -31.4520 H   0  0  0  0  0  0  0  0  0  0  0  0
    0.1040   21.3260  -31.4520 H   0  0  0  0  0  0  0  0  0  0  0  0
   -1.9635   21.9610  -33.5294 H   0  0  0  0  0  0  0  0  0  0  0  0
   -6.1347   19.1274  -35.5626 H   0  0  0  0  0  0  0  0  0  0  0  0
   -5.7622   14.7671  -32.6925 H   0  0  0  0  0  0  0  0  0  0  0  0
   -6.6914   14.6134  -34.2221 H   0  0  0  0  0  0  0  0  0  0  0  0
   -4.9131   14.3597  -34.2221 H   0  0  0  0  0  0  0  0  0  0  0  0
   -4.0394   16.8864  -32.5463 H   0  0  0  0  0  0  0  0  0  0  0  0
   -5.3322   20.2098  -31.6434 H   0  0  0  0  0  0  0  0  0  0  0  0
   -5.5110   23.2932  -32.0247 H   0  0  0  0  0  0  0  0  0  0  0  0
   -5.5417   25.1857  -30.3844 H   0  0  0  0  0  0  0  0  0  0  0  0
   -3.2645   24.9811  -26.9918 H   0  0  0  0  0  0  0  0  0  0  0  0
   -2.6705   26.6251  -25.2300 H   0  0  0  0  0  0  0  0  0  0  0  0
    1.1380   26.2180  -23.5170 H   0  0  0  0  0  0  0  0  0  0  0  0
    1.1595   29.2114  -23.0979 H   0  0  0  0  0  0  0  0  0  0  0  0
    0.9710   28.0844  -21.7033 H   0  0  0  0  0  0  0  0  0  0  0  0
    3.4017   28.9793  -22.9033 H   0  0  0  0  0  0  0  0  0  0  0  0
    3.1928   27.7239  -21.6266 H   0  0  0  0  0  0  0  0  0  0  0  0
    3.7638   25.9735  -21.7860 H   0  0  0  0  0  0  0  0  0  0  0  0
    3.2243   24.9223  -23.1390 H   0  0  0  0  0  0  0  0  0  0  0  0
    4.8861   25.6041  -23.1390 H   0  0  0  0  0  0  0  0  0  0  0  0
    5.2447   27.8743  -23.8730 H   0  0  0  0  0  0  0  0  0  0  0  0
    4.7821   26.6637  -25.1168 H   0  0  0  0  0  0  0  0  0  0  0  0
    4.0169   28.2888  -25.1168 H   0  0  0  0  0  0  0  0  0  0  0  0
  1  2  1  0
  2  3  1  0
  3  4  2  0
  4  5  1  0
  5  6  1  0
  6  7  1  0
  7  8  2  0
  8  9  1  0
  8 10  1  0
 10 11  2  0
 11 12  1  0
 12 13  1  0
 13 14  2  0
 14 15  1  0
 15 16  1  0
 16 17  1  0
 17 18  2  0
 18 19  1  0
 19 20  1  0
 19 21  1  0
 15 22  2  0
 11 23  1  0
 23 24  2  0
 24 25  1  0
 25 26  2  0
  5 27  2  0
 27 28  1  0
 28 29  2  0
 29 30  1  0
 30 31  2  0
 30 32  1  0
 32 33  1  0
 33 34  1  0
 34 35  1  0
 35 36  1  0
 35 37  1  0
 29  3  1  0
 26  6  1  0
 26 10  1  0
 22 12  1  0
 21 16  2  0
  1 38  1  0
  1 39  1  0
  1 40  1  0
  2 41  1  0
  4 42  1  0
  9 43  1  0
  9 44  1  0
  9 45  1  0
 13 46  1  0
 17 47  1  0
 20 48  1  0
 20 49  1  0
 20 50  1  0
 21 51  1  0
 22 52  1  0
 23 53  1  0
 24 54  1  0
 27 55  1  0
 28 56  1  0
 32 57  1  0
 33 58  1  0
 33 59  1  0
 34 60  1  0
 34 61  1  0
 36 62  1  0
 36 63  1  0
 36 64  1  0
 37 65  1  0
 37 66  1  0
 37 67  1  0
M  END
>  <UniqueID>  (26) 
25

>  <SMILES>  (26) 
CNc1cc(-n2nc(C)c3c(-n4cnc(-c5cnn(C)c5)c4)ccnc32)ccc1C(=O)NCCN(C)C

>  <Energy>  (26) 
184.42042246515675

>  <Genealogy>  (26) 
CNc1cc(-n2nc(C)c3c(-n4cnc(-c5cnn(C)c5)c4)ccnc32)ccc1C(=O)NCCN(C)C (3D coordinates assigned)
CNc1cc(-n2nc(C)c3c(-n4cnc(-c5cnn(C)c5)c4)ccnc32)ccc1C(=O)NCCN(C)C (optimized conformer: 184.42042246515675 kcal/mol)

>  <smiles>  (26) 
CNc1cc(-n2nc(C)c3c(-n4cnc(-c5cnn(C)c5)c4)ccnc32)ccc1C(=O)NCCN(C)C

>  <score_type>  (26) 
oracle

>  <origin>  (26) 
adg

>  <m_score__min__energy>  (26) 
-7.46

>  <m_primary>  (26) 
energy

$$$$
26:0
     RDKit          3D

 53 55  0  0  0  0  0  0  0  0999 V2000
   -3.8800   22.6030  -28.1330 C   0  0  0  0  0  0  0  0  0  0  0  0
   -3.8270   23.9590  -28.8430 C   0  0  0  0  0  0  0  0  0  0  0  0
   -4.9970   24.8010  -28.5390 N   0  0  0  0  0  0  0  0  0  0  0  0
   -5.7420   25.1780  -29.7520 C   0  0  0  0  0  0  0  0  0  0  0  0
   -6.8610   24.1680  -30.0400 C   0  0  0  0  0  0  0  0  0  0  0  0
   -6.9140   23.8490  -31.4670 N   0  0  0  0  0  0  0  0  0  0  0  0
   -6.3200   22.6650  -32.0360 C   0  0  0  0  0  0  0  0  0  0  0  0
   -4.9650   22.6770  -32.3970 C   0  0  0  0  0  0  0  0  0  0  0  0
   -4.3500   21.5380  -32.9080 C   0  0  0  0  0  0  0  0  0  0  0  0
   -5.0730   20.3470  -33.0710 C   0  0  0  0  0  0  0  0  0  0  0  0
   -6.4420   20.3090  -32.7260 C   0  0  0  0  0  0  0  0  0  0  0  0
   -7.1910   19.1200  -32.8920 C   0  0  0  0  0  0  0  0  0  0  0  0
   -8.5550   19.1080  -32.5590 C   0  0  0  0  0  0  0  0  0  0  0  0
   -9.1770   20.2570  -32.0790 C   0  0  0  0  0  0  0  0  0  0  0  0
   -8.4500   21.4330  -31.9090 C   0  0  0  0  0  0  0  0  0  0  0  0
   -7.0730   21.4770  -32.2090 C   0  0  0  0  0  0  0  0  0  0  0  0
   -6.5430   17.8980  -33.4200 C   0  0  0  0  0  0  0  0  0  0  0  0
   -7.2060   16.8290  -33.5270 O   0  0  0  0  0  0  0  0  0  0  0  0
   -5.1580   17.9290  -33.8090 N   0  0  0  0  0  0  0  0  0  0  0  0
   -4.4960   16.7120  -34.3040 C   0  0  0  0  0  0  0  0  0  0  0  0
   -4.0510   15.8370  -33.1150 C   0  0  0  0  0  0  0  0  0  0  0  0
   -5.0330   14.8040  -32.7140 N   0  0  0  0  0  0  0  0  0  0  0  0
   -4.5000   13.8590  -31.7190 C   0  0  0  0  0  0  0  0  0  0  0  0
   -5.6240   14.0950  -33.8610 C   0  0  0  0  0  0  0  0  0  0  0  0
   -4.4050   19.1390  -33.6080 C   0  0  0  0  0  0  0  0  0  0  0  0
   -3.1740   19.1690  -33.8830 O   0  0  0  0  0  0  0  0  0  0  0  0
   -3.8739   22.7588  -27.0441 H   0  0  0  0  0  0  0  0  0  0  0  0
   -4.7995   22.0732  -28.4225 H   0  0  0  0  0  0  0  0  0  0  0  0
   -3.0046   22.0031  -28.4225 H   0  0  0  0  0  0  0  0  0  0  0  0
   -2.9180   24.4894  -28.5231 H   0  0  0  0  0  0  0  0  0  0  0  0
   -3.8243   23.7691  -29.9265 H   0  0  0  0  0  0  0  0  0  0  0  0
   -5.6320   24.3040  -27.8700 H   0  0  0  0  0  0  0  0  0  0  0  0
   -4.6510   25.6740  -28.0730 H   0  0  0  0  0  0  0  0  0  0  0  0
   -6.1841   26.1749  -29.6084 H   0  0  0  0  0  0  0  0  0  0  0  0
   -5.0468   25.1867  -30.6044 H   0  0  0  0  0  0  0  0  0  0  0  0
   -6.6710   23.2462  -29.4706 H   0  0  0  0  0  0  0  0  0  0  0  0
   -7.8226   24.6100  -29.7401 H   0  0  0  0  0  0  0  0  0  0  0  0
   -7.3950   24.5300  -32.0970 H   0  0  0  0  0  0  0  0  0  0  0  0
   -4.3797   23.6002  -32.2745 H   0  0  0  0  0  0  0  0  0  0  0  0
   -3.2865   21.5720  -33.1868 H   0  0  0  0  0  0  0  0  0  0  0  0
   -9.1372   18.1824  -32.6785 H   0  0  0  0  0  0  0  0  0  0  0  0
  -10.2488   20.2362  -31.8325 H   0  0  0  0  0  0  0  0  0  0  0  0
   -8.9553   22.3365  -31.5369 H   0  0  0  0  0  0  0  0  0  0  0  0
   -5.1984   16.1443  -34.9321 H   0  0  0  0  0  0  0  0  0  0  0  0
   -3.6133   16.9949  -34.8962 H   0  0  0  0  0  0  0  0  0  0  0  0
   -3.1138   15.3318  -33.3915 H   0  0  0  0  0  0  0  0  0  0  0  0
   -3.9366   16.5121  -32.2541 H   0  0  0  0  0  0  0  0  0  0  0  0
   -4.7116   14.2342  -30.7068 H   0  0  0  0  0  0  0  0  0  0  0  0
   -4.9774   12.8771  -31.8533 H   0  0  0  0  0  0  0  0  0  0  0  0
   -3.4128   13.7596  -31.8533 H   0  0  0  0  0  0  0  0  0  0  0  0
   -6.2885   13.2978  -33.4965 H   0  0  0  0  0  0  0  0  0  0  0  0
   -6.2024   14.8038  -34.4718 H   0  0  0  0  0  0  0  0  0  0  0  0
   -4.8226   13.6537  -34.4718 H   0  0  0  0  0  0  0  0  0  0  0  0
  1  2  1  0
  2  3  1  0
  3  4  1  0
  4  5  1  0
  5  6  1  0
  6  7  1  0
  7  8  2  0
  8  9  1  0
  9 10  2  0
 10 11  1  0
 11 12  2  0
 12 13  1  0
 13 14  2  0
 14 15  1  0
 15 16  2  0
 12 17  1  0
 17 18  2  0
 17 19  1  0
 19 20  1  0
 20 21  1  0
 21 22  1  0
 22 23  1  0
 22 24  1  0
 19 25  1  0
 25 26  2  0
 16  7  1  0
 25 10  1  0
 16 11  1  0
  1 27  1  0
  1 28  1  0
  1 29  1  0
  2 30  1  0
  2 31  1  0
  3 32  1  0
  3 33  1  0
  4 34  1  0
  4 35  1  0
  5 36  1  0
  5 37  1  0
  6 38  1  0
  8 39  1  0
  9 40  1  0
 13 41  1  0
 14 42  1  0
 15 43  1  0
 20 44  1  0
 20 45  1  0
 21 46  1  0
 21 47  1  0
 23 48  1  0
 23 49  1  0
 23 50  1  0
 24 51  1  0
 24 52  1  0
 24 53  1  0
M  CHG  1   3   1
M  END
>  <UniqueID>  (27) 
26

>  <SMILES>  (27) 
CC[NH2+]CCNc1ccc2c3c(cccc13)C(=O)N(CCN(C)C)C2=O

>  <Energy>  (27) 
60.98456218017548

>  <Genealogy>  (27) 
CC[NH2+]CCNc1ccc2c3c(cccc13)C(=O)N(CCN(C)C)C2=O (protonated)
CC[NH2+]CCNc1ccc2c3c(cccc13)C(=O)N(CCN(C)C)C2=O (3D coordinates assigned)
CC[NH2+]CCNc1ccc2c3c(cccc13)C(=O)N(CCN(C)C)C2=O (nonaromatic ring conformer: 60.98456218017548 kcal/mol)

>  <smiles>  (27) 
CCNCCNc1ccc2c3c(cccc13)C(=O)N(CCN(C)C)C2=O

>  <score_type>  (27) 
oracle

>  <origin>  (27) 
adg

>  <m_score__min__energy>  (27) 
-8.1500000000000004

>  <m_primary>  (27) 
energy

$$$$
27:0
     RDKit          3D

 54 55  0  0  0  0  0  0  0  0999 V2000
   -2.5060   19.2920  -33.1370 C   0  0  0  0  0  0  0  0  0  0  0  0
   -3.4220   18.1040  -32.8560 C   0  0  0  0  0  0  0  0  0  0  0  0
   -4.8390   18.4910  -33.0500 N   0  0  0  0  0  0  0  0  0  0  0  0
   -5.0870   18.9210  -34.4450 C   0  0  0  0  0  0  0  0  0  0  0  0
   -5.6690   17.7690  -35.2600 C   0  0  0  0  0  0  0  0  0  0  0  0
   -5.7500   17.3870  -32.6660 C   0  0  0  0  0  0  0  0  0  0  0  0
   -6.4540   17.7110  -31.3390 C   0  0  0  0  0  0  0  0  0  0  0  0
   -7.6970   18.4670  -31.5570 N   0  0  0  0  0  0  0  0  0  0  0  0
   -7.6040   19.4210  -32.6740 C   0  0  0  0  0  0  0  0  0  0  0  0
   -7.0520   20.7350  -32.1990 C   0  0  0  0  0  0  0  0  0  0  0  0
   -5.7240   20.9560  -32.0340 N   0  0  0  0  0  0  0  0  0  0  0  0
   -5.6490   22.2210  -31.5910 C   0  0  0  0  0  0  0  0  0  0  0  0
   -4.5100   22.9430  -31.2430 C   0  0  0  0  0  0  0  0  0  0  0  0
   -4.6770   24.2650  -30.7850 C   0  0  0  0  0  0  0  0  0  0  0  0
   -3.5060   25.0100  -30.4210 N   0  0  0  0  0  0  0  0  0  0  0  0
   -2.3470   24.5520  -29.2150 S   0  0  0  0  0  0  0  0  0  0  0  0
   -3.1770   24.0940  -27.7080 C   0  0  0  0  0  0  0  0  0  0  0  0
   -1.3890   25.6830  -28.9640 O   0  0  0  0  0  0  0  0  0  0  0  0
   -1.5740   23.3660  -29.7170 O   0  0  0  0  0  0  0  0  0  0  0  0
   -5.9850   24.8190  -30.6970 C   0  0  0  0  0  0  0  0  0  0  0  0
   -7.1120   24.0580  -31.0570 C   0  0  0  0  0  0  0  0  0  0  0  0
   -6.9010   22.7520  -31.5010 C   0  0  0  0  0  0  0  0  0  0  0  0
   -7.8040   21.8300  -31.8900 N   0  0  0  0  0  0  0  0  0  0  0  0
   -9.2630   21.9720  -31.9210 C   0  0  0  0  0  0  0  0  0  0  0  0
   -9.8700   21.5780  -30.5790 C   0  0  0  0  0  0  0  0  0  0  0  0
   -2.1693   19.7286  -32.1851 H   0  0  0  0  0  0  0  0  0  0  0  0
   -1.6330   18.9534  -33.7142 H   0  0  0  0  0  0  0  0  0  0  0  0
   -3.0555   20.0502  -33.7142 H   0  0  0  0  0  0  0  0  0  0  0  0
   -3.1726   17.2826  -33.5438 H   0  0  0  0  0  0  0  0  0  0  0  0
   -3.2787   17.7797  -31.8147 H   0  0  0  0  0  0  0  0  0  0  0  0
   -5.7978   19.7605  -34.4448 H   0  0  0  0  0  0  0  0  0  0  0  0
   -4.1342   19.2333  -34.8975 H   0  0  0  0  0  0  0  0  0  0  0  0
   -6.0585   16.9981  -34.5789 H   0  0  0  0  0  0  0  0  0  0  0  0
   -6.4856   18.1444  -35.8942 H   0  0  0  0  0  0  0  0  0  0  0  0
   -4.8823   17.3344  -35.8942 H   0  0  0  0  0  0  0  0  0  0  0  0
   -6.5058   17.2502  -33.4534 H   0  0  0  0  0  0  0  0  0  0  0  0
   -5.1620   16.4656  -32.5425 H   0  0  0  0  0  0  0  0  0  0  0  0
   -6.6943   16.7697  -30.8231 H   0  0  0  0  0  0  0  0  0  0  0  0
   -5.7767   18.3294  -30.7317 H   0  0  0  0  0  0  0  0  0  0  0  0
   -8.4410   17.7700  -31.7990 H   0  0  0  0  0  0  0  0  0  0  0  0
   -6.9405   19.0083  -33.4483 H   0  0  0  0  0  0  0  0  0  0  0  0
   -8.6106   19.5859  -33.0858 H   0  0  0  0  0  0  0  0  0  0  0  0
   -4.9360   20.2900  -32.1980 H   0  0  0  0  0  0  0  0  0  0  0  0
   -3.5090   22.4942  -31.3234 H   0  0  0  0  0  0  0  0  0  0  0  0
   -2.5793   24.4238  -26.8454 H   0  0  0  0  0  0  0  0  0  0  0  0
   -4.1662   24.5740  -27.6737 H   0  0  0  0  0  0  0  0  0  0  0  0
   -3.2983   23.0012  -27.6737 H   0  0  0  0  0  0  0  0  0  0  0  0
   -6.1160   25.8525  -30.3440 H   0  0  0  0  0  0  0  0  0  0  0  0
   -8.1263   24.4786  -30.9907 H   0  0  0  0  0  0  0  0  0  0  0  0
   -9.5196   23.0190  -32.1402 H   0  0  0  0  0  0  0  0  0  0  0  0
   -9.6669   21.3095  -32.7007 H   0  0  0  0  0  0  0  0  0  0  0  0
   -9.2503   21.9802  -29.7640 H   0  0  0  0  0  0  0  0  0  0  0  0
  -10.8878   21.9881  -30.5024 H   0  0  0  0  0  0  0  0  0  0  0  0
   -9.9098   20.4814  -30.5024 H   0  0  0  0  0  0  0  0  0  0  0  0
  1  2  1  0
  2  3  1  0
  3  4  1  0
  4  5  1  0
  3  6  1  0
  6  7  1  0
  7  8  1  0
  8  9  1  0
  9 10  1  0
 10 11  2  0
 11 12  1  0
 12 13  2  0
 13 14  1  0
 14 15  1  0
 15 16  1  0
 16 17  1  0
 16 18  2  0
 16 19  2  0
 14 20  2  0
 20 21  1  0
 21 22  2  0
 22 23  1  0
 23 24  1  0
 24 25  1  0
 23 10  1  0
 22 12  1  0
  1 26  1  0
  1 27  1  0
  1 28  1  0
  2 29  1  0
  2 30  1  0
  4 31  1  0
  4 32  1  0
  5 33  1  0
  5 34  1  0
  5 35  1  0
  6 36  1  0
  6 37  1  0
  7 38  1  0
  7 39  1  0
  8 40  1  0
  9 41  1  0
  9 42  1  0
 11 43  1  0
 13 44  1  0
 17 45  1  0
 17 46  1  0
 17 47  1  0
 20 48  1  0
 21 49  1  0
 24 50  1  0
 24 51  1  0
 25 52  1  0
 25 53  1  0
 25 54  1  0
M  CHG  2  11   1  15  -1
M  END
>  <UniqueID>  (28) 
27

>  <SMILES>  (28) 
CCN(CC)CCNCc1[nH+]c2cc([N-]S(C)(=O)=O)ccc2n1CC

>  <Energy>  (28) 
83.24712884829027

>  <Genealogy>  (28) 
CCN(CC)CCNCc1[nH+]c2cc([N-]S(C)(=O)=O)ccc2n1CC (protonated)
CCN(CC)CCNCc1[nH+]c2cc([N-]S(C)(=O)=O)ccc2n1CC (3D coordinates assigned)
CCN(CC)CCNCc1[nH+]c2cc([N-]S(C)(=O)=O)ccc2n1CC (optimized conformer: 83.24712884829027 kcal/mol)

>  <smiles>  (28) 
CCN(CC)CCNCc1nc2cc(NS(C)(=O)=O)ccc2n1CC

>  <score_type>  (28) 
oracle

>  <origin>  (28) 
adg

>  <m_score__min__energy>  (28) 
-9.4299999999999997

>  <m_primary>  (28) 
energy

$$$$
28:0
     RDKit          3D

 46 48  0  0  0  0  0  0  0  0999 V2000
   -2.5840   24.5580  -27.3890 C   0  0  0  0  0  0  0  0  0  0  0  0
   -1.7270   24.5440  -28.6510 C   0  0  0  0  0  0  0  0  0  0  0  0
   -2.3680   23.7430  -29.7090 N   0  0  0  0  0  0  0  0  0  0  0  0
   -1.6150   22.6450  -30.3290 C   0  0  0  0  0  0  0  0  0  0  0  0
   -3.7180   24.0050  -30.1730 C   0  0  0  0  0  0  0  0  0  0  0  0
   -4.6490   22.9720  -30.3890 C   0  0  0  0  0  0  0  0  0  0  0  0
   -5.9420   23.2960  -30.8230 C   0  0  0  0  0  0  0  0  0  0  0  0
   -6.9500   22.1930  -31.0820 C   0  0  1  0  0  0  0  0  0  0  0  0
   -7.9870   22.0660  -29.9710 C   0  0  0  0  0  0  0  0  0  0  0  0
   -9.3040   21.7310  -30.6690 C   0  0  0  0  0  0  0  0  0  0  0  0
   -9.0670   21.6990  -32.1200 N   0  0  0  0  0  0  0  0  0  0  0  0
   -9.1670   20.3450  -32.7210 C   0  0  0  0  0  0  0  0  0  0  0  0
   -7.9020   19.5120  -32.6250 C   0  0  0  0  0  0  0  0  0  0  0  0
   -7.7600   18.5310  -31.6270 C   0  0  0  0  0  0  0  0  0  0  0  0
   -6.5810   17.7820  -31.5330 C   0  0  0  0  0  0  0  0  0  0  0  0
   -5.5430   17.9930  -32.4440 C   0  0  0  0  0  0  0  0  0  0  0  0
   -5.6860   18.9420  -33.4580 C   0  0  0  0  0  0  0  0  0  0  0  0
   -6.8620   19.6920  -33.5560 C   0  0  0  0  0  0  0  0  0  0  0  0
   -7.7860   22.3750  -32.3500 C   0  0  0  0  0  0  0  0  0  0  0  0
   -6.2570   24.5980  -31.0570 N   0  0  0  0  0  0  0  0  0  0  0  0
   -5.3520   25.5880  -30.8570 C   0  0  0  0  0  0  0  0  0  0  0  0
   -4.1030   25.2880  -30.4190 N   0  0  0  0  0  0  0  0  0  0  0  0
   -1.9322   24.5474  -26.5030 H   0  0  0  0  0  0  0  0  0  0  0  0
   -3.2042   25.4664  -27.3770 H   0  0  0  0  0  0  0  0  0  0  0  0
   -3.2336   23.6703  -27.3770 H   0  0  0  0  0  0  0  0  0  0  0  0
   -1.5954   25.5757  -29.0092 H   0  0  0  0  0  0  0  0  0  0  0  0
   -0.7519   24.0954  -28.4105 H   0  0  0  0  0  0  0  0  0  0  0  0
   -1.1794   22.0098  -29.5436 H   0  0  0  0  0  0  0  0  0  0  0  0
   -2.2915   22.0434  -30.9539 H   0  0  0  0  0  0  0  0  0  0  0  0
   -0.8101   23.0594  -30.9539 H   0  0  0  0  0  0  0  0  0  0  0  0
   -4.3655   21.9228  -30.2193 H   0  0  0  0  0  0  0  0  0  0  0  0
   -6.2996   21.3096  -31.1634 H   0  0  0  0  0  0  0  0  0  0  0  0
   -7.7066   21.2616  -29.2751 H   0  0  0  0  0  0  0  0  0  0  0  0
   -8.0647   22.9913  -29.3813 H   0  0  0  0  0  0  0  0  0  0  0  0
   -9.6644   20.7486  -30.3300 H   0  0  0  0  0  0  0  0  0  0  0  0
  -10.0628   22.4898  -30.4273 H   0  0  0  0  0  0  0  0  0  0  0  0
   -9.9744   19.8017  -32.2083 H   0  0  0  0  0  0  0  0  0  0  0  0
   -9.3586   20.4953  -33.7937 H   0  0  0  0  0  0  0  0  0  0  0  0
   -8.5801   18.3513  -30.9163 H   0  0  0  0  0  0  0  0  0  0  0  0
   -6.4718   17.0265  -30.7410 H   0  0  0  0  0  0  0  0  0  0  0  0
   -4.6129   17.4114  -32.3624 H   0  0  0  0  0  0  0  0  0  0  0  0
   -4.8722   19.0999  -34.1810 H   0  0  0  0  0  0  0  0  0  0  0  0
   -6.9751   20.4275  -34.3661 H   0  0  0  0  0  0  0  0  0  0  0  0
   -7.2701   21.9241  -33.2105 H   0  0  0  0  0  0  0  0  0  0  0  0
   -7.9391   23.4420  -32.5693 H   0  0  0  0  0  0  0  0  0  0  0  0
   -5.6304   26.6346  -31.0499 H   0  0  0  0  0  0  0  0  0  0  0  0
  1  2  1  0
  2  3  1  0
  3  4  1  0
  3  5  1  0
  5  6  2  0
  6  7  1  0
  7  8  1  0
  8  9  1  0
  9 10  1  0
 10 11  1  0
 11 12  1  0
 12 13  1  0
 13 14  2  0
 14 15  1  0
 15 16  2  0
 16 17  1  0
 17 18  2  0
 11 19  1  0
  7 20  2  0
 20 21  1  0
 21 22  2  0
 22  5  1  0
 19  8  1  0
 18 13  1  0
  1 23  1  0
  1 24  1  0
  1 25  1  0
  2 26  1  0
  2 27  1  0
  4 28  1  0
  4 29  1  0
  4 30  1  0
  6 31  1  0
  8 32  1  6
  9 33  1  0
  9 34  1  0
 10 35  1  0
 10 36  1  0
 12 37  1  0
 12 38  1  0
 14 39  1  0
 15 40  1  0
 16 41  1  0
 17 42  1  0
 18 43  1  0
 19 44  1  0
 19 45  1  0
 21 46  1  0
M  END
>  <UniqueID>  (29) 
28

>  <SMILES>  (29) 
CCN(C)c1cc([C@H]2CCN(Cc3ccccc3)C2)ncn1

>  <Energy>  (29) 
54.084207901086764

>  <Genealogy>  (29) 
CCN(C)c1cc([C@H]2CCN(Cc3ccccc3)C2)ncn1 (chirality)
CCN(C)c1cc([C@H]2CCN(Cc3ccccc3)C2)ncn1 (3D coordinates assigned)
CCN(C)c1cc([C@H]2CCN(Cc3ccccc3)C2)ncn1 (nonaromatic ring conformer: 54.084207901086764 kcal/mol)

>  <smiles>  (29) 
CCN(C)c1cc(C2CCN(Cc3ccccc3)C2)ncn1

>  <score_type>  (29) 
oracle

>  <origin>  (29) 
adg

>  <m_score__min__energy>  (29) 
-8.1899999999999995

>  <m_primary>  (29) 
energy

$$$$
29:0
     RDKit          3D

 41 43  0  0  0  0  0  0  0  0999 V2000
   -0.9540   19.9420  -34.5330 C   0  0  0  0  0  0  0  0  0  0  0  0
   -1.7490   21.1290  -34.2090 N   0  0  0  0  0  0  0  0  0  0  0  0
   -1.9050   21.2700  -32.7520 C   0  0  0  0  0  0  0  0  0  0  0  0
   -3.2630   21.8910  -32.3920 C   0  0  0  0  0  0  0  0  0  0  0  0
   -4.2770   21.5700  -33.4010 N   0  0  0  0  0  0  0  0  0  0  0  0
   -5.4480   20.7910  -33.0920 C   0  0  0  0  0  0  0  0  0  0  0  0
   -5.4670   19.4100  -33.3640 C   0  0  0  0  0  0  0  0  0  0  0  0
   -4.3470   18.7670  -33.9360 C   0  0  0  0  0  0  0  0  0  0  0  0
   -4.3950   17.4180  -34.2790 C   0  0  0  0  0  0  0  0  0  0  0  0
   -5.5590   16.6900  -34.0730 C   0  0  0  0  0  0  0  0  0  0  0  0
   -6.6730   17.2960  -33.4950 C   0  0  0  0  0  0  0  0  0  0  0  0
   -6.6430   18.6570  -33.0920 C   0  0  0  0  0  0  0  0  0  0  0  0
   -7.7240   19.2560  -32.4720 N   0  0  0  0  0  0  0  0  0  0  0  0
   -8.8260   18.4210  -31.9420 C   0  0  0  0  0  0  0  0  0  0  0  0
   -7.7570   20.6280  -32.3060 C   0  0  0  0  0  0  0  0  0  0  0  0
   -8.9350   21.3010  -31.8910 C   0  0  0  0  0  0  0  0  0  0  0  0
   -8.9280   22.6710  -31.6330 C   0  0  0  0  0  0  0  0  0  0  0  0
   -7.7580   23.4050  -31.7840 C   0  0  0  0  0  0  0  0  0  0  0  0
   -6.6000   22.7820  -32.2400 C   0  0  0  0  0  0  0  0  0  0  0  0
   -6.5940   21.4060  -32.5560 C   0  0  0  0  0  0  0  0  0  0  0  0
   -0.6274   19.4543  -33.6027 H   0  0  0  0  0  0  0  0  0  0  0  0
   -1.5651   19.2404  -35.1198 H   0  0  0  0  0  0  0  0  0  0  0  0
   -0.0726   20.2400  -35.1198 H   0  0  0  0  0  0  0  0  0  0  0  0
   -2.6820   21.0400  -34.6690 H   0  0  0  0  0  0  0  0  0  0  0  0
   -1.2620   21.9730  -34.5910 H   0  0  0  0  0  0  0  0  0  0  0  0
   -1.8310   20.2763  -32.2862 H   0  0  0  0  0  0  0  0  0  0  0  0
   -1.1108   21.9347  -32.3812 H   0  0  0  0  0  0  0  0  0  0  0  0
   -3.5898   21.4990  -31.4176 H   0  0  0  0  0  0  0  0  0  0  0  0
   -3.1463   22.9840  -32.3510 H   0  0  0  0  0  0  0  0  0  0  0  0
   -4.2510   22.0970  -34.3030 H   0  0  0  0  0  0  0  0  0  0  0  0
   -3.4245   19.3394  -34.1129 H   0  0  0  0  0  0  0  0  0  0  0  0
   -3.5104   16.9292  -34.7132 H   0  0  0  0  0  0  0  0  0  0  0  0
   -5.6022   15.6309  -34.3671 H   0  0  0  0  0  0  0  0  0  0  0  0
   -7.5919   16.7093  -33.3484 H   0  0  0  0  0  0  0  0  0  0  0  0
   -8.8030   18.4384  -30.8424 H   0  0  0  0  0  0  0  0  0  0  0  0
   -9.7892   18.8180  -32.2949 H   0  0  0  0  0  0  0  0  0  0  0  0
   -8.7044   17.3863  -32.2949 H   0  0  0  0  0  0  0  0  0  0  0  0
   -9.8691   20.7326  -31.7709 H   0  0  0  0  0  0  0  0  0  0  0  0
   -9.8518   23.1725  -31.3088 H   0  0  0  0  0  0  0  0  0  0  0  0
   -7.7469   24.4783  -31.5432 H   0  0  0  0  0  0  0  0  0  0  0  0
   -5.6772   23.3695  -32.3557 H   0  0  0  0  0  0  0  0  0  0  0  0
  1  2  1  0
  2  3  1  0
  3  4  1  0
  4  5  1  0
  5  6  1  0
  6  7  2  0
  7  8  1  0
  8  9  2  0
  9 10  1  0
 10 11  2  0
 11 12  1  0
 12 13  2  0
 13 14  1  0
 13 15  1  0
 15 16  2  0
 16 17  1  0
 17 18  2  0
 18 19  1  0
 19 20  2  0
 20  6  1  0
 12  7  1  0
 20 15  1  0
  1 21  1  0
  1 22  1  0
  1 23  1  0
  2 24  1  0
  2 25  1  0
  3 26  1  0
  3 27  1  0
  4 28  1  0
  4 29  1  0
  5 30  1  0
  8 31  1  0
  9 32  1  0
 10 33  1  0
 11 34  1  0
 14 35  1  0
 14 36  1  0
 14 37  1  0
 16 38  1  0
 17 39  1  0
 18 40  1  0
 19 41  1  0
M  CHG  2   2   1  13   1
M  END
>  <UniqueID>  (30) 
29

>  <SMILES>  (30) 
C[NH2+]CCNc1c2ccccc2[n+](C)c2ccccc12

>  <Energy>  (30) 
66.02657128558447

>  <Genealogy>  (30) 
C[NH2+]CCNc1c2ccccc2[n+](C)c2ccccc12 (protonated)
C[NH2+]CCNc1c2ccccc2[n+](C)c2ccccc12 (3D coordinates assigned)
C[NH2+]CCNc1c2ccccc2[n+](C)c2ccccc12 (optimized conformer: 66.02657128558447 kcal/mol)

>  <smiles>  (30) 
CNCCNc1c2ccccc2[n+](C)c2ccccc12

>  <score_type>  (30) 
oracle

>  <origin>  (30) 
adg

>  <m_score__min__energy>  (30) 
-7.1399999999999997

>  <m_primary>  (30) 
energy

$$$$
30:0
     RDKit          3D

 57 59  0  0  0  0  0  0  0  0999 V2000
   -1.8340   20.5410  -29.8090 C   0  0  0  0  0  0  0  0  0  0  0  0
   -3.0950   21.2960  -29.4110 C   0  0  0  0  0  0  0  0  0  0  0  0
   -2.8650   22.7510  -29.5670 N   0  0  0  0  0  0  0  0  0  0  0  0
   -1.4420   23.0830  -29.8120 C   0  0  0  0  0  0  0  0  0  0  0  0
   -0.9240   24.2510  -28.9560 C   0  0  0  0  0  0  0  0  0  0  0  0
   -3.4740   23.5780  -28.4990 C   0  0  0  0  0  0  0  0  0  0  0  0
   -4.5160   24.5500  -29.0730 C   0  0  0  0  0  0  0  0  0  0  0  0
   -4.1970   24.9000  -30.4600 N   0  0  0  0  0  0  0  0  0  0  0  0
   -5.4060   25.2530  -31.2180 C   0  0  0  0  0  0  0  0  0  0  0  0
   -6.1420   23.9860  -31.6630 C   0  0  0  0  0  0  0  0  0  0  0  0
   -5.3900   22.7680  -31.3430 N   0  0  0  0  0  0  0  0  0  0  0  0
   -5.4980   21.5560  -32.1140 C   0  0  0  0  0  0  0  0  0  0  0  0
   -6.7230   20.8680  -32.1700 C   0  0  0  0  0  0  0  0  0  0  0  0
   -7.8720   21.3910  -31.5340 C   0  0  0  0  0  0  0  0  0  0  0  0
   -9.0580   20.6640  -31.4990 C   0  0  0  0  0  0  0  0  0  0  0  0
   -9.1190   19.4040  -32.0810 C   0  0  0  0  0  0  0  0  0  0  0  0
   -8.0040   18.8770  -32.7320 C   0  0  0  0  0  0  0  0  0  0  0  0
   -6.7950   19.6140  -32.8310 C   0  0  0  0  0  0  0  0  0  0  0  0
   -5.7010   19.1280  -33.5240 N   0  0  0  0  0  0  0  0  0  0  0  0
   -5.8550   17.9610  -34.4230 C   0  0  0  0  0  0  0  0  0  0  0  0
   -4.4750   19.7580  -33.4170 C   0  0  0  0  0  0  0  0  0  0  0  0
   -3.2890   19.1820  -33.9420 C   0  0  0  0  0  0  0  0  0  0  0  0
   -2.0810   19.8770  -33.9230 C   0  0  0  0  0  0  0  0  0  0  0  0
   -2.0180   21.1540  -33.3800 C   0  0  0  0  0  0  0  0  0  0  0  0
   -3.1510   21.7230  -32.8060 C   0  0  0  0  0  0  0  0  0  0  0  0
   -4.3730   21.0170  -32.7650 C   0  0  0  0  0  0  0  0  0  0  0  0
   -1.2978   20.2199  -28.9038 H   0  0  0  0  0  0  0  0  0  0  0  0
   -2.1080   19.6582  -30.4054 H   0  0  0  0  0  0  0  0  0  0  0  0
   -1.1853   21.1994  -30.4054 H   0  0  0  0  0  0  0  0  0  0  0  0
   -3.9290   20.9846  -30.0572 H   0  0  0  0  0  0  0  0  0  0  0  0
   -3.3425   21.0726  -28.3627 H   0  0  0  0  0  0  0  0  0  0  0  0
   -0.8345   22.1933  -29.5898 H   0  0  0  0  0  0  0  0  0  0  0  0
   -1.3608   23.3943  -30.8639 H   0  0  0  0  0  0  0  0  0  0  0  0
   -1.0345   24.0018  -27.8903 H   0  0  0  0  0  0  0  0  0  0  0  0
    0.1375   24.4292  -29.1827 H   0  0  0  0  0  0  0  0  0  0  0  0
   -1.5045   25.1574  -29.1827 H   0  0  0  0  0  0  0  0  0  0  0  0
   -3.9642   22.9169  -27.7692 H   0  0  0  0  0  0  0  0  0  0  0  0
   -2.6782   24.1657  -28.0179 H   0  0  0  0  0  0  0  0  0  0  0  0
   -5.5077   24.0752  -29.0404 H   0  0  0  0  0  0  0  0  0  0  0  0
   -4.5097   25.4690  -28.4685 H   0  0  0  0  0  0  0  0  0  0  0  0
   -3.7840   24.0480  -30.9010 H   0  0  0  0  0  0  0  0  0  0  0  0
   -6.0712   25.8545  -30.5810 H   0  0  0  0  0  0  0  0  0  0  0  0
   -5.1149   25.8296  -32.1084 H   0  0  0  0  0  0  0  0  0  0  0  0
   -7.1163   23.9449  -31.1541 H   0  0  0  0  0  0  0  0  0  0  0  0
   -6.2630   24.0314  -32.7554 H   0  0  0  0  0  0  0  0  0  0  0  0
   -4.6900   22.8060  -30.5680 H   0  0  0  0  0  0  0  0  0  0  0  0
   -7.8281   22.3834  -31.0616 H   0  0  0  0  0  0  0  0  0  0  0  0
   -9.9479   21.0873  -31.0102 H   0  0  0  0  0  0  0  0  0  0  0  0
  -10.0498   18.8202  -32.0282 H   0  0  0  0  0  0  0  0  0  0  0  0
   -8.0625   17.8725  -33.1766 H   0  0  0  0  0  0  0  0  0  0  0  0
   -5.9755   17.0480  -33.8213 H   0  0  0  0  0  0  0  0  0  0  0  0
   -6.7424   18.1016  -35.0577 H   0  0  0  0  0  0  0  0  0  0  0  0
   -4.9615   17.8666  -35.0577 H   0  0  0  0  0  0  0  0  0  0  0  0
   -3.3237   18.1698  -34.3712 H   0  0  0  0  0  0  0  0  0  0  0  0
   -1.1748   19.4128  -34.3393 H   0  0  0  0  0  0  0  0  0  0  0  0
   -1.0725   21.7156  -33.4037 H   0  0  0  0  0  0  0  0  0  0  0  0
   -3.0937   22.7351  -32.3790 H   0  0  0  0  0  0  0  0  0  0  0  0
  1  2  1  0
  2  3  1  0
  3  4  1  0
  4  5  1  0
  3  6  1  0
  6  7  1  0
  7  8  1  0
  8  9  1  0
  9 10  1  0
 10 11  1  0
 11 12  1  0
 12 13  2  0
 13 14  1  0
 14 15  2  0
 15 16  1  0
 16 17  2  0
 17 18  1  0
 18 19  2  0
 19 20  1  0
 19 21  1  0
 21 22  2  0
 22 23  1  0
 23 24  2  0
 24 25  1  0
 25 26  2  0
 26 12  1  0
 18 13  1  0
 26 21  1  0
  1 27  1  0
  1 28  1  0
  1 29  1  0
  2 30  1  0
  2 31  1  0
  4 32  1  0
  4 33  1  0
  5 34  1  0
  5 35  1  0
  5 36  1  0
  6 37  1  0
  6 38  1  0
  7 39  1  0
  7 40  1  0
  8 41  1  0
  9 42  1  0
  9 43  1  0
 10 44  1  0
 10 45  1  0
 11 46  1  0
 14 47  1  0
 15 48  1  0
 16 49  1  0
 17 50  1  0
 20 51  1  0
 20 52  1  0
 20 53  1  0
 22 54  1  0
 23 55  1  0
 24 56  1  0
 25 57  1  0
M  CHG  1  19   1
M  END
>  <UniqueID>  (31) 
30

>  <SMILES>  (31) 
CCN(CC)CCNCCNc1c2ccccc2[n+](C)c2ccccc12

>  <Energy>  (31) 
79.3772408735713

>  <Genealogy>  (31) 
CCN(CC)CCNCCNc1c2ccccc2[n+](C)c2ccccc12 (3D coordinates assigned)
CCN(CC)CCNCCNc1c2ccccc2[n+](C)c2ccccc12 (optimized conformer: 79.3772408735713 kcal/mol)

>  <smiles>  (31) 
CCN(CC)CCNCCNc1c2ccccc2[n+](C)c2ccccc12

>  <score_type>  (31) 
oracle

>  <origin>  (31) 
adg

>  <m_score__min__energy>  (31) 
-8.0899999999999999

>  <m_primary>  (31) 
energy

$$$$
31:0
     RDKit          3D

 52 54  0  0  0  0  0  0  0  0999 V2000
   -4.4790   22.8580  -28.5810 C   0  0  0  0  0  0  0  0  0  0  0  0
   -5.4080   22.9240  -29.7870 C   0  0  0  0  0  0  0  0  0  0  0  0
   -4.7020   23.5500  -30.9320 N   0  0  0  0  0  0  0  0  0  0  0  0
   -4.6840   25.0290  -30.8370 C   0  0  0  0  0  0  0  0  0  0  0  0
   -5.8980   25.6300  -30.1070 C   0  0  0  0  0  0  0  0  0  0  0  0
   -3.3610   22.9690  -31.1780 C   0  0  0  0  0  0  0  0  0  0  0  0
   -3.3850   21.9490  -32.3370 C   0  0  0  0  0  0  0  0  0  0  0  0
   -4.5710   22.0610  -33.2120 N   0  0  0  0  0  0  0  0  0  0  0  0
   -5.6110   21.0850  -32.9000 C   0  0  0  0  0  0  0  0  0  0  0  0
   -6.9120   21.4950  -32.4780 C   0  0  0  0  0  0  0  0  0  0  0  0
   -7.2920   22.8610  -32.3850 C   0  0  0  0  0  0  0  0  0  0  0  0
   -8.5420   23.2350  -31.9010 C   0  0  0  0  0  0  0  0  0  0  0  0
   -9.4430   22.2720  -31.4810 C   0  0  0  0  0  0  0  0  0  0  0  0
   -9.1180   20.9250  -31.5840 C   0  0  0  0  0  0  0  0  0  0  0  0
   -7.8770   20.5030  -32.1300 C   0  0  0  0  0  0  0  0  0  0  0  0
   -7.6010   19.1650  -32.3080 N   0  0  0  0  0  0  0  0  0  0  0  0
   -8.7000   18.1730  -32.2640 C   0  0  0  0  0  0  0  0  0  0  0  0
   -6.3130   18.7490  -32.5760 C   0  0  0  0  0  0  0  0  0  0  0  0
   -5.9500   17.3810  -32.4710 C   0  0  0  0  0  0  0  0  0  0  0  0
   -4.6730   16.9290  -32.8270 C   0  0  0  0  0  0  0  0  0  0  0  0
   -4.3350   15.5320  -32.7220 N   0  0  0  0  0  0  0  0  0  0  0  0
   -4.6110   14.8860  -31.6890 O   0  0  0  0  0  0  0  0  0  0  0  0
   -3.6990   14.8830  -33.7560 O   0  0  0  0  0  0  0  0  0  0  0  0
   -3.7360   17.8540  -33.2880 C   0  0  0  0  0  0  0  0  0  0  0  0
   -4.0470   19.2080  -33.3430 C   0  0  0  0  0  0  0  0  0  0  0  0
   -5.3180   19.6920  -32.9450 C   0  0  0  0  0  0  0  0  0  0  0  0
   -5.0742   22.9003  -27.6569 H   0  0  0  0  0  0  0  0  0  0  0  0
   -3.9097   21.9171  -28.6077 H   0  0  0  0  0  0  0  0  0  0  0  0
   -3.7824   23.7089  -28.6077 H   0  0  0  0  0  0  0  0  0  0  0  0
   -5.7207   21.9062  -30.0632 H   0  0  0  0  0  0  0  0  0  0  0  0
   -6.2919   23.5271  -29.5318 H   0  0  0  0  0  0  0  0  0  0  0  0
   -3.7738   25.3287  -30.2969 H   0  0  0  0  0  0  0  0  0  0  0  0
   -4.7142   25.4119  -31.8678 H   0  0  0  0  0  0  0  0  0  0  0  0
   -5.7464   25.5549  -29.0201 H   0  0  0  0  0  0  0  0  0  0  0  0
   -6.0093   26.6873  -30.3895 H   0  0  0  0  0  0  0  0  0  0  0  0
   -6.8062   25.0774  -30.3895 H   0  0  0  0  0  0  0  0  0  0  0  0
   -2.6620   23.7798  -31.4310 H   0  0  0  0  0  0  0  0  0  0  0  0
   -3.0418   22.4441  -30.2655 H   0  0  0  0  0  0  0  0  0  0  0  0
   -2.4859   22.1027  -32.9517 H   0  0  0  0  0  0  0  0  0  0  0  0
   -3.4199   20.9490  -31.8802 H   0  0  0  0  0  0  0  0  0  0  0  0
   -4.9040   23.0440  -33.2180 H   0  0  0  0  0  0  0  0  0  0  0  0
   -4.2720   21.9390  -34.2060 H   0  0  0  0  0  0  0  0  0  0  0  0
   -6.5828   23.6397  -32.7024 H   0  0  0  0  0  0  0  0  0  0  0  0
   -8.8149   24.2995  -31.8521 H   0  0  0  0  0  0  0  0  0  0  0  0
  -10.4161   22.5729  -31.0658 H   0  0  0  0  0  0  0  0  0  0  0  0
   -9.8374   20.1695  -31.2352 H   0  0  0  0  0  0  0  0  0  0  0  0
   -8.9492   17.9481  -31.2165 H   0  0  0  0  0  0  0  0  0  0  0  0
   -9.5853   18.5838  -32.7714 H   0  0  0  0  0  0  0  0  0  0  0  0
   -8.3817   17.2504  -32.7714 H   0  0  0  0  0  0  0  0  0  0  0  0
   -6.6907   16.6570  -32.1005 H   0  0  0  0  0  0  0  0  0  0  0  0
   -2.7426   17.5092  -33.6108 H   0  0  0  0  0  0  0  0  0  0  0  0
   -3.2895   19.9195  -33.7035 H   0  0  0  0  0  0  0  0  0  0  0  0
  1  2  1  0
  2  3  1  0
  3  4  1  0
  4  5  1  0
  3  6  1  0
  6  7  1  0
  7  8  1  0
  8  9  1  0
  9 10  2  0
 10 11  1  0
 11 12  2  0
 12 13  1  0
 13 14  2  0
 14 15  1  0
 15 16  2  0
 16 17  1  0
 16 18  1  0
 18 19  2  0
 19 20  1  0
 20 21  1  0
 21 22  2  0
 21 23  1  0
 20 24  2  0
 24 25  1  0
 25 26  2  0
 26  9  1  0
 15 10  1  0
 26 18  1  0
  1 27  1  0
  1 28  1  0
  1 29  1  0
  2 30  1  0
  2 31  1  0
  4 32  1  0
  4 33  1  0
  5 34  1  0
  5 35  1  0
  5 36  1  0
  6 37  1  0
  6 38  1  0
  7 39  1  0
  7 40  1  0
  8 41  1  0
  8 42  1  0
 11 43  1  0
 12 44  1  0
 13 45  1  0
 14 46  1  0
 17 47  1  0
 17 48  1  0
 17 49  1  0
 19 50  1  0
 24 51  1  0
 25 52  1  0
M  CHG  4   8   1  16   1  21   1  23  -1
M  END
>  <UniqueID>  (32) 
31

>  <SMILES>  (32) 
CCN(CC)CC[NH2+]c1c2ccccc2[n+](C)c2cc([N+](=O)[O-])ccc12

>  <Energy>  (32) 
84.29190280995557

>  <Genealogy>  (32) 
CCN(CC)CC[NH2+]c1c2ccccc2[n+](C)c2cc([N+](=O)[O-])ccc12 (protonated)
CCN(CC)CC[NH2+]c1c2ccccc2[n+](C)c2cc([N+](=O)[O-])ccc12 (3D coordinates assigned)
CCN(CC)CC[NH2+]c1c2ccccc2[n+](C)c2cc([N+](=O)[O-])ccc12 (optimized conformer: 84.29190280995557 kcal/mol)

>  <smiles>  (32) 
CCN(CC)CCNc1c2ccccc2[n+](C)c2cc([N+](=O)[O-])ccc12

>  <score_type>  (32) 
oracle

>  <origin>  (32) 
adg

>  <m_score__min__energy>  (32) 
-7.7999999999999998

>  <m_primary>  (32) 
energy

$$$$
32:0
     RDKit          2D

 38 41  0  0  0  0  0  0  0  0999 V2000
    3.7156    7.2317    0.0000 C   0  0  0  0  0  0  0  0  0  0  0  0
    2.2484    6.9199    0.0000 O   0  0  0  0  0  0  0  0  0  0  0  0
    1.7849    5.4933    0.0000 C   0  0  0  0  0  0  0  0  0  0  0  0
    2.7886    4.3786    0.0000 C   0  0  0  0  0  0  0  0  0  0  0  0
    2.3250    2.9520    0.0000 C   0  0  0  0  0  0  0  0  0  0  0  0
    0.8578    2.6401    0.0000 C   0  0  0  0  0  0  0  0  0  0  0  0
    0.3943    1.2135    0.0000 N   0  0  0  0  0  0  0  0  0  0  0  0
    1.2760    0.0000    0.0000 N   0  0  0  0  0  0  0  0  0  0  0  0
    0.3943   -1.2135    0.0000 C   0  0  0  0  0  0  0  0  0  0  0  0
    0.8578   -2.6401    0.0000 C   0  0  0  0  0  0  0  0  0  0  0  0
   -1.0323   -0.7500    0.0000 C   0  0  0  0  0  0  0  0  0  0  0  0
   -2.3313   -1.5000    0.0000 C   0  0  0  0  0  0  0  0  0  0  0  0
   -3.4309   -2.5203    0.0000 C   0  0  0  0  0  0  0  0  0  0  0  0
   -4.9141   -2.2967    0.0000 C   0  0  0  0  0  0  0  0  0  0  0  0
   -5.6641   -0.9977    0.0000 C   0  0  0  0  0  0  0  0  0  0  0  0
   -5.1161    0.3987    0.0000 C   0  0  0  0  0  0  0  0  0  0  0  0
   -3.6304    0.7500    0.0000 C   0  0  0  0  0  0  0  0  0  0  0  0
   -2.3313    1.5000    0.0000 N   0  0  0  0  0  0  0  0  0  0  0  0
   -1.0323    0.7500    0.0000 C   0  0  0  0  0  0  0  0  0  0  0  0
   -3.6304   -0.7500    0.0000 C   0  0  0  0  0  0  0  0  0  0  0  0
   -4.7983   -1.0848    0.0000 O   0  0  0  0  0  0  0  0  0  0  0  0
   -0.1459    3.7548    0.0000 C   0  0  0  0  0  0  0  0  0  0  0  0
    0.3177    5.1814    0.0000 C   0  0  0  0  0  0  0  0  0  0  0  0
    5.1828    7.5436    0.0000 H   0  0  0  0  0  0  0  0  0  0  0  0
    3.4038    8.6990    0.0000 H   0  0  0  0  0  0  0  0  0  0  0  0
    4.0275    5.7645    0.0000 H   0  0  0  0  0  0  0  0  0  0  0  0
    4.2558    4.6904    0.0000 H   0  0  0  0  0  0  0  0  0  0  0  0
    3.3287    1.8373    0.0000 H   0  0  0  0  0  0  0  0  0  0  0  0
    1.3213   -4.0667    0.0000 H   0  0  0  0  0  0  0  0  0  0  0  0
    2.2844   -2.1766    0.0000 H   0  0  0  0  0  0  0  0  0  0  0  0
   -0.5688   -3.1036    0.0000 H   0  0  0  0  0  0  0  0  0  0  0  0
   -2.9888   -3.9536    0.0000 H   0  0  0  0  0  0  0  0  0  0  0  0
   -5.7591   -3.5361    0.0000 H   0  0  0  0  0  0  0  0  0  0  0  0
   -7.1600   -1.1098    0.0000 H   0  0  0  0  0  0  0  0  0  0  0  0
   -6.1364    1.4982    0.0000 H   0  0  0  0  0  0  0  0  0  0  0  0
   -2.5142    2.9888    0.0000 H   0  0  0  0  0  0  0  0  0  0  0  0
   -1.6402    3.6241    0.0000 H   0  0  0  0  0  0  0  0  0  0  0  0
   -0.6860    6.2961    0.0000 H   0  0  0  0  0  0  0  0  0  0  0  0
  1  2  1  0
  2  3  1  0
  3  4  2  0
  4  5  1  0
  5  6  2  0
  6  7  1  0
  7  8  1  0
  8  9  2  0
  9 10  1  0
  9 11  1  0
 11 12  1  0
 12 13  2  0
 13 14  1  0
 14 15  2  0
 15 16  1  0
 16 17  2  0
 17 18  1  0
 18 19  1  0
 17 20  1  0
 20 21  2  0
  6 22  1  0
 22 23  2  0
 23  3  1  0
 19  7  1  0
 19 11  2  0
 20 12  1  0
  1 24  1  0
  1 25  1  0
  1 26  1  0
  4 27  1  0
  5 28  1  0
 10 29  1  0
 10 30  1  0
 10 31  1  0
 13 32  1  0
 14 33  1  0
 15 34  1  0
 16 35  1  0
 18 36  1  0
 22 37  1  0
 23 38  1  0
M  END
>  <smiles>  (33) 
COc1ccc(-n2nc(C)c3c4ccccc([nH]c32)c4=O)cc1

>  <m_score__min__energy>  (33) 
nan

>  <m_primary>  (33) 
energy

$$$$
33:0
     RDKit          3D

 41 42  0  0  0  0  0  0  0  0999 V2000
   -5.6520   25.7370  -30.2950 C   0  0  0  0  0  0  0  0  0  0  0  0
   -4.6030   24.9450  -30.8430 O   0  0  0  0  0  0  0  0  0  0  0  0
   -4.0960   23.7740  -30.2530 C   0  0  0  0  0  0  0  0  0  0  0  0
   -3.4540   23.7950  -28.9970 C   0  0  0  0  0  0  0  0  0  0  0  0
   -2.9460   22.6180  -28.4450 C   0  0  0  0  0  0  0  0  0  0  0  0
   -3.0650   21.4110  -29.1330 C   0  0  0  0  0  0  0  0  0  0  0  0
   -3.6990   21.3760  -30.3760 C   0  0  0  0  0  0  0  0  0  0  0  0
   -4.2310   22.5490  -30.9390 C   0  0  0  0  0  0  0  0  0  0  0  0
   -4.8800   22.4900  -32.3020 C   0  0  0  0  0  0  0  0  0  0  0  0
   -6.0890   23.3300  -32.3310 N   0  0  0  0  0  0  0  0  0  0  0  0
   -7.0910   22.9040  -31.3370 C   0  0  0  0  0  0  0  0  0  0  0  0
   -8.4750   22.6640  -31.9710 C   0  0  0  0  0  0  0  0  0  0  0  0
   -9.0660   21.3000  -31.5840 C   0  0  0  0  0  0  0  0  0  0  0  0
   -8.2430   20.1530  -32.1150 C   0  0  0  0  0  0  0  0  0  0  0  0
   -7.2830   20.3680  -33.1170 C   0  0  0  0  0  0  0  0  0  0  0  0
   -6.5070   19.3060  -33.5890 C   0  0  0  0  0  0  0  0  0  0  0  0
   -6.6810   18.0230  -33.0610 C   0  0  0  0  0  0  0  0  0  0  0  0
   -7.6300   17.8020  -32.0600 C   0  0  0  0  0  0  0  0  0  0  0  0
   -8.4080   18.8620  -31.5850 C   0  0  0  0  0  0  0  0  0  0  0  0
   -5.6036   25.7004  -29.1967 H   0  0  0  0  0  0  0  0  0  0  0  0
   -5.5402   26.7779  -30.6325 H   0  0  0  0  0  0  0  0  0  0  0  0
   -6.6225   25.3444  -30.6325 H   0  0  0  0  0  0  0  0  0  0  0  0
   -3.3532   24.7439  -28.4498 H   0  0  0  0  0  0  0  0  0  0  0  0
   -2.4499   22.6427  -27.4635 H   0  0  0  0  0  0  0  0  0  0  0  0
   -2.6593   20.4865  -28.6962 H   0  0  0  0  0  0  0  0  0  0  0  0
   -3.7830   20.4232  -30.9192 H   0  0  0  0  0  0  0  0  0  0  0  0
   -4.1684   22.8526  -33.0584 H   0  0  0  0  0  0  0  0  0  0  0  0
   -5.1631   21.4492  -32.5179 H   0  0  0  0  0  0  0  0  0  0  0  0
   -5.8150   24.3160  -32.1090 H   0  0  0  0  0  0  0  0  0  0  0  0
   -6.5080   23.3200  -33.2920 H   0  0  0  0  0  0  0  0  0  0  0  0
   -6.7495   21.9695  -30.8679 H   0  0  0  0  0  0  0  0  0  0  0  0
   -7.1946   23.7098  -30.5955 H   0  0  0  0  0  0  0  0  0  0  0  0
   -9.1606   23.4551  -31.6332 H   0  0  0  0  0  0  0  0  0  0  0  0
   -8.3511   22.6787  -33.0639 H   0  0  0  0  0  0  0  0  0  0  0  0
   -9.1063   21.2294  -30.4870 H   0  0  0  0  0  0  0  0  0  0  0  0
  -10.0707   21.2288  -32.0261 H   0  0  0  0  0  0  0  0  0  0  0  0
   -7.1412   21.3767  -33.5322 H   0  0  0  0  0  0  0  0  0  0  0  0
   -5.7588   19.4795  -34.3764 H   0  0  0  0  0  0  0  0  0  0  0  0
   -6.0704   17.1875  -33.4340 H   0  0  0  0  0  0  0  0  0  0  0  0
   -7.7653   16.7924  -31.6449 H   0  0  0  0  0  0  0  0  0  0  0  0
   -9.1516   18.6849  -30.7940 H   0  0  0  0  0  0  0  0  0  0  0  0
  1  2  1  0
  2  3  1  0
  3  4  2  0
  4  5  1  0
  5  6  2  0
  6  7  1  0
  7  8  2  0
  8  9  1  0
  9 10  1  0
 10 11  1  0
 11 12  1  0
 12 13  1  0
 13 14  1  0
 14 15  2  0
 15 16  1  0
 16 17  2  0
 17 18  1  0
 18 19  2  0
  8  3  1  0
 19 14  1  0
  1 20  1  0
  1 21  1  0
  1 22  1  0
  4 23  1  0
  5 24  1  0
  6 25  1  0
  7 26  1  0
  9 27  1  0
  9 28  1  0
 10 29  1  0
 10 30  1  0
 11 31  1  0
 11 32  1  0
 12 33  1  0
 12 34  1  0
 13 35  1  0
 13 36  1  0
 15 37  1  0
 16 38  1  0
 17 39  1  0
 18 40  1  0
 19 41  1  0
M  CHG  1  10   1
M  END
>  <UniqueID>  (34) 
32

>  <SMILES>  (34) 
COc1ccccc1C[NH2+]CCCc1ccccc1

>  <Energy>  (34) 
37.05344898566544

>  <Genealogy>  (34) 
COc1ccccc1C[NH2+]CCCc1ccccc1 (protonated)
COc1ccccc1C[NH2+]CCCc1ccccc1 (3D coordinates assigned)
COc1ccccc1C[NH2+]CCCc1ccccc1 (optimized conformer: 37.05344898566544 kcal/mol)

>  <smiles>  (34) 
COc1ccccc1CNCCCc1ccccc1

>  <score_type>  (34) 
oracle

>  <origin>  (34) 
adg

>  <m_score__min__energy>  (34) 
-7.25

>  <m_primary>  (34) 
energy

$$$$
34:0
     RDKit          3D

 52 55  0  0  0  0  0  0  0  0999 V2000
   -3.0100   22.6770  -29.8750 C   0  0  0  0  0  0  0  0  0  0  0  0
   -3.1280   24.1750  -29.5880 C   0  0  0  0  0  0  0  0  0  0  0  0
   -4.5270   24.6190  -29.4830 N   0  0  0  0  0  0  0  0  0  0  0  0
   -5.2140   24.7250  -30.7850 C   0  0  0  0  0  0  0  0  0  0  0  0
   -6.1630   23.5450  -31.0530 C   0  0  0  0  0  0  0  0  0  0  0  0
   -5.8900   22.9210  -32.3480 N   0  0  0  0  0  0  0  0  0  0  0  0
   -5.8770   21.4920  -32.4740 C   0  0  0  0  0  0  0  0  0  0  0  0
   -7.0680   20.7620  -32.3280 C   0  0  0  0  0  0  0  0  0  0  0  0
   -8.2950   21.4190  -32.1020 C   0  0  0  0  0  0  0  0  0  0  0  0
   -9.4810   20.6950  -32.0040 C   0  0  0  0  0  0  0  0  0  0  0  0
   -9.4640   19.3120  -32.1380 C   0  0  0  0  0  0  0  0  0  0  0  0
   -8.2590   18.6390  -32.3420 C   0  0  0  0  0  0  0  0  0  0  0  0
   -7.0300   19.3440  -32.4060 C   0  0  0  0  0  0  0  0  0  0  0  0
   -5.8210   18.6900  -32.5510 N   0  0  0  0  0  0  0  0  0  0  0  0
   -5.7340   17.2320  -32.3240 C   0  0  0  0  0  0  0  0  0  0  0  0
   -4.6820   19.4030  -32.8740 C   0  0  0  0  0  0  0  0  0  0  0  0
   -3.5340   18.7660  -33.2840 N   0  0  0  0  0  0  0  0  0  0  0  0
   -2.3810   19.4440  -33.5560 C   0  0  0  0  0  0  0  0  0  0  0  0
   -1.2230   18.7530  -33.9500 C   0  0  0  0  0  0  0  0  0  0  0  0
   -0.0340   19.4490  -34.2200 C   0  0  0  0  0  0  0  0  0  0  0  0
    1.1890   18.7090  -34.6740 C   0  0  0  0  0  0  0  0  0  0  0  0
   -0.0170   20.8490  -34.1280 C   0  0  0  0  0  0  0  0  0  0  0  0
   -1.1660   21.5450  -33.7430 C   0  0  0  0  0  0  0  0  0  0  0  0
   -2.3490   20.8470  -33.4550 C   0  0  0  0  0  0  0  0  0  0  0  0
   -3.5110   21.5270  -33.0920 C   0  0  0  0  0  0  0  0  0  0  0  0
   -4.6900   20.8180  -32.8040 C   0  0  0  0  0  0  0  0  0  0  0  0
   -2.9664   22.1240  -28.9251 H   0  0  0  0  0  0  0  0  0  0  0  0
   -3.8847   22.3444  -30.4531 H   0  0  0  0  0  0  0  0  0  0  0  0
   -2.0940   22.4855  -30.4531 H   0  0  0  0  0  0  0  0  0  0  0  0
   -2.6160   24.3941  -28.6394 H   0  0  0  0  0  0  0  0  0  0  0  0
   -2.6679   24.7142  -30.4291 H   0  0  0  0  0  0  0  0  0  0  0  0
   -4.5760   25.5090  -28.9350 H   0  0  0  0  0  0  0  0  0  0  0  0
   -5.7983   25.6569  -30.7998 H   0  0  0  0  0  0  0  0  0  0  0  0
   -4.4428   24.7159  -31.5693 H   0  0  0  0  0  0  0  0  0  0  0  0
   -6.0326   22.7941  -30.2598 H   0  0  0  0  0  0  0  0  0  0  0  0
   -7.1944   23.9272  -31.0645 H   0  0  0  0  0  0  0  0  0  0  0  0
   -5.8320   23.4990  -33.2170 H   0  0  0  0  0  0  0  0  0  0  0  0
   -8.3158   22.5143  -32.0021 H   0  0  0  0  0  0  0  0  0  0  0  0
  -10.4311   21.2181  -31.8205 H   0  0  0  0  0  0  0  0  0  0  0  0
  -10.4051   18.7451  -32.0830 H   0  0  0  0  0  0  0  0  0  0  0  0
   -8.2622   17.5448  -32.4549 H   0  0  0  0  0  0  0  0  0  0  0  0
   -5.7219   17.0293  -31.2429 H   0  0  0  0  0  0  0  0  0  0  0  0
   -6.6042   16.7373  -32.7801 H   0  0  0  0  0  0  0  0  0  0  0  0
   -4.8111   16.8443  -32.7801 H   0  0  0  0  0  0  0  0  0  0  0  0
   -3.5260   17.7360  -33.4440 H   0  0  0  0  0  0  0  0  0  0  0  0
   -1.2481   17.6576  -34.0478 H   0  0  0  0  0  0  0  0  0  0  0  0
    1.7566   18.3656  -33.7966 H   0  0  0  0  0  0  0  0  0  0  0  0
    0.8887   17.8409  -35.2792 H   0  0  0  0  0  0  0  0  0  0  0  0
    1.8187   19.3778  -35.2792 H   0  0  0  0  0  0  0  0  0  0  0  0
    0.9054   21.4015  -34.3601 H   0  0  0  0  0  0  0  0  0  0  0  0
   -1.1432   22.6420  -33.6655 H   0  0  0  0  0  0  0  0  0  0  0  0
   -3.5049   22.6253  -33.0306 H   0  0  0  0  0  0  0  0  0  0  0  0
  1  2  1  0
  2  3  1  0
  3  4  1  0
  4  5  1  0
  5  6  1  0
  6  7  1  0
  7  8  2  0
  8  9  1  0
  9 10  2  0
 10 11  1  0
 11 12  2  0
 12 13  1  0
 13 14  2  0
 14 15  1  0
 14 16  1  0
 16 17  2  0
 17 18  1  0
 18 19  2  0
 19 20  1  0
 20 21  1  0
 20 22  2  0
 22 23  1  0
 23 24  2  0
 24 25  1  0
 25 26  2  0
 26  7  1  0
 13  8  1  0
 26 16  1  0
 24 18  1  0
  1 27  1  0
  1 28  1  0
  1 29  1  0
  2 30  1  0
  2 31  1  0
  3 32  1  0
  4 33  1  0
  4 34  1  0
  5 35  1  0
  5 36  1  0
  6 37  1  0
  9 38  1  0
 10 39  1  0
 11 40  1  0
 12 41  1  0
 15 42  1  0
 15 43  1  0
 15 44  1  0
 17 45  1  0
 19 46  1  0
 21 47  1  0
 21 48  1  0
 21 49  1  0
 22 50  1  0
 23 51  1  0
 25 52  1  0
M  CHG  2  14   1  17   1
M  END
>  <UniqueID>  (35) 
33

>  <SMILES>  (35) 
CCNCCNc1c2ccccc2[n+](C)c2[nH+]c3cc(C)ccc3cc12

>  <Energy>  (35) 
81.9071453888951

>  <Genealogy>  (35) 
CCNCCNc1c2ccccc2[n+](C)c2[nH+]c3cc(C)ccc3cc12 (protonated)
CCNCCNc1c2ccccc2[n+](C)c2[nH+]c3cc(C)ccc3cc12 (3D coordinates assigned)
CCNCCNc1c2ccccc2[n+](C)c2[nH+]c3cc(C)ccc3cc12 (optimized conformer: 81.9071453888951 kcal/mol)

>  <smiles>  (35) 
CCNCCNc1c2ccccc2[n+](C)c2nc3cc(C)ccc3cc12

>  <score_type>  (35) 
oracle

>  <origin>  (35) 
adg

>  <m_score__min__energy>  (35) 
-9.0399999999999991

>  <m_primary>  (35) 
energy

$$$$
35:0
     RDKit          3D

 45 47  0  0  0  0  0  0  0  0999 V2000
   -5.2830   25.3790  -30.5080 C   0  0  0  0  0  0  0  0  0  0  0  0
   -3.9880   24.6930  -30.5310 N   0  0  0  0  0  0  0  0  0  0  0  0
   -4.1340   23.2290  -30.5290 C   0  0  0  0  0  0  0  0  0  0  0  0
   -3.0060   22.5240  -31.3020 C   0  0  0  0  0  0  0  0  0  0  0  0
   -3.5400   21.3070  -32.0690 C   0  0  0  0  0  0  0  0  0  0  0  0
   -4.4970   20.4450  -31.2250 C   0  0  0  0  0  0  0  0  0  0  0  0
   -5.7690   20.1400  -31.9070 N   0  0  0  0  0  0  0  0  0  0  0  0
   -5.8040   19.0090  -32.7900 C   0  0  0  0  0  0  0  0  0  0  0  0
   -4.8750   18.8910  -33.8370 C   0  0  0  0  0  0  0  0  0  0  0  0
   -4.9220   17.7910  -34.6970 C   0  0  0  0  0  0  0  0  0  0  0  0
   -5.8950   16.8040  -34.5170 C   0  0  0  0  0  0  0  0  0  0  0  0
   -6.8190   16.9140  -33.4740 C   0  0  0  0  0  0  0  0  0  0  0  0
   -6.7680   18.0130  -32.6000 C   0  0  0  0  0  0  0  0  0  0  0  0
   -7.7430   18.1530  -31.4720 C   0  0  0  0  0  0  0  0  0  0  0  0
   -8.7530   19.2670  -31.7640 C   0  0  0  0  0  0  0  0  0  0  0  0
   -8.2300   20.6960  -31.8650 C   0  0  0  0  0  0  0  0  0  0  0  0
   -9.2230   21.6940  -31.9210 C   0  0  0  0  0  0  0  0  0  0  0  0
   -8.8920   23.0380  -32.0730 C   0  0  0  0  0  0  0  0  0  0  0  0
   -7.5600   23.4180  -32.1890 C   0  0  0  0  0  0  0  0  0  0  0  0
   -6.5540   22.4550  -32.1440 C   0  0  0  0  0  0  0  0  0  0  0  0
   -6.8580   21.0910  -31.9630 C   0  0  0  0  0  0  0  0  0  0  0  0
   -5.5926   25.5430  -29.4653 H   0  0  0  0  0  0  0  0  0  0  0  0
   -5.1937   26.3481  -31.0207 H   0  0  0  0  0  0  0  0  0  0  0  0
   -6.0346   24.7608  -31.0207 H   0  0  0  0  0  0  0  0  0  0  0  0
   -3.4610   24.9950  -31.3840 H   0  0  0  0  0  0  0  0  0  0  0  0
   -4.1231   22.8747  -29.4877 H   0  0  0  0  0  0  0  0  0  0  0  0
   -5.0838   22.9869  -31.0283 H   0  0  0  0  0  0  0  0  0  0  0  0
   -2.5624   23.2329  -32.0166 H   0  0  0  0  0  0  0  0  0  0  0  0
   -2.2504   22.1790  -30.5809 H   0  0  0  0  0  0  0  0  0  0  0  0
   -4.0790   21.6615  -32.9600 H   0  0  0  0  0  0  0  0  0  0  0  0
   -2.6775   20.6794  -32.3378 H   0  0  0  0  0  0  0  0  0  0  0  0
   -3.9932   19.4966  -30.9869 H   0  0  0  0  0  0  0  0  0  0  0  0
   -4.7438   21.0237  -30.3227 H   0  0  0  0  0  0  0  0  0  0  0  0
   -4.1084   19.6668  -33.9802 H   0  0  0  0  0  0  0  0  0  0  0  0
   -4.1931   17.7017  -35.5159 H   0  0  0  0  0  0  0  0  0  0  0  0
   -5.9337   15.9400  -35.1967 H   0  0  0  0  0  0  0  0  0  0  0  0
   -7.5874   16.1389  -33.3372 H   0  0  0  0  0  0  0  0  0  0  0  0
   -8.2815   17.2029  -31.3402 H   0  0  0  0  0  0  0  0  0  0  0  0
   -7.1898   18.4085  -30.5562 H   0  0  0  0  0  0  0  0  0  0  0  0
   -9.2375   19.0270  -32.7220 H   0  0  0  0  0  0  0  0  0  0  0  0
   -9.4145   19.2769  -30.8852 H   0  0  0  0  0  0  0  0  0  0  0  0
  -10.2816   21.4055  -31.8430 H   0  0  0  0  0  0  0  0  0  0  0  0
   -9.6852   23.7996  -32.1013 H   0  0  0  0  0  0  0  0  0  0  0  0
   -7.3000   24.4792  -32.3164 H   0  0  0  0  0  0  0  0  0  0  0  0
   -5.5041   22.7649  -32.2517 H   0  0  0  0  0  0  0  0  0  0  0  0
  1  2  1  0
  2  3  1  0
  3  4  1  0
  4  5  1  0
  5  6  1  0
  6  7  1  0
  7  8  1  0
  8  9  2  0
  9 10  1  0
 10 11  2  0
 11 12  1  0
 12 13  2  0
 13 14  1  0
 14 15  1  0
 15 16  1  0
 16 17  2  0
 17 18  1  0
 18 19  2  0
 19 20  1  0
 20 21  2  0
 21  7  1  0
 13  8  1  0
 21 16  1  0
  1 22  1  0
  1 23  1  0
  1 24  1  0
  2 25  1  0
  3 26  1  0
  3 27  1  0
  4 28  1  0
  4 29  1  0
  5 30  1  0
  5 31  1  0
  6 32  1  0
  6 33  1  0
  9 34  1  0
 10 35  1  0
 11 36  1  0
 12 37  1  0
 14 38  1  0
 14 39  1  0
 15 40  1  0
 15 41  1  0
 17 42  1  0
 18 43  1  0
 19 44  1  0
 20 45  1  0
M  END
>  <UniqueID>  (36) 
34

>  <SMILES>  (36) 
CNCCCCN1c2ccccc2CCc2ccccc21

>  <Energy>  (36) 
58.48445386866218

>  <Genealogy>  (36) 
CNCCCCN1c2ccccc2CCc2ccccc21 (3D coordinates assigned)
CNCCCCN1c2ccccc2CCc2ccccc21 (nonaromatic ring conformer: 58.48445386866218 kcal/mol)

>  <smiles>  (36) 
CNCCCCN1c2ccccc2CCc2ccccc21

>  <score_type>  (36) 
oracle

>  <origin>  (36) 
adg

>  <m_score__min__energy>  (36) 
-7.7800000000000002

>  <m_primary>  (36) 
energy

$$$$
