0:0
     RDKit          3D

 64 68  0  0  0  0  0  0  0  0999 V2000
   -1.7700   21.5760  -28.9740 C   0  0  0  0  0  0  0  0  0  0  0  0
   -2.3950   21.5660  -30.2950 N   0  0  0  0  0  0  0  0  0  0  0  0
   -1.9540   20.9250  -31.4060 C   0  0  0  0  0  0  0  0  0  0  0  0
   -2.7850   21.1700  -32.4790 C   0  0  0  0  0  0  0  0  0  0  0  0
   -3.7460   22.0450  -32.0260 C   0  0  0  0  0  0  0  0  0  0  0  0
   -4.8070   22.6630  -32.6850 C   0  0  0  0  0  0  0  0  0  0  0  0
   -5.6190   23.5370  -31.9420 C   0  0  0  0  0  0  0  0  0  0  0  0
   -5.3530   23.7750  -30.5760 C   0  0  0  0  0  0  0  0  0  0  0  0
   -4.2720   23.1390  -29.9370 C   0  0  0  0  0  0  0  0  0  0  0  0
   -3.4810   22.2690  -30.6940 C   0  0  0  0  0  0  0  0  0  0  0  0
   -2.5380   20.6360  -33.8530 C   0  0  0  0  0  0  0  0  0  0  0  0
   -1.5500   19.4600  -33.7710 C   0  0  0  0  0  0  0  0  0  0  0  0
   -0.3800   19.8120  -32.9230 N   0  0  0  0  0  0  0  0  0  0  0  0
    0.6780   18.7820  -33.0250 C   0  0  0  0  0  0  0  0  0  0  0  0
    0.0990   17.3870  -32.7430 C   0  0  0  0  0  0  0  0  0  0  0  0
    0.1980   16.4460  -33.9540 C   0  0  0  0  0  0  0  0  0  0  0  0
   -1.1500   15.8060  -34.3130 C   0  0  0  0  0  0  0  0  0  0  0  0
   -2.2480   16.5630  -33.7160 N   0  0  0  0  0  0  0  0  0  0  0  0
   -3.5430   16.6610  -34.3350 C   0  0  0  0  0  0  0  0  0  0  0  0
   -3.7980   15.9660  -35.3580 O   0  0  0  0  0  0  0  0  0  0  0  0
   -4.5910   17.5540  -33.7840 C   0  0  0  0  0  0  0  0  0  0  0  0
   -5.1530   18.5580  -34.5910 C   0  0  0  0  0  0  0  0  0  0  0  0
   -6.1470   19.4020  -34.0870 C   0  0  0  0  0  0  0  0  0  0  0  0
   -6.5930   19.2680  -32.7610 C   0  0  0  0  0  0  0  0  0  0  0  0
   -7.6490   20.1650  -32.2250 C   0  0  0  0  0  0  0  0  0  0  0  0
   -8.9520   20.1360  -32.7580 C   0  0  0  0  0  0  0  0  0  0  0  0
   -9.9420   20.9860  -32.2550 C   0  0  0  0  0  0  0  0  0  0  0  0
   -9.6460   21.8670  -31.2120 C   0  0  0  0  0  0  0  0  0  0  0  0
   -8.3570   21.9040  -30.6740 C   0  0  0  0  0  0  0  0  0  0  0  0
   -7.3610   21.0610  -31.1790 C   0  0  0  0  0  0  0  0  0  0  0  0
   -6.0180   18.2780  -31.9480 C   0  0  0  0  0  0  0  0  0  0  0  0
   -5.0260   17.4310  -32.4510 C   0  0  0  0  0  0  0  0  0  0  0  0
   -0.7820   19.9920  -31.5060 C   0  0  0  0  0  0  0  0  0  0  0  0
   -2.5505   21.5635  -28.1990 H   0  0  0  0  0  0  0  0  0  0  0  0
   -1.1302   20.6880  -28.8644 H   0  0  0  0  0  0  0  0  0  0  0  0
   -1.1589   22.4840  -28.8644 H   0  0  0  0  0  0  0  0  0  0  0  0
   -5.0024   22.4732  -33.7507 H   0  0  0  0  0  0  0  0  0  0  0  0
   -6.4681   24.0394  -32.4284 H   0  0  0  0  0  0  0  0  0  0  0  0
   -5.9955   24.4628  -30.0067 H   0  0  0  0  0  0  0  0  0  0  0  0
   -4.0559   23.3209  -28.8739 H   0  0  0  0  0  0  0  0  0  0  0  0
   -3.4867   20.2893  -34.2886 H   0  0  0  0  0  0  0  0  0  0  0  0
   -2.1147   21.4296  -34.4863 H   0  0  0  0  0  0  0  0  0  0  0  0
   -2.0616   18.5887  -33.3361 H   0  0  0  0  0  0  0  0  0  0  0  0
   -1.1934   19.2274  -34.7853 H   0  0  0  0  0  0  0  0  0  0  0  0
    1.1035   18.7992  -34.0392 H   0  0  0  0  0  0  0  0  0  0  0  0
    1.4597   18.9998  -32.2824 H   0  0  0  0  0  0  0  0  0  0  0  0
    0.6522   16.9397  -31.9040 H   0  0  0  0  0  0  0  0  0  0  0  0
   -0.9680   17.5124  -32.5070 H   0  0  0  0  0  0  0  0  0  0  0  0
    0.5568   17.0219  -34.8198 H   0  0  0  0  0  0  0  0  0  0  0  0
    0.8934   15.6352  -33.6912 H   0  0  0  0  0  0  0  0  0  0  0  0
   -1.2677   15.7981  -35.4067 H   0  0  0  0  0  0  0  0  0  0  0  0
   -1.1720   14.7776  -33.9231 H   0  0  0  0  0  0  0  0  0  0  0  0
   -2.0750   17.0190  -32.7940 H   0  0  0  0  0  0  0  0  0  0  0  0
   -4.8078   18.6808  -35.6282 H   0  0  0  0  0  0  0  0  0  0  0  0
   -6.5836   20.1774  -34.7336 H   0  0  0  0  0  0  0  0  0  0  0  0
   -9.1927   19.4403  -33.5753 H   0  0  0  0  0  0  0  0  0  0  0  0
  -10.9557   20.9609  -32.6814 H   0  0  0  0  0  0  0  0  0  0  0  0
  -10.4274   22.5313  -30.8144 H   0  0  0  0  0  0  0  0  0  0  0  0
   -8.1249   22.5971  -29.8520 H   0  0  0  0  0  0  0  0  0  0  0  0
   -6.3464   21.0990  -30.7556 H   0  0  0  0  0  0  0  0  0  0  0  0
   -6.3512   18.1679  -30.9055 H   0  0  0  0  0  0  0  0  0  0  0  0
   -4.5823   16.6630  -31.8004 H   0  0  0  0  0  0  0  0  0  0  0  0
   -1.0593   19.0158  -31.0817 H   0  0  0  0  0  0  0  0  0  0  0  0
    0.0632   20.4218  -30.9484 H   0  0  0  0  0  0  0  0  0  0  0  0
  1  2  1  0
  2  3  1  0
  3  4  2  0
  4  5  1  0
  5  6  2  0
  6  7  1  0
  7  8  2  0
  8  9  1  0
  9 10  2  0
  4 11  1  0
 11 12  1  0
 12 13  1  0
 13 14  1  0
 14 15  1  0
 15 16  1  0
 16 17  1  0
 17 18  1  0
 18 19  1  0
 19 20  2  0
 19 21  1  0
 21 22  2  0
 22 23  1  0
 23 24  2  0
 24 25  1  0
 25 26  2  0
 26 27  1  0
 27 28  2  0
 28 29  1  0
 29 30  2  0
 24 31  1  0
 31 32  2  0
 13 33  1  0
 10  2  1  0
 32 21  1  0
 33  3  1  0
 10  5  1  0
 30 25  1  0
  1 34  1  0
  1 35  1  0
  1 36  1  0
  6 37  1  0
  7 38  1  0
  8 39  1  0
  9 40  1  0
 11 41  1  0
 11 42  1  0
 12 43  1  0
 12 44  1  0
 14 45  1  0
 14 46  1  0
 15 47  1  0
 15 48  1  0
 16 49  1  0
 16 50  1  0
 17 51  1  0
 17 52  1  0
 18 53  1  0
 22 54  1  0
 23 55  1  0
 26 56  1  0
 27 57  1  0
 28 58  1  0
 29 59  1  0
 30 60  1  0
 31 61  1  0
 32 62  1  0
 33 63  1  0
 33 64  1  0
M  END
>  <UniqueID>  (1) 
1

>  <SMILES>  (1) 
Cn1c2c(c3ccccc31)CCN(CCCCNC(=O)c1ccc(-c3ccccc3)cc1)C2

>  <Energy>  (1) 
109.90059167748993

>  <Genealogy>  (1) 
Cn1c2c(c3ccccc31)CCN(CCCCNC(=O)c1ccc(-c3ccccc3)cc1)C2 (3D coordinates assigned)
Cn1c2c(c3ccccc31)CCN(CCCCNC(=O)c1ccc(-c3ccccc3)cc1)C2 (nonaromatic ring conformer: 109.90059167748993 kcal/mol)

>  <smiles>  (1) 
Cn1c2c(c3ccccc31)CCN(CCCCNC(=O)c1ccc(-c3ccccc3)cc1)C2

>  <score_type>  (1) 
oracle

>  <origin>  (1) 
adg

>  <m_score__min__energy>  (1) 
-10.91

>  <m_primary>  (1) 
energy

$$$$
1:0
     RDKit          3D

 51 54  0  0  0  0  0  0  0  0999 V2000
   -3.1750   21.5790  -33.5130 C   0  0  0  0  0  0  0  0  0  0  0  0
   -4.1820   21.6630  -32.4570 N   0  0  0  0  0  0  0  0  0  0  0  0
   -4.4410   22.7870  -31.8090 N   0  0  0  0  0  0  0  0  0  0  0  0
   -5.4270   22.5600  -30.9230 C   0  0  0  0  0  0  0  0  0  0  0  0
   -6.0250   23.6150  -30.0350 C   0  0  0  0  0  0  0  0  0  0  0  0
   -4.9830   24.2920  -29.1330 C   0  0  0  0  0  0  0  0  0  0  0  0
   -3.9280   24.9910  -29.9340 C   0  0  0  0  0  0  0  0  0  0  0  0
   -4.1580   25.3130  -31.1310 O   0  0  0  0  0  0  0  0  0  0  0  0
   -2.6540   25.2590  -29.3410 N   0  0  0  0  0  0  0  0  0  0  0  0
   -2.0320   24.3960  -28.3450 C   0  0  0  0  0  0  0  0  0  0  0  0
   -1.9230   22.9950  -28.8800 C   0  0  0  0  0  0  0  0  0  0  0  0
   -2.5720   21.9380  -28.2210 C   0  0  0  0  0  0  0  0  0  0  0  0
   -2.4850   20.6360  -28.7240 C   0  0  0  0  0  0  0  0  0  0  0  0
   -1.7660   20.3840  -29.8950 C   0  0  0  0  0  0  0  0  0  0  0  0
   -1.1390   21.4350  -30.5700 C   0  0  0  0  0  0  0  0  0  0  0  0
   -1.2160   22.7360  -30.0660 C   0  0  0  0  0  0  0  0  0  0  0  0
   -5.8260   21.2400  -31.0170 C   0  0  0  0  0  0  0  0  0  0  0  0
   -5.0260   20.6980  -32.0120 C   0  0  0  0  0  0  0  0  0  0  0  0
   -5.0810   19.2530  -32.4790 C   0  0  0  0  0  0  0  0  0  0  0  0
   -6.3520   18.8650  -33.1400 N   0  0  0  0  0  0  0  0  0  0  0  0
   -7.2170   18.0240  -32.3010 C   0  0  0  0  0  0  0  0  0  0  0  0
   -8.3290   18.9020  -31.7420 C   0  0  2  0  0  0  0  0  0  0  0  0
   -9.4780   19.2420  -32.6760 C   0  0  0  0  0  0  0  0  0  0  0  0
   -8.2920   20.1840  -32.5460 C   0  0  2  0  0  0  0  0  0  0  0  0
   -7.1670   20.0130  -33.5580 C   0  0  0  0  0  0  0  0  0  0  0  0
   -2.1757   21.4956  -33.0609 H   0  0  0  0  0  0  0  0  0  0  0  0
   -3.3704   20.6940  -34.1364 H   0  0  0  0  0  0  0  0  0  0  0  0
   -3.2211   22.4841  -34.1364 H   0  0  0  0  0  0  0  0  0  0  0  0
   -3.9550   23.6970  -31.9730 H   0  0  0  0  0  0  0  0  0  0  0  0
   -6.4943   24.3827  -30.6678 H   0  0  0  0  0  0  0  0  0  0  0  0
   -6.7592   23.1214  -29.3813 H   0  0  0  0  0  0  0  0  0  0  0  0
   -5.4905   25.0282  -28.4923 H   0  0  0  0  0  0  0  0  0  0  0  0
   -4.4950   23.5134  -28.5283 H   0  0  0  0  0  0  0  0  0  0  0  0
   -1.0269   24.7759  -28.1095 H   0  0  0  0  0  0  0  0  0  0  0  0
   -2.6492   24.3895  -27.4345 H   0  0  0  0  0  0  0  0  0  0  0  0
   -3.1505   22.1349  -27.3064 H   0  0  0  0  0  0  0  0  0  0  0  0
   -2.9834   19.8091  -28.1969 H   0  0  0  0  0  0  0  0  0  0  0  0
   -1.6933   19.3583  -30.2858 H   0  0  0  0  0  0  0  0  0  0  0  0
   -0.5842   21.2378  -31.4992 H   0  0  0  0  0  0  0  0  0  0  0  0
   -0.7211   23.5606  -30.6000 H   0  0  0  0  0  0  0  0  0  0  0  0
   -6.6062   20.7314  -30.4316 H   0  0  0  0  0  0  0  0  0  0  0  0
   -4.2599   19.0917  -33.1930 H   0  0  0  0  0  0  0  0  0  0  0  0
   -4.9965   18.6303  -31.5762 H   0  0  0  0  0  0  0  0  0  0  0  0
   -6.6313   17.5929  -31.4757 H   0  0  0  0  0  0  0  0  0  0  0  0
   -7.6420   17.2014  -32.8949 H   0  0  0  0  0  0  0  0  0  0  0  0
   -8.3278   18.5604  -30.6964 H   0  0  0  0  0  0  0  0  0  0  0  0
  -10.4567   19.5285  -32.2636 H   0  0  0  0  0  0  0  0  0  0  0  0
   -9.9804   18.7321  -33.5112 H   0  0  0  0  0  0  0  0  0  0  0  0
   -8.2466   21.2726  -32.3951 H   0  0  0  0  0  0  0  0  0  0  0  0
   -6.5470   20.9213  -33.5842 H   0  0  0  0  0  0  0  0  0  0  0  0
   -7.5796   19.8432  -34.5634 H   0  0  0  0  0  0  0  0  0  0  0  0
  1  2  1  0
  2  3  1  0
  3  4  2  0
  4  5  1  0
  5  6  1  0
  6  7  1  0
  7  8  2  0
  7  9  1  0
  9 10  1  0
 10 11  1  0
 11 12  2  0
 12 13  1  0
 13 14  2  0
 14 15  1  0
 15 16  2  0
  4 17  1  0
 17 18  2  0
 18 19  1  0
 19 20  1  0
 20 21  1  0
 21 22  1  0
 22 23  1  0
 23 24  1  0
 24 25  1  0
 18  2  1  0
 25 20  1  0
 16 11  1  0
 24 22  1  0
  1 26  1  0
  1 27  1  0
  1 28  1  0
  3 29  1  0
  5 30  1  0
  5 31  1  0
  6 32  1  0
  6 33  1  0
 10 34  1  0
 10 35  1  0
 12 36  1  0
 13 37  1  0
 14 38  1  0
 15 39  1  0
 16 40  1  0
 17 41  1  0
 19 42  1  0
 19 43  1  0
 21 44  1  0
 21 45  1  0
 22 46  1  1
 23 47  1  0
 23 48  1  0
 24 49  1  1
 25 50  1  0
 25 51  1  0
M  CHG  2   3   1   9  -1
M  END
>  <UniqueID>  (2) 
2

>  <SMILES>  (2) 
Cn1[nH+]c(CCC(=O)[N-]Cc2ccccc2)cc1CN1C[C@H]2C[C@H]2C1

>  <Energy>  (2) 
343.8670903650514

>  <Genealogy>  (2) 
Cn1[nH+]c(CCC(=O)[N-]Cc2ccccc2)cc1CN1CC2CC2C1 (protonated)
Cn1[nH+]c(CCC(=O)[N-]Cc2ccccc2)cc1CN1C[C@H]2C[C@H]2C1 (chirality)
Cn1[nH+]c(CCC(=O)[N-]Cc2ccccc2)cc1CN1C[C@H]2C[C@H]2C1 (3D coordinates assigned)
Cn1[nH+]c(CCC(=O)[N-]Cc2ccccc2)cc1CN1C[C@H]2C[C@H]2C1 (nonaromatic ring conformer: 343.8670903650514 kcal/mol)

>  <smiles>  (2) 
Cn1nc(CCC(=O)NCc2ccccc2)cc1CN1CC2CC2C1

>  <score_type>  (2) 
oracle

>  <origin>  (2) 
adg

>  <m_score__min__energy>  (2) 
-9.4399999999999995

>  <m_primary>  (2) 
energy

$$$$
2:0
     RDKit          3D

 83 88  0  0  0  0  0  0  0  0999 V2000
   -8.6740   19.7080  -32.4170 C   0  0  0  0  0  0  0  0  0  0  0  0
   -7.2280   19.9700  -32.5220 N   0  0  0  0  0  0  0  0  0  0  0  0
   -6.3830   19.1190  -33.2200 C   0  0  0  0  0  0  0  0  0  0  0  0
   -6.8470   17.9010  -33.7720 C   0  0  0  0  0  0  0  0  0  0  0  0
   -5.9930   17.0660  -34.4930 C   0  0  0  0  0  0  0  0  0  0  0  0
   -4.6570   17.4110  -34.6730 C   0  0  0  0  0  0  0  0  0  0  0  0
   -4.1570   18.5880  -34.1220 C   0  0  0  0  0  0  0  0  0  0  0  0
   -4.9960   19.4510  -33.3920 C   0  0  0  0  0  0  0  0  0  0  0  0
   -4.4810   20.6360  -32.8160 C   0  0  0  0  0  0  0  0  0  0  0  0
   -3.1010   20.9960  -32.9580 N   0  0  0  0  0  0  0  0  0  0  0  0
   -2.1170   20.7070  -31.9160 C   0  0  0  0  0  0  0  0  0  0  0  0
   -0.7050   20.6370  -32.5140 C   0  0  0  0  0  0  0  0  0  0  0  0
   -0.6930   20.6410  -33.9930 N   0  0  0  0  0  0  0  0  0  0  0  0
   -0.8430   19.3210  -34.6390 C   0  0  0  0  0  0  0  0  0  0  0  0
    0.4970   18.6660  -35.0580 C   0  0  0  0  0  0  0  0  0  0  0  0
    1.5820   19.6340  -35.3620 N   0  0  0  0  0  0  0  0  0  0  0  0
    2.4750   19.1020  -36.4050 C   0  0  0  0  0  0  0  0  0  0  0  0
    1.0520   20.9480  -35.7690 C   0  0  0  0  0  0  0  0  0  0  0  0
    0.2720   21.5780  -34.6090 C   0  0  0  0  0  0  0  0  0  0  0  0
   -5.3470   21.4000  -32.0370 C   0  0  0  0  0  0  0  0  0  0  0  0
   -5.1480   22.5090  -31.2290 C   0  0  0  0  0  0  0  0  0  0  0  0
   -4.0150   23.2700  -30.9240 C   0  0  0  0  0  0  0  0  0  0  0  0
   -4.1540   24.3310  -30.0100 C   0  0  0  0  0  0  0  0  0  0  0  0
   -3.0460   25.1310  -29.7230 O   0  0  0  0  0  0  0  0  0  0  0  0
   -1.8670   24.6260  -29.0960 C   0  0  0  0  0  0  0  0  0  0  0  0
   -2.2500   23.5520  -28.0450 C   0  0  0  0  0  0  0  0  0  0  0  0
   -1.6500   22.1920  -28.2590 N   0  0  0  0  0  0  0  0  0  0  0  0
   -0.8830   22.1950  -29.5360 C   0  0  0  0  0  0  0  0  0  0  0  0
   -2.7250   21.1420  -28.3210 C   0  0  0  0  0  0  0  0  0  0  0  0
   -2.2410   19.7600  -27.8590 C   0  0  0  0  0  0  0  0  0  0  0  0
   -1.8030   19.7950  -26.3850 C   0  0  0  0  0  0  0  0  0  0  0  0
   -1.3020   21.1850  -25.9540 C   0  0  0  0  0  0  0  0  0  0  0  0
   -0.6730   21.9300  -27.1440 C   0  0  0  0  0  0  0  0  0  0  0  0
   -5.4090   24.5930  -29.4080 C   0  0  0  0  0  0  0  0  0  0  0  0
   -6.5290   23.8070  -29.7210 C   0  0  0  0  0  0  0  0  0  0  0  0
   -6.3670   22.7720  -30.6410 C   0  0  0  0  0  0  0  0  0  0  0  0
   -7.3110   21.8970  -31.0370 N   0  0  0  0  0  0  0  0  0  0  0  0
   -6.6780   21.0580  -31.8950 C   0  0  0  0  0  0  0  0  0  0  0  0
   -8.9611   19.6560  -31.3564 H   0  0  0  0  0  0  0  0  0  0  0  0
   -9.2304   20.5200  -32.9081 H   0  0  0  0  0  0  0  0  0  0  0  0
   -8.9101   18.7525  -32.9081 H   0  0  0  0  0  0  0  0  0  0  0  0
   -7.8978   17.6081  -33.6302 H   0  0  0  0  0  0  0  0  0  0  0  0
   -6.3782   16.1291  -34.9218 H   0  0  0  0  0  0  0  0  0  0  0  0
   -3.9938   16.7519  -35.2524 H   0  0  0  0  0  0  0  0  0  0  0  0
   -3.0964   18.8459  -34.2585 H   0  0  0  0  0  0  0  0  0  0  0  0
   -2.8010   21.5150  -33.8140 H   0  0  0  0  0  0  0  0  0  0  0  0
   -2.1495   21.5024  -31.1569 H   0  0  0  0  0  0  0  0  0  0  0  0
   -2.3581   19.7360  -31.4587 H   0  0  0  0  0  0  0  0  0  0  0  0
   -0.1321   21.5060  -32.1582 H   0  0  0  0  0  0  0  0  0  0  0  0
   -0.2610   19.6848  -32.1881 H   0  0  0  0  0  0  0  0  0  0  0  0
   -1.3513   18.6470  -33.9338 H   0  0  0  0  0  0  0  0  0  0  0  0
   -1.4191   19.4831  -35.5619 H   0  0  0  0  0  0  0  0  0  0  0  0
    0.8347   18.0168  -34.2368 H   0  0  0  0  0  0  0  0  0  0  0  0
    0.2996   18.1120  -35.9876 H   0  0  0  0  0  0  0  0  0  0  0  0
    2.1650   19.7660  -34.5020 H   0  0  0  0  0  0  0  0  0  0  0  0
    3.3284   18.5936  -35.9326 H   0  0  0  0  0  0  0  0  0  0  0  0
    1.9221   18.3859  -37.0308 H   0  0  0  0  0  0  0  0  0  0  0  0
    2.8415   19.9291  -37.0308 H   0  0  0  0  0  0  0  0  0  0  0  0
    1.8869   21.6076  -36.0479 H   0  0  0  0  0  0  0  0  0  0  0  0
    0.3788   20.8165  -36.6290 H   0  0  0  0  0  0  0  0  0  0  0  0
    0.9876   21.9024  -33.8392 H   0  0  0  0  0  0  0  0  0  0  0  0
   -0.3008   22.4246  -35.0154 H   0  0  0  0  0  0  0  0  0  0  0  0
   -3.0422   23.0455  -31.3857 H   0  0  0  0  0  0  0  0  0  0  0  0
   -1.2131   24.1753  -29.8571 H   0  0  0  0  0  0  0  0  0  0  0  0
   -1.3394   25.4516  -28.5960 H   0  0  0  0  0  0  0  0  0  0  0  0
   -1.9257   23.9135  -27.0580 H   0  0  0  0  0  0  0  0  0  0  0  0
   -3.3382   23.4183  -28.1340 H   0  0  0  0  0  0  0  0  0  0  0  0
    0.1948   22.1992  -29.3163 H   0  0  0  0  0  0  0  0  0  0  0  0
   -1.1352   21.2959  -30.1173 H   0  0  0  0  0  0  0  0  0  0  0  0
   -1.1422   23.0921  -30.1173 H   0  0  0  0  0  0  0  0  0  0  0  0
   -3.5587   21.4553  -27.6754 H   0  0  0  0  0  0  0  0  0  0  0  0
   -3.0330   21.0481  -29.3728 H   0  0  0  0  0  0  0  0  0  0  0  0
   -3.0601   19.0348  -27.9740 H   0  0  0  0  0  0  0  0  0  0  0  0
   -1.3780   19.4665  -28.4747 H   0  0  0  0  0  0  0  0  0  0  0  0
   -2.6610   19.5179  -25.7550 H   0  0  0  0  0  0  0  0  0  0  0  0
   -0.9698   19.0867  -26.2661 H   0  0  0  0  0  0  0  0  0  0  0  0
   -2.1496   21.7707  -25.5686 H   0  0  0  0  0  0  0  0  0  0  0  0
   -0.5383   21.0587  -25.1725 H   0  0  0  0  0  0  0  0  0  0  0  0
   -0.2826   22.8943  -26.7867 H   0  0  0  0  0  0  0  0  0  0  0  0
    0.1233   21.2883  -27.5492 H   0  0  0  0  0  0  0  0  0  0  0  0
   -5.5068   25.4196  -28.6889 H   0  0  0  0  0  0  0  0  0  0  0  0
   -7.5058   24.0019  -29.2542 H   0  0  0  0  0  0  0  0  0  0  0  0
   -8.2930   21.8610  -30.6860 H   0  0  0  0  0  0  0  0  0  0  0  0
  1  2  1  0
  2  3  2  0
  3  4  1  0
  4  5  2  0
  5  6  1  0
  6  7  2  0
  7  8  1  0
  8  9  2  0
  9 10  1  0
 10 11  1  0
 11 12  1  0
 12 13  1  0
 13 14  1  0
 14 15  1  0
 15 16  1  0
 16 17  1  0
 16 18  1  0
 18 19  1  0
  9 20  1  0
 20 21  1  0
 21 22  2  0
 22 23  1  0
 23 24  1  0
 24 25  1  0
 25 26  1  0
 26 27  1  0
 27 28  1  0
 27 29  1  0
 29 30  1  0
 30 31  1  0
 31 32  1  0
 32 33  1  0
 23 34  2  0
 34 35  1  0
 35 36  2  0
 36 37  1  0
 37 38  1  0
 38  2  1  0
  8  3  1  0
 19 13  1  0
 38 20  2  0
 36 21  1  0
 33 27  1  0
  1 39  1  0
  1 40  1  0
  1 41  1  0
  4 42  1  0
  5 43  1  0
  6 44  1  0
  7 45  1  0
 10 46  1  0
 11 47  1  0
 11 48  1  0
 12 49  1  0
 12 50  1  0
 14 51  1  0
 14 52  1  0
 15 53  1  0
 15 54  1  0
 16 55  1  0
 17 56  1  0
 17 57  1  0
 17 58  1  0
 18 59  1  0
 18 60  1  0
 19 61  1  0
 19 62  1  0
 22 63  1  0
 25 64  1  0
 25 65  1  0
 26 66  1  0
 26 67  1  0
 28 68  1  0
 28 69  1  0
 28 70  1  0
 29 71  1  0
 29 72  1  0
 30 73  1  0
 30 74  1  0
 31 75  1  0
 31 76  1  0
 32 77  1  0
 32 78  1  0
 33 79  1  0
 33 80  1  0
 34 81  1  0
 35 82  1  0
 37 83  1  0
M  CHG  3   2   1  16   1  27   1
M  END
>  <UniqueID>  (3) 
3

>  <SMILES>  (3) 
C[n+]1c2ccccc2c(NCCN2CC[NH+](C)CC2)c2c3cc(OCC[N+]4(C)CCCCC4)ccc3[nH]c21

>  <Energy>  (3) 
180.93560901486248

>  <Genealogy>  (3) 
C[n+]1c2ccccc2c(NCCN2CC[NH+](C)CC2)c2c3cc(OCC[N+]4(C)CCCCC4)ccc3[nH]c21 (protonated)
C[n+]1c2ccccc2c(NCCN2CC[NH+](C)CC2)c2c3cc(OCC[N+]4(C)CCCCC4)ccc3[nH]c21 (3D coordinates assigned)
C[n+]1c2ccccc2c(NCCN2CC[NH+](C)CC2)c2c3cc(OCC[N+]4(C)CCCCC4)ccc3[nH]c21 (nonaromatic ring conformer: 180.93560901486248 kcal/mol)

>  <smiles>  (3) 
CN1CCN(CCNc2c3ccccc3[n+](C)c3[nH]c4ccc(OCC[N+]5(C)CCCCC5)cc4c23)CC1

>  <score_type>  (3) 
oracle

>  <origin>  (3) 
adg

>  <m_score__min__energy>  (3) 
-9.3399999999999999

>  <m_primary>  (3) 
energy

$$$$
3:0
     RDKit          3D

 69 72  0  0  0  0  0  0  0  0999 V2000
   -5.1280   17.8170  -34.2370 C   0  0  0  0  0  0  0  0  0  0  0  0
   -4.0770   16.7700  -34.5910 C   0  0  0  0  0  0  0  0  0  0  0  0
   -3.1270   16.6560  -33.5480 O   0  0  0  0  0  0  0  0  0  0  0  0
   -1.8200   16.5640  -34.0750 C   0  0  0  0  0  0  0  0  0  0  0  0
   -1.2060   17.9600  -34.1360 C   0  0  0  0  0  0  0  0  0  0  0  0
   -0.9830   18.4570  -32.8300 O   0  0  0  0  0  0  0  0  0  0  0  0
   -2.0060   19.3590  -32.4340 C   0  0  2  0  0  0  0  0  0  0  0  0
   -2.5270   20.1470  -33.6210 C   0  0  0  0  0  0  0  0  0  0  0  0
   -3.1340   21.3990  -33.0130 C   0  0  0  0  0  0  0  0  0  0  0  0
   -2.4120   21.6600  -31.6670 C   0  0  1  0  0  0  0  0  0  0  0  0
   -3.4250   21.9160  -30.4940 C   0  0  2  0  0  0  0  0  0  0  0  0
   -4.2770   23.1830  -30.7700 C   0  0  0  0  0  0  0  0  0  0  0  0
   -3.5500   24.5200  -30.5010 C   0  0  1  0  0  0  0  0  0  0  0  0
   -4.4970   25.4570  -30.0020 O   0  0  0  0  0  0  0  0  0  0  0  0
   -5.7400   25.3660  -30.6720 C   0  0  0  0  0  0  0  0  0  0  0  0
   -6.8910   25.2970  -29.6730 C   0  0  0  0  0  0  0  0  0  0  0  0
   -2.3750   24.3680  -29.5060 C   0  0  1  0  0  0  0  0  0  0  0  0
   -1.9600   25.6610  -28.9730 N   0  0  0  0  0  0  0  0  0  0  0  0
   -0.8580   25.6780  -28.0710 C   0  0  0  0  0  0  0  0  0  0  0  0
   -0.3700   26.7710  -27.6790 O   0  0  0  0  0  0  0  0  0  0  0  0
   -0.3020   24.3690  -27.6090 C   0  0  0  0  0  0  0  0  0  0  0  0
   -1.4700   23.4300  -27.2590 C   0  0  0  0  0  0  0  0  0  0  0  0
   -2.6280   23.3370  -28.3570 C   0  0  1  0  0  0  0  0  0  0  0  0
   -3.9360   23.6920  -27.5850 C   0  0  0  0  0  0  0  0  0  0  0  0
   -2.7880   21.9000  -29.0360 C   0  0  2  0  0  0  0  0  0  0  0  0
   -1.4970   21.0390  -28.9920 C   0  0  0  0  0  0  0  0  0  0  0  0
   -1.5240   19.8940  -30.0010 C   0  0  0  0  0  0  0  0  0  0  0  0
   -1.4760   20.4300  -31.4530 C   0  0  1  0  0  0  0  0  0  0  0  0
   -0.0130   20.8230  -31.8140 C   0  0  0  0  0  0  0  0  0  0  0  0
   -5.2101   17.8988  -33.1431 H   0  0  0  0  0  0  0  0  0  0  0  0
   -4.8321   18.7899  -34.6563 H   0  0  0  0  0  0  0  0  0  0  0  0
   -6.0998   17.5174  -34.6563 H   0  0  0  0  0  0  0  0  0  0  0  0
   -4.5693   15.7979  -34.7413 H   0  0  0  0  0  0  0  0  0  0  0  0
   -3.5615   17.0776  -35.5127 H   0  0  0  0  0  0  0  0  0  0  0  0
   -1.2065   15.9199  -33.4279 H   0  0  0  0  0  0  0  0  0  0  0  0
   -1.8578   16.1316  -35.0857 H   0  0  0  0  0  0  0  0  0  0  0  0
   -0.2478   17.9116  -34.6741 H   0  0  0  0  0  0  0  0  0  0  0  0
   -1.9000   18.6330  -34.6608 H   0  0  0  0  0  0  0  0  0  0  0  0
   -2.7849   18.7345  -31.9721 H   0  0  0  0  0  0  0  0  0  0  0  0
   -1.7059   20.4065  -34.3054 H   0  0  0  0  0  0  0  0  0  0  0  0
   -3.2564   19.5752  -34.2135 H   0  0  0  0  0  0  0  0  0  0  0  0
   -2.9879   22.2539  -33.6896 H   0  0  0  0  0  0  0  0  0  0  0  0
   -4.2145   21.2679  -32.8541 H   0  0  0  0  0  0  0  0  0  0  0  0
   -1.8167   22.5848  -31.6847 H   0  0  0  0  0  0  0  0  0  0  0  0
   -4.0965   21.0448  -30.4828 H   0  0  0  0  0  0  0  0  0  0  0  0
   -4.5842   23.1662  -31.8261 H   0  0  0  0  0  0  0  0  0  0  0  0
   -5.1264   23.1448  -30.0722 H   0  0  0  0  0  0  0  0  0  0  0  0
   -3.1149   24.8720  -31.4480 H   0  0  0  0  0  0  0  0  0  0  0  0
   -5.8704   26.2514  -31.3116 H   0  0  0  0  0  0  0  0  0  0  0  0
   -5.7461   24.4495  -31.2802 H   0  0  0  0  0  0  0  0  0  0  0  0
   -6.4897   25.3211  -28.6491 H   0  0  0  0  0  0  0  0  0  0  0  0
   -7.5603   26.1566  -29.8248 H   0  0  0  0  0  0  0  0  0  0  0  0
   -7.4528   24.3636  -29.8248 H   0  0  0  0  0  0  0  0  0  0  0  0
   -1.5496   23.9460  -30.0981 H   0  0  0  0  0  0  0  0  0  0  0  0
    0.3048   23.9216  -28.4101 H   0  0  0  0  0  0  0  0  0  0  0  0
    0.3316   24.5237  -26.7232 H   0  0  0  0  0  0  0  0  0  0  0  0
   -1.0606   22.4198  -27.1112 H   0  0  0  0  0  0  0  0  0  0  0  0
   -1.9395   23.8530  -26.3586 H   0  0  0  0  0  0  0  0  0  0  0  0
   -3.7481   23.6410  -26.5024 H   0  0  0  0  0  0  0  0  0  0  0  0
   -4.2559   24.7095  -27.8541 H   0  0  0  0  0  0  0  0  0  0  0  0
   -4.7264   22.9759  -27.8541 H   0  0  0  0  0  0  0  0  0  0  0  0
   -3.5288   21.4051  -28.3908 H   0  0  0  0  0  0  0  0  0  0  0  0
   -0.6345   21.6847  -29.2140 H   0  0  0  0  0  0  0  0  0  0  0  0
   -1.4234   20.5976  -27.9871 H   0  0  0  0  0  0  0  0  0  0  0  0
   -0.6540   19.2431  -29.8293 H   0  0  0  0  0  0  0  0  0  0  0  0
   -2.4598   19.3316  -29.8667 H   0  0  0  0  0  0  0  0  0  0  0  0
    0.5636   20.9779  -30.8902 H   0  0  0  0  0  0  0  0  0  0  0  0
    0.4484   20.0170  -32.4034 H   0  0  0  0  0  0  0  0  0  0  0  0
   -0.0176   21.7517  -32.4034 H   0  0  0  0  0  0  0  0  0  0  0  0
  1  2  1  0
  2  3  1  0
  3  4  1  0
  4  5  1  0
  5  6  1  0
  6  7  1  0
  7  8  1  0
  8  9  1  0
  9 10  1  0
 10 11  1  0
 11 12  1  0
 12 13  1  0
 13 14  1  0
 14 15  1  0
 15 16  1  0
 13 17  1  0
 17 18  1  0
 18 19  1  0
 19 20  2  0
 19 21  1  0
 21 22  1  0
 22 23  1  0
 23 24  1  1
 23 25  1  0
 25 26  1  0
 26 27  1  0
 27 28  1  0
 28 29  1  6
 28  7  1  0
 28 10  1  0
 25 11  1  0
 23 17  1  0
  1 30  1  0
  1 31  1  0
  1 32  1  0
  2 33  1  0
  2 34  1  0
  4 35  1  0
  4 36  1  0
  5 37  1  0
  5 38  1  0
  7 39  1  1
  8 40  1  0
  8 41  1  0
  9 42  1  0
  9 43  1  0
 10 44  1  6
 11 45  1  1
 12 46  1  0
 12 47  1  0
 13 48  1  6
 15 49  1  0
 15 50  1  0
 16 51  1  0
 16 52  1  0
 16 53  1  0
 17 54  1  6
 21 55  1  0
 21 56  1  0
 22 57  1  0
 22 58  1  0
 24 59  1  0
 24 60  1  0
 24 61  1  0
 25 62  1  1
 26 63  1  0
 26 64  1  0
 27 65  1  0
 27 66  1  0
 29 67  1  0
 29 68  1  0
 29 69  1  0
M  CHG  1  18  -1
M  END
>  <UniqueID>  (4) 
4

>  <SMILES>  (4) 
CCOCCO[C@@H]1CC[C@H]2C3CC(OCC)C4[N-]C(=O)CCC4(C)C3CCC12C

>  <Energy>  (4) 
106.34454384291033

>  <Genealogy>  (4) 
CCOCCOC1CCC2C3CC(OCC)C4[N-]C(=O)CCC4(C)C3CCC12C (protonated)
CCOCCO[C@@H]1CC[C@H]2C3CC(OCC)C4[N-]C(=O)CCC4(C)C3CCC12C (chirality)
CCOCCO[C@@H]1CC[C@H]2C3CC(OCC)C4[N-]C(=O)CCC4(C)C3CCC12C (3D coordinates assigned)
CCOCCO[C@@H]1CC[C@H]2C3CC(OCC)C4[N-]C(=O)CCC4(C)C3CCC12C (nonaromatic ring conformer: 106.34454384291033 kcal/mol)

>  <smiles>  (4) 
CCOCCOC1CCC2C3CC(OCC)C4NC(=O)CCC4(C)C3CCC12C

>  <score_type>  (4) 
oracle

>  <origin>  (4) 
adg

>  <m_score__min__energy>  (4) 
-9.7200000000000006

>  <m_primary>  (4) 
energy

$$$$
4:0
     RDKit          3D

 29 30  0  0  0  0  0  0  0  0999 V2000
   -8.7270   18.3400  -31.5850 C   0  0  0  0  0  0  0  0  0  0  0  0
   -9.1230   19.5930  -32.3710 C   0  0  0  0  0  0  0  0  0  0  0  0
   -8.1620   19.9110  -33.4440 N   0  0  0  0  0  0  0  0  0  0  0  0
   -7.0470   20.6930  -32.9530 C   0  0  0  0  0  0  0  0  0  0  0  0
   -7.3000   21.9340  -32.3360 C   0  0  0  0  0  0  0  0  0  0  0  0
   -6.2520   22.7130  -31.8310 C   0  0  0  0  0  0  0  0  0  0  0  0
   -6.5070   23.9440  -31.2100 C   0  0  0  0  0  0  0  0  0  0  0  0
   -5.4400   24.6980  -30.7180 C   0  0  0  0  0  0  0  0  0  0  0  0
   -4.1660   24.2400  -30.8410 N   0  0  0  0  0  0  0  0  0  0  0  0
   -3.8850   23.0510  -31.4370 C   0  0  0  0  0  0  0  0  0  0  0  0
   -4.9240   22.2570  -31.9450 C   0  0  0  0  0  0  0  0  0  0  0  0
   -4.6590   21.0300  -32.5650 C   0  0  0  0  0  0  0  0  0  0  0  0
   -5.7060   20.2360  -33.0650 C   0  0  0  0  0  0  0  0  0  0  0  0
   -5.3630   18.9480  -33.7700 C   0  0  0  0  0  0  0  0  0  0  0  0
   -8.7926   18.5476  -30.5068 H   0  0  0  0  0  0  0  0  0  0  0  0
   -9.4084   17.5155  -31.8418 H   0  0  0  0  0  0  0  0  0  0  0  0
   -7.6956   18.0568  -31.8418 H   0  0  0  0  0  0  0  0  0  0  0  0
  -10.1134   19.4295  -32.8209 H   0  0  0  0  0  0  0  0  0  0  0  0
   -9.1340   20.4397  -31.6689 H   0  0  0  0  0  0  0  0  0  0  0  0
   -8.6500   20.4200  -34.2180 H   0  0  0  0  0  0  0  0  0  0  0  0
   -7.8160   19.0190  -33.8660 H   0  0  0  0  0  0  0  0  0  0  0  0
   -8.3352   22.2959  -32.2498 H   0  0  0  0  0  0  0  0  0  0  0  0
   -7.5388   24.3124  -31.1113 H   0  0  0  0  0  0  0  0  0  0  0  0
   -5.6307   25.6650  -30.2296 H   0  0  0  0  0  0  0  0  0  0  0  0
   -2.8422   22.7112  -31.5210 H   0  0  0  0  0  0  0  0  0  0  0  0
   -3.6196   20.6832  -32.6620 H   0  0  0  0  0  0  0  0  0  0  0  0
   -5.1548   18.1662  -33.0247 H   0  0  0  0  0  0  0  0  0  0  0  0
   -6.2099   18.6380  -34.3998 H   0  0  0  0  0  0  0  0  0  0  0  0
   -4.4741   19.1002  -34.3998 H   0  0  0  0  0  0  0  0  0  0  0  0
  1  2  1  0
  2  3  1  0
  3  4  1  0
  4  5  2  0
  5  6  1  0
  6  7  2  0
  7  8  1  0
  8  9  2  0
  9 10  1  0
 10 11  2  0
 11 12  1  0
 12 13  2  0
 13 14  1  0
 13  4  1  0
 11  6  1  0
  1 15  1  0
  1 16  1  0
  1 17  1  0
  2 18  1  0
  2 19  1  0
  3 20  1  0
  3 21  1  0
  5 22  1  0
  7 23  1  0
  8 24  1  0
 10 25  1  0
 12 26  1  0
 14 27  1  0
 14 28  1  0
 14 29  1  0
M  CHG  1   3   1
M  END
>  <UniqueID>  (5) 
5

>  <SMILES>  (5) 
CC[NH2+]c1cc2ccncc2cc1C

>  <Energy>  (5) 
33.55169567290906

>  <Genealogy>  (5) 
CC[NH2+]c1cc2ccncc2cc1C (protonated)
CC[NH2+]c1cc2ccncc2cc1C (3D coordinates assigned)
CC[NH2+]c1cc2ccncc2cc1C (optimized conformer: 33.55169567290906 kcal/mol)

>  <smiles>  (5) 
CCNc1cc2ccncc2cc1C

>  <score_type>  (5) 
oracle

>  <origin>  (5) 
adg

>  <m_score__min__energy>  (5) 
-6.3399999999999999

>  <m_primary>  (5) 
energy

$$$$
5:0
     RDKit          3D

 47 49  0  0  0  0  0  0  0  0999 V2000
   -2.7100   24.8960  -26.7840 C   0  0  0  0  0  0  0  0  0  0  0  0
   -1.6250   25.4020  -27.7290 C   0  0  0  0  0  0  0  0  0  0  0  0
   -2.0360   25.2640  -29.0890 O   0  0  0  0  0  0  0  0  0  0  0  0
   -2.4070   24.0610  -29.7160 C   0  0  0  0  0  0  0  0  0  0  0  0
   -1.7240   22.8510  -29.4910 C   0  0  0  0  0  0  0  0  0  0  0  0
   -2.1330   21.6790  -30.1280 C   0  0  0  0  0  0  0  0  0  0  0  0
   -3.2200   21.6970  -31.0100 C   0  0  0  0  0  0  0  0  0  0  0  0
   -3.7060   20.4150  -31.6460 C   0  0  0  0  0  0  0  0  0  0  0  0
   -4.6420   20.6730  -32.7550 N   0  0  0  0  0  0  0  0  0  0  0  0
   -5.9420   20.0900  -32.5000 C   0  0  0  0  0  0  0  0  0  0  0  0
   -6.0910   18.6900  -32.4970 C   0  0  0  0  0  0  0  0  0  0  0  0
   -7.3450   18.1060  -32.3000 C   0  0  0  0  0  0  0  0  0  0  0  0
   -8.4710   18.9060  -32.1040 C   0  0  0  0  0  0  0  0  0  0  0  0
   -8.3490   20.3020  -32.1060 C   0  0  0  0  0  0  0  0  0  0  0  0
   -9.4680   21.1240  -31.9170 C   0  0  0  0  0  0  0  0  0  0  0  0
   -9.3200   22.5110  -31.9290 C   0  0  0  0  0  0  0  0  0  0  0  0
   -8.0540   23.0660  -32.1300 C   0  0  0  0  0  0  0  0  0  0  0  0
   -6.9760   22.2590  -32.3110 N   0  0  0  0  0  0  0  0  0  0  0  0
   -7.0820   20.9000  -32.3050 C   0  0  0  0  0  0  0  0  0  0  0  0
   -3.9000   22.9000  -31.2440 C   0  0  0  0  0  0  0  0  0  0  0  0
   -3.5030   24.0850  -30.5950 C   0  0  0  0  0  0  0  0  0  0  0  0
   -4.1660   25.3090  -30.7910 O   0  0  0  0  0  0  0  0  0  0  0  0
   -5.4190   25.6790  -30.2150 C   0  0  0  0  0  0  0  0  0  0  0  0
   -6.2120   24.4430  -29.8040 C   0  0  0  0  0  0  0  0  0  0  0  0
   -2.3885   25.0459  -25.7428 H   0  0  0  0  0  0  0  0  0  0  0  0
   -3.6416   25.4525  -26.9638 H   0  0  0  0  0  0  0  0  0  0  0  0
   -2.8824   23.8246  -26.9638 H   0  0  0  0  0  0  0  0  0  0  0  0
   -1.4279   26.4633  -27.5172 H   0  0  0  0  0  0  0  0  0  0  0  0
   -0.7137   24.8060  -27.5727 H   0  0  0  0  0  0  0  0  0  0  0  0
   -0.8618   22.8293  -28.8082 H   0  0  0  0  0  0  0  0  0  0  0  0
   -1.5990   20.7366  -29.9363 H   0  0  0  0  0  0  0  0  0  0  0  0
   -2.8394   19.8594  -32.0338 H   0  0  0  0  0  0  0  0  0  0  0  0
   -4.2381   19.8337  -30.8786 H   0  0  0  0  0  0  0  0  0  0  0  0
   -4.7280   21.7060  -32.9090 H   0  0  0  0  0  0  0  0  0  0  0  0
   -4.2450   20.2700  -33.6350 H   0  0  0  0  0  0  0  0  0  0  0  0
   -5.2106   18.0489  -32.6514 H   0  0  0  0  0  0  0  0  0  0  0  0
   -7.4448   17.0105  -32.2994 H   0  0  0  0  0  0  0  0  0  0  0  0
   -9.4554   18.4406  -31.9478 H   0  0  0  0  0  0  0  0  0  0  0  0
  -10.4605   20.6767  -31.7596 H   0  0  0  0  0  0  0  0  0  0  0  0
  -10.1937   23.1628  -31.7813 H   0  0  0  0  0  0  0  0  0  0  0  0
   -7.9295   24.1589  -32.1418 H   0  0  0  0  0  0  0  0  0  0  0  0
   -4.7511   22.9187  -31.9406 H   0  0  0  0  0  0  0  0  0  0  0  0
   -5.2377   26.3028  -29.3273 H   0  0  0  0  0  0  0  0  0  0  0  0
   -5.9999   26.2379  -30.9635 H   0  0  0  0  0  0  0  0  0  0  0  0
   -6.2517   24.3811  -28.7065 H   0  0  0  0  0  0  0  0  0  0  0  0
   -7.2341   24.5132  -30.2045 H   0  0  0  0  0  0  0  0  0  0  0  0
   -5.7222   23.5432  -30.2045 H   0  0  0  0  0  0  0  0  0  0  0  0
  1  2  1  0
  2  3  1  0
  3  4  1  0
  4  5  2  0
  5  6  1  0
  6  7  2  0
  7  8  1  0
  8  9  1  0
  9 10  1  0
 10 11  2  0
 11 12  1  0
 12 13  2  0
 13 14  1  0
 14 15  2  0
 15 16  1  0
 16 17  2  0
 17 18  1  0
 18 19  2  0
  7 20  1  0
 20 21  2  0
 21 22  1  0
 22 23  1  0
 23 24  1  0
 21  4  1  0
 19 10  1  0
 19 14  1  0
  1 25  1  0
  1 26  1  0
  1 27  1  0
  2 28  1  0
  2 29  1  0
  5 30  1  0
  6 31  1  0
  8 32  1  0
  8 33  1  0
  9 34  1  0
  9 35  1  0
 11 36  1  0
 12 37  1  0
 13 38  1  0
 15 39  1  0
 16 40  1  0
 17 41  1  0
 20 42  1  0
 23 43  1  0
 23 44  1  0
 24 45  1  0
 24 46  1  0
 24 47  1  0
M  CHG  1   9   1
M  END
>  <UniqueID>  (6) 
6

>  <SMILES>  (6) 
CCOc1ccc(C[NH2+]c2cccc3cccnc23)cc1OCC

>  <Energy>  (6) 
48.4202117147985

>  <Genealogy>  (6) 
CCOc1ccc(C[NH2+]c2cccc3cccnc23)cc1OCC (protonated)
CCOc1ccc(C[NH2+]c2cccc3cccnc23)cc1OCC (3D coordinates assigned)
CCOc1ccc(C[NH2+]c2cccc3cccnc23)cc1OCC (optimized conformer: 48.4202117147985 kcal/mol)

>  <smiles>  (6) 
CCOc1ccc(CNc2cccc3cccnc23)cc1OCC

>  <score_type>  (6) 
oracle

>  <origin>  (6) 
adg

>  <m_score__min__energy>  (6) 
-8.7400000000000002

>  <m_primary>  (6) 
energy

$$$$
6:0
     RDKit          3D

 42 44  0  0  0  0  0  0  0  0999 V2000
   -5.8155   25.3419  -30.2419 H   0  0  0  0  0  0  0  0  0  0  0  0
   -5.1890   24.5880  -30.7410 C   0  0  0  0  0  0  0  0  0  0  0  0
   -3.9070   24.7900  -30.7870 N   0  0  0  0  0  0  0  0  0  0  0  0
   -3.1820   25.2770  -29.7210 O   0  0  0  0  0  0  0  0  0  0  0  0
   -2.7200   24.4040  -28.7030 C   0  0  0  0  0  0  0  0  0  0  0  0
   -1.8375   24.8441  -28.2156 H   0  0  0  0  0  0  0  0  0  0  0  0
   -2.4494   23.4347  -29.1472 H   0  0  0  0  0  0  0  0  0  0  0  0
   -3.8170   24.1990  -27.6730 C   0  0  0  0  0  0  0  0  0  0  0  0
   -3.3904   24.2787  -26.6622 H   0  0  0  0  0  0  0  0  0  0  0  0
   -4.5926   24.9678  -27.8054 H   0  0  0  0  0  0  0  0  0  0  0  0
   -4.2626   23.2020  -27.8054 H   0  0  0  0  0  0  0  0  0  0  0  0
   -5.8570   23.3970  -31.3240 C   0  0  0  0  0  0  0  0  0  0  0  0
   -7.1870   23.1850  -31.1290 N   0  0  0  0  0  0  0  0  0  0  0  0
   -7.8250   22.1080  -31.6500 C   0  0  0  0  0  0  0  0  0  0  0  0
   -9.1940   21.9180  -31.4310 C   0  0  0  0  0  0  0  0  0  0  0  0
   -9.7638   22.6486  -30.8382 H   0  0  0  0  0  0  0  0  0  0  0  0
   -9.8360   20.7980  -31.9670 C   0  0  0  0  0  0  0  0  0  0  0  0
  -10.9124   20.6490  -31.7961 H   0  0  0  0  0  0  0  0  0  0  0  0
   -9.1140   19.8660  -32.7200 C   0  0  0  0  0  0  0  0  0  0  0  0
   -9.6241   18.9863  -33.1395 H   0  0  0  0  0  0  0  0  0  0  0  0
   -7.7440   20.0500  -32.9410 C   0  0  0  0  0  0  0  0  0  0  0  0
   -7.1782   19.3144  -33.5315 H   0  0  0  0  0  0  0  0  0  0  0  0
   -7.0930   21.1730  -32.4090 C   0  0  0  0  0  0  0  0  0  0  0  0
   -5.7600   21.3760  -32.6090 N   0  0  0  0  0  0  0  0  0  0  0  0
   -5.2100   20.6650  -33.1400 H   0  0  0  0  0  0  0  0  0  0  0  0
   -5.1280   22.4750  -32.1000 C   0  0  0  0  0  0  0  0  0  0  0  0
   -3.7530   22.6720  -32.3070 O   0  0  0  0  0  0  0  0  0  0  0  0
   -2.7410   21.7810  -31.9190 C   0  0  0  0  0  0  0  0  0  0  0  0
   -1.8010   22.1220  -30.9300 C   0  0  0  0  0  0  0  0  0  0  0  0
   -1.8428   23.1122  -30.4528 H   0  0  0  0  0  0  0  0  0  0  0  0
   -0.8140   21.2080  -30.5510 C   0  0  0  0  0  0  0  0  0  0  0  0
   -0.0750   21.4839  -29.7843 H   0  0  0  0  0  0  0  0  0  0  0  0
   -0.7650   19.9460  -31.1440 C   0  0  0  0  0  0  0  0  0  0  0  0
    0.0159   19.2299  -30.8484 H   0  0  0  0  0  0  0  0  0  0  0  0
   -1.7070   19.5910  -32.1130 C   0  0  0  0  0  0  0  0  0  0  0  0
   -1.6687   18.5926  -32.5732 H   0  0  0  0  0  0  0  0  0  0  0  0
   -2.7060   20.5050  -32.5040 C   0  0  0  0  0  0  0  0  0  0  0  0
   -3.6720   20.1860  -33.4710 O   0  0  0  0  0  0  0  0  0  0  0  0
   -3.8570   18.8900  -34.0290 C   0  0  0  0  0  0  0  0  0  0  0  0
   -3.9621   18.1535  -33.2187 H   0  0  0  0  0  0  0  0  0  0  0  0
   -4.7651   18.8843  -34.6498 H   0  0  0  0  0  0  0  0  0  0  0  0
   -2.9868   18.6304  -34.6498 H   0  0  0  0  0  0  0  0  0  0  0  0
  1  2  1  0
  2  3  2  0
  3  4  1  0
  4  5  1  0
  5  6  1  0
  5  7  1  0
  5  8  1  0
  8  9  1  0
  8 10  1  0
  8 11  1  0
  2 12  1  0
 12 13  2  0
 13 14  1  0
 14 15  2  0
 15 16  1  0
 15 17  1  0
 17 18  1  0
 17 19  2  0
 19 20  1  0
 19 21  1  0
 21 22  1  0
 21 23  2  0
 23 24  1  0
 24 25  1  0
 24 26  2  0
 26 27  1  0
 27 28  1  0
 28 29  2  0
 29 30  1  0
 29 31  1  0
 31 32  1  0
 31 33  2  0
 33 34  1  0
 33 35  1  0
 35 36  1  0
 35 37  2  0
 37 38  1  0
 38 39  1  0
 39 40  1  0
 39 41  1  0
 39 42  1  0
 26 12  1  0
 37 28  1  0
 23 14  1  0
M  CHG  1  24   1
M  END
>  <UniqueID>  (7) 
7

>  <SMILES>  (7) 
CCO/N=C\c1nc2ccccc2[nH+]c1Oc1ccccc1OC

>  <Energy>  (7) 
48.170785584422184

>  <Genealogy>  (7) 
CCON=Cc1nc2ccccc2[nH+]c1Oc1ccccc1OC (protonated)
CCO/N=C\c1nc2ccccc2[nH+]c1Oc1ccccc1OC (cis-trans isomerization)
CCO/N=C\c1nc2ccccc2[nH+]c1Oc1ccccc1OC (3D coordinates assigned)
CCO/N=C\c1nc2ccccc2[nH+]c1Oc1ccccc1OC (optimized conformer: 48.170785584422184 kcal/mol)

>  <smiles>  (7) 
CCON=Cc1nc2ccccc2nc1Oc1ccccc1OC

>  <score_type>  (7) 
oracle

>  <origin>  (7) 
adg

>  <m_score__min__energy>  (7) 
-7.2000000000000002

>  <m_primary>  (7) 
energy

$$$$
7:0
     RDKit          3D

 37 38  0  0  0  0  0  0  0  0999 V2000
   -3.0040   24.5550  -27.0430 C   0  0  0  0  0  0  0  0  0  0  0  0
   -4.2400   24.1120  -27.8280 C   0  0  0  0  0  0  0  0  0  0  0  0
   -3.9160   22.9980  -28.8320 C   0  0  0  0  0  0  0  0  0  0  0  0
   -4.9110   22.9300  -29.9020 N   0  0  0  0  0  0  0  0  0  0  0  0
   -5.0680   24.0040  -30.8400 C   0  0  0  0  0  0  0  0  0  0  0  0
   -4.2640   24.9750  -30.8260 O   0  0  0  0  0  0  0  0  0  0  0  0
   -6.1390   23.9580  -31.8950 C   0  0  0  0  0  0  0  0  0  0  0  0
   -6.9270   22.7220  -31.8120 N   0  0  0  0  0  0  0  0  0  0  0  0
   -8.1820   22.6670  -31.2950 C   0  0  0  0  0  0  0  0  0  0  0  0
   -8.7650   21.4490  -31.4080 N   0  0  0  0  0  0  0  0  0  0  0  0
   -7.8180   20.7210  -32.0210 C   0  0  0  0  0  0  0  0  0  0  0  0
   -7.8880   19.3940  -32.3960 C   0  0  0  0  0  0  0  0  0  0  0  0
   -8.9390   18.7320  -32.1780 O   0  0  0  0  0  0  0  0  0  0  0  0
   -6.7970   18.8300  -33.0080 N   0  0  0  0  0  0  0  0  0  0  0  0
   -6.8500   17.4250  -33.4510 C   0  0  0  0  0  0  0  0  0  0  0  0
   -5.6720   19.5910  -33.2690 C   0  0  0  0  0  0  0  0  0  0  0  0
   -4.6930   19.0600  -33.8680 O   0  0  0  0  0  0  0  0  0  0  0  0
   -5.6040   20.9210  -32.8870 N   0  0  0  0  0  0  0  0  0  0  0  0
   -4.3680   21.6900  -33.0960 C   0  0  0  0  0  0  0  0  0  0  0  0
   -6.7070   21.4620  -32.2700 C   0  0  0  0  0  0  0  0  0  0  0  0
   -3.2087   24.4816  -25.9647 H   0  0  0  0  0  0  0  0  0  0  0  0
   -2.1542   23.9055  -27.2999 H   0  0  0  0  0  0  0  0  0  0  0  0
   -2.7603   25.5964  -27.2999 H   0  0  0  0  0  0  0  0  0  0  0  0
   -4.9965   23.7427  -27.1200 H   0  0  0  0  0  0  0  0  0  0  0  0
   -4.6123   24.9796  -28.3925 H   0  0  0  0  0  0  0  0  0  0  0  0
   -2.9283   23.1932  -29.2751 H   0  0  0  0  0  0  0  0  0  0  0  0
   -3.9233   22.0383  -28.2945 H   0  0  0  0  0  0  0  0  0  0  0  0
   -5.5340   22.0960  -29.9790 H   0  0  0  0  0  0  0  0  0  0  0  0
   -6.8102   24.8190  -31.7600 H   0  0  0  0  0  0  0  0  0  0  0  0
   -5.6522   23.9900  -32.8809 H   0  0  0  0  0  0  0  0  0  0  0  0
   -8.6786   23.5305  -30.8283 H   0  0  0  0  0  0  0  0  0  0  0  0
   -6.8749   16.7641  -32.5720 H   0  0  0  0  0  0  0  0  0  0  0  0
   -7.7548   17.2651  -34.0558 H   0  0  0  0  0  0  0  0  0  0  0  0
   -5.9598   17.1974  -34.0558 H   0  0  0  0  0  0  0  0  0  0  0  0
   -3.9347   21.9596  -32.1215 H   0  0  0  0  0  0  0  0  0  0  0  0
   -3.6479   21.0802  -33.6614 H   0  0  0  0  0  0  0  0  0  0  0  0
   -4.5969   22.6054  -33.6614 H   0  0  0  0  0  0  0  0  0  0  0  0
  1  2  1  0
  2  3  1  0
  3  4  1  0
  4  5  1  0
  5  6  2  0
  5  7  1  0
  7  8  1  0
  8  9  1  0
  9 10  2  0
 10 11  1  0
 11 12  1  0
 12 13  2  0
 12 14  1  0
 14 15  1  0
 14 16  1  0
 16 17  2  0
 16 18  1  0
 18 19  1  0
 18 20  1  0
 20  8  1  0
 20 11  2  0
  1 21  1  0
  1 22  1  0
  1 23  1  0
  2 24  1  0
  2 25  1  0
  3 26  1  0
  3 27  1  0
  4 28  1  0
  7 29  1  0
  7 30  1  0
  9 31  1  0
 15 32  1  0
 15 33  1  0
 15 34  1  0
 19 35  1  0
 19 36  1  0
 19 37  1  0
M  END
>  <UniqueID>  (8) 
8

>  <SMILES>  (8) 
CCCNC(=O)Cn1cnc2c(=O)n(C)c(=O)n(C)c21

>  <Energy>  (8) 
79.88166103721655

>  <Genealogy>  (8) 
CCCNC(=O)Cn1cnc2c(=O)n(C)c(=O)n(C)c21 (3D coordinates assigned)
CCCNC(=O)Cn1cnc2c(=O)n(C)c(=O)n(C)c21 (optimized conformer: 79.88166103721655 kcal/mol)

>  <smiles>  (8) 
CCCNC(=O)Cn1cnc2c(=O)n(C)c(=O)n(C)c21

>  <score_type>  (8) 
oracle

>  <origin>  (8) 
adg

>  <m_score__min__energy>  (8) 
-6.6399999999999997

>  <m_primary>  (8) 
energy

$$$$
8:0
     RDKit          3D

 58 60  0  0  0  0  0  0  0  0999 V2000
   -0.7670   24.7450  -26.7390 C   0  0  0  0  0  0  0  0  0  0  0  0
   -1.6120   25.5780  -27.7140 C   0  0  0  0  0  0  0  0  0  0  0  0
   -1.2730   25.3110  -29.1250 N   0  0  0  0  0  0  0  0  0  0  0  0
   -1.0590   23.8790  -29.3790 C   0  0  0  0  0  0  0  0  0  0  0  0
   -2.4010   23.1630  -29.5120 C   0  0  0  0  0  0  0  0  0  0  0  0
   -3.2850   23.9740  -30.2600 O   0  0  0  0  0  0  0  0  0  0  0  0
   -4.6260   23.5710  -30.0450 C   0  0  0  0  0  0  0  0  0  0  0  0
   -5.4500   23.8040  -31.3170 C   0  0  0  0  0  0  0  0  0  0  0  0
   -5.0980   22.8400  -32.3640 N   0  0  0  0  0  0  0  0  0  0  0  0
   -5.7090   21.5390  -32.4310 C   0  0  0  0  0  0  0  0  0  0  0  0
   -7.0940   21.4180  -32.2170 C   0  0  0  0  0  0  0  0  0  0  0  0
   -7.8570   22.5210  -31.7770 C   0  0  0  0  0  0  0  0  0  0  0  0
   -9.2410   22.4270  -31.6440 C   0  0  0  0  0  0  0  0  0  0  0  0
   -9.8870   21.2360  -31.9520 C   0  0  0  0  0  0  0  0  0  0  0  0
   -9.1480   20.1210  -32.3470 C   0  0  0  0  0  0  0  0  0  0  0  0
   -7.7320   20.1710  -32.4340 C   0  0  0  0  0  0  0  0  0  0  0  0
   -6.9810   19.0530  -32.7290 N   0  0  0  0  0  0  0  0  0  0  0  0
   -7.6080   17.7120  -32.6610 C   0  0  0  0  0  0  0  0  0  0  0  0
   -5.6370   19.1750  -33.0360 C   0  0  0  0  0  0  0  0  0  0  0  0
   -4.9130   18.0920  -33.5930 C   0  0  0  0  0  0  0  0  0  0  0  0
   -3.5350   18.1750  -33.8270 C   0  0  0  0  0  0  0  0  0  0  0  0
   -2.7930   17.1090  -34.3610 O   0  0  0  0  0  0  0  0  0  0  0  0
   -1.3820   16.9650  -34.2420 C   0  0  0  0  0  0  0  0  0  0  0  0
   -2.8630   19.3480  -33.5160 C   0  0  0  0  0  0  0  0  0  0  0  0
   -3.5440   20.4680  -33.0110 C   0  0  0  0  0  0  0  0  0  0  0  0
   -2.8370   21.6380  -32.6820 O   0  0  0  0  0  0  0  0  0  0  0  0
   -1.4550   21.6960  -32.3400 C   0  0  0  0  0  0  0  0  0  0  0  0
   -4.9550   20.4060  -32.8190 C   0  0  0  0  0  0  0  0  0  0  0  0
   -1.0341   25.0084  -25.7049 H   0  0  0  0  0  0  0  0  0  0  0  0
   -0.9613   23.6754  -26.9069 H   0  0  0  0  0  0  0  0  0  0  0  0
    0.2997   24.9546  -26.9069 H   0  0  0  0  0  0  0  0  0  0  0  0
   -2.6736   25.3381  -27.5547 H   0  0  0  0  0  0  0  0  0  0  0  0
   -1.4032   26.6395  -27.5149 H   0  0  0  0  0  0  0  0  0  0  0  0
   -2.0470   25.6580  -29.7390 H   0  0  0  0  0  0  0  0  0  0  0  0
   -0.4873   23.7563  -30.3107 H   0  0  0  0  0  0  0  0  0  0  0  0
   -0.5008   23.4437  -28.5371 H   0  0  0  0  0  0  0  0  0  0  0  0
   -2.2566   22.2023  -30.0279 H   0  0  0  0  0  0  0  0  0  0  0  0
   -2.8230   22.9775  -28.5133 H   0  0  0  0  0  0  0  0  0  0  0  0
   -4.6488   22.5022  -29.7861 H   0  0  0  0  0  0  0  0  0  0  0  0
   -5.0547   24.1616  -29.2219 H   0  0  0  0  0  0  0  0  0  0  0  0
   -6.5181   23.6976  -31.0765 H   0  0  0  0  0  0  0  0  0  0  0  0
   -5.2339   24.8160  -31.6901 H   0  0  0  0  0  0  0  0  0  0  0  0
   -4.3160   23.0630  -33.0220 H   0  0  0  0  0  0  0  0  0  0  0  0
   -7.3521   23.4680  -31.5357 H   0  0  0  0  0  0  0  0  0  0  0  0
   -9.8211   23.2943  -31.2957 H   0  0  0  0  0  0  0  0  0  0  0  0
  -10.9831   21.1724  -31.8842 H   0  0  0  0  0  0  0  0  0  0  0  0
   -9.6718   19.1862  -32.5956 H   0  0  0  0  0  0  0  0  0  0  0  0
   -7.7430   17.4233  -31.6082 H   0  0  0  0  0  0  0  0  0  0  0  0
   -8.5868   17.7391  -33.1622 H   0  0  0  0  0  0  0  0  0  0  0  0
   -6.9596   16.9782  -33.1622 H   0  0  0  0  0  0  0  0  0  0  0  0
   -5.4460   17.1641  -33.8476 H   0  0  0  0  0  0  0  0  0  0  0  0
   -1.1048   16.9367  -33.1779 H   0  0  0  0  0  0  0  0  0  0  0  0
   -1.0666   16.0300  -34.7281 H   0  0  0  0  0  0  0  0  0  0  0  0
   -0.8842   17.8170  -34.7281 H   0  0  0  0  0  0  0  0  0  0  0  0
   -1.7749   19.4022  -33.6679 H   0  0  0  0  0  0  0  0  0  0  0  0
   -1.3481   21.7005  -31.2452 H   0  0  0  0  0  0  0  0  0  0  0  0
   -0.9374   20.8188  -32.7554 H   0  0  0  0  0  0  0  0  0  0  0  0
   -1.0127   22.6135  -32.7554 H   0  0  0  0  0  0  0  0  0  0  0  0
  1  2  1  0
  2  3  1  0
  3  4  1  0
  4  5  1  0
  5  6  1  0
  6  7  1  0
  7  8  1  0
  8  9  1  0
  9 10  1  0
 10 11  2  0
 11 12  1  0
 12 13  2  0
 13 14  1  0
 14 15  2  0
 15 16  1  0
 16 17  2  0
 17 18  1  0
 17 19  1  0
 19 20  2  0
 20 21  1  0
 21 22  1  0
 22 23  1  0
 21 24  2  0
 24 25  1  0
 25 26  1  0
 26 27  1  0
 25 28  2  0
 28 10  1  0
 16 11  1  0
 28 19  1  0
  1 29  1  0
  1 30  1  0
  1 31  1  0
  2 32  1  0
  2 33  1  0
  3 34  1  0
  4 35  1  0
  4 36  1  0
  5 37  1  0
  5 38  1  0
  7 39  1  0
  7 40  1  0
  8 41  1  0
  8 42  1  0
  9 43  1  0
 12 44  1  0
 13 45  1  0
 14 46  1  0
 15 47  1  0
 18 48  1  0
 18 49  1  0
 18 50  1  0
 20 51  1  0
 23 52  1  0
 23 53  1  0
 23 54  1  0
 24 55  1  0
 27 56  1  0
 27 57  1  0
 27 58  1  0
M  CHG  1  17   1
M  END
>  <UniqueID>  (9) 
9

>  <SMILES>  (9) 
CCNCCOCCNc1c2ccccc2[n+](C)c2cc(OC)cc(OC)c12

>  <Energy>  (9) 
84.26264538211552

>  <Genealogy>  (9) 
CCNCCOCCNc1c2ccccc2[n+](C)c2cc(OC)cc(OC)c12 (3D coordinates assigned)
CCNCCOCCNc1c2ccccc2[n+](C)c2cc(OC)cc(OC)c12 (optimized conformer: 84.26264538211552 kcal/mol)

>  <smiles>  (9) 
CCNCCOCCNc1c2ccccc2[n+](C)c2cc(OC)cc(OC)c12

>  <score_type>  (9) 
oracle

>  <origin>  (9) 
adg

>  <m_score__min__energy>  (9) 
-8.5600000000000005

>  <m_primary>  (9) 
energy

$$$$
9:0
     RDKit          3D

 37 39  0  0  0  0  0  0  0  0999 V2000
   -5.7710   25.5090  -30.1200 C   0  0  0  0  0  0  0  0  0  0  0  0
   -6.4250   24.4220  -30.9590 C   0  0  0  0  0  0  0  0  0  0  0  0
   -5.6660   24.2130  -32.1230 O   0  0  0  0  0  0  0  0  0  0  0  0
   -5.6310   22.8670  -32.3140 N   0  0  0  0  0  0  0  0  0  0  0  0
   -4.2290   22.4770  -32.4630 C   0  0  0  0  0  0  0  0  0  0  0  0
   -3.5890   22.3540  -31.1080 C   0  0  0  0  0  0  0  0  0  0  0  0
   -3.5350   21.1090  -30.4670 C   0  0  0  0  0  0  0  0  0  0  0  0
   -2.9100   20.9800  -29.2270 C   0  0  0  0  0  0  0  0  0  0  0  0
   -2.3220   22.0940  -28.6100 C   0  0  0  0  0  0  0  0  0  0  0  0
   -1.6760   21.9560  -27.3790 C   0  0  0  0  0  0  0  0  0  0  0  0
   -1.0890   23.0620  -26.7520 C   0  0  0  0  0  0  0  0  0  0  0  0
   -0.4100   22.8800  -25.5390 C   0  0  0  0  0  0  0  0  0  0  0  0
    0.2010   23.9570  -24.9050 C   0  0  0  0  0  0  0  0  0  0  0  0
    0.1010   25.2340  -25.4490 C   0  0  0  0  0  0  0  0  0  0  0  0
   -0.6110   25.4590  -26.6320 C   0  0  0  0  0  0  0  0  0  0  0  0
   -0.7680   26.7900  -27.0230 O   0  0  0  0  0  0  0  0  0  0  0  0
   -1.1680   24.3540  -27.3450 C   0  0  0  0  0  0  0  0  0  0  0  0
   -1.7570   24.4730  -28.6320 C   0  0  0  0  0  0  0  0  0  0  0  0
   -1.7090   25.6740  -29.3350 O   0  0  0  0  0  0  0  0  0  0  0  0
   -2.3580   23.3560  -29.2480 C   0  0  0  0  0  0  0  0  0  0  0  0
   -2.9870   23.4690  -30.5040 C   0  0  0  0  0  0  0  0  0  0  0  0
   -5.9083   25.2808  -29.0527 H   0  0  0  0  0  0  0  0  0  0  0  0
   -4.6963   25.5531  -30.3502 H   0  0  0  0  0  0  0  0  0  0  0  0
   -6.2355   26.4792  -30.3502 H   0  0  0  0  0  0  0  0  0  0  0  0
   -6.4723   23.4887  -30.3788 H   0  0  0  0  0  0  0  0  0  0  0  0
   -7.4437   24.7324  -31.2345 H   0  0  0  0  0  0  0  0  0  0  0  0
   -6.1180   22.6790  -33.2200 H   0  0  0  0  0  0  0  0  0  0  0  0
   -4.1722   21.5094  -32.9831 H   0  0  0  0  0  0  0  0  0  0  0  0
   -3.6985   23.2431  -33.0476 H   0  0  0  0  0  0  0  0  0  0  0  0
   -3.9884   20.2280  -30.9449 H   0  0  0  0  0  0  0  0  0  0  0  0
   -2.8780   19.9992  -28.7300 H   0  0  0  0  0  0  0  0  0  0  0  0
   -1.6280   20.9683  -26.8972 H   0  0  0  0  0  0  0  0  0  0  0  0
   -0.3601   21.8790  -25.0856 H   0  0  0  0  0  0  0  0  0  0  0  0
    0.7636   23.7991  -23.9730 H   0  0  0  0  0  0  0  0  0  0  0  0
    0.5890   26.0790  -24.9413 H   0  0  0  0  0  0  0  0  0  0  0  0
   -1.2170   27.0750  -27.8820 H   0  0  0  0  0  0  0  0  0  0  0  0
   -3.0064   24.4419  -31.0169 H   0  0  0  0  0  0  0  0  0  0  0  0
  1  2  1  0
  2  3  1  0
  3  4  1  0
  4  5  1  0
  5  6  1  0
  6  7  2  0
  7  8  1  0
  8  9  2  0
  9 10  1  0
 10 11  2  0
 11 12  1  0
 12 13  2  0
 13 14  1  0
 14 15  2  0
 15 16  1  0
 15 17  1  0
 17 18  2  0
 18 19  1  0
 18 20  1  0
 20 21  2  0
 21  6  1  0
 20  9  1  0
 17 11  1  0
  1 22  1  0
  1 23  1  0
  1 24  1  0
  2 25  1  0
  2 26  1  0
  4 27  1  0
  5 28  1  0
  5 29  1  0
  7 30  1  0
  8 31  1  0
 10 32  1  0
 12 33  1  0
 13 34  1  0
 14 35  1  0
 16 36  1  0
 21 37  1  0
M  CHG  1  19  -1
M  END
>  <UniqueID>  (10) 
10

>  <SMILES>  (10) 
CCONCc1ccc2cc3cccc(O)c3c([O-])c2c1

>  <Energy>  (10) 
48.37930802885455

>  <Genealogy>  (10) 
CCONCc1ccc2cc3cccc(O)c3c([O-])c2c1 (protonated)
CCONCc1ccc2cc3cccc(O)c3c([O-])c2c1 (3D coordinates assigned)
CCONCc1ccc2cc3cccc(O)c3c([O-])c2c1 (optimized conformer: 48.37930802885455 kcal/mol)

>  <smiles>  (10) 
CCONCc1ccc2cc3cccc(O)c3c(O)c2c1

>  <score_type>  (10) 
oracle

>  <origin>  (10) 
adg

>  <m_score__min__energy>  (10) 
-10.43

>  <m_primary>  (10) 
energy

$$$$
10:0
     RDKit          3D

 52 54  0  0  0  0  0  0  0  0999 V2000
   -0.8400   21.6920  -24.3230 C   0  0  0  0  0  0  0  0  0  0  0  0
   -0.4540   23.0770  -23.8150 C   0  0  0  0  0  0  0  0  0  0  0  0
   -0.6300   24.0620  -24.8330 O   0  0  0  0  0  0  0  0  0  0  0  0
   -0.4530   25.4480  -24.6770 C   0  0  0  0  0  0  0  0  0  0  0  0
    0.3200   25.9620  -23.6710 N   0  0  0  0  0  0  0  0  0  0  0  0
    0.5140   27.3010  -23.5290 C   0  0  0  0  0  0  0  0  0  0  0  0
   -0.0650   28.1940  -24.4260 C   0  0  0  0  0  0  0  0  0  0  0  0
   -0.8540   27.7050  -25.4640 C   0  0  0  0  0  0  0  0  0  0  0  0
   -1.0770   26.3250  -25.5920 C   0  0  0  0  0  0  0  0  0  0  0  0
   -1.9430   25.8050  -26.7250 C   0  0  0  0  0  0  0  0  0  0  0  0
   -2.7020   24.5890  -26.3760 N   0  0  0  0  0  0  0  0  0  0  0  0
   -2.5830   23.4950  -27.3550 C   0  0  0  0  0  0  0  0  0  0  0  0
   -1.7300   23.8960  -28.5660 C   0  0  0  0  0  0  0  0  0  0  0  0
   -2.4960   24.7480  -29.4770 N   0  0  0  0  0  0  0  0  0  0  0  0
   -3.7860   24.4110  -30.0270 C   0  0  0  0  0  0  0  0  0  0  0  0
   -4.9270   25.2000  -29.7920 C   0  0  0  0  0  0  0  0  0  0  0  0
   -6.1600   24.8380  -30.3330 C   0  0  0  0  0  0  0  0  0  0  0  0
   -6.2760   23.6870  -31.1130 C   0  0  0  0  0  0  0  0  0  0  0  0
   -5.1530   22.8800  -31.3610 C   0  0  0  0  0  0  0  0  0  0  0  0
   -5.2730   21.6540  -32.1900 C   0  0  0  0  0  0  0  0  0  0  0  0
   -4.1230   20.9960  -32.6680 C   0  0  0  0  0  0  0  0  0  0  0  0
   -4.2410   19.8420  -33.4490 C   0  0  0  0  0  0  0  0  0  0  0  0
   -5.5020   19.3310  -33.7610 C   0  0  0  0  0  0  0  0  0  0  0  0
   -6.6510   19.9750  -33.2940 C   0  0  0  0  0  0  0  0  0  0  0  0
   -6.5400   21.1300  -32.5130 C   0  0  0  0  0  0  0  0  0  0  0  0
   -3.9110   23.2520  -30.8110 C   0  0  0  0  0  0  0  0  0  0  0  0
   -1.0256   21.0262  -23.4673 H   0  0  0  0  0  0  0  0  0  0  0  0
   -1.7516   21.7665  -24.9341 H   0  0  0  0  0  0  0  0  0  0  0  0
   -0.0213   21.2842  -24.9341 H   0  0  0  0  0  0  0  0  0  0  0  0
   -1.0872   23.3334  -22.9529 H   0  0  0  0  0  0  0  0  0  0  0  0
    0.6063   23.0604  -23.5226 H   0  0  0  0  0  0  0  0  0  0  0  0
    0.7910   25.3360  -22.9830 H   0  0  0  0  0  0  0  0  0  0  0  0
    1.1315   27.6798  -22.7012 H   0  0  0  0  0  0  0  0  0  0  0  0
    0.0992   29.2761  -24.3160 H   0  0  0  0  0  0  0  0  0  0  0  0
   -1.3040   28.4023  -26.1860 H   0  0  0  0  0  0  0  0  0  0  0  0
   -2.6576   26.5925  -27.0065 H   0  0  0  0  0  0  0  0  0  0  0  0
   -1.2681   25.5386  -27.5517 H   0  0  0  0  0  0  0  0  0  0  0  0
   -2.3700   24.2350  -25.4490 H   0  0  0  0  0  0  0  0  0  0  0  0
   -2.1167   22.6283  -26.8638 H   0  0  0  0  0  0  0  0  0  0  0  0
   -3.5930   23.2522  -27.7169 H   0  0  0  0  0  0  0  0  0  0  0  0
   -0.8431   24.4453  -28.2173 H   0  0  0  0  0  0  0  0  0  0  0  0
   -1.4270   22.9852  -29.1032 H   0  0  0  0  0  0  0  0  0  0  0  0
   -2.0580   25.6540  -29.7570 H   0  0  0  0  0  0  0  0  0  0  0  0
   -4.8457   26.1086  -29.1773 H   0  0  0  0  0  0  0  0  0  0  0  0
   -7.0454   25.4628  -30.1440 H   0  0  0  0  0  0  0  0  0  0  0  0
   -7.2527   23.4097  -31.5364 H   0  0  0  0  0  0  0  0  0  0  0  0
   -3.1259   21.3923  -32.4255 H   0  0  0  0  0  0  0  0  0  0  0  0
   -3.3373   19.3353  -33.8186 H   0  0  0  0  0  0  0  0  0  0  0  0
   -5.5912   18.4220  -34.3740 H   0  0  0  0  0  0  0  0  0  0  0  0
   -7.6446   19.5728  -33.5411 H   0  0  0  0  0  0  0  0  0  0  0  0
   -7.4481   21.6325  -32.1486 H   0  0  0  0  0  0  0  0  0  0  0  0
   -3.0260   22.6260  -30.9980 H   0  0  0  0  0  0  0  0  0  0  0  0
  1  2  1  0
  2  3  1  0
  3  4  1  0
  4  5  2  0
  5  6  1  0
  6  7  2  0
  7  8  1  0
  8  9  2  0
  9 10  1  0
 10 11  1  0
 11 12  1  0
 12 13  1  0
 13 14  1  0
 14 15  1  0
 15 16  2  0
 16 17  1  0
 17 18  2  0
 18 19  1  0
 19 20  1  0
 20 21  2  0
 21 22  1  0
 22 23  2  0
 23 24  1  0
 24 25  2  0
 19 26  2  0
  9  4  1  0
 26 15  1  0
 25 20  1  0
  1 27  1  0
  1 28  1  0
  1 29  1  0
  2 30  1  0
  2 31  1  0
  5 32  1  0
  6 33  1  0
  7 34  1  0
  8 35  1  0
 10 36  1  0
 10 37  1  0
 11 38  1  0
 12 39  1  0
 12 40  1  0
 13 41  1  0
 13 42  1  0
 14 43  1  0
 16 44  1  0
 17 45  1  0
 18 46  1  0
 21 47  1  0
 22 48  1  0
 23 49  1  0
 24 50  1  0
 25 51  1  0
 26 52  1  0
M  CHG  1   5   1
M  END
>  <UniqueID>  (11) 
11

>  <SMILES>  (11) 
CCOc1[nH+]cccc1CNCCNc1cccc(-c2ccccc2)c1

>  <Energy>  (11) 
55.02707511509627

>  <Genealogy>  (11) 
CCOc1[nH+]cccc1CNCCNc1cccc(-c2ccccc2)c1 (protonated)
CCOc1[nH+]cccc1CNCCNc1cccc(-c2ccccc2)c1 (3D coordinates assigned)
CCOc1[nH+]cccc1CNCCNc1cccc(-c2ccccc2)c1 (optimized conformer: 55.02707511509627 kcal/mol)

>  <smiles>  (11) 
CCOc1ncccc1CNCCNc1cccc(-c2ccccc2)c1

>  <score_type>  (11) 
oracle

>  <origin>  (11) 
adg

>  <m_score__min__energy>  (11) 
-9.1899999999999995

>  <m_primary>  (11) 
energy

$$$$
11:0
     RDKit          3D

 56 58  0  0  0  0  0  0  0  0999 V2000
   -9.8560   21.2490  -31.8600 C   0  0  0  0  0  0  0  0  0  0  0  0
   -9.4720   19.8100  -32.1840 C   0  0  0  0  0  0  0  0  0  0  0  0
   -8.3650   19.7710  -33.0850 O   0  0  0  0  0  0  0  0  0  0  0  0
   -7.0790   20.2850  -32.8480 C   0  0  0  0  0  0  0  0  0  0  0  0
   -6.8770   21.6480  -32.5670 C   0  0  0  0  0  0  0  0  0  0  0  0
   -5.5930   22.1600  -32.3320 C   0  0  0  0  0  0  0  0  0  0  0  0
   -4.4780   21.3050  -32.3760 C   0  0  0  0  0  0  0  0  0  0  0  0
   -4.6750   19.9370  -32.6570 C   0  0  0  0  0  0  0  0  0  0  0  0
   -3.5740   19.0740  -32.6990 O   0  0  0  0  0  0  0  0  0  0  0  0
   -3.1910   18.4110  -33.8980 C   0  0  0  0  0  0  0  0  0  0  0  0
   -5.9610   19.4200  -32.8830 C   0  0  0  0  0  0  0  0  0  0  0  0
   -6.0550   18.0380  -33.1360 O   0  0  0  0  0  0  0  0  0  0  0  0
   -6.8970   17.1080  -32.4490 C   0  0  0  0  0  0  0  0  0  0  0  0
   -3.0950   21.7810  -32.0810 C   0  0  0  0  0  0  0  0  0  0  0  0
   -2.1480   21.5830  -33.0840 C   0  0  0  0  0  0  0  0  0  0  0  0
   -0.7830   21.3770  -32.9280 C   0  0  0  0  0  0  0  0  0  0  0  0
   -0.1230   20.9430  -31.7660 C   0  0  0  0  0  0  0  0  0  0  0  0
    1.1630   20.3720  -31.8690 O   0  0  0  0  0  0  0  0  0  0  0  0
    1.6770   19.6670  -32.9990 C   0  0  0  0  0  0  0  0  0  0  0  0
   -0.6280   21.0330  -30.4590 C   0  0  0  0  0  0  0  0  0  0  0  0
    0.0510   20.4880  -29.5440 O   0  0  0  0  0  0  0  0  0  0  0  0
   -1.7370   21.7750  -30.0440 C   0  0  0  0  0  0  0  0  0  0  0  0
   -2.7740   22.3160  -30.8190 C   0  0  0  0  0  0  0  0  0  0  0  0
   -3.4330   23.6270  -30.3510 C   0  0  2  0  0  0  0  0  0  0  0  0
   -3.0880   23.9370  -28.9600 N   0  0  0  0  0  0  0  0  0  0  0  0
   -1.9750   24.7290  -28.5270 C   0  0  0  0  0  0  0  0  0  0  0  0
   -1.2990   24.4980  -27.2100 C   0  0  0  0  0  0  0  0  0  0  0  0
   -1.5860   25.6770  -29.2590 O   0  0  0  0  0  0  0  0  0  0  0  0
   -4.9650   23.6640  -30.4760 C   0  0  0  0  0  0  0  0  0  0  0  0
   -5.4350   23.5960  -31.9310 C   0  0  0  0  0  0  0  0  0  0  0  0
   -9.8915   21.3822  -30.7687 H   0  0  0  0  0  0  0  0  0  0  0  0
   -9.1090   21.9332  -32.2888 H   0  0  0  0  0  0  0  0  0  0  0  0
  -10.8446   21.4701  -32.2888 H   0  0  0  0  0  0  0  0  0  0  0  0
   -9.1979   19.2917  -31.2533 H   0  0  0  0  0  0  0  0  0  0  0  0
  -10.3312   19.3144  -32.6596 H   0  0  0  0  0  0  0  0  0  0  0  0
   -7.7429   22.3255  -32.5309 H   0  0  0  0  0  0  0  0  0  0  0  0
   -2.6551   17.4833  -33.6488 H   0  0  0  0  0  0  0  0  0  0  0  0
   -4.0886   18.1693  -34.4861 H   0  0  0  0  0  0  0  0  0  0  0  0
   -2.5332   19.0678  -34.4861 H   0  0  0  0  0  0  0  0  0  0  0  0
   -6.7785   17.2389  -31.3633 H   0  0  0  0  0  0  0  0  0  0  0  0
   -7.9458   17.2878  -32.7277 H   0  0  0  0  0  0  0  0  0  0  0  0
   -6.6142   16.0822  -32.7277 H   0  0  0  0  0  0  0  0  0  0  0  0
   -2.5244   21.5907  -34.1176 H   0  0  0  0  0  0  0  0  0  0  0  0
   -0.1522   21.5746  -33.8072 H   0  0  0  0  0  0  0  0  0  0  0  0
    2.2926   18.8226  -32.6554 H   0  0  0  0  0  0  0  0  0  0  0  0
    0.8415   19.2885  -33.6061 H   0  0  0  0  0  0  0  0  0  0  0  0
    2.2930   20.3467  -33.6061 H   0  0  0  0  0  0  0  0  0  0  0  0
   -1.8065   21.9603  -28.9619 H   0  0  0  0  0  0  0  0  0  0  0  0
   -3.0251   24.3806  -31.0407 H   0  0  0  0  0  0  0  0  0  0  0  0
   -1.9962   24.7362  -26.3932 H   0  0  0  0  0  0  0  0  0  0  0  0
   -0.9927   23.4442  -27.1349 H   0  0  0  0  0  0  0  0  0  0  0  0
   -0.4118   25.1440  -27.1349 H   0  0  0  0  0  0  0  0  0  0  0  0
   -5.3846   22.8068  -29.9291 H   0  0  0  0  0  0  0  0  0  0  0  0
   -5.3121   24.6198  -30.0564 H   0  0  0  0  0  0  0  0  0  0  0  0
   -6.4003   24.1140  -32.0303 H   0  0  0  0  0  0  0  0  0  0  0  0
   -4.6931   24.0817  -32.5819 H   0  0  0  0  0  0  0  0  0  0  0  0
  1  2  1  0
  2  3  1  0
  3  4  1  0
  4  5  2  0
  5  6  1  0
  6  7  2  0
  7  8  1  0
  8  9  1  0
  9 10  1  0
  8 11  2  0
 11 12  1  0
 12 13  1  0
  7 14  1  0
 14 15  2  0
 15 16  1  0
 16 17  2  0
 17 18  1  0
 18 19  1  0
 17 20  1  0
 20 21  2  0
 20 22  1  0
 22 23  2  0
 23 24  1  0
 24 25  1  0
 25 26  1  0
 26 27  1  0
 26 28  2  0
 24 29  1  0
 29 30  1  0
 11  4  1  0
 23 14  1  0
 30  6  1  0
  1 31  1  0
  1 32  1  0
  1 33  1  0
  2 34  1  0
  2 35  1  0
  5 36  1  0
 10 37  1  0
 10 38  1  0
 10 39  1  0
 13 40  1  0
 13 41  1  0
 13 42  1  0
 15 43  1  0
 16 44  1  0
 19 45  1  0
 19 46  1  0
 19 47  1  0
 22 48  1  0
 24 49  1  6
 27 50  1  0
 27 51  1  0
 27 52  1  0
 29 53  1  0
 29 54  1  0
 30 55  1  0
 30 56  1  0
M  CHG  1  25  -1
M  END
>  <UniqueID>  (12) 
12

>  <SMILES>  (12) 
CCOc1cc2c(c(OC)c1OC)-c1ccc(OC)c(=O)cc1[C@H]([N-]C(C)=O)CC2

>  <Energy>  (12) 
122.24640496059867

>  <Genealogy>  (12) 
CCOc1cc2c(c(OC)c1OC)-c1ccc(OC)c(=O)cc1C([N-]C(C)=O)CC2 (protonated)
CCOc1cc2c(c(OC)c1OC)-c1ccc(OC)c(=O)cc1[C@H]([N-]C(C)=O)CC2 (chirality)
CCOc1cc2c(c(OC)c1OC)-c1ccc(OC)c(=O)cc1[C@H]([N-]C(C)=O)CC2 (3D coordinates assigned)
CCOc1cc2c(c(OC)c1OC)-c1ccc(OC)c(=O)cc1[C@H]([N-]C(C)=O)CC2 (nonaromatic ring conformer: 122.24640496059867 kcal/mol)

>  <smiles>  (12) 
CCOc1cc2c(c(OC)c1OC)-c1ccc(OC)c(=O)cc1C(NC(C)=O)CC2

>  <score_type>  (12) 
oracle

>  <origin>  (12) 
adg

>  <m_score__min__energy>  (12) 
-6.9699999999999998

>  <m_primary>  (12) 
energy

$$$$
12:0
     RDKit          3D

 54 56  0  0  0  0  0  0  0  0999 V2000
   -1.2070   26.5550  -26.1450 C   0  0  0  0  0  0  0  0  0  0  0  0
   -0.7060   27.1830  -27.4420 C   0  0  0  0  0  0  0  0  0  0  0  0
   -1.0670   26.3770  -28.5450 O   0  0  0  0  0  0  0  0  0  0  0  0
   -0.8540   25.0120  -28.2560 C   0  0  0  0  0  0  0  0  0  0  0  0
   -1.6700   24.1590  -29.2180 C   0  0  0  0  0  0  0  0  0  0  0  0
   -2.7600   24.9180  -29.6970 O   0  0  0  0  0  0  0  0  0  0  0  0
   -3.9840   24.3660  -29.2580 C   0  0  0  0  0  0  0  0  0  0  0  0
   -5.0390   24.4490  -30.3600 C   0  0  0  0  0  0  0  0  0  0  0  0
   -4.5860   23.7810  -31.5260 O   0  0  0  0  0  0  0  0  0  0  0  0
   -3.7020   22.7290  -31.2040 C   0  0  0  0  0  0  0  0  0  0  0  0
   -3.4920   21.8350  -32.4310 C   0  0  0  0  0  0  0  0  0  0  0  0
   -4.6040   21.9080  -33.3990 N   0  0  0  0  0  0  0  0  0  0  0  0
   -5.6840   20.9960  -33.0650 C   0  0  0  0  0  0  0  0  0  0  0  0
   -6.9380   21.4460  -32.5660 C   0  0  0  0  0  0  0  0  0  0  0  0
   -7.1880   22.8200  -32.3440 C   0  0  0  0  0  0  0  0  0  0  0  0
   -8.4360   23.2560  -31.9070 C   0  0  0  0  0  0  0  0  0  0  0  0
   -9.4600   22.3430  -31.6860 C   0  0  0  0  0  0  0  0  0  0  0  0
   -9.2420   20.9810  -31.8720 C   0  0  0  0  0  0  0  0  0  0  0  0
   -7.9740   20.4920  -32.2800 C   0  0  0  0  0  0  0  0  0  0  0  0
   -7.7370   19.1320  -32.4080 N   0  0  0  0  0  0  0  0  0  0  0  0
   -8.7470   18.1430  -31.9670 C   0  0  0  0  0  0  0  0  0  0  0  0
   -6.5370   18.7120  -32.9380 C   0  0  0  0  0  0  0  0  0  0  0  0
   -6.1720   17.3780  -33.2290 C   0  0  0  0  0  0  0  0  0  0  0  0
   -4.8690   17.2530  -33.7100 C   0  0  0  0  0  0  0  0  0  0  0  0
   -4.1770   18.7830  -33.8010 S   0  0  0  0  0  0  0  0  0  0  0  0
   -5.5280   19.6190  -33.2390 C   0  0  0  0  0  0  0  0  0  0  0  0
   -0.7776   27.0933  -25.2872 H   0  0  0  0  0  0  0  0  0  0  0  0
   -2.3044   26.6196  -26.1063 H   0  0  0  0  0  0  0  0  0  0  0  0
   -0.9002   25.4994  -26.1063 H   0  0  0  0  0  0  0  0  0  0  0  0
   -1.1535   28.1810  -27.5592 H   0  0  0  0  0  0  0  0  0  0  0  0
    0.3901   27.2657  -27.4011 H   0  0  0  0  0  0  0  0  0  0  0  0
    0.2140   24.7748  -28.3704 H   0  0  0  0  0  0  0  0  0  0  0  0
   -1.1663   24.8018  -27.2224 H   0  0  0  0  0  0  0  0  0  0  0  0
   -1.0374   23.8489  -30.0628 H   0  0  0  0  0  0  0  0  0  0  0  0
   -2.0416   23.2645  -28.6966 H   0  0  0  0  0  0  0  0  0  0  0  0
   -3.8279   23.3116  -28.9860 H   0  0  0  0  0  0  0  0  0  0  0  0
   -4.3371   24.9363  -28.3862 H   0  0  0  0  0  0  0  0  0  0  0  0
   -5.9683   23.9766  -30.0090 H   0  0  0  0  0  0  0  0  0  0  0  0
   -5.2218   25.5065  -30.6015 H   0  0  0  0  0  0  0  0  0  0  0  0
   -2.7354   23.1479  -30.8874 H   0  0  0  0  0  0  0  0  0  0  0  0
   -4.1313   22.1304  -30.3871 H   0  0  0  0  0  0  0  0  0  0  0  0
   -2.5665   22.1471  -32.9371 H   0  0  0  0  0  0  0  0  0  0  0  0
   -3.4364   20.7961  -32.0737 H   0  0  0  0  0  0  0  0  0  0  0  0
   -4.2490   21.6790  -34.3530 H   0  0  0  0  0  0  0  0  0  0  0  0
   -4.9470   22.8920  -33.4770 H   0  0  0  0  0  0  0  0  0  0  0  0
   -6.3868   23.5532  -32.5187 H   0  0  0  0  0  0  0  0  0  0  0  0
   -8.6122   24.3282  -31.7359 H   0  0  0  0  0  0  0  0  0  0  0  0
  -10.4491   22.6989  -31.3620 H   0  0  0  0  0  0  0  0  0  0  0  0
  -10.0657   20.2725  -31.7000 H   0  0  0  0  0  0  0  0  0  0  0  0
   -8.7764   18.1142  -30.8678 H   0  0  0  0  0  0  0  0  0  0  0  0
   -9.7358   18.4318  -32.3528 H   0  0  0  0  0  0  0  0  0  0  0  0
   -8.4791   17.1483  -32.3528 H   0  0  0  0  0  0  0  0  0  0  0  0
   -6.8492   16.5224  -33.0898 H   0  0  0  0  0  0  0  0  0  0  0  0
   -4.3752   16.3092  -33.9846 H   0  0  0  0  0  0  0  0  0  0  0  0
  1  2  1  0
  2  3  1  0
  3  4  1  0
  4  5  1  0
  5  6  1  0
  6  7  1  0
  7  8  1  0
  8  9  1  0
  9 10  1  0
 10 11  1  0
 11 12  1  0
 12 13  1  0
 13 14  2  0
 14 15  1  0
 15 16  2  0
 16 17  1  0
 17 18  2  0
 18 19  1  0
 19 20  2  0
 20 21  1  0
 20 22  1  0
 22 23  1  0
 23 24  2  0
 24 25  1  0
 25 26  1  0
 26 13  1  0
 19 14  1  0
 26 22  2  0
  1 27  1  0
  1 28  1  0
  1 29  1  0
  2 30  1  0
  2 31  1  0
  4 32  1  0
  4 33  1  0
  5 34  1  0
  5 35  1  0
  7 36  1  0
  7 37  1  0
  8 38  1  0
  8 39  1  0
 10 40  1  0
 10 41  1  0
 11 42  1  0
 11 43  1  0
 12 44  1  0
 12 45  1  0
 15 46  1  0
 16 47  1  0
 17 48  1  0
 18 49  1  0
 21 50  1  0
 21 51  1  0
 21 52  1  0
 23 53  1  0
 24 54  1  0
M  CHG  2  12   1  20   1
M  END
>  <UniqueID>  (13) 
13

>  <SMILES>  (13) 
CCOCCOCCOCC[NH2+]c1c2ccccc2[n+](C)c2ccsc12

>  <Energy>  (13) 
97.36401094353724

>  <Genealogy>  (13) 
CCOCCOCCOCC[NH2+]c1c2ccccc2[n+](C)c2ccsc12 (protonated)
CCOCCOCCOCC[NH2+]c1c2ccccc2[n+](C)c2ccsc12 (3D coordinates assigned)
CCOCCOCCOCC[NH2+]c1c2ccccc2[n+](C)c2ccsc12 (optimized conformer: 97.36401094353724 kcal/mol)

>  <smiles>  (13) 
CCOCCOCCOCCNc1c2ccccc2[n+](C)c2ccsc12

>  <score_type>  (13) 
oracle

>  <origin>  (13) 
adg

>  <m_score__min__energy>  (13) 
-8.0600000000000005

>  <m_primary>  (13) 
energy

$$$$
13:0
     RDKit          3D

 59 61  0  0  0  0  0  0  0  0999 V2000
   -8.3490   23.3810  -32.0520 C   0  0  0  0  0  0  0  0  0  0  0  0
   -6.8600   23.5630  -32.3440 C   0  0  0  0  0  0  0  0  0  0  0  0
   -6.0540   23.1900  -31.1700 N   0  0  0  0  0  0  0  0  0  0  0  0
   -6.6650   23.6660  -29.9210 C   0  0  0  0  0  0  0  0  0  0  0  0
   -5.9150   24.8960  -29.3900 C   0  0  0  0  0  0  0  0  0  0  0  0
   -5.2450   25.6890  -30.5140 C   0  0  0  0  0  0  0  0  0  0  0  0
   -3.8860   25.3100  -30.5910 O   0  0  0  0  0  0  0  0  0  0  0  0
   -3.5190   24.6180  -29.4120 C   0  0  0  0  0  0  0  0  0  0  0  0
   -2.9010   23.2760  -29.7920 C   0  0  0  0  0  0  0  0  0  0  0  0
   -3.0220   23.0930  -31.1890 O   0  0  0  0  0  0  0  0  0  0  0  0
   -3.4160   21.7690  -31.4980 C   0  0  0  0  0  0  0  0  0  0  0  0
   -2.4920   21.1170  -32.5340 C   0  0  0  0  0  0  0  0  0  0  0  0
   -3.2490   20.6630  -33.7040 N   0  0  0  0  0  0  0  0  0  0  0  0
   -3.9140   19.3850  -33.7260 C   0  0  0  0  0  0  0  0  0  0  0  0
   -5.2630   19.2740  -33.3340 C   0  0  0  0  0  0  0  0  0  0  0  0
   -5.9760   20.4010  -32.8670 C   0  0  0  0  0  0  0  0  0  0  0  0
   -7.3160   20.2960  -32.5010 C   0  0  0  0  0  0  0  0  0  0  0  0
   -7.9680   19.0700  -32.5850 C   0  0  0  0  0  0  0  0  0  0  0  0
   -7.2860   17.9410  -33.0370 C   0  0  0  0  0  0  0  0  0  0  0  0
   -5.9220   18.0150  -33.4240 C   0  0  0  0  0  0  0  0  0  0  0  0
   -5.2390   16.9010  -33.8800 N   0  0  0  0  0  0  0  0  0  0  0  0
   -5.9350   15.5960  -33.9860 C   0  0  0  0  0  0  0  0  0  0  0  0
   -3.9050   16.9920  -34.2120 C   0  0  0  0  0  0  0  0  0  0  0  0
   -3.2140   15.8840  -34.6150 N   0  0  0  0  0  0  0  0  0  0  0  0
   -1.8960   15.9130  -34.9370 C   0  0  0  0  0  0  0  0  0  0  0  0
   -1.1870   17.1060  -34.8500 C   0  0  0  0  0  0  0  0  0  0  0  0
   -1.8450   18.2620  -34.4400 C   0  0  0  0  0  0  0  0  0  0  0  0
   -3.2210   18.2300  -34.1340 C   0  0  0  0  0  0  0  0  0  0  0  0
   -8.5096   23.3614  -30.9640 H   0  0  0  0  0  0  0  0  0  0  0  0
   -8.9136   24.2168  -32.4909 H   0  0  0  0  0  0  0  0  0  0  0  0
   -8.6956   22.4338  -32.4909 H   0  0  0  0  0  0  0  0  0  0  0  0
   -6.5774   22.9250  -33.1944 H   0  0  0  0  0  0  0  0  0  0  0  0
   -6.6714   24.6200  -32.5832 H   0  0  0  0  0  0  0  0  0  0  0  0
   -5.1190   23.6590  -31.2640 H   0  0  0  0  0  0  0  0  0  0  0  0
   -7.7142   23.9361  -30.1113 H   0  0  0  0  0  0  0  0  0  0  0  0
   -6.6100   22.8642  -29.1700 H   0  0  0  0  0  0  0  0  0  0  0  0
   -6.6301   25.5511  -28.8708 H   0  0  0  0  0  0  0  0  0  0  0  0
   -5.1279   24.5448  -28.7065 H   0  0  0  0  0  0  0  0  0  0  0  0
   -5.7445   25.4703  -31.4693 H   0  0  0  0  0  0  0  0  0  0  0  0
   -5.3214   26.7668  -30.3079 H   0  0  0  0  0  0  0  0  0  0  0  0
   -2.7866   25.2142  -28.8480 H   0  0  0  0  0  0  0  0  0  0  0  0
   -4.4093   24.4522  -28.7876 H   0  0  0  0  0  0  0  0  0  0  0  0
   -1.8380   23.2662  -29.5094 H   0  0  0  0  0  0  0  0  0  0  0  0
   -3.4222   22.4638  -29.2641 H   0  0  0  0  0  0  0  0  0  0  0  0
   -3.3945   21.1687  -30.5765 H   0  0  0  0  0  0  0  0  0  0  0  0
   -4.4286   21.8089  -31.9260 H   0  0  0  0  0  0  0  0  0  0  0  0
   -1.7387   21.8511  -32.8561 H   0  0  0  0  0  0  0  0  0  0  0  0
   -2.0080   20.2446  -32.0707 H   0  0  0  0  0  0  0  0  0  0  0  0
   -3.1640   21.2050  -34.5910 H   0  0  0  0  0  0  0  0  0  0  0  0
   -5.4667   21.3731  -32.7915 H   0  0  0  0  0  0  0  0  0  0  0  0
   -7.8593   21.1838  -32.1451 H   0  0  0  0  0  0  0  0  0  0  0  0
   -9.0258   18.9910  -32.2937 H   0  0  0  0  0  0  0  0  0  0  0  0
   -7.8133   16.9773  -33.0947 H   0  0  0  0  0  0  0  0  0  0  0  0
   -6.1420   15.2079  -32.9778 H   0  0  0  0  0  0  0  0  0  0  0  0
   -6.8821   15.7287  -34.5294 H   0  0  0  0  0  0  0  0  0  0  0  0
   -5.2972   14.8833  -34.5294 H   0  0  0  0  0  0  0  0  0  0  0  0
   -1.3892   14.9939  -35.2664 H   0  0  0  0  0  0  0  0  0  0  0  0
   -0.1168   17.1359  -35.1027 H   0  0  0  0  0  0  0  0  0  0  0  0
   -1.2879   19.2066  -34.3542 H   0  0  0  0  0  0  0  0  0  0  0  0
  1  2  1  0
  2  3  1  0
  3  4  1  0
  4  5  1  0
  5  6  1  0
  6  7  1  0
  7  8  1  0
  8  9  1  0
  9 10  1  0
 10 11  1  0
 11 12  1  0
 12 13  1  0
 13 14  1  0
 14 15  2  0
 15 16  1  0
 16 17  2  0
 17 18  1  0
 18 19  2  0
 19 20  1  0
 20 21  2  0
 21 22  1  0
 21 23  1  0
 23 24  2  0
 24 25  1  0
 25 26  2  0
 26 27  1  0
 27 28  2  0
 28 14  1  0
 20 15  1  0
 28 23  1  0
  1 29  1  0
  1 30  1  0
  1 31  1  0
  2 32  1  0
  2 33  1  0
  3 34  1  0
  4 35  1  0
  4 36  1  0
  5 37  1  0
  5 38  1  0
  6 39  1  0
  6 40  1  0
  8 41  1  0
  8 42  1  0
  9 43  1  0
  9 44  1  0
 11 45  1  0
 11 46  1  0
 12 47  1  0
 12 48  1  0
 13 49  1  0
 16 50  1  0
 17 51  1  0
 18 52  1  0
 19 53  1  0
 22 54  1  0
 22 55  1  0
 22 56  1  0
 25 57  1  0
 26 58  1  0
 27 59  1  0
M  CHG  1  21   1
M  END
>  <UniqueID>  (14) 
14

>  <SMILES>  (14) 
CCNCCCOCCOCCNc1c2ccccc2[n+](C)c2ncccc12

>  <Energy>  (14) 
70.6672162858958

>  <Genealogy>  (14) 
CCNCCCOCCOCCNc1c2ccccc2[n+](C)c2ncccc12 (3D coordinates assigned)
CCNCCCOCCOCCNc1c2ccccc2[n+](C)c2ncccc12 (optimized conformer: 70.6672162858958 kcal/mol)

>  <smiles>  (14) 
CCNCCCOCCOCCNc1c2ccccc2[n+](C)c2ncccc12

>  <score_type>  (14) 
oracle

>  <origin>  (14) 
adg

>  <m_score__min__energy>  (14) 
-9.4199999999999999

>  <m_primary>  (14) 
energy

$$$$
14:0
     RDKit          3D

 46 49  0  0  0  0  0  0  0  0999 V2000
   -1.5520   23.4370  -29.3770 C   0  0  0  0  0  0  0  0  0  0  0  0
   -2.7370   24.3530  -29.0880 C   0  0  0  0  0  0  0  0  0  0  0  0
   -3.5260   24.5450  -30.2620 O   0  0  0  0  0  0  0  0  0  0  0  0
   -4.3630   23.5830  -30.8530 C   0  0  0  0  0  0  0  0  0  0  0  0
   -3.8780   22.3750  -31.3830 C   0  0  0  0  0  0  0  0  0  0  0  0
   -4.7530   21.4560  -31.9630 C   0  0  0  0  0  0  0  0  0  0  0  0
   -6.1370   21.7210  -32.0280 C   0  0  0  0  0  0  0  0  0  0  0  0
   -6.6240   22.9360  -31.4940 C   0  0  0  0  0  0  0  0  0  0  0  0
   -5.7320   23.8510  -30.9160 C   0  0  0  0  0  0  0  0  0  0  0  0
   -8.1070   23.2480  -31.4440 C   0  0  0  0  0  0  0  0  0  0  0  0
   -9.0090   22.1740  -32.0930 C   0  0  0  0  0  0  0  0  0  0  0  0
   -8.4170   20.8230  -31.9680 N   0  0  1  0  0  0  0  0  0  0  0  0
   -9.3690   19.7800  -32.4210 C   0  0  0  0  0  0  0  0  0  0  0  0
   -9.2190   18.4790  -31.6020 C   0  0  0  0  0  0  0  0  0  0  0  0
   -7.7710   18.1460  -31.2020 C   0  0  0  0  0  0  0  0  0  0  0  0
   -6.8430   18.1990  -32.3850 C   0  0  0  0  0  0  0  0  0  0  0  0
   -6.2720   16.9920  -32.8320 C   0  0  0  0  0  0  0  0  0  0  0  0
   -5.4470   16.9620  -33.9530 C   0  0  0  0  0  0  0  0  0  0  0  0
   -5.1860   18.1330  -34.6550 C   0  0  0  0  0  0  0  0  0  0  0  0
   -5.7450   19.3390  -34.2340 C   0  0  0  0  0  0  0  0  0  0  0  0
   -6.5690   19.4080  -33.0890 C   0  0  0  0  0  0  0  0  0  0  0  0
   -7.1300   20.8000  -32.7250 C   0  0  2  0  0  0  0  0  0  0  0  0
   -1.1117   23.0966  -28.4282 H   0  0  0  0  0  0  0  0  0  0  0  0
   -1.8942   22.5663  -29.9556 H   0  0  0  0  0  0  0  0  0  0  0  0
   -0.7956   23.9875  -29.9556 H   0  0  0  0  0  0  0  0  0  0  0  0
   -3.3611   23.8992  -28.3040 H   0  0  0  0  0  0  0  0  0  0  0  0
   -2.3555   25.3296  -28.7554 H   0  0  0  0  0  0  0  0  0  0  0  0
   -2.8016   22.1527  -31.3402 H   0  0  0  0  0  0  0  0  0  0  0  0
   -4.3594   20.5147  -32.3740 H   0  0  0  0  0  0  0  0  0  0  0  0
   -6.1174   24.7959  -30.5053 H   0  0  0  0  0  0  0  0  0  0  0  0
   -8.4010   23.3522  -30.3891 H   0  0  0  0  0  0  0  0  0  0  0  0
   -8.2526   24.1714  -32.0237 H   0  0  0  0  0  0  0  0  0  0  0  0
   -9.9899   22.1822  -31.5952 H   0  0  0  0  0  0  0  0  0  0  0  0
   -9.1117   22.4090  -33.1627 H   0  0  0  0  0  0  0  0  0  0  0  0
   -8.2380   20.7040  -30.9430 H   0  0  0  0  0  0  0  0  0  0  0  0
  -10.3952   20.1586  -32.3048 H   0  0  0  0  0  0  0  0  0  0  0  0
   -9.1520   19.5503  -33.4746 H   0  0  0  0  0  0  0  0  0  0  0  0
   -9.8157   18.5795  -30.6834 H   0  0  0  0  0  0  0  0  0  0  0  0
   -9.5639   17.6584  -32.2483 H   0  0  0  0  0  0  0  0  0  0  0  0
   -7.4322   18.8736  -30.4498 H   0  0  0  0  0  0  0  0  0  0  0  0
   -7.7528   17.1237  -30.7962 H   0  0  0  0  0  0  0  0  0  0  0  0
   -6.4808   16.0593  -32.2876 H   0  0  0  0  0  0  0  0  0  0  0  0
   -5.0018   16.0118  -34.2831 H   0  0  0  0  0  0  0  0  0  0  0  0
   -4.5379   18.1082  -35.5434 H   0  0  0  0  0  0  0  0  0  0  0  0
   -5.5399   20.2561  -34.8057 H   0  0  0  0  0  0  0  0  0  0  0  0
   -7.3419   21.1887  -33.7320 H   0  0  0  0  0  0  0  0  0  0  0  0
  1  2  1  0
  2  3  1  0
  3  4  1  0
  4  5  2  0
  5  6  1  0
  6  7  2  0
  7  8  1  0
  8  9  2  0
  8 10  1  0
 10 11  1  0
 11 12  1  0
 12 13  1  0
 13 14  1  0
 14 15  1  0
 15 16  1  0
 16 17  2  0
 17 18  1  0
 18 19  2  0
 19 20  1  0
 20 21  2  0
 21 22  1  0
  9  4  1  0
 22 12  1  0
 22  7  1  0
 21 16  1  0
  1 23  1  0
  1 24  1  0
  1 25  1  0
  2 26  1  0
  2 27  1  0
  5 28  1  0
  6 29  1  0
  9 30  1  0
 10 31  1  0
 10 32  1  0
 11 33  1  0
 11 34  1  0
 12 35  1  1
 13 36  1  0
 13 37  1  0
 14 38  1  0
 14 39  1  0
 15 40  1  0
 15 41  1  0
 17 42  1  0
 18 43  1  0
 19 44  1  0
 20 45  1  0
 22 46  1  6
M  CHG  1  12   1
M  END
>  <UniqueID>  (15) 
15

>  <SMILES>  (15) 
CCOc1ccc2c(c1)CC[N@H+]1CCCc3ccccc3[C@H]21

>  <Energy>  (15) 
72.93215827460864

>  <Genealogy>  (15) 
CCOc1ccc2c(c1)CC[NH+]1CCCc3ccccc3C21 (protonated)
CCOc1ccc2c(c1)CC[N@H+]1CCCc3ccccc3[C@H]21 (chirality)
CCOc1ccc2c(c1)CC[N@H+]1CCCc3ccccc3[C@H]21 (3D coordinates assigned)
CCOc1ccc2c(c1)CC[N@H+]1CCCc3ccccc3[C@H]21 (nonaromatic ring conformer: 72.93215827460864 kcal/mol)

>  <smiles>  (15) 
CCOc1ccc2c(c1)CCN1CCCc3ccccc3C21

>  <score_type>  (15) 
oracle

>  <origin>  (15) 
adg

>  <m_score__min__energy>  (15) 
-7.6500000000000004

>  <m_primary>  (15) 
energy

$$$$
15:0
     RDKit          3D

 43 44  0  0  0  0  0  0  0  0999 V2000
   -1.7170   24.8490  -28.8810 C   0  0  0  0  0  0  0  0  0  0  0  0
   -2.8240   23.8090  -29.0950 C   0  0  0  0  0  0  0  0  0  0  0  0
   -3.8570   23.8710  -27.9610 C   0  0  0  0  0  0  0  0  0  0  0  0
   -3.4940   23.9550  -30.4740 C   0  0  0  0  0  0  0  0  0  0  0  0
   -4.0750   25.2960  -30.6490 N   0  0  0  0  0  0  0  0  0  0  0  0
   -5.5440   25.2540  -30.6290 C   0  0  0  0  0  0  0  0  0  0  0  0
   -6.0340   23.8020  -30.6920 C   0  0  0  0  0  0  0  0  0  0  0  0
   -7.3620   23.6740  -31.4450 C   0  0  0  0  0  0  0  0  0  0  0  0
   -7.2420   22.7250  -32.5510 N   0  0  0  0  0  0  0  0  0  0  0  0
   -7.5040   21.3190  -32.4010 C   0  0  0  0  0  0  0  0  0  0  0  0
   -8.7230   20.8960  -31.8430 C   0  0  0  0  0  0  0  0  0  0  0  0
   -9.0310   19.5400  -31.7430 C   0  0  0  0  0  0  0  0  0  0  0  0
   -8.1340   18.5790  -32.2030 C   0  0  0  0  0  0  0  0  0  0  0  0
   -6.9100   18.9710  -32.7610 C   0  0  0  0  0  0  0  0  0  0  0  0
   -5.9980   18.0120  -33.2180 C   0  0  0  0  0  0  0  0  0  0  0  0
   -4.7770   18.4140  -33.7530 C   0  0  0  0  0  0  0  0  0  0  0  0
   -4.4700   19.7720  -33.8180 C   0  0  0  0  0  0  0  0  0  0  0  0
   -5.3580   20.7030  -33.3740 N   0  0  0  0  0  0  0  0  0  0  0  0
   -6.5790   20.3470  -32.8610 C   0  0  0  0  0  0  0  0  0  0  0  0
   -1.5578   24.9985  -27.8029 H   0  0  0  0  0  0  0  0  0  0  0  0
   -0.7847   24.4926  -29.3433 H   0  0  0  0  0  0  0  0  0  0  0  0
   -2.0146   25.8017  -29.3433 H   0  0  0  0  0  0  0  0  0  0  0  0
   -2.3522   22.8156  -29.0739 H   0  0  0  0  0  0  0  0  0  0  0  0
   -3.3390   23.8399  -26.9911 H   0  0  0  0  0  0  0  0  0  0  0  0
   -4.4323   24.8053  -28.0397 H   0  0  0  0  0  0  0  0  0  0  0  0
   -4.5399   23.0122  -28.0397 H   0  0  0  0  0  0  0  0  0  0  0  0
   -2.7407   23.7862  -31.2576 H   0  0  0  0  0  0  0  0  0  0  0  0
   -4.3042   23.2144  -30.5456 H   0  0  0  0  0  0  0  0  0  0  0  0
   -3.7820   25.6480  -31.5910 H   0  0  0  0  0  0  0  0  0  0  0  0
   -5.9081   25.7203  -29.7016 H   0  0  0  0  0  0  0  0  0  0  0  0
   -5.9303   25.8010  -31.5016 H   0  0  0  0  0  0  0  0  0  0  0  0
   -5.2750   23.1935  -31.2055 H   0  0  0  0  0  0  0  0  0  0  0  0
   -6.1943   23.4536  -29.6610 H   0  0  0  0  0  0  0  0  0  0  0  0
   -8.1383   23.3215  -30.7499 H   0  0  0  0  0  0  0  0  0  0  0  0
   -7.6324   24.6590  -31.8532 H   0  0  0  0  0  0  0  0  0  0  0  0
   -6.8430   23.0780  -33.4500 H   0  0  0  0  0  0  0  0  0  0  0  0
   -9.4430   21.6445  -31.4806 H   0  0  0  0  0  0  0  0  0  0  0  0
   -9.9874   19.2275  -31.2985 H   0  0  0  0  0  0  0  0  0  0  0  0
   -8.3868   17.5111  -32.1282 H   0  0  0  0  0  0  0  0  0  0  0  0
   -6.2458   16.9422  -33.1545 H   0  0  0  0  0  0  0  0  0  0  0  0
   -4.0601   17.6655  -34.1216 H   0  0  0  0  0  0  0  0  0  0  0  0
   -3.5027   20.0938  -34.2313 H   0  0  0  0  0  0  0  0  0  0  0  0
   -5.0620   21.7010  -33.4230 H   0  0  0  0  0  0  0  0  0  0  0  0
  1  2  1  0
  2  3  1  0
  2  4  1  0
  4  5  1  0
  5  6  1  0
  6  7  1  0
  7  8  1  0
  8  9  1  0
  9 10  1  0
 10 11  2  0
 11 12  1  0
 12 13  2  0
 13 14  1  0
 14 15  2  0
 15 16  1  0
 16 17  2  0
 17 18  1  0
 18 19  2  0
 19 10  1  0
 19 14  1  0
  1 20  1  0
  1 21  1  0
  1 22  1  0
  2 23  1  0
  3 24  1  0
  3 25  1  0
  3 26  1  0
  4 27  1  0
  4 28  1  0
  5 29  1  0
  6 30  1  0
  6 31  1  0
  7 32  1  0
  7 33  1  0
  8 34  1  0
  8 35  1  0
  9 36  1  0
 11 37  1  0
 12 38  1  0
 13 39  1  0
 15 40  1  0
 16 41  1  0
 17 42  1  0
 18 43  1  0
M  CHG  1  18   1
M  END
>  <UniqueID>  (16) 
16

>  <SMILES>  (16) 
CC(C)CNCCCNc1cccc2ccc[nH+]c12

>  <Energy>  (16) 
40.530001031107695

>  <Genealogy>  (16) 
CC(C)CNCCCNc1cccc2ccc[nH+]c12 (protonated)
CC(C)CNCCCNc1cccc2ccc[nH+]c12 (3D coordinates assigned)
CC(C)CNCCCNc1cccc2ccc[nH+]c12 (optimized conformer: 40.530001031107695 kcal/mol)

>  <smiles>  (16) 
CC(C)CNCCCNc1cccc2cccnc12

>  <score_type>  (16) 
oracle

>  <origin>  (16) 
adg

>  <m_score__min__energy>  (16) 
-7.8600000000000003

>  <m_primary>  (16) 
energy

$$$$
16:0
     RDKit          3D

 39 41  0  0  0  0  0  0  0  0999 V2000
   -6.1260   25.7290  -29.4950 C   0  0  0  0  0  0  0  0  0  0  0  0
   -5.9380   24.5140  -30.3620 C   0  0  0  0  0  0  0  0  0  0  0  0
   -7.0470   23.7260  -30.7160 C   0  0  0  0  0  0  0  0  0  0  0  0
   -6.8840   22.5970  -31.5250 C   0  0  0  0  0  0  0  0  0  0  0  0
   -8.2740   21.6200  -31.9600 Cl  0  0  0  0  0  0  0  0  0  0  0  0
   -5.6130   22.2410  -31.9790 C   0  0  0  0  0  0  0  0  0  0  0  0
   -4.5030   23.0150  -31.6320 C   0  0  0  0  0  0  0  0  0  0  0  0
   -4.6570   24.1670  -30.8410 C   0  0  0  0  0  0  0  0  0  0  0  0
   -3.5180   24.9490  -30.4510 N   0  0  0  0  0  0  0  0  0  0  0  0
   -2.7920   24.8290  -29.2220 C   0  0  0  0  0  0  0  0  0  0  0  0
   -1.8770   25.6590  -28.9720 O   0  0  0  0  0  0  0  0  0  0  0  0
   -3.0440   23.7030  -28.2580 C   0  0  0  0  0  0  0  0  0  0  0  0
   -2.2170   22.5110  -28.6250 C   0  0  0  0  0  0  0  0  0  0  0  0
   -1.6740   22.2590  -29.8800 C   0  0  0  0  0  0  0  0  0  0  0  0
   -0.8900   21.0990  -29.9210 C   0  0  0  0  0  0  0  0  0  0  0  0
   -0.8100   20.4520  -28.6900 C   0  0  0  0  0  0  0  0  0  0  0  0
   -0.0980   19.2340  -28.4090 N   0  0  0  0  0  0  0  0  0  0  0  0
    1.1130   18.8300  -29.1050 C   0  0  0  0  0  0  0  0  0  0  0  0
    1.5750   17.5180  -28.4440 C   0  0  0  0  0  0  0  0  0  0  0  0
    0.4690   17.0820  -27.4710 C   0  0  0  0  0  0  0  0  0  0  0  0
   -0.4740   18.2170  -27.4950 C   0  0  0  0  0  0  0  0  0  0  0  0
   -1.5300   18.2490  -26.8110 O   0  0  0  0  0  0  0  0  0  0  0  0
   -1.7180   21.3100  -27.5600 S   0  0  0  0  0  0  0  0  0  0  0  0
   -6.0804   25.4345  -28.4361 H   0  0  0  0  0  0  0  0  0  0  0  0
   -5.3299   26.4578  -29.7075 H   0  0  0  0  0  0  0  0  0  0  0  0
   -7.1051   26.1831  -29.7075 H   0  0  0  0  0  0  0  0  0  0  0  0
   -8.0493   23.9992  -30.3544 H   0  0  0  0  0  0  0  0  0  0  0  0
   -5.4852   21.3497  -32.6109 H   0  0  0  0  0  0  0  0  0  0  0  0
   -3.5017   22.7211  -31.9800 H   0  0  0  0  0  0  0  0  0  0  0  0
   -2.7793   24.0294  -27.2414 H   0  0  0  0  0  0  0  0  0  0  0  0
   -4.1080   23.4272  -28.2998 H   0  0  0  0  0  0  0  0  0  0  0  0
   -1.8432   22.9060  -30.7534 H   0  0  0  0  0  0  0  0  0  0  0  0
   -0.3894   20.7365  -30.8309 H   0  0  0  0  0  0  0  0  0  0  0  0
    0.9020   18.6651  -30.1719 H   0  0  0  0  0  0  0  0  0  0  0  0
    1.8898   19.6060  -29.0385 H   0  0  0  0  0  0  0  0  0  0  0  0
    1.7285   16.7441  -29.2105 H   0  0  0  0  0  0  0  0  0  0  0  0
    2.5264   17.6643  -27.9116 H   0  0  0  0  0  0  0  0  0  0  0  0
   -0.0179   16.1582  -27.8168 H   0  0  0  0  0  0  0  0  0  0  0  0
    0.8474   16.8591  -26.4625 H   0  0  0  0  0  0  0  0  0  0  0  0
  1  2  1  0
  2  3  2  0
  3  4  1  0
  4  5  1  0
  4  6  2  0
  6  7  1  0
  7  8  2  0
  8  9  1  0
  9 10  1  0
 10 11  2  0
 10 12  1  0
 12 13  1  0
 13 14  2  0
 14 15  1  0
 15 16  2  0
 16 17  1  0
 17 18  1  0
 18 19  1  0
 19 20  1  0
 20 21  1  0
 21 22  2  0
 16 23  1  0
  8  2  1  0
 23 13  1  0
 21 17  1  0
  1 24  1  0
  1 25  1  0
  1 26  1  0
  3 27  1  0
  6 28  1  0
  7 29  1  0
 12 30  1  0
 12 31  1  0
 14 32  1  0
 15 33  1  0
 18 34  1  0
 18 35  1  0
 19 36  1  0
 19 37  1  0
 20 38  1  0
 20 39  1  0
M  CHG  1   9  -1
M  END
>  <UniqueID>  (17) 
17

>  <SMILES>  (17) 
Cc1cc(Cl)ccc1[N-]C(=O)Cc1ccc(N2CCCC2=O)s1

>  <Energy>  (17) 
77.89565343506436

>  <Genealogy>  (17) 
Cc1cc(Cl)ccc1[N-]C(=O)Cc1ccc(N2CCCC2=O)s1 (protonated)
Cc1cc(Cl)ccc1[N-]C(=O)Cc1ccc(N2CCCC2=O)s1 (3D coordinates assigned)
Cc1cc(Cl)ccc1[N-]C(=O)Cc1ccc(N2CCCC2=O)s1 (nonaromatic ring conformer: 77.89565343506436 kcal/mol)

>  <smiles>  (17) 
Cc1cc(Cl)ccc1NC(=O)Cc1ccc(N2CCCC2=O)s1

>  <score_type>  (17) 
oracle

>  <origin>  (17) 
adg

>  <m_score__min__energy>  (17) 
-10.09

>  <m_primary>  (17) 
energy

$$$$
17:0
     RDKit          3D

 31 33  0  0  0  0  0  0  0  0999 V2000
   -5.3067   18.5260  -34.5090 H   0  0  0  0  0  0  0  0  0  0  0  0
   -5.5010   19.3620  -33.8210 C   0  0  0  0  0  0  0  0  0  0  0  0
   -4.4450   20.1520  -33.3710 C   0  0  0  0  0  0  0  0  0  0  0  0
   -3.4178   19.9285  -33.6949 H   0  0  0  0  0  0  0  0  0  0  0  0
   -4.6840   21.2260  -32.5110 C   0  0  0  0  0  0  0  0  0  0  0  0
   -3.8401   21.8337  -32.1525 H   0  0  0  0  0  0  0  0  0  0  0  0
   -5.9980   21.5410  -32.0960 C   0  0  0  0  0  0  0  0  0  0  0  0
   -6.2870   22.6330  -31.2310 C   0  0  0  0  0  0  0  0  0  0  0  0
   -5.2700   23.6210  -30.7960 C   0  0  0  0  0  0  0  0  0  0  0  0
   -5.2200   24.8960  -31.2410 N   0  0  0  0  0  0  0  0  0  0  0  0
   -4.1680   25.4410  -30.6570 N   0  0  0  0  0  0  0  0  0  0  0  0
   -3.8630   26.4300  -30.7930 H   0  0  0  0  0  0  0  0  0  0  0  0
   -3.6100   24.4880  -29.8890 C   0  0  0  0  0  0  0  0  0  0  0  0
   -2.5490   24.6390  -29.1510 N   0  0  0  0  0  0  0  0  0  0  0  0
   -2.4630   24.3310  -27.7240 C   0  0  0  0  0  0  0  0  0  0  0  0
   -1.8626   25.1048  -27.2232 H   0  0  0  0  0  0  0  0  0  0  0  0
   -1.9920   23.3443  -27.6032 H   0  0  0  0  0  0  0  0  0  0  0  0
   -3.8520   24.2910  -27.0960 C   0  0  0  0  0  0  0  0  0  0  0  0
   -3.7591   24.2937  -25.9999 H   0  0  0  0  0  0  0  0  0  0  0  0
   -4.4253   25.1730  -27.4175 H   0  0  0  0  0  0  0  0  0  0  0  0
   -4.3736   23.3775  -27.4175 H   0  0  0  0  0  0  0  0  0  0  0  0
   -4.2780   23.3660  -29.9690 O   0  0  0  0  0  0  0  0  0  0  0  0
   -7.6070   22.8220  -30.7840 C   0  0  0  0  0  0  0  0  0  0  0  0
   -7.8310   23.6439  -30.0880 H   0  0  0  0  0  0  0  0  0  0  0  0
   -8.6360   21.9830  -31.2100 C   0  0  0  0  0  0  0  0  0  0  0  0
   -9.6620   22.1477  -30.8492 H   0  0  0  0  0  0  0  0  0  0  0  0
   -8.3700   20.9380  -32.0900 C   0  0  0  0  0  0  0  0  0  0  0  0
   -9.1904   20.2936  -32.4387 H   0  0  0  0  0  0  0  0  0  0  0  0
   -7.0610   20.7030  -32.5340 C   0  0  0  0  0  0  0  0  0  0  0  0
   -6.8030   19.6290  -33.4010 C   0  0  0  0  0  0  0  0  0  0  0  0
   -7.6319   18.9957  -33.7502 H   0  0  0  0  0  0  0  0  0  0  0  0
  1  2  1  0
  2  3  2  0
  3  4  1  0
  3  5  1  0
  5  6  1  0
  5  7  2  0
  7  8  1  0
  8  9  1  0
  9 10  2  0
 10 11  1  0
 11 12  1  0
 11 13  1  0
 13 14  2  0
 14 15  1  0
 15 16  1  0
 15 17  1  0
 15 18  1  0
 18 19  1  0
 18 20  1  0
 18 21  1  0
 13 22  1  0
  8 23  2  0
 23 24  1  0
 23 25  1  0
 25 26  1  0
 25 27  2  0
 27 28  1  0
 27 29  1  0
 29 30  2  0
 30 31  1  0
 30  2  1  0
 29  7  1  0
 22  9  1  0
M  END
>  <UniqueID>  (18) 
18

>  <SMILES>  (18) 
CC/N=c1\[nH]nc(-c2cccc3ccccc23)o1

>  <Energy>  (18) 
76.53746910742338

>  <Genealogy>  (18) 
CC/N=c1\[nH]nc(-c2cccc3ccccc23)o1 (cis-trans isomerization)
CC/N=c1\[nH]nc(-c2cccc3ccccc23)o1 (3D coordinates assigned)
CC/N=c1\[nH]nc(-c2cccc3ccccc23)o1 (optimized conformer: 76.53746910742338 kcal/mol)

>  <smiles>  (18) 
CCN=c1[nH]nc(-c2cccc3ccccc23)o1

>  <score_type>  (18) 
oracle

>  <origin>  (18) 
adg

>  <m_score__min__energy>  (18) 
-7.79

>  <m_primary>  (18) 
energy

$$$$
18:0
     RDKit          3D

 56 58  0  0  0  0  0  0  0  0999 V2000
   -3.1210   21.4200  -29.5510 C   0  0  0  0  0  0  0  0  0  0  0  0
   -2.2130   22.4220  -30.2770 C   0  0  0  0  0  0  0  0  0  0  0  0
   -0.8360   21.7860  -30.5240 C   0  0  0  0  0  0  0  0  0  0  0  0
   -2.1030   23.7250  -29.4550 C   0  0  0  0  0  0  0  0  0  0  0  0
   -3.4660   24.3960  -29.2020 C   0  0  0  0  0  0  0  0  0  0  0  0
   -3.8620   25.2720  -30.3220 N   0  0  0  0  0  0  0  0  0  0  0  0
   -5.3060   25.5590  -30.3750 C   0  0  0  0  0  0  0  0  0  0  0  0
   -6.1070   24.5700  -31.2430 C   0  0  0  0  0  0  0  0  0  0  0  0
   -5.4450   23.1870  -31.3460 C   0  0  0  0  0  0  0  0  0  0  0  0
   -5.6100   22.6300  -32.6980 N   0  0  0  0  0  0  0  0  0  0  0  0
   -5.5490   21.1750  -32.6620 C   0  0  0  0  0  0  0  0  0  0  0  0
   -6.7110   20.4110  -32.3690 C   0  0  0  0  0  0  0  0  0  0  0  0
   -7.9320   21.0250  -31.9930 C   0  0  0  0  0  0  0  0  0  0  0  0
   -9.0870   20.2730  -31.8000 C   0  0  0  0  0  0  0  0  0  0  0  0
   -9.0610   18.8990  -31.9840 C   0  0  0  0  0  0  0  0  0  0  0  0
   -7.8670   18.2610  -32.3070 C   0  0  0  0  0  0  0  0  0  0  0  0
   -6.6560   18.9900  -32.4500 C   0  0  0  0  0  0  0  0  0  0  0  0
   -5.4540   18.3480  -32.6710 N   0  0  0  0  0  0  0  0  0  0  0  0
   -5.3490   16.8870  -32.4530 C   0  0  0  0  0  0  0  0  0  0  0  0
   -4.3370   19.0700  -33.0370 C   0  0  0  0  0  0  0  0  0  0  0  0
   -3.1600   18.4230  -33.5020 C   0  0  0  0  0  0  0  0  0  0  0  0
   -2.0000   19.1420  -33.7730 C   0  0  0  0  0  0  0  0  0  0  0  0
   -1.9770   20.5160  -33.5960 C   0  0  0  0  0  0  0  0  0  0  0  0
   -3.1290   21.1890  -33.1990 C   0  0  0  0  0  0  0  0  0  0  0  0
   -4.3410   20.4920  -32.9650 C   0  0  0  0  0  0  0  0  0  0  0  0
   -3.0085   21.5441  -28.4638 H   0  0  0  0  0  0  0  0  0  0  0  0
   -4.1682   21.6020  -29.8344 H   0  0  0  0  0  0  0  0  0  0  0  0
   -2.8371   20.3958  -29.8344 H   0  0  0  0  0  0  0  0  0  0  0  0
   -2.6476   22.6801  -31.2540 H   0  0  0  0  0  0  0  0  0  0  0  0
   -0.3561   21.5644  -29.5593 H   0  0  0  0  0  0  0  0  0  0  0  0
   -0.9597   20.8538  -31.0947 H   0  0  0  0  0  0  0  0  0  0  0  0
   -0.2065   22.4846  -31.0947 H   0  0  0  0  0  0  0  0  0  0  0  0
   -1.6434   23.4887  -28.4840 H   0  0  0  0  0  0  0  0  0  0  0  0
   -1.4931   24.4305  -30.0383 H   0  0  0  0  0  0  0  0  0  0  0  0
   -4.2294   23.6144  -29.0742 H   0  0  0  0  0  0  0  0  0  0  0  0
   -3.3793   25.0157  -28.2973 H   0  0  0  0  0  0  0  0  0  0  0  0
   -3.5140   24.9290  -31.2470 H   0  0  0  0  0  0  0  0  0  0  0  0
   -5.7044   25.5220  -29.3504 H   0  0  0  0  0  0  0  0  0  0  0  0
   -5.4178   26.5516  -30.8357 H   0  0  0  0  0  0  0  0  0  0  0  0
   -7.1073   24.4476  -30.8021 H   0  0  0  0  0  0  0  0  0  0  0  0
   -6.1539   24.9883  -32.2593 H   0  0  0  0  0  0  0  0  0  0  0  0
   -4.3720   23.2830  -31.1236 H   0  0  0  0  0  0  0  0  0  0  0  0
   -5.9257   22.5105  -30.6240 H   0  0  0  0  0  0  0  0  0  0  0  0
   -4.8920   23.0250  -33.3430 H   0  0  0  0  0  0  0  0  0  0  0  0
   -6.5050   22.9550  -33.1250 H   0  0  0  0  0  0  0  0  0  0  0  0
   -7.9672   22.1153  -31.8512 H   0  0  0  0  0  0  0  0  0  0  0  0
  -10.0220   20.7694  -31.5010 H   0  0  0  0  0  0  0  0  0  0  0  0
   -9.9851   18.3125  -31.8746 H   0  0  0  0  0  0  0  0  0  0  0  0
   -7.8608   17.1709  -32.4545 H   0  0  0  0  0  0  0  0  0  0  0  0
   -5.3339   16.6775  -31.3732 H   0  0  0  0  0  0  0  0  0  0  0  0
   -6.2134   16.3847  -32.9119 H   0  0  0  0  0  0  0  0  0  0  0  0
   -4.4217   16.5135  -32.9119 H   0  0  0  0  0  0  0  0  0  0  0  0
   -3.1663   17.3331  -33.6505 H   0  0  0  0  0  0  0  0  0  0  0  0
   -1.0999   18.6189  -34.1283 H   0  0  0  0  0  0  0  0  0  0  0  0
   -1.0464   21.0762  -33.7696 H   0  0  0  0  0  0  0  0  0  0  0  0
   -3.0983   22.2803  -33.0646 H   0  0  0  0  0  0  0  0  0  0  0  0
  1  2  1  0
  2  3  1  0
  2  4  1  0
  4  5  1  0
  5  6  1  0
  6  7  1  0
  7  8  1  0
  8  9  1  0
  9 10  1  0
 10 11  1  0
 11 12  2  0
 12 13  1  0
 13 14  2  0
 14 15  1  0
 15 16  2  0
 16 17  1  0
 17 18  2  0
 18 19  1  0
 18 20  1  0
 20 21  2  0
 21 22  1  0
 22 23  2  0
 23 24  1  0
 24 25  2  0
 25 11  1  0
 17 12  1  0
 25 20  1  0
  1 26  1  0
  1 27  1  0
  1 28  1  0
  2 29  1  0
  3 30  1  0
  3 31  1  0
  3 32  1  0
  4 33  1  0
  4 34  1  0
  5 35  1  0
  5 36  1  0
  6 37  1  0
  7 38  1  0
  7 39  1  0
  8 40  1  0
  8 41  1  0
  9 42  1  0
  9 43  1  0
 10 44  1  0
 10 45  1  0
 13 46  1  0
 14 47  1  0
 15 48  1  0
 16 49  1  0
 19 50  1  0
 19 51  1  0
 19 52  1  0
 21 53  1  0
 22 54  1  0
 23 55  1  0
 24 56  1  0
M  CHG  2  10   1  18   1
M  END
>  <UniqueID>  (19) 
19

>  <SMILES>  (19) 
CC(C)CCNCCC[NH2+]c1c2ccccc2[n+](C)c2ccccc12

>  <Energy>  (19) 
77.8793476316546

>  <Genealogy>  (19) 
CC(C)CCNCCC[NH2+]c1c2ccccc2[n+](C)c2ccccc12 (protonated)
CC(C)CCNCCC[NH2+]c1c2ccccc2[n+](C)c2ccccc12 (3D coordinates assigned)
CC(C)CCNCCC[NH2+]c1c2ccccc2[n+](C)c2ccccc12 (optimized conformer: 77.8793476316546 kcal/mol)

>  <smiles>  (19) 
CC(C)CCNCCCNc1c2ccccc2[n+](C)c2ccccc12

>  <score_type>  (19) 
oracle

>  <origin>  (19) 
adg

>  <m_score__min__energy>  (19) 
-8.6199999999999992

>  <m_primary>  (19) 
energy

$$$$
19:0
     RDKit          3D

 61 64  0  0  1  0  0  0  0  0999 V2000
   -3.2120   18.9070  -26.3360 C   0  0  0  0  0  0  0  0  0  0  0  0
   -1.8090   18.5750  -26.7760 C   0  0  0  0  0  0  0  0  0  0  0  0
   -1.5290   19.2190  -28.0110 O   0  0  0  0  0  0  0  0  0  0  0  0
   -1.8240   20.5360  -28.2890 C   0  0  0  0  0  0  0  0  0  0  0  0
   -1.1280   21.6180  -27.8330 C   0  0  0  0  0  0  0  0  0  0  0  0
   -1.5110   22.9080  -28.1740 C   0  0  0  0  0  0  0  0  0  0  0  0
   -2.6010   23.1660  -28.9820 C   0  0  0  0  0  0  0  0  0  0  0  0
   -2.9670   24.5450  -29.3190 C   0  0  0  0  0  0  0  0  0  0  0  0
   -3.8260   24.7540  -30.3860 N   0  0  0  0  0  0  0  0  0  0  0  0
   -5.1550   25.2000  -30.1140 C   0  0  0  0  0  0  0  0  0  0  0  0
   -6.1120   24.3090  -30.8780 C   0  0  0  0  0  0  0  0  0  0  0  0
   -5.5750   23.5340  -31.8640 O   0  0  0  0  0  0  0  0  0  0  0  0
   -5.7510   22.2820  -32.3200 C   0  0  0  0  0  0  0  0  0  0  0  0
   -4.7350   21.4430  -32.8170 C   0  0  0  0  0  0  0  0  0  0  0  0
   -5.0470   20.1860  -33.2540 C   0  0  0  0  0  0  0  0  0  0  0  0
   -4.0770   19.3470  -33.7430 C   0  0  0  0  0  0  0  0  0  0  0  0
   -2.8890   19.6540  -33.7210 N   0  0  0  0  0  0  0  0  0  0  0  0
   -1.9520   19.7900  -32.7580 C   0  0  0  0  0  0  0  0  0  0  0  0
   -1.4080   21.0460  -32.3810 C   0  0  0  0  0  0  0  0  0  0  0  0
   -0.3540   21.0880  -31.4660 C   0  0  0  0  0  0  0  0  0  0  0  0
    0.1820   19.9470  -30.9120 C   0  0  0  0  0  0  0  0  0  0  0  0
    1.2040   19.9550  -30.0220 F   0  0  0  0  0  0  0  0  0  0  0  0
   -0.3470   18.7260  -31.2790 C   0  0  0  0  0  0  0  0  0  0  0  0
    0.3010   17.2290  -30.5990 Cl  0  0  0  0  0  0  0  0  0  0  0  0
   -1.3910   18.6200  -32.1800 C   0  0  0  0  0  0  0  0  0  0  0  0
   -4.3890   18.0900  -34.1930 N   0  0  0  0  0  0  0  0  0  0  0  0
   -5.6600   17.6960  -34.1400 C   0  0  0  0  0  0  0  0  0  0  0  0
   -6.6600   18.4590  -33.6710 N   0  0  0  0  0  0  0  0  0  0  0  0
   -6.3260   19.6880  -33.2380 C   0  0  0  0  0  0  0  0  0  0  0  0
   -7.3320   20.4830  -32.7610 C   0  0  0  0  0  0  0  0  0  0  0  0
   -7.0070   21.7350  -32.3250 C   0  0  0  0  0  0  0  0  0  0  0  0
   -8.0290   22.5330  -31.8400 O   0  0  0  0  0  0  0  0  0  0  0  0
   -9.2510   21.9070  -31.4960 C   0  0  0  0  0  0  0  0  0  0  0  0
   -3.3020   22.0660  -29.4420 C   0  0  0  0  0  0  0  0  0  0  0  0
   -2.9210   20.7760  -29.1020 C   0  0  0  0  0  0  0  0  0  0  0  0
   -3.2587   18.9180  -25.2370 H   0  0  0  0  0  0  0  0  0  0  0  0
   -3.4937   19.8966  -26.7249 H   0  0  0  0  0  0  0  0  0  0  0  0
   -3.9074   18.1486  -26.7249 H   0  0  0  0  0  0  0  0  0  0  0  0
   -1.0954   18.9205  -26.0135 H   0  0  0  0  0  0  0  0  0  0  0  0
   -1.7154   17.4864  -26.9036 H   0  0  0  0  0  0  0  0  0  0  0  0
   -0.2513   21.4657  -27.1863 H   0  0  0  0  0  0  0  0  0  0  0  0
   -0.9255   23.7549  -27.7869 H   0  0  0  0  0  0  0  0  0  0  0  0
   -3.4411   24.9832  -28.4284 H   0  0  0  0  0  0  0  0  0  0  0  0
   -2.0209   25.0072  -29.6372 H   0  0  0  0  0  0  0  0  0  0  0  0
   -3.4620   24.9590  -31.3110 H   0  0  0  0  0  0  0  0  0  0  0  0
   -5.3593   25.1294  -29.0354 H   0  0  0  0  0  0  0  0  0  0  0  0
   -5.2778   26.2482  -30.4242 H   0  0  0  0  0  0  0  0  0  0  0  0
   -6.5936   23.6376  -30.1518 H   0  0  0  0  0  0  0  0  0  0  0  0
   -6.7977   24.9975  -31.3936 H   0  0  0  0  0  0  0  0  0  0  0  0
   -3.6944   21.7978  -32.8534 H   0  0  0  0  0  0  0  0  0  0  0  0
   -1.8127   21.9766  -32.8054 H   0  0  0  0  0  0  0  0  0  0  0  0
    0.0619   22.0649  -31.1783 H   0  0  0  0  0  0  0  0  0  0  0  0
   -1.7869   17.6296  -32.4490 H   0  0  0  0  0  0  0  0  0  0  0  0
   -5.9047   16.6864  -34.5016 H   0  0  0  0  0  0  0  0  0  0  0  0
   -7.6360   18.1170  -33.6450 H   0  0  0  0  0  0  0  0  0  0  0  0
   -8.3713   20.1241  -32.7298 H   0  0  0  0  0  0  0  0  0  0  0  0
   -9.3432   21.8598  -30.4009 H   0  0  0  0  0  0  0  0  0  0  0  0
  -10.0892   22.4867  -31.9099 H   0  0  0  0  0  0  0  0  0  0  0  0
   -9.2702   20.8880  -31.9099 H   0  0  0  0  0  0  0  0  0  0  0  0
   -4.1782   22.2168  -30.0897 H   0  0  0  0  0  0  0  0  0  0  0  0
   -3.5023   19.9247  -29.4860 H   0  0  0  0  0  0  0  0  0  0  0  0
  1  2  1  0
  2  3  1  0
  3  4  1  0
  4  5  2  0
  5  6  1  0
  6  7  2  0
  7  8  1  0
  8  9  1  0
  9 10  1  0
 10 11  1  0
 11 12  1  0
 12 13  1  0
 13 14  2  0
 14 15  1  0
 15 16  1  0
 16 17  2  0
 17 18  1  0
 18 19  2  0
 19 20  1  0
 20 21  2  0
 21 22  1  0
 21 23  1  0
 23 24  1  0
 23 25  2  0
 16 26  1  0
 26 27  2  0
 27 28  1  0
 28 29  1  0
 29 30  1  0
 30 31  2  0
 31 32  1  0
 32 33  1  0
  7 34  1  0
 34 35  2  0
 35  4  1  0
 31 13  1  0
 29 15  2  0
 25 18  1  0
  1 36  1  0
  1 37  1  0
  1 38  1  0
  2 39  1  0
  2 40  1  0
  5 41  1  0
  6 42  1  0
  8 43  1  0
  8 44  1  0
  9 45  1  0
 10 46  1  0
 10 47  1  0
 11 48  1  0
 11 49  1  0
 14 50  1  0
 19 51  1  0
 20 52  1  0
 25 53  1  0
 27 54  1  0
 28 55  1  0
 30 56  1  0
 33 57  1  0
 33 58  1  0
 33 59  1  0
 34 60  1  0
 35 61  1  0
M  END
>  <smiles>  (20) 
CCOc1ccc(CNCCOc2cc3c(=Nc4ccc(F)c(Cl)c4)nc[nH]c3cc2OC)cc1

>  <score_type>  (20) 
oracle

>  <origin>  (20) 
adg

>  <m_score__min__energy>  (20) 
-9.4800000000000004

>  <m_primary>  (20) 
energy

$$$$
20:0
     RDKit          3D

 43 46  0  0  0  0  0  0  0  0999 V2000
   -6.4750   25.6750  -29.7010 C   0  0  0  0  0  0  0  0  0  0  0  0
   -5.5890   24.7400  -30.3870 N   0  0  0  0  0  0  0  0  0  0  0  0
   -4.2700   24.7940  -30.3540 N   0  0  0  0  0  0  0  0  0  0  0  0
   -3.7860   23.8950  -31.2010 N   0  0  0  0  0  0  0  0  0  0  0  0
   -4.7810   23.2520  -31.8020 N   0  0  0  0  0  0  0  0  0  0  0  0
   -5.9040   23.7930  -31.2890 C   0  0  0  0  0  0  0  0  0  0  0  0
   -7.5660   23.3450  -31.8000 S   0  0  0  0  0  0  0  0  0  0  0  0
   -7.8840   22.2380  -30.3800 C   0  0  0  0  0  0  0  0  0  0  0  0
   -8.9780   21.2140  -30.7100 C   0  0  0  0  0  0  0  0  0  0  0  0
   -9.2030   21.0350  -32.2230 C   0  0  0  0  0  0  0  0  0  0  0  0
   -8.5810   19.7900  -32.7210 N   0  0  0  0  0  0  0  0  0  0  0  0
   -8.2160   18.8490  -31.6460 C   0  0  0  0  0  0  0  0  0  0  0  0
   -6.9300   18.1460  -32.0490 C   0  0  1  0  0  0  0  0  0  0  0  0
   -6.9160   17.4860  -33.4210 C   0  0  0  0  0  0  0  0  0  0  0  0
   -6.3940   18.9070  -33.2360 C   0  0  2  0  0  0  0  0  0  0  0  0
   -4.9060   19.1370  -33.2340 C   0  0  0  0  0  0  0  0  0  0  0  0
   -4.0320   18.0760  -33.5190 C   0  0  0  0  0  0  0  0  0  0  0  0
   -2.6510   18.2930  -33.5600 C   0  0  0  0  0  0  0  0  0  0  0  0
   -2.1350   19.5710  -33.3310 C   0  0  0  0  0  0  0  0  0  0  0  0
   -3.0000   20.6380  -33.0660 C   0  0  0  0  0  0  0  0  0  0  0  0
   -2.4980   21.8780  -32.8480 F   0  0  0  0  0  0  0  0  0  0  0  0
   -4.3810   20.4230  -33.0210 C   0  0  0  0  0  0  0  0  0  0  0  0
   -7.3480   20.0650  -33.4750 C   0  0  0  0  0  0  0  0  0  0  0  0
   -6.3623   25.5561  -28.6133 H   0  0  0  0  0  0  0  0  0  0  0  0
   -6.2133   26.7046  -29.9863 H   0  0  0  0  0  0  0  0  0  0  0  0
   -7.5172   25.4691  -29.9863 H   0  0  0  0  0  0  0  0  0  0  0  0
   -6.9566   21.7034  -30.1268 H   0  0  0  0  0  0  0  0  0  0  0  0
   -8.2232   22.8491  -29.5306 H   0  0  0  0  0  0  0  0  0  0  0  0
   -8.6888   20.2428  -30.2820 H   0  0  0  0  0  0  0  0  0  0  0  0
   -9.9186   21.5900  -30.2812 H   0  0  0  0  0  0  0  0  0  0  0  0
  -10.2843   20.9982  -32.4214 H   0  0  0  0  0  0  0  0  0  0  0  0
   -8.7374   21.8849  -32.7435 H   0  0  0  0  0  0  0  0  0  0  0  0
   -8.0613   19.3989  -30.7060 H   0  0  0  0  0  0  0  0  0  0  0  0
   -9.0202   18.1140  -31.4941 H   0  0  0  0  0  0  0  0  0  0  0  0
   -6.5977   17.7778  -31.0671 H   0  0  0  0  0  0  0  0  0  0  0  0
   -6.2159   16.6639  -33.6308 H   0  0  0  0  0  0  0  0  0  0  0  0
   -7.6676   17.0070  -34.0658 H   0  0  0  0  0  0  0  0  0  0  0  0
   -4.4348   17.0705  -33.7107 H   0  0  0  0  0  0  0  0  0  0  0  0
   -1.9698   17.4559  -33.7729 H   0  0  0  0  0  0  0  0  0  0  0  0
   -1.0482   19.7383  -33.3591 H   0  0  0  0  0  0  0  0  0  0  0  0
   -5.0596   21.2645  -32.8179 H   0  0  0  0  0  0  0  0  0  0  0  0
   -6.8945   21.0032  -33.1226 H   0  0  0  0  0  0  0  0  0  0  0  0
   -7.5670   20.1693  -34.5479 H   0  0  0  0  0  0  0  0  0  0  0  0
  1  2  1  0
  2  3  1  0
  3  4  2  0
  4  5  1  0
  5  6  2  0
  6  7  1  0
  7  8  1  0
  8  9  1  0
  9 10  1  0
 10 11  1  0
 11 12  1  0
 12 13  1  0
 13 14  1  0
 14 15  1  0
 15 16  1  1
 16 17  2  0
 17 18  1  0
 18 19  2  0
 19 20  1  0
 20 21  1  0
 20 22  2  0
 15 23  1  0
  6  2  1  0
 23 11  1  0
 15 13  1  0
 22 16  1  0
  1 24  1  0
  1 25  1  0
  1 26  1  0
  8 27  1  0
  8 28  1  0
  9 29  1  0
  9 30  1  0
 10 31  1  0
 10 32  1  0
 12 33  1  0
 12 34  1  0
 13 35  1  1
 14 36  1  0
 14 37  1  0
 17 38  1  0
 18 39  1  0
 19 40  1  0
 22 41  1  0
 23 42  1  0
 23 43  1  0
M  END
>  <UniqueID>  (21) 
20

>  <SMILES>  (21) 
Cn1nnnc1SCCCN1C[C@H]2C[C@@]2(c2cccc(F)c2)C1

>  <Energy>  (21) 
350.8187916637872

>  <Genealogy>  (21) 
Cn1nnnc1SCCCN1C[C@H]2C[C@@]2(c2cccc(F)c2)C1 (chirality)
Cn1nnnc1SCCCN1C[C@H]2C[C@@]2(c2cccc(F)c2)C1 (3D coordinates assigned)
Cn1nnnc1SCCCN1C[C@H]2C[C@@]2(c2cccc(F)c2)C1 (nonaromatic ring conformer: 350.8187916637872 kcal/mol)

>  <smiles>  (21) 
Cn1nnnc1SCCCN1CC2CC2(c2cccc(F)c2)C1

>  <score_type>  (21) 
oracle

>  <origin>  (21) 
adg

>  <m_score__min__energy>  (21) 
-9.4399999999999995

>  <m_primary>  (21) 
energy

$$$$
21:0
     RDKit          3D

 61 63  0  0  0  0  0  0  0  0999 V2000
   -3.3370   23.6940  -28.6420 C   0  0  0  0  0  0  0  0  0  0  0  0
   -2.3060   23.4240  -29.7270 C   0  0  0  0  0  0  0  0  0  0  0  0
   -2.4380   22.0900  -30.1680 O   0  0  0  0  0  0  0  0  0  0  0  0
   -2.4690   21.2020  -29.0650 C   0  0  0  0  0  0  0  0  0  0  0  0
   -1.4480   20.0790  -29.2490 C   0  0  0  0  0  0  0  0  0  0  0  0
   -1.3190   19.7940  -30.6260 O   0  0  0  0  0  0  0  0  0  0  0  0
    0.0250   19.4720  -30.9240 C   0  0  0  0  0  0  0  0  0  0  0  0
    0.4750   20.2900  -32.1280 C   0  0  0  0  0  0  0  0  0  0  0  0
   -0.5000   21.2750  -32.4120 O   0  0  0  0  0  0  0  0  0  0  0  0
   -0.9560   21.1730  -33.7490 C   0  0  0  0  0  0  0  0  0  0  0  0
   -2.4080   20.6680  -33.8210 C   0  0  0  0  0  0  0  0  0  0  0  0
   -2.9410   20.2860  -32.4990 N   0  0  0  0  0  0  0  0  0  0  0  0
   -4.3920   20.1210  -32.5210 C   0  0  0  0  0  0  0  0  0  0  0  0
   -4.9610   18.8790  -32.9240 C   0  0  0  0  0  0  0  0  0  0  0  0
   -4.1550   17.7760  -33.3100 C   0  0  0  0  0  0  0  0  0  0  0  0
   -4.7210   16.5900  -33.7690 C   0  0  0  0  0  0  0  0  0  0  0  0
   -6.0980   16.4700  -33.8680 C   0  0  0  0  0  0  0  0  0  0  0  0
   -6.9190   17.5200  -33.4690 C   0  0  0  0  0  0  0  0  0  0  0  0
   -6.3760   18.7240  -32.9460 C   0  0  0  0  0  0  0  0  0  0  0  0
   -7.1940   19.7310  -32.4800 N   0  0  0  0  0  0  0  0  0  0  0  0
   -8.6230   19.4510  -32.2000 C   0  0  0  0  0  0  0  0  0  0  0  0
   -6.6790   20.9880  -32.2360 C   0  0  0  0  0  0  0  0  0  0  0  0
   -7.5360   22.1010  -32.0360 C   0  0  0  0  0  0  0  0  0  0  0  0
   -7.0350   23.3540  -31.7070 C   0  0  0  0  0  0  0  0  0  0  0  0
   -5.6580   23.5470  -31.5750 C   0  0  0  0  0  0  0  0  0  0  0  0
   -5.1040   24.7860  -31.2140 O   0  0  0  0  0  0  0  0  0  0  0  0
   -5.7110   25.7110  -30.3150 C   0  0  0  0  0  0  0  0  0  0  0  0
   -4.7920   22.4800  -31.8180 C   0  0  0  0  0  0  0  0  0  0  0  0
   -5.2700   21.1960  -32.1920 C   0  0  0  0  0  0  0  0  0  0  0  0
   -2.8698   23.5717  -27.6537 H   0  0  0  0  0  0  0  0  0  0  0  0
   -3.7159   24.7217  -28.7438 H   0  0  0  0  0  0  0  0  0  0  0  0
   -4.1710   22.9840  -28.7438 H   0  0  0  0  0  0  0  0  0  0  0  0
   -2.4719   24.1092  -30.5714 H   0  0  0  0  0  0  0  0  0  0  0  0
   -1.2946   23.5829  -29.3248 H   0  0  0  0  0  0  0  0  0  0  0  0
   -2.2325   21.7586  -28.1461 H   0  0  0  0  0  0  0  0  0  0  0  0
   -3.4736   20.7596  -28.9942 H   0  0  0  0  0  0  0  0  0  0  0  0
   -0.4750   20.3959  -28.8455 H   0  0  0  0  0  0  0  0  0  0  0  0
   -1.7858   19.1792  -28.7140 H   0  0  0  0  0  0  0  0  0  0  0  0
    0.6616   19.7084  -30.0586 H   0  0  0  0  0  0  0  0  0  0  0  0
    0.1089   18.3990  -31.1510 H   0  0  0  0  0  0  0  0  0  0  0  0
    1.4355   20.7770  -31.9037 H   0  0  0  0  0  0  0  0  0  0  0  0
    0.5972   19.6292  -32.9989 H   0  0  0  0  0  0  0  0  0  0  0  0
   -0.9003   22.1651  -34.2208 H   0  0  0  0  0  0  0  0  0  0  0  0
   -0.3158   20.4488  -34.2741 H   0  0  0  0  0  0  0  0  0  0  0  0
   -3.0388   21.4669  -34.2380 H   0  0  0  0  0  0  0  0  0  0  0  0
   -2.4180   19.7704  -34.4568 H   0  0  0  0  0  0  0  0  0  0  0  0
   -2.4300   19.4580  -32.1300 H   0  0  0  0  0  0  0  0  0  0  0  0
   -2.6800   21.0170  -31.8000 H   0  0  0  0  0  0  0  0  0  0  0  0
   -3.0602   17.8603  -33.2450 H   0  0  0  0  0  0  0  0  0  0  0  0
   -4.0743   15.7469  -34.0535 H   0  0  0  0  0  0  0  0  0  0  0  0
   -6.5422   15.5441  -34.2622 H   0  0  0  0  0  0  0  0  0  0  0  0
   -8.0102   17.4158  -33.5603 H   0  0  0  0  0  0  0  0  0  0  0  0
   -8.7842   19.4194  -31.1123 H   0  0  0  0  0  0  0  0  0  0  0  0
   -9.2451   20.2443  -32.6400 H   0  0  0  0  0  0  0  0  0  0  0  0
   -8.8997   18.4816  -32.6400 H   0  0  0  0  0  0  0  0  0  0  0  0
   -8.6226   21.9684  -32.1440 H   0  0  0  0  0  0  0  0  0  0  0  0
   -7.7245   24.1965  -31.5500 H   0  0  0  0  0  0  0  0  0  0  0  0
   -5.5083   25.4021  -29.2789 H   0  0  0  0  0  0  0  0  0  0  0  0
   -5.2956   26.7151  -30.4862 H   0  0  0  0  0  0  0  0  0  0  0  0
   -6.7974   25.7296  -30.4862 H   0  0  0  0  0  0  0  0  0  0  0  0
   -3.7081   22.6380  -31.7170 H   0  0  0  0  0  0  0  0  0  0  0  0
  1  2  1  0
  2  3  1  0
  3  4  1  0
  4  5  1  0
  5  6  1  0
  6  7  1  0
  7  8  1  0
  8  9  1  0
  9 10  1  0
 10 11  1  0
 11 12  1  0
 12 13  1  0
 13 14  2  0
 14 15  1  0
 15 16  2  0
 16 17  1  0
 17 18  2  0
 18 19  1  0
 19 20  2  0
 20 21  1  0
 20 22  1  0
 22 23  2  0
 23 24  1  0
 24 25  2  0
 25 26  1  0
 26 27  1  0
 25 28  1  0
 28 29  2  0
 29 13  1  0
 19 14  1  0
 29 22  1  0
  1 30  1  0
  1 31  1  0
  1 32  1  0
  2 33  1  0
  2 34  1  0
  4 35  1  0
  4 36  1  0
  5 37  1  0
  5 38  1  0
  7 39  1  0
  7 40  1  0
  8 41  1  0
  8 42  1  0
 10 43  1  0
 10 44  1  0
 11 45  1  0
 11 46  1  0
 12 47  1  0
 12 48  1  0
 15 49  1  0
 16 50  1  0
 17 51  1  0
 18 52  1  0
 21 53  1  0
 21 54  1  0
 21 55  1  0
 23 56  1  0
 24 57  1  0
 27 58  1  0
 27 59  1  0
 27 60  1  0
 28 61  1  0
M  CHG  2  12   1  20   1
M  END
>  <UniqueID>  (22) 
21

>  <SMILES>  (22) 
CCOCCOCCOCC[NH2+]c1c2ccccc2[n+](C)c2ccc(OC)cc12

>  <Energy>  (22) 
89.45083750030149

>  <Genealogy>  (22) 
CCOCCOCCOCC[NH2+]c1c2ccccc2[n+](C)c2ccc(OC)cc12 (protonated)
CCOCCOCCOCC[NH2+]c1c2ccccc2[n+](C)c2ccc(OC)cc12 (3D coordinates assigned)
CCOCCOCCOCC[NH2+]c1c2ccccc2[n+](C)c2ccc(OC)cc12 (optimized conformer: 89.45083750030149 kcal/mol)

>  <smiles>  (22) 
CCOCCOCCOCCNc1c2ccccc2[n+](C)c2ccc(OC)cc12

>  <score_type>  (22) 
oracle

>  <origin>  (22) 
adg

>  <m_score__min__energy>  (22) 
-8.0899999999999999

>  <m_primary>  (22) 
energy

$$$$
