0:0
     RDKit          3D

 30 33  0  0  0  0  0  0  0  0999 V2000
   -3.8640   25.5150  -30.8240 O   0  0  0  0  0  0  0  0  0  0  0  0
   -3.5510   24.3360  -30.1870 N   0  0  0  0  0  0  0  0  0  0  0  0
   -2.9200   24.3930  -29.0080 N   0  0  0  0  0  0  0  0  0  0  0  0
   -2.6060   23.2470  -28.3580 C   0  0  0  0  0  0  0  0  0  0  0  0
   -1.9420   23.0790  -27.1600 C   0  0  0  0  0  0  0  0  0  0  0  0
   -1.4120   24.1020  -26.2270 C   0  0  0  0  0  0  0  0  0  0  0  0
   -0.2520   23.8390  -25.4760 C   0  0  0  0  0  0  0  0  0  0  0  0
    0.2540   24.7980  -24.5920 C   0  0  0  0  0  0  0  0  0  0  0  0
   -0.3940   26.0270  -24.4440 C   0  0  0  0  0  0  0  0  0  0  0  0
    0.2410   27.2280  -23.3340 Cl  0  0  0  0  0  0  0  0  0  0  0  0
   -1.5510   26.2960  -25.1790 C   0  0  0  0  0  0  0  0  0  0  0  0
   -2.0600   25.3410  -26.0640 C   0  0  0  0  0  0  0  0  0  0  0  0
   -1.8680   21.6890  -27.0320 C   0  0  0  0  0  0  0  0  0  0  0  0
   -2.4590   21.0900  -28.0930 N   0  0  0  0  0  0  0  0  0  0  0  0
   -2.8960   22.0560  -28.8830 N   0  0  0  0  0  0  0  0  0  0  0  0
   -3.5340   21.9330  -30.0750 C   0  0  0  0  0  0  0  0  0  0  0  0
   -3.8460   20.6850  -30.6320 C   0  0  0  0  0  0  0  0  0  0  0  0
   -4.5040   20.6200  -31.8630 C   0  0  0  0  0  0  0  0  0  0  0  0
   -4.8500   21.7940  -32.5410 C   0  0  0  0  0  0  0  0  0  0  0  0
   -4.5400   23.0430  -31.9940 C   0  0  0  0  0  0  0  0  0  0  0  0
   -3.8790   23.1260  -30.7550 C   0  0  0  0  0  0  0  0  0  0  0  0
    0.2611   22.8721  -25.5846 H   0  0  0  0  0  0  0  0  0  0  0  0
    1.1640   24.5840  -24.0122 H   0  0  0  0  0  0  0  0  0  0  0  0
   -2.0632   27.2623  -25.0611 H   0  0  0  0  0  0  0  0  0  0  0  0
   -2.9733   25.5593  -26.6370 H   0  0  0  0  0  0  0  0  0  0  0  0
   -1.3977   21.1584  -26.1910 H   0  0  0  0  0  0  0  0  0  0  0  0
   -3.5739   19.7603  -30.1020 H   0  0  0  0  0  0  0  0  0  0  0  0
   -4.7510   19.6416  -32.3009 H   0  0  0  0  0  0  0  0  0  0  0  0
   -5.3685   21.7341  -33.5093 H   0  0  0  0  0  0  0  0  0  0  0  0
   -4.8134   23.9619  -32.5333 H   0  0  0  0  0  0  0  0  0  0  0  0
  1  2  1  0
  2  3  2  0
  3  4  1  0
  4  5  2  0
  5  6  1  0
  6  7  2  0
  7  8  1  0
  8  9  2  0
  9 10  1  0
  9 11  1  0
 11 12  2  0
  5 13  1  0
 13 14  2  0
 14 15  1  0
 15 16  1  0
 16 17  2  0
 17 18  1  0
 18 19  2  0
 19 20  1  0
 20 21  2  0
 21  2  1  0
 15  4  1  0
 21 16  1  0
 12  6  1  0
  7 22  1  0
  8 23  1  0
 11 24  1  0
 12 25  1  0
 13 26  1  0
 17 27  1  0
 18 28  1  0
 19 29  1  0
 20 30  1  0
M  CHG  2   1  -1   2   1
M  END
>  <UniqueID>  (1) 
1

>  <SMILES>  (1) 
[O-][n+]1nc2c(-c3ccc(Cl)cc3)cnn2c2ccccc21

>  <Energy>  (1) 
80.8850912009709

>  <Genealogy>  (1) 
[O-][n+]1nc2c(-c3ccc(Cl)cc3)cnn2c2ccccc21 (3D coordinates assigned)
[O-][n+]1nc2c(-c3ccc(Cl)cc3)cnn2c2ccccc21 (optimized conformer: 80.8850912009709 kcal/mol)

>  <smiles>  (1) 
[O-][n+]1nc2c(-c3ccc(Cl)cc3)cnn2c2ccccc21

>  <score_type>  (1) 
oracle

>  <origin>  (1) 
adg

>  <m_score__min__energy>  (1) 
-7.96

>  <m_primary>  (1) 
energy

$$$$
1:0
     RDKit          3D

 66 70  0  0  0  0  0  0  0  0999 V2000
   -5.3680   15.5750  -32.7040 C   0  0  0  0  0  0  0  0  0  0  0  0
   -5.4180   16.8190  -32.0130 O   0  0  0  0  0  0  0  0  0  0  0  0
   -6.2490   17.8950  -32.3650 C   0  0  0  0  0  0  0  0  0  0  0  0
   -7.6030   17.9450  -31.9740 C   0  0  0  0  0  0  0  0  0  0  0  0
   -8.4100   19.0180  -32.3600 C   0  0  0  0  0  0  0  0  0  0  0  0
   -7.8810   20.0500  -33.1340 C   0  0  0  0  0  0  0  0  0  0  0  0
   -6.5420   20.0170  -33.5230 C   0  0  0  0  0  0  0  0  0  0  0  0
   -5.7150   18.9460  -33.1420 C   0  0  0  0  0  0  0  0  0  0  0  0
   -4.3330   18.9390  -33.5410 N   0  0  0  0  0  0  0  0  0  0  0  0
   -3.7640   17.7740  -34.2270 C   0  0  0  0  0  0  0  0  0  0  0  0
   -2.3580   17.4360  -33.6870 C   0  0  0  0  0  0  0  0  0  0  0  0
   -1.6970   18.5740  -32.9960 N   0  0  0  0  0  0  0  0  0  0  0  0
   -0.2290   18.3980  -32.9450 C   0  0  0  0  0  0  0  0  0  0  0  0
    0.3380   18.8480  -31.5910 C   0  0  0  0  0  0  0  0  0  0  0  0
   -0.5300   19.8790  -30.9810 N   0  0  0  0  0  0  0  0  0  0  0  0
   -0.0940   21.2340  -31.3540 C   0  0  0  0  0  0  0  0  0  0  0  0
   -1.2030   22.2160  -30.9940 C   0  0  0  0  0  0  0  0  0  0  0  0
   -1.7170   21.9460  -29.6490 N   0  0  0  0  0  0  0  0  0  0  0  0
   -2.7390   22.8020  -29.1200 C   0  0  0  0  0  0  0  0  0  0  0  0
   -2.4860   23.5100  -27.9420 C   0  0  0  0  0  0  0  0  0  0  0  0
   -3.4710   24.3420  -27.4070 C   0  0  0  0  0  0  0  0  0  0  0  0
   -4.6780   24.4660  -28.0230 N   0  0  0  0  0  0  0  0  0  0  0  0
   -4.9650   23.7900  -29.1750 C   0  0  0  0  0  0  0  0  0  0  0  0
   -6.2220   23.9360  -29.7860 C   0  0  0  0  0  0  0  0  0  0  0  0
   -6.5170   23.2440  -30.9640 C   0  0  0  0  0  0  0  0  0  0  0  0
   -8.0930   23.4200  -31.7150 Cl  0  0  0  0  0  0  0  0  0  0  0  0
   -5.5600   22.4050  -31.5420 C   0  0  0  0  0  0  0  0  0  0  0  0
   -4.3050   22.2510  -30.9470 C   0  0  0  0  0  0  0  0  0  0  0  0
   -3.9930   22.9370  -29.7560 C   0  0  0  0  0  0  0  0  0  0  0  0
   -1.0580   20.9850  -28.7580 C   0  0  0  0  0  0  0  0  0  0  0  0
   -0.5740   19.7220  -29.5080 C   0  0  0  0  0  0  0  0  0  0  0  0
   -2.0440   19.8590  -33.6320 C   0  0  0  0  0  0  0  0  0  0  0  0
   -3.5230   20.1530  -33.3770 C   0  0  0  0  0  0  0  0  0  0  0  0
   -5.3349   14.7518  -31.9751 H   0  0  0  0  0  0  0  0  0  0  0  0
   -6.2627   15.4700  -33.3353 H   0  0  0  0  0  0  0  0  0  0  0  0
   -4.4678   15.5422  -33.3353 H   0  0  0  0  0  0  0  0  0  0  0  0
   -8.0259   17.1348  -31.3618 H   0  0  0  0  0  0  0  0  0  0  0  0
   -9.4657   19.0488  -32.0525 H   0  0  0  0  0  0  0  0  0  0  0  0
   -8.5207   20.8915  -33.4383 H   0  0  0  0  0  0  0  0  0  0  0  0
   -6.1301   20.8350  -34.1323 H   0  0  0  0  0  0  0  0  0  0  0  0
   -4.4250   16.9086  -34.0716 H   0  0  0  0  0  0  0  0  0  0  0  0
   -3.6769   18.0102  -35.2978 H   0  0  0  0  0  0  0  0  0  0  0  0
   -2.4500   16.6027  -32.9749 H   0  0  0  0  0  0  0  0  0  0  0  0
   -1.7326   17.1778  -34.5543 H   0  0  0  0  0  0  0  0  0  0  0  0
    0.0104   17.3355  -33.0989 H   0  0  0  0  0  0  0  0  0  0  0  0
    0.2233   19.0161  -33.7345 H   0  0  0  0  0  0  0  0  0  0  0  0
    0.3974   17.9804  -30.9174 H   0  0  0  0  0  0  0  0  0  0  0  0
    1.3392   19.2752  -31.7496 H   0  0  0  0  0  0  0  0  0  0  0  0
    0.8233   21.4928  -30.8048 H   0  0  0  0  0  0  0  0  0  0  0  0
    0.1133   21.2792  -32.4334 H   0  0  0  0  0  0  0  0  0  0  0  0
   -0.8037   23.2404  -31.0291 H   0  0  0  0  0  0  0  0  0  0  0  0
   -2.0248   22.1018  -31.7162 H   0  0  0  0  0  0  0  0  0  0  0  0
   -1.5133   23.4119  -27.4377 H   0  0  0  0  0  0  0  0  0  0  0  0
   -3.2701   24.9011  -26.4812 H   0  0  0  0  0  0  0  0  0  0  0  0
   -5.3920   25.0960  -27.5940 H   0  0  0  0  0  0  0  0  0  0  0  0
   -6.9767   24.5974  -29.3355 H   0  0  0  0  0  0  0  0  0  0  0  0
   -5.7960   21.8633  -32.4698 H   0  0  0  0  0  0  0  0  0  0  0  0
   -3.5569   21.5911  -31.4105 H   0  0  0  0  0  0  0  0  0  0  0  0
   -0.1897   21.4735  -28.2917 H   0  0  0  0  0  0  0  0  0  0  0  0
   -1.7938   20.6666  -28.0048 H   0  0  0  0  0  0  0  0  0  0  0  0
    0.4386   19.4764  -29.1554 H   0  0  0  0  0  0  0  0  0  0  0  0
   -1.3007   18.9246  -29.2932 H   0  0  0  0  0  0  0  0  0  0  0  0
   -1.4281   20.6624  -33.2018 H   0  0  0  0  0  0  0  0  0  0  0  0
   -1.8559   19.8026  -34.7143 H   0  0  0  0  0  0  0  0  0  0  0  0
   -3.6437   20.5309  -32.3510 H   0  0  0  0  0  0  0  0  0  0  0  0
   -3.8632   20.9043  -34.1049 H   0  0  0  0  0  0  0  0  0  0  0  0
  1  2  1  0
  2  3  1  0
  3  4  2  0
  4  5  1  0
  5  6  2  0
  6  7  1  0
  7  8  2  0
  8  9  1  0
  9 10  1  0
 10 11  1  0
 11 12  1  0
 12 13  1  0
 13 14  1  0
 14 15  1  0
 15 16  1  0
 16 17  1  0
 17 18  1  0
 18 19  1  0
 19 20  2  0
 20 21  1  0
 21 22  2  0
 22 23  1  0
 23 24  2  0
 24 25  1  0
 25 26  1  0
 25 27  2  0
 27 28  1  0
 28 29  2  0
 18 30  1  0
 30 31  1  0
 12 32  1  0
 32 33  1  0
  8  3  1  0
 33  9  1  0
 31 15  1  0
 29 19  1  0
 29 23  1  0
  1 34  1  0
  1 35  1  0
  1 36  1  0
  4 37  1  0
  5 38  1  0
  6 39  1  0
  7 40  1  0
 10 41  1  0
 10 42  1  0
 11 43  1  0
 11 44  1  0
 13 45  1  0
 13 46  1  0
 14 47  1  0
 14 48  1  0
 16 49  1  0
 16 50  1  0
 17 51  1  0
 17 52  1  0
 20 53  1  0
 21 54  1  0
 22 55  1  0
 24 56  1  0
 27 57  1  0
 28 58  1  0
 30 59  1  0
 30 60  1  0
 31 61  1  0
 31 62  1  0
 32 63  1  0
 32 64  1  0
 33 65  1  0
 33 66  1  0
M  CHG  1  22   1
M  END
>  <UniqueID>  (2) 
2

>  <SMILES>  (2) 
COc1ccccc1N1CCN(CCN2CCN(c3cc[nH+]c4cc(Cl)ccc34)CC2)CC1

>  <Energy>  (2) 
95.34747341660382

>  <Genealogy>  (2) 
COc1ccccc1N1CCN(CCN2CCN(c3cc[nH+]c4cc(Cl)ccc34)CC2)CC1 (protonated)
COc1ccccc1N1CCN(CCN2CCN(c3cc[nH+]c4cc(Cl)ccc34)CC2)CC1 (3D coordinates assigned)
COc1ccccc1N1CCN(CCN2CCN(c3cc[nH+]c4cc(Cl)ccc34)CC2)CC1 (nonaromatic ring conformer: 95.34747341660382 kcal/mol)

>  <smiles>  (2) 
COc1ccccc1N1CCN(CCN2CCN(c3ccnc4cc(Cl)ccc34)CC2)CC1

>  <score_type>  (2) 
oracle

>  <origin>  (2) 
adg

>  <m_score__min__energy>  (2) 
-8.9700000000000006

>  <m_primary>  (2) 
energy

$$$$
2:0
     RDKit          3D

 40 43  0  0  0  0  0  0  0  0999 V2000
   -3.6180   23.9700  -28.3390 O   0  0  0  0  0  0  0  0  0  0  0  0
   -3.1800   24.6480  -29.3060 C   0  0  0  0  0  0  0  0  0  0  0  0
   -3.9990   24.7910  -30.4730 N   0  0  0  0  0  0  0  0  0  0  0  0
   -5.2250   24.0920  -30.7180 C   0  0  0  0  0  0  0  0  0  0  0  0
   -5.8920   23.3980  -29.6930 C   0  0  0  0  0  0  0  0  0  0  0  0
   -7.0950   22.7390  -29.9560 C   0  0  0  0  0  0  0  0  0  0  0  0
   -7.6510   22.7790  -31.2410 C   0  0  0  0  0  0  0  0  0  0  0  0
   -9.1800   21.9110  -31.5850 S   0  0  0  0  0  0  0  0  0  0  0  0
   -8.3150   20.4730  -32.2020 C   0  0  0  0  0  0  0  0  0  0  0  0
   -7.2650   20.5490  -33.0530 N   0  0  0  0  0  0  0  0  0  0  0  0
   -6.8170   19.3100  -33.3760 C   0  0  0  0  0  0  0  0  0  0  0  0
   -5.7490   19.0560  -34.2370 C   0  0  0  0  0  0  0  0  0  0  0  0
   -5.3880   17.7210  -34.4900 C   0  0  0  0  0  0  0  0  0  0  0  0
   -6.0950   16.6630  -33.8850 C   0  0  0  0  0  0  0  0  0  0  0  0
   -7.1700   16.9310  -33.0210 C   0  0  0  0  0  0  0  0  0  0  0  0
   -7.5060   18.2610  -32.7860 C   0  0  0  0  0  0  0  0  0  0  0  0
   -8.7300   18.8780  -31.8170 S   0  0  0  0  0  0  0  0  0  0  0  0
   -7.0080   23.4970  -32.2550 C   0  0  0  0  0  0  0  0  0  0  0  0
   -5.8050   24.1590  -31.9920 C   0  0  0  0  0  0  0  0  0  0  0  0
   -1.8970   25.2930  -29.2250 N   0  0  0  0  0  0  0  0  0  0  0  0
   -0.9860   25.1220  -28.1260 C   0  0  0  0  0  0  0  0  0  0  0  0
   -0.7560   26.1680  -27.2150 C   0  0  0  0  0  0  0  0  0  0  0  0
    0.1530   26.0050  -26.1660 C   0  0  0  0  0  0  0  0  0  0  0  0
    0.8500   24.8040  -26.0230 C   0  0  0  0  0  0  0  0  0  0  0  0
    0.6440   23.7640  -26.9320 C   0  0  0  0  0  0  0  0  0  0  0  0
   -0.2640   23.9190  -27.9870 C   0  0  0  0  0  0  0  0  0  0  0  0
   -0.5040   22.5770  -29.1000 Cl  0  0  0  0  0  0  0  0  0  0  0  0
   -5.4645   23.3740  -28.6797 H   0  0  0  0  0  0  0  0  0  0  0  0
   -7.6064   22.1879  -29.1530 H   0  0  0  0  0  0  0  0  0  0  0  0
   -5.2000   19.8843  -34.7088 H   0  0  0  0  0  0  0  0  0  0  0  0
   -4.5478   17.5009  -35.1650 H   0  0  0  0  0  0  0  0  0  0  0  0
   -5.8039   15.6222  -34.0901 H   0  0  0  0  0  0  0  0  0  0  0  0
   -7.7300   16.1132  -32.5440 H   0  0  0  0  0  0  0  0  0  0  0  0
   -7.4499   23.5408  -33.2614 H   0  0  0  0  0  0  0  0  0  0  0  0
   -5.3115   24.7350  -32.7886 H   0  0  0  0  0  0  0  0  0  0  0  0
   -1.5820   25.8770  -30.0310 H   0  0  0  0  0  0  0  0  0  0  0  0
   -1.2947   27.1203  -27.3286 H   0  0  0  0  0  0  0  0  0  0  0  0
    0.3195   26.8247  -25.4516 H   0  0  0  0  0  0  0  0  0  0  0  0
    1.5618   24.6767  -25.1940 H   0  0  0  0  0  0  0  0  0  0  0  0
    1.1968   22.8198  -26.8190 H   0  0  0  0  0  0  0  0  0  0  0  0
  1  2  2  0
  2  3  1  0
  3  4  1  0
  4  5  2  0
  5  6  1  0
  6  7  2  0
  7  8  1  0
  8  9  1  0
  9 10  2  0
 10 11  1  0
 11 12  2  0
 12 13  1  0
 13 14  2  0
 14 15  1  0
 15 16  2  0
 16 17  1  0
  7 18  1  0
 18 19  2  0
  2 20  1  0
 20 21  1  0
 21 22  2  0
 22 23  1  0
 23 24  2  0
 24 25  1  0
 25 26  2  0
 26 27  1  0
 19  4  1  0
 26 21  1  0
 17  9  1  0
 16 11  1  0
  5 28  1  0
  6 29  1  0
 12 30  1  0
 13 31  1  0
 14 32  1  0
 15 33  1  0
 18 34  1  0
 19 35  1  0
 20 36  1  0
 22 37  1  0
 23 38  1  0
 24 39  1  0
 25 40  1  0
M  CHG  1   3  -1
M  END
>  <UniqueID>  (3) 
3

>  <SMILES>  (3) 
O=C([N-]c1ccc(Sc2nc3ccccc3s2)cc1)Nc1ccccc1Cl

>  <Energy>  (3) 
83.64933914701491

>  <Genealogy>  (3) 
O=C([N-]c1ccc(Sc2nc3ccccc3s2)cc1)Nc1ccccc1Cl (protonated)
O=C([N-]c1ccc(Sc2nc3ccccc3s2)cc1)Nc1ccccc1Cl (3D coordinates assigned)
O=C([N-]c1ccc(Sc2nc3ccccc3s2)cc1)Nc1ccccc1Cl (optimized conformer: 83.64933914701491 kcal/mol)

>  <smiles>  (3) 
O=C(Nc1ccc(Sc2nc3ccccc3s2)cc1)Nc1ccccc1Cl

>  <score_type>  (3) 
oracle

>  <origin>  (3) 
adg

>  <m_score__min__energy>  (3) 
-12.24

>  <m_primary>  (3) 
energy

$$$$
3:0
     RDKit          3D

 29 30  0  0  0  0  0  0  0  0999 V2000
   -7.1400   24.1170  -30.5320 C   0  0  0  0  0  0  0  0  0  0  0  0
   -6.4210   22.8070  -30.8820 C   0  0  2  0  0  0  0  0  0  0  0  0
   -5.2860   23.0400  -31.8970 C   0  0  0  0  0  0  0  0  0  0  0  0
   -4.0390   23.3870  -31.2220 N   0  0  0  0  0  0  0  0  0  0  0  0
   -3.8550   24.5880  -30.4630 C   0  0  0  0  0  0  0  0  0  0  0  0
   -4.3720   25.6700  -30.8460 O   0  0  0  0  0  0  0  0  0  0  0  0
   -3.0650   24.5600  -29.2270 C   0  0  0  0  0  0  0  0  0  0  0  0
   -3.2170   23.6650  -28.1850 C   0  0  0  0  0  0  0  0  0  0  0  0
   -2.2670   24.0150  -27.2500 C   0  0  0  0  0  0  0  0  0  0  0  0
   -1.6000   25.1000  -27.7820 C   0  0  0  0  0  0  0  0  0  0  0  0
   -0.1650   26.0380  -26.9480 Br  0  0  0  0  0  0  0  0  0  0  0  0
   -2.0940   25.4020  -28.9590 O   0  0  0  0  0  0  0  0  0  0  0  0
   -7.4060   21.8030  -31.4300 C   0  0  0  0  0  0  0  0  0  0  0  0
   -8.7600   22.1300  -31.5950 C   0  0  0  0  0  0  0  0  0  0  0  0
   -9.6200   21.1990  -32.0830 N   0  0  0  0  0  0  0  0  0  0  0  0
   -9.1960   19.9510  -32.4150 C   0  0  0  0  0  0  0  0  0  0  0  0
   -7.8500   19.6190  -32.2500 C   0  0  0  0  0  0  0  0  0  0  0  0
   -7.2170   17.8770  -32.7000 Br  0  0  0  0  0  0  0  0  0  0  0  0
   -6.9890   20.5490  -31.7610 N   0  0  0  0  0  0  0  0  0  0  0  0
   -7.1980   24.2226  -29.4386 H   0  0  0  0  0  0  0  0  0  0  0  0
   -6.5813   24.9658  -30.9533 H   0  0  0  0  0  0  0  0  0  0  0  0
   -8.1560   24.1015  -30.9533 H   0  0  0  0  0  0  0  0  0  0  0  0
   -5.9739   22.4117  -29.9580 H   0  0  0  0  0  0  0  0  0  0  0  0
   -5.1337   22.1213  -32.4826 H   0  0  0  0  0  0  0  0  0  0  0  0
   -5.5713   23.8750  -32.5539 H   0  0  0  0  0  0  0  0  0  0  0  0
   -3.9453   22.8435  -28.1162 H   0  0  0  0  0  0  0  0  0  0  0  0
   -2.0792   23.5302  -26.2806 H   0  0  0  0  0  0  0  0  0  0  0  0
   -9.1230   23.1342  -31.3308 H   0  0  0  0  0  0  0  0  0  0  0  0
   -9.9065   19.2098  -32.8098 H   0  0  0  0  0  0  0  0  0  0  0  0
  1  2  1  0
  2  3  1  0
  3  4  1  0
  4  5  1  0
  5  6  2  0
  5  7  1  0
  7  8  2  0
  8  9  1  0
  9 10  2  0
 10 11  1  0
 10 12  1  0
  2 13  1  0
 13 14  2  0
 14 15  1  0
 15 16  2  0
 16 17  1  0
 17 18  1  0
 17 19  2  0
 12  7  1  0
 19 13  1  0
  1 20  1  0
  1 21  1  0
  1 22  1  0
  2 23  1  1
  3 24  1  0
  3 25  1  0
  8 26  1  0
  9 27  1  0
 14 28  1  0
 16 29  1  0
M  CHG  1   4  -1
M  END
>  <UniqueID>  (4) 
4

>  <SMILES>  (4) 
C[C@H](C[N-]C(=O)c1ccc(Br)o1)c1cncc(Br)n1

>  <Energy>  (4) 
50.531381447920765

>  <Genealogy>  (4) 
CC(C[N-]C(=O)c1ccc(Br)o1)c1cncc(Br)n1 (protonated)
C[C@H](C[N-]C(=O)c1ccc(Br)o1)c1cncc(Br)n1 (chirality)
C[C@H](C[N-]C(=O)c1ccc(Br)o1)c1cncc(Br)n1 (3D coordinates assigned)
C[C@H](C[N-]C(=O)c1ccc(Br)o1)c1cncc(Br)n1 (optimized conformer: 50.531381447920765 kcal/mol)

>  <smiles>  (4) 
CC(CNC(=O)c1ccc(Br)o1)c1cncc(Br)n1

>  <score_type>  (4) 
oracle

>  <origin>  (4) 
adg

>  <m_score__min__energy>  (4) 
-9.1899999999999995

>  <m_primary>  (4) 
energy

$$$$
4:0
     RDKit          3D

 44 47  0  0  0  0  0  0  0  0999 V2000
   -4.2280   25.4210  -30.5740 O   0  0  0  0  0  0  0  0  0  0  0  0
   -3.4760   24.5730  -30.0240 C   0  0  0  0  0  0  0  0  0  0  0  0
   -2.2850   24.9880  -29.3530 N   0  0  0  0  0  0  0  0  0  0  0  0
   -1.4970   24.0070  -28.6630 C   0  0  0  0  0  0  0  0  0  0  0  0
   -0.5550   24.4160  -27.7150 C   0  0  0  0  0  0  0  0  0  0  0  0
    0.1610   23.4660  -26.9840 C   0  0  0  0  0  0  0  0  0  0  0  0
   -0.0580   22.1040  -27.2020 C   0  0  0  0  0  0  0  0  0  0  0  0
   -0.9850   21.6830  -28.1610 C   0  0  0  0  0  0  0  0  0  0  0  0
   -1.7180   22.6290  -28.9030 C   0  0  0  0  0  0  0  0  0  0  0  0
   -2.6650   22.2690  -30.0440 C   0  0  1  0  0  0  0  0  0  0  0  0
   -3.0250   20.7640  -30.1630 C   0  0  0  0  0  0  0  0  0  0  0  0
   -3.9240   20.4380  -31.3370 C   0  0  0  0  0  0  0  0  0  0  0  0
   -3.7300   21.0830  -32.5730 C   0  0  0  0  0  0  0  0  0  0  0  0
   -4.5780   20.8150  -33.6530 C   0  0  0  0  0  0  0  0  0  0  0  0
   -5.6410   19.9220  -33.5040 C   0  0  0  0  0  0  0  0  0  0  0  0
   -6.4630   19.6660  -34.5510 F   0  0  0  0  0  0  0  0  0  0  0  0
   -5.8640   19.3030  -32.2720 C   0  0  0  0  0  0  0  0  0  0  0  0
   -5.0200   19.5660  -31.1890 C   0  0  0  0  0  0  0  0  0  0  0  0
   -3.8300   23.1810  -29.9960 N   0  0  0  0  0  0  0  0  0  0  0  0
   -5.1220   22.8240  -29.3790 C   0  0  0  0  0  0  0  0  0  0  0  0
   -6.2400   22.8400  -30.3930 C   0  0  0  0  0  0  0  0  0  0  0  0
   -6.0620   23.4570  -31.6440 C   0  0  0  0  0  0  0  0  0  0  0  0
   -7.0900   23.4460  -32.5910 C   0  0  0  0  0  0  0  0  0  0  0  0
   -8.3080   22.8310  -32.2940 C   0  0  0  0  0  0  0  0  0  0  0  0
   -8.5050   22.2370  -31.0460 C   0  0  0  0  0  0  0  0  0  0  0  0
   -7.4800   22.2480  -30.0950 C   0  0  0  0  0  0  0  0  0  0  0  0
   -0.3774   25.4881  -27.5445 H   0  0  0  0  0  0  0  0  0  0  0  0
    0.8986   23.7908  -26.2354 H   0  0  0  0  0  0  0  0  0  0  0  0
    0.5011   21.3590  -26.6168 H   0  0  0  0  0  0  0  0  0  0  0  0
   -1.1421   20.6085  -28.3363 H   0  0  0  0  0  0  0  0  0  0  0  0
   -2.1287   22.4274  -30.9912 H   0  0  0  0  0  0  0  0  0  0  0  0
   -2.0916   20.1924  -30.2727 H   0  0  0  0  0  0  0  0  0  0  0  0
   -3.5804   20.4961  -29.2521 H   0  0  0  0  0  0  0  0  0  0  0  0
   -2.9063   21.8025  -32.6905 H   0  0  0  0  0  0  0  0  0  0  0  0
   -4.4070   21.3086  -34.6211 H   0  0  0  0  0  0  0  0  0  0  0  0
   -6.7067   18.6061  -32.1534 H   0  0  0  0  0  0  0  0  0  0  0  0
   -5.2129   19.0895  -30.2165 H   0  0  0  0  0  0  0  0  0  0  0  0
   -5.0455   21.8155  -28.9466 H   0  0  0  0  0  0  0  0  0  0  0  0
   -5.3505   23.5665  -28.6002 H   0  0  0  0  0  0  0  0  0  0  0  0
   -5.1078   23.9514  -31.8788 H   0  0  0  0  0  0  0  0  0  0  0  0
   -6.9394   23.9222  -33.5711 H   0  0  0  0  0  0  0  0  0  0  0  0
   -9.1127   22.8145  -33.0438 H   0  0  0  0  0  0  0  0  0  0  0  0
   -9.4677   21.7598  -30.8106 H   0  0  0  0  0  0  0  0  0  0  0  0
   -7.6447   21.7909  -29.1081 H   0  0  0  0  0  0  0  0  0  0  0  0
  1  2  2  0
  2  3  1  0
  3  4  1  0
  4  5  2  0
  5  6  1  0
  6  7  2  0
  7  8  1  0
  8  9  2  0
  9 10  1  0
 10 11  1  0
 11 12  1  0
 12 13  2  0
 13 14  1  0
 14 15  2  0
 15 16  1  0
 15 17  1  0
 17 18  2  0
 10 19  1  0
 19 20  1  0
 20 21  1  0
 21 22  2  0
 22 23  1  0
 23 24  2  0
 24 25  1  0
 25 26  2  0
 19  2  1  0
 26 21  1  0
  9  4  1  0
 18 12  1  0
  5 27  1  0
  6 28  1  0
  7 29  1  0
  8 30  1  0
 10 31  1  6
 11 32  1  0
 11 33  1  0
 13 34  1  0
 14 35  1  0
 17 36  1  0
 18 37  1  0
 20 38  1  0
 20 39  1  0
 22 40  1  0
 23 41  1  0
 24 42  1  0
 25 43  1  0
 26 44  1  0
M  CHG  1   3  -1
M  END
>  <UniqueID>  (5) 
5

>  <SMILES>  (5) 
O=C1[N-]c2ccccc2[C@@H](Cc2ccc(F)cc2)N1Cc1ccccc1

>  <Energy>  (5) 
60.69394959851476

>  <Genealogy>  (5) 
O=C1[N-]c2ccccc2C(Cc2ccc(F)cc2)N1Cc1ccccc1 (protonated)
O=C1[N-]c2ccccc2[C@@H](Cc2ccc(F)cc2)N1Cc1ccccc1 (chirality)
O=C1[N-]c2ccccc2[C@@H](Cc2ccc(F)cc2)N1Cc1ccccc1 (3D coordinates assigned)
O=C1[N-]c2ccccc2[C@@H](Cc2ccc(F)cc2)N1Cc1ccccc1 (nonaromatic ring conformer: 60.69394959851476 kcal/mol)

>  <smiles>  (5) 
O=C1Nc2ccccc2C(Cc2ccc(F)cc2)N1Cc1ccccc1

>  <score_type>  (5) 
oracle

>  <origin>  (5) 
adg

>  <m_score__min__energy>  (5) 
-9.2899999999999991

>  <m_primary>  (5) 
energy

$$$$
5:0
     RDKit          3D

 43 46  0  0  0  0  0  0  0  0999 V2000
   -1.9190   24.5320  -28.9780 C   0  0  0  0  0  0  0  0  0  0  0  0
   -2.2740   23.3710  -29.8650 C   0  0  0  0  0  0  0  0  0  0  0  0
   -1.3900   22.2930  -29.9980 C   0  0  0  0  0  0  0  0  0  0  0  0
   -1.6970   21.2360  -30.8530 C   0  0  0  0  0  0  0  0  0  0  0  0
   -2.8900   21.2370  -31.5740 C   0  0  0  0  0  0  0  0  0  0  0  0
   -3.8150   22.2930  -31.4360 C   0  0  0  0  0  0  0  0  0  0  0  0
   -3.4780   23.3780  -30.5950 C   0  0  0  0  0  0  0  0  0  0  0  0
   -4.3220   24.4910  -30.5090 O   0  0  0  0  0  0  0  0  0  0  0  0
   -5.6610   24.4990  -30.9930 C   0  0  0  0  0  0  0  0  0  0  0  0
   -5.8320   23.5500  -32.1370 C   0  0  0  0  0  0  0  0  0  0  0  0
   -6.6910   23.8050  -33.0240 O   0  0  0  0  0  0  0  0  0  0  0  0
   -5.0600   22.3310  -32.1800 N   0  0  0  0  0  0  0  0  0  0  0  0
   -5.5010   21.2210  -33.0510 C   0  0  0  0  0  0  0  0  0  0  0  0
   -6.7350   20.5140  -32.5120 C   0  0  0  0  0  0  0  0  0  0  0  0
   -7.6680   21.2670  -31.7740 C   0  0  0  0  0  0  0  0  0  0  0  0
   -8.8430   20.6840  -31.2970 C   0  0  0  0  0  0  0  0  0  0  0  0
   -9.0990   19.3350  -31.5330 C   0  0  0  0  0  0  0  0  0  0  0  0
   -8.1710   18.5600  -32.2260 C   0  0  0  0  0  0  0  0  0  0  0  0
   -6.9740   19.1260  -32.7020 C   0  0  0  0  0  0  0  0  0  0  0  0
   -5.9950   18.2270  -33.3480 C   0  0  0  0  0  0  0  0  0  0  0  0
   -5.7370   18.3190  -34.7210 C   0  0  0  0  0  0  0  0  0  0  0  0
   -4.8930   17.4350  -35.3130 N   0  0  0  0  0  0  0  0  0  0  0  0
   -4.2900   16.4530  -34.5950 C   0  0  0  0  0  0  0  0  0  0  0  0
   -4.5350   16.3360  -33.2620 N   0  0  0  0  0  0  0  0  0  0  0  0
   -5.3800   17.1930  -32.6310 C   0  0  0  0  0  0  0  0  0  0  0  0
   -2.0113   24.2301  -27.9243 H   0  0  0  0  0  0  0  0  0  0  0  0
   -0.8841   24.8450  -29.1804 H   0  0  0  0  0  0  0  0  0  0  0  0
   -2.6019   25.3703  -29.1804 H   0  0  0  0  0  0  0  0  0  0  0  0
   -0.4505   22.2805  -29.4259 H   0  0  0  0  0  0  0  0  0  0  0  0
   -0.9942   20.3965  -30.9594 H   0  0  0  0  0  0  0  0  0  0  0  0
   -3.1126   20.4050  -32.2582 H   0  0  0  0  0  0  0  0  0  0  0  0
   -6.3382   24.2034  -30.1781 H   0  0  0  0  0  0  0  0  0  0  0  0
   -5.8961   25.5139  -31.3461 H   0  0  0  0  0  0  0  0  0  0  0  0
   -5.7327   21.6250  -34.0475 H   0  0  0  0  0  0  0  0  0  0  0  0
   -4.6851   20.4845  -33.0935 H   0  0  0  0  0  0  0  0  0  0  0  0
   -7.4682   22.3294  -31.5705 H   0  0  0  0  0  0  0  0  0  0  0  0
   -9.5678   21.2904  -30.7340 H   0  0  0  0  0  0  0  0  0  0  0  0
  -10.0340   18.8815  -31.1722 H   0  0  0  0  0  0  0  0  0  0  0  0
   -8.3766   17.4939  -32.4028 H   0  0  0  0  0  0  0  0  0  0  0  0
   -6.2176   19.1067  -35.3198 H   0  0  0  0  0  0  0  0  0  0  0  0
   -3.6031   15.7517  -35.0914 H   0  0  0  0  0  0  0  0  0  0  0  0
   -4.0750   15.5720  -32.7190 H   0  0  0  0  0  0  0  0  0  0  0  0
   -5.5812   17.0745  -31.5561 H   0  0  0  0  0  0  0  0  0  0  0  0
  1  2  1  0
  2  3  2  0
  3  4  1  0
  4  5  2  0
  5  6  1  0
  6  7  2  0
  7  8  1  0
  8  9  1  0
  9 10  1  0
 10 11  2  0
 10 12  1  0
 12 13  1  0
 13 14  1  0
 14 15  2  0
 15 16  1  0
 16 17  2  0
 17 18  1  0
 18 19  2  0
 19 20  1  0
 20 21  2  0
 21 22  1  0
 22 23  2  0
 23 24  1  0
 24 25  2  0
  7  2  1  0
 19 14  1  0
 25 20  1  0
 12  6  1  0
  1 26  1  0
  1 27  1  0
  1 28  1  0
  3 29  1  0
  4 30  1  0
  5 31  1  0
  9 32  1  0
  9 33  1  0
 13 34  1  0
 13 35  1  0
 15 36  1  0
 16 37  1  0
 17 38  1  0
 18 39  1  0
 21 40  1  0
 23 41  1  0
 24 42  1  0
 25 43  1  0
M  CHG  1  24   1
M  END
>  <UniqueID>  (6) 
6

>  <SMILES>  (6) 
Cc1cccc2c1OCC(=O)N2Cc1ccccc1-c1cnc[nH+]c1

>  <Energy>  (6) 
60.0167310365222

>  <Genealogy>  (6) 
Cc1cccc2c1OCC(=O)N2Cc1ccccc1-c1cnc[nH+]c1 (protonated)
Cc1cccc2c1OCC(=O)N2Cc1ccccc1-c1cnc[nH+]c1 (3D coordinates assigned)
Cc1cccc2c1OCC(=O)N2Cc1ccccc1-c1cnc[nH+]c1 (nonaromatic ring conformer: 60.0167310365222 kcal/mol)

>  <smiles>  (6) 
Cc1cccc2c1OCC(=O)N2Cc1ccccc1-c1cncnc1

>  <score_type>  (6) 
oracle

>  <origin>  (6) 
adg

>  <m_score__min__energy>  (6) 
-8.6899999999999995

>  <m_primary>  (6) 
energy

$$$$
6:0
     RDKit          3D

 37 40  0  0  0  0  0  0  0  0999 V2000
   -4.1830   25.6420  -31.6080 H   0  0  0  0  0  0  0  0  0  0  0  0
   -4.0120   25.2410  -30.6620 N   0  0  0  0  0  0  0  0  0  0  0  0
   -3.5230   24.0590  -30.4310 C   0  0  0  0  0  0  0  0  0  0  0  0
   -4.0630   22.8090  -31.0440 C   0  0  0  0  0  0  0  0  0  0  0  0
   -4.8640   22.8350  -32.1360 C   0  0  0  0  0  0  0  0  0  0  0  0
   -4.9338   23.7800  -32.6946 H   0  0  0  0  0  0  0  0  0  0  0  0
   -5.6480   21.6910  -32.6300 C   0  0  0  0  0  0  0  0  0  0  0  0
   -5.1400   20.6000  -33.3250 C   0  0  0  0  0  0  0  0  0  0  0  0
   -4.0985   20.5007  -33.6648 H   0  0  0  0  0  0  0  0  0  0  0  0
   -6.1100   19.6770  -33.5240 N   0  0  0  0  0  0  0  0  0  0  0  0
   -5.9290   18.3720  -34.1600 C   0  0  0  0  0  0  0  0  0  0  0  0
   -6.7137   18.2255  -34.9169 H   0  0  0  0  0  0  0  0  0  0  0  0
   -4.9368   18.3401  -34.6338 H   0  0  0  0  0  0  0  0  0  0  0  0
   -6.0180   17.2590  -33.1220 C   0  0  0  0  0  0  0  0  0  0  0  0
   -5.9831   17.6952  -32.1128 H   0  0  0  0  0  0  0  0  0  0  0  0
   -6.9628   16.7110  -33.2521 H   0  0  0  0  0  0  0  0  0  0  0  0
   -5.1723   16.5678  -33.2521 H   0  0  0  0  0  0  0  0  0  0  0  0
   -7.2190   20.1540  -32.9180 C   0  0  0  0  0  0  0  0  0  0  0  0
   -8.4650   19.5310  -32.7850 C   0  0  0  0  0  0  0  0  0  0  0  0
   -8.6585   18.5476  -33.2383 H   0  0  0  0  0  0  0  0  0  0  0  0
   -9.4620   20.2010  -32.0540 C   0  0  0  0  0  0  0  0  0  0  0  0
  -10.4561   19.7438  -31.9410 H   0  0  0  0  0  0  0  0  0  0  0  0
   -9.1970   21.4560  -31.4640 C   0  0  0  0  0  0  0  0  0  0  0  0
   -9.9847   21.9678  -30.8917 H   0  0  0  0  0  0  0  0  0  0  0  0
   -7.9330   22.0560  -31.6030 C   0  0  0  0  0  0  0  0  0  0  0  0
   -7.7108   23.0263  -31.1349 H   0  0  0  0  0  0  0  0  0  0  0  0
   -6.9690   21.3810  -32.3540 C   0  0  0  0  0  0  0  0  0  0  0  0
   -3.6210   21.5400  -30.3850 C   0  0  0  0  0  0  0  0  0  0  0  0
   -4.2210   20.4530  -30.5980 O   0  0  0  0  0  0  0  0  0  0  0  0
   -2.5310   21.5510  -29.4520 N   0  0  0  0  0  0  0  0  0  0  0  0
   -1.9660   22.6560  -29.0780 C   0  0  0  0  0  0  0  0  0  0  0  0
   -0.6490   22.7320  -27.8760 S   0  0  0  0  0  0  0  0  0  0  0  0
   -0.8230   24.5260  -27.9780 C   0  0  0  0  0  0  0  0  0  0  0  0
   -0.2100   25.2127  -27.3758 H   0  0  0  0  0  0  0  0  0  0  0  0
   -1.7450   24.9580  -28.8330 C   0  0  0  0  0  0  0  0  0  0  0  0
   -1.9540   26.0248  -29.0011 H   0  0  0  0  0  0  0  0  0  0  0  0
   -2.4350   23.9190  -29.5090 N   0  0  0  0  0  0  0  0  0  0  0  0
  1  2  1  0
  2  3  2  0
  3  4  1  0
  4  5  2  0
  5  6  1  0
  5  7  1  0
  7  8  2  0
  8  9  1  0
  8 10  1  0
 10 11  1  0
 11 12  1  0
 11 13  1  0
 11 14  1  0
 14 15  1  0
 14 16  1  0
 14 17  1  0
 10 18  1  0
 18 19  2  0
 19 20  1  0
 19 21  1  0
 21 22  1  0
 21 23  2  0
 23 24  1  0
 23 25  1  0
 25 26  1  0
 25 27  2  0
  4 28  1  0
 28 29  2  0
 28 30  1  0
 30 31  2  0
 31 32  1  0
 32 33  1  0
 33 34  1  0
 33 35  2  0
 35 36  1  0
 35 37  1  0
 37  3  1  0
 27  7  1  0
 37 31  1  0
 27 18  1  0
M  END
>  <UniqueID>  (7) 
7

>  <SMILES>  (7) 
CCn1cc(/C=C2/C(=N)N3C=CSC3=NC2=O)c2ccccc21

>  <Energy>  (7) 
103.90890368484793

>  <Genealogy>  (7) 
CCn1cc(/C=C2/C(=N)N3C=CSC3=NC2=O)c2ccccc21 (cis-trans isomerization)
CCn1cc(/C=C2/C(=N)N3C=CSC3=NC2=O)c2ccccc21 (3D coordinates assigned)
CCn1cc(/C=C2/C(=N)N3C=CSC3=NC2=O)c2ccccc21 (nonaromatic ring conformer: 103.90890368484793 kcal/mol)

>  <smiles>  (7) 
CCn1cc(C=C2C(=N)N3C=CSC3=NC2=O)c2ccccc21

>  <score_type>  (7) 
oracle

>  <origin>  (7) 
adg

>  <m_score__min__energy>  (7) 
-8.8499999999999996

>  <m_primary>  (7) 
energy

$$$$
7:0
     RDKit          3D

 45 46  0  0  0  0  0  0  0  0999 V2000
    0.5230   20.5260  -27.8630 C   0  0  0  0  0  0  0  0  0  0  0  0
   -0.3130   21.7000  -28.3020 C   0  0  0  0  0  0  0  0  0  0  0  0
   -0.7790   21.7540  -29.6240 C   0  0  0  0  0  0  0  0  0  0  0  0
   -1.5560   22.8280  -30.0600 C   0  0  0  0  0  0  0  0  0  0  0  0
   -1.8930   23.8640  -29.1850 C   0  0  0  0  0  0  0  0  0  0  0  0
   -2.7380   24.9170  -29.6760 N   0  0  0  0  0  0  0  0  0  0  0  0
   -4.0960   24.8230  -30.1260 C   0  0  0  0  0  0  0  0  0  0  0  0
   -4.5840   25.6750  -30.9130 O   0  0  0  0  0  0  0  0  0  0  0  0
   -4.9790   23.7430  -29.5710 C   0  0  0  0  0  0  0  0  0  0  0  0
   -6.1090   23.4410  -30.4810 N   0  0  2  0  0  0  0  0  0  0  0  0
   -7.2350   22.8750  -29.7230 C   0  0  0  0  0  0  0  0  0  0  0  0
   -5.7220   22.5130  -31.5290 C   0  0  0  0  0  0  0  0  0  0  0  0
   -4.6030   22.0180  -31.5340 O   0  0  0  0  0  0  0  0  0  0  0  0
   -6.6920   22.1400  -32.6200 C   0  0  0  0  0  0  0  0  0  0  0  0
   -7.2350   20.7520  -32.4100 C   0  0  0  0  0  0  0  0  0  0  0  0
   -8.5990   20.5620  -32.1300 C   0  0  0  0  0  0  0  0  0  0  0  0
   -9.1030   19.2750  -31.9230 C   0  0  0  0  0  0  0  0  0  0  0  0
   -8.2550   18.1680  -32.0070 C   0  0  0  0  0  0  0  0  0  0  0  0
   -6.8990   18.3480  -32.2930 C   0  0  0  0  0  0  0  0  0  0  0  0
   -6.3850   19.6350  -32.4830 C   0  0  0  0  0  0  0  0  0  0  0  0
   -1.3860   23.8460  -27.8730 C   0  0  0  0  0  0  0  0  0  0  0  0
   -0.5980   22.7720  -27.4230 C   0  0  0  0  0  0  0  0  0  0  0  0
   -0.1060   22.7660  -25.9980 C   0  0  0  0  0  0  0  0  0  0  0  0
    0.5512   20.4864  -26.7641 H   0  0  0  0  0  0  0  0  0  0  0  0
    0.0825   19.5962  -28.2522 H   0  0  0  0  0  0  0  0  0  0  0  0
    1.5457   20.6382  -28.2522 H   0  0  0  0  0  0  0  0  0  0  0  0
   -0.5297   20.9424  -30.3233 H   0  0  0  0  0  0  0  0  0  0  0  0
   -1.9065   22.8593  -31.1022 H   0  0  0  0  0  0  0  0  0  0  0  0
   -4.3811   22.8306  -29.4293 H   0  0  0  0  0  0  0  0  0  0  0  0
   -5.3923   24.0943  -28.6140 H   0  0  0  0  0  0  0  0  0  0  0  0
   -6.4400   24.3380  -30.9120 H   0  0  0  0  0  0  0  0  0  0  0  0
   -7.0381   22.9740  -28.6453 H   0  0  0  0  0  0  0  0  0  0  0  0
   -8.1579   23.4163  -29.9784 H   0  0  0  0  0  0  0  0  0  0  0  0
   -7.3512   21.8114  -29.9784 H   0  0  0  0  0  0  0  0  0  0  0  0
   -7.5267   22.8564  -32.6191 H   0  0  0  0  0  0  0  0  0  0  0  0
   -6.1617   22.1660  -33.5834 H   0  0  0  0  0  0  0  0  0  0  0  0
   -9.2727   21.4297  -32.0735 H   0  0  0  0  0  0  0  0  0  0  0  0
  -10.1694   19.1334  -31.6935 H   0  0  0  0  0  0  0  0  0  0  0  0
   -8.6543   17.1554  -31.8481 H   0  0  0  0  0  0  0  0  0  0  0  0
   -6.2339   17.4751  -32.3689 H   0  0  0  0  0  0  0  0  0  0  0  0
   -5.3135   19.7732  -32.6899 H   0  0  0  0  0  0  0  0  0  0  0  0
   -1.6083   24.6808  -27.1920 H   0  0  0  0  0  0  0  0  0  0  0  0
   -0.9666   22.7765  -25.3129 H   0  0  0  0  0  0  0  0  0  0  0  0
    0.4928   21.8605  -25.8207 H   0  0  0  0  0  0  0  0  0  0  0  0
    0.5147   23.6566  -25.8207 H   0  0  0  0  0  0  0  0  0  0  0  0
  1  2  1  0
  2  3  2  0
  3  4  1  0
  4  5  2  0
  5  6  1  0
  6  7  1  0
  7  8  2  0
  7  9  1  0
  9 10  1  0
 10 11  1  0
 10 12  1  0
 12 13  2  0
 12 14  1  0
 14 15  1  0
 15 16  2  0
 16 17  1  0
 17 18  2  0
 18 19  1  0
 19 20  2  0
  5 21  1  0
 21 22  2  0
 22 23  1  0
 22  2  1  0
 20 15  1  0
  1 24  1  0
  1 25  1  0
  1 26  1  0
  3 27  1  0
  4 28  1  0
  9 29  1  0
  9 30  1  0
 10 31  1  6
 11 32  1  0
 11 33  1  0
 11 34  1  0
 14 35  1  0
 14 36  1  0
 16 37  1  0
 17 38  1  0
 18 39  1  0
 19 40  1  0
 20 41  1  0
 21 42  1  0
 23 43  1  0
 23 44  1  0
 23 45  1  0
M  CHG  2   6  -1  10   1
M  END
>  <UniqueID>  (8) 
8

>  <SMILES>  (8) 
Cc1ccc([N-]C(=O)C[N@H+](C)C(=O)Cc2ccccc2)cc1C

>  <Energy>  (8) 
41.940290377089156

>  <Genealogy>  (8) 
Cc1ccc([N-]C(=O)C[NH+](C)C(=O)Cc2ccccc2)cc1C (protonated)
Cc1ccc([N-]C(=O)C[N@H+](C)C(=O)Cc2ccccc2)cc1C (chirality)
Cc1ccc([N-]C(=O)C[N@H+](C)C(=O)Cc2ccccc2)cc1C (3D coordinates assigned)
Cc1ccc([N-]C(=O)C[N@H+](C)C(=O)Cc2ccccc2)cc1C (optimized conformer: 41.940290377089156 kcal/mol)

>  <smiles>  (8) 
Cc1ccc(NC(=O)CN(C)C(=O)Cc2ccccc2)cc1C

>  <score_type>  (8) 
oracle

>  <origin>  (8) 
adg

>  <m_score__min__energy>  (8) 
-9.3200000000000003

>  <m_primary>  (8) 
energy

$$$$
8:0
     RDKit          3D

 40 42  0  0  0  0  0  0  0  0999 V2000
   -6.2810   17.2280  -33.7110 C   0  0  0  0  0  0  0  0  0  0  0  0
   -6.8390   18.4630  -33.0680 C   0  0  0  0  0  0  0  0  0  0  0  0
   -6.2300   19.7080  -33.2820 C   0  0  0  0  0  0  0  0  0  0  0  0
   -6.7710   20.8660  -32.7160 C   0  0  0  0  0  0  0  0  0  0  0  0
   -7.9350   20.7940  -31.9340 C   0  0  0  0  0  0  0  0  0  0  0  0
   -8.5320   22.0500  -31.3450 C   0  0  0  0  0  0  0  0  0  0  0  0
   -7.6140   22.7040  -30.3960 N   0  0  0  0  0  0  0  0  0  0  0  0
   -7.2420   24.0580  -30.8330 C   0  0  0  0  0  0  0  0  0  0  0  0
   -5.7940   24.3200  -30.5520 C   0  0  0  0  0  0  0  0  0  0  0  0
   -5.1240   25.4980  -30.7800 C   0  0  0  0  0  0  0  0  0  0  0  0
   -3.8690   25.2990  -30.4680 O   0  0  0  0  0  0  0  0  0  0  0  0
   -3.7510   24.0500  -30.0720 C   0  0  0  0  0  0  0  0  0  0  0  0
   -2.4770   23.4190  -29.6380 C   0  0  0  0  0  0  0  0  0  0  0  0
   -1.8240   23.9290  -28.4970 C   0  0  0  0  0  0  0  0  0  0  0  0
   -0.6280   23.3680  -28.0460 C   0  0  0  0  0  0  0  0  0  0  0  0
   -0.0620   22.2900  -28.7230 C   0  0  0  0  0  0  0  0  0  0  0  0
   -0.6890   21.7720  -29.8560 C   0  0  0  0  0  0  0  0  0  0  0  0
   -1.8890   22.3230  -30.3240 C   0  0  0  0  0  0  0  0  0  0  0  0
   -2.6370   21.5320  -31.9060 Br  0  0  0  0  0  0  0  0  0  0  0  0
   -4.9290   23.3870  -30.1160 N   0  0  0  0  0  0  0  0  0  0  0  0
   -8.5570   19.5500  -31.7380 C   0  0  0  0  0  0  0  0  0  0  0  0
   -8.0150   18.3940  -32.3050 C   0  0  0  0  0  0  0  0  0  0  0  0
   -5.9616   16.5210  -32.9312 H   0  0  0  0  0  0  0  0  0  0  0  0
   -7.0546   16.7589  -34.3367 H   0  0  0  0  0  0  0  0  0  0  0  0
   -5.4176   17.4985  -34.3367 H   0  0  0  0  0  0  0  0  0  0  0  0
   -5.3215   19.7737  -33.8987 H   0  0  0  0  0  0  0  0  0  0  0  0
   -6.2830   21.8374  -32.8839 H   0  0  0  0  0  0  0  0  0  0  0  0
   -8.7589   22.7520  -32.1609 H   0  0  0  0  0  0  0  0  0  0  0  0
   -9.4437   21.7689  -30.7975 H   0  0  0  0  0  0  0  0  0  0  0  0
   -8.1000   22.7680  -29.4710 H   0  0  0  0  0  0  0  0  0  0  0  0
   -6.7540   22.1190  -30.2730 H   0  0  0  0  0  0  0  0  0  0  0  0
   -7.4240   24.1525  -31.9137 H   0  0  0  0  0  0  0  0  0  0  0  0
   -7.8499   24.7899  -30.2810 H   0  0  0  0  0  0  0  0  0  0  0  0
   -5.5617   26.4348  -31.1553 H   0  0  0  0  0  0  0  0  0  0  0  0
   -2.2628   24.7799  -27.9553 H   0  0  0  0  0  0  0  0  0  0  0  0
   -0.1314   23.7780  -27.1542 H   0  0  0  0  0  0  0  0  0  0  0  0
    0.8790   21.8476  -28.3641 H   0  0  0  0  0  0  0  0  0  0  0  0
   -0.2366   20.9219  -30.3877 H   0  0  0  0  0  0  0  0  0  0  0  0
   -9.4750   19.4857  -31.1354 H   0  0  0  0  0  0  0  0  0  0  0  0
   -8.5124   17.4248  -32.1527 H   0  0  0  0  0  0  0  0  0  0  0  0
  1  2  1  0
  2  3  2  0
  3  4  1  0
  4  5  2  0
  5  6  1  0
  6  7  1  0
  7  8  1  0
  8  9  1  0
  9 10  2  0
 10 11  1  0
 11 12  1  0
 12 13  1  0
 13 14  2  0
 14 15  1  0
 15 16  2  0
 16 17  1  0
 17 18  2  0
 18 19  1  0
 12 20  2  0
  5 21  1  0
 21 22  2  0
 22  2  1  0
 20  9  1  0
 18 13  1  0
  1 23  1  0
  1 24  1  0
  1 25  1  0
  3 26  1  0
  4 27  1  0
  6 28  1  0
  6 29  1  0
  7 30  1  0
  7 31  1  0
  8 32  1  0
  8 33  1  0
 10 34  1  0
 14 35  1  0
 15 36  1  0
 16 37  1  0
 17 38  1  0
 21 39  1  0
 22 40  1  0
M  CHG  1   7   1
M  END
>  <UniqueID>  (9) 
9

>  <SMILES>  (9) 
Cc1ccc(C[NH2+]Cc2coc(-c3ccccc3Br)n2)cc1

>  <Energy>  (9) 
73.05929740104001

>  <Genealogy>  (9) 
Cc1ccc(C[NH2+]Cc2coc(-c3ccccc3Br)n2)cc1 (protonated)
Cc1ccc(C[NH2+]Cc2coc(-c3ccccc3Br)n2)cc1 (3D coordinates assigned)
Cc1ccc(C[NH2+]Cc2coc(-c3ccccc3Br)n2)cc1 (optimized conformer: 73.05929740104001 kcal/mol)

>  <smiles>  (9) 
Cc1ccc(CNCc2coc(-c3ccccc3Br)n2)cc1

>  <score_type>  (9) 
oracle

>  <origin>  (9) 
adg

>  <m_score__min__energy>  (9) 
-7.9400000000000004

>  <m_primary>  (9) 
energy

$$$$
9:0
     RDKit          3D

 53 55  0  0  0  0  0  0  0  0999 V2000
   -5.6870   15.1830  -33.8550 C   0  0  0  0  0  0  0  0  0  0  0  0
   -6.8200   16.0450  -33.8690 O   0  0  0  0  0  0  0  0  0  0  0  0
   -6.8120   17.3710  -33.4120 C   0  0  0  0  0  0  0  0  0  0  0  0
   -6.0160   18.3700  -34.0040 C   0  0  0  0  0  0  0  0  0  0  0  0
   -6.0430   19.6780  -33.5120 C   0  0  0  0  0  0  0  0  0  0  0  0
   -6.8620   20.0130  -32.4190 C   0  0  0  0  0  0  0  0  0  0  0  0
   -6.8920   21.3650  -31.9160 N   0  0  0  0  0  0  0  0  0  0  0  0
   -6.2730   22.4380  -32.7040 C   0  0  0  0  0  0  0  0  0  0  0  0
   -6.4870   23.8030  -32.0410 C   0  0  0  0  0  0  0  0  0  0  0  0
   -6.1980   23.7120  -30.5960 N   0  0  0  0  0  0  0  0  0  0  0  0
   -6.1950   25.0700  -29.9990 C   0  0  0  0  0  0  0  0  0  0  0  0
   -4.9920   25.9070  -30.4600 C   0  0  0  0  0  0  0  0  0  0  0  0
   -3.8180   25.0490  -30.5730 N   0  0  0  0  0  0  0  0  0  0  0  0
   -3.3670   24.1660  -29.5380 C   0  0  0  0  0  0  0  0  0  0  0  0
   -3.7710   22.9740  -29.5350 O   0  0  0  0  0  0  0  0  0  0  0  0
   -2.4310   24.6150  -28.4890 C   0  0  0  0  0  0  0  0  0  0  0  0
   -1.0910   24.8660  -28.8320 C   0  0  0  0  0  0  0  0  0  0  0  0
   -0.1830   25.3050  -27.8680 C   0  0  0  0  0  0  0  0  0  0  0  0
   -0.6030   25.5090  -26.5540 C   0  0  0  0  0  0  0  0  0  0  0  0
   -1.9320   25.2730  -26.1990 C   0  0  0  0  0  0  0  0  0  0  0  0
   -2.8580   24.8190  -27.1540 C   0  0  0  0  0  0  0  0  0  0  0  0
   -4.2840   24.5680  -26.7420 C   0  0  0  0  0  0  0  0  0  0  0  0
   -7.1570   22.8100  -29.8960 C   0  0  0  0  0  0  0  0  0  0  0  0
   -7.7730   21.7130  -30.7930 C   0  0  0  0  0  0  0  0  0  0  0  0
   -7.6540   19.0110  -31.8310 C   0  0  0  0  0  0  0  0  0  0  0  0
   -7.6270   17.7040  -32.3260 C   0  0  0  0  0  0  0  0  0  0  0  0
   -5.4033   14.9672  -32.8144 H   0  0  0  0  0  0  0  0  0  0  0  0
   -5.9350   14.2431  -34.3699 H   0  0  0  0  0  0  0  0  0  0  0  0
   -4.8473   15.6727  -34.3699 H   0  0  0  0  0  0  0  0  0  0  0  0
   -5.3695   18.1199  -34.8581 H   0  0  0  0  0  0  0  0  0  0  0  0
   -5.4188   20.4514  -33.9834 H   0  0  0  0  0  0  0  0  0  0  0  0
   -5.1934   22.2448  -32.7883 H   0  0  0  0  0  0  0  0  0  0  0  0
   -6.7414   22.4556  -33.6991 H   0  0  0  0  0  0  0  0  0  0  0  0
   -5.8142   24.5414  -32.5015 H   0  0  0  0  0  0  0  0  0  0  0  0
   -7.5329   24.1134  -32.1818 H   0  0  0  0  0  0  0  0  0  0  0  0
   -5.2330   23.3160  -30.4900 H   0  0  0  0  0  0  0  0  0  0  0  0
   -7.1198   25.5878  -30.2933 H   0  0  0  0  0  0  0  0  0  0  0  0
   -6.1278   24.9573  -28.9069 H   0  0  0  0  0  0  0  0  0  0  0  0
   -5.2124   26.3578  -31.4389 H   0  0  0  0  0  0  0  0  0  0  0  0
   -4.7957   26.7025  -29.7261 H   0  0  0  0  0  0  0  0  0  0  0  0
   -0.7557   24.7151  -29.8687 H   0  0  0  0  0  0  0  0  0  0  0  0
    0.8653   25.4904  -28.1448 H   0  0  0  0  0  0  0  0  0  0  0  0
    0.1144   25.8565  -25.7960 H   0  0  0  0  0  0  0  0  0  0  0  0
   -2.2577   25.4439  -25.1623 H   0  0  0  0  0  0  0  0  0  0  0  0
   -4.3518   24.5561  -25.6442 H   0  0  0  0  0  0  0  0  0  0  0  0
   -4.9268   25.3668  -27.1404 H   0  0  0  0  0  0  0  0  0  0  0  0
   -4.6154   23.5977  -27.1404 H   0  0  0  0  0  0  0  0  0  0  0  0
   -6.6252   22.3187  -29.0679 H   0  0  0  0  0  0  0  0  0  0  0  0
   -7.9907   23.4418  -29.5557 H   0  0  0  0  0  0  0  0  0  0  0  0
   -7.9469   20.8128  -30.1852 H   0  0  0  0  0  0  0  0  0  0  0  0
   -8.7158   22.1004  -31.2066 H   0  0  0  0  0  0  0  0  0  0  0  0
   -8.2996   19.2574  -30.9752 H   0  0  0  0  0  0  0  0  0  0  0  0
   -8.2527   16.9305  -31.8568 H   0  0  0  0  0  0  0  0  0  0  0  0
  1  2  1  0
  2  3  1  0
  3  4  2  0
  4  5  1  0
  5  6  2  0
  6  7  1  0
  7  8  1  0
  8  9  1  0
  9 10  1  0
 10 11  1  0
 11 12  1  0
 12 13  1  0
 13 14  1  0
 14 15  2  0
 14 16  1  0
 16 17  2  0
 17 18  1  0
 18 19  2  0
 19 20  1  0
 20 21  2  0
 21 22  1  0
 10 23  1  0
 23 24  1  0
  6 25  1  0
 25 26  2  0
 26  3  1  0
 24  7  1  0
 21 16  1  0
  1 27  1  0
  1 28  1  0
  1 29  1  0
  4 30  1  0
  5 31  1  0
  8 32  1  0
  8 33  1  0
  9 34  1  0
  9 35  1  0
 10 36  1  0
 11 37  1  0
 11 38  1  0
 12 39  1  0
 12 40  1  0
 17 41  1  0
 18 42  1  0
 19 43  1  0
 20 44  1  0
 22 45  1  0
 22 46  1  0
 22 47  1  0
 23 48  1  0
 23 49  1  0
 24 50  1  0
 24 51  1  0
 25 52  1  0
 26 53  1  0
M  CHG  2  10   1  13  -1
M  END
>  <UniqueID>  (10) 
10

>  <SMILES>  (10) 
COc1ccc(N2CC[NH+](CC[N-]C(=O)c3ccccc3C)CC2)cc1

>  <Energy>  (10) 
67.64748972866539

>  <Genealogy>  (10) 
COc1ccc(N2CC[NH+](CC[N-]C(=O)c3ccccc3C)CC2)cc1 (protonated)
COc1ccc(N2CC[NH+](CC[N-]C(=O)c3ccccc3C)CC2)cc1 (3D coordinates assigned)
COc1ccc(N2CC[NH+](CC[N-]C(=O)c3ccccc3C)CC2)cc1 (nonaromatic ring conformer: 67.64748972866539 kcal/mol)

>  <smiles>  (10) 
COc1ccc(N2CCN(CCNC(=O)c3ccccc3C)CC2)cc1

>  <score_type>  (10) 
oracle

>  <origin>  (10) 
adg

>  <m_score__min__energy>  (10) 
-9.0899999999999999

>  <m_primary>  (10) 
energy

$$$$
10:0
     RDKit          3D

 30 32  0  0  0  0  0  0  0  0999 V2000
   -5.7420   26.0420  -30.1020 C   0  0  0  0  0  0  0  0  0  0  0  0
   -5.9520   24.6530  -30.6300 C   0  0  0  0  0  0  0  0  0  0  0  0
   -7.2490   24.1660  -30.8420 C   0  0  0  0  0  0  0  0  0  0  0  0
   -7.4490   22.8610  -31.3000 C   0  0  0  0  0  0  0  0  0  0  0  0
   -6.3510   22.0130  -31.5460 C   0  0  0  0  0  0  0  0  0  0  0  0
   -6.5390   20.6190  -32.0220 C   0  0  0  0  0  0  0  0  0  0  0  0
   -7.6890   19.8810  -31.7130 C   0  0  0  0  0  0  0  0  0  0  0  0
   -7.8120   18.5760  -32.1950 C   0  0  0  0  0  0  0  0  0  0  0  0
   -8.8520   17.9200  -31.9090 O   0  0  0  0  0  0  0  0  0  0  0  0
   -6.8190   18.0250  -32.9660 N   0  0  0  0  0  0  0  0  0  0  0  0
   -6.9290   16.7430  -33.4430 C   0  0  0  0  0  0  0  0  0  0  0  0
   -5.9210   16.1860  -34.2330 C   0  0  0  0  0  0  0  0  0  0  0  0
   -4.7920   16.9410  -34.5400 C   0  0  0  0  0  0  0  0  0  0  0  0
   -4.6790   18.2420  -34.0560 C   0  0  0  0  0  0  0  0  0  0  0  0
   -5.7030   18.7760  -33.2660 C   0  0  0  0  0  0  0  0  0  0  0  0
   -5.5830   20.0460  -32.7980 N   0  0  0  0  0  0  0  0  0  0  0  0
   -5.0530   22.4990  -31.3000 C   0  0  0  0  0  0  0  0  0  0  0  0
   -4.8570   23.8060  -30.8440 C   0  0  0  0  0  0  0  0  0  0  0  0
   -5.7452   26.0206  -29.0022 H   0  0  0  0  0  0  0  0  0  0  0  0
   -4.7754   26.4275  -30.4584 H   0  0  0  0  0  0  0  0  0  0  0  0
   -6.5515   26.6960  -30.4584 H   0  0  0  0  0  0  0  0  0  0  0  0
   -8.1152   24.8153  -30.6466 H   0  0  0  0  0  0  0  0  0  0  0  0
   -8.4716   22.4929  -31.4698 H   0  0  0  0  0  0  0  0  0  0  0  0
   -8.4859   20.3243  -31.0978 H   0  0  0  0  0  0  0  0  0  0  0  0
   -7.8213   16.1473  -33.2003 H   0  0  0  0  0  0  0  0  0  0  0  0
   -6.0183   15.1573  -34.6103 H   0  0  0  0  0  0  0  0  0  0  0  0
   -3.9928   16.5117  -35.1621 H   0  0  0  0  0  0  0  0  0  0  0  0
   -3.7906   18.8458  -34.2932 H   0  0  0  0  0  0  0  0  0  0  0  0
   -4.1850   21.8445  -31.4681 H   0  0  0  0  0  0  0  0  0  0  0  0
   -3.8373   24.1712  -30.6522 H   0  0  0  0  0  0  0  0  0  0  0  0
  1  2  1  0
  2  3  2  0
  3  4  1  0
  4  5  2  0
  5  6  1  0
  6  7  2  0
  7  8  1  0
  8  9  2  0
  8 10  1  0
 10 11  1  0
 11 12  2  0
 12 13  1  0
 13 14  2  0
 14 15  1  0
 15 16  2  0
  5 17  1  0
 17 18  2  0
 18  2  1  0
 16  6  1  0
 15 10  1  0
  1 19  1  0
  1 20  1  0
  1 21  1  0
  3 22  1  0
  4 23  1  0
  7 24  1  0
 11 25  1  0
 12 26  1  0
 13 27  1  0
 14 28  1  0
 17 29  1  0
 18 30  1  0
M  END
>  <UniqueID>  (11) 
11

>  <SMILES>  (11) 
Cc1ccc(-c2cc(=O)n3ccccc3n2)cc1

>  <Energy>  (11) 
41.45431282868225

>  <Genealogy>  (11) 
Cc1ccc(-c2cc(=O)n3ccccc3n2)cc1 (3D coordinates assigned)
Cc1ccc(-c2cc(=O)n3ccccc3n2)cc1 (optimized conformer: 41.45431282868225 kcal/mol)

>  <smiles>  (11) 
Cc1ccc(-c2cc(=O)n3ccccc3n2)cc1

>  <score_type>  (11) 
oracle

>  <origin>  (11) 
adg

>  <m_score__min__energy>  (11) 
-7.0499999999999998

>  <m_primary>  (11) 
energy

$$$$
11:0
     RDKit          3D

 55 59  0  0  1  0  0  0  0  0999 V2000
   -4.8890   17.9330  -32.7950 C   0  0  0  0  0  0  0  0  0  0  0  0
   -5.8250   17.3220  -31.9610 C   0  0  0  0  0  0  0  0  0  0  0  0
   -7.0980   17.8440  -31.8750 C   0  0  0  0  0  0  0  0  0  0  0  0
   -7.4950   18.9470  -32.5740 C   0  0  0  0  0  0  0  0  0  0  0  0
   -8.8330   19.5710  -32.5280 C   0  0  0  0  0  0  0  0  0  0  0  0
   -8.8460   20.9280  -32.4600 O   0  0  0  0  0  0  0  0  0  0  0  0
   -8.1650   21.9000  -31.8560 C   0  0  0  0  0  0  0  0  0  0  0  0
   -8.1730   21.9150  -30.4470 C   0  0  0  0  0  0  0  0  0  0  0  0
   -7.5150   22.8560  -29.7180 C   0  0  0  0  0  0  0  0  0  0  0  0
   -6.8030   23.8480  -30.3350 C   0  0  0  0  0  0  0  0  0  0  0  0
   -6.0910   24.8660  -29.5060 C   0  0  0  0  0  0  0  0  0  0  0  0
   -5.2470   25.7180  -30.4260 C   0  0  0  0  0  0  0  0  0  0  0  0
   -3.9140   25.1970  -30.6350 N   0  0  0  0  0  0  0  0  0  0  0  0
   -3.1980   24.5740  -29.7890 C   0  0  0  0  0  0  0  0  0  0  0  0
   -2.4570   25.3040  -28.9340 N   0  0  0  0  0  0  0  0  0  0  0  0
   -1.7060   24.6290  -28.0470 C   0  0  0  0  0  0  0  0  0  0  0  0
   -1.6800   23.2730  -27.9950 N   0  0  0  0  0  0  0  0  0  0  0  0
   -2.4200   22.5460  -28.8500 C   0  0  0  0  0  0  0  0  0  0  0  0
   -3.2120   23.1910  -29.7850 C   0  0  0  0  0  0  0  0  0  0  0  0
   -3.8830   22.2550  -30.5550 C   0  0  0  0  0  0  0  0  0  0  0  0
   -3.4850   21.0620  -30.0730 N   0  0  0  0  0  0  0  0  0  0  0  0
   -2.6250   21.2280  -29.0700 N   0  0  0  0  0  0  0  0  0  0  0  0
   -2.0140   20.1650  -28.3410 C   0  0  0  0  0  0  0  0  0  0  0  0
   -0.7990   19.6130  -28.6970 C   0  0  0  0  0  0  0  0  0  0  0  0
   -0.3100   18.5930  -27.9170 C   0  0  0  0  0  0  0  0  0  0  0  0
   -0.9800   18.1040  -26.8050 C   0  0  0  0  0  0  0  0  0  0  0  0
   -2.1920   18.6530  -26.4480 C   0  0  0  0  0  0  0  0  0  0  0  0
   -2.6760   19.6780  -27.2380 C   0  0  0  0  0  0  0  0  0  0  0  0
   -6.7630   23.8780  -31.6930 C   0  0  0  0  0  0  0  0  0  0  0  0
   -7.4330   22.9200  -32.4260 C   0  0  0  0  0  0  0  0  0  0  0  0
   -6.5530   19.5430  -33.3990 C   0  0  0  0  0  0  0  0  0  0  0  0
   -5.2630   19.0550  -33.5190 C   0  0  0  0  0  0  0  0  0  0  0  0
   -3.8686   17.5306  -32.8773 H   0  0  0  0  0  0  0  0  0  0  0  0
   -5.5499   16.4314  -31.3769 H   0  0  0  0  0  0  0  0  0  0  0  0
   -7.8255   17.3500  -31.2142 H   0  0  0  0  0  0  0  0  0  0  0  0
   -9.3770   19.2725  -33.4362 H   0  0  0  0  0  0  0  0  0  0  0  0
   -9.2974   19.2185  -31.5952 H   0  0  0  0  0  0  0  0  0  0  0  0
   -8.7347   21.1333  -29.9146 H   0  0  0  0  0  0  0  0  0  0  0  0
   -7.5558   22.8190  -28.6194 H   0  0  0  0  0  0  0  0  0  0  0  0
   -6.8233   25.4973  -28.9815 H   0  0  0  0  0  0  0  0  0  0  0  0
   -5.4551   24.3696  -28.7582 H   0  0  0  0  0  0  0  0  0  0  0  0
   -5.7521   25.7829  -31.4010 H   0  0  0  0  0  0  0  0  0  0  0  0
   -5.1379   26.7016  -29.9458 H   0  0  0  0  0  0  0  0  0  0  0  0
   -2.4730   26.3470  -28.9680 H   0  0  0  0  0  0  0  0  0  0  0  0
   -1.0887   25.1974  -27.3358 H   0  0  0  0  0  0  0  0  0  0  0  0
   -4.5864   22.4446  -31.3792 H   0  0  0  0  0  0  0  0  0  0  0  0
   -0.2428   19.9769  -29.5735 H   0  0  0  0  0  0  0  0  0  0  0  0
    0.6571   18.1435  -28.1866 H   0  0  0  0  0  0  0  0  0  0  0  0
   -0.5469   17.2843  -26.2130 H   0  0  0  0  0  0  0  0  0  0  0  0
   -2.7502   18.2910  -25.5720 H   0  0  0  0  0  0  0  0  0  0  0  0
   -3.6430   20.1290  -26.9704 H   0  0  0  0  0  0  0  0  0  0  0  0
   -6.1958   24.6670  -32.2086 H   0  0  0  0  0  0  0  0  0  0  0  0
   -7.3803   22.9728  -33.5235 H   0  0  0  0  0  0  0  0  0  0  0  0
   -6.8404   20.4334  -33.9775 H   0  0  0  0  0  0  0  0  0  0  0  0
   -4.5410   19.5530  -34.1829 H   0  0  0  0  0  0  0  0  0  0  0  0
  1  2  2  0
  2  3  1  0
  3  4  2  0
  4  5  1  0
  5  6  1  0
  6  7  1  0
  7  8  2  0
  8  9  1  0
  9 10  2  0
 10 11  1  0
 11 12  1  0
 12 13  1  0
 13 14  2  0
 14 15  1  0
 15 16  1  0
 16 17  2  0
 17 18  1  0
 18 19  2  0
 19 20  1  0
 20 21  2  0
 21 22  1  0
 22 23  1  0
 23 24  2  0
 24 25  1  0
 25 26  2  0
 26 27  1  0
 27 28  2  0
 10 29  1  0
 29 30  2  0
  4 31  1  0
 31 32  2  0
 32  1  1  0
 30  7  1  0
 19 14  1  0
 28 23  1  0
 22 18  1  0
  1 33  1  0
  2 34  1  0
  3 35  1  0
  5 36  1  0
  5 37  1  0
  8 38  1  0
  9 39  1  0
 11 40  1  0
 11 41  1  0
 12 42  1  0
 12 43  1  0
 15 44  1  0
 16 45  1  0
 20 46  1  0
 24 47  1  0
 25 48  1  0
 26 49  1  0
 27 50  1  0
 28 51  1  0
 29 52  1  0
 30 53  1  0
 31 54  1  0
 32 55  1  0
M  END
>  <smiles>  (12) 
c1ccc(COc2ccc(CCN=c3[nH]cnc4c3cnn4-c3ccccc3)cc2)cc1

>  <score_type>  (12) 
oracle

>  <origin>  (12) 
adg

>  <m_score__min__energy>  (12) 
-10.16

>  <m_primary>  (12) 
energy

$$$$
12:0
     RDKit          3D

 27 29  0  0  0  0  0  0  0  0999 V2000
   -5.1410   18.5060  -33.7030 C   0  0  0  0  0  0  0  0  0  0  0  0
   -5.8300   18.1660  -32.3870 C   0  0  0  0  0  0  0  0  0  0  0  0
   -7.2100   18.7460  -32.3510 C   0  0  0  0  0  0  0  0  0  0  0  0
   -8.3340   18.0790  -32.7180 N   0  0  0  0  0  0  0  0  0  0  0  0
   -9.3410   18.9430  -32.6110 N   0  0  0  0  0  0  0  0  0  0  0  0
   -8.8240   20.1130  -32.1990 C   0  0  0  0  0  0  0  0  0  0  0  0
   -9.4790   21.3140  -31.9680 C   0  0  0  0  0  0  0  0  0  0  0  0
   -8.6880   22.4010  -31.5600 C   0  0  0  0  0  0  0  0  0  0  0  0
   -7.2850   22.2410  -31.4060 C   0  0  0  0  0  0  0  0  0  0  0  0
   -6.4250   23.3640  -30.9850 C   0  0  0  0  0  0  0  0  0  0  0  0
   -6.8690   24.5540  -30.4150 C   0  0  0  0  0  0  0  0  0  0  0  0
   -5.8330   25.4470  -30.1120 C   0  0  0  0  0  0  0  0  0  0  0  0
   -4.5710   24.9710  -30.4390 C   0  0  0  0  0  0  0  0  0  0  0  0
   -4.7460   23.4380  -31.1060 S   0  0  0  0  0  0  0  0  0  0  0  0
   -6.7220   21.0210  -31.6570 N   0  0  0  0  0  0  0  0  0  0  0  0
   -7.5070   20.0160  -32.0360 N   0  0  0  0  0  0  0  0  0  0  0  0
   -4.1721   18.9841  -33.4968 H   0  0  0  0  0  0  0  0  0  0  0  0
   -4.9793   17.5842  -34.2811 H   0  0  0  0  0  0  0  0  0  0  0  0
   -5.7742   19.1951  -34.2811 H   0  0  0  0  0  0  0  0  0  0  0  0
   -5.8943   17.0727  -32.2842 H   0  0  0  0  0  0  0  0  0  0  0  0
   -5.2441   18.5915  -31.5590 H   0  0  0  0  0  0  0  0  0  0  0  0
  -10.3410   18.7300  -32.8270 H   0  0  0  0  0  0  0  0  0  0  0  0
  -10.5670   21.4106  -32.0982 H   0  0  0  0  0  0  0  0  0  0  0  0
   -9.1553   23.3764  -31.3597 H   0  0  0  0  0  0  0  0  0  0  0  0
   -7.9297   24.7718  -30.2214 H   0  0  0  0  0  0  0  0  0  0  0  0
   -6.0039   26.4339  -29.6571 H   0  0  0  0  0  0  0  0  0  0  0  0
   -3.6209   25.5044  -30.2879 H   0  0  0  0  0  0  0  0  0  0  0  0
  1  2  1  0
  2  3  1  0
  3  4  2  0
  4  5  1  0
  5  6  2  0
  6  7  1  0
  7  8  2  0
  8  9  1  0
  9 10  1  0
 10 11  2  0
 11 12  1  0
 12 13  2  0
 13 14  1  0
  9 15  2  0
 15 16  1  0
 16  3  1  0
 16  6  1  0
 14 10  1  0
  1 17  1  0
  1 18  1  0
  1 19  1  0
  2 20  1  0
  2 21  1  0
  5 22  1  0
  7 23  1  0
  8 24  1  0
 11 25  1  0
 12 26  1  0
 13 27  1  0
M  CHG  1   5   1
M  END
>  <UniqueID>  (13) 
12

>  <SMILES>  (13) 
CCc1n[nH+]c2ccc(-c3cccs3)nn12

>  <Energy>  (13) 
95.66930593765265

>  <Genealogy>  (13) 
CCc1n[nH+]c2ccc(-c3cccs3)nn12 (protonated)
CCc1n[nH+]c2ccc(-c3cccs3)nn12 (3D coordinates assigned)
CCc1n[nH+]c2ccc(-c3cccs3)nn12 (optimized conformer: 95.66930593765265 kcal/mol)

>  <smiles>  (13) 
CCc1nnc2ccc(-c3cccs3)nn12

>  <score_type>  (13) 
oracle

>  <origin>  (13) 
adg

>  <m_score__min__energy>  (13) 
-6.4299999999999997

>  <m_primary>  (13) 
energy

$$$$
13:0
     RDKit          3D

 30 30  0  0  0  0  0  0  0  0999 V2000
   -2.6740   21.9060  -31.0270 C   0  0  0  0  0  0  0  0  0  0  0  0
   -3.9120   22.2600  -31.7230 N   0  0  0  0  0  0  0  0  0  0  0  0
   -4.1040   21.8770  -33.0930 C   0  0  0  0  0  0  0  0  0  0  0  0
   -5.0890   21.1690  -33.4330 O   0  0  0  0  0  0  0  0  0  0  0  0
   -4.7650   23.2680  -31.1600 C   0  0  0  0  0  0  0  0  0  0  0  0
   -4.2600   24.5140  -30.9510 N   0  0  0  0  0  0  0  0  0  0  0  0
   -5.0070   25.5230  -30.4340 C   0  0  0  0  0  0  0  0  0  0  0  0
   -6.3400   25.3000  -30.0960 C   0  0  0  0  0  0  0  0  0  0  0  0
   -6.8890   24.0320  -30.2820 C   0  0  0  0  0  0  0  0  0  0  0  0
   -6.1100   22.9910  -30.8140 C   0  0  0  0  0  0  0  0  0  0  0  0
   -6.7140   21.6040  -30.9210 C   0  0  0  0  0  0  0  0  0  0  0  0
   -7.5540   21.4570  -32.1330 N   0  0  0  0  0  0  0  0  0  0  0  0
   -7.7580   20.0290  -32.4320 C   0  0  0  0  0  0  0  0  0  0  0  0
   -8.8600   22.1210  -31.9680 C   0  0  0  0  0  0  0  0  0  0  0  0
   -2.8380   21.9529  -29.9403 H   0  0  0  0  0  0  0  0  0  0  0  0
   -2.3737   20.8860  -31.3088 H   0  0  0  0  0  0  0  0  0  0  0  0
   -1.8799   22.6131  -31.3088 H   0  0  0  0  0  0  0  0  0  0  0  0
   -3.3823   22.2057  -33.8553 H   0  0  0  0  0  0  0  0  0  0  0  0
   -4.5598   26.5164  -30.2820 H   0  0  0  0  0  0  0  0  0  0  0  0
   -6.9532   26.1162  -29.6865 H   0  0  0  0  0  0  0  0  0  0  0  0
   -7.9385   23.8456  -30.0105 H   0  0  0  0  0  0  0  0  0  0  0  0
   -5.9007   20.8644  -30.9606 H   0  0  0  0  0  0  0  0  0  0  0  0
   -7.3549   21.4434  -30.0415 H   0  0  0  0  0  0  0  0  0  0  0  0
   -7.0630   21.8860  -32.9530 H   0  0  0  0  0  0  0  0  0  0  0  0
   -7.8385   19.4652  -31.4909 H   0  0  0  0  0  0  0  0  0  0  0  0
   -8.6830   19.9048  -33.0142 H   0  0  0  0  0  0  0  0  0  0  0  0
   -6.9048   19.6507  -33.0142 H   0  0  0  0  0  0  0  0  0  0  0  0
   -9.0813   22.2335  -30.8964 H   0  0  0  0  0  0  0  0  0  0  0  0
   -8.8295   23.1130  -32.4423 H   0  0  0  0  0  0  0  0  0  0  0  0
   -9.6436   21.5118  -32.4423 H   0  0  0  0  0  0  0  0  0  0  0  0
  1  2  1  0
  2  3  1  0
  3  4  2  0
  2  5  1  0
  5  6  2  0
  6  7  1  0
  7  8  2  0
  8  9  1  0
  9 10  2  0
 10 11  1  0
 11 12  1  0
 12 13  1  0
 12 14  1  0
 10  5  1  0
  1 15  1  0
  1 16  1  0
  1 17  1  0
  3 18  1  0
  7 19  1  0
  8 20  1  0
  9 21  1  0
 11 22  1  0
 11 23  1  0
 12 24  1  0
 13 25  1  0
 13 26  1  0
 13 27  1  0
 14 28  1  0
 14 29  1  0
 14 30  1  0
M  CHG  1  12   1
M  END
>  <UniqueID>  (14) 
13

>  <SMILES>  (14) 
CN(C=O)c1ncccc1C[NH+](C)C

>  <Energy>  (14) 
33.96118682181704

>  <Genealogy>  (14) 
CN(C=O)c1ncccc1C[NH+](C)C (protonated)
CN(C=O)c1ncccc1C[NH+](C)C (3D coordinates assigned)
CN(C=O)c1ncccc1C[NH+](C)C (optimized conformer: 33.96118682181704 kcal/mol)

>  <smiles>  (14) 
CN(C)Cc1cccnc1N(C)C=O

>  <score_type>  (14) 
oracle

>  <origin>  (14) 
adg

>  <m_score__min__energy>  (14) 
-3.9199999999999999

>  <m_primary>  (14) 
energy

$$$$
14:0
     RDKit          3D

 37 39  0  0  0  0  0  0  0  0999 V2000
   -2.7140   23.0340  -29.3560 O   0  0  0  0  0  0  0  0  0  0  0  0
   -3.3130   23.4910  -30.3640 C   0  0  0  0  0  0  0  0  0  0  0  0
   -3.5010   24.9110  -30.4590 N   0  0  0  0  0  0  0  0  0  0  0  0
   -4.7720   25.6250  -30.5030 C   0  0  0  0  0  0  0  0  0  0  0  0
   -5.8090   24.9370  -29.6090 C   0  0  0  0  0  0  0  0  0  0  0  0
   -6.6050   23.9330  -30.3990 C   0  0  0  0  0  0  0  0  0  0  0  0
   -7.2560   22.8720  -29.7470 C   0  0  0  0  0  0  0  0  0  0  0  0
   -7.9670   21.9220  -30.4870 C   0  0  0  0  0  0  0  0  0  0  0  0
   -8.0260   22.0200  -31.8800 C   0  0  0  0  0  0  0  0  0  0  0  0
   -7.3700   23.0650  -32.5370 C   0  0  0  0  0  0  0  0  0  0  0  0
   -6.6570   24.0170  -31.8010 C   0  0  0  0  0  0  0  0  0  0  0  0
   -3.7950   22.5430  -31.3900 C   0  0  0  0  0  0  0  0  0  0  0  0
   -4.4950   21.4270  -31.1170 N   0  0  0  0  0  0  0  0  0  0  0  0
   -4.7110   20.8980  -32.3390 C   0  0  0  0  0  0  0  0  0  0  0  0
   -5.4470   19.6380  -32.6100 C   0  0  0  0  0  0  0  0  0  0  0  0
   -6.2650   19.0760  -31.6120 C   0  0  0  0  0  0  0  0  0  0  0  0
   -6.9660   17.8900  -31.8520 C   0  0  0  0  0  0  0  0  0  0  0  0
   -6.8590   17.2520  -33.0880 C   0  0  0  0  0  0  0  0  0  0  0  0
   -6.0520   17.7980  -34.0870 C   0  0  0  0  0  0  0  0  0  0  0  0
   -5.3480   18.9840  -33.8530 C   0  0  0  0  0  0  0  0  0  0  0  0
   -4.1660   21.6660  -33.3060 N   0  0  0  0  0  0  0  0  0  0  0  0
   -3.6160   22.6660  -32.6830 O   0  0  0  0  0  0  0  0  0  0  0  0
   -4.6195   26.6563  -30.1519 H   0  0  0  0  0  0  0  0  0  0  0  0
   -5.1421   25.6261  -31.5389 H   0  0  0  0  0  0  0  0  0  0  0  0
   -5.2921   24.4219  -28.7859 H   0  0  0  0  0  0  0  0  0  0  0  0
   -6.4947   25.6987  -29.2095 H   0  0  0  0  0  0  0  0  0  0  0  0
   -7.2062   22.7885  -28.6513 H   0  0  0  0  0  0  0  0  0  0  0  0
   -8.4805   21.0966  -29.9721 H   0  0  0  0  0  0  0  0  0  0  0  0
   -8.5892   21.2740  -32.4599 H   0  0  0  0  0  0  0  0  0  0  0  0
   -7.4145   23.1387  -33.6336 H   0  0  0  0  0  0  0  0  0  0  0  0
   -6.1354   24.8340  -32.3211 H   0  0  0  0  0  0  0  0  0  0  0  0
   -4.7850   21.0730  -30.1800 H   0  0  0  0  0  0  0  0  0  0  0  0
   -6.3536   19.5738  -30.6351 H   0  0  0  0  0  0  0  0  0  0  0  0
   -7.6027   17.4595  -31.0650 H   0  0  0  0  0  0  0  0  0  0  0  0
   -7.4106   16.3188  -33.2751 H   0  0  0  0  0  0  0  0  0  0  0  0
   -5.9692   17.2943  -35.0614 H   0  0  0  0  0  0  0  0  0  0  0  0
   -4.7132   19.4082  -34.6449 H   0  0  0  0  0  0  0  0  0  0  0  0
  1  2  2  0
  2  3  1  0
  3  4  1  0
  4  5  1  0
  5  6  1  0
  6  7  2  0
  7  8  1  0
  8  9  2  0
  9 10  1  0
 10 11  2  0
  2 12  1  0
 12 13  2  0
 13 14  1  0
 14 15  1  0
 15 16  2  0
 16 17  1  0
 17 18  2  0
 18 19  1  0
 19 20  2  0
 14 21  2  0
 21 22  1  0
 11  6  1  0
 22 12  1  0
 20 15  1  0
  4 23  1  0
  4 24  1  0
  5 25  1  0
  5 26  1  0
  7 27  1  0
  8 28  1  0
  9 29  1  0
 10 30  1  0
 11 31  1  0
 13 32  1  0
 16 33  1  0
 17 34  1  0
 18 35  1  0
 19 36  1  0
 20 37  1  0
M  CHG  2   3  -1  13   1
M  END
>  <UniqueID>  (15) 
14

>  <SMILES>  (15) 
O=C([N-]CCc1ccccc1)c1[nH+]c(-c2ccccc2)no1

>  <Energy>  (15) 
72.12835773724075

>  <Genealogy>  (15) 
O=C([N-]CCc1ccccc1)c1[nH+]c(-c2ccccc2)no1 (protonated)
O=C([N-]CCc1ccccc1)c1[nH+]c(-c2ccccc2)no1 (3D coordinates assigned)
O=C([N-]CCc1ccccc1)c1[nH+]c(-c2ccccc2)no1 (optimized conformer: 72.12835773724075 kcal/mol)

>  <smiles>  (15) 
O=C(NCCc1ccccc1)c1nc(-c2ccccc2)no1

>  <score_type>  (15) 
oracle

>  <origin>  (15) 
adg

>  <m_score__min__energy>  (15) 
-9.0099999999999998

>  <m_primary>  (15) 
energy

$$$$
15:0
     RDKit          3D

 46 49  0  0  0  0  0  0  0  0999 V2000
   -5.8570   25.2910  -29.9400 Br  0  0  0  0  0  0  0  0  0  0  0  0
   -4.9930   23.8560  -30.8560 C   0  0  0  0  0  0  0  0  0  0  0  0
   -5.6260   23.2460  -31.9620 C   0  0  0  0  0  0  0  0  0  0  0  0
   -4.9980   22.1940  -32.6540 C   0  0  0  0  0  0  0  0  0  0  0  0
   -3.7420   21.7810  -32.2070 C   0  0  0  0  0  0  0  0  0  0  0  0
   -2.8830   20.8020  -32.6690 C   0  0  0  0  0  0  0  0  0  0  0  0
   -3.0770   19.9010  -33.8500 C   0  0  0  0  0  0  0  0  0  0  0  0
   -4.0610   18.8470  -33.5160 N   0  0  0  0  0  0  0  0  0  0  0  0
   -4.9290   18.5480  -34.6660 C   0  0  0  0  0  0  0  0  0  0  0  0
   -6.1030   17.6620  -34.2260 C   0  0  0  0  0  0  0  0  0  0  0  0
   -5.7650   16.7690  -33.0960 N   0  0  0  0  0  0  0  0  0  0  0  0
   -6.4680   17.0470  -31.8250 C   0  0  0  0  0  0  0  0  0  0  0  0
   -7.3330   18.2860  -31.8620 C   0  0  0  0  0  0  0  0  0  0  0  0
   -8.6880   18.1920  -32.2210 C   0  0  0  0  0  0  0  0  0  0  0  0
   -9.4720   19.3440  -32.3270 C   0  0  0  0  0  0  0  0  0  0  0  0
   -8.9090   20.5980  -32.0860 C   0  0  0  0  0  0  0  0  0  0  0  0
   -7.5660   20.7020  -31.7160 C   0  0  0  0  0  0  0  0  0  0  0  0
   -6.7790   19.5520  -31.6060 C   0  0  0  0  0  0  0  0  0  0  0  0
   -4.3400   16.4050  -32.9760 C   0  0  0  0  0  0  0  0  0  0  0  0
   -3.3830   17.6160  -33.0620 C   0  0  0  0  0  0  0  0  0  0  0  0
   -1.7650   20.8610  -31.8410 C   0  0  0  0  0  0  0  0  0  0  0  0
   -1.9240   21.8220  -30.9030 N   0  0  0  0  0  0  0  0  0  0  0  0
   -3.1270   22.3740  -31.1340 C   0  0  0  0  0  0  0  0  0  0  0  0
   -3.7240   23.4190  -30.4320 C   0  0  0  0  0  0  0  0  0  0  0  0
   -6.6176   23.5962  -32.2847 H   0  0  0  0  0  0  0  0  0  0  0  0
   -5.4805   21.7135  -33.5179 H   0  0  0  0  0  0  0  0  0  0  0  0
   -3.4468   20.4898  -34.7024 H   0  0  0  0  0  0  0  0  0  0  0  0
   -2.1169   19.4332  -34.1134 H   0  0  0  0  0  0  0  0  0  0  0  0
   -5.3192   19.4889  -35.0814 H   0  0  0  0  0  0  0  0  0  0  0  0
   -4.3432   18.0155  -35.4298 H   0  0  0  0  0  0  0  0  0  0  0  0
   -6.9368   18.3116  -33.9214 H   0  0  0  0  0  0  0  0  0  0  0  0
   -6.3695   17.0228  -35.0806 H   0  0  0  0  0  0  0  0  0  0  0  0
   -7.1082   16.1846  -31.5875 H   0  0  0  0  0  0  0  0  0  0  0  0
   -5.6938   17.2207  -31.0632 H   0  0  0  0  0  0  0  0  0  0  0  0
   -9.1342   17.2064  -32.4197 H   0  0  0  0  0  0  0  0  0  0  0  0
  -10.5342   19.2622  -32.6008 H   0  0  0  0  0  0  0  0  0  0  0  0
   -9.5231   21.5050  -32.1874 H   0  0  0  0  0  0  0  0  0  0  0  0
   -7.1274   21.6897  -31.5110 H   0  0  0  0  0  0  0  0  0  0  0  0
   -5.7210   19.6383  -31.3177 H   0  0  0  0  0  0  0  0  0  0  0  0
   -4.1880   15.9098  -32.0056 H   0  0  0  0  0  0  0  0  0  0  0  0
   -4.1029   15.7454  -33.8238 H   0  0  0  0  0  0  0  0  0  0  0  0
   -2.9545   17.7974  -32.0653 H   0  0  0  0  0  0  0  0  0  0  0  0
   -2.6053   17.3731  -33.8010 H   0  0  0  0  0  0  0  0  0  0  0  0
   -0.8782   20.2172  -31.9364 H   0  0  0  0  0  0  0  0  0  0  0  0
   -1.2410   22.0850  -30.1580 H   0  0  0  0  0  0  0  0  0  0  0  0
   -3.2198   23.8875  -29.5739 H   0  0  0  0  0  0  0  0  0  0  0  0
  1  2  1  0
  2  3  2  0
  3  4  1  0
  4  5  2  0
  5  6  1  0
  6  7  1  0
  7  8  1  0
  8  9  1  0
  9 10  1  0
 10 11  1  0
 11 12  1  0
 12 13  1  0
 13 14  2  0
 14 15  1  0
 15 16  2  0
 16 17  1  0
 17 18  2  0
 11 19  1  0
 19 20  1  0
  6 21  2  0
 21 22  1  0
 22 23  1  0
 23 24  2  0
 24  2  1  0
 23  5  1  0
 20  8  1  0
 18 13  1  0
  3 25  1  0
  4 26  1  0
  7 27  1  0
  7 28  1  0
  9 29  1  0
  9 30  1  0
 10 31  1  0
 10 32  1  0
 12 33  1  0
 12 34  1  0
 14 35  1  0
 15 36  1  0
 16 37  1  0
 17 38  1  0
 18 39  1  0
 19 40  1  0
 19 41  1  0
 20 42  1  0
 20 43  1  0
 21 44  1  0
 22 45  1  0
 24 46  1  0
M  END
>  <UniqueID>  (16) 
15

>  <SMILES>  (16) 
Brc1ccc2c(CN3CCN(Cc4ccccc4)CC3)c[nH]c2c1

>  <Energy>  (16) 
92.39498368797409

>  <Genealogy>  (16) 
Brc1ccc2c(CN3CCN(Cc4ccccc4)CC3)c[nH]c2c1 (3D coordinates assigned)
Brc1ccc2c(CN3CCN(Cc4ccccc4)CC3)c[nH]c2c1 (nonaromatic ring conformer: 92.39498368797409 kcal/mol)

>  <smiles>  (16) 
Brc1ccc2c(CN3CCN(Cc4ccccc4)CC3)c[nH]c2c1

>  <score_type>  (16) 
oracle

>  <origin>  (16) 
adg

>  <m_score__min__energy>  (16) 
-9.5600000000000005

>  <m_primary>  (16) 
energy

$$$$
16:0
     RDKit          3D

 35 37  0  0  0  0  0  0  0  0999 V2000
   -2.1580   25.1580  -27.9970 C   0  0  0  0  0  0  0  0  0  0  0  0
   -2.5960   25.2950  -29.3450 O   0  0  0  0  0  0  0  0  0  0  0  0
   -3.5730   24.4880  -29.9490 C   0  0  0  0  0  0  0  0  0  0  0  0
   -4.7740   25.0210  -30.4580 C   0  0  0  0  0  0  0  0  0  0  0  0
   -5.7200   24.1850  -31.0540 C   0  0  0  0  0  0  0  0  0  0  0  0
   -5.4810   22.8070  -31.1690 C   0  0  0  0  0  0  0  0  0  0  0  0
   -6.4540   21.9360  -31.7690 N   0  0  0  0  0  0  0  0  0  0  0  0
   -7.7520   22.0270  -31.5240 N   0  0  0  0  0  0  0  0  0  0  0  0
   -8.3470   21.1210  -32.3250 C   0  0  0  0  0  0  0  0  0  0  0  0
   -9.8110   20.8390  -32.3150 C   0  0  0  0  0  0  0  0  0  0  0  0
   -7.4520   20.4390  -33.0660 N   0  0  0  0  0  0  0  0  0  0  0  0
   -6.2700   20.9650  -32.6970 C   0  0  0  0  0  0  0  0  0  0  0  0
   -4.9680   20.4480  -33.1740 C   0  0  0  0  0  0  0  0  0  0  0  0
   -3.8900   21.3130  -33.4110 C   0  0  0  0  0  0  0  0  0  0  0  0
   -2.6690   20.7900  -33.8460 C   0  0  0  0  0  0  0  0  0  0  0  0
   -2.5260   19.4500  -34.0230 N   0  0  0  0  0  0  0  0  0  0  0  0
   -3.5490   18.5870  -33.7830 C   0  0  0  0  0  0  0  0  0  0  0  0
   -4.7850   19.0680  -33.3480 C   0  0  0  0  0  0  0  0  0  0  0  0
   -4.2950   22.2730  -30.6440 C   0  0  0  0  0  0  0  0  0  0  0  0
   -3.3450   23.1060  -30.0450 C   0  0  0  0  0  0  0  0  0  0  0  0
   -1.8630   22.4020  -29.4150 Cl  0  0  0  0  0  0  0  0  0  0  0  0
   -2.9822   25.4158  -27.3157 H   0  0  0  0  0  0  0  0  0  0  0  0
   -1.8448   24.1190  -27.8170 H   0  0  0  0  0  0  0  0  0  0  0  0
   -1.3086   25.8334  -27.8170 H   0  0  0  0  0  0  0  0  0  0  0  0
   -4.9672   26.1015  -30.3854 H   0  0  0  0  0  0  0  0  0  0  0  0
   -6.6599   24.6097  -31.4364 H   0  0  0  0  0  0  0  0  0  0  0  0
  -10.1642   20.7710  -31.2755 H   0  0  0  0  0  0  0  0  0  0  0  0
  -10.3443   21.6509  -32.8311 H   0  0  0  0  0  0  0  0  0  0  0  0
  -10.0046   19.8871  -32.8311 H   0  0  0  0  0  0  0  0  0  0  0  0
   -7.6340   19.6520  -33.7280 H   0  0  0  0  0  0  0  0  0  0  0  0
   -4.0046   22.3959  -33.2556 H   0  0  0  0  0  0  0  0  0  0  0  0
   -1.8227   21.4638  -34.0454 H   0  0  0  0  0  0  0  0  0  0  0  0
   -3.4022   17.5071  -33.9320 H   0  0  0  0  0  0  0  0  0  0  0  0
   -5.6099   18.3698  -33.1430 H   0  0  0  0  0  0  0  0  0  0  0  0
   -4.1108   21.1902  -30.7040 H   0  0  0  0  0  0  0  0  0  0  0  0
  1  2  1  0
  2  3  1  0
  3  4  2  0
  4  5  1  0
  5  6  2  0
  6  7  1  0
  7  8  1  0
  8  9  2  0
  9 10  1  0
  9 11  1  0
 11 12  2  0
 12 13  1  0
 13 14  2  0
 14 15  1  0
 15 16  2  0
 16 17  1  0
 17 18  2  0
  6 19  1  0
 19 20  2  0
 20 21  1  0
 20  3  1  0
 12  7  1  0
 18 13  1  0
  1 22  1  0
  1 23  1  0
  1 24  1  0
  4 25  1  0
  5 26  1  0
 10 27  1  0
 10 28  1  0
 10 29  1  0
 11 30  1  0
 14 31  1  0
 15 32  1  0
 17 33  1  0
 18 34  1  0
 19 35  1  0
M  CHG  1  11   1
M  END
>  <UniqueID>  (17) 
16

>  <SMILES>  (17) 
COc1ccc(-n2nc(C)[nH+]c2-c2ccncc2)cc1Cl

>  <Energy>  (17) 
79.81098846644005

>  <Genealogy>  (17) 
COc1ccc(-n2nc(C)[nH+]c2-c2ccncc2)cc1Cl (protonated)
COc1ccc(-n2nc(C)[nH+]c2-c2ccncc2)cc1Cl (3D coordinates assigned)
COc1ccc(-n2nc(C)[nH+]c2-c2ccncc2)cc1Cl (optimized conformer: 79.81098846644005 kcal/mol)

>  <smiles>  (17) 
COc1ccc(-n2nc(C)nc2-c2ccncc2)cc1Cl

>  <score_type>  (17) 
oracle

>  <origin>  (17) 
adg

>  <m_score__min__energy>  (17) 
-7.3300000000000001

>  <m_primary>  (17) 
energy

$$$$
17:0
     RDKit          3D

 38 40  0  0  0  0  0  0  0  0999 V2000
   -8.9570   21.5600  -31.6020 C   0  0  0  0  0  0  0  0  0  0  0  0
   -7.9610   22.7190  -31.6210 C   0  0  0  0  0  0  0  0  0  0  0  0
   -6.5600   22.2870  -32.0780 C   0  0  0  0  0  0  0  0  0  0  0  0
   -5.4630   23.0370  -31.3470 C   0  0  0  0  0  0  0  0  0  0  0  0
   -5.5800   24.4280  -31.2370 C   0  0  0  0  0  0  0  0  0  0  0  0
   -4.6210   25.1730  -30.5620 C   0  0  0  0  0  0  0  0  0  0  0  0
   -3.5020   24.5490  -29.9920 C   0  0  0  0  0  0  0  0  0  0  0  0
   -2.5080   25.2900  -29.3300 O   0  0  0  0  0  0  0  0  0  0  0  0
   -2.1290   25.1070  -27.9700 C   0  0  0  0  0  0  0  0  0  0  0  0
   -3.3510   23.1510  -30.0910 C   0  0  0  0  0  0  0  0  0  0  0  0
   -4.3570   22.3850  -30.7460 C   0  0  0  0  0  0  0  0  0  0  0  0
   -4.2210   20.5880  -30.8230 S   0  0  0  0  0  0  0  0  0  0  0  0
   -2.8650   20.7390  -31.9720 C   0  0  0  0  0  0  0  0  0  0  0  0
   -3.0680   20.5480  -33.3030 N   0  0  0  0  0  0  0  0  0  0  0  0
   -2.0680   20.7270  -34.2060 C   0  0  0  0  0  0  0  0  0  0  0  0
   -0.8020   21.1350  -33.7790 C   0  0  0  0  0  0  0  0  0  0  0  0
   -0.5760   21.3530  -32.4180 C   0  0  0  0  0  0  0  0  0  0  0  0
   -1.6140   21.1530  -31.4970 C   0  0  0  0  0  0  0  0  0  0  0  0
   -1.4120   21.3900  -30.0200 C   0  0  0  0  0  0  0  0  0  0  0  0
   -2.1610   22.5520  -29.5190 N   0  0  0  0  0  0  0  0  0  0  0  0
   -9.1876   21.2917  -30.5604 H   0  0  0  0  0  0  0  0  0  0  0  0
   -9.8813   21.8624  -32.1159 H   0  0  0  0  0  0  0  0  0  0  0  0
   -8.5190   20.6917  -32.1159 H   0  0  0  0  0  0  0  0  0  0  0  0
   -8.3332   23.4920  -32.3094 H   0  0  0  0  0  0  0  0  0  0  0  0
   -7.8732   23.0994  -30.5926 H   0  0  0  0  0  0  0  0  0  0  0  0
   -6.4412   21.2103  -31.8868 H   0  0  0  0  0  0  0  0  0  0  0  0
   -6.4689   22.5153  -33.1502 H   0  0  0  0  0  0  0  0  0  0  0  0
   -6.4426   24.9377  -31.6910 H   0  0  0  0  0  0  0  0  0  0  0  0
   -4.7407   26.2629  -30.4739 H   0  0  0  0  0  0  0  0  0  0  0  0
   -2.9236   25.4907  -27.3131 H   0  0  0  0  0  0  0  0  0  0  0  0
   -1.9758   24.0357  -27.7730 H   0  0  0  0  0  0  0  0  0  0  0  0
   -1.1948   25.6533  -27.7730 H   0  0  0  0  0  0  0  0  0  0  0  0
   -2.2560   20.5502  -35.2753 H   0  0  0  0  0  0  0  0  0  0  0  0
    0.0089   21.2831  -34.5074 H   0  0  0  0  0  0  0  0  0  0  0  0
    0.4144   21.6810  -32.0694 H   0  0  0  0  0  0  0  0  0  0  0  0
   -1.7442   20.4957  -29.4724 H   0  0  0  0  0  0  0  0  0  0  0  0
   -0.3426   21.5934  -29.8616 H   0  0  0  0  0  0  0  0  0  0  0  0
   -1.7390   23.0240  -28.6880 H   0  0  0  0  0  0  0  0  0  0  0  0
  1  2  1  0
  2  3  1  0
  3  4  1  0
  4  5  2  0
  5  6  1  0
  6  7  2  0
  7  8  1  0
  8  9  1  0
  7 10  1  0
 10 11  2  0
 11 12  1  0
 12 13  1  0
 13 14  2  0
 14 15  1  0
 15 16  2  0
 16 17  1  0
 17 18  2  0
 18 19  1  0
 19 20  1  0
 11  4  1  0
 18 13  1  0
 20 10  1  0
  1 21  1  0
  1 22  1  0
  1 23  1  0
  2 24  1  0
  2 25  1  0
  3 26  1  0
  3 27  1  0
  5 28  1  0
  6 29  1  0
  9 30  1  0
  9 31  1  0
  9 32  1  0
 15 33  1  0
 16 34  1  0
 17 35  1  0
 19 36  1  0
 19 37  1  0
 20 38  1  0
M  END
>  <UniqueID>  (18) 
17

>  <SMILES>  (18) 
CCCc1ccc(OC)c2c1Sc1ncccc1CN2

>  <Energy>  (18) 
46.57242793043389

>  <Genealogy>  (18) 
CCCc1ccc(OC)c2c1Sc1ncccc1CN2 (3D coordinates assigned)
CCCc1ccc(OC)c2c1Sc1ncccc1CN2 (nonaromatic ring conformer: 46.57242793043389 kcal/mol)

>  <smiles>  (18) 
CCCc1ccc(OC)c2c1Sc1ncccc1CN2

>  <score_type>  (18) 
oracle

>  <origin>  (18) 
adg

>  <m_score__min__energy>  (18) 
-6.6600000000000001

>  <m_primary>  (18) 
energy

$$$$
18:0
     RDKit          3D

 31 33  0  0  0  0  0  0  0  0999 V2000
   -5.2930   20.9420  -33.0550 C   0  0  0  0  0  0  0  0  0  0  0  0
   -5.7830   22.1360  -32.3110 C   0  0  0  0  0  0  0  0  0  0  0  0
   -4.9870   23.1580  -31.9310 N   0  0  0  0  0  0  0  0  0  0  0  0
   -5.6660   24.0910  -31.2080 C   0  0  0  0  0  0  0  0  0  0  0  0
   -5.0050   25.2980  -30.6920 C   0  0  0  0  0  0  0  0  0  0  0  0
   -5.6900   26.3320  -30.4700 O   0  0  0  0  0  0  0  0  0  0  0  0
   -3.5910   25.2910  -30.4480 N   0  0  0  0  0  0  0  0  0  0  0  0
   -2.8780   24.4580  -29.4780 C   0  0  1  0  0  0  0  0  0  0  0  0
   -3.7410   24.1740  -28.2310 C   0  0  0  0  0  0  0  0  0  0  0  0
   -2.9340   23.4210  -27.1600 C   0  0  0  0  0  0  0  0  0  0  0  0
   -2.1680   22.2900  -27.7780 C   0  0  0  0  0  0  0  0  0  0  0  0
   -1.6230   21.2720  -27.0800 N   0  0  0  0  0  0  0  0  0  0  0  0
   -0.9850   20.5410  -28.0210 C   0  0  0  0  0  0  0  0  0  0  0  0
   -1.1440   21.1290  -29.2580 C   0  0  0  0  0  0  0  0  0  0  0  0
   -1.8720   22.2430  -29.0900 N   0  0  0  0  0  0  0  0  0  0  0  0
   -2.3770   23.1460  -30.1220 C   0  0  0  0  0  0  0  0  0  0  0  0
   -7.0140   23.8030  -30.9960 C   0  0  0  0  0  0  0  0  0  0  0  0
   -7.3510   22.3330  -31.7390 S   0  0  0  0  0  0  0  0  0  0  0  0
   -4.9758   20.1690  -32.3396 H   0  0  0  0  0  0  0  0  0  0  0  0
   -6.1016   20.5467  -33.6874 H   0  0  0  0  0  0  0  0  0  0  0  0
   -4.4398   21.2287  -33.6874 H   0  0  0  0  0  0  0  0  0  0  0  0
   -1.9957   25.0252  -29.1467 H   0  0  0  0  0  0  0  0  0  0  0  0
   -4.0918   25.1285  -27.8117 H   0  0  0  0  0  0  0  0  0  0  0  0
   -4.5938   23.5474  -28.5312 H   0  0  0  0  0  0  0  0  0  0  0  0
   -2.2290   24.1171  -26.6820 H   0  0  0  0  0  0  0  0  0  0  0  0
   -3.6297   23.0127  -26.4122 H   0  0  0  0  0  0  0  0  0  0  0  0
   -0.4229   19.6152  -27.8287 H   0  0  0  0  0  0  0  0  0  0  0  0
   -0.7454   20.7522  -30.2115 H   0  0  0  0  0  0  0  0  0  0  0  0
   -1.5693   23.3745  -30.8329 H   0  0  0  0  0  0  0  0  0  0  0  0
   -3.2119   22.6609  -30.6488 H   0  0  0  0  0  0  0  0  0  0  0  0
   -7.7299   24.4271  -30.4410 H   0  0  0  0  0  0  0  0  0  0  0  0
  1  2  1  0
  2  3  2  0
  3  4  1  0
  4  5  1  0
  5  6  2  0
  5  7  1  0
  7  8  1  0
  8  9  1  0
  9 10  1  0
 10 11  1  0
 11 12  2  0
 12 13  1  0
 13 14  2  0
 14 15  1  0
 15 16  1  0
  4 17  2  0
 17 18  1  0
 18  2  1  0
 16  8  1  0
 15 11  1  0
  1 19  1  0
  1 20  1  0
  1 21  1  0
  8 22  1  1
  9 23  1  0
  9 24  1  0
 10 25  1  0
 10 26  1  0
 13 27  1  0
 14 28  1  0
 16 29  1  0
 16 30  1  0
 17 31  1  0
M  CHG  1   7  -1
M  END
>  <UniqueID>  (19) 
18

>  <SMILES>  (19) 
Cc1nc(C(=O)[N-][C@H]2CCc3nccn3C2)cs1

>  <Energy>  (19) 
87.294224576493

>  <Genealogy>  (19) 
Cc1nc(C(=O)[N-]C2CCc3nccn3C2)cs1 (protonated)
Cc1nc(C(=O)[N-][C@H]2CCc3nccn3C2)cs1 (chirality)
Cc1nc(C(=O)[N-][C@H]2CCc3nccn3C2)cs1 (3D coordinates assigned)
Cc1nc(C(=O)[N-][C@H]2CCc3nccn3C2)cs1 (nonaromatic ring conformer: 87.294224576493 kcal/mol)

>  <smiles>  (19) 
Cc1nc(C(=O)NC2CCc3nccn3C2)cs1

>  <score_type>  (19) 
oracle

>  <origin>  (19) 
adg

>  <m_score__min__energy>  (19) 
-7.9500000000000002

>  <m_primary>  (19) 
energy

$$$$
19:0
     RDKit          3D

 22 23  0  0  0  0  0  0  0  0999 V2000
   -4.1810   25.2970  -29.9740 N   0  0  0  0  0  0  0  0  0  0  0  0
   -4.9530   24.3800  -30.4100 C   0  0  0  0  0  0  0  0  0  0  0  0
   -4.8150   23.7640  -31.6000 N   0  0  0  0  0  0  0  0  0  0  0  0
   -5.6830   22.7990  -32.0050 C   0  0  0  0  0  0  0  0  0  0  0  0
   -6.7340   22.4330  -31.1900 C   0  0  0  0  0  0  0  0  0  0  0  0
   -7.6420   21.3980  -31.6590 C   0  0  0  0  0  0  0  0  0  0  0  0
   -8.9660   21.7710  -31.8420 C   0  0  0  0  0  0  0  0  0  0  0  0
   -9.8420   20.7900  -32.2890 C   0  0  0  0  0  0  0  0  0  0  0  0
   -9.4300   19.5020  -32.5440 C   0  0  0  0  0  0  0  0  0  0  0  0
   -8.1010   19.1190  -32.3640 C   0  0  0  0  0  0  0  0  0  0  0  0
   -7.2310   20.1060  -31.9160 C   0  0  0  0  0  0  0  0  0  0  0  0
   -6.8670   23.0700  -29.9750 C   0  0  0  0  0  0  0  0  0  0  0  0
   -5.9900   24.0270  -29.5940 N   0  0  0  0  0  0  0  0  0  0  0  0
   -4.3050   25.6330  -28.9900 H   0  0  0  0  0  0  0  0  0  0  0  0
   -5.5473   22.3108  -32.9813 H   0  0  0  0  0  0  0  0  0  0  0  0
   -9.3066   22.7976  -31.6420 H   0  0  0  0  0  0  0  0  0  0  0  0
  -10.8992   21.0512  -32.4442 H   0  0  0  0  0  0  0  0  0  0  0  0
  -10.1624   18.7608  -32.8963 H   0  0  0  0  0  0  0  0  0  0  0  0
   -7.7603   18.0927  -32.5654 H   0  0  0  0  0  0  0  0  0  0  0  0
   -6.1733   19.8471  -31.7602 H   0  0  0  0  0  0  0  0  0  0  0  0
   -7.6968   22.7968  -29.3066 H   0  0  0  0  0  0  0  0  0  0  0  0
   -6.1200   24.4940  -28.6600 H   0  0  0  0  0  0  0  0  0  0  0  0
  1  2  2  3
  2  3  1  0
  3  4  2  0
  4  5  1  0
  5  6  1  0
  6  7  2  0
  7  8  1  0
  8  9  2  0
  9 10  1  0
 10 11  2  0
  5 12  2  0
 12 13  1  0
 13  2  1  0
 11  6  1  0
  1 14  1  0
  4 15  1  0
  7 16  1  0
  8 17  1  0
  9 18  1  0
 10 19  1  0
 11 20  1  0
 12 21  1  0
 13 22  1  0
M  END
>  <smiles>  (20) 
N=c1ncc(-c2ccccc2)c[nH]1

>  <score_type>  (20) 
oracle

>  <origin>  (20) 
adg

>  <m_score__min__energy>  (20) 
-6.7599999999999998

>  <m_primary>  (20) 
energy

$$$$
20:0
     RDKit          3D

 42 45  0  0  1  0  0  0  0  0999 V2000
   -1.5080   25.6070  -28.9460 O   0  0  0  0  0  0  0  0  0  0  0  0
   -1.8600   25.1200  -27.8230 C   0  0  0  0  0  0  0  0  0  0  0  0
   -2.6910   23.9650  -27.8920 N   0  0  0  0  0  0  0  0  0  0  0  0
   -3.0280   23.4920  -29.1870 C   0  0  0  0  0  0  0  0  0  0  0  0
   -2.2490   22.5140  -29.7560 C   0  0  0  0  0  0  0  0  0  0  0  0
   -2.5280   22.0030  -31.0330 C   0  0  0  0  0  0  0  0  0  0  0  0
   -3.5970   22.4570  -31.7780 C   0  0  0  0  0  0  0  0  0  0  0  0
   -3.9260   21.9320  -33.1380 C   0  0  0  0  0  0  0  0  0  0  0  0
   -4.9550   20.9980  -33.1700 N   0  0  0  0  0  0  0  0  0  0  0  0
   -6.1300   21.1010  -32.7600 C   0  0  0  0  0  0  0  0  0  0  0  0
   -6.6350   22.3590  -32.6920 N   0  0  0  0  0  0  0  0  0  0  0  0
   -7.8620   22.6690  -32.2950 C   0  0  0  0  0  0  0  0  0  0  0  0
   -8.6570   21.6450  -31.9340 N   0  0  0  0  0  0  0  0  0  0  0  0
   -8.1850   20.3670  -31.9870 C   0  0  0  0  0  0  0  0  0  0  0  0
   -9.0660   18.8450  -31.5440 S   0  0  0  0  0  0  0  0  0  0  0  0
   -7.6520   17.8180  -31.9390 C   0  0  0  0  0  0  0  0  0  0  0  0
   -6.6210   18.7100  -32.3760 C   0  0  0  0  0  0  0  0  0  0  0  0
   -6.9380   19.9970  -32.3850 C   0  0  0  0  0  0  0  0  0  0  0  0
   -4.3630   23.4510  -31.1600 C   0  0  0  0  0  0  0  0  0  0  0  0
   -4.0970   23.9530  -29.9170 C   0  0  0  0  0  0  0  0  0  0  0  0
   -1.4410   25.7040  -26.5630 C   0  0  0  0  0  0  0  0  0  0  0  0
   -1.2460   27.0420  -26.3710 C   0  0  0  0  0  0  0  0  0  0  0  0
   -0.8430   27.4940  -25.1220 C   0  0  0  0  0  0  0  0  0  0  0  0
   -0.6290   26.6470  -24.0560 C   0  0  0  0  0  0  0  0  0  0  0  0
   -0.2340   27.1050  -22.8340 F   0  0  0  0  0  0  0  0  0  0  0  0
   -0.8280   25.2960  -24.2580 C   0  0  0  0  0  0  0  0  0  0  0  0
   -1.2260   24.8570  -25.4950 C   0  0  0  0  0  0  0  0  0  0  0  0
   -3.0260   23.4990  -27.0260 H   0  0  0  0  0  0  0  0  0  0  0  0
   -1.3861   22.1221  -29.1975 H   0  0  0  0  0  0  0  0  0  0  0  0
   -1.8777   21.2203  -31.4508 H   0  0  0  0  0  0  0  0  0  0  0  0
   -4.2164   22.7827  -33.7720 H   0  0  0  0  0  0  0  0  0  0  0  0
   -3.0249   21.4118  -33.4950 H   0  0  0  0  0  0  0  0  0  0  0  0
   -6.0240   23.1870  -32.9730 H   0  0  0  0  0  0  0  0  0  0  0  0
   -8.2123   23.7112  -32.2625 H   0  0  0  0  0  0  0  0  0  0  0  0
   -7.5888   16.7226  -31.8614 H   0  0  0  0  0  0  0  0  0  0  0  0
   -5.6285   18.3501  -32.6848 H   0  0  0  0  0  0  0  0  0  0  0  0
   -5.2297   23.8518  -31.7061 H   0  0  0  0  0  0  0  0  0  0  0  0
   -4.7461   24.7350  -29.4961 H   0  0  0  0  0  0  0  0  0  0  0  0
   -1.4062   27.7523  -27.1955 H   0  0  0  0  0  0  0  0  0  0  0  0
   -0.6880   28.5733  -24.9769 H   0  0  0  0  0  0  0  0  0  0  0  0
   -0.6694   24.5807  -23.4375 H   0  0  0  0  0  0  0  0  0  0  0  0
   -1.3812   23.7781  -25.6428 H   0  0  0  0  0  0  0  0  0  0  0  0
  1  2  2  0
  2  3  1  0
  3  4  1  0
  4  5  2  0
  5  6  1  0
  6  7  2  0
  7  8  1  0
  8  9  1  0
  9 10  2  0
 10 11  1  0
 11 12  1  0
 12 13  2  0
 13 14  1  0
 14 15  1  0
 15 16  1  0
 16 17  2  0
 17 18  1  0
  7 19  1  0
 19 20  2  0
  2 21  1  0
 21 22  2  0
 22 23  1  0
 23 24  2  0
 24 25  1  0
 24 26  1  0
 26 27  2  0
 20  4  1  0
 27 21  1  0
 18 10  1  0
 18 14  2  0
  3 28  1  0
  5 29  1  0
  6 30  1  0
  8 31  1  0
  8 32  1  0
 11 33  1  0
 12 34  1  0
 16 35  1  0
 17 36  1  0
 19 37  1  0
 20 38  1  0
 22 39  1  0
 23 40  1  0
 26 41  1  0
 27 42  1  0
M  END
>  <smiles>  (21) 
O=C(Nc1ccc(CN=c2[nH]cnc3sccc23)cc1)c1ccc(F)cc1

>  <score_type>  (21) 
oracle

>  <origin>  (21) 
adg

>  <m_score__min__energy>  (21) 
-8.9700000000000006

>  <m_primary>  (21) 
energy

$$$$
21:0
     RDKit          3D

 52 55  0  0  0  0  0  0  0  0999 V2000
    0.9470   25.6170  -23.3380 H   0  0  0  0  0  0  0  0  0  0  0  0
    0.8020   26.0960  -24.2540 N   0  0  0  0  0  0  0  0  0  0  0  0
   -0.3570   26.5180  -24.6540 C   0  0  0  0  0  0  0  0  0  0  0  0
   -1.1400   25.7580  -25.6620 C   0  0  0  0  0  0  0  0  0  0  0  0
   -2.5360   25.6470  -25.5380 C   0  0  0  0  0  0  0  0  0  0  0  0
   -3.0489   26.1269  -24.6915 H   0  0  0  0  0  0  0  0  0  0  0  0
   -3.2770   24.9310  -26.4830 C   0  0  0  0  0  0  0  0  0  0  0  0
   -4.3682   24.8457  -26.3730 H   0  0  0  0  0  0  0  0  0  0  0  0
   -2.6360   24.3220  -27.5690 C   0  0  0  0  0  0  0  0  0  0  0  0
   -3.4100   23.6060  -28.5440 N   0  0  0  0  0  0  0  0  0  0  0  0
   -3.9480   22.2850  -28.2060 C   0  0  0  0  0  0  0  0  0  0  0  0
   -4.4569   22.3369  -27.2322 H   0  0  0  0  0  0  0  0  0  0  0  0
   -4.6623   21.9755  -28.9832 H   0  0  0  0  0  0  0  0  0  0  0  0
   -2.8310   21.2800  -28.1320 C   0  0  0  0  0  0  0  0  0  0  0  0
   -2.8180   20.3050  -27.1200 C   0  0  0  0  0  0  0  0  0  0  0  0
   -3.6114   20.2953  -26.3581 H   0  0  0  0  0  0  0  0  0  0  0  0
   -1.8000   19.3470  -27.0780 C   0  0  0  0  0  0  0  0  0  0  0  0
   -1.7892   18.5917  -26.2784 H   0  0  0  0  0  0  0  0  0  0  0  0
   -0.7940   19.3480  -28.0530 C   0  0  0  0  0  0  0  0  0  0  0  0
    0.2510   18.3600  -28.0090 C   0  0  0  0  0  0  0  0  0  0  0  0
    1.0940   17.5670  -27.9730 N   0  0  0  0  0  0  0  0  0  0  0  0
   -0.8090   20.3120  -29.0700 C   0  0  0  0  0  0  0  0  0  0  0  0
   -0.0217   20.3127  -29.8382 H   0  0  0  0  0  0  0  0  0  0  0  0
   -1.8240   21.2730  -29.1090 C   0  0  0  0  0  0  0  0  0  0  0  0
   -1.8330   22.0273  -29.9096 H   0  0  0  0  0  0  0  0  0  0  0  0
   -3.5510   24.1410  -29.9030 C   0  0  0  0  0  0  0  0  0  0  0  0
   -4.0089   25.1400  -29.8559 H   0  0  0  0  0  0  0  0  0  0  0  0
   -2.5575   24.2088  -30.3702 H   0  0  0  0  0  0  0  0  0  0  0  0
   -4.4230   23.2310  -30.7240 C   0  0  0  0  0  0  0  0  0  0  0  0
   -3.8460   22.3450  -31.6490 C   0  0  0  0  0  0  0  0  0  0  0  0
   -2.7568   22.3490  -31.8025 H   0  0  0  0  0  0  0  0  0  0  0  0
   -4.6460   21.4580  -32.3760 C   0  0  0  0  0  0  0  0  0  0  0  0
   -4.1855   20.7778  -33.1076 H   0  0  0  0  0  0  0  0  0  0  0  0
   -6.0350   21.4330  -32.1750 C   0  0  0  0  0  0  0  0  0  0  0  0
   -6.8470   20.5390  -32.8910 C   0  0  0  0  0  0  0  0  0  0  0  0
   -6.3962   19.8542  -33.6244 H   0  0  0  0  0  0  0  0  0  0  0  0
   -8.2280   20.5180  -32.6730 C   0  0  0  0  0  0  0  0  0  0  0  0
   -8.8610   19.8159  -33.2354 H   0  0  0  0  0  0  0  0  0  0  0  0
   -8.8070   21.3860  -31.7430 C   0  0  0  0  0  0  0  0  0  0  0  0
   -9.8940   21.3644  -31.5759 H   0  0  0  0  0  0  0  0  0  0  0  0
   -8.0090   22.2820  -31.0240 C   0  0  0  0  0  0  0  0  0  0  0  0
   -8.4695   22.9626  -30.2927 H   0  0  0  0  0  0  0  0  0  0  0  0
   -6.6230   22.3140  -31.2340 C   0  0  0  0  0  0  0  0  0  0  0  0
   -5.8120   23.2060  -30.5130 C   0  0  0  0  0  0  0  0  0  0  0  0
   -6.2665   23.8883  -29.7796 H   0  0  0  0  0  0  0  0  0  0  0  0
   -1.2440   24.4270  -27.6990 C   0  0  0  0  0  0  0  0  0  0  0  0
   -0.6020   23.8170  -28.7280 F   0  0  0  0  0  0  0  0  0  0  0  0
   -0.5020   25.1360  -26.7510 C   0  0  0  0  0  0  0  0  0  0  0  0
    0.5905   25.2086  -26.8569 H   0  0  0  0  0  0  0  0  0  0  0  0
   -0.8720   27.7330  -24.1040 N   0  0  0  0  0  0  0  0  0  0  0  0
   -0.3160   28.2680  -23.4010 H   0  0  0  0  0  0  0  0  0  0  0  0
   -1.8210   28.0850  -24.3560 H   0  0  0  0  0  0  0  0  0  0  0  0
  1  2  1  0
  2  3  2  0
  3  4  1  0
  4  5  2  0
  5  6  1  0
  5  7  1  0
  7  8  1  0
  7  9  2  0
  9 10  1  0
 10 11  1  0
 11 12  1  0
 11 13  1  0
 11 14  1  0
 14 15  2  0
 15 16  1  0
 15 17  1  0
 17 18  1  0
 17 19  2  0
 19 20  1  0
 20 21  3  0
 19 22  1  0
 22 23  1  0
 22 24  2  0
 24 25  1  0
 10 26  1  0
 26 27  1  0
 26 28  1  0
 26 29  1  0
 29 30  2  0
 30 31  1  0
 30 32  1  0
 32 33  1  0
 32 34  2  0
 34 35  1  0
 35 36  1  0
 35 37  2  0
 37 38  1  0
 37 39  1  0
 39 40  1  0
 39 41  2  0
 41 42  1  0
 41 43  1  0
 43 44  2  0
 44 45  1  0
  9 46  1  0
 46 47  1  0
 46 48  2  0
 48 49  1  0
  3 50  1  0
 50 51  1  0
 50 52  1  0
 48  4  1  0
 24 14  1  0
 44 29  1  0
 43 34  1  0
M  END
>  <UniqueID>  (22) 
19

>  <SMILES>  (22) 
[H]/N=C(/N)c1ccc(N(Cc2ccc(C#N)cc2)Cc2ccc3ccccc3c2)c(F)c1

>  <Energy>  (22) 
62.10335083741575

>  <Genealogy>  (22) 
[H]/N=C(/N)c1ccc(N(Cc2ccc(C#N)cc2)Cc2ccc3ccccc3c2)c(F)c1 (cis-trans isomerization)
[H]/N=C(/N)c1ccc(N(Cc2ccc(C#N)cc2)Cc2ccc3ccccc3c2)c(F)c1 (3D coordinates assigned)
[H]/N=C(/N)c1ccc(N(Cc2ccc(C#N)cc2)Cc2ccc3ccccc3c2)c(F)c1 (optimized conformer: 62.10335083741575 kcal/mol)

>  <smiles>  (22) 
N#Cc1ccc(CN(Cc2ccc3ccccc3c2)c2ccc(C(=N)N)cc2F)cc1

>  <score_type>  (22) 
oracle

>  <origin>  (22) 
adg

>  <m_score__min__energy>  (22) 
-9.4800000000000004

>  <m_primary>  (22) 
energy

$$$$
22:0
     RDKit          3D

 65 68  0  0  0  0  0  0  0  0999 V2000
   -1.5130   28.1520  -36.4540 C   0  0  0  0  0  0  0  0  0  0  0  0
   -1.0650   26.9380  -37.0420 O   0  0  0  0  0  0  0  0  0  0  0  0
    0.0190   26.1800  -36.5700 C   0  0  0  0  0  0  0  0  0  0  0  0
    1.2560   26.7620  -36.2320 C   0  0  0  0  0  0  0  0  0  0  0  0
    2.3200   25.9630  -35.8090 C   0  0  0  0  0  0  0  0  0  0  0  0
    2.1620   24.5800  -35.7150 C   0  0  0  0  0  0  0  0  0  0  0  0
    0.9230   23.9840  -36.0160 C   0  0  0  0  0  0  0  0  0  0  0  0
    0.7730   22.4820  -36.0030 C   0  0  0  0  0  0  0  0  0  0  0  0
    0.3980   21.9800  -34.6840 N   0  0  0  0  0  0  0  0  0  0  0  0
   -0.7380   21.1810  -34.3130 C   0  0  0  0  0  0  0  0  0  0  0  0
   -0.9200   20.1060  -34.9400 O   0  0  0  0  0  0  0  0  0  0  0  0
   -1.6890   21.5240  -33.2320 C   0  0  0  0  0  0  0  0  0  0  0  0
   -1.4560   21.6290  -31.8680 C   0  0  0  0  0  0  0  0  0  0  0  0
   -2.6730   22.0350  -31.3510 C   0  0  0  0  0  0  0  0  0  0  0  0
   -2.9830   22.2690  -29.8990 C   0  0  1  0  0  0  0  0  0  0  0  0
   -1.8050   22.8890  -29.1250 C   0  0  0  0  0  0  0  0  0  0  0  0
   -2.1490   22.9730  -27.6240 C   0  0  0  0  0  0  0  0  0  0  0  0
   -3.4970   23.6760  -27.3770 C   0  0  0  0  0  0  0  0  0  0  0  0
   -4.6100   23.0560  -28.2350 C   0  0  0  0  0  0  0  0  0  0  0  0
   -4.1940   23.0830  -29.6480 N   0  0  0  0  0  0  0  0  0  0  0  0
   -4.6530   24.1920  -30.4760 C   0  0  0  0  0  0  0  0  0  0  0  0
   -3.8190   25.0760  -30.8320 O   0  0  0  0  0  0  0  0  0  0  0  0
   -6.0840   24.3340  -30.9380 C   0  0  0  0  0  0  0  0  0  0  0  0
   -6.4390   23.4410  -32.1370 C   0  0  0  0  0  0  0  0  0  0  0  0
   -7.8140   22.7890  -31.9370 C   0  0  0  0  0  0  0  0  0  0  0  0
   -7.7340   21.3010  -32.1360 C   0  0  0  0  0  0  0  0  0  0  0  0
   -6.5590   20.7150  -32.6380 C   0  0  0  0  0  0  0  0  0  0  0  0
   -6.4780   19.3290  -32.8010 C   0  0  0  0  0  0  0  0  0  0  0  0
   -7.5640   18.5160  -32.4570 C   0  0  0  0  0  0  0  0  0  0  0  0
   -8.7310   19.0920  -31.9460 C   0  0  0  0  0  0  0  0  0  0  0  0
   -8.8160   20.4770  -31.7780 C   0  0  0  0  0  0  0  0  0  0  0  0
   -3.5280   22.1760  -32.3360 O   0  0  0  0  0  0  0  0  0  0  0  0
   -2.9660   21.8790  -33.4680 N   0  0  0  0  0  0  0  0  0  0  0  0
   -0.1390   24.7940  -36.4510 C   0  0  0  0  0  0  0  0  0  0  0  0
   -1.4800   28.0627  -35.3581 H   0  0  0  0  0  0  0  0  0  0  0  0
   -0.8602   28.9774  -36.7744 H   0  0  0  0  0  0  0  0  0  0  0  0
   -2.5454   28.3555  -36.7744 H   0  0  0  0  0  0  0  0  0  0  0  0
    1.3847   27.8522  -36.3016 H   0  0  0  0  0  0  0  0  0  0  0  0
    3.2842   26.4246  -35.5495 H   0  0  0  0  0  0  0  0  0  0  0  0
    3.0101   23.9522  -35.4041 H   0  0  0  0  0  0  0  0  0  0  0  0
   -0.0056   22.1968  -36.7258 H   0  0  0  0  0  0  0  0  0  0  0  0
    1.7450   22.0416  -36.2698 H   0  0  0  0  0  0  0  0  0  0  0  0
   -0.5200   21.4344  -31.3239 H   0  0  0  0  0  0  0  0  0  0  0  0
   -3.1785   21.2534  -29.5244 H   0  0  0  0  0  0  0  0  0  0  0  0
   -0.9104   22.2632  -29.2597 H   0  0  0  0  0  0  0  0  0  0  0  0
   -1.6120   23.9014  -29.5094 H   0  0  0  0  0  0  0  0  0  0  0  0
   -2.2004   21.9534  -27.2143 H   0  0  0  0  0  0  0  0  0  0  0  0
   -1.3636   23.5630  -27.1290 H   0  0  0  0  0  0  0  0  0  0  0  0
   -3.7647   23.5763  -26.3147 H   0  0  0  0  0  0  0  0  0  0  0  0
   -3.3935   24.7360  -27.6521 H   0  0  0  0  0  0  0  0  0  0  0  0
   -4.7827   22.0161  -27.9207 H   0  0  0  0  0  0  0  0  0  0  0  0
   -5.5405   23.6290  -28.1093 H   0  0  0  0  0  0  0  0  0  0  0  0
   -6.7468   24.0703  -30.1006 H   0  0  0  0  0  0  0  0  0  0  0  0
   -6.2137   25.3763  -31.2647 H   0  0  0  0  0  0  0  0  0  0  0  0
   -6.4588   24.0535  -33.0505 H   0  0  0  0  0  0  0  0  0  0  0  0
   -5.6807   22.6491  -32.2260 H   0  0  0  0  0  0  0  0  0  0  0  0
   -8.1669   22.9978  -30.9163 H   0  0  0  0  0  0  0  0  0  0  0  0
   -8.5128   23.2063  -32.6770 H   0  0  0  0  0  0  0  0  0  0  0  0
   -5.7004   21.3492  -32.9035 H   0  0  0  0  0  0  0  0  0  0  0  0
   -5.5585   18.8763  -33.2006 H   0  0  0  0  0  0  0  0  0  0  0  0
   -7.4995   17.4258  -32.5884 H   0  0  0  0  0  0  0  0  0  0  0  0
   -9.5847   18.4533  -31.6754 H   0  0  0  0  0  0  0  0  0  0  0  0
   -9.7321   20.9239  -31.3645 H   0  0  0  0  0  0  0  0  0  0  0  0
   -3.4450   21.9190  -34.3930 H   0  0  0  0  0  0  0  0  0  0  0  0
   -1.1063   24.3338  -36.7011 H   0  0  0  0  0  0  0  0  0  0  0  0
  1  2  1  0
  2  3  1  0
  3  4  2  0
  4  5  1  0
  5  6  2  0
  6  7  1  0
  7  8  1  0
  8  9  1  0
  9 10  1  0
 10 11  2  0
 10 12  1  0
 12 13  1  0
 13 14  2  0
 14 15  1  0
 15 16  1  0
 16 17  1  0
 17 18  1  0
 18 19  1  0
 19 20  1  0
 20 21  1  0
 21 22  2  0
 21 23  1  0
 23 24  1  0
 24 25  1  0
 25 26  1  0
 26 27  2  0
 27 28  1  0
 28 29  2  0
 29 30  1  0
 30 31  2  0
 14 32  1  0
 32 33  1  0
  7 34  2  0
 34  3  1  0
 33 12  2  0
 20 15  1  0
 31 26  1  0
  1 35  1  0
  1 36  1  0
  1 37  1  0
  4 38  1  0
  5 39  1  0
  6 40  1  0
  8 41  1  0
  8 42  1  0
 13 43  1  0
 15 44  1  1
 16 45  1  0
 16 46  1  0
 17 47  1  0
 17 48  1  0
 18 49  1  0
 18 50  1  0
 19 51  1  0
 19 52  1  0
 23 53  1  0
 23 54  1  0
 24 55  1  0
 24 56  1  0
 25 57  1  0
 25 58  1  0
 27 59  1  0
 28 60  1  0
 29 61  1  0
 30 62  1  0
 31 63  1  0
 33 64  1  0
 34 65  1  0
M  CHG  2   9  -1  33   1
M  END
>  <UniqueID>  (23) 
20

>  <SMILES>  (23) 
COc1cccc(C[N-]C(=O)c2cc([C@H]3CCCCN3C(=O)CCCc3ccccc3)o[nH+]2)c1

>  <Energy>  (23) 
95.07072593801396

>  <Genealogy>  (23) 
COc1cccc(C[N-]C(=O)c2cc(C3CCCCN3C(=O)CCCc3ccccc3)o[nH+]2)c1 (protonated)
COc1cccc(C[N-]C(=O)c2cc([C@H]3CCCCN3C(=O)CCCc3ccccc3)o[nH+]2)c1 (chirality)
COc1cccc(C[N-]C(=O)c2cc([C@H]3CCCCN3C(=O)CCCc3ccccc3)o[nH+]2)c1 (3D coordinates assigned)
COc1cccc(C[N-]C(=O)c2cc([C@H]3CCCCN3C(=O)CCCc3ccccc3)o[nH+]2)c1 (nonaromatic ring conformer: 95.07072593801396 kcal/mol)

>  <smiles>  (23) 
COc1cccc(CNC(=O)c2cc(C3CCCCN3C(=O)CCCc3ccccc3)on2)c1

>  <score_type>  (23) 
oracle

>  <origin>  (23) 
adg

>  <m_score__min__energy>  (23) 
-10.880000000000001

>  <m_primary>  (23) 
energy

$$$$
23:0
     RDKit          3D

 18 19  0  0  0  0  0  0  0  0999 V2000
   -3.4830   22.2060  -32.5140 C   0  0  0  0  0  0  0  0  0  0  0  0
   -4.8510   22.4180  -32.0810 N   0  0  0  0  0  0  0  0  0  0  0  0
   -5.8650   21.6070  -32.4280 C   0  0  0  0  0  0  0  0  0  0  0  0
   -7.0130   22.0630  -31.8730 N   0  0  0  0  0  0  0  0  0  0  0  0
   -6.7250   23.1700  -31.1700 C   0  0  0  0  0  0  0  0  0  0  0  0
   -7.4670   24.0190  -30.4300 N   0  0  0  0  0  0  0  0  0  0  0  0
   -6.8890   25.0900  -29.8130 C   0  0  0  0  0  0  0  0  0  0  0  0
   -5.5620   25.3040  -29.9430 N   0  0  0  0  0  0  0  0  0  0  0  0
   -4.7770   24.4670  -30.6850 C   0  0  0  0  0  0  0  0  0  0  0  0
   -3.5120   24.6800  -30.8020 N   0  0  0  0  0  0  0  0  0  0  0  0
   -5.3670   23.3880  -31.3050 C   0  0  0  0  0  0  0  0  0  0  0  0
   -2.8312   22.1050  -31.6337 H   0  0  0  0  0  0  0  0  0  0  0  0
   -3.4277   21.2886  -33.1184 H   0  0  0  0  0  0  0  0  0  0  0  0
   -3.1526   23.0637  -33.1184 H   0  0  0  0  0  0  0  0  0  0  0  0
   -5.7763   20.7132  -33.0631 H   0  0  0  0  0  0  0  0  0  0  0  0
   -7.5022   25.7771  -29.2114 H   0  0  0  0  0  0  0  0  0  0  0  0
   -5.1510   26.1410  -29.4540 H   0  0  0  0  0  0  0  0  0  0  0  0
   -3.1140   25.2120  -31.5830 H   0  0  0  0  0  0  0  0  0  0  0  0
  1  2  1  0
  2  3  1  0
  3  4  2  0
  4  5  1  0
  5  6  1  0
  6  7  2  0
  7  8  1  0
  8  9  1  0
  9 10  2  3
  9 11  1  0
 11  2  1  0
 11  5  2  0
  1 12  1  0
  1 13  1  0
  1 14  1  0
  3 15  1  0
  7 16  1  0
  8 17  1  0
 10 18  1  0
M  END
>  <smiles>  (24) 
Cn1cnc2nc[nH]c(=N)c21

>  <score_type>  (24) 
oracle

>  <origin>  (24) 
adg

>  <m_score__min__energy>  (24) 
-4.5800000000000001

>  <m_primary>  (24) 
energy

$$$$
24:0
     RDKit          3D

 30 32  0  0  0  0  0  0  0  0999 V2000
   -8.5550   20.5050  -31.9560 C   0  0  0  0  0  0  0  0  0  0  0  0
   -7.4680   21.4580  -31.5530 C   0  0  0  0  0  0  0  0  0  0  0  0
   -7.6260   22.2750  -30.4250 C   0  0  0  0  0  0  0  0  0  0  0  0
   -6.6310   23.1890  -30.0710 C   0  0  0  0  0  0  0  0  0  0  0  0
   -5.4590   23.3020  -30.8400 C   0  0  0  0  0  0  0  0  0  0  0  0
   -4.4060   24.2810  -30.4880 C   0  0  0  0  0  0  0  0  0  0  0  0
   -4.4300   25.4250  -31.0180 O   0  0  0  0  0  0  0  0  0  0  0  0
   -3.3200   23.9640  -29.5400 C   0  0  0  0  0  0  0  0  0  0  0  0
   -3.3430   22.8570  -28.7490 N   0  0  0  0  0  0  0  0  0  0  0  0
   -2.2130   22.9790  -28.0320 C   0  0  0  0  0  0  0  0  0  0  0  0
   -1.7270   22.1170  -27.0510 C   0  0  0  0  0  0  0  0  0  0  0  0
   -0.5160   22.4610  -26.4200 C   0  0  0  0  0  0  0  0  0  0  0  0
    0.1670   23.6470  -26.7780 C   0  0  0  0  0  0  0  0  0  0  0  0
   -0.3550   24.4970  -27.7710 C   0  0  0  0  0  0  0  0  0  0  0  0
   -1.5520   24.1200  -28.3770 C   0  0  0  0  0  0  0  0  0  0  0  0
   -2.2410   24.7600  -29.3280 N   0  0  0  0  0  0  0  0  0  0  0  0
   -5.3220   22.5080  -31.9920 C   0  0  0  0  0  0  0  0  0  0  0  0
   -6.3190   21.5930  -32.3450 C   0  0  0  0  0  0  0  0  0  0  0  0
   -9.0300   20.0886  -31.0555 H   0  0  0  0  0  0  0  0  0  0  0  0
   -9.3080   21.0393  -32.5540 H   0  0  0  0  0  0  0  0  0  0  0  0
   -8.1238   19.6886  -32.5540 H   0  0  0  0  0  0  0  0  0  0  0  0
   -8.5383   22.1959  -29.8155 H   0  0  0  0  0  0  0  0  0  0  0  0
   -6.7651   23.8254  -29.1838 H   0  0  0  0  0  0  0  0  0  0  0  0
   -2.2702   21.2000  -26.7790 H   0  0  0  0  0  0  0  0  0  0  0  0
   -0.0984   21.8032  -25.6436 H   0  0  0  0  0  0  0  0  0  0  0  0
    1.1115   23.9064  -26.2774 H   0  0  0  0  0  0  0  0  0  0  0  0
    0.1625   25.4242  -28.0580 H   0  0  0  0  0  0  0  0  0  0  0  0
   -2.0100   25.6780  -29.7690 H   0  0  0  0  0  0  0  0  0  0  0  0
   -4.4244   22.6071  -32.6201 H   0  0  0  0  0  0  0  0  0  0  0  0
   -6.2012   20.9764  -33.2483 H   0  0  0  0  0  0  0  0  0  0  0  0
  1  2  1  0
  2  3  2  0
  3  4  1  0
  4  5  2  0
  5  6  1  0
  6  7  2  0
  6  8  1  0
  8  9  2  0
  9 10  1  0
 10 11  2  0
 11 12  1  0
 12 13  2  0
 13 14  1  0
 14 15  2  0
 15 16  1  0
  5 17  1  0
 17 18  2  0
 18  2  1  0
 16  8  1  0
 15 10  1  0
  1 19  1  0
  1 20  1  0
  1 21  1  0
  3 22  1  0
  4 23  1  0
 11 24  1  0
 12 25  1  0
 13 26  1  0
 14 27  1  0
 16 28  1  0
 17 29  1  0
 18 30  1  0
M  END
>  <UniqueID>  (25) 
21

>  <SMILES>  (25) 
Cc1ccc(C(=O)c2nc3ccccc3[nH]2)cc1

>  <Energy>  (25) 
72.14297583177968

>  <Genealogy>  (25) 
Cc1ccc(C(=O)c2nc3ccccc3[nH]2)cc1 (3D coordinates assigned)
Cc1ccc(C(=O)c2nc3ccccc3[nH]2)cc1 (optimized conformer: 72.14297583177968 kcal/mol)

>  <smiles>  (25) 
Cc1ccc(C(=O)c2nc3ccccc3[nH]2)cc1

>  <score_type>  (25) 
oracle

>  <origin>  (25) 
adg

>  <m_score__min__energy>  (25) 
-7.71

>  <m_primary>  (25) 
energy

$$$$
25:0
     RDKit          3D

 32 33  0  0  0  0  0  0  0  0999 V2000
   -6.5313   24.8479  -29.0276 H   0  0  0  0  0  0  0  0  0  0  0  0
   -6.2430   24.3790  -29.9800 C   0  0  0  0  0  0  0  0  0  0  0  0
   -4.8240   24.4240  -30.3890 C   0  0  0  0  0  0  0  0  0  0  0  0
   -4.4660   25.3260  -31.1950 O   0  0  0  0  0  0  0  0  0  0  0  0
   -3.8050   23.4770  -29.8730 C   0  0  0  0  0  0  0  0  0  0  0  0
   -4.0790   22.0990  -29.8310 C   0  0  0  0  0  0  0  0  0  0  0  0
   -5.0446   21.7232  -30.2004 H   0  0  0  0  0  0  0  0  0  0  0  0
   -3.1350   21.2030  -29.3240 C   0  0  0  0  0  0  0  0  0  0  0  0
   -3.3590   20.1262  -29.3040 H   0  0  0  0  0  0  0  0  0  0  0  0
   -1.9000   21.6690  -28.8390 C   0  0  0  0  0  0  0  0  0  0  0  0
   -0.9210   20.8090  -28.3210 O   0  0  0  0  0  0  0  0  0  0  0  0
   -1.1740   19.7860  -27.3640 C   0  0  0  0  0  0  0  0  0  0  0  0
   -1.0718   20.1993  -26.3497 H   0  0  0  0  0  0  0  0  0  0  0  0
   -2.1947   19.3997  -27.5014 H   0  0  0  0  0  0  0  0  0  0  0  0
   -0.4510   18.9685  -27.5014 H   0  0  0  0  0  0  0  0  0  0  0  0
   -1.6320   23.0420  -28.8680 C   0  0  0  0  0  0  0  0  0  0  0  0
   -0.6708   23.4164  -28.4860 H   0  0  0  0  0  0  0  0  0  0  0  0
   -2.5720   23.9440  -29.3770 C   0  0  0  0  0  0  0  0  0  0  0  0
   -2.2660   25.3010  -29.3990 O   0  0  0  0  0  0  0  0  0  0  0  0
   -7.1950   23.7910  -30.7200 C   0  0  0  0  0  0  0  0  0  0  0  0
   -8.1360   24.3373  -30.8813 H   0  0  0  0  0  0  0  0  0  0  0  0
   -7.0540   22.4470  -31.3340 C   0  0  0  0  0  0  0  0  0  0  0  0
   -7.9030   21.3690  -31.0110 C   0  0  0  0  0  0  0  0  0  0  0  0
   -8.7050   21.5070  -30.2709 H   0  0  0  0  0  0  0  0  0  0  0  0
   -7.7310   20.1240  -31.6270 C   0  0  0  0  0  0  0  0  0  0  0  0
   -8.3936   19.2862  -31.3643 H   0  0  0  0  0  0  0  0  0  0  0  0
   -6.7210   19.9420  -32.5740 C   0  0  0  0  0  0  0  0  0  0  0  0
   -6.4920   18.2430  -33.4130 Br  0  0  0  0  0  0  0  0  0  0  0  0
   -5.8830   21.0080  -32.9120 C   0  0  0  0  0  0  0  0  0  0  0  0
   -5.0898   20.8667  -33.6609 H   0  0  0  0  0  0  0  0  0  0  0  0
   -6.0510   22.2540  -32.3000 C   0  0  0  0  0  0  0  0  0  0  0  0
   -5.3926   23.0905  -32.5768 H   0  0  0  0  0  0  0  0  0  0  0  0
  1  2  1  0
  2  3  1  0
  3  4  2  0
  3  5  1  0
  5  6  2  0
  6  7  1  0
  6  8  1  0
  8  9  1  0
  8 10  2  0
 10 11  1  0
 11 12  1  0
 12 13  1  0
 12 14  1  0
 12 15  1  0
 10 16  1  0
 16 17  1  0
 16 18  2  0
 18 19  1  0
  2 20  2  0
 20 21  1  0
 20 22  1  0
 22 23  2  0
 23 24  1  0
 23 25  1  0
 25 26  1  0
 25 27  2  0
 27 28  1  0
 27 29  1  0
 29 30  1  0
 29 31  2  0
 31 32  1  0
 18  5  1  0
 31 22  1  0
M  CHG  1  19  -1
M  END
>  <UniqueID>  (26) 
22

>  <SMILES>  (26) 
COc1ccc(C(=O)/C=C/c2ccc(Br)cc2)c([O-])c1

>  <Energy>  (26) 
40.12425633589054

>  <Genealogy>  (26) 
COc1ccc(C(=O)C=Cc2ccc(Br)cc2)c([O-])c1 (protonated)
COc1ccc(C(=O)/C=C/c2ccc(Br)cc2)c([O-])c1 (cis-trans isomerization)
COc1ccc(C(=O)/C=C/c2ccc(Br)cc2)c([O-])c1 (3D coordinates assigned)
COc1ccc(C(=O)/C=C/c2ccc(Br)cc2)c([O-])c1 (optimized conformer: 40.12425633589054 kcal/mol)

>  <smiles>  (26) 
COc1ccc(C(=O)C=Cc2ccc(Br)cc2)c(O)c1

>  <score_type>  (26) 
oracle

>  <origin>  (26) 
adg

>  <m_score__min__energy>  (26) 
-11.67

>  <m_primary>  (26) 
energy

$$$$
26:0
     RDKit          3D

 47 50  0  0  0  0  0  0  0  0999 V2000
    1.3760   23.2440  -35.9640 C   0  0  0  0  0  0  0  0  0  0  0  0
    0.9000   21.8940  -35.5420 C   0  0  0  0  0  0  0  0  0  0  0  0
    1.5640   20.8740  -35.8720 O   0  0  0  0  0  0  0  0  0  0  0  0
   -0.3530   21.7600  -34.8520 N   0  0  0  0  0  0  0  0  0  0  0  0
   -0.8140   20.5410  -34.2440 C   0  0  0  0  0  0  0  0  0  0  0  0
    0.1230   19.6460  -33.7070 C   0  0  0  0  0  0  0  0  0  0  0  0
   -0.2960   18.4480  -33.1250 C   0  0  0  0  0  0  0  0  0  0  0  0
   -1.6530   18.1220  -33.0900 C   0  0  0  0  0  0  0  0  0  0  0  0
   -2.6060   18.9890  -33.6540 C   0  0  0  0  0  0  0  0  0  0  0  0
   -4.0490   18.6400  -33.6350 C   0  0  0  0  0  0  0  0  0  0  0  0
   -4.4650   17.4000  -34.1340 C   0  0  0  0  0  0  0  0  0  0  0  0
   -5.8130   17.0610  -34.1310 C   0  0  0  0  0  0  0  0  0  0  0  0
   -6.7480   17.9590  -33.6220 C   0  0  0  0  0  0  0  0  0  0  0  0
   -6.3570   19.1720  -33.1160 N   0  0  0  0  0  0  0  0  0  0  0  0
   -7.2830   20.0440  -32.5960 C   0  0  0  0  0  0  0  0  0  0  0  0
   -8.5110   19.7540  -32.5820 O   0  0  0  0  0  0  0  0  0  0  0  0
   -6.8790   21.2700  -32.0670 C   0  0  0  0  0  0  0  0  0  0  0  0
   -5.5200   21.6030  -32.0710 C   0  0  0  0  0  0  0  0  0  0  0  0
   -5.0390   22.8550  -31.5330 N   0  0  0  0  0  0  0  0  0  0  0  0
   -5.8340   24.0740  -31.7320 C   0  0  0  0  0  0  0  0  0  0  0  0
   -5.5410   25.0920  -30.6260 C   0  0  0  0  0  0  0  0  0  0  0  0
   -4.1510   25.3020  -30.4940 O   0  0  0  0  0  0  0  0  0  0  0  0
   -3.5370   24.1140  -30.0340 C   0  0  0  0  0  0  0  0  0  0  0  0
   -3.6480   23.0020  -31.0820 C   0  0  0  0  0  0  0  0  0  0  0  0
   -4.6350   20.7150  -32.5890 N   0  0  0  0  0  0  0  0  0  0  0  0
   -5.0220   19.5220  -33.1150 C   0  0  0  0  0  0  0  0  0  0  0  0
   -2.1780   20.1970  -34.2290 C   0  0  0  0  0  0  0  0  0  0  0  0
    1.5905   23.8523  -35.0729 H   0  0  0  0  0  0  0  0  0  0  0  0
    2.2912   23.1387  -36.5651 H   0  0  0  0  0  0  0  0  0  0  0  0
    0.5972   23.7361  -36.5651 H   0  0  0  0  0  0  0  0  0  0  0  0
   -1.0030   22.5780  -34.8680 H   0  0  0  0  0  0  0  0  0  0  0  0
    1.1950   19.8895  -33.7446 H   0  0  0  0  0  0  0  0  0  0  0  0
    0.4450   17.7593  -32.6930 H   0  0  0  0  0  0  0  0  0  0  0  0
   -1.9784   17.1826  -32.6191 H   0  0  0  0  0  0  0  0  0  0  0  0
   -3.7225   16.6915  -34.5298 H   0  0  0  0  0  0  0  0  0  0  0  0
   -6.1395   16.0887  -34.5285 H   0  0  0  0  0  0  0  0  0  0  0  0
   -7.8150   17.6915  -33.6260 H   0  0  0  0  0  0  0  0  0  0  0  0
   -7.6210   21.9675  -31.6511 H   0  0  0  0  0  0  0  0  0  0  0  0
   -5.5811   24.5160  -32.7070 H   0  0  0  0  0  0  0  0  0  0  0  0
   -6.9017   23.8115  -31.7001 H   0  0  0  0  0  0  0  0  0  0  0  0
   -6.0279   26.0462  -30.8758 H   0  0  0  0  0  0  0  0  0  0  0  0
   -5.9307   24.7012  -29.6745 H   0  0  0  0  0  0  0  0  0  0  0  0
   -2.4744   24.3129  -29.8306 H   0  0  0  0  0  0  0  0  0  0  0  0
   -4.0480   23.7858  -29.1169 H   0  0  0  0  0  0  0  0  0  0  0  0
   -3.0127   23.2528  -31.9443 H   0  0  0  0  0  0  0  0  0  0  0  0
   -3.3189   22.0544  -30.6306 H   0  0  0  0  0  0  0  0  0  0  0  0
   -2.9169   20.8809  -34.6721 H   0  0  0  0  0  0  0  0  0  0  0  0
  1  2  1  0
  2  3  2  0
  2  4  1  0
  4  5  1  0
  5  6  2  0
  6  7  1  0
  7  8  2  0
  8  9  1  0
  9 10  1  0
 10 11  2  0
 11 12  1  0
 12 13  2  0
 13 14  1  0
 14 15  1  0
 15 16  2  0
 15 17  1  0
 17 18  2  0
 18 19  1  0
 19 20  1  0
 20 21  1  0
 21 22  1  0
 22 23  1  0
 23 24  1  0
 18 25  1  0
 25 26  2  0
  9 27  2  0
 27  5  1  0
 26 10  1  0
 26 14  1  0
 24 19  1  0
  1 28  1  0
  1 29  1  0
  1 30  1  0
  4 31  1  0
  6 32  1  0
  7 33  1  0
  8 34  1  0
 11 35  1  0
 12 36  1  0
 13 37  1  0
 17 38  1  0
 20 39  1  0
 20 40  1  0
 21 41  1  0
 21 42  1  0
 23 43  1  0
 23 44  1  0
 24 45  1  0
 24 46  1  0
 27 47  1  0
M  END
>  <UniqueID>  (27) 
23

>  <SMILES>  (27) 
CC(=O)Nc1cccc(-c2cccn3c(=O)cc(N4CCOCC4)nc23)c1

>  <Energy>  (27) 
67.69063056899033

>  <Genealogy>  (27) 
CC(=O)Nc1cccc(-c2cccn3c(=O)cc(N4CCOCC4)nc23)c1 (3D coordinates assigned)
CC(=O)Nc1cccc(-c2cccn3c(=O)cc(N4CCOCC4)nc23)c1 (nonaromatic ring conformer: 67.69063056899033 kcal/mol)

>  <smiles>  (27) 
CC(=O)Nc1cccc(-c2cccn3c(=O)cc(N4CCOCC4)nc23)c1

>  <score_type>  (27) 
oracle

>  <origin>  (27) 
adg

>  <m_score__min__energy>  (27) 
-9.3599999999999994

>  <m_primary>  (27) 
energy

$$$$
27:0
     RDKit          3D

 33 35  0  0  0  0  0  0  0  0999 V2000
   -2.9370   24.5700  -29.1740 C   0  0  0  0  0  0  0  0  0  0  0  0
   -3.5080   24.8280  -30.4880 N   0  0  0  0  0  0  0  0  0  0  0  0
   -4.9090   24.9270  -30.7770 C   0  0  0  0  0  0  0  0  0  0  0  0
   -5.4360   26.0670  -30.8000 O   0  0  0  0  0  0  0  0  0  0  0  0
   -5.7510   23.7360  -31.0120 C   0  0  0  0  0  0  0  0  0  0  0  0
   -7.0170   23.6050  -30.5450 N   0  0  0  0  0  0  0  0  0  0  0  0
   -7.4720   22.4380  -31.0290 C   0  0  0  0  0  0  0  0  0  0  0  0
   -8.7390   21.8860  -30.8420 C   0  0  0  0  0  0  0  0  0  0  0  0
   -9.0220   20.6620  -31.4740 C   0  0  0  0  0  0  0  0  0  0  0  0
   -8.0480   20.0290  -32.2770 C   0  0  0  0  0  0  0  0  0  0  0  0
   -6.7790   20.6110  -32.4480 C   0  0  0  0  0  0  0  0  0  0  0  0
   -6.5190   21.8140  -31.7930 C   0  0  0  0  0  0  0  0  0  0  0  0
   -5.3940   22.6150  -31.7670 C   0  0  0  0  0  0  0  0  0  0  0  0
   -3.8400   22.3050  -32.6190 S   0  0  0  0  0  0  0  0  0  0  0  0
   -2.9650   21.8190  -31.1260 C   0  0  0  0  0  0  0  0  0  0  0  0
   -3.6780   21.3550  -30.0110 C   0  0  0  0  0  0  0  0  0  0  0  0
   -2.9990   20.9750  -28.8500 C   0  0  0  0  0  0  0  0  0  0  0  0
   -1.6040   21.0410  -28.8010 C   0  0  0  0  0  0  0  0  0  0  0  0
   -0.8860   21.4770  -29.9190 C   0  0  0  0  0  0  0  0  0  0  0  0
   -1.5640   21.8580  -31.0820 C   0  0  0  0  0  0  0  0  0  0  0  0
   -3.6463   24.8905  -28.3967 H   0  0  0  0  0  0  0  0  0  0  0  0
   -2.7365   23.4938  -29.0662 H   0  0  0  0  0  0  0  0  0  0  0  0
   -1.9968   25.1308  -29.0662 H   0  0  0  0  0  0  0  0  0  0  0  0
   -7.5360   24.2620  -29.9220 H   0  0  0  0  0  0  0  0  0  0  0  0
   -9.4926   22.3916  -30.2203 H   0  0  0  0  0  0  0  0  0  0  0  0
  -10.0089   20.1944  -31.3419 H   0  0  0  0  0  0  0  0  0  0  0  0
   -8.2831   19.0751  -32.7717 H   0  0  0  0  0  0  0  0  0  0  0  0
   -6.0156   20.1320  -33.0787 H   0  0  0  0  0  0  0  0  0  0  0  0
   -4.7754   21.2899  -30.0504 H   0  0  0  0  0  0  0  0  0  0  0  0
   -3.5634   20.6235  -27.9737 H   0  0  0  0  0  0  0  0  0  0  0  0
   -1.0711   20.7502  -27.8837 H   0  0  0  0  0  0  0  0  0  0  0  0
    0.2126   21.5204  -29.8840 H   0  0  0  0  0  0  0  0  0  0  0  0
   -0.9965   22.1890  -31.9642 H   0  0  0  0  0  0  0  0  0  0  0  0
  1  2  1  0
  2  3  1  0
  3  4  2  0
  3  5  1  0
  5  6  1  0
  6  7  1  0
  7  8  2  0
  8  9  1  0
  9 10  2  0
 10 11  1  0
 11 12  2  0
 12 13  1  0
 13 14  1  0
 14 15  1  0
 15 16  2  0
 16 17  1  0
 17 18  2  0
 18 19  1  0
 19 20  2  0
 13  5  2  0
 20 15  1  0
 12  7  1  0
  1 21  1  0
  1 22  1  0
  1 23  1  0
  6 24  1  0
  8 25  1  0
  9 26  1  0
 10 27  1  0
 11 28  1  0
 16 29  1  0
 17 30  1  0
 18 31  1  0
 19 32  1  0
 20 33  1  0
M  CHG  1   2  -1
M  END
>  <UniqueID>  (28) 
24

>  <SMILES>  (28) 
C[N-]C(=O)c1[nH]c2ccccc2c1Sc1ccccc1

>  <Energy>  (28) 
67.86234826520662

>  <Genealogy>  (28) 
C[N-]C(=O)c1[nH]c2ccccc2c1Sc1ccccc1 (protonated)
C[N-]C(=O)c1[nH]c2ccccc2c1Sc1ccccc1 (3D coordinates assigned)
C[N-]C(=O)c1[nH]c2ccccc2c1Sc1ccccc1 (optimized conformer: 67.86234826520662 kcal/mol)

>  <smiles>  (28) 
CNC(=O)c1[nH]c2ccccc2c1Sc1ccccc1

>  <score_type>  (28) 
oracle

>  <origin>  (28) 
adg

>  <m_score__min__energy>  (28) 
-8.9299999999999997

>  <m_primary>  (28) 
energy

$$$$
28:0
     RDKit          3D

 50 53  0  0  0  0  0  0  0  0999 V2000
    3.7670   24.9470  -35.4040 C   0  0  0  0  0  0  0  0  0  0  0  0
    3.5940   23.6850  -36.0430 O   0  0  0  0  0  0  0  0  0  0  0  0
    2.5990   22.7540  -35.7060 C   0  0  0  0  0  0  0  0  0  0  0  0
    2.8830   21.5940  -34.9620 C   0  0  0  0  0  0  0  0  0  0  0  0
    1.8680   20.6890  -34.6480 C   0  0  0  0  0  0  0  0  0  0  0  0
    0.5510   20.9200  -35.0740 C   0  0  0  0  0  0  0  0  0  0  0  0
   -0.5050   19.9980  -34.7430 N   0  0  0  0  0  0  0  0  0  0  0  0
   -2.0240   20.4230  -34.1930 S   0  0  0  0  0  0  0  0  0  0  0  0
   -2.6750   18.8920  -34.0410 C   0  0  0  0  0  0  0  0  0  0  0  0
   -3.9130   18.4270  -33.5920 C   0  0  0  0  0  0  0  0  0  0  0  0
   -5.0060   19.3280  -33.1620 C   0  0  0  0  0  0  0  0  0  0  0  0
   -6.3350   19.0070  -33.4720 C   0  0  0  0  0  0  0  0  0  0  0  0
   -7.3790   19.8520  -33.0860 C   0  0  0  0  0  0  0  0  0  0  0  0
   -7.1200   21.0500  -32.3880 C   0  0  0  0  0  0  0  0  0  0  0  0
   -8.2030   21.9270  -31.9840 N   0  0  0  0  0  0  0  0  0  0  0  0
   -9.5410   21.3870  -31.7130 C   0  0  0  0  0  0  0  0  0  0  0  0
   -7.9790   23.3720  -31.8380 C   0  0  0  0  0  0  0  0  0  0  0  0
   -5.7780   21.3740  -32.0980 C   0  0  0  0  0  0  0  0  0  0  0  0
   -4.7370   20.5270  -32.4850 C   0  0  0  0  0  0  0  0  0  0  0  0
   -4.0890   17.0750  -33.5320 N   0  0  0  0  0  0  0  0  0  0  0  0
   -3.1060   16.2020  -33.9130 C   0  0  0  0  0  0  0  0  0  0  0  0
   -1.9020   16.6650  -34.3590 N   0  0  0  0  0  0  0  0  0  0  0  0
   -1.6830   18.0050  -34.4150 C   0  0  0  0  0  0  0  0  0  0  0  0
   -0.4850   18.6330  -34.8150 C   0  0  0  0  0  0  0  0  0  0  0  0
    0.5160   17.9880  -35.2270 O   0  0  0  0  0  0  0  0  0  0  0  0
    0.2650   22.0830  -35.8060 C   0  0  0  0  0  0  0  0  0  0  0  0
    1.2840   23.0010  -36.1280 C   0  0  0  0  0  0  0  0  0  0  0  0
    1.0290   24.1690  -36.8650 O   0  0  0  0  0  0  0  0  0  0  0  0
    0.2910   25.2850  -36.3790 C   0  0  0  0  0  0  0  0  0  0  0  0
    3.7484   24.8110  -34.3126 H   0  0  0  0  0  0  0  0  0  0  0  0
    4.7329   25.3801  -35.7031 H   0  0  0  0  0  0  0  0  0  0  0  0
    2.9533   25.6240  -35.7031 H   0  0  0  0  0  0  0  0  0  0  0  0
    3.9120   21.3991  -34.6256 H   0  0  0  0  0  0  0  0  0  0  0  0
    2.1021   19.7879  -34.0622 H   0  0  0  0  0  0  0  0  0  0  0  0
   -6.5580   18.0820  -34.0239 H   0  0  0  0  0  0  0  0  0  0  0  0
   -8.4164   19.5792  -33.3297 H   0  0  0  0  0  0  0  0  0  0  0  0
   -9.6976   21.3238  -30.6260 H   0  0  0  0  0  0  0  0  0  0  0  0
  -10.3001   22.0492  -32.1549 H   0  0  0  0  0  0  0  0  0  0  0  0
   -9.6278   20.3834  -32.1549 H   0  0  0  0  0  0  0  0  0  0  0  0
   -7.9389   23.6307  -30.7696 H   0  0  0  0  0  0  0  0  0  0  0  0
   -7.0277   23.6459  -32.3176 H   0  0  0  0  0  0  0  0  0  0  0  0
   -8.8028   23.9210  -32.3176 H   0  0  0  0  0  0  0  0  0  0  0  0
   -5.5484   22.3057  -31.5602 H   0  0  0  0  0  0  0  0  0  0  0  0
   -3.6968   20.8025  -32.2569 H   0  0  0  0  0  0  0  0  0  0  0  0
   -3.2878   15.1185  -33.8593 H   0  0  0  0  0  0  0  0  0  0  0  0
   -1.1560   15.9880  -34.6410 H   0  0  0  0  0  0  0  0  0  0  0  0
   -0.7669   22.2800  -36.1321 H   0  0  0  0  0  0  0  0  0  0  0  0
    0.2962   25.2771  -35.2790 H   0  0  0  0  0  0  0  0  0  0  0  0
    0.7524   26.2155  -36.7412 H   0  0  0  0  0  0  0  0  0  0  0  0
   -0.7459   25.2247  -36.7412 H   0  0  0  0  0  0  0  0  0  0  0  0
  1  2  1  0
  2  3  1  0
  3  4  2  0
  4  5  1  0
  5  6  2  0
  6  7  1  0
  7  8  1  0
  8  9  1  0
  9 10  2  0
 10 11  1  0
 11 12  2  0
 12 13  1  0
 13 14  2  0
 14 15  1  0
 15 16  1  0
 15 17  1  0
 14 18  1  0
 18 19  2  0
 10 20  1  0
 20 21  2  0
 21 22  1  0
 22 23  2  0
 23 24  1  0
 24 25  2  0
  6 26  1  0
 26 27  2  0
 27 28  1  0
 28 29  1  0
 27  3  1  0
 24  7  1  0
 23  9  1  0
 19 11  1  0
  1 30  1  0
  1 31  1  0
  1 32  1  0
  4 33  1  0
  5 34  1  0
 12 35  1  0
 13 36  1  0
 16 37  1  0
 16 38  1  0
 16 39  1  0
 17 40  1  0
 17 41  1  0
 17 42  1  0
 18 43  1  0
 19 44  1  0
 21 45  1  0
 22 46  1  0
 26 47  1  0
 29 48  1  0
 29 49  1  0
 29 50  1  0
M  CHG  1  22   1
M  END
>  <UniqueID>  (29) 
25

>  <SMILES>  (29) 
COc1ccc(-n2sc3c(-c4ccc(N(C)C)cc4)nc[nH+]c3c2=O)cc1OC

>  <Energy>  (29) 
106.3868111238071

>  <Genealogy>  (29) 
COc1ccc(-n2sc3c(-c4ccc(N(C)C)cc4)nc[nH+]c3c2=O)cc1OC (protonated)
COc1ccc(-n2sc3c(-c4ccc(N(C)C)cc4)nc[nH+]c3c2=O)cc1OC (3D coordinates assigned)
COc1ccc(-n2sc3c(-c4ccc(N(C)C)cc4)nc[nH+]c3c2=O)cc1OC (optimized conformer: 106.3868111238071 kcal/mol)

>  <smiles>  (29) 
COc1ccc(-n2sc3c(-c4ccc(N(C)C)cc4)ncnc3c2=O)cc1OC

>  <score_type>  (29) 
oracle

>  <origin>  (29) 
adg

>  <m_score__min__energy>  (29) 
-8.5600000000000005

>  <m_primary>  (29) 
energy

$$$$
29:0
     RDKit          3D

 27 28  0  0  0  0  0  0  0  0999 V2000
   -4.1450   25.2820  -30.6260 N   0  0  0  0  0  0  0  0  0  0  0  0
   -4.8990   24.0330  -30.6120 C   0  0  0  0  0  0  0  0  0  0  0  0
   -6.2970   24.2540  -31.1890 C   0  0  0  0  0  0  0  0  0  0  0  0
   -6.9020   22.9730  -31.5410 N   0  0  0  0  0  0  0  0  0  0  0  0
   -6.2520   21.8910  -32.0100 C   0  0  0  0  0  0  0  0  0  0  0  0
   -7.1890   20.9050  -32.2890 C   0  0  0  0  0  0  0  0  0  0  0  0
   -6.9400   19.5430  -32.8280 C   0  0  0  0  0  0  0  0  0  0  0  0
   -7.4970   18.4100  -32.2050 C   0  0  0  0  0  0  0  0  0  0  0  0
   -7.2490   17.1390  -32.7270 C   0  0  0  0  0  0  0  0  0  0  0  0
   -6.4760   16.9940  -33.8340 N   0  0  0  0  0  0  0  0  0  0  0  0
   -5.9240   18.0660  -34.4610 C   0  0  0  0  0  0  0  0  0  0  0  0
   -5.1590   17.8790  -35.5650 F   0  0  0  0  0  0  0  0  0  0  0  0
   -6.1440   19.3560  -33.9720 C   0  0  0  0  0  0  0  0  0  0  0  0
   -8.4140   21.4770  -31.9660 C   0  0  0  0  0  0  0  0  0  0  0  0
   -8.2020   22.7300  -31.5230 N   0  0  0  0  0  0  0  0  0  0  0  0
   -4.6270   25.9630  -29.9950 H   0  0  0  0  0  0  0  0  0  0  0  0
   -4.2070   25.6790  -31.5920 H   0  0  0  0  0  0  0  0  0  0  0  0
   -4.3702   23.2825  -31.2180 H   0  0  0  0  0  0  0  0  0  0  0  0
   -4.9907   23.6806  -29.5740 H   0  0  0  0  0  0  0  0  0  0  0  0
   -6.9243   24.7591  -30.4397 H   0  0  0  0  0  0  0  0  0  0  0  0
   -6.2195   24.8763  -32.0927 H   0  0  0  0  0  0  0  0  0  0  0  0
   -5.1643   21.8032  -32.1485 H   0  0  0  0  0  0  0  0  0  0  0  0
   -8.1256   18.5257  -31.3098 H   0  0  0  0  0  0  0  0  0  0  0  0
   -7.6811   16.2524  -32.2400 H   0  0  0  0  0  0  0  0  0  0  0  0
   -5.6960   20.2226  -34.4802 H   0  0  0  0  0  0  0  0  0  0  0  0
   -9.3944   20.9867  -32.0574 H   0  0  0  0  0  0  0  0  0  0  0  0
   -8.9350   23.4120  -31.2260 H   0  0  0  0  0  0  0  0  0  0  0  0
  1  2  1  0
  2  3  1  0
  3  4  1  0
  4  5  1  0
  5  6  2  0
  6  7  1  0
  7  8  2  0
  8  9  1  0
  9 10  2  0
 10 11  1  0
 11 12  1  0
 11 13  2  0
  6 14  1  0
 14 15  2  0
 15  4  1  0
 13  7  1  0
  1 16  1  0
  1 17  1  0
  2 18  1  0
  2 19  1  0
  3 20  1  0
  3 21  1  0
  5 22  1  0
  8 23  1  0
  9 24  1  0
 13 25  1  0
 14 26  1  0
 15 27  1  0
M  CHG  1  15   1
M  END
>  <UniqueID>  (30) 
26

>  <SMILES>  (30) 
NCCn1cc(-c2ccnc(F)c2)c[nH+]1

>  <Energy>  (30) 
55.838236253368116

>  <Genealogy>  (30) 
NCCn1cc(-c2ccnc(F)c2)c[nH+]1 (protonated)
NCCn1cc(-c2ccnc(F)c2)c[nH+]1 (3D coordinates assigned)
NCCn1cc(-c2ccnc(F)c2)c[nH+]1 (optimized conformer: 55.838236253368116 kcal/mol)

>  <smiles>  (30) 
NCCn1cc(-c2ccnc(F)c2)cn1

>  <score_type>  (30) 
oracle

>  <origin>  (30) 
adg

>  <m_score__min__energy>  (30) 
-6.0999999999999996

>  <m_primary>  (30) 
energy

$$$$
30:0
     RDKit          3D

 40 41  0  0  0  0  0  0  0  0999 V2000
   -9.1030   18.9580  -32.0000 C   0  0  0  0  0  0  0  0  0  0  0  0
   -7.7860   18.1840  -32.0460 C   0  0  0  0  0  0  0  0  0  0  0  0
   -6.6260   19.1010  -32.0710 N   0  0  0  0  0  0  0  0  0  0  0  0
   -5.4420   18.4630  -32.6960 C   0  0  0  0  0  0  0  0  0  0  0  0
   -4.3840   19.4970  -33.1410 C   0  0  0  0  0  0  0  0  0  0  0  0
   -4.5030   20.7760  -32.4100 N   0  0  0  0  0  0  0  0  0  0  0  0
   -4.1430   20.6660  -30.9780 C   0  0  0  0  0  0  0  0  0  0  0  0
   -3.5610   21.9580  -30.4650 C   0  0  0  0  0  0  0  0  0  0  0  0
   -2.4300   21.9360  -29.6370 C   0  0  0  0  0  0  0  0  0  0  0  0
   -1.8930   23.1240  -29.1350 C   0  0  0  0  0  0  0  0  0  0  0  0
   -0.3450   23.0120  -28.0110 Br  0  0  0  0  0  0  0  0  0  0  0  0
   -2.4940   24.3570  -29.4560 C   0  0  0  0  0  0  0  0  0  0  0  0
   -1.9860   25.5640  -28.9710 O   0  0  0  0  0  0  0  0  0  0  0  0
   -3.6310   24.3890  -30.2780 C   0  0  0  0  0  0  0  0  0  0  0  0
   -4.2070   25.6360  -30.5710 O   0  0  0  0  0  0  0  0  0  0  0  0
   -5.5960   25.9310  -30.4540 C   0  0  0  0  0  0  0  0  0  0  0  0
   -4.1600   23.1860  -30.7810 C   0  0  0  0  0  0  0  0  0  0  0  0
   -5.8410   21.3860  -32.6120 C   0  0  0  0  0  0  0  0  0  0  0  0
   -6.9710   20.3480  -32.7740 C   0  0  0  0  0  0  0  0  0  0  0  0
   -9.3921   19.1279  -30.9523 H   0  0  0  0  0  0  0  0  0  0  0  0
   -8.9774   19.9259  -32.5073 H   0  0  0  0  0  0  0  0  0  0  0  0
   -9.8875   18.3773  -32.5073 H   0  0  0  0  0  0  0  0  0  0  0  0
   -7.7163   17.5417  -31.1557 H   0  0  0  0  0  0  0  0  0  0  0  0
   -7.7704   17.5783  -32.9641 H   0  0  0  0  0  0  0  0  0  0  0  0
   -4.9830   17.7789  -31.9671 H   0  0  0  0  0  0  0  0  0  0  0  0
   -5.7841   17.9252  -33.5925 H   0  0  0  0  0  0  0  0  0  0  0  0
   -3.3830   19.0784  -32.9597 H   0  0  0  0  0  0  0  0  0  0  0  0
   -4.5470   19.7049  -34.2088 H   0  0  0  0  0  0  0  0  0  0  0  0
   -5.0456   20.4231  -30.3981 H   0  0  0  0  0  0  0  0  0  0  0  0
   -3.3879   19.8738  -30.8670 H   0  0  0  0  0  0  0  0  0  0  0  0
   -1.9611   20.9746  -29.3802 H   0  0  0  0  0  0  0  0  0  0  0  0
   -2.5180   26.4240  -28.9690 H   0  0  0  0  0  0  0  0  0  0  0  0
   -5.8701   25.9892  -29.3903 H   0  0  0  0  0  0  0  0  0  0  0  0
   -5.8085   26.8943  -30.9407 H   0  0  0  0  0  0  0  0  0  0  0  0
   -6.1817   25.1372  -30.9407 H   0  0  0  0  0  0  0  0  0  0  0  0
   -5.0501   23.2090  -31.4269 H   0  0  0  0  0  0  0  0  0  0  0  0
   -6.0707   22.0182  -31.7416 H   0  0  0  0  0  0  0  0  0  0  0  0
   -5.7958   21.9645  -33.5465 H   0  0  0  0  0  0  0  0  0  0  0  0
   -7.9015   20.7562  -32.3527 H   0  0  0  0  0  0  0  0  0  0  0  0
   -7.1048   20.1297  -33.8438 H   0  0  0  0  0  0  0  0  0  0  0  0
  1  2  1  0
  2  3  1  0
  3  4  1  0
  4  5  1  0
  5  6  1  0
  6  7  1  0
  7  8  1  0
  8  9  2  0
  9 10  1  0
 10 11  1  0
 10 12  2  0
 12 13  1  0
 12 14  1  0
 14 15  1  0
 15 16  1  0
 14 17  2  0
  6 18  1  0
 18 19  1  0
 19  3  1  0
 17  8  1  0
  1 20  1  0
  1 21  1  0
  1 22  1  0
  2 23  1  0
  2 24  1  0
  4 25  1  0
  4 26  1  0
  5 27  1  0
  5 28  1  0
  7 29  1  0
  7 30  1  0
  9 31  1  0
 13 32  1  0
 16 33  1  0
 16 34  1  0
 16 35  1  0
 17 36  1  0
 18 37  1  0
 18 38  1  0
 19 39  1  0
 19 40  1  0
M  END
>  <UniqueID>  (31) 
27

>  <SMILES>  (31) 
CCN1CCN(Cc2cc(Br)c(O)c(OC)c2)CC1

>  <Energy>  (31) 
48.90858803400254

>  <Genealogy>  (31) 
CCN1CCN(Cc2cc(Br)c(O)c(OC)c2)CC1 (3D coordinates assigned)
CCN1CCN(Cc2cc(Br)c(O)c(OC)c2)CC1 (nonaromatic ring conformer: 48.90858803400254 kcal/mol)

>  <smiles>  (31) 
CCN1CCN(Cc2cc(Br)c(O)c(OC)c2)CC1

>  <score_type>  (31) 
oracle

>  <origin>  (31) 
adg

>  <m_score__min__energy>  (31) 
-7.96

>  <m_primary>  (31) 
energy

$$$$
31:0
     RDKit          3D

 47 50  0  0  0  0  0  0  0  0999 V2000
   -2.7300   25.3530  -26.0450 C   0  0  0  0  0  0  0  0  0  0  0  0
   -2.4920   24.2810  -27.1070 C   0  0  0  0  0  0  0  0  0  0  0  0
   -3.7960   23.6290  -27.5800 C   0  0  0  0  0  0  0  0  0  0  0  0
   -3.6910   23.1760  -28.9730 N   0  0  0  0  0  0  0  0  0  0  0  0
   -4.0410   23.8640  -30.0780 C   0  0  0  0  0  0  0  0  0  0  0  0
   -4.9870   25.3930  -30.0780 S   0  0  0  0  0  0  0  0  0  0  0  0
   -6.1040   24.8940  -31.4370 C   0  0  0  0  0  0  0  0  0  0  0  0
   -6.5430   23.4720  -31.2850 C   0  0  0  0  0  0  0  0  0  0  0  0
   -6.4030   22.5420  -32.2510 N   0  0  0  0  0  0  0  0  0  0  0  0
   -6.8030   21.4210  -31.6110 C   0  0  0  0  0  0  0  0  0  0  0  0
   -6.8090   20.0790  -32.2220 C   0  0  0  0  0  0  0  0  0  0  0  0
   -7.6920   19.0870  -31.7550 C   0  0  0  0  0  0  0  0  0  0  0  0
   -7.7280   17.8310  -32.3680 C   0  0  0  0  0  0  0  0  0  0  0  0
   -6.8880   17.5540  -33.4480 C   0  0  0  0  0  0  0  0  0  0  0  0
   -6.9300   16.3390  -34.0460 F   0  0  0  0  0  0  0  0  0  0  0  0
   -6.0070   18.5330  -33.9180 C   0  0  0  0  0  0  0  0  0  0  0  0
   -5.9660   19.7910  -33.3040 C   0  0  0  0  0  0  0  0  0  0  0  0
   -7.1490   21.6710  -30.3680 O   0  0  0  0  0  0  0  0  0  0  0  0
   -6.9940   22.9380  -30.1370 N   0  0  0  0  0  0  0  0  0  0  0  0
   -3.6230   23.2520  -31.2010 N   0  0  0  0  0  0  0  0  0  0  0  0
   -2.9910   22.1510  -30.8260 N   0  0  0  0  0  0  0  0  0  0  0  0
   -3.0370   22.1050  -29.4790 C   0  0  0  0  0  0  0  0  0  0  0  0
   -2.4420   21.0020  -28.6980 C   0  0  0  0  0  0  0  0  0  0  0  0
   -3.0950   20.5320  -27.5470 C   0  0  0  0  0  0  0  0  0  0  0  0
   -2.5240   19.5100  -26.7810 C   0  0  0  0  0  0  0  0  0  0  0  0
   -1.2920   18.9630  -27.1500 C   0  0  0  0  0  0  0  0  0  0  0  0
   -0.6260   19.4420  -28.2800 C   0  0  0  0  0  0  0  0  0  0  0  0
   -1.1940   20.4630  -29.0480 C   0  0  0  0  0  0  0  0  0  0  0  0
   -2.6309   24.9065  -25.0446 H   0  0  0  0  0  0  0  0  0  0  0  0
   -1.9885   26.1569  -26.1628 H   0  0  0  0  0  0  0  0  0  0  0  0
   -3.7421   25.7676  -26.1628 H   0  0  0  0  0  0  0  0  0  0  0  0
   -1.9946   24.7444  -27.9718 H   0  0  0  0  0  0  0  0  0  0  0  0
   -1.8676   23.4952  -26.6569 H   0  0  0  0  0  0  0  0  0  0  0  0
   -4.0178   22.7640  -26.9376 H   0  0  0  0  0  0  0  0  0  0  0  0
   -4.6006   24.3764  -27.5175 H   0  0  0  0  0  0  0  0  0  0  0  0
   -6.9903   25.5454  -31.4299 H   0  0  0  0  0  0  0  0  0  0  0  0
   -5.5587   24.9894  -32.3876 H   0  0  0  0  0  0  0  0  0  0  0  0
   -8.3561   19.3009  -30.9046 H   0  0  0  0  0  0  0  0  0  0  0  0
   -8.4196   17.0595  -31.9986 H   0  0  0  0  0  0  0  0  0  0  0  0
   -5.3462   18.3150  -34.7700 H   0  0  0  0  0  0  0  0  0  0  0  0
   -5.2684   20.5573  -33.6730 H   0  0  0  0  0  0  0  0  0  0  0  0
   -7.1650   23.4180  -29.2270 H   0  0  0  0  0  0  0  0  0  0  0  0
   -4.0588   20.9689  -27.2467 H   0  0  0  0  0  0  0  0  0  0  0  0
   -3.0453   19.1366  -25.8873 H   0  0  0  0  0  0  0  0  0  0  0  0
   -0.8470   18.1553  -26.5504 H   0  0  0  0  0  0  0  0  0  0  0  0
    0.3467   19.0155  -28.5663 H   0  0  0  0  0  0  0  0  0  0  0  0
   -0.6605   20.8457  -29.9306 H   0  0  0  0  0  0  0  0  0  0  0  0
  1  2  1  0
  2  3  1  0
  3  4  1  0
  4  5  1  0
  5  6  1  0
  6  7  1  0
  7  8  1  0
  8  9  1  0
  9 10  2  0
 10 11  1  0
 11 12  2  0
 12 13  1  0
 13 14  2  0
 14 15  1  0
 14 16  1  0
 16 17  2  0
 10 18  1  0
 18 19  1  0
  5 20  2  0
 20 21  1  0
 21 22  2  0
 22 23  1  0
 23 24  2  0
 24 25  1  0
 25 26  2  0
 26 27  1  0
 27 28  2  0
 22  4  1  0
 28 23  1  0
 19  8  2  0
 17 11  1  0
  1 29  1  0
  1 30  1  0
  1 31  1  0
  2 32  1  0
  2 33  1  0
  3 34  1  0
  3 35  1  0
  7 36  1  0
  7 37  1  0
 12 38  1  0
 13 39  1  0
 16 40  1  0
 17 41  1  0
 19 42  1  0
 24 43  1  0
 25 44  1  0
 26 45  1  0
 27 46  1  0
 28 47  1  0
M  CHG  1  19   1
M  END
>  <UniqueID>  (32) 
28

>  <SMILES>  (32) 
CCCn1c(SCc2nc(-c3ccc(F)cc3)o[nH+]2)nnc1-c1ccccc1

>  <Energy>  (32) 
111.61691749340211

>  <Genealogy>  (32) 
CCCn1c(SCc2nc(-c3ccc(F)cc3)o[nH+]2)nnc1-c1ccccc1 (protonated)
CCCn1c(SCc2nc(-c3ccc(F)cc3)o[nH+]2)nnc1-c1ccccc1 (3D coordinates assigned)
CCCn1c(SCc2nc(-c3ccc(F)cc3)o[nH+]2)nnc1-c1ccccc1 (optimized conformer: 111.61691749340211 kcal/mol)

>  <smiles>  (32) 
CCCn1c(SCc2noc(-c3ccc(F)cc3)n2)nnc1-c1ccccc1

>  <score_type>  (32) 
oracle

>  <origin>  (32) 
adg

>  <m_score__min__energy>  (32) 
-8.8699999999999992

>  <m_primary>  (32) 
energy

$$$$
32:0
     RDKit          3D

 41 43  0  0  0  0  0  0  0  0999 V2000
   -4.0660   24.7970  -28.9410 O   0  0  0  0  0  0  0  0  0  0  0  0
   -3.7570   23.8810  -29.7440 C   0  0  0  0  0  0  0  0  0  0  0  0
   -4.5490   23.6680  -30.8810 C   0  0  0  0  0  0  0  0  0  0  0  0
   -5.9600   24.6890  -31.1510 Cl  0  0  0  0  0  0  0  0  0  0  0  0
   -4.1930   22.6550  -31.7880 C   0  0  0  0  0  0  0  0  0  0  0  0
   -4.9840   22.3650  -32.9630 N   0  0  0  0  0  0  0  0  0  0  0  0
   -5.9840   21.3680  -32.6580 C   0  0  0  0  0  0  0  0  0  0  0  0
   -7.2360   21.7450  -32.1380 C   0  0  0  0  0  0  0  0  0  0  0  0
   -8.1940   20.7720  -31.8250 C   0  0  0  0  0  0  0  0  0  0  0  0
   -7.9130   19.4150  -32.0310 C   0  0  0  0  0  0  0  0  0  0  0  0
   -9.1140   18.1990  -31.6290 Cl  0  0  0  0  0  0  0  0  0  0  0  0
   -6.6770   19.0300  -32.5600 C   0  0  0  0  0  0  0  0  0  0  0  0
   -5.7170   20.0010  -32.8760 C   0  0  0  0  0  0  0  0  0  0  0  0
   -3.0400   21.9070  -31.5180 C   0  0  0  0  0  0  0  0  0  0  0  0
   -2.3130   22.1580  -30.4020 N   0  0  0  0  0  0  0  0  0  0  0  0
   -2.6560   23.0990  -29.5160 N   0  0  0  0  0  0  0  0  0  0  0  0
   -1.7890   23.3090  -28.3420 C   0  0  2  0  0  0  0  0  0  0  0  0
   -2.5840   23.5360  -27.2000 O   0  0  0  0  0  0  0  0  0  0  0  0
   -1.8460   24.3830  -26.3380 C   0  0  2  0  0  0  0  0  0  0  0  0
   -2.7620   25.5050  -25.8210 C   0  0  0  0  0  0  0  0  0  0  0  0
   -4.0790   25.3090  -26.2710 O   0  0  0  0  0  0  0  0  0  0  0  0
   -0.6240   24.9510  -27.0950 C   0  0  1  0  0  0  0  0  0  0  0  0
    0.5880   24.4480  -26.5820 O   0  0  0  0  0  0  0  0  0  0  0  0
   -0.8630   24.5060  -28.5200 C   0  0  1  0  0  0  0  0  0  0  0  0
    0.3170   24.1320  -29.1680 O   0  0  0  0  0  0  0  0  0  0  0  0
   -5.4250   23.2390  -33.3310 H   0  0  0  0  0  0  0  0  0  0  0  0
   -4.3700   22.0070  -33.7300 H   0  0  0  0  0  0  0  0  0  0  0  0
   -7.4636   22.8090  -31.9765 H   0  0  0  0  0  0  0  0  0  0  0  0
   -9.1695   21.0742  -31.4164 H   0  0  0  0  0  0  0  0  0  0  0  0
   -6.4583   17.9651  -32.7281 H   0  0  0  0  0  0  0  0  0  0  0  0
   -4.7482   19.6943  -33.2971 H   0  0  0  0  0  0  0  0  0  0  0  0
   -2.7241   21.1148  -32.2127 H   0  0  0  0  0  0  0  0  0  0  0  0
   -1.1759   22.4031  -28.2259 H   0  0  0  0  0  0  0  0  0  0  0  0
   -1.4752   23.8159  -25.4714 H   0  0  0  0  0  0  0  0  0  0  0  0
   -2.7509   25.5040  -24.7211 H   0  0  0  0  0  0  0  0  0  0  0  0
   -2.3947   26.4694  -26.2019 H   0  0  0  0  0  0  0  0  0  0  0  0
   -4.0090   25.2060  -27.2590 H   0  0  0  0  0  0  0  0  0  0  0  0
   -0.5292   26.0428  -27.0000 H   0  0  0  0  0  0  0  0  0  0  0  0
    1.2780   24.5430  -27.2790 H   0  0  0  0  0  0  0  0  0  0  0  0
   -1.2798   25.3068  -29.1485 H   0  0  0  0  0  0  0  0  0  0  0  0
    0.8130   23.5510  -28.5380 H   0  0  0  0  0  0  0  0  0  0  0  0
  1  2  2  0
  2  3  1  0
  3  4  1  0
  3  5  2  0
  5  6  1  0
  6  7  1  0
  7  8  2  0
  8  9  1  0
  9 10  2  0
 10 11  1  0
 10 12  1  0
 12 13  2  0
  5 14  1  0
 14 15  2  0
 15 16  1  0
 16 17  1  0
 17 18  1  0
 18 19  1  0
 19 20  1  0
 20 21  1  0
 19 22  1  0
 22 23  1  0
 22 24  1  0
 24 25  1  0
 16  2  1  0
 24 17  1  0
 13  7  1  0
  6 26  1  0
  6 27  1  0
  8 28  1  0
  9 29  1  0
 12 30  1  0
 13 31  1  0
 14 32  1  0
 17 33  1  1
 19 34  1  1
 20 35  1  0
 20 36  1  0
 21 37  1  0
 22 38  1  6
 23 39  1  0
 24 40  1  6
 25 41  1  0
M  CHG  1   6   1
M  END
>  <UniqueID>  (33) 
29

>  <SMILES>  (33) 
O=c1c(Cl)c([NH2+]c2ccc(Cl)cc2)cnn1[C@@H]1O[C@H](CO)C(O)C1O

>  <Energy>  (33) 
53.44156883457744

>  <Genealogy>  (33) 
O=c1c(Cl)c([NH2+]c2ccc(Cl)cc2)cnn1C1OC(CO)C(O)C1O (protonated)
O=c1c(Cl)c([NH2+]c2ccc(Cl)cc2)cnn1[C@@H]1O[C@H](CO)C(O)C1O (chirality)
O=c1c(Cl)c([NH2+]c2ccc(Cl)cc2)cnn1[C@@H]1O[C@H](CO)C(O)C1O (3D coordinates assigned)
O=c1c(Cl)c([NH2+]c2ccc(Cl)cc2)cnn1[C@@H]1O[C@H](CO)C(O)C1O (nonaromatic ring conformer: 53.44156883457744 kcal/mol)

>  <smiles>  (33) 
O=c1c(Cl)c(Nc2ccc(Cl)cc2)cnn1C1OC(CO)C(O)C1O

>  <score_type>  (33) 
oracle

>  <origin>  (33) 
adg

>  <m_score__min__energy>  (33) 
-7.8399999999999999

>  <m_primary>  (33) 
energy

$$$$
33:0
     RDKit          3D

 28 30  0  0  0  0  0  0  0  0999 V2000
   -9.0140   18.9710  -31.9740 C   0  0  0  0  0  0  0  0  0  0  0  0
   -8.1540   19.8020  -32.7460 O   0  0  0  0  0  0  0  0  0  0  0  0
   -6.8310   19.4820  -33.0890 C   0  0  0  0  0  0  0  0  0  0  0  0
   -6.4980   18.2520  -33.6910 C   0  0  0  0  0  0  0  0  0  0  0  0
   -5.1800   17.9810  -34.0650 C   0  0  0  0  0  0  0  0  0  0  0  0
   -4.8700   16.7960  -34.6480 F   0  0  0  0  0  0  0  0  0  0  0  0
   -4.1810   18.9300  -33.8470 C   0  0  0  0  0  0  0  0  0  0  0  0
   -4.4960   20.1500  -33.2450 C   0  0  0  0  0  0  0  0  0  0  0  0
   -5.8120   20.4290  -32.8470 C   0  0  0  0  0  0  0  0  0  0  0  0
   -6.1060   21.6880  -32.2200 N   0  0  0  0  0  0  0  0  0  0  0  0
   -7.3110   22.2510  -32.1810 N   0  0  0  0  0  0  0  0  0  0  0  0
   -7.2300   23.4520  -31.5590 C   0  0  0  0  0  0  0  0  0  0  0  0
   -5.9080   23.6500  -31.2070 C   0  0  0  0  0  0  0  0  0  0  0  0
   -5.2080   24.6870  -30.6020 C   0  0  0  0  0  0  0  0  0  0  0  0
   -5.9530   26.0440  -30.0740 S   0  0  0  0  0  0  0  0  0  0  0  0
   -3.8570   24.5450  -30.4660 N   0  0  0  0  0  0  0  0  0  0  0  0
   -3.2060   23.4240  -30.9170 C   0  0  0  0  0  0  0  0  0  0  0  0
   -3.9010   22.4110  -31.5170 N   0  0  0  0  0  0  0  0  0  0  0  0
   -5.2460   22.5410  -31.6340 C   0  0  0  0  0  0  0  0  0  0  0  0
   -8.8310   19.1478  -30.9038 H   0  0  0  0  0  0  0  0  0  0  0  0
  -10.0619   19.2074  -32.2108 H   0  0  0  0  0  0  0  0  0  0  0  0
   -8.8137   17.9156  -32.2108 H   0  0  0  0  0  0  0  0  0  0  0  0
   -7.2815   17.5003  -33.8675 H   0  0  0  0  0  0  0  0  0  0  0  0
   -3.1450   18.7172  -34.1494 H   0  0  0  0  0  0  0  0  0  0  0  0
   -3.7062   20.8980  -33.0816 H   0  0  0  0  0  0  0  0  0  0  0  0
   -8.1820   21.8250  -32.5700 H   0  0  0  0  0  0  0  0  0  0  0  0
   -8.0641   24.1434  -31.3688 H   0  0  0  0  0  0  0  0  0  0  0  0
   -2.1161   23.3399  -30.7947 H   0  0  0  0  0  0  0  0  0  0  0  0
  1  2  1  0
  2  3  1  0
  3  4  2  0
  4  5  1  0
  5  6  1  0
  5  7  2  0
  7  8  1  0
  8  9  2  0
  9 10  1  0
 10 11  1  0
 11 12  2  0
 12 13  1  0
 13 14  1  0
 14 15  2  0
 14 16  1  0
 16 17  1  0
 17 18  2  0
 18 19  1  0
  9  3  1  0
 19 10  1  0
 19 13  2  0
  1 20  1  0
  1 21  1  0
  1 22  1  0
  4 23  1  0
  7 24  1  0
  8 25  1  0
 11 26  1  0
 12 27  1  0
 17 28  1  0
M  CHG  2  11   1  16  -1
M  END
>  <UniqueID>  (34) 
30

>  <SMILES>  (34) 
COc1cc(F)ccc1-n1[nH+]cc2c(=S)[n-]cnc21

>  <Energy>  (34) 
79.2724342139807

>  <Genealogy>  (34) 
COc1cc(F)ccc1-n1[nH+]cc2c(=S)[n-]cnc21 (protonated)
COc1cc(F)ccc1-n1[nH+]cc2c(=S)[n-]cnc21 (3D coordinates assigned)
COc1cc(F)ccc1-n1[nH+]cc2c(=S)[n-]cnc21 (optimized conformer: 79.2724342139807 kcal/mol)

>  <smiles>  (34) 
COc1cc(F)ccc1-n1ncc2c(=S)[nH]cnc21

>  <score_type>  (34) 
oracle

>  <origin>  (34) 
adg

>  <m_score__min__energy>  (34) 
-6.7699999999999996

>  <m_primary>  (34) 
energy

$$$$
34:0
     RDKit          3D

 36 38  0  0  0  0  0  0  0  0999 V2000
   -4.9900   15.4090  -32.5330 C   0  0  0  0  0  0  0  0  0  0  0  0
   -6.0190   16.0360  -33.2670 O   0  0  0  0  0  0  0  0  0  0  0  0
   -5.5430   17.2280  -33.8590 C   0  0  0  0  0  0  0  0  0  0  0  0
   -6.3800   18.3930  -33.4300 C   0  0  0  0  0  0  0  0  0  0  0  0
   -6.0430   19.7330  -33.5640 C   0  0  0  0  0  0  0  0  0  0  0  0
   -7.0600   20.3960  -32.9060 C   0  0  0  0  0  0  0  0  0  0  0  0
   -7.9450   19.5040  -32.4360 N   0  0  0  0  0  0  0  0  0  0  0  0
   -7.5310   18.2860  -32.7360 N   0  0  0  0  0  0  0  0  0  0  0  0
   -9.0940   19.8180  -31.5950 C   0  0  0  0  0  0  0  0  0  0  0  0
   -9.3260   21.3420  -31.4960 C   0  0  0  0  0  0  0  0  0  0  0  0
   -8.0780   22.1420  -31.5290 N   0  0  0  0  0  0  0  0  0  0  0  0
   -7.3810   22.3060  -30.2320 C   0  0  0  0  0  0  0  0  0  0  0  0
   -6.4160   23.4650  -30.1930 C   0  0  0  0  0  0  0  0  0  0  0  0
   -6.8280   24.8030  -30.0940 C   0  0  0  0  0  0  0  0  0  0  0  0
   -5.7780   25.7100  -30.0900 C   0  0  0  0  0  0  0  0  0  0  0  0
   -4.3440   24.8480  -30.2350 S   0  0  0  0  0  0  0  0  0  0  0  0
   -5.0360   23.3200  -30.3050 C   0  0  0  0  0  0  0  0  0  0  0  0
   -7.2050   21.8650  -32.6890 C   0  0  0  0  0  0  0  0  0  0  0  0
   -5.1833   15.5268  -31.4565 H   0  0  0  0  0  0  0  0  0  0  0  0
   -4.9596   14.3387  -32.7851 H   0  0  0  0  0  0  0  0  0  0  0  0
   -4.0249   15.8727  -32.7851 H   0  0  0  0  0  0  0  0  0  0  0  0
   -4.5012   17.3961  -33.5486 H   0  0  0  0  0  0  0  0  0  0  0  0
   -5.5999   17.1309  -34.9532 H   0  0  0  0  0  0  0  0  0  0  0  0
   -5.1701   20.1655  -34.0748 H   0  0  0  0  0  0  0  0  0  0  0  0
   -8.0020   17.4020  -32.4400 H   0  0  0  0  0  0  0  0  0  0  0  0
   -9.9905   19.3475  -32.0251 H   0  0  0  0  0  0  0  0  0  0  0  0
   -8.8957   19.4335  -30.5836 H   0  0  0  0  0  0  0  0  0  0  0  0
   -9.9587   21.6518  -32.3408 H   0  0  0  0  0  0  0  0  0  0  0  0
   -9.8011   21.5305  -30.5220 H   0  0  0  0  0  0  0  0  0  0  0  0
   -8.1388   22.4611  -29.4499 H   0  0  0  0  0  0  0  0  0  0  0  0
   -6.7872   21.3937  -30.0737 H   0  0  0  0  0  0  0  0  0  0  0  0
   -7.8838   25.1042  -30.0260 H   0  0  0  0  0  0  0  0  0  0  0  0
   -5.8690   26.8030  -30.0064 H   0  0  0  0  0  0  0  0  0  0  0  0
   -4.4936   22.3699  -30.4194 H   0  0  0  0  0  0  0  0  0  0  0  0
   -7.6454   22.3204  -33.5883 H   0  0  0  0  0  0  0  0  0  0  0  0
   -6.2105   22.2913  -32.4908 H   0  0  0  0  0  0  0  0  0  0  0  0
  1  2  1  0
  2  3  1  0
  3  4  1  0
  4  5  1  0
  5  6  2  0
  6  7  1  0
  7  8  1  0
  7  9  1  0
  9 10  1  0
 10 11  1  0
 11 12  1  0
 12 13  1  0
 13 14  1  0
 14 15  2  0
 15 16  1  0
 16 17  1  0
 11 18  1  0
  8  4  2  0
 17 13  2  0
 18  6  1  0
  1 19  1  0
  1 20  1  0
  1 21  1  0
  3 22  1  0
  3 23  1  0
  5 24  1  0
  8 25  1  0
  9 26  1  0
  9 27  1  0
 10 28  1  0
 10 29  1  0
 12 30  1  0
 12 31  1  0
 14 32  1  0
 15 33  1  0
 17 34  1  0
 18 35  1  0
 18 36  1  0
M  CHG  1   8   1
M  END
>  <UniqueID>  (35) 
31

>  <SMILES>  (35) 
COCc1cc2n([nH+]1)CCN(Cc1ccsc1)C2

>  <Energy>  (35) 
101.33155288253252

>  <Genealogy>  (35) 
COCc1cc2n([nH+]1)CCN(Cc1ccsc1)C2 (protonated)
COCc1cc2n([nH+]1)CCN(Cc1ccsc1)C2 (3D coordinates assigned)
COCc1cc2n([nH+]1)CCN(Cc1ccsc1)C2 (nonaromatic ring conformer: 101.33155288253252 kcal/mol)

>  <smiles>  (35) 
COCc1cc2n(n1)CCN(Cc1ccsc1)C2

>  <score_type>  (35) 
oracle

>  <origin>  (35) 
adg

>  <m_score__min__energy>  (35) 
-6.0899999999999999

>  <m_primary>  (35) 
energy

$$$$
35:0
     RDKit          3D

 32 32  0  0  0  0  0  0  0  0999 V2000
   -6.1040   18.1240  -34.6170 C   0  0  0  0  0  0  0  0  0  0  0  0
   -6.7080   18.7860  -33.4480 N   0  0  0  0  0  0  0  0  0  0  0  0
   -7.2090   17.8410  -32.4260 C   0  0  0  0  0  0  0  0  0  0  0  0
   -5.8670   19.8410  -32.9060 C   0  0  0  0  0  0  0  0  0  0  0  0
   -6.2290   21.1240  -32.6290 C   0  0  0  0  0  0  0  0  0  0  0  0
   -5.1680   22.1680  -32.5900 C   0  0  0  0  0  0  0  0  0  0  0  0
   -4.0320   21.9530  -33.0930 O   0  0  0  0  0  0  0  0  0  0  0  0
   -5.4400   23.5180  -31.9870 C   0  0  0  0  0  0  0  0  0  0  0  0
   -6.5660   23.4740  -30.9260 C   0  0  0  0  0  0  0  0  0  0  0  0
   -6.1280   22.6460  -29.6930 C   0  0  0  0  0  0  0  0  0  0  0  0
   -6.8660   24.9130  -30.4570 C   0  0  0  0  0  0  0  0  0  0  0  0
   -7.8450   22.8730  -31.5590 C   0  0  0  0  0  0  0  0  0  0  0  0
   -7.6090   21.5770  -32.2920 C   0  0  0  0  0  0  0  0  0  0  0  0
   -8.6180   20.9630  -32.7180 O   0  0  0  0  0  0  0  0  0  0  0  0
   -5.3989   17.3512  -34.2770 H   0  0  0  0  0  0  0  0  0  0  0  0
   -6.8945   17.6579  -35.2235 H   0  0  0  0  0  0  0  0  0  0  0  0
   -5.5675   18.8686  -35.2235 H   0  0  0  0  0  0  0  0  0  0  0  0
   -7.5550   19.2770  -33.8230 H   0  0  0  0  0  0  0  0  0  0  0  0
   -6.9976   18.2398  -31.4229 H   0  0  0  0  0  0  0  0  0  0  0  0
   -8.2945   17.7110  -32.5476 H   0  0  0  0  0  0  0  0  0  0  0  0
   -6.7074   16.8696  -32.5476 H   0  0  0  0  0  0  0  0  0  0  0  0
   -4.8211   19.5725  -32.6962 H   0  0  0  0  0  0  0  0  0  0  0  0
   -4.5189   23.8838  -31.5097 H   0  0  0  0  0  0  0  0  0  0  0  0
   -5.7676   24.1871  -32.7963 H   0  0  0  0  0  0  0  0  0  0  0  0
   -6.4104   23.1799  -28.7737 H   0  0  0  0  0  0  0  0  0  0  0  0
   -6.6251   21.6650  -29.7147 H   0  0  0  0  0  0  0  0  0  0  0  0
   -5.0373   22.5049  -29.7147 H   0  0  0  0  0  0  0  0  0  0  0  0
   -6.8730   24.9464  -29.3575 H   0  0  0  0  0  0  0  0  0  0  0  0
   -6.0902   25.5926  -30.8396 H   0  0  0  0  0  0  0  0  0  0  0  0
   -7.8487   25.2260  -30.8396 H   0  0  0  0  0  0  0  0  0  0  0  0
   -8.5758   22.6901  -30.7575 H   0  0  0  0  0  0  0  0  0  0  0  0
   -8.2075   23.5997  -32.3010 H   0  0  0  0  0  0  0  0  0  0  0  0
  1  2  1  0
  2  3  1  0
  2  4  1  0
  4  5  2  3
  5  6  1  0
  6  7  2  0
  6  8  1  0
  8  9  1  0
  9 10  1  0
  9 11  1  0
  9 12  1  0
 12 13  1  0
 13 14  2  0
 13  5  1  0
  1 15  1  0
  1 16  1  0
  1 17  1  0
  2 18  1  0
  3 19  1  0
  3 20  1  0
  3 21  1  0
  4 22  1  0
  8 23  1  0
  8 24  1  0
 10 25  1  0
 10 26  1  0
 10 27  1  0
 11 28  1  0
 11 29  1  0
 11 30  1  0
 12 31  1  0
 12 32  1  0
M  CHG  1   2   1
M  END
>  <UniqueID>  (36) 
32

>  <SMILES>  (36) 
C[NH+](C)C=C1C(=O)CC(C)(C)CC1=O

>  <Energy>  (36) 
42.140685661827916

>  <Genealogy>  (36) 
C[NH+](C)C=C1C(=O)CC(C)(C)CC1=O (protonated)
C[NH+](C)C=C1C(=O)CC(C)(C)CC1=O (3D coordinates assigned)
C[NH+](C)C=C1C(=O)CC(C)(C)CC1=O (nonaromatic ring conformer: 42.140685661827916 kcal/mol)

>  <smiles>  (36) 
CN(C)C=C1C(=O)CC(C)(C)CC1=O

>  <score_type>  (36) 
oracle

>  <origin>  (36) 
adg

>  <m_score__min__energy>  (36) 
-5.21

>  <m_primary>  (36) 
energy

$$$$
36:0
     RDKit          3D

 48 50  0  0  0  0  0  0  0  0999 V2000
   -9.5340   19.3960  -32.6830 C   0  0  0  0  0  0  0  0  0  0  0  0
   -8.7150   18.3380  -31.9520 C   0  0  0  0  0  0  0  0  0  0  0  0
   -7.4400   18.1700  -32.5670 O   0  0  0  0  0  0  0  0  0  0  0  0
   -6.2260   18.3080  -31.8810 C   0  0  0  0  0  0  0  0  0  0  0  0
   -6.0490   17.7130  -30.7800 O   0  0  0  0  0  0  0  0  0  0  0  0
   -5.2130   19.1960  -32.4110 N   0  0  0  0  0  0  0  0  0  0  0  0
   -5.7520   20.0110  -33.5160 C   0  0  0  0  0  0  0  0  0  0  0  0
   -6.8570   20.9590  -33.0310 C   0  0  0  0  0  0  0  0  0  0  0  0
   -6.5260   21.5550  -31.7300 N   0  0  0  0  0  0  0  0  0  0  0  0
   -7.5280   22.3830  -31.0920 C   0  0  0  0  0  0  0  0  0  0  0  0
   -8.7450   22.1990  -31.3670 O   0  0  0  0  0  0  0  0  0  0  0  0
   -7.1860   23.5050  -30.1490 C   0  0  0  0  0  0  0  0  0  0  0  0
   -6.2180   24.7990  -31.0040 S   0  0  0  0  0  0  0  0  0  0  0  0
   -4.7380   24.5550  -30.0290 C   0  0  0  0  0  0  0  0  0  0  0  0
   -3.5100   24.9590  -30.4480 N   0  0  0  0  0  0  0  0  0  0  0  0
   -2.7270   24.6070  -29.4190 C   0  0  0  0  0  0  0  0  0  0  0  0
   -1.3560   24.8070  -29.2850 C   0  0  0  0  0  0  0  0  0  0  0  0
   -0.7370   24.3750  -28.0830 C   0  0  0  0  0  0  0  0  0  0  0  0
    0.6340   24.5460  -27.8450 O   0  0  0  0  0  0  0  0  0  0  0  0
    1.1760   25.0990  -26.6520 C   0  0  0  0  0  0  0  0  0  0  0  0
   -1.5190   23.7540  -27.0800 C   0  0  0  0  0  0  0  0  0  0  0  0
   -2.9040   23.5730  -27.2540 C   0  0  0  0  0  0  0  0  0  0  0  0
   -3.4690   24.0180  -28.4420 C   0  0  0  0  0  0  0  0  0  0  0  0
   -4.7590   23.9700  -28.8050 N   0  0  0  0  0  0  0  0  0  0  0  0
   -5.1490   21.4540  -31.2220 C   0  0  0  0  0  0  0  0  0  0  0  0
   -4.5720   20.0250  -31.3570 C   0  0  0  0  0  0  0  0  0  0  0  0
  -10.0353   20.0436  -31.9487 H   0  0  0  0  0  0  0  0  0  0  0  0
   -8.8686   20.0036  -33.3139 H   0  0  0  0  0  0  0  0  0  0  0  0
  -10.2890   18.9041  -33.3139 H   0  0  0  0  0  0  0  0  0  0  0  0
   -8.5728   18.6505  -30.9070 H   0  0  0  0  0  0  0  0  0  0  0  0
   -9.2561   17.3813  -31.9956 H   0  0  0  0  0  0  0  0  0  0  0  0
   -4.4660   18.5850  -32.8190 H   0  0  0  0  0  0  0  0  0  0  0  0
   -4.9361   20.6067  -33.9513 H   0  0  0  0  0  0  0  0  0  0  0  0
   -6.1852   19.3320  -34.2652 H   0  0  0  0  0  0  0  0  0  0  0  0
   -6.9865   21.7637  -33.7697 H   0  0  0  0  0  0  0  0  0  0  0  0
   -7.7836   20.3773  -32.9170 H   0  0  0  0  0  0  0  0  0  0  0  0
   -8.1160   23.9469  -29.7619 H   0  0  0  0  0  0  0  0  0  0  0  0
   -6.5820   23.1002  -29.3236 H   0  0  0  0  0  0  0  0  0  0  0  0
   -0.7711   25.2845  -30.0849 H   0  0  0  0  0  0  0  0  0  0  0  0
    0.7068   24.6203  -25.7798 H   0  0  0  0  0  0  0  0  0  0  0  0
    2.2616   24.9235  -26.6267 H   0  0  0  0  0  0  0  0  0  0  0  0
    0.9788   26.1809  -26.6267 H   0  0  0  0  0  0  0  0  0  0  0  0
   -1.0384   23.4085  -26.1528 H   0  0  0  0  0  0  0  0  0  0  0  0
   -3.5176   23.0956  -26.4759 H   0  0  0  0  0  0  0  0  0  0  0  0
   -4.5114   22.1472  -31.7903 H   0  0  0  0  0  0  0  0  0  0  0  0
   -5.1677   21.7076  -30.1518 H   0  0  0  0  0  0  0  0  0  0  0  0
   -3.5003   20.1083  -31.5905 H   0  0  0  0  0  0  0  0  0  0  0  0
   -4.7670   19.5184  -30.4003 H   0  0  0  0  0  0  0  0  0  0  0  0
  1  2  1  0
  2  3  1  0
  3  4  1  0
  4  5  2  0
  4  6  1  0
  6  7  1  0
  7  8  1  0
  8  9  1  0
  9 10  1  0
 10 11  2  0
 10 12  1  0
 12 13  1  0
 13 14  1  0
 14 15  2  0
 15 16  1  0
 16 17  2  0
 17 18  1  0
 18 19  1  0
 19 20  1  0
 18 21  2  0
 21 22  1  0
 22 23  2  0
 23 24  1  0
  9 25  1  0
 25 26  1  0
 26  6  1  0
 24 14  1  0
 23 16  1  0
  1 27  1  0
  1 28  1  0
  1 29  1  0
  2 30  1  0
  2 31  1  0
  6 32  1  0
  7 33  1  0
  7 34  1  0
  8 35  1  0
  8 36  1  0
 12 37  1  0
 12 38  1  0
 17 39  1  0
 20 40  1  0
 20 41  1  0
 20 42  1  0
 21 43  1  0
 22 44  1  0
 25 45  1  0
 25 46  1  0
 26 47  1  0
 26 48  1  0
M  CHG  2   6   1  24  -1
M  END
>  <UniqueID>  (37) 
33

>  <SMILES>  (37) 
CCOC(=O)[NH+]1CCN(C(=O)CSc2nc3cc(OC)ccc3[n-]2)CC1

>  <Energy>  (37) 
81.95734301868953

>  <Genealogy>  (37) 
CCOC(=O)[NH+]1CCN(C(=O)CSc2nc3cc(OC)ccc3[n-]2)CC1 (protonated)
CCOC(=O)[NH+]1CCN(C(=O)CSc2nc3cc(OC)ccc3[n-]2)CC1 (3D coordinates assigned)
CCOC(=O)[NH+]1CCN(C(=O)CSc2nc3cc(OC)ccc3[n-]2)CC1 (nonaromatic ring conformer: 81.95734301868953 kcal/mol)

>  <smiles>  (37) 
CCOC(=O)N1CCN(C(=O)CSc2nc3cc(OC)ccc3[nH]2)CC1

>  <score_type>  (37) 
oracle

>  <origin>  (37) 
adg

>  <m_score__min__energy>  (37) 
-7.7300000000000004

>  <m_primary>  (37) 
energy

$$$$
37:0
     RDKit          3D

 47 49  0  0  0  0  0  0  0  0999 V2000
   -6.5050   17.0420  -33.5030 C   0  0  0  0  0  0  0  0  0  0  0  0
   -6.4890   18.4840  -33.9040 C   0  0  0  0  0  0  0  0  0  0  0  0
   -5.9410   18.8040  -34.9930 O   0  0  0  0  0  0  0  0  0  0  0  0
   -7.1150   19.5020  -33.1040 N   0  0  0  0  0  0  0  0  0  0  0  0
   -8.5300   19.4680  -32.7340 C   0  0  0  0  0  0  0  0  0  0  0  0
   -8.7330   20.6010  -31.7000 C   0  0  0  0  0  0  0  0  0  0  0  0
   -7.3950   21.2490  -31.6320 C   0  0  0  0  0  0  0  0  0  0  0  0
   -7.0410   22.3920  -30.9170 C   0  0  0  0  0  0  0  0  0  0  0  0
   -5.7320   22.8940  -31.0540 C   0  0  0  0  0  0  0  0  0  0  0  0
   -5.2330   24.3500  -30.2020 S   0  0  0  0  0  0  0  0  0  0  0  0
   -3.9750   24.9120  -30.8080 O   0  0  0  0  0  0  0  0  0  0  0  0
   -6.3250   25.3780  -30.3080 O   0  0  0  0  0  0  0  0  0  0  0  0
   -4.9570   23.9680  -28.5300 N   0  0  0  0  0  0  0  0  0  0  0  0
   -3.6830   24.5400  -28.0880 C   0  0  0  0  0  0  0  0  0  0  0  0
   -2.5040   23.7600  -28.6840 C   0  0  0  0  0  0  0  0  0  0  0  0
   -1.3060   24.6350  -28.9570 C   0  0  0  0  0  0  0  0  0  0  0  0
   -0.2260   24.0970  -29.3200 O   0  0  0  0  0  0  0  0  0  0  0  0
   -1.3100   26.0400  -28.6680 N   0  0  0  0  0  0  0  0  0  0  0  0
   -1.1160   26.6550  -27.3870 C   0  0  0  0  0  0  0  0  0  0  0  0
   -1.5050   25.9600  -26.2340 C   0  0  0  0  0  0  0  0  0  0  0  0
   -1.3000   26.5200  -24.9690 C   0  0  0  0  0  0  0  0  0  0  0  0
   -0.6850   27.7700  -24.8480 C   0  0  0  0  0  0  0  0  0  0  0  0
   -0.2650   28.4550  -25.9920 C   0  0  0  0  0  0  0  0  0  0  0  0
   -0.4690   27.8970  -27.2570 C   0  0  0  0  0  0  0  0  0  0  0  0
   -4.8230   22.2520  -31.9200 C   0  0  0  0  0  0  0  0  0  0  0  0
   -5.2070   21.1060  -32.6340 C   0  0  0  0  0  0  0  0  0  0  0  0
   -6.5020   20.6040  -32.4450 C   0  0  0  0  0  0  0  0  0  0  0  0
   -6.5058   16.9666  -32.4056 H   0  0  0  0  0  0  0  0  0  0  0  0
   -7.4086   16.5598  -33.9044 H   0  0  0  0  0  0  0  0  0  0  0  0
   -5.6124   16.5399  -33.9044 H   0  0  0  0  0  0  0  0  0  0  0  0
   -9.1598   19.6419  -33.6189 H   0  0  0  0  0  0  0  0  0  0  0  0
   -8.8121   18.4898  -32.3174 H   0  0  0  0  0  0  0  0  0  0  0  0
   -9.4985   21.3133  -32.0416 H   0  0  0  0  0  0  0  0  0  0  0  0
   -9.0828   20.2341  -30.7238 H   0  0  0  0  0  0  0  0  0  0  0  0
   -7.7682   22.8913  -30.2599 H   0  0  0  0  0  0  0  0  0  0  0  0
   -5.7280   24.4200  -27.9860 H   0  0  0  0  0  0  0  0  0  0  0  0
   -3.6248   25.5886  -28.4152 H   0  0  0  0  0  0  0  0  0  0  0  0
   -3.6293   24.4796  -26.9910 H   0  0  0  0  0  0  0  0  0  0  0  0
   -2.2098   22.9714  -27.9758 H   0  0  0  0  0  0  0  0  0  0  0  0
   -2.8351   23.3404  -29.6454 H   0  0  0  0  0  0  0  0  0  0  0  0
   -1.9739   24.9691  -26.3244 H   0  0  0  0  0  0  0  0  0  0  0  0
   -1.6228   25.9768  -24.0686 H   0  0  0  0  0  0  0  0  0  0  0  0
   -0.5318   28.2140  -23.8533 H   0  0  0  0  0  0  0  0  0  0  0  0
    0.2266   29.4344  -25.8964 H   0  0  0  0  0  0  0  0  0  0  0  0
   -0.1224   28.4310  -28.1540 H   0  0  0  0  0  0  0  0  0  0  0  0
   -3.8051   22.6523  -32.0370 H   0  0  0  0  0  0  0  0  0  0  0  0
   -4.5079   20.6134  -33.3258 H   0  0  0  0  0  0  0  0  0  0  0  0
  1  2  1  0
  2  3  2  0
  2  4  1  0
  4  5  1  0
  5  6  1  0
  6  7  1  0
  7  8  2  0
  8  9  1  0
  9 10  1  0
 10 11  2  0
 10 12  2  0
 10 13  1  0
 13 14  1  0
 14 15  1  0
 15 16  1  0
 16 17  2  0
 16 18  1  0
 18 19  1  0
 19 20  2  0
 20 21  1  0
 21 22  2  0
 22 23  1  0
 23 24  2  0
  9 25  2  0
 25 26  1  0
 26 27  2  0
 27  4  1  0
 27  7  1  0
 24 19  1  0
  1 28  1  0
  1 29  1  0
  1 30  1  0
  5 31  1  0
  5 32  1  0
  6 33  1  0
  6 34  1  0
  8 35  1  0
 13 36  1  0
 14 37  1  0
 14 38  1  0
 15 39  1  0
 15 40  1  0
 20 41  1  0
 21 42  1  0
 22 43  1  0
 23 44  1  0
 24 45  1  0
 25 46  1  0
 26 47  1  0
M  CHG  1  18  -1
M  END
>  <UniqueID>  (38) 
34

>  <SMILES>  (38) 
CC(=O)N1CCc2cc(S(=O)(=O)NCCC(=O)[N-]c3ccccc3)ccc21

>  <Energy>  (38) 
66.03113953939818

>  <Genealogy>  (38) 
CC(=O)N1CCc2cc(S(=O)(=O)NCCC(=O)[N-]c3ccccc3)ccc21 (protonated)
CC(=O)N1CCc2cc(S(=O)(=O)NCCC(=O)[N-]c3ccccc3)ccc21 (3D coordinates assigned)
CC(=O)N1CCc2cc(S(=O)(=O)NCCC(=O)[N-]c3ccccc3)ccc21 (nonaromatic ring conformer: 66.03113953939818 kcal/mol)

>  <smiles>  (38) 
CC(=O)N1CCc2cc(S(=O)(=O)NCCC(=O)Nc3ccccc3)ccc21

>  <score_type>  (38) 
oracle

>  <origin>  (38) 
adg

>  <m_score__min__energy>  (38) 
-11.710000000000001

>  <m_primary>  (38) 
energy

$$$$
38:0
     RDKit          3D

 49 52  0  0  0  0  0  0  0  0999 V2000
   -4.2310   25.6730  -30.8350 O   0  0  0  0  0  0  0  0  0  0  0  0
   -3.6870   24.8410  -30.0570 C   0  0  0  0  0  0  0  0  0  0  0  0
   -4.3150   23.5000  -29.8560 C   0  0  0  0  0  0  0  0  0  0  0  0
   -4.1960   22.7000  -31.0830 N   0  0  0  0  0  0  0  0  0  0  0  0
   -5.1390   22.4640  -32.0410 C   0  0  0  0  0  0  0  0  0  0  0  0
   -6.5630   22.9850  -31.9930 C   0  0  0  0  0  0  0  0  0  0  0  0
   -7.5500   22.0050  -31.4830 N   0  0  0  0  0  0  0  0  0  0  0  0
   -7.2060   20.5950  -31.7240 C   0  0  0  0  0  0  0  0  0  0  0  0
   -8.4140   19.9320  -32.3720 C   0  0  0  0  0  0  0  0  0  0  0  0
   -9.5720   20.8520  -32.0510 C   0  0  0  0  0  0  0  0  0  0  0  0
   -8.9340   22.2230  -31.9270 C   0  0  0  0  0  0  0  0  0  0  0  0
   -4.6760   21.7020  -33.0680 N   0  0  0  0  0  0  0  0  0  0  0  0
   -3.3910   21.4790  -32.7350 C   0  0  0  0  0  0  0  0  0  0  0  0
   -2.4390   20.7660  -33.4590 C   0  0  0  0  0  0  0  0  0  0  0  0
   -1.1380   20.6840  -32.9280 C   0  0  0  0  0  0  0  0  0  0  0  0
   -0.8240   21.3160  -31.7040 C   0  0  0  0  0  0  0  0  0  0  0  0
   -1.8090   22.0310  -30.9990 C   0  0  0  0  0  0  0  0  0  0  0  0
   -3.0940   22.0840  -31.5490 C   0  0  0  0  0  0  0  0  0  0  0  0
   -2.4950   25.1860  -29.3440 N   0  0  0  0  0  0  0  0  0  0  0  0
   -2.2560   24.8260  -27.9490 C   0  0  0  0  0  0  0  0  0  0  0  0
   -1.6620   23.4450  -27.8610 C   0  0  0  0  0  0  0  0  0  0  0  0
   -0.3020   23.2330  -28.1490 C   0  0  0  0  0  0  0  0  0  0  0  0
    0.2380   21.9450  -28.0880 C   0  0  0  0  0  0  0  0  0  0  0  0
   -0.5750   20.8600  -27.7450 C   0  0  0  0  0  0  0  0  0  0  0  0
   -1.9310   21.0610  -27.4630 C   0  0  0  0  0  0  0  0  0  0  0  0
   -2.4760   22.3480  -27.5270 C   0  0  0  0  0  0  0  0  0  0  0  0
   -3.8064   22.9796  -29.0311 H   0  0  0  0  0  0  0  0  0  0  0  0
   -5.3797   23.6327  -29.6134 H   0  0  0  0  0  0  0  0  0  0  0  0
   -6.5852   23.8694  -31.3393 H   0  0  0  0  0  0  0  0  0  0  0  0
   -6.8513   23.2147  -33.0294 H   0  0  0  0  0  0  0  0  0  0  0  0
   -6.3371   20.5301  -32.3954 H   0  0  0  0  0  0  0  0  0  0  0  0
   -6.9492   20.0926  -30.7797 H   0  0  0  0  0  0  0  0  0  0  0  0
   -8.2742   19.8486  -33.4599 H   0  0  0  0  0  0  0  0  0  0  0  0
   -8.5780   18.9096  -32.0007 H   0  0  0  0  0  0  0  0  0  0  0  0
  -10.3163   20.8397  -32.8609 H   0  0  0  0  0  0  0  0  0  0  0  0
  -10.1081   20.5524  -31.1384 H   0  0  0  0  0  0  0  0  0  0  0  0
   -8.9438   22.7354  -32.9003 H   0  0  0  0  0  0  0  0  0  0  0  0
   -9.4845   22.8530  -31.2128 H   0  0  0  0  0  0  0  0  0  0  0  0
   -2.6950   20.2831  -34.4136 H   0  0  0  0  0  0  0  0  0  0  0  0
   -0.3609   20.1244  -33.4693 H   0  0  0  0  0  0  0  0  0  0  0  0
    0.1969   21.2485  -31.3000 H   0  0  0  0  0  0  0  0  0  0  0  0
   -1.5767   22.5315  -30.0474 H   0  0  0  0  0  0  0  0  0  0  0  0
   -1.5593   25.5501  -27.5014 H   0  0  0  0  0  0  0  0  0  0  0  0
   -3.2128   24.8396  -27.4065 H   0  0  0  0  0  0  0  0  0  0  0  0
    0.3392   24.0837  -28.4233 H   0  0  0  0  0  0  0  0  0  0  0  0
    1.3034   21.7848  -28.3100 H   0  0  0  0  0  0  0  0  0  0  0  0
   -0.1481   19.8473  -27.6968 H   0  0  0  0  0  0  0  0  0  0  0  0
   -2.5685   20.2069  -27.1909 H   0  0  0  0  0  0  0  0  0  0  0  0
   -3.5444   22.5022  -27.3154 H   0  0  0  0  0  0  0  0  0  0  0  0
  1  2  2  0
  2  3  1  0
  3  4  1  0
  4  5  1  0
  5  6  1  0
  6  7  1  0
  7  8  1  0
  8  9  1  0
  9 10  1  0
 10 11  1  0
  5 12  2  0
 12 13  1  0
 13 14  2  0
 14 15  1  0
 15 16  2  0
 16 17  1  0
 17 18  2  0
  2 19  1  0
 19 20  1  0
 20 21  1  0
 21 22  2  0
 22 23  1  0
 23 24  2  0
 24 25  1  0
 25 26  2  0
 18  4  1  0
 26 21  1  0
 11  7  1  0
 18 13  1  0
  3 27  1  0
  3 28  1  0
  6 29  1  0
  6 30  1  0
  8 31  1  0
  8 32  1  0
  9 33  1  0
  9 34  1  0
 10 35  1  0
 10 36  1  0
 11 37  1  0
 11 38  1  0
 14 39  1  0
 15 40  1  0
 16 41  1  0
 17 42  1  0
 20 43  1  0
 20 44  1  0
 22 45  1  0
 23 46  1  0
 24 47  1  0
 25 48  1  0
 26 49  1  0
M  CHG  1  19  -1
M  END
>  <UniqueID>  (39) 
35

>  <SMILES>  (39) 
O=C(Cn1c(CN2CCCC2)nc2ccccc21)[N-]Cc1ccccc1

>  <Energy>  (39) 
90.3770340436101

>  <Genealogy>  (39) 
O=C(Cn1c(CN2CCCC2)nc2ccccc21)[N-]Cc1ccccc1 (protonated)
O=C(Cn1c(CN2CCCC2)nc2ccccc21)[N-]Cc1ccccc1 (3D coordinates assigned)
O=C(Cn1c(CN2CCCC2)nc2ccccc21)[N-]Cc1ccccc1 (nonaromatic ring conformer: 90.3770340436101 kcal/mol)

>  <smiles>  (39) 
O=C(Cn1c(CN2CCCC2)nc2ccccc21)NCc1ccccc1

>  <score_type>  (39) 
oracle

>  <origin>  (39) 
adg

>  <m_score__min__energy>  (39) 
-10.699999999999999

>  <m_primary>  (39) 
energy

$$$$
39:0
     RDKit          3D

 42 44  0  0  0  0  0  0  0  0999 V2000
   -3.3042   16.6360  -33.9347 H   0  0  0  0  0  0  0  0  0  0  0  0
   -4.3200   17.0440  -34.0430 C   0  0  0  0  0  0  0  0  0  0  0  0
   -5.3860   16.6790  -33.3030 N   0  0  0  0  0  0  0  0  0  0  0  0
   -6.3890   17.4410  -33.7950 C   0  0  0  0  0  0  0  0  0  0  0  0
   -7.6110   17.4010  -33.3550 N   0  0  0  0  0  0  0  0  0  0  0  0
   -8.1030   18.1580  -32.2020 C   0  0  0  0  0  0  0  0  0  0  0  0
   -8.7628   17.5220  -31.5936 H   0  0  0  0  0  0  0  0  0  0  0  0
   -8.9120   19.3700  -32.7070 C   0  0  0  0  0  0  0  0  0  0  0  0
   -9.9527   19.0596  -32.8816 H   0  0  0  0  0  0  0  0  0  0  0  0
   -8.4543   19.7312  -33.6398 H   0  0  0  0  0  0  0  0  0  0  0  0
   -8.8950   20.5120  -31.6820 C   0  0  0  0  0  0  0  0  0  0  0  0
   -9.3257   20.1453  -30.7386 H   0  0  0  0  0  0  0  0  0  0  0  0
   -9.4820   21.3434  -32.0993 H   0  0  0  0  0  0  0  0  0  0  0  0
   -7.5220   21.0190  -31.4140 N   0  0  0  0  0  0  0  0  0  0  0  0
   -7.2460   22.2560  -32.1750 C   0  0  0  0  0  0  0  0  0  0  0  0
   -8.1596   22.8676  -32.2106 H   0  0  0  0  0  0  0  0  0  0  0  0
   -6.9276   21.9784  -33.1907 H   0  0  0  0  0  0  0  0  0  0  0  0
   -6.1430   23.0550  -31.5280 C   0  0  0  0  0  0  0  0  0  0  0  0
   -4.8150   22.6060  -31.5730 C   0  0  0  0  0  0  0  0  0  0  0  0
   -4.5704   21.6739  -32.1035 H   0  0  0  0  0  0  0  0  0  0  0  0
   -3.8000   23.3370  -30.9470 C   0  0  0  0  0  0  0  0  0  0  0  0
   -2.7606   22.9794  -30.9900 H   0  0  0  0  0  0  0  0  0  0  0  0
   -4.1040   24.5290  -30.2620 C   0  0  0  0  0  0  0  0  0  0  0  0
   -3.1220   25.2980  -29.6190 O   0  0  0  0  0  0  0  0  0  0  0  0
   -2.3110   24.8330  -28.5450 C   0  0  0  0  0  0  0  0  0  0  0  0
   -2.7808   25.1024  -27.5875 H   0  0  0  0  0  0  0  0  0  0  0  0
   -2.2096   23.7395  -28.6089 H   0  0  0  0  0  0  0  0  0  0  0  0
   -1.3161   25.2979  -28.6089 H   0  0  0  0  0  0  0  0  0  0  0  0
   -5.4310   24.9710  -30.2140 C   0  0  0  0  0  0  0  0  0  0  0  0
   -5.6778   25.9007  -29.6804 H   0  0  0  0  0  0  0  0  0  0  0  0
   -6.4450   24.2400  -30.8390 C   0  0  0  0  0  0  0  0  0  0  0  0
   -7.4850   24.5951  -30.7907 H   0  0  0  0  0  0  0  0  0  0  0  0
   -6.4540   20.0060  -31.6260 C   0  0  0  0  0  0  0  0  0  0  0  0
   -5.5962   20.2546  -30.9838 H   0  0  0  0  0  0  0  0  0  0  0  0
   -6.1736   20.0253  -32.6895 H   0  0  0  0  0  0  0  0  0  0  0  0
   -6.9310   18.5900  -31.2880 C   0  0  0  0  0  0  0  0  0  0  0  0
   -7.2656   18.5652  -30.2404 H   0  0  0  0  0  0  0  0  0  0  0  0
   -6.0934   17.8947  -31.4457 H   0  0  0  0  0  0  0  0  0  0  0  0
   -6.0050   18.2530  -34.7960 N   0  0  0  0  0  0  0  0  0  0  0  0
   -6.5930   18.9290  -35.3340 H   0  0  0  0  0  0  0  0  0  0  0  0
   -4.6960   18.0070  -34.9570 C   0  0  0  0  0  0  0  0  0  0  0  0
   -4.0354   18.4903  -35.6919 H   0  0  0  0  0  0  0  0  0  0  0  0
  1  2  1  0
  2  3  1  0
  3  4  1  0
  4  5  2  0
  5  6  1  0
  6  7  1  0
  6  8  1  0
  8  9  1  0
  8 10  1  0
  8 11  1  0
 11 12  1  0
 11 13  1  0
 11 14  1  0
 14 15  1  0
 15 16  1  0
 15 17  1  0
 15 18  1  0
 18 19  2  0
 19 20  1  0
 19 21  1  0
 21 22  1  0
 21 23  2  0
 23 24  1  0
 24 25  1  0
 25 26  1  0
 25 27  1  0
 25 28  1  0
 23 29  1  0
 29 30  1  0
 29 31  2  0
 31 32  1  0
 14 33  1  0
 33 34  1  0
 33 35  1  0
 33 36  1  0
 36 37  1  0
 36 38  1  0
  4 39  1  0
 39 40  1  0
 39 41  1  0
 41 42  1  0
 41  2  2  0
 36  6  1  0
 31 18  1  0
M  CHG  1   3  -1
M  END
>  <UniqueID>  (40) 
36

>  <SMILES>  (40) 
COc1ccc(CN2CCC(/N=c3\[n-]cc[nH]3)CC2)cc1

>  <Energy>  (40) 
79.19436893756023

>  <Genealogy>  (40) 
COc1ccc(CN2CCC(N=c3[n-]cc[nH]3)CC2)cc1 (protonated)
COc1ccc(CN2CCC(/N=c3\[n-]cc[nH]3)CC2)cc1 (cis-trans isomerization)
COc1ccc(CN2CCC(/N=c3\[n-]cc[nH]3)CC2)cc1 (3D coordinates assigned)
COc1ccc(CN2CCC(/N=c3\[n-]cc[nH]3)CC2)cc1 (nonaromatic ring conformer: 79.19436893756023 kcal/mol)

>  <smiles>  (40) 
COc1ccc(CN2CCC(N=c3[nH]cc[nH]3)CC2)cc1

>  <score_type>  (40) 
oracle

>  <origin>  (40) 
adg

>  <m_score__min__energy>  (40) 
-9.1899999999999995

>  <m_primary>  (40) 
energy

$$$$
40:0
     RDKit          3D

 50 53  0  0  0  0  0  0  0  0999 V2000
   -4.8520   22.3840  -29.5660 O   0  0  0  0  0  0  0  0  0  0  0  0
   -4.1860   23.3760  -29.9670 C   0  0  0  0  0  0  0  0  0  0  0  0
   -3.9600   24.5580  -29.0670 C   0  0  0  0  0  0  0  0  0  0  0  0
   -2.6830   25.2230  -29.3270 N   0  0  0  0  0  0  0  0  0  0  0  0
   -1.4830   25.1160  -28.5450 C   0  0  0  0  0  0  0  0  0  0  0  0
   -0.5870   25.9860  -28.6960 O   0  0  0  0  0  0  0  0  0  0  0  0
   -1.2430   23.9990  -27.6090 C   0  0  0  0  0  0  0  0  0  0  0  0
   -0.6740   24.2600  -26.3530 C   0  0  0  0  0  0  0  0  0  0  0  0
   -0.4750   23.2210  -25.4420 C   0  0  0  0  0  0  0  0  0  0  0  0
   -0.8440   21.9160  -25.7720 C   0  0  0  0  0  0  0  0  0  0  0  0
   -1.3970   21.6320  -27.0330 C   0  0  0  0  0  0  0  0  0  0  0  0
   -1.8290   20.2300  -27.3780 C   0  0  0  0  0  0  0  0  0  0  0  0
   -2.8740   20.2500  -28.2860 F   0  0  0  0  0  0  0  0  0  0  0  0
   -2.2540   19.5590  -26.2450 F   0  0  0  0  0  0  0  0  0  0  0  0
   -0.7620   19.5470  -27.9320 F   0  0  0  0  0  0  0  0  0  0  0  0
   -1.6270   22.6880  -27.9320 C   0  0  0  0  0  0  0  0  0  0  0  0
   -3.6510   23.4010  -31.3010 N   0  0  0  0  0  0  0  0  0  0  0  0
   -3.8390   22.3330  -32.2930 C   0  0  2  0  0  0  0  0  0  0  0  0
   -5.2360   21.7210  -32.2230 C   0  0  0  0  0  0  0  0  0  0  0  0
   -6.3710   22.5550  -32.2850 C   0  0  0  0  0  0  0  0  0  0  0  0
   -7.6580   22.0160  -32.3130 C   0  0  0  0  0  0  0  0  0  0  0  0
   -7.8400   20.6320  -32.2910 C   0  0  0  0  0  0  0  0  0  0  0  0
   -9.0950   20.1070  -32.3040 N   0  0  0  0  0  0  0  0  0  0  0  0
   -9.3070   18.7640  -32.2990 C   0  0  0  0  0  0  0  0  0  0  0  0
   -8.2230   17.8820  -32.2860 C   0  0  0  0  0  0  0  0  0  0  0  0
   -6.9220   18.3920  -32.2750 C   0  0  0  0  0  0  0  0  0  0  0  0
   -6.7180   19.7780  -32.2720 C   0  0  0  0  0  0  0  0  0  0  0  0
   -5.4250   20.3230  -32.2650 C   0  0  0  0  0  0  0  0  0  0  0  0
   -2.7050   21.3380  -32.1880 C   0  0  0  0  0  0  0  0  0  0  0  0
   -1.8880   21.1740  -31.0740 C   0  0  0  0  0  0  0  0  0  0  0  0
   -0.9470   20.1480  -31.2200 C   0  0  0  0  0  0  0  0  0  0  0  0
   -1.0210   19.4890  -32.4390 C   0  0  0  0  0  0  0  0  0  0  0  0
   -2.2630   20.1830  -33.3340 S   0  0  0  0  0  0  0  0  0  0  0  0
   -4.7733   25.2818  -29.2241 H   0  0  0  0  0  0  0  0  0  0  0  0
   -3.9409   24.1905  -28.0304 H   0  0  0  0  0  0  0  0  0  0  0  0
   -0.3838   25.2867  -26.0854 H   0  0  0  0  0  0  0  0  0  0  0  0
   -0.0256   23.4317  -24.4603 H   0  0  0  0  0  0  0  0  0  0  0  0
   -0.7014   21.1057  -25.0419 H   0  0  0  0  0  0  0  0  0  0  0  0
   -2.1126   22.4850  -28.8979 H   0  0  0  0  0  0  0  0  0  0  0  0
   -3.0980   24.2390  -31.5920 H   0  0  0  0  0  0  0  0  0  0  0  0
   -3.7913   22.7588  -33.3061 H   0  0  0  0  0  0  0  0  0  0  0  0
   -6.2402   23.6469  -32.3117 H   0  0  0  0  0  0  0  0  0  0  0  0
   -8.5314   22.6835  -32.3525 H   0  0  0  0  0  0  0  0  0  0  0  0
  -10.3343   18.3707  -32.3052 H   0  0  0  0  0  0  0  0  0  0  0  0
   -8.3925   16.7951  -32.2844 H   0  0  0  0  0  0  0  0  0  0  0  0
   -6.0610   17.7075  -32.2687 H   0  0  0  0  0  0  0  0  0  0  0  0
   -4.5514   19.6551  -32.2925 H   0  0  0  0  0  0  0  0  0  0  0  0
   -1.9732   21.7904  -30.1669 H   0  0  0  0  0  0  0  0  0  0  0  0
   -0.2161   19.8880  -30.4401 H   0  0  0  0  0  0  0  0  0  0  0  0
   -0.3785   18.6571  -32.7632 H   0  0  0  0  0  0  0  0  0  0  0  0
  1  2  2  0
  2  3  1  0
  3  4  1  0
  4  5  1  0
  5  6  2  0
  5  7  1  0
  7  8  2  0
  8  9  1  0
  9 10  2  0
 10 11  1  0
 11 12  1  0
 12 13  1  0
 12 14  1  0
 12 15  1  0
 11 16  2  0
  2 17  1  0
 17 18  1  0
 18 19  1  0
 19 20  2  0
 20 21  1  0
 21 22  2  0
 22 23  1  0
 23 24  2  0
 24 25  1  0
 25 26  2  0
 26 27  1  0
 27 28  2  0
 18 29  1  0
 29 30  2  0
 30 31  1  0
 31 32  2  0
 32 33  1  0
 16  7  1  0
 28 19  1  0
 33 29  1  0
 27 22  1  0
  3 34  1  0
  3 35  1  0
  8 36  1  0
  9 37  1  0
 10 38  1  0
 16 39  1  0
 17 40  1  0
 18 41  1  6
 20 42  1  0
 21 43  1  0
 24 44  1  0
 25 45  1  0
 26 46  1  0
 28 47  1  0
 30 48  1  0
 31 49  1  0
 32 50  1  0
M  CHG  1   4  -1
M  END
>  <UniqueID>  (41) 
37

>  <SMILES>  (41) 
O=C(C[N-]C(=O)c1cccc(C(F)(F)F)c1)N[C@H](c1ccc2ncccc2c1)c1cccs1

>  <Energy>  (41) 
87.99436420032674

>  <Genealogy>  (41) 
O=C(C[N-]C(=O)c1cccc(C(F)(F)F)c1)NC(c1ccc2ncccc2c1)c1cccs1 (protonated)
O=C(C[N-]C(=O)c1cccc(C(F)(F)F)c1)N[C@H](c1ccc2ncccc2c1)c1cccs1 (chirality)
O=C(C[N-]C(=O)c1cccc(C(F)(F)F)c1)N[C@H](c1ccc2ncccc2c1)c1cccs1 (3D coordinates assigned)
O=C(C[N-]C(=O)c1cccc(C(F)(F)F)c1)N[C@H](c1ccc2ncccc2c1)c1cccs1 (optimized conformer: 87.99436420032674 kcal/mol)

>  <smiles>  (41) 
O=C(CNC(=O)c1cccc(C(F)(F)F)c1)NC(c1ccc2ncccc2c1)c1cccs1

>  <score_type>  (41) 
oracle

>  <origin>  (41) 
adg

>  <m_score__min__energy>  (41) 
-11.16

>  <m_primary>  (41) 
energy

$$$$
41:0
     RDKit          3D

 19 19  0  0  0  0  0  0  0  0999 V2000
   -3.8580   26.4370  -30.7870 H   0  0  0  0  0  0  0  0  0  0  0  0
   -3.8690   25.4350  -30.6510 O   0  0  0  0  0  0  0  0  0  0  0  0
   -4.8560   24.6700  -31.2310 N   0  0  0  0  0  0  0  0  0  0  0  0
   -5.7710   24.0580  -30.5420 C   0  0  0  0  0  0  0  0  0  0  0  0
   -5.9576   24.3929  -29.5110 H   0  0  0  0  0  0  0  0  0  0  0  0
   -6.5760   22.9340  -31.0700 C   0  0  0  0  0  0  0  0  0  0  0  0
   -7.8240   22.5940  -30.5270 C   0  0  0  0  0  0  0  0  0  0  0  0
   -8.2452   23.1826  -29.6987 H   0  0  0  0  0  0  0  0  0  0  0  0
   -8.5300   21.5030  -31.0440 C   0  0  0  0  0  0  0  0  0  0  0  0
   -9.5088   21.2361  -30.6189 H   0  0  0  0  0  0  0  0  0  0  0  0
   -8.0150   20.7660  -32.0720 N   0  0  0  0  0  0  0  0  0  0  0  0
   -8.7530   19.6050  -32.5730 C   0  0  0  0  0  0  0  0  0  0  0  0
   -9.1282   19.0147  -31.7240 H   0  0  0  0  0  0  0  0  0  0  0  0
   -9.6006   19.9458  -33.1857 H   0  0  0  0  0  0  0  0  0  0  0  0
   -8.0847   18.9822  -33.1857 H   0  0  0  0  0  0  0  0  0  0  0  0
   -6.7790   21.0550  -32.5800 C   0  0  0  0  0  0  0  0  0  0  0  0
   -6.3599   20.4304  -33.3826 H   0  0  0  0  0  0  0  0  0  0  0  0
   -6.0440   22.1360  -32.0890 C   0  0  0  0  0  0  0  0  0  0  0  0
   -5.0494   22.3597  -32.5022 H   0  0  0  0  0  0  0  0  0  0  0  0
  1  2  1  0
  2  3  1  0
  3  4  2  0
  4  5  1  0
  4  6  1  0
  6  7  2  0
  7  8  1  0
  7  9  1  0
  9 10  1  0
  9 11  2  0
 11 12  1  0
 12 13  1  0
 12 14  1  0
 12 15  1  0
 11 16  1  0
 16 17  1  0
 16 18  2  0
 18 19  1  0
 18  6  1  0
M  CHG  1  11   1
M  END
>  <UniqueID>  (42) 
38

>  <SMILES>  (42) 
C[n+]1ccc(/C=N\O)cc1

>  <Energy>  (42) 
21.390054556658278

>  <Genealogy>  (42) 
C[n+]1ccc(/C=N\O)cc1 (cis-trans isomerization)
C[n+]1ccc(/C=N\O)cc1 (3D coordinates assigned)
C[n+]1ccc(/C=N\O)cc1 (optimized conformer: 21.390054556658278 kcal/mol)

>  <smiles>  (42) 
C[n+]1ccc(C=NO)cc1

>  <score_type>  (42) 
oracle

>  <origin>  (42) 
adg

>  <m_score__min__energy>  (42) 
-5.6900000000000004

>  <m_primary>  (42) 
energy

$$$$
42:0
     RDKit          3D

 36 37  0  0  0  0  0  0  0  0999 V2000
   -2.6470   21.8220  -32.0210 C   0  0  0  0  0  0  0  0  0  0  0  0
   -3.6220   22.8140  -31.7170 O   0  0  0  0  0  0  0  0  0  0  0  0
   -5.0070   22.5910  -31.6960 C   0  0  0  0  0  0  0  0  0  0  0  0
   -5.5950   21.5040  -32.3730 C   0  0  0  0  0  0  0  0  0  0  0  0
   -6.9780   21.3140  -32.3430 C   0  0  0  0  0  0  0  0  0  0  0  0
   -7.8010   22.2120  -31.6500 C   0  0  0  0  0  0  0  0  0  0  0  0
   -9.2830   21.9870  -31.5930 C   0  0  0  0  0  0  0  0  0  0  0  0
   -7.2210   23.2830  -30.9580 C   0  0  0  0  0  0  0  0  0  0  0  0
   -5.8310   23.4780  -30.9780 C   0  0  0  0  0  0  0  0  0  0  0  0
   -5.1280   24.8610  -30.1290 S   0  0  0  0  0  0  0  0  0  0  0  0
   -6.1060   26.0020  -30.1510 O   0  0  0  0  0  0  0  0  0  0  0  0
   -3.8660   25.3070  -30.8150 O   0  0  0  0  0  0  0  0  0  0  0  0
   -4.7700   24.4440  -28.4800 N   0  0  0  0  0  0  0  0  0  0  0  0
   -3.9040   23.2650  -28.4440 C   0  0  0  0  0  0  0  0  0  0  0  0
   -2.4660   23.6960  -28.3710 C   0  0  0  0  0  0  0  0  0  0  0  0
   -2.1170   24.8990  -27.7390 C   0  0  0  0  0  0  0  0  0  0  0  0
   -0.7780   25.2990  -27.7150 C   0  0  0  0  0  0  0  0  0  0  0  0
    0.1730   24.5330  -28.3100 N   0  0  0  0  0  0  0  0  0  0  0  0
   -0.1380   23.3700  -28.9420 C   0  0  0  0  0  0  0  0  0  0  0  0
   -1.4650   22.9330  -28.9900 C   0  0  0  0  0  0  0  0  0  0  0  0
   -2.2407   21.4086  -31.0861 H   0  0  0  0  0  0  0  0  0  0  0  0
   -3.1141   21.0159  -32.6059 H   0  0  0  0  0  0  0  0  0  0  0  0
   -1.8330   22.2751  -32.6059 H   0  0  0  0  0  0  0  0  0  0  0  0
   -4.9594   20.7995  -32.9296 H   0  0  0  0  0  0  0  0  0  0  0  0
   -7.4238   20.4551  -32.8660 H   0  0  0  0  0  0  0  0  0  0  0  0
   -9.6063   21.9379  -30.5427 H   0  0  0  0  0  0  0  0  0  0  0  0
   -9.7995   22.8170  -32.0972 H   0  0  0  0  0  0  0  0  0  0  0  0
   -9.5299   21.0411  -32.0972 H   0  0  0  0  0  0  0  0  0  0  0  0
   -7.8607   23.9776  -30.3937 H   0  0  0  0  0  0  0  0  0  0  0  0
   -5.6780   24.1990  -28.0230 H   0  0  0  0  0  0  0  0  0  0  0  0
   -4.1492   22.6578  -27.5602 H   0  0  0  0  0  0  0  0  0  0  0  0
   -4.0605   22.6696  -29.3556 H   0  0  0  0  0  0  0  0  0  0  0  0
   -2.8906   25.5221  -27.2664 H   0  0  0  0  0  0  0  0  0  0  0  0
   -0.4938   26.2358  -27.2134 H   0  0  0  0  0  0  0  0  0  0  0  0
    0.6550   22.7727  -29.4158 H   0  0  0  0  0  0  0  0  0  0  0  0
   -1.7222   21.9980  -29.5092 H   0  0  0  0  0  0  0  0  0  0  0  0
  1  2  1  0
  2  3  1  0
  3  4  2  0
  4  5  1  0
  5  6  2  0
  6  7  1  0
  6  8  1  0
  8  9  2  0
  9 10  1  0
 10 11  2  0
 10 12  2  0
 10 13  1  0
 13 14  1  0
 14 15  1  0
 15 16  2  0
 16 17  1  0
 17 18  2  0
 18 19  1  0
 19 20  2  0
  9  3  1  0
 20 15  1  0
  1 21  1  0
  1 22  1  0
  1 23  1  0
  4 24  1  0
  5 25  1  0
  7 26  1  0
  7 27  1  0
  7 28  1  0
  8 29  1  0
 13 30  1  0
 14 31  1  0
 14 32  1  0
 16 33  1  0
 17 34  1  0
 19 35  1  0
 20 36  1  0
M  END
>  <UniqueID>  (43) 
39

>  <SMILES>  (43) 
COc1ccc(C)cc1S(=O)(=O)NCc1ccncc1

>  <Energy>  (43) 
32.99052504475673

>  <Genealogy>  (43) 
COc1ccc(C)cc1S(=O)(=O)NCc1ccncc1 (3D coordinates assigned)
COc1ccc(C)cc1S(=O)(=O)NCc1ccncc1 (optimized conformer: 32.99052504475673 kcal/mol)

>  <smiles>  (43) 
COc1ccc(C)cc1S(=O)(=O)NCc1ccncc1

>  <score_type>  (43) 
oracle

>  <origin>  (43) 
adg

>  <m_score__min__energy>  (43) 
-8.25

>  <m_primary>  (43) 
energy

$$$$
43:0
     RDKit          3D

 37 38  0  0  0  0  0  0  0  0999 V2000
   -3.8700   22.9172  -32.6671 H   0  0  0  0  0  0  0  0  0  0  0  0
   -4.8210   22.3760  -32.5550 C   0  0  0  0  0  0  0  0  0  0  0  0
   -5.9720   23.0690  -32.1460 C   0  0  0  0  0  0  0  0  0  0  0  0
   -5.9380   24.4720  -31.8430 N   0  0  0  0  0  0  0  0  0  0  0  0
   -5.2340   25.0830  -30.7520 C   0  0  0  0  0  0  0  0  0  0  0  0
   -5.8780   25.7830  -29.9280 O   0  0  0  0  0  0  0  0  0  0  0  0
   -3.8130   24.9520  -30.5930 N   0  0  0  0  0  0  0  0  0  0  0  0
   -3.1650   24.6350  -29.5060 C   0  0  0  0  0  0  0  0  0  0  0  0
   -3.6390   23.5690  -28.7330 C   0  0  0  0  0  0  0  0  0  0  0  0
   -4.5255   23.0039  -29.0566 H   0  0  0  0  0  0  0  0  0  0  0  0
   -2.9840   23.2260  -27.5520 C   0  0  0  0  0  0  0  0  0  0  0  0
   -3.3534   22.3901  -26.9397 H   0  0  0  0  0  0  0  0  0  0  0  0
   -1.8600   23.9440  -27.1480 C   0  0  0  0  0  0  0  0  0  0  0  0
   -1.3420   23.6836  -26.2132 H   0  0  0  0  0  0  0  0  0  0  0  0
   -1.3950   25.0010  -27.9430 C   0  0  0  0  0  0  0  0  0  0  0  0
   -0.1580   25.7520  -27.5470 C   0  0  0  0  0  0  0  0  0  0  0  0
   -0.0897   25.7935  -26.4499 H   0  0  0  0  0  0  0  0  0  0  0  0
    0.7274   25.2388  -27.9504 H   0  0  0  0  0  0  0  0  0  0  0  0
   -0.2048   26.7743  -27.9504 H   0  0  0  0  0  0  0  0  0  0  0  0
   -2.0320   25.3010  -29.1120 N   0  0  0  0  0  0  0  0  0  0  0  0
   -1.6140   26.0410  -29.7170 H   0  0  0  0  0  0  0  0  0  0  0  0
   -7.1890   22.3870  -32.0500 C   0  0  0  0  0  0  0  0  0  0  0  0
   -8.0990   22.9365  -31.7673 H   0  0  0  0  0  0  0  0  0  0  0  0
   -7.2630   21.0150  -32.3090 C   0  0  0  0  0  0  0  0  0  0  0  0
   -8.5070   20.3800  -32.1740 O   0  0  0  0  0  0  0  0  0  0  0  0
   -8.6790   18.9800  -31.9800 C   0  0  0  0  0  0  0  0  0  0  0  0
   -8.7061   18.7597  -30.9026 H   0  0  0  0  0  0  0  0  0  0  0  0
   -9.6234   18.6589  -32.4437 H   0  0  0  0  0  0  0  0  0  0  0  0
   -7.8405   18.4398  -32.4437 H   0  0  0  0  0  0  0  0  0  0  0  0
   -6.0970   20.3220  -32.6910 C   0  0  0  0  0  0  0  0  0  0  0  0
   -6.1439   19.2410  -32.8889 H   0  0  0  0  0  0  0  0  0  0  0  0
   -4.8730   21.0040  -32.8210 C   0  0  0  0  0  0  0  0  0  0  0  0
   -3.6900   20.3590  -33.2090 O   0  0  0  0  0  0  0  0  0  0  0  0
   -3.5900   18.9720  -33.5120 C   0  0  0  0  0  0  0  0  0  0  0  0
   -3.5484   18.3944  -32.5767 H   0  0  0  0  0  0  0  0  0  0  0  0
   -4.4680   18.6602  -34.0967 H   0  0  0  0  0  0  0  0  0  0  0  0
   -2.6764   18.7894  -34.0967 H   0  0  0  0  0  0  0  0  0  0  0  0
  1  2  1  0
  2  3  2  0
  3  4  1  0
  4  5  1  0
  5  6  2  0
  5  7  1  0
  7  8  2  0
  8  9  1  0
  9 10  1  0
  9 11  2  0
 11 12  1  0
 11 13  1  0
 13 14  1  0
 13 15  2  0
 15 16  1  0
 16 17  1  0
 16 18  1  0
 16 19  1  0
 15 20  1  0
 20 21  1  0
  3 22  1  0
 22 23  1  0
 22 24  2  0
 24 25  1  0
 25 26  1  0
 26 27  1  0
 26 28  1  0
 26 29  1  0
 24 30  1  0
 30 31  1  0
 30 32  2  0
 32 33  1  0
 33 34  1  0
 34 35  1  0
 34 36  1  0
 34 37  1  0
 32  2  1  0
 20  8  1  0
M  CHG  1   4  -1
M  END
>  <UniqueID>  (44) 
40

>  <SMILES>  (44) 
COc1cc([N-]C(=O)/N=c2/cccc(C)[nH]2)cc(OC)c1

>  <Energy>  (44) 
45.273684481240636

>  <Genealogy>  (44) 
COc1cc([N-]C(=O)N=c2cccc(C)[nH]2)cc(OC)c1 (protonated)
COc1cc([N-]C(=O)/N=c2/cccc(C)[nH]2)cc(OC)c1 (cis-trans isomerization)
COc1cc([N-]C(=O)/N=c2/cccc(C)[nH]2)cc(OC)c1 (3D coordinates assigned)
COc1cc([N-]C(=O)/N=c2/cccc(C)[nH]2)cc(OC)c1 (optimized conformer: 45.273684481240636 kcal/mol)

>  <smiles>  (44) 
COc1cc(NC(=O)N=c2cccc(C)[nH]2)cc(OC)c1

>  <score_type>  (44) 
oracle

>  <origin>  (44) 
adg

>  <m_score__min__energy>  (44) 
-8.2699999999999996

>  <m_primary>  (44) 
energy

$$$$
44:0
     RDKit          3D

 54 57  0  0  0  0  0  0  0  0999 V2000
    3.9300   27.3320  -23.6770 C   0  0  0  0  0  0  0  0  0  0  0  0
    2.5780   27.5370  -24.2750 C   0  0  0  0  0  0  0  0  0  0  0  0
    1.8710   28.7230  -24.2820 C   0  0  0  0  0  0  0  0  0  0  0  0
    0.7270   28.4310  -24.9980 C   0  0  0  0  0  0  0  0  0  0  0  0
   -0.3720   29.4060  -25.2890 C   0  0  0  0  0  0  0  0  0  0  0  0
    0.7780   27.1360  -25.3950 N   0  0  0  0  0  0  0  0  0  0  0  0
   -0.1850   26.3980  -26.1680 C   0  0  0  0  0  0  0  0  0  0  0  0
   -1.3760   26.0250  -25.6330 N   0  0  0  0  0  0  0  0  0  0  0  0
   -2.2780   25.3210  -26.3620 C   0  0  0  0  0  0  0  0  0  0  0  0
   -1.9720   24.9730  -27.6830 C   0  0  0  0  0  0  0  0  0  0  0  0
   -2.9040   24.2520  -28.5100 N   0  0  0  0  0  0  0  0  0  0  0  0
   -2.4370   23.6930  -29.7870 C   0  0  0  0  0  0  0  0  0  0  0  0
   -3.6050   23.1750  -30.6400 C   0  0  0  0  0  0  0  0  0  0  0  0
   -4.7930   24.1550  -30.5590 C   0  0  0  0  0  0  0  0  0  0  0  0
   -5.9200   23.7450  -31.4740 C   0  0  0  0  0  0  0  0  0  0  0  0
   -5.7710   23.8100  -32.7260 O   0  0  0  0  0  0  0  0  0  0  0  0
   -7.1290   23.2060  -30.9210 N   0  0  0  0  0  0  0  0  0  0  0  0
   -8.2340   22.7370  -31.7530 C   0  0  0  0  0  0  0  0  0  0  0  0
   -8.0650   21.2760  -32.0760 C   0  0  0  0  0  0  0  0  0  0  0  0
   -6.9000   20.8150  -32.7120 C   0  0  0  0  0  0  0  0  0  0  0  0
   -6.7420   19.4530  -32.9910 C   0  0  0  0  0  0  0  0  0  0  0  0
   -7.7430   18.5440  -32.6360 C   0  0  0  0  0  0  0  0  0  0  0  0
   -7.5870   17.2240  -32.9080 F   0  0  0  0  0  0  0  0  0  0  0  0
   -8.9050   18.9960  -32.0030 C   0  0  0  0  0  0  0  0  0  0  0  0
   -9.0670   20.3560  -31.7230 C   0  0  0  0  0  0  0  0  0  0  0  0
   -5.3080   24.3220  -29.1070 C   0  0  0  0  0  0  0  0  0  0  0  0
   -4.2630   23.9470  -28.0420 C   0  0  0  0  0  0  0  0  0  0  0  0
   -0.7800   25.3810  -28.1950 N   0  0  0  0  0  0  0  0  0  0  0  0
    0.0930   26.0680  -27.4580 N   0  0  0  0  0  0  0  0  0  0  0  0
    1.9080   26.5930  -24.9620 N   0  0  0  0  0  0  0  0  0  0  0  0
    3.8513   27.3439  -22.5799 H   0  0  0  0  0  0  0  0  0  0  0  0
    4.3329   26.3625  -24.0052 H   0  0  0  0  0  0  0  0  0  0  0  0
    4.6022   28.1385  -24.0052 H   0  0  0  0  0  0  0  0  0  0  0  0
    2.1543   29.6813  -23.8223 H   0  0  0  0  0  0  0  0  0  0  0  0
   -0.7918   29.7784  -24.3429 H   0  0  0  0  0  0  0  0  0  0  0  0
    0.0304   30.2497  -25.8689 H   0  0  0  0  0  0  0  0  0  0  0  0
   -1.1617   28.9060  -25.8689 H   0  0  0  0  0  0  0  0  0  0  0  0
   -3.2409   25.0264  -25.9192 H   0  0  0  0  0  0  0  0  0  0  0  0
   -1.9066   24.4773  -30.3470 H   0  0  0  0  0  0  0  0  0  0  0  0
   -1.7698   22.8464  -29.5678 H   0  0  0  0  0  0  0  0  0  0  0  0
   -3.2791   23.0834  -31.6866 H   0  0  0  0  0  0  0  0  0  0  0  0
   -3.9212   22.1923  -30.2602 H   0  0  0  0  0  0  0  0  0  0  0  0
   -4.4157   25.1310  -30.8982 H   0  0  0  0  0  0  0  0  0  0  0  0
   -7.2220   23.1330  -29.8820 H   0  0  0  0  0  0  0  0  0  0  0  0
   -9.1812   22.8815  -31.2126 H   0  0  0  0  0  0  0  0  0  0  0  0
   -8.2426   23.3110  -32.6913 H   0  0  0  0  0  0  0  0  0  0  0  0
   -6.1096   21.5271  -32.9915 H   0  0  0  0  0  0  0  0  0  0  0  0
   -5.8288   19.0970  -33.4904 H   0  0  0  0  0  0  0  0  0  0  0  0
   -9.6928   18.2804  -31.7250 H   0  0  0  0  0  0  0  0  0  0  0  0
   -9.9824   20.7074  -31.2244 H   0  0  0  0  0  0  0  0  0  0  0  0
   -5.5964   25.3730  -28.9579 H   0  0  0  0  0  0  0  0  0  0  0  0
   -6.1590   23.6362  -28.9830 H   0  0  0  0  0  0  0  0  0  0  0  0
   -4.4641   24.5179  -27.1235 H   0  0  0  0  0  0  0  0  0  0  0  0
   -4.3329   22.8668  -27.8463 H   0  0  0  0  0  0  0  0  0  0  0  0
  1  2  1  0
  2  3  1  0
  3  4  2  0
  4  5  1  0
  4  6  1  0
  6  7  1  0
  7  8  2  0
  8  9  1  0
  9 10  2  0
 10 11  1  0
 11 12  1  0
 12 13  1  0
 13 14  1  0
 14 15  1  0
 15 16  2  0
 15 17  1  0
 17 18  1  0
 18 19  1  0
 19 20  2  0
 20 21  1  0
 21 22  2  0
 22 23  1  0
 22 24  1  0
 24 25  2  0
 14 26  1  0
 26 27  1  0
 10 28  1  0
 28 29  2  0
  6 30  1  0
 30  2  2  0
 29  7  1  0
 27 11  1  0
 25 19  1  0
  1 31  1  0
  1 32  1  0
  1 33  1  0
  3 34  1  0
  5 35  1  0
  5 36  1  0
  5 37  1  0
  9 38  1  0
 12 39  1  0
 12 40  1  0
 13 41  1  0
 13 42  1  0
 14 43  1  0
 17 44  1  0
 18 45  1  0
 18 46  1  0
 20 47  1  0
 21 48  1  0
 24 49  1  0
 25 50  1  0
 26 51  1  0
 26 52  1  0
 27 53  1  0
 27 54  1  0
M  END
>  <UniqueID>  (45) 
41

>  <SMILES>  (45) 
Cc1cc(C)n(-c2ncc(N3CCC(C(=O)NCc4ccc(F)cc4)CC3)nn2)n1

>  <Energy>  (45) 
90.36662509623501

>  <Genealogy>  (45) 
Cc1cc(C)n(-c2ncc(N3CCC(C(=O)NCc4ccc(F)cc4)CC3)nn2)n1 (3D coordinates assigned)
Cc1cc(C)n(-c2ncc(N3CCC(C(=O)NCc4ccc(F)cc4)CC3)nn2)n1 (nonaromatic ring conformer: 90.36662509623501 kcal/mol)

>  <smiles>  (45) 
Cc1cc(C)n(-c2ncc(N3CCC(C(=O)NCc4ccc(F)cc4)CC3)nn2)n1

>  <score_type>  (45) 
oracle

>  <origin>  (45) 
adg

>  <m_score__min__energy>  (45) 
-8.7599999999999998

>  <m_primary>  (45) 
energy

$$$$
45:0
     RDKit          3D

 34 34  0  0  0  0  0  0  0  0999 V2000
   -3.0980   25.2050  -26.5320 N   0  0  0  0  0  0  0  0  0  0  0  0
   -1.6650   25.4860  -26.5240 C   0  0  0  0  0  0  0  0  0  0  0  0
   -1.0570   25.2350  -27.9080 C   0  0  0  0  0  0  0  0  0  0  0  0
   -1.9640   25.6680  -28.9670 N   0  0  0  0  0  0  0  0  0  0  0  0
   -3.0990   24.9120  -29.3960 C   0  0  0  0  0  0  0  0  0  0  0  0
   -3.4370   23.8870  -28.7460 O   0  0  0  0  0  0  0  0  0  0  0  0
   -3.8350   25.3080  -30.5590 N   0  0  0  0  0  0  0  0  0  0  0  0
   -5.2030   24.8810  -30.8300 C   0  0  0  0  0  0  0  0  0  0  0  0
   -5.2070   23.5120  -31.5190 C   0  0  0  0  0  0  0  0  0  0  0  0
   -6.3320   23.3830  -32.4480 N   0  0  0  0  0  0  0  0  0  0  0  0
   -7.7490   22.7190  -31.6790 S   0  0  0  0  0  0  0  0  0  0  0  0
   -8.9700   23.3610  -32.2740 O   0  0  0  0  0  0  0  0  0  0  0  0
   -7.7200   23.0040  -30.2020 O   0  0  0  0  0  0  0  0  0  0  0  0
   -7.8320   20.9800  -31.9620 C   0  0  0  0  0  0  0  0  0  0  0  0
   -6.6470   20.2400  -32.0860 C   0  0  0  0  0  0  0  0  0  0  0  0
   -6.6970   18.8590  -32.3070 C   0  0  0  0  0  0  0  0  0  0  0  0
   -5.5480   18.1500  -32.4190 F   0  0  0  0  0  0  0  0  0  0  0  0
   -7.9310   18.2140  -32.4140 C   0  0  0  0  0  0  0  0  0  0  0  0
   -9.1160   18.9450  -32.3050 C   0  0  0  0  0  0  0  0  0  0  0  0
   -9.0710   20.3270  -32.0820 C   0  0  0  0  0  0  0  0  0  0  0  0
  -10.2350   21.0190  -31.9950 F   0  0  0  0  0  0  0  0  0  0  0  0
   -3.2290   24.1690  -26.6060 H   0  0  0  0  0  0  0  0  0  0  0  0
   -3.4970   25.6140  -27.4070 H   0  0  0  0  0  0  0  0  0  0  0  0
   -1.5047   26.5377  -26.2443 H   0  0  0  0  0  0  0  0  0  0  0  0
   -1.1776   24.8197  -25.7971 H   0  0  0  0  0  0  0  0  0  0  0  0
   -0.1133   25.7938  -27.9925 H   0  0  0  0  0  0  0  0  0  0  0  0
   -0.8785   24.1554  -28.0206 H   0  0  0  0  0  0  0  0  0  0  0  0
   -5.7559   24.8114  -29.8816 H   0  0  0  0  0  0  0  0  0  0  0  0
   -5.6824   25.6163  -31.4930 H   0  0  0  0  0  0  0  0  0  0  0  0
   -4.2668   23.3896  -32.0767 H   0  0  0  0  0  0  0  0  0  0  0  0
   -5.3068   22.7362  -30.7456 H   0  0  0  0  0  0  0  0  0  0  0  0
   -5.6740   20.7474  -32.0092 H   0  0  0  0  0  0  0  0  0  0  0  0
   -7.9697   17.1280  -32.5845 H   0  0  0  0  0  0  0  0  0  0  0  0
  -10.0863   18.4345  -32.3944 H   0  0  0  0  0  0  0  0  0  0  0  0
  1  2  1  0
  2  3  1  0
  3  4  1  0
  4  5  1  0
  5  6  2  0
  5  7  1  0
  7  8  1  0
  8  9  1  0
  9 10  1  0
 10 11  1  0
 11 12  2  0
 11 13  2  0
 11 14  1  0
 14 15  2  0
 15 16  1  0
 16 17  1  0
 16 18  2  0
 18 19  1  0
 19 20  2  0
 20 21  1  0
 20 14  1  0
  1 22  1  0
  1 23  1  0
  2 24  1  0
  2 25  1  0
  3 26  1  0
  3 27  1  0
  8 28  1  0
  8 29  1  0
  9 30  1  0
  9 31  1  0
 15 32  1  0
 18 33  1  0
 19 34  1  0
M  CHG  3   4  -1   7  -1  10  -1
M  END
>  <UniqueID>  (46) 
42

>  <SMILES>  (46) 
NCC[N-]C(=O)[N-]CC[N-]S(=O)(=O)c1cc(F)ccc1F

>  <Energy>  (46) 
23.187811806980438

>  <Genealogy>  (46) 
NCC[N-]C(=O)[N-]CC[N-]S(=O)(=O)c1cc(F)ccc1F (protonated)
NCC[N-]C(=O)[N-]CC[N-]S(=O)(=O)c1cc(F)ccc1F (3D coordinates assigned)
NCC[N-]C(=O)[N-]CC[N-]S(=O)(=O)c1cc(F)ccc1F (optimized conformer: 23.187811806980438 kcal/mol)

>  <smiles>  (46) 
NCCNC(=O)NCCNS(=O)(=O)c1cc(F)ccc1F

>  <score_type>  (46) 
oracle

>  <origin>  (46) 
adg

>  <m_score__min__energy>  (46) 
-9.8000000000000007

>  <m_primary>  (46) 
energy

$$$$
46:0
     RDKit          3D

 44 47  0  0  0  0  0  0  0  0999 V2000
   -5.7960   16.6110  -33.5050 C   0  0  0  0  0  0  0  0  0  0  0  0
   -6.4640   17.8670  -34.0510 C   0  0  0  0  0  0  0  0  0  0  0  0
   -6.1550   19.0160  -33.2010 N   0  0  0  0  0  0  0  0  0  0  0  0
   -7.0150   19.7390  -32.4420 C   0  0  0  0  0  0  0  0  0  0  0  0
   -6.4350   20.8230  -31.8570 N   0  0  0  0  0  0  0  0  0  0  0  0
   -5.1590   20.7470  -32.2840 C   0  0  0  0  0  0  0  0  0  0  0  0
   -4.0970   21.6230  -32.0680 C   0  0  0  0  0  0  0  0  0  0  0  0
   -4.2200   22.7920  -31.2400 N   0  0  0  0  0  0  0  0  0  0  0  0
   -5.4600   23.5790  -31.2370 C   0  0  0  0  0  0  0  0  0  0  0  0
   -5.1840   25.0630  -30.8990 C   0  0  0  0  0  0  0  0  0  0  0  0
   -3.8560   25.3160  -30.4670 O   0  0  0  0  0  0  0  0  0  0  0  0
   -3.4680   24.3640  -29.5010 C   0  0  0  0  0  0  0  0  0  0  0  0
   -3.2230   23.0190  -30.1870 C   0  0  0  0  0  0  0  0  0  0  0  0
   -2.9260   21.3590  -32.7240 N   0  0  0  0  0  0  0  0  0  0  0  0
   -2.7830   20.2690  -33.5490 C   0  0  0  0  0  0  0  0  0  0  0  0
   -1.4950   20.0340  -34.2290 C   0  0  0  0  0  0  0  0  0  0  0  0
   -0.6660   21.1020  -34.6150 C   0  0  0  0  0  0  0  0  0  0  0  0
    0.5610   20.8410  -35.2480 C   0  0  0  0  0  0  0  0  0  0  0  0
    1.4370   21.9780  -35.7120 C   0  0  0  0  0  0  0  0  0  0  0  0
    2.3340   22.3010  -34.7110 F   0  0  0  0  0  0  0  0  0  0  0  0
    0.6740   23.0940  -36.0120 F   0  0  0  0  0  0  0  0  0  0  0  0
    2.1410   21.6180  -36.8490 F   0  0  0  0  0  0  0  0  0  0  0  0
    0.9130   19.5110  -35.5230 C   0  0  0  0  0  0  0  0  0  0  0  0
    0.0660   18.4770  -35.1240 C   0  0  0  0  0  0  0  0  0  0  0  0
   -1.1030   18.7570  -34.4920 N   0  0  0  0  0  0  0  0  0  0  0  0
   -3.8370   19.4190  -33.7430 N   0  0  0  0  0  0  0  0  0  0  0  0
   -4.9990   19.6780  -33.0970 C   0  0  0  0  0  0  0  0  0  0  0  0
   -5.8098   16.6369  -32.4054 H   0  0  0  0  0  0  0  0  0  0  0  0
   -6.3410   15.7230  -33.8577 H   0  0  0  0  0  0  0  0  0  0  0  0
   -4.7550   16.5665  -33.8577 H   0  0  0  0  0  0  0  0  0  0  0  0
   -6.0966   18.0599  -35.0697 H   0  0  0  0  0  0  0  0  0  0  0  0
   -7.5534   17.7154  -34.0660 H   0  0  0  0  0  0  0  0  0  0  0  0
   -8.0752   19.4761  -32.3119 H   0  0  0  0  0  0  0  0  0  0  0  0
   -5.9248   23.5188  -32.2321 H   0  0  0  0  0  0  0  0  0  0  0  0
   -6.1304   23.1671  -30.4683 H   0  0  0  0  0  0  0  0  0  0  0  0
   -5.3762   25.6650  -31.7994 H   0  0  0  0  0  0  0  0  0  0  0  0
   -5.8482   25.3296  -30.0637 H   0  0  0  0  0  0  0  0  0  0  0  0
   -2.5440   24.6980  -29.0064 H   0  0  0  0  0  0  0  0  0  0  0  0
   -4.2645   24.2551  -28.7502 H   0  0  0  0  0  0  0  0  0  0  0  0
   -2.2177   23.0178  -30.6335 H   0  0  0  0  0  0  0  0  0  0  0  0
   -3.3056   22.2168  -29.4388 H   0  0  0  0  0  0  0  0  0  0  0  0
   -0.9772   22.1392  -34.4219 H   0  0  0  0  0  0  0  0  0  0  0  0
    1.8516   19.2849  -36.0502 H   0  0  0  0  0  0  0  0  0  0  0  0
    0.3457   17.4317  -35.3218 H   0  0  0  0  0  0  0  0  0  0  0  0
  1  2  1  0
  2  3  1  0
  3  4  1  0
  4  5  2  0
  5  6  1  0
  6  7  2  0
  7  8  1  0
  8  9  1  0
  9 10  1  0
 10 11  1  0
 11 12  1  0
 12 13  1  0
  7 14  1  0
 14 15  2  0
 15 16  1  0
 16 17  2  0
 17 18  1  0
 18 19  1  0
 19 20  1  0
 19 21  1  0
 19 22  1  0
 18 23  2  0
 23 24  1  0
 24 25  2  0
 15 26  1  0
 26 27  2  0
 27  3  1  0
 27  6  1  0
 13  8  1  0
 25 16  1  0
  1 28  1  0
  1 29  1  0
  1 30  1  0
  2 31  1  0
  2 32  1  0
  4 33  1  0
  9 34  1  0
  9 35  1  0
 10 36  1  0
 10 37  1  0
 12 38  1  0
 12 39  1  0
 13 40  1  0
 13 41  1  0
 17 42  1  0
 23 43  1  0
 24 44  1  0
M  END
>  <UniqueID>  (47) 
43

>  <SMILES>  (47) 
CCn1cnc2c(N3CCOCC3)nc(-c3cc(C(F)(F)F)ccn3)nc21

>  <Energy>  (47) 
95.33249065252596

>  <Genealogy>  (47) 
CCn1cnc2c(N3CCOCC3)nc(-c3cc(C(F)(F)F)ccn3)nc21 (3D coordinates assigned)
CCn1cnc2c(N3CCOCC3)nc(-c3cc(C(F)(F)F)ccn3)nc21 (nonaromatic ring conformer: 95.33249065252596 kcal/mol)

>  <smiles>  (47) 
CCn1cnc2c(N3CCOCC3)nc(-c3cc(C(F)(F)F)ccn3)nc21

>  <score_type>  (47) 
oracle

>  <origin>  (47) 
adg

>  <m_score__min__energy>  (47) 
-7.46

>  <m_primary>  (47) 
energy

$$$$
47:0
     RDKit          3D

 30 32  0  0  0  0  0  0  0  0999 V2000
   -5.1797   20.7414  -32.7775 H   0  0  0  0  0  0  0  0  0  0  0  0
   -5.7330   21.5850  -32.3390 C   0  0  0  0  0  0  0  0  0  0  0  0
   -7.1260   21.5340  -32.2480 C   0  0  0  0  0  0  0  0  0  0  0  0
   -7.6691   20.6523  -32.6191 H   0  0  0  0  0  0  0  0  0  0  0  0
   -7.8300   22.6020  -31.6860 C   0  0  0  0  0  0  0  0  0  0  0  0
   -9.1820   22.5450  -31.5880 F   0  0  0  0  0  0  0  0  0  0  0  0
   -7.1420   23.7260  -31.2190 C   0  0  0  0  0  0  0  0  0  0  0  0
   -7.6996   24.5603  -30.7685 H   0  0  0  0  0  0  0  0  0  0  0  0
   -5.7410   23.7960  -31.3220 C   0  0  0  0  0  0  0  0  0  0  0  0
   -4.9990   24.9750  -30.8130 C   0  0  0  0  0  0  0  0  0  0  0  0
   -5.5920   26.0830  -30.7260 O   0  0  0  0  0  0  0  0  0  0  0  0
   -3.6070   24.9150  -30.4680 N   0  0  0  0  0  0  0  0  0  0  0  0
   -3.1200   24.3910  -29.3820 C   0  0  0  0  0  0  0  0  0  0  0  0
   -3.2700   23.1040  -29.0160 N   0  0  0  0  0  0  0  0  0  0  0  0
   -2.6460   22.9840  -27.8540 N   0  0  0  0  0  0  0  0  0  0  0  0
   -2.1450   24.2020  -27.5600 C   0  0  0  0  0  0  0  0  0  0  0  0
   -1.3710   24.5150  -26.3430 C   0  0  0  0  0  0  0  0  0  0  0  0
   -0.4690   23.5830  -25.8080 C   0  0  0  0  0  0  0  0  0  0  0  0
   -0.3303   22.6054  -26.2928 H   0  0  0  0  0  0  0  0  0  0  0  0
    0.2520   23.9050  -24.6550 C   0  0  0  0  0  0  0  0  0  0  0  0
    0.9608   23.1785  -24.2308 H   0  0  0  0  0  0  0  0  0  0  0  0
    0.0800   25.1150  -24.0550 N   0  0  0  0  0  0  0  0  0  0  0  0
    0.6270   25.3400  -23.1950 H   0  0  0  0  0  0  0  0  0  0  0  0
   -0.7870   26.0360  -24.5540 C   0  0  0  0  0  0  0  0  0  0  0  0
   -0.9056   27.0063  -24.0496 H   0  0  0  0  0  0  0  0  0  0  0  0
   -1.5280   25.7550  -25.7050 C   0  0  0  0  0  0  0  0  0  0  0  0
   -2.2293   26.5005  -26.1080 H   0  0  0  0  0  0  0  0  0  0  0  0
   -2.4370   25.0740  -28.4980 O   0  0  0  0  0  0  0  0  0  0  0  0
   -5.0410   22.7080  -31.8730 C   0  0  0  0  0  0  0  0  0  0  0  0
   -3.9434   22.7401  -31.9380 H   0  0  0  0  0  0  0  0  0  0  0  0
  1  2  1  0
  2  3  2  0
  3  4  1  0
  3  5  1  0
  5  6  1  0
  5  7  2  0
  7  8  1  0
  7  9  1  0
  9 10  1  0
 10 11  2  0
 10 12  1  0
 12 13  2  0
 13 14  1  0
 14 15  1  0
 15 16  2  0
 16 17  1  0
 17 18  2  0
 18 19  1  0
 18 20  1  0
 20 21  1  0
 20 22  2  0
 22 23  1  0
 22 24  1  0
 24 25  1  0
 24 26  2  0
 26 27  1  0
 16 28  1  0
  9 29  2  0
 29 30  1  0
 29  2  1  0
 28 13  1  0
 26 17  1  0
M  CHG  2  14  -1  22   1
M  END
>  <UniqueID>  (48) 
44

>  <SMILES>  (48) 
O=C(/N=c1\[n-]nc(-c2cc[nH+]cc2)o1)c1cccc(F)c1

>  <Energy>  (48) 
75.97977826338757

>  <Genealogy>  (48) 
O=C(N=c1[n-]nc(-c2cc[nH+]cc2)o1)c1cccc(F)c1 (protonated)
O=C(/N=c1\[n-]nc(-c2cc[nH+]cc2)o1)c1cccc(F)c1 (cis-trans isomerization)
O=C(/N=c1\[n-]nc(-c2cc[nH+]cc2)o1)c1cccc(F)c1 (3D coordinates assigned)
O=C(/N=c1\[n-]nc(-c2cc[nH+]cc2)o1)c1cccc(F)c1 (optimized conformer: 75.97977826338757 kcal/mol)

>  <smiles>  (48) 
O=C(N=c1[nH]nc(-c2ccncc2)o1)c1cccc(F)c1

>  <score_type>  (48) 
oracle

>  <origin>  (48) 
adg

>  <m_score__min__energy>  (48) 
-9.3000000000000007

>  <m_primary>  (48) 
energy

$$$$
