0:0
     RDKit          3D

 31 30  0  0  0  0  0  0  0  0999 V2000
   -6.6930   25.3050  -29.7190 C   0  0  0  0  0  0  0  0  0  0  0  0
   -5.5180   25.3650  -30.3520 C   0  0  0  0  0  0  0  0  0  0  0  0
   -4.4600   24.3220  -30.1430 C   0  0  0  0  0  0  0  0  0  0  0  0
   -3.1310   24.9250  -30.0910 N   0  0  0  0  0  0  0  0  0  0  0  0
   -2.2950   24.9820  -28.9300 C   0  0  0  0  0  0  0  0  0  0  0  0
   -1.2590   25.6950  -28.9600 O   0  0  0  0  0  0  0  0  0  0  0  0
   -2.6370   23.9980  -27.4610 S   0  0  0  0  0  0  0  0  0  0  0  0
   -2.3910   25.3610  -26.2560 C   0  0  0  0  0  0  0  0  0  0  0  0
   -1.2060   25.1010  -25.2970 C   0  0  0  0  0  0  0  0  0  0  0  0
   -0.4560   26.3140  -24.8410 N   0  0  0  0  0  0  0  0  0  0  0  0
    0.9640   26.1550  -25.2420 C   0  0  0  0  0  0  0  0  0  0  0  0
   -0.5040   26.4410  -23.3640 C   0  0  0  0  0  0  0  0  0  0  0  0
   -0.9770   27.5540  -25.4620 C   0  0  0  0  0  0  0  0  0  0  0  0
   -7.4508   26.0835  -29.8911 H   0  0  0  0  0  0  0  0  0  0  0  0
   -6.9026   24.4771  -29.0258 H   0  0  0  0  0  0  0  0  0  0  0  0
   -5.3217   26.1985  -31.0425 H   0  0  0  0  0  0  0  0  0  0  0  0
   -4.6542   23.7980  -29.1955 H   0  0  0  0  0  0  0  0  0  0  0  0
   -4.4916   23.6178  -30.9875 H   0  0  0  0  0  0  0  0  0  0  0  0
   -2.1976   26.2910  -26.8108 H   0  0  0  0  0  0  0  0  0  0  0  0
   -3.3032   25.4345  -25.6457 H   0  0  0  0  0  0  0  0  0  0  0  0
   -1.5999   24.5929  -24.4044 H   0  0  0  0  0  0  0  0  0  0  0  0
   -0.4836   24.5027  -25.8716 H   0  0  0  0  0  0  0  0  0  0  0  0
    1.5933   26.0845  -24.3426 H   0  0  0  0  0  0  0  0  0  0  0  0
    1.0757   25.2387  -25.8403 H   0  0  0  0  0  0  0  0  0  0  0  0
    1.2755   27.0239  -25.8403 H   0  0  0  0  0  0  0  0  0  0  0  0
   -0.1507   25.5064  -22.9039 H   0  0  0  0  0  0  0  0  0  0  0  0
    0.1417   27.2729  -23.0463 H   0  0  0  0  0  0  0  0  0  0  0  0
   -1.5386   26.6379  -23.0463 H   0  0  0  0  0  0  0  0  0  0  0  0
   -1.2743   28.2617  -24.6741 H   0  0  0  0  0  0  0  0  0  0  0  0
   -0.1937   28.0084  -26.0865 H   0  0  0  0  0  0  0  0  0  0  0  0
   -1.8498   27.3126  -26.0865 H   0  0  0  0  0  0  0  0  0  0  0  0
  1  2  2  0
  2  3  1  0
  3  4  1  0
  4  5  1  0
  5  6  2  0
  5  7  1  0
  7  8  1  0
  8  9  1  0
  9 10  1  0
 10 11  1  0
 10 12  1  0
 10 13  1  0
  1 14  1  0
  1 15  1  0
  2 16  1  0
  3 17  1  0
  3 18  1  0
  8 19  1  0
  8 20  1  0
  9 21  1  0
  9 22  1  0
 11 23  1  0
 11 24  1  0
 11 25  1  0
 12 26  1  0
 12 27  1  0
 12 28  1  0
 13 29  1  0
 13 30  1  0
 13 31  1  0
M  CHG  2   4  -1  10   1
M  END
>  <UniqueID>  (1) 
1

>  <SMILES>  (1) 
C=CC[N-]C(=O)SCC[N+](C)(C)C

>  <Energy>  (1) 
27.387550359342775

>  <Genealogy>  (1) 
C=CC[N-]C(=O)SCC[N+](C)(C)C (protonated)
C=CC[N-]C(=O)SCC[N+](C)(C)C (3D coordinates assigned)
C=CC[N-]C(=O)SCC[N+](C)(C)C (optimized conformer: 27.387550359342775 kcal/mol)

>  <smiles>  (1) 
C=CCNC(=O)SCC[N+](C)(C)C

>  <score_type>  (1) 
oracle

>  <origin>  (1) 
adg

>  <m_score__min__energy>  (1) 
-5.6699999999999999

>  <m_primary>  (1) 
energy

$$$$
1:0
     RDKit          3D

 43 46  0  0  0  0  0  0  0  0999 V2000
   -3.1670   24.5460  -28.0440 C   0  0  0  0  0  0  0  0  0  0  0  0
   -4.1360   24.2400  -29.1470 C   0  0  0  0  0  0  0  0  0  0  0  0
   -3.7970   23.3260  -30.1540 C   0  0  0  0  0  0  0  0  0  0  0  0
   -4.6860   23.0680  -31.2010 C   0  0  0  0  0  0  0  0  0  0  0  0
   -5.9210   23.7330  -31.2660 C   0  0  0  0  0  0  0  0  0  0  0  0
   -6.8920   23.4210  -32.3740 C   0  0  0  0  0  0  0  0  0  0  0  0
   -7.6040   22.1710  -32.0940 N   0  0  0  0  0  0  0  0  0  0  0  0
   -8.9840   22.1450  -31.6020 C   0  0  0  0  0  0  0  0  0  0  0  0
   -9.4720   20.6880  -31.7580 C   0  0  0  0  0  0  0  0  0  0  0  0
   -8.3040   19.9970  -32.3650 C   0  0  0  0  0  0  0  0  0  0  0  0
   -8.2120   18.6520  -32.7160 C   0  0  0  0  0  0  0  0  0  0  0  0
   -7.0020   18.1770  -33.2540 C   0  0  0  0  0  0  0  0  0  0  0  0
   -6.8610   16.8350  -33.6190 C   0  0  0  0  0  0  0  0  0  0  0  0
   -5.6500   16.3820  -34.1400 C   0  0  0  0  0  0  0  0  0  0  0  0
   -4.5840   17.2760  -34.3050 C   0  0  0  0  0  0  0  0  0  0  0  0
   -3.2680   16.7810  -34.8290 C   0  0  0  0  0  0  0  0  0  0  0  0
   -4.7240   18.5800  -33.9280 N   0  0  0  0  0  0  0  0  0  0  0  0
   -5.8990   19.0590  -33.4170 C   0  0  0  0  0  0  0  0  0  0  0  0
   -6.0250   20.4150  -33.0430 C   0  0  0  0  0  0  0  0  0  0  0  0
   -4.9590   21.2470  -33.1440 F   0  0  0  0  0  0  0  0  0  0  0  0
   -7.2560   20.8630  -32.5360 C   0  0  0  0  0  0  0  0  0  0  0  0
   -6.2540   24.6570  -30.2620 C   0  0  0  0  0  0  0  0  0  0  0  0
   -5.3640   24.9150  -29.2160 C   0  0  0  0  0  0  0  0  0  0  0  0
   -3.6574   24.3911  -27.0716 H   0  0  0  0  0  0  0  0  0  0  0  0
   -2.2960   23.8792  -28.1257 H   0  0  0  0  0  0  0  0  0  0  0  0
   -2.8369   25.5921  -28.1257 H   0  0  0  0  0  0  0  0  0  0  0  0
   -2.8265   22.8092  -30.1201 H   0  0  0  0  0  0  0  0  0  0  0  0
   -4.4164   22.3391  -31.9794 H   0  0  0  0  0  0  0  0  0  0  0  0
   -7.6200   24.2412  -32.4593 H   0  0  0  0  0  0  0  0  0  0  0  0
   -6.3344   23.3102  -33.3157 H   0  0  0  0  0  0  0  0  0  0  0  0
   -9.0172   22.4467  -30.5447 H   0  0  0  0  0  0  0  0  0  0  0  0
   -9.6222   22.8429  -32.1639 H   0  0  0  0  0  0  0  0  0  0  0  0
   -9.7241   20.2505  -30.7807 H   0  0  0  0  0  0  0  0  0  0  0  0
  -10.3848   20.6034  -32.3660 H   0  0  0  0  0  0  0  0  0  0  0  0
   -9.0678   17.9753  -32.5754 H   0  0  0  0  0  0  0  0  0  0  0  0
   -7.7033   16.1384  -33.4954 H   0  0  0  0  0  0  0  0  0  0  0  0
   -5.5316   15.3251  -34.4209 H   0  0  0  0  0  0  0  0  0  0  0  0
   -2.6074   16.5325  -33.9852 H   0  0  0  0  0  0  0  0  0  0  0  0
   -3.4321   15.8831  -35.4429 H   0  0  0  0  0  0  0  0  0  0  0  0
   -2.7997   17.5644  -35.4429 H   0  0  0  0  0  0  0  0  0  0  0  0
   -3.9080   19.2250  -34.0390 H   0  0  0  0  0  0  0  0  0  0  0  0
   -7.2207   25.1805  -30.2993 H   0  0  0  0  0  0  0  0  0  0  0  0
   -5.6277   25.6513  -28.4425 H   0  0  0  0  0  0  0  0  0  0  0  0
  1  2  1  0
  2  3  2  0
  3  4  1  0
  4  5  2  0
  5  6  1  0
  6  7  1  0
  7  8  1  0
  8  9  1  0
  9 10  1  0
 10 11  2  0
 11 12  1  0
 12 13  2  0
 13 14  1  0
 14 15  2  0
 15 16  1  0
 15 17  1  0
 17 18  2  0
 18 19  1  0
 19 20  1  0
 19 21  2  0
  5 22  1  0
 22 23  2  0
 23  2  1  0
 21  7  1  0
 21 10  1  0
 18 12  1  0
  1 24  1  0
  1 25  1  0
  1 26  1  0
  3 27  1  0
  4 28  1  0
  6 29  1  0
  6 30  1  0
  8 31  1  0
  8 32  1  0
  9 33  1  0
  9 34  1  0
 11 35  1  0
 13 36  1  0
 14 37  1  0
 16 38  1  0
 16 39  1  0
 16 40  1  0
 17 41  1  0
 22 42  1  0
 23 43  1  0
M  CHG  1  17   1
M  END
>  <UniqueID>  (2) 
2

>  <SMILES>  (2) 
Cc1ccc(CN2CCc3cc4ccc(C)[nH+]c4c(F)c32)cc1

>  <Energy>  (2) 
62.318966280835404

>  <Genealogy>  (2) 
Cc1ccc(CN2CCc3cc4ccc(C)[nH+]c4c(F)c32)cc1 (protonated)
Cc1ccc(CN2CCc3cc4ccc(C)[nH+]c4c(F)c32)cc1 (3D coordinates assigned)
Cc1ccc(CN2CCc3cc4ccc(C)[nH+]c4c(F)c32)cc1 (nonaromatic ring conformer: 62.318966280835404 kcal/mol)

>  <smiles>  (2) 
Cc1ccc(CN2CCc3cc4ccc(C)nc4c(F)c32)cc1

>  <score_type>  (2) 
oracle

>  <origin>  (2) 
adg

>  <m_score__min__energy>  (2) 
-8.2899999999999991

>  <m_primary>  (2) 
energy

$$$$
2:0
     RDKit          3D

 48 51  0  0  0  0  0  0  0  0999 V2000
    1.0150   20.8140  -33.9260 C   0  0  0  0  0  0  0  0  0  0  0  0
    0.0380   21.1610  -32.8080 C   0  0  0  0  0  0  0  0  0  0  0  0
   -0.6240   19.9280  -32.3230 N   0  0  0  0  0  0  0  0  0  0  0  0
   -1.3090   20.1290  -31.0210 C   0  0  0  0  0  0  0  0  0  0  0  0
   -1.2760   21.5760  -30.5030 C   0  0  0  0  0  0  0  0  0  0  0  0
   -1.4490   19.2840  -33.3690 C   0  0  0  0  0  0  0  0  0  0  0  0
   -2.2120   20.3170  -34.2090 C   0  0  0  0  0  0  0  0  0  0  0  0
   -3.3710   20.8090  -33.4680 N   0  0  0  0  0  0  0  0  0  0  0  0
   -3.3970   21.9780  -32.8190 N   0  0  0  0  0  0  0  0  0  0  0  0
   -4.6470   22.1180  -32.3180 C   0  0  0  0  0  0  0  0  0  0  0  0
   -5.3890   21.0470  -32.6700 C   0  0  0  0  0  0  0  0  0  0  0  0
   -6.7210   20.8290  -32.4030 C   0  0  0  0  0  0  0  0  0  0  0  0
   -7.2900   19.6400  -32.9220 C   0  0  0  0  0  0  0  0  0  0  0  0
   -8.6430   19.3660  -32.6760 O   0  0  0  0  0  0  0  0  0  0  0  0
   -9.1170   18.5500  -31.6100 C   0  0  0  0  0  0  0  0  0  0  0  0
   -6.4620   18.7540  -33.6910 C   0  0  0  0  0  0  0  0  0  0  0  0
   -5.0980   19.0530  -33.9350 C   0  0  0  0  0  0  0  0  0  0  0  0
   -4.5950   20.2360  -33.3900 C   0  0  0  0  0  0  0  0  0  0  0  0
   -7.4090   21.8900  -31.6140 C   0  0  0  0  0  0  0  0  0  0  0  0
   -8.6260   21.7770  -31.3080 O   0  0  0  0  0  0  0  0  0  0  0  0
   -6.6200   23.1040  -31.1940 C   0  0  0  0  0  0  0  0  0  0  0  0
   -7.2010   24.1450  -30.4590 C   0  0  0  0  0  0  0  0  0  0  0  0
   -6.4320   25.2550  -30.0950 C   0  0  0  0  0  0  0  0  0  0  0  0
   -5.0860   25.3180  -30.4700 C   0  0  0  0  0  0  0  0  0  0  0  0
   -4.5240   24.3060  -31.1840 N   0  0  0  0  0  0  0  0  0  0  0  0
   -5.2470   23.2160  -31.5490 C   0  0  0  0  0  0  0  0  0  0  0  0
    1.9665   20.4760  -33.4897 H   0  0  0  0  0  0  0  0  0  0  0  0
    0.5911   20.0115  -34.5475 H   0  0  0  0  0  0  0  0  0  0  0  0
    1.1923   21.7042  -34.5475 H   0  0  0  0  0  0  0  0  0  0  0  0
    0.5845   21.6332  -31.9783 H   0  0  0  0  0  0  0  0  0  0  0  0
   -0.7231   21.8562  -33.1920 H   0  0  0  0  0  0  0  0  0  0  0  0
   -2.3609   19.8285  -31.1356 H   0  0  0  0  0  0  0  0  0  0  0  0
   -0.7668   19.5190  -30.2835 H   0  0  0  0  0  0  0  0  0  0  0  0
   -1.2761   21.5718  -29.4030 H   0  0  0  0  0  0  0  0  0  0  0  0
   -0.3662   22.0753  -30.8677 H   0  0  0  0  0  0  0  0  0  0  0  0
   -2.1621   22.1163  -30.8677 H   0  0  0  0  0  0  0  0  0  0  0  0
   -0.7925   18.7011  -34.0317 H   0  0  0  0  0  0  0  0  0  0  0  0
   -2.1858   18.6355  -32.8724 H   0  0  0  0  0  0  0  0  0  0  0  0
   -1.5451   21.1599  -34.4429 H   0  0  0  0  0  0  0  0  0  0  0  0
   -2.5550   19.8417  -35.1398 H   0  0  0  0  0  0  0  0  0  0  0  0
   -8.8490   19.0113  -30.6480 H   0  0  0  0  0  0  0  0  0  0  0  0
  -10.2107   18.4552  -31.6792 H   0  0  0  0  0  0  0  0  0  0  0  0
   -8.6575   17.5530  -31.6792 H   0  0  0  0  0  0  0  0  0  0  0  0
   -6.8935   17.8275  -34.0977 H   0  0  0  0  0  0  0  0  0  0  0  0
   -4.4619   18.3806  -34.5293 H   0  0  0  0  0  0  0  0  0  0  0  0
   -8.2605   24.0897  -30.1685 H   0  0  0  0  0  0  0  0  0  0  0  0
   -6.8835   26.0745  -29.5166 H   0  0  0  0  0  0  0  0  0  0  0  0
   -4.4790   26.1903  -30.1861 H   0  0  0  0  0  0  0  0  0  0  0  0
  1  2  1  0
  2  3  1  0
  3  4  1  0
  4  5  1  0
  3  6  1  0
  6  7  1  0
  7  8  1  0
  8  9  1  0
  9 10  2  0
 10 11  1  0
 11 12  2  0
 12 13  1  0
 13 14  1  0
 14 15  1  0
 13 16  2  0
 16 17  1  0
 17 18  2  0
 12 19  1  0
 19 20  2  0
 19 21  1  0
 21 22  2  0
 22 23  1  0
 23 24  2  0
 24 25  1  0
 25 26  2  0
 18  8  1  0
 26 21  1  0
 26 10  1  0
 18 11  1  0
  1 27  1  0
  1 28  1  0
  1 29  1  0
  2 30  1  0
  2 31  1  0
  4 32  1  0
  4 33  1  0
  5 34  1  0
  5 35  1  0
  5 36  1  0
  6 37  1  0
  6 38  1  0
  7 39  1  0
  7 40  1  0
 15 41  1  0
 15 42  1  0
 15 43  1  0
 16 44  1  0
 17 45  1  0
 22 46  1  0
 23 47  1  0
 24 48  1  0
M  END
>  <UniqueID>  (3) 
3

>  <SMILES>  (3) 
CCN(CC)CCn1nc2c3c(c(OC)ccc31)C(=O)c1cccnc1-2

>  <Energy>  (3) 
104.35405005773256

>  <Genealogy>  (3) 
CCN(CC)CCn1nc2c3c(c(OC)ccc31)C(=O)c1cccnc1-2 (3D coordinates assigned)
CCN(CC)CCn1nc2c3c(c(OC)ccc31)C(=O)c1cccnc1-2 (nonaromatic ring conformer: 104.35405005773256 kcal/mol)

>  <smiles>  (3) 
CCN(CC)CCn1nc2c3c(c(OC)ccc31)C(=O)c1cccnc1-2

>  <score_type>  (3) 
oracle

>  <origin>  (3) 
adg

>  <m_score__min__energy>  (3) 
-8.4000000000000004

>  <m_primary>  (3) 
energy

$$$$
3:0
     RDKit          3D

 41 43  0  0  0  0  0  0  0  0999 V2000
   -5.4080   15.6210  -33.8270 C   0  0  0  0  0  0  0  0  0  0  0  0
   -6.5030   16.5210  -33.9630 O   0  0  0  0  0  0  0  0  0  0  0  0
   -6.5220   17.8260  -33.4500 C   0  0  0  0  0  0  0  0  0  0  0  0
   -7.5630   18.1860  -32.5870 C   0  0  0  0  0  0  0  0  0  0  0  0
   -7.6290   19.4750  -32.0500 C   0  0  0  0  0  0  0  0  0  0  0  0
   -6.6490   20.4310  -32.3680 C   0  0  0  0  0  0  0  0  0  0  0  0
   -6.7180   21.8010  -31.7980 C   0  0  0  0  0  0  0  0  0  0  0  0
   -7.9330   22.5020  -31.7580 C   0  0  0  0  0  0  0  0  0  0  0  0
   -7.9890   23.7480  -31.2220 N   0  0  0  0  0  0  0  0  0  0  0  0
   -6.8890   24.3640  -30.7160 C   0  0  0  0  0  0  0  0  0  0  0  0
   -5.6410   23.7210  -30.7390 C   0  0  0  0  0  0  0  0  0  0  0  0
   -4.4440   24.4030  -30.1790 C   0  0  0  0  0  0  0  0  0  0  0  0
   -3.8680   25.2880  -30.8700 O   0  0  0  0  0  0  0  0  0  0  0  0
   -3.9240   24.1020  -28.7900 C   0  0  1  0  0  0  0  0  0  0  0  0
   -4.1300   22.6230  -28.3840 C   0  0  0  0  0  0  0  0  0  0  0  0
   -2.7490   21.9410  -28.4490 C   0  0  0  0  0  0  0  0  0  0  0  0
   -1.7830   23.0170  -28.5590 N   0  0  0  0  0  0  0  0  0  0  0  0
   -0.3370   22.8370  -28.5920 C   0  0  0  0  0  0  0  0  0  0  0  0
   -2.4500   24.2470  -28.7570 C   0  0  0  0  0  0  0  0  0  0  0  0
   -1.8430   25.3430  -28.8930 O   0  0  0  0  0  0  0  0  0  0  0  0
   -5.5700   22.4240  -31.2810 C   0  0  0  0  0  0  0  0  0  0  0  0
   -5.6030   20.0690  -33.2340 C   0  0  0  0  0  0  0  0  0  0  0  0
   -5.5380   18.7790  -33.7710 C   0  0  0  0  0  0  0  0  0  0  0  0
   -5.2026   15.4521  -32.7596 H   0  0  0  0  0  0  0  0  0  0  0  0
   -5.6581   14.6639  -34.3082 H   0  0  0  0  0  0  0  0  0  0  0  0
   -4.5175   16.0516  -34.3082 H   0  0  0  0  0  0  0  0  0  0  0  0
   -8.3366   17.4479  -32.3287 H   0  0  0  0  0  0  0  0  0  0  0  0
   -8.4540   19.7431  -31.3736 H   0  0  0  0  0  0  0  0  0  0  0  0
   -8.8450   22.0393  -32.1632 H   0  0  0  0  0  0  0  0  0  0  0  0
   -6.9765   25.3725  -30.2857 H   0  0  0  0  0  0  0  0  0  0  0  0
   -4.4666   24.7920  -28.1270 H   0  0  0  0  0  0  0  0  0  0  0  0
   -4.5325   22.5644  -27.3620 H   0  0  0  0  0  0  0  0  0  0  0  0
   -4.8447   22.1271  -29.0573 H   0  0  0  0  0  0  0  0  0  0  0  0
   -2.5676   21.3550  -27.5359 H   0  0  0  0  0  0  0  0  0  0  0  0
   -2.6799   21.2458  -29.2986 H   0  0  0  0  0  0  0  0  0  0  0  0
    0.0501   22.7888  -27.5635 H   0  0  0  0  0  0  0  0  0  0  0  0
   -0.0958   21.9019  -29.1187 H   0  0  0  0  0  0  0  0  0  0  0  0
    0.1261   23.6844  -29.1187 H   0  0  0  0  0  0  0  0  0  0  0  0
   -4.6067   21.8933  -31.2999 H   0  0  0  0  0  0  0  0  0  0  0  0
   -4.8287   20.8065  -33.4918 H   0  0  0  0  0  0  0  0  0  0  0  0
   -4.7138   18.5084  -34.4474 H   0  0  0  0  0  0  0  0  0  0  0  0
  1  2  1  0
  2  3  1  0
  3  4  2  0
  4  5  1  0
  5  6  2  0
  6  7  1  0
  7  8  2  0
  8  9  1  0
  9 10  2  0
 10 11  1  0
 11 12  1  0
 12 13  2  0
 12 14  1  0
 14 15  1  0
 15 16  1  0
 16 17  1  0
 17 18  1  0
 17 19  1  0
 19 20  2  0
 11 21  2  0
  6 22  1  0
 22 23  2  0
 23  3  1  0
 21  7  1  0
 19 14  1  0
  1 24  1  0
  1 25  1  0
  1 26  1  0
  4 27  1  0
  5 28  1  0
  8 29  1  0
 10 30  1  0
 14 31  1  1
 15 32  1  0
 15 33  1  0
 16 34  1  0
 16 35  1  0
 18 36  1  0
 18 37  1  0
 18 38  1  0
 21 39  1  0
 22 40  1  0
 23 41  1  0
M  END
>  <UniqueID>  (4) 
4

>  <SMILES>  (4) 
COc1ccc(-c2cncc(C(=O)[C@H]3CCN(C)C3=O)c2)cc1

>  <Energy>  (4) 
55.422421677055894

>  <Genealogy>  (4) 
COc1ccc(-c2cncc(C(=O)[C@H]3CCN(C)C3=O)c2)cc1 (chirality)
COc1ccc(-c2cncc(C(=O)[C@H]3CCN(C)C3=O)c2)cc1 (3D coordinates assigned)
COc1ccc(-c2cncc(C(=O)[C@H]3CCN(C)C3=O)c2)cc1 (nonaromatic ring conformer: 55.422421677055894 kcal/mol)

>  <smiles>  (4) 
COc1ccc(-c2cncc(C(=O)C3CCN(C)C3=O)c2)cc1

>  <score_type>  (4) 
oracle

>  <origin>  (4) 
adg

>  <m_score__min__energy>  (4) 
-8.9100000000000001

>  <m_primary>  (4) 
energy

$$$$
4:0
     RDKit          3D

 37 38  0  0  0  0  0  0  0  0999 V2000
   -9.1050   20.8100  -32.2080 C   0  0  0  0  0  0  0  0  0  0  0  0
   -8.2620   19.8530  -32.9480 N   0  0  0  0  0  0  0  0  0  0  0  0
   -8.2190   18.5480  -32.2670 C   0  0  0  0  0  0  0  0  0  0  0  0
   -6.9210   20.4010  -33.2930 C   0  0  0  0  0  0  0  0  0  0  0  0
   -5.7380   19.3960  -33.3370 C   0  0  0  0  0  0  0  0  0  0  0  0
   -4.3440   19.9900  -33.0880 C   0  0  0  0  0  0  0  0  0  0  0  0
   -4.3520   21.4540  -33.1420 N   0  0  0  0  0  0  0  0  0  0  0  0
   -3.9700   22.2990  -32.0370 C   0  0  0  0  0  0  0  0  0  0  0  0
   -2.6570   22.2680  -31.5420 C   0  0  0  0  0  0  0  0  0  0  0  0
   -2.3120   23.0640  -30.4480 C   0  0  0  0  0  0  0  0  0  0  0  0
   -1.1370   23.0370  -29.9980 O   0  0  0  0  0  0  0  0  0  0  0  0
   -3.2160   23.8490  -29.8760 O   0  0  0  0  0  0  0  0  0  0  0  0
   -4.4720   23.9270  -30.3010 C   0  0  0  0  0  0  0  0  0  0  0  0
   -5.3640   24.7850  -29.6500 C   0  0  0  0  0  0  0  0  0  0  0  0
   -6.6830   24.8970  -30.0920 C   0  0  0  0  0  0  0  0  0  0  0  0
   -7.1160   24.1550  -31.1920 C   0  0  0  0  0  0  0  0  0  0  0  0
   -6.2390   23.2900  -31.8510 C   0  0  0  0  0  0  0  0  0  0  0  0
   -4.9070   23.1530  -31.4080 C   0  0  0  0  0  0  0  0  0  0  0  0
   -8.9706   20.6574  -31.1270 H   0  0  0  0  0  0  0  0  0  0  0  0
   -8.8127   21.8369  -32.4725 H   0  0  0  0  0  0  0  0  0  0  0  0
  -10.1606   20.6496  -32.4725 H   0  0  0  0  0  0  0  0  0  0  0  0
   -8.7520   19.6920  -33.8600 H   0  0  0  0  0  0  0  0  0  0  0  0
   -8.2241   18.7024  -31.1779 H   0  0  0  0  0  0  0  0  0  0  0  0
   -9.0981   17.9538  -32.5572 H   0  0  0  0  0  0  0  0  0  0  0  0
   -7.3027   18.0130  -32.5572 H   0  0  0  0  0  0  0  0  0  0  0  0
   -6.9984   20.8660  -34.2869 H   0  0  0  0  0  0  0  0  0  0  0  0
   -6.6766   21.0938  -32.4743 H   0  0  0  0  0  0  0  0  0  0  0  0
   -5.9192   18.6284  -32.5703 H   0  0  0  0  0  0  0  0  0  0  0  0
   -5.7163   19.0065  -34.3655 H   0  0  0  0  0  0  0  0  0  0  0  0
   -3.9958   19.6735  -32.0937 H   0  0  0  0  0  0  0  0  0  0  0  0
   -3.6735   19.6251  -33.8800 H   0  0  0  0  0  0  0  0  0  0  0  0
   -4.6700   21.8920  -34.0340 H   0  0  0  0  0  0  0  0  0  0  0  0
   -1.9036   21.6199  -32.0135 H   0  0  0  0  0  0  0  0  0  0  0  0
   -5.0244   25.3744  -28.7855 H   0  0  0  0  0  0  0  0  0  0  0  0
   -7.3815   25.5702  -29.5734 H   0  0  0  0  0  0  0  0  0  0  0  0
   -8.1542   24.2519  -31.5422 H   0  0  0  0  0  0  0  0  0  0  0  0
   -6.5890   22.7129  -32.7196 H   0  0  0  0  0  0  0  0  0  0  0  0
  1  2  1  0
  2  3  1  0
  2  4  1  0
  4  5  1  0
  5  6  1  0
  6  7  1  0
  7  8  1  0
  8  9  2  0
  9 10  1  0
 10 11  2  0
 10 12  1  0
 12 13  1  0
 13 14  2  0
 14 15  1  0
 15 16  2  0
 16 17  1  0
 17 18  2  0
 18  8  1  0
 18 13  1  0
  1 19  1  0
  1 20  1  0
  1 21  1  0
  2 22  1  0
  3 23  1  0
  3 24  1  0
  3 25  1  0
  4 26  1  0
  4 27  1  0
  5 28  1  0
  5 29  1  0
  6 30  1  0
  6 31  1  0
  7 32  1  0
  9 33  1  0
 14 34  1  0
 15 35  1  0
 16 36  1  0
 17 37  1  0
M  CHG  1   2   1
M  END
>  <UniqueID>  (5) 
5

>  <SMILES>  (5) 
C[NH+](C)CCCNc1cc(=O)oc2ccccc12

>  <Energy>  (5) 
47.4638780560817

>  <Genealogy>  (5) 
C[NH+](C)CCCNc1cc(=O)oc2ccccc12 (protonated)
C[NH+](C)CCCNc1cc(=O)oc2ccccc12 (3D coordinates assigned)
C[NH+](C)CCCNc1cc(=O)oc2ccccc12 (optimized conformer: 47.4638780560817 kcal/mol)

>  <smiles>  (5) 
CN(C)CCCNc1cc(=O)oc2ccccc12

>  <score_type>  (5) 
oracle

>  <origin>  (5) 
adg

>  <m_score__min__energy>  (5) 
-6.0700000000000003

>  <m_primary>  (5) 
energy

$$$$
5:0
     RDKit          3D

 40 40  0  0  0  0  0  0  0  0999 V2000
   -6.8697   25.3610  -30.7279 H   0  0  0  0  0  0  0  0  0  0  0  0
   -6.1240   24.5950  -30.9870 C   0  0  0  0  0  0  0  0  0  0  0  0
   -4.9070   24.5290  -30.1580 C   0  0  0  0  0  0  0  0  0  0  0  0
   -3.8640   25.1590  -30.4850 O   0  0  0  0  0  0  0  0  0  0  0  0
   -4.9450   23.7910  -28.9690 O   0  0  0  0  0  0  0  0  0  0  0  0
   -4.2380   24.1690  -27.7910 C   0  0  0  0  0  0  0  0  0  0  0  0
   -4.8502   23.9189  -26.9120 H   0  0  0  0  0  0  0  0  0  0  0  0
   -4.0426   25.2504  -27.8400 H   0  0  0  0  0  0  0  0  0  0  0  0
   -2.8840   23.4400  -27.6810 C   0  0  0  0  0  0  0  0  0  0  0  0
   -2.9879   22.6093  -26.9674 H   0  0  0  0  0  0  0  0  0  0  0  0
   -2.1369   24.1734  -27.3434 H   0  0  0  0  0  0  0  0  0  0  0  0
   -2.4200   22.8910  -28.9900 N   0  0  0  0  0  0  0  0  0  0  0  0
   -2.9710   23.3330  -29.7630 H   0  0  0  0  0  0  0  0  0  0  0  0
   -2.6380   21.4190  -29.0440 C   0  0  0  0  0  0  0  0  0  0  0  0
   -3.2396   21.1175  -28.1738 H   0  0  0  0  0  0  0  0  0  0  0  0
   -1.6525   20.9304  -29.0369 H   0  0  0  0  0  0  0  0  0  0  0  0
   -3.3680   20.9900  -30.3220 C   0  0  0  0  0  0  0  0  0  0  0  0
   -4.2880   20.4494  -30.0549 H   0  0  0  0  0  0  0  0  0  0  0  0
   -3.6250   21.8807  -30.9141 H   0  0  0  0  0  0  0  0  0  0  0  0
   -2.7149   20.3321  -30.9141 H   0  0  0  0  0  0  0  0  0  0  0  0
   -0.9810   23.2050  -29.2040 C   0  0  0  0  0  0  0  0  0  0  0  0
   -0.3754   22.3853  -28.7900 H   0  0  0  0  0  0  0  0  0  0  0  0
   -0.8203   23.3187  -30.2862 H   0  0  0  0  0  0  0  0  0  0  0  0
   -0.5610   24.5170  -28.5290 C   0  0  0  0  0  0  0  0  0  0  0  0
   -0.5997   24.3960  -27.4364 H   0  0  0  0  0  0  0  0  0  0  0  0
    0.4643   24.7741  -28.8333 H   0  0  0  0  0  0  0  0  0  0  0  0
   -1.2464   25.3217  -28.8333 H   0  0  0  0  0  0  0  0  0  0  0  0
   -6.3980   23.7980  -32.0320 C   0  0  0  0  0  0  0  0  0  0  0  0
   -5.9880   24.0876  -33.0108 H   0  0  0  0  0  0  0  0  0  0  0  0
   -7.2070   22.5620  -31.9720 C   0  0  0  0  0  0  0  0  0  0  0  0
   -8.5710   22.6060  -31.6260 C   0  0  0  0  0  0  0  0  0  0  0  0
   -9.0381   23.5658  -31.3601 H   0  0  0  0  0  0  0  0  0  0  0  0
   -9.3340   21.4350  -31.6190 C   0  0  0  0  0  0  0  0  0  0  0  0
  -10.3952   21.4727  -31.3319 H   0  0  0  0  0  0  0  0  0  0  0  0
   -8.7510   20.2170  -31.9760 C   0  0  0  0  0  0  0  0  0  0  0  0
   -9.3513   19.2953  -31.9632 H   0  0  0  0  0  0  0  0  0  0  0  0
   -7.4070   20.1690  -32.3490 C   0  0  0  0  0  0  0  0  0  0  0  0
   -6.9514   19.2098  -32.6360 H   0  0  0  0  0  0  0  0  0  0  0  0
   -6.6370   21.3380  -32.3590 C   0  0  0  0  0  0  0  0  0  0  0  0
   -5.3330   21.2710  -32.7310 F   0  0  0  0  0  0  0  0  0  0  0  0
  1  2  1  0
  2  3  1  0
  3  4  2  0
  3  5  1  0
  5  6  1  0
  6  7  1  0
  6  8  1  0
  6  9  1  0
  9 10  1  0
  9 11  1  0
  9 12  1  0
 12 13  1  0
 12 14  1  0
 14 15  1  0
 14 16  1  0
 14 17  1  0
 17 18  1  0
 17 19  1  0
 17 20  1  0
 12 21  1  0
 21 22  1  0
 21 23  1  0
 21 24  1  0
 24 25  1  0
 24 26  1  0
 24 27  1  0
  2 28  2  0
 28 29  1  0
 28 30  1  0
 30 31  2  0
 31 32  1  0
 31 33  1  0
 33 34  1  0
 33 35  2  0
 35 36  1  0
 35 37  1  0
 37 38  1  0
 37 39  2  0
 39 40  1  0
 39 30  1  0
M  CHG  1  12   1
M  END
>  <UniqueID>  (6) 
6

>  <SMILES>  (6) 
CC[NH+](CC)CCOC(=O)/C=C\c1ccccc1F

>  <Energy>  (6) 
45.02694756901044

>  <Genealogy>  (6) 
CC[NH+](CC)CCOC(=O)C=Cc1ccccc1F (protonated)
CC[NH+](CC)CCOC(=O)/C=C\c1ccccc1F (cis-trans isomerization)
CC[NH+](CC)CCOC(=O)/C=C\c1ccccc1F (3D coordinates assigned)
CC[NH+](CC)CCOC(=O)/C=C\c1ccccc1F (optimized conformer: 45.02694756901044 kcal/mol)

>  <smiles>  (6) 
CCN(CC)CCOC(=O)C=Cc1ccccc1F

>  <score_type>  (6) 
oracle

>  <origin>  (6) 
adg

>  <m_score__min__energy>  (6) 
-5.4100000000000001

>  <m_primary>  (6) 
energy

$$$$
6:0
     RDKit          3D

 45 47  0  0  0  0  0  0  0  0999 V2000
   -7.1690   23.8860  -30.8190 C   0  0  0  0  0  0  0  0  0  0  0  0
   -6.2770   24.8550  -30.0460 C   0  0  0  0  0  0  0  0  0  0  0  0
   -4.8270   24.6830  -30.4100 C   0  0  0  0  0  0  0  0  0  0  0  0
   -4.1760   25.6700  -30.8490 O   0  0  0  0  0  0  0  0  0  0  0  0
   -4.1710   23.4100  -30.2930 N   0  0  0  0  0  0  0  0  0  0  0  0
   -3.4700   22.9740  -29.0850 C   0  0  0  0  0  0  0  0  0  0  0  0
   -2.7660   21.6470  -29.4530 C   0  0  0  0  0  0  0  0  0  0  0  0
   -3.2020   21.4020  -30.8570 C   0  0  0  0  0  0  0  0  0  0  0  0
   -2.9230   20.2950  -31.6580 C   0  0  0  0  0  0  0  0  0  0  0  0
   -3.4920   20.2330  -32.9410 C   0  0  0  0  0  0  0  0  0  0  0  0
   -3.1540   18.8300  -34.0030 S   0  0  0  0  0  0  0  0  0  0  0  0
   -4.3440   17.7460  -33.1510 C   0  0  0  0  0  0  0  0  0  0  0  0
   -5.7330   18.0890  -33.6040 C   0  0  0  0  0  0  0  0  0  0  0  0
   -6.0820   17.7570  -34.7690 O   0  0  0  0  0  0  0  0  0  0  0  0
   -6.6960   18.6980  -32.7190 N   0  0  0  0  0  0  0  0  0  0  0  0
   -6.2650   19.5780  -31.6240 C   0  0  0  0  0  0  0  0  0  0  0  0
   -7.3890   20.5470  -31.2420 C   0  0  0  0  0  0  0  0  0  0  0  0
   -8.6040   19.8560  -31.0310 O   0  0  0  0  0  0  0  0  0  0  0  0
   -9.0390   19.2850  -32.2480 C   0  0  0  0  0  0  0  0  0  0  0  0
   -8.0730   18.1920  -32.7090 C   0  0  0  0  0  0  0  0  0  0  0  0
   -4.3470   21.2610  -33.3820 C   0  0  0  0  0  0  0  0  0  0  0  0
   -4.6200   22.3620  -32.5550 C   0  0  0  0  0  0  0  0  0  0  0  0
   -4.0020   22.4200  -31.2990 C   0  0  0  0  0  0  0  0  0  0  0  0
   -7.7387   23.2671  -30.1102 H   0  0  0  0  0  0  0  0  0  0  0  0
   -7.8662   24.4547  -31.4518 H   0  0  0  0  0  0  0  0  0  0  0  0
   -6.5446   23.2382  -31.4518 H   0  0  0  0  0  0  0  0  0  0  0  0
   -6.5837   25.8855  -30.2785 H   0  0  0  0  0  0  0  0  0  0  0  0
   -6.3896   24.6446  -28.9722 H   0  0  0  0  0  0  0  0  0  0  0  0
   -2.7289   23.7277  -28.7806 H   0  0  0  0  0  0  0  0  0  0  0  0
   -4.1652   22.8401  -28.2431 H   0  0  0  0  0  0  0  0  0  0  0  0
   -1.6726   21.7518  -29.3930 H   0  0  0  0  0  0  0  0  0  0  0  0
   -3.0237   20.8215  -28.7732 H   0  0  0  0  0  0  0  0  0  0  0  0
   -2.2713   19.4875  -31.2930 H   0  0  0  0  0  0  0  0  0  0  0  0
   -4.1258   16.6959  -33.3951 H   0  0  0  0  0  0  0  0  0  0  0  0
   -4.2630   17.8896  -32.0634 H   0  0  0  0  0  0  0  0  0  0  0  0
   -6.0019   18.9654  -30.7491 H   0  0  0  0  0  0  0  0  0  0  0  0
   -5.3916   20.1585  -31.9561 H   0  0  0  0  0  0  0  0  0  0  0  0
   -7.1103   21.0748  -30.3180 H   0  0  0  0  0  0  0  0  0  0  0  0
   -7.5309   21.2614  -32.0663 H   0  0  0  0  0  0  0  0  0  0  0  0
  -10.0378   18.8470  -32.1046 H   0  0  0  0  0  0  0  0  0  0  0  0
   -9.0738   20.0724  -33.0153 H   0  0  0  0  0  0  0  0  0  0  0  0
   -8.1396   17.3358  -32.0216 H   0  0  0  0  0  0  0  0  0  0  0  0
   -8.3463   17.8806  -33.7280 H   0  0  0  0  0  0  0  0  0  0  0  0
   -4.8039   21.2011  -34.3808 H   0  0  0  0  0  0  0  0  0  0  0  0
   -5.3022   23.1594  -32.8849 H   0  0  0  0  0  0  0  0  0  0  0  0
  1  2  1  0
  2  3  1  0
  3  4  2  0
  3  5  1  0
  5  6  1  0
  6  7  1  0
  7  8  1  0
  8  9  2  0
  9 10  1  0
 10 11  1  0
 11 12  1  0
 12 13  1  0
 13 14  2  0
 13 15  1  0
 15 16  1  0
 16 17  1  0
 17 18  1  0
 18 19  1  0
 19 20  1  0
 10 21  2  0
 21 22  1  0
 22 23  2  0
 23  5  1  0
 23  8  1  0
 20 15  1  0
  1 24  1  0
  1 25  1  0
  1 26  1  0
  2 27  1  0
  2 28  1  0
  6 29  1  0
  6 30  1  0
  7 31  1  0
  7 32  1  0
  9 33  1  0
 12 34  1  0
 12 35  1  0
 16 36  1  0
 16 37  1  0
 17 38  1  0
 17 39  1  0
 19 40  1  0
 19 41  1  0
 20 42  1  0
 20 43  1  0
 21 44  1  0
 22 45  1  0
M  END
>  <UniqueID>  (7) 
7

>  <SMILES>  (7) 
CCC(=O)N1CCc2cc(SCC(=O)N3CCOCC3)ccc21

>  <Energy>  (7) 
58.938220454920085

>  <Genealogy>  (7) 
CCC(=O)N1CCc2cc(SCC(=O)N3CCOCC3)ccc21 (3D coordinates assigned)
CCC(=O)N1CCc2cc(SCC(=O)N3CCOCC3)ccc21 (nonaromatic ring conformer: 58.938220454920085 kcal/mol)

>  <smiles>  (7) 
CCC(=O)N1CCc2cc(SCC(=O)N3CCOCC3)ccc21

>  <score_type>  (7) 
oracle

>  <origin>  (7) 
adg

>  <m_score__min__energy>  (7) 
-8.7599999999999998

>  <m_primary>  (7) 
energy

$$$$
7:0
     RDKit          3D

 59 61  0  0  0  0  0  0  0  0999 V2000
   -5.3540   17.7770  -34.9810 C   0  0  0  0  0  0  0  0  0  0  0  0
   -3.8590   17.4690  -34.9760 C   0  0  0  0  0  0  0  0  0  0  0  0
   -3.1750   18.0550  -33.7290 C   0  0  0  0  0  0  0  0  0  0  0  0
   -2.7110   19.5260  -33.9390 C   0  0  2  0  0  0  0  0  0  0  0  0
   -1.1560   19.6090  -33.8190 C   0  0  0  0  0  0  0  0  0  0  0  0
   -0.5780   20.7960  -34.5910 C   0  0  0  0  0  0  0  0  0  0  0  0
   -3.4470   20.4680  -33.0270 N   0  0  2  0  0  0  0  0  0  0  0  0
   -2.6700   20.8390  -31.8090 C   0  0  0  0  0  0  0  0  0  0  0  0
   -2.8120   22.2980  -31.3100 C   0  0  0  0  0  0  0  0  0  0  0  0
   -4.1790   22.6190  -30.6990 C   0  0  0  0  0  0  0  0  0  0  0  0
   -4.6670   23.9110  -31.2380 N   0  0  0  0  0  0  0  0  0  0  0  0
   -5.0020   24.9110  -30.1950 C   0  0  0  0  0  0  0  0  0  0  0  0
   -6.4840   24.8840  -29.7530 C   0  0  0  0  0  0  0  0  0  0  0  0
   -7.1710   23.5610  -30.0960 C   0  0  0  0  0  0  0  0  0  0  0  0
   -7.0690   23.2530  -31.5960 C   0  0  0  0  0  0  0  0  0  0  0  0
   -5.7500   23.7540  -32.2300 C   0  0  0  0  0  0  0  0  0  0  0  0
   -4.8280   20.1180  -32.7490 C   0  0  0  0  0  0  0  0  0  0  0  0
   -5.8910   20.7780  -33.2910 N   0  0  0  0  0  0  0  0  0  0  0  0
   -6.9330   20.0810  -32.8080 C   0  0  0  0  0  0  0  0  0  0  0  0
   -8.2910   20.3200  -33.0120 C   0  0  0  0  0  0  0  0  0  0  0  0
   -9.2040   19.4470  -32.3870 C   0  0  0  0  0  0  0  0  0  0  0  0
   -8.7410   18.3720  -31.5880 C   0  0  0  0  0  0  0  0  0  0  0  0
   -7.3610   18.1630  -31.4130 C   0  0  0  0  0  0  0  0  0  0  0  0
   -6.4900   19.0470  -32.0440 C   0  0  0  0  0  0  0  0  0  0  0  0
   -5.1860   19.0680  -32.0240 O   0  0  0  0  0  0  0  0  0  0  0  0
   -5.7164   17.8517  -33.9451 H   0  0  0  0  0  0  0  0  0  0  0  0
   -5.5302   18.7303  -35.5007 H   0  0  0  0  0  0  0  0  0  0  0  0
   -5.8927   16.9710  -35.5007 H   0  0  0  0  0  0  0  0  0  0  0  0
   -3.7173   16.3782  -34.9839 H   0  0  0  0  0  0  0  0  0  0  0  0
   -3.4062   17.9252  -35.8687 H   0  0  0  0  0  0  0  0  0  0  0  0
   -3.8860   18.0258  -32.8902 H   0  0  0  0  0  0  0  0  0  0  0  0
   -2.2806   17.4488  -33.5226 H   0  0  0  0  0  0  0  0  0  0  0  0
   -2.9696   19.8558  -34.9560 H   0  0  0  0  0  0  0  0  0  0  0  0
   -0.8880   19.7130  -32.7572 H   0  0  0  0  0  0  0  0  0  0  0  0
   -0.7351   18.6890  -34.2507 H   0  0  0  0  0  0  0  0  0  0  0  0
   -0.2102   21.5512  -33.8808 H   0  0  0  0  0  0  0  0  0  0  0  0
    0.2535   20.4520  -35.2237 H   0  0  0  0  0  0  0  0  0  0  0  0
   -1.3615   21.2385  -35.2237 H   0  0  0  0  0  0  0  0  0  0  0  0
   -3.5390   21.3780  -33.5330 H   0  0  0  0  0  0  0  0  0  0  0  0
   -2.9922   20.1751  -30.9933 H   0  0  0  0  0  0  0  0  0  0  0  0
   -1.6137   20.7341  -32.0974 H   0  0  0  0  0  0  0  0  0  0  0  0
   -2.0412   22.4786  -30.5463 H   0  0  0  0  0  0  0  0  0  0  0  0
   -2.6975   22.9472  -32.1906 H   0  0  0  0  0  0  0  0  0  0  0  0
   -4.8921   21.8215  -30.9551 H   0  0  0  0  0  0  0  0  0  0  0  0
   -4.0859   22.6884  -29.6051 H   0  0  0  0  0  0  0  0  0  0  0  0
   -4.3741   24.7153  -29.3133 H   0  0  0  0  0  0  0  0  0  0  0  0
   -4.8178   25.9030  -30.6332 H   0  0  0  0  0  0  0  0  0  0  0  0
   -6.5307   25.0344  -28.6643 H   0  0  0  0  0  0  0  0  0  0  0  0
   -7.0098   25.6849  -30.2936 H   0  0  0  0  0  0  0  0  0  0  0  0
   -6.6897   22.7499  -29.5300 H   0  0  0  0  0  0  0  0  0  0  0  0
   -8.2351   23.6427  -29.8296 H   0  0  0  0  0  0  0  0  0  0  0  0
   -7.1325   22.1636  -31.7348 H   0  0  0  0  0  0  0  0  0  0  0  0
   -7.8945   23.7807  -32.0961 H   0  0  0  0  0  0  0  0  0  0  0  0
   -5.4276   23.0290  -32.9919 H   0  0  0  0  0  0  0  0  0  0  0  0
   -5.9459   24.7434  -32.6689 H   0  0  0  0  0  0  0  0  0  0  0  0
   -8.6365   21.1572  -33.6363 H   0  0  0  0  0  0  0  0  0  0  0  0
  -10.2849   19.6013  -32.5205 H   0  0  0  0  0  0  0  0  0  0  0  0
   -9.4632   17.6988  -31.1030 H   0  0  0  0  0  0  0  0  0  0  0  0
   -6.9837   17.3313  -30.7999 H   0  0  0  0  0  0  0  0  0  0  0  0
  1  2  1  0
  2  3  1  0
  3  4  1  0
  4  5  1  0
  5  6  1  0
  4  7  1  0
  7  8  1  0
  8  9  1  0
  9 10  1  0
 10 11  1  0
 11 12  1  0
 12 13  1  0
 13 14  1  0
 14 15  1  0
 15 16  1  0
  7 17  1  0
 17 18  2  0
 18 19  1  0
 19 20  2  0
 20 21  1  0
 21 22  2  0
 22 23  1  0
 23 24  2  0
 24 25  1  0
 16 11  1  0
 25 17  1  0
 24 19  1  0
  1 26  1  0
  1 27  1  0
  1 28  1  0
  2 29  1  0
  2 30  1  0
  3 31  1  0
  3 32  1  0
  4 33  1  6
  5 34  1  0
  5 35  1  0
  6 36  1  0
  6 37  1  0
  6 38  1  0
  7 39  1  6
  8 40  1  0
  8 41  1  0
  9 42  1  0
  9 43  1  0
 10 44  1  0
 10 45  1  0
 12 46  1  0
 12 47  1  0
 13 48  1  0
 13 49  1  0
 14 50  1  0
 14 51  1  0
 15 52  1  0
 15 53  1  0
 16 54  1  0
 16 55  1  0
 20 56  1  0
 21 57  1  0
 22 58  1  0
 23 59  1  0
M  CHG  1   7   1
M  END
>  <UniqueID>  (8) 
8

>  <SMILES>  (8) 
CCC[C@H](CC)[N@H+](CCCN1CCCCC1)c1nc2ccccc2o1

>  <Energy>  (8) 
112.58855763682426

>  <Genealogy>  (8) 
CCCC(CC)[NH+](CCCN1CCCCC1)c1nc2ccccc2o1 (protonated)
CCC[C@H](CC)[N@H+](CCCN1CCCCC1)c1nc2ccccc2o1 (chirality)
CCC[C@H](CC)[N@H+](CCCN1CCCCC1)c1nc2ccccc2o1 (3D coordinates assigned)
CCC[C@H](CC)[N@H+](CCCN1CCCCC1)c1nc2ccccc2o1 (nonaromatic ring conformer: 112.58855763682426 kcal/mol)

>  <smiles>  (8) 
CCCC(CC)N(CCCN1CCCCC1)c1nc2ccccc2o1

>  <score_type>  (8) 
oracle

>  <origin>  (8) 
adg

>  <m_score__min__energy>  (8) 
-7.46

>  <m_primary>  (8) 
energy

$$$$
8:0
     RDKit          3D

 45 46  0  0  0  0  0  0  0  0999 V2000
   -7.8080   23.2780  -31.7480 C   0  0  0  0  0  0  0  0  0  0  0  0
   -6.9770   22.1240  -31.8080 O   0  0  0  0  0  0  0  0  0  0  0  0
   -7.4470   20.8130  -31.9880 C   0  0  0  0  0  0  0  0  0  0  0  0
   -8.8190   20.5250  -32.1260 C   0  0  0  0  0  0  0  0  0  0  0  0
   -9.2500   19.2080  -32.2960 C   0  0  0  0  0  0  0  0  0  0  0  0
   -8.3210   18.1710  -32.3350 C   0  0  0  0  0  0  0  0  0  0  0  0
   -6.9570   18.4430  -32.2060 C   0  0  0  0  0  0  0  0  0  0  0  0
   -6.5080   19.7670  -32.0250 C   0  0  0  0  0  0  0  0  0  0  0  0
   -5.1480   20.1060  -31.8870 O   0  0  0  0  0  0  0  0  0  0  0  0
   -4.3100   20.7240  -32.8680 C   0  0  0  0  0  0  0  0  0  0  0  0
   -3.9350   22.1640  -32.4720 C   0  0  0  0  0  0  0  0  0  0  0  0
   -4.5750   22.6020  -31.2160 N   0  0  0  0  0  0  0  0  0  0  0  0
   -3.5890   23.0810  -30.2300 C   0  0  0  0  0  0  0  0  0  0  0  0
   -3.5760   24.5790  -30.1730 C   0  0  0  0  0  0  0  0  0  0  0  0
   -4.4180   25.2390  -30.8400 O   0  0  0  0  0  0  0  0  0  0  0  0
   -2.6290   25.2430  -29.3300 N   0  0  0  0  0  0  0  0  0  0  0  0
   -1.7140   24.6120  -28.4220 C   0  0  0  0  0  0  0  0  0  0  0  0
   -0.4710   24.1250  -28.8660 C   0  0  0  0  0  0  0  0  0  0  0  0
    0.3870   23.4680  -27.9820 C   0  0  0  0  0  0  0  0  0  0  0  0
    0.0130   23.2820  -26.6510 C   0  0  0  0  0  0  0  0  0  0  0  0
   -1.2260   23.7430  -26.2010 C   0  0  0  0  0  0  0  0  0  0  0  0
   -2.1050   24.3930  -27.0830 C   0  0  0  0  0  0  0  0  0  0  0  0
   -3.4280   24.8990  -26.5780 C   0  0  0  0  0  0  0  0  0  0  0  0
   -7.9965   23.5398  -30.6964 H   0  0  0  0  0  0  0  0  0  0  0  0
   -7.3060   24.1179  -32.2506 H   0  0  0  0  0  0  0  0  0  0  0  0
   -8.7637   23.0682  -32.2506 H   0  0  0  0  0  0  0  0  0  0  0  0
   -9.5548   21.3422  -32.0997 H   0  0  0  0  0  0  0  0  0  0  0  0
  -10.3231   18.9894  -32.3991 H   0  0  0  0  0  0  0  0  0  0  0  0
   -8.6627   17.1339  -32.4679 H   0  0  0  0  0  0  0  0  0  0  0  0
   -6.2290   17.6193  -32.2459 H   0  0  0  0  0  0  0  0  0  0  0  0
   -3.3889   20.1321  -32.9737 H   0  0  0  0  0  0  0  0  0  0  0  0
   -4.8649   20.7631  -33.8170 H   0  0  0  0  0  0  0  0  0  0  0  0
   -2.8435   22.2203  -32.3475 H   0  0  0  0  0  0  0  0  0  0  0  0
   -4.2918   22.8289  -33.2724 H   0  0  0  0  0  0  0  0  0  0  0  0
   -5.2960   23.3340  -31.4110 H   0  0  0  0  0  0  0  0  0  0  0  0
   -5.0770   21.7840  -30.7970 H   0  0  0  0  0  0  0  0  0  0  0  0
   -3.8500   22.6848  -29.2376 H   0  0  0  0  0  0  0  0  0  0  0  0
   -2.5907   22.7315  -30.5320 H   0  0  0  0  0  0  0  0  0  0  0  0
   -0.1733   24.2627  -29.9160 H   0  0  0  0  0  0  0  0  0  0  0  0
    1.3600   23.0963  -28.3358 H   0  0  0  0  0  0  0  0  0  0  0  0
    0.6949   22.7715  -25.9550 H   0  0  0  0  0  0  0  0  0  0  0  0
   -1.5152   23.5963  -25.1499 H   0  0  0  0  0  0  0  0  0  0  0  0
   -3.4253   24.8980  -25.4780 H   0  0  0  0  0  0  0  0  0  0  0  0
   -3.5924   25.9235  -26.9433 H   0  0  0  0  0  0  0  0  0  0  0  0
   -4.2341   24.2457  -26.9433 H   0  0  0  0  0  0  0  0  0  0  0  0
  1  2  1  0
  2  3  1  0
  3  4  2  0
  4  5  1  0
  5  6  2  0
  6  7  1  0
  7  8  2  0
  8  9  1  0
  9 10  1  0
 10 11  1  0
 11 12  1  0
 12 13  1  0
 13 14  1  0
 14 15  2  0
 14 16  1  0
 16 17  1  0
 17 18  2  0
 18 19  1  0
 19 20  2  0
 20 21  1  0
 21 22  2  0
 22 23  1  0
  8  3  1  0
 22 17  1  0
  1 24  1  0
  1 25  1  0
  1 26  1  0
  4 27  1  0
  5 28  1  0
  6 29  1  0
  7 30  1  0
 10 31  1  0
 10 32  1  0
 11 33  1  0
 11 34  1  0
 12 35  1  0
 12 36  1  0
 13 37  1  0
 13 38  1  0
 18 39  1  0
 19 40  1  0
 20 41  1  0
 21 42  1  0
 23 43  1  0
 23 44  1  0
 23 45  1  0
M  CHG  2  12   1  16  -1
M  END
>  <UniqueID>  (9) 
9

>  <SMILES>  (9) 
COc1ccccc1OCC[NH2+]CC(=O)[N-]c1ccccc1C

>  <Energy>  (9) 
45.25522624762363

>  <Genealogy>  (9) 
COc1ccccc1OCC[NH2+]CC(=O)[N-]c1ccccc1C (protonated)
COc1ccccc1OCC[NH2+]CC(=O)[N-]c1ccccc1C (3D coordinates assigned)
COc1ccccc1OCC[NH2+]CC(=O)[N-]c1ccccc1C (optimized conformer: 45.25522624762363 kcal/mol)

>  <smiles>  (9) 
COc1ccccc1OCCNCC(=O)Nc1ccccc1C

>  <score_type>  (9) 
oracle

>  <origin>  (9) 
adg

>  <m_score__min__energy>  (9) 
-7.0599999999999996

>  <m_primary>  (9) 
energy

$$$$
9:0
     RDKit          3D

 43 47  0  0  0  0  0  0  0  0999 V2000
    0.2297   18.5381  -28.6554 H   0  0  0  0  0  0  0  0  0  0  0  0
   -0.1070   19.2060  -29.4620 C   0  0  0  0  0  0  0  0  0  0  0  0
   -0.5460   20.5130  -29.1520 C   0  0  0  0  0  0  0  0  0  0  0  0
   -0.5384   20.8553  -28.1067 H   0  0  0  0  0  0  0  0  0  0  0  0
   -0.9950   21.3860  -30.1700 C   0  0  0  0  0  0  0  0  0  0  0  0
   -1.4570   22.7500  -29.8300 C   0  0  0  0  0  0  0  0  0  0  0  0
   -2.6220   23.2110  -30.3600 N   0  0  0  0  0  0  0  0  0  0  0  0
   -3.0780   24.4620  -30.0920 C   0  0  0  0  0  0  0  0  0  0  0  0
   -4.2010   24.8560  -30.6110 N   0  0  0  0  0  0  0  0  0  0  0  0
   -5.4850   24.2020  -30.3770 C   0  0  0  0  0  0  0  0  0  0  0  0
   -6.3013   24.8888  -30.6452 H   0  0  0  0  0  0  0  0  0  0  0  0
   -5.5714   23.9297  -29.3147 H   0  0  0  0  0  0  0  0  0  0  0  0
   -5.5730   22.9670  -31.2200 C   0  0  0  0  0  0  0  0  0  0  0  0
   -6.7360   22.3320  -31.5370 N   0  0  0  0  0  0  0  0  0  0  0  0
   -8.1020   22.7510  -31.2290 C   0  0  0  0  0  0  0  0  0  0  0  0
   -8.2357   22.7920  -30.1379 H   0  0  0  0  0  0  0  0  0  0  0  0
   -8.2858   23.7468  -31.6586 H   0  0  0  0  0  0  0  0  0  0  0  0
   -8.8125   22.0295  -31.6586 H   0  0  0  0  0  0  0  0  0  0  0  0
   -6.3480   21.2920  -32.3030 C   0  0  0  0  0  0  0  0  0  0  0  0
   -7.1310   20.3270  -32.9410 C   0  0  0  0  0  0  0  0  0  0  0  0
   -8.2279   20.3373  -32.8587 H   0  0  0  0  0  0  0  0  0  0  0  0
   -6.4650   19.3410  -33.6930 C   0  0  0  0  0  0  0  0  0  0  0  0
   -7.0466   18.5616  -34.2071 H   0  0  0  0  0  0  0  0  0  0  0  0
   -5.0550   19.3440  -33.7930 C   0  0  0  0  0  0  0  0  0  0  0  0
   -4.5470   18.5668  -34.3828 H   0  0  0  0  0  0  0  0  0  0  0  0
   -4.2970   20.3360  -33.1420 C   0  0  0  0  0  0  0  0  0  0  0  0
   -3.1994   20.3523  -33.2135 H   0  0  0  0  0  0  0  0  0  0  0  0
   -4.9850   21.2950  -32.4050 C   0  0  0  0  0  0  0  0  0  0  0  0
   -4.4830   22.3380  -31.7260 N   0  0  0  0  0  0  0  0  0  0  0  0
   -3.4790   22.6110  -31.6230 H   0  0  0  0  0  0  0  0  0  0  0  0
   -2.3530   25.2850  -29.2840 N   0  0  0  0  0  0  0  0  0  0  0  0
   -1.1770   24.8770  -28.7440 C   0  0  0  0  0  0  0  0  0  0  0  0
   -0.5200   25.6600  -28.0090 O   0  0  0  0  0  0  0  0  0  0  0  0
   -0.6960   23.5950  -29.0110 C   0  0  0  0  0  0  0  0  0  0  0  0
    0.2605   23.2546  -28.5876 H   0  0  0  0  0  0  0  0  0  0  0  0
   -0.9560   20.8990  -31.4860 C   0  0  0  0  0  0  0  0  0  0  0  0
   -1.2350   21.4670  -32.7100 C   0  0  0  0  0  0  0  0  0  0  0  0
   -1.5986   22.4917  -32.8766 H   0  0  0  0  0  0  0  0  0  0  0  0
   -0.9850   20.5480  -33.6730 N   0  0  0  0  0  0  0  0  0  0  0  0
   -0.5510   19.4260  -33.1060 N   0  0  0  0  0  0  0  0  0  0  0  0
   -0.5270   19.6350  -31.7800 C   0  0  0  0  0  0  0  0  0  0  0  0
   -0.0970   18.7520  -30.7930 C   0  0  0  0  0  0  0  0  0  0  0  0
    0.2386   17.7353  -31.0454 H   0  0  0  0  0  0  0  0  0  0  0  0
  1  2  1  0
  2  3  2  0
  3  4  1  0
  3  5  1  0
  5  6  1  0
  6  7  1  0
  7  8  1  0
  8  9  2  0
  9 10  1  0
 10 11  1  0
 10 12  1  0
 10 13  1  0
 13 14  1  0
 14 15  1  0
 15 16  1  0
 15 17  1  0
 15 18  1  0
 14 19  1  0
 19 20  2  0
 20 21  1  0
 20 22  1  0
 22 23  1  0
 22 24  2  0
 24 25  1  0
 24 26  1  0
 26 27  1  0
 26 28  2  0
 28 29  1  0
 29 30  1  0
  8 31  1  0
 31 32  1  0
 32 33  2  0
 32 34  1  0
 34 35  1  0
  5 36  2  0
 36 37  1  0
 37 38  1  0
 37 39  2  0
 39 40  1  0
 40 41  1  0
 41 42  2  0
 42 43  1  0
 42  2  1  0
 34  6  2  0
 41 36  1  0
 29 13  2  0
 28 19  1  0
M  CHG  4   7  -1  29   1  31  -1  40  -1
M  END
>  <UniqueID>  (10) 
10

>  <SMILES>  (10) 
Cn1c(C/N=c2/[n-]c(-c3cccc4[n-]ncc34)cc(=O)[n-]2)[nH+]c2ccccc21

>  <Energy>  (10) 
130.33725645896982

>  <Genealogy>  (10) 
Cn1c(CN=c2[n-]c(-c3cccc4[n-]ncc34)cc(=O)[n-]2)[nH+]c2ccccc21 (protonated)
Cn1c(C/N=c2/[n-]c(-c3cccc4[n-]ncc34)cc(=O)[n-]2)[nH+]c2ccccc21 (cis-trans isomerization)
Cn1c(C/N=c2/[n-]c(-c3cccc4[n-]ncc34)cc(=O)[n-]2)[nH+]c2ccccc21 (3D coordinates assigned)
Cn1c(C/N=c2/[n-]c(-c3cccc4[n-]ncc34)cc(=O)[n-]2)[nH+]c2ccccc21 (optimized conformer: 130.33725645896982 kcal/mol)

>  <smiles>  (10) 
Cn1c(CN=c2[nH]c(-c3cccc4[nH]ncc34)cc(=O)[nH]2)nc2ccccc21

>  <score_type>  (10) 
oracle

>  <origin>  (10) 
adg

>  <m_score__min__energy>  (10) 
-10.960000000000001

>  <m_primary>  (10) 
energy

$$$$
10:0
     RDKit          3D

 40 41  0  0  0  0  0  0  0  0999 V2000
   -1.9020   25.2530  -26.9970 C   0  0  0  0  0  0  0  0  0  0  0  0
   -2.6590   24.5990  -28.1560 C   0  0  2  0  0  0  0  0  0  0  0  0
   -2.3660   25.2800  -29.3490 O   0  0  0  0  0  0  0  0  0  0  0  0
   -4.1920   24.5150  -27.8800 C   0  0  0  0  0  0  0  0  0  0  0  0
   -5.0000   23.8920  -28.9630 N   0  0  0  0  0  0  0  0  0  0  0  0
   -4.3350   22.6980  -29.5330 C   0  0  0  0  0  0  0  0  0  0  0  0
   -5.2870   21.9630  -30.4910 C   0  0  0  0  0  0  0  0  0  0  0  0
   -6.1300   22.9170  -31.2220 N   0  0  0  0  0  0  0  0  0  0  0  0
   -7.4650   22.5560  -31.6330 C   0  0  0  0  0  0  0  0  0  0  0  0
   -8.3760   23.4270  -31.6210 O   0  0  0  0  0  0  0  0  0  0  0  0
   -7.7900   21.1800  -32.0710 C   0  0  0  0  0  0  0  0  0  0  0  0
   -8.9610   20.5070  -31.7750 C   0  0  0  0  0  0  0  0  0  0  0  0
   -8.8380   19.2430  -32.3180 C   0  0  0  0  0  0  0  0  0  0  0  0
   -7.5970   19.1910  -32.9200 C   0  0  0  0  0  0  0  0  0  0  0  0
   -6.9630   20.3700  -32.7700 N   0  0  0  0  0  0  0  0  0  0  0  0
   -5.6210   20.6760  -33.2610 C   0  0  0  0  0  0  0  0  0  0  0  0
   -5.6440   24.2900  -31.3860 C   0  0  0  0  0  0  0  0  0  0  0  0
   -5.2690   24.9050  -30.0210 C   0  0  0  0  0  0  0  0  0  0  0  0
   -2.3148   24.8964  -26.0418 H   0  0  0  0  0  0  0  0  0  0  0  0
   -0.8365   24.9866  -27.0582 H   0  0  0  0  0  0  0  0  0  0  0  0
   -2.0108   26.3459  -27.0582 H   0  0  0  0  0  0  0  0  0  0  0  0
   -2.3196   23.5577  -28.2586 H   0  0  0  0  0  0  0  0  0  0  0  0
   -1.5360   24.8750  -29.7150 H   0  0  0  0  0  0  0  0  0  0  0  0
   -4.3404   23.9254  -26.9633 H   0  0  0  0  0  0  0  0  0  0  0  0
   -4.5435   25.5541  -27.7976 H   0  0  0  0  0  0  0  0  0  0  0  0
   -5.9290   23.6080  -28.5680 H   0  0  0  0  0  0  0  0  0  0  0  0
   -3.4364   23.0117  -30.0844 H   0  0  0  0  0  0  0  0  0  0  0  0
   -4.0567   22.0184  -28.7140 H   0  0  0  0  0  0  0  0  0  0  0  0
   -4.6944   21.3798  -31.2112 H   0  0  0  0  0  0  0  0  0  0  0  0
   -5.9360   21.2983  -29.9020 H   0  0  0  0  0  0  0  0  0  0  0  0
   -9.8225   20.9013  -31.2161 H   0  0  0  0  0  0  0  0  0  0  0  0
   -9.5837   18.4353  -32.2784 H   0  0  0  0  0  0  0  0  0  0  0  0
   -7.1863   18.3159  -33.4448 H   0  0  0  0  0  0  0  0  0  0  0  0
   -4.9446   20.8302  -32.4074 H   0  0  0  0  0  0  0  0  0  0  0  0
   -5.2545   19.8384  -33.8726 H   0  0  0  0  0  0  0  0  0  0  0  0
   -5.6538   21.5897  -33.8726 H   0  0  0  0  0  0  0  0  0  0  0  0
   -4.7557   24.2831  -32.0348 H   0  0  0  0  0  0  0  0  0  0  0  0
   -6.4434   24.8955  -31.8380 H   0  0  0  0  0  0  0  0  0  0  0  0
   -4.3654   25.5184  -30.1526 H   0  0  0  0  0  0  0  0  0  0  0  0
   -6.1330   25.4981  -29.6867 H   0  0  0  0  0  0  0  0  0  0  0  0
  1  2  1  0
  2  3  1  0
  2  4  1  0
  4  5  1  0
  5  6  1  0
  6  7  1  0
  7  8  1  0
  8  9  1  0
  9 10  2  0
  9 11  1  0
 11 12  2  0
 12 13  1  0
 13 14  2  0
 14 15  1  0
 15 16  1  0
  8 17  1  0
 17 18  1  0
 18  5  1  0
 15 11  1  0
  1 19  1  0
  1 20  1  0
  1 21  1  0
  2 22  1  6
  3 23  1  0
  4 24  1  0
  4 25  1  0
  5 26  1  0
  6 27  1  0
  6 28  1  0
  7 29  1  0
  7 30  1  0
 12 31  1  0
 13 32  1  0
 14 33  1  0
 16 34  1  0
 16 35  1  0
 16 36  1  0
 17 37  1  0
 17 38  1  0
 18 39  1  0
 18 40  1  0
M  CHG  1   5   1
M  END
>  <UniqueID>  (11) 
11

>  <SMILES>  (11) 
C[C@H](O)C[NH+]1CCN(C(=O)c2cccn2C)CC1

>  <Energy>  (11) 
78.18917512195748

>  <Genealogy>  (11) 
CC(O)C[NH+]1CCN(C(=O)c2cccn2C)CC1 (protonated)
C[C@H](O)C[NH+]1CCN(C(=O)c2cccn2C)CC1 (chirality)
C[C@H](O)C[NH+]1CCN(C(=O)c2cccn2C)CC1 (3D coordinates assigned)
C[C@H](O)C[NH+]1CCN(C(=O)c2cccn2C)CC1 (nonaromatic ring conformer: 78.18917512195748 kcal/mol)

>  <smiles>  (11) 
CC(O)CN1CCN(C(=O)c2cccn2C)CC1

>  <score_type>  (11) 
oracle

>  <origin>  (11) 
adg

>  <m_score__min__energy>  (11) 
-6.3399999999999999

>  <m_primary>  (11) 
energy

$$$$
11:0
     RDKit          3D

 51 54  0  0  0  0  0  0  0  0999 V2000
  -10.0451   19.3014  -31.2581 H   0  0  0  0  0  0  0  0  0  0  0  0
   -9.0430   19.4160  -31.6970 C   0  0  0  0  0  0  0  0  0  0  0  0
   -8.5770   20.6840  -32.0510 C   0  0  0  0  0  0  0  0  0  0  0  0
   -9.2114   21.5675  -31.8865 H   0  0  0  0  0  0  0  0  0  0  0  0
   -7.3060   20.8330  -32.6140 C   0  0  0  0  0  0  0  0  0  0  0  0
   -6.9444   21.8330  -32.8957 H   0  0  0  0  0  0  0  0  0  0  0  0
   -6.4890   19.7080  -32.8210 C   0  0  0  0  0  0  0  0  0  0  0  0
   -5.1460   19.8490  -33.4860 C   0  0  0  0  0  0  0  0  0  0  0  0
   -5.2369   20.5197  -34.3531 H   0  0  0  0  0  0  0  0  0  0  0  0
   -4.7998   18.8587  -33.8168 H   0  0  0  0  0  0  0  0  0  0  0  0
   -4.1780   20.4070  -32.5400 N   0  0  0  0  0  0  0  0  0  0  0  0
   -4.3950   20.5900  -31.2150 C   0  0  0  0  0  0  0  0  0  0  0  0
   -5.3647   20.4591  -30.7124 H   0  0  0  0  0  0  0  0  0  0  0  0
   -3.2160   20.9670  -30.5820 C   0  0  0  0  0  0  0  0  0  0  0  0
   -3.0310   21.1810  -29.1070 C   0  0  0  0  0  0  0  0  0  0  0  0
   -3.1959   20.2250  -28.5885 H   0  0  0  0  0  0  0  0  0  0  0  0
   -3.7547   21.9450  -28.7869 H   0  0  0  0  0  0  0  0  0  0  0  0
   -1.6240   21.6950  -28.7580 C   0  0  0  0  0  0  0  0  0  0  0  0
   -1.1081   21.9599  -29.6927 H   0  0  0  0  0  0  0  0  0  0  0  0
   -1.1107   20.8893  -28.2127 H   0  0  0  0  0  0  0  0  0  0  0  0
   -1.6330   22.9330  -27.8370 C   0  0  0  0  0  0  0  0  0  0  0  0
   -0.8743   22.7984  -27.0520 H   0  0  0  0  0  0  0  0  0  0  0  0
   -2.6389   23.0286  -27.4022 H   0  0  0  0  0  0  0  0  0  0  0  0
   -1.3280   24.2020  -28.6000 C   0  0  0  0  0  0  0  0  0  0  0  0
   -0.1310   24.5880  -28.6680 O   0  0  0  0  0  0  0  0  0  0  0  0
   -2.3240   24.9550  -29.3100 N   0  0  0  0  0  0  0  0  0  0  0  0
   -3.5190   24.5700  -29.6460 C   0  0  0  0  0  0  0  0  0  0  0  0
   -3.9750   24.4710  -30.9090 N   0  0  0  0  0  0  0  0  0  0  0  0
   -5.2180   24.0240  -30.8280 N   0  0  0  0  0  0  0  0  0  0  0  0
   -6.0980   23.8660  -31.9770 C   0  0  0  0  0  0  0  0  0  0  0  0
   -7.1252   23.6816  -31.6295 H   0  0  0  0  0  0  0  0  0  0  0  0
   -6.0755   24.7825  -32.5848 H   0  0  0  0  0  0  0  0  0  0  0  0
   -5.7581   23.0145  -32.5848 H   0  0  0  0  0  0  0  0  0  0  0  0
   -5.5650   23.8440  -29.5390 C   0  0  0  0  0  0  0  0  0  0  0  0
   -6.5442   23.4945  -29.1798 H   0  0  0  0  0  0  0  0  0  0  0  0
   -4.4850   24.1720  -28.7450 C   0  0  0  0  0  0  0  0  0  0  0  0
   -4.4114   24.1266  -27.6484 H   0  0  0  0  0  0  0  0  0  0  0  0
   -2.2500   21.0010  -31.5700 C   0  0  0  0  0  0  0  0  0  0  0  0
   -0.8790   21.2590  -31.5070 C   0  0  0  0  0  0  0  0  0  0  0  0
   -0.3944   21.5213  -30.5550 H   0  0  0  0  0  0  0  0  0  0  0  0
   -0.1370   21.1730  -32.6990 C   0  0  0  0  0  0  0  0  0  0  0  0
    0.9442   21.3752  -32.6856 H   0  0  0  0  0  0  0  0  0  0  0  0
   -0.7710   20.8290  -33.9120 C   0  0  0  0  0  0  0  0  0  0  0  0
   -0.1811   20.7692  -34.8385 H   0  0  0  0  0  0  0  0  0  0  0  0
   -2.1520   20.5620  -33.9450 C   0  0  0  0  0  0  0  0  0  0  0  0
   -2.6532   20.2866  -34.8847 H   0  0  0  0  0  0  0  0  0  0  0  0
   -2.8680   20.6570  -32.7490 C   0  0  0  0  0  0  0  0  0  0  0  0
   -6.9650   18.4370  -32.4620 C   0  0  0  0  0  0  0  0  0  0  0  0
   -6.3343   17.5504  -32.6236 H   0  0  0  0  0  0  0  0  0  0  0  0
   -8.2370   18.2930  -31.9000 C   0  0  0  0  0  0  0  0  0  0  0  0
   -8.6034   17.2950  -31.6175 H   0  0  0  0  0  0  0  0  0  0  0  0
  1  2  1  0
  2  3  2  0
  3  4  1  0
  3  5  1  0
  5  6  1  0
  5  7  2  0
  7  8  1  0
  8  9  1  0
  8 10  1  0
  8 11  1  0
 11 12  1  0
 12 13  1  0
 12 14  2  0
 14 15  1  0
 15 16  1  0
 15 17  1  0
 15 18  1  0
 18 19  1  0
 18 20  1  0
 18 21  1  0
 21 22  1  0
 21 23  1  0
 21 24  1  0
 24 25  2  0
 24 26  1  0
 26 27  2  0
 27 28  1  0
 28 29  1  0
 29 30  1  0
 30 31  1  0
 30 32  1  0
 30 33  1  0
 29 34  1  0
 34 35  1  0
 34 36  2  0
 36 37  1  0
 14 38  1  0
 38 39  2  0
 39 40  1  0
 39 41  1  0
 41 42  1  0
 41 43  2  0
 43 44  1  0
 43 45  1  0
 45 46  1  0
 45 47  2  0
  7 48  1  0
 48 49  1  0
 48 50  2  0
 50 51  1  0
 50  2  1  0
 47 11  1  0
 36 27  1  0
 47 38  1  0
M  CHG  1  28  -1
M  END
>  <UniqueID>  (12) 
12

>  <SMILES>  (12) 
Cn1cc/c(=N/C(=O)CCCc2cn(Cc3ccccc3)c3ccccc23)[n-]1

>  <Energy>  (12) 
110.87467984912561

>  <Genealogy>  (12) 
Cn1ccc(=NC(=O)CCCc2cn(Cc3ccccc3)c3ccccc23)[n-]1 (protonated)
Cn1cc/c(=N/C(=O)CCCc2cn(Cc3ccccc3)c3ccccc23)[n-]1 (cis-trans isomerization)
Cn1cc/c(=N/C(=O)CCCc2cn(Cc3ccccc3)c3ccccc23)[n-]1 (3D coordinates assigned)
Cn1cc/c(=N/C(=O)CCCc2cn(Cc3ccccc3)c3ccccc23)[n-]1 (optimized conformer: 110.87467984912561 kcal/mol)

>  <smiles>  (12) 
Cn1ccc(=NC(=O)CCCc2cn(Cc3ccccc3)c3ccccc23)[nH]1

>  <score_type>  (12) 
oracle

>  <origin>  (12) 
adg

>  <m_score__min__energy>  (12) 
-11.31

>  <m_primary>  (12) 
energy

$$$$
12:0
     RDKit          3D

 39 41  0  0  0  0  0  0  0  0999 V2000
    0.1460   20.2930  -27.6430 C   0  0  0  0  0  0  0  0  0  0  0  0
   -0.7550   21.2640  -27.1190 O   0  0  0  0  0  0  0  0  0  0  0  0
   -1.5840   22.0880  -27.8990 C   0  0  0  0  0  0  0  0  0  0  0  0
   -1.3330   23.4610  -28.0510 C   0  0  0  0  0  0  0  0  0  0  0  0
   -2.1720   24.2720  -28.8350 C   0  0  0  0  0  0  0  0  0  0  0  0
   -1.9170   25.6460  -28.9880 O   0  0  0  0  0  0  0  0  0  0  0  0
   -1.0340   26.4100  -28.1710 C   0  0  0  0  0  0  0  0  0  0  0  0
   -3.2890   23.6900  -29.4770 C   0  0  0  0  0  0  0  0  0  0  0  0
   -4.1750   24.4370  -30.2870 C   0  0  0  0  0  0  0  0  0  0  0  0
   -4.0090   25.6710  -30.4840 O   0  0  0  0  0  0  0  0  0  0  0  0
   -5.2600   23.8030  -30.8880 C   0  0  0  0  0  0  0  0  0  0  0  0
   -5.4580   22.4360  -30.6750 C   0  0  0  0  0  0  0  0  0  0  0  0
   -6.5850   21.7160  -31.3000 C   0  0  0  0  0  0  0  0  0  0  0  0
   -7.8900   22.0160  -30.8740 C   0  0  0  0  0  0  0  0  0  0  0  0
   -8.9880   21.3580  -31.4320 C   0  0  0  0  0  0  0  0  0  0  0  0
   -8.7980   20.4020  -32.4300 C   0  0  0  0  0  0  0  0  0  0  0  0
   -7.5090   20.1090  -32.8810 C   0  0  0  0  0  0  0  0  0  0  0  0
   -6.3990   20.7630  -32.3290 C   0  0  0  0  0  0  0  0  0  0  0  0
   -4.8130   20.4210  -33.0160 Cl  0  0  0  0  0  0  0  0  0  0  0  0
   -4.6000   21.7560  -29.9230 O   0  0  0  0  0  0  0  0  0  0  0  0
   -3.5460   22.3020  -29.3230 C   0  0  0  0  0  0  0  0  0  0  0  0
   -2.6880   21.5020  -28.5320 C   0  0  0  0  0  0  0  0  0  0  0  0
   -2.8730   20.1200  -28.3320 O   0  0  0  0  0  0  0  0  0  0  0  0
   -3.1030   19.4660  -27.0880 C   0  0  0  0  0  0  0  0  0  0  0  0
    0.6374   19.7634  -26.8135 H   0  0  0  0  0  0  0  0  0  0  0  0
   -0.4102   19.5720  -28.2601 H   0  0  0  0  0  0  0  0  0  0  0  0
    0.9065   20.7938  -28.2601 H   0  0  0  0  0  0  0  0  0  0  0  0
   -0.4642   23.9102  -27.5476 H   0  0  0  0  0  0  0  0  0  0  0  0
   -1.2564   26.2175  -27.1111 H   0  0  0  0  0  0  0  0  0  0  0  0
    0.0057   26.1219  -28.3857 H   0  0  0  0  0  0  0  0  0  0  0  0
   -1.1697   27.4803  -28.3857 H   0  0  0  0  0  0  0  0  0  0  0  0
   -5.9539   24.3725  -31.5238 H   0  0  0  0  0  0  0  0  0  0  0  0
   -8.0480   22.7757  -30.0943 H   0  0  0  0  0  0  0  0  0  0  0  0
  -10.0045   21.5939  -31.0840 H   0  0  0  0  0  0  0  0  0  0  0  0
   -9.6638   19.8787  -32.8620 H   0  0  0  0  0  0  0  0  0  0  0  0
   -7.3641   19.3606  -33.6740 H   0  0  0  0  0  0  0  0  0  0  0  0
   -2.8617   20.1522  -26.2629 H   0  0  0  0  0  0  0  0  0  0  0  0
   -4.1598   19.1683  -27.0201 H   0  0  0  0  0  0  0  0  0  0  0  0
   -2.4652   18.5723  -27.0201 H   0  0  0  0  0  0  0  0  0  0  0  0
  1  2  1  0
  2  3  1  0
  3  4  2  0
  4  5  1  0
  5  6  1  0
  6  7  1  0
  5  8  2  0
  8  9  1  0
  9 10  2  0
  9 11  1  0
 11 12  2  0
 12 13  1  0
 13 14  2  0
 14 15  1  0
 15 16  2  0
 16 17  1  0
 17 18  2  0
 18 19  1  0
 12 20  1  0
 20 21  1  0
 21 22  2  0
 22 23  1  0
 23 24  1  0
 22  3  1  0
 21  8  1  0
 18 13  1  0
  1 25  1  0
  1 26  1  0
  1 27  1  0
  4 28  1  0
  7 29  1  0
  7 30  1  0
  7 31  1  0
 11 32  1  0
 14 33  1  0
 15 34  1  0
 16 35  1  0
 17 36  1  0
 24 37  1  0
 24 38  1  0
 24 39  1  0
M  END
>  <UniqueID>  (13) 
13

>  <SMILES>  (13) 
COc1cc(OC)c2c(=O)cc(-c3ccccc3Cl)oc2c1OC

>  <Energy>  (13) 
56.12103159567768

>  <Genealogy>  (13) 
COc1cc(OC)c2c(=O)cc(-c3ccccc3Cl)oc2c1OC (3D coordinates assigned)
COc1cc(OC)c2c(=O)cc(-c3ccccc3Cl)oc2c1OC (optimized conformer: 56.12103159567768 kcal/mol)

>  <smiles>  (13) 
COc1cc(OC)c2c(=O)cc(-c3ccccc3Cl)oc2c1OC

>  <score_type>  (13) 
oracle

>  <origin>  (13) 
adg

>  <m_score__min__energy>  (13) 
-7.9699999999999998

>  <m_primary>  (13) 
energy

$$$$
13:0
     RDKit          3D

 68 70  0  0  0  0  0  0  0  0999 V2000
   -2.3960   21.2370  -27.4870 C   0  0  0  0  0  0  0  0  0  0  0  0
   -1.2460   21.7520  -26.6190 C   0  0  0  0  0  0  0  0  0  0  0  0
   -1.1160   23.2290  -26.5820 N   0  0  0  0  0  0  0  0  0  0  0  0
   -0.3020   23.7770  -25.4710 C   0  0  0  0  0  0  0  0  0  0  0  0
   -0.1520   22.8450  -24.2550 C   0  0  0  0  0  0  0  0  0  0  0  0
   -2.3380   23.9910  -26.9200 C   0  0  0  0  0  0  0  0  0  0  0  0
   -1.9840   25.2990  -27.6410 C   0  0  0  0  0  0  0  0  0  0  0  0
   -1.7840   25.0500  -29.0650 N   0  0  0  0  0  0  0  0  0  0  0  0
   -1.8240   23.7420  -29.6480 C   0  0  0  0  0  0  0  0  0  0  0  0
   -0.8150   22.9870  -29.5580 O   0  0  0  0  0  0  0  0  0  0  0  0
   -3.0290   23.2850  -30.3770 C   0  0  0  0  0  0  0  0  0  0  0  0
   -4.3130   23.5780  -29.8930 C   0  0  0  0  0  0  0  0  0  0  0  0
   -5.4440   23.1890  -30.6110 C   0  0  0  0  0  0  0  0  0  0  0  0
   -5.3210   22.5240  -31.8360 C   0  0  0  0  0  0  0  0  0  0  0  0
   -6.8360   22.0720  -32.6970 S   0  0  0  0  0  0  0  0  0  0  0  0
   -6.4190   20.3260  -32.7200 C   0  0  0  0  0  0  0  0  0  0  0  0
   -6.4710   19.6020  -33.9210 C   0  0  0  0  0  0  0  0  0  0  0  0
   -6.1460   18.2470  -33.9360 C   0  0  0  0  0  0  0  0  0  0  0  0
   -5.7840   17.5950  -32.7500 C   0  0  0  0  0  0  0  0  0  0  0  0
   -5.4020   15.8870  -32.7700 Cl  0  0  0  0  0  0  0  0  0  0  0  0
   -5.7410   18.3110  -31.5480 C   0  0  0  0  0  0  0  0  0  0  0  0
   -6.0580   19.6750  -31.5330 C   0  0  0  0  0  0  0  0  0  0  0  0
   -4.0320   22.2460  -32.3600 C   0  0  0  0  0  0  0  0  0  0  0  0
   -3.8460   21.6490  -33.6670 N   0  0  0  0  0  0  0  0  0  0  0  0
   -3.5840   20.1980  -33.5930 C   0  0  0  0  0  0  0  0  0  0  0  0
   -2.8130   19.7870  -32.3250 C   0  0  0  0  0  0  0  0  0  0  0  0
   -1.4840   19.2620  -32.7230 N   0  0  0  0  0  0  0  0  0  0  0  0
   -1.3270   19.1610  -34.1940 C   0  0  0  0  0  0  0  0  0  0  0  0
   -0.7460   20.4490  -34.8110 C   0  0  0  0  0  0  0  0  0  0  0  0
   -0.9470   21.5530  -33.9500 O   0  0  0  0  0  0  0  0  0  0  0  0
   -0.1750   21.3930  -32.7710 C   0  0  0  0  0  0  0  0  0  0  0  0
   -0.3650   20.0060  -32.1140 C   0  0  0  0  0  0  0  0  0  0  0  0
   -2.9010   22.5980  -31.5970 C   0  0  0  0  0  0  0  0  0  0  0  0
   -3.2085   20.8731  -26.8409 H   0  0  0  0  0  0  0  0  0  0  0  0
   -2.7702   22.0535  -28.1220 H   0  0  0  0  0  0  0  0  0  0  0  0
   -2.0360   20.4141  -28.1220 H   0  0  0  0  0  0  0  0  0  0  0  0
   -1.4056   21.3954  -25.5907 H   0  0  0  0  0  0  0  0  0  0  0  0
   -0.3186   21.3679  -27.0689 H   0  0  0  0  0  0  0  0  0  0  0  0
    0.7035   23.9955  -25.8599 H   0  0  0  0  0  0  0  0  0  0  0  0
   -0.8338   24.6700  -25.1109 H   0  0  0  0  0  0  0  0  0  0  0  0
   -0.2464   23.4318  -23.3294 H   0  0  0  0  0  0  0  0  0  0  0  0
   -0.9379   22.0759  -24.2833 H   0  0  0  0  0  0  0  0  0  0  0  0
    0.8355   22.3613  -24.2833 H   0  0  0  0  0  0  0  0  0  0  0  0
   -2.9747   23.3789  -27.5757 H   0  0  0  0  0  0  0  0  0  0  0  0
   -2.8697   24.2351  -25.9885 H   0  0  0  0  0  0  0  0  0  0  0  0
   -2.8043   26.0200  -27.5097 H   0  0  0  0  0  0  0  0  0  0  0  0
   -1.0556   25.7053  -27.2133 H   0  0  0  0  0  0  0  0  0  0  0  0
   -4.4285   24.1178  -28.9415 H   0  0  0  0  0  0  0  0  0  0  0  0
   -6.4445   23.4076  -30.2094 H   0  0  0  0  0  0  0  0  0  0  0  0
   -6.7690   20.1052  -34.8527 H   0  0  0  0  0  0  0  0  0  0  0  0
   -6.1738   17.6873  -34.8825 H   0  0  0  0  0  0  0  0  0  0  0  0
   -5.4581   17.8021  -30.6148 H   0  0  0  0  0  0  0  0  0  0  0  0
   -6.0235   20.2363  -30.5876 H   0  0  0  0  0  0  0  0  0  0  0  0
   -3.0690   22.0920  -34.2070 H   0  0  0  0  0  0  0  0  0  0  0  0
   -4.7240   21.7910  -34.2250 H   0  0  0  0  0  0  0  0  0  0  0  0
   -4.5475   19.6673  -33.6043 H   0  0  0  0  0  0  0  0  0  0  0  0
   -2.9577   19.9334  -34.4577 H   0  0  0  0  0  0  0  0  0  0  0  0
   -2.6841   20.6619  -31.6708 H   0  0  0  0  0  0  0  0  0  0  0  0
   -3.3735   19.0122  -31.7813 H   0  0  0  0  0  0  0  0  0  0  0  0
   -0.6504   18.3239  -34.4207 H   0  0  0  0  0  0  0  0  0  0  0  0
   -2.3248   19.0006  -34.6284 H   0  0  0  0  0  0  0  0  0  0  0  0
    0.3328   20.3139  -34.9785 H   0  0  0  0  0  0  0  0  0  0  0  0
   -1.2594   20.6465  -35.7636 H   0  0  0  0  0  0  0  0  0  0  0  0
    0.8875   21.5181  -33.0269 H   0  0  0  0  0  0  0  0  0  0  0  0
   -0.5127   22.1507  -32.0486 H   0  0  0  0  0  0  0  0  0  0  0  0
    0.5597   19.4233  -32.2378 H   0  0  0  0  0  0  0  0  0  0  0  0
   -0.5948   20.1597  -31.0493 H   0  0  0  0  0  0  0  0  0  0  0  0
   -1.8988   22.3302  -31.9628 H   0  0  0  0  0  0  0  0  0  0  0  0
  1  2  1  0
  2  3  1  0
  3  4  1  0
  4  5  1  0
  3  6  1  0
  6  7  1  0
  7  8  1  0
  8  9  1  0
  9 10  2  0
  9 11  1  0
 11 12  2  0
 12 13  1  0
 13 14  2  0
 14 15  1  0
 15 16  1  0
 16 17  2  0
 17 18  1  0
 18 19  2  0
 19 20  1  0
 19 21  1  0
 21 22  2  0
 14 23  1  0
 23 24  1  0
 24 25  1  0
 25 26  1  0
 26 27  1  0
 27 28  1  0
 28 29  1  0
 29 30  1  0
 30 31  1  0
 31 32  1  0
 23 33  2  0
 33 11  1  0
 22 16  1  0
 32 27  1  0
  1 34  1  0
  1 35  1  0
  1 36  1  0
  2 37  1  0
  2 38  1  0
  4 39  1  0
  4 40  1  0
  5 41  1  0
  5 42  1  0
  5 43  1  0
  6 44  1  0
  6 45  1  0
  7 46  1  0
  7 47  1  0
 12 48  1  0
 13 49  1  0
 17 50  1  0
 18 51  1  0
 21 52  1  0
 22 53  1  0
 24 54  1  0
 24 55  1  0
 25 56  1  0
 25 57  1  0
 26 58  1  0
 26 59  1  0
 28 60  1  0
 28 61  1  0
 29 62  1  0
 29 63  1  0
 31 64  1  0
 31 65  1  0
 32 66  1  0
 32 67  1  0
 33 68  1  0
M  CHG  2   8  -1  24   1
M  END
>  <UniqueID>  (14) 
14

>  <SMILES>  (14) 
CCN(CC)CC[N-]C(=O)c1ccc(Sc2ccc(Cl)cc2)c([NH2+]CCN2CCOCC2)c1

>  <Energy>  (14) 
84.58369966952645

>  <Genealogy>  (14) 
CCN(CC)CC[N-]C(=O)c1ccc(Sc2ccc(Cl)cc2)c([NH2+]CCN2CCOCC2)c1 (protonated)
CCN(CC)CC[N-]C(=O)c1ccc(Sc2ccc(Cl)cc2)c([NH2+]CCN2CCOCC2)c1 (3D coordinates assigned)
CCN(CC)CC[N-]C(=O)c1ccc(Sc2ccc(Cl)cc2)c([NH2+]CCN2CCOCC2)c1 (nonaromatic ring conformer: 84.58369966952645 kcal/mol)

>  <smiles>  (14) 
CCN(CC)CCNC(=O)c1ccc(Sc2ccc(Cl)cc2)c(NCCN2CCOCC2)c1

>  <score_type>  (14) 
oracle

>  <origin>  (14) 
adg

>  <m_score__min__energy>  (14) 
-8.9600000000000009

>  <m_primary>  (14) 
energy

$$$$
14:0
     RDKit          3D

 41 43  0  0  0  0  0  0  0  0999 V2000
   -6.4660   17.1750  -31.6800 C   0  0  0  0  0  0  0  0  0  0  0  0
   -7.2070   18.0430  -32.6920 C   0  0  0  0  0  0  0  0  0  0  0  0
   -6.6850   19.4140  -32.6640 N   0  0  0  0  0  0  0  0  0  0  0  0
   -5.4150   19.8130  -32.9090 C   0  0  0  0  0  0  0  0  0  0  0  0
   -4.3300   19.0110  -33.2740 C   0  0  0  0  0  0  0  0  0  0  0  0
   -3.0850   19.6220  -33.4690 C   0  0  0  0  0  0  0  0  0  0  0  0
   -2.9230   21.0130  -33.2930 C   0  0  0  0  0  0  0  0  0  0  0  0
   -1.6500   21.5610  -33.5020 O   0  0  0  0  0  0  0  0  0  0  0  0
   -0.5720   20.8780  -34.1330 C   0  0  0  0  0  0  0  0  0  0  0  0
   -4.0340   21.8040  -32.9140 C   0  0  0  0  0  0  0  0  0  0  0  0
   -5.2730   21.1780  -32.7290 C   0  0  0  0  0  0  0  0  0  0  0  0
   -6.5230   21.6560  -32.3380 C   0  0  0  0  0  0  0  0  0  0  0  0
   -7.0040   22.9410  -31.9980 C   0  0  0  0  0  0  0  0  0  0  0  0
   -6.1010   24.1590  -32.0550 C   0  0  0  0  0  0  0  0  0  0  0  0
   -5.4880   24.5440  -30.7420 C   0  0  0  0  0  0  0  0  0  0  0  0
   -6.2160   24.6570  -29.7180 O   0  0  0  0  0  0  0  0  0  0  0  0
   -4.1050   24.7300  -30.6570 O   0  0  0  0  0  0  0  0  0  0  0  0
   -3.2400   23.7790  -30.0480 C   0  0  0  0  0  0  0  0  0  0  0  0
   -8.3630   23.0290  -31.5950 C   0  0  0  0  0  0  0  0  0  0  0  0
   -9.1840   21.8890  -31.5480 C   0  0  0  0  0  0  0  0  0  0  0  0
   -8.6830   20.6320  -31.9010 C   0  0  0  0  0  0  0  0  0  0  0  0
   -7.3490   20.5380  -32.3000 C   0  0  0  0  0  0  0  0  0  0  0  0
   -6.7346   17.4897  -30.6608 H   0  0  0  0  0  0  0  0  0  0  0  0
   -6.7476   16.1215  -31.8247 H   0  0  0  0  0  0  0  0  0  0  0  0
   -5.3814   17.2878  -31.8247 H   0  0  0  0  0  0  0  0  0  0  0  0
   -7.0705   17.6230  -33.6995 H   0  0  0  0  0  0  0  0  0  0  0  0
   -8.2761   18.0613  -32.4337 H   0  0  0  0  0  0  0  0  0  0  0  0
   -4.4511   17.9256  -33.4050 H   0  0  0  0  0  0  0  0  0  0  0  0
   -2.2206   19.0088  -33.7637 H   0  0  0  0  0  0  0  0  0  0  0  0
    0.0939   20.4561  -33.3659 H   0  0  0  0  0  0  0  0  0  0  0  0
   -0.9692   20.0664  -34.7603 H   0  0  0  0  0  0  0  0  0  0  0  0
   -0.0078   21.5838  -34.7603 H   0  0  0  0  0  0  0  0  0  0  0  0
   -3.9263   22.8889  -32.7677 H   0  0  0  0  0  0  0  0  0  0  0  0
   -5.2874   23.9499  -32.7652 H   0  0  0  0  0  0  0  0  0  0  0  0
   -6.7357   25.0033  -32.3620 H   0  0  0  0  0  0  0  0  0  0  0  0
   -3.3158   23.8623  -28.9538 H   0  0  0  0  0  0  0  0  0  0  0  0
   -3.5321   22.7653  -30.3596 H   0  0  0  0  0  0  0  0  0  0  0  0
   -2.2032   23.9740  -30.3596 H   0  0  0  0  0  0  0  0  0  0  0  0
   -8.7807   24.0072  -31.3145 H   0  0  0  0  0  0  0  0  0  0  0  0
  -10.2325   21.9867  -31.2299 H   0  0  0  0  0  0  0  0  0  0  0  0
   -9.3247   19.7393  -31.8650 H   0  0  0  0  0  0  0  0  0  0  0  0
  1  2  1  0
  2  3  1  0
  3  4  1  0
  4  5  2  0
  5  6  1  0
  6  7  2  0
  7  8  1  0
  8  9  1  0
  7 10  1  0
 10 11  2  0
 11 12  1  0
 12 13  2  0
 13 14  1  0
 14 15  1  0
 15 16  2  0
 15 17  1  0
 17 18  1  0
 13 19  1  0
 19 20  2  0
 20 21  1  0
 21 22  2  0
 22  3  1  0
 11  4  1  0
 22 12  1  0
  1 23  1  0
  1 24  1  0
  1 25  1  0
  2 26  1  0
  2 27  1  0
  5 28  1  0
  6 29  1  0
  9 30  1  0
  9 31  1  0
  9 32  1  0
 10 33  1  0
 14 34  1  0
 14 35  1  0
 18 36  1  0
 18 37  1  0
 18 38  1  0
 19 39  1  0
 20 40  1  0
 21 41  1  0
M  END
>  <UniqueID>  (15) 
15

>  <SMILES>  (15) 
CCn1c2ccc(OC)cc2c2c(CC(=O)OC)cccc21

>  <Energy>  (15) 
82.03271063615453

>  <Genealogy>  (15) 
CCn1c2ccc(OC)cc2c2c(CC(=O)OC)cccc21 (3D coordinates assigned)
CCn1c2ccc(OC)cc2c2c(CC(=O)OC)cccc21 (optimized conformer: 82.03271063615453 kcal/mol)

>  <smiles>  (15) 
CCn1c2ccc(OC)cc2c2c(CC(=O)OC)cccc21

>  <score_type>  (15) 
oracle

>  <origin>  (15) 
adg

>  <m_score__min__energy>  (15) 
-7.9500000000000002

>  <m_primary>  (15) 
energy

$$$$
15:0
     RDKit          3D

 42 45  0  0  0  0  0  0  0  0999 V2000
   -9.3220   18.2100  -31.9710 C   0  0  0  0  0  0  0  0  0  0  0  0
   -8.5660   19.1090  -32.7750 O   0  0  0  0  0  0  0  0  0  0  0  0
   -7.6400   20.0360  -32.2710 C   0  0  0  0  0  0  0  0  0  0  0  0
   -7.9080   21.4270  -32.2580 C   0  0  0  0  0  0  0  0  0  0  0  0
   -6.9460   22.2930  -31.7440 C   0  0  0  0  0  0  0  0  0  0  0  0
   -5.7500   21.8070  -31.2550 C   0  0  0  0  0  0  0  0  0  0  0  0
   -5.4510   20.4490  -31.2500 C   0  0  0  0  0  0  0  0  0  0  0  0
   -6.4100   19.5470  -31.7660 C   0  0  0  0  0  0  0  0  0  0  0  0
   -6.1830   18.1630  -31.7970 O   0  0  0  0  0  0  0  0  0  0  0  0
   -5.9870   17.4050  -32.9870 C   0  0  0  0  0  0  0  0  0  0  0  0
   -4.9730   22.9310  -30.7980 C   0  0  0  0  0  0  0  0  0  0  0  0
   -3.7380   22.9370  -30.2440 N   0  0  0  0  0  0  0  0  0  0  0  0
   -3.1780   24.1310  -29.8790 C   0  0  0  0  0  0  0  0  0  0  0  0
   -1.8610   24.1650  -29.2860 N   0  0  0  0  0  0  0  0  0  0  0  0
   -0.8810   23.1250  -29.6280 C   0  0  0  0  0  0  0  0  0  0  0  0
    0.1860   23.0120  -28.5350 C   0  0  0  0  0  0  0  0  0  0  0  0
    0.7330   24.2800  -28.2340 O   0  0  0  0  0  0  0  0  0  0  0  0
   -0.2650   25.0960  -27.6530 C   0  0  0  0  0  0  0  0  0  0  0  0
   -1.3740   25.4030  -28.6640 C   0  0  0  0  0  0  0  0  0  0  0  0
   -3.8750   25.2940  -30.0810 N   0  0  0  0  0  0  0  0  0  0  0  0
   -5.1190   25.2980  -30.6380 C   0  0  0  0  0  0  0  0  0  0  0  0
   -5.7360   26.3830  -30.8120 O   0  0  0  0  0  0  0  0  0  0  0  0
   -5.6870   24.0850  -31.0080 C   0  0  0  0  0  0  0  0  0  0  0  0
   -7.0210   23.7940  -31.6350 C   0  0  0  0  0  0  0  0  0  0  0  0
   -9.1397   18.4268  -30.9081 H   0  0  0  0  0  0  0  0  0  0  0  0
  -10.3926   18.3323  -32.1918 H   0  0  0  0  0  0  0  0  0  0  0  0
   -9.0179   17.1762  -32.1918 H   0  0  0  0  0  0  0  0  0  0  0  0
   -8.8601   21.8166  -32.6474 H   0  0  0  0  0  0  0  0  0  0  0  0
   -4.4914   20.0851  -30.8541 H   0  0  0  0  0  0  0  0  0  0  0  0
   -5.7197   16.3711  -32.7233 H   0  0  0  0  0  0  0  0  0  0  0  0
   -6.9145   17.4044  -33.5783 H   0  0  0  0  0  0  0  0  0  0  0  0
   -5.1754   17.8541  -33.5783 H   0  0  0  0  0  0  0  0  0  0  0  0
   -1.3984   22.1596  -29.7297 H   0  0  0  0  0  0  0  0  0  0  0  0
   -0.3920   23.3953  -30.5755 H   0  0  0  0  0  0  0  0  0  0  0  0
   -0.2711   22.5917  -27.6270 H   0  0  0  0  0  0  0  0  0  0  0  0
    0.9925   22.3570  -28.8963 H   0  0  0  0  0  0  0  0  0  0  0  0
   -0.6999   24.5732  -26.7884 H   0  0  0  0  0  0  0  0  0  0  0  0
    0.1951   26.0436  -27.3361 H   0  0  0  0  0  0  0  0  0  0  0  0
   -2.2077   25.9003  -28.1467 H   0  0  0  0  0  0  0  0  0  0  0  0
   -0.9684   26.0591  -29.4482 H   0  0  0  0  0  0  0  0  0  0  0  0
   -7.8524   24.1141  -30.9898 H   0  0  0  0  0  0  0  0  0  0  0  0
   -7.2065   24.3158  -32.5854 H   0  0  0  0  0  0  0  0  0  0  0  0
  1  2  1  0
  2  3  1  0
  3  4  2  0
  4  5  1  0
  5  6  2  0
  6  7  1  0
  7  8  2  0
  8  9  1  0
  9 10  1  0
  6 11  1  0
 11 12  1  0
 12 13  1  0
 13 14  1  0
 14 15  1  0
 15 16  1  0
 16 17  1  0
 17 18  1  0
 18 19  1  0
 13 20  2  0
 20 21  1  0
 21 22  2  0
 21 23  1  0
 23 24  1  0
  8  3  1  0
 23 11  2  0
 24  5  1  0
 19 14  1  0
  1 25  1  0
  1 26  1  0
  1 27  1  0
  4 28  1  0
  7 29  1  0
 10 30  1  0
 10 31  1  0
 10 32  1  0
 15 33  1  0
 15 34  1  0
 16 35  1  0
 16 36  1  0
 18 37  1  0
 18 38  1  0
 19 39  1  0
 19 40  1  0
 24 41  1  0
 24 42  1  0
M  CHG  1  12  -1
M  END
>  <UniqueID>  (16) 
16

>  <SMILES>  (16) 
COc1cc2c(cc1OC)-c1[n-]c(N3CCOCC3)nc(=O)c1C2

>  <Energy>  (16) 
70.78973075283767

>  <Genealogy>  (16) 
COc1cc2c(cc1OC)-c1[n-]c(N3CCOCC3)nc(=O)c1C2 (protonated)
COc1cc2c(cc1OC)-c1[n-]c(N3CCOCC3)nc(=O)c1C2 (3D coordinates assigned)
COc1cc2c(cc1OC)-c1[n-]c(N3CCOCC3)nc(=O)c1C2 (nonaromatic ring conformer: 70.78973075283767 kcal/mol)

>  <smiles>  (16) 
COc1cc2c(cc1OC)-c1[nH]c(N3CCOCC3)nc(=O)c1C2

>  <score_type>  (16) 
oracle

>  <origin>  (16) 
adg

>  <m_score__min__energy>  (16) 
-8.4700000000000006

>  <m_primary>  (16) 
energy

$$$$
16:0
     RDKit          3D

 36 38  0  0  0  0  0  0  0  0999 V2000
   -6.4860   18.1320  -33.3340 C   0  0  0  0  0  0  0  0  0  0  0  0
   -7.5340   18.6230  -32.5060 O   0  0  0  0  0  0  0  0  0  0  0  0
   -7.5910   19.9250  -31.9870 C   0  0  0  0  0  0  0  0  0  0  0  0
   -8.7360   20.4330  -31.3440 C   0  0  0  0  0  0  0  0  0  0  0  0
   -8.7390   21.7350  -30.8390 C   0  0  0  0  0  0  0  0  0  0  0  0
   -7.6070   22.5430  -30.9720 C   0  0  0  0  0  0  0  0  0  0  0  0
   -6.4640   22.0520  -31.6170 C   0  0  0  0  0  0  0  0  0  0  0  0
   -5.0280   23.0640  -31.7570 S   0  0  0  0  0  0  0  0  0  0  0  0
   -4.2450   22.6570  -32.9730 O   0  0  0  0  0  0  0  0  0  0  0  0
   -5.4680   24.4930  -31.9220 O   0  0  0  0  0  0  0  0  0  0  0  0
   -3.9950   22.9270  -30.3290 C   0  0  0  0  0  0  0  0  0  0  0  0
   -3.8230   21.6870  -29.6990 C   0  0  0  0  0  0  0  0  0  0  0  0
   -3.0060   21.5620  -28.5700 C   0  0  0  0  0  0  0  0  0  0  0  0
   -2.8540   20.3160  -27.9600 O   0  0  0  0  0  0  0  0  0  0  0  0
   -2.3420   22.6930  -28.0560 C   0  0  0  0  0  0  0  0  0  0  0  0
   -1.5170   22.5930  -26.9210 C   0  0  0  0  0  0  0  0  0  0  0  0
   -0.8620   23.7200  -26.4220 C   0  0  0  0  0  0  0  0  0  0  0  0
   -1.0200   24.9570  -27.0470 C   0  0  0  0  0  0  0  0  0  0  0  0
   -1.8350   25.0760  -28.1750 C   0  0  0  0  0  0  0  0  0  0  0  0
   -2.5040   23.9510  -28.6920 C   0  0  0  0  0  0  0  0  0  0  0  0
   -3.3290   24.0590  -29.8280 C   0  0  0  0  0  0  0  0  0  0  0  0
   -3.4860   25.2890  -30.4650 O   0  0  0  0  0  0  0  0  0  0  0  0
   -6.4600   20.7410  -32.1170 C   0  0  0  0  0  0  0  0  0  0  0  0
   -5.6695   17.7495  -32.7039 H   0  0  0  0  0  0  0  0  0  0  0  0
   -6.8702   17.3202  -33.9691 H   0  0  0  0  0  0  0  0  0  0  0  0
   -6.1081   18.9468  -33.9691 H   0  0  0  0  0  0  0  0  0  0  0  0
   -9.6311   19.8023  -31.2391 H   0  0  0  0  0  0  0  0  0  0  0  0
   -9.6353   22.1256  -30.3350 H   0  0  0  0  0  0  0  0  0  0  0  0
   -7.6130   23.5667  -30.5696 H   0  0  0  0  0  0  0  0  0  0  0  0
   -4.3372   20.8000  -30.0975 H   0  0  0  0  0  0  0  0  0  0  0  0
   -3.3620   20.0700  -27.1180 H   0  0  0  0  0  0  0  0  0  0  0  0
   -1.3873   21.6205  -26.4236 H   0  0  0  0  0  0  0  0  0  0  0  0
   -0.2195   23.6325  -25.5335 H   0  0  0  0  0  0  0  0  0  0  0  0
   -0.5009   25.8419  -26.6501 H   0  0  0  0  0  0  0  0  0  0  0  0
   -1.9547   26.0549  -28.6622 H   0  0  0  0  0  0  0  0  0  0  0  0
   -5.5606   20.3505  -32.6156 H   0  0  0  0  0  0  0  0  0  0  0  0
  1  2  1  0
  2  3  1  0
  3  4  2  0
  4  5  1  0
  5  6  2  0
  6  7  1  0
  7  8  1  0
  8  9  2  0
  8 10  2  0
  8 11  1  0
 11 12  2  0
 12 13  1  0
 13 14  1  0
 13 15  2  0
 15 16  1  0
 16 17  2  0
 17 18  1  0
 18 19  2  0
 19 20  1  0
 20 21  2  0
 21 22  1  0
  7 23  2  0
 23  3  1  0
 21 11  1  0
 20 15  1  0
  1 24  1  0
  1 25  1  0
  1 26  1  0
  4 27  1  0
  5 28  1  0
  6 29  1  0
 12 30  1  0
 14 31  1  0
 16 32  1  0
 17 33  1  0
 18 34  1  0
 19 35  1  0
 23 36  1  0
M  CHG  1  22  -1
M  END
>  <UniqueID>  (17) 
17

>  <SMILES>  (17) 
COc1cccc(S(=O)(=O)c2cc(O)c3ccccc3c2[O-])c1

>  <Energy>  (17) 
45.94830243803164

>  <Genealogy>  (17) 
COc1cccc(S(=O)(=O)c2cc(O)c3ccccc3c2[O-])c1 (protonated)
COc1cccc(S(=O)(=O)c2cc(O)c3ccccc3c2[O-])c1 (3D coordinates assigned)
COc1cccc(S(=O)(=O)c2cc(O)c3ccccc3c2[O-])c1 (optimized conformer: 45.94830243803164 kcal/mol)

>  <smiles>  (17) 
COc1cccc(S(=O)(=O)c2cc(O)c3ccccc3c2O)c1

>  <score_type>  (17) 
oracle

>  <origin>  (17) 
adg

>  <m_score__min__energy>  (17) 
-10.67

>  <m_primary>  (17) 
energy

$$$$
17:0
     RDKit          3D

 50 53  0  0  0  0  0  0  0  0999 V2000
   -4.0710   17.3700  -34.9490 C   0  0  0  0  0  0  0  0  0  0  0  0
   -5.2050   17.7340  -34.0370 C   0  0  0  0  0  0  0  0  0  0  0  0
   -5.8530   16.7450  -33.2860 C   0  0  0  0  0  0  0  0  0  0  0  0
   -6.9280   17.0790  -32.4610 C   0  0  0  0  0  0  0  0  0  0  0  0
   -7.3800   18.4000  -32.3850 C   0  0  0  0  0  0  0  0  0  0  0  0
   -8.7370   18.7620  -31.3230 Cl  0  0  0  0  0  0  0  0  0  0  0  0
   -6.7500   19.4030  -33.1530 C   0  0  0  0  0  0  0  0  0  0  0  0
   -7.2090   20.8410  -33.0860 C   0  0  0  0  0  0  0  0  0  0  0  0
   -6.6670   21.5010  -31.8810 N   0  0  0  0  0  0  0  0  0  0  0  0
   -5.1860   21.4340  -31.8560 C   0  0  0  0  0  0  0  0  0  0  0  0
   -4.6640   21.9350  -30.5020 C   0  0  0  0  0  0  0  0  0  0  0  0
   -5.2810   23.2250  -30.1790 N   0  0  0  0  0  0  0  0  0  0  0  0
   -6.4500   23.6280  -30.6960 C   0  0  0  0  0  0  0  0  0  0  0  0
   -6.7910   24.8400  -30.1470 C   0  0  0  0  0  0  0  0  0  0  0  0
   -5.8460   25.1950  -29.2550 N   0  0  0  0  0  0  0  0  0  0  0  0
   -4.9410   24.1860  -29.2810 C   0  0  0  0  0  0  0  0  0  0  0  0
   -3.6670   24.2530  -28.4660 C   0  0  0  0  0  0  0  0  0  0  0  0
   -2.4410   24.5400  -29.3520 C   0  0  0  0  0  0  0  0  0  0  0  0
   -1.1740   24.7790  -28.5060 C   0  0  0  0  0  0  0  0  0  0  0  0
   -1.1280   23.9450  -27.2090 C   0  0  0  0  0  0  0  0  0  0  0  0
   -1.9880   22.6800  -27.3050 C   0  0  0  0  0  0  0  0  0  0  0  0
   -3.4690   23.0280  -27.5350 C   0  0  0  0  0  0  0  0  0  0  0  0
   -7.1310   22.9060  -31.8180 C   0  0  0  0  0  0  0  0  0  0  0  0
   -5.6660   19.0580  -33.9780 C   0  0  0  0  0  0  0  0  0  0  0  0
   -3.1935   17.0883  -34.3485 H   0  0  0  0  0  0  0  0  0  0  0  0
   -4.3685   16.5222  -35.5836 H   0  0  0  0  0  0  0  0  0  0  0  0
   -3.8195   18.2325  -35.5836 H   0  0  0  0  0  0  0  0  0  0  0  0
   -5.5131   15.7006  -33.3467 H   0  0  0  0  0  0  0  0  0  0  0  0
   -7.4233   16.2974  -31.8662 H   0  0  0  0  0  0  0  0  0  0  0  0
   -6.8571   21.3754  -33.9808 H   0  0  0  0  0  0  0  0  0  0  0  0
   -8.3078   20.8621  -33.0395 H   0  0  0  0  0  0  0  0  0  0  0  0
   -4.8652   20.3929  -32.0082 H   0  0  0  0  0  0  0  0  0  0  0  0
   -4.7808   22.0685  -32.6580 H   0  0  0  0  0  0  0  0  0  0  0  0
   -4.9160   21.2036  -29.7200 H   0  0  0  0  0  0  0  0  0  0  0  0
   -3.5722   22.0578  -30.5563 H   0  0  0  0  0  0  0  0  0  0  0  0
   -7.6889   25.4250  -30.3951 H   0  0  0  0  0  0  0  0  0  0  0  0
   -3.7761   25.1105  -27.7857 H   0  0  0  0  0  0  0  0  0  0  0  0
   -2.2704   23.6793  -30.0154 H   0  0  0  0  0  0  0  0  0  0  0  0
   -2.6429   25.4507  -29.9350 H   0  0  0  0  0  0  0  0  0  0  0  0
   -0.2955   24.5214  -29.1158 H   0  0  0  0  0  0  0  0  0  0  0  0
   -1.1818   25.8377  -28.2074 H   0  0  0  0  0  0  0  0  0  0  0  0
   -0.0862   23.6514  -27.0131 H   0  0  0  0  0  0  0  0  0  0  0  0
   -1.5285   24.5653  -26.3936 H   0  0  0  0  0  0  0  0  0  0  0  0
   -1.6296   22.0657  -28.1442 H   0  0  0  0  0  0  0  0  0  0  0  0
   -1.9036   22.1295  -26.3564 H   0  0  0  0  0  0  0  0  0  0  0  0
   -3.9668   22.1586  -27.9892 H   0  0  0  0  0  0  0  0  0  0  0  0
   -3.9020   23.2850  -26.5570 H   0  0  0  0  0  0  0  0  0  0  0  0
   -8.2184   22.9221  -31.6529 H   0  0  0  0  0  0  0  0  0  0  0  0
   -6.8867   23.4066  -32.7665 H   0  0  0  0  0  0  0  0  0  0  0  0
   -5.1740   19.8335  -34.5835 H   0  0  0  0  0  0  0  0  0  0  0  0
  1  2  1  0
  2  3  2  0
  3  4  1  0
  4  5  2  0
  5  6  1  0
  5  7  1  0
  7  8  1  0
  8  9  1  0
  9 10  1  0
 10 11  1  0
 11 12  1  0
 12 13  1  0
 13 14  2  0
 14 15  1  0
 15 16  2  0
 16 17  1  0
 17 18  1  0
 18 19  1  0
 19 20  1  0
 20 21  1  0
 21 22  1  0
 13 23  1  0
  7 24  2  0
 24  2  1  0
 23  9  1  0
 16 12  1  0
 22 17  1  0
  1 25  1  0
  1 26  1  0
  1 27  1  0
  3 28  1  0
  4 29  1  0
  8 30  1  0
  8 31  1  0
 10 32  1  0
 10 33  1  0
 11 34  1  0
 11 35  1  0
 14 36  1  0
 17 37  1  0
 18 38  1  0
 18 39  1  0
 19 40  1  0
 19 41  1  0
 20 42  1  0
 20 43  1  0
 21 44  1  0
 21 45  1  0
 22 46  1  0
 22 47  1  0
 23 48  1  0
 23 49  1  0
 24 50  1  0
M  END
>  <UniqueID>  (18) 
18

>  <SMILES>  (18) 
Cc1ccc(Cl)c(CN2CCn3c(cnc3C3CCCCC3)C2)c1

>  <Energy>  (18) 
89.15173539828564

>  <Genealogy>  (18) 
Cc1ccc(Cl)c(CN2CCn3c(cnc3C3CCCCC3)C2)c1 (3D coordinates assigned)
Cc1ccc(Cl)c(CN2CCn3c(cnc3C3CCCCC3)C2)c1 (nonaromatic ring conformer: 89.15173539828564 kcal/mol)

>  <smiles>  (18) 
Cc1ccc(Cl)c(CN2CCn3c(cnc3C3CCCCC3)C2)c1

>  <score_type>  (18) 
oracle

>  <origin>  (18) 
adg

>  <m_score__min__energy>  (18) 
-9.0299999999999994

>  <m_primary>  (18) 
energy

$$$$
18:0
     RDKit          3D

 37 38  0  0  0  0  0  0  0  0999 V2000
   -8.8977   17.3155  -32.3063 H   0  0  0  0  0  0  0  0  0  0  0  0
   -8.3030   18.2400  -32.3470 C   0  0  0  0  0  0  0  0  0  0  0  0
   -6.9850   18.1990  -32.7970 C   0  0  0  0  0  0  0  0  0  0  0  0
   -6.5477   17.2410  -33.1148 H   0  0  0  0  0  0  0  0  0  0  0  0
   -6.2070   19.3720  -32.8490 C   0  0  0  0  0  0  0  0  0  0  0  0
   -4.8750   19.3350  -33.2960 O   0  0  0  0  0  0  0  0  0  0  0  0
   -4.3430   18.3670  -34.1950 C   0  0  0  0  0  0  0  0  0  0  0  0
   -3.8907   17.5441  -33.6221 H   0  0  0  0  0  0  0  0  0  0  0  0
   -5.1508   17.9721  -34.8286 H   0  0  0  0  0  0  0  0  0  0  0  0
   -3.5766   18.8372  -34.8286 H   0  0  0  0  0  0  0  0  0  0  0  0
   -6.7780   20.6060  -32.4430 C   0  0  0  0  0  0  0  0  0  0  0  0
   -8.1230   20.6350  -32.0000 C   0  0  0  0  0  0  0  0  0  0  0  0
   -8.8690   19.4470  -31.9490 C   0  0  0  0  0  0  0  0  0  0  0  0
   -9.9091   19.4705  -31.5916 H   0  0  0  0  0  0  0  0  0  0  0  0
   -8.7490   21.9160  -31.5970 C   0  0  0  0  0  0  0  0  0  0  0  0
   -9.8630   21.9220  -31.0050 O   0  0  0  0  0  0  0  0  0  0  0  0
   -8.1130   23.2250  -31.9580 C   0  0  0  0  0  0  0  0  0  0  0  0
   -8.4188   23.9838  -31.2227 H   0  0  0  0  0  0  0  0  0  0  0  0
   -8.4451   23.4979  -32.9706 H   0  0  0  0  0  0  0  0  0  0  0  0
   -6.6170   23.1350  -31.9680 C   0  0  0  0  0  0  0  0  0  0  0  0
   -5.9480   24.1990  -31.6120 N   0  0  0  0  0  0  0  0  0  0  0  0
   -6.1990   25.1120  -30.4960 C   0  0  0  0  0  0  0  0  0  0  0  0
   -7.2108   24.9306  -30.1044 H   0  0  0  0  0  0  0  0  0  0  0  0
   -6.1048   26.1449  -30.8625 H   0  0  0  0  0  0  0  0  0  0  0  0
   -5.1830   24.9020  -29.3710 C   0  0  0  0  0  0  0  0  0  0  0  0
   -5.5107   24.0613  -28.7419 H   0  0  0  0  0  0  0  0  0  0  0  0
   -5.1211   25.8253  -28.7762 H   0  0  0  0  0  0  0  0  0  0  0  0
   -3.5230   24.5310  -30.0510 S   0  0  0  0  0  0  0  0  0  0  0  0
   -3.6120   22.7100  -29.8940 C   0  0  0  0  0  0  0  0  0  0  0  0
   -4.6045   22.3668  -30.2215 H   0  0  0  0  0  0  0  0  0  0  0  0
   -3.4429   22.4357  -28.8423 H   0  0  0  0  0  0  0  0  0  0  0  0
   -2.5440   22.0460  -30.7530 C   0  0  0  0  0  0  0  0  0  0  0  0
   -1.7901   21.5773  -30.1034 H   0  0  0  0  0  0  0  0  0  0  0  0
   -3.0095   21.2778  -31.3880 H   0  0  0  0  0  0  0  0  0  0  0  0
   -2.0610   22.8033  -31.3880 H   0  0  0  0  0  0  0  0  0  0  0  0
   -5.9830   21.8690  -32.4340 C   0  0  0  0  0  0  0  0  0  0  0  0
   -4.7880   21.8620  -32.8290 O   0  0  0  0  0  0  0  0  0  0  0  0
  1  2  1  0
  2  3  2  0
  3  4  1  0
  3  5  1  0
  5  6  1  0
  6  7  1  0
  7  8  1  0
  7  9  1  0
  7 10  1  0
  5 11  2  0
 11 12  1  0
 12 13  2  0
 13 14  1  0
 12 15  1  0
 15 16  2  0
 15 17  1  0
 17 18  1  0
 17 19  1  0
 17 20  1  0
 20 21  2  0
 21 22  1  0
 22 23  1  0
 22 24  1  0
 22 25  1  0
 25 26  1  0
 25 27  1  0
 25 28  1  0
 28 29  1  0
 29 30  1  0
 29 31  1  0
 29 32  1  0
 32 33  1  0
 32 34  1  0
 32 35  1  0
 20 36  1  0
 36 37  2  0
 13  2  1  0
 36 11  1  0
M  END
>  <UniqueID>  (19) 
19

>  <SMILES>  (19) 
CCSCC/N=C1/CC(=O)c2cccc(OC)c2C1=O

>  <Energy>  (19) 
38.53297185210778

>  <Genealogy>  (19) 
CCSCC/N=C1/CC(=O)c2cccc(OC)c2C1=O (cis-trans isomerization)
CCSCC/N=C1/CC(=O)c2cccc(OC)c2C1=O (3D coordinates assigned)
CCSCC/N=C1/CC(=O)c2cccc(OC)c2C1=O (nonaromatic ring conformer: 38.53297185210778 kcal/mol)

>  <smiles>  (19) 
CCSCCN=C1CC(=O)c2cccc(OC)c2C1=O

>  <score_type>  (19) 
oracle

>  <origin>  (19) 
adg

>  <m_score__min__energy>  (19) 
-7.4299999999999997

>  <m_primary>  (19) 
energy

$$$$
19:0
     RDKit          3D

 22 21  0  0  0  0  0  0  0  0999 V2000
   -6.7380   25.3020  -29.7110 C   0  0  0  0  0  0  0  0  0  0  0  0
   -5.4040   25.5910  -30.3980 C   0  0  0  0  0  0  0  0  0  0  0  0
   -4.9620   24.4380  -31.2160 N   0  0  0  0  0  0  0  0  0  0  0  0
   -4.2080   23.4430  -30.4080 C   0  0  0  0  0  0  0  0  0  0  0  0
   -3.5570   24.1390  -29.2190 C   0  0  0  0  0  0  0  0  0  0  0  0
   -6.1190   23.8200  -31.9070 C   0  0  0  0  0  0  0  0  0  0  0  0
   -6.3990   22.4120  -31.3730 C   0  0  0  0  0  0  0  0  0  0  0  0
   -8.2740   21.9560  -31.5760 Br  0  0  0  0  0  0  0  0  0  0  0  0
   -6.6024   25.3314  -28.6198 H   0  0  0  0  0  0  0  0  0  0  0  0
   -7.4761   26.0611  -30.0093 H   0  0  0  0  0  0  0  0  0  0  0  0
   -7.0958   24.3055  -30.0093 H   0  0  0  0  0  0  0  0  0  0  0  0
   -5.5188   26.4700  -31.0493 H   0  0  0  0  0  0  0  0  0  0  0  0
   -4.6465   25.7790  -29.6229 H   0  0  0  0  0  0  0  0  0  0  0  0
   -4.8983   22.6672  -30.0452 H   0  0  0  0  0  0  0  0  0  0  0  0
   -3.4293   22.9800  -31.0319 H   0  0  0  0  0  0  0  0  0  0  0  0
   -3.9531   23.7155  -28.2843 H   0  0  0  0  0  0  0  0  0  0  0  0
   -2.4680   23.9885  -29.2572 H   0  0  0  0  0  0  0  0  0  0  0  0
   -3.7799   25.2155  -29.2572 H   0  0  0  0  0  0  0  0  0  0  0  0
   -7.0085   24.4472  -31.7474 H   0  0  0  0  0  0  0  0  0  0  0  0
   -5.8834   23.7443  -32.9788 H   0  0  0  0  0  0  0  0  0  0  0  0
   -5.7893   21.6868  -31.9319 H   0  0  0  0  0  0  0  0  0  0  0  0
   -6.1439   22.3842  -30.3033 H   0  0  0  0  0  0  0  0  0  0  0  0
  1  2  1  0
  2  3  1  0
  3  4  1  0
  4  5  1  0
  3  6  1  0
  6  7  1  0
  7  8  1  0
  1  9  1  0
  1 10  1  0
  1 11  1  0
  2 12  1  0
  2 13  1  0
  4 14  1  0
  4 15  1  0
  5 16  1  0
  5 17  1  0
  5 18  1  0
  6 19  1  0
  6 20  1  0
  7 21  1  0
  7 22  1  0
M  END
>  <UniqueID>  (20) 
20

>  <SMILES>  (20) 
CCN(CC)CCBr

>  <Energy>  (20) 
14.864478358850528

>  <Genealogy>  (20) 
CCN(CC)CCBr (3D coordinates assigned)
CCN(CC)CCBr (optimized conformer: 14.864478358850528 kcal/mol)

>  <smiles>  (20) 
CCN(CC)CCBr

>  <score_type>  (20) 
oracle

>  <origin>  (20) 
adg

>  <m_score__min__energy>  (20) 
-3.7799999999999998

>  <m_primary>  (20) 
energy

$$$$
20:0
     RDKit          3D

 36 36  0  0  0  0  0  0  0  0999 V2000
   -6.9240   19.0360  -33.0770 C   0  0  0  0  0  0  0  0  0  0  0  0
   -7.9670   19.6100  -32.1190 C   0  0  0  0  0  0  0  0  0  0  0  0
   -7.9790   21.0900  -32.1560 N   0  0  0  0  0  0  0  0  0  0  0  0
   -9.3260   21.6140  -31.8540 C   0  0  0  0  0  0  0  0  0  0  0  0
   -6.9850   21.6530  -31.2130 C   0  0  0  0  0  0  0  0  0  0  0  0
   -7.6710   22.5200  -30.1510 C   0  0  0  0  0  0  0  0  0  0  0  0
   -6.8490   23.6880  -29.8300 N   0  0  0  0  0  0  0  0  0  0  0  0
   -6.2130   24.4890  -30.8390 C   0  0  0  0  0  0  0  0  0  0  0  0
   -6.4580   24.2820  -32.0590 O   0  0  0  0  0  0  0  0  0  0  0  0
   -5.2770   25.5600  -30.4670 C   0  0  0  0  0  0  0  0  0  0  0  0
   -5.7180   26.6820  -30.0990 O   0  0  0  0  0  0  0  0  0  0  0  0
   -3.8690   25.2990  -30.4680 N   0  0  0  0  0  0  0  0  0  0  0  0
   -3.1840   24.4010  -29.5820 C   0  0  0  0  0  0  0  0  0  0  0  0
   -3.6160   23.0710  -29.5100 C   0  0  0  0  0  0  0  0  0  0  0  0
   -2.9690   22.1600  -28.6700 C   0  0  0  0  0  0  0  0  0  0  0  0
   -1.8700   22.5680  -27.9080 C   0  0  0  0  0  0  0  0  0  0  0  0
   -0.9830   21.3220  -26.7640 Br  0  0  0  0  0  0  0  0  0  0  0  0
   -1.4110   23.8860  -27.9980 C   0  0  0  0  0  0  0  0  0  0  0  0
   -2.0560   24.8020  -28.8360 C   0  0  0  0  0  0  0  0  0  0  0  0
   -1.5420   26.0510  -28.9600 F   0  0  0  0  0  0  0  0  0  0  0  0
   -6.1041   18.5848  -32.4989 H   0  0  0  0  0  0  0  0  0  0  0  0
   -7.3916   18.2681  -33.7109 H   0  0  0  0  0  0  0  0  0  0  0  0
   -6.5255   19.8419  -33.7109 H   0  0  0  0  0  0  0  0  0  0  0  0
   -8.9609   19.2369  -32.4069 H   0  0  0  0  0  0  0  0  0  0  0  0
   -7.7109   19.2916  -31.0977 H   0  0  0  0  0  0  0  0  0  0  0  0
   -9.4628   21.6672  -30.7638 H   0  0  0  0  0  0  0  0  0  0  0  0
   -9.4337   22.6196  -32.2866 H   0  0  0  0  0  0  0  0  0  0  0  0
  -10.0850   20.9455  -32.2866 H   0  0  0  0  0  0  0  0  0  0  0  0
   -6.4522   20.8288  -30.7163 H   0  0  0  0  0  0  0  0  0  0  0  0
   -6.2796   22.2802  -31.7778 H   0  0  0  0  0  0  0  0  0  0  0  0
   -8.6452   22.8578  -30.5342 H   0  0  0  0  0  0  0  0  0  0  0  0
   -7.8080   21.9211  -29.2386 H   0  0  0  0  0  0  0  0  0  0  0  0
   -6.7060   23.9220  -28.8230 H   0  0  0  0  0  0  0  0  0  0  0  0
   -4.4706   22.7407  -30.1188 H   0  0  0  0  0  0  0  0  0  0  0  0
   -3.3249   21.1210  -28.6084 H   0  0  0  0  0  0  0  0  0  0  0  0
   -0.5391   24.2038  -27.4074 H   0  0  0  0  0  0  0  0  0  0  0  0
  1  2  1  0
  2  3  1  0
  3  4  1  0
  3  5  1  0
  5  6  1  0
  6  7  1  0
  7  8  1  0
  8  9  2  0
  8 10  1  0
 10 11  2  0
 10 12  1  0
 12 13  1  0
 13 14  2  0
 14 15  1  0
 15 16  2  0
 16 17  1  0
 16 18  1  0
 18 19  2  0
 19 20  1  0
 19 13  1  0
  1 21  1  0
  1 22  1  0
  1 23  1  0
  2 24  1  0
  2 25  1  0
  4 26  1  0
  4 27  1  0
  4 28  1  0
  5 29  1  0
  5 30  1  0
  6 31  1  0
  6 32  1  0
  7 33  1  0
 14 34  1  0
 15 35  1  0
 18 36  1  0
M  CHG  1  12  -1
M  END
>  <UniqueID>  (21) 
21

>  <SMILES>  (21) 
CCN(C)CCNC(=O)C(=O)[N-]c1ccc(Br)cc1F

>  <Energy>  (21) 
34.49425846932216

>  <Genealogy>  (21) 
CCN(C)CCNC(=O)C(=O)[N-]c1ccc(Br)cc1F (protonated)
CCN(C)CCNC(=O)C(=O)[N-]c1ccc(Br)cc1F (3D coordinates assigned)
CCN(C)CCNC(=O)C(=O)[N-]c1ccc(Br)cc1F (optimized conformer: 34.49425846932216 kcal/mol)

>  <smiles>  (21) 
CCN(C)CCNC(=O)C(=O)Nc1ccc(Br)cc1F

>  <score_type>  (21) 
oracle

>  <origin>  (21) 
adg

>  <m_score__min__energy>  (21) 
-8.9100000000000001

>  <m_primary>  (21) 
energy

$$$$
21:0
     RDKit          3D

 57 60  0  0  0  0  0  0  0  0999 V2000
    1.4600   17.8400  -32.2950 C   0  0  0  0  0  0  0  0  0  0  0  0
    0.4310   18.2110  -33.2070 O   0  0  0  0  0  0  0  0  0  0  0  0
    0.6090   19.0560  -34.3140 C   0  0  0  0  0  0  0  0  0  0  0  0
    0.9000   18.5410  -35.5920 C   0  0  0  0  0  0  0  0  0  0  0  0
    1.1170   19.3990  -36.6690 C   0  0  0  0  0  0  0  0  0  0  0  0
    1.0650   20.7790  -36.4850 C   0  0  0  0  0  0  0  0  0  0  0  0
    0.7720   21.3100  -35.2270 C   0  0  0  0  0  0  0  0  0  0  0  0
    0.7840   22.6580  -35.0770 F   0  0  0  0  0  0  0  0  0  0  0  0
    0.5030   20.4570  -34.1350 C   0  0  0  0  0  0  0  0  0  0  0  0
    0.1410   21.0420  -32.7760 C   0  0  0  0  0  0  0  0  0  0  0  0
   -1.3200   21.1110  -32.5210 N   0  0  0  0  0  0  0  0  0  0  0  0
   -2.1470   20.5610  -33.6270 C   0  0  0  0  0  0  0  0  0  0  0  0
   -3.6720   20.6270  -33.3820 C   0  0  0  0  0  0  0  0  0  0  0  0
   -4.1560   21.9780  -32.8070 C   0  0  0  0  0  0  0  0  0  0  0  0
   -3.7520   22.1430  -31.3920 N   0  0  0  0  0  0  0  0  0  0  0  0
   -4.8790   22.6150  -30.5610 C   0  0  0  0  0  0  0  0  0  0  0  0
   -6.0140   23.0710  -31.4330 C   0  0  0  0  0  0  0  0  0  0  0  0
   -5.8770   24.1160  -32.1220 O   0  0  0  0  0  0  0  0  0  0  0  0
   -7.2290   22.3120  -31.5390 N   0  0  0  0  0  0  0  0  0  0  0  0
   -8.5560   22.9250  -31.5830 C   0  0  0  0  0  0  0  0  0  0  0  0
   -9.5430   21.7840  -31.9320 C   0  0  0  0  0  0  0  0  0  0  0  0
   -8.6720   20.5780  -31.9810 C   0  0  0  0  0  0  0  0  0  0  0  0
   -9.0570   19.2510  -32.1750 C   0  0  0  0  0  0  0  0  0  0  0  0
   -8.0730   18.2510  -32.1160 C   0  0  0  0  0  0  0  0  0  0  0  0
   -6.7350   18.5910  -31.8460 C   0  0  0  0  0  0  0  0  0  0  0  0
   -6.3710   19.9340  -31.6460 C   0  0  0  0  0  0  0  0  0  0  0  0
   -7.3640   20.9160  -31.7520 C   0  0  0  0  0  0  0  0  0  0  0  0
   -3.1770   20.9050  -30.8180 C   0  0  0  0  0  0  0  0  0  0  0  0
   -1.6850   20.6880  -31.1490 C   0  0  0  0  0  0  0  0  0  0  0  0
    1.1002   17.9697  -31.2636 H   0  0  0  0  0  0  0  0  0  0  0  0
    1.7327   16.7869  -32.4585 H   0  0  0  0  0  0  0  0  0  0  0  0
    2.3419   18.4768  -32.4585 H   0  0  0  0  0  0  0  0  0  0  0  0
    0.9565   17.4527  -35.7416 H   0  0  0  0  0  0  0  0  0  0  0  0
    1.3297   18.9857  -37.6660 H   0  0  0  0  0  0  0  0  0  0  0  0
    1.2554   21.4527  -37.3335 H   0  0  0  0  0  0  0  0  0  0  0  0
    0.5996   20.4162  -31.9962 H   0  0  0  0  0  0  0  0  0  0  0  0
    0.5168   22.0757  -32.7628 H   0  0  0  0  0  0  0  0  0  0  0  0
   -1.9210   21.1303  -34.5407 H   0  0  0  0  0  0  0  0  0  0  0  0
   -1.8895   19.4947  -33.7094 H   0  0  0  0  0  0  0  0  0  0  0  0
   -4.1845   20.4547  -34.3400 H   0  0  0  0  0  0  0  0  0  0  0  0
   -3.9086   19.8577  -32.6322 H   0  0  0  0  0  0  0  0  0  0  0  0
   -3.7204   22.7954  -33.4005 H   0  0  0  0  0  0  0  0  0  0  0  0
   -5.2547   21.9997  -32.8564 H   0  0  0  0  0  0  0  0  0  0  0  0
   -5.2240   21.7930  -29.9166 H   0  0  0  0  0  0  0  0  0  0  0  0
   -4.5396   23.4601  -29.9441 H   0  0  0  0  0  0  0  0  0  0  0  0
   -8.8075   23.3620  -30.6054 H   0  0  0  0  0  0  0  0  0  0  0  0
   -8.6002   23.7363  -32.3245 H   0  0  0  0  0  0  0  0  0  0  0  0
  -10.3155   21.6805  -31.1557 H   0  0  0  0  0  0  0  0  0  0  0  0
  -10.0874   21.9593  -32.8717 H   0  0  0  0  0  0  0  0  0  0  0  0
  -10.1086   18.9938  -32.3699 H   0  0  0  0  0  0  0  0  0  0  0  0
   -8.3491   17.1991  -32.2813 H   0  0  0  0  0  0  0  0  0  0  0  0
   -5.9701   17.8024  -31.7911 H   0  0  0  0  0  0  0  0  0  0  0  0
   -5.3315   20.2070  -31.4119 H   0  0  0  0  0  0  0  0  0  0  0  0
   -3.2848   20.9494  -29.7242 H   0  0  0  0  0  0  0  0  0  0  0  0
   -3.7260   20.0639  -31.2665 H   0  0  0  0  0  0  0  0  0  0  0  0
   -1.0814   21.2658  -30.4336 H   0  0  0  0  0  0  0  0  0  0  0  0
   -1.4903   19.6076  -31.0793 H   0  0  0  0  0  0  0  0  0  0  0  0
  1  2  1  0
  2  3  1  0
  3  4  2  0
  4  5  1  0
  5  6  2  0
  6  7  1  0
  7  8  1  0
  7  9  2  0
  9 10  1  0
 10 11  1  0
 11 12  1  0
 12 13  1  0
 13 14  1  0
 14 15  1  0
 15 16  1  0
 16 17  1  0
 17 18  2  0
 17 19  1  0
 19 20  1  0
 20 21  1  0
 21 22  1  0
 22 23  2  0
 23 24  1  0
 24 25  2  0
 25 26  1  0
 26 27  2  0
 15 28  1  0
 28 29  1  0
  9  3  1  0
 29 11  1  0
 27 19  1  0
 27 22  1  0
  1 30  1  0
  1 31  1  0
  1 32  1  0
  4 33  1  0
  5 34  1  0
  6 35  1  0
 10 36  1  0
 10 37  1  0
 12 38  1  0
 12 39  1  0
 13 40  1  0
 13 41  1  0
 14 42  1  0
 14 43  1  0
 16 44  1  0
 16 45  1  0
 20 46  1  0
 20 47  1  0
 21 48  1  0
 21 49  1  0
 23 50  1  0
 24 51  1  0
 25 52  1  0
 26 53  1  0
 28 54  1  0
 28 55  1  0
 29 56  1  0
 29 57  1  0
M  END
>  <UniqueID>  (22) 
22

>  <SMILES>  (22) 
COc1cccc(F)c1CN1CCCN(CC(=O)N2CCc3ccccc32)CC1

>  <Energy>  (22) 
97.31941625260839

>  <Genealogy>  (22) 
COc1cccc(F)c1CN1CCCN(CC(=O)N2CCc3ccccc32)CC1 (3D coordinates assigned)
COc1cccc(F)c1CN1CCCN(CC(=O)N2CCc3ccccc32)CC1 (nonaromatic ring conformer: 97.31941625260839 kcal/mol)

>  <smiles>  (22) 
COc1cccc(F)c1CN1CCCN(CC(=O)N2CCc3ccccc32)CC1

>  <score_type>  (22) 
oracle

>  <origin>  (22) 
adg

>  <m_score__min__energy>  (22) 
-7.0199999999999996

>  <m_primary>  (22) 
energy

$$$$
22:0
     RDKit          3D

 38 39  0  0  0  0  0  0  0  0999 V2000
   -8.7970   19.1630  -31.2350 C   0  0  0  0  0  0  0  0  0  0  0  0
   -8.3580   18.1250  -32.2810 C   0  0  0  0  0  0  0  0  0  0  0  0
   -6.8930   18.0480  -32.5000 N   0  0  0  0  0  0  0  0  0  0  0  0
   -6.1690   17.1750  -31.5440 C   0  0  0  0  0  0  0  0  0  0  0  0
   -5.3290   16.0750  -32.2010 C   0  0  0  0  0  0  0  0  0  0  0  0
   -6.4700   17.9390  -33.9130 C   0  0  0  0  0  0  0  0  0  0  0  0
   -5.3880   18.9740  -34.2520 C   0  0  0  0  0  0  0  0  0  0  0  0
   -4.6610   19.3660  -33.0440 N   0  0  0  0  0  0  0  0  0  0  0  0
   -4.6870   20.6900  -32.4760 C   0  0  0  0  0  0  0  0  0  0  0  0
   -3.5280   21.3350  -31.9800 C   0  0  0  0  0  0  0  0  0  0  0  0
   -3.6070   22.6320  -31.4230 C   0  0  0  0  0  0  0  0  0  0  0  0
   -4.8400   23.3230  -31.3470 C   0  0  0  0  0  0  0  0  0  0  0  0
   -4.9100   24.6500  -30.7960 N   0  0  0  0  0  0  0  0  0  0  0  0
   -3.8620   25.2860  -30.5560 O   0  0  0  0  0  0  0  0  0  0  0  0
   -6.1180   25.2840  -30.6310 O   0  0  0  0  0  0  0  0  0  0  0  0
   -5.9660   22.6440  -31.8390 C   0  0  0  0  0  0  0  0  0  0  0  0
   -7.2600   23.0030  -31.8630 N   0  0  0  0  0  0  0  0  0  0  0  0
   -7.9000   21.9990  -32.4010 O   0  0  0  0  0  0  0  0  0  0  0  0
   -7.1240   20.9980  -32.7300 N   0  0  0  0  0  0  0  0  0  0  0  0
   -5.8890   21.3920  -32.3730 C   0  0  0  0  0  0  0  0  0  0  0  0
   -8.6269   18.7607  -30.2254 H   0  0  0  0  0  0  0  0  0  0  0  0
   -8.2119   20.0853  -31.3656 H   0  0  0  0  0  0  0  0  0  0  0  0
   -9.8663   19.3856  -31.3656 H   0  0  0  0  0  0  0  0  0  0  0  0
   -8.7075   17.1359  -31.9500 H   0  0  0  0  0  0  0  0  0  0  0  0
   -8.7992   18.4418  -33.2376 H   0  0  0  0  0  0  0  0  0  0  0  0
   -5.4988   17.8060  -30.9418 H   0  0  0  0  0  0  0  0  0  0  0  0
   -6.9359   16.6661  -30.9416 H   0  0  0  0  0  0  0  0  0  0  0  0
   -4.8581   15.4583  -31.4213 H   0  0  0  0  0  0  0  0  0  0  0  0
   -5.9767   15.4434  -32.8267 H   0  0  0  0  0  0  0  0  0  0  0  0
   -4.5491   16.5336  -32.8267 H   0  0  0  0  0  0  0  0  0  0  0  0
   -6.0691   16.9301  -34.0904 H   0  0  0  0  0  0  0  0  0  0  0  0
   -7.3444   18.1280  -34.5531 H   0  0  0  0  0  0  0  0  0  0  0  0
   -4.6823   18.5375  -34.9741 H   0  0  0  0  0  0  0  0  0  0  0  0
   -5.8685   19.8642  -34.6841 H   0  0  0  0  0  0  0  0  0  0  0  0
   -4.0840   18.6310  -32.5740 H   0  0  0  0  0  0  0  0  0  0  0  0
   -2.5564   20.8216  -32.0286 H   0  0  0  0  0  0  0  0  0  0  0  0
   -2.6940   23.1127  -31.0419 H   0  0  0  0  0  0  0  0  0  0  0  0
   -7.7090   23.8760  -31.5140 H   0  0  0  0  0  0  0  0  0  0  0  0
  1  2  1  0
  2  3  1  0
  3  4  1  0
  4  5  1  0
  3  6  1  0
  6  7  1  0
  7  8  1  0
  8  9  1  0
  9 10  2  0
 10 11  1  0
 11 12  2  0
 12 13  1  0
 13 14  2  0
 13 15  1  0
 12 16  1  0
 16 17  2  0
 17 18  1  0
 18 19  1  0
 19 20  2  0
 20  9  1  0
 20 16  1  0
  1 21  1  0
  1 22  1  0
  1 23  1  0
  2 24  1  0
  2 25  1  0
  4 26  1  0
  4 27  1  0
  5 28  1  0
  5 29  1  0
  5 30  1  0
  6 31  1  0
  6 32  1  0
  7 33  1  0
  7 34  1  0
  8 35  1  0
 10 36  1  0
 11 37  1  0
 17 38  1  0
M  CHG  3  13   1  15  -1  17   1
M  END
>  <UniqueID>  (23) 
23

>  <SMILES>  (23) 
CCN(CC)CCNc1ccc([N+](=O)[O-])c2[nH+]onc12

>  <Energy>  (23) 
89.22631076602559

>  <Genealogy>  (23) 
CCN(CC)CCNc1ccc([N+](=O)[O-])c2[nH+]onc12 (protonated)
CCN(CC)CCNc1ccc([N+](=O)[O-])c2[nH+]onc12 (3D coordinates assigned)
CCN(CC)CCNc1ccc([N+](=O)[O-])c2[nH+]onc12 (optimized conformer: 89.22631076602559 kcal/mol)

>  <smiles>  (23) 
CCN(CC)CCNc1ccc([N+](=O)[O-])c2nonc12

>  <score_type>  (23) 
oracle

>  <origin>  (23) 
adg

>  <m_score__min__energy>  (23) 
-6.9800000000000004

>  <m_primary>  (23) 
energy

$$$$
23:0
     RDKit          3D

 43 44  0  0  0  0  0  0  0  0999 V2000
   -9.0590   19.2270  -32.6800 C   0  0  0  0  0  0  0  0  0  0  0  0
   -9.0980   20.2510  -32.0440 C   0  0  0  0  0  0  0  0  0  0  0  0
   -9.1510   21.4960  -31.2640 C   0  0  0  0  0  0  0  0  0  0  0  0
   -8.0410   22.4660  -31.6910 C   0  0  0  0  0  0  0  0  0  0  0  0
   -7.0590   22.7610  -30.5480 C   0  0  0  0  0  0  0  0  0  0  0  0
   -6.3020   24.0810  -30.7450 C   0  0  0  0  0  0  0  0  0  0  0  0
   -4.5440   23.9350  -30.4100 S   0  0  0  0  0  0  0  0  0  0  0  0
   -3.9030   25.2940  -30.4720 O   0  0  0  0  0  0  0  0  0  0  0  0
   -4.3500   23.3730  -29.0310 O   0  0  0  0  0  0  0  0  0  0  0  0
   -3.7580   22.8830  -31.5660 N   0  0  0  0  0  0  0  0  0  0  0  0
   -4.5940   22.6820  -32.7710 C   0  0  0  0  0  0  0  0  0  0  0  0
   -4.3760   21.3100  -33.4170 C   0  0  0  0  0  0  0  0  0  0  0  0
   -4.6600   20.2630  -32.4280 N   0  0  0  0  0  0  0  0  0  0  0  0
   -5.3150   19.0280  -32.8090 C   0  0  0  0  0  0  0  0  0  0  0  0
   -5.9440   18.2200  -31.8390 C   0  0  0  0  0  0  0  0  0  0  0  0
   -6.5900   17.0360  -32.2080 C   0  0  0  0  0  0  0  0  0  0  0  0
   -6.6220   16.6460  -33.5500 C   0  0  0  0  0  0  0  0  0  0  0  0
   -7.2550   15.5000  -33.9060 F   0  0  0  0  0  0  0  0  0  0  0  0
   -5.9940   17.4280  -34.5210 C   0  0  0  0  0  0  0  0  0  0  0  0
   -5.3400   18.6090  -34.1550 C   0  0  0  0  0  0  0  0  0  0  0  0
   -4.1750   20.4450  -31.0490 C   0  0  0  0  0  0  0  0  0  0  0  0
   -3.2270   21.6520  -30.9330 C   0  0  0  0  0  0  0  0  0  0  0  0
   -9.0234   18.2931  -33.2601 H   0  0  0  0  0  0  0  0  0  0  0  0
  -10.1278   21.9767  -31.4214 H   0  0  0  0  0  0  0  0  0  0  0  0
   -9.0074   21.2481  -30.2020 H   0  0  0  0  0  0  0  0  0  0  0  0
   -7.4853   22.0217  -32.5300 H   0  0  0  0  0  0  0  0  0  0  0  0
   -8.5148   23.4147  -31.9832 H   0  0  0  0  0  0  0  0  0  0  0  0
   -7.6226   22.8157  -29.6049 H   0  0  0  0  0  0  0  0  0  0  0  0
   -6.3155   21.9505  -30.5306 H   0  0  0  0  0  0  0  0  0  0  0  0
   -6.4348   24.4097  -31.7863 H   0  0  0  0  0  0  0  0  0  0  0  0
   -6.7149   24.8082  -30.0304 H   0  0  0  0  0  0  0  0  0  0  0  0
   -5.6522   22.7725  -32.4847 H   0  0  0  0  0  0  0  0  0  0  0  0
   -4.3062   23.4466  -33.5076 H   0  0  0  0  0  0  0  0  0  0  0  0
   -5.0514   21.1966  -34.2778 H   0  0  0  0  0  0  0  0  0  0  0  0
   -3.3345   21.2231  -33.7601 H   0  0  0  0  0  0  0  0  0  0  0  0
   -5.9262   18.5242  -30.7820 H   0  0  0  0  0  0  0  0  0  0  0  0
   -7.0731   16.4114  -31.4421 H   0  0  0  0  0  0  0  0  0  0  0  0
   -6.0135   17.1150  -35.5754 H   0  0  0  0  0  0  0  0  0  0  0  0
   -4.8407   19.2164  -34.9243 H   0  0  0  0  0  0  0  0  0  0  0  0
   -5.0380   20.6046  -30.3859 H   0  0  0  0  0  0  0  0  0  0  0  0
   -3.6171   19.5421  -30.7600 H   0  0  0  0  0  0  0  0  0  0  0  0
   -3.0522   21.8564  -29.8664 H   0  0  0  0  0  0  0  0  0  0  0  0
   -2.3005   21.3884  -31.4642 H   0  0  0  0  0  0  0  0  0  0  0  0
  1  2  3  0
  2  3  1  0
  3  4  1  0
  4  5  1  0
  5  6  1  0
  6  7  1  0
  7  8  2  0
  7  9  2  0
  7 10  1  0
 10 11  1  0
 11 12  1  0
 12 13  1  0
 13 14  1  0
 14 15  2  0
 15 16  1  0
 16 17  2  0
 17 18  1  0
 17 19  1  0
 19 20  2  0
 13 21  1  0
 21 22  1  0
 22 10  1  0
 20 14  1  0
  1 23  1  0
  3 24  1  0
  3 25  1  0
  4 26  1  0
  4 27  1  0
  5 28  1  0
  5 29  1  0
  6 30  1  0
  6 31  1  0
 11 32  1  0
 11 33  1  0
 12 34  1  0
 12 35  1  0
 15 36  1  0
 16 37  1  0
 19 38  1  0
 20 39  1  0
 21 40  1  0
 21 41  1  0
 22 42  1  0
 22 43  1  0
M  END
>  <UniqueID>  (24) 
24

>  <SMILES>  (24) 
C#CCCCCS(=O)(=O)N1CCN(c2ccc(F)cc2)CC1

>  <Energy>  (24) 
40.351470015977846

>  <Genealogy>  (24) 
C#CCCCCS(=O)(=O)N1CCN(c2ccc(F)cc2)CC1 (3D coordinates assigned)
C#CCCCCS(=O)(=O)N1CCN(c2ccc(F)cc2)CC1 (nonaromatic ring conformer: 40.351470015977846 kcal/mol)

>  <smiles>  (24) 
C#CCCCCS(=O)(=O)N1CCN(c2ccc(F)cc2)CC1

>  <score_type>  (24) 
oracle

>  <origin>  (24) 
adg

>  <m_score__min__energy>  (24) 
-8.0800000000000001

>  <m_primary>  (24) 
energy

$$$$
24:0
     RDKit          3D

 37 37  0  0  0  0  0  0  0  0999 V2000
   -4.4270   21.5290  -31.7600 C   0  0  0  0  0  0  0  0  0  0  0  0
   -5.4400   22.6140  -32.1640 C   0  0  0  0  0  0  0  0  0  0  0  0
   -6.7280   22.5650  -31.4290 N   0  0  0  0  0  0  0  0  0  0  0  0
   -6.7480   23.3020  -30.1430 C   0  0  0  0  0  0  0  0  0  0  0  0
   -6.2800   24.7560  -30.2420 C   0  0  0  0  0  0  0  0  0  0  0  0
   -7.9480   22.7030  -32.2520 C   0  0  0  0  0  0  0  0  0  0  0  0
   -9.1290   21.9620  -31.5960 C   0  0  0  0  0  0  0  0  0  0  0  0
   -8.7070   20.7170  -30.9350 N   0  0  0  0  0  0  0  0  0  0  0  0
   -8.8900   19.3420  -31.9860 S   0  0  0  0  0  0  0  0  0  0  0  0
   -9.8580   19.6810  -33.0860 O   0  0  0  0  0  0  0  0  0  0  0  0
   -9.4540   18.1920  -31.2000 O   0  0  0  0  0  0  0  0  0  0  0  0
   -7.3440   18.8570  -32.6780 C   0  0  0  0  0  0  0  0  0  0  0  0
   -6.7110   17.6910  -32.2250 C   0  0  0  0  0  0  0  0  0  0  0  0
   -5.4730   17.3120  -32.7540 C   0  0  0  0  0  0  0  0  0  0  0  0
   -4.8630   18.0960  -33.7380 C   0  0  0  0  0  0  0  0  0  0  0  0
   -5.4890   19.2600  -34.1920 C   0  0  0  0  0  0  0  0  0  0  0  0
   -6.7250   19.6430  -33.6620 C   0  0  0  0  0  0  0  0  0  0  0  0
   -4.3714   21.4695  -30.6630 H   0  0  0  0  0  0  0  0  0  0  0  0
   -4.7491   20.5579  -32.1641 H   0  0  0  0  0  0  0  0  0  0  0  0
   -3.4361   21.7838  -32.1641 H   0  0  0  0  0  0  0  0  0  0  0  0
   -4.9797   23.5966  -31.9834 H   0  0  0  0  0  0  0  0  0  0  0  0
   -5.6798   22.4361  -33.2227 H   0  0  0  0  0  0  0  0  0  0  0  0
   -7.7790   23.2975  -29.7595 H   0  0  0  0  0  0  0  0  0  0  0  0
   -6.0407   22.7886  -29.4751 H   0  0  0  0  0  0  0  0  0  0  0  0
   -6.1473   25.1681  -29.2308 H   0  0  0  0  0  0  0  0  0  0  0  0
   -5.3232   24.7972  -30.7832 H   0  0  0  0  0  0  0  0  0  0  0  0
   -7.0331   25.3476  -30.7832 H   0  0  0  0  0  0  0  0  0  0  0  0
   -8.1995   23.7693  -32.3503 H   0  0  0  0  0  0  0  0  0  0  0  0
   -7.7597   22.2646  -33.2431 H   0  0  0  0  0  0  0  0  0  0  0  0
   -9.5890   22.6226  -30.8463 H   0  0  0  0  0  0  0  0  0  0  0  0
   -9.8436   21.6972  -32.3893 H   0  0  0  0  0  0  0  0  0  0  0  0
   -7.7040   20.7670  -30.6410 H   0  0  0  0  0  0  0  0  0  0  0  0
   -7.1894   17.0725  -31.4513 H   0  0  0  0  0  0  0  0  0  0  0  0
   -4.9790   16.3968  -32.3958 H   0  0  0  0  0  0  0  0  0  0  0  0
   -3.8901   17.7965  -34.1549 H   0  0  0  0  0  0  0  0  0  0  0  0
   -5.0090   19.8755  -34.9670 H   0  0  0  0  0  0  0  0  0  0  0  0
   -7.2132   20.5625  -34.0172 H   0  0  0  0  0  0  0  0  0  0  0  0
  1  2  1  0
  2  3  1  0
  3  4  1  0
  4  5  1  0
  3  6  1  0
  6  7  1  0
  7  8  1  0
  8  9  1  0
  9 10  2  0
  9 11  2  0
  9 12  1  0
 12 13  2  0
 13 14  1  0
 14 15  2  0
 15 16  1  0
 16 17  2  0
 17 12  1  0
  1 18  1  0
  1 19  1  0
  1 20  1  0
  2 21  1  0
  2 22  1  0
  4 23  1  0
  4 24  1  0
  5 25  1  0
  5 26  1  0
  5 27  1  0
  6 28  1  0
  6 29  1  0
  7 30  1  0
  7 31  1  0
  8 32  1  0
 13 33  1  0
 14 34  1  0
 15 35  1  0
 16 36  1  0
 17 37  1  0
M  END
>  <UniqueID>  (25) 
25

>  <SMILES>  (25) 
CCN(CC)CCNS(=O)(=O)c1ccccc1

>  <Energy>  (25) 
37.91886296313318

>  <Genealogy>  (25) 
CCN(CC)CCNS(=O)(=O)c1ccccc1 (3D coordinates assigned)
CCN(CC)CCNS(=O)(=O)c1ccccc1 (optimized conformer: 37.91886296313318 kcal/mol)

>  <smiles>  (25) 
CCN(CC)CCNS(=O)(=O)c1ccccc1

>  <score_type>  (25) 
oracle

>  <origin>  (25) 
adg

>  <m_score__min__energy>  (25) 
-6.54

>  <m_primary>  (25) 
energy

$$$$
25:0
     RDKit          3D

 50 50  0  0  0  0  0  0  0  0999 V2000
   -7.5941   21.9667  -33.6229 H   0  0  0  0  0  0  0  0  0  0  0  0
   -7.1390   21.5850  -32.6970 C   0  0  0  0  0  0  0  0  0  0  0  0
   -7.4670   20.3370  -32.3010 C   0  0  0  0  0  0  0  0  0  0  0  0
   -6.4820   19.2400  -32.4730 C   0  0  0  0  0  0  0  0  0  0  0  0
   -5.5380   19.1050  -31.6460 O   0  0  0  0  0  0  0  0  0  0  0  0
   -6.6110   18.3450  -33.5430 O   0  0  0  0  0  0  0  0  0  0  0  0
   -5.9450   18.5070  -34.7910 C   0  0  0  0  0  0  0  0  0  0  0  0
   -6.5848   18.1022  -35.5890 H   0  0  0  0  0  0  0  0  0  0  0  0
   -5.7554   19.5809  -34.9355 H   0  0  0  0  0  0  0  0  0  0  0  0
   -4.5830   17.7760  -34.8260 C   0  0  0  0  0  0  0  0  0  0  0  0
   -4.7444   16.7989  -35.3048 H   0  0  0  0  0  0  0  0  0  0  0  0
   -3.9105   18.4568  -35.3685 H   0  0  0  0  0  0  0  0  0  0  0  0
   -3.9040   17.5280  -33.5150 N   0  0  0  0  0  0  0  0  0  0  0  0
   -4.6230   17.8710  -32.8300 H   0  0  0  0  0  0  0  0  0  0  0  0
   -2.7420   18.4000  -33.1810 C   0  0  0  0  0  0  0  0  0  0  0  0
   -2.5608   18.3232  -32.0987 H   0  0  0  0  0  0  0  0  0  0  0  0
   -1.9060   18.0381  -33.7975 H   0  0  0  0  0  0  0  0  0  0  0  0
   -2.9090   19.8850  -33.5280 C   0  0  0  0  0  0  0  0  0  0  0  0
   -2.9751   20.4730  -32.6007 H   0  0  0  0  0  0  0  0  0  0  0  0
   -2.0433   20.2237  -34.1160 H   0  0  0  0  0  0  0  0  0  0  0  0
   -3.8283   20.0230  -34.1160 H   0  0  0  0  0  0  0  0  0  0  0  0
   -3.7660   16.1020  -33.1060 C   0  0  0  0  0  0  0  0  0  0  0  0
   -3.5395   15.5126  -34.0067 H   0  0  0  0  0  0  0  0  0  0  0  0
   -2.9688   16.0835  -32.3482 H   0  0  0  0  0  0  0  0  0  0  0  0
   -4.9950   15.4810  -32.4340 C   0  0  0  0  0  0  0  0  0  0  0  0
   -4.8831   15.5375  -31.3412 H   0  0  0  0  0  0  0  0  0  0  0  0
   -5.8971   16.0314  -32.7392 H   0  0  0  0  0  0  0  0  0  0  0  0
   -5.0870   14.4282  -32.7392 H   0  0  0  0  0  0  0  0  0  0  0  0
   -8.7700   20.0410  -31.5830 C   0  0  0  0  0  0  0  0  0  0  0  0
   -9.5860   20.5892  -32.0767 H   0  0  0  0  0  0  0  0  0  0  0  0
   -8.6737   20.3585  -30.5342 H   0  0  0  0  0  0  0  0  0  0  0  0
   -9.0810   18.5470  -31.6140 C   0  0  0  0  0  0  0  0  0  0  0  0
   -9.1600   18.1675  -30.5846 H   0  0  0  0  0  0  0  0  0  0  0  0
  -10.0329   18.3815  -32.1399 H   0  0  0  0  0  0  0  0  0  0  0  0
   -8.2743   18.0154  -32.1399 H   0  0  0  0  0  0  0  0  0  0  0  0
   -6.2120   22.4690  -31.9710 C   0  0  0  0  0  0  0  0  0  0  0  0
   -4.8600   22.1180  -31.8640 C   0  0  0  0  0  0  0  0  0  0  0  0
   -4.5033   21.1719  -32.2971 H   0  0  0  0  0  0  0  0  0  0  0  0
   -3.9620   22.9670  -31.2080 C   0  0  0  0  0  0  0  0  0  0  0  0
   -2.9056   22.6754  -31.1129 H   0  0  0  0  0  0  0  0  0  0  0  0
   -4.3970   24.1840  -30.6720 C   0  0  0  0  0  0  0  0  0  0  0  0
   -3.4580   24.9990  -30.0230 O   0  0  0  0  0  0  0  0  0  0  0  0
   -2.6400   24.5730  -28.9370 C   0  0  0  0  0  0  0  0  0  0  0  0
   -3.1306   24.8285  -27.9862 H   0  0  0  0  0  0  0  0  0  0  0  0
   -2.4938   23.4842  -28.9932 H   0  0  0  0  0  0  0  0  0  0  0  0
   -1.6641   25.0774  -28.9932 H   0  0  0  0  0  0  0  0  0  0  0  0
   -5.7510   24.5490  -30.8040 C   0  0  0  0  0  0  0  0  0  0  0  0
   -6.1036   25.5056  -30.3909 H   0  0  0  0  0  0  0  0  0  0  0  0
   -6.6480   23.7000  -31.4580 C   0  0  0  0  0  0  0  0  0  0  0  0
   -7.7007   23.9982  -31.5711 H   0  0  0  0  0  0  0  0  0  0  0  0
  1  2  1  0
  2  3  2  0
  3  4  1  0
  4  5  2  0
  4  6  1  0
  6  7  1  0
  7  8  1  0
  7  9  1  0
  7 10  1  0
 10 11  1  0
 10 12  1  0
 10 13  1  0
 13 14  1  0
 13 15  1  0
 15 16  1  0
 15 17  1  0
 15 18  1  0
 18 19  1  0
 18 20  1  0
 18 21  1  0
 13 22  1  0
 22 23  1  0
 22 24  1  0
 22 25  1  0
 25 26  1  0
 25 27  1  0
 25 28  1  0
  3 29  1  0
 29 30  1  0
 29 31  1  0
 29 32  1  0
 32 33  1  0
 32 34  1  0
 32 35  1  0
  2 36  1  0
 36 37  2  0
 37 38  1  0
 37 39  1  0
 39 40  1  0
 39 41  2  0
 41 42  1  0
 42 43  1  0
 43 44  1  0
 43 45  1  0
 43 46  1  0
 41 47  1  0
 47 48  1  0
 47 49  2  0
 49 50  1  0
 49 36  1  0
M  CHG  1  13   1
M  END
>  <UniqueID>  (26) 
26

>  <SMILES>  (26) 
CC/C(=C\c1ccc(OC)cc1)C(=O)OCC[NH+](CC)CC

>  <Energy>  (26) 
65.67257428691354

>  <Genealogy>  (26) 
CCC(=Cc1ccc(OC)cc1)C(=O)OCC[NH+](CC)CC (protonated)
CC/C(=C\c1ccc(OC)cc1)C(=O)OCC[NH+](CC)CC (cis-trans isomerization)
CC/C(=C\c1ccc(OC)cc1)C(=O)OCC[NH+](CC)CC (3D coordinates assigned)
CC/C(=C\c1ccc(OC)cc1)C(=O)OCC[NH+](CC)CC (optimized conformer: 65.67257428691354 kcal/mol)

>  <smiles>  (26) 
CCC(=Cc1ccc(OC)cc1)C(=O)OCCN(CC)CC

>  <score_type>  (26) 
oracle

>  <origin>  (26) 
adg

>  <m_score__min__energy>  (26) 
-5.8700000000000001

>  <m_primary>  (26) 
energy

$$$$
26:0
     RDKit          3D

 37 37  0  0  0  0  0  0  0  0999 V2000
   -4.5150   24.2380  -28.4350 C   0  0  0  0  0  0  0  0  0  0  0  0
   -3.5550   23.9790  -29.5940 C   0  0  0  0  0  0  0  0  0  0  0  0
   -4.2400   24.1910  -30.8910 N   0  0  0  0  0  0  0  0  0  0  0  0
   -4.3470   22.9270  -31.6590 C   0  0  0  0  0  0  0  0  0  0  0  0
   -3.0660   22.0990  -31.5760 C   0  0  0  0  0  0  0  0  0  0  0  0
   -5.5360   24.8970  -30.7270 C   0  0  0  0  0  0  0  0  0  0  0  0
   -6.6880   24.0950  -31.1750 C   0  0  0  0  0  0  0  0  0  0  0  0
   -7.6210   23.4200  -31.5290 C   0  0  0  0  0  0  0  0  0  0  0  0
   -8.7380   22.5690  -31.9550 C   0  0  0  0  0  0  0  0  0  0  0  0
   -8.8390   21.3050  -31.0930 C   0  0  0  0  0  0  0  0  0  0  0  0
   -8.0960   20.1390  -31.7010 C   0  0  0  0  0  0  0  0  0  0  0  0
   -8.6990   18.8720  -31.7690 C   0  0  0  0  0  0  0  0  0  0  0  0
   -8.0030   17.7890  -32.3140 C   0  0  0  0  0  0  0  0  0  0  0  0
   -6.7060   17.9640  -32.8050 C   0  0  0  0  0  0  0  0  0  0  0  0
   -6.1000   19.2220  -32.7470 C   0  0  0  0  0  0  0  0  0  0  0  0
   -4.3400   19.4670  -33.4490 Br  0  0  0  0  0  0  0  0  0  0  0  0
   -6.7880   20.3050  -32.1870 C   0  0  0  0  0  0  0  0  0  0  0  0
   -3.9856   24.0952  -27.4814 H   0  0  0  0  0  0  0  0  0  0  0  0
   -4.8915   25.2698  -28.4944 H   0  0  0  0  0  0  0  0  0  0  0  0
   -5.3594   23.5356  -28.4944 H   0  0  0  0  0  0  0  0  0  0  0  0
   -2.7013   24.6686  -29.5183 H   0  0  0  0  0  0  0  0  0  0  0  0
   -3.2059   22.9372  -29.5415 H   0  0  0  0  0  0  0  0  0  0  0  0
   -5.1803   22.3342  -31.2537 H   0  0  0  0  0  0  0  0  0  0  0  0
   -4.5189   23.1835  -32.7148 H   0  0  0  0  0  0  0  0  0  0  0  0
   -2.8058   21.9308  -30.5205 H   0  0  0  0  0  0  0  0  0  0  0  0
   -3.2224   21.1307  -32.0739 H   0  0  0  0  0  0  0  0  0  0  0  0
   -2.2473   22.6392  -32.0739 H   0  0  0  0  0  0  0  0  0  0  0  0
   -5.6707   25.1403  -29.6627 H   0  0  0  0  0  0  0  0  0  0  0  0
   -5.5004   25.8009  -31.3529 H   0  0  0  0  0  0  0  0  0  0  0  0
   -9.6752   23.1380  -31.8669 H   0  0  0  0  0  0  0  0  0  0  0  0
   -8.5628   22.2640  -32.9973 H   0  0  0  0  0  0  0  0  0  0  0  0
   -8.4137   21.5177  -30.1011 H   0  0  0  0  0  0  0  0  0  0  0  0
   -9.9013   21.0286  -31.0221 H   0  0  0  0  0  0  0  0  0  0  0  0
   -9.7228   18.7315  -31.3920 H   0  0  0  0  0  0  0  0  0  0  0  0
   -8.4769   16.7972  -32.3565 H   0  0  0  0  0  0  0  0  0  0  0  0
   -6.1621   17.1112  -33.2372 H   0  0  0  0  0  0  0  0  0  0  0  0
   -6.3025   21.2903  -32.1272 H   0  0  0  0  0  0  0  0  0  0  0  0
  1  2  1  0
  2  3  1  0
  3  4  1  0
  4  5  1  0
  3  6  1  0
  6  7  1  0
  7  8  3  0
  8  9  1  0
  9 10  1  0
 10 11  1  0
 11 12  2  0
 12 13  1  0
 13 14  2  0
 14 15  1  0
 15 16  1  0
 15 17  2  0
 17 11  1  0
  1 18  1  0
  1 19  1  0
  1 20  1  0
  2 21  1  0
  2 22  1  0
  4 23  1  0
  4 24  1  0
  5 25  1  0
  5 26  1  0
  5 27  1  0
  6 28  1  0
  6 29  1  0
  9 30  1  0
  9 31  1  0
 10 32  1  0
 10 33  1  0
 12 34  1  0
 13 35  1  0
 14 36  1  0
 17 37  1  0
M  END
>  <UniqueID>  (27) 
27

>  <SMILES>  (27) 
CCN(CC)CC#CCCc1cccc(Br)c1

>  <Energy>  (27) 
26.38065028356931

>  <Genealogy>  (27) 
CCN(CC)CC#CCCc1cccc(Br)c1 (3D coordinates assigned)
CCN(CC)CC#CCCc1cccc(Br)c1 (optimized conformer: 26.38065028356931 kcal/mol)

>  <smiles>  (27) 
CCN(CC)CC#CCCc1cccc(Br)c1

>  <score_type>  (27) 
oracle

>  <origin>  (27) 
adg

>  <m_score__min__energy>  (27) 
-6.8200000000000003

>  <m_primary>  (27) 
energy

$$$$
27:0
     RDKit          3D

 50 52  0  0  0  0  0  0  0  0999 V2000
   -2.7130   20.8300  -29.4180 C   0  0  0  0  0  0  0  0  0  0  0  0
   -2.8490   21.8350  -28.2650 C   0  0  0  0  0  0  0  0  0  0  0  0
   -2.9890   23.2580  -28.6870 N   0  0  0  0  0  0  0  0  0  0  0  0
   -1.9320   24.1440  -28.1280 C   0  0  0  0  0  0  0  0  0  0  0  0
   -2.3860   24.9260  -26.8910 C   0  0  0  0  0  0  0  0  0  0  0  0
   -4.3240   23.8420  -28.3880 C   0  0  0  0  0  0  0  0  0  0  0  0
   -5.3090   23.7410  -29.5660 C   0  0  0  0  0  0  0  0  0  0  0  0
   -4.6130   24.0120  -30.8300 N   0  0  0  0  0  0  0  0  0  0  0  0
   -5.4910   23.7880  -31.9880 C   0  0  0  0  0  0  0  0  0  0  0  0
   -5.6680   22.2940  -32.2670 C   0  0  0  0  0  0  0  0  0  0  0  0
   -6.9640   21.7110  -32.1560 C   0  0  0  0  0  0  0  0  0  0  0  0
   -8.0730   22.4560  -31.6790 C   0  0  0  0  0  0  0  0  0  0  0  0
   -9.3420   21.8870  -31.5900 C   0  0  0  0  0  0  0  0  0  0  0  0
   -9.5400   20.5670  -31.9670 C   0  0  0  0  0  0  0  0  0  0  0  0
   -8.4720   19.8050  -32.4280 C   0  0  0  0  0  0  0  0  0  0  0  0
   -7.1710   20.3530  -32.5250 C   0  0  0  0  0  0  0  0  0  0  0  0
   -6.0900   19.5670  -32.9800 C   0  0  0  0  0  0  0  0  0  0  0  0
   -6.3890   17.7260  -33.5210 Br  0  0  0  0  0  0  0  0  0  0  0  0
   -4.7870   20.1160  -33.0240 C   0  0  0  0  0  0  0  0  0  0  0  0
   -3.6880   19.3250  -33.4330 C   0  0  0  0  0  0  0  0  0  0  0  0
   -2.3960   19.8430  -33.4500 C   0  0  0  0  0  0  0  0  0  0  0  0
   -0.9300   18.7450  -33.9970 Br  0  0  0  0  0  0  0  0  0  0  0  0
   -2.1690   21.1530  -33.0530 C   0  0  0  0  0  0  0  0  0  0  0  0
   -3.2320   21.9580  -32.6550 C   0  0  0  0  0  0  0  0  0  0  0  0
   -4.5650   21.4730  -32.6480 C   0  0  0  0  0  0  0  0  0  0  0  0
   -2.5761   19.8183  -29.0084 H   0  0  0  0  0  0  0  0  0  0  0  0
   -3.6228   20.8554  -30.0358 H   0  0  0  0  0  0  0  0  0  0  0  0
   -1.8427   21.0963  -30.0358 H   0  0  0  0  0  0  0  0  0  0  0  0
   -3.7387   21.5634  -27.6779 H   0  0  0  0  0  0  0  0  0  0  0  0
   -1.9132   21.7740  -27.6900 H   0  0  0  0  0  0  0  0  0  0  0  0
   -2.8790   23.2770  -29.7290 H   0  0  0  0  0  0  0  0  0  0  0  0
   -1.0674   23.5232  -27.8503 H   0  0  0  0  0  0  0  0  0  0  0  0
   -1.6816   24.8814  -28.9049 H   0  0  0  0  0  0  0  0  0  0  0  0
   -2.0743   24.3891  -25.9830 H   0  0  0  0  0  0  0  0  0  0  0  0
   -1.9281   25.9261  -26.9010 H   0  0  0  0  0  0  0  0  0  0  0  0
   -3.4816   25.0242  -26.9010 H   0  0  0  0  0  0  0  0  0  0  0  0
   -4.7535   23.3091  -27.5268 H   0  0  0  0  0  0  0  0  0  0  0  0
   -4.1731   24.9115  -28.1797 H   0  0  0  0  0  0  0  0  0  0  0  0
   -5.7373   22.7283  -29.5963 H   0  0  0  0  0  0  0  0  0  0  0  0
   -6.1103   24.4822  -29.4300 H   0  0  0  0  0  0  0  0  0  0  0  0
   -3.8170   23.3340  -30.9080 H   0  0  0  0  0  0  0  0  0  0  0  0
   -6.4755   24.2340  -31.7835 H   0  0  0  0  0  0  0  0  0  0  0  0
   -5.0296   24.2550  -32.8706 H   0  0  0  0  0  0  0  0  0  0  0  0
   -7.9285   23.5028  -31.3735 H   0  0  0  0  0  0  0  0  0  0  0  0
  -10.1877   22.4855  -31.2203 H   0  0  0  0  0  0  0  0  0  0  0  0
  -10.5438   20.1220  -31.9012 H   0  0  0  0  0  0  0  0  0  0  0  0
   -8.6414   18.7587  -32.7222 H   0  0  0  0  0  0  0  0  0  0  0  0
   -3.8571   18.2832  -33.7428 H   0  0  0  0  0  0  0  0  0  0  0  0
   -1.1456   21.5564  -33.0529 H   0  0  0  0  0  0  0  0  0  0  0  0
   -3.0343   22.9929  -32.3390 H   0  0  0  0  0  0  0  0  0  0  0  0
  1  2  1  0
  2  3  1  0
  3  4  1  0
  4  5  1  0
  3  6  1  0
  6  7  1  0
  7  8  1  0
  8  9  1  0
  9 10  1  0
 10 11  2  0
 11 12  1  0
 12 13  2  0
 13 14  1  0
 14 15  2  0
 15 16  1  0
 16 17  2  0
 17 18  1  0
 17 19  1  0
 19 20  2  0
 20 21  1  0
 21 22  1  0
 21 23  2  0
 23 24  1  0
 24 25  2  0
 25 10  1  0
 16 11  1  0
 25 19  1  0
  1 26  1  0
  1 27  1  0
  1 28  1  0
  2 29  1  0
  2 30  1  0
  3 31  1  0
  4 32  1  0
  4 33  1  0
  5 34  1  0
  5 35  1  0
  5 36  1  0
  6 37  1  0
  6 38  1  0
  7 39  1  0
  7 40  1  0
  8 41  1  0
  9 42  1  0
  9 43  1  0
 12 44  1  0
 13 45  1  0
 14 46  1  0
 15 47  1  0
 20 48  1  0
 23 49  1  0
 24 50  1  0
M  CHG  1   3   1
M  END
>  <UniqueID>  (28) 
28

>  <SMILES>  (28) 
CC[NH+](CC)CCNCc1c2ccccc2c(Br)c2cc(Br)ccc12

>  <Energy>  (28) 
73.72483185836013

>  <Genealogy>  (28) 
CC[NH+](CC)CCNCc1c2ccccc2c(Br)c2cc(Br)ccc12 (protonated)
CC[NH+](CC)CCNCc1c2ccccc2c(Br)c2cc(Br)ccc12 (3D coordinates assigned)
CC[NH+](CC)CCNCc1c2ccccc2c(Br)c2cc(Br)ccc12 (optimized conformer: 73.72483185836013 kcal/mol)

>  <smiles>  (28) 
CCN(CC)CCNCc1c2ccccc2c(Br)c2cc(Br)ccc12

>  <score_type>  (28) 
oracle

>  <origin>  (28) 
adg

>  <m_score__min__energy>  (28) 
-8.0899999999999999

>  <m_primary>  (28) 
energy

$$$$
28:0
     RDKit          3D

 47 50  0  0  0  0  0  0  0  0999 V2000
    2.0150   21.7880  -35.3480 C   0  0  0  0  0  0  0  0  0  0  0  0
    0.8450   22.0730  -34.5880 O   0  0  0  0  0  0  0  0  0  0  0  0
   -0.1690   21.1440  -34.3190 C   0  0  0  0  0  0  0  0  0  0  0  0
   -0.1590   19.8390  -34.8490 C   0  0  0  0  0  0  0  0  0  0  0  0
   -1.1970   18.9490  -34.5520 C   0  0  0  0  0  0  0  0  0  0  0  0
   -2.2530   19.3460  -33.7180 C   0  0  0  0  0  0  0  0  0  0  0  0
   -3.3840   18.3930  -33.4270 C   0  0  0  0  0  0  0  0  0  0  0  0
   -4.4960   18.5600  -34.3920 N   0  0  0  0  0  0  0  0  0  0  0  0
   -5.2360   17.2960  -34.5820 C   0  0  0  0  0  0  0  0  0  0  0  0
   -6.2010   17.0700  -33.4520 C   0  0  0  0  0  0  0  0  0  0  0  0
   -6.1980   16.0080  -32.8430 O   0  0  0  0  0  0  0  0  0  0  0  0
   -7.1160   18.1430  -33.1230 N   0  0  1  0  0  0  0  0  0  0  0  0
   -8.0100   17.8150  -31.9970 C   0  0  0  0  0  0  0  0  0  0  0  0
   -9.1060   18.8780  -31.8770 C   0  0  0  0  0  0  0  0  0  0  0  0
   -8.5500   20.2760  -31.9560 C   0  0  0  0  0  0  0  0  0  0  0  0
   -9.3730   21.3430  -31.5610 C   0  0  0  0  0  0  0  0  0  0  0  0
   -8.8950   22.6530  -31.5910 C   0  0  0  0  0  0  0  0  0  0  0  0
   -7.5880   22.9090  -32.0010 C   0  0  0  0  0  0  0  0  0  0  0  0
   -6.7630   21.8590  -32.4110 C   0  0  0  0  0  0  0  0  0  0  0  0
   -7.2460   20.5340  -32.4530 C   0  0  0  0  0  0  0  0  0  0  0  0
   -6.3290   19.3690  -32.8350 C   0  0  2  0  0  0  0  0  0  0  0  0
   -5.4110   19.6840  -34.0590 C   0  0  0  0  0  0  0  0  0  0  0  0
   -2.2650   20.6470  -33.1930 C   0  0  0  0  0  0  0  0  0  0  0  0
   -1.2280   21.5360  -33.4920 C   0  0  0  0  0  0  0  0  0  0  0  0
    2.8540   21.5836  -34.6667 H   0  0  0  0  0  0  0  0  0  0  0  0
    1.8348   20.9075  -35.9822 H   0  0  0  0  0  0  0  0  0  0  0  0
    2.2599   22.6527  -35.9822 H   0  0  0  0  0  0  0  0  0  0  0  0
    0.6683   19.5182  -35.4991 H   0  0  0  0  0  0  0  0  0  0  0  0
   -1.1850   17.9334  -34.9743 H   0  0  0  0  0  0  0  0  0  0  0  0
   -3.0075   17.3614  -33.4903 H   0  0  0  0  0  0  0  0  0  0  0  0
   -3.7666   18.6087  -32.4185 H   0  0  0  0  0  0  0  0  0  0  0  0
   -5.7936   17.3429  -35.5290 H   0  0  0  0  0  0  0  0  0  0  0  0
   -4.5160   16.4646  -34.6037 H   0  0  0  0  0  0  0  0  0  0  0  0
   -7.7060   18.3050  -33.9750 H   0  0  0  0  0  0  0  0  0  0  0  0
   -8.4722   16.8323  -32.1722 H   0  0  0  0  0  0  0  0  0  0  0  0
   -7.4257   17.7895  -31.0653 H   0  0  0  0  0  0  0  0  0  0  0  0
   -9.8283   18.7367  -32.6945 H   0  0  0  0  0  0  0  0  0  0  0  0
   -9.5870   18.7595  -30.8949 H   0  0  0  0  0  0  0  0  0  0  0  0
  -10.4016   21.1444  -31.2256 H   0  0  0  0  0  0  0  0  0  0  0  0
   -9.5499   23.4843  -31.2909 H   0  0  0  0  0  0  0  0  0  0  0  0
   -7.2051   23.9402  -32.0018 H   0  0  0  0  0  0  0  0  0  0  0  0
   -5.7237   22.0678  -32.7048 H   0  0  0  0  0  0  0  0  0  0  0  0
   -5.6801   19.2047  -31.9621 H   0  0  0  0  0  0  0  0  0  0  0  0
   -6.0470   19.8911  -34.9323 H   0  0  0  0  0  0  0  0  0  0  0  0
   -4.7896   20.5523  -33.7946 H   0  0  0  0  0  0  0  0  0  0  0  0
   -3.0929   20.9687  -32.5441 H   0  0  0  0  0  0  0  0  0  0  0  0
   -1.2446   22.5531  -33.0733 H   0  0  0  0  0  0  0  0  0  0  0  0
  1  2  1  0
  2  3  1  0
  3  4  2  0
  4  5  1  0
  5  6  2  0
  6  7  1  0
  7  8  1  0
  8  9  1  0
  9 10  1  0
 10 11  2  0
 10 12  1  0
 12 13  1  0
 13 14  1  0
 14 15  1  0
 15 16  2  0
 16 17  1  0
 17 18  2  0
 18 19  1  0
 19 20  2  0
 20 21  1  0
 21 22  1  0
  6 23  1  0
 23 24  2  0
 24  3  1  0
 22  8  1  0
 21 12  1  0
 20 15  1  0
  1 25  1  0
  1 26  1  0
  1 27  1  0
  4 28  1  0
  5 29  1  0
  7 30  1  0
  7 31  1  0
  9 32  1  0
  9 33  1  0
 12 34  1  6
 13 35  1  0
 13 36  1  0
 14 37  1  0
 14 38  1  0
 16 39  1  0
 17 40  1  0
 18 41  1  0
 19 42  1  0
 21 43  1  1
 22 44  1  0
 22 45  1  0
 23 46  1  0
 24 47  1  0
M  CHG  1  12   1
M  END
>  <UniqueID>  (29) 
29

>  <SMILES>  (29) 
COc1ccc(CN2CC(=O)[N@H+]3CCc4ccccc4[C@@H]3C2)cc1

>  <Energy>  (29) 
65.81148714400072

>  <Genealogy>  (29) 
COc1ccc(CN2CC(=O)[NH+]3CCc4ccccc4C3C2)cc1 (protonated)
COc1ccc(CN2CC(=O)[N@H+]3CCc4ccccc4[C@@H]3C2)cc1 (chirality)
COc1ccc(CN2CC(=O)[N@H+]3CCc4ccccc4[C@@H]3C2)cc1 (3D coordinates assigned)
COc1ccc(CN2CC(=O)[N@H+]3CCc4ccccc4[C@@H]3C2)cc1 (nonaromatic ring conformer: 65.81148714400072 kcal/mol)

>  <smiles>  (29) 
COc1ccc(CN2CC(=O)N3CCc4ccccc4C3C2)cc1

>  <score_type>  (29) 
oracle

>  <origin>  (29) 
adg

>  <m_score__min__energy>  (29) 
-8.2100000000000009

>  <m_primary>  (29) 
energy

$$$$
29:0
     RDKit          3D

 39 41  0  0  0  0  0  0  0  0999 V2000
   -9.0450   23.4220  -32.3490 C   0  0  0  0  0  0  0  0  0  0  0  0
   -7.8170   23.0500  -31.6260 N   0  0  0  0  0  0  0  0  0  0  0  0
   -8.0010   21.7800  -30.8920 C   0  0  0  0  0  0  0  0  0  0  0  0
   -7.6080   20.6010  -31.7430 C   0  0  0  0  0  0  0  0  0  0  0  0
   -8.2790   19.3750  -31.6020 C   0  0  0  0  0  0  0  0  0  0  0  0
   -7.9170   18.2780  -32.3900 C   0  0  0  0  0  0  0  0  0  0  0  0
   -6.8780   18.3950  -33.3180 C   0  0  0  0  0  0  0  0  0  0  0  0
   -6.1990   19.6080  -33.4570 C   0  0  0  0  0  0  0  0  0  0  0  0
   -6.5570   20.7070  -32.6710 C   0  0  0  0  0  0  0  0  0  0  0  0
   -7.3110   24.1560  -30.7780 C   0  0  0  0  0  0  0  0  0  0  0  0
   -5.8100   24.1940  -30.6640 C   0  0  0  0  0  0  0  0  0  0  0  0
   -5.0300   25.3240  -30.5830 C   0  0  0  0  0  0  0  0  0  0  0  0
   -3.7830   24.9310  -30.5020 O   0  0  0  0  0  0  0  0  0  0  0  0
   -3.7770   23.6150  -30.5290 C   0  0  0  0  0  0  0  0  0  0  0  0
   -2.5530   22.7760  -30.4630 C   0  0  0  0  0  0  0  0  0  0  0  0
   -1.6880   22.9250  -29.3610 C   0  0  0  0  0  0  0  0  0  0  0  0
   -0.5270   22.1560  -29.2550 C   0  0  0  0  0  0  0  0  0  0  0  0
   -0.2100   21.2280  -30.2450 C   0  0  0  0  0  0  0  0  0  0  0  0
   -1.0520   21.0660  -31.3440 C   0  0  0  0  0  0  0  0  0  0  0  0
   -2.2210   21.8290  -31.4650 C   0  0  0  0  0  0  0  0  0  0  0  0
   -3.2150   21.5520  -32.8930 Cl  0  0  0  0  0  0  0  0  0  0  0  0
   -5.0250   23.1020  -30.6270 N   0  0  0  0  0  0  0  0  0  0  0  0
   -9.8380   23.6622  -31.6255 H   0  0  0  0  0  0  0  0  0  0  0  0
   -8.8467   24.3004  -32.9808 H   0  0  0  0  0  0  0  0  0  0  0  0
   -9.3675   22.5812  -32.9808 H   0  0  0  0  0  0  0  0  0  0  0  0
   -7.3760   21.7942  -29.9869 H   0  0  0  0  0  0  0  0  0  0  0  0
   -9.0637   21.6806  -30.6260 H   0  0  0  0  0  0  0  0  0  0  0  0
   -9.0929   19.2774  -30.8684 H   0  0  0  0  0  0  0  0  0  0  0  0
   -8.4502   17.3222  -32.2796 H   0  0  0  0  0  0  0  0  0  0  0  0
   -6.5951   17.5320  -33.9387 H   0  0  0  0  0  0  0  0  0  0  0  0
   -5.3808   19.6984  -34.1866 H   0  0  0  0  0  0  0  0  0  0  0  0
   -6.0147   21.6580  -32.7788 H   0  0  0  0  0  0  0  0  0  0  0  0
   -7.6505   25.1086  -31.2108 H   0  0  0  0  0  0  0  0  0  0  0  0
   -7.7060   23.9905  -29.7648 H   0  0  0  0  0  0  0  0  0  0  0  0
   -5.3870   26.3644  -30.5857 H   0  0  0  0  0  0  0  0  0  0  0  0
   -1.9299   23.6555  -28.5749 H   0  0  0  0  0  0  0  0  0  0  0  0
    0.1384   22.2831  -28.3884 H   0  0  0  0  0  0  0  0  0  0  0  0
    0.7048   20.6232  -30.1592 H   0  0  0  0  0  0  0  0  0  0  0  0
   -0.7965   20.3327  -32.1231 H   0  0  0  0  0  0  0  0  0  0  0  0
  1  2  1  0
  2  3  1  0
  3  4  1  0
  4  5  2  0
  5  6  1  0
  6  7  2  0
  7  8  1  0
  8  9  2  0
  2 10  1  0
 10 11  1  0
 11 12  2  0
 12 13  1  0
 13 14  1  0
 14 15  1  0
 15 16  2  0
 16 17  1  0
 17 18  2  0
 18 19  1  0
 19 20  2  0
 20 21  1  0
 14 22  2  0
  9  4  1  0
 22 11  1  0
 20 15  1  0
  1 23  1  0
  1 24  1  0
  1 25  1  0
  3 26  1  0
  3 27  1  0
  5 28  1  0
  6 29  1  0
  7 30  1  0
  8 31  1  0
  9 32  1  0
 10 33  1  0
 10 34  1  0
 12 35  1  0
 16 36  1  0
 17 37  1  0
 18 38  1  0
 19 39  1  0
M  END
>  <UniqueID>  (30) 
30

>  <SMILES>  (30) 
CN(Cc1ccccc1)Cc1coc(-c2ccccc2Cl)n1

>  <Energy>  (30) 
75.95006595704405

>  <Genealogy>  (30) 
CN(Cc1ccccc1)Cc1coc(-c2ccccc2Cl)n1 (3D coordinates assigned)
CN(Cc1ccccc1)Cc1coc(-c2ccccc2Cl)n1 (optimized conformer: 75.95006595704405 kcal/mol)

>  <smiles>  (30) 
CN(Cc1ccccc1)Cc1coc(-c2ccccc2Cl)n1

>  <score_type>  (30) 
oracle

>  <origin>  (30) 
adg

>  <m_score__min__energy>  (30) 
-8.2200000000000006

>  <m_primary>  (30) 
energy

$$$$
30:0
     RDKit          3D

 64 67  0  0  0  0  0  0  0  0999 V2000
    4.1570   20.2000  -28.2320 C   0  0  0  0  0  0  0  0  0  0  0  0
    2.7520   20.0090  -28.0940 O   0  0  0  0  0  0  0  0  0  0  0  0
    2.1190   18.7730  -27.8950 C   0  0  0  0  0  0  0  0  0  0  0  0
    2.8900   17.6050  -27.7190 C   0  0  0  0  0  0  0  0  0  0  0  0
    2.2850   16.3750  -27.4800 C   0  0  0  0  0  0  0  0  0  0  0  0
    0.9030   16.2850  -27.4070 C   0  0  0  0  0  0  0  0  0  0  0  0
    0.1170   17.4220  -27.5830 C   0  0  0  0  0  0  0  0  0  0  0  0
    0.6920   18.6910  -27.8490 C   0  0  0  0  0  0  0  0  0  0  0  0
   -0.1740   19.8550  -28.0680 N   0  0  0  0  0  0  0  0  0  0  0  0
   -0.8840   20.4330  -26.9060 C   0  0  0  0  0  0  0  0  0  0  0  0
   -1.7460   21.6360  -27.2530 C   0  0  0  0  0  0  0  0  0  0  0  0
   -2.4920   21.3320  -28.4800 N   0  0  0  0  0  0  0  0  0  0  0  0
   -3.6140   22.2780  -28.6660 C   0  0  0  0  0  0  0  0  0  0  0  0
   -3.1810   23.7460  -28.4220 C   0  0  2  0  0  0  0  0  0  0  0  0
   -4.3160   24.5410  -27.7590 C   0  0  0  0  0  0  0  0  0  0  0  0
   -2.7010   24.4400  -29.7120 C   0  0  0  0  0  0  0  0  0  0  0  0
   -3.7870   25.1970  -30.3300 N   0  0  0  0  0  0  0  0  0  0  0  0
   -4.9890   24.6390  -30.8780 C   0  0  0  0  0  0  0  0  0  0  0  0
   -6.0560   25.3000  -30.7910 O   0  0  0  0  0  0  0  0  0  0  0  0
   -5.0330   23.2910  -31.4810 C   0  0  0  0  0  0  0  0  0  0  0  0
   -3.8540   22.6820  -31.9520 C   0  0  0  0  0  0  0  0  0  0  0  0
   -3.8950   21.4140  -32.5560 C   0  0  0  0  0  0  0  0  0  0  0  0
   -5.1180   20.7450  -32.6750 C   0  0  0  0  0  0  0  0  0  0  0  0
   -6.2290   21.3420  -32.1720 N   0  0  0  0  0  0  0  0  0  0  0  0
   -7.4970   20.9050  -32.1030 C   0  0  0  0  0  0  0  0  0  0  0  0
   -8.0000   19.6110  -32.6700 C   0  0  0  0  0  0  0  0  0  0  0  0
   -8.2370   21.8940  -31.4680 C   0  0  0  0  0  0  0  0  0  0  0  0
   -9.7030   21.8620  -31.1840 C   0  0  0  0  0  0  0  0  0  0  0  0
   -7.4340   22.9340  -31.1350 N   0  0  0  0  0  0  0  0  0  0  0  0
   -6.2200   22.5570  -31.5920 C   0  0  0  0  0  0  0  0  0  0  0  0
   -1.5450   21.3860  -29.6030 C   0  0  0  0  0  0  0  0  0  0  0  0
   -0.4120   20.3510  -29.4480 C   0  0  0  0  0  0  0  0  0  0  0  0
    4.6182   20.2627  -27.2353 H   0  0  0  0  0  0  0  0  0  0  0  0
    4.5898   19.3524  -28.7836 H   0  0  0  0  0  0  0  0  0  0  0  0
    4.3479   21.1324  -28.7836 H   0  0  0  0  0  0  0  0  0  0  0  0
    3.9870   17.6675  -27.7715 H   0  0  0  0  0  0  0  0  0  0  0  0
    2.9027   15.4743  -27.3490 H   0  0  0  0  0  0  0  0  0  0  0  0
    0.4261   15.3136  -27.2097 H   0  0  0  0  0  0  0  0  0  0  0  0
   -0.9772   17.3332  -27.5139 H   0  0  0  0  0  0  0  0  0  0  0  0
   -1.5307   19.6559  -26.4725 H   0  0  0  0  0  0  0  0  0  0  0  0
   -0.1153   20.7812  -26.2004 H   0  0  0  0  0  0  0  0  0  0  0  0
   -2.4487   21.8390  -26.4315 H   0  0  0  0  0  0  0  0  0  0  0  0
   -1.1137   22.5233  -27.4047 H   0  0  0  0  0  0  0  0  0  0  0  0
   -3.9902   22.1850  -29.6955 H   0  0  0  0  0  0  0  0  0  0  0  0
   -4.3952   22.0275  -27.9332 H   0  0  0  0  0  0  0  0  0  0  0  0
   -2.3206   23.7210  -27.7371 H   0  0  0  0  0  0  0  0  0  0  0  0
   -4.2203   24.4740  -26.6652 H   0  0  0  0  0  0  0  0  0  0  0  0
   -4.2550   25.5948  -28.0685 H   0  0  0  0  0  0  0  0  0  0  0  0
   -5.2855   24.1235  -28.0685 H   0  0  0  0  0  0  0  0  0  0  0  0
   -1.8772   25.1264  -29.4669 H   0  0  0  0  0  0  0  0  0  0  0  0
   -2.3608   23.6702  -30.4203 H   0  0  0  0  0  0  0  0  0  0  0  0
   -2.8915   23.2040  -31.8461 H   0  0  0  0  0  0  0  0  0  0  0  0
   -2.9715   20.9503  -32.9329 H   0  0  0  0  0  0  0  0  0  0  0  0
   -5.1780   19.7611  -33.1633 H   0  0  0  0  0  0  0  0  0  0  0  0
   -8.2650   18.9291  -31.8485 H   0  0  0  0  0  0  0  0  0  0  0  0
   -8.8891   19.8028  -33.2887 H   0  0  0  0  0  0  0  0  0  0  0  0
   -7.2148   19.1519  -33.2887 H   0  0  0  0  0  0  0  0  0  0  0  0
   -9.8657   21.8584  -30.0961 H   0  0  0  0  0  0  0  0  0  0  0  0
  -10.1811   22.7499  -31.6234 H   0  0  0  0  0  0  0  0  0  0  0  0
  -10.1419   20.9541  -31.6234 H   0  0  0  0  0  0  0  0  0  0  0  0
   -2.0886   21.1814  -30.5372 H   0  0  0  0  0  0  0  0  0  0  0  0
   -1.0921   22.3883  -29.6201 H   0  0  0  0  0  0  0  0  0  0  0  0
   -0.6571   19.4850  -30.0804 H   0  0  0  0  0  0  0  0  0  0  0  0
    0.5111   20.8722  -29.7416 H   0  0  0  0  0  0  0  0  0  0  0  0
  1  2  1  0
  2  3  1  0
  3  4  2  0
  4  5  1  0
  5  6  2  0
  6  7  1  0
  7  8  2  0
  8  9  1  0
  9 10  1  0
 10 11  1  0
 11 12  1  0
 12 13  1  0
 13 14  1  0
 14 15  1  0
 14 16  1  0
 16 17  1  0
 17 18  1  0
 18 19  2  0
 18 20  1  0
 20 21  2  0
 21 22  1  0
 22 23  2  0
 23 24  1  0
 24 25  1  0
 25 26  1  0
 25 27  2  0
 27 28  1  0
 27 29  1  0
 29 30  2  0
 12 31  1  0
 31 32  1  0
  8  3  1  0
 32  9  1  0
 30 20  1  0
 30 24  1  0
  1 33  1  0
  1 34  1  0
  1 35  1  0
  4 36  1  0
  5 37  1  0
  6 38  1  0
  7 39  1  0
 10 40  1  0
 10 41  1  0
 11 42  1  0
 11 43  1  0
 13 44  1  0
 13 45  1  0
 14 46  1  1
 15 47  1  0
 15 48  1  0
 15 49  1  0
 16 50  1  0
 16 51  1  0
 21 52  1  0
 22 53  1  0
 23 54  1  0
 26 55  1  0
 26 56  1  0
 26 57  1  0
 28 58  1  0
 28 59  1  0
 28 60  1  0
 31 61  1  0
 31 62  1  0
 32 63  1  0
 32 64  1  0
M  CHG  1  17  -1
M  END
>  <UniqueID>  (31) 
31

>  <SMILES>  (31) 
COc1ccccc1N1CCN(C[C@H](C)C[N-]C(=O)c2cccn3c(C)c(C)nc23)CC1

>  <Energy>  (31) 
111.68506309315329

>  <Genealogy>  (31) 
COc1ccccc1N1CCN(CC(C)C[N-]C(=O)c2cccn3c(C)c(C)nc23)CC1 (protonated)
COc1ccccc1N1CCN(C[C@H](C)C[N-]C(=O)c2cccn3c(C)c(C)nc23)CC1 (chirality)
COc1ccccc1N1CCN(C[C@H](C)C[N-]C(=O)c2cccn3c(C)c(C)nc23)CC1 (3D coordinates assigned)
COc1ccccc1N1CCN(C[C@H](C)C[N-]C(=O)c2cccn3c(C)c(C)nc23)CC1 (nonaromatic ring conformer: 111.68506309315329 kcal/mol)

>  <smiles>  (31) 
COc1ccccc1N1CCN(CC(C)CNC(=O)c2cccn3c(C)c(C)nc23)CC1

>  <score_type>  (31) 
oracle

>  <origin>  (31) 
adg

>  <m_score__min__energy>  (31) 
-10.67

>  <m_primary>  (31) 
energy

$$$$
31:0
     RDKit          3D

 32 34  0  0  0  0  0  0  0  0999 V2000
   -2.6670   24.4650  -28.4120 C   0  0  0  0  0  0  0  0  0  0  0  0
   -3.0480   24.9250  -29.7050 O   0  0  0  0  0  0  0  0  0  0  0  0
   -4.0900   24.3730  -30.4660 C   0  0  0  0  0  0  0  0  0  0  0  0
   -3.9340   23.1900  -31.2130 C   0  0  0  0  0  0  0  0  0  0  0  0
   -5.0040   22.6810  -31.9550 C   0  0  0  0  0  0  0  0  0  0  0  0
   -6.2440   23.3430  -31.9690 C   0  0  0  0  0  0  0  0  0  0  0  0
   -7.3550   22.7970  -32.7080 N   0  0  0  0  0  0  0  0  0  0  0  0
   -7.6570   21.4770  -32.2240 C   0  0  0  0  0  0  0  0  0  0  0  0
   -7.1870   20.3160  -32.6650 C   0  0  0  0  0  0  0  0  0  0  0  0
   -6.2070   20.0570  -33.6280 C   0  0  0  0  0  0  0  0  0  0  0  0
   -5.8970   18.7170  -33.9130 C   0  0  0  0  0  0  0  0  0  0  0  0
   -6.5590   17.6700  -33.2420 C   0  0  0  0  0  0  0  0  0  0  0  0
   -7.5430   17.9500  -32.2780 C   0  0  0  0  0  0  0  0  0  0  0  0
   -7.8430   19.2840  -32.0040 C   0  0  0  0  0  0  0  0  0  0  0  0
   -8.7360   19.6850  -31.1530 N   0  0  0  0  0  0  0  0  0  0  0  0
   -8.6710   21.1050  -31.2520 C   0  0  0  0  0  0  0  0  0  0  0  0
   -9.3910   21.8930  -30.5870 O   0  0  0  0  0  0  0  0  0  0  0  0
   -6.3950   24.5220  -31.2190 C   0  0  0  0  0  0  0  0  0  0  0  0
   -5.3250   25.0310  -30.4770 C   0  0  0  0  0  0  0  0  0  0  0  0
   -3.1695   25.0717  -27.6442 H   0  0  0  0  0  0  0  0  0  0  0  0
   -2.9603   23.4111  -28.2966 H   0  0  0  0  0  0  0  0  0  0  0  0
   -1.5769   24.5569  -28.2966 H   0  0  0  0  0  0  0  0  0  0  0  0
   -2.9675   22.6647  -31.2129 H   0  0  0  0  0  0  0  0  0  0  0  0
   -4.8744   21.7541  -32.5331 H   0  0  0  0  0  0  0  0  0  0  0  0
   -8.1930   23.4180  -32.6240 H   0  0  0  0  0  0  0  0  0  0  0  0
   -7.1140   22.7380  -33.7250 H   0  0  0  0  0  0  0  0  0  0  0  0
   -5.6934   20.8793  -34.1477 H   0  0  0  0  0  0  0  0  0  0  0  0
   -5.1307   18.4831  -34.6667 H   0  0  0  0  0  0  0  0  0  0  0  0
   -6.3040   16.6255  -33.4742 H   0  0  0  0  0  0  0  0  0  0  0  0
   -8.0640   17.1362  -31.7523 H   0  0  0  0  0  0  0  0  0  0  0  0
   -7.3613   25.0476  -31.2158 H   0  0  0  0  0  0  0  0  0  0  0  0
   -5.4550   25.9565  -29.8969 H   0  0  0  0  0  0  0  0  0  0  0  0
  1  2  1  0
  2  3  1  0
  3  4  2  0
  4  5  1  0
  5  6  2  0
  6  7  1  0
  7  8  1  0
  8  9  2  0
  9 10  1  0
 10 11  2  0
 11 12  1  0
 12 13  2  0
 13 14  1  0
 14 15  2  0
 15 16  1  0
 16 17  2  0
  6 18  1  0
 18 19  2  0
 19  3  1  0
 16  8  1  0
 14  9  1  0
  1 20  1  0
  1 21  1  0
  1 22  1  0
  4 23  1  0
  5 24  1  0
  7 25  1  0
  7 26  1  0
 10 27  1  0
 11 28  1  0
 12 29  1  0
 13 30  1  0
 18 31  1  0
 19 32  1  0
M  CHG  1   7   1
M  END
>  <UniqueID>  (32) 
32

>  <SMILES>  (32) 
COc1ccc([NH2+]C2=c3ccccc3=NC2=O)cc1

>  <Energy>  (32) 
68.81491476888012

>  <Genealogy>  (32) 
COc1ccc([NH2+]C2=c3ccccc3=NC2=O)cc1 (protonated)
COc1ccc([NH2+]C2=c3ccccc3=NC2=O)cc1 (3D coordinates assigned)
COc1ccc([NH2+]C2=c3ccccc3=NC2=O)cc1 (nonaromatic ring conformer: 68.81491476888012 kcal/mol)

>  <smiles>  (32) 
COc1ccc(NC2=c3ccccc3=NC2=O)cc1

>  <score_type>  (32) 
oracle

>  <origin>  (32) 
adg

>  <m_score__min__energy>  (32) 
-7.5999999999999996

>  <m_primary>  (32) 
energy

$$$$
32:0
     RDKit          3D

 58 59  0  0  0  0  0  0  0  0999 V2000
   -9.1140   20.8570  -31.8420 C   0  0  0  0  0  0  0  0  0  0  0  0
   -8.7610   19.3960  -31.5910 C   0  0  0  0  0  0  0  0  0  0  0  0
   -7.8780   18.9160  -32.6810 N   0  0  0  0  0  0  0  0  0  0  0  0
   -6.9130   17.8940  -32.2140 C   0  0  0  0  0  0  0  0  0  0  0  0
   -6.6620   16.8240  -33.2750 C   0  0  0  0  0  0  0  0  0  0  0  0
   -7.2820   20.0250  -33.4670 C   0  0  0  0  0  0  0  0  0  0  0  0
   -5.7380   20.0260  -33.4750 C   0  0  0  0  0  0  0  0  0  0  0  0
   -5.2190   21.0640  -32.5570 N   0  0  0  0  0  0  0  0  0  0  0  0
   -4.9270   20.4870  -31.2280 C   0  0  0  0  0  0  0  0  0  0  0  0
   -4.3590   21.5540  -30.2880 C   0  0  0  0  0  0  0  0  0  0  0  0
   -3.1890   22.2080  -30.8880 N   0  0  0  0  0  0  0  0  0  0  0  0
   -2.2400   22.8830  -30.0370 C   0  0  0  0  0  0  0  0  0  0  0  0
   -1.1440   22.1850  -29.5220 C   0  0  0  0  0  0  0  0  0  0  0  0
   -0.2640   22.8140  -28.7080 N   0  0  0  0  0  0  0  0  0  0  0  0
   -0.4020   24.0960  -28.3700 N   0  0  0  0  0  0  0  0  0  0  0  0
    0.6010   24.6950  -27.4880 C   0  0  0  0  0  0  0  0  0  0  0  0
   -1.4520   24.8360  -28.8420 C   0  0  0  0  0  0  0  0  0  0  0  0
   -1.5620   26.0450  -28.5040 O   0  0  0  0  0  0  0  0  0  0  0  0
   -2.3990   24.2370  -29.7060 C   0  0  0  0  0  0  0  0  0  0  0  0
   -3.4860   24.9270  -30.2710 O   0  0  0  0  0  0  0  0  0  0  0  0
   -4.8460   24.8750  -29.8470 C   0  0  0  0  0  0  0  0  0  0  0  0
   -5.7740   24.9240  -31.0610 C   0  0  0  0  0  0  0  0  0  0  0  0
   -6.7960   23.7870  -31.0570 C   0  0  0  0  0  0  0  0  0  0  0  0
   -7.1270   23.4190  -32.3540 F   0  0  0  0  0  0  0  0  0  0  0  0
   -2.8320   21.8990  -32.2770 C   0  0  0  0  0  0  0  0  0  0  0  0
   -4.0920   21.8360  -33.1560 C   0  0  0  0  0  0  0  0  0  0  0  0
   -9.2391   21.3746  -30.8795 H   0  0  0  0  0  0  0  0  0  0  0  0
   -8.3059   21.3365  -32.4139 H   0  0  0  0  0  0  0  0  0  0  0  0
  -10.0519   20.9146  -32.4139 H   0  0  0  0  0  0  0  0  0  0  0  0
   -8.2396   19.3034  -30.6269 H   0  0  0  0  0  0  0  0  0  0  0  0
   -9.6799   18.7919  -31.5653 H   0  0  0  0  0  0  0  0  0  0  0  0
   -5.9598   18.3877  -31.9738 H   0  0  0  0  0  0  0  0  0  0  0  0
   -7.3383   17.4024  -31.3266 H   0  0  0  0  0  0  0  0  0  0  0  0
   -6.4373   15.8659  -32.7835 H   0  0  0  0  0  0  0  0  0  0  0  0
   -7.5584   16.7127  -33.9027 H   0  0  0  0  0  0  0  0  0  0  0  0
   -5.8096   17.1229  -33.9027 H   0  0  0  0  0  0  0  0  0  0  0  0
   -7.6338   19.9414  -34.5059 H   0  0  0  0  0  0  0  0  0  0  0  0
   -7.5997   20.9629  -32.9880 H   0  0  0  0  0  0  0  0  0  0  0  0
   -5.3731   19.0401  -33.1511 H   0  0  0  0  0  0  0  0  0  0  0  0
   -5.3862   20.2425  -34.4945 H   0  0  0  0  0  0  0  0  0  0  0  0
   -5.8554   20.0837  -30.7975 H   0  0  0  0  0  0  0  0  0  0  0  0
   -4.1819   19.6864  -31.3458 H   0  0  0  0  0  0  0  0  0  0  0  0
   -5.1333   22.3101  -30.0909 H   0  0  0  0  0  0  0  0  0  0  0  0
   -4.0497   21.0693  -29.3502 H   0  0  0  0  0  0  0  0  0  0  0  0
   -0.9966   21.1254  -29.7779 H   0  0  0  0  0  0  0  0  0  0  0  0
    0.3157   24.5246  -26.4394 H   0  0  0  0  0  0  0  0  0  0  0  0
    1.5810   24.2341  -27.6809 H   0  0  0  0  0  0  0  0  0  0  0  0
    0.6600   25.7763  -27.6809 H   0  0  0  0  0  0  0  0  0  0  0  0
   -5.0195   23.9405  -29.2932 H   0  0  0  0  0  0  0  0  0  0  0  0
   -5.0551   25.7377  -29.1974 H   0  0  0  0  0  0  0  0  0  0  0  0
   -6.3122   25.8833  -31.0562 H   0  0  0  0  0  0  0  0  0  0  0  0
   -5.1538   24.8155  -31.9630 H   0  0  0  0  0  0  0  0  0  0  0  0
   -6.3683   22.9192  -30.5336 H   0  0  0  0  0  0  0  0  0  0  0  0
   -7.7061   24.1319  -30.5445 H   0  0  0  0  0  0  0  0  0  0  0  0
   -2.1615   22.6819  -32.6611 H   0  0  0  0  0  0  0  0  0  0  0  0
   -2.3291   20.9211  -32.3058 H   0  0  0  0  0  0  0  0  0  0  0  0
   -4.4371   22.8645  -33.3381 H   0  0  0  0  0  0  0  0  0  0  0  0
   -3.8063   21.3117  -34.0798 H   0  0  0  0  0  0  0  0  0  0  0  0
  1  2  1  0
  2  3  1  0
  3  4  1  0
  4  5  1  0
  3  6  1  0
  6  7  1  0
  7  8  1  0
  8  9  1  0
  9 10  1  0
 10 11  1  0
 11 12  1  0
 12 13  1  0
 13 14  2  0
 14 15  1  0
 15 16  1  0
 15 17  1  0
 17 18  2  0
 17 19  1  0
 19 20  1  0
 20 21  1  0
 21 22  1  0
 22 23  1  0
 23 24  1  0
 11 25  1  0
 25 26  1  0
 26  8  1  0
 19 12  2  0
  1 27  1  0
  1 28  1  0
  1 29  1  0
  2 30  1  0
  2 31  1  0
  4 32  1  0
  4 33  1  0
  5 34  1  0
  5 35  1  0
  5 36  1  0
  6 37  1  0
  6 38  1  0
  7 39  1  0
  7 40  1  0
  9 41  1  0
  9 42  1  0
 10 43  1  0
 10 44  1  0
 13 45  1  0
 16 46  1  0
 16 47  1  0
 16 48  1  0
 21 49  1  0
 21 50  1  0
 22 51  1  0
 22 52  1  0
 23 53  1  0
 23 54  1  0
 25 55  1  0
 25 56  1  0
 26 57  1  0
 26 58  1  0
M  END
>  <UniqueID>  (33) 
33

>  <SMILES>  (33) 
CCN(CC)CCN1CCN(c2cnn(C)c(=O)c2OCCCF)CC1

>  <Energy>  (33) 
67.63072006931964

>  <Genealogy>  (33) 
CCN(CC)CCN1CCN(c2cnn(C)c(=O)c2OCCCF)CC1 (3D coordinates assigned)
CCN(CC)CCN1CCN(c2cnn(C)c(=O)c2OCCCF)CC1 (nonaromatic ring conformer: 67.63072006931964 kcal/mol)

>  <smiles>  (33) 
CCN(CC)CCN1CCN(c2cnn(C)c(=O)c2OCCCF)CC1

>  <score_type>  (33) 
oracle

>  <origin>  (33) 
adg

>  <m_score__min__energy>  (33) 
-6.8600000000000003

>  <m_primary>  (33) 
energy

$$$$
33:0
     RDKit          3D

 39 39  0  0  0  0  0  0  0  0999 V2000
   -4.9180   20.3180  -33.1350 C   0  0  0  0  0  0  0  0  0  0  0  0
   -4.7730   18.9290  -33.7840 C   0  0  0  0  0  0  0  0  0  0  0  0
   -5.8740   17.9590  -33.5020 N   0  0  0  0  0  0  0  0  0  0  0  0
   -6.1440   17.0340  -34.6330 C   0  0  0  0  0  0  0  0  0  0  0  0
   -6.8140   15.7140  -34.2380 C   0  0  0  0  0  0  0  0  0  0  0  0
   -5.7830   17.2480  -32.1990 C   0  0  0  0  0  0  0  0  0  0  0  0
   -6.8130   17.7660  -31.1790 C   0  0  0  0  0  0  0  0  0  0  0  0
   -7.1450   19.1230  -31.4600 O   0  0  0  0  0  0  0  0  0  0  0  0
   -8.3380   19.5100  -32.0810 C   0  0  0  0  0  0  0  0  0  0  0  0
   -8.7970   18.8630  -33.0620 O   0  0  0  0  0  0  0  0  0  0  0  0
   -9.1040   20.6680  -31.5320 C   0  0  0  0  0  0  0  0  0  0  0  0
   -8.1660   21.8140  -31.2740 C   0  0  0  0  0  0  0  0  0  0  0  0
   -7.9750   22.2920  -29.9660 C   0  0  0  0  0  0  0  0  0  0  0  0
   -7.1420   23.3900  -29.7310 C   0  0  0  0  0  0  0  0  0  0  0  0
   -6.5020   24.0250  -30.7990 C   0  0  0  0  0  0  0  0  0  0  0  0
   -5.3680   25.5280  -30.4770 Br  0  0  0  0  0  0  0  0  0  0  0  0
   -6.6960   23.5640  -32.1050 C   0  0  0  0  0  0  0  0  0  0  0  0
   -7.5300   22.4650  -32.3440 C   0  0  0  0  0  0  0  0  0  0  0  0
   -4.9071   20.2140  -32.0400 H   0  0  0  0  0  0  0  0  0  0  0  0
   -4.0819   20.9593  -33.4507 H   0  0  0  0  0  0  0  0  0  0  0  0
   -5.8685   20.7728  -33.4507 H   0  0  0  0  0  0  0  0  0  0  0  0
   -4.7189   19.0700  -34.8736 H   0  0  0  0  0  0  0  0  0  0  0  0
   -3.8670   18.4875  -33.3432 H   0  0  0  0  0  0  0  0  0  0  0  0
   -6.7460   18.5410  -33.4480 H   0  0  0  0  0  0  0  0  0  0  0  0
   -6.8011   17.5506  -35.3481 H   0  0  0  0  0  0  0  0  0  0  0  0
   -5.1641   16.7690  -35.0568 H   0  0  0  0  0  0  0  0  0  0  0  0
   -6.8533   15.6365  -33.1414 H   0  0  0  0  0  0  0  0  0  0  0  0
   -7.8357   15.6854  -34.6445 H   0  0  0  0  0  0  0  0  0  0  0  0
   -6.2340   14.8724  -34.6445 H   0  0  0  0  0  0  0  0  0  0  0  0
   -5.9605   16.1756  -32.3678 H   0  0  0  0  0  0  0  0  0  0  0  0
   -4.7796   17.4284  -31.7860 H   0  0  0  0  0  0  0  0  0  0  0  0
   -7.7226   17.1501  -31.2365 H   0  0  0  0  0  0  0  0  0  0  0  0
   -6.3805   17.7042  -30.1695 H   0  0  0  0  0  0  0  0  0  0  0  0
   -9.8701   20.9779  -32.2580 H   0  0  0  0  0  0  0  0  0  0  0  0
   -9.5889   20.3726  -30.5899 H   0  0  0  0  0  0  0  0  0  0  0  0
   -8.4832   21.8000  -29.1236 H   0  0  0  0  0  0  0  0  0  0  0  0
   -6.9901   23.7545  -28.7043 H   0  0  0  0  0  0  0  0  0  0  0  0
   -6.1930   24.0652  -32.9451 H   0  0  0  0  0  0  0  0  0  0  0  0
   -7.6877   22.1102  -33.3732 H   0  0  0  0  0  0  0  0  0  0  0  0
  1  2  1  0
  2  3  1  0
  3  4  1  0
  4  5  1  0
  3  6  1  0
  6  7  1  0
  7  8  1  0
  8  9  1  0
  9 10  2  0
  9 11  1  0
 11 12  1  0
 12 13  2  0
 13 14  1  0
 14 15  2  0
 15 16  1  0
 15 17  1  0
 17 18  2  0
 18 12  1  0
  1 19  1  0
  1 20  1  0
  1 21  1  0
  2 22  1  0
  2 23  1  0
  3 24  1  0
  4 25  1  0
  4 26  1  0
  5 27  1  0
  5 28  1  0
  5 29  1  0
  6 30  1  0
  6 31  1  0
  7 32  1  0
  7 33  1  0
 11 34  1  0
 11 35  1  0
 13 36  1  0
 14 37  1  0
 17 38  1  0
 18 39  1  0
M  CHG  1   3   1
M  END
>  <UniqueID>  (34) 
34

>  <SMILES>  (34) 
CC[NH+](CC)CCOC(=O)Cc1ccc(Br)cc1

>  <Energy>  (34) 
38.94930528815696

>  <Genealogy>  (34) 
CC[NH+](CC)CCOC(=O)Cc1ccc(Br)cc1 (protonated)
CC[NH+](CC)CCOC(=O)Cc1ccc(Br)cc1 (3D coordinates assigned)
CC[NH+](CC)CCOC(=O)Cc1ccc(Br)cc1 (optimized conformer: 38.94930528815696 kcal/mol)

>  <smiles>  (34) 
CCN(CC)CCOC(=O)Cc1ccc(Br)cc1

>  <score_type>  (34) 
oracle

>  <origin>  (34) 
adg

>  <m_score__min__energy>  (34) 
-5.75

>  <m_primary>  (34) 
energy

$$$$
34:0
     RDKit          3D

 31 33  0  0  0  0  0  0  0  0999 V2000
   -5.2810   25.5110  -30.4480 C   0  0  0  0  0  0  0  0  0  0  0  0
   -3.8650   25.3570  -30.4760 O   0  0  0  0  0  0  0  0  0  0  0  0
   -3.1860   24.1870  -30.1030 C   0  0  0  0  0  0  0  0  0  0  0  0
   -2.2830   24.1580  -29.0200 C   0  0  0  0  0  0  0  0  0  0  0  0
   -1.6220   22.9740  -28.6850 C   0  0  0  0  0  0  0  0  0  0  0  0
   -1.8460   21.8140  -29.4260 C   0  0  0  0  0  0  0  0  0  0  0  0
   -2.7380   21.8310  -30.5010 C   0  0  0  0  0  0  0  0  0  0  0  0
   -3.4250   23.0130  -30.8360 C   0  0  0  0  0  0  0  0  0  0  0  0
   -4.3180   23.0660  -31.9170 O   0  0  0  0  0  0  0  0  0  0  0  0
   -5.5290   22.3670  -32.0010 C   0  0  0  0  0  0  0  0  0  0  0  0
   -6.6980   23.0570  -31.9210 N   0  0  0  0  0  0  0  0  0  0  0  0
   -7.8980   22.4220  -31.9770 C   0  0  0  0  0  0  0  0  0  0  0  0
   -7.9440   21.0320  -32.1120 C   0  0  0  0  0  0  0  0  0  0  0  0
   -9.1590   20.3340  -32.1740 C   0  0  0  0  0  0  0  0  0  0  0  0
   -9.1540   18.9410  -32.3070 C   0  0  0  0  0  0  0  0  0  0  0  0
   -7.9420   18.2450  -32.3770 C   0  0  0  0  0  0  0  0  0  0  0  0
   -6.7280   18.9370  -32.3150 C   0  0  0  0  0  0  0  0  0  0  0  0
   -6.7250   20.3300  -32.1820 C   0  0  0  0  0  0  0  0  0  0  0  0
   -5.5510   21.0110  -32.1210 N   0  0  0  0  0  0  0  0  0  0  0  0
   -5.6252   25.5484  -29.4039 H   0  0  0  0  0  0  0  0  0  0  0  0
   -5.5585   26.4446  -30.9592 H   0  0  0  0  0  0  0  0  0  0  0  0
   -5.7527   24.6589  -30.9592 H   0  0  0  0  0  0  0  0  0  0  0  0
   -2.0984   25.0720  -28.4365 H   0  0  0  0  0  0  0  0  0  0  0  0
   -0.9236   22.9565  -27.8353 H   0  0  0  0  0  0  0  0  0  0  0  0
   -1.3196   20.8844  -29.1637 H   0  0  0  0  0  0  0  0  0  0  0  0
   -2.9043   20.9161  -31.0886 H   0  0  0  0  0  0  0  0  0  0  0  0
   -8.8313   23.0010  -31.9162 H   0  0  0  0  0  0  0  0  0  0  0  0
  -10.1125   20.8797  -32.1183 H   0  0  0  0  0  0  0  0  0  0  0  0
  -10.1056   18.3915  -32.3567 H   0  0  0  0  0  0  0  0  0  0  0  0
   -7.9440   17.1499  -32.4811 H   0  0  0  0  0  0  0  0  0  0  0  0
   -5.7770   18.3870  -32.3707 H   0  0  0  0  0  0  0  0  0  0  0  0
  1  2  1  0
  2  3  1  0
  3  4  2  0
  4  5  1  0
  5  6  2  0
  6  7  1  0
  7  8  2  0
  8  9  1  0
  9 10  1  0
 10 11  2  0
 11 12  1  0
 12 13  2  0
 13 14  1  0
 14 15  2  0
 15 16  1  0
 16 17  2  0
 17 18  1  0
 18 19  2  0
  8  3  1  0
 19 10  1  0
 18 13  1  0
  1 20  1  0
  1 21  1  0
  1 22  1  0
  4 23  1  0
  5 24  1  0
  6 25  1  0
  7 26  1  0
 12 27  1  0
 14 28  1  0
 15 29  1  0
 16 30  1  0
 17 31  1  0
M  END
>  <UniqueID>  (35) 
35

>  <SMILES>  (35) 
COc1ccccc1Oc1ncc2ccccc2n1

>  <Energy>  (35) 
41.751056792669615

>  <Genealogy>  (35) 
COc1ccccc1Oc1ncc2ccccc2n1 (3D coordinates assigned)
COc1ccccc1Oc1ncc2ccccc2n1 (optimized conformer: 41.751056792669615 kcal/mol)

>  <smiles>  (35) 
COc1ccccc1Oc1ncc2ccccc2n1

>  <score_type>  (35) 
oracle

>  <origin>  (35) 
adg

>  <m_score__min__energy>  (35) 
-7.8600000000000003

>  <m_primary>  (35) 
energy

$$$$
35:0
     RDKit          3D

 50 52  0  0  0  0  0  0  0  0999 V2000
   -3.9120   19.2640  -32.3640 C   0  0  0  0  0  0  0  0  0  0  0  0
   -4.9030   19.8290  -31.5130 O   0  0  0  0  0  0  0  0  0  0  0  0
   -6.2830   19.8060  -31.7690 C   0  0  0  0  0  0  0  0  0  0  0  0
   -7.0270   18.6100  -31.7350 C   0  0  0  0  0  0  0  0  0  0  0  0
   -8.4050   18.6290  -31.9640 C   0  0  0  0  0  0  0  0  0  0  0  0
   -9.0550   19.8350  -32.2260 C   0  0  0  0  0  0  0  0  0  0  0  0
   -8.3280   21.0270  -32.2670 C   0  0  0  0  0  0  0  0  0  0  0  0
   -6.9410   21.0210  -32.0510 C   0  0  0  0  0  0  0  0  0  0  0  0
   -6.2040   22.2540  -32.0930 N   0  0  0  0  0  0  0  0  0  0  0  0
   -4.8270   22.2870  -32.5880 C   0  0  0  0  0  0  0  0  0  0  0  0
   -3.9090   23.0430  -31.6030 C   0  0  0  0  0  0  0  0  0  0  0  0
   -4.6200   24.0240  -30.7410 N   0  0  0  0  0  0  0  0  0  0  0  0
   -4.9020   23.4830  -29.3930 C   0  0  0  0  0  0  0  0  0  0  0  0
   -3.7200   22.7270  -28.8590 C   0  0  0  0  0  0  0  0  0  0  0  0
   -2.9640   23.2840  -28.0170 O   0  0  0  0  0  0  0  0  0  0  0  0
   -3.4960   21.3640  -29.2540 N   0  0  0  0  0  0  0  0  0  0  0  0
   -2.3200   20.6100  -28.9140 C   0  0  0  0  0  0  0  0  0  0  0  0
   -2.2420   19.9880  -27.6590 C   0  0  0  0  0  0  0  0  0  0  0  0
   -1.1190   19.2310  -27.3100 C   0  0  0  0  0  0  0  0  0  0  0  0
   -0.0690   19.0630  -28.2240 C   0  0  0  0  0  0  0  0  0  0  0  0
    1.1530   18.2830  -27.8350 C   0  0  0  0  0  0  0  0  0  0  0  0
   -0.1460   19.6780  -29.4810 C   0  0  0  0  0  0  0  0  0  0  0  0
   -1.2670   20.4350  -29.8300 C   0  0  0  0  0  0  0  0  0  0  0  0
   -5.8170   24.5930  -31.4060 C   0  0  0  0  0  0  0  0  0  0  0  0
   -6.8610   23.5140  -31.7360 C   0  0  0  0  0  0  0  0  0  0  0  0
   -3.1180   18.8113  -31.7520 H   0  0  0  0  0  0  0  0  0  0  0  0
   -4.3709   18.4918  -32.9989 H   0  0  0  0  0  0  0  0  0  0  0  0
   -3.4812   20.0522  -32.9989 H   0  0  0  0  0  0  0  0  0  0  0  0
   -6.5201   17.6562  -31.5270 H   0  0  0  0  0  0  0  0  0  0  0  0
   -8.9787   17.6908  -31.9376 H   0  0  0  0  0  0  0  0  0  0  0  0
  -10.1410   19.8474  -32.4005 H   0  0  0  0  0  0  0  0  0  0  0  0
   -8.8455   21.9762  -32.4698 H   0  0  0  0  0  0  0  0  0  0  0  0
   -4.4606   21.2563  -32.7041 H   0  0  0  0  0  0  0  0  0  0  0  0
   -4.8123   22.8095  -33.5559 H   0  0  0  0  0  0  0  0  0  0  0  0
   -3.4175   22.3044  -30.9527 H   0  0  0  0  0  0  0  0  0  0  0  0
   -3.1940   23.6157  -32.2119 H   0  0  0  0  0  0  0  0  0  0  0  0
   -5.1339   24.3155  -28.7125 H   0  0  0  0  0  0  0  0  0  0  0  0
   -5.7563   22.7937  -29.4635 H   0  0  0  0  0  0  0  0  0  0  0  0
   -4.2760   20.8600  -29.7340 H   0  0  0  0  0  0  0  0  0  0  0  0
   -3.0707   20.0965  -26.9438 H   0  0  0  0  0  0  0  0  0  0  0  0
   -1.0592   18.7658  -26.3150 H   0  0  0  0  0  0  0  0  0  0  0  0
    1.2250   18.2371  -26.7383 H   0  0  0  0  0  0  0  0  0  0  0  0
    1.0816   17.2631  -28.2408 H   0  0  0  0  0  0  0  0  0  0  0  0
    2.0480   18.7772  -28.2408 H   0  0  0  0  0  0  0  0  0  0  0  0
    0.6812   19.5639  -30.1970 H   0  0  0  0  0  0  0  0  0  0  0  0
   -1.3265   20.8968  -30.8266 H   0  0  0  0  0  0  0  0  0  0  0  0
   -6.2746   25.3370  -30.7373 H   0  0  0  0  0  0  0  0  0  0  0  0
   -5.4936   25.0528  -32.3515 H   0  0  0  0  0  0  0  0  0  0  0  0
   -7.5028   23.3510  -30.8576 H   0  0  0  0  0  0  0  0  0  0  0  0
   -7.4650   23.8539  -32.5902 H   0  0  0  0  0  0  0  0  0  0  0  0
  1  2  1  0
  2  3  1  0
  3  4  2  0
  4  5  1  0
  5  6  2  0
  6  7  1  0
  7  8  2  0
  8  9  1  0
  9 10  1  0
 10 11  1  0
 11 12  1  0
 12 13  1  0
 13 14  1  0
 14 15  2  0
 14 16  1  0
 16 17  1  0
 17 18  2  0
 18 19  1  0
 19 20  2  0
 20 21  1  0
 20 22  1  0
 22 23  2  0
 12 24  1  0
 24 25  1  0
  8  3  1  0
 25  9  1  0
 23 17  1  0
  1 26  1  0
  1 27  1  0
  1 28  1  0
  4 29  1  0
  5 30  1  0
  6 31  1  0
  7 32  1  0
 10 33  1  0
 10 34  1  0
 11 35  1  0
 11 36  1  0
 13 37  1  0
 13 38  1  0
 16 39  1  0
 18 40  1  0
 19 41  1  0
 21 42  1  0
 21 43  1  0
 21 44  1  0
 22 45  1  0
 23 46  1  0
 24 47  1  0
 24 48  1  0
 25 49  1  0
 25 50  1  0
M  END
>  <UniqueID>  (36) 
36

>  <SMILES>  (36) 
COc1ccccc1N1CCN(CC(=O)Nc2ccc(C)cc2)CC1

>  <Energy>  (36) 
65.03036835690209

>  <Genealogy>  (36) 
COc1ccccc1N1CCN(CC(=O)Nc2ccc(C)cc2)CC1 (3D coordinates assigned)
COc1ccccc1N1CCN(CC(=O)Nc2ccc(C)cc2)CC1 (nonaromatic ring conformer: 65.03036835690209 kcal/mol)

>  <smiles>  (36) 
COc1ccccc1N1CCN(CC(=O)Nc2ccc(C)cc2)CC1

>  <score_type>  (36) 
oracle

>  <origin>  (36) 
adg

>  <m_score__min__energy>  (36) 
-8.0399999999999991

>  <m_primary>  (36) 
energy

$$$$
36:0
     RDKit          3D

 38 40  0  0  0  0  0  0  0  0999 V2000
   -9.0820   18.2600  -31.3370 O   0  0  0  0  0  0  0  0  0  0  0  0
   -9.3850   18.9210  -32.3190 C   0  0  0  0  0  0  0  0  0  0  0  0
   -8.5570   20.0250  -32.7580 N   0  0  1  0  0  0  0  0  0  0  0  0
   -9.1590   21.3260  -32.3420 C   0  0  0  0  0  0  0  0  0  0  0  0
   -8.3780   22.0330  -31.2270 C   0  0  0  0  0  0  0  0  0  0  0  0
   -6.9780   22.2030  -31.6390 N   0  0  0  0  0  0  0  0  0  0  0  0
   -6.2590   23.4140  -31.3170 C   0  0  0  0  0  0  0  0  0  0  0  0
   -5.3430   23.8250  -32.0820 O   0  0  0  0  0  0  0  0  0  0  0  0
   -6.5450   24.1740  -30.0480 C   0  0  0  0  0  0  0  0  0  0  0  0
   -5.3280   24.6120  -29.2400 C   0  0  0  0  0  0  0  0  0  0  0  0
   -6.0880   25.6260  -30.0750 C   0  0  0  0  0  0  0  0  0  0  0  0
   -6.3250   21.1210  -32.3900 C   0  0  0  0  0  0  0  0  0  0  0  0
   -7.1510   19.8200  -32.3030 C   0  0  2  0  0  0  0  0  0  0  0  0
   -6.4680   18.6950  -33.0720 C   0  0  0  0  0  0  0  0  0  0  0  0
   -6.3680   17.4130  -32.5000 C   0  0  0  0  0  0  0  0  0  0  0  0
   -5.7520   16.3710  -33.2000 C   0  0  0  0  0  0  0  0  0  0  0  0
   -5.2330   16.5950  -34.4770 C   0  0  0  0  0  0  0  0  0  0  0  0
   -5.3310   17.8610  -35.0570 C   0  0  0  0  0  0  0  0  0  0  0  0
   -5.9450   18.9070  -34.3630 C   0  0  0  0  0  0  0  0  0  0  0  0
  -10.2998   18.6739  -32.8776 H   0  0  0  0  0  0  0  0  0  0  0  0
   -8.5740   20.0100  -33.8060 H   0  0  0  0  0  0  0  0  0  0  0  0
   -9.1928   21.9900  -33.2183 H   0  0  0  0  0  0  0  0  0  0  0  0
  -10.1614   21.1066  -31.9458 H   0  0  0  0  0  0  0  0  0  0  0  0
   -8.8256   23.0193  -31.0349 H   0  0  0  0  0  0  0  0  0  0  0  0
   -8.4185   21.4261  -30.3105 H   0  0  0  0  0  0  0  0  0  0  0  0
   -7.4771   23.6410  -29.8090 H   0  0  0  0  0  0  0  0  0  0  0  0
   -5.3824   24.6524  -28.1421 H   0  0  0  0  0  0  0  0  0  0  0  0
   -4.2790   24.2870  -29.1763 H   0  0  0  0  0  0  0  0  0  0  0  0
   -6.6924   26.4015  -29.5817 H   0  0  0  0  0  0  0  0  0  0  0  0
   -5.8164   26.3400  -30.8665 H   0  0  0  0  0  0  0  0  0  0  0  0
   -6.2312   21.4192  -33.4446 H   0  0  0  0  0  0  0  0  0  0  0  0
   -5.3314   20.9385  -31.9548 H   0  0  0  0  0  0  0  0  0  0  0  0
   -7.2009   19.5239  -31.2448 H   0  0  0  0  0  0  0  0  0  0  0  0
   -6.7772   17.2295  -31.4956 H   0  0  0  0  0  0  0  0  0  0  0  0
   -5.6761   15.3729  -32.7439 H   0  0  0  0  0  0  0  0  0  0  0  0
   -4.7473   15.7744  -35.0254 H   0  0  0  0  0  0  0  0  0  0  0  0
   -4.9235   18.0358  -36.0637 H   0  0  0  0  0  0  0  0  0  0  0  0
   -6.0204   19.9014  -34.8272 H   0  0  0  0  0  0  0  0  0  0  0  0
  1  2  2  0
  2  3  1  0
  3  4  1  0
  4  5  1  0
  5  6  1  0
  6  7  1  0
  7  8  2  0
  7  9  1  0
  9 10  1  0
 10 11  1  0
  6 12  1  0
 12 13  1  0
 13 14  1  0
 14 15  2  0
 15 16  1  0
 16 17  2  0
 17 18  1  0
 18 19  2  0
 13  3  1  0
 19 14  1  0
 11  9  1  0
  2 20  1  0
  3 21  1  6
  4 22  1  0
  4 23  1  0
  5 24  1  0
  5 25  1  0
  9 26  1  0
 10 27  1  0
 10 28  1  0
 11 29  1  0
 11 30  1  0
 12 31  1  0
 12 32  1  0
 13 33  1  1
 15 34  1  0
 16 35  1  0
 17 36  1  0
 18 37  1  0
 19 38  1  0
M  CHG  1   3   1
M  END
>  <UniqueID>  (37) 
37

>  <SMILES>  (37) 
O=C[N@H+]1CCN(C(=O)C2CC2)C[C@@H]1c1ccccc1

>  <Energy>  (37) 
312.13115331674175

>  <Genealogy>  (37) 
O=C[NH+]1CCN(C(=O)C2CC2)CC1c1ccccc1 (protonated)
O=C[N@H+]1CCN(C(=O)C2CC2)C[C@@H]1c1ccccc1 (chirality)
O=C[N@H+]1CCN(C(=O)C2CC2)C[C@@H]1c1ccccc1 (3D coordinates assigned)
O=C[N@H+]1CCN(C(=O)C2CC2)C[C@@H]1c1ccccc1 (nonaromatic ring conformer: 312.13115331674175 kcal/mol)

>  <smiles>  (37) 
O=CN1CCN(C(=O)C2CC2)CC1c1ccccc1

>  <score_type>  (37) 
oracle

>  <origin>  (37) 
adg

>  <m_score__min__energy>  (37) 
-7.4900000000000002

>  <m_primary>  (37) 
energy

$$$$
37:0
     RDKit          3D

 36 37  0  0  0  0  0  0  0  0999 V2000
   -1.2350   25.9950  -28.3330 C   0  0  0  0  0  0  0  0  0  0  0  0
   -2.0350   25.2990  -29.3290 N   0  0  0  0  0  0  0  0  0  0  0  0
   -2.7810   24.0980  -29.0900 C   0  0  0  0  0  0  0  0  0  0  0  0
   -2.8750   23.6690  -27.9100 O   0  0  0  0  0  0  0  0  0  0  0  0
   -3.4430   23.3230  -30.2000 C   0  0  0  0  0  0  0  0  0  0  0  0
   -4.4810   24.1440  -30.8590 N   0  0  0  0  0  0  0  0  0  0  0  0
   -5.4170   24.7210  -29.8570 C   0  0  0  0  0  0  0  0  0  0  0  0
   -6.8630   24.7960  -30.3550 C   0  0  0  0  0  0  0  0  0  0  0  0
   -7.3410   23.3900  -30.7150 C   0  0  0  0  0  0  0  0  0  0  0  0
   -6.3260   22.6750  -31.5010 N   0  0  0  0  0  0  0  0  0  0  0  0
   -6.5700   21.3090  -31.8980 C   0  0  0  0  0  0  0  0  0  0  0  0
   -5.6050   20.6050  -32.5520 N   0  0  0  0  0  0  0  0  0  0  0  0
   -5.8110   19.3190  -32.9410 C   0  0  0  0  0  0  0  0  0  0  0  0
   -7.0350   18.6970  -32.6810 C   0  0  0  0  0  0  0  0  0  0  0  0
   -7.2700   17.2660  -33.0640 C   0  0  0  0  0  0  0  0  0  0  0  0
   -8.0080   19.4260  -31.9900 C   0  0  0  0  0  0  0  0  0  0  0  0
   -7.7590   20.7080  -31.6190 N   0  0  0  0  0  0  0  0  0  0  0  0
   -5.1390   23.4110  -31.9690 C   0  0  0  0  0  0  0  0  0  0  0  0
   -1.5690   25.7044  -27.3260 H   0  0  0  0  0  0  0  0  0  0  0  0
   -0.1760   25.7258  -28.4599 H   0  0  0  0  0  0  0  0  0  0  0  0
   -1.3550   27.0810  -28.4599 H   0  0  0  0  0  0  0  0  0  0  0  0
   -2.6842   23.0349  -30.9425 H   0  0  0  0  0  0  0  0  0  0  0  0
   -3.9169   22.4265  -29.7736 H   0  0  0  0  0  0  0  0  0  0  0  0
   -5.3907   24.0949  -28.9529 H   0  0  0  0  0  0  0  0  0  0  0  0
   -5.0867   25.7509  -29.6564 H   0  0  0  0  0  0  0  0  0  0  0  0
   -7.5041   25.2117  -29.5637 H   0  0  0  0  0  0  0  0  0  0  0  0
   -6.9164   25.4442  -31.2421 H   0  0  0  0  0  0  0  0  0  0  0  0
   -7.5402   22.8296  -29.7896 H   0  0  0  0  0  0  0  0  0  0  0  0
   -8.2568   23.4745  -31.3185 H   0  0  0  0  0  0  0  0  0  0  0  0
   -5.0137   18.7676  -33.4608 H   0  0  0  0  0  0  0  0  0  0  0  0
   -7.3704   16.6549  -32.1549 H   0  0  0  0  0  0  0  0  0  0  0  0
   -8.1923   17.1924  -33.6590 H   0  0  0  0  0  0  0  0  0  0  0  0
   -6.4197   16.9013  -33.6590 H   0  0  0  0  0  0  0  0  0  0  0  0
   -8.9748   18.9609  -31.7471 H   0  0  0  0  0  0  0  0  0  0  0  0
   -4.4223   22.6964  -32.3999 H   0  0  0  0  0  0  0  0  0  0  0  0
   -5.4624   24.1440  -32.7228 H   0  0  0  0  0  0  0  0  0  0  0  0
  1  2  1  0
  2  3  1  0
  3  4  2  0
  3  5  1  0
  5  6  1  0
  6  7  1  0
  7  8  1  0
  8  9  1  0
  9 10  1  0
 10 11  1  0
 11 12  2  0
 12 13  1  0
 13 14  2  0
 14 15  1  0
 14 16  1  0
 16 17  2  0
 10 18  1  0
 18  6  1  0
 17 11  1  0
  1 19  1  0
  1 20  1  0
  1 21  1  0
  5 22  1  0
  5 23  1  0
  7 24  1  0
  7 25  1  0
  8 26  1  0
  8 27  1  0
  9 28  1  0
  9 29  1  0
 13 30  1  0
 15 31  1  0
 15 32  1  0
 15 33  1  0
 16 34  1  0
 18 35  1  0
 18 36  1  0
M  CHG  1   2  -1
M  END
>  <UniqueID>  (38) 
38

>  <SMILES>  (38) 
C[N-]C(=O)CN1CCCN(c2ncc(C)cn2)C1

>  <Energy>  (38) 
40.04030568214228

>  <Genealogy>  (38) 
C[N-]C(=O)CN1CCCN(c2ncc(C)cn2)C1 (protonated)
C[N-]C(=O)CN1CCCN(c2ncc(C)cn2)C1 (3D coordinates assigned)
C[N-]C(=O)CN1CCCN(c2ncc(C)cn2)C1 (nonaromatic ring conformer: 40.04030568214228 kcal/mol)

>  <smiles>  (38) 
CNC(=O)CN1CCCN(c2ncc(C)cn2)C1

>  <score_type>  (38) 
oracle

>  <origin>  (38) 
adg

>  <m_score__min__energy>  (38) 
-8.2599999999999998

>  <m_primary>  (38) 
energy

$$$$
38:0
     RDKit          3D

 58 60  0  0  0  0  0  0  0  0999 V2000
   -1.7860   20.4860  -33.1400 C   0  0  0  0  0  0  0  0  0  0  0  0
   -2.8830   21.5500  -33.2480 C   0  0  0  0  0  0  0  0  0  0  0  0
   -4.2220   20.9660  -33.4180 N   0  0  0  0  0  0  0  0  0  0  0  0
   -4.1680   19.5220  -33.6840 C   0  0  0  0  0  0  0  0  0  0  0  0
   -5.5210   19.0160  -34.2110 C   0  0  0  0  0  0  0  0  0  0  0  0
   -6.6780   19.7850  -33.7100 N   0  0  0  0  0  0  0  0  0  0  0  0
   -7.4730   19.1220  -32.6570 C   0  0  0  0  0  0  0  0  0  0  0  0
   -8.0010   20.1010  -31.5850 C   0  0  2  0  0  0  0  0  0  0  0  0
   -9.2910   20.7770  -32.0210 C   0  0  0  0  0  0  0  0  0  0  0  0
   -9.2140   22.0910  -31.3110 C   0  0  0  0  0  0  0  0  0  0  0  0
   -7.7020   22.3520  -31.2300 C   0  0  0  0  0  0  0  0  0  0  0  0
   -7.3210   23.0340  -29.8880 C   0  0  0  0  0  0  0  0  0  0  0  0
   -6.1910   24.0770  -30.0230 C   0  0  0  0  0  0  0  0  0  0  0  0
   -5.1690   23.7010  -31.0240 N   0  0  0  0  0  0  0  0  0  0  0  0
   -4.2840   22.6040  -30.5740 C   0  0  0  0  0  0  0  0  0  0  0  0
   -3.0450   23.1520  -29.9170 C   0  0  0  0  0  0  0  0  0  0  0  0
   -3.0800   24.3810  -29.2370 C   0  0  0  0  0  0  0  0  0  0  0  0
   -1.9200   24.8890  -28.6430 C   0  0  0  0  0  0  0  0  0  0  0  0
   -0.7210   24.1760  -28.7250 C   0  0  0  0  0  0  0  0  0  0  0  0
   -0.6780   22.9540  -29.4030 C   0  0  0  0  0  0  0  0  0  0  0  0
   -1.8350   22.4430  -29.9980 C   0  0  0  0  0  0  0  0  0  0  0  0
   -5.7280   23.4850  -32.3860 C   0  0  0  0  0  0  0  0  0  0  0  0
   -7.2490   23.2310  -32.4150 C   0  0  0  0  0  0  0  0  0  0  0  0
   -7.0410   21.1030  -31.3230 O   0  0  0  0  0  0  0  0  0  0  0  0
   -1.5759   20.2823  -32.0796 H   0  0  0  0  0  0  0  0  0  0  0  0
   -2.1225   19.5612  -33.6314 H   0  0  0  0  0  0  0  0  0  0  0  0
   -0.8719   20.8506  -33.6314 H   0  0  0  0  0  0  0  0  0  0  0  0
   -2.8771   22.1566  -32.3304 H   0  0  0  0  0  0  0  0  0  0  0  0
   -2.6697   22.1595  -34.1385 H   0  0  0  0  0  0  0  0  0  0  0  0
   -4.7100   21.4420  -34.2130 H   0  0  0  0  0  0  0  0  0  0  0  0
   -3.3900   19.3220  -34.4355 H   0  0  0  0  0  0  0  0  0  0  0  0
   -3.9354   18.9977  -32.7454 H   0  0  0  0  0  0  0  0  0  0  0  0
   -5.5115   19.0787  -35.3092 H   0  0  0  0  0  0  0  0  0  0  0  0
   -5.6407   17.9836  -33.8508 H   0  0  0  0  0  0  0  0  0  0  0  0
   -6.3440   20.7060  -33.3430 H   0  0  0  0  0  0  0  0  0  0  0  0
   -7.3070   19.9950  -34.5210 H   0  0  0  0  0  0  0  0  0  0  0  0
   -8.3327   18.6242  -33.1294 H   0  0  0  0  0  0  0  0  0  0  0  0
   -6.8096   18.4072  -32.1481 H   0  0  0  0  0  0  0  0  0  0  0  0
   -8.1981   19.5083  -30.6795 H   0  0  0  0  0  0  0  0  0  0  0  0
   -9.3205   20.9142  -33.1120 H   0  0  0  0  0  0  0  0  0  0  0  0
  -10.1955   20.1983  -31.7825 H   0  0  0  0  0  0  0  0  0  0  0  0
   -9.7213   22.8807  -31.8846 H   0  0  0  0  0  0  0  0  0  0  0  0
   -9.7056   22.0815  -30.3270 H   0  0  0  0  0  0  0  0  0  0  0  0
   -8.2134   23.5380  -29.4886 H   0  0  0  0  0  0  0  0  0  0  0  0
   -6.9516   22.2435  -29.2182 H   0  0  0  0  0  0  0  0  0  0  0  0
   -6.6357   25.0379  -30.3211 H   0  0  0  0  0  0  0  0  0  0  0  0
   -5.6862   24.1408  -29.0478 H   0  0  0  0  0  0  0  0  0  0  0  0
   -4.8268   21.9756  -29.8526 H   0  0  0  0  0  0  0  0  0  0  0  0
   -3.9851   22.0101  -31.4503 H   0  0  0  0  0  0  0  0  0  0  0  0
   -4.0221   24.9451  -29.1716 H   0  0  0  0  0  0  0  0  0  0  0  0
   -1.9516   25.8511  -28.1106 H   0  0  0  0  0  0  0  0  0  0  0  0
    0.1897   24.5765  -28.2558 H   0  0  0  0  0  0  0  0  0  0  0  0
    0.2668   22.3945  -29.4682 H   0  0  0  0  0  0  0  0  0  0  0  0
   -1.7979   21.4819  -30.5318 H   0  0  0  0  0  0  0  0  0  0  0  0
   -5.5165   24.3790  -32.9910 H   0  0  0  0  0  0  0  0  0  0  0  0
   -5.2495   22.5774  -32.7825 H   0  0  0  0  0  0  0  0  0  0  0  0
   -7.7730   24.1968  -32.3636 H   0  0  0  0  0  0  0  0  0  0  0  0
   -7.4912   22.7012  -33.3481 H   0  0  0  0  0  0  0  0  0  0  0  0
  1  2  1  0
  2  3  1  0
  3  4  1  0
  4  5  1  0
  5  6  1  0
  6  7  1  0
  7  8  1  0
  8  9  1  0
  9 10  1  0
 10 11  1  0
 11 12  1  0
 12 13  1  0
 13 14  1  0
 14 15  1  0
 15 16  1  0
 16 17  2  0
 17 18  1  0
 18 19  2  0
 19 20  1  0
 20 21  2  0
 14 22  1  0
 22 23  1  0
 11 24  1  0
 24  8  1  0
 23 11  1  0
 21 16  1  0
  1 25  1  0
  1 26  1  0
  1 27  1  0
  2 28  1  0
  2 29  1  0
  3 30  1  0
  4 31  1  0
  4 32  1  0
  5 33  1  0
  5 34  1  0
  6 35  1  0
  6 36  1  0
  7 37  1  0
  7 38  1  0
  8 39  1  1
  9 40  1  0
  9 41  1  0
 10 42  1  0
 10 43  1  0
 12 44  1  0
 12 45  1  0
 13 46  1  0
 13 47  1  0
 15 48  1  0
 15 49  1  0
 17 50  1  0
 18 51  1  0
 19 52  1  0
 20 53  1  0
 21 54  1  0
 22 55  1  0
 22 56  1  0
 23 57  1  0
 23 58  1  0
M  CHG  1   6   1
M  END
>  <UniqueID>  (39) 
39

>  <SMILES>  (39) 
CCNCC[NH2+]C[C@@H]1CCC2(CCN(Cc3ccccc3)CC2)O1

>  <Energy>  (39) 
64.53182485666517

>  <Genealogy>  (39) 
CCNCC[NH2+]CC1CCC2(CCN(Cc3ccccc3)CC2)O1 (protonated)
CCNCC[NH2+]C[C@@H]1CCC2(CCN(Cc3ccccc3)CC2)O1 (chirality)
CCNCC[NH2+]C[C@@H]1CCC2(CCN(Cc3ccccc3)CC2)O1 (3D coordinates assigned)
CCNCC[NH2+]C[C@@H]1CCC2(CCN(Cc3ccccc3)CC2)O1 (nonaromatic ring conformer: 64.53182485666517 kcal/mol)

>  <smiles>  (39) 
CCNCCNCC1CCC2(CCN(Cc3ccccc3)CC2)O1

>  <score_type>  (39) 
oracle

>  <origin>  (39) 
adg

>  <m_score__min__energy>  (39) 
-7.3700000000000001

>  <m_primary>  (39) 
energy

$$$$
39:0
     RDKit          3D

 46 47  0  0  0  0  0  0  0  0999 V2000
   -4.2100   23.1970  -28.4650 C   0  0  0  0  0  0  0  0  0  0  0  0
   -4.7720   24.5410  -28.3550 N   0  0  0  0  0  0  0  0  0  0  0  0
   -5.3400   25.0720  -29.9090 S   0  0  0  0  0  0  0  0  0  0  0  0
   -6.1110   26.3560  -29.7680 O   0  0  0  0  0  0  0  0  0  0  0  0
   -4.1610   25.3230  -30.8070 O   0  0  0  0  0  0  0  0  0  0  0  0
   -6.3630   23.8320  -30.6310 C   0  0  0  0  0  0  0  0  0  0  0  0
   -6.3210   23.6030  -32.0110 C   0  0  0  0  0  0  0  0  0  0  0  0
   -7.0880   22.5840  -32.5800 C   0  0  0  0  0  0  0  0  0  0  0  0
   -7.8830   21.7570  -31.7690 C   0  0  0  0  0  0  0  0  0  0  0  0
   -8.6460   20.6030  -32.3740 C   0  0  0  0  0  0  0  0  0  0  0  0
   -7.7870   19.4500  -32.7300 N   0  0  0  0  0  0  0  0  0  0  0  0
   -7.2860   18.6310  -31.6050 C   0  0  0  0  0  0  0  0  0  0  0  0
   -5.7550   18.4770  -31.5820 C   0  0  0  0  0  0  0  0  0  0  0  0
   -5.0550   19.7930  -31.9880 C   0  0  0  0  0  0  0  0  0  0  0  0
   -3.5690   19.7110  -31.8570 N   0  0  0  0  0  0  0  0  0  0  0  0
   -2.9470   19.3360  -33.1450 C   0  0  0  0  0  0  0  0  0  0  0  0
   -2.9820   20.9940  -31.4130 C   0  0  0  0  0  0  0  0  0  0  0  0
   -5.4590   20.1280  -33.4470 C   0  0  0  0  0  0  0  0  0  0  0  0
   -6.8650   19.6430  -33.8640 C   0  0  0  0  0  0  0  0  0  0  0  0
   -7.9540   22.0170  -30.3900 C   0  0  0  0  0  0  0  0  0  0  0  0
   -7.1930   23.0430  -29.8240 C   0  0  0  0  0  0  0  0  0  0  0  0
   -4.0388   22.7876  -27.4585 H   0  0  0  0  0  0  0  0  0  0  0  0
   -4.9126   22.5492  -29.0097 H   0  0  0  0  0  0  0  0  0  0  0  0
   -3.2554   23.2422  -29.0097 H   0  0  0  0  0  0  0  0  0  0  0  0
   -5.6050   24.4870  -27.7260 H   0  0  0  0  0  0  0  0  0  0  0  0
   -5.6809   24.2285  -32.6505 H   0  0  0  0  0  0  0  0  0  0  0  0
   -7.0696   22.4281  -33.6687 H   0  0  0  0  0  0  0  0  0  0  0  0
   -9.3997   20.2648  -31.6477 H   0  0  0  0  0  0  0  0  0  0  0  0
   -9.1006   20.9685  -33.3066 H   0  0  0  0  0  0  0  0  0  0  0  0
   -7.6010   19.1051  -30.6637 H   0  0  0  0  0  0  0  0  0  0  0  0
   -7.7074   17.6227  -31.7304 H   0  0  0  0  0  0  0  0  0  0  0  0
   -5.4374   18.2004  -30.5658 H   0  0  0  0  0  0  0  0  0  0  0  0
   -5.4727   17.6955  -32.3028 H   0  0  0  0  0  0  0  0  0  0  0  0
   -5.3799   20.5918  -31.3051 H   0  0  0  0  0  0  0  0  0  0  0  0
   -2.0191   18.7766  -32.9550 H   0  0  0  0  0  0  0  0  0  0  0  0
   -3.6433   18.7071  -33.7191 H   0  0  0  0  0  0  0  0  0  0  0  0
   -2.7159   20.2454  -33.7191 H   0  0  0  0  0  0  0  0  0  0  0  0
   -2.9660   21.0290  -30.3137 H   0  0  0  0  0  0  0  0  0  0  0  0
   -1.9550   21.0799  -31.7976 H   0  0  0  0  0  0  0  0  0  0  0  0
   -3.5884   21.8273  -31.7976 H   0  0  0  0  0  0  0  0  0  0  0  0
   -5.4255   21.2208  -33.5677 H   0  0  0  0  0  0  0  0  0  0  0  0
   -4.7462   19.5945  -34.0930 H   0  0  0  0  0  0  0  0  0  0  0  0
   -7.3022   20.3893  -34.5436 H   0  0  0  0  0  0  0  0  0  0  0  0
   -6.7367   18.6616  -34.3440 H   0  0  0  0  0  0  0  0  0  0  0  0
   -8.6126   21.4092  -29.7522 H   0  0  0  0  0  0  0  0  0  0  0  0
   -7.2457   23.2318  -28.7416 H   0  0  0  0  0  0  0  0  0  0  0  0
  1  2  1  0
  2  3  1  0
  3  4  2  0
  3  5  2  0
  3  6  1  0
  6  7  2  0
  7  8  1  0
  8  9  2  0
  9 10  1  0
 10 11  1  0
 11 12  1  0
 12 13  1  0
 13 14  1  0
 14 15  1  0
 15 16  1  0
 15 17  1  0
 14 18  1  0
 18 19  1  0
  9 20  1  0
 20 21  2  0
 21  6  1  0
 19 11  1  0
  1 22  1  0
  1 23  1  0
  1 24  1  0
  2 25  1  0
  7 26  1  0
  8 27  1  0
 10 28  1  0
 10 29  1  0
 12 30  1  0
 12 31  1  0
 13 32  1  0
 13 33  1  0
 14 34  1  0
 16 35  1  0
 16 36  1  0
 16 37  1  0
 17 38  1  0
 17 39  1  0
 17 40  1  0
 18 41  1  0
 18 42  1  0
 19 43  1  0
 19 44  1  0
 20 45  1  0
 21 46  1  0
M  END
>  <UniqueID>  (40) 
40

>  <SMILES>  (40) 
CNS(=O)(=O)c1ccc(CN2CCC(N(C)C)CC2)cc1

>  <Energy>  (40) 
58.139996956138745

>  <Genealogy>  (40) 
CNS(=O)(=O)c1ccc(CN2CCC(N(C)C)CC2)cc1 (3D coordinates assigned)
CNS(=O)(=O)c1ccc(CN2CCC(N(C)C)CC2)cc1 (nonaromatic ring conformer: 58.139996956138745 kcal/mol)

>  <smiles>  (40) 
CNS(=O)(=O)c1ccc(CN2CCC(N(C)C)CC2)cc1

>  <score_type>  (40) 
oracle

>  <origin>  (40) 
adg

>  <m_score__min__energy>  (40) 
-8.5399999999999991

>  <m_primary>  (40) 
energy

$$$$
40:0
     RDKit          3D

 50 52  0  0  0  0  0  0  0  0999 V2000
  -10.3672   21.6553  -32.8916 H   0  0  0  0  0  0  0  0  0  0  0  0
   -9.6210   21.0910  -32.3130 C   0  0  0  0  0  0  0  0  0  0  0  0
   -9.1240   21.6990  -31.0590 C   0  0  0  0  0  0  0  0  0  0  0  0
   -9.8310   21.5830  -30.0230 O   0  0  0  0  0  0  0  0  0  0  0  0
   -7.8570   22.4680  -30.9900 C   0  0  0  0  0  0  0  0  0  0  0  0
   -7.2040   22.6860  -29.7640 C   0  0  0  0  0  0  0  0  0  0  0  0
   -7.6133   22.2463  -28.8425 H   0  0  0  0  0  0  0  0  0  0  0  0
   -6.0400   23.4560  -29.7060 C   0  0  0  0  0  0  0  0  0  0  0  0
   -5.5477   23.6306  -28.7379 H   0  0  0  0  0  0  0  0  0  0  0  0
   -5.4930   24.0100  -30.8790 C   0  0  0  0  0  0  0  0  0  0  0  0
   -4.2990   24.8150  -30.8510 N   0  0  0  0  0  0  0  0  0  0  0  0
   -4.2680   25.6710  -31.4530 H   0  0  0  0  0  0  0  0  0  0  0  0
   -3.1330   24.4910  -30.0280 C   0  0  0  0  0  0  0  0  0  0  0  0
   -2.3360   25.2214  -30.2312 H   0  0  0  0  0  0  0  0  0  0  0  0
   -2.7996   23.4736  -30.2806 H   0  0  0  0  0  0  0  0  0  0  0  0
   -3.4790   24.5320  -28.5430 C   0  0  0  0  0  0  0  0  0  0  0  0
   -2.5595   24.4230  -27.9491 H   0  0  0  0  0  0  0  0  0  0  0  0
   -3.9578   25.4932  -28.3045 H   0  0  0  0  0  0  0  0  0  0  0  0
   -4.1692   23.7094  -28.3045 H   0  0  0  0  0  0  0  0  0  0  0  0
   -6.1250   23.7610  -32.1060 C   0  0  0  0  0  0  0  0  0  0  0  0
   -5.7018   24.1776  -33.0320 H   0  0  0  0  0  0  0  0  0  0  0  0
   -7.2880   22.9880  -32.1620 C   0  0  0  0  0  0  0  0  0  0  0  0
   -7.7615   22.7855  -33.1340 H   0  0  0  0  0  0  0  0  0  0  0  0
   -9.2290   19.9020  -32.7970 C   0  0  0  0  0  0  0  0  0  0  0  0
   -9.9671   19.3076  -33.3555 H   0  0  0  0  0  0  0  0  0  0  0  0
   -7.8740   19.3370  -32.6310 C   0  0  0  0  0  0  0  0  0  0  0  0
   -7.6960   18.2100  -31.8170 C   0  0  0  0  0  0  0  0  0  0  0  0
   -8.5567   17.7720  -31.2904 H   0  0  0  0  0  0  0  0  0  0  0  0
   -6.4290   17.6420  -31.6730 C   0  0  0  0  0  0  0  0  0  0  0  0
   -6.2985   16.7404  -31.0565 H   0  0  0  0  0  0  0  0  0  0  0  0
   -5.3270   18.2160  -32.3100 C   0  0  0  0  0  0  0  0  0  0  0  0
   -4.3341   17.7548  -32.2033 H   0  0  0  0  0  0  0  0  0  0  0  0
   -5.4750   19.3730  -33.0830 C   0  0  0  0  0  0  0  0  0  0  0  0
   -4.3220   19.9420  -33.6470 O   0  0  0  0  0  0  0  0  0  0  0  0
   -3.8410   21.2620  -33.3930 C   0  0  0  0  0  0  0  0  0  0  0  0
   -3.1441   21.5502  -34.1938 H   0  0  0  0  0  0  0  0  0  0  0  0
   -4.7016   21.9464  -33.3628 H   0  0  0  0  0  0  0  0  0  0  0  0
   -3.1270   21.3360  -32.0710 C   0  0  0  0  0  0  0  0  0  0  0  0
   -3.8160   21.0850  -30.8720 C   0  0  0  0  0  0  0  0  0  0  0  0
   -4.9013   20.9068  -30.8906 H   0  0  0  0  0  0  0  0  0  0  0  0
   -3.1270   21.0610  -29.6560 C   0  0  0  0  0  0  0  0  0  0  0  0
   -3.6723   20.8685  -28.7203 H   0  0  0  0  0  0  0  0  0  0  0  0
   -1.7470   21.2810  -29.6260 C   0  0  0  0  0  0  0  0  0  0  0  0
   -1.2054   21.2527  -28.6690 H   0  0  0  0  0  0  0  0  0  0  0  0
   -1.0560   21.5370  -30.8140 C   0  0  0  0  0  0  0  0  0  0  0  0
    0.0284   21.7200  -30.7896 H   0  0  0  0  0  0  0  0  0  0  0  0
   -1.7400   21.5610  -32.0330 C   0  0  0  0  0  0  0  0  0  0  0  0
   -1.1908   21.7567  -32.9658 H   0  0  0  0  0  0  0  0  0  0  0  0
   -6.7590   19.9270  -33.2530 C   0  0  0  0  0  0  0  0  0  0  0  0
   -6.8901   20.8248  -33.8748 H   0  0  0  0  0  0  0  0  0  0  0  0
  1  2  1  0
  2  3  1  0
  3  4  2  0
  3  5  1  0
  5  6  2  0
  6  7  1  0
  6  8  1  0
  8  9  1  0
  8 10  2  0
 10 11  1  0
 11 12  1  0
 11 13  1  0
 13 14  1  0
 13 15  1  0
 13 16  1  0
 16 17  1  0
 16 18  1  0
 16 19  1  0
 10 20  1  0
 20 21  1  0
 20 22  2  0
 22 23  1  0
  2 24  2  0
 24 25  1  0
 24 26  1  0
 26 27  2  0
 27 28  1  0
 27 29  1  0
 29 30  1  0
 29 31  2  0
 31 32  1  0
 31 33  1  0
 33 34  1  0
 34 35  1  0
 35 36  1  0
 35 37  1  0
 35 38  1  0
 38 39  2  0
 39 40  1  0
 39 41  1  0
 41 42  1  0
 41 43  2  0
 43 44  1  0
 43 45  1  0
 45 46  1  0
 45 47  2  0
 47 48  1  0
 33 49  2  0
 49 50  1  0
 22  5  1  0
 49 26  1  0
 47 38  1  0
M  END
>  <UniqueID>  (41) 
41

>  <SMILES>  (41) 
CCNc1ccc(C(=O)/C=C\c2cccc(OCc3ccccc3)c2)cc1

>  <Energy>  (41) 
55.85723942383021

>  <Genealogy>  (41) 
CCNc1ccc(C(=O)/C=C\c2cccc(OCc3ccccc3)c2)cc1 (cis-trans isomerization)
CCNc1ccc(C(=O)/C=C\c2cccc(OCc3ccccc3)c2)cc1 (3D coordinates assigned)
CCNc1ccc(C(=O)/C=C\c2cccc(OCc3ccccc3)c2)cc1 (optimized conformer: 55.85723942383021 kcal/mol)

>  <smiles>  (41) 
CCNc1ccc(C(=O)C=Cc2cccc(OCc3ccccc3)c2)cc1

>  <score_type>  (41) 
oracle

>  <origin>  (41) 
adg

>  <m_score__min__energy>  (41) 
-9.4700000000000006

>  <m_primary>  (41) 
energy

$$$$
41:0
     RDKit          3D

 50 52  0  0  0  0  0  0  0  0999 V2000
   -2.5390   24.5080  -27.7120 C   0  0  0  0  0  0  0  0  0  0  0  0
   -2.2350   24.4860  -29.1030 O   0  0  0  0  0  0  0  0  0  0  0  0
   -2.8680   23.6580  -30.0430 C   0  0  0  0  0  0  0  0  0  0  0  0
   -2.4400   22.3380  -30.2840 C   0  0  0  0  0  0  0  0  0  0  0  0
   -3.0920   21.5340  -31.2290 C   0  0  0  0  0  0  0  0  0  0  0  0
   -4.1960   22.0490  -31.9330 C   0  0  0  0  0  0  0  0  0  0  0  0
   -4.6140   23.3670  -31.7060 C   0  0  0  0  0  0  0  0  0  0  0  0
   -3.9620   24.1720  -30.7540 C   0  0  0  0  0  0  0  0  0  0  0  0
   -4.3730   25.4870  -30.4850 O   0  0  0  0  0  0  0  0  0  0  0  0
   -5.7150   25.8710  -30.2000 C   0  0  0  0  0  0  0  0  0  0  0  0
   -4.8840   21.2180  -32.9870 C   0  0  0  0  0  0  0  0  0  0  0  0
   -4.7670   19.7680  -32.7260 N   0  0  0  0  0  0  0  0  0  0  0  0
   -5.5840   19.3190  -31.5750 C   0  0  0  0  0  0  0  0  0  0  0  0
   -7.0510   19.6080  -31.8090 C   0  0  0  0  0  0  0  0  0  0  0  0
   -7.6110   20.8400  -31.4000 C   0  0  0  0  0  0  0  0  0  0  0  0
   -6.7900   21.7870  -30.7660 O   0  0  0  0  0  0  0  0  0  0  0  0
   -7.2350   22.7360  -29.8030 C   0  0  0  0  0  0  0  0  0  0  0  0
   -8.9730   21.0960  -31.6490 C   0  0  0  0  0  0  0  0  0  0  0  0
   -9.7610   20.1510  -32.3030 C   0  0  0  0  0  0  0  0  0  0  0  0
   -9.2070   18.9430  -32.7250 C   0  0  0  0  0  0  0  0  0  0  0  0
   -7.8480   18.6620  -32.4880 C   0  0  0  0  0  0  0  0  0  0  0  0
   -7.2590   17.4590  -32.9150 O   0  0  0  0  0  0  0  0  0  0  0  0
   -6.4700   17.3170  -34.0910 C   0  0  0  0  0  0  0  0  0  0  0  0
   -3.3450   19.3940  -32.5800 C   0  0  0  0  0  0  0  0  0  0  0  0
   -2.6670   20.0940  -31.3870 C   0  0  0  0  0  0  0  0  0  0  0  0
   -1.6069   24.4405  -27.1319 H   0  0  0  0  0  0  0  0  0  0  0  0
   -3.0577   25.4460  -27.4648 H   0  0  0  0  0  0  0  0  0  0  0  0
   -3.1873   23.6544  -27.4648 H   0  0  0  0  0  0  0  0  0  0  0  0
   -1.5840   21.9333  -29.7240 H   0  0  0  0  0  0  0  0  0  0  0  0
   -5.4600   23.7762  -32.2776 H   0  0  0  0  0  0  0  0  0  0  0  0
   -5.8609   25.9128  -29.1105 H   0  0  0  0  0  0  0  0  0  0  0  0
   -5.9130   26.8619  -30.6347 H   0  0  0  0  0  0  0  0  0  0  0  0
   -6.4072   25.1349  -30.6347 H   0  0  0  0  0  0  0  0  0  0  0  0
   -5.9501   21.4880  -33.0096 H   0  0  0  0  0  0  0  0  0  0  0  0
   -4.3952   21.4260  -33.9502 H   0  0  0  0  0  0  0  0  0  0  0  0
   -5.4477   18.2362  -31.4371 H   0  0  0  0  0  0  0  0  0  0  0  0
   -5.2570   19.8646  -30.6776 H   0  0  0  0  0  0  0  0  0  0  0  0
   -7.0517   22.3452  -28.7912 H   0  0  0  0  0  0  0  0  0  0  0  0
   -6.6854   23.6794  -29.9368 H   0  0  0  0  0  0  0  0  0  0  0  0
   -8.3118   22.9168  -29.9368 H   0  0  0  0  0  0  0  0  0  0  0  0
   -9.4180   22.0484  -31.3251 H   0  0  0  0  0  0  0  0  0  0  0  0
  -10.8253   20.3590  -32.4873 H   0  0  0  0  0  0  0  0  0  0  0  0
   -9.8353   18.2055  -33.2460 H   0  0  0  0  0  0  0  0  0  0  0  0
   -5.4234   17.1286  -33.8098 H   0  0  0  0  0  0  0  0  0  0  0  0
   -6.8475   16.4724  -34.6860 H   0  0  0  0  0  0  0  0  0  0  0  0
   -6.5293   18.2403  -34.6860 H   0  0  0  0  0  0  0  0  0  0  0  0
   -3.2804   18.3058  -32.4329 H   0  0  0  0  0  0  0  0  0  0  0  0
   -2.8217   19.7121  -33.4938 H   0  0  0  0  0  0  0  0  0  0  0  0
   -2.9262   19.5491  -30.4673 H   0  0  0  0  0  0  0  0  0  0  0  0
   -1.5832   20.0895  -31.5753 H   0  0  0  0  0  0  0  0  0  0  0  0
  1  2  1  0
  2  3  1  0
  3  4  2  0
  4  5  1  0
  5  6  2  0
  6  7  1  0
  7  8  2  0
  8  9  1  0
  9 10  1  0
  6 11  1  0
 11 12  1  0
 12 13  1  0
 13 14  1  0
 14 15  2  0
 15 16  1  0
 16 17  1  0
 15 18  1  0
 18 19  2  0
 19 20  1  0
 20 21  2  0
 21 22  1  0
 22 23  1  0
 12 24  1  0
 24 25  1  0
  8  3  1  0
 21 14  1  0
 25  5  1  0
  1 26  1  0
  1 27  1  0
  1 28  1  0
  4 29  1  0
  7 30  1  0
 10 31  1  0
 10 32  1  0
 10 33  1  0
 11 34  1  0
 11 35  1  0
 13 36  1  0
 13 37  1  0
 17 38  1  0
 17 39  1  0
 17 40  1  0
 18 41  1  0
 19 42  1  0
 20 43  1  0
 23 44  1  0
 23 45  1  0
 23 46  1  0
 24 47  1  0
 24 48  1  0
 25 49  1  0
 25 50  1  0
M  END
>  <UniqueID>  (42) 
42

>  <SMILES>  (42) 
COc1cc2c(cc1OC)CN(Cc1c(OC)cccc1OC)CC2

>  <Energy>  (42) 
54.38228797306907

>  <Genealogy>  (42) 
COc1cc2c(cc1OC)CN(Cc1c(OC)cccc1OC)CC2 (3D coordinates assigned)
COc1cc2c(cc1OC)CN(Cc1c(OC)cccc1OC)CC2 (nonaromatic ring conformer: 54.38228797306907 kcal/mol)

>  <smiles>  (42) 
COc1cc2c(cc1OC)CN(Cc1c(OC)cccc1OC)CC2

>  <score_type>  (42) 
oracle

>  <origin>  (42) 
adg

>  <m_score__min__energy>  (42) 
-7.3499999999999996

>  <m_primary>  (42) 
energy

$$$$
42:0
     RDKit          3D

 47 49  0  0  0  0  0  0  0  0999 V2000
   -2.0203   26.0252  -23.8954 H   0  0  0  0  0  0  0  0  0  0  0  0
   -1.5740   26.1330  -24.8950 C   0  0  0  0  0  0  0  0  0  0  0  0
   -1.9910   25.2990  -25.9380 C   0  0  0  0  0  0  0  0  0  0  0  0
   -2.7619   24.5367  -25.7520 H   0  0  0  0  0  0  0  0  0  0  0  0
   -1.4340   25.4270  -27.2190 C   0  0  0  0  0  0  0  0  0  0  0  0
   -1.8820   24.5470  -28.3280 C   0  0  0  0  0  0  0  0  0  0  0  0
   -0.9700   23.7040  -28.9710 C   0  0  0  0  0  0  0  0  0  0  0  0
    0.0798   23.6757  -28.6438 H   0  0  0  0  0  0  0  0  0  0  0  0
   -1.3940   22.9000  -30.0270 C   0  0  0  0  0  0  0  0  0  0  0  0
   -0.5010   22.0850  -30.6380 N   0  0  0  0  0  0  0  0  0  0  0  0
   -0.8610   21.2990  -31.6780 C   0  0  0  0  0  0  0  0  0  0  0  0
   -0.1122   20.6497  -32.1551 H   0  0  0  0  0  0  0  0  0  0  0  0
   -2.1450   21.3040  -32.1410 N   0  0  0  0  0  0  0  0  0  0  0  0
   -2.5110   20.4440  -33.2740 C   0  0  0  0  0  0  0  0  0  0  0  0
   -2.9156   19.4932  -32.8969 H   0  0  0  0  0  0  0  0  0  0  0  0
   -3.2721   20.9491  -33.8868 H   0  0  0  0  0  0  0  0  0  0  0  0
   -1.6193   20.2457  -33.8868 H   0  0  0  0  0  0  0  0  0  0  0  0
   -3.0900   22.0990  -31.5440 C   0  0  0  0  0  0  0  0  0  0  0  0
   -4.2700   22.0820  -31.9790 O   0  0  0  0  0  0  0  0  0  0  0  0
   -2.7390   22.9340  -30.4560 C   0  0  0  0  0  0  0  0  0  0  0  0
   -3.6380   23.7990  -29.7720 C   0  0  0  0  0  0  0  0  0  0  0  0
   -4.8870   23.9070  -30.1050 N   0  0  0  0  0  0  0  0  0  0  0  0
   -6.2970   24.0280  -30.4800 C   0  0  0  0  0  0  0  0  0  0  0  0
   -7.0750   22.8000  -29.9790 C   0  0  0  0  0  0  0  0  0  0  0  0
   -7.0797   22.7926  -28.8790 H   0  0  0  0  0  0  0  0  0  0  0  0
   -8.1096   22.8451  -30.3498 H   0  0  0  0  0  0  0  0  0  0  0  0
   -6.5923   21.8838  -30.3498 H   0  0  0  0  0  0  0  0  0  0  0  0
   -6.8570   25.2950  -29.8180 C   0  0  0  0  0  0  0  0  0  0  0  0
   -6.8100   25.1886  -28.7242 H   0  0  0  0  0  0  0  0  0  0  0  0
   -6.2596   26.1652  -30.1278 H   0  0  0  0  0  0  0  0  0  0  0  0
   -7.9026   25.4390  -30.1278 H   0  0  0  0  0  0  0  0  0  0  0  0
   -6.4170   24.1520  -32.0070 C   0  0  0  0  0  0  0  0  0  0  0  0
   -7.1623   24.9221  -32.2549 H   0  0  0  0  0  0  0  0  0  0  0  0
   -5.4419   24.4359  -32.4296 H   0  0  0  0  0  0  0  0  0  0  0  0
   -6.7327   23.1867  -32.4296 H   0  0  0  0  0  0  0  0  0  0  0  0
   -3.1830   24.5630  -28.7370 N   0  0  0  0  0  0  0  0  0  0  0  0
   -3.8570   25.2100  -28.2630 H   0  0  0  0  0  0  0  0  0  0  0  0
   -0.4530   26.4070  -27.4390 C   0  0  0  0  0  0  0  0  0  0  0  0
   -0.0095   26.5198  -28.4393 H   0  0  0  0  0  0  0  0  0  0  0  0
   -0.0350   27.2410  -26.3970 C   0  0  0  0  0  0  0  0  0  0  0  0
    0.7328   28.0060  -26.5847 H   0  0  0  0  0  0  0  0  0  0  0  0
   -0.5850   27.1100  -25.1200 C   0  0  0  0  0  0  0  0  0  0  0  0
   -0.1290   27.9670  -24.1080 O   0  0  0  0  0  0  0  0  0  0  0  0
    0.6600   27.5510  -22.9980 C   0  0  0  0  0  0  0  0  0  0  0  0
    0.1480   27.8209  -22.0626 H   0  0  0  0  0  0  0  0  0  0  0  0
    0.8018   26.4609  -23.0370 H   0  0  0  0  0  0  0  0  0  0  0  0
    1.6396   28.0498  -23.0370 H   0  0  0  0  0  0  0  0  0  0  0  0
  1  2  1  0
  2  3  2  0
  3  4  1  0
  3  5  1  0
  5  6  1  0
  6  7  2  0
  7  8  1  0
  7  9  1  0
  9 10  1  0
 10 11  2  0
 11 12  1  0
 11 13  1  0
 13 14  1  0
 14 15  1  0
 14 16  1  0
 14 17  1  0
 13 18  1  0
 18 19  2  0
 18 20  1  0
 20 21  1  0
 21 22  2  3
 22 23  1  0
 23 24  1  0
 24 25  1  0
 24 26  1  0
 24 27  1  0
 23 28  1  0
 28 29  1  0
 28 30  1  0
 28 31  1  0
 23 32  1  0
 32 33  1  0
 32 34  1  0
 32 35  1  0
 21 36  1  0
 36 37  1  0
  5 38  2  0
 38 39  1  0
 38 40  1  0
 40 41  1  0
 40 42  2  0
 42 43  1  0
 43 44  1  0
 44 45  1  0
 44 46  1  0
 44 47  1  0
 42  2  1  0
 36  6  1  0
 20  9  2  0
M  END
>  <UniqueID>  (43) 
43

>  <SMILES>  (43) 
COc1ccc(-c2cc3ncn(C)c(=O)c3/c(=N\C(C)(C)C)[nH]2)cc1

>  <Energy>  (43) 
102.8907538049486

>  <Genealogy>  (43) 
COc1ccc(-c2cc3ncn(C)c(=O)c3/c(=N\C(C)(C)C)[nH]2)cc1 (cis-trans isomerization)
COc1ccc(-c2cc3ncn(C)c(=O)c3/c(=N\C(C)(C)C)[nH]2)cc1 (3D coordinates assigned)
COc1ccc(-c2cc3ncn(C)c(=O)c3/c(=N\C(C)(C)C)[nH]2)cc1 (optimized conformer: 102.8907538049486 kcal/mol)

>  <smiles>  (43) 
COc1ccc(-c2cc3ncn(C)c(=O)c3c(=NC(C)(C)C)[nH]2)cc1

>  <score_type>  (43) 
oracle

>  <origin>  (43) 
adg

>  <m_score__min__energy>  (43) 
-6.9900000000000002

>  <m_primary>  (43) 
energy

$$$$
43:0
     RDKit          3D

 34 36  0  0  0  0  0  0  0  0999 V2000
   -5.4040   26.4310  -30.4780 O   0  0  0  0  0  0  0  0  0  0  0  0
   -4.9060   25.2840  -30.6230 C   0  0  0  0  0  0  0  0  0  0  0  0
   -3.4900   25.1210  -30.4640 N   0  0  0  0  0  0  0  0  0  0  0  0
   -2.8350   24.4730  -29.3630 C   0  0  0  0  0  0  0  0  0  0  0  0
   -3.4560   23.4390  -28.6390 C   0  0  0  0  0  0  0  0  0  0  0  0
   -2.7940   22.8400  -27.5630 C   0  0  0  0  0  0  0  0  0  0  0  0
   -1.5200   23.2780  -27.1910 C   0  0  0  0  0  0  0  0  0  0  0  0
   -0.9090   24.3220  -27.8930 C   0  0  0  0  0  0  0  0  0  0  0  0
    0.3240   24.7520  -27.5260 F   0  0  0  0  0  0  0  0  0  0  0  0
   -1.5670   24.9220  -28.9700 C   0  0  0  0  0  0  0  0  0  0  0  0
   -5.7820   24.1620  -31.0130 C   0  0  0  0  0  0  0  0  0  0  0  0
   -7.1640   24.1550  -30.9520 C   0  0  0  0  0  0  0  0  0  0  0  0
   -7.5530   22.9260  -31.4440 C   0  0  0  0  0  0  0  0  0  0  0  0
   -8.8730   22.5080  -31.5880 O   0  0  0  0  0  0  0  0  0  0  0  0
   -6.4800   22.1870  -31.8020 N   0  0  0  0  0  0  0  0  0  0  0  0
   -6.4760   20.8580  -32.3580 C   0  0  0  0  0  0  0  0  0  0  0  0
   -5.4610   20.4550  -33.2470 C   0  0  0  0  0  0  0  0  0  0  0  0
   -5.4680   19.1680  -33.7920 C   0  0  0  0  0  0  0  0  0  0  0  0
   -6.4880   18.2720  -33.4600 C   0  0  0  0  0  0  0  0  0  0  0  0
   -6.4950   16.6560  -34.1460 Cl  0  0  0  0  0  0  0  0  0  0  0  0
   -7.5050   18.6640  -32.5840 C   0  0  0  0  0  0  0  0  0  0  0  0
   -7.5010   19.9520  -32.0390 C   0  0  0  0  0  0  0  0  0  0  0  0
   -5.3920   22.9470  -31.5530 C   0  0  0  0  0  0  0  0  0  0  0  0
   -4.4644   23.1011  -28.9200 H   0  0  0  0  0  0  0  0  0  0  0  0
   -3.2769   22.0222  -27.0080 H   0  0  0  0  0  0  0  0  0  0  0  0
   -0.9986   22.8023  -26.3473 H   0  0  0  0  0  0  0  0  0  0  0  0
   -1.0874   25.7505  -29.5118 H   0  0  0  0  0  0  0  0  0  0  0  0
   -7.8170   24.9615  -30.5871 H   0  0  0  0  0  0  0  0  0  0  0  0
   -9.6310   23.1810  -31.6230 H   0  0  0  0  0  0  0  0  0  0  0  0
   -4.6577   21.1574  -33.5141 H   0  0  0  0  0  0  0  0  0  0  0  0
   -4.6697   18.8599  -34.4832 H   0  0  0  0  0  0  0  0  0  0  0  0
   -8.3083   17.9592  -32.3235 H   0  0  0  0  0  0  0  0  0  0  0  0
   -8.3066   20.2579  -31.3553 H   0  0  0  0  0  0  0  0  0  0  0  0
   -4.3522   22.6467  -31.7494 H   0  0  0  0  0  0  0  0  0  0  0  0
  1  2  2  0
  2  3  1  0
  3  4  1  0
  4  5  2  0
  5  6  1  0
  6  7  2  0
  7  8  1  0
  8  9  1  0
  8 10  2  0
  2 11  1  0
 11 12  1  0
 12 13  2  0
 13 14  1  0
 13 15  1  0
 15 16  1  0
 16 17  2  0
 17 18  1  0
 18 19  2  0
 19 20  1  0
 19 21  1  0
 21 22  2  0
 15 23  1  0
 10  4  1  0
 23 11  2  0
 22 16  1  0
  5 24  1  0
  6 25  1  0
  7 26  1  0
 10 27  1  0
 12 28  1  0
 14 29  1  0
 17 30  1  0
 18 31  1  0
 21 32  1  0
 22 33  1  0
 23 34  1  0
M  CHG  1   3  -1
M  END
>  <UniqueID>  (44) 
44

>  <SMILES>  (44) 
O=C([N-]c1cccc(F)c1)c1cc(O)n(-c2ccc(Cl)cc2)c1

>  <Energy>  (44) 
72.73029611807648

>  <Genealogy>  (44) 
O=C([N-]c1cccc(F)c1)c1cc(O)n(-c2ccc(Cl)cc2)c1 (protonated)
O=C([N-]c1cccc(F)c1)c1cc(O)n(-c2ccc(Cl)cc2)c1 (3D coordinates assigned)
O=C([N-]c1cccc(F)c1)c1cc(O)n(-c2ccc(Cl)cc2)c1 (optimized conformer: 72.73029611807648 kcal/mol)

>  <smiles>  (44) 
O=C(Nc1cccc(F)c1)c1cc(O)n(-c2ccc(Cl)cc2)c1

>  <score_type>  (44) 
oracle

>  <origin>  (44) 
adg

>  <m_score__min__energy>  (44) 
-9.3900000000000006

>  <m_primary>  (44) 
energy

$$$$
44:0
     RDKit          3D

 41 43  0  0  0  0  0  0  0  0999 V2000
   -2.1730   24.3140  -28.6920 C   0  0  0  0  0  0  0  0  0  0  0  0
   -2.9330   24.9170  -29.7340 O   0  0  0  0  0  0  0  0  0  0  0  0
   -4.1570   24.4220  -30.2070 C   0  0  0  0  0  0  0  0  0  0  0  0
   -5.2010   25.3440  -30.4560 C   0  0  0  0  0  0  0  0  0  0  0  0
   -6.4510   24.9090  -30.9310 C   0  0  0  0  0  0  0  0  0  0  0  0
   -6.6280   23.5440  -31.1440 C   0  0  0  0  0  0  0  0  0  0  0  0
   -7.7320   22.9260  -31.5970 N   0  0  0  0  0  0  0  0  0  0  0  0
   -7.4190   21.6070  -31.6430 C   0  0  0  0  0  0  0  0  0  0  0  0
   -8.3340   20.5420  -32.1120 C   0  0  0  0  0  0  0  0  0  0  0  0
   -9.4700   20.4450  -31.5690 O   0  0  0  0  0  0  0  0  0  0  0  0
   -7.9170   19.5730  -33.1080 N   0  0  1  0  0  0  0  0  0  0  0  0
   -6.7350   20.0790  -33.8620 C   0  0  0  0  0  0  0  0  0  0  0  0
   -5.4140   19.4590  -33.3820 C   0  0  0  0  0  0  0  0  0  0  0  0
   -5.4290   17.9150  -33.5190 C   0  0  2  0  0  0  0  0  0  0  0  0
   -4.7830   17.4650  -34.8350 C   0  0  0  0  0  0  0  0  0  0  0  0
   -6.8560   17.3330  -33.3890 C   0  0  0  0  0  0  0  0  0  0  0  0
   -7.7250   18.2290  -32.4990 C   0  0  0  0  0  0  0  0  0  0  0  0
   -6.1070   21.3940  -31.2240 C   0  0  0  0  0  0  0  0  0  0  0  0
   -5.6240   22.6440  -30.9070 C   0  0  0  0  0  0  0  0  0  0  0  0
   -4.3740   23.0400  -30.4390 C   0  0  0  0  0  0  0  0  0  0  0  0
   -2.5719   24.6305  -27.7169 H   0  0  0  0  0  0  0  0  0  0  0  0
   -2.2382   23.2192  -28.7770 H   0  0  0  0  0  0  0  0  0  0  0  0
   -1.1217   24.6264  -28.7770 H   0  0  0  0  0  0  0  0  0  0  0  0
   -5.0325   26.4159  -30.2755 H   0  0  0  0  0  0  0  0  0  0  0  0
   -7.2633   25.6241  -31.1281 H   0  0  0  0  0  0  0  0  0  0  0  0
   -8.6250   23.3870  -31.8790 H   0  0  0  0  0  0  0  0  0  0  0  0
   -8.6980   19.4590  -33.7970 H   0  0  0  0  0  0  0  0  0  0  0  0
   -6.6778   21.1702  -33.7353 H   0  0  0  0  0  0  0  0  0  0  0  0
   -6.8693   19.7977  -34.9169 H   0  0  0  0  0  0  0  0  0  0  0  0
   -5.2583   19.7227  -32.3255 H   0  0  0  0  0  0  0  0  0  0  0  0
   -4.5998   19.8534  -34.0078 H   0  0  0  0  0  0  0  0  0  0  0  0
   -4.8311   17.5183  -32.6853 H   0  0  0  0  0  0  0  0  0  0  0  0
   -3.8983   16.8487  -34.6172 H   0  0  0  0  0  0  0  0  0  0  0  0
   -5.5070   16.8748  -35.4159 H   0  0  0  0  0  0  0  0  0  0  0  0
   -4.4803   18.3487  -35.4159 H   0  0  0  0  0  0  0  0  0  0  0  0
   -6.7977   16.3288  -32.9438 H   0  0  0  0  0  0  0  0  0  0  0  0
   -7.3099   17.2798  -34.3896 H   0  0  0  0  0  0  0  0  0  0  0  0
   -7.2353   18.3455  -31.5209 H   0  0  0  0  0  0  0  0  0  0  0  0
   -8.7111   17.7548  -32.3865 H   0  0  0  0  0  0  0  0  0  0  0  0
   -5.5727   20.4346  -31.1603 H   0  0  0  0  0  0  0  0  0  0  0  0
   -3.5785   22.3029  -30.2547 H   0  0  0  0  0  0  0  0  0  0  0  0
  1  2  1  0
  2  3  1  0
  3  4  2  0
  4  5  1  0
  5  6  2  0
  6  7  1  0
  7  8  1  0
  8  9  1  0
  9 10  2  0
  9 11  1  0
 11 12  1  0
 12 13  1  0
 13 14  1  0
 14 15  1  0
 14 16  1  0
 16 17  1  0
  8 18  2  0
 18 19  1  0
 19 20  2  0
 20  3  1  0
 19  6  1  0
 17 11  1  0
  1 21  1  0
  1 22  1  0
  1 23  1  0
  4 24  1  0
  5 25  1  0
  7 26  1  0
 11 27  1  6
 12 28  1  0
 12 29  1  0
 13 30  1  0
 13 31  1  0
 14 32  1  1
 15 33  1  0
 15 34  1  0
 15 35  1  0
 16 36  1  0
 16 37  1  0
 17 38  1  0
 17 39  1  0
 18 40  1  0
 20 41  1  0
M  CHG  1  11   1
M  END
>  <UniqueID>  (45) 
45

>  <SMILES>  (45) 
COc1ccc2[nH]c(C(=O)[NH+]3CCC(C)CC3)cc2c1

>  <Energy>  (45) 
82.49848435266765

>  <Genealogy>  (45) 
COc1ccc2[nH]c(C(=O)[NH+]3CCC(C)CC3)cc2c1 (protonated)
COc1ccc2[nH]c(C(=O)[NH+]3CCC(C)CC3)cc2c1 (3D coordinates assigned)
COc1ccc2[nH]c(C(=O)[NH+]3CCC(C)CC3)cc2c1 (nonaromatic ring conformer: 82.49848435266765 kcal/mol)

>  <smiles>  (45) 
COc1ccc2[nH]c(C(=O)N3CCC(C)CC3)cc2c1

>  <score_type>  (45) 
oracle

>  <origin>  (45) 
adg

>  <m_score__min__energy>  (45) 
-8.0199999999999996

>  <m_primary>  (45) 
energy

$$$$
45:0
     RDKit          3D

 48 51  0  0  0  0  0  0  0  0999 V2000
    2.7760   18.1760  -28.8030 C   0  0  0  0  0  0  0  0  0  0  0  0
    3.2340   18.8500  -29.9710 O   0  0  0  0  0  0  0  0  0  0  0  0
    2.4050   19.2530  -31.0280 C   0  0  0  0  0  0  0  0  0  0  0  0
    1.0930   19.6440  -30.7320 C   0  0  0  0  0  0  0  0  0  0  0  0
    0.2280   20.0540  -31.7510 C   0  0  0  0  0  0  0  0  0  0  0  0
    0.6640   20.0710  -33.0820 C   0  0  0  0  0  0  0  0  0  0  0  0
   -0.4140   20.6130  -34.3610 S   0  0  0  0  0  0  0  0  0  0  0  0
   -0.0740   19.9130  -35.6480 O   0  0  0  0  0  0  0  0  0  0  0  0
   -0.2530   22.0920  -34.5770 O   0  0  0  0  0  0  0  0  0  0  0  0
   -2.0750   20.2550  -33.9000 C   0  0  0  0  0  0  0  0  0  0  0  0
   -2.6180   18.9890  -34.1460 C   0  0  0  0  0  0  0  0  0  0  0  0
   -3.9290   18.7020  -33.7600 C   0  0  0  0  0  0  0  0  0  0  0  0
   -4.7080   19.6760  -33.1160 C   0  0  0  0  0  0  0  0  0  0  0  0
   -5.9850   19.4030  -32.7500 N   0  0  0  0  0  0  0  0  0  0  0  0
   -6.7760   20.3260  -32.1270 C   0  0  0  0  0  0  0  0  0  0  0  0
   -6.2520   21.5700  -31.7910 N   0  0  0  0  0  0  0  0  0  0  0  0
   -4.9690   21.8850  -32.1940 C   0  0  0  0  0  0  0  0  0  0  0  0
   -4.4970   23.0380  -31.9810 O   0  0  0  0  0  0  0  0  0  0  0  0
   -4.1670   20.9400  -32.8520 C   0  0  0  0  0  0  0  0  0  0  0  0
   -2.8450   21.2270  -33.2480 C   0  0  0  0  0  0  0  0  0  0  0  0
   -7.0340   22.6440  -31.1170 C   0  0  0  0  0  0  0  0  0  0  0  0
   -8.3330   23.0210  -31.8380 C   0  0  0  0  0  0  0  0  0  0  0  0
   -9.4620   22.0300  -31.5430 C   0  0  0  0  0  0  0  0  0  0  0  0
   -9.3170   20.7160  -32.3160 C   0  0  0  0  0  0  0  0  0  0  0  0
   -8.1810   19.8560  -31.7600 C   0  0  0  0  0  0  0  0  0  0  0  0
    1.9770   19.6880  -33.3840 C   0  0  0  0  0  0  0  0  0  0  0  0
    2.8440   19.2780  -32.3660 C   0  0  0  0  0  0  0  0  0  0  0  0
    3.1361   18.7060  -27.9089 H   0  0  0  0  0  0  0  0  0  0  0  0
    1.6762   18.1555  -28.7990 H   0  0  0  0  0  0  0  0  0  0  0  0
    3.1619   17.1459  -28.7990 H   0  0  0  0  0  0  0  0  0  0  0  0
    0.7406   19.6284  -29.6901 H   0  0  0  0  0  0  0  0  0  0  0  0
   -0.7986   20.3643  -31.5066 H   0  0  0  0  0  0  0  0  0  0  0  0
   -2.0112   18.2186  -34.6443 H   0  0  0  0  0  0  0  0  0  0  0  0
   -4.3534   17.7074  -33.9617 H   0  0  0  0  0  0  0  0  0  0  0  0
   -6.3700   18.4520  -32.9560 H   0  0  0  0  0  0  0  0  0  0  0  0
   -2.4158   22.2191  -33.0441 H   0  0  0  0  0  0  0  0  0  0  0  0
   -7.2889   22.3010  -30.1034 H   0  0  0  0  0  0  0  0  0  0  0  0
   -6.4005   23.5432  -31.1154 H   0  0  0  0  0  0  0  0  0  0  0  0
   -8.6446   24.0228  -31.5074 H   0  0  0  0  0  0  0  0  0  0  0  0
   -8.1384   23.0014  -32.9205 H   0  0  0  0  0  0  0  0  0  0  0  0
   -9.4602   21.8060  -30.4661 H   0  0  0  0  0  0  0  0  0  0  0  0
  -10.4049   22.4986  -31.8614 H   0  0  0  0  0  0  0  0  0  0  0  0
  -10.2592   20.1531  -32.2425 H   0  0  0  0  0  0  0  0  0  0  0  0
   -9.0835   20.9578  -33.3634 H   0  0  0  0  0  0  0  0  0  0  0  0
   -8.2631   19.8502  -30.6631 H   0  0  0  0  0  0  0  0  0  0  0  0
   -8.2998   18.8605  -32.2126 H   0  0  0  0  0  0  0  0  0  0  0  0
    2.3278   19.7098  -34.4263 H   0  0  0  0  0  0  0  0  0  0  0  0
    3.8723   18.9740  -32.6112 H   0  0  0  0  0  0  0  0  0  0  0  0
  1  2  1  0
  2  3  1  0
  3  4  2  0
  4  5  1  0
  5  6  2  0
  6  7  1  0
  7  8  2  0
  7  9  2  0
  7 10  1  0
 10 11  2  0
 11 12  1  0
 12 13  2  0
 13 14  1  0
 14 15  2  0
 15 16  1  0
 16 17  1  0
 17 18  2  0
 17 19  1  0
 19 20  2  0
 16 21  1  0
 21 22  1  0
 22 23  1  0
 23 24  1  0
 24 25  1  0
  6 26  1  0
 26 27  2  0
 27  3  1  0
 20 10  1  0
 19 13  1  0
 25 15  1  0
  1 28  1  0
  1 29  1  0
  1 30  1  0
  4 31  1  0
  5 32  1  0
 11 33  1  0
 12 34  1  0
 14 35  1  0
 20 36  1  0
 21 37  1  0
 21 38  1  0
 22 39  1  0
 22 40  1  0
 23 41  1  0
 23 42  1  0
 24 43  1  0
 24 44  1  0
 25 45  1  0
 25 46  1  0
 26 47  1  0
 27 48  1  0
M  CHG  1  14   1
M  END
>  <UniqueID>  (46) 
46

>  <SMILES>  (46) 
COc1ccc(S(=O)(=O)c2ccc3[nH+]c4n(c(=O)c3c2)CCCCC4)cc1

>  <Energy>  (46) 
69.79083840825773

>  <Genealogy>  (46) 
COc1ccc(S(=O)(=O)c2ccc3[nH+]c4n(c(=O)c3c2)CCCCC4)cc1 (protonated)
COc1ccc(S(=O)(=O)c2ccc3[nH+]c4n(c(=O)c3c2)CCCCC4)cc1 (3D coordinates assigned)
COc1ccc(S(=O)(=O)c2ccc3[nH+]c4n(c(=O)c3c2)CCCCC4)cc1 (nonaromatic ring conformer: 69.79083840825773 kcal/mol)

>  <smiles>  (46) 
COc1ccc(S(=O)(=O)c2ccc3nc4n(c(=O)c3c2)CCCCC4)cc1

>  <score_type>  (46) 
oracle

>  <origin>  (46) 
adg

>  <m_score__min__energy>  (46) 
-7.7800000000000002

>  <m_primary>  (46) 
energy

$$$$
46:0
     RDKit          3D

 49 51  0  0  0  0  0  0  0  0999 V2000
   -5.5961   21.0385  -30.4331 H   0  0  0  0  0  0  0  0  0  0  0  0
   -4.8210   21.8180  -30.4730 C   0  0  0  0  0  0  0  0  0  0  0  0
   -5.1970   23.0530  -30.8560 C   0  0  0  0  0  0  0  0  0  0  0  0
   -6.6730   23.2140  -31.8690 S   0  0  0  0  0  0  0  0  0  0  0  0
   -6.7950   21.4490  -32.1690 C   0  0  0  0  0  0  0  0  0  0  0  0
   -5.9380   20.8340  -33.0880 C   0  0  0  0  0  0  0  0  0  0  0  0
   -5.1857   21.4324  -33.6227 H   0  0  0  0  0  0  0  0  0  0  0  0
   -6.0360   19.4600  -33.3280 C   0  0  0  0  0  0  0  0  0  0  0  0
   -5.3645   18.9840  -34.0578 H   0  0  0  0  0  0  0  0  0  0  0  0
   -6.9830   18.6850  -32.6460 C   0  0  0  0  0  0  0  0  0  0  0  0
   -7.0420   17.3110  -32.9230 O   0  0  0  0  0  0  0  0  0  0  0  0
   -6.4660   16.6980  -34.0720 C   0  0  0  0  0  0  0  0  0  0  0  0
   -5.7447   15.9303  -33.7552 H   0  0  0  0  0  0  0  0  0  0  0  0
   -7.2587   16.2301  -34.6742 H   0  0  0  0  0  0  0  0  0  0  0  0
   -5.9497   17.4601  -34.6742 H   0  0  0  0  0  0  0  0  0  0  0  0
   -7.8350   19.3070  -31.7120 C   0  0  0  0  0  0  0  0  0  0  0  0
   -8.5815   18.7094  -31.1682 H   0  0  0  0  0  0  0  0  0  0  0  0
   -7.7350   20.6810  -31.4740 C   0  0  0  0  0  0  0  0  0  0  0  0
   -8.3976   21.1596  -30.7379 H   0  0  0  0  0  0  0  0  0  0  0  0
   -4.4790   24.2920  -30.4660 C   0  0  0  0  0  0  0  0  0  0  0  0
   -4.5700   25.3050  -31.2090 O   0  0  0  0  0  0  0  0  0  0  0  0
   -3.6760   24.3860  -29.2230 C   0  0  0  0  0  0  0  0  0  0  0  0
   -2.2750   24.5070  -29.2760 C   0  0  0  0  0  0  0  0  0  0  0  0
   -1.7612   24.4904  -30.2485 H   0  0  0  0  0  0  0  0  0  0  0  0
   -1.5330   24.6480  -28.1010 C   0  0  0  0  0  0  0  0  0  0  0  0
   -0.4390   24.7513  -28.1509 H   0  0  0  0  0  0  0  0  0  0  0  0
   -2.1800   24.6580  -26.8610 C   0  0  0  0  0  0  0  0  0  0  0  0
   -1.2490   24.8480  -25.3870 Cl  0  0  0  0  0  0  0  0  0  0  0  0
   -3.5690   24.5140  -26.7970 C   0  0  0  0  0  0  0  0  0  0  0  0
   -4.0766   24.5132  -25.8211 H   0  0  0  0  0  0  0  0  0  0  0  0
   -4.3140   24.3710  -27.9710 C   0  0  0  0  0  0  0  0  0  0  0  0
   -5.4054   24.2461  -27.9146 H   0  0  0  0  0  0  0  0  0  0  0  0
   -3.4380   21.4320  -30.1010 C   0  0  0  0  0  0  0  0  0  0  0  0
   -3.1140   21.2180  -28.7490 C   0  0  0  0  0  0  0  0  0  0  0  0
   -3.8846   21.3577  -27.9765 H   0  0  0  0  0  0  0  0  0  0  0  0
   -1.8210   20.8290  -28.3750 C   0  0  0  0  0  0  0  0  0  0  0  0
   -1.5110   20.5210  -26.9400 C   0  0  0  0  0  0  0  0  0  0  0  0
   -2.1390   21.1450  -26.2871 H   0  0  0  0  0  0  0  0  0  0  0  0
   -1.7164   19.4590  -26.7403 H   0  0  0  0  0  0  0  0  0  0  0  0
   -0.4503   20.7332  -26.7403 H   0  0  0  0  0  0  0  0  0  0  0  0
   -0.8400   20.6600  -29.3600 C   0  0  0  0  0  0  0  0  0  0  0  0
    0.1701   20.3298  -29.0761 H   0  0  0  0  0  0  0  0  0  0  0  0
   -1.1390   20.9090  -30.7010 C   0  0  0  0  0  0  0  0  0  0  0  0
   -0.3541   20.7978  -31.4636 H   0  0  0  0  0  0  0  0  0  0  0  0
   -2.4320   21.3000  -31.0860 C   0  0  0  0  0  0  0  0  0  0  0  0
   -2.7250   21.5550  -32.5410 C   0  0  0  0  0  0  0  0  0  0  0  0
   -3.5522   22.2749  -32.6278 H   0  0  0  0  0  0  0  0  0  0  0  0
   -1.8288   21.9657  -33.0290 H   0  0  0  0  0  0  0  0  0  0  0  0
   -3.0081   20.6107  -33.0290 H   0  0  0  0  0  0  0  0  0  0  0  0
  1  2  1  0
  2  3  2  0
  3  4  1  0
  4  5  1  0
  5  6  2  0
  6  7  1  0
  6  8  1  0
  8  9  1  0
  8 10  2  0
 10 11  1  0
 11 12  1  0
 12 13  1  0
 12 14  1  0
 12 15  1  0
 10 16  1  0
 16 17  1  0
 16 18  2  0
 18 19  1  0
  3 20  1  0
 20 21  2  0
 20 22  1  0
 22 23  2  0
 23 24  1  0
 23 25  1  0
 25 26  1  0
 25 27  2  0
 27 28  1  0
 27 29  1  0
 29 30  1  0
 29 31  2  0
 31 32  1  0
  2 33  1  0
 33 34  2  0
 34 35  1  0
 34 36  1  0
 36 37  1  0
 37 38  1  0
 37 39  1  0
 37 40  1  0
 36 41  2  0
 41 42  1  0
 41 43  1  0
 43 44  1  0
 43 45  2  0
 45 46  1  0
 46 47  1  0
 46 48  1  0
 46 49  1  0
 18  5  1  0
 31 22  1  0
 45 33  1  0
M  END
>  <UniqueID>  (47) 
47

>  <SMILES>  (47) 
COc1ccc(S/C(=C/c2cc(C)ccc2C)C(=O)c2ccc(Cl)cc2)cc1

>  <Energy>  (47) 
55.06239447259219

>  <Genealogy>  (47) 
COc1ccc(S/C(=C/c2cc(C)ccc2C)C(=O)c2ccc(Cl)cc2)cc1 (cis-trans isomerization)
COc1ccc(S/C(=C/c2cc(C)ccc2C)C(=O)c2ccc(Cl)cc2)cc1 (3D coordinates assigned)
COc1ccc(S/C(=C/c2cc(C)ccc2C)C(=O)c2ccc(Cl)cc2)cc1 (optimized conformer: 55.06239447259219 kcal/mol)

>  <smiles>  (47) 
COc1ccc(SC(=Cc2cc(C)ccc2C)C(=O)c2ccc(Cl)cc2)cc1

>  <score_type>  (47) 
oracle

>  <origin>  (47) 
adg

>  <m_score__min__energy>  (47) 
-9.3100000000000005

>  <m_primary>  (47) 
energy

$$$$
47:0
     RDKit          3D

 38 39  0  0  0  0  0  0  0  0999 V2000
   -1.5680   26.0820  -26.5870 C   0  0  0  0  0  0  0  0  0  0  0  0
   -0.8750   26.2890  -27.9240 C   0  0  0  0  0  0  0  0  0  0  0  0
   -1.6890   25.7590  -28.9670 O   0  0  0  0  0  0  0  0  0  0  0  0
   -2.1380   24.4290  -29.0300 C   0  0  0  0  0  0  0  0  0  0  0  0
   -1.5110   23.3950  -28.3080 C   0  0  0  0  0  0  0  0  0  0  0  0
   -1.9870   22.0850  -28.3970 C   0  0  0  0  0  0  0  0  0  0  0  0
   -3.0890   21.7950  -29.1990 C   0  0  0  0  0  0  0  0  0  0  0  0
   -3.7200   22.8120  -29.9190 C   0  0  0  0  0  0  0  0  0  0  0  0
   -3.2470   24.1380  -29.8420 C   0  0  0  0  0  0  0  0  0  0  0  0
   -3.8490   25.1950  -30.5450 O   0  0  0  0  0  0  0  0  0  0  0  0
   -5.1880   25.6580  -30.3690 C   0  0  0  0  0  0  0  0  0  0  0  0
   -6.1660   24.4660  -30.3230 C   0  0  0  0  0  0  0  0  0  0  0  0
   -6.6490   24.0140  -31.6490 N   0  0  0  0  0  0  0  0  0  0  0  0
   -5.7200   23.1040  -32.3360 C   0  0  0  0  0  0  0  0  0  0  0  0
   -6.3370   21.7100  -32.3520 C   0  0  0  0  0  0  0  0  0  0  0  0
   -7.7260   21.8550  -31.7590 C   0  0  0  0  0  0  0  0  0  0  0  0
   -7.9560   23.3500  -31.6130 C   0  0  0  0  0  0  0  0  0  0  0  0
   -0.8611   26.2931  -25.7711 H   0  0  0  0  0  0  0  0  0  0  0  0
   -2.4292   26.7621  -26.5112 H   0  0  0  0  0  0  0  0  0  0  0  0
   -1.9151   25.0410  -26.5112 H   0  0  0  0  0  0  0  0  0  0  0  0
   -0.7168   27.3644  -28.0926 H   0  0  0  0  0  0  0  0  0  0  0  0
    0.0962   25.7726  -27.9179 H   0  0  0  0  0  0  0  0  0  0  0  0
   -0.6427   23.6201  -27.6713 H   0  0  0  0  0  0  0  0  0  0  0  0
   -1.4913   21.2810  -27.8332 H   0  0  0  0  0  0  0  0  0  0  0  0
   -3.4629   20.7626  -29.2652 H   0  0  0  0  0  0  0  0  0  0  0  0
   -4.5904   22.5772  -30.5493 H   0  0  0  0  0  0  0  0  0  0  0  0
   -5.2564   26.2199  -29.4258 H   0  0  0  0  0  0  0  0  0  0  0  0
   -5.4557   26.3075  -31.2154 H   0  0  0  0  0  0  0  0  0  0  0  0
   -5.6552   23.6214  -29.8375 H   0  0  0  0  0  0  0  0  0  0  0  0
   -7.0517   24.8101  -29.7688 H   0  0  0  0  0  0  0  0  0  0  0  0
   -5.5557   23.4496  -33.3673 H   0  0  0  0  0  0  0  0  0  0  0  0
   -4.7532   23.0838  -31.8118 H   0  0  0  0  0  0  0  0  0  0  0  0
   -6.4002   21.3328  -33.3834 H   0  0  0  0  0  0  0  0  0  0  0  0
   -5.7286   20.9958  -31.7778 H   0  0  0  0  0  0  0  0  0  0  0  0
   -8.4778   21.4150  -32.4307 H   0  0  0  0  0  0  0  0  0  0  0  0
   -7.8120   21.3345  -30.7937 H   0  0  0  0  0  0  0  0  0  0  0  0
   -8.5828   23.7140  -32.4404 H   0  0  0  0  0  0  0  0  0  0  0  0
   -8.4696   23.5673  -30.6649 H   0  0  0  0  0  0  0  0  0  0  0  0
  1  2  1  0
  2  3  1  0
  3  4  1  0
  4  5  2  0
  5  6  1  0
  6  7  2  0
  7  8  1  0
  8  9  2  0
  9 10  1  0
 10 11  1  0
 11 12  1  0
 12 13  1  0
 13 14  1  0
 14 15  1  0
 15 16  1  0
 16 17  1  0
  9  4  1  0
 17 13  1  0
  1 18  1  0
  1 19  1  0
  1 20  1  0
  2 21  1  0
  2 22  1  0
  5 23  1  0
  6 24  1  0
  7 25  1  0
  8 26  1  0
 11 27  1  0
 11 28  1  0
 12 29  1  0
 12 30  1  0
 14 31  1  0
 14 32  1  0
 15 33  1  0
 15 34  1  0
 16 35  1  0
 16 36  1  0
 17 37  1  0
 17 38  1  0
M  END
>  <UniqueID>  (48) 
48

>  <SMILES>  (48) 
CCOc1ccccc1OCCN1CCCC1

>  <Energy>  (48) 
38.009266344947626

>  <Genealogy>  (48) 
CCOc1ccccc1OCCN1CCCC1 (3D coordinates assigned)
CCOc1ccccc1OCCN1CCCC1 (nonaromatic ring conformer: 38.009266344947626 kcal/mol)

>  <smiles>  (48) 
CCOc1ccccc1OCCN1CCCC1

>  <score_type>  (48) 
oracle

>  <origin>  (48) 
adg

>  <m_score__min__energy>  (48) 
-7.1200000000000001

>  <m_primary>  (48) 
energy

$$$$
