0:0
     RDKit          3D

 36 37  0  0  0  0  0  0  0  0999 V2000
   -2.6670   21.7450  -29.7490 C   0  0  0  0  0  0  0  0  0  0  0  0
   -2.0050   23.0300  -30.1040 C   0  0  0  0  0  0  0  0  0  0  0  0
   -2.3470   24.1640  -29.3310 N   0  0  0  0  0  0  0  0  0  0  0  0
   -1.2940   24.9240  -28.7770 C   0  0  0  0  0  0  0  0  0  0  0  0
   -3.5830   24.1580  -28.6660 C   0  0  0  0  0  0  0  0  0  0  0  0
   -4.8140   24.3690  -29.4670 C   0  0  0  0  0  0  0  0  0  0  0  0
   -4.6770   24.6460  -30.7860 O   0  0  0  0  0  0  0  0  0  0  0  0
   -5.7620   24.5520  -31.5970 C   0  0  0  0  0  0  0  0  0  0  0  0
   -6.1790   23.2040  -31.9290 N   0  0  0  0  0  0  0  0  0  0  0  0
   -7.3920   22.6310  -31.8550 C   0  0  0  0  0  0  0  0  0  0  0  0
   -7.3410   21.3250  -32.2730 C   0  0  0  0  0  0  0  0  0  0  0  0
   -8.4820   20.4260  -32.3160 C   0  0  0  0  0  0  0  0  0  0  0  0
   -9.4000   19.7110  -32.3660 N   0  0  0  0  0  0  0  0  0  0  0  0
   -6.0500   21.0770  -32.6190 C   0  0  0  0  0  0  0  0  0  0  0  0
   -5.4460   19.9350  -33.1020 C   0  0  0  0  0  0  0  0  0  0  0  0
   -6.4120   18.4870  -33.3520 Cl  0  0  0  0  0  0  0  0  0  0  0  0
   -4.1280   19.9710  -33.3650 N   0  0  0  0  0  0  0  0  0  0  0  0
   -3.4260   21.1130  -33.1550 C   0  0  0  0  0  0  0  0  0  0  0  0
   -4.0110   22.2250  -32.6860 N   0  0  0  0  0  0  0  0  0  0  0  0
   -5.3280   22.2570  -32.4020 C   0  0  0  0  0  0  0  0  0  0  0  0
   -2.7168   21.6483  -28.6544 H   0  0  0  0  0  0  0  0  0  0  0  0
   -3.6851   21.7298  -30.1651 H   0  0  0  0  0  0  0  0  0  0  0  0
   -2.0883   20.9072  -30.1651 H   0  0  0  0  0  0  0  0  0  0  0  0
   -0.9192   22.8805  -30.0113 H   0  0  0  0  0  0  0  0  0  0  0  0
   -2.3564   23.2609  -31.1205 H   0  0  0  0  0  0  0  0  0  0  0  0
   -1.3505   24.8832  -27.6792 H   0  0  0  0  0  0  0  0  0  0  0  0
   -0.3299   24.5122  -29.1101 H   0  0  0  0  0  0  0  0  0  0  0  0
   -1.3812   25.9687  -29.1101 H   0  0  0  0  0  0  0  0  0  0  0  0
   -3.6809   23.1813  -28.1696 H   0  0  0  0  0  0  0  0  0  0  0  0
   -3.5380   25.0337  -28.0018 H   0  0  0  0  0  0  0  0  0  0  0  0
   -5.4172   23.4526  -29.3866 H   0  0  0  0  0  0  0  0  0  0  0  0
   -5.2649   25.2778  -29.0418 H   0  0  0  0  0  0  0  0  0  0  0  0
   -6.6035   25.0533  -31.0964 H   0  0  0  0  0  0  0  0  0  0  0  0
   -5.4689   25.0200  -32.5484 H   0  0  0  0  0  0  0  0  0  0  0  0
   -8.3028   23.1399  -31.5065 H   0  0  0  0  0  0  0  0  0  0  0  0
   -2.3484   21.1272  -33.3753 H   0  0  0  0  0  0  0  0  0  0  0  0
  1  2  1  0
  2  3  1  0
  3  4  1  0
  3  5  1  0
  5  6  1  0
  6  7  1  0
  7  8  1  0
  8  9  1  0
  9 10  1  0
 10 11  2  0
 11 12  1  0
 12 13  3  0
 11 14  1  0
 14 15  2  0
 15 16  1  0
 15 17  1  0
 17 18  2  0
 18 19  1  0
 19 20  2  0
 20  9  1  0
 20 14  1  0
  1 21  1  0
  1 22  1  0
  1 23  1  0
  2 24  1  0
  2 25  1  0
  4 26  1  0
  4 27  1  0
  4 28  1  0
  5 29  1  0
  5 30  1  0
  6 31  1  0
  6 32  1  0
  8 33  1  0
  8 34  1  0
 10 35  1  0
 18 36  1  0
M  END
>  <smiles>  (1) 
CCN(C)CCOCn1cc(C#N)c2c(Cl)ncnc21

>  <score_type>  (1) 
oracle

>  <origin>  (1) 
adg

>  <m_score__min__energy>  (1) 
-6.6799999999999997

>  <m_primary>  (1) 
energy

$$$$
1:0
     RDKit          3D

 43 45  0  0  1  0  0  0  0  0999 V2000
   -3.0740   24.5370  -29.3950 C   0  0  0  0  0  0  0  0  0  0  0  0
   -3.9660   24.9370  -30.3920 O   0  0  0  0  0  0  0  0  0  0  0  0
   -5.2800   24.6890  -30.0050 C   0  0  0  0  0  0  0  0  0  0  0  0
   -5.5350   23.2050  -30.0310 C   0  0  1  0  0  0  0  0  0  0  0  0
   -6.9560   22.8120  -30.2240 C   0  0  0  0  0  0  0  0  0  0  0  0
   -7.3930   22.9110  -31.6090 N   0  0  0  0  0  0  0  0  0  0  0  0
   -8.7740   22.7640  -31.9170 C   0  0  0  0  0  0  0  0  0  0  0  0
   -9.4730   23.7300  -32.3510 O   0  0  0  0  0  0  0  0  0  0  0  0
   -9.4480   21.4520  -31.7360 C   0  0  0  0  0  0  0  0  0  0  0  0
   -8.5210   20.3420  -32.0400 C   0  0  0  0  0  0  0  0  0  0  0  0
   -8.5020   19.2160  -31.2370 C   0  0  0  0  0  0  0  0  0  0  0  0
   -7.6350   18.1890  -31.5300 C   0  0  0  0  0  0  0  0  0  0  0  0
   -6.7770   18.2600  -32.6180 C   0  0  0  0  0  0  0  0  0  0  0  0
   -6.7820   19.3830  -33.4370 C   0  0  0  0  0  0  0  0  0  0  0  0
   -5.9490   19.4760  -34.5120 F   0  0  0  0  0  0  0  0  0  0  0  0
   -7.6700   20.3990  -33.1110 C   0  0  0  0  0  0  0  0  0  0  0  0
   -6.4640   23.1580  -32.7000 C   0  0  0  0  0  0  0  0  0  0  0  0
   -5.1800   22.4970  -32.3410 C   0  0  0  0  0  0  0  0  0  0  0  0
   -4.2560   21.8010  -33.0950 C   0  0  0  0  0  0  0  0  0  0  0  0
   -3.2720   21.4140  -32.2750 N   0  0  0  0  0  0  0  0  0  0  0  0
   -2.0970   20.6580  -32.6500 C   0  0  0  0  0  0  0  0  0  0  0  0
   -3.5440   21.8360  -31.0600 N   0  0  0  0  0  0  0  0  0  0  0  0
   -4.7010   22.5080  -31.0310 C   0  0  0  0  0  0  0  0  0  0  0  0
   -3.5154   24.7350  -28.4071 H   0  0  0  0  0  0  0  0  0  0  0  0
   -2.8694   23.4609  -29.4962 H   0  0  0  0  0  0  0  0  0  0  0  0
   -2.1344   25.1000  -29.4962 H   0  0  0  0  0  0  0  0  0  0  0  0
   -5.4415   25.0718  -28.9865 H   0  0  0  0  0  0  0  0  0  0  0  0
   -5.9696   25.1935  -30.6978 H   0  0  0  0  0  0  0  0  0  0  0  0
   -5.2505   22.8852  -29.0177 H   0  0  0  0  0  0  0  0  0  0  0  0
   -7.0795   21.7707  -29.8916 H   0  0  0  0  0  0  0  0  0  0  0  0
   -7.5716   23.5081  -29.6354 H   0  0  0  0  0  0  0  0  0  0  0  0
   -9.7895   21.3622  -30.6942 H   0  0  0  0  0  0  0  0  0  0  0  0
  -10.3041   21.3963  -32.4245 H   0  0  0  0  0  0  0  0  0  0  0  0
   -9.1753   19.1423  -30.3703 H   0  0  0  0  0  0  0  0  0  0  0  0
   -7.6217   17.2947  -30.8897 H   0  0  0  0  0  0  0  0  0  0  0  0
   -6.0920   17.4265  -32.8327 H   0  0  0  0  0  0  0  0  0  0  0  0
   -7.6910   21.2967  -33.7463 H   0  0  0  0  0  0  0  0  0  0  0  0
   -6.8585   22.7330  -33.6348 H   0  0  0  0  0  0  0  0  0  0  0  0
   -6.3187   24.2376  -32.8530 H   0  0  0  0  0  0  0  0  0  0  0  0
   -4.3177   21.6008  -34.1749 H   0  0  0  0  0  0  0  0  0  0  0  0
   -1.5731   20.3209  -31.7434 H   0  0  0  0  0  0  0  0  0  0  0  0
   -2.3982   19.7838  -33.2459 H   0  0  0  0  0  0  0  0  0  0  0  0
   -1.4263   21.2944  -33.2459 H   0  0  0  0  0  0  0  0  0  0  0  0
  1  2  1  0
  2  3  1  0
  3  4  1  0
  4  5  1  0
  5  6  1  0
  6  7  1  0
  7  8  2  0
  7  9  1  0
  9 10  1  0
 10 11  2  0
 11 12  1  0
 12 13  2  0
 13 14  1  0
 14 15  1  0
 14 16  2  0
  6 17  1  0
 17 18  1  0
 18 19  2  0
 19 20  1  0
 20 21  1  0
 20 22  1  0
 22 23  2  0
 23  4  1  0
 16 10  1  0
 23 18  1  0
  1 24  1  0
  1 25  1  0
  1 26  1  0
  3 27  1  0
  3 28  1  0
  4 29  1  1
  5 30  1  0
  5 31  1  0
  9 32  1  0
  9 33  1  0
 11 34  1  0
 12 35  1  0
 13 36  1  0
 16 37  1  0
 17 38  1  0
 17 39  1  0
 19 40  1  0
 21 41  1  0
 21 42  1  0
 21 43  1  0
M  END
>  <smiles>  (2) 
COCC1CN(C(=O)Cc2cccc(F)c2)Cc2cn(C)nc21

>  <score_type>  (2) 
oracle

>  <origin>  (2) 
adg

>  <m_score__min__energy>  (2) 
-8.3499999999999996

>  <m_primary>  (2) 
energy

$$$$
2:0
     RDKit          3D

 75 78  0  0  0  0  0  0  0  0999 V2000
   -0.9200   22.0630  -26.3770 C   0  0  0  0  0  0  0  0  0  0  0  0
   -0.3840   21.2520  -27.5500 C   0  0  0  0  0  0  0  0  0  0  0  0
   -1.3790   20.3820  -28.0120 N   0  0  0  0  0  0  0  0  0  0  0  0
   -1.5890   19.1520  -27.3730 C   0  0  0  0  0  0  0  0  0  0  0  0
   -2.7940   19.0840  -26.4900 C   0  0  0  0  0  0  0  0  0  0  0  0
   -2.3670   20.8640  -28.9110 C   0  0  0  0  0  0  0  0  0  0  0  0
   -1.9120   20.6930  -30.3230 C   0  0  0  0  0  0  0  0  0  0  0  0
   -1.6320   21.8900  -31.0040 O   0  0  0  0  0  0  0  0  0  0  0  0
   -2.3820   21.9080  -32.1870 C   0  0  0  0  0  0  0  0  0  0  0  0
   -3.8330   21.7370  -32.0160 C   0  0  0  0  0  0  0  0  0  0  0  0
   -4.5570   21.3970  -33.2500 N   0  0  0  0  0  0  0  0  0  0  0  0
   -5.2600   20.1640  -33.1980 C   0  0  0  0  0  0  0  0  0  0  0  0
   -4.4860   19.0580  -33.5790 C   0  0  0  0  0  0  0  0  0  0  0  0
   -3.1270   19.2220  -33.8960 C   0  0  0  0  0  0  0  0  0  0  0  0
   -2.3230   18.1930  -34.2770 C   0  0  0  0  0  0  0  0  0  0  0  0
   -2.8450   16.9270  -34.3590 C   0  0  0  0  0  0  0  0  0  0  0  0
   -4.1880   16.7440  -34.0490 C   0  0  0  0  0  0  0  0  0  0  0  0
   -5.0000   17.7940  -33.6640 C   0  0  0  0  0  0  0  0  0  0  0  0
   -6.3200   17.6050  -33.3670 N   0  0  0  0  0  0  0  0  0  0  0  0
   -6.7780   16.2400  -33.4580 C   0  0  0  0  0  0  0  0  0  0  0  0
   -7.0850   18.6480  -32.9990 C   0  0  0  0  0  0  0  0  0  0  0  0
   -8.4070   18.3930  -32.7390 C   0  0  0  0  0  0  0  0  0  0  0  0
   -9.2110   19.4500  -32.3780 C   0  0  0  0  0  0  0  0  0  0  0  0
   -8.6960   20.7260  -32.2810 C   0  0  0  0  0  0  0  0  0  0  0  0
   -7.3430   21.0130  -32.5420 C   0  0  0  0  0  0  0  0  0  0  0  0
   -6.9030   22.3280  -32.2970 N   0  0  0  0  0  0  0  0  0  0  0  0
   -7.0750   22.8170  -30.9150 C   0  0  0  0  0  0  0  0  0  0  0  0
   -5.8600   23.4090  -30.3230 C   0  0  0  0  0  0  0  0  0  0  0  0
   -5.1930   22.8780  -29.2230 C   0  0  0  0  0  0  0  0  0  0  0  0
   -4.0410   23.5250  -28.8380 C   0  0  0  0  0  0  0  0  0  0  0  0
   -3.5180   24.6270  -29.4470 C   0  0  0  0  0  0  0  0  0  0  0  0
   -2.3700   25.2910  -29.0850 O   0  0  0  0  0  0  0  0  0  0  0  0
   -1.6610   25.0200  -27.8960 C   0  0  0  0  0  0  0  0  0  0  0  0
   -4.2010   25.1350  -30.5370 C   0  0  0  0  0  0  0  0  0  0  0  0
   -5.3630   24.5460  -30.9890 C   0  0  0  0  0  0  0  0  0  0  0  0
   -6.5670   19.9540  -32.9030 C   0  0  0  0  0  0  0  0  0  0  0  0
   -0.6087   21.5920  -25.4329 H   0  0  0  0  0  0  0  0  0  0  0  0
   -0.5199   23.0865  -26.4256 H   0  0  0  0  0  0  0  0  0  0  0  0
   -2.0184   22.0961  -26.4256 H   0  0  0  0  0  0  0  0  0  0  0  0
   -0.0876   21.9332  -28.3612 H   0  0  0  0  0  0  0  0  0  0  0  0
    0.4889   20.6683  -27.2225 H   0  0  0  0  0  0  0  0  0  0  0  0
   -1.6936   18.3799  -28.1495 H   0  0  0  0  0  0  0  0  0  0  0  0
   -0.7217   19.0018  -26.7133 H   0  0  0  0  0  0  0  0  0  0  0  0
   -2.4781   19.1018  -25.4365 H   0  0  0  0  0  0  0  0  0  0  0  0
   -3.4458   19.9468  -26.6920 H   0  0  0  0  0  0  0  0  0  0  0  0
   -3.3445   18.1534  -26.6920 H   0  0  0  0  0  0  0  0  0  0  0  0
   -3.3001   20.3015  -28.7600 H   0  0  0  0  0  0  0  0  0  0  0  0
   -2.5355   21.9335  -28.7169 H   0  0  0  0  0  0  0  0  0  0  0  0
   -0.9972   20.0822  -30.3155 H   0  0  0  0  0  0  0  0  0  0  0  0
   -2.7471   20.2204  -30.8609 H   0  0  0  0  0  0  0  0  0  0  0  0
   -2.2102   22.8746  -32.6832 H   0  0  0  0  0  0  0  0  0  0  0  0
   -2.0418   21.0429  -32.7751 H   0  0  0  0  0  0  0  0  0  0  0  0
   -4.0002   20.9309  -31.2864 H   0  0  0  0  0  0  0  0  0  0  0  0
   -4.2250   22.7087  -31.6811 H   0  0  0  0  0  0  0  0  0  0  0  0
   -4.5740   22.0400  -34.0820 H   0  0  0  0  0  0  0  0  0  0  0  0
   -2.6925   20.2306  -33.8331 H   0  0  0  0  0  0  0  0  0  0  0  0
   -1.2649   18.3742  -34.5169 H   0  0  0  0  0  0  0  0  0  0  0  0
   -2.2162   16.0771  -34.6627 H   0  0  0  0  0  0  0  0  0  0  0  0
   -4.6171   15.7331  -34.1121 H   0  0  0  0  0  0  0  0  0  0  0  0
   -6.9152   15.8311  -32.4461 H   0  0  0  0  0  0  0  0  0  0  0  0
   -7.7355   16.2098  -33.9986 H   0  0  0  0  0  0  0  0  0  0  0  0
   -6.0325   15.6384  -33.9986 H   0  0  0  0  0  0  0  0  0  0  0  0
   -8.8129   17.3736  -32.8167 H   0  0  0  0  0  0  0  0  0  0  0  0
  -10.2759   19.2754  -32.1645 H   0  0  0  0  0  0  0  0  0  0  0  0
   -9.3662   21.5481  -31.9894 H   0  0  0  0  0  0  0  0  0  0  0  0
   -6.4500   23.0120  -32.9010 H   0  0  0  0  0  0  0  0  0  0  0  0
   -7.8651   23.5823  -30.9165 H   0  0  0  0  0  0  0  0  0  0  0  0
   -7.3288   21.9404  -30.3008 H   0  0  0  0  0  0  0  0  0  0  0  0
   -5.5659   21.9904  -28.6908 H   0  0  0  0  0  0  0  0  0  0  0  0
   -3.4992   23.1210  -27.9701 H   0  0  0  0  0  0  0  0  0  0  0  0
   -2.2933   25.2617  -27.0289 H   0  0  0  0  0  0  0  0  0  0  0  0
   -1.3891   23.9546  -27.8660 H   0  0  0  0  0  0  0  0  0  0  0  0
   -0.7478   25.6325  -27.8660 H   0  0  0  0  0  0  0  0  0  0  0  0
   -3.8104   26.0247  -31.0526 H   0  0  0  0  0  0  0  0  0  0  0  0
   -5.8950   24.9590  -31.8587 H   0  0  0  0  0  0  0  0  0  0  0  0
  1  2  1  0
  2  3  1  0
  3  4  1  0
  4  5  1  0
  3  6  1  0
  6  7  1  0
  7  8  1  0
  8  9  1  0
  9 10  1  0
 10 11  1  0
 11 12  1  0
 12 13  2  0
 13 14  1  0
 14 15  2  0
 15 16  1  0
 16 17  2  0
 17 18  1  0
 18 19  2  0
 19 20  1  0
 19 21  1  0
 21 22  2  0
 22 23  1  0
 23 24  2  0
 24 25  1  0
 25 26  1  0
 26 27  1  0
 27 28  1  0
 28 29  2  0
 29 30  1  0
 30 31  2  0
 31 32  1  0
 32 33  1  0
 31 34  1  0
 34 35  2  0
 25 36  2  0
 36 12  1  0
 18 13  1  0
 36 21  1  0
 35 28  1  0
  1 37  1  0
  1 38  1  0
  1 39  1  0
  2 40  1  0
  2 41  1  0
  4 42  1  0
  4 43  1  0
  5 44  1  0
  5 45  1  0
  5 46  1  0
  6 47  1  0
  6 48  1  0
  7 49  1  0
  7 50  1  0
  9 51  1  0
  9 52  1  0
 10 53  1  0
 10 54  1  0
 11 55  1  0
 14 56  1  0
 15 57  1  0
 16 58  1  0
 17 59  1  0
 20 60  1  0
 20 61  1  0
 20 62  1  0
 22 63  1  0
 23 64  1  0
 24 65  1  0
 26 66  1  0
 27 67  1  0
 27 68  1  0
 29 69  1  0
 30 70  1  0
 33 71  1  0
 33 72  1  0
 33 73  1  0
 34 74  1  0
 35 75  1  0
M  CHG  1  19   1
M  END
>  <smiles>  (3) 
CCN(CC)CCOCCNc1c2ccccc2[n+](C)c2cccc(NCc3ccc(OC)cc3)c12

>  <score_type>  (3) 
oracle

>  <origin>  (3) 
adg

>  <m_score__min__energy>  (3) 
-9.6899999999999995

>  <m_primary>  (3) 
energy

$$$$
3:0
     RDKit          3D

 42 44  0  0  0  0  0  0  0  0999 V2000
   -7.5940   20.1950  -33.4440 C   0  0  0  0  0  0  0  0  0  0  0  0
   -7.9010   20.9920  -32.2860 N   0  0  0  0  0  0  0  0  0  0  0  0
   -8.9340   20.6800  -31.4780 N   0  0  0  0  0  0  0  0  0  0  0  0
   -8.9910   21.6150  -30.5040 C   0  0  0  0  0  0  0  0  0  0  0  0
   -8.0010   22.4930  -30.7100 N   0  0  0  0  0  0  0  0  0  0  0  0
   -7.3260   22.1130  -31.8060 C   0  0  0  0  0  0  0  0  0  0  0  0
   -6.1740   22.7960  -32.3610 C   0  0  0  0  0  0  0  0  0  0  0  0
   -5.0990   23.1110  -31.3490 N   0  0  0  0  0  0  0  0  0  0  0  0
   -5.7030   24.0380  -30.5010 C   0  0  0  0  0  0  0  0  0  0  0  0
   -5.0850   25.3280  -30.1420 C   0  0  0  0  0  0  0  0  0  0  0  0
   -3.8620   25.6500  -30.6380 O   0  0  0  0  0  0  0  0  0  0  0  0
   -4.5160   21.9080  -30.9590 C   0  0  0  0  0  0  0  0  0  0  0  0
   -4.4690   20.7200  -31.7800 C   0  0  0  0  0  0  0  0  0  0  0  0
   -3.6720   20.7640  -32.9370 C   0  0  0  0  0  0  0  0  0  0  0  0
   -3.6180   19.7130  -33.8250 C   0  0  0  0  0  0  0  0  0  0  0  0
   -4.3540   18.5740  -33.5970 C   0  0  0  0  0  0  0  0  0  0  0  0
   -4.3010   17.5380  -34.4840 C   0  0  0  0  0  0  0  0  0  0  0  0
   -5.0460   16.3920  -34.2590 C   0  0  0  0  0  0  0  0  0  0  0  0
   -5.8480   16.2820  -33.1420 C   0  0  0  0  0  0  0  0  0  0  0  0
   -5.8940   17.3480  -32.2440 C   0  0  0  0  0  0  0  0  0  0  0  0
   -5.1440   18.4960  -32.4750 C   0  0  0  0  0  0  0  0  0  0  0  0
   -5.1840   19.5530  -31.6050 C   0  0  0  0  0  0  0  0  0  0  0  0
   -7.2158   19.2131  -33.1235 H   0  0  0  0  0  0  0  0  0  0  0  0
   -8.5039   20.0585  -34.0469 H   0  0  0  0  0  0  0  0  0  0  0  0
   -6.8277   20.7042  -34.0469 H   0  0  0  0  0  0  0  0  0  0  0  0
   -9.7236   21.6490  -29.6841 H   0  0  0  0  0  0  0  0  0  0  0  0
   -5.7366   22.1571  -33.1423 H   0  0  0  0  0  0  0  0  0  0  0  0
   -6.5337   23.7590  -32.7525 H   0  0  0  0  0  0  0  0  0  0  0  0
   -6.6700   24.2849  -30.9635 H   0  0  0  0  0  0  0  0  0  0  0  0
   -5.6702   23.5060  -29.5388 H   0  0  0  0  0  0  0  0  0  0  0  0
   -5.7793   26.1161  -30.4688 H   0  0  0  0  0  0  0  0  0  0  0  0
   -4.9060   25.2339  -29.0607 H   0  0  0  0  0  0  0  0  0  0  0  0
   -3.5350   24.9220  -31.2200 H   0  0  0  0  0  0  0  0  0  0  0  0
   -3.4683   22.1485  -30.7256 H   0  0  0  0  0  0  0  0  0  0  0  0
   -5.2155   21.5865  -30.1733 H   0  0  0  0  0  0  0  0  0  0  0  0
   -3.0737   21.6647  -33.1390 H   0  0  0  0  0  0  0  0  0  0  0  0
   -2.9834   19.7848  -34.7206 H   0  0  0  0  0  0  0  0  0  0  0  0
   -3.6657   17.6132  -35.3789 H   0  0  0  0  0  0  0  0  0  0  0  0
   -4.9976   15.5612  -34.9784 H   0  0  0  0  0  0  0  0  0  0  0  0
   -6.4393   15.3718  -32.9632 H   0  0  0  0  0  0  0  0  0  0  0  0
   -6.5275   17.2803  -31.3473 H   0  0  0  0  0  0  0  0  0  0  0  0
   -5.8238   19.4665  -30.7144 H   0  0  0  0  0  0  0  0  0  0  0  0
  1  2  1  0
  2  3  1  0
  3  4  2  0
  4  5  1  0
  5  6  2  0
  6  7  1  0
  7  8  1  0
  8  9  1  0
  9 10  1  0
 10 11  1  0
  8 12  1  0
 12 13  1  0
 13 14  2  0
 14 15  1  0
 15 16  2  0
 16 17  1  0
 17 18  2  0
 18 19  1  0
 19 20  2  0
 20 21  1  0
 21 22  2  0
  6  2  1  0
 22 13  1  0
 21 16  1  0
  1 23  1  0
  1 24  1  0
  1 25  1  0
  4 26  1  0
  7 27  1  0
  7 28  1  0
  9 29  1  0
  9 30  1  0
 10 31  1  0
 10 32  1  0
 11 33  1  0
 12 34  1  0
 12 35  1  0
 14 36  1  0
 15 37  1  0
 17 38  1  0
 18 39  1  0
 19 40  1  0
 20 41  1  0
 22 42  1  0
M  END
>  <smiles>  (4) 
Cn1ncnc1CN(CCO)Cc1ccc2ccccc2c1

>  <score_type>  (4) 
oracle

>  <origin>  (4) 
adg

>  <m_score__min__energy>  (4) 
-8.4800000000000004

>  <m_primary>  (4) 
energy

$$$$
4:0
     RDKit          3D

 52 55  0  0  0  0  0  0  0  0999 V2000
   -3.7240   23.7730  -28.5510 C   0  0  0  0  0  0  0  0  0  0  0  0
   -3.0730   24.5310  -29.7060 C   0  0  0  0  0  0  0  0  0  0  0  0
   -3.9690   24.6840  -30.7650 O   0  0  0  0  0  0  0  0  0  0  0  0
   -4.9840   23.8160  -31.0780 C   0  0  0  0  0  0  0  0  0  0  0  0
   -4.7570   22.5320  -31.5950 C   0  0  0  0  0  0  0  0  0  0  0  0
   -5.8040   21.6940  -31.8980 C   0  0  0  0  0  0  0  0  0  0  0  0
   -5.6130   20.4490  -32.3970 C   0  0  0  0  0  0  0  0  0  0  0  0
   -6.7210   19.6770  -32.6720 C   0  0  0  0  0  0  0  0  0  0  0  0
   -8.0190   20.1170  -32.4580 C   0  0  0  0  0  0  0  0  0  0  0  0
   -8.1720   21.3500  -31.9640 N   0  0  0  0  0  0  0  0  0  0  0  0
   -9.5150   21.8340  -31.7320 C   0  0  0  0  0  0  0  0  0  0  0  0
   -7.1030   22.1190  -31.6900 C   0  0  0  0  0  0  0  0  0  0  0  0
   -7.3720   23.3790  -31.1820 C   0  0  0  0  0  0  0  0  0  0  0  0
   -6.2940   24.1850  -30.8940 C   0  0  0  0  0  0  0  0  0  0  0  0
   -6.5470   25.4380  -30.3890 O   0  0  0  0  0  0  0  0  0  0  0  0
   -6.4310   25.7460  -29.0040 C   0  0  0  0  0  0  0  0  0  0  0  0
   -6.6000   18.3140  -33.2160 C   0  0  0  0  0  0  0  0  0  0  0  0
   -7.6060   17.6010  -33.4690 O   0  0  0  0  0  0  0  0  0  0  0  0
   -5.2640   17.8230  -33.4510 C   0  0  0  0  0  0  0  0  0  0  0  0
   -5.0660   16.5560  -33.9590 C   0  0  0  0  0  0  0  0  0  0  0  0
   -6.1960   15.8010  -34.2250 O   0  0  0  0  0  0  0  0  0  0  0  0
   -6.2340   14.4080  -34.2230 C   0  0  0  0  0  0  0  0  0  0  0  0
   -3.8190   16.0230  -34.2080 C   0  0  0  0  0  0  0  0  0  0  0  0
   -2.6930   16.7740  -33.9440 C   0  0  0  0  0  0  0  0  0  0  0  0
   -2.8940   18.0400  -33.4350 C   0  0  0  0  0  0  0  0  0  0  0  0
   -1.4450   19.0200  -33.0880 S   0  0  0  0  0  0  0  0  0  0  0  0
   -1.1260   20.0400  -34.5530 C   0  0  0  0  0  0  0  0  0  0  0  0
   -4.1420   18.5720  -33.1860 C   0  0  0  0  0  0  0  0  0  0  0  0
   -4.2720   19.9420  -32.6390 C   0  0  0  0  0  0  0  0  0  0  0  0
   -3.2200   20.5420  -32.4320 O   0  0  0  0  0  0  0  0  0  0  0  0
   -3.3693   24.1860  -27.5952 H   0  0  0  0  0  0  0  0  0  0  0  0
   -4.8172   23.8787  -28.6130 H   0  0  0  0  0  0  0  0  0  0  0  0
   -3.4545   22.7083  -28.6130 H   0  0  0  0  0  0  0  0  0  0  0  0
   -2.7580   25.5243  -29.3536 H   0  0  0  0  0  0  0  0  0  0  0  0
   -2.2037   23.9570  -30.0594 H   0  0  0  0  0  0  0  0  0  0  0  0
   -3.7247   22.1900  -31.7607 H   0  0  0  0  0  0  0  0  0  0  0  0
   -8.8856   19.4787  -32.6851 H   0  0  0  0  0  0  0  0  0  0  0  0
   -9.6990   21.9003  -30.6495 H   0  0  0  0  0  0  0  0  0  0  0  0
   -9.6292   22.8299  -32.1850 H   0  0  0  0  0  0  0  0  0  0  0  0
  -10.2382   21.1400  -32.1850 H   0  0  0  0  0  0  0  0  0  0  0  0
   -8.4040   23.7214  -31.0156 H   0  0  0  0  0  0  0  0  0  0  0  0
   -6.7567   24.8811  -28.4075 H   0  0  0  0  0  0  0  0  0  0  0  0
   -5.3828   25.9809  -28.7671 H   0  0  0  0  0  0  0  0  0  0  0  0
   -7.0638   26.6140  -28.7671 H   0  0  0  0  0  0  0  0  0  0  0  0
   -6.2440   14.0430  -33.1854 H   0  0  0  0  0  0  0  0  0  0  0  0
   -7.1418   14.0652  -34.7410 H   0  0  0  0  0  0  0  0  0  0  0  0
   -5.3462   14.0162  -34.7410 H   0  0  0  0  0  0  0  0  0  0  0  0
   -3.7230   15.0054  -34.6146 H   0  0  0  0  0  0  0  0  0  0  0  0
   -1.6823   16.3819  -34.1305 H   0  0  0  0  0  0  0  0  0  0  0  0
   -0.8114   21.0459  -34.2380 H   0  0  0  0  0  0  0  0  0  0  0  0
   -0.3293   19.5783  -35.1548 H   0  0  0  0  0  0  0  0  0  0  0  0
   -2.0437   20.1145  -35.1548 H   0  0  0  0  0  0  0  0  0  0  0  0
  1  2  1  0
  2  3  1  0
  3  4  1  0
  4  5  2  0
  5  6  1  0
  6  7  2  0
  7  8  1  0
  8  9  2  0
  9 10  1  0
 10 11  1  0
 10 12  2  0
 12 13  1  0
 13 14  2  0
 14 15  1  0
 15 16  1  0
  8 17  1  0
 17 18  2  0
 17 19  1  0
 19 20  2  0
 20 21  1  0
 21 22  1  0
 20 23  1  0
 23 24  2  0
 24 25  1  0
 25 26  1  0
 26 27  1  0
 25 28  2  0
 28 29  1  0
 29 30  2  0
 14  4  1  0
 28 19  1  0
 12  6  1  0
 29  7  1  0
  1 31  1  0
  1 32  1  0
  1 33  1  0
  2 34  1  0
  2 35  1  0
  5 36  1  0
  9 37  1  0
 11 38  1  0
 11 39  1  0
 11 40  1  0
 13 41  1  0
 16 42  1  0
 16 43  1  0
 16 44  1  0
 22 45  1  0
 22 46  1  0
 22 47  1  0
 23 48  1  0
 24 49  1  0
 27 50  1  0
 27 51  1  0
 27 52  1  0
M  CHG  1  10   1
M  END
>  <smiles>  (5) 
CCOc1cc2c3c(c[n+](C)c2cc1OC)C(=O)c1c(OC)ccc(SC)c1C3=O

>  <score_type>  (5) 
oracle

>  <origin>  (5) 
adg

>  <m_score__min__energy>  (5) 
-8.3900000000000006

>  <m_primary>  (5) 
energy

$$$$
5:0
     RDKit          3D

 68 72  0  0  0  0  0  0  0  0999 V2000
   -4.6170   14.1140  -31.6010 C   0  0  0  0  0  0  0  0  0  0  0  0
   -4.7870   15.3960  -32.3620 C   0  0  0  0  0  0  0  0  0  0  0  0
   -5.1910   15.2050  -33.7240 N   0  0  0  0  0  0  0  0  0  0  0  0
   -6.5310   15.6200  -34.0150 C   0  0  0  0  0  0  0  0  0  0  0  0
   -6.7450   17.1250  -33.8250 C   0  0  0  0  0  0  0  0  0  0  0  0
   -5.4870   17.7580  -34.0410 N   0  0  0  0  0  0  0  0  0  0  0  0
   -5.4420   19.1680  -33.9050 C   0  0  0  0  0  0  0  0  0  0  0  0
   -4.0290   19.5770  -33.5520 C   0  0  0  0  0  0  0  0  0  0  0  0
   -4.1130   21.0790  -33.2480 C   0  0  0  0  0  0  0  0  0  0  0  0
   -4.6870   21.1270  -31.8970 N   0  0  0  0  0  0  0  0  0  0  0  0
   -4.3190   22.0950  -30.9460 C   0  0  0  0  0  0  0  0  0  0  0  0
   -4.8500   23.3560  -30.9580 C   0  0  0  0  0  0  0  0  0  0  0  0
   -4.4840   24.3210  -30.0160 C   0  0  0  0  0  0  0  0  0  0  0  0
   -3.5710   24.0080  -29.0500 C   0  0  0  0  0  0  0  0  0  0  0  0
   -3.1300   24.9060  -28.0370 N   0  0  0  0  0  0  0  0  0  0  0  0
   -1.7690   25.2820  -28.0480 C   0  0  0  0  0  0  0  0  0  0  0  0
   -1.0450   24.7860  -28.9650 O   0  0  0  0  0  0  0  0  0  0  0  0
   -1.1540   26.2060  -27.0690 C   0  0  0  0  0  0  0  0  0  0  0  0
   -1.7890   26.1330  -25.7120 C   0  0  0  0  0  0  0  0  0  0  0  0
   -0.6910   26.6070  -24.8140 C   0  0  0  0  0  0  0  0  0  0  0  0
   -0.7500   27.1550  -23.5510 C   0  0  0  0  0  0  0  0  0  0  0  0
    0.4430   27.5030  -22.9620 C   0  0  0  0  0  0  0  0  0  0  0  0
    1.6540   27.3150  -23.6030 C   0  0  0  0  0  0  0  0  0  0  0  0
    1.7240   26.7650  -24.8720 C   0  0  0  0  0  0  0  0  0  0  0  0
    0.5160   26.4200  -25.4540 C   0  0  0  0  0  0  0  0  0  0  0  0
    0.2870   25.8120  -26.7990 C   0  0  0  0  0  0  0  0  0  0  0  0
   -3.0180   22.7340  -29.0160 C   0  0  0  0  0  0  0  0  0  0  0  0
   -3.4010   21.7850  -29.9710 C   0  0  0  0  0  0  0  0  0  0  0  0
   -5.6780   20.0960  -31.6090 C   0  0  0  0  0  0  0  0  0  0  0  0
   -6.4140   19.7140  -32.8880 C   0  0  0  0  0  0  0  0  0  0  0  0
   -4.6980   17.1920  -35.0830 C   0  0  0  0  0  0  0  0  0  0  0  0
   -4.2520   15.8240  -34.6090 C   0  0  0  0  0  0  0  0  0  0  0  0
   -4.6446   14.3221  -30.5212 H   0  0  0  0  0  0  0  0  0  0  0  0
   -5.4312   13.4220  -31.8620 H   0  0  0  0  0  0  0  0  0  0  0  0
   -3.6505   13.6581  -31.8620 H   0  0  0  0  0  0  0  0  0  0  0  0
   -5.5510   16.0031  -31.8544 H   0  0  0  0  0  0  0  0  0  0  0  0
   -3.8052   15.8916  -32.3830 H   0  0  0  0  0  0  0  0  0  0  0  0
   -6.7588   15.3625  -35.0599 H   0  0  0  0  0  0  0  0  0  0  0  0
   -7.1971   15.1009  -33.3101 H   0  0  0  0  0  0  0  0  0  0  0  0
   -7.4834   17.4957  -34.5512 H   0  0  0  0  0  0  0  0  0  0  0  0
   -7.1240   17.3420  -32.8154 H   0  0  0  0  0  0  0  0  0  0  0  0
   -5.7489   19.5991  -34.8694 H   0  0  0  0  0  0  0  0  0  0  0  0
   -3.6755   19.0234  -32.6696 H   0  0  0  0  0  0  0  0  0  0  0  0
   -3.3211   19.3596  -34.3654 H   0  0  0  0  0  0  0  0  0  0  0  0
   -3.1144   21.5399  -33.2669 H   0  0  0  0  0  0  0  0  0  0  0  0
   -4.7123   21.6315  -33.9866 H   0  0  0  0  0  0  0  0  0  0  0  0
   -5.5866   23.6178  -31.7319 H   0  0  0  0  0  0  0  0  0  0  0  0
   -4.9286   25.3265  -30.0524 H   0  0  0  0  0  0  0  0  0  0  0  0
   -3.7660   25.2870  -27.3040 H   0  0  0  0  0  0  0  0  0  0  0  0
   -1.2719   27.2028  -27.5190 H   0  0  0  0  0  0  0  0  0  0  0  0
   -2.6671   26.7924  -25.6482 H   0  0  0  0  0  0  0  0  0  0  0  0
   -2.1622   25.1304  -25.4562 H   0  0  0  0  0  0  0  0  0  0  0  0
   -1.7100   27.3075  -23.0361 H   0  0  0  0  0  0  0  0  0  0  0  0
    0.4338   27.9428  -21.9538 H   0  0  0  0  0  0  0  0  0  0  0  0
    2.5832   27.6092  -23.0930 H   0  0  0  0  0  0  0  0  0  0  0  0
    2.6834   26.6112  -25.3876 H   0  0  0  0  0  0  0  0  0  0  0  0
    0.9672   26.2358  -27.5525 H   0  0  0  0  0  0  0  0  0  0  0  0
    0.4700   24.7280  -26.8378 H   0  0  0  0  0  0  0  0  0  0  0  0
   -2.2820   22.4720  -28.2416 H   0  0  0  0  0  0  0  0  0  0  0  0
   -2.9613   20.7772  -29.9408 H   0  0  0  0  0  0  0  0  0  0  0  0
   -5.1731   19.2086  -31.1996 H   0  0  0  0  0  0  0  0  0  0  0  0
   -6.4013   20.4828  -30.8760 H   0  0  0  0  0  0  0  0  0  0  0  0
   -7.1683   18.9471  -32.6580 H   0  0  0  0  0  0  0  0  0  0  0  0
   -6.9022   20.6085  -33.3021 H   0  0  0  0  0  0  0  0  0  0  0  0
   -5.2968   17.0969  -36.0008 H   0  0  0  0  0  0  0  0  0  0  0  0
   -3.8313   17.8304  -35.3095 H   0  0  0  0  0  0  0  0  0  0  0  0
   -4.1179   15.1753  -35.4872 H   0  0  0  0  0  0  0  0  0  0  0  0
   -3.3137   15.9590  -34.0509 H   0  0  0  0  0  0  0  0  0  0  0  0
  1  2  1  0
  2  3  1  0
  3  4  1  0
  4  5  1  0
  5  6  1  0
  6  7  1  0
  7  8  1  0
  8  9  1  0
  9 10  1  0
 10 11  1  0
 11 12  2  0
 12 13  1  0
 13 14  2  0
 14 15  1  0
 15 16  1  0
 16 17  2  0
 16 18  1  0
 18 19  1  0
 19 20  1  0
 20 21  2  0
 21 22  1  0
 22 23  2  0
 23 24  1  0
 24 25  2  0
 25 26  1  0
 14 27  1  0
 27 28  2  0
 10 29  1  0
 29 30  1  0
  6 31  1  0
 31 32  1  0
 32  3  1  0
 30  7  1  0
 28 11  1  0
 26 18  1  0
 25 20  1  0
  1 33  1  0
  1 34  1  0
  1 35  1  0
  2 36  1  0
  2 37  1  0
  4 38  1  0
  4 39  1  0
  5 40  1  0
  5 41  1  0
  7 42  1  0
  8 43  1  0
  8 44  1  0
  9 45  1  0
  9 46  1  0
 12 47  1  0
 13 48  1  0
 15 49  1  0
 18 50  1  0
 19 51  1  0
 19 52  1  0
 21 53  1  0
 22 54  1  0
 23 55  1  0
 24 56  1  0
 26 57  1  0
 26 58  1  0
 27 59  1  0
 28 60  1  0
 29 61  1  0
 29 62  1  0
 30 63  1  0
 30 64  1  0
 31 65  1  0
 31 66  1  0
 32 67  1  0
 32 68  1  0
M  END
>  <smiles>  (6) 
CCN1CCN(C2CCN(c3ccc(NC(=O)C4Cc5ccccc5C4)cc3)CC2)CC1

>  <score_type>  (6) 
oracle

>  <origin>  (6) 
adg

>  <m_score__min__energy>  (6) 
-9.6099999999999994

>  <m_primary>  (6) 
energy

$$$$
6:0
     RDKit          3D

 61 64  0  0  0  0  0  0  0  0999 V2000
   -6.0960   25.6430  -29.8580 C   0  0  0  0  0  0  0  0  0  0  0  0
   -5.0550   25.1260  -30.8000 C   0  0  0  0  0  0  0  0  0  0  0  0
   -4.7420   23.7540  -30.5960 N   0  0  0  0  0  0  0  0  0  0  0  0
   -4.9110   23.4450  -29.1900 C   0  0  0  0  0  0  0  0  0  0  0  0
   -3.9160   22.4160  -28.7000 C   0  0  0  0  0  0  0  0  0  0  0  0
   -3.4400   23.3190  -30.9620 C   0  0  0  0  0  0  0  0  0  0  0  0
   -3.3810   22.2330  -32.0040 C   0  0  0  0  0  0  0  0  0  0  0  0
   -4.5290   22.2620  -32.8860 N   0  0  0  0  0  0  0  0  0  0  0  0
   -5.4600   21.1890  -32.7720 C   0  0  0  0  0  0  0  0  0  0  0  0
   -6.7410   21.5000  -32.3710 C   0  0  0  0  0  0  0  0  0  0  0  0
   -7.1010   22.8200  -32.0930 C   0  0  0  0  0  0  0  0  0  0  0  0
   -8.3750   23.1650  -31.6910 C   0  0  0  0  0  0  0  0  0  0  0  0
   -9.3430   22.1830  -31.5500 C   0  0  0  0  0  0  0  0  0  0  0  0
   -9.0190   20.8650  -31.8160 C   0  0  0  0  0  0  0  0  0  0  0  0
   -7.7280   20.5490  -32.2200 C   0  0  0  0  0  0  0  0  0  0  0  0
   -7.3920   19.2540  -32.4880 N   0  0  0  0  0  0  0  0  0  0  0  0
   -8.4360   18.2330  -32.3310 C   0  0  0  0  0  0  0  0  0  0  0  0
   -6.1430   18.9420  -32.8800 C   0  0  0  0  0  0  0  0  0  0  0  0
   -5.8550   17.6310  -33.1370 N   0  0  0  0  0  0  0  0  0  0  0  0
   -4.6100   17.2570  -33.5370 C   0  0  0  0  0  0  0  0  0  0  0  0
   -4.4150   15.9120  -33.7700 C   0  0  0  0  0  0  0  0  0  0  0  0
   -3.1360   15.5270  -34.1800 C   0  0  0  0  0  0  0  0  0  0  0  0
   -2.9370   14.1390  -34.4180 N   0  0  0  0  0  0  0  0  0  0  0  0
   -3.1000   13.5350  -35.6960 C   0  0  0  0  0  0  0  0  0  0  0  0
   -2.8550   12.0680  -35.7810 C   0  0  0  0  0  0  0  0  0  0  0  0
   -3.4340   14.1720  -36.7290 O   0  0  0  0  0  0  0  0  0  0  0  0
   -2.1260   16.4620  -34.3390 C   0  0  0  0  0  0  0  0  0  0  0  0
   -2.3670   17.8120  -34.0910 C   0  0  0  0  0  0  0  0  0  0  0  0
   -3.6230   18.2070  -33.6860 C   0  0  0  0  0  0  0  0  0  0  0  0
   -3.8610   19.5580  -33.4380 C   0  0  0  0  0  0  0  0  0  0  0  0
   -5.1420   19.8770  -33.0370 C   0  0  0  0  0  0  0  0  0  0  0  0
   -5.7663   25.4793  -28.8214 H   0  0  0  0  0  0  0  0  0  0  0  0
   -6.2441   26.7193  -30.0300 H   0  0  0  0  0  0  0  0  0  0  0  0
   -7.0430   25.1105  -30.0300 H   0  0  0  0  0  0  0  0  0  0  0  0
   -5.4229   25.2507  -31.8291 H   0  0  0  0  0  0  0  0  0  0  0  0
   -4.1352   25.7004  -30.6155 H   0  0  0  0  0  0  0  0  0  0  0  0
   -4.7793   24.3687  -28.6074 H   0  0  0  0  0  0  0  0  0  0  0  0
   -5.9190   23.0247  -29.0587 H   0  0  0  0  0  0  0  0  0  0  0  0
   -3.9083   22.4081  -27.6001 H   0  0  0  0  0  0  0  0  0  0  0  0
   -4.2038   21.4216  -29.0718 H   0  0  0  0  0  0  0  0  0  0  0  0
   -2.9125   22.6702  -29.0718 H   0  0  0  0  0  0  0  0  0  0  0  0
   -2.8899   24.1891  -31.3497 H   0  0  0  0  0  0  0  0  0  0  0  0
   -3.0033   22.8835  -30.0512 H   0  0  0  0  0  0  0  0  0  0  0  0
   -2.4690   22.3665  -32.6043 H   0  0  0  0  0  0  0  0  0  0  0  0
   -3.3778   21.2639  -31.4837 H   0  0  0  0  0  0  0  0  0  0  0  0
   -4.6460   23.0490  -33.5660 H   0  0  0  0  0  0  0  0  0  0  0  0
   -6.3439   23.6111  -32.1979 H   0  0  0  0  0  0  0  0  0  0  0  0
   -8.6218   24.2166  -31.4830 H   0  0  0  0  0  0  0  0  0  0  0  0
  -10.3608   22.4498  -31.2291 H   0  0  0  0  0  0  0  0  0  0  0  0
   -9.7764   20.0745  -31.7087 H   0  0  0  0  0  0  0  0  0  0  0  0
   -8.6174   18.0556  -31.2607 H   0  0  0  0  0  0  0  0  0  0  0  0
   -9.3642   18.5815  -32.8074 H   0  0  0  0  0  0  0  0  0  0  0  0
   -8.1083   17.2972  -32.8074 H   0  0  0  0  0  0  0  0  0  0  0  0
   -5.2252   15.1794  -33.6397 H   0  0  0  0  0  0  0  0  0  0  0  0
   -2.6590   13.5620  -33.5910 H   0  0  0  0  0  0  0  0  0  0  0  0
   -2.7850   11.6486  -34.7665 H   0  0  0  0  0  0  0  0  0  0  0  0
   -3.6854   11.5882  -36.3196 H   0  0  0  0  0  0  0  0  0  0  0  0
   -1.9137   11.8841  -36.3196 H   0  0  0  0  0  0  0  0  0  0  0  0
   -1.1266   16.1364  -34.6634 H   0  0  0  0  0  0  0  0  0  0  0  0
   -1.5640   18.5532  -34.2171 H   0  0  0  0  0  0  0  0  0  0  0  0
   -3.0774   20.3211  -33.5546 H   0  0  0  0  0  0  0  0  0  0  0  0
  1  2  1  0
  2  3  1  0
  3  4  1  0
  4  5  1  0
  3  6  1  0
  6  7  1  0
  7  8  1  0
  8  9  1  0
  9 10  2  0
 10 11  1  0
 11 12  2  0
 12 13  1  0
 13 14  2  0
 14 15  1  0
 15 16  2  0
 16 17  1  0
 16 18  1  0
 18 19  2  0
 19 20  1  0
 20 21  2  0
 21 22  1  0
 22 23  1  0
 23 24  1  0
 24 25  1  0
 24 26  2  0
 22 27  2  0
 27 28  1  0
 28 29  2  0
 29 30  1  0
 30 31  2  0
 31  9  1  0
 15 10  1  0
 31 18  1  0
 29 20  1  0
  1 32  1  0
  1 33  1  0
  1 34  1  0
  2 35  1  0
  2 36  1  0
  4 37  1  0
  4 38  1  0
  5 39  1  0
  5 40  1  0
  5 41  1  0
  6 42  1  0
  6 43  1  0
  7 44  1  0
  7 45  1  0
  8 46  1  0
 11 47  1  0
 12 48  1  0
 13 49  1  0
 14 50  1  0
 17 51  1  0
 17 52  1  0
 17 53  1  0
 21 54  1  0
 23 55  1  0
 25 56  1  0
 25 57  1  0
 25 58  1  0
 27 59  1  0
 28 60  1  0
 30 61  1  0
M  CHG  1  16   1
M  END
>  <smiles>  (7) 
CCN(CC)CCNc1c2ccccc2[n+](C)c2nc3cc(NC(C)=O)ccc3cc12

>  <score_type>  (7) 
oracle

>  <origin>  (7) 
adg

>  <m_score__min__energy>  (7) 
-9.1899999999999995

>  <m_primary>  (7) 
energy

$$$$
7:0
     RDKit          3D

 45 47  0  0  0  0  0  0  0  0999 V2000
   -0.8690   22.2770  -26.1520 C   0  0  0  0  0  0  0  0  0  0  0  0
   -0.8510   23.7110  -25.7850 C   0  0  0  0  0  0  0  0  0  0  0  0
   -0.7500   24.1590  -24.5210 N   0  0  0  0  0  0  0  0  0  0  0  0
   -0.7650   25.4800  -24.5670 N   0  0  0  0  0  0  0  0  0  0  0  0
   -0.6800   26.4150  -23.4370 C   0  0  0  0  0  0  0  0  0  0  0  0
   -0.8760   25.9060  -25.8500 C   0  0  0  0  0  0  0  0  0  0  0  0
   -0.9320   27.2910  -26.3710 C   0  0  0  0  0  0  0  0  0  0  0  0
   -0.9340   24.7930  -26.6610 C   0  0  0  0  0  0  0  0  0  0  0  0
   -1.0790   24.7360  -28.4030 S   0  0  0  0  0  0  0  0  0  0  0  0
    0.2030   24.1950  -28.9680 O   0  0  0  0  0  0  0  0  0  0  0  0
   -1.2160   26.1390  -28.9720 O   0  0  0  0  0  0  0  0  0  0  0  0
   -2.4340   23.8380  -28.9170 N   0  0  0  0  0  0  0  0  0  0  0  0
   -3.6700   24.5080  -28.7870 C   0  0  0  0  0  0  0  0  0  0  0  0
   -4.8740   23.6580  -28.9780 C   0  0  0  0  0  0  0  0  0  0  0  0
   -4.7180   22.9310  -30.2340 N   0  0  0  0  0  0  0  0  0  0  0  0
   -5.8830   22.3690  -30.8270 C   0  0  0  0  0  0  0  0  0  0  0  0
   -7.1540   22.6860  -30.3910 C   0  0  0  0  0  0  0  0  0  0  0  0
   -8.2930   22.1460  -30.9580 C   0  0  0  0  0  0  0  0  0  0  0  0
   -8.1890   21.2510  -32.0080 C   0  0  0  0  0  0  0  0  0  0  0  0
   -6.9300   20.9180  -32.4600 C   0  0  0  0  0  0  0  0  0  0  0  0
   -5.7930   21.4740  -31.8720 C   0  0  0  0  0  0  0  0  0  0  0  0
   -3.4470   22.7590  -30.8930 C   0  0  0  0  0  0  0  0  0  0  0  0
   -2.2520   23.0040  -30.0400 C   0  0  0  0  0  0  0  0  0  0  0  0
   -0.8767   21.6647  -25.2382 H   0  0  0  0  0  0  0  0  0  0  0  0
   -1.7699   22.0616  -26.7453 H   0  0  0  0  0  0  0  0  0  0  0  0
    0.0262   22.0391  -26.7453 H   0  0  0  0  0  0  0  0  0  0  0  0
   -0.7310   25.8539  -22.4922 H   0  0  0  0  0  0  0  0  0  0  0  0
    0.2718   26.9643  -23.4864 H   0  0  0  0  0  0  0  0  0  0  0  0
   -1.5171   27.1269  -23.4864 H   0  0  0  0  0  0  0  0  0  0  0  0
   -0.9606   27.9985  -25.5292 H   0  0  0  0  0  0  0  0  0  0  0  0
   -0.0411   27.4879  -26.9854 H   0  0  0  0  0  0  0  0  0  0  0  0
   -1.8359   27.4154  -26.9854 H   0  0  0  0  0  0  0  0  0  0  0  0
   -3.7169   24.9425  -27.7776 H   0  0  0  0  0  0  0  0  0  0  0  0
   -3.6960   25.2589  -29.5905 H   0  0  0  0  0  0  0  0  0  0  0  0
   -4.9650   22.9468  -28.1438 H   0  0  0  0  0  0  0  0  0  0  0  0
   -5.7806   24.2803  -29.0067 H   0  0  0  0  0  0  0  0  0  0  0  0
   -7.2647   23.3969  -29.5589 H   0  0  0  0  0  0  0  0  0  0  0  0
   -9.2842   22.4284  -30.5737 H   0  0  0  0  0  0  0  0  0  0  0  0
   -9.0877   20.8164  -32.4701 H   0  0  0  0  0  0  0  0  0  0  0  0
   -6.8205   20.2071  -33.2922 H   0  0  0  0  0  0  0  0  0  0  0  0
   -4.8001   21.1911  -32.2517 H   0  0  0  0  0  0  0  0  0  0  0  0
   -3.3936   21.7250  -31.2645 H   0  0  0  0  0  0  0  0  0  0  0  0
   -3.4124   23.5153  -31.6910 H   0  0  0  0  0  0  0  0  0  0  0  0
   -1.8967   22.0285  -29.6763 H   0  0  0  0  0  0  0  0  0  0  0  0
   -1.5417   23.5408  -30.6859 H   0  0  0  0  0  0  0  0  0  0  0  0
  1  2  1  0
  2  3  2  0
  3  4  1  0
  4  5  1  0
  4  6  1  0
  6  7  1  0
  6  8  2  0
  8  9  1  0
  9 10  2  0
  9 11  2  0
  9 12  1  0
 12 13  1  0
 13 14  1  0
 14 15  1  0
 15 16  1  0
 16 17  2  0
 17 18  1  0
 18 19  2  0
 19 20  1  0
 20 21  2  0
 15 22  1  0
 22 23  1  0
  8  2  1  0
 23 12  1  0
 21 16  1  0
  1 24  1  0
  1 25  1  0
  1 26  1  0
  5 27  1  0
  5 28  1  0
  5 29  1  0
  7 30  1  0
  7 31  1  0
  7 32  1  0
 13 33  1  0
 13 34  1  0
 14 35  1  0
 14 36  1  0
 17 37  1  0
 18 38  1  0
 19 39  1  0
 20 40  1  0
 21 41  1  0
 22 42  1  0
 22 43  1  0
 23 44  1  0
 23 45  1  0
M  END
>  <smiles>  (8) 
Cc1nn(C)c(C)c1S(=O)(=O)N1CCN(c2ccccc2)CC1

>  <score_type>  (8) 
oracle

>  <origin>  (8) 
adg

>  <m_score__min__energy>  (8) 
-7.9699999999999998

>  <m_primary>  (8) 
energy

$$$$
8:0
     RDKit          3D

 18 18  0  0  0  0  0  0  0  0999 V2000
   -6.2280   24.5390  -30.9500 C   0  0  0  0  0  0  0  0  0  0  0  0
   -5.1020   25.3630  -30.3490 C   0  0  0  0  0  0  0  0  0  0  0  0
   -3.8780   24.8130  -30.6500 O   0  0  0  0  0  0  0  0  0  0  0  0
   -3.3400   24.1650  -29.5550 N   0  0  0  0  0  0  0  0  0  0  0  0
   -4.0110   23.1290  -28.8640 C   0  0  0  0  0  0  0  0  0  0  0  0
   -2.7200   22.3800  -27.8340 S   0  0  0  0  0  0  0  0  0  0  0  0
   -1.3570   23.2950  -28.6070 C   0  0  0  0  0  0  0  0  0  0  0  0
   -2.0840   24.4940  -29.0460 C   0  0  0  0  0  0  0  0  0  0  0  0
   -1.6190   25.6800  -28.9710 O   0  0  0  0  0  0  0  0  0  0  0  0
   -6.8308   24.0978  -30.1426 H   0  0  0  0  0  0  0  0  0  0  0  0
   -6.8646   25.1861  -31.5713 H   0  0  0  0  0  0  0  0  0  0  0  0
   -5.8038   23.7365  -31.5713 H   0  0  0  0  0  0  0  0  0  0  0  0
   -5.1473   26.3847  -30.7540 H   0  0  0  0  0  0  0  0  0  0  0  0
   -5.2218   25.3780  -29.2556 H   0  0  0  0  0  0  0  0  0  0  0  0
   -4.8213   23.5356  -28.2410 H   0  0  0  0  0  0  0  0  0  0  0  0
   -4.4839   22.4044  -29.5432 H   0  0  0  0  0  0  0  0  0  0  0  0
   -0.5645   23.5381  -27.8839 H   0  0  0  0  0  0  0  0  0  0  0  0
   -0.8239   22.7545  -29.4030 H   0  0  0  0  0  0  0  0  0  0  0  0
  1  2  1  0
  2  3  1  0
  3  4  1  0
  4  5  1  0
  5  6  1  0
  6  7  1  0
  7  8  1  0
  8  9  2  0
  8  4  1  0
  1 10  1  0
  1 11  1  0
  1 12  1  0
  2 13  1  0
  2 14  1  0
  5 15  1  0
  5 16  1  0
  7 17  1  0
  7 18  1  0
M  END
>  <smiles>  (9) 
CCON1CSCC1=O

>  <score_type>  (9) 
oracle

>  <origin>  (9) 
adg

>  <m_score__min__energy>  (9) 
-4.46

>  <m_primary>  (9) 
energy

$$$$
9:0
     RDKit          3D

 59 61  0  0  0  0  0  0  0  0999 V2000
   -9.1410   18.3460  -31.7370 C   0  0  0  0  0  0  0  0  0  0  0  0
   -8.0390   17.7490  -32.3840 O   0  0  0  0  0  0  0  0  0  0  0  0
   -6.9210   18.5350  -32.6230 C   0  0  0  0  0  0  0  0  0  0  0  0
   -6.4460   19.2880  -31.5750 C   0  0  0  0  0  0  0  0  0  0  0  0
   -5.3370   20.0900  -31.7530 C   0  0  0  0  0  0  0  0  0  0  0  0
   -4.6610   20.1800  -32.9560 C   0  0  0  0  0  0  0  0  0  0  0  0
   -3.4690   21.0540  -33.1100 C   0  0  0  0  0  0  0  0  0  0  0  0
   -3.5750   22.3100  -32.2410 C   0  0  0  0  0  0  0  0  0  0  0  0
   -2.5160   22.3170  -31.1960 C   0  0  0  0  0  0  0  0  0  0  0  0
   -2.9330   22.9340  -29.9520 N   0  0  0  0  0  0  0  0  0  0  0  0
   -2.3440   22.6300  -28.6940 C   0  0  0  0  0  0  0  0  0  0  0  0
   -1.6170   23.4650  -27.8720 C   0  0  0  0  0  0  0  0  0  0  0  0
   -1.2860   24.8820  -28.1190 C   0  0  0  0  0  0  0  0  0  0  0  0
   -1.2670   22.7400  -26.7960 N   0  0  0  0  0  0  0  0  0  0  0  0
   -1.7410   21.4980  -26.9130 N   0  0  0  0  0  0  0  0  0  0  0  0
   -1.5720   20.4040  -25.9450 C   0  0  0  0  0  0  0  0  0  0  0  0
   -2.4130   21.3910  -28.0750 C   0  0  0  0  0  0  0  0  0  0  0  0
   -3.0780   20.1500  -28.5400 C   0  0  0  0  0  0  0  0  0  0  0  0
   -4.2020   24.0850  -30.0150 S   0  0  0  0  0  0  0  0  0  0  0  0
   -4.4270   24.6290  -28.6120 O   0  0  0  0  0  0  0  0  0  0  0  0
   -3.8760   25.2710  -30.8480 O   0  0  0  0  0  0  0  0  0  0  0  0
   -5.7080   23.4560  -30.5760 C   0  0  0  0  0  0  0  0  0  0  0  0
   -6.5040   22.6580  -29.7880 C   0  0  0  0  0  0  0  0  0  0  0  0
   -7.7150   22.1380  -30.2080 C   0  0  0  0  0  0  0  0  0  0  0  0
   -8.1120   22.4630  -31.4930 C   0  0  0  0  0  0  0  0  0  0  0  0
   -9.4110   21.9240  -31.9870 C   0  0  0  0  0  0  0  0  0  0  0  0
   -7.3580   23.2600  -32.3320 C   0  0  0  0  0  0  0  0  0  0  0  0
   -6.1630   23.7400  -31.8460 C   0  0  0  0  0  0  0  0  0  0  0  0
   -5.1490   19.4180  -33.9980 C   0  0  0  0  0  0  0  0  0  0  0  0
   -6.2700   18.6070  -33.8240 C   0  0  0  0  0  0  0  0  0  0  0  0
   -9.0092   18.2746  -30.6473 H   0  0  0  0  0  0  0  0  0  0  0  0
   -9.2088   19.4042  -32.0296 H   0  0  0  0  0  0  0  0  0  0  0  0
  -10.0644   17.8248  -32.0296 H   0  0  0  0  0  0  0  0  0  0  0  0
   -6.9487   19.2512  -30.5973 H   0  0  0  0  0  0  0  0  0  0  0  0
   -4.9750   20.6836  -30.9006 H   0  0  0  0  0  0  0  0  0  0  0  0
   -2.5722   20.4899  -32.8142 H   0  0  0  0  0  0  0  0  0  0  0  0
   -3.4063   21.3680  -34.1624 H   0  0  0  0  0  0  0  0  0  0  0  0
   -3.4605   23.2000  -32.8772 H   0  0  0  0  0  0  0  0  0  0  0  0
   -4.5584   22.3173  -31.7482 H   0  0  0  0  0  0  0  0  0  0  0  0
   -2.2256   21.2766  -30.9881 H   0  0  0  0  0  0  0  0  0  0  0  0
   -1.6795   22.9141  -31.5880 H   0  0  0  0  0  0  0  0  0  0  0  0
   -1.1643   25.4030  -27.1579 H   0  0  0  0  0  0  0  0  0  0  0  0
   -0.3489   24.9452  -28.6916 H   0  0  0  0  0  0  0  0  0  0  0  0
   -2.0981   25.3538  -28.6916 H   0  0  0  0  0  0  0  0  0  0  0  0
   -1.6341   20.8059  -24.9229 H   0  0  0  0  0  0  0  0  0  0  0  0
   -2.3654   19.6568  -26.0940 H   0  0  0  0  0  0  0  0  0  0  0  0
   -0.5901   19.9310  -26.0940 H   0  0  0  0  0  0  0  0  0  0  0  0
   -3.3961   19.5564  -27.6702 H   0  0  0  0  0  0  0  0  0  0  0  0
   -3.9573   20.4107  -29.1474 H   0  0  0  0  0  0  0  0  0  0  0  0
   -2.3740   19.5622  -29.1474 H   0  0  0  0  0  0  0  0  0  0  0  0
   -6.1596   22.4209  -28.7706 H   0  0  0  0  0  0  0  0  0  0  0  0
   -8.3294   21.5003  -29.5554 H   0  0  0  0  0  0  0  0  0  0  0  0
  -10.0480   21.6597  -31.1300 H   0  0  0  0  0  0  0  0  0  0  0  0
   -9.9160   22.6868  -32.5978 H   0  0  0  0  0  0  0  0  0  0  0  0
   -9.2276   21.0277  -32.5978 H   0  0  0  0  0  0  0  0  0  0  0  0
   -7.6993   23.5018  -33.3494 H   0  0  0  0  0  0  0  0  0  0  0  0
   -5.5459   24.3761  -32.4975 H   0  0  0  0  0  0  0  0  0  0  0  0
   -4.6481   19.4507  -34.9768 H   0  0  0  0  0  0  0  0  0  0  0  0
   -6.6393   18.0115  -34.6719 H   0  0  0  0  0  0  0  0  0  0  0  0
  1  2  1  0
  2  3  1  0
  3  4  2  0
  4  5  1  0
  5  6  2  0
  6  7  1  0
  7  8  1  0
  8  9  1  0
  9 10  1  0
 10 11  1  0
 11 12  1  0
 12 13  1  0
 12 14  2  0
 14 15  1  0
 15 16  1  0
 15 17  1  0
 17 18  1  0
 10 19  1  0
 19 20  2  0
 19 21  2  0
 19 22  1  0
 22 23  2  0
 23 24  1  0
 24 25  2  0
 25 26  1  0
 25 27  1  0
 27 28  2  0
  6 29  1  0
 29 30  2  0
 30  3  1  0
 17 11  2  0
 28 22  1  0
  1 31  1  0
  1 32  1  0
  1 33  1  0
  4 34  1  0
  5 35  1  0
  7 36  1  0
  7 37  1  0
  8 38  1  0
  8 39  1  0
  9 40  1  0
  9 41  1  0
 13 42  1  0
 13 43  1  0
 13 44  1  0
 16 45  1  0
 16 46  1  0
 16 47  1  0
 18 48  1  0
 18 49  1  0
 18 50  1  0
 23 51  1  0
 24 52  1  0
 26 53  1  0
 26 54  1  0
 26 55  1  0
 27 56  1  0
 28 57  1  0
 29 58  1  0
 30 59  1  0
M  END
>  <smiles>  (10) 
COc1ccc(CCCN(c2c(C)nn(C)c2C)S(=O)(=O)c2ccc(C)cc2)cc1

>  <score_type>  (10) 
oracle

>  <origin>  (10) 
adg

>  <m_score__min__energy>  (10) 
-9.3100000000000005

>  <m_primary>  (10) 
energy

$$$$
10:0
     RDKit          3D

 48 49  0  0  0  0  0  0  0  0999 V2000
   -2.6200   21.0600  -33.4160 C   0  0  0  0  0  0  0  0  0  0  0  0
   -2.7680   19.6240  -33.0520 C   0  0  0  0  0  0  0  0  0  0  0  0
   -3.9670   18.9770  -33.4370 N   0  0  0  0  0  0  0  0  0  0  0  0
   -3.9700   18.1650  -34.5890 C   0  0  0  0  0  0  0  0  0  0  0  0
   -4.7820   16.8910  -34.5140 C   0  0  0  0  0  0  0  0  0  0  0  0
   -5.4200   16.7860  -33.2810 O   0  0  0  0  0  0  0  0  0  0  0  0
   -6.7740   16.6040  -33.4750 C   0  0  0  0  0  0  0  0  0  0  0  0
   -7.6260   17.7270  -32.9430 C   0  0  0  0  0  0  0  0  0  0  0  0
   -6.8290   18.8510  -32.4500 N   0  0  0  0  0  0  0  0  0  0  0  0
   -7.4930   20.1260  -32.6100 C   0  0  0  0  0  0  0  0  0  0  0  0
   -6.6730   21.1660  -32.0210 C   0  0  0  0  0  0  0  0  0  0  0  0
   -6.8500   22.4980  -31.9050 C   0  0  0  0  0  0  0  0  0  0  0  0
   -5.9180   23.2490  -31.3000 C   0  0  0  0  0  0  0  0  0  0  0  0
   -5.9200   24.6450  -31.0830 C   0  0  0  0  0  0  0  0  0  0  0  0
   -4.8780   25.2610  -30.4420 C   0  0  0  0  0  0  0  0  0  0  0  0
   -3.7630   24.5840  -29.9650 C   0  0  0  0  0  0  0  0  0  0  0  0
   -2.7750   25.3000  -29.3370 O   0  0  0  0  0  0  0  0  0  0  0  0
   -2.1870   24.8850  -28.1530 C   0  0  0  0  0  0  0  0  0  0  0  0
   -3.1630   24.5600  -27.0500 C   0  0  0  0  0  0  0  0  0  0  0  0
   -3.7510   23.2260  -30.1710 C   0  0  0  0  0  0  0  0  0  0  0  0
   -4.7980   22.6150  -30.8140 C   0  0  0  0  0  0  0  0  0  0  0  0
   -5.0510   20.8630  -31.2200 S   0  0  0  0  0  0  0  0  0  0  0  0
   -2.5576   21.6659  -32.5000 H   0  0  0  0  0  0  0  0  0  0  0  0
   -1.7031   21.1955  -34.0085 H   0  0  0  0  0  0  0  0  0  0  0  0
   -3.4900   21.3796  -34.0085 H   0  0  0  0  0  0  0  0  0  0  0  0
   -1.9338   19.0777  -33.5165 H   0  0  0  0  0  0  0  0  0  0  0  0
   -2.7807   19.6112  -31.9521 H   0  0  0  0  0  0  0  0  0  0  0  0
   -4.6510   18.7610  -32.6920 H   0  0  0  0  0  0  0  0  0  0  0  0
   -4.3669   18.7659  -35.4205 H   0  0  0  0  0  0  0  0  0  0  0  0
   -2.9275   17.8388  -34.7183 H   0  0  0  0  0  0  0  0  0  0  0  0
   -5.5384   16.8974  -35.3126 H   0  0  0  0  0  0  0  0  0  0  0  0
   -4.1052   16.0325  -34.6363 H   0  0  0  0  0  0  0  0  0  0  0  0
   -6.9592   16.5113  -34.5553 H   0  0  0  0  0  0  0  0  0  0  0  0
   -7.0564   15.6988  -32.9174 H   0  0  0  0  0  0  0  0  0  0  0  0
   -8.2804   18.0863  -33.7509 H   0  0  0  0  0  0  0  0  0  0  0  0
   -8.2071   17.3329  -32.0962 H   0  0  0  0  0  0  0  0  0  0  0  0
   -5.9960   18.8770  -33.0900 H   0  0  0  0  0  0  0  0  0  0  0  0
   -7.6383   20.3337  -33.6804 H   0  0  0  0  0  0  0  0  0  0  0  0
   -8.4722   20.0988  -32.1097 H   0  0  0  0  0  0  0  0  0  0  0  0
   -7.7594   22.9687  -32.3069 H   0  0  0  0  0  0  0  0  0  0  0  0
   -6.7714   25.2465  -31.4342 H   0  0  0  0  0  0  0  0  0  0  0  0
   -4.9269   26.3503  -30.2972 H   0  0  0  0  0  0  0  0  0  0  0  0
   -1.5924   23.9835  -28.3623 H   0  0  0  0  0  0  0  0  0  0  0  0
   -1.5785   25.7280  -27.7938 H   0  0  0  0  0  0  0  0  0  0  0  0
   -2.6807   24.7206  -26.0745 H   0  0  0  0  0  0  0  0  0  0  0  0
   -4.0438   25.2133  -27.1355 H   0  0  0  0  0  0  0  0  0  0  0  0
   -3.4763   23.5090  -27.1355 H   0  0  0  0  0  0  0  0  0  0  0  0
   -2.8988   22.6260  -29.8192 H   0  0  0  0  0  0  0  0  0  0  0  0
  1  2  1  0
  2  3  1  0
  3  4  1  0
  4  5  1  0
  5  6  1  0
  6  7  1  0
  7  8  1  0
  8  9  1  0
  9 10  1  0
 10 11  1  0
 11 12  2  0
 12 13  1  0
 13 14  2  0
 14 15  1  0
 15 16  2  0
 16 17  1  0
 17 18  1  0
 18 19  1  0
 16 20  1  0
 20 21  2  0
 21 22  1  0
 22 11  1  0
 21 13  1  0
  1 23  1  0
  1 24  1  0
  1 25  1  0
  2 26  1  0
  2 27  1  0
  3 28  1  0
  4 29  1  0
  4 30  1  0
  5 31  1  0
  5 32  1  0
  7 33  1  0
  7 34  1  0
  8 35  1  0
  8 36  1  0
  9 37  1  0
 10 38  1  0
 10 39  1  0
 12 40  1  0
 14 41  1  0
 15 42  1  0
 18 43  1  0
 18 44  1  0
 19 45  1  0
 19 46  1  0
 19 47  1  0
 20 48  1  0
M  END
>  <smiles>  (11) 
CCNCCOCCNCc1cc2ccc(OCC)cc2s1

>  <score_type>  (11) 
oracle

>  <origin>  (11) 
adg

>  <m_score__min__energy>  (11) 
-7.4299999999999997

>  <m_primary>  (11) 
energy

$$$$
11:0
     RDKit          3D

 47 49  0  0  0  0  0  0  0  0999 V2000
   -2.3760   24.4430  -28.9840 C   0  0  0  0  0  0  0  0  0  0  0  0
   -3.8500   24.4040  -29.3110 C   0  0  0  0  0  0  0  0  0  0  0  0
   -4.1640   25.1480  -30.4970 N   0  0  0  0  0  0  0  0  0  0  0  0
   -5.5410   25.1770  -30.8590 C   0  0  0  0  0  0  0  0  0  0  0  0
   -6.0330   23.8420  -31.3190 C   0  0  0  0  0  0  0  0  0  0  0  0
   -7.3310   23.4250  -31.4790 C   0  0  0  0  0  0  0  0  0  0  0  0
   -7.5330   22.1760  -31.9070 C   0  0  0  0  0  0  0  0  0  0  0  0
   -6.4770   21.3870  -32.1600 C   0  0  0  0  0  0  0  0  0  0  0  0
   -6.3640   20.0230  -32.6230 C   0  0  0  0  0  0  0  0  0  0  0  0
   -5.8600   19.7150  -33.8660 C   0  0  0  0  0  0  0  0  0  0  0  0
   -5.7740   18.3770  -34.2660 C   0  0  0  0  0  0  0  0  0  0  0  0
   -6.1830   17.3560  -33.4380 C   0  0  0  0  0  0  0  0  0  0  0  0
   -6.1160   15.9820  -33.8010 N   0  0  0  0  0  0  0  0  0  0  0  0
   -7.1640   15.3300  -34.5900 C   0  0  0  0  0  0  0  0  0  0  0  0
   -7.1600   13.8480  -34.2410 C   0  0  0  0  0  0  0  0  0  0  0  0
   -5.9190   13.1970  -34.5890 N   0  0  0  0  0  0  0  0  0  0  0  0
   -5.5930   12.1240  -33.7010 C   0  0  0  0  0  0  0  0  0  0  0  0
   -4.8140   14.1410  -34.5710 C   0  0  0  0  0  0  0  0  0  0  0  0
   -4.9990   15.1280  -33.4160 C   0  0  0  0  0  0  0  0  0  0  0  0
   -6.6850   17.6880  -32.1930 C   0  0  0  0  0  0  0  0  0  0  0  0
   -6.7760   19.0190  -31.7860 C   0  0  0  0  0  0  0  0  0  0  0  0
   -5.0680   22.4440  -31.7810 S   0  0  0  0  0  0  0  0  0  0  0  0
   -2.2426   24.4465  -27.8921 H   0  0  0  0  0  0  0  0  0  0  0  0
   -1.8822   23.5576  -29.4109 H   0  0  0  0  0  0  0  0  0  0  0  0
   -1.9297   25.3533  -29.4109 H   0  0  0  0  0  0  0  0  0  0  0  0
   -4.1518   23.3568  -29.4600 H   0  0  0  0  0  0  0  0  0  0  0  0
   -4.3934   24.8629  -28.4719 H   0  0  0  0  0  0  0  0  0  0  0  0
   -3.5110   24.9690  -31.2870 H   0  0  0  0  0  0  0  0  0  0  0  0
   -6.1305   25.4896  -29.9845 H   0  0  0  0  0  0  0  0  0  0  0  0
   -5.6557   25.8847  -31.6933 H   0  0  0  0  0  0  0  0  0  0  0  0
   -8.1753   24.0960  -31.2623 H   0  0  0  0  0  0  0  0  0  0  0  0
   -8.5557   21.7973  -32.0509 H   0  0  0  0  0  0  0  0  0  0  0  0
   -5.5265   20.5165  -34.5415 H   0  0  0  0  0  0  0  0  0  0  0  0
   -5.3719   18.1363  -35.2612 H   0  0  0  0  0  0  0  0  0  0  0  0
   -8.1428   15.7686  -34.3460 H   0  0  0  0  0  0  0  0  0  0  0  0
   -6.9774   15.4707  -35.6649 H   0  0  0  0  0  0  0  0  0  0  0  0
   -7.3220   13.7410  -33.1583 H   0  0  0  0  0  0  0  0  0  0  0  0
   -7.9614   13.3677  -34.8216 H   0  0  0  0  0  0  0  0  0  0  0  0
   -5.6966   12.4650  -32.6603 H   0  0  0  0  0  0  0  0  0  0  0  0
   -6.2752   11.2799  -33.8799 H   0  0  0  0  0  0  0  0  0  0  0  0
   -4.5565   11.8020  -33.8799 H   0  0  0  0  0  0  0  0  0  0  0  0
   -3.8685   13.5949  -34.4377 H   0  0  0  0  0  0  0  0  0  0  0  0
   -4.7903   14.6929  -35.5222 H   0  0  0  0  0  0  0  0  0  0  0  0
   -5.2310   14.5898  -32.4852 H   0  0  0  0  0  0  0  0  0  0  0  0
   -4.0858   15.7129  -33.2320 H   0  0  0  0  0  0  0  0  0  0  0  0
   -7.0178   16.8900  -31.5130 H   0  0  0  0  0  0  0  0  0  0  0  0
   -7.1789   19.2632  -30.7920 H   0  0  0  0  0  0  0  0  0  0  0  0
  1  2  1  0
  2  3  1  0
  3  4  1  0
  4  5  1  0
  5  6  2  0
  6  7  1  0
  7  8  2  0
  8  9  1  0
  9 10  2  0
 10 11  1  0
 11 12  2  0
 12 13  1  0
 13 14  1  0
 14 15  1  0
 15 16  1  0
 16 17  1  0
 16 18  1  0
 18 19  1  0
 12 20  1  0
 20 21  2  0
  8 22  1  0
 22  5  1  0
 21  9  1  0
 19 13  1  0
  1 23  1  0
  1 24  1  0
  1 25  1  0
  2 26  1  0
  2 27  1  0
  3 28  1  0
  4 29  1  0
  4 30  1  0
  6 31  1  0
  7 32  1  0
 10 33  1  0
 11 34  1  0
 14 35  1  0
 14 36  1  0
 15 37  1  0
 15 38  1  0
 17 39  1  0
 17 40  1  0
 17 41  1  0
 18 42  1  0
 18 43  1  0
 19 44  1  0
 19 45  1  0
 20 46  1  0
 21 47  1  0
M  END
>  <smiles>  (12) 
CCNCc1ccc(-c2ccc(N3CCN(C)CC3)cc2)s1

>  <score_type>  (12) 
oracle

>  <origin>  (12) 
adg

>  <m_score__min__energy>  (12) 
-8.2300000000000004

>  <m_primary>  (12) 
energy

$$$$
12:0
     RDKit          3D

 95 99  0  0  1  0  0  0  0  0999 V2000
   -5.4360   25.6620  -30.4720 C   0  0  0  0  0  0  0  0  0  0  0  0
   -5.1610   24.2200  -30.3070 C   0  0  0  0  0  0  0  0  0  0  0  0
   -3.8570   23.8060  -30.7100 N   0  0  0  0  0  0  0  0  0  0  0  0
   -2.9150   24.2000  -29.5960 C   0  0  0  0  0  0  0  0  0  0  0  0
   -3.3410   23.3990  -28.3980 C   0  0  0  0  0  0  0  0  0  0  0  0
   -3.6460   22.3870  -30.9060 C   0  0  0  0  0  0  0  0  0  0  0  0
   -3.3310   22.1140  -32.3800 C   0  0  0  0  0  0  0  0  0  0  0  0
   -4.5590   21.8840  -33.1150 N   0  0  0  0  0  0  0  0  0  0  0  0
   -5.6460   21.0620  -32.9340 C   0  0  0  0  0  0  0  0  0  0  0  0
   -6.8840   21.3850  -32.4290 C   0  0  0  0  0  0  0  0  0  0  0  0
   -7.1730   22.6860  -32.0950 C   0  0  0  0  0  0  0  0  0  0  0  0
   -8.3980   23.0920  -31.5940 C   0  0  0  0  0  0  0  0  0  0  0  0
   -9.4110   22.1900  -31.4030 C   0  0  0  0  0  0  0  0  0  0  0  0
   -9.1460   20.8740  -31.7320 C   0  0  0  0  0  0  0  0  0  0  0  0
   -7.9050   20.4730  -32.2370 C   0  0  0  0  0  0  0  0  0  0  0  0
   -7.7370   19.1730  -32.5450 N   0  0  0  0  0  0  0  0  0  0  0  0
   -8.8570   18.3030  -32.2890 C   0  0  0  0  0  0  0  0  0  0  0  0
   -6.5520   18.8060  -33.0420 C   0  0  0  0  0  0  0  0  0  0  0  0
   -6.3850   17.4780  -33.3630 C   0  0  0  0  0  0  0  0  0  0  0  0
   -5.1920   16.9760  -33.8930 C   0  0  0  0  0  0  0  0  0  0  0  0
   -4.1470   17.8340  -34.1060 C   0  0  0  0  0  0  0  0  0  0  0  0
   -2.9470   17.4840  -34.6130 O   0  0  0  0  0  0  0  0  0  0  0  0
   -2.3920   16.2900  -35.0250 C   0  0  0  0  0  0  0  0  0  0  0  0
   -0.9440   16.0710  -34.8690 C   0  0  0  0  0  0  0  0  0  0  0  0
   -0.2680   16.7590  -33.8000 N   0  0  1  0  0  0  0  0  0  0  0  0
    0.6160   15.7680  -33.2070 C   0  0  0  0  0  0  0  0  0  0  0  0
    0.5650   17.8510  -34.2190 C   0  0  0  0  0  0  0  0  0  0  0  0
    1.0810   18.6870  -33.0950 C   0  0  0  0  0  0  0  0  0  0  0  0
    0.2250   18.8730  -31.9770 N   0  0  2  0  0  0  0  0  0  0  0  0
   -0.7470   19.9350  -32.2880 C   0  0  0  0  0  0  0  0  0  0  0  0
    0.9750   19.3800  -30.8150 C   0  0  0  0  0  0  0  0  0  0  0  0
    0.1970   19.2900  -29.5840 C   0  0  0  0  0  0  0  0  0  0  0  0
    0.4890   18.3020  -28.6430 C   0  0  0  0  0  0  0  0  0  0  0  0
   -0.2290   18.1740  -27.4680 C   0  0  0  0  0  0  0  0  0  0  0  0
   -1.2710   19.0230  -27.1720 C   0  0  0  0  0  0  0  0  0  0  0  0
   -2.0320   18.9550  -26.0210 O   0  0  0  0  0  0  0  0  0  0  0  0
   -3.4310   18.9310  -26.1290 C   0  0  0  0  0  0  0  0  0  0  0  0
   -1.5780   20.0130  -28.0940 C   0  0  0  0  0  0  0  0  0  0  0  0
   -0.8570   20.1350  -29.2640 C   0  0  0  0  0  0  0  0  0  0  0  0
   -0.4900   17.7050  -31.5870 C   0  0  0  0  0  0  0  0  0  0  0  0
   -1.2060   17.1410  -32.7730 C   0  0  0  0  0  0  0  0  0  0  0  0
   -4.3340   19.1850  -33.7730 C   0  0  0  0  0  0  0  0  0  0  0  0
   -5.5030   19.6840  -33.2510 C   0  0  0  0  0  0  0  0  0  0  0  0
   -5.5260   26.1337  -29.4824 H   0  0  0  0  0  0  0  0  0  0  0  0
   -4.6112   26.1313  -31.0283 H   0  0  0  0  0  0  0  0  0  0  0  0
   -6.3757   25.7948  -31.0283 H   0  0  0  0  0  0  0  0  0  0  0  0
   -5.2857   23.9681  -29.2435 H   0  0  0  0  0  0  0  0  0  0  0  0
   -5.8681   23.6944  -30.9656 H   0  0  0  0  0  0  0  0  0  0  0  0
   -1.8770   23.9589  -29.8687 H   0  0  0  0  0  0  0  0  0  0  0  0
   -2.9543   25.2809  -29.3955 H   0  0  0  0  0  0  0  0  0  0  0  0
   -3.0567   23.9335  -27.4796 H   0  0  0  0  0  0  0  0  0  0  0  0
   -4.4320   23.2603  -28.4187 H   0  0  0  0  0  0  0  0  0  0  0  0
   -2.8461   22.4168  -28.4187 H   0  0  0  0  0  0  0  0  0  0  0  0
   -2.8031   22.0526  -30.2833 H   0  0  0  0  0  0  0  0  0  0  0  0
   -4.5555   21.8390  -30.6189 H   0  0  0  0  0  0  0  0  0  0  0  0
   -2.8077   22.9820  -32.8075 H   0  0  0  0  0  0  0  0  0  0  0  0
   -2.6934   21.2206  -32.4535 H   0  0  0  0  0  0  0  0  0  0  0  0
   -4.5910   22.5270  -33.9740 H   0  0  0  0  0  0  0  0  0  0  0  0
   -6.3893   23.4454  -32.2330 H   0  0  0  0  0  0  0  0  0  0  0  0
   -8.5598   24.1515  -31.3464 H   0  0  0  0  0  0  0  0  0  0  0  0
  -10.3895   22.4985  -31.0064 H   0  0  0  0  0  0  0  0  0  0  0  0
   -9.9345   20.1198  -31.5925 H   0  0  0  0  0  0  0  0  0  0  0  0
   -8.9965   18.1947  -31.2033 H   0  0  0  0  0  0  0  0  0  0  0  0
   -9.7657   18.7344  -32.7342 H   0  0  0  0  0  0  0  0  0  0  0  0
   -8.6637   17.3158  -32.7342 H   0  0  0  0  0  0  0  0  0  0  0  0
   -7.2224   16.7845  -33.1962 H   0  0  0  0  0  0  0  0  0  0  0  0
   -5.0949   15.9074  -34.1351 H   0  0  0  0  0  0  0  0  0  0  0  0
   -2.8987   15.4912  -34.4636 H   0  0  0  0  0  0  0  0  0  0  0  0
   -2.5354   16.3013  -36.1156 H   0  0  0  0  0  0  0  0  0  0  0  0
   -0.7911   14.9930  -34.7125 H   0  0  0  0  0  0  0  0  0  0  0  0
   -0.5026   16.4874  -35.7864 H   0  0  0  0  0  0  0  0  0  0  0  0
    0.5574   15.8337  -32.1105 H   0  0  0  0  0  0  0  0  0  0  0  0
    0.3094   14.7625  -33.5310 H   0  0  0  0  0  0  0  0  0  0  0  0
    1.6498   15.9582  -33.5310 H   0  0  0  0  0  0  0  0  0  0  0  0
   -0.0219   18.4964  -34.8891 H   0  0  0  0  0  0  0  0  0  0  0  0
    1.4416   17.4101  -34.7162 H   0  0  0  0  0  0  0  0  0  0  0  0
    1.3136   19.6819  -33.5025 H   0  0  0  0  0  0  0  0  0  0  0  0
    1.9441   18.1302  -32.7012 H   0  0  0  0  0  0  0  0  0  0  0  0
   -1.1368   20.3609  -31.3517 H   0  0  0  0  0  0  0  0  0  0  0  0
   -0.2525   20.7250  -32.8723 H   0  0  0  0  0  0  0  0  0  0  0  0
   -1.5776   19.5122  -32.8723 H   0  0  0  0  0  0  0  0  0  0  0  0
    1.8943   18.7872  -30.6989 H   0  0  0  0  0  0  0  0  0  0  0  0
    1.2069   20.4401  -30.9950 H   0  0  0  0  0  0  0  0  0  0  0  0
    1.3154   17.6037  -28.8418 H   0  0  0  0  0  0  0  0  0  0  0  0
    0.0378   17.3786  -26.7565 H   0  0  0  0  0  0  0  0  0  0  0  0
   -3.8763   18.9234  -25.1232 H   0  0  0  0  0  0  0  0  0  0  0  0
   -3.7720   19.8234  -26.6742 H   0  0  0  0  0  0  0  0  0  0  0  0
   -3.7412   18.0274  -26.6742 H   0  0  0  0  0  0  0  0  0  0  0  0
   -2.4055   20.7085  -27.8900 H   0  0  0  0  0  0  0  0  0  0  0  0
   -1.1279   20.9330  -29.9709 H   0  0  0  0  0  0  0  0  0  0  0  0
   -1.2206   17.9654  -30.8070 H   0  0  0  0  0  0  0  0  0  0  0  0
    0.2145   16.9574  -31.1937 H   0  0  0  0  0  0  0  0  0  0  0  0
   -1.8925   17.9005  -33.1753 H   0  0  0  0  0  0  0  0  0  0  0  0
   -1.7669   16.2492  -32.4566 H   0  0  0  0  0  0  0  0  0  0  0  0
   -3.4993   19.8819  -33.9390 H   0  0  0  0  0  0  0  0  0  0  0  0
  1  2  1  0
  2  3  1  0
  3  4  1  0
  4  5  1  0
  3  6  1  0
  6  7  1  0
  7  8  1  0
  8  9  1  0
  9 10  2  0
 10 11  1  0
 11 12  2  0
 12 13  1  0
 13 14  2  0
 14 15  1  0
 15 16  2  0
 16 17  1  0
 16 18  1  0
 18 19  2  0
 19 20  1  0
 20 21  2  0
 21 22  1  0
 22 23  1  0
 23 24  1  0
 25 24  1  6
 25 26  1  0
 25 27  1  0
 27 28  1  0
 28 29  1  0
 29 30  1  6
 29 31  1  0
 31 32  1  0
 32 33  2  0
 33 34  1  0
 34 35  2  0
 35 36  1  0
 36 37  1  0
 35 38  1  0
 38 39  2  0
 29 40  1  0
 40 41  1  0
 21 42  1  0
 42 43  2  0
 43  9  1  0
 15 10  1  0
 43 18  1  0
 41 25  1  0
 39 32  1  0
  1 44  1  0
  1 45  1  0
  1 46  1  0
  2 47  1  0
  2 48  1  0
  4 49  1  0
  4 50  1  0
  5 51  1  0
  5 52  1  0
  5 53  1  0
  6 54  1  0
  6 55  1  0
  7 56  1  0
  7 57  1  0
  8 58  1  0
 11 59  1  0
 12 60  1  0
 13 61  1  0
 14 62  1  0
 17 63  1  0
 17 64  1  0
 17 65  1  0
 19 66  1  0
 20 67  1  0
 23 68  1  0
 23 69  1  0
 24 70  1  0
 24 71  1  0
 26 72  1  0
 26 73  1  0
 26 74  1  0
 27 75  1  0
 27 76  1  0
 28 77  1  0
 28 78  1  0
 30 79  1  0
 30 80  1  0
 30 81  1  0
 31 82  1  0
 31 83  1  0
 33 84  1  0
 34 85  1  0
 37 86  1  0
 37 87  1  0
 37 88  1  0
 38 89  1  0
 39 90  1  0
 40 91  1  0
 40 92  1  0
 41 93  1  0
 41 94  1  0
 42 95  1  0
M  CHG  3  16   1  25   1  29   1
M  END
>  <smiles>  (13) 
CCN(CC)CCNc1c2ccccc2[n+](C)c2ccc(OCC[N+]3(C)CC[N+](C)(Cc4ccc(OC)cc4)CC3)cc12

>  <score_type>  (13) 
oracle

>  <origin>  (13) 
adg

>  <m_score__min__energy>  (13) 
-9.5700000000000003

>  <m_primary>  (13) 
energy

$$$$
14:0
     RDKit          3D

 45 46  0  0  0  0  0  0  0  0999 V2000
   -6.4900   25.3090  -29.7990 C   0  0  0  0  0  0  0  0  0  0  0  0
   -5.0240   25.3100  -30.0990 C   0  0  0  0  0  0  0  0  0  0  0  0
   -4.6090   24.2000  -30.9380 N   0  0  0  0  0  0  0  0  0  0  0  0
   -4.1840   23.0770  -30.1660 C   0  0  0  0  0  0  0  0  0  0  0  0
   -4.1060   23.2890  -28.6930 C   0  0  0  0  0  0  0  0  0  0  0  0
   -5.6840   23.9250  -31.8410 C   0  0  0  0  0  0  0  0  0  0  0  0
   -5.7870   22.5190  -32.2840 C   0  0  0  0  0  0  0  0  0  0  0  0
   -4.7480   21.8130  -32.7770 N   0  0  0  0  0  0  0  0  0  0  0  0
   -4.8630   20.5150  -33.1750 C   0  0  0  0  0  0  0  0  0  0  0  0
   -6.0630   19.8370  -33.0980 C   0  0  0  0  0  0  0  0  0  0  0  0
   -6.2000   18.4270  -33.5250 C   0  0  0  0  0  0  0  0  0  0  0  0
   -5.7070   17.5900  -32.4850 N   0  0  0  0  0  0  0  0  0  0  0  0
   -5.1830   16.3260  -32.8800 C   0  0  0  0  0  0  0  0  0  0  0  0
   -6.4010   17.6320  -31.2430 C   0  0  0  0  0  0  0  0  0  0  0  0
   -7.1420   20.5310  -32.6000 C   0  0  0  0  0  0  0  0  0  0  0  0
   -8.3920   19.9100  -32.4920 C   0  0  0  0  0  0  0  0  0  0  0  0
   -9.4910   20.5810  -31.9980 C   0  0  0  0  0  0  0  0  0  0  0  0
   -9.3730   21.8960  -31.5950 C   0  0  0  0  0  0  0  0  0  0  0  0
   -8.1290   22.5180  -31.7020 C   0  0  0  0  0  0  0  0  0  0  0  0
   -7.0190   21.8620  -32.1930 C   0  0  0  0  0  0  0  0  0  0  0  0
   -6.6413   25.3089  -28.7095 H   0  0  0  0  0  0  0  0  0  0  0  0
   -6.9538   26.2068  -30.2335 H   0  0  0  0  0  0  0  0  0  0  0  0
   -6.9526   24.4105  -30.2335 H   0  0  0  0  0  0  0  0  0  0  0  0
   -4.7735   26.2494  -30.6136 H   0  0  0  0  0  0  0  0  0  0  0  0
   -4.4950   25.2092  -29.1399 H   0  0  0  0  0  0  0  0  0  0  0  0
   -4.8908   22.2546  -30.3507 H   0  0  0  0  0  0  0  0  0  0  0  0
   -3.1542   22.8667  -30.4904 H   0  0  0  0  0  0  0  0  0  0  0  0
   -4.4408   22.3791  -28.1734 H   0  0  0  0  0  0  0  0  0  0  0  0
   -3.0669   23.5121  -28.4092 H   0  0  0  0  0  0  0  0  0  0  0  0
   -4.7527   24.1323  -28.4092 H   0  0  0  0  0  0  0  0  0  0  0  0
   -6.6261   24.1946  -31.3413 H   0  0  0  0  0  0  0  0  0  0  0  0
   -5.4827   24.5171  -32.7459 H   0  0  0  0  0  0  0  0  0  0  0  0
   -3.9772   19.9942  -33.5676 H   0  0  0  0  0  0  0  0  0  0  0  0
   -7.2590   18.1981  -33.7149 H   0  0  0  0  0  0  0  0  0  0  0  0
   -5.6284   18.2560  -34.4491 H   0  0  0  0  0  0  0  0  0  0  0  0
   -4.9379   15.7349  -31.9853 H   0  0  0  0  0  0  0  0  0  0  0  0
   -5.9328   15.7895  -33.4799 H   0  0  0  0  0  0  0  0  0  0  0  0
   -4.2735   16.4774  -33.4799 H   0  0  0  0  0  0  0  0  0  0  0  0
   -5.6765   17.5882  -30.4165 H   0  0  0  0  0  0  0  0  0  0  0  0
   -6.9772   18.5667  -31.1763 H   0  0  0  0  0  0  0  0  0  0  0  0
   -7.0857   16.7736  -31.1763 H   0  0  0  0  0  0  0  0  0  0  0  0
   -8.5002   18.8621  -32.8086 H   0  0  0  0  0  0  0  0  0  0  0  0
  -10.4615   20.0683  -31.9251 H   0  0  0  0  0  0  0  0  0  0  0  0
  -10.2416   22.4418  -31.1979 H   0  0  0  0  0  0  0  0  0  0  0  0
   -8.0297   23.5664  -31.3843 H   0  0  0  0  0  0  0  0  0  0  0  0
  1  2  1  0
  2  3  1  0
  3  4  1  0
  4  5  1  0
  3  6  1  0
  6  7  1  0
  7  8  2  0
  8  9  1  0
  9 10  2  0
 10 11  1  0
 11 12  1  0
 12 13  1  0
 12 14  1  0
 10 15  1  0
 15 16  2  0
 16 17  1  0
 17 18  2  0
 18 19  1  0
 19 20  2  0
 20  7  1  0
 20 15  1  0
  1 21  1  0
  1 22  1  0
  1 23  1  0
  2 24  1  0
  2 25  1  0
  4 26  1  0
  4 27  1  0
  5 28  1  0
  5 29  1  0
  5 30  1  0
  6 31  1  0
  6 32  1  0
  9 33  1  0
 11 34  1  0
 11 35  1  0
 13 36  1  0
 13 37  1  0
 13 38  1  0
 14 39  1  0
 14 40  1  0
 14 41  1  0
 16 42  1  0
 17 43  1  0
 18 44  1  0
 19 45  1  0
M  END
>  <smiles>  (14) 
CCN(CC)Cc1ncc(CN(C)C)c2ccccc12

>  <score_type>  (14) 
oracle

>  <origin>  (14) 
adg

>  <m_score__min__energy>  (14) 
-7.8600000000000003

>  <m_primary>  (14) 
energy

$$$$
15:0
     RDKit          3D

 32 33  0  0  0  0  0  0  0  0999 V2000
   -3.8940   24.5510  -26.9250 C   0  0  0  0  0  0  0  0  0  0  0  0
   -2.4240   24.7230  -27.1580 C   0  0  0  0  0  0  0  0  0  0  0  0
   -2.0530   24.7000  -28.9310 S   0  0  0  0  0  0  0  0  0  0  0  0
   -3.5180   24.3990  -29.8960 C   0  0  0  0  0  0  0  0  0  0  0  0
   -4.1550   25.2960  -30.6690 N   0  0  0  0  0  0  0  0  0  0  0  0
   -5.2000   24.7190  -31.2290 N   0  0  0  0  0  0  0  0  0  0  0  0
   -5.2730   23.4130  -30.8310 C   0  0  0  0  0  0  0  0  0  0  0  0
   -6.3210   22.5330  -31.2960 C   0  0  0  0  0  0  0  0  0  0  0  0
   -7.6190   22.5340  -30.8500 C   0  0  0  0  0  0  0  0  0  0  0  0
   -8.5920   21.6540  -31.3290 C   0  0  0  0  0  0  0  0  0  0  0  0
   -8.2850   20.7370  -32.2820 C   0  0  0  0  0  0  0  0  0  0  0  0
   -6.9900   20.7090  -32.7530 C   0  0  0  0  0  0  0  0  0  0  0  0
   -6.0240   21.5850  -32.2750 C   0  0  0  0  0  0  0  0  0  0  0  0
   -4.7410   21.5010  -32.7940 O   0  0  0  0  0  0  0  0  0  0  0  0
   -4.1950   20.2300  -33.0590 C   0  0  0  0  0  0  0  0  0  0  0  0
   -4.2310   23.2330  -30.0120 N   0  0  0  0  0  0  0  0  0  0  0  0
   -3.8660   22.0340  -29.3400 C   0  0  0  0  0  0  0  0  0  0  0  0
   -4.0936   24.5277  -25.8435 H   0  0  0  0  0  0  0  0  0  0  0  0
   -4.4382   25.3916  -27.3802 H   0  0  0  0  0  0  0  0  0  0  0  0
   -4.2295   23.6075  -27.3802 H   0  0  0  0  0  0  0  0  0  0  0  0
   -2.1007   25.6849  -26.7334 H   0  0  0  0  0  0  0  0  0  0  0  0
   -1.8884   23.8938  -26.6727 H   0  0  0  0  0  0  0  0  0  0  0  0
   -7.9068   23.2630  -30.0781 H   0  0  0  0  0  0  0  0  0  0  0  0
   -9.6161   21.7043  -30.9306 H   0  0  0  0  0  0  0  0  0  0  0  0
   -9.0444   20.0397  -32.6654 H   0  0  0  0  0  0  0  0  0  0  0  0
   -6.7151   19.9757  -33.5255 H   0  0  0  0  0  0  0  0  0  0  0  0
   -3.9758   19.7198  -32.1094 H   0  0  0  0  0  0  0  0  0  0  0  0
   -4.9166   19.6343  -33.6373 H   0  0  0  0  0  0  0  0  0  0  0  0
   -3.2661   20.3433  -33.6373 H   0  0  0  0  0  0  0  0  0  0  0  0
   -3.9146   22.1937  -28.2527 H   0  0  0  0  0  0  0  0  0  0  0  0
   -4.5597   21.2289  -29.6237 H   0  0  0  0  0  0  0  0  0  0  0  0
   -2.8413   21.7520  -29.6237 H   0  0  0  0  0  0  0  0  0  0  0  0
  1  2  1  0
  2  3  1  0
  3  4  1  0
  4  5  2  0
  5  6  1  0
  6  7  2  0
  7  8  1  0
  8  9  2  0
  9 10  1  0
 10 11  2  0
 11 12  1  0
 12 13  2  0
 13 14  1  0
 14 15  1  0
  7 16  1  0
 16 17  1  0
 16  4  1  0
 13  8  1  0
  1 18  1  0
  1 19  1  0
  1 20  1  0
  2 21  1  0
  2 22  1  0
  9 23  1  0
 10 24  1  0
 11 25  1  0
 12 26  1  0
 15 27  1  0
 15 28  1  0
 15 29  1  0
 17 30  1  0
 17 31  1  0
 17 32  1  0
M  END
>  <smiles>  (15) 
CCSc1nnc(-c2ccccc2OC)n1C

>  <score_type>  (15) 
oracle

>  <origin>  (15) 
adg

>  <m_score__min__energy>  (15) 
-6.54

>  <m_primary>  (15) 
energy

$$$$
16:0
     RDKit          3D

 73 75  0  0  0  0  0  0  0  0999 V2000
   -0.3770   22.8380  -24.9760 C   0  0  0  0  0  0  0  0  0  0  0  0
   -0.4830   24.2970  -24.5930 C   0  0  0  0  0  0  0  0  0  0  0  0
    0.0160   25.0860  -25.6790 N   0  0  0  0  0  0  0  0  0  0  0  0
    0.5960   24.3420  -26.7510 C   0  0  0  0  0  0  0  0  0  0  0  0
   -0.9070   26.1070  -26.0540 C   0  0  0  0  0  0  0  0  0  0  0  0
   -2.3630   25.6730  -25.8540 C   0  0  0  0  0  0  0  0  0  0  0  0
   -2.6910   24.9390  -26.9710 O   0  0  0  0  0  0  0  0  0  0  0  0
   -4.0280   24.5160  -27.0380 C   0  0  0  0  0  0  0  0  0  0  0  0
   -4.2160   23.2990  -27.8580 C   0  0  0  0  0  0  0  0  0  0  0  0
   -3.1020   22.3250  -27.9030 C   0  0  0  0  0  0  0  0  0  0  0  0
   -1.7840   22.6830  -28.1680 N   0  0  0  0  0  0  0  0  0  0  0  0
   -1.3680   23.3530  -29.3300 C   0  0  0  0  0  0  0  0  0  0  0  0
   -1.8570   22.6200  -30.6030 C   0  0  0  0  0  0  0  0  0  0  0  0
   -1.3980   21.2910  -30.6280 N   0  0  0  0  0  0  0  0  0  0  0  0
   -1.1050   20.5980  -31.7840 C   0  0  0  0  0  0  0  0  0  0  0  0
   -2.1410   19.8140  -32.4950 C   0  0  0  0  0  0  0  0  0  0  0  0
   -2.9710   20.6490  -33.4550 C   0  0  0  0  0  0  0  0  0  0  0  0
   -4.3820   20.5030  -33.1930 N   0  0  0  0  0  0  0  0  0  0  0  0
   -5.1750   21.4850  -32.5390 C   0  0  0  0  0  0  0  0  0  0  0  0
   -4.6600   22.6770  -32.0750 C   0  0  0  0  0  0  0  0  0  0  0  0
   -5.4220   23.6380  -31.4420 C   0  0  0  0  0  0  0  0  0  0  0  0
   -4.9180   24.8290  -30.9750 O   0  0  0  0  0  0  0  0  0  0  0  0
   -5.6850   25.6630  -30.1160 C   0  0  0  0  0  0  0  0  0  0  0  0
   -6.7830   23.3730  -31.2730 C   0  0  0  0  0  0  0  0  0  0  0  0
   -7.3470   22.2010  -31.7170 C   0  0  0  0  0  0  0  0  0  0  0  0
   -8.6880   21.9080  -31.5640 C   0  0  0  0  0  0  0  0  0  0  0  0
   -9.2200   20.7040  -32.0290 C   0  0  0  0  0  0  0  0  0  0  0  0
   -8.3490   19.8280  -32.6440 C   0  0  0  0  0  0  0  0  0  0  0  0
   -7.0530   20.1350  -32.7810 N   0  0  0  0  0  0  0  0  0  0  0  0
   -6.5320   21.2800  -32.3420 C   0  0  0  0  0  0  0  0  0  0  0  0
   -1.3880   20.6310  -29.3830 C   0  0  0  0  0  0  0  0  0  0  0  0
   -1.0000   21.4160  -28.1760 C   0  0  0  0  0  0  0  0  0  0  0  0
   -0.3323   22.2222  -24.0656 H   0  0  0  0  0  0  0  0  0  0  0  0
   -1.2566   22.5501  -25.5705 H   0  0  0  0  0  0  0  0  0  0  0  0
    0.5350   22.6803  -25.5705 H   0  0  0  0  0  0  0  0  0  0  0  0
   -1.5346   24.5548  -24.3988 H   0  0  0  0  0  0  0  0  0  0  0  0
    0.1028   24.4927  -23.6828 H   0  0  0  0  0  0  0  0  0  0  0  0
    1.2236   23.5369  -26.3411 H   0  0  0  0  0  0  0  0  0  0  0  0
   -0.2027   23.9058  -27.3688 H   0  0  0  0  0  0  0  0  0  0  0  0
    1.2139   25.0102  -27.3688 H   0  0  0  0  0  0  0  0  0  0  0  0
   -0.7160   26.9999  -25.4406 H   0  0  0  0  0  0  0  0  0  0  0  0
   -0.7613   26.3176  -27.1238 H   0  0  0  0  0  0  0  0  0  0  0  0
   -2.4581   25.0559  -24.9484 H   0  0  0  0  0  0  0  0  0  0  0  0
   -3.0302   26.5383  -25.7272 H   0  0  0  0  0  0  0  0  0  0  0  0
   -4.3797   24.3069  -26.0169 H   0  0  0  0  0  0  0  0  0  0  0  0
   -4.6017   25.3233  -27.5166 H   0  0  0  0  0  0  0  0  0  0  0  0
   -5.0988   22.7718  -27.4672 H   0  0  0  0  0  0  0  0  0  0  0  0
   -4.3065   23.6684  -28.8902 H   0  0  0  0  0  0  0  0  0  0  0  0
   -3.0893   21.8358  -26.9178 H   0  0  0  0  0  0  0  0  0  0  0  0
   -3.3551   21.7481  -28.8047 H   0  0  0  0  0  0  0  0  0  0  0  0
   -1.7792   24.3732  -29.3229 H   0  0  0  0  0  0  0  0  0  0  0  0
   -0.2684   23.3787  -29.3430 H   0  0  0  0  0  0  0  0  0  0  0  0
   -2.9569   22.6209  -30.6183 H   0  0  0  0  0  0  0  0  0  0  0  0
   -1.4585   23.1446  -31.4839 H   0  0  0  0  0  0  0  0  0  0  0  0
   -0.7269   21.3390  -32.5037 H   0  0  0  0  0  0  0  0  0  0  0  0
   -0.4185   19.8166  -31.4261 H   0  0  0  0  0  0  0  0  0  0  0  0
   -1.6445   19.0155  -33.0659 H   0  0  0  0  0  0  0  0  0  0  0  0
   -2.8268   19.4134  -31.7340 H   0  0  0  0  0  0  0  0  0  0  0  0
   -2.6933   21.7073  -33.3414 H   0  0  0  0  0  0  0  0  0  0  0  0
   -2.7707   20.3014  -34.4792 H   0  0  0  0  0  0  0  0  0  0  0  0
   -4.8400   19.6270  -33.5020 H   0  0  0  0  0  0  0  0  0  0  0  0
   -3.5867   22.8720  -32.2166 H   0  0  0  0  0  0  0  0  0  0  0  0
   -5.4587   25.4169  -29.0680 H   0  0  0  0  0  0  0  0  0  0  0  0
   -5.4338   26.7166  -30.3077 H   0  0  0  0  0  0  0  0  0  0  0  0
   -6.7559   25.5007  -30.3077 H   0  0  0  0  0  0  0  0  0  0  0  0
   -7.4179   24.1194  -30.7731 H   0  0  0  0  0  0  0  0  0  0  0  0
   -9.3475   22.6351  -31.0677 H   0  0  0  0  0  0  0  0  0  0  0  0
  -10.2869   20.4641  -31.9103 H   0  0  0  0  0  0  0  0  0  0  0  0
   -8.7236   18.8668  -33.0259 H   0  0  0  0  0  0  0  0  0  0  0  0
   -2.4034   20.2452  -29.2094 H   0  0  0  0  0  0  0  0  0  0  0  0
   -0.5982   19.8717  -29.4817 H   0  0  0  0  0  0  0  0  0  0  0  0
   -1.2220   20.8359  -27.2682 H   0  0  0  0  0  0  0  0  0  0  0  0
    0.0772   21.6378  -28.1992 H   0  0  0  0  0  0  0  0  0  0  0  0
  1  2  1  0
  2  3  1  0
  3  4  1  0
  3  5  1  0
  5  6  1  0
  6  7  1  0
  7  8  1  0
  8  9  1  0
  9 10  1  0
 10 11  1  0
 11 12  1  0
 12 13  1  0
 13 14  1  0
 14 15  1  0
 15 16  1  0
 16 17  1  0
 17 18  1  0
 18 19  1  0
 19 20  2  0
 20 21  1  0
 21 22  1  0
 22 23  1  0
 21 24  2  0
 24 25  1  0
 25 26  2  0
 26 27  1  0
 27 28  2  0
 28 29  1  0
 29 30  2  0
 14 31  1  0
 31 32  1  0
 32 11  1  0
 30 19  1  0
 30 25  1  0
  1 33  1  0
  1 34  1  0
  1 35  1  0
  2 36  1  0
  2 37  1  0
  4 38  1  0
  4 39  1  0
  4 40  1  0
  5 41  1  0
  5 42  1  0
  6 43  1  0
  6 44  1  0
  8 45  1  0
  8 46  1  0
  9 47  1  0
  9 48  1  0
 10 49  1  0
 10 50  1  0
 12 51  1  0
 12 52  1  0
 13 53  1  0
 13 54  1  0
 15 55  1  0
 15 56  1  0
 16 57  1  0
 16 58  1  0
 17 59  1  0
 17 60  1  0
 18 61  1  0
 20 62  1  0
 23 63  1  0
 23 64  1  0
 23 65  1  0
 24 66  1  0
 26 67  1  0
 27 68  1  0
 28 69  1  0
 31 70  1  0
 31 71  1  0
 32 72  1  0
 32 73  1  0
M  END
>  <smiles>  (16) 
CCN(C)CCOCCCN1CCN(CCCNc2cc(OC)cc3cccnc23)CC1

>  <score_type>  (16) 
oracle

>  <origin>  (16) 
adg

>  <m_score__min__energy>  (16) 
-9.0199999999999996

>  <m_primary>  (16) 
energy

$$$$
17:0
     RDKit          3D

 44 46  0  0  0  0  0  0  0  0999 V2000
   -5.1760   25.6710  -30.4720 C   0  0  0  0  0  0  0  0  0  0  0  0
   -4.2440   24.5670  -30.6150 N   0  0  0  0  0  0  0  0  0  0  0  0
   -3.4270   24.5480  -29.4360 C   0  0  0  0  0  0  0  0  0  0  0  0
   -4.9460   23.3100  -30.8190 C   0  0  0  0  0  0  0  0  0  0  0  0
   -6.2740   23.5260  -31.5060 C   0  0  0  0  0  0  0  0  0  0  0  0
   -6.4610   22.7470  -32.6920 N   0  0  0  0  0  0  0  0  0  0  0  0
   -6.1140   21.3790  -32.7180 C   0  0  0  0  0  0  0  0  0  0  0  0
   -4.8440   20.9010  -32.9580 C   0  0  0  0  0  0  0  0  0  0  0  0
   -4.5340   19.5520  -32.9750 C   0  0  0  0  0  0  0  0  0  0  0  0
   -5.5250   18.6710  -32.7460 N   0  0  0  0  0  0  0  0  0  0  0  0
   -5.3450   17.2390  -32.7350 C   0  0  0  0  0  0  0  0  0  0  0  0
   -6.7950   19.1120  -32.5050 C   0  0  0  0  0  0  0  0  0  0  0  0
   -7.8230   18.2100  -32.2680 C   0  0  0  0  0  0  0  0  0  0  0  0
   -9.1210   18.6230  -32.0200 C   0  0  0  0  0  0  0  0  0  0  0  0
   -9.4110   19.9720  -32.0060 C   0  0  0  0  0  0  0  0  0  0  0  0
   -8.3980   20.8910  -32.2410 C   0  0  0  0  0  0  0  0  0  0  0  0
   -7.1100   20.4550  -32.4860 C   0  0  0  0  0  0  0  0  0  0  0  0
   -3.1890   19.0350  -33.2280 C   0  0  0  0  0  0  0  0  0  0  0  0
   -2.1360   20.0530  -33.4820 C   0  0  0  0  0  0  0  0  0  0  0  0
   -2.5840   21.4500  -33.4380 C   0  0  0  0  0  0  0  0  0  0  0  0
   -3.7960   21.8290  -33.2030 N   0  0  0  0  0  0  0  0  0  0  0  0
   -5.3455   25.8718  -29.4038 H   0  0  0  0  0  0  0  0  0  0  0  0
   -4.7580   26.5682  -30.9519 H   0  0  0  0  0  0  0  0  0  0  0  0
   -6.1306   25.4095  -30.9519 H   0  0  0  0  0  0  0  0  0  0  0  0
   -4.0703   24.5630  -28.5438 H   0  0  0  0  0  0  0  0  0  0  0  0
   -2.8130   23.6353  -29.4301 H   0  0  0  0  0  0  0  0  0  0  0  0
   -2.7712   25.4311  -29.4301 H   0  0  0  0  0  0  0  0  0  0  0  0
   -4.3242   22.6497  -31.4414 H   0  0  0  0  0  0  0  0  0  0  0  0
   -5.1348   22.8551  -29.8354 H   0  0  0  0  0  0  0  0  0  0  0  0
   -7.0741   23.2691  -30.7962 H   0  0  0  0  0  0  0  0  0  0  0  0
   -6.2981   24.5809  -31.8169 H   0  0  0  0  0  0  0  0  0  0  0  0
   -6.8570   23.1510  -33.5730 H   0  0  0  0  0  0  0  0  0  0  0  0
   -5.3003   16.8831  -31.6951 H   0  0  0  0  0  0  0  0  0  0  0  0
   -6.1899   16.7593  -33.2507 H   0  0  0  0  0  0  0  0  0  0  0  0
   -4.4076   16.9833  -33.2507 H   0  0  0  0  0  0  0  0  0  0  0  0
   -7.5994   17.1330  -32.2775 H   0  0  0  0  0  0  0  0  0  0  0  0
   -9.9136   17.8828  -31.8359 H   0  0  0  0  0  0  0  0  0  0  0  0
  -10.4372   20.3163  -31.8101 H   0  0  0  0  0  0  0  0  0  0  0  0
   -8.6208   21.9682  -32.2322 H   0  0  0  0  0  0  0  0  0  0  0  0
   -2.8838   18.4472  -32.3497 H   0  0  0  0  0  0  0  0  0  0  0  0
   -3.2661   18.4505  -34.1566 H   0  0  0  0  0  0  0  0  0  0  0  0
   -1.3506   19.9249  -32.7226 H   0  0  0  0  0  0  0  0  0  0  0  0
   -1.7899   19.8791  -34.5116 H   0  0  0  0  0  0  0  0  0  0  0  0
   -1.8318   22.2320  -33.6185 H   0  0  0  0  0  0  0  0  0  0  0  0
  1  2  1  0
  2  3  1  0
  2  4  1  0
  4  5  1  0
  5  6  1  0
  6  7  1  0
  7  8  2  0
  8  9  1  0
  9 10  2  0
 10 11  1  0
 10 12  1  0
 12 13  2  0
 13 14  1  0
 14 15  2  0
 15 16  1  0
 16 17  2  0
  9 18  1  0
 18 19  1  0
 19 20  1  0
 20 21  2  0
 17  7  1  0
 21  8  1  0
 17 12  1  0
  1 22  1  0
  1 23  1  0
  1 24  1  0
  3 25  1  0
  3 26  1  0
  3 27  1  0
  4 28  1  0
  4 29  1  0
  5 30  1  0
  5 31  1  0
  6 32  1  0
 11 33  1  0
 11 34  1  0
 11 35  1  0
 13 36  1  0
 14 37  1  0
 15 38  1  0
 16 39  1  0
 18 40  1  0
 18 41  1  0
 19 42  1  0
 19 43  1  0
 20 44  1  0
M  CHG  1  10   1
M  END
>  <smiles>  (17) 
CN(C)CCNc1c2c([n+](C)c3ccccc13)CCC=N2

>  <score_type>  (17) 
oracle

>  <origin>  (17) 
adg

>  <m_score__min__energy>  (17) 
-7.8200000000000003

>  <m_primary>  (17) 
energy

$$$$
18:0
     RDKit          3D

 39 41  0  0  0  0  0  0  0  0999 V2000
   -3.8020   24.5430  -27.2370 C   0  0  0  0  0  0  0  0  0  0  0  0
   -2.5120   24.4030  -27.8790 N   0  0  0  0  0  0  0  0  0  0  0  0
   -2.1880   24.1700  -29.1890 C   0  0  0  0  0  0  0  0  0  0  0  0
   -3.2080   23.9960  -30.1940 C   0  0  0  0  0  0  0  0  0  0  0  0
   -3.9130   25.0250  -30.4480 O   0  0  0  0  0  0  0  0  0  0  0  0
   -3.5360   22.8440  -30.9370 N   0  0  0  0  0  0  0  0  0  0  0  0
   -2.9660   21.5460  -30.9650 C   0  0  0  0  0  0  0  0  0  0  0  0
   -4.0640   20.5210  -30.6450 C   0  0  0  0  0  0  0  0  0  0  0  0
   -4.9110   20.5420  -31.8170 N   0  0  0  0  0  0  0  0  0  0  0  0
   -5.5400   19.4000  -32.3680 C   0  0  0  0  0  0  0  0  0  0  0  0
   -6.8150   19.0600  -31.9660 C   0  0  0  0  0  0  0  0  0  0  0  0
   -7.4940   17.9600  -32.4600 C   0  0  0  0  0  0  0  0  0  0  0  0
   -6.8910   17.1550  -33.3950 C   0  0  0  0  0  0  0  0  0  0  0  0
   -5.6120   17.5040  -33.7880 C   0  0  0  0  0  0  0  0  0  0  0  0
   -4.9310   18.5950  -33.3030 C   0  0  0  0  0  0  0  0  0  0  0  0
   -3.2990   19.0030  -33.8460 Cl  0  0  0  0  0  0  0  0  0  0  0  0
   -5.1570   21.7950  -32.5190 C   0  0  0  0  0  0  0  0  0  0  0  0
   -4.7100   23.0220  -31.8420 C   0  0  0  0  0  0  0  0  0  0  0  0
   -0.8190   24.1220  -29.2360 C   0  0  0  0  0  0  0  0  0  0  0  0
   -0.2710   24.3220  -27.9700 C   0  0  0  0  0  0  0  0  0  0  0  0
    1.5620   24.3480  -27.4740 Br  0  0  0  0  0  0  0  0  0  0  0  0
   -1.3540   24.4940  -27.1530 C   0  0  0  0  0  0  0  0  0  0  0  0
   -1.2120   24.8070  -25.2800 Br  0  0  0  0  0  0  0  0  0  0  0  0
   -3.6715   24.5288  -26.1449 H   0  0  0  0  0  0  0  0  0  0  0  0
   -4.2604   25.4962  -27.5392 H   0  0  0  0  0  0  0  0  0  0  0  0
   -4.4542   23.7104  -27.5392 H   0  0  0  0  0  0  0  0  0  0  0  0
   -2.5513   21.3450  -31.9638 H   0  0  0  0  0  0  0  0  0  0  0  0
   -2.1577   21.4747  -30.2223 H   0  0  0  0  0  0  0  0  0  0  0  0
   -3.6330   19.5207  -30.4914 H   0  0  0  0  0  0  0  0  0  0  0  0
   -4.6115   20.7600  -29.7213 H   0  0  0  0  0  0  0  0  0  0  0  0
   -7.3153   19.6926  -31.2180 H   0  0  0  0  0  0  0  0  0  0  0  0
   -8.5102   17.7319  -32.1060 H   0  0  0  0  0  0  0  0  0  0  0  0
   -7.4013   16.2741  -33.8117 H   0  0  0  0  0  0  0  0  0  0  0  0
   -5.1093   16.8704  -34.5336 H   0  0  0  0  0  0  0  0  0  0  0  0
   -4.6421   21.7416  -33.4896 H   0  0  0  0  0  0  0  0  0  0  0  0
   -6.2514   21.8814  -32.5884 H   0  0  0  0  0  0  0  0  0  0  0  0
   -4.4398   23.7592  -32.6124 H   0  0  0  0  0  0  0  0  0  0  0  0
   -5.5460   23.3472  -31.2053 H   0  0  0  0  0  0  0  0  0  0  0  0
   -0.2317   23.9489  -30.1499 H   0  0  0  0  0  0  0  0  0  0  0  0
  1  2  1  0
  2  3  1  0
  3  4  1  0
  4  5  2  0
  4  6  1  0
  6  7  1  0
  7  8  1  0
  8  9  1  0
  9 10  1  0
 10 11  2  0
 11 12  1  0
 12 13  2  0
 13 14  1  0
 14 15  2  0
 15 16  1  0
  9 17  1  0
 17 18  1  0
  3 19  2  0
 19 20  1  0
 20 21  1  0
 20 22  2  0
 22 23  1  0
 22  2  1  0
 18  6  1  0
 15 10  1  0
  1 24  1  0
  1 25  1  0
  1 26  1  0
  7 27  1  0
  7 28  1  0
  8 29  1  0
  8 30  1  0
 11 31  1  0
 12 32  1  0
 13 33  1  0
 14 34  1  0
 17 35  1  0
 17 36  1  0
 18 37  1  0
 18 38  1  0
 19 39  1  0
M  END
>  <smiles>  (18) 
Cn1c(C(=O)N2CCN(c3ccccc3Cl)CC2)cc(Br)c1Br

>  <score_type>  (18) 
oracle

>  <origin>  (18) 
adg

>  <m_score__min__energy>  (18) 
-8.0099999999999998

>  <m_primary>  (18) 
energy

$$$$
19:0
     RDKit          3D

 62 66  0  0  0  0  0  0  0  0999 V2000
   -2.7550   22.9750  -30.0860 C   0  0  0  0  0  0  0  0  0  0  0  0
   -2.3570   21.5710  -29.6960 C   0  0  0  0  0  0  0  0  0  0  0  0
   -1.3940   20.9770  -30.5240 N   0  0  0  0  0  0  0  0  0  0  0  0
   -0.8660   19.7180  -30.2100 C   0  0  0  0  0  0  0  0  0  0  0  0
    0.2220   19.8330  -29.1350 C   0  0  0  0  0  0  0  0  0  0  0  0
   -1.1240   21.5490  -31.7940 C   0  0  0  0  0  0  0  0  0  0  0  0
   -1.3300   20.5880  -32.9000 C   0  0  0  0  0  0  0  0  0  0  0  0
   -2.4820   20.6550  -33.7090 N   0  0  0  0  0  0  0  0  0  0  0  0
   -3.7670   20.1170  -33.4590 C   0  0  0  0  0  0  0  0  0  0  0  0
   -4.8610   20.8000  -32.9780 C   0  0  0  0  0  0  0  0  0  0  0  0
   -6.0560   20.0900  -32.7560 C   0  0  0  0  0  0  0  0  0  0  0  0
   -6.1460   18.7690  -32.9910 N   0  0  0  0  0  0  0  0  0  0  0  0
   -7.2520   17.9790  -32.5080 C   0  0  0  0  0  0  0  0  0  0  0  0
   -5.0820   18.0740  -33.4730 C   0  0  0  0  0  0  0  0  0  0  0  0
   -3.8980   18.7440  -33.7040 C   0  0  0  0  0  0  0  0  0  0  0  0
   -2.8900   17.8100  -34.2140 C   0  0  0  0  0  0  0  0  0  0  0  0
   -3.5770   16.5110  -34.3490 C   0  0  0  0  0  0  0  0  0  0  0  0
   -3.0920   15.3170  -34.8350 C   0  0  0  0  0  0  0  0  0  0  0  0
   -3.9070   14.2120  -34.8800 C   0  0  0  0  0  0  0  0  0  0  0  0
   -5.2020   14.3580  -34.4220 C   0  0  0  0  0  0  0  0  0  0  0  0
   -5.6790   15.5780  -33.9310 C   0  0  0  0  0  0  0  0  0  0  0  0
   -4.8570   16.6930  -33.8860 C   0  0  0  0  0  0  0  0  0  0  0  0
   -7.1980   20.9030  -32.3390 C   0  0  0  0  0  0  0  0  0  0  0  0
   -8.4520   20.3420  -32.2370 C   0  0  0  0  0  0  0  0  0  0  0  0
   -9.5900   21.1270  -31.9410 C   0  0  0  0  0  0  0  0  0  0  0  0
   -9.4750   22.4660  -31.7530 C   0  0  0  0  0  0  0  0  0  0  0  0
   -8.2460   23.0480  -31.8520 C   0  0  0  0  0  0  0  0  0  0  0  0
   -7.1310   22.2640  -32.1430 C   0  0  0  0  0  0  0  0  0  0  0  0
   -5.8570   23.0040  -32.2540 C   0  0  0  0  0  0  0  0  0  0  0  0
   -4.7070   22.2290  -32.7180 C   0  0  0  0  0  0  0  0  0  0  0  0
   -2.9246   23.5734  -29.1787 H   0  0  0  0  0  0  0  0  0  0  0  0
   -1.9510   23.4320  -30.6816 H   0  0  0  0  0  0  0  0  0  0  0  0
   -3.6792   22.9421  -30.6816 H   0  0  0  0  0  0  0  0  0  0  0  0
   -1.9549   21.6020  -28.6726 H   0  0  0  0  0  0  0  0  0  0  0  0
   -3.2646   20.9566  -29.7899 H   0  0  0  0  0  0  0  0  0  0  0  0
   -1.6740   19.0716  -29.8368 H   0  0  0  0  0  0  0  0  0  0  0  0
   -0.4184   19.2883  -31.1183 H   0  0  0  0  0  0  0  0  0  0  0  0
   -0.2407   19.7841  -28.1383 H   0  0  0  0  0  0  0  0  0  0  0  0
    0.9379   19.0055  -29.2479 H   0  0  0  0  0  0  0  0  0  0  0  0
    0.7491   20.7919  -29.2479 H   0  0  0  0  0  0  0  0  0  0  0  0
   -1.7934   22.4089  -31.9438 H   0  0  0  0  0  0  0  0  0  0  0  0
   -0.0673   21.8542  -31.8069 H   0  0  0  0  0  0  0  0  0  0  0  0
   -0.4670   20.6952  -33.5736 H   0  0  0  0  0  0  0  0  0  0  0  0
   -1.4580   19.6317  -32.3717 H   0  0  0  0  0  0  0  0  0  0  0  0
   -2.4060   21.1760  -34.6460 H   0  0  0  0  0  0  0  0  0  0  0  0
   -7.2506   17.9800  -31.4080 H   0  0  0  0  0  0  0  0  0  0  0  0
   -8.1965   18.4081  -32.8738 H   0  0  0  0  0  0  0  0  0  0  0  0
   -7.1524   16.9464  -32.8738 H   0  0  0  0  0  0  0  0  0  0  0  0
   -2.5143   18.1479  -35.1911 H   0  0  0  0  0  0  0  0  0  0  0  0
   -2.0236   17.7415  -33.5397 H   0  0  0  0  0  0  0  0  0  0  0  0
   -2.0521   15.2482  -35.1871 H   0  0  0  0  0  0  0  0  0  0  0  0
   -3.5425   13.2485  -35.2657 H   0  0  0  0  0  0  0  0  0  0  0  0
   -5.8775   13.4901  -34.4440 H   0  0  0  0  0  0  0  0  0  0  0  0
   -6.7177   15.6532  -33.5768 H   0  0  0  0  0  0  0  0  0  0  0  0
   -8.5706   19.2591  -32.3893 H   0  0  0  0  0  0  0  0  0  0  0  0
  -10.5772   20.6482  -31.8624 H   0  0  0  0  0  0  0  0  0  0  0  0
  -10.3623   23.0743  -31.5236 H   0  0  0  0  0  0  0  0  0  0  0  0
   -8.1349   24.1322  -31.7028 H   0  0  0  0  0  0  0  0  0  0  0  0
   -6.0100   23.8348  -32.9585 H   0  0  0  0  0  0  0  0  0  0  0  0
   -5.6079   23.3233  -31.2312 H   0  0  0  0  0  0  0  0  0  0  0  0
   -4.3680   22.6905  -33.6572 H   0  0  0  0  0  0  0  0  0  0  0  0
   -4.0115   22.2634  -31.8665 H   0  0  0  0  0  0  0  0  0  0  0  0
  1  2  1  0
  2  3  1  0
  3  4  1  0
  4  5  1  0
  3  6  1  0
  6  7  1  0
  7  8  1  0
  8  9  1  0
  9 10  2  0
 10 11  1  0
 11 12  2  0
 12 13  1  0
 12 14  1  0
 14 15  2  0
 15 16  1  0
 16 17  1  0
 17 18  2  0
 18 19  1  0
 19 20  2  0
 20 21  1  0
 21 22  2  0
 11 23  1  0
 23 24  2  0
 24 25  1  0
 25 26  2  0
 26 27  1  0
 27 28  2  0
 28 29  1  0
 29 30  1  0
 15  9  1  0
 22 17  1  0
 28 23  1  0
 30 10  1  0
 22 14  1  0
  1 31  1  0
  1 32  1  0
  1 33  1  0
  2 34  1  0
  2 35  1  0
  4 36  1  0
  4 37  1  0
  5 38  1  0
  5 39  1  0
  5 40  1  0
  6 41  1  0
  6 42  1  0
  7 43  1  0
  7 44  1  0
  8 45  1  0
 13 46  1  0
 13 47  1  0
 13 48  1  0
 16 49  1  0
 16 50  1  0
 18 51  1  0
 19 52  1  0
 20 53  1  0
 21 54  1  0
 24 55  1  0
 25 56  1  0
 26 57  1  0
 27 58  1  0
 29 59  1  0
 29 60  1  0
 30 61  1  0
 30 62  1  0
M  CHG  1  12   1
M  END
>  <smiles>  (19) 
CCN(CC)CCNc1c2c([n+](C)c3c1Cc1ccccc1-3)-c1ccccc1CC2

>  <score_type>  (19) 
oracle

>  <origin>  (19) 
adg

>  <m_score__min__energy>  (19) 
-8.9000000000000004

>  <m_primary>  (19) 
energy

$$$$
20:0
     RDKit          3D

 60 62  0  0  0  0  0  0  0  0999 V2000
    0.3120   20.6250  -33.2500 C   0  0  0  0  0  0  0  0  0  0  0  0
   -0.8790   21.5220  -33.5390 C   0  0  0  0  0  0  0  0  0  0  0  0
   -1.6970   21.7690  -32.3210 C   0  0  0  0  0  0  0  0  0  0  0  0
   -3.0490   21.4920  -32.3860 O   0  0  0  0  0  0  0  0  0  0  0  0
   -3.6130   20.2710  -32.6190 C   0  0  0  0  0  0  0  0  0  0  0  0
   -2.9400   19.1310  -32.9900 C   0  0  0  0  0  0  0  0  0  0  0  0
   -3.6300   17.9540  -33.1940 C   0  0  0  0  0  0  0  0  0  0  0  0
   -4.9940   17.8830  -33.0350 C   0  0  0  0  0  0  0  0  0  0  0  0
   -5.6990   19.0100  -32.6620 C   0  0  0  0  0  0  0  0  0  0  0  0
   -4.9820   20.1620  -32.4670 C   0  0  0  0  0  0  0  0  0  0  0  0
   -5.7370   21.2780  -32.0940 C   0  0  0  0  0  0  0  0  0  0  0  0
   -5.1530   22.5440  -31.8270 N   0  0  0  0  0  0  0  0  0  0  0  0
   -5.7540   23.7810  -32.3230 C   0  0  0  0  0  0  0  0  0  0  0  0
   -5.8810   24.7850  -31.1960 C   0  0  0  0  0  0  0  0  0  0  0  0
   -5.0020   24.4100  -30.0200 C   0  0  0  0  0  0  0  0  0  0  0  0
   -3.7000   24.4460  -30.4310 O   0  0  0  0  0  0  0  0  0  0  0  0
   -2.7500   24.3090  -29.4570 C   0  0  0  0  0  0  0  0  0  0  0  0
   -2.9870   23.1250  -28.5860 C   0  0  0  0  0  0  0  0  0  0  0  0
   -3.3440   21.9920  -29.4390 N   0  0  0  0  0  0  0  0  0  0  0  0
   -2.4680   20.8680  -29.1450 C   0  0  0  0  0  0  0  0  0  0  0  0
   -2.6750   20.4260  -27.7070 C   0  0  0  0  0  0  0  0  0  0  0  0
   -7.1000   21.1360  -31.9570 C   0  0  0  0  0  0  0  0  0  0  0  0
   -8.2660   22.3670  -31.5050 S   0  0  0  0  0  0  0  0  0  0  0  0
   -9.7040   21.1960  -31.6140 C   0  0  0  0  0  0  0  0  0  0  0  0
   -9.1330   20.0120  -31.9800 C   0  0  0  0  0  0  0  0  0  0  0  0
   -7.8010   19.9830  -32.1550 C   0  0  0  0  0  0  0  0  0  0  0  0
   -7.0270   18.8990  -32.5210 N   0  0  0  0  0  0  0  0  0  0  0  0
   -7.6130   17.5990  -32.7690 C   0  0  0  0  0  0  0  0  0  0  0  0
    0.4419   20.5272  -32.1621 H   0  0  0  0  0  0  0  0  0  0  0  0
    0.1380   19.6316  -33.6893 H   0  0  0  0  0  0  0  0  0  0  0  0
    1.2187   21.0665  -33.6893 H   0  0  0  0  0  0  0  0  0  0  0  0
   -0.5133   22.4857  -33.9230 H   0  0  0  0  0  0  0  0  0  0  0  0
   -1.5152   21.0152  -34.2795 H   0  0  0  0  0  0  0  0  0  0  0  0
   -1.2748   21.1547  -31.5121 H   0  0  0  0  0  0  0  0  0  0  0  0
   -1.6442   22.8570  -32.1677 H   0  0  0  0  0  0  0  0  0  0  0  0
   -1.8486   19.1575  -33.1245 H   0  0  0  0  0  0  0  0  0  0  0  0
   -3.0761   17.0512  -33.4908 H   0  0  0  0  0  0  0  0  0  0  0  0
   -5.5211   16.9325  -33.2042 H   0  0  0  0  0  0  0  0  0  0  0  0
   -4.2720   22.5370  -31.2580 H   0  0  0  0  0  0  0  0  0  0  0  0
   -5.1184   24.2022  -33.1158 H   0  0  0  0  0  0  0  0  0  0  0  0
   -6.7544   23.5604  -32.7237 H   0  0  0  0  0  0  0  0  0  0  0  0
   -5.5813   25.7770  -31.5649 H   0  0  0  0  0  0  0  0  0  0  0  0
   -6.9274   24.7945  -30.8570 H   0  0  0  0  0  0  0  0  0  0  0  0
   -5.1531   25.1263  -29.1990 H   0  0  0  0  0  0  0  0  0  0  0  0
   -5.2588   23.4028  -29.6600 H   0  0  0  0  0  0  0  0  0  0  0  0
   -1.7664   24.2012  -29.9374 H   0  0  0  0  0  0  0  0  0  0  0  0
   -2.7955   25.2046  -28.8200 H   0  0  0  0  0  0  0  0  0  0  0  0
   -2.0735   22.8910  -28.0197 H   0  0  0  0  0  0  0  0  0  0  0  0
   -3.7991   23.3344  -27.8742 H   0  0  0  0  0  0  0  0  0  0  0  0
   -3.2100   22.3130  -30.4150 H   0  0  0  0  0  0  0  0  0  0  0  0
   -2.7027   20.0336  -29.8222 H   0  0  0  0  0  0  0  0  0  0  0  0
   -1.4207   21.1730  -29.2872 H   0  0  0  0  0  0  0  0  0  0  0  0
   -2.3085   21.2086  -27.0265 H   0  0  0  0  0  0  0  0  0  0  0  0
   -3.7466   20.2555  -27.5264 H   0  0  0  0  0  0  0  0  0  0  0  0
   -2.1199   19.4937  -27.5264 H   0  0  0  0  0  0  0  0  0  0  0  0
  -10.7672   21.4076  -31.4272 H   0  0  0  0  0  0  0  0  0  0  0  0
   -9.7441   19.1093  -32.1272 H   0  0  0  0  0  0  0  0  0  0  0  0
   -7.8345   17.1077  -31.8101 H   0  0  0  0  0  0  0  0  0  0  0  0
   -8.5437   17.7198  -33.3427 H   0  0  0  0  0  0  0  0  0  0  0  0
   -6.9061   16.9816  -33.3427 H   0  0  0  0  0  0  0  0  0  0  0  0
  1  2  1  0
  2  3  1  0
  3  4  1  0
  4  5  1  0
  5  6  2  0
  6  7  1  0
  7  8  2  0
  8  9  1  0
  9 10  2  0
 10 11  1  0
 11 12  1  0
 12 13  1  0
 13 14  1  0
 14 15  1  0
 15 16  1  0
 16 17  1  0
 17 18  1  0
 18 19  1  0
 19 20  1  0
 20 21  1  0
 11 22  2  0
 22 23  1  0
 23 24  1  0
 24 25  2  0
 25 26  1  0
 26 27  2  0
 27 28  1  0
 10  5  1  0
 26 22  1  0
 27  9  1  0
  1 29  1  0
  1 30  1  0
  1 31  1  0
  2 32  1  0
  2 33  1  0
  3 34  1  0
  3 35  1  0
  6 36  1  0
  7 37  1  0
  8 38  1  0
 12 39  1  0
 13 40  1  0
 13 41  1  0
 14 42  1  0
 14 43  1  0
 15 44  1  0
 15 45  1  0
 17 46  1  0
 17 47  1  0
 18 48  1  0
 18 49  1  0
 19 50  1  0
 20 51  1  0
 20 52  1  0
 21 53  1  0
 21 54  1  0
 21 55  1  0
 24 56  1  0
 25 57  1  0
 28 58  1  0
 28 59  1  0
 28 60  1  0
M  CHG  1  27   1
M  END
>  <smiles>  (20) 
CCCOc1cccc2c1c(NCCCOCCNCC)c1sccc1[n+]2C

>  <score_type>  (20) 
oracle

>  <origin>  (20) 
adg

>  <m_score__min__energy>  (20) 
-8.5199999999999996

>  <m_primary>  (20) 
energy

$$$$
21:0
     RDKit          3D

 66 68  0  0  0  0  0  0  0  0999 V2000
   -0.6340   22.1400  -26.0600 C   0  0  0  0  0  0  0  0  0  0  0  0
   -1.0220   21.1030  -27.0480 C   0  0  0  0  0  0  0  0  0  0  0  0
   -2.4080   20.6240  -26.9230 N   0  0  0  0  0  0  0  0  0  0  0  0
   -2.3350   19.2260  -26.6970 C   0  0  0  0  0  0  0  0  0  0  0  0
   -3.4680   18.5970  -25.9540 C   0  0  0  0  0  0  0  0  0  0  0  0
   -3.0920   21.0940  -28.0740 C   0  0  0  0  0  0  0  0  0  0  0  0
   -3.8410   22.3920  -27.9420 C   0  0  0  0  0  0  0  0  0  0  0  0
   -2.9140   23.5820  -28.1500 C   0  0  0  0  0  0  0  0  0  0  0  0
   -3.1280   24.1890  -29.3780 O   0  0  0  0  0  0  0  0  0  0  0  0
   -2.8040   23.3660  -30.4480 C   0  0  0  0  0  0  0  0  0  0  0  0
   -1.4660   22.6850  -30.2670 C   0  0  0  0  0  0  0  0  0  0  0  0
   -1.3460   21.7140  -31.2290 O   0  0  0  0  0  0  0  0  0  0  0  0
   -2.5530   21.1230  -31.6150 C   0  0  0  0  0  0  0  0  0  0  0  0
   -2.7530   21.1040  -33.0900 C   0  0  0  0  0  0  0  0  0  0  0  0
   -4.0810   21.4630  -33.5400 N   0  0  0  0  0  0  0  0  0  0  0  0
   -5.2700   20.8580  -33.0460 C   0  0  0  0  0  0  0  0  0  0  0  0
   -5.6660   19.5790  -33.3220 C   0  0  0  0  0  0  0  0  0  0  0  0
   -4.9080   18.8160  -34.1820 C   0  0  0  0  0  0  0  0  0  0  0  0
   -5.2290   17.5130  -34.5260 C   0  0  0  0  0  0  0  0  0  0  0  0
   -6.3650   16.9860  -33.9650 C   0  0  0  0  0  0  0  0  0  0  0  0
   -7.1450   17.7440  -33.0940 C   0  0  0  0  0  0  0  0  0  0  0  0
   -6.8270   19.0410  -32.7540 C   0  0  0  0  0  0  0  0  0  0  0  0
   -7.6030   19.7550  -31.9140 N   0  0  0  0  0  0  0  0  0  0  0  0
   -8.8040   19.2190  -31.3380 C   0  0  0  0  0  0  0  0  0  0  0  0
   -7.2320   21.0270  -31.6240 C   0  0  0  0  0  0  0  0  0  0  0  0
   -7.9680   21.8270  -30.7720 C   0  0  0  0  0  0  0  0  0  0  0  0
   -7.5960   23.1360  -30.4670 C   0  0  0  0  0  0  0  0  0  0  0  0
   -6.4770   23.6840  -31.0050 C   0  0  0  0  0  0  0  0  0  0  0  0
   -5.7170   22.9020  -31.8660 C   0  0  0  0  0  0  0  0  0  0  0  0
   -6.0800   21.5930  -32.1760 C   0  0  0  0  0  0  0  0  0  0  0  0
   -0.7801   21.7495  -25.0421 H   0  0  0  0  0  0  0  0  0  0  0  0
    0.4240   22.4049  -26.2028 H   0  0  0  0  0  0  0  0  0  0  0  0
   -1.2583   23.0343  -26.2028 H   0  0  0  0  0  0  0  0  0  0  0  0
   -0.8947   21.5250  -28.0558 H   0  0  0  0  0  0  0  0  0  0  0  0
   -0.3743   20.2344  -26.8581 H   0  0  0  0  0  0  0  0  0  0  0  0
   -2.2691   18.7345  -27.6789 H   0  0  0  0  0  0  0  0  0  0  0  0
   -1.4575   19.0879  -26.0482 H   0  0  0  0  0  0  0  0  0  0  0  0
   -3.2951   18.6930  -24.8719 H   0  0  0  0  0  0  0  0  0  0  0  0
   -4.4076   19.1027  -26.2215 H   0  0  0  0  0  0  0  0  0  0  0  0
   -3.5357   17.5322  -26.2215 H   0  0  0  0  0  0  0  0  0  0  0  0
   -2.3474   21.2206  -28.8737 H   0  0  0  0  0  0  0  0  0  0  0  0
   -3.8651   20.3378  -28.2750 H   0  0  0  0  0  0  0  0  0  0  0  0
   -4.6412   22.4236  -28.6961 H   0  0  0  0  0  0  0  0  0  0  0  0
   -4.2635   22.4506  -26.9281 H   0  0  0  0  0  0  0  0  0  0  0  0
   -3.0937   24.3178  -27.3523 H   0  0  0  0  0  0  0  0  0  0  0  0
   -1.8764   23.2178  -28.1232 H   0  0  0  0  0  0  0  0  0  0  0  0
   -3.5820   22.5950  -30.5489 H   0  0  0  0  0  0  0  0  0  0  0  0
   -2.7410   23.9952  -31.3480 H   0  0  0  0  0  0  0  0  0  0  0  0
   -0.6557   23.4207  -30.3773 H   0  0  0  0  0  0  0  0  0  0  0  0
   -1.3999   22.2371  -29.2645 H   0  0  0  0  0  0  0  0  0  0  0  0
   -2.5678   20.0865  -31.2471 H   0  0  0  0  0  0  0  0  0  0  0  0
   -3.3647   21.7271  -31.1835 H   0  0  0  0  0  0  0  0  0  0  0  0
   -2.0397   21.8111  -33.5385 H   0  0  0  0  0  0  0  0  0  0  0  0
   -2.5975   20.0613  -33.4041 H   0  0  0  0  0  0  0  0  0  0  0  0
   -4.2380   22.2120  -34.2770 H   0  0  0  0  0  0  0  0  0  0  0  0
   -4.0024   19.2635  -34.6176 H   0  0  0  0  0  0  0  0  0  0  0  0
   -4.6029   16.9285  -35.2162 H   0  0  0  0  0  0  0  0  0  0  0  0
   -6.6629   15.9547  -34.2053 H   0  0  0  0  0  0  0  0  0  0  0  0
   -8.0487   17.2899  -32.6615 H   0  0  0  0  0  0  0  0  0  0  0  0
   -8.7308   19.2517  -30.2409 H   0  0  0  0  0  0  0  0  0  0  0  0
   -9.6667   19.8175  -31.6659 H   0  0  0  0  0  0  0  0  0  0  0  0
   -8.9346   18.1772  -31.6659 H   0  0  0  0  0  0  0  0  0  0  0  0
   -8.8815   21.4164  -30.3171 H   0  0  0  0  0  0  0  0  0  0  0  0
   -8.2172   23.7317  -29.7819 H   0  0  0  0  0  0  0  0  0  0  0  0
   -6.1807   24.7162  -30.7666 H   0  0  0  0  0  0  0  0  0  0  0  0
   -4.8065   23.3267  -32.3139 H   0  0  0  0  0  0  0  0  0  0  0  0
  1  2  1  0
  2  3  1  0
  3  4  1  0
  4  5  1  0
  3  6  1  0
  6  7  1  0
  7  8  1  0
  8  9  1  0
  9 10  1  0
 10 11  1  0
 11 12  1  0
 12 13  1  0
 13 14  1  0
 14 15  1  0
 15 16  1  0
 16 17  2  0
 17 18  1  0
 18 19  2  0
 19 20  1  0
 20 21  2  0
 21 22  1  0
 22 23  2  0
 23 24  1  0
 23 25  1  0
 25 26  2  0
 26 27  1  0
 27 28  2  0
 28 29  1  0
 29 30  2  0
 30 16  1  0
 22 17  1  0
 30 25  1  0
  1 31  1  0
  1 32  1  0
  1 33  1  0
  2 34  1  0
  2 35  1  0
  4 36  1  0
  4 37  1  0
  5 38  1  0
  5 39  1  0
  5 40  1  0
  6 41  1  0
  6 42  1  0
  7 43  1  0
  7 44  1  0
  8 45  1  0
  8 46  1  0
 10 47  1  0
 10 48  1  0
 11 49  1  0
 11 50  1  0
 13 51  1  0
 13 52  1  0
 14 53  1  0
 14 54  1  0
 15 55  1  0
 18 56  1  0
 19 57  1  0
 20 58  1  0
 21 59  1  0
 24 60  1  0
 24 61  1  0
 24 62  1  0
 26 63  1  0
 27 64  1  0
 28 65  1  0
 29 66  1  0
M  CHG  1  23   1
M  END
>  <smiles>  (21) 
CCN(CC)CCCOCCOCCNc1c2ccccc2[n+](C)c2ccccc12

>  <score_type>  (21) 
oracle

>  <origin>  (21) 
adg

>  <m_score__min__energy>  (21) 
-9.1799999999999997

>  <m_primary>  (21) 
energy

$$$$
22:0
     RDKit          3D

 50 52  0  0  0  0  0  0  0  0999 V2000
    0.5080   23.7520  -28.4230 O   0  0  0  0  0  0  0  0  0  0  0  0
   -0.6890   23.3470  -28.3560 C   0  0  0  0  0  0  0  0  0  0  0  0
   -1.7660   24.1270  -29.0160 C   0  0  0  0  0  0  0  0  0  0  0  0
   -2.8420   24.5530  -28.0940 C   0  0  0  0  0  0  0  0  0  0  0  0
   -4.1870   23.9380  -28.3070 C   0  0  0  0  0  0  0  0  0  0  0  0
   -4.4410   23.3290  -29.5380 N   0  0  0  0  0  0  0  0  0  0  0  0
   -5.7610   23.7750  -30.4460 S   0  0  0  0  0  0  0  0  0  0  0  0
   -6.6740   24.6520  -29.6360 O   0  0  0  0  0  0  0  0  0  0  0  0
   -5.2790   24.6590  -31.5890 O   0  0  0  0  0  0  0  0  0  0  0  0
   -6.6790   22.4930  -31.1740 C   0  0  0  0  0  0  0  0  0  0  0  0
   -6.1010   21.6760  -32.1270 C   0  0  0  0  0  0  0  0  0  0  0  0
   -6.7930   20.6430  -32.7340 C   0  0  0  0  0  0  0  0  0  0  0  0
   -8.1230   20.4330  -32.3580 C   0  0  0  0  0  0  0  0  0  0  0  0
   -8.7220   21.2520  -31.3970 C   0  0  0  0  0  0  0  0  0  0  0  0
   -8.0000   22.2790  -30.8060 C   0  0  0  0  0  0  0  0  0  0  0  0
   -3.4120   22.5680  -30.1290 C   0  0  0  0  0  0  0  0  0  0  0  0
   -2.1960   23.4170  -30.2670 C   0  0  0  0  0  0  0  0  0  0  0  0
   -0.9080   22.1470  -27.6350 N   0  0  0  0  0  0  0  0  0  0  0  0
    0.2890   21.5620  -27.0850 C   0  0  0  0  0  0  0  0  0  0  0  0
    0.6360   20.3810  -27.9740 C   0  0  0  0  0  0  0  0  0  0  0  0
   -0.0960   19.1250  -27.6190 C   0  0  0  0  0  0  0  0  0  0  0  0
   -1.5850   19.2090  -27.7360 C   0  0  0  0  0  0  0  0  0  0  0  0
   -2.2040   20.2560  -26.8560 C   0  0  0  0  0  0  0  0  0  0  0  0
   -2.2480   21.6240  -27.5070 C   0  0  0  0  0  0  0  0  0  0  0  0
   -1.3706   25.1018  -29.3377 H   0  0  0  0  0  0  0  0  0  0  0  0
   -2.5212   24.3082  -27.0707 H   0  0  0  0  0  0  0  0  0  0  0  0
   -2.9803   25.6273  -28.2858 H   0  0  0  0  0  0  0  0  0  0  0  0
   -4.3239   23.1727  -27.5288 H   0  0  0  0  0  0  0  0  0  0  0  0
   -4.8864   24.7862  -28.2701 H   0  0  0  0  0  0  0  0  0  0  0  0
   -5.0537   21.8532  -32.4131 H   0  0  0  0  0  0  0  0  0  0  0  0
   -6.3109   20.0058  -33.4901 H   0  0  0  0  0  0  0  0  0  0  0  0
   -8.7007   19.6193  -32.8207 H   0  0  0  0  0  0  0  0  0  0  0  0
   -9.7696   21.0819  -31.1081 H   0  0  0  0  0  0  0  0  0  0  0  0
   -8.4729   22.9213  -30.0485 H   0  0  0  0  0  0  0  0  0  0  0  0
   -3.1847   21.6994  -29.4935 H   0  0  0  0  0  0  0  0  0  0  0  0
   -3.7334   22.2169  -31.1207 H   0  0  0  0  0  0  0  0  0  0  0  0
   -1.3667   22.7728  -30.5947 H   0  0  0  0  0  0  0  0  0  0  0  0
   -2.4541   24.2040  -30.9909 H   0  0  0  0  0  0  0  0  0  0  0  0
    1.1083   22.2959  -27.0903 H   0  0  0  0  0  0  0  0  0  0  0  0
    0.1357   21.2453  -26.0428 H   0  0  0  0  0  0  0  0  0  0  0  0
    0.3898   20.6445  -29.0132 H   0  0  0  0  0  0  0  0  0  0  0  0
    1.7082   20.1783  -27.8351 H   0  0  0  0  0  0  0  0  0  0  0  0
    0.2546   18.3247  -28.2873 H   0  0  0  0  0  0  0  0  0  0  0  0
    0.1195   18.9319  -26.5577 H   0  0  0  0  0  0  0  0  0  0  0  0
   -1.8382   19.4405  -28.7811 H   0  0  0  0  0  0  0  0  0  0  0  0
   -1.9871   18.2383  -27.4104 H   0  0  0  0  0  0  0  0  0  0  0  0
   -3.2324   19.9488  -26.6153 H   0  0  0  0  0  0  0  0  0  0  0  0
   -1.5797   20.3399  -25.9542 H   0  0  0  0  0  0  0  0  0  0  0  0
   -2.7041   21.5395  -28.5044 H   0  0  0  0  0  0  0  0  0  0  0  0
   -2.8460   22.3046  -26.8831 H   0  0  0  0  0  0  0  0  0  0  0  0
  1  2  2  0
  2  3  1  0
  3  4  1  0
  4  5  1  0
  5  6  1  0
  6  7  1  0
  7  8  2  0
  7  9  2  0
  7 10  1  0
 10 11  2  0
 11 12  1  0
 12 13  2  0
 13 14  1  0
 14 15  2  0
  6 16  1  0
 16 17  1  0
  2 18  1  0
 18 19  1  0
 19 20  1  0
 20 21  1  0
 21 22  1  0
 22 23  1  0
 23 24  1  0
 17  3  1  0
 24 18  1  0
 15 10  1  0
  3 25  1  0
  4 26  1  0
  4 27  1  0
  5 28  1  0
  5 29  1  0
 11 30  1  0
 12 31  1  0
 13 32  1  0
 14 33  1  0
 15 34  1  0
 16 35  1  0
 16 36  1  0
 17 37  1  0
 17 38  1  0
 19 39  1  0
 19 40  1  0
 20 41  1  0
 20 42  1  0
 21 43  1  0
 21 44  1  0
 22 45  1  0
 22 46  1  0
 23 47  1  0
 23 48  1  0
 24 49  1  0
 24 50  1  0
M  END
>  <smiles>  (22) 
O=C(C1CCN(S(=O)(=O)c2ccccc2)CC1)N1CCCCCC1

>  <score_type>  (22) 
oracle

>  <origin>  (22) 
adg

>  <m_score__min__energy>  (22) 
-7.4299999999999997

>  <m_primary>  (22) 
energy

$$$$
23:0
     RDKit          3D

 88 92  0  0  1  0  0  0  0  0999 V2000
   -3.5820   23.4170  -28.4880 C   0  0  0  0  0  0  0  0  0  0  0  0
   -3.1010   24.1630  -29.7120 C   0  0  0  0  0  0  0  0  0  0  0  0
   -4.0390   23.8100  -30.8070 N   0  0  0  0  0  0  0  0  0  0  0  0
   -5.3790   24.2010  -30.3900 C   0  0  0  0  0  0  0  0  0  0  0  0
   -5.5400   25.7110  -30.4540 C   0  0  0  0  0  0  0  0  0  0  0  0
   -4.0390   22.3400  -30.9210 C   0  0  0  0  0  0  0  0  0  0  0  0
   -3.5860   21.9460  -32.2820 C   0  0  0  0  0  0  0  0  0  0  0  0
   -4.6570   21.5790  -33.2060 N   0  0  0  0  0  0  0  0  0  0  0  0
   -5.7600   20.7720  -32.8390 C   0  0  0  0  0  0  0  0  0  0  0  0
   -6.9910   21.2540  -32.4580 C   0  0  0  0  0  0  0  0  0  0  0  0
   -7.1900   22.6120  -32.3440 C   0  0  0  0  0  0  0  0  0  0  0  0
   -8.3710   23.1910  -31.9570 C   0  0  0  0  0  0  0  0  0  0  0  0
   -9.4240   22.3670  -31.6620 C   0  0  0  0  0  0  0  0  0  0  0  0
   -9.2630   20.9970  -31.7620 C   0  0  0  0  0  0  0  0  0  0  0  0
   -8.0510   20.4230  -32.1590 C   0  0  0  0  0  0  0  0  0  0  0  0
   -7.9360   19.0590  -32.2250 N   0  0  0  0  0  0  0  0  0  0  0  0
   -9.1010   18.3050  -31.9090 C   0  0  0  0  0  0  0  0  0  0  0  0
   -6.7430   18.5640  -32.5920 C   0  0  0  0  0  0  0  0  0  0  0  0
   -6.5820   17.1990  -32.6580 C   0  0  0  0  0  0  0  0  0  0  0  0
   -5.3580   16.6710  -33.0230 C   0  0  0  0  0  0  0  0  0  0  0  0
   -4.2590   17.4270  -33.3330 C   0  0  0  0  0  0  0  0  0  0  0  0
   -3.0300   16.9980  -33.6960 O   0  0  0  0  0  0  0  0  0  0  0  0
   -1.9710   17.5990  -34.3230 C   0  0  0  0  0  0  0  0  0  0  0  0
   -1.2560   18.6550  -33.5550 C   0  0  0  0  0  0  0  0  0  0  0  0
   -0.1490   18.1260  -32.7500 N   0  0  1  0  0  0  0  0  0  0  0  0
    0.0140   16.7150  -33.0200 C   0  0  0  0  0  0  0  0  0  0  0  0
    1.0880   18.7830  -33.0440 C   0  0  0  0  0  0  0  0  0  0  0  0
    1.5620   19.4060  -31.7620 C   0  0  0  0  0  0  0  0  0  0  0  0
    0.3960   19.3950  -30.8880 N   0  0  2  0  0  0  0  0  0  0  0  0
   -0.2070   20.7220  -31.0420 C   0  0  0  0  0  0  0  0  0  0  0  0
    0.8430   19.3020  -29.5390 C   0  0  0  0  0  0  0  0  0  0  0  0
    0.0390   20.0060  -28.5380 C   0  0  0  0  0  0  0  0  0  0  0  0
    0.3250   21.2900  -28.1170 C   0  0  0  0  0  0  0  0  0  0  0  0
   -0.5080   21.8590  -27.1560 C   0  0  0  0  0  0  0  0  0  0  0  0
   -1.5850   21.1860  -26.6280 C   0  0  0  0  0  0  0  0  0  0  0  0
   -1.8770   19.8980  -27.0470 C   0  0  0  0  0  0  0  0  0  0  0  0
   -3.3620   18.9170  -26.3440 Br  0  0  0  0  0  0  0  0  0  0  0  0
   -1.0500   19.3390  -27.9980 C   0  0  0  0  0  0  0  0  0  0  0  0
   -0.4600   18.3550  -31.3530 C   0  0  0  0  0  0  0  0  0  0  0  0
   -4.4470   18.8190  -33.2590 C   0  0  0  0  0  0  0  0  0  0  0  0
   -5.6530   19.3740  -32.8990 C   0  0  0  0  0  0  0  0  0  0  0  0
   -3.2437   23.9417  -27.5823 H   0  0  0  0  0  0  0  0  0  0  0  0
   -4.6810   23.3700  -28.4956 H   0  0  0  0  0  0  0  0  0  0  0  0
   -3.1713   22.3966  -28.4956 H   0  0  0  0  0  0  0  0  0  0  0  0
   -3.1191   25.2476  -29.5292 H   0  0  0  0  0  0  0  0  0  0  0  0
   -2.0663   23.8902  -29.9669 H   0  0  0  0  0  0  0  0  0  0  0  0
   -6.1168   23.7302  -31.0564 H   0  0  0  0  0  0  0  0  0  0  0  0
   -5.5380   23.8711  -29.3528 H   0  0  0  0  0  0  0  0  0  0  0  0
   -5.5835   26.1187  -29.4333 H   0  0  0  0  0  0  0  0  0  0  0  0
   -4.6834   26.1488  -30.9875 H   0  0  0  0  0  0  0  0  0  0  0  0
   -6.4696   25.9583  -30.9875 H   0  0  0  0  0  0  0  0  0  0  0  0
   -3.3567   21.9144  -30.1704 H   0  0  0  0  0  0  0  0  0  0  0  0
   -5.0570   21.9599  -30.7501 H   0  0  0  0  0  0  0  0  0  0  0  0
   -3.0350   22.7929  -32.7170 H   0  0  0  0  0  0  0  0  0  0  0  0
   -2.9689   21.0447  -32.1523 H   0  0  0  0  0  0  0  0  0  0  0  0
   -4.6060   21.9320  -34.1980 H   0  0  0  0  0  0  0  0  0  0  0  0
   -6.3453   23.2762  -32.5791 H   0  0  0  0  0  0  0  0  0  0  0  0
   -8.4696   24.2842  -31.8857 H   0  0  0  0  0  0  0  0  0  0  0  0
  -10.3894   22.7909  -31.3483 H   0  0  0  0  0  0  0  0  0  0  0  0
  -10.1123   20.3402  -31.5225 H   0  0  0  0  0  0  0  0  0  0  0  0
   -9.2078   18.2359  -30.8164 H   0  0  0  0  0  0  0  0  0  0  0  0
   -9.9858   18.8022  -32.3332 H   0  0  0  0  0  0  0  0  0  0  0  0
   -9.0098   17.2942  -32.3332 H   0  0  0  0  0  0  0  0  0  0  0  0
   -7.4235   16.5312  -32.4214 H   0  0  0  0  0  0  0  0  0  0  0  0
   -5.2606   15.5762  -33.0672 H   0  0  0  0  0  0  0  0  0  0  0  0
   -1.2410   16.8146  -34.5717 H   0  0  0  0  0  0  0  0  0  0  0  0
   -2.4027   18.1144  -35.1936 H   0  0  0  0  0  0  0  0  0  0  0  0
   -0.8527   19.3925  -34.2645 H   0  0  0  0  0  0  0  0  0  0  0  0
   -1.9810   19.1069  -32.8621 H   0  0  0  0  0  0  0  0  0  0  0  0
    0.0776   16.1648  -32.0696 H   0  0  0  0  0  0  0  0  0  0  0  0
   -0.8480   16.3503  -33.5979 H   0  0  0  0  0  0  0  0  0  0  0  0
    0.9364   16.5564  -33.5979 H   0  0  0  0  0  0  0  0  0  0  0  0
    1.8274   18.0540  -33.4071 H   0  0  0  0  0  0  0  0  0  0  0  0
    0.9553   19.5434  -33.8277 H   0  0  0  0  0  0  0  0  0  0  0  0
    2.3801   18.8155  -31.3237 H   0  0  0  0  0  0  0  0  0  0  0  0
    1.9559   20.4216  -31.9152 H   0  0  0  0  0  0  0  0  0  0  0  0
   -0.4029   21.1532  -30.0492 H   0  0  0  0  0  0  0  0  0  0  0  0
    0.4824   21.3759  -31.5962 H   0  0  0  0  0  0  0  0  0  0  0  0
   -1.1530   20.6328  -31.5962 H   0  0  0  0  0  0  0  0  0  0  0  0
    0.8614   18.2368  -29.2650 H   0  0  0  0  0  0  0  0  0  0  0  0
    1.8272   19.7931  -29.5222 H   0  0  0  0  0  0  0  0  0  0  0  0
    1.1819   21.8449  -28.5268 H   0  0  0  0  0  0  0  0  0  0  0  0
   -0.2972   22.8809  -26.8078 H   0  0  0  0  0  0  0  0  0  0  0  0
   -2.2170   21.6721  -25.8702 H   0  0  0  0  0  0  0  0  0  0  0  0
   -1.2639   18.3170  -28.3442 H   0  0  0  0  0  0  0  0  0  0  0  0
   -0.2839   17.4366  -30.7737 H   0  0  0  0  0  0  0  0  0  0  0  0
   -1.5157   18.6397  -31.2330 H   0  0  0  0  0  0  0  0  0  0  0  0
   -3.6037   19.4842  -33.4963 H   0  0  0  0  0  0  0  0  0  0  0  0
  1  2  1  0
  2  3  1  0
  3  4  1  0
  4  5  1  0
  3  6  1  0
  6  7  1  0
  7  8  1  0
  8  9  1  0
  9 10  2  0
 10 11  1  0
 11 12  2  0
 12 13  1  0
 13 14  2  0
 14 15  1  0
 15 16  2  0
 16 17  1  0
 16 18  1  0
 18 19  2  0
 19 20  1  0
 20 21  2  0
 21 22  1  0
 22 23  1  0
 23 24  1  0
 25 24  1  6
 25 26  1  0
 25 27  1  0
 27 28  1  0
 28 29  1  0
 29 30  1  1
 29 31  1  0
 31 32  1  0
 32 33  2  0
 33 34  1  0
 34 35  2  0
 35 36  1  0
 36 37  1  0
 36 38  2  0
 29 39  1  0
 21 40  1  0
 40 41  2  0
 41  9  1  0
 15 10  1  0
 41 18  1  0
 39 25  1  0
 38 32  1  0
  1 42  1  0
  1 43  1  0
  1 44  1  0
  2 45  1  0
  2 46  1  0
  4 47  1  0
  4 48  1  0
  5 49  1  0
  5 50  1  0
  5 51  1  0
  6 52  1  0
  6 53  1  0
  7 54  1  0
  7 55  1  0
  8 56  1  0
 11 57  1  0
 12 58  1  0
 13 59  1  0
 14 60  1  0
 17 61  1  0
 17 62  1  0
 17 63  1  0
 19 64  1  0
 20 65  1  0
 23 66  1  0
 23 67  1  0
 24 68  1  0
 24 69  1  0
 26 70  1  0
 26 71  1  0
 26 72  1  0
 27 73  1  0
 27 74  1  0
 28 75  1  0
 28 76  1  0
 30 77  1  0
 30 78  1  0
 30 79  1  0
 31 80  1  0
 31 81  1  0
 33 82  1  0
 34 83  1  0
 35 84  1  0
 38 85  1  0
 39 86  1  0
 39 87  1  0
 40 88  1  0
M  CHG  3  16   1  25   1  29   1
M  END
>  <smiles>  (23) 
CCN(CC)CCNc1c2ccccc2[n+](C)c2ccc(OCC[N+]3(C)CC[N+](C)(Cc4cccc(Br)c4)C3)cc12

>  <score_type>  (23) 
oracle

>  <origin>  (23) 
adg

>  <m_score__min__energy>  (23) 
-10.08

>  <m_primary>  (23) 
energy

$$$$
24:0
     RDKit          3D

 46 48  0  0  0  0  0  0  0  0999 V2000
   -9.1150   20.3080  -32.6820 C   0  0  0  0  0  0  0  0  0  0  0  0
   -7.8730   20.9820  -32.2430 C   0  0  0  0  0  0  0  0  0  0  0  0
   -6.6410   20.4640  -32.4990 C   0  0  0  0  0  0  0  0  0  0  0  0
   -6.3180   19.2220  -33.1400 C   0  0  0  0  0  0  0  0  0  0  0  0
   -6.6240   18.0530  -32.4320 C   0  0  0  0  0  0  0  0  0  0  0  0
   -6.4070   16.7970  -32.9530 C   0  0  0  0  0  0  0  0  0  0  0  0
   -5.8730   16.6310  -34.2060 C   0  0  0  0  0  0  0  0  0  0  0  0
   -5.5650   17.7450  -34.9230 C   0  0  0  0  0  0  0  0  0  0  0  0
   -5.7900   19.0200  -34.3820 C   0  0  0  0  0  0  0  0  0  0  0  0
   -5.6070   21.2110  -32.1030 O   0  0  0  0  0  0  0  0  0  0  0  0
   -5.7260   22.3630  -31.5070 C   0  0  0  0  0  0  0  0  0  0  0  0
   -4.5850   23.0390  -31.1470 C   0  0  0  0  0  0  0  0  0  0  0  0
   -3.3410   22.5510  -31.3930 F   0  0  0  0  0  0  0  0  0  0  0  0
   -4.6610   24.2660  -30.5110 C   0  0  0  0  0  0  0  0  0  0  0  0
   -3.4770   24.9870  -30.1260 N   0  0  0  0  0  0  0  0  0  0  0  0
   -2.8300   24.7830  -28.8450 C   0  0  0  0  0  0  0  0  0  0  0  0
   -3.2550   23.4290  -28.3280 C   0  0  0  0  0  0  0  0  0  0  0  0
   -2.2090   22.4470  -28.4170 N   0  0  0  0  0  0  0  0  0  0  0  0
   -1.1660   22.8360  -29.3490 C   0  0  0  0  0  0  0  0  0  0  0  0
   -2.6910   21.1140  -28.6590 C   0  0  0  0  0  0  0  0  0  0  0  0
   -5.9080   24.8070  -30.2380 C   0  0  0  0  0  0  0  0  0  0  0  0
   -6.0680   26.0060  -29.6210 F   0  0  0  0  0  0  0  0  0  0  0  0
   -7.0820   24.1500  -30.5890 C   0  0  0  0  0  0  0  0  0  0  0  0
   -6.9450   22.9330  -31.2210 C   0  0  0  0  0  0  0  0  0  0  0  0
   -8.0600   22.2190  -31.6020 C   0  0  0  0  0  0  0  0  0  0  0  0
   -9.2020   22.6670  -31.3800 O   0  0  0  0  0  0  0  0  0  0  0  0
   -9.6932   19.9942  -31.8004 H   0  0  0  0  0  0  0  0  0  0  0  0
   -9.7159   21.0038  -33.2860 H   0  0  0  0  0  0  0  0  0  0  0  0
   -8.8592   19.4250  -33.2860 H   0  0  0  0  0  0  0  0  0  0  0  0
   -7.0533   18.1414  -31.4231 H   0  0  0  0  0  0  0  0  0  0  0  0
   -6.6662   15.9114  -32.3543 H   0  0  0  0  0  0  0  0  0  0  0  0
   -5.6991   15.6263  -34.6186 H   0  0  0  0  0  0  0  0  0  0  0  0
   -5.1375   17.6460  -35.9317 H   0  0  0  0  0  0  0  0  0  0  0  0
   -5.5280   19.8995  -34.9886 H   0  0  0  0  0  0  0  0  0  0  0  0
   -3.1080   25.6680  -30.8270 H   0  0  0  0  0  0  0  0  0  0  0  0
   -1.7373   24.8112  -28.9682 H   0  0  0  0  0  0  0  0  0  0  0  0
   -3.1178   25.5741  -28.1370 H   0  0  0  0  0  0  0  0  0  0  0  0
   -3.5517   23.5323  -27.2738 H   0  0  0  0  0  0  0  0  0  0  0  0
   -4.0902   23.0819  -28.9540 H   0  0  0  0  0  0  0  0  0  0  0  0
   -0.2788   23.1669  -28.7892 H   0  0  0  0  0  0  0  0  0  0  0  0
   -0.9006   21.9764  -29.9820 H   0  0  0  0  0  0  0  0  0  0  0  0
   -1.5283   23.6594  -29.9820 H   0  0  0  0  0  0  0  0  0  0  0  0
   -2.8733   20.6100  -27.6984 H   0  0  0  0  0  0  0  0  0  0  0  0
   -3.6289   21.1616  -29.2319 H   0  0  0  0  0  0  0  0  0  0  0  0
   -1.9396   20.5508  -29.2319 H   0  0  0  0  0  0  0  0  0  0  0  0
   -8.0711   24.5802  -30.3730 H   0  0  0  0  0  0  0  0  0  0  0  0
  1  2  1  0
  2  3  2  0
  3  4  1  0
  4  5  2  0
  5  6  1  0
  6  7  2  0
  7  8  1  0
  8  9  2  0
  3 10  1  0
 10 11  1  0
 11 12  2  0
 12 13  1  0
 12 14  1  0
 14 15  1  0
 15 16  1  0
 16 17  1  0
 17 18  1  0
 18 19  1  0
 18 20  1  0
 14 21  2  0
 21 22  1  0
 21 23  1  0
 23 24  2  0
 24 25  1  0
 25 26  2  0
 25  2  1  0
  9  4  1  0
 24 11  1  0
  1 27  1  0
  1 28  1  0
  1 29  1  0
  5 30  1  0
  6 31  1  0
  7 32  1  0
  8 33  1  0
  9 34  1  0
 15 35  1  0
 16 36  1  0
 16 37  1  0
 17 38  1  0
 17 39  1  0
 19 40  1  0
 19 41  1  0
 19 42  1  0
 20 43  1  0
 20 44  1  0
 20 45  1  0
 23 46  1  0
M  END
>  <smiles>  (24) 
Cc1c(-c2ccccc2)oc2c(F)c(NCCN(C)C)c(F)cc2c1=O

>  <score_type>  (24) 
oracle

>  <origin>  (24) 
adg

>  <m_score__min__energy>  (24) 
-9.4199999999999999

>  <m_primary>  (24) 
energy

$$$$
25:0
     RDKit          3D

 54 56  0  0  0  0  0  0  0  0999 V2000
   -4.2210   22.8900  -28.4540 C   0  0  0  0  0  0  0  0  0  0  0  0
   -5.2690   23.0820  -29.5240 C   0  0  0  0  0  0  0  0  0  0  0  0
   -4.7040   23.6540  -30.6760 N   0  0  0  0  0  0  0  0  0  0  0  0
   -4.9230   25.0710  -30.8290 C   0  0  0  0  0  0  0  0  0  0  0  0
   -6.1200   25.4440  -29.9410 C   0  0  0  0  0  0  0  0  0  0  0  0
   -3.5070   23.1640  -31.2070 C   0  0  0  0  0  0  0  0  0  0  0  0
   -3.5040   22.0180  -32.1410 C   0  0  0  0  0  0  0  0  0  0  0  0
   -4.6630   21.8400  -32.9690 N   0  0  0  0  0  0  0  0  0  0  0  0
   -5.6970   20.8950  -32.7070 C   0  0  0  0  0  0  0  0  0  0  0  0
   -6.9450   21.4390  -32.3910 C   0  0  0  0  0  0  0  0  0  0  0  0
   -7.1000   22.8150  -32.3410 C   0  0  0  0  0  0  0  0  0  0  0  0
   -8.3050   23.4080  -32.0290 C   0  0  0  0  0  0  0  0  0  0  0  0
   -9.3670   22.5710  -31.7670 C   0  0  0  0  0  0  0  0  0  0  0  0
   -9.2100   21.2050  -31.8180 C   0  0  0  0  0  0  0  0  0  0  0  0
   -8.0080   20.5890  -32.1290 C   0  0  0  0  0  0  0  0  0  0  0  0
   -7.8760   19.2390  -32.1700 N   0  0  0  0  0  0  0  0  0  0  0  0
   -9.0150   18.3780  -31.9160 C   0  0  0  0  0  0  0  0  0  0  0  0
   -6.6560   18.7210  -32.4770 C   0  0  0  0  0  0  0  0  0  0  0  0
   -6.4360   17.3620  -32.5290 C   0  0  0  0  0  0  0  0  0  0  0  0
   -5.2050   16.8010  -32.8320 C   0  0  0  0  0  0  0  0  0  0  0  0
   -5.0500   15.3270  -32.8620 C   0  0  0  0  0  0  0  0  0  0  0  0
   -4.9560   14.7250  -31.5740 N   0  0  0  0  0  0  0  0  0  0  0  0
   -4.1730   17.6480  -33.0880 C   0  0  0  0  0  0  0  0  0  0  0  0
   -4.3140   19.0300  -33.0540 C   0  0  0  0  0  0  0  0  0  0  0  0
   -5.5630   19.5450  -32.7470 C   0  0  0  0  0  0  0  0  0  0  0  0
   -4.6894   22.9758  -27.4624 H   0  0  0  0  0  0  0  0  0  0  0  0
   -3.7669   21.8937  -28.5601 H   0  0  0  0  0  0  0  0  0  0  0  0
   -3.4432   23.6606  -28.5601 H   0  0  0  0  0  0  0  0  0  0  0  0
   -5.7044   22.1054  -29.7822 H   0  0  0  0  0  0  0  0  0  0  0  0
   -6.0473   23.7574  -29.1393 H   0  0  0  0  0  0  0  0  0  0  0  0
   -4.0292   25.6271  -30.5099 H   0  0  0  0  0  0  0  0  0  0  0  0
   -5.1231   25.3240  -31.8807 H   0  0  0  0  0  0  0  0  0  0  0  0
   -5.8334   25.3547  -28.8828 H   0  0  0  0  0  0  0  0  0  0  0  0
   -6.4246   26.4797  -30.1522 H   0  0  0  0  0  0  0  0  0  0  0  0
   -6.9590   24.7647  -30.1522 H   0  0  0  0  0  0  0  0  0  0  0  0
   -3.0336   24.0026  -31.7386 H   0  0  0  0  0  0  0  0  0  0  0  0
   -2.9967   22.7573  -30.3215 H   0  0  0  0  0  0  0  0  0  0  0  0
   -2.6371   22.1373  -32.8075 H   0  0  0  0  0  0  0  0  0  0  0  0
   -3.4790   21.1278  -31.4953 H   0  0  0  0  0  0  0  0  0  0  0  0
   -4.7950   22.4200  -33.8270 H   0  0  0  0  0  0  0  0  0  0  0  0
   -6.2325   23.4558  -32.5575 H   0  0  0  0  0  0  0  0  0  0  0  0
   -8.4135   24.5020  -31.9910 H   0  0  0  0  0  0  0  0  0  0  0  0
  -10.3488   22.9981  -31.5149 H   0  0  0  0  0  0  0  0  0  0  0  0
  -10.0818   20.5703  -31.6012 H   0  0  0  0  0  0  0  0  0  0  0  0
   -9.1581   18.2698  -30.8307 H   0  0  0  0  0  0  0  0  0  0  0  0
   -9.9170   18.8220  -32.3623 H   0  0  0  0  0  0  0  0  0  0  0  0
   -8.8338   17.3891  -32.3623 H   0  0  0  0  0  0  0  0  0  0  0  0
   -7.2797   16.6880  -32.3195 H   0  0  0  0  0  0  0  0  0  0  0  0
   -5.9204   14.8987  -33.3807 H   0  0  0  0  0  0  0  0  0  0  0  0
   -4.1018   15.1185  -33.3792 H   0  0  0  0  0  0  0  0  0  0  0  0
   -5.3860   15.2160  -30.7860 H   0  0  0  0  0  0  0  0  0  0  0  0
   -4.0680   14.2260  -31.3920 H   0  0  0  0  0  0  0  0  0  0  0  0
   -3.1881   17.2229  -33.3315 H   0  0  0  0  0  0  0  0  0  0  0  0
   -3.4620   19.6933  -33.2639 H   0  0  0  0  0  0  0  0  0  0  0  0
  1  2  1  0
  2  3  1  0
  3  4  1  0
  4  5  1  0
  3  6  1  0
  6  7  1  0
  7  8  1  0
  8  9  1  0
  9 10  2  0
 10 11  1  0
 11 12  2  0
 12 13  1  0
 13 14  2  0
 14 15  1  0
 15 16  2  0
 16 17  1  0
 16 18  1  0
 18 19  2  0
 19 20  1  0
 20 21  1  0
 21 22  1  0
 20 23  2  0
 23 24  1  0
 24 25  2  0
 25  9  1  0
 15 10  1  0
 25 18  1  0
  1 26  1  0
  1 27  1  0
  1 28  1  0
  2 29  1  0
  2 30  1  0
  4 31  1  0
  4 32  1  0
  5 33  1  0
  5 34  1  0
  5 35  1  0
  6 36  1  0
  6 37  1  0
  7 38  1  0
  7 39  1  0
  8 40  1  0
 11 41  1  0
 12 42  1  0
 13 43  1  0
 14 44  1  0
 17 45  1  0
 17 46  1  0
 17 47  1  0
 19 48  1  0
 21 49  1  0
 21 50  1  0
 22 51  1  0
 22 52  1  0
 23 53  1  0
 24 54  1  0
M  CHG  1  16   1
M  END
>  <smiles>  (25) 
CCN(CC)CCNc1c2ccccc2[n+](C)c2cc(CN)ccc12

>  <score_type>  (25) 
oracle

>  <origin>  (25) 
adg

>  <m_score__min__energy>  (25) 
-8.3800000000000008

>  <m_primary>  (25) 
energy

$$$$
26:0
     RDKit          3D

 60 62  0  0  0  0  0  0  0  0999 V2000
   -0.6700   20.9110  -30.6380 C   0  0  0  0  0  0  0  0  0  0  0  0
   -1.1210   22.3050  -30.4040 C   0  0  0  0  0  0  0  0  0  0  0  0
   -2.4390   22.4750  -29.8460 N   0  0  0  0  0  0  0  0  0  0  0  0
   -2.9840   21.3370  -29.2470 C   0  0  0  0  0  0  0  0  0  0  0  0
   -2.7240   21.2360  -27.7580 C   0  0  0  0  0  0  0  0  0  0  0  0
   -2.4990   23.7380  -29.2370 C   0  0  0  0  0  0  0  0  0  0  0  0
   -3.7350   24.5510  -29.3280 C   0  0  0  0  0  0  0  0  0  0  0  0
   -3.9220   25.2450  -30.5060 O   0  0  0  0  0  0  0  0  0  0  0  0
   -5.2720   25.2810  -30.8480 C   0  0  0  0  0  0  0  0  0  0  0  0
   -5.7520   24.0840  -31.5790 C   0  0  0  0  0  0  0  0  0  0  0  0
   -5.1820   22.8180  -31.1920 N   0  0  0  0  0  0  0  0  0  0  0  0
   -5.5030   21.5740  -31.7990 C   0  0  0  0  0  0  0  0  0  0  0  0
   -6.7910   21.1100  -31.6010 C   0  0  0  0  0  0  0  0  0  0  0  0
   -7.2440   19.9150  -32.1470 C   0  0  0  0  0  0  0  0  0  0  0  0
   -6.4050   19.1820  -32.8920 N   0  0  0  0  0  0  0  0  0  0  0  0
   -6.7860   17.9250  -33.4920 C   0  0  0  0  0  0  0  0  0  0  0  0
   -5.1300   19.6250  -33.0990 C   0  0  0  0  0  0  0  0  0  0  0  0
   -4.2400   18.9090  -33.8700 C   0  0  0  0  0  0  0  0  0  0  0  0
   -2.9400   19.3330  -34.1130 C   0  0  0  0  0  0  0  0  0  0  0  0
   -2.5100   20.5310  -33.5590 C   0  0  0  0  0  0  0  0  0  0  0  0
   -3.3890   21.2590  -32.7850 C   0  0  0  0  0  0  0  0  0  0  0  0
   -4.6680   20.8100  -32.5630 C   0  0  0  0  0  0  0  0  0  0  0  0
   -8.6530   19.5630  -31.8630 C   0  0  0  0  0  0  0  0  0  0  0  0
   -9.4500   20.8150  -32.2860 C   0  0  0  0  0  0  0  0  0  0  0  0
   -9.1180   21.9680  -31.4000 C   0  0  0  0  0  0  0  0  0  0  0  0
   -7.7570   21.8980  -30.7650 C   0  0  0  0  0  0  0  0  0  0  0  0
   -0.5082   20.4109  -29.6717 H   0  0  0  0  0  0  0  0  0  0  0  0
   -1.4383   20.3678  -31.2079 H   0  0  0  0  0  0  0  0  0  0  0  0
    0.2708   20.9208  -31.2079 H   0  0  0  0  0  0  0  0  0  0  0  0
   -0.4043   22.7757  -29.7150 H   0  0  0  0  0  0  0  0  0  0  0  0
   -1.1689   22.7642  -31.4024 H   0  0  0  0  0  0  0  0  0  0  0  0
   -4.0722   21.3499  -29.4074 H   0  0  0  0  0  0  0  0  0  0  0  0
   -2.4956   20.4687  -29.7135 H   0  0  0  0  0  0  0  0  0  0  0  0
   -3.6113   21.5807  -27.2067 H   0  0  0  0  0  0  0  0  0  0  0  0
   -2.5112   20.1898  -27.4931 H   0  0  0  0  0  0  0  0  0  0  0  0
   -1.8608   21.8642  -27.4931 H   0  0  0  0  0  0  0  0  0  0  0  0
   -2.2999   23.5831  -28.1663 H   0  0  0  0  0  0  0  0  0  0  0  0
   -1.7680   24.3277  -29.8097 H   0  0  0  0  0  0  0  0  0  0  0  0
   -4.5923   23.8743  -29.1974 H   0  0  0  0  0  0  0  0  0  0  0  0
   -3.6409   25.3186  -28.5457 H   0  0  0  0  0  0  0  0  0  0  0  0
   -5.8587   25.3768  -29.9225 H   0  0  0  0  0  0  0  0  0  0  0  0
   -5.4002   26.1359  -31.5282 H   0  0  0  0  0  0  0  0  0  0  0  0
   -6.8403   24.0183  -31.4329 H   0  0  0  0  0  0  0  0  0  0  0  0
   -5.4371   24.2363  -32.6219 H   0  0  0  0  0  0  0  0  0  0  0  0
   -4.4620   22.7370  -30.4020 H   0  0  0  0  0  0  0  0  0  0  0  0
   -7.0077   17.1934  -32.7010 H   0  0  0  0  0  0  0  0  0  0  0  0
   -7.6798   18.0725  -34.1160 H   0  0  0  0  0  0  0  0  0  0  0  0
   -5.9607   17.5515  -34.1160 H   0  0  0  0  0  0  0  0  0  0  0  0
   -4.5742   17.9591  -34.3128 H   0  0  0  0  0  0  0  0  0  0  0  0
   -2.2621   18.7293  -34.7343 H   0  0  0  0  0  0  0  0  0  0  0  0
   -1.4862   20.8932  -33.7343 H   0  0  0  0  0  0  0  0  0  0  0  0
   -3.0621   22.2104  -32.3402 H   0  0  0  0  0  0  0  0  0  0  0  0
   -8.9622   18.6867  -32.4516 H   0  0  0  0  0  0  0  0  0  0  0  0
   -8.8159   19.2970  -30.8082 H   0  0  0  0  0  0  0  0  0  0  0  0
   -9.1964   21.0719  -33.3251 H   0  0  0  0  0  0  0  0  0  0  0  0
  -10.5251   20.5985  -32.2012 H   0  0  0  0  0  0  0  0  0  0  0  0
   -9.1694   22.8881  -32.0006 H   0  0  0  0  0  0  0  0  0  0  0  0
   -9.8474   21.9486  -30.5768 H   0  0  0  0  0  0  0  0  0  0  0  0
   -7.3691   22.9198  -30.6409 H   0  0  0  0  0  0  0  0  0  0  0  0
   -7.8590   21.3928  -29.7932 H   0  0  0  0  0  0  0  0  0  0  0  0
  1  2  1  0
  2  3  1  0
  3  4  1  0
  4  5  1  0
  3  6  1  0
  6  7  1  0
  7  8  1  0
  8  9  1  0
  9 10  1  0
 10 11  1  0
 11 12  1  0
 12 13  2  0
 13 14  1  0
 14 15  2  0
 15 16  1  0
 15 17  1  0
 17 18  2  0
 18 19  1  0
 19 20  2  0
 20 21  1  0
 21 22  2  0
 14 23  1  0
 23 24  1  0
 24 25  1  0
 25 26  1  0
 22 12  1  0
 26 13  1  0
 22 17  1  0
  1 27  1  0
  1 28  1  0
  1 29  1  0
  2 30  1  0
  2 31  1  0
  4 32  1  0
  4 33  1  0
  5 34  1  0
  5 35  1  0
  5 36  1  0
  6 37  1  0
  6 38  1  0
  7 39  1  0
  7 40  1  0
  9 41  1  0
  9 42  1  0
 10 43  1  0
 10 44  1  0
 11 45  1  0
 16 46  1  0
 16 47  1  0
 16 48  1  0
 18 49  1  0
 19 50  1  0
 20 51  1  0
 21 52  1  0
 23 53  1  0
 23 54  1  0
 24 55  1  0
 24 56  1  0
 25 57  1  0
 25 58  1  0
 26 59  1  0
 26 60  1  0
M  CHG  1  15   1
M  END
>  <smiles>  (26) 
CCN(CC)CCOCCNc1c2c([n+](C)c3ccccc13)CCCC2

>  <score_type>  (26) 
oracle

>  <origin>  (26) 
adg

>  <m_score__min__energy>  (26) 
-9.1899999999999995

>  <m_primary>  (26) 
energy

$$$$
27:0
     RDKit          3D

 56 57  0  0  0  0  0  0  0  0999 V2000
   -2.6930   24.4510  -29.2380 C   0  0  0  0  0  0  0  0  0  0  0  0
   -3.9670   23.6790  -29.4210 C   0  0  0  0  0  0  0  0  0  0  0  0
   -4.6560   23.9010  -30.6120 N   0  0  0  0  0  0  0  0  0  0  0  0
   -5.1910   25.2020  -30.7490 C   0  0  0  0  0  0  0  0  0  0  0  0
   -6.1640   25.6090  -29.6550 C   0  0  0  0  0  0  0  0  0  0  0  0
   -4.6060   23.0500  -31.7090 C   0  0  0  0  0  0  0  0  0  0  0  0
   -3.4800   22.0250  -31.5340 C   0  0  0  0  0  0  0  0  0  0  0  0
   -2.7280   21.9150  -32.6820 O   0  0  0  0  0  0  0  0  0  0  0  0
   -1.6150   21.1160  -32.4980 C   0  0  0  0  0  0  0  0  0  0  0  0
   -1.8010   19.8640  -33.3280 C   0  0  0  0  0  0  0  0  0  0  0  0
   -3.0080   19.7550  -33.9530 O   0  0  0  0  0  0  0  0  0  0  0  0
   -3.9250   18.9050  -33.3940 C   0  0  0  0  0  0  0  0  0  0  0  0
   -5.2210   18.9520  -34.2100 C   0  0  0  0  0  0  0  0  0  0  0  0
   -6.3710   18.8350  -33.3300 N   0  0  0  0  0  0  0  0  0  0  0  0
   -6.8970   17.6190  -33.0230 C   0  0  0  0  0  0  0  0  0  0  0  0
   -6.4180   16.2760  -33.4840 C   0  0  0  0  0  0  0  0  0  0  0  0
   -7.9870   17.7810  -32.1830 C   0  0  0  0  0  0  0  0  0  0  0  0
   -8.0880   19.1510  -32.0040 C   0  0  0  0  0  0  0  0  0  0  0  0
   -9.0070   19.8590  -31.2590 C   0  0  0  0  0  0  0  0  0  0  0  0
   -8.8760   21.2350  -31.2590 C   0  0  0  0  0  0  0  0  0  0  0  0
   -7.8660   21.8830  -31.9750 C   0  0  0  0  0  0  0  0  0  0  0  0
   -7.8010   23.3860  -31.9150 C   0  0  0  0  0  0  0  0  0  0  0  0
   -6.9580   21.1540  -32.7140 C   0  0  0  0  0  0  0  0  0  0  0  0
   -7.0880   19.7850  -32.7140 C   0  0  0  0  0  0  0  0  0  0  0  0
   -2.4899   24.5741  -28.1639 H   0  0  0  0  0  0  0  0  0  0  0  0
   -1.8622   23.9042  -29.7080 H   0  0  0  0  0  0  0  0  0  0  0  0
   -2.7931   25.4405  -29.7080 H   0  0  0  0  0  0  0  0  0  0  0  0
   -3.7206   22.6081  -29.3706 H   0  0  0  0  0  0  0  0  0  0  0  0
   -4.6392   24.0274  -28.6230 H   0  0  0  0  0  0  0  0  0  0  0  0
   -4.3555   25.9175  -30.7476 H   0  0  0  0  0  0  0  0  0  0  0  0
   -5.7627   25.2045  -31.6888 H   0  0  0  0  0  0  0  0  0  0  0  0
   -5.7100   25.4191  -28.6712 H   0  0  0  0  0  0  0  0  0  0  0  0
   -6.3966   26.6798  -29.7509 H   0  0  0  0  0  0  0  0  0  0  0  0
   -7.0898   25.0227  -29.7509 H   0  0  0  0  0  0  0  0  0  0  0  0
   -5.5664   22.5220  -31.8031 H   0  0  0  0  0  0  0  0  0  0  0  0
   -4.4129   23.6436  -32.6147 H   0  0  0  0  0  0  0  0  0  0  0  0
   -2.8288   22.3442  -30.7070 H   0  0  0  0  0  0  0  0  0  0  0  0
   -3.9298   21.0453  -31.3154 H   0  0  0  0  0  0  0  0  0  0  0  0
   -0.7118   21.6514  -32.8259 H   0  0  0  0  0  0  0  0  0  0  0  0
   -1.4990   20.8582  -31.4350 H   0  0  0  0  0  0  0  0  0  0  0  0
   -1.0162   19.8470  -34.0986 H   0  0  0  0  0  0  0  0  0  0  0  0
   -1.7447   19.0205  -32.6242 H   0  0  0  0  0  0  0  0  0  0  0  0
   -3.5257   17.8800  -33.3969 H   0  0  0  0  0  0  0  0  0  0  0  0
   -4.1300   19.2130  -32.3581 H   0  0  0  0  0  0  0  0  0  0  0  0
   -5.2743   19.9072  -34.7530 H   0  0  0  0  0  0  0  0  0  0  0  0
   -5.2274   18.1145  -34.9231 H   0  0  0  0  0  0  0  0  0  0  0  0
   -6.1936   15.6469  -32.6100 H   0  0  0  0  0  0  0  0  0  0  0  0
   -7.2003   15.7959  -34.0902 H   0  0  0  0  0  0  0  0  0  0  0  0
   -5.5084   16.3994  -34.0902 H   0  0  0  0  0  0  0  0  0  0  0  0
   -8.6286   16.9971  -31.7542 H   0  0  0  0  0  0  0  0  0  0  0  0
   -9.8041   19.3544  -30.6933 H   0  0  0  0  0  0  0  0  0  0  0  0
   -9.5886   21.8384  -30.6776 H   0  0  0  0  0  0  0  0  0  0  0  0
   -7.7870   23.7107  -30.8641 H   0  0  0  0  0  0  0  0  0  0  0  0
   -6.8870   23.7339  -32.4185 H   0  0  0  0  0  0  0  0  0  0  0  0
   -8.6816   23.8115  -32.4185 H   0  0  0  0  0  0  0  0  0  0  0  0
   -6.1581   21.6501  -33.2833 H   0  0  0  0  0  0  0  0  0  0  0  0
  1  2  1  0
  2  3  1  0
  3  4  1  0
  4  5  1  0
  3  6  1  0
  6  7  1  0
  7  8  1  0
  8  9  1  0
  9 10  1  0
 10 11  1  0
 11 12  1  0
 12 13  1  0
 13 14  1  0
 14 15  1  0
 15 16  1  0
 15 17  2  0
 17 18  1  0
 18 19  2  0
 19 20  1  0
 20 21  2  0
 21 22  1  0
 21 23  1  0
 23 24  2  0
 24 14  1  0
 24 18  1  0
  1 25  1  0
  1 26  1  0
  1 27  1  0
  2 28  1  0
  2 29  1  0
  4 30  1  0
  4 31  1  0
  5 32  1  0
  5 33  1  0
  5 34  1  0
  6 35  1  0
  6 36  1  0
  7 37  1  0
  7 38  1  0
  9 39  1  0
  9 40  1  0
 10 41  1  0
 10 42  1  0
 12 43  1  0
 12 44  1  0
 13 45  1  0
 13 46  1  0
 16 47  1  0
 16 48  1  0
 16 49  1  0
 17 50  1  0
 19 51  1  0
 20 52  1  0
 22 53  1  0
 22 54  1  0
 22 55  1  0
 23 56  1  0
M  END
>  <smiles>  (27) 
CCN(CC)CCOCCOCCn1c(C)cc2ccc(C)cc21

>  <score_type>  (27) 
oracle

>  <origin>  (27) 
adg

>  <m_score__min__energy>  (27) 
-8.0800000000000001

>  <m_primary>  (27) 
energy

$$$$
