0:0
     RDKit          3D

 44 47  0  0  0  0  0  0  0  0999 V2000
   -6.4880   24.9510  -30.1150 C   0  0  0  0  0  0  0  0  0  0  0  0
   -5.1580   24.7990  -30.8430 C   0  0  0  0  0  0  0  0  0  0  0  0
   -4.4980   23.5480  -30.4490 N   0  0  0  0  0  0  0  0  0  0  0  0
   -4.1220   23.2050  -29.1940 C   0  0  0  0  0  0  0  0  0  0  0  0
   -4.2360   24.0910  -27.9910 C   0  0  0  0  0  0  0  0  0  0  0  0
   -3.6010   21.9260  -29.1800 C   0  0  0  0  0  0  0  0  0  0  0  0
   -3.6760   21.4580  -30.4750 C   0  0  0  0  0  0  0  0  0  0  0  0
   -4.2370   22.4720  -31.2310 C   0  0  0  0  0  0  0  0  0  0  0  0
   -4.4830   22.3780  -32.7140 C   0  0  0  0  0  0  0  0  0  0  0  0
   -5.5430   21.4090  -32.9960 N   0  0  0  0  0  0  0  0  0  0  0  0
   -5.3590   20.0100  -33.2420 C   0  0  0  0  0  0  0  0  0  0  0  0
   -4.2160   19.4490  -33.4880 N   0  0  0  0  0  0  0  0  0  0  0  0
   -4.0700   17.9870  -33.5100 C   0  0  0  0  0  0  0  0  0  0  0  0
   -5.3950   17.2650  -33.8510 C   0  0  0  0  0  0  0  0  0  0  0  0
   -6.5480   17.7930  -32.9820 C   0  0  0  0  0  0  0  0  0  0  0  0
   -6.5390   19.2470  -33.0430 N   0  0  0  0  0  0  0  0  0  0  0  0
   -7.4650   20.1960  -32.5360 C   0  0  0  0  0  0  0  0  0  0  0  0
   -8.7590   19.9680  -32.0710 C   0  0  0  0  0  0  0  0  0  0  0  0
   -9.4880   21.0680  -31.5860 C   0  0  0  0  0  0  0  0  0  0  0  0
   -8.9110   22.3570  -31.5690 C   0  0  0  0  0  0  0  0  0  0  0  0
   -7.5990   22.5580  -32.0350 C   0  0  0  0  0  0  0  0  0  0  0  0
   -6.8940   21.4530  -32.5160 C   0  0  0  0  0  0  0  0  0  0  0  0
   -6.3158   24.9313  -29.0287 H   0  0  0  0  0  0  0  0  0  0  0  0
   -6.9522   25.9080  -30.3954 H   0  0  0  0  0  0  0  0  0  0  0  0
   -7.1561   24.1234  -30.3954 H   0  0  0  0  0  0  0  0  0  0  0  0
   -5.3382   24.7874  -31.9281 H   0  0  0  0  0  0  0  0  0  0  0  0
   -4.5071   25.6447  -30.5765 H   0  0  0  0  0  0  0  0  0  0  0  0
   -4.1576   23.4820  -27.0783 H   0  0  0  0  0  0  0  0  0  0  0  0
   -3.4262   24.8353  -28.0058 H   0  0  0  0  0  0  0  0  0  0  0  0
   -5.2078   24.6061  -28.0058 H   0  0  0  0  0  0  0  0  0  0  0  0
   -3.2042   21.3866  -28.3073 H   0  0  0  0  0  0  0  0  0  0  0  0
   -3.3527   20.4707  -30.8366 H   0  0  0  0  0  0  0  0  0  0  0  0
   -4.7840   23.3652  -33.0946 H   0  0  0  0  0  0  0  0  0  0  0  0
   -3.5576   22.0478  -33.2085 H   0  0  0  0  0  0  0  0  0  0  0  0
   -3.3173   17.7189  -34.2660 H   0  0  0  0  0  0  0  0  0  0  0  0
   -3.7637   17.6662  -32.5034 H   0  0  0  0  0  0  0  0  0  0  0  0
   -5.6356   17.4357  -34.9107 H   0  0  0  0  0  0  0  0  0  0  0  0
   -5.2701   16.1902  -33.6532 H   0  0  0  0  0  0  0  0  0  0  0  0
   -7.5063   17.4109  -33.3637 H   0  0  0  0  0  0  0  0  0  0  0  0
   -6.4227   17.4570  -31.9421 H   0  0  0  0  0  0  0  0  0  0  0  0
   -9.1963   18.9587  -32.0831 H   0  0  0  0  0  0  0  0  0  0  0  0
  -10.5143   20.9238  -31.2174 H   0  0  0  0  0  0  0  0  0  0  0  0
   -9.4919   23.2101  -31.1885 H   0  0  0  0  0  0  0  0  0  0  0  0
   -7.1412   23.5581  -32.0208 H   0  0  0  0  0  0  0  0  0  0  0  0
  1  2  1  0
  2  3  1  0
  3  4  1  0
  4  5  1  0
  4  6  2  0
  6  7  1  0
  7  8  2  0
  8  9  1  0
  9 10  1  0
 10 11  1  0
 11 12  2  0
 12 13  1  0
 13 14  1  0
 14 15  1  0
 15 16  1  0
 16 17  1  0
 17 18  2  0
 18 19  1  0
 19 20  2  0
 20 21  1  0
 21 22  2  0
  8  3  1  0
 22 10  1  0
 16 11  1  0
 22 17  1  0
  1 23  1  0
  1 24  1  0
  1 25  1  0
  2 26  1  0
  2 27  1  0
  5 28  1  0
  5 29  1  0
  5 30  1  0
  6 31  1  0
  7 32  1  0
  9 33  1  0
  9 34  1  0
 13 35  1  0
 13 36  1  0
 14 37  1  0
 14 38  1  0
 15 39  1  0
 15 40  1  0
 18 41  1  0
 19 42  1  0
 20 43  1  0
 21 44  1  0
M  END
>  <UniqueID>  (1) 
1

>  <SMILES>  (1) 
CCn1c(C)ccc1CN1C2=NCCCN2c2ccccc21

>  <Energy>  (1) 
101.47403146671734

>  <Genealogy>  (1) 
CCn1c(C)ccc1CN1C2=NCCCN2c2ccccc21 (3D coordinates assigned)
CCn1c(C)ccc1CN1C2=NCCCN2c2ccccc21 (nonaromatic ring conformer: 101.47403146671734 kcal/mol)

>  <smiles>  (1) 
CCn1c(C)ccc1CN1C2=NCCCN2c2ccccc21

>  <score_type>  (1) 
oracle

>  <origin>  (1) 
adg

>  <m_score__min__energy>  (1) 
-7.7300000000000004

>  <m_primary>  (1) 
energy

$$$$
1:0
     RDKit          3D

 32 34  0  0  0  0  0  0  0  0999 V2000
   -2.3660   24.5290  -28.6790 C   0  0  0  0  0  0  0  0  0  0  0  0
   -3.1150   25.0560  -29.7700 O   0  0  0  0  0  0  0  0  0  0  0  0
   -4.2800   24.4710  -30.2870 C   0  0  0  0  0  0  0  0  0  0  0  0
   -5.4670   25.2120  -30.2500 C   0  0  0  0  0  0  0  0  0  0  0  0
   -6.6590   24.6790  -30.7500 C   0  0  0  0  0  0  0  0  0  0  0  0
   -6.6750   23.3850  -31.3000 C   0  0  0  0  0  0  0  0  0  0  0  0
   -7.8450   22.8020  -31.8110 C   0  0  0  0  0  0  0  0  0  0  0  0
   -8.9430   23.4220  -31.7920 O   0  0  0  0  0  0  0  0  0  0  0  0
   -7.7910   21.5120  -32.3440 C   0  0  0  0  0  0  0  0  0  0  0  0
   -6.5650   20.8230  -32.3610 C   0  0  0  0  0  0  0  0  0  0  0  0
   -6.4460   19.4510  -32.9140 C   0  0  0  0  0  0  0  0  0  0  0  0
   -5.8060   19.1990  -34.1430 C   0  0  0  0  0  0  0  0  0  0  0  0
   -5.7010   17.8950  -34.6340 C   0  0  0  0  0  0  0  0  0  0  0  0
   -6.2260   16.8210  -33.9030 C   0  0  0  0  0  0  0  0  0  0  0  0
   -6.1280   15.5180  -34.3840 O   0  0  0  0  0  0  0  0  0  0  0  0
   -6.8530   17.0600  -32.6770 C   0  0  0  0  0  0  0  0  0  0  0  0
   -6.9580   18.3640  -32.1820 C   0  0  0  0  0  0  0  0  0  0  0  0
   -5.4780   21.4080  -31.8580 O   0  0  0  0  0  0  0  0  0  0  0  0
   -5.4820   22.6330  -31.3410 C   0  0  0  0  0  0  0  0  0  0  0  0
   -4.2940   23.1740  -30.8370 C   0  0  0  0  0  0  0  0  0  0  0  0
   -2.8228   24.8504  -27.7314 H   0  0  0  0  0  0  0  0  0  0  0  0
   -2.3652   23.4303  -28.7316 H   0  0  0  0  0  0  0  0  0  0  0  0
   -1.3316   24.8993  -28.7316 H   0  0  0  0  0  0  0  0  0  0  0  0
   -5.4619   26.2255  -29.8225 H   0  0  0  0  0  0  0  0  0  0  0  0
   -7.5846   25.2722  -30.7131 H   0  0  0  0  0  0  0  0  0  0  0  0
   -8.6990   21.0394  -32.7467 H   0  0  0  0  0  0  0  0  0  0  0  0
   -5.3855   20.0352  -34.7209 H   0  0  0  0  0  0  0  0  0  0  0  0
   -5.2043   17.7109  -35.5981 H   0  0  0  0  0  0  0  0  0  0  0  0
   -5.2280   15.0770  -34.5370 H   0  0  0  0  0  0  0  0  0  0  0  0
   -7.2654   16.2196  -32.0993 H   0  0  0  0  0  0  0  0  0  0  0  0
   -7.4452   18.5412  -31.2118 H   0  0  0  0  0  0  0  0  0  0  0  0
   -3.3664   22.5837  -30.8704 H   0  0  0  0  0  0  0  0  0  0  0  0
  1  2  1  0
  2  3  1  0
  3  4  2  0
  4  5  1  0
  5  6  2  0
  6  7  1  0
  7  8  2  0
  7  9  1  0
  9 10  2  0
 10 11  1  0
 11 12  2  0
 12 13  1  0
 13 14  2  0
 14 15  1  0
 14 16  1  0
 16 17  2  0
 10 18  1  0
 18 19  1  0
 19 20  2  0
 20  3  1  0
 19  6  1  0
 17 11  1  0
  1 21  1  0
  1 22  1  0
  1 23  1  0
  4 24  1  0
  5 25  1  0
  9 26  1  0
 12 27  1  0
 13 28  1  0
 15 29  1  0
 16 30  1  0
 17 31  1  0
 20 32  1  0
M  END
>  <UniqueID>  (2) 
2

>  <SMILES>  (2) 
COc1ccc2c(=O)cc(-c3ccc(O)cc3)oc2c1

>  <Energy>  (2) 
42.490006867797426

>  <Genealogy>  (2) 
COc1ccc2c(=O)cc(-c3ccc(O)cc3)oc2c1 (3D coordinates assigned)
COc1ccc2c(=O)cc(-c3ccc(O)cc3)oc2c1 (optimized conformer: 42.490006867797426 kcal/mol)

>  <smiles>  (2) 
COc1ccc2c(=O)cc(-c3ccc(O)cc3)oc2c1

>  <score_type>  (2) 
oracle

>  <origin>  (2) 
adg

>  <m_score__min__energy>  (2) 
-7.75

>  <m_primary>  (2) 
energy

$$$$
2:0
     RDKit          3D

 50 53  0  0  0  0  0  0  0  0999 V2000
   -7.5230   19.1170  -32.6850 C   0  0  0  0  0  0  0  0  0  0  0  0
   -6.4030   20.0660  -32.7410 N   0  0  0  0  0  0  0  0  0  0  0  0
   -5.1910   19.6880  -33.4750 C   0  0  0  0  0  0  0  0  0  0  0  0
   -6.4960   21.3570  -32.0820 C   0  0  0  0  0  0  0  0  0  0  0  0
   -7.5790   22.2240  -32.3390 C   0  0  0  0  0  0  0  0  0  0  0  0
   -7.6670   23.4640  -31.7050 C   0  0  0  0  0  0  0  0  0  0  0  0
   -6.6790   23.8670  -30.8060 C   0  0  0  0  0  0  0  0  0  0  0  0
   -5.5860   23.0310  -30.5350 C   0  0  0  0  0  0  0  0  0  0  0  0
   -4.5380   23.4500  -29.5700 C   0  0  0  0  0  0  0  0  0  0  0  0
   -4.3170   22.7100  -28.4020 C   0  0  0  0  0  0  0  0  0  0  0  0
   -3.3670   23.0980  -27.5150 N   0  0  0  0  0  0  0  0  0  0  0  0
   -2.6010   24.2020  -27.7330 C   0  0  0  0  0  0  0  0  0  0  0  0
   -1.5950   24.5950  -26.7730 N   0  0  0  0  0  0  0  0  0  0  0  0
   -0.3100   23.8600  -26.7350 C   0  0  0  0  0  0  0  0  0  0  0  0
    0.8210   24.6820  -26.0810 C   0  0  0  0  0  0  0  0  0  0  0  0
    0.3270   25.3060  -24.8470 N   0  0  1  0  0  0  0  0  0  0  0  0
    1.3040   26.1240  -24.1260 C   0  0  0  0  0  0  0  0  0  0  0  0
    0.4860   27.1600  -23.3420 C   0  0  0  0  0  0  0  0  0  0  0  0
   -0.9360   27.0680  -23.9020 C   0  0  0  0  0  0  0  0  0  0  0  0
   -0.7540   26.2340  -25.1580 C   0  0  2  0  0  0  0  0  0  0  0  0
   -1.9800   25.4600  -25.6400 C   0  0  0  0  0  0  0  0  0  0  0  0
   -2.7920   24.9280  -28.8680 N   0  0  0  0  0  0  0  0  0  0  0  0
   -3.7320   24.5820  -29.7850 C   0  0  0  0  0  0  0  0  0  0  0  0
   -3.8550   25.2750  -30.8300 O   0  0  0  0  0  0  0  0  0  0  0  0
   -5.5040   21.7790  -31.1690 C   0  0  0  0  0  0  0  0  0  0  0  0
   -7.7724   18.9057  -31.6347 H   0  0  0  0  0  0  0  0  0  0  0  0
   -8.3982   19.5526  -33.1892 H   0  0  0  0  0  0  0  0  0  0  0  0
   -7.2370   18.1821  -33.1892 H   0  0  0  0  0  0  0  0  0  0  0  0
   -4.3924   19.4389  -32.7607 H   0  0  0  0  0  0  0  0  0  0  0  0
   -5.4031   18.8133  -34.1074 H   0  0  0  0  0  0  0  0  0  0  0  0
   -4.8683   20.5282  -34.1074 H   0  0  0  0  0  0  0  0  0  0  0  0
   -8.3632   21.9189  -33.0475 H   0  0  0  0  0  0  0  0  0  0  0  0
   -8.5193   24.1269  -31.9150 H   0  0  0  0  0  0  0  0  0  0  0  0
   -6.7577   24.8445  -30.3077 H   0  0  0  0  0  0  0  0  0  0  0  0
   -4.9167   21.8096  -28.2028 H   0  0  0  0  0  0  0  0  0  0  0  0
   -0.4505   22.9330  -26.1598 H   0  0  0  0  0  0  0  0  0  0  0  0
   -0.0137   23.6501  -27.7734 H   0  0  0  0  0  0  0  0  0  0  0  0
    1.6652   24.0182  -25.8429 H   0  0  0  0  0  0  0  0  0  0  0  0
    1.1533   25.4651  -26.7784 H   0  0  0  0  0  0  0  0  0  0  0  0
   -0.0140   24.5550  -24.1940 H   0  0  0  0  0  0  0  0  0  0  0  0
    1.8922   25.4998  -23.4373 H   0  0  0  0  0  0  0  0  0  0  0  0
    2.0144   26.6059  -24.8139 H   0  0  0  0  0  0  0  0  0  0  0  0
    0.4923   26.9219  -22.2681 H   0  0  0  0  0  0  0  0  0  0  0  0
    0.9015   28.1729  -23.4483 H   0  0  0  0  0  0  0  0  0  0  0  0
   -1.6100   26.5690  -23.1901 H   0  0  0  0  0  0  0  0  0  0  0  0
   -1.3905   28.0508  -24.0958 H   0  0  0  0  0  0  0  0  0  0  0  0
   -0.5454   26.9184  -25.9935 H   0  0  0  0  0  0  0  0  0  0  0  0
   -2.3691   24.8395  -24.8193 H   0  0  0  0  0  0  0  0  0  0  0  0
   -2.7589   26.1664  -25.9630 H   0  0  0  0  0  0  0  0  0  0  0  0
   -4.6532   21.1169  -30.9505 H   0  0  0  0  0  0  0  0  0  0  0  0
  1  2  1  0
  2  3  1  0
  2  4  1  0
  4  5  2  0
  5  6  1  0
  6  7  2  0
  7  8  1  0
  8  9  1  0
  9 10  2  0
 10 11  1  0
 11 12  2  0
 12 13  1  0
 13 14  1  0
 14 15  1  0
 15 16  1  0
 16 17  1  0
 17 18  1  0
 18 19  1  0
 19 20  1  0
 20 21  1  0
 12 22  1  0
 22 23  1  0
 23 24  2  0
  8 25  2  0
 25  4  1  0
 23  9  1  0
 21 13  1  0
 20 16  1  0
  1 26  1  0
  1 27  1  0
  1 28  1  0
  3 29  1  0
  3 30  1  0
  3 31  1  0
  5 32  1  0
  6 33  1  0
  7 34  1  0
 10 35  1  0
 14 36  1  0
 14 37  1  0
 15 38  1  0
 15 39  1  0
 16 40  1  1
 17 41  1  0
 17 42  1  0
 18 43  1  0
 18 44  1  0
 19 45  1  0
 19 46  1  0
 20 47  1  6
 21 48  1  0
 21 49  1  0
 25 50  1  0
M  CHG  2  16   1  22  -1
M  END
>  <UniqueID>  (3) 
3

>  <SMILES>  (3) 
CN(C)c1cccc(-c2cnc(N3CC[N@H+]4CCC[C@@H]4C3)[n-]c2=O)c1

>  <Energy>  (3) 
69.39944527031513

>  <Genealogy>  (3) 
CN(C)c1cccc(-c2cnc(N3CC[NH+]4CCCC4C3)[n-]c2=O)c1 (protonated)
CN(C)c1cccc(-c2cnc(N3CC[N@H+]4CCC[C@@H]4C3)[n-]c2=O)c1 (chirality)
CN(C)c1cccc(-c2cnc(N3CC[N@H+]4CCC[C@@H]4C3)[n-]c2=O)c1 (3D coordinates assigned)
CN(C)c1cccc(-c2cnc(N3CC[N@H+]4CCC[C@@H]4C3)[n-]c2=O)c1 (nonaromatic ring conformer: 69.39944527031513 kcal/mol)

>  <smiles>  (3) 
CN(C)c1cccc(-c2cnc(N3CCN4CCCC4C3)[nH]c2=O)c1

>  <score_type>  (3) 
oracle

>  <origin>  (3) 
adg

>  <m_score__min__energy>  (3) 
-9.0999999999999996

>  <m_primary>  (3) 
energy

$$$$
3:0
     RDKit          3D

 39 40  0  0  0  0  0  0  0  0999 V2000
   -6.4700   25.6070  -29.4430 C   0  0  0  0  0  0  0  0  0  0  0  0
   -5.7260   24.3540  -29.4530 N   0  0  0  0  0  0  0  0  0  0  0  0
   -4.4100   24.2670  -30.0180 C   0  0  0  0  0  0  0  0  0  0  0  0
   -3.8630   25.2990  -30.4950 O   0  0  0  0  0  0  0  0  0  0  0  0
   -3.6820   22.9810  -30.0550 C   0  0  0  0  0  0  0  0  0  0  0  0
   -2.6230   22.7090  -29.3140 C   0  0  0  0  0  0  0  0  0  0  0  0
   -2.2240   21.2770  -29.4600 C   0  0  0  0  0  0  0  0  0  0  0  0
   -3.2750   20.6990  -30.4190 C   0  0  0  0  0  0  0  0  0  0  0  0
   -4.1180   21.8310  -30.7720 N   0  0  0  0  0  0  0  0  0  0  0  0
   -5.0680   21.7930  -31.8470 C   0  0  0  0  0  0  0  0  0  0  0  0
   -4.6530   21.8940  -33.0330 O   0  0  0  0  0  0  0  0  0  0  0  0
   -6.5210   21.7030  -31.5800 C   0  0  0  0  0  0  0  0  0  0  0  0
   -6.9630   22.0870  -30.4630 O   0  0  0  0  0  0  0  0  0  0  0  0
   -7.4780   21.1250  -32.6060 C   0  0  0  0  0  0  0  0  0  0  0  0
   -8.8260   20.6730  -31.9700 C   0  0  0  0  0  0  0  0  0  0  0  0
   -9.0300   19.1470  -31.9600 C   0  0  0  0  0  0  0  0  0  0  0  0
   -7.7400   18.4140  -31.5850 C   0  0  0  0  0  0  0  0  0  0  0  0
   -6.5820   18.7200  -32.5580 C   0  0  0  0  0  0  0  0  0  0  0  0
   -6.7970   19.9920  -33.4000 C   0  0  0  0  0  0  0  0  0  0  0  0
   -6.6536   25.9161  -28.4034 H   0  0  0  0  0  0  0  0  0  0  0  0
   -5.8868   26.3839  -29.9590 H   0  0  0  0  0  0  0  0  0  0  0  0
   -7.4313   25.4668  -29.9590 H   0  0  0  0  0  0  0  0  0  0  0  0
   -6.1560   23.5160  -29.0030 H   0  0  0  0  0  0  0  0  0  0  0  0
   -2.1045   23.4390  -28.6751 H   0  0  0  0  0  0  0  0  0  0  0  0
   -1.2144   21.1934  -29.8887 H   0  0  0  0  0  0  0  0  0  0  0  0
   -2.1886   20.7454  -28.4977 H   0  0  0  0  0  0  0  0  0  0  0  0
   -2.7934   20.2801  -31.3149 H   0  0  0  0  0  0  0  0  0  0  0  0
   -3.8494   19.8802  -29.9611 H   0  0  0  0  0  0  0  0  0  0  0  0
   -7.7353   21.9261  -33.3145 H   0  0  0  0  0  0  0  0  0  0  0  0
   -8.8570   21.0334  -30.9312 H   0  0  0  0  0  0  0  0  0  0  0  0
   -9.6297   21.0987  -32.5887 H   0  0  0  0  0  0  0  0  0  0  0  0
   -9.8108   18.8950  -31.2273 H   0  0  0  0  0  0  0  0  0  0  0  0
   -9.3268   18.8306  -32.9708 H   0  0  0  0  0  0  0  0  0  0  0  0
   -7.4407   18.7223  -30.5724 H   0  0  0  0  0  0  0  0  0  0  0  0
   -7.9425   17.3340  -31.6357 H   0  0  0  0  0  0  0  0  0  0  0  0
   -5.6598   18.8442  -31.9714 H   0  0  0  0  0  0  0  0  0  0  0  0
   -6.5232   17.8763  -33.2614 H   0  0  0  0  0  0  0  0  0  0  0  0
   -5.8185   20.3493  -33.7535 H   0  0  0  0  0  0  0  0  0  0  0  0
   -7.4608   19.7278  -34.2364 H   0  0  0  0  0  0  0  0  0  0  0  0
  1  2  1  0
  2  3  1  0
  3  4  2  0
  3  5  1  0
  5  6  2  0
  6  7  1  0
  7  8  1  0
  8  9  1  0
  9 10  1  0
 10 11  2  0
 10 12  1  0
 12 13  2  0
 12 14  1  0
 14 15  1  0
 15 16  1  0
 16 17  1  0
 17 18  1  0
 18 19  1  0
  9  5  1  0
 19 14  1  0
  1 20  1  0
  1 21  1  0
  1 22  1  0
  2 23  1  0
  6 24  1  0
  7 25  1  0
  7 26  1  0
  8 27  1  0
  8 28  1  0
 14 29  1  0
 15 30  1  0
 15 31  1  0
 16 32  1  0
 16 33  1  0
 17 34  1  0
 17 35  1  0
 18 36  1  0
 18 37  1  0
 19 38  1  0
 19 39  1  0
M  END
>  <UniqueID>  (4) 
4

>  <SMILES>  (4) 
CNC(=O)C1=CCCN1C(=O)C(=O)C1CCCCC1

>  <Energy>  (4) 
51.99752489075756

>  <Genealogy>  (4) 
CNC(=O)C1=CCCN1C(=O)C(=O)C1CCCCC1 (3D coordinates assigned)
CNC(=O)C1=CCCN1C(=O)C(=O)C1CCCCC1 (nonaromatic ring conformer: 51.99752489075756 kcal/mol)

>  <smiles>  (4) 
CNC(=O)C1=CCCN1C(=O)C(=O)C1CCCCC1

>  <score_type>  (4) 
oracle

>  <origin>  (4) 
adg

>  <m_score__min__energy>  (4) 
-7.6500000000000004

>  <m_primary>  (4) 
energy

$$$$
4:0
     RDKit          3D

 45 47  0  0  0  0  0  0  0  0999 V2000
    0.0860   20.2130  -31.0230 C   0  0  0  0  0  0  0  0  0  0  0  0
    0.3650   20.4980  -29.6550 O   0  0  0  0  0  0  0  0  0  0  0  0
   -0.3900   21.3730  -28.8590 C   0  0  0  0  0  0  0  0  0  0  0  0
   -0.7690   21.0560  -27.5420 C   0  0  0  0  0  0  0  0  0  0  0  0
   -1.5210   21.9620  -26.7910 C   0  0  0  0  0  0  0  0  0  0  0  0
   -1.9000   23.1890  -27.3400 C   0  0  0  0  0  0  0  0  0  0  0  0
   -1.5290   23.5250  -28.6550 C   0  0  0  0  0  0  0  0  0  0  0  0
   -1.9310   24.8240  -29.2410 C   0  0  0  0  0  0  0  0  0  0  0  0
   -1.2140   25.8470  -29.0670 O   0  0  0  0  0  0  0  0  0  0  0  0
   -3.1420   24.9270  -30.0010 N   0  0  0  0  0  0  0  0  0  0  0  0
   -4.2860   24.0310  -29.8470 C   0  0  1  0  0  0  0  0  0  0  0  0
   -5.5810   24.7450  -30.2830 C   0  0  0  0  0  0  0  0  0  0  0  0
   -6.6430   23.7610  -30.7010 C   0  0  0  0  0  0  0  0  0  0  0  0
   -7.1670   23.7970  -32.0040 C   0  0  0  0  0  0  0  0  0  0  0  0
   -8.1850   22.9140  -32.3780 C   0  0  0  0  0  0  0  0  0  0  0  0
   -8.6920   21.9960  -31.4540 C   0  0  0  0  0  0  0  0  0  0  0  0
   -8.1830   21.9610  -30.1540 C   0  0  0  0  0  0  0  0  0  0  0  0
   -7.1650   22.8410  -29.7750 C   0  0  0  0  0  0  0  0  0  0  0  0
   -4.0540   22.7790  -30.6650 C   0  0  0  0  0  0  0  0  0  0  0  0
   -4.0750   22.8400  -32.0700 C   0  0  0  0  0  0  0  0  0  0  0  0
   -3.8140   21.6980  -32.8310 C   0  0  0  0  0  0  0  0  0  0  0  0
   -3.5260   20.4850  -32.1990 C   0  0  0  0  0  0  0  0  0  0  0  0
   -3.4940   20.4150  -30.8040 C   0  0  0  0  0  0  0  0  0  0  0  0
   -3.7530   21.5550  -30.0390 C   0  0  0  0  0  0  0  0  0  0  0  0
   -0.7730   22.6050  -29.4050 C   0  0  0  0  0  0  0  0  0  0  0  0
   -0.6823   19.4282  -31.0847 H   0  0  0  0  0  0  0  0  0  0  0  0
   -0.2793   21.1237  -31.5202 H   0  0  0  0  0  0  0  0  0  0  0  0
    1.0043   19.8671  -31.5202 H   0  0  0  0  0  0  0  0  0  0  0  0
   -0.4724   20.0922  -27.1026 H   0  0  0  0  0  0  0  0  0  0  0  0
   -1.8162   21.7080  -25.7622 H   0  0  0  0  0  0  0  0  0  0  0  0
   -2.4919   23.8967  -26.7410 H   0  0  0  0  0  0  0  0  0  0  0  0
   -4.3955   23.7475  -28.7898 H   0  0  0  0  0  0  0  0  0  0  0  0
   -5.9598   25.3429  -29.4410 H   0  0  0  0  0  0  0  0  0  0  0  0
   -5.3469   25.3858  -31.1458 H   0  0  0  0  0  0  0  0  0  0  0  0
   -6.7753   24.5221  -32.7325 H   0  0  0  0  0  0  0  0  0  0  0  0
   -8.5875   22.9420  -33.4013 H   0  0  0  0  0  0  0  0  0  0  0  0
   -9.4917   21.3013  -31.7507 H   0  0  0  0  0  0  0  0  0  0  0  0
   -8.5839   21.2396  -29.4268 H   0  0  0  0  0  0  0  0  0  0  0  0
   -6.7710   22.8135  -28.7484 H   0  0  0  0  0  0  0  0  0  0  0  0
   -4.2983   23.7927  -32.5726 H   0  0  0  0  0  0  0  0  0  0  0  0
   -3.8352   21.7534  -33.9294 H   0  0  0  0  0  0  0  0  0  0  0  0
   -3.3246   19.5858  -32.7998 H   0  0  0  0  0  0  0  0  0  0  0  0
   -3.2645   19.4608  -30.3072 H   0  0  0  0  0  0  0  0  0  0  0  0
   -3.7215   21.4955  -28.9411 H   0  0  0  0  0  0  0  0  0  0  0  0
   -0.4786   22.8568  -30.4345 H   0  0  0  0  0  0  0  0  0  0  0  0
  1  2  1  0
  2  3  1  0
  3  4  2  0
  4  5  1  0
  5  6  2  0
  6  7  1  0
  7  8  1  0
  8  9  2  0
  8 10  1  0
 10 11  1  0
 11 12  1  0
 12 13  1  0
 13 14  2  0
 14 15  1  0
 15 16  2  0
 16 17  1  0
 17 18  2  0
 11 19  1  0
 19 20  2  0
 20 21  1  0
 21 22  2  0
 22 23  1  0
 23 24  2  0
  7 25  2  0
 25  3  1  0
 18 13  1  0
 24 19  1  0
  1 26  1  0
  1 27  1  0
  1 28  1  0
  4 29  1  0
  5 30  1  0
  6 31  1  0
 11 32  1  1
 12 33  1  0
 12 34  1  0
 14 35  1  0
 15 36  1  0
 16 37  1  0
 17 38  1  0
 18 39  1  0
 20 40  1  0
 21 41  1  0
 22 42  1  0
 23 43  1  0
 24 44  1  0
 25 45  1  0
M  CHG  1  10  -1
M  END
>  <UniqueID>  (5) 
5

>  <SMILES>  (5) 
COc1cccc(C(=O)[N-][C@@H](Cc2ccccc2)c2ccccc2)c1

>  <Energy>  (5) 
43.34833907905289

>  <Genealogy>  (5) 
COc1cccc(C(=O)[N-]C(Cc2ccccc2)c2ccccc2)c1 (protonated)
COc1cccc(C(=O)[N-][C@@H](Cc2ccccc2)c2ccccc2)c1 (chirality)
COc1cccc(C(=O)[N-][C@@H](Cc2ccccc2)c2ccccc2)c1 (3D coordinates assigned)
COc1cccc(C(=O)[N-][C@@H](Cc2ccccc2)c2ccccc2)c1 (optimized conformer: 43.34833907905289 kcal/mol)

>  <smiles>  (5) 
COc1cccc(C(=O)NC(Cc2ccccc2)c2ccccc2)c1

>  <score_type>  (5) 
oracle

>  <origin>  (5) 
adg

>  <m_score__min__energy>  (5) 
-9.5999999999999996

>  <m_primary>  (5) 
energy

$$$$
5:0
     RDKit          3D

 32 33  0  0  0  0  0  0  0  0999 V2000
   -5.1862   18.8682  -34.8380 H   0  0  0  0  0  0  0  0  0  0  0  0
   -5.9930   18.9010  -34.0910 C   0  0  0  0  0  0  0  0  0  0  0  0
   -6.6710   19.9750  -33.7570 O   0  0  0  0  0  0  0  0  0  0  0  0
   -7.5530   19.6450  -32.8410 C   0  0  0  0  0  0  0  0  0  0  0  0
   -8.4910   20.5920  -32.2280 C   0  0  0  0  0  0  0  0  0  0  0  0
   -9.4850   20.1480  -31.5950 O   0  0  0  0  0  0  0  0  0  0  0  0
   -8.2090   22.0010  -32.2790 N   0  0  0  0  0  0  0  0  0  0  0  0
   -7.1700   22.6550  -31.8320 C   0  0  0  0  0  0  0  0  0  0  0  0
   -7.2810   23.8060  -31.0260 C   0  0  0  0  0  0  0  0  0  0  0  0
   -8.2739   24.1868  -30.7448 H   0  0  0  0  0  0  0  0  0  0  0  0
   -6.1270   24.4650  -30.5830 C   0  0  0  0  0  0  0  0  0  0  0  0
   -6.2580   25.6800  -29.7060 C   0  0  0  0  0  0  0  0  0  0  0  0
   -6.2251   25.3750  -28.6496 H   0  0  0  0  0  0  0  0  0  0  0  0
   -5.4294   26.3731  -29.9135 H   0  0  0  0  0  0  0  0  0  0  0  0
   -7.2153   26.1805  -29.9135 H   0  0  0  0  0  0  0  0  0  0  0  0
   -4.8650   23.9540  -30.9300 C   0  0  0  0  0  0  0  0  0  0  0  0
   -3.6960   24.5610  -30.4610 O   0  0  0  0  0  0  0  0  0  0  0  0
   -3.0610   24.1240  -29.2660 C   0  0  0  0  0  0  0  0  0  0  0  0
   -3.6152   24.5054  -28.3957 H   0  0  0  0  0  0  0  0  0  0  0  0
   -3.0475   23.0244  -29.2390 H   0  0  0  0  0  0  0  0  0  0  0  0
   -2.0291   24.5042  -29.2390 H   0  0  0  0  0  0  0  0  0  0  0  0
   -4.7860   22.8360  -31.7760 C   0  0  0  0  0  0  0  0  0  0  0  0
   -3.4470   22.2790  -32.1710 C   0  0  0  0  0  0  0  0  0  0  0  0
   -2.8687   22.0384  -31.2667 H   0  0  0  0  0  0  0  0  0  0  0  0
   -3.5911   21.3662  -32.7677 H   0  0  0  0  0  0  0  0  0  0  0  0
   -2.9012   23.0247  -32.7677 H   0  0  0  0  0  0  0  0  0  0  0  0
   -5.9280   22.2200  -32.1950 N   0  0  0  0  0  0  0  0  0  0  0  0
   -5.8530   21.3730  -32.8060 H   0  0  0  0  0  0  0  0  0  0  0  0
   -7.4550   18.2980  -32.5540 C   0  0  0  0  0  0  0  0  0  0  0  0
   -8.0559   17.7262  -31.8315 H   0  0  0  0  0  0  0  0  0  0  0  0
   -6.4460   17.8200  -33.3630 C   0  0  0  0  0  0  0  0  0  0  0  0
   -6.0766   16.7853  -33.4171 H   0  0  0  0  0  0  0  0  0  0  0  0
  1  2  1  0
  2  3  1  0
  3  4  1  0
  4  5  1  0
  5  6  2  0
  5  7  1  0
  7  8  2  0
  8  9  1  0
  9 10  1  0
  9 11  2  0
 11 12  1  0
 12 13  1  0
 12 14  1  0
 12 15  1  0
 11 16  1  0
 16 17  1  0
 17 18  1  0
 18 19  1  0
 18 20  1  0
 18 21  1  0
 16 22  2  0
 22 23  1  0
 23 24  1  0
 23 25  1  0
 23 26  1  0
 22 27  1  0
 27 28  1  0
  4 29  2  0
 29 30  1  0
 29 31  1  0
 31 32  1  0
 31  2  2  0
 27  8  1  0
M  END
>  <UniqueID>  (6) 
6

>  <SMILES>  (6) 
COc1c(C)c/c(=N\C(=O)c2ccco2)[nH]c1C

>  <Energy>  (6) 
70.38119154891537

>  <Genealogy>  (6) 
COc1c(C)c/c(=N\C(=O)c2ccco2)[nH]c1C (cis-trans isomerization)
COc1c(C)c/c(=N\C(=O)c2ccco2)[nH]c1C (3D coordinates assigned)
COc1c(C)c/c(=N\C(=O)c2ccco2)[nH]c1C (optimized conformer: 70.38119154891537 kcal/mol)

>  <smiles>  (6) 
COc1c(C)cc(=NC(=O)c2ccco2)[nH]c1C

>  <score_type>  (6) 
oracle

>  <origin>  (6) 
adg

>  <m_score__min__energy>  (6) 
-6.8499999999999996

>  <m_primary>  (6) 
energy

$$$$
6:0
     RDKit          3D

 33 34  0  0  0  0  0  0  0  0999 V2000
   -6.7658   21.2386  -34.0151 H   0  0  0  0  0  0  0  0  0  0  0  0
   -6.5690   20.5600  -33.1720 C   0  0  0  0  0  0  0  0  0  0  0  0
   -6.5400   21.0850  -31.9380 C   0  0  0  0  0  0  0  0  0  0  0  0
   -7.4474   20.9925  -31.3232 H   0  0  0  0  0  0  0  0  0  0  0  0
   -5.3740   21.7810  -31.3420 C   0  0  0  0  0  0  0  0  0  0  0  0
   -4.2260   21.1490  -31.0060 N   0  0  0  0  0  0  0  0  0  0  0  0
   -3.4110   22.1250  -30.5670 C   0  0  0  0  0  0  0  0  0  0  0  0
   -2.3853   21.9809  -30.1967 H   0  0  0  0  0  0  0  0  0  0  0  0
   -4.0650   23.3320  -30.6550 C   0  0  0  0  0  0  0  0  0  0  0  0
   -3.4880   24.6010  -30.3070 N   0  0  0  0  0  0  0  0  0  0  0  0
   -3.9040   25.6640  -30.8090 O   0  0  0  0  0  0  0  0  0  0  0  0
   -2.3910   24.6450  -29.4790 O   0  0  0  0  0  0  0  0  0  0  0  0
   -5.3130   23.1210  -31.1360 N   0  0  0  0  0  0  0  0  0  0  0  0
   -6.3720   24.1030  -31.3950 C   0  0  0  0  0  0  0  0  0  0  0  0
   -7.2538   23.5855  -31.8007 H   0  0  0  0  0  0  0  0  0  0  0  0
   -6.0000   24.8438  -32.1181 H   0  0  0  0  0  0  0  0  0  0  0  0
   -6.7610   24.8230  -30.1090 C   0  0  0  0  0  0  0  0  0  0  0  0
   -6.4387   24.2264  -29.2429 H   0  0  0  0  0  0  0  0  0  0  0  0
   -6.2723   25.8080  -30.0780 H   0  0  0  0  0  0  0  0  0  0  0  0
   -7.8527   24.9542  -30.0780 H   0  0  0  0  0  0  0  0  0  0  0  0
   -6.3540   19.1310  -33.4720 C   0  0  0  0  0  0  0  0  0  0  0  0
   -5.2540   18.7800  -34.2730 C   0  0  0  0  0  0  0  0  0  0  0  0
   -4.5748   19.5639  -34.6394 H   0  0  0  0  0  0  0  0  0  0  0  0
   -5.0150   17.4470  -34.6080 C   0  0  0  0  0  0  0  0  0  0  0  0
   -4.1516   17.1844  -35.2369 H   0  0  0  0  0  0  0  0  0  0  0  0
   -5.8700   16.4480  -34.1460 C   0  0  0  0  0  0  0  0  0  0  0  0
   -5.6827   15.3976  -34.4135 H   0  0  0  0  0  0  0  0  0  0  0  0
   -6.9640   16.7790  -33.3440 C   0  0  0  0  0  0  0  0  0  0  0  0
   -7.6347   15.9837  -32.9867 H   0  0  0  0  0  0  0  0  0  0  0  0
   -7.2210   18.1170  -32.9860 C   0  0  0  0  0  0  0  0  0  0  0  0
   -8.3740   18.4190  -32.1710 N   0  0  0  0  0  0  0  0  0  0  0  0
   -8.3320   18.2400  -30.9360 O   0  0  0  0  0  0  0  0  0  0  0  0
   -9.4980   19.0000  -32.7090 O   0  0  0  0  0  0  0  0  0  0  0  0
  1  2  1  0
  2  3  2  0
  3  4  1  0
  3  5  1  0
  5  6  2  0
  6  7  1  0
  7  8  1  0
  7  9  2  0
  9 10  1  0
 10 11  2  0
 10 12  1  0
  9 13  1  0
 13 14  1  0
 14 15  1  0
 14 16  1  0
 14 17  1  0
 17 18  1  0
 17 19  1  0
 17 20  1  0
  2 21  1  0
 21 22  2  0
 22 23  1  0
 22 24  1  0
 24 25  1  0
 24 26  2  0
 26 27  1  0
 26 28  1  0
 28 29  1  0
 28 30  2  0
 30 31  1  0
 31 32  2  0
 31 33  1  0
 13  5  1  0
 30 21  1  0
M  CHG  4  10   1  12  -1  31   1  33  -1
M  END
>  <UniqueID>  (7) 
7

>  <SMILES>  (7) 
CCn1c([N+](=O)[O-])cnc1/C=C\c1ccccc1[N+](=O)[O-]

>  <Energy>  (7) 
76.29039121717103

>  <Genealogy>  (7) 
CCn1c([N+](=O)[O-])cnc1/C=C\c1ccccc1[N+](=O)[O-] (cis-trans isomerization)
CCn1c([N+](=O)[O-])cnc1/C=C\c1ccccc1[N+](=O)[O-] (3D coordinates assigned)
CCn1c([N+](=O)[O-])cnc1/C=C\c1ccccc1[N+](=O)[O-] (optimized conformer: 76.29039121717103 kcal/mol)

>  <smiles>  (7) 
CCn1c([N+](=O)[O-])cnc1C=Cc1ccccc1[N+](=O)[O-]

>  <score_type>  (7) 
oracle

>  <origin>  (7) 
adg

>  <m_score__min__energy>  (7) 
-8.4700000000000006

>  <m_primary>  (7) 
energy

$$$$
7:0
     RDKit          3D

 43 46  0  0  0  0  0  0  0  0999 V2000
   -2.7710   23.7920  -29.6150 C   0  0  0  0  0  0  0  0  0  0  0  0
   -3.7350   24.4660  -30.4180 O   0  0  0  0  0  0  0  0  0  0  0  0
   -5.0020   23.9530  -30.7290 C   0  0  0  0  0  0  0  0  0  0  0  0
   -5.3840   23.8960  -32.0760 C   0  0  0  0  0  0  0  0  0  0  0  0
   -6.6370   23.3940  -32.4380 C   0  0  0  0  0  0  0  0  0  0  0  0
   -7.5240   22.9450  -31.4530 C   0  0  0  0  0  0  0  0  0  0  0  0
   -9.1370   22.3170  -31.9130 S   0  0  0  0  0  0  0  0  0  0  0  0
   -8.5280   20.6420  -32.0730 C   0  0  0  0  0  0  0  0  0  0  0  0
   -9.3910   19.5440  -31.8840 C   0  0  0  0  0  0  0  0  0  0  0  0
   -8.8920   18.2390  -32.0080 C   0  0  0  0  0  0  0  0  0  0  0  0
   -7.5410   18.0970  -32.3050 C   0  0  0  0  0  0  0  0  0  0  0  0
   -6.8760   16.9380  -32.4880 N   0  0  0  0  0  0  0  0  0  0  0  0
   -5.6110   17.3420  -32.7690 C   0  0  0  0  0  0  0  0  0  0  0  0
   -5.5340   18.7300  -32.7440 C   0  0  0  0  0  0  0  0  0  0  0  0
   -4.3310   19.5620  -32.9890 C   0  0  0  0  0  0  0  0  0  0  0  0
   -4.2180   20.8300  -32.3950 C   0  0  0  0  0  0  0  0  0  0  0  0
   -3.0900   21.6240  -32.6240 C   0  0  0  0  0  0  0  0  0  0  0  0
   -2.0560   21.1640  -33.4610 C   0  0  0  0  0  0  0  0  0  0  0  0
   -0.9040   21.9220  -33.7220 O   0  0  0  0  0  0  0  0  0  0  0  0
    0.1110   21.5480  -34.6470 C   0  0  0  0  0  0  0  0  0  0  0  0
   -2.1750   19.9060  -34.0620 C   0  0  0  0  0  0  0  0  0  0  0  0
   -3.3010   19.1110  -33.8330 C   0  0  0  0  0  0  0  0  0  0  0  0
   -6.7650   19.1770  -32.4540 N   0  0  0  0  0  0  0  0  0  0  0  0
   -7.2150   20.4270  -32.3650 N   0  0  0  0  0  0  0  0  0  0  0  0
   -7.1490   22.9930  -30.1050 C   0  0  0  0  0  0  0  0  0  0  0  0
   -5.8970   23.4960  -29.7420 C   0  0  0  0  0  0  0  0  0  0  0  0
   -3.0020   23.9535  -28.5517 H   0  0  0  0  0  0  0  0  0  0  0  0
   -2.7978   22.7149  -29.8365 H   0  0  0  0  0  0  0  0  0  0  0  0
   -1.7686   24.1870  -29.8365 H   0  0  0  0  0  0  0  0  0  0  0  0
   -4.6920   24.2492  -32.8547 H   0  0  0  0  0  0  0  0  0  0  0  0
   -6.9264   23.3517  -33.4984 H   0  0  0  0  0  0  0  0  0  0  0  0
  -10.4508   19.7096  -31.6404 H   0  0  0  0  0  0  0  0  0  0  0  0
   -9.5435   17.3627  -31.8756 H   0  0  0  0  0  0  0  0  0  0  0  0
   -4.7685   16.6686  -32.9853 H   0  0  0  0  0  0  0  0  0  0  0  0
   -5.0235   21.2013  -31.7444 H   0  0  0  0  0  0  0  0  0  0  0  0
   -3.0103   22.6125  -32.1480 H   0  0  0  0  0  0  0  0  0  0  0  0
    1.0049   21.2186  -34.0971 H   0  0  0  0  0  0  0  0  0  0  0  0
   -0.2543   20.7254  -35.2794 H   0  0  0  0  0  0  0  0  0  0  0  0
    0.3668   22.4109  -35.2794 H   0  0  0  0  0  0  0  0  0  0  0  0
   -1.3743   19.5394  -34.7212 H   0  0  0  0  0  0  0  0  0  0  0  0
   -3.3821   18.1261  -34.3161 H   0  0  0  0  0  0  0  0  0  0  0  0
   -7.8418   22.6338  -29.3297 H   0  0  0  0  0  0  0  0  0  0  0  0
   -5.6091   23.5353  -28.6811 H   0  0  0  0  0  0  0  0  0  0  0  0
  1  2  1  0
  2  3  1  0
  3  4  2  0
  4  5  1  0
  5  6  2  0
  6  7  1  0
  7  8  1  0
  8  9  1  0
  9 10  2  0
 10 11  1  0
 11 12  2  0
 12 13  1  0
 13 14  2  0
 14 15  1  0
 15 16  2  0
 16 17  1  0
 17 18  2  0
 18 19  1  0
 19 20  1  0
 18 21  1  0
 21 22  2  0
 14 23  1  0
 23 24  1  0
  6 25  1  0
 25 26  2  0
 26  3  1  0
 24  8  2  0
 23 11  1  0
 22 15  1  0
  1 27  1  0
  1 28  1  0
  1 29  1  0
  4 30  1  0
  5 31  1  0
  9 32  1  0
 10 33  1  0
 13 34  1  0
 16 35  1  0
 17 36  1  0
 20 37  1  0
 20 38  1  0
 20 39  1  0
 21 40  1  0
 22 41  1  0
 25 42  1  0
 26 43  1  0
M  END
>  <UniqueID>  (8) 
8

>  <SMILES>  (8) 
COc1ccc(Sc2ccc3ncc(-c4ccc(OC)cc4)n3n2)cc1

>  <Energy>  (8) 
81.53200082725192

>  <Genealogy>  (8) 
COc1ccc(Sc2ccc3ncc(-c4ccc(OC)cc4)n3n2)cc1 (3D coordinates assigned)
COc1ccc(Sc2ccc3ncc(-c4ccc(OC)cc4)n3n2)cc1 (optimized conformer: 81.53200082725192 kcal/mol)

>  <smiles>  (8) 
COc1ccc(Sc2ccc3ncc(-c4ccc(OC)cc4)n3n2)cc1

>  <score_type>  (8) 
oracle

>  <origin>  (8) 
adg

>  <m_score__min__energy>  (8) 
-9.0199999999999996

>  <m_primary>  (8) 
energy

$$$$
8:0
     RDKit          3D

 56 58  0  0  0  0  0  0  0  0999 V2000
   -2.7190   19.1760  -26.6480 C   0  0  0  0  0  0  0  0  0  0  0  0
   -3.3420   20.3650  -27.1220 O   0  0  0  0  0  0  0  0  0  0  0  0
   -2.7350   21.2840  -27.9910 C   0  0  0  0  0  0  0  0  0  0  0  0
   -1.4010   21.0690  -28.3590 C   0  0  0  0  0  0  0  0  0  0  0  0
   -0.7510   21.9580  -29.2180 C   0  0  0  0  0  0  0  0  0  0  0  0
   -1.4290   23.0710  -29.7190 C   0  0  0  0  0  0  0  0  0  0  0  0
   -2.7650   23.3040  -29.3620 C   0  0  0  0  0  0  0  0  0  0  0  0
   -3.4800   24.5200  -29.8920 C   0  0  0  0  0  0  0  0  0  0  0  0
   -4.5820   24.1110  -30.7870 N   0  0  0  0  0  0  0  0  0  0  0  0
   -5.8730   24.0540  -30.0560 C   0  0  0  0  0  0  0  0  0  0  0  0
   -7.0940   23.9010  -31.0010 C   0  0  0  0  0  0  0  0  0  0  0  0
   -7.3440   22.4780  -31.4740 C   0  0  0  0  0  0  0  0  0  0  0  0
   -8.5480   21.8580  -31.1430 C   0  0  0  0  0  0  0  0  0  0  0  0
   -8.8400   20.6010  -31.6380 C   0  0  0  0  0  0  0  0  0  0  0  0
   -7.9300   19.9530  -32.4690 C   0  0  0  0  0  0  0  0  0  0  0  0
   -8.2730   18.8440  -32.9670 O   0  0  0  0  0  0  0  0  0  0  0  0
   -6.7050   20.5150  -32.7650 N   0  0  0  0  0  0  0  0  0  0  0  0
   -5.8090   19.7630  -33.6840 C   0  0  0  0  0  0  0  0  0  0  0  0
   -5.1390   18.5250  -33.0210 C   0  0  0  0  0  0  0  0  0  0  0  0
   -5.9850   17.3170  -32.8630 N   0  0  0  0  0  0  0  0  0  0  0  0
   -6.3830   16.7210  -34.1510 C   0  0  0  0  0  0  0  0  0  0  0  0
   -5.4030   16.3120  -31.9580 C   0  0  0  0  0  0  0  0  0  0  0  0
   -6.3990   21.7810  -32.2760 C   0  0  0  0  0  0  0  0  0  0  0  0
   -5.1450   22.5540  -32.6700 C   0  0  0  0  0  0  0  0  0  0  0  0
   -4.2590   22.8230  -31.4440 C   0  0  0  0  0  0  0  0  0  0  0  0
   -3.4170   22.4090  -28.4970 C   0  0  0  0  0  0  0  0  0  0  0  0
   -2.7188   19.1756  -25.5480 H   0  0  0  0  0  0  0  0  0  0  0  0
   -3.2740   18.3000  -27.0149 H   0  0  0  0  0  0  0  0  0  0  0  0
   -1.6828   19.1337  -27.0149 H   0  0  0  0  0  0  0  0  0  0  0  0
   -0.8612   20.1936  -27.9687 H   0  0  0  0  0  0  0  0  0  0  0  0
    0.2973   21.7809  -29.5004 H   0  0  0  0  0  0  0  0  0  0  0  0
   -0.9133   23.7677  -30.3963 H   0  0  0  0  0  0  0  0  0  0  0  0
   -3.8902   25.0967  -29.0499 H   0  0  0  0  0  0  0  0  0  0  0  0
   -2.7676   25.1386  -30.4575 H   0  0  0  0  0  0  0  0  0  0  0  0
   -5.8503   23.1948  -29.3695 H   0  0  0  0  0  0  0  0  0  0  0  0
   -5.9897   25.0053  -29.5162 H   0  0  0  0  0  0  0  0  0  0  0  0
   -7.9898   24.2485  -30.4655 H   0  0  0  0  0  0  0  0  0  0  0  0
   -6.8745   24.4976  -31.8987 H   0  0  0  0  0  0  0  0  0  0  0  0
   -9.2669   22.3702  -30.4866 H   0  0  0  0  0  0  0  0  0  0  0  0
   -9.7903   20.1131  -31.3757 H   0  0  0  0  0  0  0  0  0  0  0  0
   -6.4018   19.4192  -34.5445 H   0  0  0  0  0  0  0  0  0  0  0  0
   -5.0013   20.4480  -33.9814 H   0  0  0  0  0  0  0  0  0  0  0  0
   -4.2706   18.2462  -33.6360 H   0  0  0  0  0  0  0  0  0  0  0  0
   -4.8924   18.8423  -31.9970 H   0  0  0  0  0  0  0  0  0  0  0  0
   -6.8710   17.6450  -32.4080 H   0  0  0  0  0  0  0  0  0  0  0  0
   -6.9853   15.8191  -33.9671 H   0  0  0  0  0  0  0  0  0  0  0  0
   -6.9773   17.4483  -34.7235 H   0  0  0  0  0  0  0  0  0  0  0  0
   -5.4835   16.4508  -34.7235 H   0  0  0  0  0  0  0  0  0  0  0  0
   -5.5775   16.6134  -30.9146 H   0  0  0  0  0  0  0  0  0  0  0  0
   -5.8756   15.3358  -32.1416 H   0  0  0  0  0  0  0  0  0  0  0  0
   -4.3211   16.2360  -32.1416 H   0  0  0  0  0  0  0  0  0  0  0  0
   -4.5750   21.9656  -33.4041 H   0  0  0  0  0  0  0  0  0  0  0  0
   -5.4483   23.5187  -33.1029 H   0  0  0  0  0  0  0  0  0  0  0  0
   -4.4039   22.0096  -30.7178 H   0  0  0  0  0  0  0  0  0  0  0  0
   -3.2155   22.8739  -31.7883 H   0  0  0  0  0  0  0  0  0  0  0  0
   -4.4648   22.5872  -28.2133 H   0  0  0  0  0  0  0  0  0  0  0  0
  1  2  1  0
  2  3  1  0
  3  4  2  0
  4  5  1  0
  5  6  2  0
  6  7  1  0
  7  8  1  0
  8  9  1  0
  9 10  1  0
 10 11  1  0
 11 12  1  0
 12 13  1  0
 13 14  2  0
 14 15  1  0
 15 16  2  0
 15 17  1  0
 17 18  1  0
 18 19  1  0
 19 20  1  0
 20 21  1  0
 20 22  1  0
 17 23  1  0
 23 24  1  0
 24 25  1  0
  7 26  2  0
 26  3  1  0
 25  9  1  0
 23 12  2  0
  1 27  1  0
  1 28  1  0
  1 29  1  0
  4 30  1  0
  5 31  1  0
  6 32  1  0
  8 33  1  0
  8 34  1  0
 10 35  1  0
 10 36  1  0
 11 37  1  0
 11 38  1  0
 13 39  1  0
 14 40  1  0
 18 41  1  0
 18 42  1  0
 19 43  1  0
 19 44  1  0
 20 45  1  0
 21 46  1  0
 21 47  1  0
 21 48  1  0
 22 49  1  0
 22 50  1  0
 22 51  1  0
 24 52  1  0
 24 53  1  0
 25 54  1  0
 25 55  1  0
 26 56  1  0
M  CHG  1  20   1
M  END
>  <UniqueID>  (9) 
9

>  <SMILES>  (9) 
COc1cccc(CN2CCc3ccc(=O)n(CC[NH+](C)C)c3CC2)c1

>  <Energy>  (9) 
81.77755755404192

>  <Genealogy>  (9) 
COc1cccc(CN2CCc3ccc(=O)n(CC[NH+](C)C)c3CC2)c1 (protonated)
COc1cccc(CN2CCc3ccc(=O)n(CC[NH+](C)C)c3CC2)c1 (3D coordinates assigned)
COc1cccc(CN2CCc3ccc(=O)n(CC[NH+](C)C)c3CC2)c1 (nonaromatic ring conformer: 81.77755755404192 kcal/mol)

>  <smiles>  (9) 
COc1cccc(CN2CCc3ccc(=O)n(CCN(C)C)c3CC2)c1

>  <score_type>  (9) 
oracle

>  <origin>  (9) 
adg

>  <m_score__min__energy>  (9) 
-5.9299999999999997

>  <m_primary>  (9) 
energy

$$$$
9:0
     RDKit          3D

 45 47  0  0  0  0  0  0  0  0999 V2000
   -6.4780   25.6740  -29.6550 C   0  0  0  0  0  0  0  0  0  0  0  0
   -6.1000   24.2640  -29.5990 N   0  0  0  0  0  0  0  0  0  0  0  0
   -4.6370   23.9860  -30.5040 S   0  0  0  0  0  0  0  0  0  0  0  0
   -3.8670   25.2730  -30.6290 O   0  0  0  0  0  0  0  0  0  0  0  0
   -5.0110   23.5580  -31.8920 O   0  0  0  0  0  0  0  0  0  0  0  0
   -3.6100   22.7860  -29.6810 C   0  0  0  0  0  0  0  0  0  0  0  0
   -3.4630   22.9370  -28.2900 C   0  0  0  0  0  0  0  0  0  0  0  0
   -2.7320   22.0200  -27.5380 C   0  0  0  0  0  0  0  0  0  0  0  0
   -2.1290   20.9330  -28.1600 C   0  0  0  0  0  0  0  0  0  0  0  0
   -2.2410   20.7670  -29.5390 C   0  0  0  0  0  0  0  0  0  0  0  0
   -2.9630   21.6880  -30.3250 C   0  0  0  0  0  0  0  0  0  0  0  0
   -3.0090   21.4280  -31.8190 C   0  0  0  0  0  0  0  0  0  0  0  0
   -3.4590   20.0010  -32.1510 C   0  0  0  0  0  0  0  0  0  0  0  0
   -4.1660   19.9620  -33.4520 N   0  0  0  0  0  0  0  0  0  0  0  0
   -4.4320   18.5880  -33.9210 C   0  0  0  0  0  0  0  0  0  0  0  0
   -5.3880   17.8350  -32.9850 C   0  0  0  0  0  0  0  0  0  0  0  0
   -6.5700   18.6780  -32.5850 C   0  0  0  0  0  0  0  0  0  0  0  0
   -7.6690   18.0670  -31.9610 C   0  0  0  0  0  0  0  0  0  0  0  0
   -8.7550   18.8340  -31.5350 C   0  0  0  0  0  0  0  0  0  0  0  0
   -8.7510   20.2170  -31.7210 C   0  0  0  0  0  0  0  0  0  0  0  0
   -7.6590   20.8390  -32.3300 C   0  0  0  0  0  0  0  0  0  0  0  0
   -6.5540   20.0800  -32.7470 C   0  0  0  0  0  0  0  0  0  0  0  0
   -5.4060   20.7670  -33.4540 C   0  0  0  0  0  0  0  0  0  0  0  0
   -6.5832   26.0663  -28.6327 H   0  0  0  0  0  0  0  0  0  0  0  0
   -5.7002   26.2413  -30.1872 H   0  0  0  0  0  0  0  0  0  0  0  0
   -7.4352   25.7761  -30.1872 H   0  0  0  0  0  0  0  0  0  0  0  0
   -5.9010   24.0350  -28.6000 H   0  0  0  0  0  0  0  0  0  0  0  0
   -3.9338   23.7946  -27.7871 H   0  0  0  0  0  0  0  0  0  0  0  0
   -2.6319   22.1563  -26.4511 H   0  0  0  0  0  0  0  0  0  0  0  0
   -1.5627   20.2030  -27.5630 H   0  0  0  0  0  0  0  0  0  0  0  0
   -1.7587   19.9042  -30.0216 H   0  0  0  0  0  0  0  0  0  0  0  0
   -3.7135   22.1365  -32.2792 H   0  0  0  0  0  0  0  0  0  0  0  0
   -1.9904   21.5583  -32.2132 H   0  0  0  0  0  0  0  0  0  0  0  0
   -2.5761   19.3467  -32.2005 H   0  0  0  0  0  0  0  0  0  0  0  0
   -4.1472   19.6564  -31.3651 H   0  0  0  0  0  0  0  0  0  0  0  0
   -4.8815   18.6360  -34.9238 H   0  0  0  0  0  0  0  0  0  0  0  0
   -3.4759   18.0443  -33.9387 H   0  0  0  0  0  0  0  0  0  0  0  0
   -5.7529   16.9343  -33.5004 H   0  0  0  0  0  0  0  0  0  0  0  0
   -4.8329   17.5748  -32.0717 H   0  0  0  0  0  0  0  0  0  0  0  0
   -7.6746   16.9779  -31.8068 H   0  0  0  0  0  0  0  0  0  0  0  0
   -9.6152   18.3474  -31.0520 H   0  0  0  0  0  0  0  0  0  0  0  0
   -9.6095   20.8183  -31.3873 H   0  0  0  0  0  0  0  0  0  0  0  0
   -7.6647   21.9282  -32.4836 H   0  0  0  0  0  0  0  0  0  0  0  0
   -5.6994   20.9574  -34.4969 H   0  0  0  0  0  0  0  0  0  0  0  0
   -5.1950   21.7005  -32.9117 H   0  0  0  0  0  0  0  0  0  0  0  0
  1  2  1  0
  2  3  1  0
  3  4  2  0
  3  5  2  0
  3  6  1  0
  6  7  2  0
  7  8  1  0
  8  9  2  0
  9 10  1  0
 10 11  2  0
 11 12  1  0
 12 13  1  0
 13 14  1  0
 14 15  1  0
 15 16  1  0
 16 17  1  0
 17 18  2  0
 18 19  1  0
 19 20  2  0
 20 21  1  0
 21 22  2  0
 22 23  1  0
 11  6  1  0
 23 14  1  0
 22 17  1  0
  1 24  1  0
  1 25  1  0
  1 26  1  0
  2 27  1  0
  7 28  1  0
  8 29  1  0
  9 30  1  0
 10 31  1  0
 12 32  1  0
 12 33  1  0
 13 34  1  0
 13 35  1  0
 15 36  1  0
 15 37  1  0
 16 38  1  0
 16 39  1  0
 18 40  1  0
 19 41  1  0
 20 42  1  0
 21 43  1  0
 23 44  1  0
 23 45  1  0
M  END
>  <UniqueID>  (10) 
10

>  <SMILES>  (10) 
CNS(=O)(=O)c1ccccc1CCN1CCc2ccccc2C1

>  <Energy>  (10) 
53.1299001845594

>  <Genealogy>  (10) 
CNS(=O)(=O)c1ccccc1CCN1CCc2ccccc2C1 (3D coordinates assigned)
CNS(=O)(=O)c1ccccc1CCN1CCc2ccccc2C1 (nonaromatic ring conformer: 53.1299001845594 kcal/mol)

>  <smiles>  (10) 
CNS(=O)(=O)c1ccccc1CCN1CCc2ccccc2C1

>  <score_type>  (10) 
oracle

>  <origin>  (10) 
adg

>  <m_score__min__energy>  (10) 
-9.3699999999999992

>  <m_primary>  (10) 
energy

$$$$
10:0
     RDKit          3D

 59 62  0  0  0  0  0  0  0  0999 V2000
   -1.7080   19.2390  -27.0820 C   0  0  0  0  0  0  0  0  0  0  0  0
   -0.9720   20.1180  -28.1050 C   0  0  0  0  0  0  0  0  0  0  0  0
   -1.7930   21.2140  -28.6660 N   0  0  0  0  0  0  0  0  0  0  0  0
   -1.0730   22.4930  -28.7870 C   0  0  0  0  0  0  0  0  0  0  0  0
   -1.8390   23.4030  -29.7510 C   0  0  0  0  0  0  0  0  0  0  0  0
   -3.2860   23.3070  -29.5230 N   0  0  0  0  0  0  0  0  0  0  0  0
   -4.1790   24.0240  -30.3940 C   0  0  0  0  0  0  0  0  0  0  0  0
   -3.8500   25.1700  -30.8070 O   0  0  0  0  0  0  0  0  0  0  0  0
   -5.4640   23.4350  -30.8360 C   0  0  0  0  0  0  0  0  0  0  0  0
   -6.6560   24.1980  -30.8190 C   0  0  0  0  0  0  0  0  0  0  0  0
   -7.8760   23.6300  -31.2170 C   0  0  0  0  0  0  0  0  0  0  0  0
   -7.8670   22.2980  -31.6240 C   0  0  0  0  0  0  0  0  0  0  0  0
   -8.9380   21.5760  -32.0140 N   0  0  0  0  0  0  0  0  0  0  0  0
   -8.4410   20.3490  -32.2910 C   0  0  0  0  0  0  0  0  0  0  0  0
   -9.2690   19.1820  -32.7160 C   0  0  0  0  0  0  0  0  0  0  0  0
   -7.0770   20.3550  -32.0500 C   0  0  0  0  0  0  0  0  0  0  0  0
   -6.1810   19.2430  -32.1890 N   0  0  0  0  0  0  0  0  0  0  0  0
   -6.3790   18.0680  -31.3350 C   0  0  0  0  0  0  0  0  0  0  0  0
   -5.3830   19.1360  -33.4160 C   0  0  0  0  0  0  0  0  0  0  0  0
   -3.9890   19.6730  -33.2130 C   0  0  0  0  0  0  0  0  0  0  0  0
   -2.9640   18.8300  -32.7500 C   0  0  0  0  0  0  0  0  0  0  0  0
   -1.6800   19.3370  -32.5310 C   0  0  0  0  0  0  0  0  0  0  0  0
   -1.4100   20.6870  -32.7700 C   0  0  0  0  0  0  0  0  0  0  0  0
   -2.4250   21.5330  -33.2260 C   0  0  0  0  0  0  0  0  0  0  0  0
   -3.7110   21.0300  -33.4440 C   0  0  0  0  0  0  0  0  0  0  0  0
   -6.7270   21.5860  -31.6330 N   0  0  0  0  0  0  0  0  0  0  0  0
   -5.5270   22.0860  -31.2440 C   0  0  0  0  0  0  0  0  0  0  0  0
   -3.7820   22.7110  -28.2760 C   0  0  0  0  0  0  0  0  0  0  0  0
   -3.1130   21.3480  -28.0080 C   0  0  0  0  0  0  0  0  0  0  0  0
   -1.4404   19.5587  -26.0641 H   0  0  0  0  0  0  0  0  0  0  0  0
   -2.7939   19.3411  -27.2248 H   0  0  0  0  0  0  0  0  0  0  0  0
   -1.4167   18.1879  -27.2248 H   0  0  0  0  0  0  0  0  0  0  0  0
   -0.0954   20.5621  -27.6107 H   0  0  0  0  0  0  0  0  0  0  0  0
   -0.7011   19.4636  -28.9467 H   0  0  0  0  0  0  0  0  0  0  0  0
   -1.0056   22.9738  -27.7999 H   0  0  0  0  0  0  0  0  0  0  0  0
   -0.0574   22.3146  -29.1699 H   0  0  0  0  0  0  0  0  0  0  0  0
   -1.5181   24.4436  -29.5958 H   0  0  0  0  0  0  0  0  0  0  0  0
   -1.6235   23.0844  -30.7816 H   0  0  0  0  0  0  0  0  0  0  0  0
   -6.6258   25.2473  -30.4903 H   0  0  0  0  0  0  0  0  0  0  0  0
   -8.8067   24.2162  -31.2078 H   0  0  0  0  0  0  0  0  0  0  0  0
   -9.9320   21.8910  -32.0760 H   0  0  0  0  0  0  0  0  0  0  0  0
   -9.6433   18.6545  -31.8262 H   0  0  0  0  0  0  0  0  0  0  0  0
  -10.1195   19.5355  -33.3175 H   0  0  0  0  0  0  0  0  0  0  0  0
   -8.6545   18.4960  -33.3175 H   0  0  0  0  0  0  0  0  0  0  0  0
   -6.3281   18.3699  -30.2785 H   0  0  0  0  0  0  0  0  0  0  0  0
   -7.3644   17.6255  -31.5429 H   0  0  0  0  0  0  0  0  0  0  0  0
   -5.5931   17.3270  -31.5429 H   0  0  0  0  0  0  0  0  0  0  0  0
   -5.3198   18.0782  -33.7109 H   0  0  0  0  0  0  0  0  0  0  0  0
   -5.8727   19.7310  -34.2010 H   0  0  0  0  0  0  0  0  0  0  0  0
   -3.1732   17.7670  -32.5593 H   0  0  0  0  0  0  0  0  0  0  0  0
   -0.8811   18.6725  -32.1701 H   0  0  0  0  0  0  0  0  0  0  0  0
   -0.3985   21.0841  -32.5993 H   0  0  0  0  0  0  0  0  0  0  0  0
   -2.2116   22.5957  -33.4135 H   0  0  0  0  0  0  0  0  0  0  0  0
   -4.5084   21.6999  -33.7979 H   0  0  0  0  0  0  0  0  0  0  0  0
   -4.6258   21.4552  -31.2467 H   0  0  0  0  0  0  0  0  0  0  0  0
   -3.5604   23.3906  -27.4399 H   0  0  0  0  0  0  0  0  0  0  0  0
   -4.8668   22.5553  -28.3704 H   0  0  0  0  0  0  0  0  0  0  0  0
   -2.9775   21.2310  -26.9227 H   0  0  0  0  0  0  0  0  0  0  0  0
   -3.7699   20.5705  -28.4250 H   0  0  0  0  0  0  0  0  0  0  0  0
  1  2  1  0
  2  3  1  0
  3  4  1  0
  4  5  1  0
  5  6  1  0
  6  7  1  0
  7  8  2  0
  7  9  1  0
  9 10  1  0
 10 11  2  0
 11 12  1  0
 12 13  2  0
 13 14  1  0
 14 15  1  0
 14 16  2  0
 16 17  1  0
 17 18  1  0
 17 19  1  0
 19 20  1  0
 20 21  2  0
 21 22  1  0
 22 23  2  0
 23 24  1  0
 24 25  2  0
 16 26  1  0
 26 27  1  0
  6 28  1  0
 28 29  1  0
 29  3  1  0
 27  9  2  0
 26 12  1  0
 25 20  1  0
  1 30  1  0
  1 31  1  0
  1 32  1  0
  2 33  1  0
  2 34  1  0
  4 35  1  0
  4 36  1  0
  5 37  1  0
  5 38  1  0
 10 39  1  0
 11 40  1  0
 13 41  1  0
 15 42  1  0
 15 43  1  0
 15 44  1  0
 18 45  1  0
 18 46  1  0
 18 47  1  0
 19 48  1  0
 19 49  1  0
 21 50  1  0
 22 51  1  0
 23 52  1  0
 24 53  1  0
 25 54  1  0
 27 55  1  0
 28 56  1  0
 28 57  1  0
 29 58  1  0
 29 59  1  0
M  CHG  1  13   1
M  END
>  <UniqueID>  (11) 
11

>  <SMILES>  (11) 
CCN1CCN(C(=O)c2ccc3[nH+]c(C)c(N(C)Cc4ccccc4)n3c2)CC1

>  <Energy>  (11) 
112.20138856219906

>  <Genealogy>  (11) 
CCN1CCN(C(=O)c2ccc3[nH+]c(C)c(N(C)Cc4ccccc4)n3c2)CC1 (protonated)
CCN1CCN(C(=O)c2ccc3[nH+]c(C)c(N(C)Cc4ccccc4)n3c2)CC1 (3D coordinates assigned)
CCN1CCN(C(=O)c2ccc3[nH+]c(C)c(N(C)Cc4ccccc4)n3c2)CC1 (nonaromatic ring conformer: 112.20138856219906 kcal/mol)

>  <smiles>  (11) 
CCN1CCN(C(=O)c2ccc3nc(C)c(N(C)Cc4ccccc4)n3c2)CC1

>  <score_type>  (11) 
oracle

>  <origin>  (11) 
adg

>  <m_score__min__energy>  (11) 
-8.6500000000000004

>  <m_primary>  (11) 
energy

$$$$
11:0
     RDKit          3D

 26 28  0  0  0  0  0  0  0  0999 V2000
   -3.4850   25.2570  -30.7000 O   0  0  0  0  0  0  0  0  0  0  0  0
   -4.7500   24.6960  -30.6800 C   0  0  0  0  0  0  0  0  0  0  0  0
   -5.7600   25.4520  -30.1110 C   0  0  0  0  0  0  0  0  0  0  0  0
   -7.0450   24.9540  -30.0580 C   0  0  0  0  0  0  0  0  0  0  0  0
   -7.2920   23.7010  -30.5810 C   0  0  0  0  0  0  0  0  0  0  0  0
   -6.2680   22.9670  -31.1430 C   0  0  0  0  0  0  0  0  0  0  0  0
   -4.9600   23.4410  -31.2110 C   0  0  0  0  0  0  0  0  0  0  0  0
   -3.9100   22.6330  -31.8140 C   0  0  0  0  0  0  0  0  0  0  0  0
   -2.7230   22.3880  -31.2170 N   0  0  0  0  0  0  0  0  0  0  0  0
   -1.9590   21.6210  -31.9960 C   0  0  0  0  0  0  0  0  0  0  0  0
   -0.6740   21.0980  -31.8450 C   0  0  0  0  0  0  0  0  0  0  0  0
   -0.1030   20.3110  -32.8360 C   0  0  0  0  0  0  0  0  0  0  0  0
   -0.8270   20.0460  -33.9890 C   0  0  0  0  0  0  0  0  0  0  0  0
   -2.0890   20.5810  -34.0980 C   0  0  0  0  0  0  0  0  0  0  0  0
   -2.6730   21.3650  -33.1240 C   0  0  0  0  0  0  0  0  0  0  0  0
   -3.8560   21.9960  -32.9820 N   0  0  0  0  0  0  0  0  0  0  0  0
   -3.1510   25.6380  -31.5890 H   0  0  0  0  0  0  0  0  0  0  0  0
   -5.5382   26.4486  -29.7016 H   0  0  0  0  0  0  0  0  0  0  0  0
   -7.8570   25.5439  -29.6078 H   0  0  0  0  0  0  0  0  0  0  0  0
   -8.3101   23.2856  -30.5496 H   0  0  0  0  0  0  0  0  0  0  0  0
   -6.4927   21.9710  -31.5524 H   0  0  0  0  0  0  0  0  0  0  0  0
   -0.1056   21.3123  -30.9280 H   0  0  0  0  0  0  0  0  0  0  0  0
    0.9105   19.9029  -32.7084 H   0  0  0  0  0  0  0  0  0  0  0  0
   -0.4039   19.4258  -34.7929 H   0  0  0  0  0  0  0  0  0  0  0  0
   -2.6647   20.3726  -35.0118 H   0  0  0  0  0  0  0  0  0  0  0  0
   -4.5920   21.9650  -33.6990 H   0  0  0  0  0  0  0  0  0  0  0  0
  1  2  1  0
  2  3  2  0
  3  4  1  0
  4  5  2  0
  5  6  1  0
  6  7  2  0
  7  8  1  0
  8  9  2  0
  9 10  1  0
 10 11  2  0
 11 12  1  0
 12 13  2  0
 13 14  1  0
 14 15  2  0
 15 16  1  0
  7  2  1  0
 16  8  1  0
 15 10  1  0
  1 17  1  0
  3 18  1  0
  4 19  1  0
  5 20  1  0
  6 21  1  0
 11 22  1  0
 12 23  1  0
 13 24  1  0
 14 25  1  0
 16 26  1  0
M  END
>  <smiles>  (12) 
Oc1ccccc1-c1nc2ccccc2[nH]1

>  <score_type>  (12) 
oracle

>  <origin>  (12) 
adg

>  <m_score__min__energy>  (12) 
-7.4299999999999997

>  <m_primary>  (12) 
energy

$$$$
12:0
     RDKit          3D

 44 46  0  0  0  0  0  0  0  0999 V2000
   -5.1110   19.3910  -33.8280 C   0  0  0  0  0  0  0  0  0  0  0  0
   -6.3580   19.4860  -32.9840 C   0  0  0  0  0  0  0  0  0  0  0  0
   -7.0630   18.3040  -32.7040 C   0  0  0  0  0  0  0  0  0  0  0  0
   -8.2460   18.3380  -31.9720 C   0  0  0  0  0  0  0  0  0  0  0  0
   -8.7510   19.5490  -31.5090 C   0  0  0  0  0  0  0  0  0  0  0  0
   -8.0670   20.7500  -31.7610 C   0  0  0  0  0  0  0  0  0  0  0  0
   -8.5900   22.0110  -31.3100 N   0  0  0  0  0  0  0  0  0  0  0  0
   -8.9820   23.1090  -32.1370 C   0  0  0  0  0  0  0  0  0  0  0  0
   -8.1010   23.7920  -32.7190 O   0  0  0  0  0  0  0  0  0  0  0  0
   -6.8550   20.7310  -32.5010 C   0  0  0  0  0  0  0  0  0  0  0  0
   -6.1470   21.9760  -32.7450 N   0  0  0  0  0  0  0  0  0  0  0  0
   -5.2210   22.2600  -31.6730 C   0  0  0  0  0  0  0  0  0  0  0  0
   -5.7020   22.7090  -30.4110 C   0  0  0  0  0  0  0  0  0  0  0  0
   -4.8150   22.9880  -29.3550 C   0  0  0  0  0  0  0  0  0  0  0  0
   -3.4510   22.8190  -29.5940 C   0  0  0  0  0  0  0  0  0  0  0  0
   -2.9810   22.4040  -30.8050 C   0  0  0  0  0  0  0  0  0  0  0  0
   -1.6100   22.3510  -30.6750 C   0  0  0  0  0  0  0  0  0  0  0  0
   -1.2860   22.7220  -29.4140 N   0  0  0  0  0  0  0  0  0  0  0  0
   -2.4100   23.0080  -28.7610 N   0  0  0  0  0  0  0  0  0  0  0  0
   -2.4530   23.4130  -27.3570 C   0  0  0  0  0  0  0  0  0  0  0  0
   -2.4280   24.9420  -27.2110 C   0  0  0  0  0  0  0  0  0  0  0  0
   -1.2640   25.5980  -27.9630 C   0  0  0  0  0  0  0  0  0  0  0  0
   -1.5270   25.6740  -29.3380 O   0  0  0  0  0  0  0  0  0  0  0  0
   -3.8250   22.1180  -31.8730 C   0  0  0  0  0  0  0  0  0  0  0  0
   -4.2295   19.3238  -33.1735 H   0  0  0  0  0  0  0  0  0  0  0  0
   -5.1654   18.4944  -34.4629 H   0  0  0  0  0  0  0  0  0  0  0  0
   -5.0290   20.2855  -34.4629 H   0  0  0  0  0  0  0  0  0  0  0  0
   -6.6757   17.3407  -33.0674 H   0  0  0  0  0  0  0  0  0  0  0  0
   -8.7845   17.4029  -31.7584 H   0  0  0  0  0  0  0  0  0  0  0  0
   -9.6930   19.5662  -30.9413 H   0  0  0  0  0  0  0  0  0  0  0  0
  -10.0467   23.3548  -32.2634 H   0  0  0  0  0  0  0  0  0  0  0  0
   -6.8530   22.7430  -32.8390 H   0  0  0  0  0  0  0  0  0  0  0  0
   -5.6140   21.9690  -33.6410 H   0  0  0  0  0  0  0  0  0  0  0  0
   -6.7835   22.8399  -30.2589 H   0  0  0  0  0  0  0  0  0  0  0  0
   -5.1839   23.3273  -28.3758 H   0  0  0  0  0  0  0  0  0  0  0  0
   -0.8998   22.0572  -31.4620 H   0  0  0  0  0  0  0  0  0  0  0  0
   -3.3762   23.0255  -26.9013 H   0  0  0  0  0  0  0  0  0  0  0  0
   -1.5654   23.0036  -26.8524 H   0  0  0  0  0  0  0  0  0  0  0  0
   -3.3719   25.3469  -27.6047 H   0  0  0  0  0  0  0  0  0  0  0  0
   -2.2975   25.1678  -26.1424 H   0  0  0  0  0  0  0  0  0  0  0  0
   -1.1104   26.6140  -27.5704 H   0  0  0  0  0  0  0  0  0  0  0  0
   -0.3633   24.9843  -27.8142 H   0  0  0  0  0  0  0  0  0  0  0  0
   -1.1300   24.8640  -29.7510 H   0  0  0  0  0  0  0  0  0  0  0  0
   -3.4215   21.7917  -32.8429 H   0  0  0  0  0  0  0  0  0  0  0  0
  1  2  1  0
  2  3  2  0
  3  4  1  0
  4  5  2  0
  5  6  1  0
  6  7  1  0
  7  8  1  0
  8  9  2  0
  6 10  2  0
 10 11  1  0
 11 12  1  0
 12 13  2  0
 13 14  1  0
 14 15  2  0
 15 16  1  0
 16 17  1  0
 17 18  2  0
 18 19  1  0
 19 20  1  0
 20 21  1  0
 21 22  1  0
 22 23  1  0
 16 24  2  0
 10  2  1  0
 24 12  1  0
 19 15  1  0
  1 25  1  0
  1 26  1  0
  1 27  1  0
  3 28  1  0
  4 29  1  0
  5 30  1  0
  8 31  1  0
 11 32  1  0
 11 33  1  0
 13 34  1  0
 14 35  1  0
 17 36  1  0
 20 37  1  0
 20 38  1  0
 21 39  1  0
 21 40  1  0
 22 41  1  0
 22 42  1  0
 23 43  1  0
 24 44  1  0
M  CHG  2   7  -1  11   1
M  END
>  <UniqueID>  (13) 
12

>  <SMILES>  (13) 
Cc1cccc([N-]C=O)c1[NH2+]c1ccc2c(cnn2CCCO)c1

>  <Energy>  (13) 
86.79160715655632

>  <Genealogy>  (13) 
Cc1cccc([N-]C=O)c1[NH2+]c1ccc2c(cnn2CCCO)c1 (protonated)
Cc1cccc([N-]C=O)c1[NH2+]c1ccc2c(cnn2CCCO)c1 (3D coordinates assigned)
Cc1cccc([N-]C=O)c1[NH2+]c1ccc2c(cnn2CCCO)c1 (optimized conformer: 86.79160715655632 kcal/mol)

>  <smiles>  (13) 
Cc1cccc(NC=O)c1Nc1ccc2c(cnn2CCCO)c1

>  <score_type>  (13) 
oracle

>  <origin>  (13) 
adg

>  <m_score__min__energy>  (13) 
-7.9400000000000004

>  <m_primary>  (13) 
energy

$$$$
13:0
     RDKit          3D

 51 53  0  0  0  0  0  0  0  0999 V2000
   -1.9740   25.3200  -26.8920 C   0  0  0  0  0  0  0  0  0  0  0  0
   -1.3190   25.6790  -28.2200 C   0  0  0  0  0  0  0  0  0  0  0  0
   -2.1520   25.2930  -29.3120 O   0  0  0  0  0  0  0  0  0  0  0  0
   -2.3920   23.9580  -29.6630 C   0  0  0  0  0  0  0  0  0  0  0  0
   -1.4540   23.2380  -30.1010 O   0  0  0  0  0  0  0  0  0  0  0  0
   -3.7090   23.4070  -29.5060 N   0  0  0  0  0  0  0  0  0  0  0  0
   -4.2310   23.1380  -28.1670 C   0  0  0  0  0  0  0  0  0  0  0  0
   -4.5180   23.1170  -30.6570 C   0  0  0  0  0  0  0  0  0  0  0  0
   -5.3980   23.9860  -31.2930 C   0  0  0  0  0  0  0  0  0  0  0  0
   -5.7260   25.3920  -30.8880 C   0  0  0  0  0  0  0  0  0  0  0  0
   -6.4750   25.4080  -29.5610 C   0  0  0  0  0  0  0  0  0  0  0  0
   -6.0570   23.3030  -32.2580 N   0  0  0  0  0  0  0  0  0  0  0  0
   -5.5630   22.0500  -32.1930 C   0  0  0  0  0  0  0  0  0  0  0  0
   -5.9450   20.9720  -32.9880 C   0  0  0  0  0  0  0  0  0  0  0  0
   -5.3160   19.7280  -32.7660 C   0  0  0  0  0  0  0  0  0  0  0  0
   -5.6820   18.5780  -33.5560 N   0  0  0  0  0  0  0  0  0  0  0  0
   -6.8500   17.7700  -33.1720 C   0  0  0  0  0  0  0  0  0  0  0  0
   -6.8580   16.4110  -33.8880 C   0  0  0  0  0  0  0  0  0  0  0  0
   -5.4490   15.8050  -33.8940 C   0  0  0  0  0  0  0  0  0  0  0  0
   -4.4070   16.7230  -34.5730 C   0  0  0  0  0  0  0  0  0  0  0  0
   -4.8820   18.1770  -34.7200 C   0  0  0  0  0  0  0  0  0  0  0  0
   -4.3420   19.6140  -31.7450 C   0  0  0  0  0  0  0  0  0  0  0  0
   -4.0030   20.7330  -30.9720 C   0  0  0  0  0  0  0  0  0  0  0  0
   -4.6350   21.9060  -31.2320 N   0  0  0  0  0  0  0  0  0  0  0  0
   -1.3390   25.6681  -26.0640 H   0  0  0  0  0  0  0  0  0  0  0  0
   -2.9596   25.8040  -26.8266 H   0  0  0  0  0  0  0  0  0  0  0  0
   -2.0963   24.2288  -26.8266 H   0  0  0  0  0  0  0  0  0  0  0  0
   -1.1527   26.7657  -28.2588 H   0  0  0  0  0  0  0  0  0  0  0  0
   -0.3611   25.1441  -28.2987 H   0  0  0  0  0  0  0  0  0  0  0  0
   -3.5176   23.5056  -27.4147 H   0  0  0  0  0  0  0  0  0  0  0  0
   -5.1955   23.6514  -28.0395 H   0  0  0  0  0  0  0  0  0  0  0  0
   -4.3726   22.0546  -28.0395 H   0  0  0  0  0  0  0  0  0  0  0  0
   -4.7928   25.9649  -30.7831 H   0  0  0  0  0  0  0  0  0  0  0  0
   -6.3653   25.8433  -31.6611 H   0  0  0  0  0  0  0  0  0  0  0  0
   -5.7523   25.3926  -28.7318 H   0  0  0  0  0  0  0  0  0  0  0  0
   -7.0875   26.3194  -29.4966 H   0  0  0  0  0  0  0  0  0  0  0  0
   -7.1259   24.5236  -29.4966 H   0  0  0  0  0  0  0  0  0  0  0  0
   -6.8100   23.6590  -32.8880 H   0  0  0  0  0  0  0  0  0  0  0  0
   -6.7142   21.0867  -33.7659 H   0  0  0  0  0  0  0  0  0  0  0  0
   -6.8253   17.6008  -32.0854 H   0  0  0  0  0  0  0  0  0  0  0  0
   -7.7581   18.3178  -33.4639 H   0  0  0  0  0  0  0  0  0  0  0  0
   -7.5443   15.7290  -33.3646 H   0  0  0  0  0  0  0  0  0  0  0  0
   -7.1902   16.5554  -34.9267 H   0  0  0  0  0  0  0  0  0  0  0  0
   -5.1376   15.6284  -32.8539 H   0  0  0  0  0  0  0  0  0  0  0  0
   -5.4926   14.8691  -34.4704 H   0  0  0  0  0  0  0  0  0  0  0  0
   -3.4882   16.7153  -33.9682 H   0  0  0  0  0  0  0  0  0  0  0  0
   -4.2391   16.3310  -35.5870 H   0  0  0  0  0  0  0  0  0  0  0  0
   -4.0060   18.8373  -34.8017 H   0  0  0  0  0  0  0  0  0  0  0  0
   -5.5042   18.2579  -35.6235 H   0  0  0  0  0  0  0  0  0  0  0  0
   -3.8513   18.6474  -31.5583 H   0  0  0  0  0  0  0  0  0  0  0  0
   -3.2461   20.6627  -30.1770 H   0  0  0  0  0  0  0  0  0  0  0  0
  1  2  1  0
  2  3  1  0
  3  4  1  0
  4  5  2  0
  4  6  1  0
  6  7  1  0
  6  8  1  0
  8  9  2  0
  9 10  1  0
 10 11  1  0
  9 12  1  0
 12 13  2  0
 13 14  1  0
 14 15  2  0
 15 16  1  0
 16 17  1  0
 17 18  1  0
 18 19  1  0
 19 20  1  0
 20 21  1  0
 15 22  1  0
 22 23  2  0
 23 24  1  0
 24  8  1  0
 24 13  1  0
 21 16  1  0
  1 25  1  0
  1 26  1  0
  1 27  1  0
  2 28  1  0
  2 29  1  0
  7 30  1  0
  7 31  1  0
  7 32  1  0
 10 33  1  0
 10 34  1  0
 11 35  1  0
 11 36  1  0
 11 37  1  0
 12 38  1  0
 14 39  1  0
 17 40  1  0
 17 41  1  0
 18 42  1  0
 18 43  1  0
 19 44  1  0
 19 45  1  0
 20 46  1  0
 20 47  1  0
 21 48  1  0
 21 49  1  0
 22 50  1  0
 23 51  1  0
M  CHG  1  12   1
M  END
>  <UniqueID>  (14) 
13

>  <SMILES>  (14) 
CCOC(=O)N(C)c1c(CC)[nH+]c2cc(N3CCCCC3)ccn12

>  <Energy>  (14) 
89.56239053342456

>  <Genealogy>  (14) 
CCOC(=O)N(C)c1c(CC)[nH+]c2cc(N3CCCCC3)ccn12 (protonated)
CCOC(=O)N(C)c1c(CC)[nH+]c2cc(N3CCCCC3)ccn12 (3D coordinates assigned)
CCOC(=O)N(C)c1c(CC)[nH+]c2cc(N3CCCCC3)ccn12 (nonaromatic ring conformer: 89.56239053342456 kcal/mol)

>  <smiles>  (14) 
CCOC(=O)N(C)c1c(CC)nc2cc(N3CCCCC3)ccn12

>  <score_type>  (14) 
oracle

>  <origin>  (14) 
adg

>  <m_score__min__energy>  (14) 
-7.1399999999999997

>  <m_primary>  (14) 
energy

$$$$
14:0
     RDKit          3D

 60 63  0  0  0  0  0  0  0  0999 V2000
   -1.1140   27.2760  -24.6830 C   0  0  0  0  0  0  0  0  0  0  0  0
   -1.5190   26.3940  -25.8260 C   0  0  0  0  0  0  0  0  0  0  0  0
   -0.7980   26.4230  -27.0280 C   0  0  0  0  0  0  0  0  0  0  0  0
   -1.1960   25.6290  -28.1090 C   0  0  0  0  0  0  0  0  0  0  0  0
   -2.3240   24.7980  -28.0060 C   0  0  0  0  0  0  0  0  0  0  0  0
   -2.7320   23.9850  -29.1230 N   0  0  0  0  0  0  0  0  0  0  0  0
   -2.5190   22.6610  -29.2640 C   0  0  0  0  0  0  0  0  0  0  0  0
   -3.0590   22.2210  -30.4610 C   0  0  0  0  0  0  0  0  0  0  0  0
   -3.0330   20.8320  -30.9590 C   0  0  0  0  0  0  0  0  0  0  0  0
   -3.7060   19.9510  -30.3560 O   0  0  0  0  0  0  0  0  0  0  0  0
   -2.2580   20.4720  -32.1140 N   0  0  0  0  0  0  0  0  0  0  0  0
   -2.3120   19.1360  -32.7050 C   0  0  0  0  0  0  0  0  0  0  0  0
   -3.2500   19.1290  -33.9210 C   0  0  0  0  0  0  0  0  0  0  0  0
   -3.9460   17.8290  -34.0830 N   0  0  0  0  0  0  0  0  0  0  0  0
   -5.1200   17.9420  -34.9900 C   0  0  0  0  0  0  0  0  0  0  0  0
   -6.4740   18.0770  -34.2580 C   0  0  0  0  0  0  0  0  0  0  0  0
   -6.2910   18.6350  -32.9170 N   0  0  0  0  0  0  0  0  0  0  0  0
   -6.9230   19.8750  -32.5530 C   0  0  0  0  0  0  0  0  0  0  0  0
   -6.2010   21.0730  -32.6810 C   0  0  0  0  0  0  0  0  0  0  0  0
   -6.7700   22.2890  -32.2980 C   0  0  0  0  0  0  0  0  0  0  0  0
   -8.0660   22.3230  -31.7840 C   0  0  0  0  0  0  0  0  0  0  0  0
   -8.8030   21.1430  -31.6660 C   0  0  0  0  0  0  0  0  0  0  0  0
   -8.2510   19.9120  -32.0650 C   0  0  0  0  0  0  0  0  0  0  0  0
   -9.0800   18.6640  -31.9410 C   0  0  0  0  0  0  0  0  0  0  0  0
   -5.3290   18.0030  -32.0080 C   0  0  0  0  0  0  0  0  0  0  0  0
   -4.3020   17.1790  -32.8020 C   0  0  0  0  0  0  0  0  0  0  0  0
   -3.6340   23.3220  -31.0750 C   0  0  0  0  0  0  0  0  0  0  0  0
   -3.4140   24.3800  -30.2190 C   0  0  0  0  0  0  0  0  0  0  0  0
   -3.8690   25.6750  -30.4390 O   0  0  0  0  0  0  0  0  0  0  0  0
   -3.0590   24.7910  -26.8080 C   0  0  0  0  0  0  0  0  0  0  0  0
   -2.6630   25.5880  -25.7290 C   0  0  0  0  0  0  0  0  0  0  0  0
   -1.3449   26.7732  -23.7322 H   0  0  0  0  0  0  0  0  0  0  0  0
   -0.0338   27.4761  -24.7391 H   0  0  0  0  0  0  0  0  0  0  0  0
   -1.6662   28.2257  -24.7391 H   0  0  0  0  0  0  0  0  0  0  0  0
    0.0845   27.0729  -27.1216 H   0  0  0  0  0  0  0  0  0  0  0  0
   -0.6214   25.6556  -29.0466 H   0  0  0  0  0  0  0  0  0  0  0  0
   -1.9942   22.0247  -28.5362 H   0  0  0  0  0  0  0  0  0  0  0  0
   -1.5970   21.1630  -32.5320 H   0  0  0  0  0  0  0  0  0  0  0  0
   -1.3020   18.8392  -33.0240 H   0  0  0  0  0  0  0  0  0  0  0  0
   -2.6934   18.4278  -31.9547 H   0  0  0  0  0  0  0  0  0  0  0  0
   -4.0029   19.9206  -33.7924 H   0  0  0  0  0  0  0  0  0  0  0  0
   -2.6396   19.3001  -34.8199 H   0  0  0  0  0  0  0  0  0  0  0  0
   -4.9812   18.8292  -35.6254 H   0  0  0  0  0  0  0  0  0  0  0  0
   -5.1645   17.0072  -35.5680 H   0  0  0  0  0  0  0  0  0  0  0  0
   -7.1318   18.7414  -34.8376 H   0  0  0  0  0  0  0  0  0  0  0  0
   -6.9231   17.0773  -34.1638 H   0  0  0  0  0  0  0  0  0  0  0  0
   -5.1786   21.0529  -33.0864 H   0  0  0  0  0  0  0  0  0  0  0  0
   -6.1955   23.2213  -32.4018 H   0  0  0  0  0  0  0  0  0  0  0  0
   -8.5081   23.2805  -31.4712 H   0  0  0  0  0  0  0  0  0  0  0  0
   -9.8238   21.1761  -31.2576 H   0  0  0  0  0  0  0  0  0  0  0  0
   -9.2349   18.4309  -30.8772 H   0  0  0  0  0  0  0  0  0  0  0  0
  -10.0540   18.8209  -32.4275 H   0  0  0  0  0  0  0  0  0  0  0  0
   -8.5577   17.8270  -32.4275 H   0  0  0  0  0  0  0  0  0  0  0  0
   -4.8041   18.7828  -31.4367 H   0  0  0  0  0  0  0  0  0  0  0  0
   -5.8714   17.3335  -31.3242 H   0  0  0  0  0  0  0  0  0  0  0  0
   -3.3914   17.0656  -32.1954 H   0  0  0  0  0  0  0  0  0  0  0  0
   -4.7512   16.2009  -33.0288 H   0  0  0  0  0  0  0  0  0  0  0  0
   -4.1565   23.3467  -32.0427 H   0  0  0  0  0  0  0  0  0  0  0  0
   -3.9516   24.1545  -26.7184 H   0  0  0  0  0  0  0  0  0  0  0  0
   -3.2516   25.5828  -24.7997 H   0  0  0  0  0  0  0  0  0  0  0  0
  1  2  1  0
  2  3  2  0
  3  4  1  0
  4  5  2  0
  5  6  1  0
  6  7  1  0
  7  8  2  0
  8  9  1  0
  9 10  2  0
  9 11  1  0
 11 12  1  0
 12 13  1  0
 13 14  1  0
 14 15  1  0
 15 16  1  0
 16 17  1  0
 17 18  1  0
 18 19  2  0
 19 20  1  0
 20 21  2  0
 21 22  1  0
 22 23  2  0
 23 24  1  0
 17 25  1  0
 25 26  1  0
  8 27  1  0
 27 28  2  0
 28 29  1  0
  5 30  1  0
 30 31  2  0
 31  2  1  0
 28  6  1  0
 26 14  1  0
 23 18  1  0
  1 32  1  0
  1 33  1  0
  1 34  1  0
  3 35  1  0
  4 36  1  0
  7 37  1  0
 11 38  1  0
 12 39  1  0
 12 40  1  0
 13 41  1  0
 13 42  1  0
 15 43  1  0
 15 44  1  0
 16 45  1  0
 16 46  1  0
 19 47  1  0
 20 48  1  0
 21 49  1  0
 22 50  1  0
 24 51  1  0
 24 52  1  0
 24 53  1  0
 25 54  1  0
 25 55  1  0
 26 56  1  0
 26 57  1  0
 27 58  1  0
 30 59  1  0
 31 60  1  0
M  CHG  1  29  -1
M  END
>  <UniqueID>  (15) 
14

>  <SMILES>  (15) 
Cc1ccc(-n2cc(C(=O)NCCN3CCN(c4ccccc4C)CC3)cc2[O-])cc1

>  <Energy>  (15) 
104.89655140246293

>  <Genealogy>  (15) 
Cc1ccc(-n2cc(C(=O)NCCN3CCN(c4ccccc4C)CC3)cc2[O-])cc1 (protonated)
Cc1ccc(-n2cc(C(=O)NCCN3CCN(c4ccccc4C)CC3)cc2[O-])cc1 (3D coordinates assigned)
Cc1ccc(-n2cc(C(=O)NCCN3CCN(c4ccccc4C)CC3)cc2[O-])cc1 (nonaromatic ring conformer: 104.89655140246293 kcal/mol)

>  <smiles>  (15) 
Cc1ccc(-n2cc(C(=O)NCCN3CCN(c4ccccc4C)CC3)cc2O)cc1

>  <score_type>  (15) 
oracle

>  <origin>  (15) 
adg

>  <m_score__min__energy>  (15) 
-12.31

>  <m_primary>  (15) 
energy

$$$$
15:0
     RDKit          3D

 63 62  0  0  0  0  0  0  0  0999 V2000
   -6.4450   25.5590  -29.6530 C   0  0  0  0  0  0  0  0  0  0  0  0
   -6.7980   24.0990  -29.9350 C   0  0  0  0  0  0  0  0  0  0  0  0
   -7.2110   23.8540  -31.3970 C   0  0  0  0  0  0  0  0  0  0  0  0
   -7.2210   22.3760  -31.8360 C   0  0  0  0  0  0  0  0  0  0  0  0
   -8.2450   21.4800  -31.1070 C   0  0  0  0  0  0  0  0  0  0  0  0
   -9.4790   21.0980  -31.9460 C   0  0  0  0  0  0  0  0  0  0  0  0
   -9.3410   19.7150  -32.6100 C   0  0  0  0  0  0  0  0  0  0  0  0
   -8.4460   18.7540  -31.8080 C   0  0  0  0  0  0  0  0  0  0  0  0
   -7.6290   17.7510  -32.6490 C   0  0  0  0  0  0  0  0  0  0  0  0
   -6.1070   18.0090  -32.6490 C   0  0  0  0  0  0  0  0  0  0  0  0
   -5.6510   18.8810  -33.8320 C   0  0  0  0  0  0  0  0  0  0  0  0
   -5.4980   20.3620  -33.4480 C   0  0  0  0  0  0  0  0  0  0  0  0
   -4.0720   20.6960  -32.9740 C   0  0  0  0  0  0  0  0  0  0  0  0
   -3.9560   22.1500  -32.5010 C   0  0  0  0  0  0  0  0  0  0  0  0
   -3.5300   22.2070  -31.1020 N   0  0  0  0  0  0  0  0  0  0  0  0
   -3.4360   23.4370  -30.3720 C   0  0  0  0  0  0  0  0  0  0  0  0
   -3.8870   24.5060  -30.8670 O   0  0  0  0  0  0  0  0  0  0  0  0
   -2.8320   23.4490  -28.9890 C   0  0  2  0  0  0  0  0  0  0  0  0
   -3.4990   22.3610  -28.1220 C   0  0  0  0  0  0  0  0  0  0  0  0
   -3.1020   21.0650  -28.5370 O   0  0  0  0  0  0  0  0  0  0  0  0
   -2.7300   20.2830  -27.4240 C   0  0  0  0  0  0  0  0  0  0  0  0
   -3.0100   24.7780  -28.3720 N   0  0  0  0  0  0  0  0  0  0  0  0
   -3.3850   24.6630  -26.9590 C   0  0  0  0  0  0  0  0  0  0  0  0
   -6.4053   25.7233  -28.5661 H   0  0  0  0  0  0  0  0  0  0  0  0
   -5.4648   25.7912  -30.0950 H   0  0  0  0  0  0  0  0  0  0  0  0
   -7.2108   26.2134  -30.0950 H   0  0  0  0  0  0  0  0  0  0  0  0
   -5.9201   23.4758  -29.7092 H   0  0  0  0  0  0  0  0  0  0  0  0
   -7.6586   23.8393  -29.3011 H   0  0  0  0  0  0  0  0  0  0  0  0
   -8.2247   24.2577  -31.5368 H   0  0  0  0  0  0  0  0  0  0  0  0
   -6.4511   24.3521  -32.0171 H   0  0  0  0  0  0  0  0  0  0  0  0
   -7.4451   22.3424  -32.9124 H   0  0  0  0  0  0  0  0  0  0  0  0
   -6.2289   21.9753  -31.5806 H   0  0  0  0  0  0  0  0  0  0  0  0
   -7.7355   20.5529  -30.8054 H   0  0  0  0  0  0  0  0  0  0  0  0
   -8.6186   22.0659  -30.2543 H   0  0  0  0  0  0  0  0  0  0  0  0
  -10.3614   21.0867  -31.2893 H   0  0  0  0  0  0  0  0  0  0  0  0
   -9.5790   21.8436  -32.7486 H   0  0  0  0  0  0  0  0  0  0  0  0
  -10.3419   19.2682  -32.7023 H   0  0  0  0  0  0  0  0  0  0  0  0
   -8.8685   19.8652  -33.5919 H   0  0  0  0  0  0  0  0  0  0  0  0
   -7.7394   19.3591  -31.2210 H   0  0  0  0  0  0  0  0  0  0  0  0
   -9.1277   18.1482  -31.1929 H   0  0  0  0  0  0  0  0  0  0  0  0
   -7.8068   16.7418  -32.2491 H   0  0  0  0  0  0  0  0  0  0  0  0
   -7.9667   17.8659  -33.6896 H   0  0  0  0  0  0  0  0  0  0  0  0
   -5.8367   18.5181  -31.7121 H   0  0  0  0  0  0  0  0  0  0  0  0
   -5.6055   17.0345  -32.7427 H   0  0  0  0  0  0  0  0  0  0  0  0
   -4.6807   18.5079  -34.1917 H   0  0  0  0  0  0  0  0  0  0  0  0
   -6.4239   18.8163  -34.6120 H   0  0  0  0  0  0  0  0  0  0  0  0
   -5.7337   20.9816  -34.3258 H   0  0  0  0  0  0  0  0  0  0  0  0
   -6.1872   20.5678  -32.6157 H   0  0  0  0  0  0  0  0  0  0  0  0
   -3.8080   20.0282  -32.1407 H   0  0  0  0  0  0  0  0  0  0  0  0
   -3.3875   20.5568  -33.8237 H   0  0  0  0  0  0  0  0  0  0  0  0
   -3.2175   22.6747  -33.1249 H   0  0  0  0  0  0  0  0  0  0  0  0
   -4.9415   22.6304  -32.5902 H   0  0  0  0  0  0  0  0  0  0  0  0
   -3.3460   21.3080  -30.6020 H   0  0  0  0  0  0  0  0  0  0  0  0
   -1.7549   23.2374  -29.0609 H   0  0  0  0  0  0  0  0  0  0  0  0
   -3.2055   22.5079  -27.0721 H   0  0  0  0  0  0  0  0  0  0  0  0
   -4.5901   22.4451  -28.2331 H   0  0  0  0  0  0  0  0  0  0  0  0
   -2.9849   20.8188  -26.4978 H   0  0  0  0  0  0  0  0  0  0  0  0
   -3.2685   19.3243  -27.4530 H   0  0  0  0  0  0  0  0  0  0  0  0
   -1.6464   20.0959  -27.4530 H   0  0  0  0  0  0  0  0  0  0  0  0
   -3.8000   25.2680  -28.8530 H   0  0  0  0  0  0  0  0  0  0  0  0
   -2.5234   24.9272  -26.3283 H   0  0  0  0  0  0  0  0  0  0  0  0
   -4.2198   25.3464  -26.7444 H   0  0  0  0  0  0  0  0  0  0  0  0
   -3.6931   23.6291  -26.7444 H   0  0  0  0  0  0  0  0  0  0  0  0
  1  2  1  0
  2  3  1  0
  3  4  1  0
  4  5  1  0
  5  6  1  0
  6  7  1  0
  7  8  1  0
  8  9  1  0
  9 10  1  0
 10 11  1  0
 11 12  1  0
 12 13  1  0
 13 14  1  0
 14 15  1  0
 15 16  1  0
 16 17  2  0
 16 18  1  0
 18 19  1  0
 19 20  1  0
 20 21  1  0
 18 22  1  0
 22 23  1  0
  1 24  1  0
  1 25  1  0
  1 26  1  0
  2 27  1  0
  2 28  1  0
  3 29  1  0
  3 30  1  0
  4 31  1  0
  4 32  1  0
  5 33  1  0
  5 34  1  0
  6 35  1  0
  6 36  1  0
  7 37  1  0
  7 38  1  0
  8 39  1  0
  8 40  1  0
  9 41  1  0
  9 42  1  0
 10 43  1  0
 10 44  1  0
 11 45  1  0
 11 46  1  0
 12 47  1  0
 12 48  1  0
 13 49  1  0
 13 50  1  0
 14 51  1  0
 14 52  1  0
 15 53  1  0
 18 54  1  6
 19 55  1  0
 19 56  1  0
 21 57  1  0
 21 58  1  0
 21 59  1  0
 22 60  1  0
 23 61  1  0
 23 62  1  0
 23 63  1  0
M  END
>  <UniqueID>  (16) 
15

>  <SMILES>  (16) 
CCCCCCCCCCCCCCNC(=O)[C@H](COC)NC

>  <Energy>  (16) 
37.274533030374755

>  <Genealogy>  (16) 
CCCCCCCCCCCCCCNC(=O)[C@H](COC)NC (chirality)
CCCCCCCCCCCCCCNC(=O)[C@H](COC)NC (3D coordinates assigned)
CCCCCCCCCCCCCCNC(=O)[C@H](COC)NC (optimized conformer: 37.274533030374755 kcal/mol)

>  <smiles>  (16) 
CCCCCCCCCCCCCCNC(=O)C(COC)NC

>  <score_type>  (16) 
oracle

>  <origin>  (16) 
adg

>  <m_score__min__energy>  (16) 
-7.96

>  <m_primary>  (16) 
energy

$$$$
16:0
     RDKit          3D

 48 51  0  0  0  0  0  0  0  0999 V2000
    1.0360   26.8780  -26.7350 C   0  0  0  0  0  0  0  0  0  0  0  0
   -0.3050   26.1940  -26.7740 C   0  0  0  0  0  0  0  0  0  0  0  0
   -0.8330   25.7860  -28.0190 C   0  0  0  0  0  0  0  0  0  0  0  0
   -2.0730   25.1510  -28.0570 C   0  0  0  0  0  0  0  0  0  0  0  0
   -2.6760   24.7180  -29.1940 N   0  0  0  0  0  0  0  0  0  0  0  0
   -3.8740   24.1400  -28.9270 C   0  0  0  0  0  0  0  0  0  0  0  0
   -4.7300   23.5910  -29.9510 N   0  0  0  0  0  0  0  0  0  0  0  0
   -4.4870   22.2590  -30.5020 C   0  0  0  0  0  0  0  0  0  0  0  0
   -4.8620   22.2100  -31.9900 C   0  0  0  0  0  0  0  0  0  0  0  0
   -6.1810   22.8100  -32.3120 N   0  0  0  0  0  0  0  0  0  0  0  0
   -7.3240   21.8580  -32.3000 C   0  0  0  0  0  0  0  0  0  0  0  0
   -6.9690   20.4130  -32.5640 C   0  0  0  0  0  0  0  0  0  0  0  0
   -6.3810   20.0370  -33.7850 C   0  0  0  0  0  0  0  0  0  0  0  0
   -6.0980   18.6940  -34.0480 C   0  0  0  0  0  0  0  0  0  0  0  0
   -6.4240   17.7120  -33.1090 C   0  0  0  0  0  0  0  0  0  0  0  0
   -7.0450   18.0710  -31.9110 C   0  0  0  0  0  0  0  0  0  0  0  0
   -7.3290   19.4130  -31.6430 C   0  0  0  0  0  0  0  0  0  0  0  0
   -6.4400   24.1120  -31.6490 C   0  0  0  0  0  0  0  0  0  0  0  0
   -6.0640   24.1520  -30.1630 C   0  0  0  0  0  0  0  0  0  0  0  0
   -4.2190   24.1480  -27.2620 S   0  0  0  0  0  0  0  0  0  0  0  0
   -2.7780   24.9220  -26.8910 C   0  0  0  0  0  0  0  0  0  0  0  0
   -2.2950   25.3060  -25.6460 C   0  0  0  0  0  0  0  0  0  0  0  0
   -1.0420   25.9500  -25.5770 C   0  0  0  0  0  0  0  0  0  0  0  0
   -0.5060   26.3710  -24.2340 C   0  0  0  0  0  0  0  0  0  0  0  0
    1.3386   27.0323  -25.6888 H   0  0  0  0  0  0  0  0  0  0  0  0
    1.7826   26.2506  -27.2439 H   0  0  0  0  0  0  0  0  0  0  0  0
    0.9664   27.8507  -27.2439 H   0  0  0  0  0  0  0  0  0  0  0  0
   -0.2720   25.9674  -28.9477 H   0  0  0  0  0  0  0  0  0  0  0  0
   -3.4212   22.0109  -30.3900 H   0  0  0  0  0  0  0  0  0  0  0  0
   -5.1076   21.5325  -29.9570 H   0  0  0  0  0  0  0  0  0  0  0  0
   -4.0905   22.7517  -32.5569 H   0  0  0  0  0  0  0  0  0  0  0  0
   -4.9274   21.1460  -32.2615 H   0  0  0  0  0  0  0  0  0  0  0  0
   -6.1030   23.0560  -33.3300 H   0  0  0  0  0  0  0  0  0  0  0  0
   -7.8019   21.9144  -31.3108 H   0  0  0  0  0  0  0  0  0  0  0  0
   -7.9810   22.1640  -33.1275 H   0  0  0  0  0  0  0  0  0  0  0  0
   -6.1427   20.8039  -34.5367 H   0  0  0  0  0  0  0  0  0  0  0  0
   -5.6178   18.4095  -34.9959 H   0  0  0  0  0  0  0  0  0  0  0  0
   -6.1915   16.6565  -33.3135 H   0  0  0  0  0  0  0  0  0  0  0  0
   -7.3112   17.2963  -31.1769 H   0  0  0  0  0  0  0  0  0  0  0  0
   -7.8367   19.6885  -30.7069 H   0  0  0  0  0  0  0  0  0  0  0  0
   -5.8589   24.8859  -32.1719 H   0  0  0  0  0  0  0  0  0  0  0  0
   -7.5256   24.2812  -31.7028 H   0  0  0  0  0  0  0  0  0  0  0  0
   -6.0760   25.1956  -29.8156 H   0  0  0  0  0  0  0  0  0  0  0  0
   -6.7931   23.5528  -29.5979 H   0  0  0  0  0  0  0  0  0  0  0  0
   -2.8776   25.1118  -24.7334 H   0  0  0  0  0  0  0  0  0  0  0  0
   -1.1028   25.9022  -23.4377 H   0  0  0  0  0  0  0  0  0  0  0  0
    0.5429   26.0528  -24.1417 H   0  0  0  0  0  0  0  0  0  0  0  0
   -0.5666   27.4654  -24.1417 H   0  0  0  0  0  0  0  0  0  0  0  0
  1  2  1  0
  2  3  2  0
  3  4  1  0
  4  5  1  0
  5  6  2  0
  6  7  1  0
  7  8  1  0
  8  9  1  0
  9 10  1  0
 10 11  1  0
 11 12  1  0
 12 13  2  0
 13 14  1  0
 14 15  2  0
 15 16  1  0
 16 17  2  0
 10 18  1  0
 18 19  1  0
  6 20  1  0
 20 21  1  0
 21 22  1  0
 22 23  2  0
 23 24  1  0
 23  2  1  0
 21  4  2  0
 19  7  1  0
 17 12  1  0
  1 25  1  0
  1 26  1  0
  1 27  1  0
  3 28  1  0
  8 29  1  0
  8 30  1  0
  9 31  1  0
  9 32  1  0
 10 33  1  0
 11 34  1  0
 11 35  1  0
 13 36  1  0
 14 37  1  0
 15 38  1  0
 16 39  1  0
 17 40  1  0
 18 41  1  0
 18 42  1  0
 19 43  1  0
 19 44  1  0
 22 45  1  0
 24 46  1  0
 24 47  1  0
 24 48  1  0
M  CHG  1  10   1
M  END
>  <UniqueID>  (17) 
16

>  <SMILES>  (17) 
Cc1cc2nc(N3CC[NH+](Cc4ccccc4)CC3)sc2cc1C

>  <Energy>  (17) 
97.36963838189094

>  <Genealogy>  (17) 
Cc1cc2nc(N3CC[NH+](Cc4ccccc4)CC3)sc2cc1C (protonated)
Cc1cc2nc(N3CC[NH+](Cc4ccccc4)CC3)sc2cc1C (3D coordinates assigned)
Cc1cc2nc(N3CC[NH+](Cc4ccccc4)CC3)sc2cc1C (nonaromatic ring conformer: 97.36963838189094 kcal/mol)

>  <smiles>  (17) 
Cc1cc2nc(N3CCN(Cc4ccccc4)CC3)sc2cc1C

>  <score_type>  (17) 
oracle

>  <origin>  (17) 
adg

>  <m_score__min__energy>  (17) 
-8.3800000000000008

>  <m_primary>  (17) 
energy

$$$$
17:0
     RDKit          3D

 38 39  0  0  0  0  0  0  0  0999 V2000
   -2.5300   24.4930  -28.4140 C   0  0  0  0  0  0  0  0  0  0  0  0
   -3.0790   24.9890  -29.6310 O   0  0  0  0  0  0  0  0  0  0  0  0
   -4.2170   24.4620  -30.2600 C   0  0  0  0  0  0  0  0  0  0  0  0
   -5.5150   24.9040  -29.9630 C   0  0  0  0  0  0  0  0  0  0  0  0
   -6.6150   24.3530  -30.6210 C   0  0  0  0  0  0  0  0  0  0  0  0
   -6.4420   23.3400  -31.5860 C   0  0  0  0  0  0  0  0  0  0  0  0
   -7.5360   22.8070  -32.2850 O   0  0  0  0  0  0  0  0  0  0  0  0
   -8.9020   23.0480  -31.9650 C   0  0  0  0  0  0  0  0  0  0  0  0
   -5.1380   22.8700  -31.8650 C   0  0  0  0  0  0  0  0  0  0  0  0
   -4.8820   21.8120  -32.8110 N   0  0  0  0  0  0  0  0  0  0  0  0
   -4.2690   20.5190  -32.4880 C   0  0  0  0  0  0  0  0  0  0  0  0
   -4.9450   19.3570  -33.2320 C   0  0  0  0  0  0  0  0  0  0  0  0
   -6.4030   19.2270  -32.8640 C   0  0  0  0  0  0  0  0  0  0  0  0
   -7.3560   20.0810  -33.4450 C   0  0  0  0  0  0  0  0  0  0  0  0
   -8.7030   19.9870  -33.0830 C   0  0  0  0  0  0  0  0  0  0  0  0
   -9.1100   19.0410  -32.1410 C   0  0  0  0  0  0  0  0  0  0  0  0
   -8.1710   18.1850  -31.5590 C   0  0  0  0  0  0  0  0  0  0  0  0
   -6.8220   18.2750  -31.9150 C   0  0  0  0  0  0  0  0  0  0  0  0
   -5.9260   17.4360  -31.3370 F   0  0  0  0  0  0  0  0  0  0  0  0
   -4.0410   23.4560  -31.2130 C   0  0  0  0  0  0  0  0  0  0  0  0
   -3.0462   24.9594  -27.5619 H   0  0  0  0  0  0  0  0  0  0  0  0
   -2.6620   23.4018  -28.3701 H   0  0  0  0  0  0  0  0  0  0  0  0
   -1.4578   24.7347  -28.3701 H   0  0  0  0  0  0  0  0  0  0  0  0
   -5.6662   25.6890  -29.2074 H   0  0  0  0  0  0  0  0  0  0  0  0
   -7.6273   24.7126  -30.3845 H   0  0  0  0  0  0  0  0  0  0  0  0
   -9.0243   23.0696  -30.8720 H   0  0  0  0  0  0  0  0  0  0  0  0
   -9.2126   24.0148  -32.3878 H   0  0  0  0  0  0  0  0  0  0  0  0
   -9.5247   22.2458  -32.3878 H   0  0  0  0  0  0  0  0  0  0  0  0
   -4.9700   22.0400  -33.8280 H   0  0  0  0  0  0  0  0  0  0  0  0
   -3.2061   20.5501  -32.7697 H   0  0  0  0  0  0  0  0  0  0  0  0
   -4.3908   20.3466  -31.4084 H   0  0  0  0  0  0  0  0  0  0  0  0
   -4.8657   19.5336  -34.3148 H   0  0  0  0  0  0  0  0  0  0  0  0
   -4.4359   18.4253  -32.9445 H   0  0  0  0  0  0  0  0  0  0  0  0
   -7.0403   20.8275  -34.1887 H   0  0  0  0  0  0  0  0  0  0  0  0
   -9.4431   20.6595  -33.5412 H   0  0  0  0  0  0  0  0  0  0  0  0
  -10.1702   18.9691  -31.8566 H   0  0  0  0  0  0  0  0  0  0  0  0
   -8.4942   17.4383  -30.8187 H   0  0  0  0  0  0  0  0  0  0  0  0
   -3.0237   23.1164  -31.4574 H   0  0  0  0  0  0  0  0  0  0  0  0
  1  2  1  0
  2  3  1  0
  3  4  2  0
  4  5  1  0
  5  6  2  0
  6  7  1  0
  7  8  1  0
  6  9  1  0
  9 10  1  0
 10 11  1  0
 11 12  1  0
 12 13  1  0
 13 14  2  0
 14 15  1  0
 15 16  2  0
 16 17  1  0
 17 18  2  0
 18 19  1  0
  9 20  2  0
 20  3  1  0
 18 13  1  0
  1 21  1  0
  1 22  1  0
  1 23  1  0
  4 24  1  0
  5 25  1  0
  8 26  1  0
  8 27  1  0
  8 28  1  0
 10 29  1  0
 11 30  1  0
 11 31  1  0
 12 32  1  0
 12 33  1  0
 14 34  1  0
 15 35  1  0
 16 36  1  0
 17 37  1  0
 20 38  1  0
M  END
>  <UniqueID>  (18) 
17

>  <SMILES>  (18) 
COc1ccc(OC)c(NCCc2ccccc2F)c1

>  <Energy>  (18) 
36.72545511147379

>  <Genealogy>  (18) 
COc1ccc(OC)c(NCCc2ccccc2F)c1 (3D coordinates assigned)
COc1ccc(OC)c(NCCc2ccccc2F)c1 (optimized conformer: 36.72545511147379 kcal/mol)

>  <smiles>  (18) 
COc1ccc(OC)c(NCCc2ccccc2F)c1

>  <score_type>  (18) 
oracle

>  <origin>  (18) 
adg

>  <m_score__min__energy>  (18) 
-7.1100000000000003

>  <m_primary>  (18) 
energy

$$$$
18:0
     RDKit          3D

 55 57  0  0  0  0  0  0  0  0999 V2000
   -5.7350   16.7370  -32.1420 C   0  0  0  0  0  0  0  0  0  0  0  0
   -6.4210   17.7460  -31.2210 C   0  0  0  0  0  0  0  0  0  0  0  0
   -7.6770   18.3810  -31.8600 C   0  0  0  0  0  0  0  0  0  0  0  0
   -7.5300   19.8400  -32.1270 N   0  0  0  0  0  0  0  0  0  0  0  0
   -8.8020   20.5590  -31.8060 C   0  0  0  0  0  0  0  0  0  0  0  0
   -8.5720   21.8800  -31.0450 C   0  0  0  0  0  0  0  0  0  0  0  0
   -8.3920   23.0790  -31.9720 C   0  0  0  0  0  0  0  0  0  0  0  0
   -7.1490   20.0650  -33.5490 C   0  0  0  0  0  0  0  0  0  0  0  0
   -5.7210   19.5640  -33.8490 C   0  0  0  0  0  0  0  0  0  0  0  0
   -4.6610   20.4670  -33.2150 C   0  0  0  0  0  0  0  0  0  0  0  0
   -5.2910   21.5160  -32.4820 O   0  0  0  0  0  0  0  0  0  0  0  0
   -4.6390   22.3250  -31.5400 C   0  0  0  0  0  0  0  0  0  0  0  0
   -5.1900   23.5320  -31.0710 C   0  0  0  0  0  0  0  0  0  0  0  0
   -4.5060   24.2990  -30.1220 C   0  0  0  0  0  0  0  0  0  0  0  0
   -3.2600   23.8750  -29.6280 C   0  0  0  0  0  0  0  0  0  0  0  0
   -2.5400   24.6800  -28.6160 C   0  0  0  0  0  0  0  0  0  0  0  0
   -1.6260   25.6350  -28.9420 N   0  0  0  0  0  0  0  0  0  0  0  0
   -1.2330   26.0890  -27.7440 C   0  0  0  0  0  0  0  0  0  0  0  0
   -0.2940   27.0810  -27.4730 C   0  0  0  0  0  0  0  0  0  0  0  0
   -0.0360   27.3850  -26.1230 C   0  0  0  0  0  0  0  0  0  0  0  0
   -0.7160   26.6960  -25.0930 C   0  0  0  0  0  0  0  0  0  0  0  0
   -1.6580   25.6990  -25.4060 C   0  0  0  0  0  0  0  0  0  0  0  0
   -1.8890   25.4260  -26.7530 C   0  0  0  0  0  0  0  0  0  0  0  0
   -2.7290   24.5240  -27.2770 N   0  0  0  0  0  0  0  0  0  0  0  0
   -2.7120   22.6730  -30.1040 C   0  0  0  0  0  0  0  0  0  0  0  0
   -3.3970   21.9080  -31.0530 C   0  0  0  0  0  0  0  0  0  0  0  0
   -5.2192   15.9783  -31.5352 H   0  0  0  0  0  0  0  0  0  0  0  0
   -6.4888   16.2484  -32.7768 H   0  0  0  0  0  0  0  0  0  0  0  0
   -5.0034   17.2583  -32.7768 H   0  0  0  0  0  0  0  0  0  0  0  0
   -6.7192   17.2314  -30.2956 H   0  0  0  0  0  0  0  0  0  0  0  0
   -5.7036   18.5562  -31.0237 H   0  0  0  0  0  0  0  0  0  0  0  0
   -7.8797   17.8705  -32.8130 H   0  0  0  0  0  0  0  0  0  0  0  0
   -8.5023   18.2630  -31.1424 H   0  0  0  0  0  0  0  0  0  0  0  0
   -6.7590   20.2090  -31.5240 H   0  0  0  0  0  0  0  0  0  0  0  0
   -9.3250   20.7833  -32.7474 H   0  0  0  0  0  0  0  0  0  0  0  0
   -9.3953   19.9022  -31.1529 H   0  0  0  0  0  0  0  0  0  0  0  0
   -9.4402   22.0662  -30.3957 H   0  0  0  0  0  0  0  0  0  0  0  0
   -7.6429   21.7690  -30.4667 H   0  0  0  0  0  0  0  0  0  0  0  0
   -8.2552   23.9900  -31.3708 H   0  0  0  0  0  0  0  0  0  0  0  0
   -7.5073   22.9223  -32.6066 H   0  0  0  0  0  0  0  0  0  0  0  0
   -9.2837   23.1889  -32.6066 H   0  0  0  0  0  0  0  0  0  0  0  0
   -7.8576   19.5274  -34.1962 H   0  0  0  0  0  0  0  0  0  0  0  0
   -7.1777   21.1475  -33.7421 H   0  0  0  0  0  0  0  0  0  0  0  0
   -5.6085   18.5459  -33.4479 H   0  0  0  0  0  0  0  0  0  0  0  0
   -5.5748   19.5759  -34.9392 H   0  0  0  0  0  0  0  0  0  0  0  0
   -4.0348   19.8717  -32.5342 H   0  0  0  0  0  0  0  0  0  0  0  0
   -4.0369   20.9043  -34.0083 H   0  0  0  0  0  0  0  0  0  0  0  0
   -6.1634   23.8740  -31.4525 H   0  0  0  0  0  0  0  0  0  0  0  0
   -4.9459   25.2400  -29.7599 H   0  0  0  0  0  0  0  0  0  0  0  0
    0.2277   27.6084  -28.2852 H   0  0  0  0  0  0  0  0  0  0  0  0
    0.6988   28.1630  -25.8682 H   0  0  0  0  0  0  0  0  0  0  0  0
   -0.5075   26.9407  -24.0410 H   0  0  0  0  0  0  0  0  0  0  0  0
   -2.1937   25.1538  -24.6149 H   0  0  0  0  0  0  0  0  0  0  0  0
   -1.7367   22.3307  -29.7276 H   0  0  0  0  0  0  0  0  0  0  0  0
   -2.9546   20.9699  -31.4195 H   0  0  0  0  0  0  0  0  0  0  0  0
  1  2  1  0
  2  3  1  0
  3  4  1  0
  4  5  1  0
  5  6  1  0
  6  7  1  0
  4  8  1  0
  8  9  1  0
  9 10  1  0
 10 11  1  0
 11 12  1  0
 12 13  2  0
 13 14  1  0
 14 15  2  0
 15 16  1  0
 16 17  2  0
 17 18  1  0
 18 19  2  0
 19 20  1  0
 20 21  2  0
 21 22  1  0
 22 23  2  0
 23 24  1  0
 15 25  1  0
 25 26  2  0
 26 12  1  0
 24 16  1  0
 23 18  1  0
  1 27  1  0
  1 28  1  0
  1 29  1  0
  2 30  1  0
  2 31  1  0
  3 32  1  0
  3 33  1  0
  4 34  1  0
  5 35  1  0
  5 36  1  0
  6 37  1  0
  6 38  1  0
  7 39  1  0
  7 40  1  0
  7 41  1  0
  8 42  1  0
  8 43  1  0
  9 44  1  0
  9 45  1  0
 10 46  1  0
 10 47  1  0
 13 48  1  0
 14 49  1  0
 19 50  1  0
 20 51  1  0
 21 52  1  0
 22 53  1  0
 25 54  1  0
 26 55  1  0
M  CHG  2   4   1  24  -1
M  END
>  <UniqueID>  (19) 
18

>  <SMILES>  (19) 
CCC[NH+](CCC)CCCOc1ccc(-c2nc3ccccc3[n-]2)cc1

>  <Energy>  (19) 
88.77683446778292

>  <Genealogy>  (19) 
CCC[NH+](CCC)CCCOc1ccc(-c2nc3ccccc3[n-]2)cc1 (protonated)
CCC[NH+](CCC)CCCOc1ccc(-c2nc3ccccc3[n-]2)cc1 (3D coordinates assigned)
CCC[NH+](CCC)CCCOc1ccc(-c2nc3ccccc3[n-]2)cc1 (optimized conformer: 88.77683446778292 kcal/mol)

>  <smiles>  (19) 
CCCN(CCC)CCCOc1ccc(-c2nc3ccccc3[nH]2)cc1

>  <score_type>  (19) 
oracle

>  <origin>  (19) 
adg

>  <m_score__min__energy>  (19) 
-8.2200000000000006

>  <m_primary>  (19) 
energy

$$$$
19:0
     RDKit          3D

 46 48  0  0  0  0  0  0  0  0999 V2000
   -8.7140   19.8850  -32.7330 C   0  0  0  0  0  0  0  0  0  0  0  0
   -7.1860   19.7930  -32.5010 C   0  0  0  0  0  0  0  0  0  0  0  0
   -6.5150   19.5710  -33.8740 C   0  0  0  0  0  0  0  0  0  0  0  0
   -6.9230   18.5700  -31.5960 C   0  0  0  0  0  0  0  0  0  0  0  0
   -6.5980   21.0590  -31.8440 C   0  0  0  0  0  0  0  0  0  0  0  0
   -5.2560   21.4180  -32.1040 C   0  0  0  0  0  0  0  0  0  0  0  0
   -4.6990   22.5730  -31.5550 C   0  0  0  0  0  0  0  0  0  0  0  0
   -5.4650   23.4130  -30.7360 C   0  0  0  0  0  0  0  0  0  0  0  0
   -4.8980   24.6700  -30.1980 C   0  0  0  0  0  0  0  0  0  0  0  0
   -5.6690   25.5280  -29.6910 O   0  0  0  0  0  0  0  0  0  0  0  0
   -3.4860   24.9320  -30.2030 N   0  0  0  0  0  0  0  0  0  0  0  0
   -2.5040   24.3120  -29.3560 C   0  0  0  0  0  0  0  0  0  0  0  0
   -2.6260   22.9770  -28.9390 C   0  0  0  0  0  0  0  0  0  0  0  0
   -1.6700   22.4080  -28.0830 C   0  0  0  0  0  0  0  0  0  0  0  0
   -1.8280   21.0160  -27.5870 C   0  0  0  0  0  0  0  0  0  0  0  0
   -3.0840   20.5450  -27.1710 C   0  0  0  0  0  0  0  0  0  0  0  0
   -3.2170   19.2270  -26.7260 C   0  0  0  0  0  0  0  0  0  0  0  0
   -2.1360   18.4020  -26.6970 N   0  0  0  0  0  0  0  0  0  0  0  0
   -0.9080   18.8290  -27.0950 C   0  0  0  0  0  0  0  0  0  0  0  0
   -0.7310   20.1400  -27.5450 C   0  0  0  0  0  0  0  0  0  0  0  0
   -0.5740   23.1930  -27.6930 C   0  0  0  0  0  0  0  0  0  0  0  0
   -0.4490   24.4690  -28.1430 N   0  0  0  0  0  0  0  0  0  0  0  0
   -1.3740   25.0400  -28.9570 C   0  0  0  0  0  0  0  0  0  0  0  0
   -1.2150   26.2290  -29.3410 O   0  0  0  0  0  0  0  0  0  0  0  0
   -6.7870   23.0540  -30.4400 C   0  0  0  0  0  0  0  0  0  0  0  0
   -7.3480   21.8980  -30.9890 C   0  0  0  0  0  0  0  0  0  0  0  0
   -9.2310   19.9161  -31.7626 H   0  0  0  0  0  0  0  0  0  0  0  0
   -8.9443   20.7986  -33.3006 H   0  0  0  0  0  0  0  0  0  0  0  0
   -9.0523   19.0056  -33.3006 H   0  0  0  0  0  0  0  0  0  0  0  0
   -5.4803   19.2287  -33.7253 H   0  0  0  0  0  0  0  0  0  0  0  0
   -7.0755   18.8104  -34.4373 H   0  0  0  0  0  0  0  0  0  0  0  0
   -6.5113   20.5158  -34.4373 H   0  0  0  0  0  0  0  0  0  0  0  0
   -6.9883   18.8739  -30.5408 H   0  0  0  0  0  0  0  0  0  0  0  0
   -7.6747   17.7936  -31.8012 H   0  0  0  0  0  0  0  0  0  0  0  0
   -5.9186   18.1712  -31.8012 H   0  0  0  0  0  0  0  0  0  0  0  0
   -4.6401   20.7755  -32.7505 H   0  0  0  0  0  0  0  0  0  0  0  0
   -3.6498   22.8264  -31.7668 H   0  0  0  0  0  0  0  0  0  0  0  0
   -3.4771   22.3724  -29.2856 H   0  0  0  0  0  0  0  0  0  0  0  0
   -3.9593   21.2107  -27.1954 H   0  0  0  0  0  0  0  0  0  0  0  0
   -4.1991   18.8555  -26.3981 H   0  0  0  0  0  0  0  0  0  0  0  0
   -2.2520   17.4180  -26.3640 H   0  0  0  0  0  0  0  0  0  0  0  0
   -0.0510   18.1401  -27.0626 H   0  0  0  0  0  0  0  0  0  0  0  0
    0.2634   20.4845  -27.8650 H   0  0  0  0  0  0  0  0  0  0  0  0
    0.1877   22.7732  -27.0196 H   0  0  0  0  0  0  0  0  0  0  0  0
   -7.3876   23.6871  -29.7703 H   0  0  0  0  0  0  0  0  0  0  0  0
   -8.3899   21.6368  -30.7520 H   0  0  0  0  0  0  0  0  0  0  0  0
  1  2  1  0
  2  3  1  0
  2  4  1  0
  2  5  1  0
  5  6  2  0
  6  7  1  0
  7  8  2  0
  8  9  1  0
  9 10  2  0
  9 11  1  0
 11 12  1  0
 12 13  2  0
 13 14  1  0
 14 15  1  0
 15 16  2  0
 16 17  1  0
 17 18  2  0
 18 19  1  0
 19 20  2  0
 14 21  2  0
 21 22  1  0
 22 23  1  0
 23 24  2  0
  8 25  1  0
 25 26  2  0
 26  5  1  0
 23 12  1  0
 20 15  1  0
  1 27  1  0
  1 28  1  0
  1 29  1  0
  3 30  1  0
  3 31  1  0
  3 32  1  0
  4 33  1  0
  4 34  1  0
  4 35  1  0
  6 36  1  0
  7 37  1  0
 13 38  1  0
 16 39  1  0
 17 40  1  0
 18 41  1  0
 19 42  1  0
 20 43  1  0
 21 44  1  0
 25 45  1  0
 26 46  1  0
M  CHG  3  11  -1  18   1  22  -1
M  END
>  <UniqueID>  (20) 
19

>  <SMILES>  (20) 
CC(C)(C)c1ccc(C(=O)[N-]c2cc(-c3cc[nH+]cc3)c[n-]c2=O)cc1

>  <Energy>  (20) 
62.19475082824576

>  <Genealogy>  (20) 
CC(C)(C)c1ccc(C(=O)[N-]c2cc(-c3cc[nH+]cc3)c[n-]c2=O)cc1 (protonated)
CC(C)(C)c1ccc(C(=O)[N-]c2cc(-c3cc[nH+]cc3)c[n-]c2=O)cc1 (3D coordinates assigned)
CC(C)(C)c1ccc(C(=O)[N-]c2cc(-c3cc[nH+]cc3)c[n-]c2=O)cc1 (optimized conformer: 62.19475082824576 kcal/mol)

>  <smiles>  (20) 
CC(C)(C)c1ccc(C(=O)Nc2cc(-c3ccncc3)c[nH]c2=O)cc1

>  <score_type>  (20) 
oracle

>  <origin>  (20) 
adg

>  <m_score__min__energy>  (20) 
-11.880000000000001

>  <m_primary>  (20) 
energy

$$$$
20:0
     RDKit          3D

 46 49  0  0  0  0  0  0  0  0999 V2000
   -5.3290   25.7130  -30.4630 C   0  0  0  0  0  0  0  0  0  0  0  0
   -4.0660   25.0590  -30.5040 O   0  0  0  0  0  0  0  0  0  0  0  0
   -3.7390   23.9160  -29.7560 C   0  0  0  0  0  0  0  0  0  0  0  0
   -3.5650   23.9610  -28.3570 C   0  0  0  0  0  0  0  0  0  0  0  0
   -3.2570   22.7980  -27.6460 C   0  0  0  0  0  0  0  0  0  0  0  0
   -3.1220   21.5790  -28.3180 C   0  0  0  0  0  0  0  0  0  0  0  0
   -2.7290   20.1240  -27.4250 Cl  0  0  0  0  0  0  0  0  0  0  0  0
   -3.2890   21.5260  -29.7050 C   0  0  0  0  0  0  0  0  0  0  0  0
   -3.5950   22.6880  -30.4260 C   0  0  0  0  0  0  0  0  0  0  0  0
   -3.8010   22.5830  -32.2050 S   0  0  0  0  0  0  0  0  0  0  0  0
   -5.5420   22.1850  -32.0710 C   0  0  0  0  0  0  0  0  0  0  0  0
   -6.5140   23.2110  -32.0600 C   0  0  0  0  0  0  0  0  0  0  0  0
   -7.8760   22.8860  -31.9460 C   0  0  0  0  0  0  0  0  0  0  0  0
   -8.1950   21.5370  -31.8540 C   0  0  0  0  0  0  0  0  0  0  0  0
   -9.4140   20.9820  -31.7190 N   0  0  0  0  0  0  0  0  0  0  0  0
   -9.2150   19.6650  -31.6480 N   0  0  0  0  0  0  0  0  0  0  0  0
   -7.8800   19.4470  -31.7410 C   0  0  0  0  0  0  0  0  0  0  0  0
   -7.2340   18.0950  -31.6880 C   0  0  0  0  0  0  0  0  0  0  0  0
   -7.2600   17.4250  -33.0660 C   0  0  0  0  0  0  0  0  0  0  0  0
   -5.9230   17.4680  -33.6890 N   0  0  0  0  0  0  0  0  0  0  0  0
   -4.8430   17.1190  -32.7530 C   0  0  0  0  0  0  0  0  0  0  0  0
   -3.6040   17.8990  -33.1830 C   0  0  0  0  0  0  0  0  0  0  0  0
   -4.0870   18.8970  -34.2200 C   0  0  0  0  0  0  0  0  0  0  0  0
   -5.6010   18.8140  -34.1670 C   0  0  0  0  0  0  0  0  0  0  0  0
   -7.2350   20.6130  -31.8750 N   0  0  0  0  0  0  0  0  0  0  0  0
   -5.9350   20.8820  -31.9740 N   0  0  0  0  0  0  0  0  0  0  0  0
   -5.6279   25.8678  -29.4158 H   0  0  0  0  0  0  0  0  0  0  0  0
   -5.2548   26.6860  -30.9708 H   0  0  0  0  0  0  0  0  0  0  0  0
   -6.0807   25.0908  -30.9708 H   0  0  0  0  0  0  0  0  0  0  0  0
   -3.6723   24.9166  -27.8228 H   0  0  0  0  0  0  0  0  0  0  0  0
   -3.1204   22.8415  -26.5554 H   0  0  0  0  0  0  0  0  0  0  0  0
   -3.1796   20.5673  -30.2331 H   0  0  0  0  0  0  0  0  0  0  0  0
   -6.2042   24.2634  -32.1407 H   0  0  0  0  0  0  0  0  0  0  0  0
   -8.6538   23.6636  -31.9303 H   0  0  0  0  0  0  0  0  0  0  0  0
   -6.1897   18.2069  -31.3611 H   0  0  0  0  0  0  0  0  0  0  0  0
   -7.7918   17.4653  -30.9792 H   0  0  0  0  0  0  0  0  0  0  0  0
   -7.5725   16.3765  -32.9525 H   0  0  0  0  0  0  0  0  0  0  0  0
   -7.9692   17.9655  -33.7101 H   0  0  0  0  0  0  0  0  0  0  0  0
   -5.1276   17.3987  -31.7279 H   0  0  0  0  0  0  0  0  0  0  0  0
   -4.6478   16.0366  -32.7679 H   0  0  0  0  0  0  0  0  0  0  0  0
   -3.1628   18.4232  -32.3224 H   0  0  0  0  0  0  0  0  0  0  0  0
   -2.8267   17.2351  -33.5893 H   0  0  0  0  0  0  0  0  0  0  0  0
   -3.7461   19.9121  -33.9683 H   0  0  0  0  0  0  0  0  0  0  0  0
   -3.6951   18.6737  -35.2233 H   0  0  0  0  0  0  0  0  0  0  0  0
   -5.9997   19.5696  -33.4741 H   0  0  0  0  0  0  0  0  0  0  0  0
   -6.0464   19.0044  -35.1546 H   0  0  0  0  0  0  0  0  0  0  0  0
  1  2  1  0
  2  3  1  0
  3  4  2  0
  4  5  1  0
  5  6  2  0
  6  7  1  0
  6  8  1  0
  8  9  2  0
  9 10  1  0
 10 11  1  0
 11 12  1  0
 12 13  2  0
 13 14  1  0
 14 15  2  0
 15 16  1  0
 16 17  2  0
 17 18  1  0
 18 19  1  0
 19 20  1  0
 20 21  1  0
 21 22  1  0
 22 23  1  0
 23 24  1  0
 17 25  1  0
 25 26  1  0
  9  3  1  0
 26 11  2  0
 25 14  1  0
 24 20  1  0
  1 27  1  0
  1 28  1  0
  1 29  1  0
  4 30  1  0
  5 31  1  0
  8 32  1  0
 12 33  1  0
 13 34  1  0
 18 35  1  0
 18 36  1  0
 19 37  1  0
 19 38  1  0
 21 39  1  0
 21 40  1  0
 22 41  1  0
 22 42  1  0
 23 43  1  0
 23 44  1  0
 24 45  1  0
 24 46  1  0
M  END
>  <UniqueID>  (21) 
20

>  <SMILES>  (21) 
COc1ccc(Cl)cc1Sc1ccc2nnc(CCN3CCCC3)n2n1

>  <Energy>  (21) 
86.77121418332702

>  <Genealogy>  (21) 
COc1ccc(Cl)cc1Sc1ccc2nnc(CCN3CCCC3)n2n1 (3D coordinates assigned)
COc1ccc(Cl)cc1Sc1ccc2nnc(CCN3CCCC3)n2n1 (nonaromatic ring conformer: 86.77121418332702 kcal/mol)

>  <smiles>  (21) 
COc1ccc(Cl)cc1Sc1ccc2nnc(CCN3CCCC3)n2n1

>  <score_type>  (21) 
oracle

>  <origin>  (21) 
adg

>  <m_score__min__energy>  (21) 
-9.4800000000000004

>  <m_primary>  (21) 
energy

$$$$
21:0
     RDKit          3D

 45 47  0  0  0  0  0  0  0  0999 V2000
   -1.8810   21.5660  -31.4390 C   0  0  0  0  0  0  0  0  0  0  0  0
   -1.9620   22.7470  -30.4730 C   0  0  0  0  0  0  0  0  0  0  0  0
   -3.2590   22.7240  -29.6520 C   0  0  0  0  0  0  0  0  0  0  0  0
   -3.8070   24.0920  -29.4960 N   0  0  0  0  0  0  0  0  0  0  0  0
   -4.5660   24.2280  -28.2310 C   0  0  0  0  0  0  0  0  0  0  0  0
   -3.6250   24.5360  -27.0670 C   0  0  0  0  0  0  0  0  0  0  0  0
   -4.6230   24.4950  -30.6720 C   0  0  0  0  0  0  0  0  0  0  0  0
   -6.1080   24.2260  -30.4100 C   0  0  0  0  0  0  0  0  0  0  0  0
   -6.5840   22.9870  -31.1170 C   0  0  0  0  0  0  0  0  0  0  0  0
   -7.9680   22.7360  -31.2720 C   0  0  0  0  0  0  0  0  0  0  0  0
   -8.4170   21.6180  -31.9930 C   0  0  0  0  0  0  0  0  0  0  0  0
   -7.4570   20.7790  -32.5520 C   0  0  0  0  0  0  0  0  0  0  0  0
   -7.6950   19.6740  -33.2980 N   0  0  0  0  0  0  0  0  0  0  0  0
   -6.4600   19.2350  -33.6180 C   0  0  0  0  0  0  0  0  0  0  0  0
   -6.1120   18.1300  -34.3900 C   0  0  0  0  0  0  0  0  0  0  0  0
   -4.7410   17.8840  -34.5970 C   0  0  0  0  0  0  0  0  0  0  0  0
   -3.7630   18.7380  -34.0350 C   0  0  0  0  0  0  0  0  0  0  0  0
   -4.1450   19.8490  -33.2590 C   0  0  0  0  0  0  0  0  0  0  0  0
   -5.5100   20.0620  -33.0710 C   0  0  0  0  0  0  0  0  0  0  0  0
   -6.1390   21.0380  -32.3940 N   0  0  0  0  0  0  0  0  0  0  0  0
   -5.6590   22.1000  -31.7000 C   0  0  0  0  0  0  0  0  0  0  0  0
   -1.8167   20.6284  -30.8673 H   0  0  0  0  0  0  0  0  0  0  0  0
   -2.7800   21.5482  -32.0726 H   0  0  0  0  0  0  0  0  0  0  0  0
   -0.9880   21.6711  -32.0726 H   0  0  0  0  0  0  0  0  0  0  0  0
   -1.1045   22.7040  -29.7854 H   0  0  0  0  0  0  0  0  0  0  0  0
   -1.9482   23.6742  -31.0646 H   0  0  0  0  0  0  0  0  0  0  0  0
   -4.0004   22.0949  -30.1664 H   0  0  0  0  0  0  0  0  0  0  0  0
   -3.0378   22.3168  -28.6544 H   0  0  0  0  0  0  0  0  0  0  0  0
   -5.2941   25.0462  -28.3329 H   0  0  0  0  0  0  0  0  0  0  0  0
   -5.0840   23.2796  -28.0256 H   0  0  0  0  0  0  0  0  0  0  0  0
   -4.1500   24.3642  -26.1158 H   0  0  0  0  0  0  0  0  0  0  0  0
   -2.7444   23.8792  -27.1237 H   0  0  0  0  0  0  0  0  0  0  0  0
   -3.3032   25.5864  -27.1237 H   0  0  0  0  0  0  0  0  0  0  0  0
   -4.4775   25.5684  -30.8632 H   0  0  0  0  0  0  0  0  0  0  0  0
   -4.3032   23.9082  -31.5457 H   0  0  0  0  0  0  0  0  0  0  0  0
   -6.2616   24.0999  -29.3281 H   0  0  0  0  0  0  0  0  0  0  0  0
   -6.6835   25.0813  -30.7938 H   0  0  0  0  0  0  0  0  0  0  0  0
   -8.6996   23.4239  -30.8230 H   0  0  0  0  0  0  0  0  0  0  0  0
   -9.4910   21.4120  -32.1121 H   0  0  0  0  0  0  0  0  0  0  0  0
   -8.6170   19.2650  -33.5710 H   0  0  0  0  0  0  0  0  0  0  0  0
   -6.8805   17.4726  -34.8228 H   0  0  0  0  0  0  0  0  0  0  0  0
   -4.4276   17.0199  -35.2012 H   0  0  0  0  0  0  0  0  0  0  0  0
   -2.6959   18.5324  -34.2056 H   0  0  0  0  0  0  0  0  0  0  0  0
   -3.3956   20.5228  -32.8182 H   0  0  0  0  0  0  0  0  0  0  0  0
   -4.5763   22.2638  -31.5955 H   0  0  0  0  0  0  0  0  0  0  0  0
  1  2  1  0
  2  3  1  0
  3  4  1  0
  4  5  1  0
  5  6  1  0
  4  7  1  0
  7  8  1  0
  8  9  1  0
  9 10  1  0
 10 11  2  0
 11 12  1  0
 12 13  2  0
 13 14  1  0
 14 15  2  0
 15 16  1  0
 16 17  2  0
 17 18  1  0
 18 19  2  0
 19 20  1  0
 20 21  1  0
 21  9  2  0
 20 12  1  0
 19 14  1  0
  1 22  1  0
  1 23  1  0
  1 24  1  0
  2 25  1  0
  2 26  1  0
  3 27  1  0
  3 28  1  0
  5 29  1  0
  5 30  1  0
  6 31  1  0
  6 32  1  0
  6 33  1  0
  7 34  1  0
  7 35  1  0
  8 36  1  0
  8 37  1  0
 10 38  1  0
 11 39  1  0
 13 40  1  0
 15 41  1  0
 16 42  1  0
 17 43  1  0
 18 44  1  0
 21 45  1  0
M  CHG  1  13   1
M  END
>  <UniqueID>  (22) 
21

>  <SMILES>  (22) 
CCCN(CC)CCc1ccc2[nH+]c3ccccc3n2c1

>  <Energy>  (22) 
84.23604744160076

>  <Genealogy>  (22) 
CCCN(CC)CCc1ccc2[nH+]c3ccccc3n2c1 (protonated)
CCCN(CC)CCc1ccc2[nH+]c3ccccc3n2c1 (3D coordinates assigned)
CCCN(CC)CCc1ccc2[nH+]c3ccccc3n2c1 (optimized conformer: 84.23604744160076 kcal/mol)

>  <smiles>  (22) 
CCCN(CC)CCc1ccc2nc3ccccc3n2c1

>  <score_type>  (22) 
oracle

>  <origin>  (22) 
adg

>  <m_score__min__energy>  (22) 
-7.3600000000000003

>  <m_primary>  (22) 
energy

$$$$
22:0
     RDKit          3D

 38 41  0  0  0  0  0  0  0  0999 V2000
   -3.4750   26.0610  -29.7240 H   0  0  0  0  0  0  0  0  0  0  0  0
   -3.7090   25.2260  -30.3050 N   0  0  0  0  0  0  0  0  0  0  0  0
   -4.9080   24.7410  -30.3880 C   0  0  0  0  0  0  0  0  0  0  0  0
   -5.9770   25.3550  -29.8490 N   0  0  0  0  0  0  0  0  0  0  0  0
   -6.0000   26.2690  -29.3450 H   0  0  0  0  0  0  0  0  0  0  0  0
   -7.0130   24.5250  -30.0710 C   0  0  0  0  0  0  0  0  0  0  0  0
   -8.0530   24.6999  -29.7583 H   0  0  0  0  0  0  0  0  0  0  0  0
   -6.5530   23.4150  -30.7580 C   0  0  0  0  0  0  0  0  0  0  0  0
   -7.3940   22.2830  -31.2140 C   0  0  0  0  0  0  0  0  0  0  0  0
   -8.7370   22.4850  -31.5790 C   0  0  0  0  0  0  0  0  0  0  0  0
   -9.1722   23.4940  -31.5289 H   0  0  0  0  0  0  0  0  0  0  0  0
   -9.5210   21.4100  -32.0050 C   0  0  0  0  0  0  0  0  0  0  0  0
  -10.5686   21.5763  -32.2963 H   0  0  0  0  0  0  0  0  0  0  0  0
   -8.9770   20.1230  -32.0620 C   0  0  0  0  0  0  0  0  0  0  0  0
   -9.7410   19.0820  -32.4750 F   0  0  0  0  0  0  0  0  0  0  0  0
   -7.6490   19.9120  -31.6850 C   0  0  0  0  0  0  0  0  0  0  0  0
   -7.2221   18.8990  -31.7243 H   0  0  0  0  0  0  0  0  0  0  0  0
   -6.8610   20.9840  -31.2580 C   0  0  0  0  0  0  0  0  0  0  0  0
   -5.8181   20.8099  -30.9548 H   0  0  0  0  0  0  0  0  0  0  0  0
   -5.2200   23.5530  -30.9620 N   0  0  0  0  0  0  0  0  0  0  0  0
   -4.3170   22.5980  -31.5450 C   0  0  0  0  0  0  0  0  0  0  0  0
   -4.4180   22.2670  -32.9020 C   0  0  0  0  0  0  0  0  0  0  0  0
   -5.1773   22.7570  -33.5292 H   0  0  0  0  0  0  0  0  0  0  0  0
   -3.5600   21.3180  -33.4640 C   0  0  0  0  0  0  0  0  0  0  0  0
   -3.6469   21.0682  -34.5317 H   0  0  0  0  0  0  0  0  0  0  0  0
   -2.5850   20.6790  -32.6740 C   0  0  0  0  0  0  0  0  0  0  0  0
   -1.6750   19.6660  -33.2680 C   0  0  0  0  0  0  0  0  0  0  0  0
   -1.9640   18.3010  -33.3080 C   0  0  0  0  0  0  0  0  0  0  0  0
   -2.8735   17.8235  -32.9145 H   0  0  0  0  0  0  0  0  0  0  0  0
   -0.6870   17.5130  -34.0590 S   0  0  0  0  0  0  0  0  0  0  0  0
    0.2510   18.8760  -34.3420 C   0  0  0  0  0  0  0  0  0  0  0  0
    1.2354   18.8921  -34.8326 H   0  0  0  0  0  0  0  0  0  0  0  0
   -0.4320   19.9790  -33.8490 C   0  0  0  0  0  0  0  0  0  0  0  0
   -0.0378   21.0043  -33.9071 H   0  0  0  0  0  0  0  0  0  0  0  0
   -2.4920   21.0150  -31.3110 C   0  0  0  0  0  0  0  0  0  0  0  0
   -1.7364   20.5249  -30.6795 H   0  0  0  0  0  0  0  0  0  0  0  0
   -3.3500   21.9650  -30.7520 C   0  0  0  0  0  0  0  0  0  0  0  0
   -3.2664   22.2175  -29.6846 H   0  0  0  0  0  0  0  0  0  0  0  0
  1  2  1  0
  2  3  2  0
  3  4  1  0
  4  5  1  0
  4  6  1  0
  6  7  1  0
  6  8  2  0
  8  9  1  0
  9 10  2  0
 10 11  1  0
 10 12  1  0
 12 13  1  0
 12 14  2  0
 14 15  1  0
 14 16  1  0
 16 17  1  0
 16 18  2  0
 18 19  1  0
  8 20  1  0
 20 21  1  0
 21 22  2  0
 22 23  1  0
 22 24  1  0
 24 25  1  0
 24 26  2  0
 26 27  1  0
 27 28  2  0
 28 29  1  0
 28 30  1  0
 30 31  1  0
 31 32  1  0
 31 33  2  0
 33 34  1  0
 26 35  1  0
 35 36  1  0
 35 37  2  0
 37 38  1  0
 20  3  1  0
 37 21  1  0
 18  9  1  0
 33 27  1  0
M  END
>  <UniqueID>  (23) 
22

>  <SMILES>  (23) 
[H]/N=c1/[nH]cc(-c2ccc(F)cc2)n1-c1ccc(-c2ccsc2)cc1

>  <Energy>  (23) 
114.44427166082075

>  <Genealogy>  (23) 
[H]/N=c1/[nH]cc(-c2ccc(F)cc2)n1-c1ccc(-c2ccsc2)cc1 (cis-trans isomerization)
[H]/N=c1/[nH]cc(-c2ccc(F)cc2)n1-c1ccc(-c2ccsc2)cc1 (3D coordinates assigned)
[H]/N=c1/[nH]cc(-c2ccc(F)cc2)n1-c1ccc(-c2ccsc2)cc1 (optimized conformer: 114.44427166082075 kcal/mol)

>  <smiles>  (23) 
N=c1[nH]cc(-c2ccc(F)cc2)n1-c1ccc(-c2ccsc2)cc1

>  <score_type>  (23) 
oracle

>  <origin>  (23) 
adg

>  <m_score__min__energy>  (23) 
-8.3900000000000006

>  <m_primary>  (23) 
energy

$$$$
23:0
     RDKit          3D

 33 35  0  0  0  0  0  0  0  0999 V2000
   -0.3690   22.7650  -25.1410 C   0  0  0  0  0  0  0  0  0  0  0  0
   -0.8860   22.1200  -26.3010 O   0  0  0  0  0  0  0  0  0  0  0  0
   -1.5660   22.7790  -27.3370 C   0  0  0  0  0  0  0  0  0  0  0  0
   -2.6050   22.1680  -28.0640 C   0  0  0  0  0  0  0  0  0  0  0  0
   -3.2500   22.8640  -29.0910 C   0  0  0  0  0  0  0  0  0  0  0  0
   -2.8560   24.1730  -29.4170 C   0  0  0  0  0  0  0  0  0  0  0  0
   -3.4950   24.9130  -30.4700 N   0  0  0  0  0  0  0  0  0  0  0  0
   -4.9040   25.1210  -30.6250 C   0  0  0  0  0  0  0  0  0  0  0  0
   -5.3640   26.2850  -30.4990 O   0  0  0  0  0  0  0  0  0  0  0  0
   -5.8330   24.0160  -30.9370 C   0  0  0  0  0  0  0  0  0  0  0  0
   -7.1540   23.9330  -30.5220 C   0  0  0  0  0  0  0  0  0  0  0  0
   -7.6800   22.7690  -30.9600 N   0  0  0  0  0  0  0  0  0  0  0  0
   -6.6830   22.1730  -31.6410 C   0  0  0  0  0  0  0  0  0  0  0  0
   -6.7560   20.9470  -32.3020 C   0  0  0  0  0  0  0  0  0  0  0  0
   -5.6140   20.5120  -32.9920 C   0  0  0  0  0  0  0  0  0  0  0  0
   -4.4530   21.3060  -33.0170 C   0  0  0  0  0  0  0  0  0  0  0  0
   -4.4390   22.5330  -32.3380 C   0  0  0  0  0  0  0  0  0  0  0  0
   -5.5540   22.9050  -31.6530 N   0  0  0  0  0  0  0  0  0  0  0  0
   -1.8400   24.7880  -28.6750 C   0  0  0  0  0  0  0  0  0  0  0  0
   -1.4600   26.0590  -28.9620 F   0  0  0  0  0  0  0  0  0  0  0  0
   -1.1960   24.0910  -27.6480 C   0  0  0  0  0  0  0  0  0  0  0  0
   -0.7641   22.2720  -24.2405 H   0  0  0  0  0  0  0  0  0  0  0  0
    0.7290   22.6988  -25.1433 H   0  0  0  0  0  0  0  0  0  0  0  0
   -0.6726   23.8223  -25.1433 H   0  0  0  0  0  0  0  0  0  0  0  0
   -2.9107   21.1391  -27.8233 H   0  0  0  0  0  0  0  0  0  0  0  0
   -4.0697   22.3847  -29.6464 H   0  0  0  0  0  0  0  0  0  0  0  0
   -7.6870   24.6927  -29.9315 H   0  0  0  0  0  0  0  0  0  0  0  0
   -8.6500   22.4150  -30.8070 H   0  0  0  0  0  0  0  0  0  0  0  0
   -7.6752   20.3431  -32.2832 H   0  0  0  0  0  0  0  0  0  0  0  0
   -5.6268   19.5450  -33.5161 H   0  0  0  0  0  0  0  0  0  0  0  0
   -3.5620   20.9667  -33.5655 H   0  0  0  0  0  0  0  0  0  0  0  0
   -3.5486   23.1786  -32.3588 H   0  0  0  0  0  0  0  0  0  0  0  0
   -0.3908   24.5794  -27.0795 H   0  0  0  0  0  0  0  0  0  0  0  0
  1  2  1  0
  2  3  1  0
  3  4  2  0
  4  5  1  0
  5  6  2  0
  6  7  1  0
  7  8  1  0
  8  9  2  0
  8 10  1  0
 10 11  2  0
 11 12  1  0
 12 13  2  0
 13 14  1  0
 14 15  2  0
 15 16  1  0
 16 17  2  0
 17 18  1  0
  6 19  1  0
 19 20  1  0
 19 21  2  0
 21  3  1  0
 18 10  1  0
 18 13  1  0
  1 22  1  0
  1 23  1  0
  1 24  1  0
  4 25  1  0
  5 26  1  0
 11 27  1  0
 12 28  1  0
 14 29  1  0
 15 30  1  0
 16 31  1  0
 17 32  1  0
 21 33  1  0
M  CHG  2   7  -1  12   1
M  END
>  <UniqueID>  (24) 
23

>  <SMILES>  (24) 
COc1ccc([N-]C(=O)c2c[nH+]c3ccccn23)c(F)c1

>  <Energy>  (24) 
78.19714766251865

>  <Genealogy>  (24) 
COc1ccc([N-]C(=O)c2c[nH+]c3ccccn23)c(F)c1 (protonated)
COc1ccc([N-]C(=O)c2c[nH+]c3ccccn23)c(F)c1 (3D coordinates assigned)
COc1ccc([N-]C(=O)c2c[nH+]c3ccccn23)c(F)c1 (optimized conformer: 78.19714766251865 kcal/mol)

>  <smiles>  (24) 
COc1ccc(NC(=O)c2cnc3ccccn23)c(F)c1

>  <score_type>  (24) 
oracle

>  <origin>  (24) 
adg

>  <m_score__min__energy>  (24) 
-7.75

>  <m_primary>  (24) 
energy

$$$$
24:0
     RDKit          3D

 28 29  0  0  0  0  0  0  0  0999 V2000
   -9.3140   18.6960  -32.0850 C   0  0  0  0  0  0  0  0  0  0  0  0
   -9.0550   19.9590  -32.6910 O   0  0  0  0  0  0  0  0  0  0  0  0
   -8.0340   20.8410  -32.2950 C   0  0  0  0  0  0  0  0  0  0  0  0
   -8.3090   21.9880  -31.5280 C   0  0  0  0  0  0  0  0  0  0  0  0
   -7.2810   22.8410  -31.1280 C   0  0  0  0  0  0  0  0  0  0  0  0
   -5.9470   22.5670  -31.4790 C   0  0  0  0  0  0  0  0  0  0  0  0
   -4.8690   23.3960  -31.0840 C   0  0  0  0  0  0  0  0  0  0  0  0
   -5.0650   24.6460  -30.2570 C   0  0  0  0  0  0  0  0  0  0  0  0
   -4.1300   25.6240  -30.6240 O   0  0  0  0  0  0  0  0  0  0  0  0
   -3.5690   23.0260  -31.4500 C   0  0  0  0  0  0  0  0  0  0  0  0
   -3.3710   21.8700  -32.2050 C   0  0  0  0  0  0  0  0  0  0  0  0
   -2.2060   21.5320  -32.5420 O   0  0  0  0  0  0  0  0  0  0  0  0
   -4.4040   21.1210  -32.5710 O   0  0  0  0  0  0  0  0  0  0  0  0
   -5.6620   21.4110  -32.2490 C   0  0  0  0  0  0  0  0  0  0  0  0
   -6.7060   20.5640  -32.6760 C   0  0  0  0  0  0  0  0  0  0  0  0
   -6.3970   19.3220  -33.4730 C   0  0  0  0  0  0  0  0  0  0  0  0
   -9.2920   18.8031  -30.9904 H   0  0  0  0  0  0  0  0  0  0  0  0
  -10.3048   18.3353  -32.3983 H   0  0  0  0  0  0  0  0  0  0  0  0
   -8.5451   17.9744  -32.3983 H   0  0  0  0  0  0  0  0  0  0  0  0
   -9.3464   22.2144  -31.2407 H   0  0  0  0  0  0  0  0  0  0  0  0
   -7.5155   23.7359  -30.5328 H   0  0  0  0  0  0  0  0  0  0  0  0
   -6.0806   25.0348  -30.4223 H   0  0  0  0  0  0  0  0  0  0  0  0
   -4.9247   24.3977  -29.1946 H   0  0  0  0  0  0  0  0  0  0  0  0
   -4.1510   25.6770  -31.6150 H   0  0  0  0  0  0  0  0  0  0  0  0
   -2.7106   23.6422  -31.1445 H   0  0  0  0  0  0  0  0  0  0  0  0
   -6.1895   18.4880  -32.7865 H   0  0  0  0  0  0  0  0  0  0  0  0
   -7.2596   19.0691  -34.1070 H   0  0  0  0  0  0  0  0  0  0  0  0
   -5.5165   19.5028  -34.1070 H   0  0  0  0  0  0  0  0  0  0  0  0
  1  2  1  0
  2  3  1  0
  3  4  2  0
  4  5  1  0
  5  6  2  0
  6  7  1  0
  7  8  1  0
  8  9  1  0
  7 10  2  0
 10 11  1  0
 11 12  2  0
 11 13  1  0
 13 14  1  0
 14 15  2  0
 15 16  1  0
 15  3  1  0
 14  6  1  0
  1 17  1  0
  1 18  1  0
  1 19  1  0
  4 20  1  0
  5 21  1  0
  8 22  1  0
  8 23  1  0
  9 24  1  0
 10 25  1  0
 16 26  1  0
 16 27  1  0
 16 28  1  0
M  END
>  <UniqueID>  (25) 
24

>  <SMILES>  (25) 
COc1ccc2c(CO)cc(=O)oc2c1C

>  <Energy>  (25) 
34.428604452621755

>  <Genealogy>  (25) 
COc1ccc2c(CO)cc(=O)oc2c1C (3D coordinates assigned)
COc1ccc2c(CO)cc(=O)oc2c1C (optimized conformer: 34.428604452621755 kcal/mol)

>  <smiles>  (25) 
COc1ccc2c(CO)cc(=O)oc2c1C

>  <score_type>  (25) 
oracle

>  <origin>  (25) 
adg

>  <m_score__min__energy>  (25) 
-6.8399999999999999

>  <m_primary>  (25) 
energy

$$$$
25:0
     RDKit          3D

 45 47  0  0  0  0  0  0  0  0999 V2000
    1.6250   29.0470  -24.1270 C   0  0  0  0  0  0  0  0  0  0  0  0
    0.4790   28.0370  -24.2500 C   0  0  0  0  0  0  0  0  0  0  0  0
    0.6620   26.8370  -23.3910 N   0  0  0  0  0  0  0  0  0  0  0  0
    1.9420   26.1400  -23.7140 C   0  0  0  0  0  0  0  0  0  0  0  0
    1.7810   24.9340  -24.6650 C   0  0  0  0  0  0  0  0  0  0  0  0
    0.5840   25.0820  -25.4990 N   0  0  0  0  0  0  0  0  0  0  0  0
    0.6980   25.1900  -26.9320 C   0  0  0  0  0  0  0  0  0  0  0  0
    1.7280   25.7140  -27.4360 O   0  0  0  0  0  0  0  0  0  0  0  0
   -0.3820   24.7210  -27.8300 C   0  0  0  0  0  0  0  0  0  0  0  0
   -1.6300   25.3640  -27.8490 C   0  0  0  0  0  0  0  0  0  0  0  0
   -2.6460   24.9080  -28.6930 C   0  0  0  0  0  0  0  0  0  0  0  0
   -2.4430   23.7910  -29.5100 C   0  0  0  0  0  0  0  0  0  0  0  0
   -3.5020   23.3620  -30.3760 N   0  0  0  0  0  0  0  0  0  0  0  0
   -4.6450   24.1370  -30.7590 C   0  0  0  0  0  0  0  0  0  0  0  0
   -4.5280   25.3860  -30.8520 O   0  0  0  0  0  0  0  0  0  0  0  0
   -5.9660   23.5210  -30.9870 C   0  0  0  0  0  0  0  0  0  0  0  0
   -6.6700   22.7080  -30.1050 C   0  0  0  0  0  0  0  0  0  0  0  0
   -7.9180   22.3070  -30.5960 C   0  0  0  0  0  0  0  0  0  0  0  0
   -8.2090   22.8090  -31.8570 C   0  0  0  0  0  0  0  0  0  0  0  0
   -6.9130   23.7540  -32.3590 S   0  0  0  0  0  0  0  0  0  0  0  0
   -1.1920   23.1500  -29.4990 C   0  0  0  0  0  0  0  0  0  0  0  0
   -0.1750   23.6030  -28.6550 C   0  0  0  0  0  0  0  0  0  0  0  0
   -0.7040   25.3140  -24.8330 C   0  0  0  0  0  0  0  0  0  0  0  0
   -0.4880   25.9000  -23.4280 C   0  0  0  0  0  0  0  0  0  0  0  0
    1.8367   29.2336  -23.0638 H   0  0  0  0  0  0  0  0  0  0  0  0
    2.5243   28.6424  -24.6144 H   0  0  0  0  0  0  0  0  0  0  0  0
    1.3366   29.9900  -24.6144 H   0  0  0  0  0  0  0  0  0  0  0  0
   -0.4583   28.5346  -23.9606 H   0  0  0  0  0  0  0  0  0  0  0  0
    0.4578   27.6918  -25.2942 H   0  0  0  0  0  0  0  0  0  0  0  0
    0.7440   27.1810  -22.4030 H   0  0  0  0  0  0  0  0  0  0  0  0
    2.6202   26.8651  -24.1875 H   0  0  0  0  0  0  0  0  0  0  0  0
    2.3363   25.7457  -22.7658 H   0  0  0  0  0  0  0  0  0  0  0  0
    2.6664   24.8665  -25.3143 H   0  0  0  0  0  0  0  0  0  0  0  0
    1.6777   24.0208  -24.0605 H   0  0  0  0  0  0  0  0  0  0  0  0
   -1.8088   26.2311  -27.1962 H   0  0  0  0  0  0  0  0  0  0  0  0
   -3.6131   25.4316  -28.7151 H   0  0  0  0  0  0  0  0  0  0  0  0
   -6.2842   22.4096  -29.1190 H   0  0  0  0  0  0  0  0  0  0  0  0
   -8.6039   21.6551  -30.0351 H   0  0  0  0  0  0  0  0  0  0  0  0
   -9.1294   22.6207  -32.4292 H   0  0  0  0  0  0  0  0  0  0  0  0
   -1.0130   22.2877  -30.1580 H   0  0  0  0  0  0  0  0  0  0  0  0
    0.7932   23.0813  -28.6364 H   0  0  0  0  0  0  0  0  0  0  0  0
   -1.2988   26.0196  -25.4316 H   0  0  0  0  0  0  0  0  0  0  0  0
   -1.2334   24.3543  -24.7398 H   0  0  0  0  0  0  0  0  0  0  0  0
   -1.3969   26.4400  -23.1242 H   0  0  0  0  0  0  0  0  0  0  0  0
   -0.2729   25.0685  -22.7408 H   0  0  0  0  0  0  0  0  0  0  0  0
  1  2  1  0
  2  3  1  0
  3  4  1  0
  4  5  1  0
  5  6  1  0
  6  7  1  0
  7  8  2  0
  7  9  1  0
  9 10  2  0
 10 11  1  0
 11 12  2  0
 12 13  1  0
 13 14  1  0
 14 15  2  0
 14 16  1  0
 16 17  2  0
 17 18  1  0
 18 19  2  0
 19 20  1  0
 12 21  1  0
 21 22  2  0
  6 23  1  0
 23 24  1  0
 24  3  1  0
 22  9  1  0
 20 16  1  0
  1 25  1  0
  1 26  1  0
  1 27  1  0
  2 28  1  0
  2 29  1  0
  3 30  1  0
  4 31  1  0
  4 32  1  0
  5 33  1  0
  5 34  1  0
 10 35  1  0
 11 36  1  0
 17 37  1  0
 18 38  1  0
 19 39  1  0
 21 40  1  0
 22 41  1  0
 23 42  1  0
 23 43  1  0
 24 44  1  0
 24 45  1  0
M  CHG  2   3   1  13  -1
M  END
>  <UniqueID>  (26) 
25

>  <SMILES>  (26) 
CC[NH+]1CCN(C(=O)c2ccc([N-]C(=O)c3cccs3)cc2)CC1

>  <Energy>  (26) 
90.83446864439568

>  <Genealogy>  (26) 
CC[NH+]1CCN(C(=O)c2ccc([N-]C(=O)c3cccs3)cc2)CC1 (protonated)
CC[NH+]1CCN(C(=O)c2ccc([N-]C(=O)c3cccs3)cc2)CC1 (3D coordinates assigned)
CC[NH+]1CCN(C(=O)c2ccc([N-]C(=O)c3cccs3)cc2)CC1 (nonaromatic ring conformer: 90.83446864439568 kcal/mol)

>  <smiles>  (26) 
CCN1CCN(C(=O)c2ccc(NC(=O)c3cccs3)cc2)CC1

>  <score_type>  (26) 
oracle

>  <origin>  (26) 
adg

>  <m_score__min__energy>  (26) 
-9.0399999999999991

>  <m_primary>  (26) 
energy

$$$$
26:0
     RDKit          3D

 49 51  0  0  0  0  0  0  0  0999 V2000
   -8.7570   19.9090  -31.6750 C   0  0  0  0  0  0  0  0  0  0  0  0
   -8.7870   18.5130  -32.3100 C   0  0  0  0  0  0  0  0  0  0  0  0
   -7.4730   17.8230  -32.3880 N   0  0  0  0  0  0  0  0  0  0  0  0
   -6.8180   17.9250  -33.7170 C   0  0  0  0  0  0  0  0  0  0  0  0
   -5.9680   19.2020  -33.9160 C   0  0  0  0  0  0  0  0  0  0  0  0
   -5.7370   19.9290  -32.6560 N   0  0  0  0  0  0  0  0  0  0  0  0
   -4.7080   20.9720  -32.8380 C   0  0  0  0  0  0  0  0  0  0  0  0
   -5.0960   22.2170  -32.0840 C   0  0  0  0  0  0  0  0  0  0  0  0
   -6.4510   22.5320  -31.9040 C   0  0  0  0  0  0  0  0  0  0  0  0
   -6.8190   23.6660  -31.1760 C   0  0  0  0  0  0  0  0  0  0  0  0
   -5.8380   24.4980  -30.6300 C   0  0  0  0  0  0  0  0  0  0  0  0
   -4.4810   24.2080  -30.8160 C   0  0  0  0  0  0  0  0  0  0  0  0
   -3.5000   25.0760  -30.2280 N   0  0  0  0  0  0  0  0  0  0  0  0
   -2.4440   24.6810  -29.3410 C   0  0  0  0  0  0  0  0  0  0  0  0
   -1.6110   25.5510  -28.9740 O   0  0  0  0  0  0  0  0  0  0  0  0
   -2.2760   23.2800  -28.8890 C   0  0  0  0  0  0  0  0  0  0  0  0
   -3.2330   22.6940  -28.0410 C   0  0  0  0  0  0  0  0  0  0  0  0
   -3.0820   21.3710  -27.6120 C   0  0  0  0  0  0  0  0  0  0  0  0
   -1.9720   20.6260  -28.0170 C   0  0  0  0  0  0  0  0  0  0  0  0
   -1.0080   21.2030  -28.8450 C   0  0  0  0  0  0  0  0  0  0  0  0
   -1.1540   22.5250  -29.2760 C   0  0  0  0  0  0  0  0  0  0  0  0
   -4.1130   23.0510  -31.5250 C   0  0  0  0  0  0  0  0  0  0  0  0
   -5.3620   18.9820  -31.5980 C   0  0  0  0  0  0  0  0  0  0  0  0
   -6.5720   18.1070  -31.2350 C   0  0  0  0  0  0  0  0  0  0  0  0
   -8.7591   19.8135  -30.5792 H   0  0  0  0  0  0  0  0  0  0  0  0
   -7.8473   20.4380  -31.9952 H   0  0  0  0  0  0  0  0  0  0  0  0
   -9.6432   20.4766  -31.9952 H   0  0  0  0  0  0  0  0  0  0  0  0
   -9.4666   17.8840  -31.7162 H   0  0  0  0  0  0  0  0  0  0  0  0
   -9.1167   18.6583  -33.3493 H   0  0  0  0  0  0  0  0  0  0  0  0
   -7.7250   16.8080  -32.2980 H   0  0  0  0  0  0  0  0  0  0  0  0
   -6.1614   17.0517  -33.8445 H   0  0  0  0  0  0  0  0  0  0  0  0
   -7.6262   17.9674  -34.4620 H   0  0  0  0  0  0  0  0  0  0  0  0
   -4.9948   18.9151  -34.3410 H   0  0  0  0  0  0  0  0  0  0  0  0
   -6.5231   19.8707  -34.5903 H   0  0  0  0  0  0  0  0  0  0  0  0
   -3.7438   20.6023  -32.4589 H   0  0  0  0  0  0  0  0  0  0  0  0
   -4.6218   21.2107  -33.9083 H   0  0  0  0  0  0  0  0  0  0  0  0
   -7.2266   21.8837  -32.3377 H   0  0  0  0  0  0  0  0  0  0  0  0
   -7.8832   23.9045  -31.0322 H   0  0  0  0  0  0  0  0  0  0  0  0
   -6.1335   25.3854  -30.0510 H   0  0  0  0  0  0  0  0  0  0  0  0
   -4.1049   23.2792  -27.7133 H   0  0  0  0  0  0  0  0  0  0  0  0
   -3.8383   20.9169  -26.9549 H   0  0  0  0  0  0  0  0  0  0  0  0
   -1.8576   19.5841  -27.6832 H   0  0  0  0  0  0  0  0  0  0  0  0
   -0.1319   20.6167  -29.1590 H   0  0  0  0  0  0  0  0  0  0  0  0
   -0.3869   22.9774  -29.9216 H   0  0  0  0  0  0  0  0  0  0  0  0
   -3.0492   22.7972  -31.6428 H   0  0  0  0  0  0  0  0  0  0  0  0
   -4.5413   18.3419  -31.9540 H   0  0  0  0  0  0  0  0  0  0  0  0
   -5.0352   19.5399  -30.7081 H   0  0  0  0  0  0  0  0  0  0  0  0
   -6.2021   17.1497  -30.8392 H   0  0  0  0  0  0  0  0  0  0  0  0
   -7.1631   18.6665  -30.4951 H   0  0  0  0  0  0  0  0  0  0  0  0
  1  2  1  0
  2  3  1  0
  3  4  1  0
  4  5  1  0
  5  6  1  0
  6  7  1  0
  7  8  1  0
  8  9  2  0
  9 10  1  0
 10 11  2  0
 11 12  1  0
 12 13  1  0
 13 14  1  0
 14 15  2  0
 14 16  1  0
 16 17  2  0
 17 18  1  0
 18 19  2  0
 19 20  1  0
 20 21  2  0
 12 22  2  0
  6 23  1  0
 23 24  1  0
 24  3  1  0
 22  8  1  0
 21 16  1  0
  1 25  1  0
  1 26  1  0
  1 27  1  0
  2 28  1  0
  2 29  1  0
  3 30  1  0
  4 31  1  0
  4 32  1  0
  5 33  1  0
  5 34  1  0
  7 35  1  0
  7 36  1  0
  9 37  1  0
 10 38  1  0
 11 39  1  0
 17 40  1  0
 18 41  1  0
 19 42  1  0
 20 43  1  0
 21 44  1  0
 22 45  1  0
 23 46  1  0
 23 47  1  0
 24 48  1  0
 24 49  1  0
M  CHG  2   3   1  13  -1
M  END
>  <UniqueID>  (27) 
26

>  <SMILES>  (27) 
CC[NH+]1CCN(Cc2cccc([N-]C(=O)c3ccccc3)c2)CC1

>  <Energy>  (27) 
70.66091625244891

>  <Genealogy>  (27) 
CC[NH+]1CCN(Cc2cccc([N-]C(=O)c3ccccc3)c2)CC1 (protonated)
CC[NH+]1CCN(Cc2cccc([N-]C(=O)c3ccccc3)c2)CC1 (3D coordinates assigned)
CC[NH+]1CCN(Cc2cccc([N-]C(=O)c3ccccc3)c2)CC1 (nonaromatic ring conformer: 70.66091625244891 kcal/mol)

>  <smiles>  (27) 
CCN1CCN(Cc2cccc(NC(=O)c3ccccc3)c2)CC1

>  <score_type>  (27) 
oracle

>  <origin>  (27) 
adg

>  <m_score__min__energy>  (27) 
-9.9299999999999997

>  <m_primary>  (27) 
energy

$$$$
27:0
     RDKit          3D

 51 55  0  0  0  0  0  0  0  0999 V2000
   -6.8350   25.0980  -30.0760 C   0  0  0  0  0  0  0  0  0  0  0  0
   -6.4830   23.8280  -30.7920 C   0  0  0  0  0  0  0  0  0  0  0  0
   -5.2970   23.7570  -31.5690 C   0  0  0  0  0  0  0  0  0  0  0  0
   -4.9680   22.5850  -32.2750 C   0  0  0  0  0  0  0  0  0  0  0  0
   -5.8470   21.5070  -32.2010 C   0  0  0  0  0  0  0  0  0  0  0  0
   -5.7110   20.2970  -32.7930 N   0  0  0  0  0  0  0  0  0  0  0  0
   -6.8120   19.6080  -32.4170 C   0  0  0  0  0  0  0  0  0  0  0  0
   -7.1760   18.2920  -32.7080 C   0  0  0  0  0  0  0  0  0  0  0  0
   -6.3960   17.4630  -33.5890 N   0  0  0  0  0  0  0  0  0  0  0  0
   -5.9880   17.9610  -34.9030 C   0  0  0  0  0  0  0  0  0  0  0  0
   -4.4580   18.1640  -34.9530 C   0  0  0  0  0  0  0  0  0  0  0  0
   -3.7010   17.2850  -34.0220 N   0  0  0  0  0  0  0  0  0  0  0  0
   -3.2970   17.9980  -32.7880 C   0  0  0  0  0  0  0  0  0  0  0  0
   -2.4220   19.1840  -33.1030 C   0  0  0  0  0  0  0  0  0  0  0  0
   -1.5060   19.1340  -34.1680 C   0  0  0  0  0  0  0  0  0  0  0  0
   -0.7120   20.2460  -34.4650 C   0  0  0  0  0  0  0  0  0  0  0  0
   -0.8280   21.4130  -33.7050 C   0  0  0  0  0  0  0  0  0  0  0  0
   -1.7380   21.4710  -32.6460 C   0  0  0  0  0  0  0  0  0  0  0  0
   -2.5340   20.3610  -32.3460 C   0  0  0  0  0  0  0  0  0  0  0  0
   -4.4060   16.0090  -33.7550 C   0  0  0  0  0  0  0  0  0  0  0  0
   -5.7740   16.2330  -33.0860 C   0  0  0  0  0  0  0  0  0  0  0  0
   -8.3310   17.8150  -32.1440 N   0  0  0  0  0  0  0  0  0  0  0  0
   -9.1110   18.5980  -31.3290 C   0  0  0  0  0  0  0  0  0  0  0  0
   -8.7510   19.8850  -31.0480 N   0  0  0  0  0  0  0  0  0  0  0  0
   -7.6120   20.3620  -31.6000 C   0  0  0  0  0  0  0  0  0  0  0  0
   -7.0070   21.5840  -31.4580 C   0  0  0  0  0  0  0  0  0  0  0  0
   -7.3610   22.7240  -30.7440 C   0  0  0  0  0  0  0  0  0  0  0  0
   -6.7888   24.9314  -28.9897 H   0  0  0  0  0  0  0  0  0  0  0  0
   -6.1217   25.8869  -30.3566 H   0  0  0  0  0  0  0  0  0  0  0  0
   -7.8527   25.4071  -30.3566 H   0  0  0  0  0  0  0  0  0  0  0  0
   -4.6274   24.6283  -31.6198 H   0  0  0  0  0  0  0  0  0  0  0  0
   -4.0437   22.5220  -32.8680 H   0  0  0  0  0  0  0  0  0  0  0  0
   -4.9110   19.9720  -33.3780 H   0  0  0  0  0  0  0  0  0  0  0  0
   -6.2820   17.2329  -35.6734 H   0  0  0  0  0  0  0  0  0  0  0  0
   -6.4813   18.9269  -35.0864 H   0  0  0  0  0  0  0  0  0  0  0  0
   -4.1151   17.9593  -35.9779 H   0  0  0  0  0  0  0  0  0  0  0  0
   -4.2639   19.2008  -34.6409 H   0  0  0  0  0  0  0  0  0  0  0  0
   -4.1990   18.3472  -32.2642 H   0  0  0  0  0  0  0  0  0  0  0  0
   -2.7251   17.3024  -32.1562 H   0  0  0  0  0  0  0  0  0  0  0  0
   -1.4135   18.2176  -34.7694 H   0  0  0  0  0  0  0  0  0  0  0  0
    0.0050   20.2021  -35.2981 H   0  0  0  0  0  0  0  0  0  0  0  0
   -0.2025   22.2867  -33.9406 H   0  0  0  0  0  0  0  0  0  0  0  0
   -1.8282   22.3900  -32.0482 H   0  0  0  0  0  0  0  0  0  0  0  0
   -3.2510   20.4103  -31.5133 H   0  0  0  0  0  0  0  0  0  0  0  0
   -4.5593   15.4821  -34.7084 H   0  0  0  0  0  0  0  0  0  0  0  0
   -3.7852   15.4162  -33.0671 H   0  0  0  0  0  0  0  0  0  0  0  0
   -6.4300   15.3784  -33.3082 H   0  0  0  0  0  0  0  0  0  0  0  0
   -5.6281   16.3263  -31.9997 H   0  0  0  0  0  0  0  0  0  0  0  0
   -8.6470   16.8420  -32.3490 H   0  0  0  0  0  0  0  0  0  0  0  0
  -10.0348   18.1845  -30.8983 H   0  0  0  0  0  0  0  0  0  0  0  0
   -8.2934   22.7638  -30.1618 H   0  0  0  0  0  0  0  0  0  0  0  0
  1  2  1  0
  2  3  2  0
  3  4  1  0
  4  5  2  0
  5  6  1  0
  6  7  1  0
  7  8  2  0
  8  9  1  0
  9 10  1  0
 10 11  1  0
 11 12  1  0
 12 13  1  0
 13 14  1  0
 14 15  2  0
 15 16  1  0
 16 17  2  0
 17 18  1  0
 18 19  2  0
 12 20  1  0
 20 21  1  0
  8 22  1  0
 22 23  2  0
 23 24  1  0
 24 25  2  0
 25 26  1  0
 26 27  2  0
 27  2  1  0
 26  5  1  0
 25  7  1  0
 21  9  1  0
 19 14  1  0
  1 28  1  0
  1 29  1  0
  1 30  1  0
  3 31  1  0
  4 32  1  0
  6 33  1  0
 10 34  1  0
 10 35  1  0
 11 36  1  0
 11 37  1  0
 13 38  1  0
 13 39  1  0
 15 40  1  0
 16 41  1  0
 17 42  1  0
 18 43  1  0
 19 44  1  0
 20 45  1  0
 20 46  1  0
 21 47  1  0
 21 48  1  0
 22 49  1  0
 23 50  1  0
 27 51  1  0
M  CHG  1  22   1
M  END
>  <UniqueID>  (28) 
27

>  <SMILES>  (28) 
Cc1ccc2[nH]c3c(N4CCN(Cc5ccccc5)CC4)[nH+]cnc3c2c1

>  <Energy>  (28) 
112.26610857615897

>  <Genealogy>  (28) 
Cc1ccc2[nH]c3c(N4CCN(Cc5ccccc5)CC4)[nH+]cnc3c2c1 (protonated)
Cc1ccc2[nH]c3c(N4CCN(Cc5ccccc5)CC4)[nH+]cnc3c2c1 (3D coordinates assigned)
Cc1ccc2[nH]c3c(N4CCN(Cc5ccccc5)CC4)[nH+]cnc3c2c1 (nonaromatic ring conformer: 112.26610857615897 kcal/mol)

>  <smiles>  (28) 
Cc1ccc2[nH]c3c(N4CCN(Cc5ccccc5)CC4)ncnc3c2c1

>  <score_type>  (28) 
oracle

>  <origin>  (28) 
adg

>  <m_score__min__energy>  (28) 
-7.9800000000000004

>  <m_primary>  (28) 
energy

$$$$
28:0
     RDKit          3D

 33 35  0  0  0  0  0  0  0  0999 V2000
   -2.3000   24.8180  -28.5910 C   0  0  0  0  0  0  0  0  0  0  0  0
   -3.1150   25.2920  -29.6570 O   0  0  0  0  0  0  0  0  0  0  0  0
   -4.2420   24.6200  -30.1530 C   0  0  0  0  0  0  0  0  0  0  0  0
   -5.4210   25.3480  -30.3420 C   0  0  0  0  0  0  0  0  0  0  0  0
   -6.5710   24.7240  -30.8350 C   0  0  0  0  0  0  0  0  0  0  0  0
   -6.5570   23.3580  -31.1610 C   0  0  0  0  0  0  0  0  0  0  0  0
   -7.7870   22.7110  -31.6740 C   0  0  0  0  0  0  0  0  0  0  0  0
   -8.8500   23.3860  -31.7520 O   0  0  0  0  0  0  0  0  0  0  0  0
   -7.8120   21.3060  -32.1220 C   0  0  0  0  0  0  0  0  0  0  0  0
   -8.9460   20.5900  -32.2520 N   0  0  0  0  0  0  0  0  0  0  0  0
   -8.5620   19.4330  -32.6970 O   0  0  0  0  0  0  0  0  0  0  0  0
   -7.2600   19.4260  -32.8440 C   0  0  0  0  0  0  0  0  0  0  0  0
   -6.4840   18.2680  -33.3330 C   0  0  0  0  0  0  0  0  0  0  0  0
   -5.7250   18.3620  -34.5140 C   0  0  0  0  0  0  0  0  0  0  0  0
   -4.9930   17.2620  -34.9700 C   0  0  0  0  0  0  0  0  0  0  0  0
   -5.0110   16.0610  -34.2540 C   0  0  0  0  0  0  0  0  0  0  0  0
   -5.7620   15.9600  -33.0800 C   0  0  0  0  0  0  0  0  0  0  0  0
   -6.4970   17.0580  -32.6200 C   0  0  0  0  0  0  0  0  0  0  0  0
   -6.7180   20.6090  -32.4950 N   0  0  0  0  0  0  0  0  0  0  0  0
   -5.3760   22.6220  -30.9550 C   0  0  0  0  0  0  0  0  0  0  0  0
   -4.2270   23.2470  -30.4610 C   0  0  0  0  0  0  0  0  0  0  0  0
   -2.7615   25.0864  -27.6293 H   0  0  0  0  0  0  0  0  0  0  0  0
   -2.2058   23.7242  -28.6599 H   0  0  0  0  0  0  0  0  0  0  0  0
   -1.3027   25.2770  -28.6599 H   0  0  0  0  0  0  0  0  0  0  0  0
   -5.4438   26.4210  -30.1007 H   0  0  0  0  0  0  0  0  0  0  0  0
   -7.4939   25.3075  -30.9686 H   0  0  0  0  0  0  0  0  0  0  0  0
   -5.7076   19.3047  -35.0806 H   0  0  0  0  0  0  0  0  0  0  0  0
   -4.4015   17.3413  -35.8941 H   0  0  0  0  0  0  0  0  0  0  0  0
   -4.4344   15.1964  -34.6147 H   0  0  0  0  0  0  0  0  0  0  0  0
   -5.7754   15.0154  -32.5164 H   0  0  0  0  0  0  0  0  0  0  0  0
   -7.0876   16.9732  -31.6959 H   0  0  0  0  0  0  0  0  0  0  0  0
   -5.3563   21.5464  -31.1844 H   0  0  0  0  0  0  0  0  0  0  0  0
   -3.3069   22.6627  -30.3124 H   0  0  0  0  0  0  0  0  0  0  0  0
  1  2  1  0
  2  3  1  0
  3  4  2  0
  4  5  1  0
  5  6  2  0
  6  7  1  0
  7  8  2  0
  7  9  1  0
  9 10  2  0
 10 11  1  0
 11 12  1  0
 12 13  1  0
 13 14  2  0
 14 15  1  0
 15 16  2  0
 16 17  1  0
 17 18  2  0
 12 19  2  0
  6 20  1  0
 20 21  2  0
 21  3  1  0
 19  9  1  0
 18 13  1  0
  1 22  1  0
  1 23  1  0
  1 24  1  0
  4 25  1  0
  5 26  1  0
 14 27  1  0
 15 28  1  0
 16 29  1  0
 17 30  1  0
 18 31  1  0
 20 32  1  0
 21 33  1  0
M  END
>  <UniqueID>  (29) 
28

>  <SMILES>  (29) 
COc1ccc(C(=O)c2noc(-c3ccccc3)n2)cc1

>  <Energy>  (29) 
71.45678789376217

>  <Genealogy>  (29) 
COc1ccc(C(=O)c2noc(-c3ccccc3)n2)cc1 (3D coordinates assigned)
COc1ccc(C(=O)c2noc(-c3ccccc3)n2)cc1 (optimized conformer: 71.45678789376217 kcal/mol)

>  <smiles>  (29) 
COc1ccc(C(=O)c2noc(-c3ccccc3)n2)cc1

>  <score_type>  (29) 
oracle

>  <origin>  (29) 
adg

>  <m_score__min__energy>  (29) 
-8.4800000000000004

>  <m_primary>  (29) 
energy

$$$$
29:0
     RDKit          3D

 39 41  0  0  0  0  0  0  0  0999 V2000
   -8.5680   21.5480  -31.7700 C   0  0  0  0  0  0  0  0  0  0  0  0
   -8.3170   23.0390  -31.9730 C   0  0  0  0  0  0  0  0  0  0  0  0
   -6.8440   23.3160  -32.2910 C   0  0  0  0  0  0  0  0  0  0  0  0
   -6.0640   23.4380  -31.0490 N   0  0  0  0  0  0  0  0  0  0  0  0
   -6.3710   24.5130  -30.0870 C   0  0  0  0  0  0  0  0  0  0  0  0
   -5.7290   25.8610  -30.4530 C   0  0  0  0  0  0  0  0  0  0  0  0
   -4.3320   25.7860  -30.4120 O   0  0  0  0  0  0  0  0  0  0  0  0
   -4.7340   22.8830  -31.0420 C   0  0  0  0  0  0  0  0  0  0  0  0
   -3.7620   23.4650  -30.2800 N   0  0  0  0  0  0  0  0  0  0  0  0
   -2.4850   22.9760  -30.2280 C   0  0  0  0  0  0  0  0  0  0  0  0
   -1.4630   23.6370  -29.3920 C   0  0  0  0  0  0  0  0  0  0  0  0
   -0.2880   22.9720  -29.0130 C   0  0  0  0  0  0  0  0  0  0  0  0
    0.6370   23.6520  -28.2210 C   0  0  0  0  0  0  0  0  0  0  0  0
    0.3920   24.9300  -27.8340 N   0  0  0  0  0  0  0  0  0  0  0  0
   -0.7490   25.5630  -28.2080 C   0  0  0  0  0  0  0  0  0  0  0  0
   -1.6640   24.9180  -28.9790 N   0  0  0  0  0  0  0  0  0  0  0  0
   -2.1510   21.8720  -30.9560 N   0  0  0  0  0  0  0  0  0  0  0  0
   -3.0970   21.2810  -31.7220 C   0  0  0  0  0  0  0  0  0  0  0  0
   -2.9010   19.9470  -32.7140 S   0  0  0  0  0  0  0  0  0  0  0  0
   -4.4980   19.9580  -33.2720 C   0  0  0  0  0  0  0  0  0  0  0  0
   -5.1890   21.0150  -32.6800 C   0  0  0  0  0  0  0  0  0  0  0  0
   -4.3910   21.7550  -31.7980 C   0  0  0  0  0  0  0  0  0  0  0  0
   -8.6054   21.3257  -30.6933 H   0  0  0  0  0  0  0  0  0  0  0  0
   -9.5255   21.2707  -32.2351 H   0  0  0  0  0  0  0  0  0  0  0  0
   -7.7541   20.9725  -32.2351 H   0  0  0  0  0  0  0  0  0  0  0  0
   -8.9375   23.3966  -32.8079 H   0  0  0  0  0  0  0  0  0  0  0  0
   -8.5768   23.5652  -31.0426 H   0  0  0  0  0  0  0  0  0  0  0  0
   -6.4411   22.4874  -32.8919 H   0  0  0  0  0  0  0  0  0  0  0  0
   -6.7718   24.2599  -32.8513 H   0  0  0  0  0  0  0  0  0  0  0  0
   -7.4623   24.6455  -30.0486 H   0  0  0  0  0  0  0  0  0  0  0  0
   -5.9549   24.2081  -29.1154 H   0  0  0  0  0  0  0  0  0  0  0  0
   -6.0431   26.1436  -31.4686 H   0  0  0  0  0  0  0  0  0  0  0  0
   -6.0583   26.6129  -29.7207 H   0  0  0  0  0  0  0  0  0  0  0  0
   -4.0900   25.4480  -29.5120 H   0  0  0  0  0  0  0  0  0  0  0  0
   -0.0999   21.9366  -29.3334 H   0  0  0  0  0  0  0  0  0  0  0  0
    1.5661   23.1522  -27.9096 H   0  0  0  0  0  0  0  0  0  0  0  0
   -0.9334   26.5988  -27.8869 H   0  0  0  0  0  0  0  0  0  0  0  0
   -4.9251   19.2426  -33.9902 H   0  0  0  0  0  0  0  0  0  0  0  0
   -6.2457   21.2428  -32.8835 H   0  0  0  0  0  0  0  0  0  0  0  0
  1  2  1  0
  2  3  1  0
  3  4  1  0
  4  5  1  0
  5  6  1  0
  6  7  1  0
  4  8  1  0
  8  9  2  0
  9 10  1  0
 10 11  1  0
 11 12  2  0
 12 13  1  0
 13 14  2  0
 14 15  1  0
 15 16  2  0
 10 17  2  0
 17 18  1  0
 18 19  1  0
 19 20  1  0
 20 21  2  0
 21 22  1  0
 22  8  1  0
 16 11  1  0
 22 18  2  0
  1 23  1  0
  1 24  1  0
  1 25  1  0
  2 26  1  0
  2 27  1  0
  3 28  1  0
  3 29  1  0
  5 30  1  0
  5 31  1  0
  6 32  1  0
  6 33  1  0
  7 34  1  0
 12 35  1  0
 13 36  1  0
 15 37  1  0
 20 38  1  0
 21 39  1  0
M  END
>  <UniqueID>  (30) 
29

>  <SMILES>  (30) 
CCCN(CCO)c1nc(-c2ccncn2)nc2sccc12

>  <Energy>  (30) 
73.99723312969158

>  <Genealogy>  (30) 
CCCN(CCO)c1nc(-c2ccncn2)nc2sccc12 (3D coordinates assigned)
CCCN(CCO)c1nc(-c2ccncn2)nc2sccc12 (optimized conformer: 73.99723312969158 kcal/mol)

>  <smiles>  (30) 
CCCN(CCO)c1nc(-c2ccncn2)nc2sccc12

>  <score_type>  (30) 
oracle

>  <origin>  (30) 
adg

>  <m_score__min__energy>  (30) 
-7.6799999999999997

>  <m_primary>  (30) 
energy

$$$$
30:0
     RDKit          3D

 42 44  0  0  0  0  0  0  0  0999 V2000
   -0.6570   30.3060  -25.6710 C   0  0  0  0  0  0  0  0  0  0  0  0
   -0.3690   29.4240  -24.5450 N   0  0  0  0  0  0  0  0  0  0  0  0
   -0.4620   27.9880  -24.6090 C   0  0  0  0  0  0  0  0  0  0  0  0
    0.1970   27.2160  -23.6500 C   0  0  0  0  0  0  0  0  0  0  0  0
    0.1290   25.8610  -23.6940 N   0  0  0  0  0  0  0  0  0  0  0  0
   -0.5760   25.2080  -24.6540 C   0  0  0  0  0  0  0  0  0  0  0  0
   -1.2800   25.9200  -25.6530 C   0  0  0  0  0  0  0  0  0  0  0  0
   -2.0480   25.2260  -26.6910 N   0  0  0  0  0  0  0  0  0  0  0  0
   -1.4200   25.0290  -28.0220 C   0  0  0  0  0  0  0  0  0  0  0  0
   -2.2410   24.2120  -29.0250 C   0  0  0  0  0  0  0  0  0  0  0  0
   -3.7280   24.5240  -28.9090 C   0  0  0  0  0  0  0  0  0  0  0  0
   -4.5300   23.8230  -29.9920 C   0  0  0  0  0  0  0  0  0  0  0  0
   -5.8670   24.1940  -30.2240 C   0  0  0  0  0  0  0  0  0  0  0  0
   -6.6180   23.5590  -31.2180 C   0  0  0  0  0  0  0  0  0  0  0  0
   -6.0430   22.5470  -31.9910 C   0  0  0  0  0  0  0  0  0  0  0  0
   -4.7170   22.1690  -31.7720 C   0  0  0  0  0  0  0  0  0  0  0  0
   -3.9620   22.8020  -30.7800 C   0  0  0  0  0  0  0  0  0  0  0  0
   -4.1840   24.1040  -27.5170 C   0  0  0  0  0  0  0  0  0  0  0  0
   -3.4770   24.9210  -26.4310 C   0  0  0  0  0  0  0  0  0  0  0  0
   -1.1980   27.3320  -25.6100 C   0  0  0  0  0  0  0  0  0  0  0  0
   -0.9778   31.2885  -25.2945 H   0  0  0  0  0  0  0  0  0  0  0  0
    0.2486   30.4260  -26.2837 H   0  0  0  0  0  0  0  0  0  0  0  0
   -1.4589   29.8685  -26.2837 H   0  0  0  0  0  0  0  0  0  0  0  0
   -0.0800   29.8720  -23.6450 H   0  0  0  0  0  0  0  0  0  0  0  0
    0.7747   27.7089  -22.8541 H   0  0  0  0  0  0  0  0  0  0  0  0
    0.6370   25.3060  -22.9700 H   0  0  0  0  0  0  0  0  0  0  0  0
   -0.5998   24.1083  -24.6545 H   0  0  0  0  0  0  0  0  0  0  0  0
   -1.2385   26.0211  -28.4611 H   0  0  0  0  0  0  0  0  0  0  0  0
   -0.5028   24.4497  -27.8401 H   0  0  0  0  0  0  0  0  0  0  0  0
   -1.9031   24.4518  -30.0440 H   0  0  0  0  0  0  0  0  0  0  0  0
   -2.0926   23.1442  -28.8065 H   0  0  0  0  0  0  0  0  0  0  0  0
   -3.8980   25.6014  -29.0513 H   0  0  0  0  0  0  0  0  0  0  0  0
   -6.3253   24.9899  -29.6187 H   0  0  0  0  0  0  0  0  0  0  0  0
   -7.6627   23.8565  -31.3916 H   0  0  0  0  0  0  0  0  0  0  0  0
   -6.6352   22.0480  -32.7722 H   0  0  0  0  0  0  0  0  0  0  0  0
   -4.2655   21.3719  -32.3809 H   0  0  0  0  0  0  0  0  0  0  0  0
   -2.9172   22.5009  -30.6134 H   0  0  0  0  0  0  0  0  0  0  0  0
   -5.2697   24.2597  -27.4332 H   0  0  0  0  0  0  0  0  0  0  0  0
   -3.9315   23.0430  -27.3737 H   0  0  0  0  0  0  0  0  0  0  0  0
   -4.0130   25.8753  -26.3217 H   0  0  0  0  0  0  0  0  0  0  0  0
   -3.4932   24.2977  -25.5248 H   0  0  0  0  0  0  0  0  0  0  0  0
   -1.7199   27.9268  -26.3741 H   0  0  0  0  0  0  0  0  0  0  0  0
  1  2  1  0
  2  3  1  0
  3  4  2  0
  4  5  1  0
  5  6  2  0
  6  7  1  0
  7  8  1  0
  8  9  1  0
  9 10  1  0
 10 11  1  0
 11 12  1  0
 12 13  2  0
 13 14  1  0
 14 15  2  0
 15 16  1  0
 16 17  2  0
 11 18  1  0
 18 19  1  0
  7 20  2  0
 20  3  1  0
 19  8  1  0
 17 12  1  0
  1 21  1  0
  1 22  1  0
  1 23  1  0
  2 24  1  0
  4 25  1  0
  5 26  1  0
  6 27  1  0
  9 28  1  0
  9 29  1  0
 10 30  1  0
 10 31  1  0
 11 32  1  0
 13 33  1  0
 14 34  1  0
 15 35  1  0
 16 36  1  0
 17 37  1  0
 18 38  1  0
 18 39  1  0
 19 40  1  0
 19 41  1  0
 20 42  1  0
M  CHG  1   5   1
M  END
>  <UniqueID>  (31) 
30

>  <SMILES>  (31) 
CNc1c[nH+]cc(N2CCC(c3ccccc3)CC2)c1

>  <Energy>  (31) 
49.37532488276668

>  <Genealogy>  (31) 
CNc1c[nH+]cc(N2CCC(c3ccccc3)CC2)c1 (protonated)
CNc1c[nH+]cc(N2CCC(c3ccccc3)CC2)c1 (3D coordinates assigned)
CNc1c[nH+]cc(N2CCC(c3ccccc3)CC2)c1 (nonaromatic ring conformer: 49.37532488276668 kcal/mol)

>  <smiles>  (31) 
CNc1cncc(N2CCC(c3ccccc3)CC2)c1

>  <score_type>  (31) 
oracle

>  <origin>  (31) 
adg

>  <m_score__min__energy>  (31) 
-7.6900000000000004

>  <m_primary>  (31) 
energy

$$$$
31:0
     RDKit          3D

 34 37  0  0  0  0  0  0  0  0999 V2000
   -9.4470   20.8880  -32.0450 C   0  0  0  0  0  0  0  0  0  0  0  0
   -9.1090   19.4540  -31.6540 C   0  0  0  0  0  0  0  0  0  0  0  0
   -7.8580   19.0020  -32.3400 C   0  0  0  0  0  0  0  0  0  0  0  0
   -7.6900   17.7860  -32.9100 N   0  0  0  0  0  0  0  0  0  0  0  0
   -6.4350   17.7220  -33.3560 N   0  0  0  0  0  0  0  0  0  0  0  0
   -5.8610   18.9000  -33.0360 C   0  0  0  0  0  0  0  0  0  0  0  0
   -4.5580   19.3190  -33.2840 C   0  0  0  0  0  0  0  0  0  0  0  0
   -3.6320   18.5140  -33.9620 C   0  0  0  0  0  0  0  0  0  0  0  0
   -2.3470   18.9960  -34.2150 C   0  0  0  0  0  0  0  0  0  0  0  0
   -1.9820   20.2820  -33.8050 C   0  0  0  0  0  0  0  0  0  0  0  0
   -0.3720   20.8840  -34.1530 Cl  0  0  0  0  0  0  0  0  0  0  0  0
   -2.8980   21.0920  -33.1250 C   0  0  0  0  0  0  0  0  0  0  0  0
   -4.1940   20.6190  -32.8320 C   0  0  0  0  0  0  0  0  0  0  0  0
   -5.1620   21.4090  -32.1320 C   0  0  0  0  0  0  0  0  0  0  0  0
   -4.8620   22.7430  -31.5730 C   0  0  0  0  0  0  0  0  0  0  0  0
   -3.7230   22.9510  -30.7810 C   0  0  0  0  0  0  0  0  0  0  0  0
   -3.4870   24.2150  -30.2350 C   0  0  0  0  0  0  0  0  0  0  0  0
   -4.3640   25.2290  -30.4570 N   0  0  0  0  0  0  0  0  0  0  0  0
   -5.4870   25.0490  -31.2040 C   0  0  0  0  0  0  0  0  0  0  0  0
   -5.7600   23.8010  -31.7680 C   0  0  0  0  0  0  0  0  0  0  0  0
   -6.4220   20.9130  -31.9530 N   0  0  0  0  0  0  0  0  0  0  0  0
   -6.7180   19.7000  -32.4090 N   0  0  0  0  0  0  0  0  0  0  0  0
   -9.5893   21.4919  -31.1367 H   0  0  0  0  0  0  0  0  0  0  0  0
   -8.6236   21.3095  -32.6402 H   0  0  0  0  0  0  0  0  0  0  0  0
  -10.3720   20.8974  -32.6402 H   0  0  0  0  0  0  0  0  0  0  0  0
   -8.9635   19.4009  -30.5650 H   0  0  0  0  0  0  0  0  0  0  0  0
   -9.9377   18.7984  -31.9595 H   0  0  0  0  0  0  0  0  0  0  0  0
   -3.9176   17.5049  -34.2938 H   0  0  0  0  0  0  0  0  0  0  0  0
   -1.6177   18.3611  -34.7395 H   0  0  0  0  0  0  0  0  0  0  0  0
   -2.6049   22.1063  -32.8163 H   0  0  0  0  0  0  0  0  0  0  0  0
   -3.0213   22.1254  -30.5914 H   0  0  0  0  0  0  0  0  0  0  0  0
   -2.5892   24.3899  -29.6240 H   0  0  0  0  0  0  0  0  0  0  0  0
   -6.1807   25.8876  -31.3638 H   0  0  0  0  0  0  0  0  0  0  0  0
   -6.6738   23.6495  -32.3613 H   0  0  0  0  0  0  0  0  0  0  0  0
  1  2  1  0
  2  3  1  0
  3  4  2  0
  4  5  1  0
  5  6  2  0
  6  7  1  0
  7  8  2  0
  8  9  1  0
  9 10  2  0
 10 11  1  0
 10 12  1  0
 12 13  2  0
 13 14  1  0
 14 15  1  0
 15 16  2  0
 16 17  1  0
 17 18  2  0
 18 19  1  0
 19 20  2  0
 14 21  2  0
 21 22  1  0
 22  3  1  0
 22  6  1  0
 13  7  1  0
 20 15  1  0
  1 23  1  0
  1 24  1  0
  1 25  1  0
  2 26  1  0
  2 27  1  0
  8 28  1  0
  9 29  1  0
 12 30  1  0
 16 31  1  0
 17 32  1  0
 19 33  1  0
 20 34  1  0
M  END
>  <UniqueID>  (32) 
31

>  <SMILES>  (32) 
CCc1nnc2c3ccc(Cl)cc3c(-c3ccncc3)nn12

>  <Energy>  (32) 
89.77436332069628

>  <Genealogy>  (32) 
CCc1nnc2c3ccc(Cl)cc3c(-c3ccncc3)nn12 (3D coordinates assigned)
CCc1nnc2c3ccc(Cl)cc3c(-c3ccncc3)nn12 (optimized conformer: 89.77436332069628 kcal/mol)

>  <smiles>  (32) 
CCc1nnc2c3ccc(Cl)cc3c(-c3ccncc3)nn12

>  <score_type>  (32) 
oracle

>  <origin>  (32) 
adg

>  <m_score__min__energy>  (32) 
-8.5600000000000005

>  <m_primary>  (32) 
energy

$$$$
32:0
     RDKit          3D

 61 65  0  0  0  0  0  0  0  0999 V2000
   -0.4130   19.2810  -28.5460 C   0  0  0  0  0  0  0  0  0  0  0  0
   -0.1400   20.0080  -29.7220 O   0  0  0  0  0  0  0  0  0  0  0  0
   -0.2470   21.3900  -29.4520 C   0  0  0  0  0  0  0  0  0  0  0  0
   -0.8570   22.0980  -30.6570 C   0  0  0  0  0  0  0  0  0  0  0  0
   -0.6560   21.2850  -31.8680 N   0  0  0  0  0  0  0  0  0  0  0  0
   -1.8790   20.6480  -32.4000 C   0  0  0  0  0  0  0  0  0  0  0  0
   -2.7990   20.0740  -31.3030 C   0  0  0  0  0  0  0  0  0  0  0  0
   -4.1600   19.7400  -31.9090 C   0  0  0  0  0  0  0  0  0  0  0  0
   -4.8590   20.9750  -32.3250 N   0  0  0  0  0  0  0  0  0  0  0  0
   -6.1530   20.7060  -32.9960 C   0  0  1  0  0  0  0  0  0  0  0  0
   -6.2760   19.2500  -33.3700 C   0  0  0  0  0  0  0  0  0  0  0  0
   -5.7880   18.6180  -34.5120 C   0  0  0  0  0  0  0  0  0  0  0  0
   -6.1140   17.2580  -34.5750 C   0  0  0  0  0  0  0  0  0  0  0  0
   -6.8630   16.8120  -33.4950 C   0  0  0  0  0  0  0  0  0  0  0  0
   -7.1190   18.1120  -32.4630 S   0  0  0  0  0  0  0  0  0  0  0  0
   -7.3530   21.2110  -32.2130 C   0  0  0  0  0  0  0  0  0  0  0  0
   -8.6070   20.7340  -32.3450 N   0  0  0  0  0  0  0  0  0  0  0  0
   -9.3170   21.4030  -31.4500 N   0  0  0  0  0  0  0  0  0  0  0  0
   -8.5590   22.2610  -30.7890 N   0  0  0  0  0  0  0  0  0  0  0  0
   -7.3280   22.1680  -31.2580 N   0  0  0  0  0  0  0  0  0  0  0  0
   -6.2280   22.9620  -30.7910 C   0  0  0  0  0  0  0  0  0  0  0  0
   -5.9900   24.2420  -31.3220 C   0  0  0  0  0  0  0  0  0  0  0  0
   -4.9230   25.0140  -30.8510 C   0  0  0  0  0  0  0  0  0  0  0  0
   -4.1000   24.5180  -29.8370 C   0  0  0  0  0  0  0  0  0  0  0  0
   -4.3270   23.2410  -29.3090 C   0  0  0  0  0  0  0  0  0  0  0  0
   -5.4030   22.4730  -29.7660 C   0  0  0  0  0  0  0  0  0  0  0  0
   -3.4660   22.7500  -28.3230 O   0  0  0  0  0  0  0  0  0  0  0  0
   -2.2170   23.3890  -28.0500 C   0  0  0  0  0  0  0  0  0  0  0  0
   -2.3730   24.9140  -28.1260 C   0  0  0  0  0  0  0  0  0  0  0  0
   -3.0430   25.2830  -29.3340 O   0  0  0  0  0  0  0  0  0  0  0  0
   -4.0060   22.0420  -32.9170 C   0  0  0  0  0  0  0  0  0  0  0  0
   -2.6280   21.5510  -33.4120 C   0  0  0  0  0  0  0  0  0  0  0  0
   -0.1798   19.9020  -27.6685 H   0  0  0  0  0  0  0  0  0  0  0  0
   -1.4770   19.0025  -28.5258 H   0  0  0  0  0  0  0  0  0  0  0  0
    0.2047   18.3710  -28.5258 H   0  0  0  0  0  0  0  0  0  0  0  0
   -0.8899   21.5430  -28.5727 H   0  0  0  0  0  0  0  0  0  0  0  0
    0.7528   21.8028  -29.2518 H   0  0  0  0  0  0  0  0  0  0  0  0
   -1.9344   22.2423  -30.4888 H   0  0  0  0  0  0  0  0  0  0  0  0
   -0.3684   23.0745  -30.7901 H   0  0  0  0  0  0  0  0  0  0  0  0
    0.0400   20.5330  -31.6460 H   0  0  0  0  0  0  0  0  0  0  0  0
   -1.5347   19.7726  -32.9702 H   0  0  0  0  0  0  0  0  0  0  0  0
   -2.3484   19.1612  -30.8862 H   0  0  0  0  0  0  0  0  0  0  0  0
   -2.9249   20.8172  -30.5019 H   0  0  0  0  0  0  0  0  0  0  0  0
   -4.0164   19.0923  -32.7864 H   0  0  0  0  0  0  0  0  0  0  0  0
   -4.7693   19.2241  -31.1523 H   0  0  0  0  0  0  0  0  0  0  0  0
   -6.1551   21.2903  -33.9280 H   0  0  0  0  0  0  0  0  0  0  0  0
   -5.2045   19.1363  -35.2871 H   0  0  0  0  0  0  0  0  0  0  0  0
   -5.8052   16.6036  -35.4035 H   0  0  0  0  0  0  0  0  0  0  0  0
   -7.2260   15.7850  -33.3416 H   0  0  0  0  0  0  0  0  0  0  0  0
  -10.3390   21.2680  -31.2870 H   0  0  0  0  0  0  0  0  0  0  0  0
   -6.6459   24.6380  -32.1113 H   0  0  0  0  0  0  0  0  0  0  0  0
   -4.7323   26.0096  -31.2781 H   0  0  0  0  0  0  0  0  0  0  0  0
   -5.6026   21.4864  -29.3224 H   0  0  0  0  0  0  0  0  0  0  0  0
   -1.8782   23.1084  -27.0418 H   0  0  0  0  0  0  0  0  0  0  0  0
   -1.4781   23.0664  -28.7983 H   0  0  0  0  0  0  0  0  0  0  0  0
   -2.9606   25.2624  -27.2638 H   0  0  0  0  0  0  0  0  0  0  0  0
   -1.3755   25.3776  -28.1132 H   0  0  0  0  0  0  0  0  0  0  0  0
   -4.5437   22.4787  -33.7715 H   0  0  0  0  0  0  0  0  0  0  0  0
   -3.8122   22.7713  -32.1167 H   0  0  0  0  0  0  0  0  0  0  0  0
   -2.7774   20.9800  -34.3402 H   0  0  0  0  0  0  0  0  0  0  0  0
   -2.0061   22.4461  -33.5602 H   0  0  0  0  0  0  0  0  0  0  0  0
  1  2  1  0
  2  3  1  0
  3  4  1  0
  4  5  1  0
  5  6  1  0
  6  7  1  0
  7  8  1  0
  8  9  1  0
  9 10  1  0
 10 11  1  0
 11 12  2  0
 12 13  1  0
 13 14  2  0
 14 15  1  0
 10 16  1  0
 16 17  2  0
 17 18  1  0
 18 19  2  0
 19 20  1  0
 20 21  1  0
 21 22  2  0
 22 23  1  0
 23 24  2  0
 24 25  1  0
 25 26  2  0
 25 27  1  0
 27 28  1  0
 28 29  1  0
 29 30  1  0
  9 31  1  0
 31 32  1  0
 32  6  1  0
 15 11  1  0
 20 16  1  0
 26 21  1  0
 30 24  1  0
  1 33  1  0
  1 34  1  0
  1 35  1  0
  3 36  1  0
  3 37  1  0
  4 38  1  0
  4 39  1  0
  5 40  1  0
  6 41  1  0
  7 42  1  0
  7 43  1  0
  8 44  1  0
  8 45  1  0
 10 46  1  6
 12 47  1  0
 13 48  1  0
 14 49  1  0
 18 50  1  0
 22 51  1  0
 23 52  1  0
 26 53  1  0
 28 54  1  0
 28 55  1  0
 29 56  1  0
 29 57  1  0
 31 58  1  0
 31 59  1  0
 32 60  1  0
 32 61  1  0
M  CHG  1  18   1
M  END
>  <UniqueID>  (33) 
32

>  <SMILES>  (33) 
COCCNC1CCN([C@@H](c2cccs2)c2n[nH+]nn2-c2ccc3c(c2)OCCO3)CC1

>  <Energy>  (33) 
152.14559529704545

>  <Genealogy>  (33) 
COCCNC1CCN(C(c2cccs2)c2n[nH+]nn2-c2ccc3c(c2)OCCO3)CC1 (protonated)
COCCNC1CCN([C@@H](c2cccs2)c2n[nH+]nn2-c2ccc3c(c2)OCCO3)CC1 (chirality)
COCCNC1CCN([C@@H](c2cccs2)c2n[nH+]nn2-c2ccc3c(c2)OCCO3)CC1 (3D coordinates assigned)
COCCNC1CCN([C@@H](c2cccs2)c2n[nH+]nn2-c2ccc3c(c2)OCCO3)CC1 (nonaromatic ring conformer: 152.14559529704545 kcal/mol)

>  <smiles>  (33) 
COCCNC1CCN(C(c2cccs2)c2nnnn2-c2ccc3c(c2)OCCO3)CC1

>  <score_type>  (33) 
oracle

>  <origin>  (33) 
adg

>  <m_score__min__energy>  (33) 
-9.3699999999999992

>  <m_primary>  (33) 
energy

$$$$
33:0
     RDKit          3D

 46 48  0  0  0  0  0  0  0  0999 V2000
   -6.1050   25.2460  -29.9200 C   0  0  0  0  0  0  0  0  0  0  0  0
   -4.8680   24.4930  -30.4030 C   0  0  0  0  0  0  0  0  0  0  0  0
   -5.2130   23.5640  -31.4920 N   0  0  0  0  0  0  0  0  0  0  0  0
   -6.4620   23.7510  -32.2380 C   0  0  0  0  0  0  0  0  0  0  0  0
   -4.3570   22.4420  -31.8080 C   0  0  0  0  0  0  0  0  0  0  0  0
   -2.9870   22.4470  -31.4250 C   0  0  0  0  0  0  0  0  0  0  0  0
   -2.1550   21.3490  -31.7110 C   0  0  0  0  0  0  0  0  0  0  0  0
   -2.7170   20.2680  -32.3800 C   0  0  0  0  0  0  0  0  0  0  0  0
   -2.1300   19.1110  -32.7200 N   0  0  0  0  0  0  0  0  0  0  0  0
   -3.1180   18.3890  -33.3090 C   0  0  0  0  0  0  0  0  0  0  0  0
   -2.9000   16.9980  -33.8390 C   0  0  0  0  0  0  0  0  0  0  0  0
   -3.7950   16.1240  -33.2540 F   0  0  0  0  0  0  0  0  0  0  0  0
   -3.0640   16.9910  -35.2100 F   0  0  0  0  0  0  0  0  0  0  0  0
   -1.6170   16.5670  -33.5490 F   0  0  0  0  0  0  0  0  0  0  0  0
   -4.3000   19.0710  -33.3510 N   0  0  0  0  0  0  0  0  0  0  0  0
   -5.8650   18.5490  -33.9140 S   0  0  0  0  0  0  0  0  0  0  0  0
   -6.5230   19.6750  -34.6610 O   0  0  0  0  0  0  0  0  0  0  0  0
   -5.7420   17.3760  -34.8430 O   0  0  0  0  0  0  0  0  0  0  0  0
   -6.8840   18.0840  -32.5230 C   0  0  0  0  0  0  0  0  0  0  0  0
   -7.7730   19.2260  -32.1210 C   0  0  0  0  0  0  0  0  0  0  0  0
   -9.0570   19.3560  -32.6780 C   0  0  0  0  0  0  0  0  0  0  0  0
   -9.8610   20.4500  -32.3430 C   0  0  0  0  0  0  0  0  0  0  0  0
   -9.3910   21.4190  -31.4530 C   0  0  0  0  0  0  0  0  0  0  0  0
   -8.1150   21.2980  -30.8970 C   0  0  0  0  0  0  0  0  0  0  0  0
   -7.3050   20.2080  -31.2320 C   0  0  0  0  0  0  0  0  0  0  0  0
   -4.0250   20.2500  -32.7600 C   0  0  0  0  0  0  0  0  0  0  0  0
   -4.8810   21.3210  -32.4930 C   0  0  0  0  0  0  0  0  0  0  0  0
   -6.1218   25.2562  -28.8202 H   0  0  0  0  0  0  0  0  0  0  0  0
   -6.0752   26.2794  -30.2959 H   0  0  0  0  0  0  0  0  0  0  0  0
   -7.0093   24.7450  -30.2959 H   0  0  0  0  0  0  0  0  0  0  0  0
   -4.1250   25.2171  -30.7686 H   0  0  0  0  0  0  0  0  0  0  0  0
   -4.4574   23.9140  -29.5627 H   0  0  0  0  0  0  0  0  0  0  0  0
   -7.2959   23.8758  -31.5315 H   0  0  0  0  0  0  0  0  0  0  0  0
   -6.3804   24.6469  -32.8710 H   0  0  0  0  0  0  0  0  0  0  0  0
   -6.6464   22.8705  -32.8710 H   0  0  0  0  0  0  0  0  0  0  0  0
   -2.5731   23.3199  -30.8989 H   0  0  0  0  0  0  0  0  0  0  0  0
   -1.0955   21.3462  -31.4151 H   0  0  0  0  0  0  0  0  0  0  0  0
   -1.1390   18.8310  -32.5500 H   0  0  0  0  0  0  0  0  0  0  0  0
   -7.5063   17.2209  -32.8019 H   0  0  0  0  0  0  0  0  0  0  0  0
   -6.2335   17.8224  -31.6754 H   0  0  0  0  0  0  0  0  0  0  0  0
   -9.4303   18.5952  -33.3793 H   0  0  0  0  0  0  0  0  0  0  0  0
  -10.8653   20.5478  -32.7810 H   0  0  0  0  0  0  0  0  0  0  0  0
  -10.0260   22.2778  -31.1899 H   0  0  0  0  0  0  0  0  0  0  0  0
   -7.7470   22.0608  -30.1950 H   0  0  0  0  0  0  0  0  0  0  0  0
   -6.2982   20.1194  -30.7979 H   0  0  0  0  0  0  0  0  0  0  0  0
   -5.9348   21.2933  -32.8072 H   0  0  0  0  0  0  0  0  0  0  0  0
  1  2  1  0
  2  3  1  0
  3  4  1  0
  3  5  1  0
  5  6  2  0
  6  7  1  0
  7  8  2  0
  8  9  1  0
  9 10  2  0
 10 11  1  0
 11 12  1  0
 11 13  1  0
 11 14  1  0
 10 15  1  0
 15 16  1  0
 16 17  2  0
 16 18  2  0
 16 19  1  0
 19 20  1  0
 20 21  2  0
 21 22  1  0
 22 23  2  0
 23 24  1  0
 24 25  2  0
 15 26  1  0
 26 27  2  0
 27  5  1  0
 26  8  1  0
 25 20  1  0
  1 28  1  0
  1 29  1  0
  1 30  1  0
  2 31  1  0
  2 32  1  0
  4 33  1  0
  4 34  1  0
  4 35  1  0
  6 36  1  0
  7 37  1  0
  9 38  1  0
 19 39  1  0
 19 40  1  0
 21 41  1  0
 22 42  1  0
 23 43  1  0
 24 44  1  0
 25 45  1  0
 27 46  1  0
M  CHG  1   9   1
M  END
>  <UniqueID>  (34) 
33

>  <SMILES>  (34) 
CCN(C)c1ccc2[nH+]c(C(F)(F)F)n(S(=O)(=O)Cc3ccccc3)c2c1

>  <Energy>  (34) 
81.5185540625074

>  <Genealogy>  (34) 
CCN(C)c1ccc2[nH+]c(C(F)(F)F)n(S(=O)(=O)Cc3ccccc3)c2c1 (protonated)
CCN(C)c1ccc2[nH+]c(C(F)(F)F)n(S(=O)(=O)Cc3ccccc3)c2c1 (3D coordinates assigned)
CCN(C)c1ccc2[nH+]c(C(F)(F)F)n(S(=O)(=O)Cc3ccccc3)c2c1 (optimized conformer: 81.5185540625074 kcal/mol)

>  <smiles>  (34) 
CCN(C)c1ccc2nc(C(F)(F)F)n(S(=O)(=O)Cc3ccccc3)c2c1

>  <score_type>  (34) 
oracle

>  <origin>  (34) 
adg

>  <m_score__min__energy>  (34) 
-7.4299999999999997

>  <m_primary>  (34) 
energy

$$$$
34:0
     RDKit          3D

 33 35  0  0  0  0  0  0  0  0999 V2000
   -2.9980   16.3850  -34.9830 C   0  0  0  0  0  0  0  0  0  0  0  0
   -4.2460   17.0670  -34.9180 O   0  0  0  0  0  0  0  0  0  0  0  0
   -4.4840   18.2180  -34.1480 C   0  0  0  0  0  0  0  0  0  0  0  0
   -3.5570   19.2750  -34.0760 C   0  0  0  0  0  0  0  0  0  0  0  0
   -3.8310   20.4030  -33.2990 C   0  0  0  0  0  0  0  0  0  0  0  0
   -5.0320   20.5000  -32.5820 C   0  0  0  0  0  0  0  0  0  0  0  0
   -5.3100   21.6650  -31.7820 N   0  0  0  0  0  0  0  0  0  0  0  0
   -4.4210   22.4630  -31.1340 C   0  0  0  0  0  0  0  0  0  0  0  0
   -3.0420   22.2750  -31.1100 O   0  0  0  0  0  0  0  0  0  0  0  0
   -5.1190   23.4860  -30.5270 C   0  0  0  0  0  0  0  0  0  0  0  0
   -6.3970   23.3440  -30.7880 N   0  0  0  0  0  0  0  0  0  0  0  0
   -6.5150   22.2570  -31.5690 C   0  0  0  0  0  0  0  0  0  0  0  0
   -7.5990   21.8820  -32.0910 O   0  0  0  0  0  0  0  0  0  0  0  0
   -7.2030   24.4850  -30.4330 C   0  0  0  0  0  0  0  0  0  0  0  0
   -6.1880   25.4290  -29.7310 C   0  0  0  0  0  0  0  0  0  0  0  0
   -4.7780   24.7740  -29.8840 C   0  0  2  0  0  0  0  0  0  0  0  0
   -3.9260   25.5430  -30.6950 O   0  0  0  0  0  0  0  0  0  0  0  0
   -5.9550   19.4440  -32.6520 C   0  0  0  0  0  0  0  0  0  0  0  0
   -5.6840   18.3120  -33.4280 C   0  0  0  0  0  0  0  0  0  0  0  0
   -6.8620   17.0100  -33.4850 Cl  0  0  0  0  0  0  0  0  0  0  0  0
   -2.6350   16.1866  -33.9637 H   0  0  0  0  0  0  0  0  0  0  0  0
   -3.1281   15.4326  -35.5177 H   0  0  0  0  0  0  0  0  0  0  0  0
   -2.2667   17.0088  -35.5177 H   0  0  0  0  0  0  0  0  0  0  0  0
   -2.6116   19.2123  -34.6348 H   0  0  0  0  0  0  0  0  0  0  0  0
   -3.0984   21.2220  -33.2492 H   0  0  0  0  0  0  0  0  0  0  0  0
   -2.6140   21.6580  -30.4310 H   0  0  0  0  0  0  0  0  0  0  0  0
   -7.6304   24.9604  -31.3282 H   0  0  0  0  0  0  0  0  0  0  0  0
   -8.0631   24.2260  -29.7980 H   0  0  0  0  0  0  0  0  0  0  0  0
   -6.1990   26.4193  -30.2097 H   0  0  0  0  0  0  0  0  0  0  0  0
   -6.4457   25.5653  -28.6703 H   0  0  0  0  0  0  0  0  0  0  0  0
   -4.2309   24.6744  -28.9349 H   0  0  0  0  0  0  0  0  0  0  0  0
   -3.4900   24.9320  -31.3470 H   0  0  0  0  0  0  0  0  0  0  0  0
   -6.8995   19.5075  -32.0917 H   0  0  0  0  0  0  0  0  0  0  0  0
  1  2  1  0
  2  3  1  0
  3  4  2  0
  4  5  1  0
  5  6  2  0
  6  7  1  0
  7  8  1  0
  8  9  1  0
  8 10  2  0
 10 11  1  0
 11 12  1  0
 12 13  2  0
 11 14  1  0
 14 15  1  0
 15 16  1  0
 16 17  1  0
  6 18  1  0
 18 19  2  0
 19 20  1  0
 19  3  1  0
 12  7  1  0
 16 10  1  0
  1 21  1  0
  1 22  1  0
  1 23  1  0
  4 24  1  0
  5 25  1  0
  9 26  1  0
 14 27  1  0
 14 28  1  0
 15 29  1  0
 15 30  1  0
 16 31  1  1
 17 32  1  0
 18 33  1  0
M  END
>  <UniqueID>  (35) 
34

>  <SMILES>  (35) 
COc1ccc(-n2c(O)c3n(c2=O)CC[C@@H]3O)cc1Cl

>  <Energy>  (35) 
96.43568392289923

>  <Genealogy>  (35) 
COc1ccc(-n2c(O)c3n(c2=O)CC[C@@H]3O)cc1Cl (chirality)
COc1ccc(-n2c(O)c3n(c2=O)CC[C@@H]3O)cc1Cl (3D coordinates assigned)
COc1ccc(-n2c(O)c3n(c2=O)CC[C@@H]3O)cc1Cl (nonaromatic ring conformer: 96.43568392289923 kcal/mol)

>  <smiles>  (35) 
COc1ccc(-n2c(O)c3n(c2=O)CCC3O)cc1Cl

>  <score_type>  (35) 
oracle

>  <origin>  (35) 
adg

>  <m_score__min__energy>  (35) 
-7.0700000000000003

>  <m_primary>  (35) 
energy

$$$$
35:0
     RDKit          3D

 52 55  0  0  0  0  0  0  0  0999 V2000
   -4.9170   24.9540  -30.1010 C   0  0  0  0  0  0  0  0  0  0  0  0
   -3.4970   24.9370  -30.4580 N   0  0  0  0  0  0  0  0  0  0  0  0
   -2.5510   24.6260  -29.0330 S   0  0  0  0  0  0  0  0  0  0  0  0
   -3.4390   24.8730  -27.8450 O   0  0  0  0  0  0  0  0  0  0  0  0
   -1.4090   25.5870  -28.9330 O   0  0  0  0  0  0  0  0  0  0  0  0
   -2.0310   22.9100  -29.0330 C   0  0  0  0  0  0  0  0  0  0  0  0
   -1.0030   22.5900  -28.1210 C   0  0  0  0  0  0  0  0  0  0  0  0
   -0.6880   21.2700  -27.8140 C   0  0  0  0  0  0  0  0  0  0  0  0
   -1.4710   20.2350  -28.3240 C   0  0  0  0  0  0  0  0  0  0  0  0
   -2.3880   20.5050  -29.3300 C   0  0  0  0  0  0  0  0  0  0  0  0
   -2.6380   21.8300  -29.7650 C   0  0  0  0  0  0  0  0  0  0  0  0
   -3.5180   21.9190  -31.0120 C   0  0  0  0  0  0  0  0  0  0  0  0
   -3.0870   21.1110  -32.1670 N   0  0  0  0  0  0  0  0  0  0  0  0
   -1.6670   21.0690  -32.4760 C   0  0  0  0  0  0  0  0  0  0  0  0
   -0.8830   21.8960  -31.9350 O   0  0  0  0  0  0  0  0  0  0  0  0
   -1.1300   20.1070  -33.3850 N   0  0  0  0  0  0  0  0  0  0  0  0
    0.1150   20.3360  -34.0660 C   0  0  0  0  0  0  0  0  0  0  0  0
    1.1290   19.3640  -34.0410 C   0  0  0  0  0  0  0  0  0  0  0  0
    2.3430   19.6060  -34.6910 C   0  0  0  0  0  0  0  0  0  0  0  0
    2.5720   20.8390  -35.3190 C   0  0  0  0  0  0  0  0  0  0  0  0
    1.5780   21.8320  -35.3220 C   0  0  0  0  0  0  0  0  0  0  0  0
    1.8420   23.1750  -35.9530 C   0  0  0  0  0  0  0  0  0  0  0  0
    2.9290   23.0720  -36.8030 F   0  0  0  0  0  0  0  0  0  0  0  0
    2.1260   24.1250  -34.9900 F   0  0  0  0  0  0  0  0  0  0  0  0
    0.7480   23.6020  -36.6770 F   0  0  0  0  0  0  0  0  0  0  0  0
    0.3520   21.5740  -34.6790 C   0  0  0  0  0  0  0  0  0  0  0  0
   -1.9860   18.6300  -33.6000 S   0  0  0  0  0  0  0  0  0  0  0  0
   -1.6730   18.0300  -34.9460 O   0  0  0  0  0  0  0  0  0  0  0  0
   -1.6550   17.6560  -32.5070 O   0  0  0  0  0  0  0  0  0  0  0  0
   -3.6710   19.0640  -33.5090 C   0  0  0  0  0  0  0  0  0  0  0  0
   -4.6270   18.2740  -34.1660 C   0  0  0  0  0  0  0  0  0  0  0  0
   -5.9780   18.6110  -34.1170 C   0  0  0  0  0  0  0  0  0  0  0  0
   -6.3720   19.7880  -33.4840 C   0  0  0  0  0  0  0  0  0  0  0  0
   -5.4240   20.6110  -32.8740 C   0  0  0  0  0  0  0  0  0  0  0  0
   -4.0590   20.2510  -32.8430 C   0  0  0  0  0  0  0  0  0  0  0  0
   -5.0197   24.9552  -29.0058 H   0  0  0  0  0  0  0  0  0  0  0  0
   -5.3882   25.8579  -30.5145 H   0  0  0  0  0  0  0  0  0  0  0  0
   -5.4097   24.0617  -30.5145 H   0  0  0  0  0  0  0  0  0  0  0  0
   -0.4376   23.4028  -27.6417 H   0  0  0  0  0  0  0  0  0  0  0  0
    0.1756   21.0437  -27.1713 H   0  0  0  0  0  0  0  0  0  0  0  0
   -1.3627   19.2129  -27.9321 H   0  0  0  0  0  0  0  0  0  0  0  0
   -2.9324   19.6725  -29.7997 H   0  0  0  0  0  0  0  0  0  0  0  0
   -4.5309   21.5933  -30.7328 H   0  0  0  0  0  0  0  0  0  0  0  0
   -3.4567   22.9660  -31.3436 H   0  0  0  0  0  0  0  0  0  0  0  0
    0.9681   18.4138  -33.5107 H   0  0  0  0  0  0  0  0  0  0  0  0
    3.1201   18.8277  -34.7099 H   0  0  0  0  0  0  0  0  0  0  0  0
    3.5364   21.0299  -35.8125 H   0  0  0  0  0  0  0  0  0  0  0  0
   -0.4265   22.3509  -34.6576 H   0  0  0  0  0  0  0  0  0  0  0  0
   -4.3071   17.3817  -34.7241 H   0  0  0  0  0  0  0  0  0  0  0  0
   -6.7295   17.9514  -34.5756 H   0  0  0  0  0  0  0  0  0  0  0  0
   -7.4351   20.0699  -33.4649 H   0  0  0  0  0  0  0  0  0  0  0  0
   -5.7454   21.5551  -32.4100 H   0  0  0  0  0  0  0  0  0  0  0  0
  1  2  1  0
  2  3  1  0
  3  4  2  0
  3  5  2  0
  3  6  1  0
  6  7  2  0
  7  8  1  0
  8  9  2  0
  9 10  1  0
 10 11  2  0
 11 12  1  0
 12 13  1  0
 13 14  1  0
 14 15  2  0
 14 16  1  0
 16 17  1  0
 17 18  2  0
 18 19  1  0
 19 20  2  0
 20 21  1  0
 21 22  1  0
 22 23  1  0
 22 24  1  0
 22 25  1  0
 21 26  2  0
 16 27  1  0
 27 28  2  0
 27 29  2  0
 27 30  1  0
 30 31  2  0
 31 32  1  0
 32 33  2  0
 33 34  1  0
 34 35  2  0
 11  6  1  0
 35 13  1  0
 26 17  1  0
 35 30  1  0
  1 36  1  0
  1 37  1  0
  1 38  1  0
  7 39  1  0
  8 40  1  0
  9 41  1  0
 10 42  1  0
 12 43  1  0
 12 44  1  0
 18 45  1  0
 19 46  1  0
 20 47  1  0
 26 48  1  0
 31 49  1  0
 32 50  1  0
 33 51  1  0
 34 52  1  0
M  CHG  1   2  -1
M  END
>  <UniqueID>  (36) 
35

>  <SMILES>  (36) 
C[N-]S(=O)(=O)c1ccccc1CN1C(=O)N(c2cccc(C(F)(F)F)c2)S(=O)(=O)c2ccccc21

>  <Energy>  (36) 
91.28326070858675

>  <Genealogy>  (36) 
C[N-]S(=O)(=O)c1ccccc1CN1C(=O)N(c2cccc(C(F)(F)F)c2)S(=O)(=O)c2ccccc21 (protonated)
C[N-]S(=O)(=O)c1ccccc1CN1C(=O)N(c2cccc(C(F)(F)F)c2)S(=O)(=O)c2ccccc21 (3D coordinates assigned)
C[N-]S(=O)(=O)c1ccccc1CN1C(=O)N(c2cccc(C(F)(F)F)c2)S(=O)(=O)c2ccccc21 (nonaromatic ring conformer: 91.28326070858675 kcal/mol)

>  <smiles>  (36) 
CNS(=O)(=O)c1ccccc1CN1C(=O)N(c2cccc(C(F)(F)F)c2)S(=O)(=O)c2ccccc21

>  <score_type>  (36) 
oracle

>  <origin>  (36) 
adg

>  <m_score__min__energy>  (36) 
-10.76

>  <m_primary>  (36) 
energy

$$$$
36:0
     RDKit          3D

 53 55  0  0  0  0  0  0  0  0999 V2000
   -6.0840   18.9130  -34.9000 C   0  0  0  0  0  0  0  0  0  0  0  0
   -5.9440   19.0910  -33.4520 N   0  0  0  0  0  0  0  0  0  0  0  0
   -4.8280   18.5320  -32.7260 C   0  0  0  0  0  0  0  0  0  0  0  0
   -5.0000   17.5190  -31.9930 O   0  0  0  0  0  0  0  0  0  0  0  0
   -3.4600   19.1420  -32.7980 C   0  0  0  0  0  0  0  0  0  0  0  0
   -3.5690   20.5040  -33.1980 O   0  0  0  0  0  0  0  0  0  0  0  0
   -3.0470   21.5570  -32.4420 C   0  0  0  0  0  0  0  0  0  0  0  0
   -3.6660   22.6540  -32.3550 O   0  0  0  0  0  0  0  0  0  0  0  0
   -1.7520   21.3710  -31.7190 C   0  0  0  0  0  0  0  0  0  0  0  0
   -1.9100   21.7080  -30.2580 C   0  0  0  0  0  0  0  0  0  0  0  0
   -2.5930   20.8310  -29.3970 C   0  0  0  0  0  0  0  0  0  0  0  0
   -2.7180   21.1350  -28.0370 C   0  0  0  0  0  0  0  0  0  0  0  0
   -2.1560   22.3090  -27.5260 C   0  0  0  0  0  0  0  0  0  0  0  0
   -1.4670   23.1830  -28.3750 C   0  0  0  0  0  0  0  0  0  0  0  0
   -1.3380   22.8830  -29.7350 C   0  0  0  0  0  0  0  0  0  0  0  0
   -6.9850   19.7790  -32.7350 C   0  0  0  0  0  0  0  0  0  0  0  0
   -6.9380   21.1720  -32.5390 C   0  0  0  0  0  0  0  0  0  0  0  0
   -5.8350   21.9170  -33.0930 N   0  0  0  0  0  0  0  0  0  0  0  0
   -7.9490   21.8000  -31.8370 N   0  0  0  0  0  0  0  0  0  0  0  0
   -7.9230   23.2630  -31.6100 C   0  0  0  0  0  0  0  0  0  0  0  0
   -6.6750   23.6820  -30.8680 C   0  0  0  0  0  0  0  0  0  0  0  0
   -6.1670   22.8980  -29.8150 C   0  0  0  0  0  0  0  0  0  0  0  0
   -5.0260   23.3070  -29.1160 C   0  0  0  0  0  0  0  0  0  0  0  0
   -4.3950   24.5100  -29.4470 C   0  0  0  0  0  0  0  0  0  0  0  0
   -4.9070   25.3070  -30.4740 C   0  0  0  0  0  0  0  0  0  0  0  0
   -6.0450   24.9000  -31.1790 C   0  0  0  0  0  0  0  0  0  0  0  0
   -8.9930   21.0530  -31.3380 C   0  0  0  0  0  0  0  0  0  0  0  0
   -9.9250   21.6010  -30.6860 O   0  0  0  0  0  0  0  0  0  0  0  0
   -9.0390   19.7080  -31.5350 N   0  0  0  0  0  0  0  0  0  0  0  0
   -8.0640   19.0620  -32.2170 C   0  0  0  0  0  0  0  0  0  0  0  0
   -8.1330   17.8130  -32.3770 O   0  0  0  0  0  0  0  0  0  0  0  0
   -6.7525   18.0631  -35.1020 H   0  0  0  0  0  0  0  0  0  0  0  0
   -6.5083   19.8264  -35.3424 H   0  0  0  0  0  0  0  0  0  0  0  0
   -5.0964   18.7159  -35.3424 H   0  0  0  0  0  0  0  0  0  0  0  0
   -2.9815   19.0873  -31.8091 H   0  0  0  0  0  0  0  0  0  0  0  0
   -2.8510   18.5920  -33.5305 H   0  0  0  0  0  0  0  0  0  0  0  0
   -1.4303   20.3236  -31.8162 H   0  0  0  0  0  0  0  0  0  0  0  0
   -0.9991   22.0413  -32.1594 H   0  0  0  0  0  0  0  0  0  0  0  0
   -3.0304   19.9030  -29.7938 H   0  0  0  0  0  0  0  0  0  0  0  0
   -3.2593   20.4493  -27.3686 H   0  0  0  0  0  0  0  0  0  0  0  0
   -2.2554   22.5458  -26.4564 H   0  0  0  0  0  0  0  0  0  0  0  0
   -1.0265   24.1069  -27.9721 H   0  0  0  0  0  0  0  0  0  0  0  0
   -0.7880   23.5672  -30.3978 H   0  0  0  0  0  0  0  0  0  0  0  0
   -5.7860   22.9560  -33.0050 H   0  0  0  0  0  0  0  0  0  0  0  0
   -5.0390   21.4690  -33.5910 H   0  0  0  0  0  0  0  0  0  0  0  0
   -7.9513   23.7769  -32.5822 H   0  0  0  0  0  0  0  0  0  0  0  0
   -8.7971   23.5350  -31.0001 H   0  0  0  0  0  0  0  0  0  0  0  0
   -6.6697   21.9589  -29.5402 H   0  0  0  0  0  0  0  0  0  0  0  0
   -4.6249   22.6813  -28.3050 H   0  0  0  0  0  0  0  0  0  0  0  0
   -3.4960   24.8288  -28.8992 H   0  0  0  0  0  0  0  0  0  0  0  0
   -4.4142   26.2568  -30.7289 H   0  0  0  0  0  0  0  0  0  0  0  0
   -6.4488   25.5360  -31.9805 H   0  0  0  0  0  0  0  0  0  0  0  0
   -9.8420   19.1610  -31.1490 H   0  0  0  0  0  0  0  0  0  0  0  0
  1  2  1  0
  2  3  1  0
  3  4  2  0
  3  5  1  0
  5  6  1  0
  6  7  1  0
  7  8  2  0
  7  9  1  0
  9 10  1  0
 10 11  2  0
 11 12  1  0
 12 13  2  0
 13 14  1  0
 14 15  2  0
  2 16  1  0
 16 17  2  0
 17 18  1  0
 17 19  1  0
 19 20  1  0
 20 21  1  0
 21 22  2  0
 22 23  1  0
 23 24  2  0
 24 25  1  0
 25 26  2  0
 19 27  1  0
 27 28  2  0
 27 29  1  0
 29 30  1  0
 30 31  2  0
 15 10  1  0
 30 16  1  0
 26 21  1  0
  1 32  1  0
  1 33  1  0
  1 34  1  0
  5 35  1  0
  5 36  1  0
  9 37  1  0
  9 38  1  0
 11 39  1  0
 12 40  1  0
 13 41  1  0
 14 42  1  0
 15 43  1  0
 18 44  1  0
 18 45  1  0
 20 46  1  0
 20 47  1  0
 22 48  1  0
 23 49  1  0
 24 50  1  0
 25 51  1  0
 26 52  1  0
 29 53  1  0
M  END
>  <UniqueID>  (37) 
36

>  <SMILES>  (37) 
CN(C(=O)COC(=O)Cc1ccccc1)c1c(N)n(Cc2ccccc2)c(=O)[nH]c1=O

>  <Energy>  (37) 
63.90056442230542

>  <Genealogy>  (37) 
CN(C(=O)COC(=O)Cc1ccccc1)c1c(N)n(Cc2ccccc2)c(=O)[nH]c1=O (3D coordinates assigned)
CN(C(=O)COC(=O)Cc1ccccc1)c1c(N)n(Cc2ccccc2)c(=O)[nH]c1=O (optimized conformer: 63.90056442230542 kcal/mol)

>  <smiles>  (37) 
CN(C(=O)COC(=O)Cc1ccccc1)c1c(N)n(Cc2ccccc2)c(=O)[nH]c1=O

>  <score_type>  (37) 
oracle

>  <origin>  (37) 
adg

>  <m_score__min__energy>  (37) 
-9.3699999999999992

>  <m_primary>  (37) 
energy

$$$$
37:0
     RDKit          3D

 34 35  0  0  0  0  0  0  0  0999 V2000
   -6.1100   25.6600  -30.4060 C   0  0  0  0  0  0  0  0  0  0  0  0
   -5.3950   24.8100  -31.2680 O   0  0  0  0  0  0  0  0  0  0  0  0
   -4.2230   23.9880  -30.3590 S   0  0  0  0  0  0  0  0  0  0  0  0
   -4.8540   23.4370  -29.1100 O   0  0  0  0  0  0  0  0  0  0  0  0
   -3.1010   24.9230  -29.9990 O   0  0  0  0  0  0  0  0  0  0  0  0
   -3.5690   22.6520  -31.3140 C   0  0  0  0  0  0  0  0  0  0  0  0
   -2.2900   22.1590  -31.0130 C   0  0  0  0  0  0  0  0  0  0  0  0
   -1.7360   21.1220  -31.7660 C   0  0  0  0  0  0  0  0  0  0  0  0
   -2.4540   20.5640  -32.8240 C   0  0  0  0  0  0  0  0  0  0  0  0
   -3.7280   21.0410  -33.1310 C   0  0  0  0  0  0  0  0  0  0  0  0
   -4.2980   22.0920  -32.3880 C   0  0  0  0  0  0  0  0  0  0  0  0
   -5.6300   22.5440  -32.6890 N   0  0  0  0  0  0  0  0  0  0  0  0
   -6.8190   21.8070  -32.3580 C   0  0  0  0  0  0  0  0  0  0  0  0
   -6.8100   20.4070  -32.4640 C   0  0  0  0  0  0  0  0  0  0  0  0
   -7.9470   19.6570  -32.1280 C   0  0  0  0  0  0  0  0  0  0  0  0
   -7.9450   18.1660  -32.2950 C   0  0  0  0  0  0  0  0  0  0  0  0
   -9.1070   20.3180  -31.6980 C   0  0  0  0  0  0  0  0  0  0  0  0
   -9.1160   21.7080  -31.5670 C   0  0  0  0  0  0  0  0  0  0  0  0
   -7.9780   22.4540  -31.8850 C   0  0  0  0  0  0  0  0  0  0  0  0
   -7.9980   23.7970  -31.6980 F   0  0  0  0  0  0  0  0  0  0  0  0
   -5.8872   25.3951  -29.3619 H   0  0  0  0  0  0  0  0  0  0  0  0
   -5.8138   26.7031  -30.5909 H   0  0  0  0  0  0  0  0  0  0  0  0
   -7.1884   25.5468  -30.5909 H   0  0  0  0  0  0  0  0  0  0  0  0
   -1.7200   22.5926  -30.1780 H   0  0  0  0  0  0  0  0  0  0  0  0
   -0.7315   20.7442  -31.5246 H   0  0  0  0  0  0  0  0  0  0  0  0
   -2.0151   19.7475  -33.4162 H   0  0  0  0  0  0  0  0  0  0  0  0
   -4.2926   20.5919  -33.9613 H   0  0  0  0  0  0  0  0  0  0  0  0
   -5.7460   23.5050  -33.0820 H   0  0  0  0  0  0  0  0  0  0  0  0
   -5.9025   19.8932  -32.8139 H   0  0  0  0  0  0  0  0  0  0  0  0
   -7.9444   17.6862  -31.3052 H   0  0  0  0  0  0  0  0  0  0  0  0
   -8.8427   17.8581  -32.8511 H   0  0  0  0  0  0  0  0  0  0  0  0
   -7.0464   17.8605  -32.8511 H   0  0  0  0  0  0  0  0  0  0  0  0
  -10.0126   19.7394  -31.4632 H   0  0  0  0  0  0  0  0  0  0  0  0
  -10.0234   22.2184  -31.2117 H   0  0  0  0  0  0  0  0  0  0  0  0
  1  2  1  0
  2  3  1  0
  3  4  2  0
  3  5  2  0
  3  6  1  0
  6  7  2  0
  7  8  1  0
  8  9  2  0
  9 10  1  0
 10 11  2  0
 11 12  1  0
 12 13  1  0
 13 14  2  0
 14 15  1  0
 15 16  1  0
 15 17  2  0
 17 18  1  0
 18 19  2  0
 19 20  1  0
 11  6  1  0
 19 13  1  0
  1 21  1  0
  1 22  1  0
  1 23  1  0
  7 24  1  0
  8 25  1  0
  9 26  1  0
 10 27  1  0
 12 28  1  0
 14 29  1  0
 16 30  1  0
 16 31  1  0
 16 32  1  0
 17 33  1  0
 18 34  1  0
M  END
>  <UniqueID>  (38) 
37

>  <SMILES>  (38) 
COS(=O)(=O)c1ccccc1Nc1cc(C)ccc1F

>  <Energy>  (38) 
43.30651361788501

>  <Genealogy>  (38) 
COS(=O)(=O)c1ccccc1Nc1cc(C)ccc1F (3D coordinates assigned)
COS(=O)(=O)c1ccccc1Nc1cc(C)ccc1F (optimized conformer: 43.30651361788501 kcal/mol)

>  <smiles>  (38) 
COS(=O)(=O)c1ccccc1Nc1cc(C)ccc1F

>  <score_type>  (38) 
oracle

>  <origin>  (38) 
adg

>  <m_score__min__energy>  (38) 
-7.9100000000000001

>  <m_primary>  (38) 
energy

$$$$
38:0
     RDKit          3D

 37 38  0  0  0  0  0  0  0  0999 V2000
   -3.7230   22.3480  -32.2470 C   0  0  0  0  0  0  0  0  0  0  0  0
   -5.1780   22.0150  -32.0420 C   0  0  0  0  0  0  0  0  0  0  0  0
   -5.5610   20.8520  -32.6170 N   0  0  0  0  0  0  0  0  0  0  0  0
   -6.7280   20.1910  -32.7790 C   0  0  0  0  0  0  0  0  0  0  0  0
   -6.6410   18.8760  -33.3520 N   0  0  0  0  0  0  0  0  0  0  0  0
   -5.5590   18.4350  -34.2180 C   0  0  0  0  0  0  0  0  0  0  0  0
   -5.8150   16.9410  -34.4870 C   0  0  0  0  0  0  0  0  0  0  0  0
   -6.8650   16.4750  -33.4680 C   0  0  0  0  0  0  0  0  0  0  0  0
   -7.3360   17.7390  -32.8690 C   0  0  0  0  0  0  0  0  0  0  0  0
   -8.2310   17.8020  -31.9850 O   0  0  0  0  0  0  0  0  0  0  0  0
   -8.0000   20.7420  -32.5500 C   0  0  0  0  0  0  0  0  0  0  0  0
   -9.1140   20.0850  -33.0920 O   0  0  0  0  0  0  0  0  0  0  0  0
   -8.2890   21.9000  -31.8230 C   0  0  0  0  0  0  0  0  0  0  0  0
   -9.5090   22.2070  -31.7170 O   0  0  0  0  0  0  0  0  0  0  0  0
   -7.3940   22.7380  -31.1570 C   0  0  0  0  0  0  0  0  0  0  0  0
   -5.9910   22.8000  -31.1890 C   0  0  0  0  0  0  0  0  0  0  0  0
   -5.3420   23.8810  -30.3040 C   0  0  0  0  0  0  0  0  0  0  0  0
   -4.8110   23.3130  -28.9780 C   0  0  0  0  0  0  0  0  0  0  0  0
   -6.3070   25.0490  -30.0590 C   0  0  0  0  0  0  0  0  0  0  0  0
   -3.2313   22.4605  -31.2694 H   0  0  0  0  0  0  0  0  0  0  0  0
   -3.2373   21.5378  -32.8106 H   0  0  0  0  0  0  0  0  0  0  0  0
   -3.6380   23.2888  -32.8106 H   0  0  0  0  0  0  0  0  0  0  0  0
   -5.5693   19.0007  -35.1613 H   0  0  0  0  0  0  0  0  0  0  0  0
   -4.5764   18.5984  -33.7513 H   0  0  0  0  0  0  0  0  0  0  0  0
   -6.1934   16.8008  -35.5103 H   0  0  0  0  0  0  0  0  0  0  0  0
   -4.8865   16.3595  -34.3879 H   0  0  0  0  0  0  0  0  0  0  0  0
   -7.6891   15.9430  -33.9658 H   0  0  0  0  0  0  0  0  0  0  0  0
   -6.4634   15.7689  -32.7263 H   0  0  0  0  0  0  0  0  0  0  0  0
   -9.0870   19.1450  -33.4660 H   0  0  0  0  0  0  0  0  0  0  0  0
   -7.8681   23.4763  -30.4935 H   0  0  0  0  0  0  0  0  0  0  0  0
   -4.4717   24.2642  -30.8570 H   0  0  0  0  0  0  0  0  0  0  0  0
   -5.2953   23.8310  -28.1371 H   0  0  0  0  0  0  0  0  0  0  0  0
   -5.0350   22.2374  -28.9240 H   0  0  0  0  0  0  0  0  0  0  0  0
   -3.7228   23.4641  -28.9240 H   0  0  0  0  0  0  0  0  0  0  0  0
   -6.4321   25.2004  -28.9767 H   0  0  0  0  0  0  0  0  0  0  0  0
   -5.8979   25.9639  -30.5124 H   0  0  0  0  0  0  0  0  0  0  0  0
   -7.2827   24.8198  -30.5124 H   0  0  0  0  0  0  0  0  0  0  0  0
  1  2  1  0
  2  3  2  0
  3  4  1  0
  4  5  1  0
  5  6  1  0
  6  7  1  0
  7  8  1  0
  8  9  1  0
  9 10  2  0
  4 11  2  0
 11 12  1  0
 11 13  1  0
 13 14  2  0
 13 15  1  0
 15 16  2  0
 16 17  1  0
 17 18  1  0
 17 19  1  0
 16  2  1  0
  9  5  1  0
  1 20  1  0
  1 21  1  0
  1 22  1  0
  6 23  1  0
  6 24  1  0
  7 25  1  0
  7 26  1  0
  8 27  1  0
  8 28  1  0
 12 29  1  0
 15 30  1  0
 17 31  1  0
 18 32  1  0
 18 33  1  0
 18 34  1  0
 19 35  1  0
 19 36  1  0
 19 37  1  0
M  END
>  <UniqueID>  (39) 
38

>  <SMILES>  (39) 
Cc1nc(N2CCCC2=O)c(O)c(=O)cc1C(C)C

>  <Energy>  (39) 
76.22557663278327

>  <Genealogy>  (39) 
Cc1nc(N2CCCC2=O)c(O)c(=O)cc1C(C)C (3D coordinates assigned)
Cc1nc(N2CCCC2=O)c(O)c(=O)cc1C(C)C (nonaromatic ring conformer: 76.22557663278327 kcal/mol)

>  <smiles>  (39) 
Cc1nc(N2CCCC2=O)c(O)c(=O)cc1C(C)C

>  <score_type>  (39) 
oracle

>  <origin>  (39) 
adg

>  <m_score__min__energy>  (39) 
-7.1699999999999999

>  <m_primary>  (39) 
energy

$$$$
39:0
     RDKit          3D

 62 66  0  0  0  0  0  0  0  0999 V2000
    1.1530   23.0040  -35.8120 C   0  0  0  0  0  0  0  0  0  0  0  0
    0.1830   22.3990  -34.9640 O   0  0  0  0  0  0  0  0  0  0  0  0
    0.2500   21.0770  -34.4990 C   0  0  0  0  0  0  0  0  0  0  0  0
    1.3750   20.5750  -33.8190 C   0  0  0  0  0  0  0  0  0  0  0  0
    1.3930   19.2530  -33.3740 C   0  0  0  0  0  0  0  0  0  0  0  0
    0.2970   18.4190  -33.6020 C   0  0  0  0  0  0  0  0  0  0  0  0
   -0.8370   18.8980  -34.2830 C   0  0  0  0  0  0  0  0  0  0  0  0
   -1.9640   18.0260  -34.5070 N   0  0  0  0  0  0  0  0  0  0  0  0
   -3.1900   18.0910  -33.9480 C   0  0  0  0  0  0  0  0  0  0  0  0
   -3.9110   17.0470  -34.4800 C   0  0  0  0  0  0  0  0  0  0  0  0
   -5.3510   16.7370  -34.2240 C   0  0  0  0  0  0  0  0  0  0  0  0
   -6.0130   17.8910  -33.5230 C   0  0  0  0  0  0  0  0  0  0  0  0
   -6.0980   19.1420  -34.1520 C   0  0  0  0  0  0  0  0  0  0  0  0
   -6.7050   20.2200  -33.5010 C   0  0  0  0  0  0  0  0  0  0  0  0
   -7.2230   20.0650  -32.2010 C   0  0  0  0  0  0  0  0  0  0  0  0
   -7.7670   21.1320  -31.4650 O   0  0  0  0  0  0  0  0  0  0  0  0
   -8.1470   22.4060  -31.9970 C   0  0  0  0  0  0  0  0  0  0  0  0
   -7.6060   23.5600  -31.1400 C   0  0  0  0  0  0  0  0  0  0  0  0
   -6.1050   23.5910  -31.1130 C   0  0  0  0  0  0  0  0  0  0  0  0
   -5.3240   22.5070  -31.2710 N   0  0  0  0  0  0  0  0  0  0  0  0
   -4.0720   22.9450  -31.0060 C   0  0  0  0  0  0  0  0  0  0  0  0
   -2.8620   22.0930  -30.9810 C   0  0  0  0  0  0  0  0  0  0  0  0
   -2.8760   20.7770  -31.4830 C   0  0  0  0  0  0  0  0  0  0  0  0
   -1.7230   19.9870  -31.4270 C   0  0  0  0  0  0  0  0  0  0  0  0
   -0.5470   20.4990  -30.8740 C   0  0  0  0  0  0  0  0  0  0  0  0
   -0.5210   21.8030  -30.3760 C   0  0  0  0  0  0  0  0  0  0  0  0
   -1.6710   22.5970  -30.4270 C   0  0  0  0  0  0  0  0  0  0  0  0
   -4.0580   24.2290  -30.7160 O   0  0  0  0  0  0  0  0  0  0  0  0
   -5.2960   24.6570  -30.7700 C   0  0  0  0  0  0  0  0  0  0  0  0
   -5.7190   26.0590  -30.4800 C   0  0  0  0  0  0  0  0  0  0  0  0
   -7.1900   18.8000  -31.6030 C   0  0  0  0  0  0  0  0  0  0  0  0
   -6.5880   17.7200  -32.2550 C   0  0  0  0  0  0  0  0  0  0  0  0
   -3.1290   16.3870  -35.3530 N   0  0  0  0  0  0  0  0  0  0  0  0
   -1.9540   16.9980  -35.3450 N   0  0  0  0  0  0  0  0  0  0  0  0
   -0.8470   20.2360  -34.7250 C   0  0  0  0  0  0  0  0  0  0  0  0
    1.9271   23.4868  -35.1975 H   0  0  0  0  0  0  0  0  0  0  0  0
    1.6161   22.2343  -36.4469 H   0  0  0  0  0  0  0  0  0  0  0  0
    0.6654   23.7584  -36.4469 H   0  0  0  0  0  0  0  0  0  0  0  0
    2.2425   21.2267  -33.6379 H   0  0  0  0  0  0  0  0  0  0  0  0
    2.2743   18.8662  -32.8413 H   0  0  0  0  0  0  0  0  0  0  0  0
    0.3203   17.3784  -33.2461 H   0  0  0  0  0  0  0  0  0  0  0  0
   -3.5426   18.8305  -33.2140 H   0  0  0  0  0  0  0  0  0  0  0  0
   -5.8593   16.5537  -35.1821 H   0  0  0  0  0  0  0  0  0  0  0  0
   -5.4183   15.8430  -33.5867 H   0  0  0  0  0  0  0  0  0  0  0  0
   -5.6849   19.2754  -35.1627 H   0  0  0  0  0  0  0  0  0  0  0  0
   -6.7783   21.1940  -34.0069 H   0  0  0  0  0  0  0  0  0  0  0  0
   -7.7467   22.5007  -33.0172 H   0  0  0  0  0  0  0  0  0  0  0  0
   -9.2454   22.4644  -31.9993 H   0  0  0  0  0  0  0  0  0  0  0  0
   -7.9726   24.5109  -31.5541 H   0  0  0  0  0  0  0  0  0  0  0  0
   -7.9593   23.4096  -30.1092 H   0  0  0  0  0  0  0  0  0  0  0  0
   -5.6440   21.5370  -31.4790 H   0  0  0  0  0  0  0  0  0  0  0  0
   -3.7984   20.3684  -31.9213 H   0  0  0  0  0  0  0  0  0  0  0  0
   -1.7425   18.9596  -31.8196 H   0  0  0  0  0  0  0  0  0  0  0  0
    0.3580   19.8752  -30.8309 H   0  0  0  0  0  0  0  0  0  0  0  0
    0.4060   22.2067  -29.9426 H   0  0  0  0  0  0  0  0  0  0  0  0
   -1.6442   23.6230  -30.0311 H   0  0  0  0  0  0  0  0  0  0  0  0
   -5.7647   26.2105  -29.3914 H   0  0  0  0  0  0  0  0  0  0  0  0
   -4.9921   26.7592  -30.9174 H   0  0  0  0  0  0  0  0  0  0  0  0
   -6.7119   26.2404  -30.9174 H   0  0  0  0  0  0  0  0  0  0  0  0
   -7.6420   18.6543  -30.6108 H   0  0  0  0  0  0  0  0  0  0  0  0
   -6.5651   16.7321  -31.7718 H   0  0  0  0  0  0  0  0  0  0  0  0
   -1.7287   20.6254  -35.2550 H   0  0  0  0  0  0  0  0  0  0  0  0
  1  2  1  0
  2  3  1  0
  3  4  2  0
  4  5  1  0
  5  6  2  0
  6  7  1  0
  7  8  1  0
  8  9  1  0
  9 10  2  0
 10 11  1  0
 11 12  1  0
 12 13  2  0
 13 14  1  0
 14 15  2  0
 15 16  1  0
 16 17  1  0
 17 18  1  0
 18 19  1  0
 19 20  1  0
 20 21  2  0
 21 22  1  0
 22 23  2  0
 23 24  1  0
 24 25  2  0
 25 26  1  0
 26 27  2  0
 21 28  1  0
 28 29  1  0
 29 30  1  0
 15 31  1  0
 31 32  2  0
 10 33  1  0
 33 34  2  0
  7 35  2  0
 35  3  1  0
 34  8  1  0
 32 12  1  0
 29 19  2  0
 27 22  1  0
  1 36  1  0
  1 37  1  0
  1 38  1  0
  4 39  1  0
  5 40  1  0
  6 41  1  0
  9 42  1  0
 11 43  1  0
 11 44  1  0
 13 45  1  0
 14 46  1  0
 17 47  1  0
 17 48  1  0
 18 49  1  0
 18 50  1  0
 20 51  1  0
 23 52  1  0
 24 53  1  0
 25 54  1  0
 26 55  1  0
 27 56  1  0
 30 57  1  0
 30 58  1  0
 30 59  1  0
 31 60  1  0
 32 61  1  0
 35 62  1  0
M  CHG  1  20   1
M  END
>  <UniqueID>  (40) 
39

>  <SMILES>  (40) 
COc1cccc(-n2cc(Cc3ccc(OCCc4[nH+]c(-c5ccccc5)oc4C)cc3)nn2)c1

>  <Energy>  (40) 
129.60648770355053

>  <Genealogy>  (40) 
COc1cccc(-n2cc(Cc3ccc(OCCc4[nH+]c(-c5ccccc5)oc4C)cc3)nn2)c1 (protonated)
COc1cccc(-n2cc(Cc3ccc(OCCc4[nH+]c(-c5ccccc5)oc4C)cc3)nn2)c1 (3D coordinates assigned)
COc1cccc(-n2cc(Cc3ccc(OCCc4[nH+]c(-c5ccccc5)oc4C)cc3)nn2)c1 (optimized conformer: 129.60648770355053 kcal/mol)

>  <smiles>  (40) 
COc1cccc(-n2cc(Cc3ccc(OCCc4nc(-c5ccccc5)oc4C)cc3)nn2)c1

>  <score_type>  (40) 
oracle

>  <origin>  (40) 
adg

>  <m_score__min__energy>  (40) 
-10.199999999999999

>  <m_primary>  (40) 
energy

$$$$
40:0
     RDKit          3D

 45 48  0  0  1  0  0  0  0  0999 V2000
   -2.2630   24.6800  -28.1880 C   0  0  0  0  0  0  0  0  0  0  0  0
   -2.8500   25.2250  -29.3420 O   0  0  0  0  0  0  0  0  0  0  0  0
   -3.7820   24.5540  -30.0860 C   0  0  0  0  0  0  0  0  0  0  0  0
   -5.1060   24.9220  -30.2100 C   0  0  0  0  0  0  0  0  0  0  0  0
   -6.0010   24.2060  -30.9760 C   0  0  0  0  0  0  0  0  0  0  0  0
   -5.6120   23.0780  -31.6620 C   0  0  0  0  0  0  0  0  0  0  0  0
   -4.2780   22.6980  -31.5430 C   0  0  0  0  0  0  0  0  0  0  0  0
   -3.7840   21.5120  -32.2380 C   0  0  0  0  0  0  0  0  0  0  0  0
   -2.4590   21.1910  -32.3470 C   0  0  0  0  0  0  0  0  0  0  0  0
   -2.0620   20.0530  -33.0180 C   0  0  0  0  0  0  0  0  0  0  0  0
   -2.9870   19.2040  -33.6010 C   0  0  0  0  0  0  0  0  0  0  0  0
   -2.6340   18.0880  -34.2620 N   0  0  0  0  0  0  0  0  0  0  0  0
   -3.5740   17.2790  -34.8210 C   0  0  0  0  0  0  0  0  0  0  0  0
   -4.8900   17.5610  -34.7360 N   0  0  0  0  0  0  0  0  0  0  0  0
   -5.2310   18.6660  -34.0800 C   0  0  0  0  0  0  0  0  0  0  0  0
   -6.4850   18.9600  -33.9830 N   0  0  0  0  0  0  0  0  0  0  0  0
   -7.2030   19.1390  -32.7760 C   0  0  0  0  0  0  0  0  0  0  0  0
   -8.0220   17.9610  -32.3360 C   0  0  0  0  0  0  0  0  0  0  0  0
   -9.0550   18.5640  -31.4000 C   0  0  0  0  0  0  0  0  0  0  0  0
   -8.7930   20.0450  -31.3560 C   0  0  0  0  0  0  0  0  0  0  0  0
   -8.1540   20.2890  -32.7280 C   0  0  0  0  0  0  0  0  0  0  0  0
   -4.3160   19.5300  -33.4900 C   0  0  0  0  0  0  0  0  0  0  0  0
   -4.7190   20.6670  -32.8180 C   0  0  0  0  0  0  0  0  0  0  0  0
   -3.3830   23.4270  -30.7680 C   0  0  0  0  0  0  0  0  0  0  0  0
   -2.0850   23.0190  -30.6790 F   0  0  0  0  0  0  0  0  0  0  0  0
   -2.7341   25.1174  -27.2954 H   0  0  0  0  0  0  0  0  0  0  0  0
   -2.4087   23.5897  -28.1825 H   0  0  0  0  0  0  0  0  0  0  0  0
   -1.1865   24.9061  -28.1825 H   0  0  0  0  0  0  0  0  0  0  0  0
   -5.4598   25.8181  -29.6791 H   0  0  0  0  0  0  0  0  0  0  0  0
   -7.0462   24.5427  -31.0402 H   0  0  0  0  0  0  0  0  0  0  0  0
   -6.3218   22.5037  -32.2755 H   0  0  0  0  0  0  0  0  0  0  0  0
   -1.7014   21.8477  -31.8945 H   0  0  0  0  0  0  0  0  0  0  0  0
   -0.9904   19.8157  -33.0912 H   0  0  0  0  0  0  0  0  0  0  0  0
   -1.6110   17.8820  -34.3210 H   0  0  0  0  0  0  0  0  0  0  0  0
   -3.2528   16.3727  -35.3554 H   0  0  0  0  0  0  0  0  0  0  0  0
   -6.3473   19.3178  -32.1083 H   0  0  0  0  0  0  0  0  0  0  0  0
   -8.5081   17.4787  -33.1969 H   0  0  0  0  0  0  0  0  0  0  0  0
   -7.4166   17.1798  -31.8532 H   0  0  0  0  0  0  0  0  0  0  0  0
  -10.0688   18.3703  -31.7803 H   0  0  0  0  0  0  0  0  0  0  0  0
   -8.9824   18.1212  -30.3957 H   0  0  0  0  0  0  0  0  0  0  0  0
   -9.7274   20.6142  -31.2420 H   0  0  0  0  0  0  0  0  0  0  0  0
   -8.1668   20.3625  -30.5092 H   0  0  0  0  0  0  0  0  0  0  0  0
   -8.8957   20.2401  -33.5388 H   0  0  0  0  0  0  0  0  0  0  0  0
   -7.6922   21.2792  -32.8558 H   0  0  0  0  0  0  0  0  0  0  0  0
   -5.7903   20.9047  -32.7419 H   0  0  0  0  0  0  0  0  0  0  0  0
  1  2  1  0
  2  3  1  0
  3  4  2  0
  4  5  1  0
  5  6  2  0
  6  7  1  0
  7  8  1  0
  8  9  2  0
  9 10  1  0
 10 11  2  0
 11 12  1  0
 12 13  1  0
 13 14  2  0
 14 15  1  0
 15 16  2  0
 16 17  1  0
 17 18  1  0
 18 19  1  0
 19 20  1  0
 20 21  1  0
 15 22  1  0
 22 23  2  0
  7 24  2  0
 24 25  1  0
 24  3  1  0
 23  8  1  0
 22 11  1  0
 21 17  1  0
  1 26  1  0
  1 27  1  0
  1 28  1  0
  4 29  1  0
  5 30  1  0
  6 31  1  0
  9 32  1  0
 10 33  1  0
 12 34  1  0
 13 35  1  0
 17 36  1  0
 18 37  1  0
 18 38  1  0
 19 39  1  0
 19 40  1  0
 20 41  1  0
 20 42  1  0
 21 43  1  0
 21 44  1  0
 23 45  1  0
M  END
>  <smiles>  (41) 
COc1cccc(-c2ccc3[nH]cnc(=NC4CCCC4)c3c2)c1F

>  <score_type>  (41) 
oracle

>  <origin>  (41) 
adg

>  <m_score__min__energy>  (41) 
-9.1300000000000008

>  <m_primary>  (41) 
energy

$$$$
41:0
     RDKit          3D

 27 30  0  0  0  0  0  0  0  0999 V2000
   -9.5900   20.8930  -32.3260 O   0  0  0  0  0  0  0  0  0  0  0  0
   -8.3380   20.8310  -32.4640 C   0  0  0  0  0  0  0  0  0  0  0  0
   -7.7870   19.7540  -33.0980 N   0  0  0  0  0  0  0  0  0  0  0  0
   -6.4400   19.6930  -33.2440 C   0  0  0  0  0  0  0  0  0  0  0  0
   -5.6760   18.7200  -33.8380 C   0  0  0  0  0  0  0  0  0  0  0  0
   -5.9750   17.5160  -34.4680 C   0  0  0  0  0  0  0  0  0  0  0  0
   -4.8960   16.7640  -34.9690 C   0  0  0  0  0  0  0  0  0  0  0  0
   -3.5670   17.2290  -34.8280 C   0  0  0  0  0  0  0  0  0  0  0  0
   -3.3000   18.4530  -34.1830 C   0  0  0  0  0  0  0  0  0  0  0  0
   -4.3840   19.1790  -33.6970 C   0  0  0  0  0  0  0  0  0  0  0  0
   -4.3570   20.3680  -33.0520 N   0  0  0  0  0  0  0  0  0  0  0  0
   -5.6260   20.6600  -32.7850 N   0  0  0  0  0  0  0  0  0  0  0  0
   -6.1040   21.7600  -32.1470 C   0  0  0  0  0  0  0  0  0  0  0  0
   -5.2530   22.7690  -31.6680 C   0  0  0  0  0  0  0  0  0  0  0  0
   -5.7900   23.8820  -31.0170 C   0  0  0  0  0  0  0  0  0  0  0  0
   -7.1710   23.9960  -30.8390 C   0  0  0  0  0  0  0  0  0  0  0  0
   -8.0300   22.9990  -31.3100 C   0  0  0  0  0  0  0  0  0  0  0  0
   -7.5070   21.8700  -31.9690 C   0  0  0  0  0  0  0  0  0  0  0  0
   -8.3940   18.9860  -33.4640 H   0  0  0  0  0  0  0  0  0  0  0  0
   -7.0128   17.1660  -34.5704 H   0  0  0  0  0  0  0  0  0  0  0  0
   -5.0875   15.8061  -35.4748 H   0  0  0  0  0  0  0  0  0  0  0  0
   -2.7348   16.6295  -35.2255 H   0  0  0  0  0  0  0  0  0  0  0  0
   -2.2703   18.8223  -34.0674 H   0  0  0  0  0  0  0  0  0  0  0  0
   -4.1650   22.6830  -31.8053 H   0  0  0  0  0  0  0  0  0  0  0  0
   -5.1226   24.6723  -30.6428 H   0  0  0  0  0  0  0  0  0  0  0  0
   -7.5850   24.8760  -30.3249 H   0  0  0  0  0  0  0  0  0  0  0  0
   -9.1161   23.0966  -31.1656 H   0  0  0  0  0  0  0  0  0  0  0  0
  1  2  2  0
  2  3  1  0
  3  4  1  0
  4  5  2  0
  5  6  1  0
  6  7  2  0
  7  8  1  0
  8  9  2  0
  9 10  1  0
 10 11  2  0
 11 12  1  0
 12 13  1  0
 13 14  2  0
 14 15  1  0
 15 16  2  0
 16 17  1  0
 17 18  2  0
 18  2  1  0
 12  4  1  0
 18 13  1  0
 10  5  1  0
  3 19  1  0
  6 20  1  0
  7 21  1  0
  8 22  1  0
  9 23  1  0
 14 24  1  0
 15 25  1  0
 16 26  1  0
 17 27  1  0
M  END
>  <UniqueID>  (42) 
40

>  <SMILES>  (42) 
O=c1[nH]c2c3ccccc3nn2c2ccccc12

>  <Energy>  (42) 
81.8291826376268

>  <Genealogy>  (42) 
O=c1[nH]c2c3ccccc3nn2c2ccccc12 (3D coordinates assigned)
O=c1[nH]c2c3ccccc3nn2c2ccccc12 (optimized conformer: 81.8291826376268 kcal/mol)

>  <smiles>  (42) 
O=c1[nH]c2c3ccccc3nn2c2ccccc12

>  <score_type>  (42) 
oracle

>  <origin>  (42) 
adg

>  <m_score__min__energy>  (42) 
-7.1500000000000004

>  <m_primary>  (42) 
energy

$$$$
42:0
     RDKit          3D

 48 51  0  0  0  0  0  0  0  0999 V2000
   -1.5620   25.6200  -27.6250 C   0  0  0  0  0  0  0  0  0  0  0  0
   -2.0360   25.6350  -28.9670 O   0  0  0  0  0  0  0  0  0  0  0  0
   -2.6520   24.5470  -29.6040 C   0  0  0  0  0  0  0  0  0  0  0  0
   -3.9530   24.6200  -30.1280 C   0  0  0  0  0  0  0  0  0  0  0  0
   -4.5230   23.5070  -30.7570 C   0  0  0  0  0  0  0  0  0  0  0  0
   -6.0860   23.5950  -31.3800 S   0  0  0  0  0  0  0  0  0  0  0  0
   -6.5630   22.1490  -32.0900 C   0  0  0  0  0  0  0  0  0  0  0  0
   -5.6660   21.0780  -32.1030 C   0  0  0  0  0  0  0  0  0  0  0  0
   -6.0920   19.8590  -32.7350 N   0  0  0  0  0  0  0  0  0  0  0  0
   -7.4000   19.2840  -32.3980 C   0  0  0  0  0  0  0  0  0  0  0  0
   -7.3140   17.7510  -32.3730 C   0  0  0  0  0  0  0  0  0  0  0  0
   -6.5250   17.2320  -33.5020 N   0  0  0  0  0  0  0  0  0  0  0  0
   -6.1810   15.8350  -33.5430 C   0  0  0  0  0  0  0  0  0  0  0  0
   -6.9390   14.9410  -34.3180 C   0  0  0  0  0  0  0  0  0  0  0  0
   -6.6090   13.5840  -34.3540 C   0  0  0  0  0  0  0  0  0  0  0  0
   -5.5160   13.1080  -33.6260 C   0  0  0  0  0  0  0  0  0  0  0  0
   -4.7350   13.9910  -32.8660 C   0  0  0  0  0  0  0  0  0  0  0  0
   -3.5880   13.4730  -32.0500 C   0  0  0  0  0  0  0  0  0  0  0  0
   -5.0780   15.3520  -32.8190 C   0  0  0  0  0  0  0  0  0  0  0  0
   -6.0280   18.1540  -34.5310 C   0  0  0  0  0  0  0  0  0  0  0  0
   -5.3100   19.3310  -33.8640 C   0  0  0  0  0  0  0  0  0  0  0  0
   -4.3670   21.1380  -31.5230 C   0  0  0  0  0  0  0  0  0  0  0  0
   -3.6670   20.0870  -31.5740 O   0  0  0  0  0  0  0  0  0  0  0  0
   -3.8120   22.2910  -30.8840 C   0  0  0  0  0  0  0  0  0  0  0  0
   -2.5060   22.2390  -30.3490 C   0  0  0  0  0  0  0  0  0  0  0  0
   -1.9370   23.3500  -29.7200 C   0  0  0  0  0  0  0  0  0  0  0  0
   -0.6810   23.2620  -29.2170 F   0  0  0  0  0  0  0  0  0  0  0  0
   -2.4172   25.6471  -26.9337 H   0  0  0  0  0  0  0  0  0  0  0  0
   -0.9796   24.7030  -27.4521 H   0  0  0  0  0  0  0  0  0  0  0  0
   -0.9228   26.4984  -27.4521 H   0  0  0  0  0  0  0  0  0  0  0  0
   -4.5261   25.5552  -30.0438 H   0  0  0  0  0  0  0  0  0  0  0  0
   -7.5632   22.0474  -32.5364 H   0  0  0  0  0  0  0  0  0  0  0  0
   -7.7122   19.6467  -31.4076 H   0  0  0  0  0  0  0  0  0  0  0  0
   -8.1337   19.5903  -33.1582 H   0  0  0  0  0  0  0  0  0  0  0  0
   -6.8398   17.4358  -31.4318 H   0  0  0  0  0  0  0  0  0  0  0  0
   -8.3346   17.3487  -32.4540 H   0  0  0  0  0  0  0  0  0  0  0  0
   -7.7964   15.3114  -34.8992 H   0  0  0  0  0  0  0  0  0  0  0  0
   -7.2113   12.8887  -34.9571 H   0  0  0  0  0  0  0  0  0  0  0  0
   -5.2669   12.0368  -33.6488 H   0  0  0  0  0  0  0  0  0  0  0  0
   -3.8218   13.5786  -30.9803 H   0  0  0  0  0  0  0  0  0  0  0  0
   -3.4202   12.4117  -32.2856 H   0  0  0  0  0  0  0  0  0  0  0  0
   -2.6808   14.0488  -32.2856 H   0  0  0  0  0  0  0  0  0  0  0  0
   -4.4785   16.0452  -32.2107 H   0  0  0  0  0  0  0  0  0  0  0  0
   -5.3255   17.6227  -35.1899 H   0  0  0  0  0  0  0  0  0  0  0  0
   -6.8750   18.5312  -35.1228 H   0  0  0  0  0  0  0  0  0  0  0  0
   -4.3308   18.9918  -33.4950 H   0  0  0  0  0  0  0  0  0  0  0  0
   -5.1872   20.1318  -34.6081 H   0  0  0  0  0  0  0  0  0  0  0  0
   -1.9263   21.3076  -30.4287 H   0  0  0  0  0  0  0  0  0  0  0  0
  1  2  1  0
  2  3  1  0
  3  4  2  0
  4  5  1  0
  5  6  1  0
  6  7  1  0
  7  8  2  0
  8  9  1  0
  9 10  1  0
 10 11  1  0
 11 12  1  0
 12 13  1  0
 13 14  2  0
 14 15  1  0
 15 16  2  0
 16 17  1  0
 17 18  1  0
 17 19  2  0
 12 20  1  0
 20 21  1  0
  8 22  1  0
 22 23  2  0
 22 24  1  0
 24 25  1  0
 25 26  2  0
 26 27  1  0
 26  3  1  0
 24  5  2  0
 21  9  1  0
 19 13  1  0
  1 28  1  0
  1 29  1  0
  1 30  1  0
  4 31  1  0
  7 32  1  0
 10 33  1  0
 10 34  1  0
 11 35  1  0
 11 36  1  0
 14 37  1  0
 15 38  1  0
 16 39  1  0
 18 40  1  0
 18 41  1  0
 18 42  1  0
 19 43  1  0
 20 44  1  0
 20 45  1  0
 21 46  1  0
 21 47  1  0
 25 48  1  0
M  END
>  <UniqueID>  (43) 
41

>  <SMILES>  (43) 
COc1cc2scc(N3CCN(c4cccc(C)c4)CC3)c(=O)c2cc1F

>  <Energy>  (43) 
68.00725232138409

>  <Genealogy>  (43) 
COc1cc2scc(N3CCN(c4cccc(C)c4)CC3)c(=O)c2cc1F (3D coordinates assigned)
COc1cc2scc(N3CCN(c4cccc(C)c4)CC3)c(=O)c2cc1F (nonaromatic ring conformer: 68.00725232138409 kcal/mol)

>  <smiles>  (43) 
COc1cc2scc(N3CCN(c4cccc(C)c4)CC3)c(=O)c2cc1F

>  <score_type>  (43) 
oracle

>  <origin>  (43) 
adg

>  <m_score__min__energy>  (43) 
-8.2599999999999998

>  <m_primary>  (43) 
energy

$$$$
43:0
     RDKit          3D

 36 39  0  0  0  0  0  0  0  0999 V2000
   -0.6590   26.4840  -27.0440 C   0  0  0  0  0  0  0  0  0  0  0  0
    0.0090   25.8060  -28.1090 O   0  0  0  0  0  0  0  0  0  0  0  0
    0.0000   24.4190  -28.1030 C   0  0  0  0  0  0  0  0  0  0  0  0
    1.0210   23.6520  -27.5850 C   0  0  0  0  0  0  0  0  0  0  0  0
    0.9410   22.2660  -27.6150 C   0  0  0  0  0  0  0  0  0  0  0  0
   -0.1890   21.6690  -28.1770 C   0  0  0  0  0  0  0  0  0  0  0  0
   -1.2200   22.4140  -28.7020 C   0  0  0  0  0  0  0  0  0  0  0  0
   -2.3950   22.0790  -29.2890 N   0  0  0  0  0  0  0  0  0  0  0  0
   -3.0230   23.2240  -29.6140 C   0  0  0  0  0  0  0  0  0  0  0  0
   -4.3220   23.3030  -30.2660 C   0  0  0  0  0  0  0  0  0  0  0  0
   -5.0220   22.1290  -30.4580 C   0  0  0  0  0  0  0  0  0  0  0  0
   -6.2570   22.1540  -31.0730 C   0  0  0  0  0  0  0  0  0  0  0  0
   -6.9580   20.9990  -31.2690 C   0  0  0  0  0  0  0  0  0  0  0  0
   -8.1790   20.9950  -31.8720 C   0  0  0  0  0  0  0  0  0  0  0  0
   -8.7130   22.1940  -32.2940 C   0  0  0  0  0  0  0  0  0  0  0  0
   -8.0170   23.3890  -32.1050 C   0  0  0  0  0  0  0  0  0  0  0  0
   -6.7650   23.3690  -31.4830 C   0  0  0  0  0  0  0  0  0  0  0  0
   -6.0700   24.5650  -31.2960 C   0  0  0  0  0  0  0  0  0  0  0  0
   -4.8310   24.5210  -30.6770 C   0  0  0  0  0  0  0  0  0  0  0  0
   -4.0890   25.6750  -30.4600 O   0  0  0  0  0  0  0  0  0  0  0  0
   -2.2370   24.2630  -29.2260 N   0  0  0  0  0  0  0  0  0  0  0  0
   -1.1160   23.7880  -28.6600 C   0  0  0  0  0  0  0  0  0  0  0  0
   -0.2878   26.1072  -26.0795 H   0  0  0  0  0  0  0  0  0  0  0  0
   -0.4621   27.5638  -27.1161 H   0  0  0  0  0  0  0  0  0  0  0  0
   -1.7416   26.3031  -27.1161 H   0  0  0  0  0  0  0  0  0  0  0  0
    1.9035   24.1400  -27.1457 H   0  0  0  0  0  0  0  0  0  0  0  0
    1.7536   21.6494  -27.2033 H   0  0  0  0  0  0  0  0  0  0  0  0
   -0.2571   20.5714  -28.2008 H   0  0  0  0  0  0  0  0  0  0  0  0
   -2.7190   21.1090  -29.4450 H   0  0  0  0  0  0  0  0  0  0  0  0
   -4.5952   21.1730  -30.1206 H   0  0  0  0  0  0  0  0  0  0  0  0
   -6.5249   20.0461  -30.9308 H   0  0  0  0  0  0  0  0  0  0  0  0
   -8.7285   20.0536  -32.0195 H   0  0  0  0  0  0  0  0  0  0  0  0
   -9.6974   22.2090  -32.7846 H   0  0  0  0  0  0  0  0  0  0  0  0
   -8.4511   24.3413  -32.4436 H   0  0  0  0  0  0  0  0  0  0  0  0
   -6.4965   25.5215  -31.6326 H   0  0  0  0  0  0  0  0  0  0  0  0
   -3.0900   25.6670  -30.6940 H   0  0  0  0  0  0  0  0  0  0  0  0
  1  2  1  0
  2  3  1  0
  3  4  2  0
  4  5  1  0
  5  6  2  0
  6  7  1  0
  7  8  1  0
  8  9  1  0
  9 10  1  0
 10 11  2  0
 11 12  1  0
 12 13  2  0
 13 14  1  0
 14 15  2  0
 15 16  1  0
 16 17  2  0
 17 18  1  0
 18 19  2  0
 19 20  1  0
  9 21  2  0
 21 22  1  0
 22  3  1  0
 22  7  2  0
 19 10  1  0
 17 12  1  0
  1 23  1  0
  1 24  1  0
  1 25  1  0
  4 26  1  0
  5 27  1  0
  6 28  1  0
  8 29  1  0
 11 30  1  0
 13 31  1  0
 14 32  1  0
 15 33  1  0
 16 34  1  0
 18 35  1  0
 20 36  1  0
M  END
>  <smiles>  (44) 
COc1cccc2[nH]c(-c3cc4ccccc4cc3O)nc12

>  <score_type>  (44) 
oracle

>  <origin>  (44) 
adg

>  <m_score__min__energy>  (44) 
-8.4100000000000001

>  <m_primary>  (44) 
energy

$$$$
44:0
     RDKit          3D

 43 46  0  0  0  0  0  0  0  0999 V2000
   -3.5750   16.2560  -33.2250 C   0  0  0  0  0  0  0  0  0  0  0  0
   -4.2900   17.5510  -33.4750 C   0  0  0  0  0  0  0  0  0  0  0  0
   -5.3940   17.5950  -34.3400 C   0  0  0  0  0  0  0  0  0  0  0  0
   -6.0870   18.7920  -34.5370 C   0  0  0  0  0  0  0  0  0  0  0  0
   -5.6930   19.9500  -33.8610 C   0  0  0  0  0  0  0  0  0  0  0  0
   -4.5990   19.9170  -32.9850 C   0  0  0  0  0  0  0  0  0  0  0  0
   -4.2100   21.0980  -32.2640 N   0  0  0  0  0  0  0  0  0  0  0  0
   -2.9630   21.6150  -32.1580 C   0  0  0  0  0  0  0  0  0  0  0  0
   -1.7250   20.9700  -32.6480 C   0  0  0  0  0  0  0  0  0  0  0  0
   -0.9120   20.2500  -31.7610 C   0  0  0  0  0  0  0  0  0  0  0  0
    0.2260   19.6650  -32.2170 N   0  0  0  0  0  0  0  0  0  0  0  0
    0.5890   19.7530  -33.5220 C   0  0  0  0  0  0  0  0  0  0  0  0
   -0.2250   20.4520  -34.4140 C   0  0  0  0  0  0  0  0  0  0  0  0
   -1.3670   21.0390  -33.9650 N   0  0  0  0  0  0  0  0  0  0  0  0
   -2.9570   22.8180  -31.5490 N   0  0  0  0  0  0  0  0  0  0  0  0
   -4.2500   23.0780  -31.2700 C   0  0  0  0  0  0  0  0  0  0  0  0
   -5.0360   22.0080  -31.7030 C   0  0  0  0  0  0  0  0  0  0  0  0
   -6.5380   21.8300  -31.6450 C   0  0  0  0  0  0  0  0  0  0  0  0
   -7.2270   22.4410  -30.4270 C   0  0  0  0  0  0  0  0  0  0  0  0
   -7.1800   23.9730  -30.4550 C   0  0  0  0  0  0  0  0  0  0  0  0
   -5.9160   24.5070  -29.7890 C   0  0  0  0  0  0  0  0  0  0  0  0
   -4.6460   24.3250  -30.5800 C   0  0  0  0  0  0  0  0  0  0  0  0
   -3.9150   25.3390  -30.7410 O   0  0  0  0  0  0  0  0  0  0  0  0
   -3.9060   18.7120  -32.7870 C   0  0  0  0  0  0  0  0  0  0  0  0
   -3.4838   16.0908  -32.1413 H   0  0  0  0  0  0  0  0  0  0  0  0
   -4.1447   15.4297  -33.6752 H   0  0  0  0  0  0  0  0  0  0  0  0
   -2.5722   16.2980  -33.6752 H   0  0  0  0  0  0  0  0  0  0  0  0
   -5.7151   16.6833  -34.8651 H   0  0  0  0  0  0  0  0  0  0  0  0
   -6.9444   18.8231  -35.2255 H   0  0  0  0  0  0  0  0  0  0  0  0
   -6.2428   20.8899  -34.0167 H   0  0  0  0  0  0  0  0  0  0  0  0
   -1.1942   20.1594  -30.7017 H   0  0  0  0  0  0  0  0  0  0  0  0
    1.5167   19.2775  -33.8732 H   0  0  0  0  0  0  0  0  0  0  0  0
    0.0554   20.5280  -35.4750 H   0  0  0  0  0  0  0  0  0  0  0  0
   -1.9790   21.5210  -34.6580 H   0  0  0  0  0  0  0  0  0  0  0  0
   -6.9689   22.2925  -32.5453 H   0  0  0  0  0  0  0  0  0  0  0  0
   -6.7107   20.7458  -31.5767 H   0  0  0  0  0  0  0  0  0  0  0  0
   -8.2782   22.1173  -30.4129 H   0  0  0  0  0  0  0  0  0  0  0  0
   -6.6958   22.0991  -29.5265 H   0  0  0  0  0  0  0  0  0  0  0  0
   -7.2030   24.3120  -31.5012 H   0  0  0  0  0  0  0  0  0  0  0  0
   -8.0496   24.3546  -29.8998 H   0  0  0  0  0  0  0  0  0  0  0  0
   -6.0544   25.5837  -29.6111 H   0  0  0  0  0  0  0  0  0  0  0  0
   -5.7870   23.9213  -28.8669 H   0  0  0  0  0  0  0  0  0  0  0  0
   -3.0570   18.6780  -32.0884 H   0  0  0  0  0  0  0  0  0  0  0  0
  1  2  1  0
  2  3  2  0
  3  4  1  0
  4  5  2  0
  5  6  1  0
  6  7  1  0
  7  8  1  0
  8  9  1  0
  9 10  2  0
 10 11  1  0
 11 12  2  0
 12 13  1  0
 13 14  2  0
  8 15  2  0
 15 16  1  0
 16 17  2  0
 17 18  1  0
 18 19  1  0
 19 20  1  0
 20 21  1  0
 21 22  1  0
 22 23  2  0
  6 24  2  0
 24  2  1  0
 17  7  1  0
 14  9  1  0
 22 16  1  0
  1 25  1  0
  1 26  1  0
  1 27  1  0
  3 28  1  0
  4 29  1  0
  5 30  1  0
 10 31  1  0
 12 32  1  0
 13 33  1  0
 14 34  1  0
 18 35  1  0
 18 36  1  0
 19 37  1  0
 19 38  1  0
 20 39  1  0
 20 40  1  0
 21 41  1  0
 21 42  1  0
 24 43  1  0
M  CHG  1  14   1
M  END
>  <UniqueID>  (45) 
42

>  <SMILES>  (45) 
Cc1cccc(-n2c(-c3cncc[nH+]3)nc3c2CCCCC3=O)c1

>  <Energy>  (45) 
93.36937472904305

>  <Genealogy>  (45) 
Cc1cccc(-n2c(-c3cncc[nH+]3)nc3c2CCCCC3=O)c1 (protonated)
Cc1cccc(-n2c(-c3cncc[nH+]3)nc3c2CCCCC3=O)c1 (3D coordinates assigned)
Cc1cccc(-n2c(-c3cncc[nH+]3)nc3c2CCCCC3=O)c1 (nonaromatic ring conformer: 93.36937472904305 kcal/mol)

>  <smiles>  (45) 
Cc1cccc(-n2c(-c3cnccn3)nc3c2CCCCC3=O)c1

>  <score_type>  (45) 
oracle

>  <origin>  (45) 
adg

>  <m_score__min__energy>  (45) 
-7.0800000000000001

>  <m_primary>  (45) 
energy

$$$$
45:0
     RDKit          3D

 46 47  0  0  0  0  0  0  0  0999 V2000
   -1.2700   21.7850  -26.6910 C   0  0  0  0  0  0  0  0  0  0  0  0
   -0.5700   22.7350  -25.7130 C   0  0  0  0  0  0  0  0  0  0  0  0
   -0.7300   24.1630  -26.1030 N   0  0  0  0  0  0  0  0  0  0  0  0
   -0.9100   25.0090  -24.8900 C   0  0  0  0  0  0  0  0  0  0  0  0
   -1.6340   26.3250  -25.2020 C   0  0  0  0  0  0  0  0  0  0  0  0
   -1.8910   24.3260  -27.0240 C   0  0  0  0  0  0  0  0  0  0  0  0
   -1.4710   24.8190  -28.3940 C   0  0  0  0  0  0  0  0  0  0  0  0
   -0.2580   24.7770  -28.7280 O   0  0  0  0  0  0  0  0  0  0  0  0
   -2.4280   25.2990  -29.3470 N   0  0  0  0  0  0  0  0  0  0  0  0
   -3.5210   24.5600  -29.9080 C   0  0  0  0  0  0  0  0  0  0  0  0
   -4.7660   25.1610  -30.1580 C   0  0  0  0  0  0  0  0  0  0  0  0
   -5.8040   24.4220  -30.7300 C   0  0  0  0  0  0  0  0  0  0  0  0
   -5.6080   23.0760  -31.0830 C   0  0  0  0  0  0  0  0  0  0  0  0
   -6.6830   22.3130  -31.6630 N   0  0  0  0  0  0  0  0  0  0  0  0
   -8.0370   22.8800  -31.7360 C   0  0  0  0  0  0  0  0  0  0  0  0
   -9.1190   21.7860  -31.5730 C   0  0  0  0  0  0  0  0  0  0  0  0
   -8.5990   20.4690  -31.5390 O   0  0  0  0  0  0  0  0  0  0  0  0
   -7.6960   20.2780  -32.6060 C   0  0  0  0  0  0  0  0  0  0  0  0
   -6.3980   21.0280  -32.3120 C   0  0  0  0  0  0  0  0  0  0  0  0
   -4.3540   22.4850  -30.8530 C   0  0  0  0  0  0  0  0  0  0  0  0
   -3.3170   23.2270  -30.2820 C   0  0  0  0  0  0  0  0  0  0  0  0
   -1.8300   21.0250  -26.1265 H   0  0  0  0  0  0  0  0  0  0  0  0
   -1.9642   22.3569  -27.3242 H   0  0  0  0  0  0  0  0  0  0  0  0
   -0.5181   21.2913  -27.3242 H   0  0  0  0  0  0  0  0  0  0  0  0
   -1.0000   22.5913  -24.7108 H   0  0  0  0  0  0  0  0  0  0  0  0
    0.5046   22.5003  -25.7255 H   0  0  0  0  0  0  0  0  0  0  0  0
    0.1410   24.4690  -26.6000 H   0  0  0  0  0  0  0  0  0  0  0  0
   -1.4998   24.4471  -24.1508 H   0  0  0  0  0  0  0  0  0  0  0  0
    0.0885   25.2575  -24.5011 H   0  0  0  0  0  0  0  0  0  0  0  0
   -1.9087   26.8243  -24.2612 H   0  0  0  0  0  0  0  0  0  0  0  0
   -0.9693   26.9801  -25.7843 H   0  0  0  0  0  0  0  0  0  0  0  0
   -2.5431   26.1142  -25.7843 H   0  0  0  0  0  0  0  0  0  0  0  0
   -2.3933   23.3538  -27.1361 H   0  0  0  0  0  0  0  0  0  0  0  0
   -2.5653   25.0774  -26.5872 H   0  0  0  0  0  0  0  0  0  0  0  0
   -4.9241   26.2190  -29.9019 H   0  0  0  0  0  0  0  0  0  0  0  0
   -6.7808   24.8965  -30.9052 H   0  0  0  0  0  0  0  0  0  0  0  0
   -8.1569   23.6236  -30.9344 H   0  0  0  0  0  0  0  0  0  0  0  0
   -8.1634   23.3461  -32.7243 H   0  0  0  0  0  0  0  0  0  0  0  0
   -9.6595   21.9700  -30.6328 H   0  0  0  0  0  0  0  0  0  0  0  0
   -9.7743   21.8493  -32.4543 H   0  0  0  0  0  0  0  0  0  0  0  0
   -7.4824   19.2048  -32.7185 H   0  0  0  0  0  0  0  0  0  0  0  0
   -8.1398   20.6619  -33.5364 H   0  0  0  0  0  0  0  0  0  0  0  0
   -5.7700   20.4176  -31.6464 H   0  0  0  0  0  0  0  0  0  0  0  0
   -5.8734   21.2168  -33.2602 H   0  0  0  0  0  0  0  0  0  0  0  0
   -4.1879   21.4320  -31.1241 H   0  0  0  0  0  0  0  0  0  0  0  0
   -2.3334   22.7602  -30.1253 H   0  0  0  0  0  0  0  0  0  0  0  0
  1  2  1  0
  2  3  1  0
  3  4  1  0
  4  5  1  0
  3  6  1  0
  6  7  1  0
  7  8  2  0
  7  9  1  0
  9 10  1  0
 10 11  2  0
 11 12  1  0
 12 13  2  0
 13 14  1  0
 14 15  1  0
 15 16  1  0
 16 17  1  0
 17 18  1  0
 18 19  1  0
 13 20  1  0
 20 21  2  0
 21 10  1  0
 19 14  1  0
  1 22  1  0
  1 23  1  0
  1 24  1  0
  2 25  1  0
  2 26  1  0
  3 27  1  0
  4 28  1  0
  4 29  1  0
  5 30  1  0
  5 31  1  0
  5 32  1  0
  6 33  1  0
  6 34  1  0
 11 35  1  0
 12 36  1  0
 15 37  1  0
 15 38  1  0
 16 39  1  0
 16 40  1  0
 18 41  1  0
 18 42  1  0
 19 43  1  0
 19 44  1  0
 20 45  1  0
 21 46  1  0
M  CHG  2   3   1   9  -1
M  END
>  <UniqueID>  (46) 
43

>  <SMILES>  (46) 
CC[NH+](CC)CC(=O)[N-]c1ccc(N2CCOCC2)cc1

>  <Energy>  (46) 
63.02656036789485

>  <Genealogy>  (46) 
CC[NH+](CC)CC(=O)[N-]c1ccc(N2CCOCC2)cc1 (protonated)
CC[NH+](CC)CC(=O)[N-]c1ccc(N2CCOCC2)cc1 (3D coordinates assigned)
CC[NH+](CC)CC(=O)[N-]c1ccc(N2CCOCC2)cc1 (nonaromatic ring conformer: 63.02656036789485 kcal/mol)

>  <smiles>  (46) 
CCN(CC)CC(=O)Nc1ccc(N2CCOCC2)cc1

>  <score_type>  (46) 
oracle

>  <origin>  (46) 
adg

>  <m_score__min__energy>  (46) 
-7.71

>  <m_primary>  (46) 
energy

$$$$
46:0
     RDKit          3D

 38 40  0  0  0  0  0  0  0  0999 V2000
   -6.4810   25.6460  -29.3540 C   0  0  0  0  0  0  0  0  0  0  0  0
   -6.2630   25.1920  -30.6850 O   0  0  0  0  0  0  0  0  0  0  0  0
   -6.4710   23.8790  -31.1370 C   0  0  0  0  0  0  0  0  0  0  0  0
   -7.7630   23.4460  -31.5010 C   0  0  0  0  0  0  0  0  0  0  0  0
   -7.9840   22.1460  -31.9420 C   0  0  0  0  0  0  0  0  0  0  0  0
   -6.9310   21.2430  -32.0180 C   0  0  0  0  0  0  0  0  0  0  0  0
   -5.6340   21.6350  -31.6600 C   0  0  0  0  0  0  0  0  0  0  0  0
   -4.5960   20.6940  -31.7120 C   0  0  0  0  0  0  0  0  0  0  0  0
   -3.3080   21.0450  -31.3240 C   0  0  0  0  0  0  0  0  0  0  0  0
   -3.0310   22.3460  -30.9170 C   0  0  0  0  0  0  0  0  0  0  0  0
   -4.0300   23.3310  -30.9190 C   0  0  0  0  0  0  0  0  0  0  0  0
   -3.6360   24.6800  -30.4630 C   0  0  0  0  0  0  0  0  0  0  0  0
   -3.9530   25.6660  -31.1780 O   0  0  0  0  0  0  0  0  0  0  0  0
   -2.9250   24.9230  -29.2340 N   0  0  0  0  0  0  0  0  0  0  0  0
   -1.4820   25.0160  -28.9670 C   0  0  0  0  0  0  0  0  0  0  0  0
   -1.1560   25.7160  -27.6450 C   0  0  0  0  0  0  0  0  0  0  0  0
   -0.3640   24.7160  -26.8130 C   0  0  0  0  0  0  0  0  0  0  0  0
    0.2060   23.7120  -27.8000 C   0  0  0  0  0  0  0  0  0  0  0  0
   -0.7850   23.6560  -28.9500 C   0  0  0  0  0  0  0  0  0  0  0  0
   -5.3760   22.9710  -31.2340 C   0  0  0  0  0  0  0  0  0  0  0  0
   -6.1173   24.8886  -28.6440 H   0  0  0  0  0  0  0  0  0  0  0  0
   -5.9375   26.5889  -29.1946 H   0  0  0  0  0  0  0  0  0  0  0  0
   -7.5567   25.8114  -29.1946 H   0  0  0  0  0  0  0  0  0  0  0  0
   -8.6082   24.1470  -31.4350 H   0  0  0  0  0  0  0  0  0  0  0  0
   -8.9973   21.8311  -32.2320 H   0  0  0  0  0  0  0  0  0  0  0  0
   -7.1163   20.2144  -32.3611 H   0  0  0  0  0  0  0  0  0  0  0  0
   -4.8020   19.6717  -32.0620 H   0  0  0  0  0  0  0  0  0  0  0  0
   -2.5061   20.2922  -31.3389 H   0  0  0  0  0  0  0  0  0  0  0  0
   -2.0139   22.6063  -30.5888 H   0  0  0  0  0  0  0  0  0  0  0  0
   -1.1035   25.6170  -29.8069 H   0  0  0  0  0  0  0  0  0  0  0  0
   -0.5541   26.6179  -27.8304 H   0  0  0  0  0  0  0  0  0  0  0  0
   -2.0721   26.0312  -27.1241 H   0  0  0  0  0  0  0  0  0  0  0  0
    0.4480   25.2254  -26.2734 H   0  0  0  0  0  0  0  0  0  0  0  0
   -0.9979   24.2260  -26.0593 H   0  0  0  0  0  0  0  0  0  0  0  0
    1.1913   24.0443  -28.1589 H   0  0  0  0  0  0  0  0  0  0  0  0
    0.3467   22.7239  -27.3376 H   0  0  0  0  0  0  0  0  0  0  0  0
   -0.2591   23.4834  -29.9006 H   0  0  0  0  0  0  0  0  0  0  0  0
   -1.5051   22.8341  -28.8237 H   0  0  0  0  0  0  0  0  0  0  0  0
  1  2  1  0
  2  3  1  0
  3  4  2  0
  4  5  1  0
  5  6  2  0
  6  7  1  0
  7  8  2  0
  8  9  1  0
  9 10  2  0
 10 11  1  0
 11 12  1  0
 12 13  2  0
 12 14  1  0
 14 15  1  0
 15 16  1  0
 16 17  1  0
 17 18  1  0
 18 19  1  0
 11 20  2  0
 20  3  1  0
 20  7  1  0
 19 15  1  0
  1 21  1  0
  1 22  1  0
  1 23  1  0
  4 24  1  0
  5 25  1  0
  6 26  1  0
  8 27  1  0
  9 28  1  0
 10 29  1  0
 15 30  1  0
 16 31  1  0
 16 32  1  0
 17 33  1  0
 17 34  1  0
 18 35  1  0
 18 36  1  0
 19 37  1  0
 19 38  1  0
M  CHG  1  14  -1
M  END
>  <UniqueID>  (47) 
44

>  <SMILES>  (47) 
COc1cccc2cccc(C(=O)[N-]C3CCCC3)c12

>  <Energy>  (47) 
55.24568849789599

>  <Genealogy>  (47) 
COc1cccc2cccc(C(=O)[N-]C3CCCC3)c12 (protonated)
COc1cccc2cccc(C(=O)[N-]C3CCCC3)c12 (3D coordinates assigned)
COc1cccc2cccc(C(=O)[N-]C3CCCC3)c12 (nonaromatic ring conformer: 55.24568849789599 kcal/mol)

>  <smiles>  (47) 
COc1cccc2cccc(C(=O)NC3CCCC3)c12

>  <score_type>  (47) 
oracle

>  <origin>  (47) 
adg

>  <m_score__min__energy>  (47) 
-8.5999999999999996

>  <m_primary>  (47) 
energy

$$$$
47:0
     RDKit          3D

 37 39  0  0  1  0  0  0  0  0999 V2000
   -1.2650   25.6960  -27.7480 C   0  0  0  0  0  0  0  0  0  0  0  0
   -1.9820   25.6760  -28.9620 O   0  0  0  0  0  0  0  0  0  0  0  0
   -2.5240   24.4860  -29.4040 C   0  0  0  0  0  0  0  0  0  0  0  0
   -2.1250   23.3220  -28.7510 C   0  0  0  0  0  0  0  0  0  0  0  0
   -2.6050   22.0760  -29.1070 C   0  0  0  0  0  0  0  0  0  0  0  0
   -2.1750   20.8640  -28.3930 C   0  0  0  0  0  0  0  0  0  0  0  0
   -2.9500   20.2820  -27.4040 C   0  0  0  0  0  0  0  0  0  0  0  0
   -2.5080   19.1470  -26.7560 C   0  0  0  0  0  0  0  0  0  0  0  0
   -1.2900   18.5660  -27.0750 C   0  0  0  0  0  0  0  0  0  0  0  0
   -0.5590   19.1330  -28.0220 N   0  0  0  0  0  0  0  0  0  0  0  0
   -0.9730   20.2380  -28.6630 C   0  0  0  0  0  0  0  0  0  0  0  0
   -3.4810   22.0460  -30.1220 N   0  0  0  0  0  0  0  0  0  0  0  0
   -3.8900   23.1420  -30.7770 C   0  0  0  0  0  0  0  0  0  0  0  0
   -4.7460   23.1670  -31.7220 N   0  0  0  0  0  0  0  0  0  0  0  0
   -5.3790   21.9960  -32.1480 C   0  0  0  0  0  0  0  0  0  0  0  0
   -4.8220   20.9660  -32.6060 O   0  0  0  0  0  0  0  0  0  0  0  0
   -6.8490   21.9240  -32.0630 C   0  0  0  0  0  0  0  0  0  0  0  0
   -7.6590   23.0180  -31.9560 C   0  0  0  0  0  0  0  0  0  0  0  0
   -9.0360   22.7900  -31.8980 C   0  0  0  0  0  0  0  0  0  0  0  0
   -9.5480   21.5040  -31.9480 C   0  0  0  0  0  0  0  0  0  0  0  0
   -8.7320   20.4050  -32.0550 C   0  0  0  0  0  0  0  0  0  0  0  0
   -7.3750   20.6320  -32.1130 C   0  0  0  0  0  0  0  0  0  0  0  0
   -3.3950   24.3560  -30.3990 N   0  0  0  0  0  0  0  0  0  0  0  0
   -1.9711   25.6763  -26.9048 H   0  0  0  0  0  0  0  0  0  0  0  0
   -0.6072   24.8159  -27.6961 H   0  0  0  0  0  0  0  0  0  0  0  0
   -0.6573   26.6114  -27.6961 H   0  0  0  0  0  0  0  0  0  0  0  0
   -1.4035   23.3972  -27.9241 H   0  0  0  0  0  0  0  0  0  0  0  0
   -3.9199   20.7254  -27.1345 H   0  0  0  0  0  0  0  0  0  0  0  0
   -3.1332   18.6947  -25.9720 H   0  0  0  0  0  0  0  0  0  0  0  0
   -0.9414   17.6607  -26.5565 H   0  0  0  0  0  0  0  0  0  0  0  0
   -0.3236   20.6657  -29.4410 H   0  0  0  0  0  0  0  0  0  0  0  0
   -3.8480   21.1430  -30.4170 H   0  0  0  0  0  0  0  0  0  0  0  0
   -7.2446   24.0362  -31.9171 H   0  0  0  0  0  0  0  0  0  0  0  0
   -9.7237   23.6442  -31.8114 H   0  0  0  0  0  0  0  0  0  0  0  0
  -10.6374   21.3593  -31.9007 H   0  0  0  0  0  0  0  0  0  0  0  0
   -9.1448   19.3861  -32.0928 H   0  0  0  0  0  0  0  0  0  0  0  0
   -6.6900   19.7758  -32.2007 H   0  0  0  0  0  0  0  0  0  0  0  0
  1  2  1  0
  2  3  1  0
  3  4  1  0
  4  5  2  0
  5  6  1  0
  6  7  2  0
  7  8  1  0
  8  9  2  0
  9 10  1  0
 10 11  2  0
  5 12  1  0
 12 13  1  0
 13 14  2  0
 14 15  1  0
 15 16  2  0
 15 17  1  0
 17 18  2  0
 18 19  1  0
 19 20  2  0
 20 21  1  0
 21 22  2  0
 13 23  1  0
 23  3  2  0
 11  6  1  0
 22 17  1  0
  1 24  1  0
  1 25  1  0
  1 26  1  0
  4 27  1  0
  7 28  1  0
  8 29  1  0
  9 30  1  0
 11 31  1  0
 12 32  1  0
 18 33  1  0
 19 34  1  0
 20 35  1  0
 21 36  1  0
 22 37  1  0
M  END
>  <smiles>  (48) 
COc1cc(-c2cccnc2)[nH]c(=NC(=O)c2ccccc2)n1

>  <score_type>  (48) 
oracle

>  <origin>  (48) 
adg

>  <m_score__min__energy>  (48) 
-8.3900000000000006

>  <m_primary>  (48) 
energy

$$$$
