0:0
     RDKit          3D

 85 89  0  0  0  0  0  0  0  0999 V2000
   -3.3420   18.6370  -26.0190 C   0  0  0  0  0  0  0  0  0  0  0  0
   -2.7280   19.5870  -27.0460 C   0  0  0  0  0  0  0  0  0  0  0  0
   -1.2810   19.7560  -26.7760 N   0  0  0  0  0  0  0  0  0  0  0  0
   -0.8520   21.1490  -27.0260 C   0  0  0  0  0  0  0  0  0  0  0  0
   -0.7420   21.9190  -25.7130 C   0  0  0  0  0  0  0  0  0  0  0  0
   -0.4540   18.7800  -27.5290 C   0  0  0  0  0  0  0  0  0  0  0  0
    0.8200   19.4600  -28.0430 C   0  0  0  0  0  0  0  0  0  0  0  0
    1.0100   19.2290  -29.4750 N   0  0  0  0  0  0  0  0  0  0  0  0
   -0.0530   19.2180  -30.4500 C   0  0  0  0  0  0  0  0  0  0  0  0
   -0.2150   18.1620  -31.3640 C   0  0  0  0  0  0  0  0  0  0  0  0
   -1.2510   18.1880  -32.2990 C   0  0  0  0  0  0  0  0  0  0  0  0
   -2.1540   19.2630  -32.3400 C   0  0  0  0  0  0  0  0  0  0  0  0
   -3.2340   19.2890  -33.3570 C   0  0  0  0  0  0  0  0  0  0  0  0
   -3.1690   20.1040  -34.3180 O   0  0  0  0  0  0  0  0  0  0  0  0
   -4.4150   18.4100  -33.2660 C   0  0  0  0  0  0  0  0  0  0  0  0
   -5.6920   18.8680  -32.9000 C   0  0  0  0  0  0  0  0  0  0  0  0
   -6.0440   20.2190  -32.4110 C   0  0  0  0  0  0  0  0  0  0  0  0
   -7.3310   20.4920  -31.9240 C   0  0  0  0  0  0  0  0  0  0  0  0
   -7.6560   21.7680  -31.4580 C   0  0  0  0  0  0  0  0  0  0  0  0
   -6.7110   22.7950  -31.5000 C   0  0  0  0  0  0  0  0  0  0  0  0
   -7.0420   24.1190  -30.9510 C   0  0  0  0  0  0  0  0  0  0  0  0
   -6.1690   24.9530  -30.3680 C   0  0  0  0  0  0  0  0  0  0  0  0
   -4.7800   24.6460  -29.9530 C   0  0  0  0  0  0  0  0  0  0  0  0
   -3.8450   25.3130  -30.4780 O   0  0  0  0  0  0  0  0  0  0  0  0
   -4.4140   23.4840  -29.0640 C   0  0  0  0  0  0  0  0  0  0  0  0
   -3.2440   23.7380  -28.1390 C   0  0  0  0  0  0  0  0  0  0  0  0
   -2.1040   23.3470  -28.5070 O   0  0  0  0  0  0  0  0  0  0  0  0
   -3.3460   24.5150  -26.8800 C   0  0  0  0  0  0  0  0  0  0  0  0
   -4.4500   25.0080  -26.5300 O   0  0  0  0  0  0  0  0  0  0  0  0
   -2.2250   24.6350  -25.9910 N   0  0  0  0  0  0  0  0  0  0  0  0
   -1.4470   25.8220  -25.7820 C   0  0  0  0  0  0  0  0  0  0  0  0
   -1.4910   26.4830  -24.5420 C   0  0  0  0  0  0  0  0  0  0  0  0
   -0.6950   27.6020  -24.3040 C   0  0  0  0  0  0  0  0  0  0  0  0
    0.1650   28.0680  -25.2940 C   0  0  0  0  0  0  0  0  0  0  0  0
    0.2370   27.4120  -26.5230 C   0  0  0  0  0  0  0  0  0  0  0  0
   -0.5650   26.2850  -26.7900 C   0  0  0  0  0  0  0  0  0  0  0  0
   -0.4820   25.6420  -28.0800 N   0  0  0  0  0  0  0  0  0  0  0  0
   -1.2560   25.9780  -29.0010 O   0  0  0  0  0  0  0  0  0  0  0  0
    0.3530   24.5700  -28.2920 O   0  0  0  0  0  0  0  0  0  0  0  0
   -5.4230   22.5320  -31.9930 C   0  0  0  0  0  0  0  0  0  0  0  0
   -5.0950   21.2530  -32.4530 C   0  0  0  0  0  0  0  0  0  0  0  0
   -6.7980   17.5950  -33.0500 S   0  0  0  0  0  0  0  0  0  0  0  0
   -5.6750   16.4700  -33.5830 C   0  0  0  0  0  0  0  0  0  0  0  0
   -5.9050   15.1450  -33.9530 C   0  0  0  0  0  0  0  0  0  0  0  0
   -4.8190   14.3900  -34.4170 C   0  0  0  0  0  0  0  0  0  0  0  0
   -3.5380   14.9670  -34.5020 C   0  0  0  0  0  0  0  0  0  0  0  0
   -3.3300   16.3040  -34.1260 C   0  0  0  0  0  0  0  0  0  0  0  0
   -4.4190   17.0550  -33.6540 C   0  0  0  0  0  0  0  0  0  0  0  0
   -1.9920   20.3180  -31.4270 C   0  0  0  0  0  0  0  0  0  0  0  0
   -0.9540   20.2930  -30.4920 C   0  0  0  0  0  0  0  0  0  0  0  0
   -3.1109   18.9945  -25.0047 H   0  0  0  0  0  0  0  0  0  0  0  0
   -4.4329   18.6038  -26.1564 H   0  0  0  0  0  0  0  0  0  0  0  0
   -2.9243   17.6287  -26.1564 H   0  0  0  0  0  0  0  0  0  0  0  0
   -2.8644   19.1707  -28.0550 H   0  0  0  0  0  0  0  0  0  0  0  0
   -3.2257   20.5655  -26.9766 H   0  0  0  0  0  0  0  0  0  0  0  0
    0.1286   21.1417  -27.5245 H   0  0  0  0  0  0  0  0  0  0  0  0
   -1.5992   21.6417  -27.6655 H   0  0  0  0  0  0  0  0  0  0  0  0
   -0.8418   21.2207  -24.8690 H   0  0  0  0  0  0  0  0  0  0  0  0
    0.2366   22.4186  -25.6618 H   0  0  0  0  0  0  0  0  0  0  0  0
   -1.5416   22.6727  -25.6618 H   0  0  0  0  0  0  0  0  0  0  0  0
   -0.1799   17.9463  -26.8658 H   0  0  0  0  0  0  0  0  0  0  0  0
   -1.0318   18.4009  -28.3848 H   0  0  0  0  0  0  0  0  0  0  0  0
    0.7453   20.5425  -27.8623 H   0  0  0  0  0  0  0  0  0  0  0  0
    1.6801   19.0322  -27.5071 H   0  0  0  0  0  0  0  0  0  0  0  0
    1.9870   19.0480  -29.8010 H   0  0  0  0  0  0  0  0  0  0  0  0
    0.4796   17.3093  -31.3421 H   0  0  0  0  0  0  0  0  0  0  0  0
   -1.3615   17.3574  -33.0116 H   0  0  0  0  0  0  0  0  0  0  0  0
   -8.0896   19.6955  -31.9090 H   0  0  0  0  0  0  0  0  0  0  0  0
   -8.6609   21.9647  -31.0561 H   0  0  0  0  0  0  0  0  0  0  0  0
   -8.0881   24.4509  -31.0246 H   0  0  0  0  0  0  0  0  0  0  0  0
   -6.5225   25.9770  -30.1769 H   0  0  0  0  0  0  0  0  0  0  0  0
   -5.2903   23.2354  -28.4473 H   0  0  0  0  0  0  0  0  0  0  0  0
   -4.1085   22.6660  -29.7329 H   0  0  0  0  0  0  0  0  0  0  0  0
   -2.1606   26.1132  -23.7515 H   0  0  0  0  0  0  0  0  0  0  0  0
   -0.7465   28.1170  -23.3334 H   0  0  0  0  0  0  0  0  0  0  0  0
    0.7887   28.9546  -25.1072 H   0  0  0  0  0  0  0  0  0  0  0  0
    0.9296   27.7798  -27.2944 H   0  0  0  0  0  0  0  0  0  0  0  0
   -4.6703   23.3338  -32.0174 H   0  0  0  0  0  0  0  0  0  0  0  0
   -4.0882   21.0558  -32.8499 H   0  0  0  0  0  0  0  0  0  0  0  0
   -6.9106   14.7048  -33.8826 H   0  0  0  0  0  0  0  0  0  0  0  0
   -4.9685   13.3420  -34.7160 H   0  0  0  0  0  0  0  0  0  0  0  0
   -2.6922   14.3653  -34.8662 H   0  0  0  0  0  0  0  0  0  0  0  0
   -2.3299   16.7560  -34.2000 H   0  0  0  0  0  0  0  0  0  0  0  0
   -2.6873   21.1701  -31.4482 H   0  0  0  0  0  0  0  0  0  0  0  0
   -0.8419   21.1250  -29.7812 H   0  0  0  0  0  0  0  0  0  0  0  0
  1  2  1  0
  2  3  1  0
  3  4  1  0
  4  5  1  0
  3  6  1  0
  6  7  1  0
  7  8  1  0
  8  9  1  0
  9 10  2  0
 10 11  1  0
 11 12  2  0
 12 13  1  0
 13 14  2  0
 13 15  1  0
 15 16  2  0
 16 17  1  0
 17 18  2  0
 18 19  1  0
 19 20  2  0
 20 21  1  0
 21 22  2  3
 22 23  1  0
 23 24  2  0
 23 25  1  0
 25 26  1  0
 26 27  2  0
 26 28  1  0
 28 29  2  0
 28 30  1  0
 30 31  1  0
 31 32  2  0
 32 33  1  0
 33 34  2  0
 34 35  1  0
 35 36  2  0
 36 37  1  0
 37 38  2  0
 37 39  1  0
 20 40  1  0
 40 41  2  0
 16 42  1  0
 42 43  1  0
 43 44  2  0
 44 45  1  0
 45 46  2  0
 46 47  1  0
 47 48  2  0
 12 49  1  0
 49 50  2  0
 50  9  1  0
 48 15  1  0
 41 17  1  0
 48 43  1  0
 36 31  1  0
  1 51  1  0
  1 52  1  0
  1 53  1  0
  2 54  1  0
  2 55  1  0
  4 56  1  0
  4 57  1  0
  5 58  1  0
  5 59  1  0
  5 60  1  0
  6 61  1  0
  6 62  1  0
  7 63  1  0
  7 64  1  0
  8 65  1  0
 10 66  1  0
 11 67  1  0
 18 68  1  0
 19 69  1  0
 21 70  1  0
 22 71  1  0
 25 72  1  0
 25 73  1  0
 32 74  1  0
 33 75  1  0
 34 76  1  0
 35 77  1  0
 40 78  1  0
 41 79  1  0
 44 80  1  0
 45 81  1  0
 46 82  1  0
 47 83  1  0
 49 84  1  0
 50 85  1  0
M  CHG  3  30  -1  37   1  39  -1
M  END
>  <UniqueID>  (1) 
1

>  <SMILES>  (1) 
CCN(CC)CCNc1ccc(C(=O)c2c(-c3ccc(C=CC(=O)CC(=O)C(=O)[N-]c4ccccc4[N+](=O)[O-])cc3)sc3ccccc23)cc1

>  <Energy>  (1) 
150.77973238008974

>  <Genealogy>  (1) 
CCN(CC)CCNc1ccc(C(=O)c2c(-c3ccc(C=CC(=O)CC(=O)C(=O)[N-]c4ccccc4[N+](=O)[O-])cc3)sc3ccccc23)cc1 (protonated)
CCN(CC)CCNc1ccc(C(=O)c2c(-c3ccc(C=CC(=O)CC(=O)C(=O)[N-]c4ccccc4[N+](=O)[O-])cc3)sc3ccccc23)cc1 (3D coordinates assigned)
CCN(CC)CCNc1ccc(C(=O)c2c(-c3ccc(C=CC(=O)CC(=O)C(=O)[N-]c4ccccc4[N+](=O)[O-])cc3)sc3ccccc23)cc1 (optimized conformer: 150.77973238008974 kcal/mol)

>  <smiles>  (1) 
CCN(CC)CCNc1ccc(C(=O)c2c(-c3ccc(C=CC(=O)CC(=O)C(=O)Nc4ccccc4[N+](=O)[O-])cc3)sc3ccccc23)cc1

>  <score_type>  (1) 
oracle

>  <origin>  (1) 
adg

>  <m_score__min__energy>  (1) 
-13.789999999999999

>  <m_primary>  (1) 
energy

$$$$
1:0
     RDKit          3D

 59 62  0  0  0  0  0  0  0  0999 V2000
   -0.8030   21.7200  -27.7160 C   0  0  0  0  0  0  0  0  0  0  0  0
   -0.9410   22.6050  -28.8230 O   0  0  0  0  0  0  0  0  0  0  0  0
   -2.1240   22.8130  -29.5450 C   0  0  0  0  0  0  0  0  0  0  0  0
   -2.8350   21.7290  -30.0990 C   0  0  0  0  0  0  0  0  0  0  0  0
   -4.0250   21.9350  -30.8030 C   0  0  0  0  0  0  0  0  0  0  0  0
   -4.7360   20.7850  -31.3980 C   0  0  0  0  0  0  0  0  0  0  0  0
   -6.0820   20.6430  -31.3340 N   0  0  0  0  0  0  0  0  0  0  0  0
   -6.3110   19.4750  -31.9700 C   0  0  0  0  0  0  0  0  0  0  0  0
   -7.5610   18.8950  -32.1780 C   0  0  0  0  0  0  0  0  0  0  0  0
   -7.6100   17.6850  -32.8880 C   0  0  0  0  0  0  0  0  0  0  0  0
   -6.4260   17.0930  -33.3660 C   0  0  0  0  0  0  0  0  0  0  0  0
   -5.1930   17.7160  -33.1230 C   0  0  0  0  0  0  0  0  0  0  0  0
   -5.1910   18.8850  -32.4290 N   0  0  0  0  0  0  0  0  0  0  0  0
   -4.1790   19.6970  -32.0730 C   0  0  0  0  0  0  0  0  0  0  0  0
   -2.8240   19.5660  -32.5430 N   0  0  0  0  0  0  0  0  0  0  0  0
   -2.6190   20.3900  -33.7410 C   0  0  0  0  0  0  0  0  0  0  0  0
   -1.6070   21.5170  -33.4590 C   0  0  0  0  0  0  0  0  0  0  0  0
   -0.2690   21.0230  -33.0520 N   0  0  0  0  0  0  0  0  0  0  0  0
   -0.0840   20.8650  -31.5890 C   0  0  0  0  0  0  0  0  0  0  0  0
    0.1550   19.4050  -31.1810 C   0  0  0  0  0  0  0  0  0  0  0  0
   -0.6050   18.5490  -32.0030 O   0  0  0  0  0  0  0  0  0  0  0  0
   -0.0460   18.5150  -33.3010 C   0  0  0  0  0  0  0  0  0  0  0  0
    0.2680   19.9180  -33.8780 C   0  0  0  0  0  0  0  0  0  0  0  0
   -4.4930   23.2390  -30.9950 C   0  0  0  0  0  0  0  0  0  0  0  0
   -3.8100   24.3350  -30.4430 C   0  0  0  0  0  0  0  0  0  0  0  0
   -4.2720   25.6510  -30.6020 O   0  0  0  0  0  0  0  0  0  0  0  0
   -5.6240   26.0630  -30.4260 C   0  0  0  0  0  0  0  0  0  0  0  0
   -2.6240   24.1290  -29.7190 C   0  0  0  0  0  0  0  0  0  0  0  0
   -1.9890   25.2770  -29.2090 O   0  0  0  0  0  0  0  0  0  0  0  0
   -1.4790   25.4470  -27.8920 C   0  0  0  0  0  0  0  0  0  0  0  0
   -0.8917   22.2887  -26.7786 H   0  0  0  0  0  0  0  0  0  0  0  0
   -1.5928   20.9554  -27.7571 H   0  0  0  0  0  0  0  0  0  0  0  0
    0.1821   21.2322  -27.7571 H   0  0  0  0  0  0  0  0  0  0  0  0
   -2.4479   20.7068  -29.9756 H   0  0  0  0  0  0  0  0  0  0  0  0
   -8.4782   19.3693  -31.7987 H   0  0  0  0  0  0  0  0  0  0  0  0
   -8.5786   17.1971  -33.0717 H   0  0  0  0  0  0  0  0  0  0  0  0
   -6.4673   16.1475  -33.9267 H   0  0  0  0  0  0  0  0  0  0  0  0
   -4.2539   17.2711  -33.4839 H   0  0  0  0  0  0  0  0  0  0  0  0
   -2.6390   18.5590  -32.7620 H   0  0  0  0  0  0  0  0  0  0  0  0
   -2.1530   19.8650  -31.8020 H   0  0  0  0  0  0  0  0  0  0  0  0
   -2.2363   19.7560  -34.5544 H   0  0  0  0  0  0  0  0  0  0  0  0
   -3.5800   20.8410  -34.0292 H   0  0  0  0  0  0  0  0  0  0  0  0
   -1.4928   22.1189  -34.3726 H   0  0  0  0  0  0  0  0  0  0  0  0
   -2.0040   22.1053  -32.6185 H   0  0  0  0  0  0  0  0  0  0  0  0
    0.7832   21.4651  -31.2763 H   0  0  0  0  0  0  0  0  0  0  0  0
   -1.0081   21.2025  -31.0969 H   0  0  0  0  0  0  0  0  0  0  0  0
    1.2227   19.1649  -31.2921 H   0  0  0  0  0  0  0  0  0  0  0  0
   -0.1490   19.2664  -30.1330 H   0  0  0  0  0  0  0  0  0  0  0  0
    0.8896   17.9378  -33.2617 H   0  0  0  0  0  0  0  0  0  0  0  0
   -0.7944   18.0543  -33.9625 H   0  0  0  0  0  0  0  0  0  0  0  0
    1.3600   20.0314  -33.9460 H   0  0  0  0  0  0  0  0  0  0  0  0
   -0.2168   19.9817  -34.8634 H   0  0  0  0  0  0  0  0  0  0  0  0
   -5.4060   23.4080  -31.5848 H   0  0  0  0  0  0  0  0  0  0  0  0
   -5.8495   26.1317  -29.3515 H   0  0  0  0  0  0  0  0  0  0  0  0
   -5.7715   27.0469  -30.8953 H   0  0  0  0  0  0  0  0  0  0  0  0
   -6.2952   25.3286  -30.8953 H   0  0  0  0  0  0  0  0  0  0  0  0
   -2.2584   25.1872  -27.1606 H   0  0  0  0  0  0  0  0  0  0  0  0
   -0.6081   24.7906  -27.7485 H   0  0  0  0  0  0  0  0  0  0  0  0
   -1.1761   26.4947  -27.7485 H   0  0  0  0  0  0  0  0  0  0  0  0
  1  2  1  0
  2  3  1  0
  3  4  2  0
  4  5  1  0
  5  6  1  0
  6  7  1  0
  7  8  2  0
  8  9  1  0
  9 10  2  0
 10 11  1  0
 11 12  2  0
 12 13  1  0
 13 14  1  0
 14 15  1  0
 15 16  1  0
 16 17  1  0
 17 18  1  0
 18 19  1  0
 19 20  1  0
 20 21  1  0
 21 22  1  0
 22 23  1  0
  5 24  2  0
 24 25  1  0
 25 26  1  0
 26 27  1  0
 25 28  2  0
 28 29  1  0
 29 30  1  0
 28  3  1  0
 14  6  2  0
 23 18  1  0
 13  8  1  0
  1 31  1  0
  1 32  1  0
  1 33  1  0
  4 34  1  0
  9 35  1  0
 10 36  1  0
 11 37  1  0
 12 38  1  0
 15 39  1  0
 15 40  1  0
 16 41  1  0
 16 42  1  0
 17 43  1  0
 17 44  1  0
 19 45  1  0
 19 46  1  0
 20 47  1  0
 20 48  1  0
 22 49  1  0
 22 50  1  0
 23 51  1  0
 23 52  1  0
 24 53  1  0
 27 54  1  0
 27 55  1  0
 27 56  1  0
 30 57  1  0
 30 58  1  0
 30 59  1  0
M  CHG  1  15   1
M  END
>  <UniqueID>  (2) 
2

>  <SMILES>  (2) 
COc1cc(-c2nc3ccccn3c2[NH2+]CCN2CCOCC2)cc(OC)c1OC

>  <Energy>  (2) 
118.28952384226558

>  <Genealogy>  (2) 
COc1cc(-c2nc3ccccn3c2[NH2+]CCN2CCOCC2)cc(OC)c1OC (protonated)
COc1cc(-c2nc3ccccn3c2[NH2+]CCN2CCOCC2)cc(OC)c1OC (3D coordinates assigned)
COc1cc(-c2nc3ccccn3c2[NH2+]CCN2CCOCC2)cc(OC)c1OC (nonaromatic ring conformer: 118.28952384226558 kcal/mol)

>  <smiles>  (2) 
COc1cc(-c2nc3ccccn3c2NCCN2CCOCC2)cc(OC)c1OC

>  <score_type>  (2) 
oracle

>  <origin>  (2) 
adg

>  <m_score__min__energy>  (2) 
-7.4199999999999999

>  <m_primary>  (2) 
energy

$$$$
2:0
     RDKit          3D

 45 47  0  0  0  0  0  0  0  0999 V2000
   -1.0490   25.9330  -28.1650 C   0  0  0  0  0  0  0  0  0  0  0  0
   -1.7050   25.3260  -29.2730 O   0  0  0  0  0  0  0  0  0  0  0  0
   -2.0570   23.9690  -29.3480 C   0  0  0  0  0  0  0  0  0  0  0  0
   -1.2450   23.0300  -30.0180 C   0  0  0  0  0  0  0  0  0  0  0  0
   -1.6260   21.6870  -30.0890 C   0  0  0  0  0  0  0  0  0  0  0  0
   -2.8180   21.2660  -29.4990 C   0  0  0  0  0  0  0  0  0  0  0  0
   -3.6320   22.1830  -28.8330 C   0  0  0  0  0  0  0  0  0  0  0  0
   -3.2550   23.5340  -28.7400 C   0  0  0  0  0  0  0  0  0  0  0  0
   -4.1850   24.5060  -28.0570 C   0  0  0  0  0  0  0  0  0  0  0  0
   -5.3700   24.7140  -28.8840 N   0  0  0  0  0  0  0  0  0  0  0  0
   -5.2870   24.8980  -30.3040 C   0  0  0  0  0  0  0  0  0  0  0  0
   -4.2160   25.3020  -30.8330 O   0  0  0  0  0  0  0  0  0  0  0  0
   -6.4580   24.5540  -31.1710 C   0  0  0  0  0  0  0  0  0  0  0  0
   -6.0980   23.3830  -32.0910 C   0  0  0  0  0  0  0  0  0  0  0  0
   -5.8570   22.1020  -31.2890 C   0  0  0  0  0  0  0  0  0  0  0  0
   -5.4040   21.0330  -32.1800 N   0  0  0  0  0  0  0  0  0  0  0  0
   -4.3200   21.0280  -32.9960 C   0  0  0  0  0  0  0  0  0  0  0  0
   -3.4830   21.9690  -33.0520 O   0  0  0  0  0  0  0  0  0  0  0  0
   -4.2360   19.9380  -33.7400 O   0  0  0  0  0  0  0  0  0  0  0  0
   -5.2850   19.2160  -33.4250 C   0  0  0  0  0  0  0  0  0  0  0  0
   -5.6750   17.9820  -33.9370 C   0  0  0  0  0  0  0  0  0  0  0  0
   -6.8720   17.4230  -33.4490 C   0  0  0  0  0  0  0  0  0  0  0  0
   -7.6370   18.1050  -32.4740 C   0  0  0  0  0  0  0  0  0  0  0  0
   -7.2110   19.3500  -31.9730 C   0  0  0  0  0  0  0  0  0  0  0  0
   -6.0180   19.8720  -32.4750 C   0  0  0  0  0  0  0  0  0  0  0  0
   -1.4725   25.5411  -27.2285 H   0  0  0  0  0  0  0  0  0  0  0  0
    0.0262   25.7042  -28.2052 H   0  0  0  0  0  0  0  0  0  0  0  0
   -1.1938   27.0227  -28.2052 H   0  0  0  0  0  0  0  0  0  0  0  0
   -0.3056   23.3569  -30.4878 H   0  0  0  0  0  0  0  0  0  0  0  0
   -0.9851   20.9611  -30.6108 H   0  0  0  0  0  0  0  0  0  0  0  0
   -3.1168   20.2091  -29.5589 H   0  0  0  0  0  0  0  0  0  0  0  0
   -4.5751   21.8464  -28.3777 H   0  0  0  0  0  0  0  0  0  0  0  0
   -4.4869   24.0992  -27.0806 H   0  0  0  0  0  0  0  0  0  0  0  0
   -3.6677   25.4659  -27.9121 H   0  0  0  0  0  0  0  0  0  0  0  0
   -6.3020   24.5020  -28.4610 H   0  0  0  0  0  0  0  0  0  0  0  0
   -7.3110   24.2709  -30.5368 H   0  0  0  0  0  0  0  0  0  0  0  0
   -6.7247   25.4278  -31.7837 H   0  0  0  0  0  0  0  0  0  0  0  0
   -6.9246   23.2141  -32.7968 H   0  0  0  0  0  0  0  0  0  0  0  0
   -5.1729   23.6355  -32.6299 H   0  0  0  0  0  0  0  0  0  0  0  0
   -5.0885   22.2896  -30.5246 H   0  0  0  0  0  0  0  0  0  0  0  0
   -6.7964   21.7960  -30.8054 H   0  0  0  0  0  0  0  0  0  0  0  0
   -5.0705   17.4624  -34.6950 H   0  0  0  0  0  0  0  0  0  0  0  0
   -7.2145   16.4491  -33.8287 H   0  0  0  0  0  0  0  0  0  0  0  0
   -8.5721   17.6591  -32.1043 H   0  0  0  0  0  0  0  0  0  0  0  0
   -7.7963   19.8907  -31.2147 H   0  0  0  0  0  0  0  0  0  0  0  0
  1  2  1  0
  2  3  1  0
  3  4  2  0
  4  5  1  0
  5  6  2  0
  6  7  1  0
  7  8  2  0
  8  9  1  0
  9 10  1  0
 10 11  1  0
 11 12  2  0
 11 13  1  0
 13 14  1  0
 14 15  1  0
 15 16  1  0
 16 17  1  0
 17 18  2  0
 17 19  1  0
 19 20  1  0
 20 21  2  0
 21 22  1  0
 22 23  2  0
 23 24  1  0
 24 25  2  0
  8  3  1  0
 25 16  1  0
 25 20  1  0
  1 26  1  0
  1 27  1  0
  1 28  1  0
  4 29  1  0
  5 30  1  0
  6 31  1  0
  7 32  1  0
  9 33  1  0
  9 34  1  0
 10 35  1  0
 13 36  1  0
 13 37  1  0
 14 38  1  0
 14 39  1  0
 15 40  1  0
 15 41  1  0
 21 42  1  0
 22 43  1  0
 23 44  1  0
 24 45  1  0
M  END
>  <UniqueID>  (3) 
3

>  <SMILES>  (3) 
COc1ccccc1CNC(=O)CCCn1c(=O)oc2ccccc21

>  <Energy>  (3) 
79.16808833097731

>  <Genealogy>  (3) 
COc1ccccc1CNC(=O)CCCn1c(=O)oc2ccccc21 (3D coordinates assigned)
COc1ccccc1CNC(=O)CCCn1c(=O)oc2ccccc21 (optimized conformer: 79.16808833097731 kcal/mol)

>  <smiles>  (3) 
COc1ccccc1CNC(=O)CCCn1c(=O)oc2ccccc21

>  <score_type>  (3) 
oracle

>  <origin>  (3) 
adg

>  <m_score__min__energy>  (3) 
-9.8200000000000003

>  <m_primary>  (3) 
energy

$$$$
3:0
     RDKit          3D

 46 49  0  0  0  0  0  0  0  0999 V2000
   -3.9559   22.4990  -30.0659 H   0  0  0  0  0  0  0  0  0  0  0  0
   -3.3030   23.1250  -29.4400 C   0  0  0  0  0  0  0  0  0  0  0  0
   -2.5700   22.5470  -28.3930 C   0  0  0  0  0  0  0  0  0  0  0  0
   -2.6324   21.4692  -28.1821 H   0  0  0  0  0  0  0  0  0  0  0  0
   -1.7630   23.3820  -27.6320 C   0  0  0  0  0  0  0  0  0  0  0  0
   -0.7750   23.0160  -26.3280 S   0  0  0  0  0  0  0  0  0  0  0  0
   -0.2760   24.6320  -26.1540 C   0  0  0  0  0  0  0  0  0  0  0  0
    0.6640   25.1460  -25.1430 C   0  0  0  0  0  0  0  0  0  0  0  0
    1.9370   24.8170  -25.1170 O   0  0  0  0  0  0  0  0  0  0  0  0
    2.4820   25.4460  -24.1000 C   0  0  0  0  0  0  0  0  0  0  0  0
    3.9180   25.3220  -23.7170 C   0  0  0  0  0  0  0  0  0  0  0  0
    4.0057   25.3144  -22.6205 H   0  0  0  0  0  0  0  0  0  0  0  0
    4.3265   24.3852  -24.1240 H   0  0  0  0  0  0  0  0  0  0  0  0
    4.4810   26.1749  -24.1240 H   0  0  0  0  0  0  0  0  0  0  0  0
    1.5880   26.1960  -23.4280 N   0  0  0  0  0  0  0  0  0  0  0  0
    1.7590   26.7850  -22.5830 H   0  0  0  0  0  0  0  0  0  0  0  0
    0.4290   26.0140  -24.0850 C   0  0  0  0  0  0  0  0  0  0  0  0
   -0.8610   26.6610  -23.6890 C   0  0  0  0  0  0  0  0  0  0  0  0
   -0.9318   26.6965  -22.5919 H   0  0  0  0  0  0  0  0  0  0  0  0
   -0.8971   27.6839  -24.0920 H   0  0  0  0  0  0  0  0  0  0  0  0
   -1.7024   26.0782  -24.0920 H   0  0  0  0  0  0  0  0  0  0  0  0
   -0.8560   25.4400  -27.0770 N   0  0  0  0  0  0  0  0  0  0  0  0
   -1.6790   24.7350  -27.8930 C   0  0  0  0  0  0  0  0  0  0  0  0
   -2.3900   25.2910  -28.9070 N   0  0  0  0  0  0  0  0  0  0  0  0
   -3.2020   24.5120  -29.6900 C   0  0  0  0  0  0  0  0  0  0  0  0
   -3.8870   25.0350  -30.6610 N   0  0  0  0  0  0  0  0  0  0  0  0
   -5.2990   24.7530  -30.9140 C   0  0  0  0  0  0  0  0  0  0  0  0
   -5.7799   24.4395  -29.9757 H   0  0  0  0  0  0  0  0  0  0  0  0
   -5.7814   25.6632  -31.2998 H   0  0  0  0  0  0  0  0  0  0  0  0
   -5.4430   23.6290  -31.9590 C   0  0  0  0  0  0  0  0  0  0  0  0
   -5.5783   24.0958  -32.9458 H   0  0  0  0  0  0  0  0  0  0  0  0
   -4.5290   23.0214  -31.8848 H   0  0  0  0  0  0  0  0  0  0  0  0
   -6.5750   22.7030  -31.7300 N   0  0  0  0  0  0  0  0  0  0  0  0
   -6.3830   21.3780  -32.3540 C   0  0  0  0  0  0  0  0  0  0  0  0
   -6.1070   21.5135  -33.4102 H   0  0  0  0  0  0  0  0  0  0  0  0
   -5.5851   20.8469  -31.8144 H   0  0  0  0  0  0  0  0  0  0  0  0
   -7.6740   20.5420  -32.2730 C   0  0  0  0  0  0  0  0  0  0  0  0
   -8.2127   20.6142  -33.2293 H   0  0  0  0  0  0  0  0  0  0  0  0
   -7.4077   19.4949  -32.0662 H   0  0  0  0  0  0  0  0  0  0  0  0
   -8.5070   21.0170  -31.2320 O   0  0  0  0  0  0  0  0  0  0  0  0
   -9.0030   22.3060  -31.5560 C   0  0  0  0  0  0  0  0  0  0  0  0
   -9.7557   22.2030  -32.3516 H   0  0  0  0  0  0  0  0  0  0  0  0
   -9.4338   22.7348  -30.6392 H   0  0  0  0  0  0  0  0  0  0  0  0
   -7.8980   23.2680  -32.0440 C   0  0  0  0  0  0  0  0  0  0  0  0
   -7.9878   23.4066  -33.1315 H   0  0  0  0  0  0  0  0  0  0  0  0
   -8.0096   24.2382  -31.5379 H   0  0  0  0  0  0  0  0  0  0  0  0
  1  2  1  0
  2  3  2  0
  3  4  1  0
  3  5  1  0
  5  6  1  0
  6  7  1  0
  7  8  1  0
  8  9  1  0
  9 10  1  0
 10 11  1  0
 11 12  1  0
 11 13  1  0
 11 14  1  0
 10 15  2  0
 15 16  1  0
 15 17  1  0
 17 18  1  0
 18 19  1  0
 18 20  1  0
 18 21  1  0
  7 22  2  0
 22 23  1  0
 23 24  1  0
 24 25  1  0
 25 26  2  0
 26 27  1  0
 27 28  1  0
 27 29  1  0
 27 30  1  0
 30 31  1  0
 30 32  1  0
 30 33  1  0
 33 34  1  0
 34 35  1  0
 34 36  1  0
 34 37  1  0
 37 38  1  0
 37 39  1  0
 37 40  1  0
 40 41  1  0
 41 42  1  0
 41 43  1  0
 41 44  1  0
 44 45  1  0
 44 46  1  0
 25  2  1  0
 44 33  1  0
 23  5  2  0
 17  8  2  0
M  CHG  2  15   1  24  -1
M  END
>  <UniqueID>  (4) 
4

>  <SMILES>  (4) 
Cc1[nH+]c(C)c(-c2nc3[n-]/c(=N\CCN4CCOCC4)ccc3s2)o1

>  <Energy>  (4) 
124.97883683479648

>  <Genealogy>  (4) 
Cc1[nH+]c(C)c(-c2nc3[n-]c(=NCCN4CCOCC4)ccc3s2)o1 (protonated)
Cc1[nH+]c(C)c(-c2nc3[n-]/c(=N\CCN4CCOCC4)ccc3s2)o1 (cis-trans isomerization)
Cc1[nH+]c(C)c(-c2nc3[n-]/c(=N\CCN4CCOCC4)ccc3s2)o1 (3D coordinates assigned)
Cc1[nH+]c(C)c(-c2nc3[n-]/c(=N\CCN4CCOCC4)ccc3s2)o1 (nonaromatic ring conformer: 124.97883683479648 kcal/mol)

>  <smiles>  (4) 
Cc1nc(C)c(-c2nc3[nH]c(=NCCN4CCOCC4)ccc3s2)o1

>  <score_type>  (4) 
oracle

>  <origin>  (4) 
adg

>  <m_score__min__energy>  (4) 
-9.6899999999999995

>  <m_primary>  (4) 
energy

$$$$
4:0
     RDKit          3D

 49 52  0  0  0  0  0  0  0  0999 V2000
    0.3600   19.2120  -36.1070 C   0  0  0  0  0  0  0  0  0  0  0  0
    0.2970   18.2060  -34.9620 C   0  0  0  0  0  0  0  0  0  0  0  0
   -0.3770   18.7900  -33.7930 N   0  0  0  0  0  0  0  0  0  0  0  0
   -1.5460   18.0890  -33.2410 C   0  0  0  0  0  0  0  0  0  0  0  0
   -2.7150   18.1240  -34.2210 C   0  0  0  0  0  0  0  0  0  0  0  0
    0.1600   19.9930  -33.1870 C   0  0  0  0  0  0  0  0  0  0  0  0
    1.2680   20.4450  -33.5840 O   0  0  0  0  0  0  0  0  0  0  0  0
   -0.5570   20.7370  -32.1280 C   0  0  0  0  0  0  0  0  0  0  0  0
   -0.1230   20.8330  -30.8550 N   0  0  0  0  0  0  0  0  0  0  0  0
   -1.0900   21.5210  -30.2140 C   0  0  0  0  0  0  0  0  0  0  0  0
   -2.1190   21.8450  -31.0250 N   0  0  0  0  0  0  0  0  0  0  0  0
   -1.7880   21.3650  -32.2330 C   0  0  0  0  0  0  0  0  0  0  0  0
   -2.6520   21.5470  -33.4390 C   0  0  0  0  0  0  0  0  0  0  0  0
   -3.9340   20.9020  -33.1920 N   0  0  0  0  0  0  0  0  0  0  0  0
   -4.7830   21.2280  -32.2550 C   0  0  0  0  0  0  0  0  0  0  0  0
   -6.0300   20.4280  -32.1430 C   0  0  0  0  0  0  0  0  0  0  0  0
   -7.2740   20.9990  -32.4730 C   0  0  0  0  0  0  0  0  0  0  0  0
   -8.4480   20.2440  -32.3780 C   0  0  0  0  0  0  0  0  0  0  0  0
   -8.3930   18.9120  -31.9610 C   0  0  0  0  0  0  0  0  0  0  0  0
   -9.5320   18.1830  -31.8710 F   0  0  0  0  0  0  0  0  0  0  0  0
   -7.1630   18.3310  -31.6420 C   0  0  0  0  0  0  0  0  0  0  0  0
   -5.9880   19.0810  -31.7350 C   0  0  0  0  0  0  0  0  0  0  0  0
   -4.5430   22.3790  -31.3240 C   0  0  0  0  0  0  0  0  0  0  0  0
   -5.6280   23.2250  -31.0200 C   0  0  0  0  0  0  0  0  0  0  0  0
   -5.4910   24.2660  -30.0990 C   0  0  0  0  0  0  0  0  0  0  0  0
   -6.8620   25.2970  -29.7310 Cl  0  0  0  0  0  0  0  0  0  0  0  0
   -4.2670   24.4840  -29.4700 C   0  0  0  0  0  0  0  0  0  0  0  0
   -3.1740   23.6720  -29.7690 C   0  0  0  0  0  0  0  0  0  0  0  0
   -3.2870   22.6220  -30.6990 C   0  0  0  0  0  0  0  0  0  0  0  0
    0.4238   20.2307  -35.6969 H   0  0  0  0  0  0  0  0  0  0  0  0
    1.2472   19.0092  -36.7249 H   0  0  0  0  0  0  0  0  0  0  0  0
   -0.5456   19.1215  -36.7249 H   0  0  0  0  0  0  0  0  0  0  0  0
   -0.2597   17.3169  -35.2929 H   0  0  0  0  0  0  0  0  0  0  0  0
    1.3230   17.9300  -34.6771 H   0  0  0  0  0  0  0  0  0  0  0  0
   -1.2760   17.0418  -33.0398 H   0  0  0  0  0  0  0  0  0  0  0  0
   -1.8512   18.5926  -32.3119 H   0  0  0  0  0  0  0  0  0  0  0  0
   -3.6617   18.1523  -33.6616 H   0  0  0  0  0  0  0  0  0  0  0  0
   -2.6361   19.0202  -34.8540 H   0  0  0  0  0  0  0  0  0  0  0  0
   -2.6899   17.2247  -34.8540 H   0  0  0  0  0  0  0  0  0  0  0  0
   -1.0449   21.7885  -29.1480 H   0  0  0  0  0  0  0  0  0  0  0  0
   -2.8066   22.6199  -33.6259 H   0  0  0  0  0  0  0  0  0  0  0  0
   -2.1685   21.0987  -34.3195 H   0  0  0  0  0  0  0  0  0  0  0  0
   -7.3231   22.0457  -32.8077 H   0  0  0  0  0  0  0  0  0  0  0  0
   -9.4162   20.7002  -32.6322 H   0  0  0  0  0  0  0  0  0  0  0  0
   -7.1197   17.2810  -31.3170 H   0  0  0  0  0  0  0  0  0  0  0  0
   -5.0225   18.6156  -31.4876 H   0  0  0  0  0  0  0  0  0  0  0  0
   -6.5968   23.0633  -31.5152 H   0  0  0  0  0  0  0  0  0  0  0  0
   -4.1630   25.2975  -28.7369 H   0  0  0  0  0  0  0  0  0  0  0  0
   -2.2102   23.8545  -29.2712 H   0  0  0  0  0  0  0  0  0  0  0  0
  1  2  1  0
  2  3  1  0
  3  4  1  0
  4  5  1  0
  3  6  1  0
  6  7  2  0
  6  8  1  0
  8  9  1  0
  9 10  2  0
 10 11  1  0
 11 12  1  0
 12 13  1  0
 13 14  1  0
 14 15  2  0
 15 16  1  0
 16 17  2  0
 17 18  1  0
 18 19  2  0
 19 20  1  0
 19 21  1  0
 21 22  2  0
 15 23  1  0
 23 24  2  0
 24 25  1  0
 25 26  1  0
 25 27  2  0
 27 28  1  0
 28 29  2  0
 12  8  2  0
 22 16  1  0
 29 23  1  0
 29 11  1  0
  1 30  1  0
  1 31  1  0
  1 32  1  0
  2 33  1  0
  2 34  1  0
  4 35  1  0
  4 36  1  0
  5 37  1  0
  5 38  1  0
  5 39  1  0
 10 40  1  0
 13 41  1  0
 13 42  1  0
 17 43  1  0
 18 44  1  0
 21 45  1  0
 22 46  1  0
 24 47  1  0
 27 48  1  0
 28 49  1  0
M  END
>  <UniqueID>  (5) 
5

>  <SMILES>  (5) 
CCN(CC)C(=O)c1ncn2c1CN=C(c1ccc(F)cc1)c1cc(Cl)ccc1-2

>  <Energy>  (5) 
97.16984478570537

>  <Genealogy>  (5) 
CCN(CC)C(=O)c1ncn2c1CN=C(c1ccc(F)cc1)c1cc(Cl)ccc1-2 (3D coordinates assigned)
CCN(CC)C(=O)c1ncn2c1CN=C(c1ccc(F)cc1)c1cc(Cl)ccc1-2 (nonaromatic ring conformer: 97.16984478570537 kcal/mol)

>  <smiles>  (5) 
CCN(CC)C(=O)c1ncn2c1CN=C(c1ccc(F)cc1)c1cc(Cl)ccc1-2

>  <score_type>  (5) 
oracle

>  <origin>  (5) 
adg

>  <m_score__min__energy>  (5) 
-8.0099999999999998

>  <m_primary>  (5) 
energy

$$$$
5:0
     RDKit          3D

 37 38  0  0  0  0  0  0  0  0999 V2000
   -5.2370   18.0860  -34.3080 C   0  0  0  0  0  0  0  0  0  0  0  0
   -5.9010   19.1650  -33.5040 C   0  0  0  0  0  0  0  0  0  0  0  0
   -5.2220   20.3600  -33.2270 C   0  0  0  0  0  0  0  0  0  0  0  0
   -5.8540   21.3800  -32.5100 C   0  0  0  0  0  0  0  0  0  0  0  0
   -7.1750   21.2200  -32.0700 C   0  0  0  0  0  0  0  0  0  0  0  0
   -7.9760   22.5130  -31.1840 S   0  0  0  0  0  0  0  0  0  0  0  0
   -8.8040   23.3340  -32.1330 O   0  0  0  0  0  0  0  0  0  0  0  0
   -8.8810   21.9160  -30.1440 O   0  0  0  0  0  0  0  0  0  0  0  0
   -6.7310   23.5360  -30.4060 C   0  0  0  0  0  0  0  0  0  0  0  0
   -6.0870   24.5190  -31.3910 C   0  0  0  0  0  0  0  0  0  0  0  0
   -5.0660   25.3960  -30.7140 C   0  0  0  0  0  0  0  0  0  0  0  0
   -5.3670   26.5910  -30.4540 O   0  0  0  0  0  0  0  0  0  0  0  0
   -3.7250   24.9540  -30.4690 N   0  0  0  0  0  0  0  0  0  0  0  0
   -3.3410   23.8050  -29.7040 C   0  0  0  0  0  0  0  0  0  0  0  0
   -3.1070   22.5630  -30.3180 C   0  0  0  0  0  0  0  0  0  0  0  0
   -2.7610   21.4510  -29.5450 C   0  0  0  0  0  0  0  0  0  0  0  0
   -2.6650   21.5660  -28.1540 C   0  0  0  0  0  0  0  0  0  0  0  0
   -2.1920   20.0470  -27.0990 Br  0  0  0  0  0  0  0  0  0  0  0  0
   -2.9260   22.7940  -27.5360 C   0  0  0  0  0  0  0  0  0  0  0  0
   -3.2730   23.9070  -28.3080 C   0  0  0  0  0  0  0  0  0  0  0  0
   -7.8640   20.0370  -32.3680 C   0  0  0  0  0  0  0  0  0  0  0  0
   -7.2330   19.0160  -33.0840 C   0  0  0  0  0  0  0  0  0  0  0  0
   -4.7835   17.3491  -33.6288 H   0  0  0  0  0  0  0  0  0  0  0  0
   -5.9853   17.5882  -34.9423 H   0  0  0  0  0  0  0  0  0  0  0  0
   -4.4554   18.5297  -34.9423 H   0  0  0  0  0  0  0  0  0  0  0  0
   -4.1875   20.4955  -33.5754 H   0  0  0  0  0  0  0  0  0  0  0  0
   -5.3124   22.3119  -32.2902 H   0  0  0  0  0  0  0  0  0  0  0  0
   -7.2009   24.1076  -29.5920 H   0  0  0  0  0  0  0  0  0  0  0  0
   -5.9397   22.8729  -30.0264 H   0  0  0  0  0  0  0  0  0  0  0  0
   -5.5930   23.9493  -32.1918 H   0  0  0  0  0  0  0  0  0  0  0  0
   -6.8786   25.1651  -31.7983 H   0  0  0  0  0  0  0  0  0  0  0  0
   -3.1963   22.4655  -31.4100 H   0  0  0  0  0  0  0  0  0  0  0  0
   -2.5639   20.4841  -30.0311 H   0  0  0  0  0  0  0  0  0  0  0  0
   -2.8581   22.8839  -26.4418 H   0  0  0  0  0  0  0  0  0  0  0  0
   -3.4935   24.8666  -27.8175 H   0  0  0  0  0  0  0  0  0  0  0  0
   -8.9055   19.9113  -32.0372 H   0  0  0  0  0  0  0  0  0  0  0  0
   -7.7816   18.0921  -33.3195 H   0  0  0  0  0  0  0  0  0  0  0  0
  1  2  1  0
  2  3  2  0
  3  4  1  0
  4  5  2  0
  5  6  1  0
  6  7  2  0
  6  8  2  0
  6  9  1  0
  9 10  1  0
 10 11  1  0
 11 12  2  0
 11 13  1  0
 13 14  1  0
 14 15  2  0
 15 16  1  0
 16 17  2  0
 17 18  1  0
 17 19  1  0
 19 20  2  0
  5 21  1  0
 21 22  2  0
 22  2  1  0
 20 14  1  0
  1 23  1  0
  1 24  1  0
  1 25  1  0
  3 26  1  0
  4 27  1  0
  9 28  1  0
  9 29  1  0
 10 30  1  0
 10 31  1  0
 15 32  1  0
 16 33  1  0
 19 34  1  0
 20 35  1  0
 21 36  1  0
 22 37  1  0
M  CHG  1  13  -1
M  END
>  <UniqueID>  (6) 
6

>  <SMILES>  (6) 
Cc1ccc(S(=O)(=O)CCC(=O)[N-]c2ccc(Br)cc2)cc1

>  <Energy>  (6) 
36.384761372314074

>  <Genealogy>  (6) 
Cc1ccc(S(=O)(=O)CCC(=O)[N-]c2ccc(Br)cc2)cc1 (protonated)
Cc1ccc(S(=O)(=O)CCC(=O)[N-]c2ccc(Br)cc2)cc1 (3D coordinates assigned)
Cc1ccc(S(=O)(=O)CCC(=O)[N-]c2ccc(Br)cc2)cc1 (optimized conformer: 36.384761372314074 kcal/mol)

>  <smiles>  (6) 
Cc1ccc(S(=O)(=O)CCC(=O)Nc2ccc(Br)cc2)cc1

>  <score_type>  (6) 
oracle

>  <origin>  (6) 
adg

>  <m_score__min__energy>  (6) 
-11.109999999999999

>  <m_primary>  (6) 
energy

$$$$
6:0
     RDKit          3D

 45 47  0  0  0  0  0  0  0  0999 V2000
   -5.1580   25.6840  -30.5400 C   0  0  0  0  0  0  0  0  0  0  0  0
   -3.7890   25.2910  -30.4790 O   0  0  0  0  0  0  0  0  0  0  0  0
   -3.2340   24.4870  -29.4710 C   0  0  0  0  0  0  0  0  0  0  0  0
   -2.1130   24.9030  -28.7220 C   0  0  0  0  0  0  0  0  0  0  0  0
   -1.5640   24.0680  -27.7440 C   0  0  0  0  0  0  0  0  0  0  0  0
   -2.1250   22.8130  -27.5010 C   0  0  0  0  0  0  0  0  0  0  0  0
   -3.2370   22.3900  -28.2320 C   0  0  0  0  0  0  0  0  0  0  0  0
   -3.8030   23.2220  -29.2130 C   0  0  0  0  0  0  0  0  0  0  0  0
   -4.9570   22.7750  -29.9500 N   0  0  0  0  0  0  0  0  0  0  0  0
   -6.2970   23.0440  -29.4150 C   0  0  0  0  0  0  0  0  0  0  0  0
   -7.3520   22.2210  -30.1570 C   0  0  0  0  0  0  0  0  0  0  0  0
   -7.1980   22.4090  -31.6120 N   0  0  0  0  0  0  0  0  0  0  0  0
   -8.2890   21.7240  -32.3390 C   0  0  0  0  0  0  0  0  0  0  0  0
   -8.3350   20.2540  -32.0010 C   0  0  0  0  0  0  0  0  0  0  0  0
   -9.1310   19.8600  -31.1030 O   0  0  0  0  0  0  0  0  0  0  0  0
   -7.4310   19.2710  -32.6530 C   0  0  0  0  0  0  0  0  0  0  0  0
   -7.2700   17.9690  -32.1400 C   0  0  0  0  0  0  0  0  0  0  0  0
   -6.4230   17.0560  -32.7760 C   0  0  0  0  0  0  0  0  0  0  0  0
   -5.7320   17.4280  -33.9330 C   0  0  0  0  0  0  0  0  0  0  0  0
   -5.8890   18.7140  -34.4560 C   0  0  0  0  0  0  0  0  0  0  0  0
   -6.7330   19.6310  -33.8220 C   0  0  0  0  0  0  0  0  0  0  0  0
   -5.8550   22.0070  -32.1230 C   0  0  0  0  0  0  0  0  0  0  0  0
   -4.7930   21.7950  -31.0260 C   0  0  0  0  0  0  0  0  0  0  0  0
   -5.5528   25.7973  -29.5195 H   0  0  0  0  0  0  0  0  0  0  0  0
   -5.2410   26.6422  -31.0738 H   0  0  0  0  0  0  0  0  0  0  0  0
   -5.7366   24.9157  -31.0738 H   0  0  0  0  0  0  0  0  0  0  0  0
   -1.6677   25.8913  -28.9088 H   0  0  0  0  0  0  0  0  0  0  0  0
   -0.6893   24.4003  -27.1656 H   0  0  0  0  0  0  0  0  0  0  0  0
   -1.6905   22.1565  -26.7327 H   0  0  0  0  0  0  0  0  0  0  0  0
   -3.6729   21.3988  -28.0387 H   0  0  0  0  0  0  0  0  0  0  0  0
   -6.3189   22.7804  -28.3473 H   0  0  0  0  0  0  0  0  0  0  0  0
   -6.5232   24.1120  -29.5497 H   0  0  0  0  0  0  0  0  0  0  0  0
   -7.2249   21.1565  -29.9106 H   0  0  0  0  0  0  0  0  0  0  0  0
   -8.3547   22.5543  -29.8512 H   0  0  0  0  0  0  0  0  0  0  0  0
   -9.2486   22.1854  -32.0627 H   0  0  0  0  0  0  0  0  0  0  0  0
   -8.1044   21.8263  -33.4186 H   0  0  0  0  0  0  0  0  0  0  0  0
   -7.8144   17.6683  -31.2327 H   0  0  0  0  0  0  0  0  0  0  0  0
   -6.3002   16.0430  -32.3651 H   0  0  0  0  0  0  0  0  0  0  0  0
   -5.0652   16.7088  -34.4312 H   0  0  0  0  0  0  0  0  0  0  0  0
   -5.3477   19.0056  -35.3681 H   0  0  0  0  0  0  0  0  0  0  0  0
   -6.8527   20.6416  -34.2396 H   0  0  0  0  0  0  0  0  0  0  0  0
   -5.9668   21.0651  -32.6801 H   0  0  0  0  0  0  0  0  0  0  0  0
   -5.4968   22.8366  -32.7502 H   0  0  0  0  0  0  0  0  0  0  0  0
   -4.8999   20.7819  -30.6110 H   0  0  0  0  0  0  0  0  0  0  0  0
   -3.7950   21.9221  -31.4708 H   0  0  0  0  0  0  0  0  0  0  0  0
  1  2  1  0
  2  3  1  0
  3  4  2  0
  4  5  1  0
  5  6  2  0
  6  7  1  0
  7  8  2  0
  8  9  1  0
  9 10  1  0
 10 11  1  0
 11 12  1  0
 12 13  1  0
 13 14  1  0
 14 15  2  0
 14 16  1  0
 16 17  2  0
 17 18  1  0
 18 19  2  0
 19 20  1  0
 20 21  2  0
 12 22  1  0
 22 23  1  0
  8  3  1  0
 23  9  1  0
 21 16  1  0
  1 24  1  0
  1 25  1  0
  1 26  1  0
  4 27  1  0
  5 28  1  0
  6 29  1  0
  7 30  1  0
 10 31  1  0
 10 32  1  0
 11 33  1  0
 11 34  1  0
 13 35  1  0
 13 36  1  0
 17 37  1  0
 18 38  1  0
 19 39  1  0
 20 40  1  0
 21 41  1  0
 22 42  1  0
 22 43  1  0
 23 44  1  0
 23 45  1  0
M  END
>  <UniqueID>  (7) 
7

>  <SMILES>  (7) 
COc1ccccc1N1CCN(CC(=O)c2ccccc2)CC1

>  <Energy>  (7) 
59.58084431651984

>  <Genealogy>  (7) 
COc1ccccc1N1CCN(CC(=O)c2ccccc2)CC1 (3D coordinates assigned)
COc1ccccc1N1CCN(CC(=O)c2ccccc2)CC1 (nonaromatic ring conformer: 59.58084431651984 kcal/mol)

>  <smiles>  (7) 
COc1ccccc1N1CCN(CC(=O)c2ccccc2)CC1

>  <score_type>  (7) 
oracle

>  <origin>  (7) 
adg

>  <m_score__min__energy>  (7) 
-8.5500000000000007

>  <m_primary>  (7) 
energy

$$$$
7:0
     RDKit          3D

 45 47  0  0  0  0  0  0  0  0999 V2000
   -3.8610   16.7800  -35.6660 C   0  0  0  0  0  0  0  0  0  0  0  0
   -4.3370   16.9700  -34.3370 O   0  0  0  0  0  0  0  0  0  0  0  0
   -4.7170   18.2090  -33.7970 C   0  0  0  0  0  0  0  0  0  0  0  0
   -6.0480   18.4880  -33.4300 C   0  0  0  0  0  0  0  0  0  0  0  0
   -6.3870   19.7370  -32.8930 C   0  0  0  0  0  0  0  0  0  0  0  0
   -7.7050   20.0350  -32.5220 C   0  0  0  0  0  0  0  0  0  0  0  0
   -8.0210   21.2930  -31.9890 C   0  0  0  0  0  0  0  0  0  0  0  0
   -9.4400   21.6120  -31.6010 C   0  0  0  0  0  0  0  0  0  0  0  0
   -6.9890   22.2400  -31.8280 C   0  0  0  0  0  0  0  0  0  0  0  0
   -7.3030   23.8720  -31.1440 S   0  0  0  0  0  0  0  0  0  0  0  0
   -5.7620   23.8940  -30.1730 C   0  0  0  0  0  0  0  0  0  0  0  0
   -4.9060   25.0230  -30.6360 C   0  0  0  0  0  0  0  0  0  0  0  0
   -5.4390   26.0250  -31.1850 O   0  0  0  0  0  0  0  0  0  0  0  0
   -3.4880   24.9600  -30.4400 N   0  0  0  0  0  0  0  0  0  0  0  0
   -2.7260   23.7970  -30.0830 C   0  0  0  0  0  0  0  0  0  0  0  0
   -1.8050   23.7990  -29.0230 C   0  0  0  0  0  0  0  0  0  0  0  0
   -1.0730   22.6460  -28.7340 C   0  0  0  0  0  0  0  0  0  0  0  0
   -1.2590   21.5030  -29.5150 C   0  0  0  0  0  0  0  0  0  0  0  0
   -2.1370   21.5210  -30.5540 N   0  0  0  0  0  0  0  0  0  0  0  0
   -2.8600   22.6370  -30.8540 C   0  0  0  0  0  0  0  0  0  0  0  0
   -5.7180   21.9300  -32.2000 N   0  0  0  0  0  0  0  0  0  0  0  0
   -5.3930   20.7180  -32.7220 C   0  0  0  0  0  0  0  0  0  0  0  0
   -4.0710   20.4450  -33.0850 C   0  0  0  0  0  0  0  0  0  0  0  0
   -3.7260   19.1900  -33.6250 C   0  0  0  0  0  0  0  0  0  0  0  0
   -2.4090   18.8790  -34.0010 O   0  0  0  0  0  0  0  0  0  0  0  0
   -1.3820   19.8420  -34.2170 C   0  0  0  0  0  0  0  0  0  0  0  0
   -2.8398   16.3724  -35.6349 H   0  0  0  0  0  0  0  0  0  0  0  0
   -4.5208   16.0763  -36.1947 H   0  0  0  0  0  0  0  0  0  0  0  0
   -3.8549   17.7446  -36.1947 H   0  0  0  0  0  0  0  0  0  0  0  0
   -6.8252   17.7215  -33.5657 H   0  0  0  0  0  0  0  0  0  0  0  0
   -8.4944   19.2796  -32.6493 H   0  0  0  0  0  0  0  0  0  0  0  0
   -9.5248   21.6311  -30.5044 H   0  0  0  0  0  0  0  0  0  0  0  0
   -9.7191   22.5953  -32.0075 H   0  0  0  0  0  0  0  0  0  0  0  0
  -10.1130   20.8427  -32.0075 H   0  0  0  0  0  0  0  0  0  0  0  0
   -6.0006   24.0264  -29.1074 H   0  0  0  0  0  0  0  0  0  0  0  0
   -5.2255   22.9435  -30.3103 H   0  0  0  0  0  0  0  0  0  0  0  0
   -1.6605   24.7082  -28.4210 H   0  0  0  0  0  0  0  0  0  0  0  0
   -0.3566   22.6377  -27.8993 H   0  0  0  0  0  0  0  0  0  0  0  0
   -0.6943   20.5863  -29.2895 H   0  0  0  0  0  0  0  0  0  0  0  0
   -2.2580   20.6620  -31.1350 H   0  0  0  0  0  0  0  0  0  0  0  0
   -3.5534   22.6256  -31.7079 H   0  0  0  0  0  0  0  0  0  0  0  0
   -3.2961   21.2137  -32.9484 H   0  0  0  0  0  0  0  0  0  0  0  0
   -1.0029   20.1975  -33.2475 H   0  0  0  0  0  0  0  0  0  0  0  0
   -0.5606   19.3809  -34.7852 H   0  0  0  0  0  0  0  0  0  0  0  0
   -1.7893   20.6913  -34.7852 H   0  0  0  0  0  0  0  0  0  0  0  0
  1  2  1  0
  2  3  1  0
  3  4  2  0
  4  5  1  0
  5  6  2  0
  6  7  1  0
  7  8  1  0
  7  9  2  0
  9 10  1  0
 10 11  1  0
 11 12  1  0
 12 13  2  0
 12 14  1  0
 14 15  1  0
 15 16  2  0
 16 17  1  0
 17 18  2  0
 18 19  1  0
 19 20  2  0
  9 21  1  0
 21 22  2  0
 22 23  1  0
 23 24  2  0
 24 25  1  0
 25 26  1  0
 24  3  1  0
 22  5  1  0
 20 15  1  0
  1 27  1  0
  1 28  1  0
  1 29  1  0
  4 30  1  0
  6 31  1  0
  8 32  1  0
  8 33  1  0
  8 34  1  0
 11 35  1  0
 11 36  1  0
 16 37  1  0
 17 38  1  0
 18 39  1  0
 19 40  1  0
 20 41  1  0
 23 42  1  0
 26 43  1  0
 26 44  1  0
 26 45  1  0
M  CHG  2  14  -1  19   1
M  END
>  <UniqueID>  (8) 
8

>  <SMILES>  (8) 
COc1cc2cc(C)c(SCC(=O)[N-]c3ccc[nH+]c3)nc2cc1OC

>  <Energy>  (8) 
47.54496503866136

>  <Genealogy>  (8) 
COc1cc2cc(C)c(SCC(=O)[N-]c3ccc[nH+]c3)nc2cc1OC (protonated)
COc1cc2cc(C)c(SCC(=O)[N-]c3ccc[nH+]c3)nc2cc1OC (3D coordinates assigned)
COc1cc2cc(C)c(SCC(=O)[N-]c3ccc[nH+]c3)nc2cc1OC (optimized conformer: 47.54496503866136 kcal/mol)

>  <smiles>  (8) 
COc1cc2cc(C)c(SCC(=O)Nc3cccnc3)nc2cc1OC

>  <score_type>  (8) 
oracle

>  <origin>  (8) 
adg

>  <m_score__min__energy>  (8) 
-9.1799999999999997

>  <m_primary>  (8) 
energy

$$$$
8:0
     RDKit          3D

 40 41  0  0  0  0  0  0  0  0999 V2000
   -6.6007   14.3695  -35.1049 H   0  0  0  0  0  0  0  0  0  0  0  0
   -6.0840   14.6460  -34.1740 C   0  0  0  0  0  0  0  0  0  0  0  0
   -6.3610   15.7950  -33.6470 N   0  0  0  0  0  0  0  0  0  0  0  0
   -5.9960   17.0950  -34.1890 C   0  0  2  0  0  0  0  0  0  0  0  0
   -6.2946   17.1112  -35.2476 H   0  0  0  0  0  0  0  0  0  0  0  0
   -4.5010   17.3280  -34.1090 C   0  0  0  0  0  0  0  0  0  0  0  0
   -3.6560   16.7770  -35.0880 C   0  0  0  0  0  0  0  0  0  0  0  0
   -4.0821   16.1616  -35.8940 H   0  0  0  0  0  0  0  0  0  0  0  0
   -2.2780   17.0060  -35.0440 C   0  0  0  0  0  0  0  0  0  0  0  0
   -1.6232   16.5633  -35.8090 H   0  0  0  0  0  0  0  0  0  0  0  0
   -1.7300   17.7970  -34.0290 C   0  0  0  0  0  0  0  0  0  0  0  0
   -0.0000   18.0840  -33.9780 Cl  0  0  0  0  0  0  0  0  0  0  0  0
   -2.5620   18.3630  -33.0600 C   0  0  0  0  0  0  0  0  0  0  0  0
   -2.1314   18.9884  -32.2641 H   0  0  0  0  0  0  0  0  0  0  0  0
   -3.9410   18.1360  -33.1000 C   0  0  0  0  0  0  0  0  0  0  0  0
   -4.5924   18.5909  -32.3393 H   0  0  0  0  0  0  0  0  0  0  0  0
   -6.7150   18.1920  -33.4370 C   0  0  0  0  0  0  0  0  0  0  0  0
   -6.5380   19.5480  -33.7780 C   0  0  0  0  0  0  0  0  0  0  0  0
   -5.8409   19.8227  -34.5833 H   0  0  0  0  0  0  0  0  0  0  0  0
   -7.2430   20.5460  -33.0990 C   0  0  0  0  0  0  0  0  0  0  0  0
   -7.0917   21.6025  -33.3655 H   0  0  0  0  0  0  0  0  0  0  0  0
   -8.1400   20.2050  -32.0820 C   0  0  0  0  0  0  0  0  0  0  0  0
   -9.1040   21.5710  -31.1590 Br  0  0  0  0  0  0  0  0  0  0  0  0
   -8.3340   18.8620  -31.7460 C   0  0  0  0  0  0  0  0  0  0  0  0
   -9.0406   18.5926  -30.9472 H   0  0  0  0  0  0  0  0  0  0  0  0
   -7.6320   17.8610  -32.4230 C   0  0  0  0  0  0  0  0  0  0  0  0
   -7.7979   16.8057  -32.1608 H   0  0  0  0  0  0  0  0  0  0  0  0
   -5.0950   13.6570  -33.5930 C   0  0  0  0  0  0  0  0  0  0  0  0
   -4.3490   13.4055  -34.3613 H   0  0  0  0  0  0  0  0  0  0  0  0
   -5.6506   12.7622  -33.2757 H   0  0  0  0  0  0  0  0  0  0  0  0
   -4.3970   14.2120  -32.4090 N   0  0  0  0  0  0  0  0  0  0  0  0
   -4.7830   15.1560  -32.1760 H   0  0  0  0  0  0  0  0  0  0  0  0
   -4.6080   13.3390  -31.2420 C   0  0  0  0  0  0  0  0  0  0  0  0
   -4.4675   13.9205  -30.3189 H   0  0  0  0  0  0  0  0  0  0  0  0
   -5.6301   12.9332  -31.2677 H   0  0  0  0  0  0  0  0  0  0  0  0
   -3.8841   12.5112  -31.2677 H   0  0  0  0  0  0  0  0  0  0  0  0
   -2.9510   14.3600  -32.6650 C   0  0  0  0  0  0  0  0  0  0  0  0
   -2.4128   14.4151  -31.7072 H   0  0  0  0  0  0  0  0  0  0  0  0
   -2.5898   13.4941  -33.2393 H   0  0  0  0  0  0  0  0  0  0  0  0
   -2.7727   15.2811  -33.2393 H   0  0  0  0  0  0  0  0  0  0  0  0
  1  2  1  0
  2  3  2  0
  3  4  1  0
  4  5  1  6
  4  6  1  0
  6  7  2  0
  7  8  1  0
  7  9  1  0
  9 10  1  0
  9 11  2  0
 11 12  1  0
 11 13  1  0
 13 14  1  0
 13 15  2  0
 15 16  1  0
  4 17  1  0
 17 18  2  0
 18 19  1  0
 18 20  1  0
 20 21  1  0
 20 22  2  0
 22 23  1  0
 22 24  1  0
 24 25  1  0
 24 26  2  0
 26 27  1  0
  2 28  1  0
 28 29  1  0
 28 30  1  0
 28 31  1  0
 31 32  1  0
 31 33  1  0
 33 34  1  0
 33 35  1  0
 33 36  1  0
 31 37  1  0
 37 38  1  0
 37 39  1  0
 37 40  1  0
 15  6  1  0
 26 17  1  0
M  CHG  1  31   1
M  END
>  <UniqueID>  (9) 
9

>  <SMILES>  (9) 
C[NH+](C)C/C=N\[C@H](c1ccc(Cl)cc1)c1ccc(Br)cc1

>  <Energy>  (9) 
41.16497662725121

>  <Genealogy>  (9) 
C[NH+](C)CC=NC(c1ccc(Cl)cc1)c1ccc(Br)cc1 (protonated)
C[NH+](C)CC=N[C@H](c1ccc(Cl)cc1)c1ccc(Br)cc1 (chirality)
C[NH+](C)C/C=N\[C@H](c1ccc(Cl)cc1)c1ccc(Br)cc1 (cis-trans isomerization)
C[NH+](C)C/C=N\[C@H](c1ccc(Cl)cc1)c1ccc(Br)cc1 (3D coordinates assigned)
C[NH+](C)C/C=N\[C@H](c1ccc(Cl)cc1)c1ccc(Br)cc1 (optimized conformer: 41.16497662725121 kcal/mol)

>  <smiles>  (9) 
CN(C)CC=NC(c1ccc(Cl)cc1)c1ccc(Br)cc1

>  <score_type>  (9) 
oracle

>  <origin>  (9) 
adg

>  <m_score__min__energy>  (9) 
-6.5999999999999996

>  <m_primary>  (9) 
energy

$$$$
9:0
     RDKit          3D

 31 32  0  0  0  0  0  0  0  0999 V2000
   -6.1580   17.4710  -31.9790 C   0  0  0  0  0  0  0  0  0  0  0  0
   -7.1770   18.5010  -32.1670 N   0  0  0  0  0  0  0  0  0  0  0  0
   -8.4300   18.4620  -31.6750 C   0  0  0  0  0  0  0  0  0  0  0  0
   -9.0910   19.6350  -31.9820 C   0  0  0  0  0  0  0  0  0  0  0  0
   -8.2000   20.4240  -32.6810 C   0  0  0  0  0  0  0  0  0  0  0  0
   -7.0250   19.7010  -32.7700 C   0  0  0  0  0  0  0  0  0  0  0  0
   -5.7730   20.1700  -33.4690 C   0  0  0  0  0  0  0  0  0  0  0  0
   -5.4000   21.5370  -33.0700 N   0  0  0  0  0  0  0  0  0  0  0  0
   -4.9390   21.6010  -31.6740 C   0  0  0  0  0  0  0  0  0  0  0  0
   -5.0950   22.9980  -31.1320 C   0  0  0  0  0  0  0  0  0  0  0  0
   -6.3690   23.5560  -30.9540 C   0  0  0  0  0  0  0  0  0  0  0  0
   -6.4980   24.8640  -30.4850 C   0  0  0  0  0  0  0  0  0  0  0  0
   -5.3500   25.6080  -30.2070 C   0  0  0  0  0  0  0  0  0  0  0  0
   -4.1200   25.0600  -30.3990 N   0  0  0  0  0  0  0  0  0  0  0  0
   -3.9680   23.7870  -30.8540 C   0  0  0  0  0  0  0  0  0  0  0  0
   -5.9961   17.3074  -30.9033 H   0  0  0  0  0  0  0  0  0  0  0  0
   -6.4938   16.5334  -32.4461 H   0  0  0  0  0  0  0  0  0  0  0  0
   -5.2169   17.7967  -32.4461 H   0  0  0  0  0  0  0  0  0  0  0  0
   -8.8624   17.6213  -31.1126 H   0  0  0  0  0  0  0  0  0  0  0  0
  -10.1281   19.8912  -31.7199 H   0  0  0  0  0  0  0  0  0  0  0  0
   -8.3876   21.4290  -33.0869 H   0  0  0  0  0  0  0  0  0  0  0  0
   -4.9478   19.4881  -33.2158 H   0  0  0  0  0  0  0  0  0  0  0  0
   -5.9679   20.1724  -34.5516 H   0  0  0  0  0  0  0  0  0  0  0  0
   -4.6230   21.8550  -33.6970 H   0  0  0  0  0  0  0  0  0  0  0  0
   -6.2140   22.1830  -33.2030 H   0  0  0  0  0  0  0  0  0  0  0  0
   -5.5351   20.9069  -31.0634 H   0  0  0  0  0  0  0  0  0  0  0  0
   -3.8760   21.3208  -31.6365 H   0  0  0  0  0  0  0  0  0  0  0  0
   -7.2664   22.9629  -31.1840 H   0  0  0  0  0  0  0  0  0  0  0  0
   -7.4948   25.3046  -30.3358 H   0  0  0  0  0  0  0  0  0  0  0  0
   -5.4402   26.6383  -29.8324 H   0  0  0  0  0  0  0  0  0  0  0  0
   -2.9592   23.3750  -31.0044 H   0  0  0  0  0  0  0  0  0  0  0  0
  1  2  1  0
  2  3  1  0
  3  4  2  0
  4  5  1  0
  5  6  2  0
  6  7  1  0
  7  8  1  0
  8  9  1  0
  9 10  1  0
 10 11  2  0
 11 12  1  0
 12 13  2  0
 13 14  1  0
 14 15  2  0
  6  2  1  0
 15 10  1  0
  1 16  1  0
  1 17  1  0
  1 18  1  0
  3 19  1  0
  4 20  1  0
  5 21  1  0
  7 22  1  0
  7 23  1  0
  8 24  1  0
  8 25  1  0
  9 26  1  0
  9 27  1  0
 11 28  1  0
 12 29  1  0
 13 30  1  0
 15 31  1  0
M  CHG  1   8   1
M  END
>  <UniqueID>  (10) 
10

>  <SMILES>  (10) 
Cn1cccc1C[NH2+]Cc1cccnc1

>  <Energy>  (10) 
55.48628281330961

>  <Genealogy>  (10) 
Cn1cccc1C[NH2+]Cc1cccnc1 (protonated)
Cn1cccc1C[NH2+]Cc1cccnc1 (3D coordinates assigned)
Cn1cccc1C[NH2+]Cc1cccnc1 (optimized conformer: 55.48628281330961 kcal/mol)

>  <smiles>  (10) 
Cn1cccc1CNCc1cccnc1

>  <score_type>  (10) 
oracle

>  <origin>  (10) 
adg

>  <m_score__min__energy>  (10) 
-5.7699999999999996

>  <m_primary>  (10) 
energy

$$$$
10:0
     RDKit          3D

 51 53  0  0  1  0  0  0  0  0999 V2000
   -1.6880   21.1530  -33.1220 C   0  0  0  0  0  0  0  0  0  0  0  0
   -2.0430   19.9780  -32.3540 N   0  0  0  0  0  0  0  0  0  0  0  0
   -1.3750   18.8230  -32.9160 C   0  0  0  0  0  0  0  0  0  0  0  0
   -1.4360   20.1710  -31.0280 C   0  0  0  0  0  0  0  0  0  0  0  0
   -3.4660   19.7960  -32.2460 C   0  0  0  0  0  0  0  0  0  0  0  0
   -4.2700   20.7510  -33.1080 C   0  0  0  0  0  0  0  0  0  0  0  0
   -5.6270   20.9030  -32.7130 N   0  0  0  0  0  0  0  0  0  0  0  0
   -8.3000   21.0550  -32.0880 C   0  0  0  0  0  0  0  0  0  0  0  0
   -6.2620   19.4940  -34.4010 O   0  0  0  0  0  0  0  0  0  0  0  0
   -7.8920   20.2980  -33.1170 N   0  0  0  0  0  0  0  0  0  0  0  0
   -6.5880   20.2290  -33.4150 C   0  0  0  0  0  0  0  0  0  0  0  0
   -9.5660   21.1330  -31.7830 N   0  0  0  0  0  0  0  0  0  0  0  0
   -7.3340   21.7350  -31.3800 C   0  0  0  0  0  0  0  0  0  0  0  0
   -7.4660   22.5310  -30.3290 N   0  0  0  0  0  0  0  0  0  0  0  0
   -6.2240   22.9630  -29.9670 C   0  0  0  0  0  0  0  0  0  0  0  0
   -5.2930   22.4540  -30.7770 N   0  0  0  0  0  0  0  0  0  0  0  0
   -3.8850   22.6530  -30.7280 C   0  0  2  0  0  0  0  0  0  0  0  0
   -3.4540   22.1050  -29.5290 O   0  0  0  0  0  0  0  0  0  0  0  0
   -2.8000   23.0170  -28.7720 C   0  0  1  0  0  0  0  0  0  0  0  0
   -1.2970   23.0150  -28.9510 C   0  0  0  0  0  0  0  0  0  0  0  0
   -0.9740   23.7410  -30.0870 O   0  0  0  0  0  0  0  0  0  0  0  0
   -3.3920   24.3740  -29.1300 C   0  0  1  0  0  0  0  0  0  0  0  0
   -2.4200   25.3590  -28.8980 O   0  0  0  0  0  0  0  0  0  0  0  0
   -3.6460   24.1610  -30.5810 C   0  0  2  0  0  0  0  0  0  0  0  0
   -4.5960   24.9400  -31.1710 O   0  0  0  0  0  0  0  0  0  0  0  0
   -5.9880   21.6810  -31.6650 C   0  0  0  0  0  0  0  0  0  0  0  0
   -1.4390   21.9771  -32.4373 H   0  0  0  0  0  0  0  0  0  0  0  0
   -0.8179   20.9275  -33.7561 H   0  0  0  0  0  0  0  0  0  0  0  0
   -2.5374   21.4470  -33.7561 H   0  0  0  0  0  0  0  0  0  0  0  0
   -1.0043   18.1820  -32.1026 H   0  0  0  0  0  0  0  0  0  0  0  0
   -2.0841   18.2551  -33.5362 H   0  0  0  0  0  0  0  0  0  0  0  0
   -0.5291   19.1544  -33.5362 H   0  0  0  0  0  0  0  0  0  0  0  0
   -2.1756   19.9358  -30.2484 H   0  0  0  0  0  0  0  0  0  0  0  0
   -0.5671   19.5048  -30.9220 H   0  0  0  0  0  0  0  0  0  0  0  0
   -1.1114   21.2167  -30.9220 H   0  0  0  0  0  0  0  0  0  0  0  0
   -3.7085   18.7667  -32.5490 H   0  0  0  0  0  0  0  0  0  0  0  0
   -3.7378   20.0006  -31.1999 H   0  0  0  0  0  0  0  0  0  0  0  0
   -3.7879   21.7389  -33.0675 H   0  0  0  0  0  0  0  0  0  0  0  0
   -4.2856   20.3205  -34.1201 H   0  0  0  0  0  0  0  0  0  0  0  0
   -8.5840   19.7620  -33.6860 H   0  0  0  0  0  0  0  0  0  0  0  0
   -9.8200   21.7440  -30.9660 H   0  0  0  0  0  0  0  0  0  0  0  0
   -6.0178   23.6381  -29.1234 H   0  0  0  0  0  0  0  0  0  0  0  0
   -3.3864   22.2258  -31.6106 H   0  0  0  0  0  0  0  0  0  0  0  0
   -2.9410   22.7659  -27.7104 H   0  0  0  0  0  0  0  0  0  0  0  0
   -0.8209   23.4748  -28.0724 H   0  0  0  0  0  0  0  0  0  0  0  0
   -0.9381   21.9807  -29.0580 H   0  0  0  0  0  0  0  0  0  0  0  0
   -0.6350   24.6540  -29.8670 H   0  0  0  0  0  0  0  0  0  0  0  0
   -4.2811   24.6981  -28.5692 H   0  0  0  0  0  0  0  0  0  0  0  0
   -1.9990   25.6760  -29.7500 H   0  0  0  0  0  0  0  0  0  0  0  0
   -2.7716   24.5051  -31.1528 H   0  0  0  0  0  0  0  0  0  0  0  0
   -4.2460   25.7060  -31.6770 H   0  0  0  0  0  0  0  0  0  0  0  0
  1  2  1  0
  2  3  1  0
  2  4  1  0
  2  5  1  0
  5  6  1  0
  6  7  1  0
  7  8  1  0
  8  9  2  0
  8 10  1  0
 10 11  1  0
 11 12  2  3
 11 13  1  0
 13 14  1  0
 14 15  2  0
 15 16  1  0
 16 17  1  0
 17 18  1  0
 18 19  1  0
 19 20  1  0
 20 21  1  0
 19 22  1  0
 22 23  1  0
 22 24  1  0
 24 25  1  0
 16 26  1  0
 26  7  1  0
 26 13  2  0
 24 17  1  0
  1 27  1  0
  1 28  1  0
  1 29  1  0
  3 30  1  0
  3 31  1  0
  3 32  1  0
  4 33  1  0
  4 34  1  0
  4 35  1  0
  5 36  1  0
  5 37  1  0
  6 38  1  0
  6 39  1  0
 10 40  1  0
 12 41  1  0
 15 42  1  0
 17 43  1  6
 19 44  1  1
 20 45  1  0
 20 46  1  0
 21 47  1  0
 22 48  1  1
 23 49  1  0
 24 50  1  6
 25 51  1  0
M  CHG  1   2   1
M  END
>  <smiles>  (11) 
C[N+](C)(C)CCn1c(=O)[nH]c(=N)c2ncn(C3OC(CO)C(O)C3O)c21

>  <score_type>  (11) 
oracle

>  <origin>  (11) 
adg

>  <m_score__min__energy>  (11) 
-6.6299999999999999

>  <m_primary>  (11) 
energy

$$$$
11:0
     RDKit          3D

 38 39  0  0  0  0  0  0  0  0999 V2000
   -4.0058   23.4464  -27.9838 H   0  0  0  0  0  0  0  0  0  0  0  0
   -3.1360   24.1130  -27.8880 C   0  0  0  0  0  0  0  0  0  0  0  0
   -2.5150   24.2100  -26.7500 N   0  0  0  0  0  0  0  0  0  0  0  0
   -2.6010   25.2950  -25.8940 O   0  0  0  0  0  0  0  0  0  0  0  0
   -1.6180   26.3260  -25.8210 C   0  0  0  0  0  0  0  0  0  0  0  0
   -2.0549   27.2738  -26.1685 H   0  0  0  0  0  0  0  0  0  0  0  0
   -0.7615   26.0602  -26.4580 H   0  0  0  0  0  0  0  0  0  0  0  0
   -1.1490   26.4820  -24.3830 C   0  0  0  0  0  0  0  0  0  0  0  0
   -1.9665   26.2101  -23.6991 H   0  0  0  0  0  0  0  0  0  0  0  0
   -0.2871   25.8222  -24.2048 H   0  0  0  0  0  0  0  0  0  0  0  0
   -0.8541   27.5266  -24.2048 H   0  0  0  0  0  0  0  0  0  0  0  0
   -2.6770   24.8940  -29.0490 C   0  0  0  0  0  0  0  0  0  0  0  0
   -1.5210   25.3930  -29.0460 O   0  0  0  0  0  0  0  0  0  0  0  0
   -3.4920   25.0420  -30.2190 N   0  0  0  0  0  0  0  0  0  0  0  0
   -4.6750   24.2920  -30.5290 C   0  0  0  0  0  0  0  0  0  0  0  0
   -5.8840   24.9270  -30.8660 C   0  0  0  0  0  0  0  0  0  0  0  0
   -5.9405   26.0255  -30.8791 H   0  0  0  0  0  0  0  0  0  0  0  0
   -7.0130   24.1690  -31.1840 C   0  0  0  0  0  0  0  0  0  0  0  0
   -7.9600   24.6735  -31.4264 H   0  0  0  0  0  0  0  0  0  0  0  0
   -6.9460   22.7660  -31.1960 C   0  0  0  0  0  0  0  0  0  0  0  0
   -8.1730   21.9500  -31.4940 C   0  0  0  0  0  0  0  0  0  0  0  0
   -8.7601   21.8259  -30.5721 H   0  0  0  0  0  0  0  0  0  0  0  0
   -8.7749   22.4696  -32.2542 H   0  0  0  0  0  0  0  0  0  0  0  0
   -7.7790   20.5960  -32.0190 C   0  0  0  0  0  0  0  0  0  0  0  0
   -8.3540   19.4330  -31.4810 C   0  0  0  0  0  0  0  0  0  0  0  0
   -9.0730   19.5105  -30.6522 H   0  0  0  0  0  0  0  0  0  0  0  0
   -8.0160   18.1760  -31.9950 C   0  0  0  0  0  0  0  0  0  0  0  0
   -8.4642   17.2678  -31.5656 H   0  0  0  0  0  0  0  0  0  0  0  0
   -7.1090   18.0740  -33.0540 C   0  0  0  0  0  0  0  0  0  0  0  0
   -6.8422   17.0855  -33.4562 H   0  0  0  0  0  0  0  0  0  0  0  0
   -6.5410   19.2280  -33.6020 C   0  0  0  0  0  0  0  0  0  0  0  0
   -5.8283   19.1469  -34.4360 H   0  0  0  0  0  0  0  0  0  0  0  0
   -6.8780   20.4850  -33.0910 C   0  0  0  0  0  0  0  0  0  0  0  0
   -6.4356   21.3912  -33.5304 H   0  0  0  0  0  0  0  0  0  0  0  0
   -5.7330   22.1350  -30.8780 C   0  0  0  0  0  0  0  0  0  0  0  0
   -5.6708   21.0368  -30.8791 H   0  0  0  0  0  0  0  0  0  0  0  0
   -4.6040   22.8950  -30.5600 C   0  0  0  0  0  0  0  0  0  0  0  0
   -3.6529   22.3913  -30.3325 H   0  0  0  0  0  0  0  0  0  0  0  0
  1  2  1  0
  2  3  2  0
  3  4  1  0
  4  5  1  0
  5  6  1  0
  5  7  1  0
  5  8  1  0
  8  9  1  0
  8 10  1  0
  8 11  1  0
  2 12  1  0
 12 13  2  0
 12 14  1  0
 14 15  1  0
 15 16  2  0
 16 17  1  0
 16 18  1  0
 18 19  1  0
 18 20  2  0
 20 21  1  0
 21 22  1  0
 21 23  1  0
 21 24  1  0
 24 25  2  0
 25 26  1  0
 25 27  1  0
 27 28  1  0
 27 29  2  0
 29 30  1  0
 29 31  1  0
 31 32  1  0
 31 33  2  0
 33 34  1  0
 20 35  1  0
 35 36  1  0
 35 37  2  0
 37 38  1  0
 37 15  1  0
 33 24  1  0
M  CHG  1  14  -1
M  END
>  <UniqueID>  (12) 
11

>  <SMILES>  (12) 
CCO/N=C/C(=O)[N-]c1ccc(Cc2ccccc2)cc1

>  <Energy>  (12) 
37.04108050197817

>  <Genealogy>  (12) 
CCON=CC(=O)[N-]c1ccc(Cc2ccccc2)cc1 (protonated)
CCO/N=C/C(=O)[N-]c1ccc(Cc2ccccc2)cc1 (cis-trans isomerization)
CCO/N=C/C(=O)[N-]c1ccc(Cc2ccccc2)cc1 (3D coordinates assigned)
CCO/N=C/C(=O)[N-]c1ccc(Cc2ccccc2)cc1 (optimized conformer: 37.04108050197817 kcal/mol)

>  <smiles>  (12) 
CCON=CC(=O)Nc1ccc(Cc2ccccc2)cc1

>  <score_type>  (12) 
oracle

>  <origin>  (12) 
adg

>  <m_score__min__energy>  (12) 
-9.4299999999999997

>  <m_primary>  (12) 
energy

$$$$
12:0
     RDKit          3D

 46 48  0  0  0  0  0  0  0  0999 V2000
   -6.5040   25.5220  -29.4650 C   0  0  0  0  0  0  0  0  0  0  0  0
   -5.3970   25.7800  -30.4830 C   0  0  0  0  0  0  0  0  0  0  0  0
   -4.7270   24.5130  -30.8580 N   0  0  0  0  0  0  0  0  0  0  0  0
   -3.5720   24.2450  -29.9690 C   0  0  0  0  0  0  0  0  0  0  0  0
   -3.9260   23.1550  -28.9600 C   0  0  0  0  0  0  0  0  0  0  0  0
   -5.6820   23.3790  -30.8460 C   0  0  0  0  0  0  0  0  0  0  0  0
   -6.0140   22.9430  -32.2780 C   0  0  0  0  0  0  0  0  0  0  0  0
   -6.0560   21.4800  -32.3700 N   0  0  0  0  0  0  0  0  0  0  0  0
   -5.0280   20.5790  -32.4150 C   0  0  0  0  0  0  0  0  0  0  0  0
   -3.5840   20.8940  -32.4220 C   0  0  0  0  0  0  0  0  0  0  0  0
   -2.6980   20.7960  -33.4810 C   0  0  0  0  0  0  0  0  0  0  0  0
   -1.4660   21.1620  -32.9810 C   0  0  0  0  0  0  0  0  0  0  0  0
   -1.6770   21.4560  -31.6510 C   0  0  0  0  0  0  0  0  0  0  0  0
   -0.6280   21.8760  -30.6760 C   0  0  0  0  0  0  0  0  0  0  0  0
   -2.9400   21.2800  -31.3430 O   0  0  0  0  0  0  0  0  0  0  0  0
   -5.4700   19.2960  -32.4170 N   0  0  0  0  0  0  0  0  0  0  0  0
   -6.8070   19.3970  -32.3940 C   0  0  0  0  0  0  0  0  0  0  0  0
   -7.7480   18.3690  -32.3850 C   0  0  0  0  0  0  0  0  0  0  0  0
   -9.1070   18.7300  -32.3450 C   0  0  0  0  0  0  0  0  0  0  0  0
   -9.4850   20.0920  -32.3120 C   0  0  0  0  0  0  0  0  0  0  0  0
   -8.5090   21.1040  -32.3190 C   0  0  0  0  0  0  0  0  0  0  0  0
   -7.1670   20.7130  -32.3660 C   0  0  0  0  0  0  0  0  0  0  0  0
   -6.0962   25.6171  -28.4478 H   0  0  0  0  0  0  0  0  0  0  0  0
   -7.3108   26.2562  -29.6067 H   0  0  0  0  0  0  0  0  0  0  0  0
   -6.9031   24.5068  -29.6067 H   0  0  0  0  0  0  0  0  0  0  0  0
   -5.8332   26.2383  -31.3829 H   0  0  0  0  0  0  0  0  0  0  0  0
   -4.6532   26.4549  -30.0343 H   0  0  0  0  0  0  0  0  0  0  0  0
   -2.7156   23.9149  -30.5753 H   0  0  0  0  0  0  0  0  0  0  0  0
   -3.3146   25.1667  -29.4266 H   0  0  0  0  0  0  0  0  0  0  0  0
   -3.7993   23.5451  -27.9393 H   0  0  0  0  0  0  0  0  0  0  0  0
   -4.9711   22.8448  -29.1069 H   0  0  0  0  0  0  0  0  0  0  0  0
   -3.2626   22.2899  -29.1069 H   0  0  0  0  0  0  0  0  0  0  0  0
   -5.2331   22.5331  -30.3047 H   0  0  0  0  0  0  0  0  0  0  0  0
   -6.6087   23.6989  -30.3471 H   0  0  0  0  0  0  0  0  0  0  0  0
   -6.9942   23.3524  -32.5635 H   0  0  0  0  0  0  0  0  0  0  0  0
   -5.2346   23.3210  -32.9559 H   0  0  0  0  0  0  0  0  0  0  0  0
   -2.9295   20.4887  -34.5115 H   0  0  0  0  0  0  0  0  0  0  0  0
   -0.5135   21.2094  -33.5292 H   0  0  0  0  0  0  0  0  0  0  0  0
   -0.9993   21.7274  -29.6513 H   0  0  0  0  0  0  0  0  0  0  0  0
    0.2780   21.2713  -30.8291 H   0  0  0  0  0  0  0  0  0  0  0  0
   -0.3896   22.9389  -30.8291 H   0  0  0  0  0  0  0  0  0  0  0  0
   -4.8990   18.4210  -32.4390 H   0  0  0  0  0  0  0  0  0  0  0  0
   -7.4392   17.3135  -32.4083 H   0  0  0  0  0  0  0  0  0  0  0  0
   -9.8804   17.9478  -32.3394 H   0  0  0  0  0  0  0  0  0  0  0  0
  -10.5509   20.3620  -32.2806 H   0  0  0  0  0  0  0  0  0  0  0  0
   -8.7912   22.1668  -32.2886 H   0  0  0  0  0  0  0  0  0  0  0  0
  1  2  1  0
  2  3  1  0
  3  4  1  0
  4  5  1  0
  3  6  1  0
  6  7  1  0
  7  8  1  0
  8  9  1  0
  9 10  1  0
 10 11  2  0
 11 12  1  0
 12 13  2  0
 13 14  1  0
 13 15  1  0
  9 16  2  0
 16 17  1  0
 17 18  2  0
 18 19  1  0
 19 20  2  0
 20 21  1  0
 21 22  2  0
 22  8  1  0
 15 10  1  0
 22 17  1  0
  1 23  1  0
  1 24  1  0
  1 25  1  0
  2 26  1  0
  2 27  1  0
  4 28  1  0
  4 29  1  0
  5 30  1  0
  5 31  1  0
  5 32  1  0
  6 33  1  0
  6 34  1  0
  7 35  1  0
  7 36  1  0
 11 37  1  0
 12 38  1  0
 14 39  1  0
 14 40  1  0
 14 41  1  0
 16 42  1  0
 18 43  1  0
 19 44  1  0
 20 45  1  0
 21 46  1  0
M  CHG  1  16   1
M  END
>  <UniqueID>  (13) 
12

>  <SMILES>  (13) 
CCN(CC)CCn1c(-c2ccc(C)o2)[nH+]c2ccccc21

>  <Energy>  (13) 
110.32677338355757

>  <Genealogy>  (13) 
CCN(CC)CCn1c(-c2ccc(C)o2)[nH+]c2ccccc21 (protonated)
CCN(CC)CCn1c(-c2ccc(C)o2)[nH+]c2ccccc21 (3D coordinates assigned)
CCN(CC)CCn1c(-c2ccc(C)o2)[nH+]c2ccccc21 (optimized conformer: 110.32677338355757 kcal/mol)

>  <smiles>  (13) 
CCN(CC)CCn1c(-c2ccc(C)o2)nc2ccccc21

>  <score_type>  (13) 
oracle

>  <origin>  (13) 
adg

>  <m_score__min__energy>  (13) 
-7.0599999999999996

>  <m_primary>  (13) 
energy

$$$$
13:0
     RDKit          3D

 27 28  0  0  0  0  0  0  0  0999 V2000
   -2.3750   22.7070  -29.4650 C   0  0  0  0  0  0  0  0  0  0  0  0
   -2.8520   22.7200  -30.9130 C   0  0  0  0  0  0  0  0  0  0  0  0
   -4.2720   23.0850  -30.9790 N   0  0  0  0  0  0  0  0  0  0  0  0
   -5.1540   22.1350  -31.3040 N   0  0  0  0  0  0  0  0  0  0  0  0
   -6.4890   22.3780  -31.4190 C   0  0  0  0  0  0  0  0  0  0  0  0
   -7.4050   21.2650  -31.7750 C   0  0  0  0  0  0  0  0  0  0  0  0
   -8.7830   21.4830  -31.9800 C   0  0  0  0  0  0  0  0  0  0  0  0
   -9.6250   20.4210  -32.3230 C   0  0  0  0  0  0  0  0  0  0  0  0
   -9.1060   19.1330  -32.4710 C   0  0  0  0  0  0  0  0  0  0  0  0
   -7.7410   18.9050  -32.2830 C   0  0  0  0  0  0  0  0  0  0  0  0
   -7.2380   17.6540  -32.4310 F   0  0  0  0  0  0  0  0  0  0  0  0
   -6.8940   19.9630  -31.9400 C   0  0  0  0  0  0  0  0  0  0  0  0
   -6.9550   23.6770  -31.1780 C   0  0  0  0  0  0  0  0  0  0  0  0
   -6.0460   24.6780  -30.8500 C   0  0  0  0  0  0  0  0  0  0  0  0
   -4.6900   24.3700  -30.7590 C   0  0  0  0  0  0  0  0  0  0  0  0
   -3.8650   25.2810  -30.4730 O   0  0  0  0  0  0  0  0  0  0  0  0
   -3.2449   22.7307  -28.7922 H   0  0  0  0  0  0  0  0  0  0  0  0
   -1.7924   21.7926  -29.2791 H   0  0  0  0  0  0  0  0  0  0  0  0
   -1.7435   23.5883  -29.2791 H   0  0  0  0  0  0  0  0  0  0  0  0
   -2.2622   23.4532  -31.4827 H   0  0  0  0  0  0  0  0  0  0  0  0
   -2.7208   21.7155  -31.3417 H   0  0  0  0  0  0  0  0  0  0  0  0
   -9.1983   22.4956  -31.8693 H   0  0  0  0  0  0  0  0  0  0  0  0
  -10.6993   20.6004  -32.4767 H   0  0  0  0  0  0  0  0  0  0  0  0
   -9.7720   18.2984  -32.7355 H   0  0  0  0  0  0  0  0  0  0  0  0
   -5.8192   19.7770  -31.7978 H   0  0  0  0  0  0  0  0  0  0  0  0
   -8.0292   23.9034  -31.2474 H   0  0  0  0  0  0  0  0  0  0  0  0
   -6.3950   25.7044  -30.6640 H   0  0  0  0  0  0  0  0  0  0  0  0
  1  2  1  0
  2  3  1  0
  3  4  1  0
  4  5  2  0
  5  6  1  0
  6  7  2  0
  7  8  1  0
  8  9  2  0
  9 10  1  0
 10 11  1  0
 10 12  2  0
  5 13  1  0
 13 14  2  0
 14 15  1  0
 15 16  2  0
 15  3  1  0
 12  6  1  0
  1 17  1  0
  1 18  1  0
  1 19  1  0
  2 20  1  0
  2 21  1  0
  7 22  1  0
  8 23  1  0
  9 24  1  0
 12 25  1  0
 13 26  1  0
 14 27  1  0
M  END
>  <UniqueID>  (14) 
13

>  <SMILES>  (14) 
CCn1nc(-c2cccc(F)c2)ccc1=O

>  <Energy>  (14) 
30.02524135917151

>  <Genealogy>  (14) 
CCn1nc(-c2cccc(F)c2)ccc1=O (3D coordinates assigned)
CCn1nc(-c2cccc(F)c2)ccc1=O (optimized conformer: 30.02524135917151 kcal/mol)

>  <smiles>  (14) 
CCn1nc(-c2cccc(F)c2)ccc1=O

>  <score_type>  (14) 
oracle

>  <origin>  (14) 
adg

>  <m_score__min__energy>  (14) 
-6.8700000000000001

>  <m_primary>  (14) 
energy

$$$$
14:0
     RDKit          3D

 50 53  0  0  0  0  0  0  0  0999 V2000
   -9.8383   19.1888  -32.4070 H   0  0  0  0  0  0  0  0  0  0  0  0
   -9.1150   20.0150  -32.3420 C   0  0  0  0  0  0  0  0  0  0  0  0
   -9.5210   21.2640  -31.8610 C   0  0  0  0  0  0  0  0  0  0  0  0
  -10.5614   21.4175  -31.5385 H   0  0  0  0  0  0  0  0  0  0  0  0
   -8.6040   22.3180  -31.7900 C   0  0  0  0  0  0  0  0  0  0  0  0
   -8.9214   23.2938  -31.3937 H   0  0  0  0  0  0  0  0  0  0  0  0
   -7.2840   22.1370  -32.2210 C   0  0  0  0  0  0  0  0  0  0  0  0
   -6.3490   23.2190  -32.0840 N   0  0  0  0  0  0  0  0  0  0  0  0
   -5.4940   23.4280  -31.1150 C   0  0  0  0  0  0  0  0  0  0  0  0
   -5.8440   24.1520  -29.9720 C   0  0  0  0  0  0  0  0  0  0  0  0
   -6.8649   24.5481  -29.8680 H   0  0  0  0  0  0  0  0  0  0  0  0
   -4.9130   24.3750  -28.9670 C   0  0  0  0  0  0  0  0  0  0  0  0
   -5.2160   24.9449  -28.0763 H   0  0  0  0  0  0  0  0  0  0  0  0
   -3.6230   23.9050  -29.0510 N   0  0  0  0  0  0  0  0  0  0  0  0
   -2.6120   24.2770  -28.0120 C   0  0  0  0  0  0  0  0  0  0  0  0
   -2.1877   23.2856  -27.7948 H   0  0  0  0  0  0  0  0  0  0  0  0
   -1.6140   25.3200  -28.5240 C   0  0  0  0  0  0  0  0  0  0  0  0
   -0.8131   24.8328  -29.0995 H   0  0  0  0  0  0  0  0  0  0  0  0
   -2.0980   26.0479  -29.1917 H   0  0  0  0  0  0  0  0  0  0  0  0
   -1.0380   25.9970  -27.2790 C   0  0  0  0  0  0  0  0  0  0  0  0
    0.0056   25.6849  -27.1261 H   0  0  0  0  0  0  0  0  0  0  0  0
   -1.0468   27.0920  -27.3836 H   0  0  0  0  0  0  0  0  0  0  0  0
   -1.9000   25.5500  -26.0990 C   0  0  0  0  0  0  0  0  0  0  0  0
   -1.3598   24.8153  -25.4838 H   0  0  0  0  0  0  0  0  0  0  0  0
   -2.1579   26.3906  -25.4381 H   0  0  0  0  0  0  0  0  0  0  0  0
   -3.1340   24.9190  -26.7200 C   0  0  0  0  0  0  0  0  0  0  0  0
   -3.5630   24.1584  -26.0510 H   0  0  0  0  0  0  0  0  0  0  0  0
   -3.9360   25.6491  -26.9039 H   0  0  0  0  0  0  0  0  0  0  0  0
   -3.2780   23.0880  -30.1220 C   0  0  0  0  0  0  0  0  0  0  0  0
   -2.0170   22.4420  -30.2010 C   0  0  0  0  0  0  0  0  0  0  0  0
   -1.3009   22.5636  -29.3749 H   0  0  0  0  0  0  0  0  0  0  0  0
   -1.6580   21.6510  -31.3060 C   0  0  0  0  0  0  0  0  0  0  0  0
   -0.4040   21.0240  -31.4010 O   0  0  0  0  0  0  0  0  0  0  0  0
   -0.1740   19.6310  -31.2120 C   0  0  0  0  0  0  0  0  0  0  0  0
   -0.1372   19.4082  -30.1354 H   0  0  0  0  0  0  0  0  0  0  0  0
   -0.9897   19.0582  -31.6773 H   0  0  0  0  0  0  0  0  0  0  0  0
    0.7826   19.3509  -31.6773 H   0  0  0  0  0  0  0  0  0  0  0  0
   -2.5620   21.4690  -32.3530 C   0  0  0  0  0  0  0  0  0  0  0  0
   -2.1650   20.6800  -33.4440 O   0  0  0  0  0  0  0  0  0  0  0  0
   -2.7620   19.4390  -33.8070 C   0  0  0  0  0  0  0  0  0  0  0  0
   -3.0303   18.8813  -32.8976 H   0  0  0  0  0  0  0  0  0  0  0  0
   -3.6678   19.6279  -34.4019 H   0  0  0  0  0  0  0  0  0  0  0  0
   -2.0490   18.8492  -34.4019 H   0  0  0  0  0  0  0  0  0  0  0  0
   -3.8290   22.0670  -32.2850 C   0  0  0  0  0  0  0  0  0  0  0  0
   -4.5426   21.9146  -33.1081 H   0  0  0  0  0  0  0  0  0  0  0  0
   -4.2050   22.8600  -31.1810 C   0  0  0  0  0  0  0  0  0  0  0  0
   -6.8720   20.8690  -32.6690 C   0  0  0  0  0  0  0  0  0  0  0  0
   -5.8252   20.7047  -32.9642 H   0  0  0  0  0  0  0  0  0  0  0  0
   -7.7900   19.8170  -32.7400 C   0  0  0  0  0  0  0  0  0  0  0  0
   -7.4690   18.8320  -33.1097 H   0  0  0  0  0  0  0  0  0  0  0  0
  1  2  1  0
  2  3  2  0
  3  4  1  0
  3  5  1  0
  5  6  1  0
  5  7  2  0
  7  8  1  0
  8  9  2  0
  9 10  1  0
 10 11  1  0
 10 12  2  0
 12 13  1  0
 12 14  1  0
 14 15  1  0
 15 16  1  0
 15 17  1  0
 17 18  1  0
 17 19  1  0
 17 20  1  0
 20 21  1  0
 20 22  1  0
 20 23  1  0
 23 24  1  0
 23 25  1  0
 23 26  1  0
 26 27  1  0
 26 28  1  0
 14 29  1  0
 29 30  2  0
 30 31  1  0
 30 32  1  0
 32 33  1  0
 33 34  1  0
 34 35  1  0
 34 36  1  0
 34 37  1  0
 32 38  2  0
 38 39  1  0
 39 40  1  0
 40 41  1  0
 40 42  1  0
 40 43  1  0
 38 44  1  0
 44 45  1  0
 44 46  2  0
  7 47  1  0
 47 48  1  0
 47 49  2  0
 49 50  1  0
 49  2  1  0
 46  9  1  0
 26 15  1  0
 46 29  1  0
M  END
>  <UniqueID>  (15) 
14

>  <SMILES>  (15) 
COc1cc2/c(=N/c3ccccc3)ccn(C3CCCC3)c2cc1OC

>  <Energy>  (15) 
81.90303348888932

>  <Genealogy>  (15) 
COc1cc2/c(=N/c3ccccc3)ccn(C3CCCC3)c2cc1OC (cis-trans isomerization)
COc1cc2/c(=N/c3ccccc3)ccn(C3CCCC3)c2cc1OC (3D coordinates assigned)
COc1cc2/c(=N/c3ccccc3)ccn(C3CCCC3)c2cc1OC (nonaromatic ring conformer: 81.90303348888932 kcal/mol)

>  <smiles>  (15) 
COc1cc2c(=Nc3ccccc3)ccn(C3CCCC3)c2cc1OC

>  <score_type>  (15) 
oracle

>  <origin>  (15) 
adg

>  <m_score__min__energy>  (15) 
-8.7200000000000006

>  <m_primary>  (15) 
energy

$$$$
15:0
     RDKit          3D

 43 44  0  0  0  0  0  0  0  0999 V2000
   -6.7920   25.2420  -30.0690 C   0  0  0  0  0  0  0  0  0  0  0  0
   -6.6070   23.7220  -29.9790 C   0  0  0  0  0  0  0  0  0  0  0  0
   -5.6400   23.1940  -30.9810 N   0  0  1  0  0  0  0  0  0  0  0  0
   -4.9070   22.0300  -30.4120 C   0  0  0  0  0  0  0  0  0  0  0  0
   -3.4190   21.9970  -30.8250 C   0  0  0  0  0  0  0  0  0  0  0  0
   -2.8510   23.3400  -30.9590 N   0  0  0  0  0  0  0  0  0  0  0  0
   -3.1180   24.4560  -30.0960 C   0  0  0  0  0  0  0  0  0  0  0  0
   -4.0360   25.2680  -30.4040 O   0  0  0  0  0  0  0  0  0  0  0  0
   -2.3810   24.6600  -28.8380 C   0  0  0  0  0  0  0  0  0  0  0  0
   -1.2290   25.4580  -28.8540 C   0  0  0  0  0  0  0  0  0  0  0  0
   -0.5070   25.6750  -27.6750 C   0  0  0  0  0  0  0  0  0  0  0  0
   -0.9120   25.0720  -26.4800 C   0  0  0  0  0  0  0  0  0  0  0  0
   -0.0070   25.3490  -24.9970 Cl  0  0  0  0  0  0  0  0  0  0  0  0
   -2.0400   24.2470  -26.4630 C   0  0  0  0  0  0  0  0  0  0  0  0
   -2.7820   24.0420  -27.6360 C   0  0  0  0  0  0  0  0  0  0  0  0
   -4.2190   23.0310  -27.5660 Cl  0  0  0  0  0  0  0  0  0  0  0  0
   -6.2640   22.8920  -32.3040 C   0  0  0  0  0  0  0  0  0  0  0  0
   -7.2390   21.7240  -32.3070 C   0  0  0  0  0  0  0  0  0  0  0  0
   -8.5900   21.9140  -31.9560 C   0  0  0  0  0  0  0  0  0  0  0  0
   -9.4860   20.8410  -31.9730 C   0  0  0  0  0  0  0  0  0  0  0  0
   -9.0500   19.5720  -32.3670 C   0  0  0  0  0  0  0  0  0  0  0  0
   -7.7200   19.3780  -32.7510 C   0  0  0  0  0  0  0  0  0  0  0  0
   -6.8190   20.4450  -32.7230 C   0  0  0  0  0  0  0  0  0  0  0  0
   -6.8436   25.6658  -29.0552 H   0  0  0  0  0  0  0  0  0  0  0  0
   -5.9410   25.6837  -30.6082 H   0  0  0  0  0  0  0  0  0  0  0  0
   -7.7241   25.4666  -30.6082 H   0  0  0  0  0  0  0  0  0  0  0  0
   -6.2404   23.4723  -28.9724 H   0  0  0  0  0  0  0  0  0  0  0  0
   -7.5827   23.2585  -30.1868 H   0  0  0  0  0  0  0  0  0  0  0  0
   -4.9340   23.9510  -31.1430 H   0  0  0  0  0  0  0  0  0  0  0  0
   -4.9657   22.0804  -29.3147 H   0  0  0  0  0  0  0  0  0  0  0  0
   -5.3793   21.1178  -30.8055 H   0  0  0  0  0  0  0  0  0  0  0  0
   -2.8513   21.4473  -30.0598 H   0  0  0  0  0  0  0  0  0  0  0  0
   -3.3522   21.5033  -31.8057 H   0  0  0  0  0  0  0  0  0  0  0  0
   -0.8914   25.9150  -29.7959 H   0  0  0  0  0  0  0  0  0  0  0  0
    0.3823   26.3222  -27.6883 H   0  0  0  0  0  0  0  0  0  0  0  0
   -2.3470   23.7570  -25.5272 H   0  0  0  0  0  0  0  0  0  0  0  0
   -6.8061   23.7891  -32.6376 H   0  0  0  0  0  0  0  0  0  0  0  0
   -5.4394   22.6040  -32.9726 H   0  0  0  0  0  0  0  0  0  0  0  0
   -8.9428   22.9148  -31.6662 H   0  0  0  0  0  0  0  0  0  0  0  0
  -10.5340   20.9949  -31.6764 H   0  0  0  0  0  0  0  0  0  0  0  0
   -9.7536   18.7265  -32.3747 H   0  0  0  0  0  0  0  0  0  0  0  0
   -7.3822   18.3829  -33.0759 H   0  0  0  0  0  0  0  0  0  0  0  0
   -5.7742   20.2856  -33.0279 H   0  0  0  0  0  0  0  0  0  0  0  0
  1  2  1  0
  2  3  1  0
  3  4  1  0
  4  5  1  0
  5  6  1  0
  6  7  1  0
  7  8  2  0
  7  9  1  0
  9 10  2  0
 10 11  1  0
 11 12  2  0
 12 13  1  0
 12 14  1  0
 14 15  2  0
 15 16  1  0
  3 17  1  0
 17 18  1  0
 18 19  2  0
 19 20  1  0
 20 21  2  0
 21 22  1  0
 22 23  2  0
 15  9  1  0
 23 18  1  0
  1 24  1  0
  1 25  1  0
  1 26  1  0
  2 27  1  0
  2 28  1  0
  3 29  1  6
  4 30  1  0
  4 31  1  0
  5 32  1  0
  5 33  1  0
 10 34  1  0
 11 35  1  0
 14 36  1  0
 17 37  1  0
 17 38  1  0
 19 39  1  0
 20 40  1  0
 21 41  1  0
 22 42  1  0
 23 43  1  0
M  CHG  2   3   1   6  -1
M  END
>  <UniqueID>  (16) 
15

>  <SMILES>  (16) 
CC[N@@H+](CC[N-]C(=O)c1ccc(Cl)cc1Cl)Cc1ccccc1

>  <Energy>  (16) 
52.631564185170795

>  <Genealogy>  (16) 
CC[NH+](CC[N-]C(=O)c1ccc(Cl)cc1Cl)Cc1ccccc1 (protonated)
CC[N@@H+](CC[N-]C(=O)c1ccc(Cl)cc1Cl)Cc1ccccc1 (chirality)
CC[N@@H+](CC[N-]C(=O)c1ccc(Cl)cc1Cl)Cc1ccccc1 (3D coordinates assigned)
CC[N@@H+](CC[N-]C(=O)c1ccc(Cl)cc1Cl)Cc1ccccc1 (optimized conformer: 52.631564185170795 kcal/mol)

>  <smiles>  (16) 
CCN(CCNC(=O)c1ccc(Cl)cc1Cl)Cc1ccccc1

>  <score_type>  (16) 
oracle

>  <origin>  (16) 
adg

>  <m_score__min__energy>  (16) 
-9

>  <m_primary>  (16) 
energy

$$$$
16:0
     RDKit          3D

 47 48  0  0  0  0  0  0  0  0999 V2000
   -9.4870   19.7230  -32.3220 C   0  0  0  0  0  0  0  0  0  0  0  0
   -8.0850   19.5660  -32.7600 N   0  0  2  0  0  0  0  0  0  0  0  0
   -7.3410   18.5920  -31.9090 C   0  0  0  0  0  0  0  0  0  0  0  0
   -6.6590   17.4720  -32.7210 C   0  0  0  0  0  0  0  0  0  0  0  0
   -5.3090   17.8750  -33.2510 C   0  0  0  0  0  0  0  0  0  0  0  0
   -4.6840   19.0420  -32.7790 C   0  0  0  0  0  0  0  0  0  0  0  0
   -3.4220   19.4090  -33.2590 C   0  0  0  0  0  0  0  0  0  0  0  0
   -2.7780   18.6150  -34.2120 C   0  0  0  0  0  0  0  0  0  0  0  0
   -3.3930   17.4520  -34.6860 C   0  0  0  0  0  0  0  0  0  0  0  0
   -4.6540   17.0820  -34.2080 C   0  0  0  0  0  0  0  0  0  0  0  0
   -7.3950   20.8790  -32.8380 C   0  0  0  0  0  0  0  0  0  0  0  0
   -7.8710   21.9050  -31.7860 C   0  0  0  0  0  0  0  0  0  0  0  0
   -6.7210   22.7640  -31.3360 C   0  0  0  0  0  0  0  0  0  0  0  0
   -6.9560   24.0170  -30.7510 C   0  0  0  0  0  0  0  0  0  0  0  0
   -5.8840   24.8290  -30.3670 C   0  0  0  0  0  0  0  0  0  0  0  0
   -4.5650   24.4090  -30.5720 C   0  0  0  0  0  0  0  0  0  0  0  0
   -3.4990   25.2790  -30.1670 N   0  0  0  0  0  0  0  0  0  0  0  0
   -2.2300   24.8800  -29.0530 S   0  0  0  0  0  0  0  0  0  0  0  0
   -2.9100   24.5690  -27.4380 C   0  0  0  0  0  0  0  0  0  0  0  0
   -1.2850   26.0440  -28.9620 O   0  0  0  0  0  0  0  0  0  0  0  0
   -1.4730   23.6790  -29.5460 O   0  0  0  0  0  0  0  0  0  0  0  0
   -4.3270   23.1590  -31.1720 C   0  0  0  0  0  0  0  0  0  0  0  0
   -5.3990   22.3450  -31.5540 C   0  0  0  0  0  0  0  0  0  0  0  0
   -9.5294   19.7277  -31.2228 H   0  0  0  0  0  0  0  0  0  0  0  0
   -9.8879   20.6716  -32.7085 H   0  0  0  0  0  0  0  0  0  0  0  0
  -10.0878   18.8865  -32.7085 H   0  0  0  0  0  0  0  0  0  0  0  0
   -8.1160   19.2060  -33.7430 H   0  0  0  0  0  0  0  0  0  0  0  0
   -6.5678   19.1374  -31.3479 H   0  0  0  0  0  0  0  0  0  0  0  0
   -8.0742   18.1129  -31.2435 H   0  0  0  0  0  0  0  0  0  0  0  0
   -6.5335   16.5934  -32.0712 H   0  0  0  0  0  0  0  0  0  0  0  0
   -7.3020   17.2514  -33.5858 H   0  0  0  0  0  0  0  0  0  0  0  0
   -5.1888   19.6692  -32.0295 H   0  0  0  0  0  0  0  0  0  0  0  0
   -2.9365   20.3229  -32.8861 H   0  0  0  0  0  0  0  0  0  0  0  0
   -1.7864   18.9052  -34.5896 H   0  0  0  0  0  0  0  0  0  0  0  0
   -2.8845   16.8277  -35.4354 H   0  0  0  0  0  0  0  0  0  0  0  0
   -5.1350   16.1665  -34.5828 H   0  0  0  0  0  0  0  0  0  0  0  0
   -6.3173   20.7119  -32.6946 H   0  0  0  0  0  0  0  0  0  0  0  0
   -7.6315   21.3035  -33.8248 H   0  0  0  0  0  0  0  0  0  0  0  0
   -8.6495   22.5438  -32.2286 H   0  0  0  0  0  0  0  0  0  0  0  0
   -8.2753   21.3649  -30.9172 H   0  0  0  0  0  0  0  0  0  0  0  0
   -7.9883   24.3626  -30.5935 H   0  0  0  0  0  0  0  0  0  0  0  0
   -6.0793   25.8057  -29.9001 H   0  0  0  0  0  0  0  0  0  0  0  0
   -2.1942   24.8964  -26.6695 H   0  0  0  0  0  0  0  0  0  0  0  0
   -3.8516   25.1260  -27.3231 H   0  0  0  0  0  0  0  0  0  0  0  0
   -3.1045   23.4924  -27.3231 H   0  0  0  0  0  0  0  0  0  0  0  0
   -3.2943   22.8203  -31.3415 H   0  0  0  0  0  0  0  0  0  0  0  0
   -5.2048   21.3714  -32.0277 H   0  0  0  0  0  0  0  0  0  0  0  0
  1  2  1  0
  2  3  1  0
  3  4  1  0
  4  5  1  0
  5  6  2  0
  6  7  1  0
  7  8  2  0
  8  9  1  0
  9 10  2  0
  2 11  1  0
 11 12  1  0
 12 13  1  0
 13 14  2  0
 14 15  1  0
 15 16  2  0
 16 17  1  0
 17 18  1  0
 18 19  1  0
 18 20  2  0
 18 21  2  0
 16 22  1  0
 22 23  2  0
 10  5  1  0
 23 13  1  0
  1 24  1  0
  1 25  1  0
  1 26  1  0
  2 27  1  6
  3 28  1  0
  3 29  1  0
  4 30  1  0
  4 31  1  0
  6 32  1  0
  7 33  1  0
  8 34  1  0
  9 35  1  0
 10 36  1  0
 11 37  1  0
 11 38  1  0
 12 39  1  0
 12 40  1  0
 14 41  1  0
 15 42  1  0
 19 43  1  0
 19 44  1  0
 19 45  1  0
 22 46  1  0
 23 47  1  0
M  CHG  2   2   1  17  -1
M  END
>  <UniqueID>  (17) 
16

>  <SMILES>  (17) 
C[N@H+](CCc1ccccc1)CCc1ccc([N-]S(C)(=O)=O)cc1

>  <Energy>  (17) 
47.78997530688173

>  <Genealogy>  (17) 
C[NH+](CCc1ccccc1)CCc1ccc([N-]S(C)(=O)=O)cc1 (protonated)
C[N@H+](CCc1ccccc1)CCc1ccc([N-]S(C)(=O)=O)cc1 (chirality)
C[N@H+](CCc1ccccc1)CCc1ccc([N-]S(C)(=O)=O)cc1 (3D coordinates assigned)
C[N@H+](CCc1ccccc1)CCc1ccc([N-]S(C)(=O)=O)cc1 (optimized conformer: 47.78997530688173 kcal/mol)

>  <smiles>  (17) 
CN(CCc1ccccc1)CCc1ccc(NS(C)(=O)=O)cc1

>  <score_type>  (17) 
oracle

>  <origin>  (17) 
adg

>  <m_score__min__energy>  (17) 
-9.6899999999999995

>  <m_primary>  (17) 
energy

$$$$
17:0
     RDKit          3D

 33 34  0  0  0  0  0  0  0  0999 V2000
   -4.5770   19.9600  -33.1070 C   0  0  0  0  0  0  0  0  0  0  0  0
   -5.8770   19.3080  -33.4720 C   0  0  0  0  0  0  0  0  0  0  0  0
   -5.9780   18.7710  -34.6070 O   0  0  0  0  0  0  0  0  0  0  0  0
   -7.0050   19.3220  -32.5710 N   0  0  0  0  0  0  0  0  0  0  0  0
   -7.3680   18.2470  -31.7080 C   0  0  0  0  0  0  0  0  0  0  0  0
   -6.4320   17.3470  -31.1070 N   0  0  0  0  0  0  0  0  0  0  0  0
   -8.6290   18.1830  -31.4590 N   0  0  0  0  0  0  0  0  0  0  0  0
   -9.3380   19.2440  -32.1540 C   0  0  0  0  0  0  0  0  0  0  0  0
   -8.2170   20.1230  -32.7560 C   0  0  1  0  0  0  0  0  0  0  0  0
   -8.1210   21.4670  -32.0020 C   0  0  0  0  0  0  0  0  0  0  0  0
   -6.7920   21.9920  -32.0140 O   0  0  0  0  0  0  0  0  0  0  0  0
   -6.3250   23.0780  -31.2540 C   0  0  0  0  0  0  0  0  0  0  0  0
   -7.2700   23.8420  -30.5540 C   0  0  0  0  0  0  0  0  0  0  0  0
   -6.8690   24.9440  -29.7930 C   0  0  0  0  0  0  0  0  0  0  0  0
   -5.5190   25.2930  -29.7240 C   0  0  0  0  0  0  0  0  0  0  0  0
   -4.5660   24.5390  -30.4130 C   0  0  0  0  0  0  0  0  0  0  0  0
   -3.2560   24.8820  -30.3480 F   0  0  0  0  0  0  0  0  0  0  0  0
   -4.9620   23.4340  -31.1730 C   0  0  0  0  0  0  0  0  0  0  0  0
   -4.4848   20.0063  -32.0118 H   0  0  0  0  0  0  0  0  0  0  0  0
   -3.7436   19.3732  -33.5207 H   0  0  0  0  0  0  0  0  0  0  0  0
   -4.5489   20.9789  -33.5207 H   0  0  0  0  0  0  0  0  0  0  0  0
   -6.7740   16.5420  -30.5360 H   0  0  0  0  0  0  0  0  0  0  0  0
   -5.4080   17.5330  -31.1250 H   0  0  0  0  0  0  0  0  0  0  0  0
   -9.0800   17.4630  -30.8520 H   0  0  0  0  0  0  0  0  0  0  0  0
   -9.9773   18.8303  -32.9478 H   0  0  0  0  0  0  0  0  0  0  0  0
  -10.0039   19.8111  -31.4870 H   0  0  0  0  0  0  0  0  0  0  0  0
   -8.3903   20.3804  -33.8113 H   0  0  0  0  0  0  0  0  0  0  0  0
   -8.7942   22.1926  -32.4819 H   0  0  0  0  0  0  0  0  0  0  0  0
   -8.4082   21.2912  -30.9548 H   0  0  0  0  0  0  0  0  0  0  0  0
   -8.3352   23.5720  -30.6041 H   0  0  0  0  0  0  0  0  0  0  0  0
   -7.6182   25.5369  -29.2478 H   0  0  0  0  0  0  0  0  0  0  0  0
   -5.2056   26.1620  -29.1269 H   0  0  0  0  0  0  0  0  0  0  0  0
   -4.2079   22.8399  -31.7099 H   0  0  0  0  0  0  0  0  0  0  0  0
  1  2  1  0
  2  3  2  0
  2  4  1  0
  4  5  1  0
  5  6  1  0
  5  7  2  0
  7  8  1  0
  8  9  1  0
  9 10  1  0
 10 11  1  0
 11 12  1  0
 12 13  2  0
 13 14  1  0
 14 15  2  0
 15 16  1  0
 16 17  1  0
 16 18  2  0
  9  4  1  0
 18 12  1  0
  1 19  1  0
  1 20  1  0
  1 21  1  0
  6 22  1  0
  6 23  1  0
  7 24  1  0
  8 25  1  0
  8 26  1  0
  9 27  1  6
 10 28  1  0
 10 29  1  0
 13 30  1  0
 14 31  1  0
 15 32  1  0
 18 33  1  0
M  CHG  1   7   1
M  END
>  <UniqueID>  (18) 
17

>  <SMILES>  (18) 
CC(=O)N1C(N)=[NH+]C[C@H]1COc1cccc(F)c1

>  <Energy>  (18) 
45.733641231909274

>  <Genealogy>  (18) 
CC(=O)N1C(N)=[NH+]CC1COc1cccc(F)c1 (protonated)
CC(=O)N1C(N)=[NH+]C[C@H]1COc1cccc(F)c1 (chirality)
CC(=O)N1C(N)=[NH+]C[C@H]1COc1cccc(F)c1 (3D coordinates assigned)
CC(=O)N1C(N)=[NH+]C[C@H]1COc1cccc(F)c1 (nonaromatic ring conformer: 45.733641231909274 kcal/mol)

>  <smiles>  (18) 
CC(=O)N1C(N)=NCC1COc1cccc(F)c1

>  <score_type>  (18) 
oracle

>  <origin>  (18) 
adg

>  <m_score__min__energy>  (18) 
-5.8300000000000001

>  <m_primary>  (18) 
energy

$$$$
18:0
     RDKit          3D

 38 40  0  0  0  0  0  0  0  0999 V2000
   -6.9820   17.8250  -31.3090 C   0  0  0  0  0  0  0  0  0  0  0  0
   -6.6270   17.4300  -32.7420 C   0  0  0  0  0  0  0  0  0  0  0  0
   -5.5080   18.2980  -33.3370 C   0  0  0  0  0  0  0  0  0  0  0  0
   -6.0470   19.5100  -34.1060 C   0  0  0  0  0  0  0  0  0  0  0  0
   -6.8800   20.3270  -33.2300 N   0  0  0  0  0  0  0  0  0  0  0  0
   -8.1970   20.2010  -33.0780 N   0  0  0  0  0  0  0  0  0  0  0  0
   -8.6580   21.1980  -32.2730 C   0  0  0  0  0  0  0  0  0  0  0  0
   -7.5690   21.9720  -31.9320 C   0  0  0  0  0  0  0  0  0  0  0  0
   -7.2910   23.1240  -31.2140 C   0  0  0  0  0  0  0  0  0  0  0  0
   -5.9170   23.4290  -31.3170 C   0  0  0  0  0  0  0  0  0  0  0  0
   -5.2360   24.5770  -30.6830 C   0  0  0  0  0  0  0  0  0  0  0  0
   -5.9210   25.5750  -30.3360 O   0  0  0  0  0  0  0  0  0  0  0  0
   -3.8180   24.6090  -30.4730 N   0  0  0  0  0  0  0  0  0  0  0  0
   -3.0250   23.5490  -29.9230 C   0  0  0  0  0  0  0  0  0  0  0  0
   -2.2600   22.7660  -30.7970 C   0  0  0  0  0  0  0  0  0  0  0  0
   -1.4880   21.7060  -30.3120 C   0  0  0  0  0  0  0  0  0  0  0  0
   -0.4750   20.6280  -31.5200 Br  0  0  0  0  0  0  0  0  0  0  0  0
   -1.4610   21.4350  -28.9410 C   0  0  0  0  0  0  0  0  0  0  0  0
   -2.1900   22.2310  -28.0560 C   0  0  0  0  0  0  0  0  0  0  0  0
   -2.9650   23.2950  -28.5340 C   0  0  0  0  0  0  0  0  0  0  0  0
   -3.8320   24.4200  -27.2440 Br  0  0  0  0  0  0  0  0  0  0  0  0
   -5.1010   22.2580  -32.2760 S   0  0  0  0  0  0  0  0  0  0  0  0
   -6.5180   21.4110  -32.5310 C   0  0  0  0  0  0  0  0  0  0  0  0
   -6.4171   17.1965  -30.6048 H   0  0  0  0  0  0  0  0  0  0  0  0
   -6.7242   18.8818  -31.1454 H   0  0  0  0  0  0  0  0  0  0  0  0
   -8.0602   17.6811  -31.1454 H   0  0  0  0  0  0  0  0  0  0  0  0
   -6.2980   16.3804  -32.7463 H   0  0  0  0  0  0  0  0  0  0  0  0
   -7.5254   17.5776  -33.3593 H   0  0  0  0  0  0  0  0  0  0  0  0
   -4.8674   18.6570  -32.5180 H   0  0  0  0  0  0  0  0  0  0  0  0
   -4.9462   17.6751  -34.0486 H   0  0  0  0  0  0  0  0  0  0  0  0
   -5.2034   20.1131  -34.4729 H   0  0  0  0  0  0  0  0  0  0  0  0
   -6.6519   19.1589  -34.9550 H   0  0  0  0  0  0  0  0  0  0  0  0
   -8.7810   19.4630  -33.5320 H   0  0  0  0  0  0  0  0  0  0  0  0
   -9.6994   21.3556  -31.9557 H   0  0  0  0  0  0  0  0  0  0  0  0
   -8.0295   23.7118  -30.6492 H   0  0  0  0  0  0  0  0  0  0  0  0
   -2.2667   22.9871  -31.8745 H   0  0  0  0  0  0  0  0  0  0  0  0
   -0.8645   20.5934  -28.5591 H   0  0  0  0  0  0  0  0  0  0  0  0
   -2.1556   22.0213  -26.9767 H   0  0  0  0  0  0  0  0  0  0  0  0
  1  2  1  0
  2  3  1  0
  3  4  1  0
  4  5  1  0
  5  6  1  0
  6  7  2  0
  7  8  1  0
  8  9  1  0
  9 10  2  0
 10 11  1  0
 11 12  2  0
 11 13  1  0
 13 14  1  0
 14 15  2  0
 15 16  1  0
 16 17  1  0
 16 18  2  0
 18 19  1  0
 19 20  2  0
 20 21  1  0
 10 22  1  0
 22 23  1  0
 23  5  1  0
 23  8  2  0
 20 14  1  0
  1 24  1  0
  1 25  1  0
  1 26  1  0
  2 27  1  0
  2 28  1  0
  3 29  1  0
  3 30  1  0
  4 31  1  0
  4 32  1  0
  6 33  1  0
  7 34  1  0
  9 35  1  0
 15 36  1  0
 18 37  1  0
 19 38  1  0
M  CHG  2   6   1  13  -1
M  END
>  <UniqueID>  (19) 
18

>  <SMILES>  (19) 
CCCCn1[nH+]cc2cc(C(=O)[N-]c3cc(Br)ccc3Br)sc21

>  <Energy>  (19) 
122.78654855155104

>  <Genealogy>  (19) 
CCCCn1[nH+]cc2cc(C(=O)[N-]c3cc(Br)ccc3Br)sc21 (protonated)
CCCCn1[nH+]cc2cc(C(=O)[N-]c3cc(Br)ccc3Br)sc21 (3D coordinates assigned)
CCCCn1[nH+]cc2cc(C(=O)[N-]c3cc(Br)ccc3Br)sc21 (optimized conformer: 122.78654855155104 kcal/mol)

>  <smiles>  (19) 
CCCCn1ncc2cc(C(=O)Nc3cc(Br)ccc3Br)sc21

>  <score_type>  (19) 
oracle

>  <origin>  (19) 
adg

>  <m_score__min__energy>  (19) 
-9.8100000000000005

>  <m_primary>  (19) 
energy

$$$$
19:0
     RDKit          3D

 37 40  0  0  0  0  0  0  0  0999 V2000
   -7.3000   12.5230  -35.4650 C   0  0  0  0  0  0  0  0  0  0  0  0
   -6.6570   13.6560  -34.8140 N   0  0  0  0  0  0  0  0  0  0  0  0
   -7.2310   14.8450  -34.5550 C   0  0  0  0  0  0  0  0  0  0  0  0
   -6.2740   15.6730  -33.9940 C   0  0  0  0  0  0  0  0  0  0  0  0
   -6.4410   17.0780  -33.5420 C   0  0  0  0  0  0  0  0  0  0  0  0
   -5.9170   18.1430  -34.3000 C   0  0  0  0  0  0  0  0  0  0  0  0
   -6.0720   19.4650  -33.8730 C   0  0  0  0  0  0  0  0  0  0  0  0
   -6.7510   19.7500  -32.6800 C   0  0  0  0  0  0  0  0  0  0  0  0
   -6.9170   21.1470  -32.2260 C   0  0  0  0  0  0  0  0  0  0  0  0
   -8.2070   21.6990  -32.0490 C   0  0  0  0  0  0  0  0  0  0  0  0
   -9.3130   20.9640  -32.3270 F   0  0  0  0  0  0  0  0  0  0  0  0
   -8.3610   23.0250  -31.5980 C   0  0  0  0  0  0  0  0  0  0  0  0
   -7.2390   23.8150  -31.3070 C   0  0  0  0  0  0  0  0  0  0  0  0
   -5.9800   23.2520  -31.4860 C   0  0  0  0  0  0  0  0  0  0  0  0
   -5.8060   21.9590  -31.9380 C   0  0  0  0  0  0  0  0  0  0  0  0
   -4.3400   21.6050  -31.9740 C   0  0  0  0  0  0  0  0  0  0  0  0
   -3.6790   22.8220  -31.5020 N   0  0  0  0  0  0  0  0  0  0  0  0
   -4.6730   23.7960  -31.2200 C   0  0  0  0  0  0  0  0  0  0  0  0
   -4.4270   24.9530  -30.7910 O   0  0  0  0  0  0  0  0  0  0  0  0
   -7.2820   18.6960  -31.9250 C   0  0  0  0  0  0  0  0  0  0  0  0
   -7.1260   17.3720  -32.3480 C   0  0  0  0  0  0  0  0  0  0  0  0
   -5.1210   14.8990  -33.9560 C   0  0  0  0  0  0  0  0  0  0  0  0
   -5.3800   13.6820  -34.4700 N   0  0  0  0  0  0  0  0  0  0  0  0
   -7.6907   11.8346  -34.7012 H   0  0  0  0  0  0  0  0  0  0  0  0
   -8.1286   12.8826  -36.0928 H   0  0  0  0  0  0  0  0  0  0  0  0
   -6.5664   11.9960  -36.0928 H   0  0  0  0  0  0  0  0  0  0  0  0
   -8.2791   15.1127  -34.7545 H   0  0  0  0  0  0  0  0  0  0  0  0
   -5.3806   17.9325  -35.2370 H   0  0  0  0  0  0  0  0  0  0  0  0
   -5.6588   20.2865  -34.4766 H   0  0  0  0  0  0  0  0  0  0  0  0
   -9.3702   23.4444  -31.4730 H   0  0  0  0  0  0  0  0  0  0  0  0
   -7.3516   24.8487  -30.9480 H   0  0  0  0  0  0  0  0  0  0  0  0
   -4.1244   20.7573  -31.3069 H   0  0  0  0  0  0  0  0  0  0  0  0
   -4.0002   21.2948  -32.9732 H   0  0  0  0  0  0  0  0  0  0  0  0
   -2.6490   22.9530  -31.3910 H   0  0  0  0  0  0  0  0  0  0  0  0
   -7.8254   18.9112  -30.9931 H   0  0  0  0  0  0  0  0  0  0  0  0
   -7.5422   16.5534  -31.7424 H   0  0  0  0  0  0  0  0  0  0  0  0
   -4.1469   15.2295  -33.5662 H   0  0  0  0  0  0  0  0  0  0  0  0
  1  2  1  0
  2  3  1  0
  3  4  2  0
  4  5  1  0
  5  6  2  0
  6  7  1  0
  7  8  2  0
  8  9  1  0
  9 10  2  0
 10 11  1  0
 10 12  1  0
 12 13  2  0
 13 14  1  0
 14 15  2  0
 15 16  1  0
 16 17  1  0
 17 18  1  0
 18 19  2  0
  8 20  1  0
 20 21  2  0
  4 22  1  0
 22 23  2  0
 23  2  1  0
 21  5  1  0
 15  9  1  0
 18 14  1  0
  1 24  1  0
  1 25  1  0
  1 26  1  0
  3 27  1  0
  6 28  1  0
  7 29  1  0
 12 30  1  0
 13 31  1  0
 16 32  1  0
 16 33  1  0
 17 34  1  0
 20 35  1  0
 21 36  1  0
 22 37  1  0
M  END
>  <UniqueID>  (20) 
19

>  <SMILES>  (20) 
Cn1cc(-c2ccc(-c3c(F)ccc4c3CNC4=O)cc2)cn1

>  <Energy>  (20) 
100.24749222042439

>  <Genealogy>  (20) 
Cn1cc(-c2ccc(-c3c(F)ccc4c3CNC4=O)cc2)cn1 (3D coordinates assigned)
Cn1cc(-c2ccc(-c3c(F)ccc4c3CNC4=O)cc2)cn1 (nonaromatic ring conformer: 100.24749222042439 kcal/mol)

>  <smiles>  (20) 
Cn1cc(-c2ccc(-c3c(F)ccc4c3CNC4=O)cc2)cn1

>  <score_type>  (20) 
oracle

>  <origin>  (20) 
adg

>  <m_score__min__energy>  (20) 
-8.4499999999999993

>  <m_primary>  (20) 
energy

$$$$
20:0
     RDKit          3D

 47 49  0  0  0  0  0  0  0  0999 V2000
   -4.0270   16.4350  -34.1480 C   0  0  0  0  0  0  0  0  0  0  0  0
   -4.7810   17.6310  -33.7290 N   0  0  0  0  0  0  0  0  0  0  0  0
   -4.1460   18.8630  -33.6290 C   0  0  0  0  0  0  0  0  0  0  0  0
   -2.6670   19.0400  -33.9030 C   0  0  0  0  0  0  0  0  0  0  0  0
   -2.3920   20.4480  -34.2150 N   0  0  0  0  0  0  0  0  0  0  0  0
   -1.8500   21.1920  -33.0650 C   0  0  0  0  0  0  0  0  0  0  0  0
   -0.3820   20.8530  -32.7240 C   0  0  0  0  0  0  0  0  0  0  0  0
    0.6510   21.1670  -33.8300 C   0  0  0  0  0  0  0  0  0  0  0  0
    0.0580   21.4290  -35.1650 N   0  0  0  0  0  0  0  0  0  0  0  0
    0.6310   22.6660  -35.7240 C   0  0  0  0  0  0  0  0  0  0  0  0
    0.2920   20.3110  -36.0990 C   0  0  0  0  0  0  0  0  0  0  0  0
   -4.8630   20.0020  -33.2100 C   0  0  0  0  0  0  0  0  0  0  0  0
   -6.2220   19.8840  -32.9370 C   0  0  0  0  0  0  0  0  0  0  0  0
   -6.8440   18.6560  -33.0790 C   0  0  0  0  0  0  0  0  0  0  0  0
   -8.4870   18.7780  -32.7010 S   0  0  0  0  0  0  0  0  0  0  0  0
   -8.4060   20.4250  -32.3480 C   0  0  0  0  0  0  0  0  0  0  0  0
   -9.4440   21.2600  -31.9400 C   0  0  0  0  0  0  0  0  0  0  0  0
   -9.1550   22.6120  -31.7010 C   0  0  0  0  0  0  0  0  0  0  0  0
   -7.8460   23.1000  -31.8710 C   0  0  0  0  0  0  0  0  0  0  0  0
   -6.8110   22.2430  -32.2840 C   0  0  0  0  0  0  0  0  0  0  0  0
   -7.1060   20.8940  -32.5220 C   0  0  0  0  0  0  0  0  0  0  0  0
   -6.1330   17.5280  -33.4770 C   0  0  0  0  0  0  0  0  0  0  0  0
   -6.7410   16.4290  -33.6020 O   0  0  0  0  0  0  0  0  0  0  0  0
   -3.6824   15.8883  -33.2578 H   0  0  0  0  0  0  0  0  0  0  0  0
   -4.6779   15.7833  -34.7494 H   0  0  0  0  0  0  0  0  0  0  0  0
   -3.1583   16.7412  -34.7494 H   0  0  0  0  0  0  0  0  0  0  0  0
   -2.0913   18.7422  -33.0143 H   0  0  0  0  0  0  0  0  0  0  0  0
   -2.3746   18.4114  -34.7570 H   0  0  0  0  0  0  0  0  0  0  0  0
   -3.2580   20.9120  -34.5700 H   0  0  0  0  0  0  0  0  0  0  0  0
   -1.9122   22.2670  -33.2898 H   0  0  0  0  0  0  0  0  0  0  0  0
   -2.4516   20.9029  -32.1906 H   0  0  0  0  0  0  0  0  0  0  0  0
   -0.1021   21.4255  -31.8274 H   0  0  0  0  0  0  0  0  0  0  0  0
   -0.3501   19.7624  -32.5838 H   0  0  0  0  0  0  0  0  0  0  0  0
    1.2211   22.0572  -33.5259 H   0  0  0  0  0  0  0  0  0  0  0  0
    1.2803   20.2710  -33.9359 H   0  0  0  0  0  0  0  0  0  0  0  0
   -0.9730   21.5820  -35.0740 H   0  0  0  0  0  0  0  0  0  0  0  0
    0.9390   23.3308  -34.9035 H   0  0  0  0  0  0  0  0  0  0  0  0
    1.5059   22.4178  -36.3429 H   0  0  0  0  0  0  0  0  0  0  0  0
   -0.1241   23.1728  -36.3429 H   0  0  0  0  0  0  0  0  0  0  0  0
    0.4846   19.3906  -35.5282 H   0  0  0  0  0  0  0  0  0  0  0  0
   -0.5962   20.1705  -36.7325 H   0  0  0  0  0  0  0  0  0  0  0  0
    1.1620   20.5385  -36.7325 H   0  0  0  0  0  0  0  0  0  0  0  0
   -4.3547   20.9713  -33.1003 H   0  0  0  0  0  0  0  0  0  0  0  0
  -10.4639   20.8693  -31.8086 H   0  0  0  0  0  0  0  0  0  0  0  0
   -9.9557   23.2941  -31.3791 H   0  0  0  0  0  0  0  0  0  0  0  0
   -7.6308   24.1615  -31.6790 H   0  0  0  0  0  0  0  0  0  0  0  0
   -5.7880   22.6245  -32.4179 H   0  0  0  0  0  0  0  0  0  0  0  0
  1  2  1  0
  2  3  1  0
  3  4  1  0
  4  5  1  0
  5  6  1  0
  6  7  1  0
  7  8  1  0
  8  9  1  0
  9 10  1  0
  9 11  1  0
  3 12  2  0
 12 13  1  0
 13 14  2  0
 14 15  1  0
 15 16  1  0
 16 17  2  0
 17 18  1  0
 18 19  2  0
 19 20  1  0
 20 21  2  0
 14 22  1  0
 22 23  2  0
 22  2  1  0
 21 13  1  0
 21 16  1  0
  1 24  1  0
  1 25  1  0
  1 26  1  0
  4 27  1  0
  4 28  1  0
  5 29  1  0
  6 30  1  0
  6 31  1  0
  7 32  1  0
  7 33  1  0
  8 34  1  0
  8 35  1  0
  9 36  1  0
 10 37  1  0
 10 38  1  0
 10 39  1  0
 11 40  1  0
 11 41  1  0
 11 42  1  0
 12 43  1  0
 17 44  1  0
 18 45  1  0
 19 46  1  0
 20 47  1  0
M  CHG  1   9   1
M  END
>  <UniqueID>  (21) 
20

>  <SMILES>  (21) 
Cn1c(CNCCC[NH+](C)C)cc2c(sc3ccccc32)c1=O

>  <Energy>  (21) 
90.74633532431564

>  <Genealogy>  (21) 
Cn1c(CNCCC[NH+](C)C)cc2c(sc3ccccc32)c1=O (protonated)
Cn1c(CNCCC[NH+](C)C)cc2c(sc3ccccc32)c1=O (3D coordinates assigned)
Cn1c(CNCCC[NH+](C)C)cc2c(sc3ccccc32)c1=O (optimized conformer: 90.74633532431564 kcal/mol)

>  <smiles>  (21) 
CN(C)CCCNCc1cc2c(sc3ccccc32)c(=O)n1C

>  <score_type>  (21) 
oracle

>  <origin>  (21) 
adg

>  <m_score__min__energy>  (21) 
-7.0099999999999998

>  <m_primary>  (21) 
energy

$$$$
21:0
     RDKit          3D

 48 50  0  0  0  0  0  0  0  0999 V2000
   -5.8755   22.6195  -32.6817 H   0  0  0  0  0  0  0  0  0  0  0  0
   -6.7830   22.1160  -32.3170 C   0  0  0  0  0  0  0  0  0  0  0  0
   -7.6800   22.8950  -31.6840 C   0  0  0  0  0  0  0  0  0  0  0  0
   -7.1620   24.0380  -30.8890 C   0  0  0  0  0  0  0  0  0  0  0  0
   -7.7378   24.3751  -30.0144 H   0  0  0  0  0  0  0  0  0  0  0  0
   -6.0230   24.6760  -31.1920 C   0  0  0  0  0  0  0  0  0  0  0  0
   -5.9471   25.1727  -32.1706 H   0  0  0  0  0  0  0  0  0  0  0  0
   -4.8650   24.7460  -30.2790 C   0  0  0  0  0  0  0  0  0  0  0  0
   -3.7930   25.2490  -30.7100 O   0  0  0  0  0  0  0  0  0  0  0  0
   -4.9400   24.2880  -28.9180 N   0  0  0  0  0  0  0  0  0  0  0  0
   -5.8710   24.1330  -28.4710 H   0  0  0  0  0  0  0  0  0  0  0  0
   -3.7550   24.1600  -28.0720 C   0  0  0  0  0  0  0  0  0  0  0  0
   -4.0647   23.8786  -27.0547 H   0  0  0  0  0  0  0  0  0  0  0  0
   -3.2247   25.1235  -28.0530 H   0  0  0  0  0  0  0  0  0  0  0  0
   -2.8150   23.0870  -28.6280 C   0  0  0  0  0  0  0  0  0  0  0  0
   -2.2828   22.6083  -27.7928 H   0  0  0  0  0  0  0  0  0  0  0  0
   -2.1039   23.5685  -29.3154 H   0  0  0  0  0  0  0  0  0  0  0  0
   -3.5900   22.0220  -29.4010 C   0  0  0  0  0  0  0  0  0  0  0  0
   -4.0849   21.3419  -28.6922 H   0  0  0  0  0  0  0  0  0  0  0  0
   -4.3479   22.5070  -30.0338 H   0  0  0  0  0  0  0  0  0  0  0  0
   -2.8954   21.4501  -30.0338 H   0  0  0  0  0  0  0  0  0  0  0  0
   -9.1570   22.6740  -31.7910 C   0  0  0  0  0  0  0  0  0  0  0  0
   -9.4436   22.6236  -32.8518 H   0  0  0  0  0  0  0  0  0  0  0  0
   -9.6869   23.5067  -31.3054 H   0  0  0  0  0  0  0  0  0  0  0  0
   -9.5290   21.3700  -31.1040 C   0  0  0  0  0  0  0  0  0  0  0  0
  -10.5968   21.3896  -30.8405 H   0  0  0  0  0  0  0  0  0  0  0  0
   -8.9205   21.2564  -30.1947 H   0  0  0  0  0  0  0  0  0  0  0  0
   -9.2800   20.2760  -31.9670 O   0  0  0  0  0  0  0  0  0  0  0  0
   -8.0260   19.8260  -32.4030 C   0  0  0  0  0  0  0  0  0  0  0  0
   -7.9400   18.4550  -32.6750 C   0  0  0  0  0  0  0  0  0  0  0  0
   -8.8223   17.8175  -32.5165 H   0  0  0  0  0  0  0  0  0  0  0  0
   -6.7600   17.8830  -33.1420 C   0  0  0  0  0  0  0  0  0  0  0  0
   -6.7196   16.8032  -33.3478 H   0  0  0  0  0  0  0  0  0  0  0  0
   -5.6250   18.6740  -33.3510 C   0  0  0  0  0  0  0  0  0  0  0  0
   -4.3670   18.0680  -33.8570 C   0  0  0  0  0  0  0  0  0  0  0  0
   -4.3860   16.8250  -34.5170 C   0  0  0  0  0  0  0  0  0  0  0  0
   -5.3402   16.2966  -34.6596 H   0  0  0  0  0  0  0  0  0  0  0  0
   -3.1990   16.2570  -34.9930 C   0  0  0  0  0  0  0  0  0  0  0  0
   -3.2232   15.2847  -35.5068 H   0  0  0  0  0  0  0  0  0  0  0  0
   -1.9840   16.9220  -34.8170 C   0  0  0  0  0  0  0  0  0  0  0  0
   -1.0523   16.4744  -35.1932 H   0  0  0  0  0  0  0  0  0  0  0  0
   -1.9520   18.1560  -34.1630 C   0  0  0  0  0  0  0  0  0  0  0  0
   -0.9942   18.6788  -34.0238 H   0  0  0  0  0  0  0  0  0  0  0  0
   -3.1350   18.7280  -33.6850 C   0  0  0  0  0  0  0  0  0  0  0  0
   -3.1031   19.7001  -33.1712 H   0  0  0  0  0  0  0  0  0  0  0  0
   -5.6950   20.0480  -33.0710 C   0  0  0  0  0  0  0  0  0  0  0  0
   -4.8056   20.6737  -33.2369 H   0  0  0  0  0  0  0  0  0  0  0  0
   -6.8740   20.6480  -32.5830 C   0  0  0  0  0  0  0  0  0  0  0  0
  1  2  1  0
  2  3  2  0
  3  4  1  0
  4  5  1  0
  4  6  2  0
  6  7  1  0
  6  8  1  0
  8  9  2  0
  8 10  1  0
 10 11  1  0
 10 12  1  0
 12 13  1  0
 12 14  1  0
 12 15  1  0
 15 16  1  0
 15 17  1  0
 15 18  1  0
 18 19  1  0
 18 20  1  0
 18 21  1  0
  3 22  1  0
 22 23  1  0
 22 24  1  0
 22 25  1  0
 25 26  1  0
 25 27  1  0
 25 28  1  0
 28 29  1  0
 29 30  2  0
 30 31  1  0
 30 32  1  0
 32 33  1  0
 32 34  2  0
 34 35  1  0
 35 36  2  0
 36 37  1  0
 36 38  1  0
 38 39  1  0
 38 40  2  0
 40 41  1  0
 40 42  1  0
 42 43  1  0
 42 44  2  0
 44 45  1  0
 34 46  1  0
 46 47  1  0
 46 48  2  0
 48  2  1  0
 48 29  1  0
 44 35  1  0
M  END
>  <UniqueID>  (22) 
21

>  <SMILES>  (22) 
CCCNC(=O)/C=C/C1=Cc2cc(-c3ccccc3)ccc2OCC1

>  <Energy>  (22) 
61.670885807658244

>  <Genealogy>  (22) 
CCCNC(=O)/C=C/C1=Cc2cc(-c3ccccc3)ccc2OCC1 (cis-trans isomerization)
CCCNC(=O)/C=C/C1=Cc2cc(-c3ccccc3)ccc2OCC1 (3D coordinates assigned)
CCCNC(=O)/C=C/C1=Cc2cc(-c3ccccc3)ccc2OCC1 (nonaromatic ring conformer: 61.670885807658244 kcal/mol)

>  <smiles>  (22) 
CCCNC(=O)C=CC1=Cc2cc(-c3ccccc3)ccc2OCC1

>  <score_type>  (22) 
oracle

>  <origin>  (22) 
adg

>  <m_score__min__energy>  (22) 
-7.8499999999999996

>  <m_primary>  (22) 
energy

$$$$
22:0
     RDKit          3D

 33 34  0  0  0  0  0  0  0  0999 V2000
   -0.8454   23.2911  -29.1662 H   0  0  0  0  0  0  0  0  0  0  0  0
   -1.9260   23.0880  -29.1980 C   0  0  0  0  0  0  0  0  0  0  0  0
   -2.4610   22.6470  -30.3500 C   0  0  0  0  0  0  0  0  0  0  0  0
   -3.8740   22.9170  -30.7030 C   0  0  0  0  0  0  0  0  0  0  0  0
   -4.3330   24.2390  -30.7600 C   0  0  0  0  0  0  0  0  0  0  0  0
   -3.4790   25.2980  -30.4720 O   0  0  0  0  0  0  0  0  0  0  0  0
   -5.6540   24.5030  -31.1040 C   0  0  0  0  0  0  0  0  0  0  0  0
   -6.0070   25.5438  -31.1497 H   0  0  0  0  0  0  0  0  0  0  0  0
   -6.5370   23.4610  -31.3920 C   0  0  0  0  0  0  0  0  0  0  0  0
   -7.7870   23.7670  -31.7210 O   0  0  0  0  0  0  0  0  0  0  0  0
   -8.6970   22.8540  -32.0180 C   0  0  0  0  0  0  0  0  0  0  0  0
   -9.8630   23.2140  -32.3290 O   0  0  0  0  0  0  0  0  0  0  0  0
   -8.3730   21.5010  -31.9850 C   0  0  0  0  0  0  0  0  0  0  0  0
   -9.1324   20.7469  -32.2392 H   0  0  0  0  0  0  0  0  0  0  0  0
   -7.0760   21.0990  -31.6270 C   0  0  0  0  0  0  0  0  0  0  0  0
   -6.8040   19.6100  -31.6080 C   0  0  0  0  0  0  0  0  0  0  0  0
   -6.0185   19.3792  -32.3427 H   0  0  0  0  0  0  0  0  0  0  0  0
   -6.4821   19.3273  -30.5948 H   0  0  0  0  0  0  0  0  0  0  0  0
   -8.0610   18.8150  -31.9560 C   0  0  0  0  0  0  0  0  0  0  0  0
   -8.5624   18.4979  -31.0297 H   0  0  0  0  0  0  0  0  0  0  0  0
   -8.7430   19.4464  -32.5444 H   0  0  0  0  0  0  0  0  0  0  0  0
   -7.7828   17.9282  -32.5444 H   0  0  0  0  0  0  0  0  0  0  0  0
   -6.1050   22.1060  -31.3370 C   0  0  0  0  0  0  0  0  0  0  0  0
   -4.7450   21.8510  -31.0040 C   0  0  0  0  0  0  0  0  0  0  0  0
   -4.2260   20.5610  -30.9780 O   0  0  0  0  0  0  0  0  0  0  0  0
   -1.5910   21.9340  -31.3430 C   0  0  0  0  0  0  0  0  0  0  0  0
   -0.8475   21.3247  -30.8082 H   0  0  0  0  0  0  0  0  0  0  0  0
   -2.2131   21.2826  -31.9744 H   0  0  0  0  0  0  0  0  0  0  0  0
   -1.0745   22.6720  -31.9744 H   0  0  0  0  0  0  0  0  0  0  0  0
   -2.7320   23.3160  -27.9550 C   0  0  0  0  0  0  0  0  0  0  0  0
   -2.1016   23.1377  -27.0714 H   0  0  0  0  0  0  0  0  0  0  0  0
   -3.0985   24.3531  -27.9407 H   0  0  0  0  0  0  0  0  0  0  0  0
   -3.5874   22.6246  -27.9407 H   0  0  0  0  0  0  0  0  0  0  0  0
  1  2  1  0
  2  3  2  0
  3  4  1  0
  4  5  2  0
  5  6  1  0
  5  7  1  0
  7  8  1  0
  7  9  2  0
  9 10  1  0
 10 11  1  0
 11 12  2  0
 11 13  1  0
 13 14  1  0
 13 15  2  0
 15 16  1  0
 16 17  1  0
 16 18  1  0
 16 19  1  0
 19 20  1  0
 19 21  1  0
 19 22  1  0
 15 23  1  0
 23 24  2  0
 24 25  1  0
  3 26  1  0
 26 27  1  0
 26 28  1  0
 26 29  1  0
  2 30  1  0
 30 31  1  0
 30 32  1  0
 30 33  1  0
 24  4  1  0
 23  9  1  0
M  CHG  2   6  -1  25  -1
M  END
>  <UniqueID>  (23) 
22

>  <SMILES>  (23) 
C/C=C(/C)c1c([O-])cc2oc(=O)cc(CC)c2c1[O-]

>  <Energy>  (23) 
46.12341044238202

>  <Genealogy>  (23) 
CC=C(C)c1c([O-])cc2oc(=O)cc(CC)c2c1[O-] (protonated)
C/C=C(/C)c1c([O-])cc2oc(=O)cc(CC)c2c1[O-] (cis-trans isomerization)
C/C=C(/C)c1c([O-])cc2oc(=O)cc(CC)c2c1[O-] (3D coordinates assigned)
C/C=C(/C)c1c([O-])cc2oc(=O)cc(CC)c2c1[O-] (optimized conformer: 46.12341044238202 kcal/mol)

>  <smiles>  (23) 
CC=C(C)c1c(O)cc2oc(=O)cc(CC)c2c1O

>  <score_type>  (23) 
oracle

>  <origin>  (23) 
adg

>  <m_score__min__energy>  (23) 
-9.4499999999999993

>  <m_primary>  (23) 
energy

$$$$
23:0
     RDKit          3D

 35 37  0  0  0  0  0  0  0  0999 V2000
   -3.7640   17.4140  -34.8350 C   0  0  0  0  0  0  0  0  0  0  0  0
   -5.2790   17.3150  -34.9730 C   0  0  0  0  0  0  0  0  0  0  0  0
   -5.9450   17.5370  -33.6500 C   0  0  0  0  0  0  0  0  0  0  0  0
   -5.6120   16.8180  -32.5020 C   0  0  0  0  0  0  0  0  0  0  0  0
   -6.5190   17.4370  -31.2280 S   0  0  0  0  0  0  0  0  0  0  0  0
   -7.2960   18.5780  -32.1890 C   0  0  0  0  0  0  0  0  0  0  0  0
   -8.2450   19.6130  -31.6880 C   0  0  0  0  0  0  0  0  0  0  0  0
   -8.3340   20.7050  -32.6690 N   0  0  0  0  0  0  0  0  0  0  0  0
   -7.3800   21.8130  -32.4520 C   0  0  2  0  0  0  0  0  0  0  0  0
   -5.9000   21.3560  -32.3680 C   0  0  0  0  0  0  0  0  0  0  0  0
   -4.9510   22.5660  -32.3250 C   0  0  0  0  0  0  0  0  0  0  0  0
   -5.4550   23.5900  -31.3530 C   0  0  0  0  0  0  0  0  0  0  0  0
   -4.7280   24.6130  -30.8670 N   0  0  0  0  0  0  0  0  0  0  0  0
   -5.6420   25.2710  -30.1150 C   0  0  0  0  0  0  0  0  0  0  0  0
   -6.8620   24.6920  -30.1480 N   0  0  0  0  0  0  0  0  0  0  0  0
   -6.7320   23.6520  -30.9460 N   0  0  0  0  0  0  0  0  0  0  0  0
   -7.7710   22.6620  -31.2240 C   0  0  0  0  0  0  0  0  0  0  0  0
   -6.8630   18.5230  -33.4680 N   0  0  0  0  0  0  0  0  0  0  0  0
   -3.4933   17.4317  -33.7690 H   0  0  0  0  0  0  0  0  0  0  0  0
   -3.2942   16.5446  -35.3182 H   0  0  0  0  0  0  0  0  0  0  0  0
   -3.4113   18.3371  -35.3182 H   0  0  0  0  0  0  0  0  0  0  0  0
   -5.6276   18.0771  -35.6855 H   0  0  0  0  0  0  0  0  0  0  0  0
   -5.5369   16.3089  -35.3352 H   0  0  0  0  0  0  0  0  0  0  0  0
   -4.8862   15.9937  -32.4409 H   0  0  0  0  0  0  0  0  0  0  0  0
   -9.2389   19.1632  -31.5474 H   0  0  0  0  0  0  0  0  0  0  0  0
   -7.8853   20.0090  -30.7268 H   0  0  0  0  0  0  0  0  0  0  0  0
   -8.1520   20.3000  -33.6190 H   0  0  0  0  0  0  0  0  0  0  0  0
   -7.4507   22.4442  -33.3501 H   0  0  0  0  0  0  0  0  0  0  0  0
   -5.7599   20.7564  -31.4565 H   0  0  0  0  0  0  0  0  0  0  0  0
   -5.6663   20.7589  -33.2618 H   0  0  0  0  0  0  0  0  0  0  0  0
   -3.9507   22.2314  -32.0130 H   0  0  0  0  0  0  0  0  0  0  0  0
   -4.9026   23.0178  -33.3268 H   0  0  0  0  0  0  0  0  0  0  0  0
   -5.4151   26.1801  -29.5387 H   0  0  0  0  0  0  0  0  0  0  0  0
   -7.8901   22.0045  -30.3502 H   0  0  0  0  0  0  0  0  0  0  0  0
   -8.7174   23.1824  -31.4328 H   0  0  0  0  0  0  0  0  0  0  0  0
  1  2  1  0
  2  3  1  0
  3  4  2  0
  4  5  1  0
  5  6  1  0
  6  7  1  0
  7  8  1  0
  8  9  1  0
  9 10  1  0
 10 11  1  0
 11 12  1  0
 12 13  2  0
 13 14  1  0
 14 15  2  0
 15 16  1  0
 16 17  1  0
  6 18  2  0
 18  3  1  0
 17  9  1  0
 16 12  1  0
  1 19  1  0
  1 20  1  0
  1 21  1  0
  2 22  1  0
  2 23  1  0
  4 24  1  0
  7 25  1  0
  7 26  1  0
  8 27  1  0
  9 28  1  6
 10 29  1  0
 10 30  1  0
 11 31  1  0
 11 32  1  0
 14 33  1  0
 17 34  1  0
 17 35  1  0
M  END
>  <UniqueID>  (24) 
23

>  <SMILES>  (24) 
CCc1csc(CN[C@@H]2CCc3ncnn3C2)n1

>  <Energy>  (24) 
95.43202956084323

>  <Genealogy>  (24) 
CCc1csc(CN[C@@H]2CCc3ncnn3C2)n1 (chirality)
CCc1csc(CN[C@@H]2CCc3ncnn3C2)n1 (3D coordinates assigned)
CCc1csc(CN[C@@H]2CCc3ncnn3C2)n1 (nonaromatic ring conformer: 95.43202956084323 kcal/mol)

>  <smiles>  (24) 
CCc1csc(CNC2CCc3ncnn3C2)n1

>  <score_type>  (24) 
oracle

>  <origin>  (24) 
adg

>  <m_score__min__energy>  (24) 
-7

>  <m_primary>  (24) 
energy

$$$$
24:0
     RDKit          3D

 44 47  0  0  0  0  0  0  0  0999 V2000
   -9.0950   18.3620  -31.5780 C   0  0  0  0  0  0  0  0  0  0  0  0
   -7.8820   18.5260  -32.4440 C   0  0  0  0  0  0  0  0  0  0  0  0
   -7.2360   17.4090  -33.0140 C   0  0  0  0  0  0  0  0  0  0  0  0
   -6.0650   17.5720  -33.7780 C   0  0  0  0  0  0  0  0  0  0  0  0
   -5.5330   18.8560  -33.9640 C   0  0  0  0  0  0  0  0  0  0  0  0
   -6.1790   19.8990  -33.3880 N   0  0  0  0  0  0  0  0  0  0  0  0
   -5.8300   21.1670  -33.3940 N   0  0  0  0  0  0  0  0  0  0  0  0
   -6.7640   21.8080  -32.6570 C   0  0  0  0  0  0  0  0  0  0  0  0
   -6.7040   23.2670  -32.3240 C   0  0  0  0  0  0  0  0  0  0  0  0
   -5.9490   23.5190  -31.0150 C   0  0  0  0  0  0  0  0  0  0  0  0
   -4.6220   22.8080  -30.9910 C   0  0  0  0  0  0  0  0  0  0  0  0
   -3.9970   22.4300  -32.1280 N   0  0  0  0  0  0  0  0  0  0  0  0
   -2.8620   21.8450  -31.6990 C   0  0  0  0  0  0  0  0  0  0  0  0
   -1.8420   21.2810  -32.5940 C   0  0  0  0  0  0  0  0  0  0  0  0
   -2.0760   20.7390  -33.8510 C   0  0  0  0  0  0  0  0  0  0  0  0
   -0.9140   20.2710  -34.4750 C   0  0  0  0  0  0  0  0  0  0  0  0
    0.2360   20.4400  -33.7140 C   0  0  0  0  0  0  0  0  0  0  0  0
   -0.1950   21.1730  -32.2630 S   0  0  0  0  0  0  0  0  0  0  0  0
   -2.8110   21.8720  -30.3230 C   0  0  0  0  0  0  0  0  0  0  0  0
   -3.9390   22.4560  -29.8720 N   0  0  0  0  0  0  0  0  0  0  0  0
   -4.2680   22.7880  -28.4770 C   0  0  0  0  0  0  0  0  0  0  0  0
   -4.1820   24.2910  -28.1830 C   0  0  0  0  0  0  0  0  0  0  0  0
   -3.1120   24.8540  -28.8550 F   0  0  0  0  0  0  0  0  0  0  0  0
   -5.3500   24.9240  -28.5680 F   0  0  0  0  0  0  0  0  0  0  0  0
   -4.0050   24.4830  -26.8250 F   0  0  0  0  0  0  0  0  0  0  0  0
   -7.7090   20.9630  -32.1630 N   0  0  0  0  0  0  0  0  0  0  0  0
   -7.2940   19.7760  -32.6560 C   0  0  0  0  0  0  0  0  0  0  0  0
   -8.7980   18.4021  -30.5196 H   0  0  0  0  0  0  0  0  0  0  0  0
   -9.8088   19.1718  -31.7895 H   0  0  0  0  0  0  0  0  0  0  0  0
   -9.5681   17.3917  -31.7895 H   0  0  0  0  0  0  0  0  0  0  0  0
   -7.6509   16.4019  -32.8601 H   0  0  0  0  0  0  0  0  0  0  0  0
   -5.5704   16.6977  -34.2263 H   0  0  0  0  0  0  0  0  0  0  0  0
   -4.6206   19.0118  -34.5584 H   0  0  0  0  0  0  0  0  0  0  0  0
   -4.9830   21.5710  -33.8550 H   0  0  0  0  0  0  0  0  0  0  0  0
   -6.1908   23.7979  -33.1394 H   0  0  0  0  0  0  0  0  0  0  0  0
   -7.7340   23.6334  -32.2017 H   0  0  0  0  0  0  0  0  0  0  0  0
   -5.7762   24.5998  -30.9057 H   0  0  0  0  0  0  0  0  0  0  0  0
   -6.5604   23.1314  -30.1868 H   0  0  0  0  0  0  0  0  0  0  0  0
   -3.0741   20.6832  -34.3100 H   0  0  0  0  0  0  0  0  0  0  0  0
   -0.9114   19.8122  -35.4747 H   0  0  0  0  0  0  0  0  0  0  0  0
    1.2536   20.1450  -34.0097 H   0  0  0  0  0  0  0  0  0  0  0  0
   -1.9916   21.4841  -29.6999 H   0  0  0  0  0  0  0  0  0  0  0  0
   -5.2930   22.4479  -28.2680 H   0  0  0  0  0  0  0  0  0  0  0  0
   -3.5298   22.2842  -27.8357 H   0  0  0  0  0  0  0  0  0  0  0  0
  1  2  1  0
  2  3  2  0
  3  4  1  0
  4  5  2  0
  5  6  1  0
  6  7  1  0
  7  8  2  0
  8  9  1  0
  9 10  1  0
 10 11  1  0
 11 12  2  0
 12 13  1  0
 13 14  1  0
 14 15  2  0
 15 16  1  0
 16 17  2  0
 17 18  1  0
 13 19  2  0
 19 20  1  0
 20 21  1  0
 21 22  1  0
 22 23  1  0
 22 24  1  0
 22 25  1  0
  8 26  1  0
 26 27  2  0
 27  2  1  0
 27  6  1  0
 20 11  1  0
 18 14  1  0
  1 28  1  0
  1 29  1  0
  1 30  1  0
  3 31  1  0
  4 32  1  0
  5 33  1  0
  7 34  1  0
  9 35  1  0
  9 36  1  0
 10 37  1  0
 10 38  1  0
 15 39  1  0
 16 40  1  0
 17 41  1  0
 19 42  1  0
 21 43  1  0
 21 44  1  0
M  CHG  1   7   1
M  END
>  <UniqueID>  (25) 
24

>  <SMILES>  (25) 
Cc1cccn2[nH+]c(CCc3nc(-c4cccs4)cn3CC(F)(F)F)nc12

>  <Energy>  (25) 
134.5265915335913

>  <Genealogy>  (25) 
Cc1cccn2[nH+]c(CCc3nc(-c4cccs4)cn3CC(F)(F)F)nc12 (protonated)
Cc1cccn2[nH+]c(CCc3nc(-c4cccs4)cn3CC(F)(F)F)nc12 (3D coordinates assigned)
Cc1cccn2[nH+]c(CCc3nc(-c4cccs4)cn3CC(F)(F)F)nc12 (optimized conformer: 134.5265915335913 kcal/mol)

>  <smiles>  (25) 
Cc1cccn2nc(CCc3nc(-c4cccs4)cn3CC(F)(F)F)nc12

>  <score_type>  (25) 
oracle

>  <origin>  (25) 
adg

>  <m_score__min__energy>  (25) 
-7.4100000000000001

>  <m_primary>  (25) 
energy

$$$$
25:0
     RDKit          3D

 50 53  0  0  0  0  0  0  0  0999 V2000
   -3.2620   22.2800  -28.1050 C   0  0  0  0  0  0  0  0  0  0  0  0
   -2.4030   21.6010  -29.1680 C   0  0  0  0  0  0  0  0  0  0  0  0
   -1.2390   22.5060  -29.5960 C   0  0  0  0  0  0  0  0  0  0  0  0
   -0.5000   21.9550  -30.8270 C   0  0  0  0  0  0  0  0  0  0  0  0
   -0.0170   20.5300  -30.6540 C   0  0  0  0  0  0  0  0  0  0  0  0
    0.2090   20.1170  -29.4440 N   0  0  0  0  0  0  0  0  0  0  0  0
    0.7510   18.5220  -29.1110 S   0  0  0  0  0  0  0  0  0  0  0  0
    1.9570   18.5760  -28.2180 O   0  0  0  0  0  0  0  0  0  0  0  0
   -0.3440   17.7260  -28.4660 O   0  0  0  0  0  0  0  0  0  0  0  0
    1.1840   17.8260  -30.6190 N   0  0  0  0  0  0  0  0  0  0  0  0
    0.8540   18.3920  -31.7340 C   0  0  0  0  0  0  0  0  0  0  0  0
    0.0920   19.6220  -31.7910 N   0  0  0  0  0  0  0  0  0  0  0  0
   -0.5930   19.9180  -33.0630 C   0  0  0  0  0  0  0  0  0  0  0  0
   -2.0120   20.3570  -32.8150 C   0  0  0  0  0  0  0  0  0  0  0  0
   -2.5170   21.4940  -33.4620 C   0  0  0  0  0  0  0  0  0  0  0  0
   -3.8410   21.8890  -33.2630 C   0  0  0  0  0  0  0  0  0  0  0  0
   -4.6810   21.1500  -32.4140 C   0  0  0  0  0  0  0  0  0  0  0  0
   -6.0890   21.5620  -32.2160 C   0  0  0  0  0  0  0  0  0  0  0  0
   -7.1050   20.6720  -32.6010 C   0  0  0  0  0  0  0  0  0  0  0  0
   -8.4440   20.9660  -32.3370 C   0  0  0  0  0  0  0  0  0  0  0  0
   -8.7820   22.1480  -31.6830 C   0  0  0  0  0  0  0  0  0  0  0  0
   -7.7870   23.0530  -31.3080 C   0  0  0  0  0  0  0  0  0  0  0  0
   -6.4350   22.7870  -31.5850 C   0  0  0  0  0  0  0  0  0  0  0  0
   -5.4260   23.8160  -31.2430 C   0  0  0  0  0  0  0  0  0  0  0  0
   -5.6560   25.1410  -31.2270 N   0  0  0  0  0  0  0  0  0  0  0  0
   -4.5100   25.6800  -30.8450 N   0  0  0  0  0  0  0  0  0  0  0  0
   -3.6200   24.7280  -30.6300 N   0  0  0  0  0  0  0  0  0  0  0  0
   -4.1650   23.5460  -30.8640 N   0  0  0  0  0  0  0  0  0  0  0  0
   -4.1660   20.0340  -31.7370 C   0  0  0  0  0  0  0  0  0  0  0  0
   -2.8400   19.6410  -31.9360 C   0  0  0  0  0  0  0  0  0  0  0  0
   -2.9017   21.9952  -27.1055 H   0  0  0  0  0  0  0  0  0  0  0  0
   -3.1948   23.3717  -28.2216 H   0  0  0  0  0  0  0  0  0  0  0  0
   -4.3087   21.9625  -28.2216 H   0  0  0  0  0  0  0  0  0  0  0  0
   -1.9981   20.6638  -28.7585 H   0  0  0  0  0  0  0  0  0  0  0  0
   -3.0306   21.3978  -30.0482 H   0  0  0  0  0  0  0  0  0  0  0  0
   -1.6354   23.5033  -29.8373 H   0  0  0  0  0  0  0  0  0  0  0  0
   -0.5220   22.5522  -28.7631 H   0  0  0  0  0  0  0  0  0  0  0  0
   -1.1841   21.9887  -31.6877 H   0  0  0  0  0  0  0  0  0  0  0  0
    0.3908   22.5826  -30.9773 H   0  0  0  0  0  0  0  0  0  0  0  0
    1.1649   17.9198  -32.6776 H   0  0  0  0  0  0  0  0  0  0  0  0
   -0.0528   20.7213  -33.5854 H   0  0  0  0  0  0  0  0  0  0  0  0
   -0.6078   19.0054  -33.6769 H   0  0  0  0  0  0  0  0  0  0  0  0
   -1.8664   22.0777  -34.1298 H   0  0  0  0  0  0  0  0  0  0  0  0
   -4.2282   22.7831  -33.7735 H   0  0  0  0  0  0  0  0  0  0  0  0
   -6.8435   19.7353  -33.1150 H   0  0  0  0  0  0  0  0  0  0  0  0
   -9.2323   20.2637  -32.6457 H   0  0  0  0  0  0  0  0  0  0  0  0
   -9.8364   22.3695  -31.4611 H   0  0  0  0  0  0  0  0  0  0  0  0
   -8.0640   23.9834  -30.7906 H   0  0  0  0  0  0  0  0  0  0  0  0
   -4.8083   19.4667  -31.0474 H   0  0  0  0  0  0  0  0  0  0  0  0
   -2.4427   18.7658  -31.4010 H   0  0  0  0  0  0  0  0  0  0  0  0
  1  2  1  0
  2  3  1  0
  3  4  1  0
  4  5  1  0
  5  6  2  0
  6  7  1  0
  7  8  2  0
  7  9  2  0
  7 10  1  0
 10 11  2  0
 11 12  1  0
 12 13  1  0
 13 14  1  0
 14 15  2  0
 15 16  1  0
 16 17  2  0
 17 18  1  0
 18 19  2  0
 19 20  1  0
 20 21  2  0
 21 22  1  0
 22 23  2  0
 23 24  1  0
 24 25  1  0
 25 26  2  0
 26 27  1  0
 27 28  1  0
 17 29  1  0
 29 30  2  0
 12  5  1  0
 30 14  1  0
 23 18  1  0
 28 24  2  0
  1 31  1  0
  1 32  1  0
  1 33  1  0
  2 34  1  0
  2 35  1  0
  3 36  1  0
  3 37  1  0
  4 38  1  0
  4 39  1  0
 11 40  1  0
 13 41  1  0
 13 42  1  0
 15 43  1  0
 16 44  1  0
 19 45  1  0
 20 46  1  0
 21 47  1  0
 22 48  1  0
 29 49  1  0
 30 50  1  0
M  CHG  1  27  -1
M  END
>  <UniqueID>  (26) 
25

>  <SMILES>  (26) 
CCCCC1=NS(=O)(=O)N=CN1Cc1ccc(-c2ccccc2-c2nn[n-]n2)cc1

>  <Energy>  (26) 
102.95799596647235

>  <Genealogy>  (26) 
CCCCC1=NS(=O)(=O)N=CN1Cc1ccc(-c2ccccc2-c2nn[n-]n2)cc1 (protonated)
CCCCC1=NS(=O)(=O)N=CN1Cc1ccc(-c2ccccc2-c2nn[n-]n2)cc1 (3D coordinates assigned)
CCCCC1=NS(=O)(=O)N=CN1Cc1ccc(-c2ccccc2-c2nn[n-]n2)cc1 (nonaromatic ring conformer: 102.95799596647235 kcal/mol)

>  <smiles>  (26) 
CCCCC1=NS(=O)(=O)N=CN1Cc1ccc(-c2ccccc2-c2nn[nH]n2)cc1

>  <score_type>  (26) 
oracle

>  <origin>  (26) 
adg

>  <m_score__min__energy>  (26) 
-10.23

>  <m_primary>  (26) 
energy

$$$$
26:0
     RDKit          3D

 40 41  0  0  0  0  0  0  0  0999 V2000
   -0.0970   24.3750  -27.3110 C   0  0  0  0  0  0  0  0  0  0  0  0
   -0.1440   23.7650  -28.7080 C   0  0  0  0  0  0  0  0  0  0  0  0
   -1.4710   23.1930  -28.9770 N   0  0  0  0  0  0  0  0  0  0  0  0
   -1.7240   21.7790  -28.6560 C   0  0  0  0  0  0  0  0  0  0  0  0
   -2.7480   21.6430  -27.5330 C   0  0  0  0  0  0  0  0  0  0  0  0
   -2.5480   24.0620  -29.3980 C   0  0  0  0  0  0  0  0  0  0  0  0
   -2.4870   25.2990  -29.1630 O   0  0  0  0  0  0  0  0  0  0  0  0
   -3.7150   23.5370  -30.1340 C   0  0  0  0  0  0  0  0  0  0  0  0
   -3.5040   22.5740  -31.1320 C   0  0  0  0  0  0  0  0  0  0  0  0
   -4.5820   22.0450  -31.8480 C   0  0  0  0  0  0  0  0  0  0  0  0
   -4.3020   20.7880  -33.0950 S   0  0  0  0  0  0  0  0  0  0  0  0
   -5.9450   20.1140  -32.8970 C   0  0  0  0  0  0  0  0  0  0  0  0
   -6.9370   20.2860  -33.7970 N   0  0  0  0  0  0  0  0  0  0  0  0
   -8.0620   19.6670  -33.4490 N   0  0  0  0  0  0  0  0  0  0  0  0
   -7.9830   19.0100  -32.2700 C   0  0  0  0  0  0  0  0  0  0  0  0
   -9.0830   18.1760  -31.7040 C   0  0  0  0  0  0  0  0  0  0  0  0
   -6.4410   19.1550  -31.6040 S   0  0  0  0  0  0  0  0  0  0  0  0
   -5.8790   22.4930  -31.5860 C   0  0  0  0  0  0  0  0  0  0  0  0
   -6.1010   23.4610  -30.6060 C   0  0  0  0  0  0  0  0  0  0  0  0
   -5.0300   23.9890  -29.8680 C   0  0  0  0  0  0  0  0  0  0  0  0
   -5.3000   24.9460  -28.8340 N   0  0  0  0  0  0  0  0  0  0  0  0
   -0.1587   23.5745  -26.5591 H   0  0  0  0  0  0  0  0  0  0  0  0
    0.8463   24.9262  -27.1831 H   0  0  0  0  0  0  0  0  0  0  0  0
   -0.9447   25.0642  -27.1831 H   0  0  0  0  0  0  0  0  0  0  0  0
    0.0704   24.5468  -29.4515 H   0  0  0  0  0  0  0  0  0  0  0  0
    0.6074   22.9642  -28.7714 H   0  0  0  0  0  0  0  0  0  0  0  0
   -2.1058   21.2701  -29.5533 H   0  0  0  0  0  0  0  0  0  0  0  0
   -0.7798   21.3228  -28.3237 H   0  0  0  0  0  0  0  0  0  0  0  0
   -2.2374   21.7108  -26.5610 H   0  0  0  0  0  0  0  0  0  0  0  0
   -3.4906   22.4504  -27.6142 H   0  0  0  0  0  0  0  0  0  0  0  0
   -3.2541   20.6697  -27.6142 H   0  0  0  0  0  0  0  0  0  0  0  0
   -2.4820   22.2323  -31.3530 H   0  0  0  0  0  0  0  0  0  0  0  0
   -8.9180   19.6900  -34.0470 H   0  0  0  0  0  0  0  0  0  0  0  0
   -9.0398   18.2087  -30.6053 H   0  0  0  0  0  0  0  0  0  0  0  0
  -10.0527   18.5679  -32.0447 H   0  0  0  0  0  0  0  0  0  0  0  0
   -8.9675   17.1365  -32.0447 H   0  0  0  0  0  0  0  0  0  0  0  0
   -6.7269   22.0818  -32.1534 H   0  0  0  0  0  0  0  0  0  0  0  0
   -7.1244   23.8135  -30.4100 H   0  0  0  0  0  0  0  0  0  0  0  0
   -4.6000   25.6620  -28.5450 H   0  0  0  0  0  0  0  0  0  0  0  0
   -6.2010   24.9130  -28.3060 H   0  0  0  0  0  0  0  0  0  0  0  0
  1  2  1  0
  2  3  1  0
  3  4  1  0
  4  5  1  0
  3  6  1  0
  6  7  2  0
  6  8  1  0
  8  9  2  0
  9 10  1  0
 10 11  1  0
 11 12  1  0
 12 13  2  0
 13 14  1  0
 14 15  2  0
 15 16  1  0
 15 17  1  0
 10 18  2  0
 18 19  1  0
 19 20  2  0
 20 21  1  0
 20  8  1  0
 17 12  1  0
  1 22  1  0
  1 23  1  0
  1 24  1  0
  2 25  1  0
  2 26  1  0
  4 27  1  0
  4 28  1  0
  5 29  1  0
  5 30  1  0
  5 31  1  0
  9 32  1  0
 14 33  1  0
 16 34  1  0
 16 35  1  0
 16 36  1  0
 18 37  1  0
 19 38  1  0
 21 39  1  0
 21 40  1  0
M  CHG  1  14   1
M  END
>  <UniqueID>  (27) 
26

>  <SMILES>  (27) 
CCN(CC)C(=O)c1cc(Sc2n[nH+]c(C)s2)ccc1N

>  <Energy>  (27) 
66.26687168750789

>  <Genealogy>  (27) 
CCN(CC)C(=O)c1cc(Sc2n[nH+]c(C)s2)ccc1N (protonated)
CCN(CC)C(=O)c1cc(Sc2n[nH+]c(C)s2)ccc1N (3D coordinates assigned)
CCN(CC)C(=O)c1cc(Sc2n[nH+]c(C)s2)ccc1N (optimized conformer: 66.26687168750789 kcal/mol)

>  <smiles>  (27) 
CCN(CC)C(=O)c1cc(Sc2nnc(C)s2)ccc1N

>  <score_type>  (27) 
oracle

>  <origin>  (27) 
adg

>  <m_score__min__energy>  (27) 
-7.4400000000000004

>  <m_primary>  (27) 
energy

$$$$
27:0
     RDKit          3D

 26 26  0  0  0  0  0  0  0  0999 V2000
   -8.9237   19.3814  -30.5921 H   0  0  0  0  0  0  0  0  0  0  0  0
   -8.3150   19.3310  -31.5070 C   0  0  0  0  0  0  0  0  0  0  0  0
   -7.8800   18.0960  -31.9870 C   0  0  0  0  0  0  0  0  0  0  0  0
   -8.1273   17.1714  -31.4449 H   0  0  0  0  0  0  0  0  0  0  0  0
   -7.1270   18.0440  -33.1630 C   0  0  0  0  0  0  0  0  0  0  0  0
   -6.5740   16.4960  -33.7770 Cl  0  0  0  0  0  0  0  0  0  0  0  0
   -6.8300   19.1900  -33.8330 N   0  0  0  0  0  0  0  0  0  0  0  0
   -6.2750   19.1410  -34.7160 H   0  0  0  0  0  0  0  0  0  0  0  0
   -7.2440   20.4070  -33.3820 C   0  0  0  0  0  0  0  0  0  0  0  0
   -7.0023   21.3140  -33.9555 H   0  0  0  0  0  0  0  0  0  0  0  0
   -7.9770   20.5100  -32.1900 C   0  0  0  0  0  0  0  0  0  0  0  0
   -8.4690   21.8540  -31.7180 C   0  0  0  0  0  0  0  0  0  0  0  0
   -8.6417   21.8084  -30.6326 H   0  0  0  0  0  0  0  0  0  0  0  0
   -9.3989   22.0856  -32.2580 H   0  0  0  0  0  0  0  0  0  0  0  0
   -7.5120   22.9090  -31.9970 N   0  0  0  0  0  0  0  0  0  0  0  0
   -6.6370   23.4320  -31.1920 C   0  0  0  0  0  0  0  0  0  0  0  0
   -7.0950   24.6060  -30.3700 C   0  0  0  0  0  0  0  0  0  0  0  0
   -7.0007   24.3643  -29.3010 H   0  0  0  0  0  0  0  0  0  0  0  0
   -6.4729   25.4825  -30.6040 H   0  0  0  0  0  0  0  0  0  0  0  0
   -8.1463   24.8296  -30.6040 H   0  0  0  0  0  0  0  0  0  0  0  0
   -5.1950   22.9550  -31.0500 C   0  0  0  0  0  0  0  0  0  0  0  0
   -5.1861   22.2455  -30.2094 H   0  0  0  0  0  0  0  0  0  0  0  0
   -4.2830   24.0550  -30.7170 C   0  0  0  0  0  0  0  0  0  0  0  0
   -3.5640   24.9240  -30.4570 N   0  0  0  0  0  0  0  0  0  0  0  0
   -4.7310   22.2370  -32.2410 C   0  0  0  0  0  0  0  0  0  0  0  0
   -4.3540   21.6820  -33.1840 N   0  0  0  0  0  0  0  0  0  0  0  0
  1  2  1  0
  2  3  2  0
  3  4  1  0
  3  5  1  0
  5  6  1  0
  5  7  2  0
  7  8  1  0
  7  9  1  0
  9 10  1  0
  9 11  2  0
 11 12  1  0
 12 13  1  0
 12 14  1  0
 12 15  1  0
 15 16  2  0
 16 17  1  0
 17 18  1  0
 17 19  1  0
 17 20  1  0
 16 21  1  0
 21 22  1  0
 21 23  1  0
 23 24  3  0
 21 25  1  0
 25 26  3  0
 11  2  1  0
M  CHG  1   7   1
M  END
>  <UniqueID>  (28) 
27

>  <SMILES>  (28) 
C/C(=N/Cc1ccc(Cl)[nH+]c1)C(C#N)C#N

>  <Energy>  (28) 
22.87450383077478

>  <Genealogy>  (28) 
CC(=NCc1ccc(Cl)[nH+]c1)C(C#N)C#N (protonated)
C/C(=N/Cc1ccc(Cl)[nH+]c1)C(C#N)C#N (cis-trans isomerization)
C/C(=N/Cc1ccc(Cl)[nH+]c1)C(C#N)C#N (3D coordinates assigned)
C/C(=N/Cc1ccc(Cl)[nH+]c1)C(C#N)C#N (optimized conformer: 22.87450383077478 kcal/mol)

>  <smiles>  (28) 
CC(=NCc1ccc(Cl)nc1)C(C#N)C#N

>  <score_type>  (28) 
oracle

>  <origin>  (28) 
adg

>  <m_score__min__energy>  (28) 
-5.9500000000000002

>  <m_primary>  (28) 
energy

$$$$
28:0
     RDKit          3D

 53 55  0  0  0  0  0  0  0  0999 V2000
   -1.5970   26.6990  -24.9970 C   0  0  0  0  0  0  0  0  0  0  0  0
   -0.8030   26.5490  -23.6960 C   0  0  0  0  0  0  0  0  0  0  0  0
    0.1110   25.3910  -23.7330 N   0  0  0  0  0  0  0  0  0  0  0  0
    0.3530   24.8930  -25.1070 C   0  0  0  0  0  0  0  0  0  0  0  0
   -0.4070   23.5880  -25.4090 C   0  0  0  0  0  0  0  0  0  0  0  0
   -0.2740   23.1980  -26.8210 N   0  0  0  0  0  0  0  0  0  0  0  0
    0.4360   21.9640  -27.1750 C   0  0  0  0  0  0  0  0  0  0  0  0
   -0.5020   20.8030  -27.0950 C   0  0  0  0  0  0  0  0  0  0  0  0
   -1.6830   20.7600  -26.3680 C   0  0  0  0  0  0  0  0  0  0  0  0
   -2.3000   19.5030  -26.3960 C   0  0  0  0  0  0  0  0  0  0  0  0
   -1.5980   18.5540  -27.1280 C   0  0  0  0  0  0  0  0  0  0  0  0
   -0.2080   19.2780  -27.7360 S   0  0  0  0  0  0  0  0  0  0  0  0
   -0.7750   24.0500  -27.8690 C   0  0  0  0  0  0  0  0  0  0  0  0
   -0.1120   25.0690  -28.2060 O   0  0  0  0  0  0  0  0  0  0  0  0
   -2.0330   23.7340  -28.5800 C   0  0  0  0  0  0  0  0  0  0  0  0
   -3.2610   23.7720  -27.9060 C   0  0  0  0  0  0  0  0  0  0  0  0
   -4.4460   23.4900  -28.5870 C   0  0  0  0  0  0  0  0  0  0  0  0
   -4.4090   23.1800  -29.9610 C   0  0  0  0  0  0  0  0  0  0  0  0
   -5.6120   22.8780  -30.7140 N   0  0  0  0  0  0  0  0  0  0  0  0
   -5.6570   21.6070  -31.4610 C   0  0  0  0  0  0  0  0  0  0  0  0
   -6.8760   21.4990  -32.3830 C   0  0  0  0  0  0  0  0  0  0  0  0
   -8.0320   22.0020  -31.7510 O   0  0  0  0  0  0  0  0  0  0  0  0
   -7.8940   23.3980  -31.6080 C   0  0  0  0  0  0  0  0  0  0  0  0
   -6.8040   23.7380  -30.5860 C   0  0  0  0  0  0  0  0  0  0  0  0
   -3.1990   23.1600  -30.5900 N   0  0  0  0  0  0  0  0  0  0  0  0
   -2.0320   23.4280  -29.9470 C   0  0  0  0  0  0  0  0  0  0  0  0
   -2.6528   26.8985  -24.7613 H   0  0  0  0  0  0  0  0  0  0  0  0
   -1.1875   27.5357  -25.5821 H   0  0  0  0  0  0  0  0  0  0  0  0
   -1.5210   25.7706  -25.5821 H   0  0  0  0  0  0  0  0  0  0  0  0
   -0.2117   27.4623  -23.5342 H   0  0  0  0  0  0  0  0  0  0  0  0
   -1.5207   26.3876  -22.8782 H   0  0  0  0  0  0  0  0  0  0  0  0
   -0.2870   24.6330  -23.1320 H   0  0  0  0  0  0  0  0  0  0  0  0
    1.0260   25.6570  -23.2980 H   0  0  0  0  0  0  0  0  0  0  0  0
    0.0284   25.6628  -25.8225 H   0  0  0  0  0  0  0  0  0  0  0  0
    1.4283   24.6799  -25.1984 H   0  0  0  0  0  0  0  0  0  0  0  0
   -0.0013   22.7843  -24.7770 H   0  0  0  0  0  0  0  0  0  0  0  0
   -1.4735   23.7542  -25.1971 H   0  0  0  0  0  0  0  0  0  0  0  0
    0.8272   22.0482  -28.1996 H   0  0  0  0  0  0  0  0  0  0  0  0
    1.2689   21.8087  -26.4735 H   0  0  0  0  0  0  0  0  0  0  0  0
   -2.0927   21.6246  -25.8252 H   0  0  0  0  0  0  0  0  0  0  0  0
   -3.2508   19.2876  -25.8864 H   0  0  0  0  0  0  0  0  0  0  0  0
   -1.8999   17.5077  -27.2833 H   0  0  0  0  0  0  0  0  0  0  0  0
   -3.2910   24.0251  -26.8359 H   0  0  0  0  0  0  0  0  0  0  0  0
   -5.4070   23.5097  -28.0522 H   0  0  0  0  0  0  0  0  0  0  0  0
   -4.7463   21.5272  -32.0727 H   0  0  0  0  0  0  0  0  0  0  0  0
   -5.7281   20.7937  -30.7238 H   0  0  0  0  0  0  0  0  0  0  0  0
   -6.6865   22.0769  -33.2996 H   0  0  0  0  0  0  0  0  0  0  0  0
   -7.0410   20.4385  -32.6242 H   0  0  0  0  0  0  0  0  0  0  0  0
   -7.6243   23.8348  -32.5809 H   0  0  0  0  0  0  0  0  0  0  0  0
   -8.8497   23.8111  -31.2530 H   0  0  0  0  0  0  0  0  0  0  0  0
   -6.4994   24.7848  -30.7321 H   0  0  0  0  0  0  0  0  0  0  0  0
   -7.2262   23.5719  -29.5839 H   0  0  0  0  0  0  0  0  0  0  0  0
   -1.0828   23.4045  -30.5023 H   0  0  0  0  0  0  0  0  0  0  0  0
  1  2  1  0
  2  3  1  0
  3  4  1  0
  4  5  1  0
  5  6  1  0
  6  7  1  0
  7  8  1  0
  8  9  2  0
  9 10  1  0
 10 11  2  0
 11 12  1  0
  6 13  1  0
 13 14  2  0
 13 15  1  0
 15 16  2  0
 16 17  1  0
 17 18  2  0
 18 19  1  0
 19 20  1  0
 20 21  1  0
 21 22  1  0
 22 23  1  0
 23 24  1  0
 18 25  1  0
 25 26  2  0
 12  8  1  0
 26 15  1  0
 24 19  1  0
  1 27  1  0
  1 28  1  0
  1 29  1  0
  2 30  1  0
  2 31  1  0
  3 32  1  0
  3 33  1  0
  4 34  1  0
  4 35  1  0
  5 36  1  0
  5 37  1  0
  7 38  1  0
  7 39  1  0
  9 40  1  0
 10 41  1  0
 11 42  1  0
 16 43  1  0
 17 44  1  0
 20 45  1  0
 20 46  1  0
 21 47  1  0
 21 48  1  0
 23 49  1  0
 23 50  1  0
 24 51  1  0
 24 52  1  0
 26 53  1  0
M  CHG  1   3   1
M  END
>  <UniqueID>  (29) 
28

>  <SMILES>  (29) 
CC[NH2+]CCN(Cc1cccs1)C(=O)c1ccc(N2CCOCC2)nc1

>  <Energy>  (29) 
84.74698811456129

>  <Genealogy>  (29) 
CC[NH2+]CCN(Cc1cccs1)C(=O)c1ccc(N2CCOCC2)nc1 (protonated)
CC[NH2+]CCN(Cc1cccs1)C(=O)c1ccc(N2CCOCC2)nc1 (3D coordinates assigned)
CC[NH2+]CCN(Cc1cccs1)C(=O)c1ccc(N2CCOCC2)nc1 (nonaromatic ring conformer: 84.74698811456129 kcal/mol)

>  <smiles>  (29) 
CCNCCN(Cc1cccs1)C(=O)c1ccc(N2CCOCC2)nc1

>  <score_type>  (29) 
oracle

>  <origin>  (29) 
adg

>  <m_score__min__energy>  (29) 
-7.3200000000000003

>  <m_primary>  (29) 
energy

$$$$
29:0
     RDKit          3D

 53 56  0  0  0  0  0  0  0  0999 V2000
   -5.2750   16.2070  -31.9740 C   0  0  0  0  0  0  0  0  0  0  0  0
   -6.0860   17.4740  -31.6610 C   0  0  0  0  0  0  0  0  0  0  0  0
   -6.6790   18.1270  -32.8540 N   0  0  0  0  0  0  0  0  0  0  0  0
   -6.4530   17.3340  -34.0850 C   0  0  0  0  0  0  0  0  0  0  0  0
   -5.7350   18.1710  -35.1410 C   0  0  0  0  0  0  0  0  0  0  0  0
   -8.1070   18.4910  -32.6960 C   0  0  0  0  0  0  0  0  0  0  0  0
   -8.4020   19.0730  -31.3010 C   0  0  0  0  0  0  0  0  0  0  0  0
   -8.3520   20.6140  -31.2800 C   0  0  0  0  0  0  0  0  0  0  0  0
   -7.6280   21.2190  -32.4940 C   0  0  0  0  0  0  0  0  0  0  0  0
   -6.3900   21.9030  -32.1060 N   0  0  0  0  0  0  0  0  0  0  0  0
   -6.2480   23.0460  -31.3780 C   0  0  0  0  0  0  0  0  0  0  0  0
   -7.2490   23.8520  -30.8250 C   0  0  0  0  0  0  0  0  0  0  0  0
   -6.8580   24.9830  -30.0850 C   0  0  0  0  0  0  0  0  0  0  0  0
   -5.4910   25.2920  -29.9090 C   0  0  0  0  0  0  0  0  0  0  0  0
   -4.4960   24.4740  -30.4700 C   0  0  0  0  0  0  0  0  0  0  0  0
   -4.9110   23.3620  -31.1970 C   0  0  0  0  0  0  0  0  0  0  0  0
   -4.2060   22.3740  -31.8330 C   0  0  0  0  0  0  0  0  0  0  0  0
   -2.8710   22.1810  -31.9430 N   0  0  0  0  0  0  0  0  0  0  0  0
   -2.4350   21.0800  -32.6270 C   0  0  0  0  0  0  0  0  0  0  0  0
   -1.0650   20.8380  -32.7690 C   0  0  0  0  0  0  0  0  0  0  0  0
   -0.6230   19.7110  -33.4680 C   0  0  0  0  0  0  0  0  0  0  0  0
   -1.5450   18.8190  -34.0290 C   0  0  0  0  0  0  0  0  0  0  0  0
   -2.9180   19.0460  -33.8960 C   0  0  0  0  0  0  0  0  0  0  0  0
   -3.3810   20.1720  -33.1980 C   0  0  0  0  0  0  0  0  0  0  0  0
   -4.7250   20.4060  -33.0580 N   0  0  0  0  0  0  0  0  0  0  0  0
   -5.1200   21.5090  -32.3720 C   0  0  0  0  0  0  0  0  0  0  0  0
   -4.9676   15.7267  -31.0333 H   0  0  0  0  0  0  0  0  0  0  0  0
   -5.8949   15.5094  -32.5564 H   0  0  0  0  0  0  0  0  0  0  0  0
   -4.3820   16.4778  -32.5564 H   0  0  0  0  0  0  0  0  0  0  0  0
   -6.9021   17.2007  -30.9760 H   0  0  0  0  0  0  0  0  0  0  0  0
   -5.3842   18.1977  -31.2208 H   0  0  0  0  0  0  0  0  0  0  0  0
   -5.8378   16.4554  -33.8408 H   0  0  0  0  0  0  0  0  0  0  0  0
   -7.4272   17.0178  -34.4862 H   0  0  0  0  0  0  0  0  0  0  0  0
   -5.0956   18.9164  -34.6455 H   0  0  0  0  0  0  0  0  0  0  0  0
   -5.1144   17.5150  -35.7691 H   0  0  0  0  0  0  0  0  0  0  0  0
   -6.4778   18.6846  -35.7691 H   0  0  0  0  0  0  0  0  0  0  0  0
   -8.3687   19.2413  -33.4566 H   0  0  0  0  0  0  0  0  0  0  0  0
   -8.7065   17.5767  -32.8169 H   0  0  0  0  0  0  0  0  0  0  0  0
   -9.4056   18.7486  -30.9887 H   0  0  0  0  0  0  0  0  0  0  0  0
   -7.6253   18.7046  -30.6147 H   0  0  0  0  0  0  0  0  0  0  0  0
   -9.3834   20.9960  -31.2634 H   0  0  0  0  0  0  0  0  0  0  0  0
   -7.7848   20.9079  -30.3845 H   0  0  0  0  0  0  0  0  0  0  0  0
   -7.3825   20.4122  -33.2003 H   0  0  0  0  0  0  0  0  0  0  0  0
   -8.2970   21.9599  -32.9562 H   0  0  0  0  0  0  0  0  0  0  0  0
   -8.3125   23.6082  -30.9649 H   0  0  0  0  0  0  0  0  0  0  0  0
   -7.6248   25.6333  -29.6389 H   0  0  0  0  0  0  0  0  0  0  0  0
   -5.2031   26.1805  -29.3279 H   0  0  0  0  0  0  0  0  0  0  0  0
   -3.4282   24.7039  -30.3395 H   0  0  0  0  0  0  0  0  0  0  0  0
   -0.3351   21.5345  -32.3306 H   0  0  0  0  0  0  0  0  0  0  0  0
    0.4554   19.5239  -33.5779 H   0  0  0  0  0  0  0  0  0  0  0  0
   -1.1871   17.9350  -34.5772 H   0  0  0  0  0  0  0  0  0  0  0  0
   -3.6366   18.3409  -34.3392 H   0  0  0  0  0  0  0  0  0  0  0  0
   -5.4280   19.7520  -33.4690 H   0  0  0  0  0  0  0  0  0  0  0  0
  1  2  1  0
  2  3  1  0
  3  4  1  0
  4  5  1  0
  3  6  1  0
  6  7  1  0
  7  8  1  0
  8  9  1  0
  9 10  1  0
 10 11  1  0
 11 12  2  0
 12 13  1  0
 13 14  2  0
 14 15  1  0
 15 16  2  0
 16 17  1  0
 17 18  2  0
 18 19  1  0
 19 20  2  0
 20 21  1  0
 21 22  2  0
 22 23  1  0
 23 24  2  0
 24 25  1  0
 25 26  2  0
 26 10  1  0
 16 11  1  0
 26 17  1  0
 24 19  1  0
  1 27  1  0
  1 28  1  0
  1 29  1  0
  2 30  1  0
  2 31  1  0
  4 32  1  0
  4 33  1  0
  5 34  1  0
  5 35  1  0
  5 36  1  0
  6 37  1  0
  6 38  1  0
  7 39  1  0
  7 40  1  0
  8 41  1  0
  8 42  1  0
  9 43  1  0
  9 44  1  0
 12 45  1  0
 13 46  1  0
 14 47  1  0
 15 48  1  0
 20 49  1  0
 21 50  1  0
 22 51  1  0
 23 52  1  0
 25 53  1  0
M  CHG  1  25   1
M  END
>  <UniqueID>  (30) 
29

>  <SMILES>  (30) 
CCN(CC)CCCCn1c2ccccc2c2nc3ccccc3[nH+]c21

>  <Energy>  (30) 
99.2879970777116

>  <Genealogy>  (30) 
CCN(CC)CCCCn1c2ccccc2c2nc3ccccc3[nH+]c21 (protonated)
CCN(CC)CCCCn1c2ccccc2c2nc3ccccc3[nH+]c21 (3D coordinates assigned)
CCN(CC)CCCCn1c2ccccc2c2nc3ccccc3[nH+]c21 (optimized conformer: 99.2879970777116 kcal/mol)

>  <smiles>  (30) 
CCN(CC)CCCCn1c2ccccc2c2nc3ccccc3nc21

>  <score_type>  (30) 
oracle

>  <origin>  (30) 
adg

>  <m_score__min__energy>  (30) 
-8.5

>  <m_primary>  (30) 
energy

$$$$
30:0
     RDKit          3D

 44 46  0  0  1  0  0  0  0  0999 V2000
   -2.5020   18.0080  -34.1680 C   0  0  0  0  0  0  0  0  0  0  0  0
   -2.6580   19.3550  -34.5000 O   0  0  0  0  0  0  0  0  0  0  0  0
   -2.6150   20.2960  -33.4620 C   0  0  0  0  0  0  0  0  0  0  0  0
   -1.4200   20.4880  -32.8030 C   0  0  0  0  0  0  0  0  0  0  0  0
   -1.3580   21.4100  -31.7790 C   0  0  0  0  0  0  0  0  0  0  0  0
   -2.5000   22.1340  -31.4230 C   0  0  0  0  0  0  0  0  0  0  0  0
   -3.6910   21.9620  -32.0590 C   0  0  0  0  0  0  0  0  0  0  0  0
   -4.8890   22.6820  -31.7270 C   0  0  0  0  0  0  0  0  0  0  0  0
   -4.8310   23.8850  -31.1180 N   0  0  0  0  0  0  0  0  0  0  0  0
   -5.9080   24.6140  -30.7780 C   0  0  0  0  0  0  0  0  0  0  0  0
   -5.7400   25.9420  -30.1020 C   0  0  0  0  0  0  0  0  0  0  0  0
   -7.1610   24.1330  -31.0540 C   0  0  0  0  0  0  0  0  0  0  0  0
   -7.2470   22.9050  -31.6770 C   0  0  0  0  0  0  0  0  0  0  0  0
   -8.3960   22.4000  -31.9620 N   0  0  0  0  0  0  0  0  0  0  0  0
   -9.0110   21.3190  -31.2520 C   0  0  0  0  0  0  0  0  0  0  0  0
   -9.3190   20.2270  -32.2860 C   0  0  0  0  0  0  0  0  0  0  0  0
   -8.1190   19.4220  -32.6120 C   0  0  0  0  0  0  0  0  0  0  0  0
   -7.8860   18.2230  -31.9550 C   0  0  0  0  0  0  0  0  0  0  0  0
   -6.7530   17.5020  -32.2910 C   0  0  0  0  0  0  0  0  0  0  0  0
   -5.8590   17.9350  -33.2470 C   0  0  0  0  0  0  0  0  0  0  0  0
   -6.1310   19.1450  -33.8830 C   0  0  0  0  0  0  0  0  0  0  0  0
   -7.2360   19.8250  -33.5400 N   0  0  0  0  0  0  0  0  0  0  0  0
   -6.1180   22.2090  -31.9990 N   0  0  0  0  0  0  0  0  0  0  0  0
   -3.7260   21.0240  -33.0900 C   0  0  0  0  0  0  0  0  0  0  0  0
   -2.4894   17.8992  -33.0735 H   0  0  0  0  0  0  0  0  0  0  0  0
   -3.3390   17.4284  -34.5845 H   0  0  0  0  0  0  0  0  0  0  0  0
   -1.5547   17.6350  -34.5845 H   0  0  0  0  0  0  0  0  0  0  0  0
   -0.5270   19.9133  -33.0900 H   0  0  0  0  0  0  0  0  0  0  0  0
   -0.4116   21.5755  -31.2433 H   0  0  0  0  0  0  0  0  0  0  0  0
   -2.4338   22.8651  -30.6037 H   0  0  0  0  0  0  0  0  0  0  0  0
   -5.7576   25.8029  -29.0110 H   0  0  0  0  0  0  0  0  0  0  0  0
   -4.7785   26.3859  -30.3996 H   0  0  0  0  0  0  0  0  0  0  0  0
   -6.5606   26.6113  -30.3996 H   0  0  0  0  0  0  0  0  0  0  0  0
   -8.0633   24.7038  -30.7891 H   0  0  0  0  0  0  0  0  0  0  0  0
   -8.3249   20.9311  -30.4846 H   0  0  0  0  0  0  0  0  0  0  0  0
   -9.9284   21.6517  -30.7443 H   0  0  0  0  0  0  0  0  0  0  0  0
  -10.0946   19.5611  -31.8799 H   0  0  0  0  0  0  0  0  0  0  0  0
   -9.6618   20.7177  -33.2088 H   0  0  0  0  0  0  0  0  0  0  0  0
   -8.5828   17.8548  -31.1876 H   0  0  0  0  0  0  0  0  0  0  0  0
   -6.5590   16.5492  -31.7766 H   0  0  0  0  0  0  0  0  0  0  0  0
   -4.9639   17.3471  -33.4986 H   0  0  0  0  0  0  0  0  0  0  0  0
   -5.4508   19.5364  -34.6538 H   0  0  0  0  0  0  0  0  0  0  0  0
   -6.2600   21.2890  -32.4680 H   0  0  0  0  0  0  0  0  0  0  0  0
   -4.6726   20.8588  -33.6254 H   0  0  0  0  0  0  0  0  0  0  0  0
  1  2  1  0
  2  3  1  0
  3  4  2  0
  4  5  1  0
  5  6  2  0
  6  7  1  0
  7  8  1  0
  8  9  2  0
  9 10  1  0
 10 11  1  0
 10 12  2  0
 12 13  1  0
 13 14  2  0
 14 15  1  0
 15 16  1  0
 16 17  1  0
 17 18  2  0
 18 19  1  0
 19 20  2  0
 20 21  1  0
 21 22  2  0
 13 23  1  0
  7 24  2  0
 24  3  1  0
 23  8  1  0
 22 17  1  0
  1 25  1  0
  1 26  1  0
  1 27  1  0
  4 28  1  0
  5 29  1  0
  6 30  1  0
 11 31  1  0
 11 32  1  0
 11 33  1  0
 12 34  1  0
 15 35  1  0
 15 36  1  0
 16 37  1  0
 16 38  1  0
 18 39  1  0
 19 40  1  0
 20 41  1  0
 21 42  1  0
 23 43  1  0
 24 44  1  0
M  END
>  <smiles>  (31) 
COc1cccc(-c2nc(C)cc(=NCCc3ccccn3)[nH]2)c1

>  <score_type>  (31) 
oracle

>  <origin>  (31) 
adg

>  <m_score__min__energy>  (31) 
-8.3300000000000001

>  <m_primary>  (31) 
energy

$$$$
31:0
     RDKit          3D

 38 38  0  0  0  0  0  0  0  0999 V2000
   -0.4700   22.8740  -25.3320 C   0  0  0  0  0  0  0  0  0  0  0  0
   -0.4020   24.3310  -24.8420 C   0  0  0  0  0  0  0  0  0  0  0  0
   -1.0050   25.3210  -25.7680 N   0  0  0  0  0  0  0  0  0  0  0  0
   -1.6280   26.4590  -25.0600 C   0  0  0  0  0  0  0  0  0  0  0  0
   -0.8620   26.7770  -23.7790 C   0  0  0  0  0  0  0  0  0  0  0  0
   -0.0840   25.7490  -26.8470 C   0  0  0  0  0  0  0  0  0  0  0  0
   -0.7080   26.8490  -27.7140 C   0  0  0  0  0  0  0  0  0  0  0  0
   -1.2390   26.3050  -28.9590 N   0  0  0  0  0  0  0  0  0  0  0  0
   -1.5560   24.9240  -29.1630 C   0  0  0  0  0  0  0  0  0  0  0  0
   -0.6450   24.0530  -29.1670 O   0  0  0  0  0  0  0  0  0  0  0  0
   -2.9800   24.5090  -29.3540 C   0  0  0  0  0  0  0  0  0  0  0  0
   -3.5860   25.2710  -30.4390 N   0  0  0  0  0  0  0  0  0  0  0  0
   -4.9940   25.3040  -30.6930 C   0  0  0  0  0  0  0  0  0  0  0  0
   -5.6560   26.3560  -30.4820 O   0  0  0  0  0  0  0  0  0  0  0  0
   -5.6650   24.1000  -31.1930 C   0  0  0  0  0  0  0  0  0  0  0  0
   -7.0050   23.7960  -31.0470 C   0  0  0  0  0  0  0  0  0  0  0  0
   -7.1770   22.5680  -31.6510 C   0  0  0  0  0  0  0  0  0  0  0  0
   -5.9330   22.2050  -32.1240 C   0  0  0  0  0  0  0  0  0  0  0  0
   -5.5270   20.5930  -33.0560 Br  0  0  0  0  0  0  0  0  0  0  0  0
   -5.0510   23.1340  -31.8380 O   0  0  0  0  0  0  0  0  0  0  0  0
   -0.5016   22.1969  -24.4657 H   0  0  0  0  0  0  0  0  0  0  0  0
   -1.3757   22.7336  -25.9403 H   0  0  0  0  0  0  0  0  0  0  0  0
    0.4187   22.6499  -25.9403 H   0  0  0  0  0  0  0  0  0  0  0  0
   -0.9306   24.3947  -23.8795 H   0  0  0  0  0  0  0  0  0  0  0  0
    0.6654   24.5852  -24.7646 H   0  0  0  0  0  0  0  0  0  0  0  0
   -1.6186   27.3421  -25.7158 H   0  0  0  0  0  0  0  0  0  0  0  0
   -2.6623   26.1913  -24.7983 H   0  0  0  0  0  0  0  0  0  0  0  0
   -1.4820   26.5196  -22.9076 H   0  0  0  0  0  0  0  0  0  0  0  0
    0.0684   26.1908  -23.7530 H   0  0  0  0  0  0  0  0  0  0  0  0
   -0.6203   27.8498  -23.7530 H   0  0  0  0  0  0  0  0  0  0  0  0
    0.8426   26.1325  -26.3950 H   0  0  0  0  0  0  0  0  0  0  0  0
    0.1241   24.8800  -27.4885 H   0  0  0  0  0  0  0  0  0  0  0  0
   -1.5257   27.3262  -27.1539 H   0  0  0  0  0  0  0  0  0  0  0  0
    0.0740   27.5821  -27.9610 H   0  0  0  0  0  0  0  0  0  0  0  0
   -3.0163   23.4371  -29.5985 H   0  0  0  0  0  0  0  0  0  0  0  0
   -3.5374   24.7018  -28.4255 H   0  0  0  0  0  0  0  0  0  0  0  0
   -7.7746   24.4065  -30.5520 H   0  0  0  0  0  0  0  0  0  0  0  0
   -8.1127   21.9963  -31.7376 H   0  0  0  0  0  0  0  0  0  0  0  0
  1  2  1  0
  2  3  1  0
  3  4  1  0
  4  5  1  0
  3  6  1  0
  6  7  1  0
  7  8  1  0
  8  9  1  0
  9 10  2  0
  9 11  1  0
 11 12  1  0
 12 13  1  0
 13 14  2  0
 13 15  1  0
 15 16  2  0
 16 17  1  0
 17 18  2  0
 18 19  1  0
 18 20  1  0
 20 15  1  0
  1 21  1  0
  1 22  1  0
  1 23  1  0
  2 24  1  0
  2 25  1  0
  4 26  1  0
  4 27  1  0
  5 28  1  0
  5 29  1  0
  5 30  1  0
  6 31  1  0
  6 32  1  0
  7 33  1  0
  7 34  1  0
 11 35  1  0
 11 36  1  0
 16 37  1  0
 17 38  1  0
M  CHG  2   8  -1  12  -1
M  END
>  <UniqueID>  (32) 
30

>  <SMILES>  (32) 
CCN(CC)CC[N-]C(=O)C[N-]C(=O)c1ccc(Br)o1

>  <Energy>  (32) 
53.39306938450122

>  <Genealogy>  (32) 
CCN(CC)CC[N-]C(=O)C[N-]C(=O)c1ccc(Br)o1 (protonated)
CCN(CC)CC[N-]C(=O)C[N-]C(=O)c1ccc(Br)o1 (3D coordinates assigned)
CCN(CC)CC[N-]C(=O)C[N-]C(=O)c1ccc(Br)o1 (optimized conformer: 53.39306938450122 kcal/mol)

>  <smiles>  (32) 
CCN(CC)CCNC(=O)CNC(=O)c1ccc(Br)o1

>  <score_type>  (32) 
oracle

>  <origin>  (32) 
adg

>  <m_score__min__energy>  (32) 
-9.6099999999999994

>  <m_primary>  (32) 
energy

$$$$
32:0
     RDKit          3D

 50 51  0  0  0  0  0  0  0  0999 V2000
   -9.0240   18.2130  -31.6040 C   0  0  0  0  0  0  0  0  0  0  0  0
   -7.5450   18.5760  -31.7410 C   0  0  0  0  0  0  0  0  0  0  0  0
   -7.3750   19.8210  -32.5250 N   0  0  0  0  0  0  0  0  0  0  0  0
   -6.6860   19.5660  -33.8180 C   0  0  0  0  0  0  0  0  0  0  0  0
   -6.1080   18.1570  -33.8190 C   0  0  0  0  0  0  0  0  0  0  0  0
   -8.6810   20.4930  -32.7200 C   0  0  0  0  0  0  0  0  0  0  0  0
   -8.8850   21.6110  -31.6810 C   0  0  0  0  0  0  0  0  0  0  0  0
   -8.0350   22.8690  -31.9560 C   0  0  0  0  0  0  0  0  0  0  0  0
   -6.6360   22.5770  -32.3330 N   0  0  0  0  0  0  0  0  0  0  0  0
   -5.6660   23.0930  -31.3880 C   0  0  0  0  0  0  0  0  0  0  0  0
   -6.1110   23.8850  -30.3100 C   0  0  0  0  0  0  0  0  0  0  0  0
   -5.2200   24.3570  -29.3470 C   0  0  0  0  0  0  0  0  0  0  0  0
   -3.8590   24.0260  -29.4120 C   0  0  0  0  0  0  0  0  0  0  0  0
   -2.9120   24.5300  -28.3850 C   0  0  0  0  0  0  0  0  0  0  0  0
   -1.5950   24.8800  -28.7370 C   0  0  0  0  0  0  0  0  0  0  0  0
   -0.7040   25.3520  -27.7680 C   0  0  0  0  0  0  0  0  0  0  0  0
   -1.1170   25.4820  -26.4400 C   0  0  0  0  0  0  0  0  0  0  0  0
   -2.4220   25.1400  -26.0780 C   0  0  0  0  0  0  0  0  0  0  0  0
   -3.3160   24.6650  -27.0430 C   0  0  0  0  0  0  0  0  0  0  0  0
   -3.4110   23.2020  -30.4560 C   0  0  0  0  0  0  0  0  0  0  0  0
   -4.2920   22.7320  -31.4430 C   0  0  0  0  0  0  0  0  0  0  0  0
   -3.7720   21.8830  -32.4790 N   0  0  0  0  0  0  0  0  0  0  0  0
   -2.5380   21.7590  -32.6160 O   0  0  0  0  0  0  0  0  0  0  0  0
   -4.5990   21.4220  -33.4740 O   0  0  0  0  0  0  0  0  0  0  0  0
   -9.2884   18.1481  -30.5382 H   0  0  0  0  0  0  0  0  0  0  0  0
   -9.6379   18.9871  -32.0876 H   0  0  0  0  0  0  0  0  0  0  0  0
   -9.2097   17.2426  -32.0876 H   0  0  0  0  0  0  0  0  0  0  0  0
   -7.1156   18.7205  -30.7386 H   0  0  0  0  0  0  0  0  0  0  0  0
   -7.0303   17.7579  -32.2661 H   0  0  0  0  0  0  0  0  0  0  0  0
   -7.4065   19.6668  -34.6430 H   0  0  0  0  0  0  0  0  0  0  0  0
   -5.8726   20.2949  -33.9488 H   0  0  0  0  0  0  0  0  0  0  0  0
   -5.9686   17.8171  -32.7821 H   0  0  0  0  0  0  0  0  0  0  0  0
   -6.7999   17.4772  -34.3378 H   0  0  0  0  0  0  0  0  0  0  0  0
   -5.1380   18.1590  -34.3378 H   0  0  0  0  0  0  0  0  0  0  0  0
   -8.7144   20.9291  -33.7293 H   0  0  0  0  0  0  0  0  0  0  0  0
   -9.4811   19.7483  -32.5962 H   0  0  0  0  0  0  0  0  0  0  0  0
   -9.9463   21.9002  -31.6845 H   0  0  0  0  0  0  0  0  0  0  0  0
   -8.5651   21.2106  -30.7077 H   0  0  0  0  0  0  0  0  0  0  0  0
   -8.5045   23.4314  -32.7766 H   0  0  0  0  0  0  0  0  0  0  0  0
   -7.9995   23.4413  -31.0173 H   0  0  0  0  0  0  0  0  0  0  0  0
   -6.5220   21.5370  -32.3590 H   0  0  0  0  0  0  0  0  0  0  0  0
   -6.4610   22.9070  -33.3070 H   0  0  0  0  0  0  0  0  0  0  0  0
   -7.1791   24.1348  -30.2272 H   0  0  0  0  0  0  0  0  0  0  0  0
   -5.5878   24.9944  -28.5294 H   0  0  0  0  0  0  0  0  0  0  0  0
   -1.2643   24.7816  -29.7815 H   0  0  0  0  0  0  0  0  0  0  0  0
    0.3240   25.6214  -28.0521 H   0  0  0  0  0  0  0  0  0  0  0  0
   -0.4146   25.8537  -25.6794 H   0  0  0  0  0  0  0  0  0  0  0  0
   -2.7471   25.2444  -25.0323 H   0  0  0  0  0  0  0  0  0  0  0  0
   -4.3418   24.3950  -26.7515 H   0  0  0  0  0  0  0  0  0  0  0  0
   -2.3490   22.9189  -30.5019 H   0  0  0  0  0  0  0  0  0  0  0  0
  1  2  1  0
  2  3  1  0
  3  4  1  0
  4  5  1  0
  3  6  1  0
  6  7  1  0
  7  8  1  0
  8  9  1  0
  9 10  1  0
 10 11  2  0
 11 12  1  0
 12 13  2  0
 13 14  1  0
 14 15  2  0
 15 16  1  0
 16 17  2  0
 17 18  1  0
 18 19  2  0
 13 20  1  0
 20 21  2  0
 21 22  1  0
 22 23  2  0
 22 24  1  0
 21 10  1  0
 19 14  1  0
  1 25  1  0
  1 26  1  0
  1 27  1  0
  2 28  1  0
  2 29  1  0
  4 30  1  0
  4 31  1  0
  5 32  1  0
  5 33  1  0
  5 34  1  0
  6 35  1  0
  6 36  1  0
  7 37  1  0
  7 38  1  0
  8 39  1  0
  8 40  1  0
  9 41  1  0
  9 42  1  0
 11 43  1  0
 12 44  1  0
 15 45  1  0
 16 46  1  0
 17 47  1  0
 18 48  1  0
 19 49  1  0
 20 50  1  0
M  CHG  3   9   1  22   1  24  -1
M  END
>  <UniqueID>  (33) 
31

>  <SMILES>  (33) 
CCN(CC)CCC[NH2+]c1ccc(-c2ccccc2)cc1[N+](=O)[O-]

>  <Energy>  (33) 
62.32726961847651

>  <Genealogy>  (33) 
CCN(CC)CCC[NH2+]c1ccc(-c2ccccc2)cc1[N+](=O)[O-] (protonated)
CCN(CC)CCC[NH2+]c1ccc(-c2ccccc2)cc1[N+](=O)[O-] (3D coordinates assigned)
CCN(CC)CCC[NH2+]c1ccc(-c2ccccc2)cc1[N+](=O)[O-] (optimized conformer: 62.32726961847651 kcal/mol)

>  <smiles>  (33) 
CCN(CC)CCCNc1ccc(-c2ccccc2)cc1[N+](=O)[O-]

>  <score_type>  (33) 
oracle

>  <origin>  (33) 
adg

>  <m_score__min__energy>  (33) 
-6.8099999999999996

>  <m_primary>  (33) 
energy

$$$$
33:0
     RDKit          3D

 25 26  0  0  0  0  0  0  0  0999 V2000
   -3.5820   23.2600  -27.9230 C   0  0  0  0  0  0  0  0  0  0  0  0
   -4.7350   23.6330  -28.8060 C   0  0  0  0  0  0  0  0  0  0  0  0
   -5.3700   22.6520  -29.5810 C   0  0  0  0  0  0  0  0  0  0  0  0
   -6.4210   23.0140  -30.4360 C   0  0  0  0  0  0  0  0  0  0  0  0
   -7.1230   21.9930  -31.2420 C   0  0  0  0  0  0  0  0  0  0  0  0
   -8.4900   21.7610  -31.0120 C   0  0  0  0  0  0  0  0  0  0  0  0
   -9.1780   20.7920  -31.7450 C   0  0  0  0  0  0  0  0  0  0  0  0
   -8.5120   20.0490  -32.7210 C   0  0  0  0  0  0  0  0  0  0  0  0
   -7.1570   20.2780  -32.9700 C   0  0  0  0  0  0  0  0  0  0  0  0
   -6.4560   21.2460  -32.2400 C   0  0  0  0  0  0  0  0  0  0  0  0
   -4.6180   21.5580  -32.6970 Br  0  0  0  0  0  0  0  0  0  0  0  0
   -6.8250   24.3550  -30.4890 C   0  0  0  0  0  0  0  0  0  0  0  0
   -6.1580   25.3060  -29.7160 C   0  0  0  0  0  0  0  0  0  0  0  0
   -5.1310   24.9350  -28.9040 N   0  0  0  0  0  0  0  0  0  0  0  0
   -3.8811   23.3568  -26.8689 H   0  0  0  0  0  0  0  0  0  0  0  0
   -3.2859   22.2203  -28.1262 H   0  0  0  0  0  0  0  0  0  0  0  0
   -2.7331   23.9293  -28.1262 H   0  0  0  0  0  0  0  0  0  0  0  0
   -5.0451   21.6029  -29.5186 H   0  0  0  0  0  0  0  0  0  0  0  0
   -9.0221   22.3475  -30.2485 H   0  0  0  0  0  0  0  0  0  0  0  0
  -10.2464   20.6139  -31.5530 H   0  0  0  0  0  0  0  0  0  0  0  0
   -9.0546   19.2828  -33.2942 H   0  0  0  0  0  0  0  0  0  0  0  0
   -6.6372   19.6945  -33.7442 H   0  0  0  0  0  0  0  0  0  0  0  0
   -7.6624   24.6558  -31.1357 H   0  0  0  0  0  0  0  0  0  0  0  0
   -6.4640   26.3615  -29.7632 H   0  0  0  0  0  0  0  0  0  0  0  0
   -4.6460   25.6720  -28.3450 H   0  0  0  0  0  0  0  0  0  0  0  0
  1  2  1  0
  2  3  2  0
  3  4  1  0
  4  5  1  0
  5  6  2  0
  6  7  1  0
  7  8  2  0
  8  9  1  0
  9 10  2  0
 10 11  1  0
  4 12  2  0
 12 13  1  0
 13 14  2  0
 14  2  1  0
 10  5  1  0
  1 15  1  0
  1 16  1  0
  1 17  1  0
  3 18  1  0
  6 19  1  0
  7 20  1  0
  8 21  1  0
  9 22  1  0
 12 23  1  0
 13 24  1  0
 14 25  1  0
M  CHG  1  14   1
M  END
>  <UniqueID>  (34) 
32

>  <SMILES>  (34) 
Cc1cc(-c2ccccc2Br)cc[nH+]1

>  <Energy>  (34) 
32.40425180403702

>  <Genealogy>  (34) 
Cc1cc(-c2ccccc2Br)cc[nH+]1 (protonated)
Cc1cc(-c2ccccc2Br)cc[nH+]1 (3D coordinates assigned)
Cc1cc(-c2ccccc2Br)cc[nH+]1 (optimized conformer: 32.40425180403702 kcal/mol)

>  <smiles>  (34) 
Cc1cc(-c2ccccc2Br)ccn1

>  <score_type>  (34) 
oracle

>  <origin>  (34) 
adg

>  <m_score__min__energy>  (34) 
-6.3600000000000003

>  <m_primary>  (34) 
energy

$$$$
34:0
     RDKit          3D

 33 35  0  0  0  0  0  0  0  0999 V2000
   -5.3540   25.7730  -30.4700 C   0  0  0  0  0  0  0  0  0  0  0  0
   -4.0660   25.1690  -30.5160 O   0  0  0  0  0  0  0  0  0  0  0  0
   -3.8370   23.7850  -30.4750 C   0  0  0  0  0  0  0  0  0  0  0  0
   -3.2920   23.1440  -29.3470 C   0  0  0  0  0  0  0  0  0  0  0  0
   -3.0870   21.7620  -29.3550 C   0  0  0  0  0  0  0  0  0  0  0  0
   -3.4200   21.0080  -30.4830 C   0  0  0  0  0  0  0  0  0  0  0  0
   -3.9580   21.6350  -31.6170 C   0  0  0  0  0  0  0  0  0  0  0  0
   -4.3530   20.8270  -32.8230 C   0  0  0  0  0  0  0  0  0  0  0  0
   -5.6260   20.1500  -32.5780 N   0  0  0  0  0  0  0  0  0  0  0  0
   -5.8710   18.8190  -32.6840 C   0  0  0  0  0  0  0  0  0  0  0  0
   -7.1750   18.5160  -32.4760 N   0  0  0  0  0  0  0  0  0  0  0  0
   -7.7610   19.7010  -32.2440 C   0  0  0  0  0  0  0  0  0  0  0  0
   -9.1060   19.9640  -31.9900 C   0  0  0  0  0  0  0  0  0  0  0  0
   -9.4830   21.3060  -31.7970 C   0  0  0  0  0  0  0  0  0  0  0  0
   -8.5190   22.3380  -31.8620 C   0  0  0  0  0  0  0  0  0  0  0  0
   -7.1680   22.0380  -32.1240 C   0  0  0  0  0  0  0  0  0  0  0  0
   -6.8270   20.6970  -32.3090 C   0  0  0  0  0  0  0  0  0  0  0  0
   -4.1670   23.0230  -31.6030 C   0  0  0  0  0  0  0  0  0  0  0  0
   -5.6555   25.9144  -29.4216 H   0  0  0  0  0  0  0  0  0  0  0  0
   -5.3196   26.7489  -30.9764 H   0  0  0  0  0  0  0  0  0  0  0  0
   -6.0823   25.1225  -30.9764 H   0  0  0  0  0  0  0  0  0  0  0  0
   -3.0266   23.7327  -28.4565 H   0  0  0  0  0  0  0  0  0  0  0  0
   -2.6619   21.2659  -28.4700 H   0  0  0  0  0  0  0  0  0  0  0  0
   -3.2599   19.9197  -30.4821 H   0  0  0  0  0  0  0  0  0  0  0  0
   -4.4571   21.4951  -33.6907 H   0  0  0  0  0  0  0  0  0  0  0  0
   -3.5766   20.0737  -33.0224 H   0  0  0  0  0  0  0  0  0  0  0  0
   -5.0979   18.0708  -32.9130 H   0  0  0  0  0  0  0  0  0  0  0  0
   -7.6220   17.5730  -32.5070 H   0  0  0  0  0  0  0  0  0  0  0  0
   -9.8462   19.1517  -31.9421 H   0  0  0  0  0  0  0  0  0  0  0  0
  -10.5353   21.5538  -31.5941 H   0  0  0  0  0  0  0  0  0  0  0  0
   -8.8262   23.3828  -31.7068 H   0  0  0  0  0  0  0  0  0  0  0  0
   -6.4088   22.8320  -32.1808 H   0  0  0  0  0  0  0  0  0  0  0  0
   -4.5946   23.5177  -32.4876 H   0  0  0  0  0  0  0  0  0  0  0  0
  1  2  1  0
  2  3  1  0
  3  4  2  0
  4  5  1  0
  5  6  2  0
  6  7  1  0
  7  8  1  0
  8  9  1  0
  9 10  1  0
 10 11  2  0
 11 12  1  0
 12 13  2  0
 13 14  1  0
 14 15  2  0
 15 16  1  0
 16 17  2  0
  7 18  2  0
 18  3  1  0
 17  9  1  0
 17 12  1  0
  1 19  1  0
  1 20  1  0
  1 21  1  0
  4 22  1  0
  5 23  1  0
  6 24  1  0
  8 25  1  0
  8 26  1  0
 10 27  1  0
 11 28  1  0
 13 29  1  0
 14 30  1  0
 15 31  1  0
 16 32  1  0
 18 33  1  0
M  CHG  1  11   1
M  END
>  <UniqueID>  (35) 
33

>  <SMILES>  (35) 
COc1cccc(Cn2c[nH+]c3ccccc32)c1

>  <Energy>  (35) 
71.80779536796389

>  <Genealogy>  (35) 
COc1cccc(Cn2c[nH+]c3ccccc32)c1 (protonated)
COc1cccc(Cn2c[nH+]c3ccccc32)c1 (3D coordinates assigned)
COc1cccc(Cn2c[nH+]c3ccccc32)c1 (optimized conformer: 71.80779536796389 kcal/mol)

>  <smiles>  (35) 
COc1cccc(Cn2cnc3ccccc32)c1

>  <score_type>  (35) 
oracle

>  <origin>  (35) 
adg

>  <m_score__min__energy>  (35) 
-6.7199999999999998

>  <m_primary>  (35) 
energy

$$$$
35:0
     RDKit          3D

 62 62  0  0  0  0  0  0  0  0999 V2000
   -6.5168   18.2493  -32.4795 H   0  0  0  0  0  0  0  0  0  0  0  0
   -6.9550   19.2500  -32.3510 C   0  0  0  0  0  0  0  0  0  0  0  0
   -6.2160   20.3400  -32.5770 C   0  0  0  0  0  0  0  0  0  0  0  0
   -5.0060   20.1890  -33.4680 C   0  0  0  0  0  0  0  0  0  0  0  0
   -4.1051   20.0766  -32.8470 H   0  0  0  0  0  0  0  0  0  0  0  0
   -5.1270   19.2990  -34.1030 H   0  0  0  0  0  0  0  0  0  0  0  0
   -4.9046   21.0815  -34.1030 H   0  0  0  0  0  0  0  0  0  0  0  0
   -6.5960   21.7190  -32.0070 C   0  0  2  0  0  0  0  0  0  0  0  0
   -6.4922   22.4652  -32.8085 H   0  0  0  0  0  0  0  0  0  0  0  0
   -5.5720   22.1330  -30.8680 C   0  0  1  0  0  0  0  0  0  0  0  0
   -5.8493   21.5089  -30.0057 H   0  0  0  0  0  0  0  0  0  0  0  0
   -4.2280   21.8870  -31.2750 O   0  0  0  0  0  0  0  0  0  0  0  0
   -3.6400   20.8340  -30.5330 C   0  0  0  0  0  0  0  0  0  0  0  0
   -3.4805   19.9649  -31.1881 H   0  0  0  0  0  0  0  0  0  0  0  0
   -4.3051   20.5442  -29.7061 H   0  0  0  0  0  0  0  0  0  0  0  0
   -2.3200   21.3020  -29.9850 C   0  0  0  0  0  0  0  0  0  0  0  0
   -1.6531   21.8487  -30.6679 H   0  0  0  0  0  0  0  0  0  0  0  0
   -1.8890   21.1040  -28.7210 C   0  0  0  0  0  0  0  0  0  0  0  0
   -0.8267   21.2977  -28.5114 H   0  0  0  0  0  0  0  0  0  0  0  0
   -2.7500   20.6380  -27.5740 C   0  0  0  0  0  0  0  0  0  0  0  0
   -3.6908   20.2320  -27.9740 H   0  0  0  0  0  0  0  0  0  0  0  0
   -2.9458   21.4970  -26.9154 H   0  0  0  0  0  0  0  0  0  0  0  0
   -2.0480   19.5550  -26.7580 C   0  0  0  0  0  0  0  0  0  0  0  0
   -2.1809   19.7600  -25.6855 H   0  0  0  0  0  0  0  0  0  0  0  0
   -2.4824   18.5739  -27.0003 H   0  0  0  0  0  0  0  0  0  0  0  0
   -0.9750   19.5509  -27.0003 H   0  0  0  0  0  0  0  0  0  0  0  0
   -5.6720   23.6290  -30.4340 C   0  0  1  0  0  0  0  0  0  0  0  0
   -6.4584   23.6889  -29.6672 H   0  0  0  0  0  0  0  0  0  0  0  0
   -4.3550   24.0900  -29.8460 C   0  0  0  0  0  0  0  0  0  0  0  0
   -3.6450   24.9190  -30.4830 O   0  0  0  0  0  0  0  0  0  0  0  0
   -3.9070   23.5780  -28.6230 O   0  0  0  0  0  0  0  0  0  0  0  0
   -4.2060   24.1900  -27.3700 C   0  0  0  0  0  0  0  0  0  0  0  0
   -4.9841   24.9540  -27.5144 H   0  0  0  0  0  0  0  0  0  0  0  0
   -4.5631   23.4211  -26.6691 H   0  0  0  0  0  0  0  0  0  0  0  0
   -2.9470   24.8500  -26.7940 C   0  0  0  0  0  0  0  0  0  0  0  0
   -2.9892   25.9280  -27.0086 H   0  0  0  0  0  0  0  0  0  0  0  0
   -2.9359   24.6412  -25.7141 H   0  0  0  0  0  0  0  0  0  0  0  0
   -1.6400   24.2870  -27.3790 C   0  0  0  0  0  0  0  0  0  0  0  0
   -0.8675   24.3126  -26.5963 H   0  0  0  0  0  0  0  0  0  0  0  0
   -1.8501   23.2626  -27.7202 H   0  0  0  0  0  0  0  0  0  0  0  0
   -1.1320   25.0720  -28.5880 C   0  0  0  0  0  0  0  0  0  0  0  0
   -0.5644   25.9491  -28.2436 H   0  0  0  0  0  0  0  0  0  0  0  0
   -0.4789   24.4280  -29.1953 H   0  0  0  0  0  0  0  0  0  0  0  0
   -1.9870   25.4039  -29.1953 H   0  0  0  0  0  0  0  0  0  0  0  0
   -6.1090   24.5610  -31.5820 C   0  0  0  0  0  0  0  0  0  0  0  0
   -6.5407   25.4817  -31.1626 H   0  0  0  0  0  0  0  0  0  0  0  0
   -5.2358   24.8144  -32.2012 H   0  0  0  0  0  0  0  0  0  0  0  0
   -6.8622   24.0518  -32.2012 H   0  0  0  0  0  0  0  0  0  0  0  0
   -8.1580   21.8680  -31.6280 C   0  0  0  0  0  0  0  0  0  0  0  0
   -8.7200   23.1700  -32.2510 C   0  0  0  0  0  0  0  0  0  0  0  0
   -9.0183   23.8612  -31.4490 H   0  0  0  0  0  0  0  0  0  0  0  0
   -7.9458   23.6427  -32.8732 H   0  0  0  0  0  0  0  0  0  0  0  0
   -9.5950   22.9308  -32.8732 H   0  0  0  0  0  0  0  0  0  0  0  0
   -8.4490   21.9110  -30.1010 C   0  0  0  0  0  0  0  0  0  0  0  0
   -7.5102   21.7723  -29.5448 H   0  0  0  0  0  0  0  0  0  0  0  0
   -8.8900   22.8841  -29.8390 H   0  0  0  0  0  0  0  0  0  0  0  0
   -9.1526   21.1071  -29.8390 H   0  0  0  0  0  0  0  0  0  0  0  0
   -9.0050   20.6970  -32.2010 C   0  0  0  0  0  0  0  0  0  0  0  0
   -9.1190   20.8304  -33.2869 H   0  0  0  0  0  0  0  0  0  0  0  0
   -9.9907   20.6991  -31.7128 H   0  0  0  0  0  0  0  0  0  0  0  0
   -8.3390   19.3920  -31.9350 C   0  0  0  0  0  0  0  0  0  0  0  0
   -8.9810   18.4050  -31.4890 O   0  0  0  0  0  0  0  0  0  0  0  0
  1  2  1  0
  2  3  2  0
  3  4  1  0
  4  5  1  0
  4  6  1  0
  4  7  1  0
  3  8  1  0
  8  9  1  6
  8 10  1  0
 10 11  1  1
 10 12  1  0
 12 13  1  0
 13 14  1  0
 13 15  1  0
 13 16  1  0
 16 17  1  0
 16 18  2  0
 18 19  1  0
 18 20  1  0
 20 21  1  0
 20 22  1  0
 20 23  1  0
 23 24  1  0
 23 25  1  0
 23 26  1  0
 10 27  1  0
 27 28  1  1
 27 29  1  0
 29 30  2  0
 29 31  1  0
 31 32  1  0
 32 33  1  0
 32 34  1  0
 32 35  1  0
 35 36  1  0
 35 37  1  0
 35 38  1  0
 38 39  1  0
 38 40  1  0
 38 41  1  0
 41 42  1  0
 41 43  1  0
 41 44  1  0
 27 45  1  0
 45 46  1  0
 45 47  1  0
 45 48  1  0
  8 49  1  0
 49 50  1  0
 50 51  1  0
 50 52  1  0
 50 53  1  0
 49 54  1  0
 54 55  1  0
 54 56  1  0
 54 57  1  0
 49 58  1  0
 58 59  1  0
 58 60  1  0
 58 61  1  0
 61 62  2  0
 61  2  1  0
M  END
>  <UniqueID>  (36) 
34

>  <SMILES>  (36) 
CC/C=C\CO[C@H](C1C(C)=CC(=O)CC1(C)C)[C@H](C)C(=O)OCCCC

>  <Energy>  (36) 
64.3072422552736

>  <Genealogy>  (36) 
CCC=CCO[C@H](C1C(C)=CC(=O)CC1(C)C)[C@H](C)C(=O)OCCCC (chirality)
CC/C=C\CO[C@H](C1C(C)=CC(=O)CC1(C)C)[C@H](C)C(=O)OCCCC (cis-trans isomerization)
CC/C=C\CO[C@H](C1C(C)=CC(=O)CC1(C)C)[C@H](C)C(=O)OCCCC (3D coordinates assigned)
CC/C=C\CO[C@H](C1C(C)=CC(=O)CC1(C)C)[C@H](C)C(=O)OCCCC (nonaromatic ring conformer: 64.3072422552736 kcal/mol)

>  <smiles>  (36) 
CCC=CCOC(C(C)C(=O)OCCCC)C1C(C)=CC(=O)CC1(C)C

>  <score_type>  (36) 
oracle

>  <origin>  (36) 
adg

>  <m_score__min__energy>  (36) 
-8.4700000000000006

>  <m_primary>  (36) 
energy

$$$$
36:0
     RDKit          3D

 38 39  0  0  0  0  0  0  0  0999 V2000
   -4.9780   22.4510  -33.5160 H   0  0  0  0  0  0  0  0  0  0  0  0
   -5.5920   22.5590  -32.6810 N   0  0  0  0  0  0  0  0  0  0  0  0
   -6.6610   21.8550  -32.4450 C   0  0  0  0  0  0  0  0  0  0  0  0
   -6.7880   20.5330  -32.9430 C   0  0  0  0  0  0  0  0  0  0  0  0
   -5.5150   19.7060  -33.8380 S   0  0  0  0  0  0  0  0  0  0  0  0
   -4.0240   20.4790  -33.8380 O   0  0  0  0  0  0  0  0  0  0  0  0
   -4.2390   21.4310  -33.9980 H   0  0  0  0  0  0  0  0  0  0  0  0
   -5.4410   17.9630  -33.6390 C   0  0  0  0  0  0  0  0  0  0  0  0
   -4.3040   17.3830  -33.0600 C   0  0  0  0  0  0  0  0  0  0  0  0
   -3.4702   18.0204  -32.7307 H   0  0  0  0  0  0  0  0  0  0  0  0
   -4.2270   15.9960  -32.9000 C   0  0  0  0  0  0  0  0  0  0  0  0
   -3.3330   15.5437  -32.4459 H   0  0  0  0  0  0  0  0  0  0  0  0
   -5.2860   15.1840  -33.3170 C   0  0  0  0  0  0  0  0  0  0  0  0
   -5.2261   14.0931  -33.1895 H   0  0  0  0  0  0  0  0  0  0  0  0
   -6.4210   15.7590  -33.8960 C   0  0  0  0  0  0  0  0  0  0  0  0
   -7.2535   15.1195  -34.2247 H   0  0  0  0  0  0  0  0  0  0  0  0
   -6.5000   17.1450  -34.0580 C   0  0  0  0  0  0  0  0  0  0  0  0
   -7.3940   17.5946  -34.5147 H   0  0  0  0  0  0  0  0  0  0  0  0
   -7.9690   19.8300  -32.7070 C   0  0  0  0  0  0  0  0  0  0  0  0
   -8.0873   18.8099  -33.1011 H   0  0  0  0  0  0  0  0  0  0  0  0
   -8.9970   20.4130  -31.9760 C   0  0  0  0  0  0  0  0  0  0  0  0
   -9.9283   19.8582  -31.7894 H   0  0  0  0  0  0  0  0  0  0  0  0
   -8.8390   21.7040  -31.4820 C   0  0  0  0  0  0  0  0  0  0  0  0
   -9.6491   22.1630  -30.8963 H   0  0  0  0  0  0  0  0  0  0  0  0
   -7.6910   22.4110  -31.7140 N   0  0  0  0  0  0  0  0  0  0  0  0
   -7.5960   23.7870  -31.1870 C   0  0  0  0  0  0  0  0  0  0  0  0
   -7.1703   24.4384  -31.9645 H   0  0  0  0  0  0  0  0  0  0  0  0
   -8.6067   24.1185  -30.9067 H   0  0  0  0  0  0  0  0  0  0  0  0
   -6.7050   23.8540  -29.9380 C   0  0  0  0  0  0  0  0  0  0  0  0
   -7.3198   23.6351  -29.0525 H   0  0  0  0  0  0  0  0  0  0  0  0
   -5.8988   23.1155  -30.0591 H   0  0  0  0  0  0  0  0  0  0  0  0
   -6.0560   25.2340  -29.7600 C   0  0  0  0  0  0  0  0  0  0  0  0
   -6.7196   26.0009  -30.1861 H   0  0  0  0  0  0  0  0  0  0  0  0
   -5.9006   25.4113  -28.6856 H   0  0  0  0  0  0  0  0  0  0  0  0
   -4.7030   25.2990  -30.4630 C   0  0  0  0  0  0  0  0  0  0  0  0
   -3.9008   25.3375  -29.7114 H   0  0  0  0  0  0  0  0  0  0  0  0
   -4.5734   24.4060  -31.0922 H   0  0  0  0  0  0  0  0  0  0  0  0
   -4.6596   26.2003  -31.0922 H   0  0  0  0  0  0  0  0  0  0  0  0
  1  2  1  0
  2  3  2  0
  3  4  1  0
  4  5  1  0
  5  6  1  1
  6  7  1  0
  5  8  1  0
  8  9  2  0
  9 10  1  0
  9 11  1  0
 11 12  1  0
 11 13  2  0
 13 14  1  0
 13 15  1  0
 15 16  1  0
 15 17  2  0
 17 18  1  0
  4 19  2  0
 19 20  1  0
 19 21  1  0
 21 22  1  0
 21 23  2  0
 23 24  1  0
 23 25  1  0
 25 26  1  0
 26 27  1  0
 26 28  1  0
 26 29  1  0
 29 30  1  0
 29 31  1  0
 29 32  1  0
 32 33  1  0
 32 34  1  0
 32 35  1  0
 35 36  1  0
 35 37  1  0
 35 38  1  0
 25  3  1  0
 17  8  1  0
M  CHG  1   5   1
M  END
>  <UniqueID>  (37) 
35

>  <SMILES>  (37) 
[H]/N=c1\c([S@@+](O)c2ccccc2)cccn1CCCC

>  <Energy>  (37) 
35.52595581578671

>  <Genealogy>  (37) 
CCCCn1cccc([S+](O)c2ccccc2)c1=N (protonated)
CCCCn1cccc([S@@+](O)c2ccccc2)c1=N (chirality)
[H]/N=c1\c([S@@+](O)c2ccccc2)cccn1CCCC (cis-trans isomerization)
[H]/N=c1\c([S@@+](O)c2ccccc2)cccn1CCCC (3D coordinates assigned)
[H]/N=c1\c([S@@+](O)c2ccccc2)cccn1CCCC (optimized conformer: 35.52595581578671 kcal/mol)

>  <smiles>  (37) 
CCCCn1cccc([S+]([O-])c2ccccc2)c1=N

>  <score_type>  (37) 
oracle

>  <origin>  (37) 
adg

>  <m_score__min__energy>  (37) 
-6.0499999999999998

>  <m_primary>  (37) 
energy

$$$$
37:0
     RDKit          3D

 35 37  0  0  0  0  0  0  0  0999 V2000
   -5.4640   15.6190  -33.8740 C   0  0  0  0  0  0  0  0  0  0  0  0
   -5.9470   16.9840  -33.4840 C   0  0  0  0  0  0  0  0  0  0  0  0
   -5.7820   18.0680  -34.3590 C   0  0  0  0  0  0  0  0  0  0  0  0
   -6.1980   19.3490  -33.9820 C   0  0  0  0  0  0  0  0  0  0  0  0
   -6.7820   19.5650  -32.7220 C   0  0  0  0  0  0  0  0  0  0  0  0
   -7.2080   20.9280  -32.3260 C   0  0  0  0  0  0  0  0  0  0  0  0
   -8.5350   21.2240  -32.0190 C   0  0  0  0  0  0  0  0  0  0  0  0
   -8.6460   22.8530  -31.6340 S   0  0  0  0  0  0  0  0  0  0  0  0
   -7.0160   23.2110  -31.8260 C   0  0  0  0  0  0  0  0  0  0  0  0
   -6.4810   24.5300  -31.6050 N   0  0  0  0  0  0  0  0  0  0  0  0
   -6.0770   25.0780  -30.3120 C   0  0  0  0  0  0  0  0  0  0  0  0
   -4.7700   24.4950  -29.8700 C   0  0  0  0  0  0  0  0  0  0  0  0
   -4.6170   23.4320  -29.0050 C   0  0  0  0  0  0  0  0  0  0  0  0
   -3.2570   23.2270  -28.9060 C   0  0  0  0  0  0  0  0  0  0  0  0
   -2.6680   24.1700  -29.7230 C   0  0  0  0  0  0  0  0  0  0  0  0
   -3.5950   24.9090  -30.2880 O   0  0  0  0  0  0  0  0  0  0  0  0
   -6.3440   22.0430  -32.2140 C   0  0  0  0  0  0  0  0  0  0  0  0
   -4.9250   21.9560  -32.4540 C   0  0  0  0  0  0  0  0  0  0  0  0
   -3.7830   21.8920  -32.6360 N   0  0  0  0  0  0  0  0  0  0  0  0
   -6.9150   18.4830  -31.8360 C   0  0  0  0  0  0  0  0  0  0  0  0
   -6.4980   17.2030  -32.2140 C   0  0  0  0  0  0  0  0  0  0  0  0
   -5.2559   15.0310  -32.9680 H   0  0  0  0  0  0  0  0  0  0  0  0
   -6.2376   15.1128  -34.4701 H   0  0  0  0  0  0  0  0  0  0  0  0
   -4.5442   15.7120  -34.4701 H   0  0  0  0  0  0  0  0  0  0  0  0
   -5.3233   17.9098  -35.3462 H   0  0  0  0  0  0  0  0  0  0  0  0
   -6.0673   20.1925  -34.6758 H   0  0  0  0  0  0  0  0  0  0  0  0
   -9.3704   20.5085  -32.0277 H   0  0  0  0  0  0  0  0  0  0  0  0
   -6.4680   25.1810  -32.4220 H   0  0  0  0  0  0  0  0  0  0  0  0
   -5.9733   26.1696  -30.3999 H   0  0  0  0  0  0  0  0  0  0  0  0
   -6.8453   24.8242  -29.5668 H   0  0  0  0  0  0  0  0  0  0  0  0
   -5.4134   22.8659  -28.4996 H   0  0  0  0  0  0  0  0  0  0  0  0
   -2.7453   22.4658  -28.2987 H   0  0  0  0  0  0  0  0  0  0  0  0
   -1.5851   24.2854  -29.8778 H   0  0  0  0  0  0  0  0  0  0  0  0
   -7.3500   18.6437  -30.8385 H   0  0  0  0  0  0  0  0  0  0  0  0
   -6.6029   16.3635  -31.5110 H   0  0  0  0  0  0  0  0  0  0  0  0
  1  2  1  0
  2  3  2  0
  3  4  1  0
  4  5  2  0
  5  6  1  0
  6  7  2  0
  7  8  1  0
  8  9  1  0
  9 10  1  0
 10 11  1  0
 11 12  1  0
 12 13  2  0
 13 14  1  0
 14 15  2  0
 15 16  1  0
  9 17  2  0
 17 18  1  0
 18 19  3  0
  5 20  1  0
 20 21  2  0
 21  2  1  0
 17  6  1  0
 16 12  1  0
  1 22  1  0
  1 23  1  0
  1 24  1  0
  3 25  1  0
  4 26  1  0
  7 27  1  0
 10 28  1  0
 11 29  1  0
 11 30  1  0
 13 31  1  0
 14 32  1  0
 15 33  1  0
 20 34  1  0
 21 35  1  0
M  END
>  <UniqueID>  (38) 
36

>  <SMILES>  (38) 
Cc1ccc(-c2csc(NCc3ccco3)c2C#N)cc1

>  <Energy>  (38) 
93.92975307850509

>  <Genealogy>  (38) 
Cc1ccc(-c2csc(NCc3ccco3)c2C#N)cc1 (3D coordinates assigned)
Cc1ccc(-c2csc(NCc3ccco3)c2C#N)cc1 (optimized conformer: 93.92975307850509 kcal/mol)

>  <smiles>  (38) 
Cc1ccc(-c2csc(NCc3ccco3)c2C#N)cc1

>  <score_type>  (38) 
oracle

>  <origin>  (38) 
adg

>  <m_score__min__energy>  (38) 
-8.2400000000000002

>  <m_primary>  (38) 
energy

$$$$
38:0
     RDKit          3D

 41 43  0  0  0  0  0  0  0  0999 V2000
   -4.5270   20.6790  -30.8690 O   0  0  0  0  0  0  0  0  0  0  0  0
   -4.2570   21.1510  -32.0060 C   0  0  0  0  0  0  0  0  0  0  0  0
   -5.2790   21.8040  -32.7770 N   0  0  0  0  0  0  0  0  0  0  0  0
   -6.6790   21.7450  -32.4450 C   0  0  0  0  0  0  0  0  0  0  0  0
   -7.3810   22.9180  -32.1120 C   0  0  0  0  0  0  0  0  0  0  0  0
   -8.7210   22.8540  -31.7230 C   0  0  0  0  0  0  0  0  0  0  0  0
   -9.3700   21.6210  -31.6480 C   0  0  0  0  0  0  0  0  0  0  0  0
   -8.6810   20.4480  -31.9620 C   0  0  0  0  0  0  0  0  0  0  0  0
   -7.3380   20.4990  -32.3670 C   0  0  0  0  0  0  0  0  0  0  0  0
   -6.6570   19.2830  -32.7120 N   0  0  0  0  0  0  0  0  0  0  0  0
   -5.7450   19.2950  -33.8720 C   0  0  0  0  0  0  0  0  0  0  0  0
   -6.0620   18.2120  -34.9180 C   0  0  0  0  0  0  0  0  0  0  0  0
   -6.1850   16.7870  -34.3410 C   0  0  0  0  0  0  0  0  0  0  0  0
   -5.2750   16.4750  -33.1410 C   0  0  0  0  0  0  0  0  0  0  0  0
   -5.7200   17.1310  -31.8230 C   0  0  0  0  0  0  0  0  0  0  0  0
   -6.9420   18.0660  -31.9350 C   0  0  0  0  0  0  0  0  0  0  0  0
   -2.8760   21.0540  -32.5040 C   0  0  0  0  0  0  0  0  0  0  0  0
   -1.7530   20.7070  -31.7740 C   0  0  0  0  0  0  0  0  0  0  0  0
   -0.7010   20.7600  -32.6630 C   0  0  0  0  0  0  0  0  0  0  0  0
   -1.2410   21.1350  -33.8750 C   0  0  0  0  0  0  0  0  0  0  0  0
   -2.5370   21.3040  -33.7480 O   0  0  0  0  0  0  0  0  0  0  0  0
   -4.9910   22.4300  -33.5620 H   0  0  0  0  0  0  0  0  0  0  0  0
   -6.8713   23.8917  -32.1583 H   0  0  0  0  0  0  0  0  0  0  0  0
   -9.2656   23.7771  -31.4754 H   0  0  0  0  0  0  0  0  0  0  0  0
  -10.4253   21.5732  -31.3412 H   0  0  0  0  0  0  0  0  0  0  0  0
   -9.1940   19.4775  -31.8915 H   0  0  0  0  0  0  0  0  0  0  0  0
   -5.8147   20.2790  -34.3586 H   0  0  0  0  0  0  0  0  0  0  0  0
   -4.7348   19.0871  -33.4894 H   0  0  0  0  0  0  0  0  0  0  0  0
   -7.0148   18.4704  -35.4031 H   0  0  0  0  0  0  0  0  0  0  0  0
   -5.2150   18.1951  -35.6196 H   0  0  0  0  0  0  0  0  0  0  0  0
   -7.2275   16.6397  -34.0224 H   0  0  0  0  0  0  0  0  0  0  0  0
   -5.8655   16.1081  -35.1454 H   0  0  0  0  0  0  0  0  0  0  0  0
   -5.2586   15.3848  -32.9951 H   0  0  0  0  0  0  0  0  0  0  0  0
   -4.2843   16.8887  -33.3805 H   0  0  0  0  0  0  0  0  0  0  0  0
   -5.9683   16.3301  -31.1110 H   0  0  0  0  0  0  0  0  0  0  0  0
   -4.8806   17.7631  -31.4977 H   0  0  0  0  0  0  0  0  0  0  0  0
   -7.7601   17.5186  -32.4260 H   0  0  0  0  0  0  0  0  0  0  0  0
   -7.2154   18.3787  -30.9164 H   0  0  0  0  0  0  0  0  0  0  0  0
   -1.7090   20.4438  -30.7069 H   0  0  0  0  0  0  0  0  0  0  0  0
    0.3565   20.5462  -32.4487 H   0  0  0  0  0  0  0  0  0  0  0  0
   -0.6725   21.2718  -34.8067 H   0  0  0  0  0  0  0  0  0  0  0  0
  1  2  2  0
  2  3  1  0
  3  4  1  0
  4  5  2  0
  5  6  1  0
  6  7  2  0
  7  8  1  0
  8  9  2  0
  9 10  1  0
 10 11  1  0
 11 12  1  0
 12 13  1  0
 13 14  1  0
 14 15  1  0
 15 16  1  0
  2 17  1  0
 17 18  2  0
 18 19  1  0
 19 20  2  0
 20 21  1  0
  9  4  1  0
 16 10  1  0
 21 17  1  0
  3 22  1  0
  5 23  1  0
  6 24  1  0
  7 25  1  0
  8 26  1  0
 11 27  1  0
 11 28  1  0
 12 29  1  0
 12 30  1  0
 13 31  1  0
 13 32  1  0
 14 33  1  0
 14 34  1  0
 15 35  1  0
 15 36  1  0
 16 37  1  0
 16 38  1  0
 18 39  1  0
 19 40  1  0
 20 41  1  0
M  END
>  <UniqueID>  (39) 
37

>  <SMILES>  (39) 
O=C(Nc1ccccc1N1CCCCCC1)c1ccco1

>  <Energy>  (39) 
80.39207341529067

>  <Genealogy>  (39) 
O=C(Nc1ccccc1N1CCCCCC1)c1ccco1 (3D coordinates assigned)
O=C(Nc1ccccc1N1CCCCCC1)c1ccco1 (nonaromatic ring conformer: 80.39207341529067 kcal/mol)

>  <smiles>  (39) 
O=C(Nc1ccccc1N1CCCCCC1)c1ccco1

>  <score_type>  (39) 
oracle

>  <origin>  (39) 
adg

>  <m_score__min__energy>  (39) 
-6.3700000000000001

>  <m_primary>  (39) 
energy

$$$$
39:0
     RDKit          3D

 47 49  0  0  0  0  0  0  0  0999 V2000
   -4.1230   25.5790  -30.8520 O   0  0  0  0  0  0  0  0  0  0  0  0
   -4.8310   24.9020  -29.8450 C   0  0  2  0  0  0  0  0  0  0  0  0
   -3.8550   24.1530  -28.9180 C   0  0  0  0  0  0  0  0  0  0  0  0
   -2.6730   23.6380  -29.6550 N   0  0  0  0  0  0  0  0  0  0  0  0
   -1.3800   24.2570  -29.2640 C   0  0  0  0  0  0  0  0  0  0  0  0
   -1.1850   24.4220  -27.7700 C   0  0  0  0  0  0  0  0  0  0  0  0
   -1.5170   25.6320  -27.1370 C   0  0  0  0  0  0  0  0  0  0  0  0
   -1.3540   25.7770  -25.7560 C   0  0  0  0  0  0  0  0  0  0  0  0
   -0.8760   24.7100  -24.9910 C   0  0  0  0  0  0  0  0  0  0  0  0
   -0.5690   23.4940  -25.6050 C   0  0  0  0  0  0  0  0  0  0  0  0
   -0.7310   23.3460  -26.9860 C   0  0  0  0  0  0  0  0  0  0  0  0
   -2.6330   22.1590  -29.7090 C   0  0  0  0  0  0  0  0  0  0  0  0
   -3.3540   21.6460  -30.9290 C   0  0  0  0  0  0  0  0  0  0  0  0
   -3.1920   22.2970  -32.1640 C   0  0  0  0  0  0  0  0  0  0  0  0
   -3.8620   21.8320  -33.3000 C   0  0  0  0  0  0  0  0  0  0  0  0
   -4.7090   20.7240  -33.2080 C   0  0  0  0  0  0  0  0  0  0  0  0
   -4.8920   20.0850  -31.9780 C   0  0  0  0  0  0  0  0  0  0  0  0
   -4.2230   20.5460  -30.8400 C   0  0  0  0  0  0  0  0  0  0  0  0
   -5.8610   23.9550  -30.4300 C   0  0  0  0  0  0  0  0  0  0  0  0
   -6.2260   24.0750  -31.7820 C   0  0  0  0  0  0  0  0  0  0  0  0
   -7.2230   23.2570  -32.3210 C   0  0  0  0  0  0  0  0  0  0  0  0
   -7.8720   22.3170  -31.5150 C   0  0  0  0  0  0  0  0  0  0  0  0
   -9.1330   21.3010  -32.1910 Cl  0  0  0  0  0  0  0  0  0  0  0  0
   -7.5230   22.1950  -30.1670 C   0  0  0  0  0  0  0  0  0  0  0  0
   -6.5290   23.0120  -29.6240 C   0  0  0  0  0  0  0  0  0  0  0  0
   -3.4780   24.9280  -31.2360 H   0  0  0  0  0  0  0  0  0  0  0  0
   -5.3759   25.6495  -29.2497 H   0  0  0  0  0  0  0  0  0  0  0  0
   -3.5113   24.8423  -28.1326 H   0  0  0  0  0  0  0  0  0  0  0  0
   -4.3881   23.2928  -28.4867 H   0  0  0  0  0  0  0  0  0  0  0  0
   -0.5666   23.6239  -29.6482 H   0  0  0  0  0  0  0  0  0  0  0  0
   -1.3776   25.2702  -29.6922 H   0  0  0  0  0  0  0  0  0  0  0  0
   -1.9077   26.4706  -27.7320 H   0  0  0  0  0  0  0  0  0  0  0  0
   -1.6024   26.7325  -25.2710 H   0  0  0  0  0  0  0  0  0  0  0  0
   -0.7416   24.8278  -23.9056 H   0  0  0  0  0  0  0  0  0  0  0  0
   -0.1994   22.6517  -25.0017 H   0  0  0  0  0  0  0  0  0  0  0  0
   -0.5018   22.3814  -27.4626 H   0  0  0  0  0  0  0  0  0  0  0  0
   -1.5846   21.8281  -29.7445 H   0  0  0  0  0  0  0  0  0  0  0  0
   -3.1313   21.7609  -28.8128 H   0  0  0  0  0  0  0  0  0  0  0  0
   -2.5352   23.1763  -32.2374 H   0  0  0  0  0  0  0  0  0  0  0  0
   -3.7224   22.3385  -34.2664 H   0  0  0  0  0  0  0  0  0  0  0  0
   -5.2314   20.3549  -34.1029 H   0  0  0  0  0  0  0  0  0  0  0  0
   -5.5641   19.2172  -31.9053 H   0  0  0  0  0  0  0  0  0  0  0  0
   -4.3776   20.0459  -29.8725 H   0  0  0  0  0  0  0  0  0  0  0  0
   -5.7239   24.8173  -32.4199 H   0  0  0  0  0  0  0  0  0  0  0  0
   -7.4976   23.3531  -33.3818 H   0  0  0  0  0  0  0  0  0  0  0  0
   -8.0321   21.4543  -29.5328 H   0  0  0  0  0  0  0  0  0  0  0  0
   -6.2659   22.9187  -28.5600 H   0  0  0  0  0  0  0  0  0  0  0  0
  1  2  1  0
  2  3  1  0
  3  4  1  0
  4  5  1  0
  5  6  1  0
  6  7  2  0
  7  8  1  0
  8  9  2  0
  9 10  1  0
 10 11  2  0
  4 12  1  0
 12 13  1  0
 13 14  2  0
 14 15  1  0
 15 16  2  0
 16 17  1  0
 17 18  2  0
  2 19  1  0
 19 20  2  0
 20 21  1  0
 21 22  2  0
 22 23  1  0
 22 24  1  0
 24 25  2  0
 11  6  1  0
 18 13  1  0
 25 19  1  0
  1 26  1  0
  2 27  1  1
  3 28  1  0
  3 29  1  0
  5 30  1  0
  5 31  1  0
  7 32  1  0
  8 33  1  0
  9 34  1  0
 10 35  1  0
 11 36  1  0
 12 37  1  0
 12 38  1  0
 14 39  1  0
 15 40  1  0
 16 41  1  0
 17 42  1  0
 18 43  1  0
 20 44  1  0
 21 45  1  0
 24 46  1  0
 25 47  1  0
M  END
>  <UniqueID>  (40) 
38

>  <SMILES>  (40) 
O[C@H](CN(Cc1ccccc1)Cc1ccccc1)c1ccc(Cl)cc1

>  <Energy>  (40) 
54.11859254783809

>  <Genealogy>  (40) 
O[C@H](CN(Cc1ccccc1)Cc1ccccc1)c1ccc(Cl)cc1 (chirality)
O[C@H](CN(Cc1ccccc1)Cc1ccccc1)c1ccc(Cl)cc1 (3D coordinates assigned)
O[C@H](CN(Cc1ccccc1)Cc1ccccc1)c1ccc(Cl)cc1 (optimized conformer: 54.11859254783809 kcal/mol)

>  <smiles>  (40) 
OC(CN(Cc1ccccc1)Cc1ccccc1)c1ccc(Cl)cc1

>  <score_type>  (40) 
oracle

>  <origin>  (40) 
adg

>  <m_score__min__energy>  (40) 
-9

>  <m_primary>  (40) 
energy

$$$$
40:0
     RDKit          3D

 28 29  0  0  0  0  0  0  0  0999 V2000
   -6.3250   18.3670  -31.2690 O   0  0  0  0  0  0  0  0  0  0  0  0
   -5.9760   18.3240  -32.4820 C   0  0  0  0  0  0  0  0  0  0  0  0
   -5.8430   19.5440  -33.2280 N   0  0  0  0  0  0  0  0  0  0  0  0
   -5.6700   20.8330  -32.6120 C   0  0  0  0  0  0  0  0  0  0  0  0
   -4.3910   21.4080  -32.5110 C   0  0  0  0  0  0  0  0  0  0  0  0
   -4.2220   22.6710  -31.9390 C   0  0  0  0  0  0  0  0  0  0  0  0
   -5.3290   23.3920  -31.4620 C   0  0  0  0  0  0  0  0  0  0  0  0
   -5.1580   24.6940  -30.8710 N   0  0  0  0  0  0  0  0  0  0  0  0
   -6.1380   25.3170  -30.4110 O   0  0  0  0  0  0  0  0  0  0  0  0
   -3.9130   25.2740  -30.8040 O   0  0  0  0  0  0  0  0  0  0  0  0
   -6.6090   22.8250  -31.5750 C   0  0  0  0  0  0  0  0  0  0  0  0
   -6.7830   21.5600  -32.1490 C   0  0  0  0  0  0  0  0  0  0  0  0
   -8.4120   20.8980  -32.2390 Cl  0  0  0  0  0  0  0  0  0  0  0  0
   -5.7710   17.0090  -33.1320 C   0  0  0  0  0  0  0  0  0  0  0  0
   -6.8820   16.2860  -33.6070 C   0  0  0  0  0  0  0  0  0  0  0  0
   -6.7090   15.0440  -34.2260 C   0  0  0  0  0  0  0  0  0  0  0  0
   -5.4290   14.5070  -34.3700 C   0  0  0  0  0  0  0  0  0  0  0  0
   -4.3200   15.2060  -33.8890 C   0  0  0  0  0  0  0  0  0  0  0  0
   -4.4830   16.4490  -33.2690 C   0  0  0  0  0  0  0  0  0  0  0  0
   -3.3900   17.0750  -32.7660 F   0  0  0  0  0  0  0  0  0  0  0  0
   -5.9630   19.4970  -34.2650 H   0  0  0  0  0  0  0  0  0  0  0  0
   -3.5152   20.8581  -32.8860 H   0  0  0  0  0  0  0  0  0  0  0  0
   -3.2140   23.1044  -31.8615 H   0  0  0  0  0  0  0  0  0  0  0  0
   -7.4845   23.3810  -31.2084 H   0  0  0  0  0  0  0  0  0  0  0  0
   -7.8939   16.7013  -33.4903 H   0  0  0  0  0  0  0  0  0  0  0  0
   -7.5826   14.4898  -34.5997 H   0  0  0  0  0  0  0  0  0  0  0  0
   -5.2936   13.5328  -34.8626 H   0  0  0  0  0  0  0  0  0  0  0  0
   -3.3131   14.7768  -33.9983 H   0  0  0  0  0  0  0  0  0  0  0  0
  1  2  2  0
  2  3  1  0
  3  4  1  0
  4  5  2  0
  5  6  1  0
  6  7  2  0
  7  8  1  0
  8  9  2  0
  8 10  1  0
  7 11  1  0
 11 12  2  0
 12 13  1  0
  2 14  1  0
 14 15  2  0
 15 16  1  0
 16 17  2  0
 17 18  1  0
 18 19  2  0
 19 20  1  0
 12  4  1  0
 19 14  1  0
  3 21  1  0
  5 22  1  0
  6 23  1  0
 11 24  1  0
 15 25  1  0
 16 26  1  0
 17 27  1  0
 18 28  1  0
M  CHG  2   8   1  10  -1
M  END
>  <UniqueID>  (41) 
39

>  <SMILES>  (41) 
O=C(Nc1ccc([N+](=O)[O-])cc1Cl)c1ccccc1F

>  <Energy>  (41) 
38.23162092142352

>  <Genealogy>  (41) 
O=C(Nc1ccc([N+](=O)[O-])cc1Cl)c1ccccc1F (3D coordinates assigned)
O=C(Nc1ccc([N+](=O)[O-])cc1Cl)c1ccccc1F (optimized conformer: 38.23162092142352 kcal/mol)

>  <smiles>  (41) 
O=C(Nc1ccc([N+](=O)[O-])cc1Cl)c1ccccc1F

>  <score_type>  (41) 
oracle

>  <origin>  (41) 
adg

>  <m_score__min__energy>  (41) 
-7.3300000000000001

>  <m_primary>  (41) 
energy

$$$$
41:0
     RDKit          3D

 29 31  0  0  0  0  0  0  0  0999 V2000
   -3.1180   25.3100  -31.5910 H   0  0  0  0  0  0  0  0  0  0  0  0
   -3.6250   25.0340  -30.7210 N   0  0  0  0  0  0  0  0  0  0  0  0
   -4.8290   24.5520  -30.7530 C   0  0  0  0  0  0  0  0  0  0  0  0
   -5.1170   23.4060  -31.4900 C   0  0  0  0  0  0  0  0  0  0  0  0
   -4.2760   22.6600  -32.2300 N   0  0  0  0  0  0  0  0  0  0  0  0
   -5.0840   21.6820  -32.7150 C   0  0  0  0  0  0  0  0  0  0  0  0
   -4.7275   20.8768  -33.3742 H   0  0  0  0  0  0  0  0  0  0  0  0
   -6.3730   21.7940  -32.3080 N   0  0  0  0  0  0  0  0  0  0  0  0
   -7.4670   20.8760  -32.6630 C   0  0  0  0  0  0  0  0  0  0  0  0
   -7.9876   21.3748  -33.4938 H   0  0  0  0  0  0  0  0  0  0  0  0
   -8.4390   20.6390  -31.5010 C   0  0  0  0  0  0  0  0  0  0  0  0
   -8.0216   21.0462  -30.5683 H   0  0  0  0  0  0  0  0  0  0  0  0
   -9.4019   21.1391  -31.6817 H   0  0  0  0  0  0  0  0  0  0  0  0
   -8.6180   19.1290  -31.3820 C   0  0  0  0  0  0  0  0  0  0  0  0
   -8.1003   18.7546  -30.4866 H   0  0  0  0  0  0  0  0  0  0  0  0
   -9.6808   18.8612  -31.2879 H   0  0  0  0  0  0  0  0  0  0  0  0
   -8.0070   18.5200  -32.6350 C   0  0  0  0  0  0  0  0  0  0  0  0
   -7.5464   17.5483  -32.4035 H   0  0  0  0  0  0  0  0  0  0  0  0
   -8.7663   18.3414  -33.4106 H   0  0  0  0  0  0  0  0  0  0  0  0
   -6.9530   19.5070  -33.1010 C   0  0  0  0  0  0  0  0  0  0  0  0
   -5.9841   19.2891  -32.6279 H   0  0  0  0  0  0  0  0  0  0  0  0
   -6.7932   19.4558  -34.1881 H   0  0  0  0  0  0  0  0  0  0  0  0
   -6.3770   22.8940  -31.5280 C   0  0  0  0  0  0  0  0  0  0  0  0
   -7.4280   23.4950  -30.8320 C   0  0  0  0  0  0  0  0  0  0  0  0
   -8.4469   23.0816  -30.8618 H   0  0  0  0  0  0  0  0  0  0  0  0
   -7.1270   24.6510  -30.0920 C   0  0  0  0  0  0  0  0  0  0  0  0
   -7.9237   25.1590  -29.5288 H   0  0  0  0  0  0  0  0  0  0  0  0
   -5.8510   25.1530  -30.0640 N   0  0  0  0  0  0  0  0  0  0  0  0
   -5.6670   26.0150  -29.5020 H   0  0  0  0  0  0  0  0  0  0  0  0
  1  2  1  0
  2  3  2  0
  3  4  1  0
  4  5  1  0
  5  6  2  0
  6  7  1  0
  6  8  1  0
  8  9  1  0
  9 10  1  0
  9 11  1  0
 11 12  1  0
 11 13  1  0
 11 14  1  0
 14 15  1  0
 14 16  1  0
 14 17  1  0
 17 18  1  0
 17 19  1  0
 17 20  1  0
 20 21  1  0
 20 22  1  0
  8 23  1  0
 23 24  1  0
 24 25  1  0
 24 26  2  0
 26 27  1  0
 26 28  1  0
 28 29  1  0
 28  3  1  0
 23  4  2  0
 20  9  1  0
M  END
>  <UniqueID>  (42) 
40

>  <SMILES>  (42) 
[H]/N=c1\[nH]ccc2c1ncn2C1CCCC1

>  <Energy>  (42) 
69.9469209014173

>  <Genealogy>  (42) 
[H]/N=c1\[nH]ccc2c1ncn2C1CCCC1 (cis-trans isomerization)
[H]/N=c1\[nH]ccc2c1ncn2C1CCCC1 (3D coordinates assigned)
[H]/N=c1\[nH]ccc2c1ncn2C1CCCC1 (nonaromatic ring conformer: 69.9469209014173 kcal/mol)

>  <smiles>  (42) 
N=c1[nH]ccc2c1ncn2C1CCCC1

>  <score_type>  (42) 
oracle

>  <origin>  (42) 
adg

>  <m_score__min__energy>  (42) 
-7.4000000000000004

>  <m_primary>  (42) 
energy

$$$$
42:0
     RDKit          3D

 31 32  0  0  0  0  0  0  0  0999 V2000
   -6.1650   23.0210  -29.6930 C   0  0  0  0  0  0  0  0  0  0  0  0
   -5.7560   23.7530  -30.9060 N   0  0  1  0  0  0  0  0  0  0  0  0
   -6.8210   23.7930  -31.9340 C   0  0  0  0  0  0  0  0  0  0  0  0
   -7.5990   22.5040  -32.0540 C   0  0  0  0  0  0  0  0  0  0  0  0
   -7.0140   21.2810  -32.4190 C   0  0  0  0  0  0  0  0  0  0  0  0
   -7.9130   20.2250  -32.4590 C   0  0  0  0  0  0  0  0  0  0  0  0
   -9.4300   20.8150  -32.0430 S   0  0  0  0  0  0  0  0  0  0  0  0
   -8.9660   22.4140  -31.8090 C   0  0  0  0  0  0  0  0  0  0  0  0
   -5.2680   25.0790  -30.5990 C   0  0  0  0  0  0  0  0  0  0  0  0
   -6.0680   26.0500  -30.4800 O   0  0  0  0  0  0  0  0  0  0  0  0
   -3.8580   25.3040  -30.4930 N   0  0  0  0  0  0  0  0  0  0  0  0
   -2.9760   24.4300  -29.7330 C   0  0  0  0  0  0  0  0  0  0  0  0
   -2.7770   23.1560  -30.4830 C   0  0  0  0  0  0  0  0  0  0  0  0
   -1.9670   22.1080  -30.0940 C   0  0  0  0  0  0  0  0  0  0  0  0
   -2.1180   21.1440  -31.0670 C   0  0  0  0  0  0  0  0  0  0  0  0
   -3.0130   21.6600  -31.9840 C   0  0  0  0  0  0  0  0  0  0  0  0
   -3.3900   22.8610  -31.6060 O   0  0  0  0  0  0  0  0  0  0  0  0
   -5.8506   23.5837  -28.8017 H   0  0  0  0  0  0  0  0  0  0  0  0
   -7.2588   22.9047  -29.6862 H   0  0  0  0  0  0  0  0  0  0  0  0
   -5.6907   22.0285  -29.6862 H   0  0  0  0  0  0  0  0  0  0  0  0
   -4.9550   23.2170  -31.3190 H   0  0  0  0  0  0  0  0  0  0  0  0
   -7.5230   24.5994  -31.6753 H   0  0  0  0  0  0  0  0  0  0  0  0
   -6.3266   23.9609  -32.9022 H   0  0  0  0  0  0  0  0  0  0  0  0
   -5.9445   21.1705  -32.6512 H   0  0  0  0  0  0  0  0  0  0  0  0
   -7.6741   19.1830  -32.7180 H   0  0  0  0  0  0  0  0  0  0  0  0
   -9.6264   23.2428  -31.5142 H   0  0  0  0  0  0  0  0  0  0  0  0
   -2.0049   24.9255  -29.5866 H   0  0  0  0  0  0  0  0  0  0  0  0
   -3.4269   24.2138  -28.7532 H   0  0  0  0  0  0  0  0  0  0  0  0
   -1.3340   22.0538  -29.1960 H   0  0  0  0  0  0  0  0  0  0  0  0
   -1.6251   20.1614  -31.1057 H   0  0  0  0  0  0  0  0  0  0  0  0
   -3.3577   21.1442  -32.8924 H   0  0  0  0  0  0  0  0  0  0  0  0
  1  2  1  0
  2  3  1  0
  3  4  1  0
  4  5  1  0
  5  6  2  0
  6  7  1  0
  7  8  1  0
  2  9  1  0
  9 10  2  0
  9 11  1  0
 11 12  1  0
 12 13  1  0
 13 14  2  0
 14 15  1  0
 15 16  2  0
 16 17  1  0
  8  4  2  0
 17 13  1  0
  1 18  1  0
  1 19  1  0
  1 20  1  0
  2 21  1  6
  3 22  1  0
  3 23  1  0
  5 24  1  0
  6 25  1  0
  8 26  1  0
 12 27  1  0
 12 28  1  0
 14 29  1  0
 15 30  1  0
 16 31  1  0
M  CHG  2   2   1  11  -1
M  END
>  <UniqueID>  (43) 
41

>  <SMILES>  (43) 
C[N@@H+](Cc1ccsc1)C(=O)[N-]Cc1ccco1

>  <Energy>  (43) 
81.80233791862643

>  <Genealogy>  (43) 
C[NH+](Cc1ccsc1)C(=O)[N-]Cc1ccco1 (protonated)
C[N@@H+](Cc1ccsc1)C(=O)[N-]Cc1ccco1 (chirality)
C[N@@H+](Cc1ccsc1)C(=O)[N-]Cc1ccco1 (3D coordinates assigned)
C[N@@H+](Cc1ccsc1)C(=O)[N-]Cc1ccco1 (optimized conformer: 81.80233791862643 kcal/mol)

>  <smiles>  (43) 
CN(Cc1ccsc1)C(=O)NCc1ccco1

>  <score_type>  (43) 
oracle

>  <origin>  (43) 
adg

>  <m_score__min__energy>  (43) 
-7.7400000000000002

>  <m_primary>  (43) 
energy

$$$$
43:0
     RDKit          3D

 42 44  0  0  1  0  0  0  0  0999 V2000
   -3.8400   21.6550  -33.0720 C   0  0  0  0  0  0  0  0  0  0  0  0
   -5.0390   20.8450  -32.9770 N   0  0  0  0  0  0  0  0  0  0  0  0
   -6.1410   21.3690  -32.3900 C   0  0  0  0  0  0  0  0  0  0  0  0
   -6.0570   22.4790  -31.9020 N   0  0  0  0  0  0  0  0  0  0  0  0
   -6.3660   23.7390  -32.3750 C   0  0  0  0  0  0  0  0  0  0  0  0
   -5.9740   24.6100  -31.0920 C   0  0  0  0  0  0  0  0  0  0  0  0
   -4.6560   24.4770  -30.8360 O   0  0  0  0  0  0  0  0  0  0  0  0
   -3.8610   24.0910  -29.8230 C   0  0  0  0  0  0  0  0  0  0  0  0
   -4.4300   24.1230  -28.5320 C   0  0  0  0  0  0  0  0  0  0  0  0
   -3.7530   23.7610  -27.4160 C   0  0  0  0  0  0  0  0  0  0  0  0
   -2.4590   23.3390  -27.5000 C   0  0  0  0  0  0  0  0  0  0  0  0
   -1.8570   23.2870  -28.7160 C   0  0  0  0  0  0  0  0  0  0  0  0
   -2.5640   23.6630  -29.8680 C   0  0  0  0  0  0  0  0  0  0  0  0
   -7.2710   20.6360  -32.3000 C   0  0  0  0  0  0  0  0  0  0  0  0
   -7.1700   19.3440  -32.8460 C   0  0  0  0  0  0  0  0  0  0  0  0
   -8.3540   18.7960  -32.6770 N   0  0  0  0  0  0  0  0  0  0  0  0
   -9.1390   19.6820  -32.0770 C   0  0  0  0  0  0  0  0  0  0  0  0
   -8.4670   20.8770  -31.8270 N   0  0  0  0  0  0  0  0  0  0  0  0
   -9.2670   21.9010  -31.2480 C   0  0  0  0  0  0  0  0  0  0  0  0
   -6.0700   18.8530  -33.4150 N   0  0  0  0  0  0  0  0  0  0  0  0
   -6.0670   17.4960  -33.9510 C   0  0  0  0  0  0  0  0  0  0  0  0
   -4.9810   19.6130  -33.4870 C   0  0  0  0  0  0  0  0  0  0  0  0
   -3.9450   19.1760  -34.0160 O   0  0  0  0  0  0  0  0  0  0  0  0
   -3.4805   21.8978  -32.0612 H   0  0  0  0  0  0  0  0  0  0  0  0
   -3.0622   21.0966  -33.6135 H   0  0  0  0  0  0  0  0  0  0  0  0
   -4.0677   22.5850  -33.6135 H   0  0  0  0  0  0  0  0  0  0  0  0
   -5.7600   24.0071  -33.2530 H   0  0  0  0  0  0  0  0  0  0  0  0
   -7.4007   23.8650  -32.7265 H   0  0  0  0  0  0  0  0  0  0  0  0
   -6.2038   25.6683  -31.2847 H   0  0  0  0  0  0  0  0  0  0  0  0
   -6.5505   24.2583  -30.2237 H   0  0  0  0  0  0  0  0  0  0  0  0
   -5.4726   24.4577  -28.4270 H   0  0  0  0  0  0  0  0  0  0  0  0
   -4.2501   23.8077  -26.4359 H   0  0  0  0  0  0  0  0  0  0  0  0
   -1.9096   23.0443  -26.5937 H   0  0  0  0  0  0  0  0  0  0  0  0
   -0.8133   22.9495  -28.7980 H   0  0  0  0  0  0  0  0  0  0  0  0
   -2.0561   23.6114  -30.8424 H   0  0  0  0  0  0  0  0  0  0  0  0
  -10.1898   19.4962  -31.8101 H   0  0  0  0  0  0  0  0  0  0  0  0
   -9.2133   21.8323  -30.1515 H   0  0  0  0  0  0  0  0  0  0  0  0
   -8.8954   22.8842  -31.5724 H   0  0  0  0  0  0  0  0  0  0  0  0
  -10.3109   21.7783  -31.5724 H   0  0  0  0  0  0  0  0  0  0  0  0
   -6.0654   16.7740  -33.1211 H   0  0  0  0  0  0  0  0  0  0  0  0
   -6.9648   17.3435  -34.5680 H   0  0  0  0  0  0  0  0  0  0  0  0
   -5.1685   17.3475  -34.5680 H   0  0  0  0  0  0  0  0  0  0  0  0
  1  2  1  0
  2  3  1  0
  3  4  2  0
  4  5  1  0
  5  6  1  0
  6  7  1  0
  7  8  1  0
  8  9  2  0
  9 10  1  0
 10 11  2  0
 11 12  1  0
 12 13  2  0
  3 14  1  0
 14 15  2  0
 15 16  1  0
 16 17  2  0
 17 18  1  0
 18 19  1  0
 15 20  1  0
 20 21  1  0
 20 22  1  0
 22 23  2  0
 22  2  1  0
 13  8  1  0
 18 14  1  0
  1 24  1  0
  1 25  1  0
  1 26  1  0
  5 27  1  0
  5 28  1  0
  6 29  1  0
  6 30  1  0
  9 31  1  0
 10 32  1  0
 11 33  1  0
 12 34  1  0
 13 35  1  0
 17 36  1  0
 19 37  1  0
 19 38  1  0
 19 39  1  0
 21 40  1  0
 21 41  1  0
 21 42  1  0
M  END
>  <smiles>  (44) 
Cn1c(=NCCOc2ccccc2)c2c(ncn2C)n(C)c1=O

>  <score_type>  (44) 
oracle

>  <origin>  (44) 
adg

>  <m_score__min__energy>  (44) 
-7.29

>  <m_primary>  (44) 
energy

$$$$
44:0
     RDKit          3D

 57 60  0  0  0  0  0  0  0  0999 V2000
   -9.4870   21.2570  -31.8930 C   0  0  0  0  0  0  0  0  0  0  0  0
   -8.5940   20.4100  -32.6130 O   0  0  0  0  0  0  0  0  0  0  0  0
   -7.1940   20.5070  -32.5570 C   0  0  0  0  0  0  0  0  0  0  0  0
   -6.6140   21.7790  -32.4850 C   0  0  0  0  0  0  0  0  0  0  0  0
   -5.2220   21.9270  -32.4270 C   0  0  0  0  0  0  0  0  0  0  0  0
   -4.3940   20.8010  -32.4670 C   0  0  0  0  0  0  0  0  0  0  0  0
   -2.9210   20.9550  -32.4020 C   0  0  0  0  0  0  0  0  0  0  0  0
   -2.1470   21.0760  -33.4950 N   0  0  0  0  0  0  0  0  0  0  0  0
   -0.8920   21.2000  -33.0770 N   0  0  0  0  0  0  0  0  0  0  0  0
    0.2580   21.2430  -33.9680 C   0  0  0  0  0  0  0  0  0  0  0  0
   -0.8410   21.1270  -31.7350 C   0  0  0  0  0  0  0  0  0  0  0  0
   -2.1270   20.9480  -31.2640 C   0  0  0  0  0  0  0  0  0  0  0  0
   -2.5300   20.6710  -29.8380 C   0  0  0  0  0  0  0  0  0  0  0  0
   -2.3520   21.8790  -28.9960 N   0  0  0  0  0  0  0  0  0  0  0  0
   -3.6150   22.2970  -28.3340 C   0  0  0  0  0  0  0  0  0  0  0  0
   -4.4530   23.2690  -29.1520 C   0  0  0  0  0  0  0  0  0  0  0  0
   -3.8450   24.3980  -29.7310 C   0  0  0  0  0  0  0  0  0  0  0  0
   -4.6060   25.3130  -30.4690 C   0  0  0  0  0  0  0  0  0  0  0  0
   -5.9740   25.0990  -30.6480 C   0  0  0  0  0  0  0  0  0  0  0  0
   -6.5880   23.9760  -30.0830 C   0  0  0  0  0  0  0  0  0  0  0  0
   -5.8290   23.0540  -29.3460 C   0  0  0  0  0  0  0  0  0  0  0  0
   -1.2220   21.7470  -28.0360 C   0  0  0  0  0  0  0  0  0  0  0  0
   -0.7150   20.3370  -27.9630 C   0  0  0  0  0  0  0  0  0  0  0  0
    0.4400   19.8540  -28.5460 C   0  0  0  0  0  0  0  0  0  0  0  0
    0.5550   18.5360  -28.2720 N   0  0  0  0  0  0  0  0  0  0  0  0
   -0.5230   18.2560  -27.5100 C   0  0  0  0  0  0  0  0  0  0  0  0
   -1.3070   19.3260  -27.3010 N   0  0  0  0  0  0  0  0  0  0  0  0
   -2.5920   19.3680  -26.6030 C   0  0  0  0  0  0  0  0  0  0  0  0
   -4.9700   19.5200  -32.5090 C   0  0  0  0  0  0  0  0  0  0  0  0
   -6.3600   19.3740  -32.5680 C   0  0  0  0  0  0  0  0  0  0  0  0
   -9.3367   21.1144  -30.8127 H   0  0  0  0  0  0  0  0  0  0  0  0
   -9.2885   22.3066  -32.1554 H   0  0  0  0  0  0  0  0  0  0  0  0
  -10.5247   21.0033  -32.1554 H   0  0  0  0  0  0  0  0  0  0  0  0
   -7.2575   22.6711  -32.4739 H   0  0  0  0  0  0  0  0  0  0  0  0
   -4.7796   22.9311  -32.3498 H   0  0  0  0  0  0  0  0  0  0  0  0
    1.1822   21.2776  -33.3724 H   0  0  0  0  0  0  0  0  0  0  0  0
    0.2641   20.3445  -34.6025 H   0  0  0  0  0  0  0  0  0  0  0  0
    0.1969   22.1395  -34.6025 H   0  0  0  0  0  0  0  0  0  0  0  0
    0.0677   21.1976  -31.1191 H   0  0  0  0  0  0  0  0  0  0  0  0
   -3.5871   20.3676  -29.8145 H   0  0  0  0  0  0  0  0  0  0  0  0
   -1.8920   19.8676  -29.4411 H   0  0  0  0  0  0  0  0  0  0  0  0
   -4.2184   21.3976  -28.1419 H   0  0  0  0  0  0  0  0  0  0  0  0
   -3.3303   22.8228  -27.4107 H   0  0  0  0  0  0  0  0  0  0  0  0
   -2.7650   24.5630  -29.6032 H   0  0  0  0  0  0  0  0  0  0  0  0
   -4.1260   26.2003  -30.9076 H   0  0  0  0  0  0  0  0  0  0  0  0
   -6.5698   25.8143  -31.2340 H   0  0  0  0  0  0  0  0  0  0  0  0
   -7.6680   23.8154  -30.2167 H   0  0  0  0  0  0  0  0  0  0  0  0
   -6.3111   22.1620  -28.9195 H   0  0  0  0  0  0  0  0  0  0  0  0
   -0.4013   22.4042  -28.3595 H   0  0  0  0  0  0  0  0  0  0  0  0
   -1.5863   22.0315  -27.0378 H   0  0  0  0  0  0  0  0  0  0  0  0
    1.1521   20.4472  -29.1384 H   0  0  0  0  0  0  0  0  0  0  0  0
   -0.7369   17.2567  -27.1030 H   0  0  0  0  0  0  0  0  0  0  0  0
   -2.4195   19.3624  -25.5166 H   0  0  0  0  0  0  0  0  0  0  0  0
   -3.1320   20.2843  -26.8838 H   0  0  0  0  0  0  0  0  0  0  0  0
   -3.1907   18.4889  -26.8838 H   0  0  0  0  0  0  0  0  0  0  0  0
   -4.3255   18.6287  -32.4954 H   0  0  0  0  0  0  0  0  0  0  0  0
   -6.8030   18.3687  -32.6233 H   0  0  0  0  0  0  0  0  0  0  0  0
  1  2  1  0
  2  3  1  0
  3  4  2  0
  4  5  1  0
  5  6  2  0
  6  7  1  0
  7  8  2  0
  8  9  1  0
  9 10  1  0
  9 11  1  0
 11 12  2  0
 12 13  1  0
 13 14  1  0
 14 15  1  0
 15 16  1  0
 16 17  2  0
 17 18  1  0
 18 19  2  0
 19 20  1  0
 20 21  2  0
 14 22  1  0
 22 23  1  0
 23 24  2  0
 24 25  1  0
 25 26  2  0
 26 27  1  0
 27 28  1  0
  6 29  1  0
 29 30  2  0
 30  3  1  0
 12  7  1  0
 21 16  1  0
 27 23  1  0
  1 31  1  0
  1 32  1  0
  1 33  1  0
  4 34  1  0
  5 35  1  0
 10 36  1  0
 10 37  1  0
 10 38  1  0
 11 39  1  0
 13 40  1  0
 13 41  1  0
 15 42  1  0
 15 43  1  0
 17 44  1  0
 18 45  1  0
 19 46  1  0
 20 47  1  0
 21 48  1  0
 22 49  1  0
 22 50  1  0
 24 51  1  0
 26 52  1  0
 28 53  1  0
 28 54  1  0
 28 55  1  0
 29 56  1  0
 30 57  1  0
M  END
>  <UniqueID>  (45) 
42

>  <SMILES>  (45) 
COc1ccc(-c2nn(C)cc2CN(Cc2ccccc2)Cc2cncn2C)cc1

>  <Energy>  (45) 
123.68362318388134

>  <Genealogy>  (45) 
COc1ccc(-c2nn(C)cc2CN(Cc2ccccc2)Cc2cncn2C)cc1 (3D coordinates assigned)
COc1ccc(-c2nn(C)cc2CN(Cc2ccccc2)Cc2cncn2C)cc1 (optimized conformer: 123.68362318388134 kcal/mol)

>  <smiles>  (45) 
COc1ccc(-c2nn(C)cc2CN(Cc2ccccc2)Cc2cncn2C)cc1

>  <score_type>  (45) 
oracle

>  <origin>  (45) 
adg

>  <m_score__min__energy>  (45) 
-8.4100000000000001

>  <m_primary>  (45) 
energy

$$$$
45:0
     RDKit          3D

 49 52  0  0  0  0  0  0  0  0999 V2000
   -0.9450   23.0500  -29.8340 C   0  0  0  0  0  0  0  0  0  0  0  0
   -1.6710   24.2540  -29.6070 O   0  0  0  0  0  0  0  0  0  0  0  0
   -2.2860   24.5980  -28.3930 C   0  0  0  0  0  0  0  0  0  0  0  0
   -1.5330   24.9730  -27.2600 C   0  0  0  0  0  0  0  0  0  0  0  0
   -2.1750   25.2860  -26.0590 C   0  0  0  0  0  0  0  0  0  0  0  0
   -3.5660   25.2290  -25.9710 C   0  0  0  0  0  0  0  0  0  0  0  0
   -4.3220   24.8640  -27.0860 C   0  0  0  0  0  0  0  0  0  0  0  0
   -3.6920   24.5510  -28.3020 C   0  0  0  0  0  0  0  0  0  0  0  0
   -4.4950   24.1920  -29.4400 N   0  0  0  0  0  0  0  0  0  0  0  0
   -5.3900   25.1680  -30.0670 C   0  0  0  0  0  0  0  0  0  0  0  0
   -6.7190   24.4910  -30.4240 C   0  0  0  0  0  0  0  0  0  0  0  0
   -6.4850   23.2620  -31.2170 N   0  0  0  0  0  0  0  0  0  0  0  0
   -7.7520   22.6590  -31.7020 C   0  0  0  0  0  0  0  0  0  0  0  0
   -7.6320   21.2000  -32.0770 C   0  0  0  0  0  0  0  0  0  0  0  0
   -8.5480   20.2580  -31.6050 C   0  0  0  0  0  0  0  0  0  0  0  0
   -8.4050   18.9240  -31.9860 C   0  0  0  0  0  0  0  0  0  0  0  0
   -9.2400   18.0780  -31.5580 O   0  0  0  0  0  0  0  0  0  0  0  0
   -7.3750   18.5450  -32.8110 N   0  0  0  0  0  0  0  0  0  0  0  0
   -7.2250   17.2350  -33.1940 C   0  0  0  0  0  0  0  0  0  0  0  0
   -6.1770   16.8520  -34.0320 C   0  0  0  0  0  0  0  0  0  0  0  0
   -5.2720   17.8090  -34.4850 C   0  0  0  0  0  0  0  0  0  0  0  0
   -5.4220   19.1390  -34.0980 C   0  0  0  0  0  0  0  0  0  0  0  0
   -6.4810   19.4970  -33.2570 C   0  0  0  0  0  0  0  0  0  0  0  0
   -6.6210   20.7960  -32.8860 N   0  0  0  0  0  0  0  0  0  0  0  0
   -5.6610   22.2930  -30.4590 C   0  0  0  0  0  0  0  0  0  0  0  0
   -4.2990   22.9000  -30.1050 C   0  0  0  0  0  0  0  0  0  0  0  0
   -0.6727   22.5985  -28.8686 H   0  0  0  0  0  0  0  0  0  0  0  0
   -1.5699   22.3470  -30.4044 H   0  0  0  0  0  0  0  0  0  0  0  0
   -0.0316   23.2746  -30.4044 H   0  0  0  0  0  0  0  0  0  0  0  0
   -0.4357   25.0191  -27.3225 H   0  0  0  0  0  0  0  0  0  0  0  0
   -1.5816   25.5783  -25.1801 H   0  0  0  0  0  0  0  0  0  0  0  0
   -4.0673   25.4718  -25.0224 H   0  0  0  0  0  0  0  0  0  0  0  0
   -5.4187   24.8211  -27.0121 H   0  0  0  0  0  0  0  0  0  0  0  0
   -5.5771   25.9958  -29.3672 H   0  0  0  0  0  0  0  0  0  0  0  0
   -4.9213   25.5588  -30.9822 H   0  0  0  0  0  0  0  0  0  0  0  0
   -7.2500   24.2271  -29.4975 H   0  0  0  0  0  0  0  0  0  0  0  0
   -7.3212   25.1892  -31.0239 H   0  0  0  0  0  0  0  0  0  0  0  0
   -5.9490   23.5340  -32.0760 H   0  0  0  0  0  0  0  0  0  0  0  0
   -8.5061   22.7512  -30.9065 H   0  0  0  0  0  0  0  0  0  0  0  0
   -8.0340   23.2014  -32.6165 H   0  0  0  0  0  0  0  0  0  0  0  0
   -9.3708   20.5636  -30.9420 H   0  0  0  0  0  0  0  0  0  0  0  0
   -7.9392   16.4787  -32.8361 H   0  0  0  0  0  0  0  0  0  0  0  0
   -6.0662   15.7999  -34.3332 H   0  0  0  0  0  0  0  0  0  0  0  0
   -4.4425   17.5160  -35.1454 H   0  0  0  0  0  0  0  0  0  0  0  0
   -4.7128   19.9021  -34.4512 H   0  0  0  0  0  0  0  0  0  0  0  0
   -6.1864   22.0196  -29.5320 H   0  0  0  0  0  0  0  0  0  0  0  0
   -5.4994   21.4018  -31.0832 H   0  0  0  0  0  0  0  0  0  0  0  0
   -3.7588   22.2192  -29.4306 H   0  0  0  0  0  0  0  0  0  0  0  0
   -3.7141   23.0473  -31.0249 H   0  0  0  0  0  0  0  0  0  0  0  0
  1  2  1  0
  2  3  1  0
  3  4  2  0
  4  5  1  0
  5  6  2  0
  6  7  1  0
  7  8  2  0
  8  9  1  0
  9 10  1  0
 10 11  1  0
 11 12  1  0
 12 13  1  0
 13 14  1  0
 14 15  2  0
 15 16  1  0
 16 17  2  0
 16 18  1  0
 18 19  1  0
 19 20  2  0
 20 21  1  0
 21 22  2  0
 22 23  1  0
 23 24  2  0
 12 25  1  0
 25 26  1  0
  8  3  1  0
 26  9  1  0
 24 14  1  0
 23 18  1  0
  1 27  1  0
  1 28  1  0
  1 29  1  0
  4 30  1  0
  5 31  1  0
  6 32  1  0
  7 33  1  0
 10 34  1  0
 10 35  1  0
 11 36  1  0
 11 37  1  0
 12 38  1  0
 13 39  1  0
 13 40  1  0
 15 41  1  0
 19 42  1  0
 20 43  1  0
 21 44  1  0
 22 45  1  0
 25 46  1  0
 25 47  1  0
 26 48  1  0
 26 49  1  0
M  CHG  1  12   1
M  END
>  <UniqueID>  (46) 
43

>  <SMILES>  (46) 
COc1ccccc1N1CC[NH+](Cc2cc(=O)n3ccccc3n2)CC1

>  <Energy>  (46) 
64.27935338039136

>  <Genealogy>  (46) 
COc1ccccc1N1CC[NH+](Cc2cc(=O)n3ccccc3n2)CC1 (protonated)
COc1ccccc1N1CC[NH+](Cc2cc(=O)n3ccccc3n2)CC1 (3D coordinates assigned)
COc1ccccc1N1CC[NH+](Cc2cc(=O)n3ccccc3n2)CC1 (nonaromatic ring conformer: 64.27935338039136 kcal/mol)

>  <smiles>  (46) 
COc1ccccc1N1CCN(Cc2cc(=O)n3ccccc3n2)CC1

>  <score_type>  (46) 
oracle

>  <origin>  (46) 
adg

>  <m_score__min__energy>  (46) 
-7.5199999999999996

>  <m_primary>  (46) 
energy

$$$$
