0:0
     RDKit          3D

 31 34  0  0  0  0  0  0  0  0999 V2000
   -7.3070   13.6440  -34.5730 C   0  0  0  0  0  0  0  0  0  0  0  0
   -6.0340   14.2830  -34.5830 O   0  0  0  0  0  0  0  0  0  0  0  0
   -5.8030   15.5950  -34.1430 C   0  0  0  0  0  0  0  0  0  0  0  0
   -4.5420   16.2100  -34.2330 C   0  0  0  0  0  0  0  0  0  0  0  0
   -4.3570   17.5190  -33.7810 C   0  0  0  0  0  0  0  0  0  0  0  0
   -5.4310   18.2430  -33.2300 C   0  0  0  0  0  0  0  0  0  0  0  0
   -6.7030   17.6240  -33.1390 C   0  0  0  0  0  0  0  0  0  0  0  0
   -7.7870   18.3280  -32.5930 C   0  0  0  0  0  0  0  0  0  0  0  0
   -7.6220   19.6360  -32.1380 C   0  0  0  0  0  0  0  0  0  0  0  0
   -6.3710   20.2620  -32.2200 C   0  0  0  0  0  0  0  0  0  0  0  0
   -6.1940   21.5750  -31.7660 C   0  0  0  0  0  0  0  0  0  0  0  0
   -4.9370   22.1900  -31.8550 C   0  0  0  0  0  0  0  0  0  0  0  0
   -4.7370   23.5750  -31.3790 C   0  0  0  0  0  0  0  0  0  0  0  0
   -3.6220   24.0190  -30.7690 N   0  0  0  0  0  0  0  0  0  0  0  0
   -3.8620   25.2940  -30.5140 N   0  0  0  0  0  0  0  0  0  0  0  0
   -5.0700   25.6180  -30.9490 N   0  0  0  0  0  0  0  0  0  0  0  0
   -5.6460   24.5610  -31.4980 N   0  0  0  0  0  0  0  0  0  0  0  0
   -3.8700   21.4630  -32.4050 C   0  0  0  0  0  0  0  0  0  0  0  0
   -4.0590   20.1900  -32.8410 N   0  0  0  0  0  0  0  0  0  0  0  0
   -5.2680   19.5670  -32.7680 C   0  0  0  0  0  0  0  0  0  0  0  0
   -6.8750   16.3090  -33.5960 C   0  0  0  0  0  0  0  0  0  0  0  0
   -7.6282   13.4828  -33.5334 H   0  0  0  0  0  0  0  0  0  0  0  0
   -8.0409   14.2806  -35.0890 H   0  0  0  0  0  0  0  0  0  0  0  0
   -7.2350   12.6752  -35.0890 H   0  0  0  0  0  0  0  0  0  0  0  0
   -3.6943   15.6562  -34.6627 H   0  0  0  0  0  0  0  0  0  0  0  0
   -3.3645   17.9873  -33.8563 H   0  0  0  0  0  0  0  0  0  0  0  0
   -8.7730   17.8453  -32.5234 H   0  0  0  0  0  0  0  0  0  0  0  0
   -8.4786   20.1792  -31.7124 H   0  0  0  0  0  0  0  0  0  0  0  0
   -7.0444   22.1260  -31.3379 H   0  0  0  0  0  0  0  0  0  0  0  0
   -2.8754   21.9262  -32.4836 H   0  0  0  0  0  0  0  0  0  0  0  0
   -7.8642   15.8334  -33.5235 H   0  0  0  0  0  0  0  0  0  0  0  0
  1  2  1  0
  2  3  1  0
  3  4  2  0
  4  5  1  0
  5  6  2  0
  6  7  1  0
  7  8  1  0
  8  9  2  0
  9 10  1  0
 10 11  2  0
 11 12  1  0
 12 13  1  0
 13 14  1  0
 14 15  2  0
 15 16  1  0
 16 17  1  0
 12 18  2  0
 18 19  1  0
 19 20  2  0
  7 21  2  0
 21  3  1  0
 20  6  1  0
 20 10  1  0
 17 13  2  0
  1 22  1  0
  1 23  1  0
  1 24  1  0
  4 25  1  0
  5 26  1  0
  8 27  1  0
  9 28  1  0
 11 29  1  0
 18 30  1  0
 21 31  1  0
M  CHG  1  16  -1
M  END
>  <UniqueID>  (1) 
1

>  <SMILES>  (1) 
COc1ccc2c(ccc3cc(-c4nn[n-]n4)cnc32)c1

>  <Energy>  (1) 
81.3253503673617

>  <Genealogy>  (1) 
COc1ccc2c(ccc3cc(-c4nn[n-]n4)cnc32)c1 (protonated)
COc1ccc2c(ccc3cc(-c4nn[n-]n4)cnc32)c1 (3D coordinates assigned)
COc1ccc2c(ccc3cc(-c4nn[n-]n4)cnc32)c1 (optimized conformer: 81.3253503673617 kcal/mol)

>  <smiles>  (1) 
COc1ccc2c(ccc3cc(-c4nn[nH]n4)cnc32)c1

>  <score_type>  (1) 
oracle

>  <origin>  (1) 
adg

>  <m_score__min__energy>  (1) 
-9.5700000000000003

>  <m_primary>  (1) 
energy

$$$$
1:0
     RDKit          3D

 50 54  0  0  0  0  0  0  0  0999 V2000
   -6.4370   17.5200  -31.2890 C   0  0  0  0  0  0  0  0  0  0  0  0
   -5.5510   16.5180  -32.0210 C   0  0  0  0  0  0  0  0  0  0  0  0
   -5.4290   16.8760  -33.3840 O   0  0  0  0  0  0  0  0  0  0  0  0
   -6.4170   17.8220  -33.7390 C   0  0  0  0  0  0  0  0  0  0  0  0
   -5.7440   19.1300  -34.1510 C   0  0  0  0  0  0  0  0  0  0  0  0
   -5.9740   20.1660  -33.1440 N   0  0  0  0  0  0  0  0  0  0  0  0
   -5.0450   21.0300  -32.6710 C   0  0  0  0  0  0  0  0  0  0  0  0
   -5.6320   21.9390  -31.8000 C   0  0  0  0  0  0  0  0  0  0  0  0
   -4.9430   23.0520  -31.1200 C   0  0  0  0  0  0  0  0  0  0  0  0
   -3.7080   23.0390  -30.6040 C   0  0  0  0  0  0  0  0  0  0  0  0
   -2.8180   21.8670  -30.4830 C   0  0  0  0  0  0  0  0  0  0  0  0
   -2.5540   21.1500  -29.3260 C   0  0  0  0  0  0  0  0  0  0  0  0
   -1.6910   20.1430  -29.5960 N   0  0  0  0  0  0  0  0  0  0  0  0
   -1.4560   20.2730  -30.9180 C   0  0  0  0  0  0  0  0  0  0  0  0
   -0.6390   19.4420  -31.6830 C   0  0  0  0  0  0  0  0  0  0  0  0
   -0.5430   19.7090  -33.0590 C   0  0  0  0  0  0  0  0  0  0  0  0
   -1.2620   20.7760  -33.6280 C   0  0  0  0  0  0  0  0  0  0  0  0
   -2.0710   21.5780  -32.8100 C   0  0  0  0  0  0  0  0  0  0  0  0
   -2.1180   21.3000  -31.4800 N   0  0  0  0  0  0  0  0  0  0  0  0
   -3.4720   24.3510  -29.9950 C   0  0  0  0  0  0  0  0  0  0  0  0
   -2.4450   24.6850  -29.3480 O   0  0  0  0  0  0  0  0  0  0  0  0
   -4.6010   25.1950  -30.1610 N   0  0  0  0  0  0  0  0  0  0  0  0
   -5.5230   24.3690  -30.8550 C   0  0  0  0  0  0  0  0  0  0  0  0
   -6.6780   24.7400  -31.1880 O   0  0  0  0  0  0  0  0  0  0  0  0
   -6.9710   21.5950  -31.7370 C   0  0  0  0  0  0  0  0  0  0  0  0
   -8.0280   22.1250  -30.9940 C   0  0  0  0  0  0  0  0  0  0  0  0
   -9.3010   21.5510  -31.1560 C   0  0  0  0  0  0  0  0  0  0  0  0
   -9.4880   20.4650  -32.0360 C   0  0  0  0  0  0  0  0  0  0  0  0
   -8.4040   19.9330  -32.7550 C   0  0  0  0  0  0  0  0  0  0  0  0
   -7.1470   20.5200  -32.5760 C   0  0  0  0  0  0  0  0  0  0  0  0
   -6.3203   17.3880  -30.2032 H   0  0  0  0  0  0  0  0  0  0  0  0
   -6.1421   18.5424  -31.5678 H   0  0  0  0  0  0  0  0  0  0  0  0
   -7.4878   17.3525  -31.5678 H   0  0  0  0  0  0  0  0  0  0  0  0
   -4.5535   16.5088  -31.5574 H   0  0  0  0  0  0  0  0  0  0  0  0
   -6.0071   15.5194  -31.9523 H   0  0  0  0  0  0  0  0  0  0  0  0
   -7.0107   17.4343  -34.5799 H   0  0  0  0  0  0  0  0  0  0  0  0
   -7.0768   18.0042  -32.8779 H   0  0  0  0  0  0  0  0  0  0  0  0
   -4.6620   18.9623  -34.2568 H   0  0  0  0  0  0  0  0  0  0  0  0
   -6.1723   19.4636  -35.1077 H   0  0  0  0  0  0  0  0  0  0  0  0
   -3.9781   21.0143  -32.9382 H   0  0  0  0  0  0  0  0  0  0  0  0
   -2.9821   21.3672  -28.3363 H   0  0  0  0  0  0  0  0  0  0  0  0
   -0.0888   18.6066  -31.2254 H   0  0  0  0  0  0  0  0  0  0  0  0
    0.0978   19.0804  -33.6948 H   0  0  0  0  0  0  0  0  0  0  0  0
   -1.1902   20.9797  -34.7066 H   0  0  0  0  0  0  0  0  0  0  0  0
   -2.6524   22.4103  -33.2335 H   0  0  0  0  0  0  0  0  0  0  0  0
   -4.7430   26.1670  -29.8050 H   0  0  0  0  0  0  0  0  0  0  0  0
   -7.8693   22.9660  -30.3030 H   0  0  0  0  0  0  0  0  0  0  0  0
  -10.1567   21.9515  -30.5927 H   0  0  0  0  0  0  0  0  0  0  0  0
  -10.4909   20.0306  -32.1607 H   0  0  0  0  0  0  0  0  0  0  0  0
   -8.5398   19.0812  -33.4376 H   0  0  0  0  0  0  0  0  0  0  0  0
  1  2  1  0
  2  3  1  0
  3  4  1  0
  4  5  1  0
  5  6  1  0
  6  7  1  0
  7  8  2  0
  8  9  1  0
  9 10  2  0
 10 11  1  0
 11 12  2  0
 12 13  1  0
 13 14  2  0
 14 15  1  0
 15 16  2  0
 16 17  1  0
 17 18  2  0
 18 19  1  0
 10 20  1  0
 20 21  2  0
 20 22  1  0
 22 23  1  0
 23 24  2  0
  8 25  1  0
 25 26  2  0
 26 27  1  0
 27 28  2  0
 28 29  1  0
 29 30  2  0
 30  6  1  0
 23  9  1  0
 30 25  1  0
 19 11  1  0
 19 14  1  0
  1 31  1  0
  1 32  1  0
  1 33  1  0
  2 34  1  0
  2 35  1  0
  4 36  1  0
  4 37  1  0
  5 38  1  0
  5 39  1  0
  7 40  1  0
 12 41  1  0
 15 42  1  0
 16 43  1  0
 17 44  1  0
 18 45  1  0
 22 46  1  0
 26 47  1  0
 27 48  1  0
 28 49  1  0
 29 50  1  0
M  END
>  <UniqueID>  (2) 
2

>  <SMILES>  (2) 
CCOCCn1cc(C2=C(c3cnc4ccccn34)C(=O)NC2=O)c2ccccc21

>  <Energy>  (2) 
155.08250364554775

>  <Genealogy>  (2) 
CCOCCn1cc(C2=C(c3cnc4ccccn34)C(=O)NC2=O)c2ccccc21 (3D coordinates assigned)
CCOCCn1cc(C2=C(c3cnc4ccccn34)C(=O)NC2=O)c2ccccc21 (nonaromatic ring conformer: 155.08250364554775 kcal/mol)

>  <smiles>  (2) 
CCOCCn1cc(C2=C(c3cnc4ccccn34)C(=O)NC2=O)c2ccccc21

>  <score_type>  (2) 
oracle

>  <origin>  (2) 
adg

>  <m_score__min__energy>  (2) 
-9.4000000000000004

>  <m_primary>  (2) 
energy

$$$$
2:0
     RDKit          3D

 36 36  0  0  0  0  0  0  0  0999 V2000
   -3.4890   19.0820  -32.9960 C   0  0  0  0  0  0  0  0  0  0  0  0
   -3.2210   20.3030  -33.4640 C   0  0  0  0  0  0  0  0  0  0  0  0
   -3.4500   21.5350  -32.6290 C   0  0  0  0  0  0  0  0  0  0  0  0
   -4.8780   21.8900  -32.5460 N   0  0  0  0  0  0  0  0  0  0  0  0
   -5.0970   22.9960  -31.6350 C   0  0  0  0  0  0  0  0  0  0  0  0
   -4.0040   23.5240  -30.9210 C   0  0  0  0  0  0  0  0  0  0  0  0
   -4.1750   24.5950  -30.0420 C   0  0  0  0  0  0  0  0  0  0  0  0
   -3.1110   25.0900  -29.3630 F   0  0  0  0  0  0  0  0  0  0  0  0
   -5.4380   25.1580  -29.8640 C   0  0  0  0  0  0  0  0  0  0  0  0
   -6.5340   24.6510  -30.5620 C   0  0  0  0  0  0  0  0  0  0  0  0
   -6.3790   23.5740  -31.4460 C   0  0  0  0  0  0  0  0  0  0  0  0
   -7.8420   22.9760  -32.3060 S   0  0  0  0  0  0  0  0  0  0  0  0
   -8.2900   21.7960  -30.9880 C   0  0  0  0  0  0  0  0  0  0  0  0
   -7.5840   20.4560  -31.2030 C   0  0  0  0  0  0  0  0  0  0  0  0
   -8.0280   19.8180  -32.4500 N   0  0  0  0  0  0  0  0  0  0  0  0
   -9.4510   19.5960  -32.7140 C   0  0  0  0  0  0  0  0  0  0  0  0
   -7.0480   19.3680  -33.3990 C   0  0  0  0  0  0  0  0  0  0  0  0
   -6.2430   20.1800  -33.9290 O   0  0  0  0  0  0  0  0  0  0  0  0
   -3.3119   18.1995  -33.6283 H   0  0  0  0  0  0  0  0  0  0  0  0
   -3.8870   18.9583  -31.9780 H   0  0  0  0  0  0  0  0  0  0  0  0
   -2.8234   20.4118  -34.4838 H   0  0  0  0  0  0  0  0  0  0  0  0
   -3.0705   21.3507  -31.6131 H   0  0  0  0  0  0  0  0  0  0  0  0
   -2.9198   22.3719  -33.1069 H   0  0  0  0  0  0  0  0  0  0  0  0
   -5.2620   22.0830  -33.4980 H   0  0  0  0  0  0  0  0  0  0  0  0
   -5.4000   21.0570  -32.1870 H   0  0  0  0  0  0  0  0  0  0  0  0
   -3.0036   23.0874  -31.0575 H   0  0  0  0  0  0  0  0  0  0  0  0
   -5.5703   26.0030  -29.1723 H   0  0  0  0  0  0  0  0  0  0  0  0
   -7.5279   25.0998  -30.4177 H   0  0  0  0  0  0  0  0  0  0  0  0
   -7.9902   22.2106  -30.0142 H   0  0  0  0  0  0  0  0  0  0  0  0
   -9.3774   21.6322  -31.0129 H   0  0  0  0  0  0  0  0  0  0  0  0
   -6.4984   20.6259  -31.2532 H   0  0  0  0  0  0  0  0  0  0  0  0
   -7.8329   19.7913  -30.3627 H   0  0  0  0  0  0  0  0  0  0  0  0
   -9.9921   19.5116  -31.7600 H   0  0  0  0  0  0  0  0  0  0  0  0
   -9.8534   20.4422  -33.2902 H   0  0  0  0  0  0  0  0  0  0  0  0
   -9.5765   18.6674  -33.2902 H   0  0  0  0  0  0  0  0  0  0  0  0
   -6.9996   18.3021  -33.6663 H   0  0  0  0  0  0  0  0  0  0  0  0
  1  2  2  0
  2  3  1  0
  3  4  1  0
  4  5  1  0
  5  6  2  0
  6  7  1  0
  7  8  1  0
  7  9  2  0
  9 10  1  0
 10 11  2  0
 11 12  1  0
 12 13  1  0
 13 14  1  0
 14 15  1  0
 15 16  1  0
 15 17  1  0
 17 18  2  0
 11  5  1  0
  1 19  1  0
  1 20  1  0
  2 21  1  0
  3 22  1  0
  3 23  1  0
  4 24  1  0
  4 25  1  0
  6 26  1  0
  9 27  1  0
 10 28  1  0
 13 29  1  0
 13 30  1  0
 14 31  1  0
 14 32  1  0
 16 33  1  0
 16 34  1  0
 16 35  1  0
 17 36  1  0
M  CHG  1   4   1
M  END
>  <UniqueID>  (3) 
3

>  <SMILES>  (3) 
C=CC[NH2+]c1cc(F)ccc1SCCN(C)C=O

>  <Energy>  (3) 
22.695327656679474

>  <Genealogy>  (3) 
C=CC[NH2+]c1cc(F)ccc1SCCN(C)C=O (protonated)
C=CC[NH2+]c1cc(F)ccc1SCCN(C)C=O (3D coordinates assigned)
C=CC[NH2+]c1cc(F)ccc1SCCN(C)C=O (optimized conformer: 22.695327656679474 kcal/mol)

>  <smiles>  (3) 
C=CCNc1cc(F)ccc1SCCN(C)C=O

>  <score_type>  (3) 
oracle

>  <origin>  (3) 
adg

>  <m_score__min__energy>  (3) 
-6.0999999999999996

>  <m_primary>  (3) 
energy

$$$$
3:0
     RDKit          3D

 52 54  0  0  0  0  0  0  0  0999 V2000
   -6.1870   25.3000  -29.4570 C   0  0  0  0  0  0  0  0  0  0  0  0
   -5.3560   25.5510  -30.7110 C   0  0  0  0  0  0  0  0  0  0  0  0
   -3.9730   25.2980  -30.4600 O   0  0  0  0  0  0  0  0  0  0  0  0
   -3.3680   24.0310  -30.4200 C   0  0  0  0  0  0  0  0  0  0  0  0
   -2.1740   23.7770  -29.7160 C   0  0  0  0  0  0  0  0  0  0  0  0
   -1.6170   22.4960  -29.7140 C   0  0  0  0  0  0  0  0  0  0  0  0
   -2.2380   21.4490  -30.4120 C   0  0  0  0  0  0  0  0  0  0  0  0
   -1.6200   20.0760  -30.4140 C   0  0  0  0  0  0  0  0  0  0  0  0
   -0.6680   19.9490  -31.5390 N   0  0  0  0  0  0  0  0  0  0  0  0
   -0.5740   18.5620  -32.0360 C   0  0  0  0  0  0  0  0  0  0  0  0
   -1.8730   18.1040  -32.7370 C   0  0  0  0  0  0  0  0  0  0  0  0
   -2.6930   19.2460  -33.2050 N   0  0  0  0  0  0  0  0  0  0  0  0
   -3.6970   18.8180  -34.1980 C   0  0  0  0  0  0  0  0  0  0  0  0
   -5.0870   18.9220  -33.6250 C   0  0  0  0  0  0  0  0  0  0  0  0
   -5.6500   20.1760  -33.3380 C   0  0  0  0  0  0  0  0  0  0  0  0
   -6.9520   20.2650  -32.8360 C   0  0  0  0  0  0  0  0  0  0  0  0
   -7.7030   19.1020  -32.6080 C   0  0  0  0  0  0  0  0  0  0  0  0
   -9.1140   19.2010  -32.1080 C   0  0  0  0  0  0  0  0  0  0  0  0
   -7.1500   17.8510  -32.9180 C   0  0  0  0  0  0  0  0  0  0  0  0
   -5.8490   17.7610  -33.4200 C   0  0  0  0  0  0  0  0  0  0  0  0
   -1.8350   20.3080  -33.7540 C   0  0  0  0  0  0  0  0  0  0  0  0
   -0.9480   20.9030  -32.6400 C   0  0  0  0  0  0  0  0  0  0  0  0
   -3.4230   21.7040  -31.1190 C   0  0  0  0  0  0  0  0  0  0  0  0
   -3.9810   22.9860  -31.1210 C   0  0  0  0  0  0  0  0  0  0  0  0
   -5.5705   25.4862  -28.5652 H   0  0  0  0  0  0  0  0  0  0  0  0
   -7.0546   25.9762  -29.4507 H   0  0  0  0  0  0  0  0  0  0  0  0
   -6.5352   24.2566  -29.4507 H   0  0  0  0  0  0  0  0  0  0  0  0
   -5.7047   24.8854  -31.5143 H   0  0  0  0  0  0  0  0  0  0  0  0
   -5.4744   26.6034  -31.0085 H   0  0  0  0  0  0  0  0  0  0  0  0
   -1.6787   24.5907  -29.1659 H   0  0  0  0  0  0  0  0  0  0  0  0
   -0.6850   22.3066  -29.1613 H   0  0  0  0  0  0  0  0  0  0  0  0
   -1.0861   19.9159  -29.4657 H   0  0  0  0  0  0  0  0  0  0  0  0
   -2.4144   19.3237  -30.5278 H   0  0  0  0  0  0  0  0  0  0  0  0
    0.2572   18.4984  -32.7536 H   0  0  0  0  0  0  0  0  0  0  0  0
   -0.4070   17.9037  -31.1707 H   0  0  0  0  0  0  0  0  0  0  0  0
   -1.6064   17.4814  -33.6038 H   0  0  0  0  0  0  0  0  0  0  0  0
   -2.4692   17.5398  -32.0048 H   0  0  0  0  0  0  0  0  0  0  0  0
   -3.6233   19.4615  -35.0871 H   0  0  0  0  0  0  0  0  0  0  0  0
   -3.5028   17.7700  -34.4699 H   0  0  0  0  0  0  0  0  0  0  0  0
   -5.0647   21.0916  -33.5087 H   0  0  0  0  0  0  0  0  0  0  0  0
   -7.3892   21.2508  -32.6190 H   0  0  0  0  0  0  0  0  0  0  0  0
   -9.1141   19.2010  -31.0080 H   0  0  0  0  0  0  0  0  0  0  0  0
   -9.5684   20.1332  -32.4747 H   0  0  0  0  0  0  0  0  0  0  0  0
   -9.6941   18.3414  -32.4747 H   0  0  0  0  0  0  0  0  0  0  0  0
   -7.7427   16.9370  -32.7654 H   0  0  0  0  0  0  0  0  0  0  0  0
   -5.4200   16.7759  -33.6556 H   0  0  0  0  0  0  0  0  0  0  0  0
   -1.1945   19.8867  -34.5428 H   0  0  0  0  0  0  0  0  0  0  0  0
   -2.4697   21.1033  -34.1718 H   0  0  0  0  0  0  0  0  0  0  0  0
    0.0091   21.2135  -33.0845 H   0  0  0  0  0  0  0  0  0  0  0  0
   -1.4976   21.7504  -32.2043 H   0  0  0  0  0  0  0  0  0  0  0  0
   -3.9151   20.8917  -31.6741 H   0  0  0  0  0  0  0  0  0  0  0  0
   -4.9102   23.1751  -31.6785 H   0  0  0  0  0  0  0  0  0  0  0  0
  1  2  1  0
  2  3  1  0
  3  4  1  0
  4  5  2  0
  5  6  1  0
  6  7  2  0
  7  8  1  0
  8  9  1  0
  9 10  1  0
 10 11  1  0
 11 12  1  0
 12 13  1  0
 13 14  1  0
 14 15  2  0
 15 16  1  0
 16 17  2  0
 17 18  1  0
 17 19  1  0
 19 20  2  0
 12 21  1  0
 21 22  1  0
  7 23  1  0
 23 24  2  0
 24  4  1  0
 22  9  1  0
 20 14  1  0
  1 25  1  0
  1 26  1  0
  1 27  1  0
  2 28  1  0
  2 29  1  0
  5 30  1  0
  6 31  1  0
  8 32  1  0
  8 33  1  0
 10 34  1  0
 10 35  1  0
 11 36  1  0
 11 37  1  0
 13 38  1  0
 13 39  1  0
 15 40  1  0
 16 41  1  0
 18 42  1  0
 18 43  1  0
 18 44  1  0
 19 45  1  0
 20 46  1  0
 21 47  1  0
 21 48  1  0
 22 49  1  0
 22 50  1  0
 23 51  1  0
 24 52  1  0
M  END
>  <UniqueID>  (4) 
4

>  <SMILES>  (4) 
CCOc1ccc(CN2CCN(Cc3ccc(C)cc3)CC2)cc1

>  <Energy>  (4) 
60.43166999656372

>  <Genealogy>  (4) 
CCOc1ccc(CN2CCN(Cc3ccc(C)cc3)CC2)cc1 (3D coordinates assigned)
CCOc1ccc(CN2CCN(Cc3ccc(C)cc3)CC2)cc1 (nonaromatic ring conformer: 60.43166999656372 kcal/mol)

>  <smiles>  (4) 
CCOc1ccc(CN2CCN(Cc3ccc(C)cc3)CC2)cc1

>  <score_type>  (4) 
oracle

>  <origin>  (4) 
adg

>  <m_score__min__energy>  (4) 
-8.8499999999999996

>  <m_primary>  (4) 
energy

$$$$
4:0
     RDKit          3D

 79 82  0  0  0  0  0  0  0  0999 V2000
   -5.3690   26.0540  -30.5000 C   0  0  0  0  0  0  0  0  0  0  0  0
   -6.2390   25.3130  -29.4800 C   0  0  0  0  0  0  0  0  0  0  0  0
   -5.6560   23.9890  -29.1020 N   0  0  0  0  0  0  0  0  0  0  0  0
   -4.1930   24.0870  -28.8560 C   0  0  0  0  0  0  0  0  0  0  0  0
   -3.8480   24.1470  -27.3640 C   0  0  0  0  0  0  0  0  0  0  0  0
   -5.9060   22.9770  -30.1620 C   0  0  0  0  0  0  0  0  0  0  0  0
   -4.7810   22.9260  -31.2160 C   0  0  0  0  0  0  0  0  0  0  0  0
   -5.2810   22.4360  -32.5030 N   0  0  0  0  0  0  0  0  0  0  0  0
   -5.4550   21.0280  -32.7520 C   0  0  0  0  0  0  0  0  0  0  0  0
   -6.7310   20.4440  -32.6450 C   0  0  0  0  0  0  0  0  0  0  0  0
   -7.8650   21.2280  -32.3410 C   0  0  0  0  0  0  0  0  0  0  0  0
   -9.1130   20.6370  -32.1590 C   0  0  0  0  0  0  0  0  0  0  0  0
   -9.2510   19.2590  -32.2600 C   0  0  0  0  0  0  0  0  0  0  0  0
   -8.1510   18.4640  -32.5770 C   0  0  0  0  0  0  0  0  0  0  0  0
   -6.8750   19.0400  -32.8170 C   0  0  0  0  0  0  0  0  0  0  0  0
   -5.7880   18.2690  -33.1880 N   0  0  0  0  0  0  0  0  0  0  0  0
   -5.9900   16.8710  -33.6330 C   0  0  0  0  0  0  0  0  0  0  0  0
   -4.5180   18.8140  -33.1840 C   0  0  0  0  0  0  0  0  0  0  0  0
   -3.3600   18.0080  -33.3190 C   0  0  0  0  0  0  0  0  0  0  0  0
   -2.0890   18.5750  -33.4040 C   0  0  0  0  0  0  0  0  0  0  0  0
   -1.9310   19.9660  -33.3560 C   0  0  0  0  0  0  0  0  0  0  0  0
   -0.6790   20.5860  -33.4770 O   0  0  0  0  0  0  0  0  0  0  0  0
    0.2190   20.8200  -32.3950 C   0  0  0  0  0  0  0  0  0  0  0  0
   -0.4850   21.5970  -31.2590 C   0  0  0  0  0  0  0  0  0  0  0  0
   -0.8280   20.8200  -30.0140 N   0  0  2  0  0  0  0  0  0  0  0  0
   -0.3440   19.4200  -30.1960 C   0  0  0  0  0  0  0  0  0  0  0  0
   -2.3330   20.7960  -29.9090 C   0  0  0  0  0  0  0  0  0  0  0  0
   -2.9160   20.7860  -28.4750 C   0  0  0  0  0  0  0  0  0  0  0  0
   -2.0170   20.1000  -27.4590 C   0  0  0  0  0  0  0  0  0  0  0  0
   -0.5820   20.6460  -27.4790 C   0  0  0  0  0  0  0  0  0  0  0  0
   -0.1920   21.4120  -28.7790 C   0  0  2  0  0  0  0  0  0  0  0  0
   -0.4330   22.9360  -28.6210 C   0  0  0  0  0  0  0  0  0  0  0  0
   -3.0540   20.7720  -33.1740 C   0  0  0  0  0  0  0  0  0  0  0  0
   -4.3420   20.2130  -33.0300 C   0  0  0  0  0  0  0  0  0  0  0  0
   -4.6350   26.6792  -29.9704 H   0  0  0  0  0  0  0  0  0  0  0  0
   -4.8412   25.3237  -31.1310 H   0  0  0  0  0  0  0  0  0  0  0  0
   -6.0060   26.6912  -31.1310 H   0  0  0  0  0  0  0  0  0  0  0  0
   -6.3304   25.9319  -28.5752 H   0  0  0  0  0  0  0  0  0  0  0  0
   -7.2217   25.1322  -29.9399 H   0  0  0  0  0  0  0  0  0  0  0  0
   -6.0930   23.6370  -28.2170 H   0  0  0  0  0  0  0  0  0  0  0  0
   -3.7022   23.2062  -29.2958 H   0  0  0  0  0  0  0  0  0  0  0  0
   -3.8399   25.0212  -29.3170 H   0  0  0  0  0  0  0  0  0  0  0  0
   -4.7602   23.9884  -26.7701 H   0  0  0  0  0  0  0  0  0  0  0  0
   -3.1142   23.3630  -27.1255 H   0  0  0  0  0  0  0  0  0  0  0  0
   -3.4220   25.1327  -27.1255 H   0  0  0  0  0  0  0  0  0  0  0  0
   -5.9907   21.9870  -29.6900 H   0  0  0  0  0  0  0  0  0  0  0  0
   -6.8333   23.2622  -30.6805 H   0  0  0  0  0  0  0  0  0  0  0  0
   -4.3711   23.9377  -31.3522 H   0  0  0  0  0  0  0  0  0  0  0  0
   -4.0019   22.2359  -30.8600 H   0  0  0  0  0  0  0  0  0  0  0  0
   -5.7310   23.1190  -33.1520 H   0  0  0  0  0  0  0  0  0  0  0  0
   -7.7617   22.3191  -32.2467 H   0  0  0  0  0  0  0  0  0  0  0  0
   -9.9899   21.2623  -31.9351 H   0  0  0  0  0  0  0  0  0  0  0  0
  -10.2326   18.7929  -32.0891 H   0  0  0  0  0  0  0  0  0  0  0  0
   -8.2730   17.3727  -32.6424 H   0  0  0  0  0  0  0  0  0  0  0  0
   -6.0846   16.2165  -32.7540 H   0  0  0  0  0  0  0  0  0  0  0  0
   -6.9066   16.8075  -34.2378 H   0  0  0  0  0  0  0  0  0  0  0  0
   -5.1288   16.5506  -34.2378 H   0  0  0  0  0  0  0  0  0  0  0  0
   -3.4660   16.9138  -33.3575 H   0  0  0  0  0  0  0  0  0  0  0  0
   -1.2064   17.9270  -33.5092 H   0  0  0  0  0  0  0  0  0  0  0  0
    0.5747   19.8546  -32.0057 H   0  0  0  0  0  0  0  0  0  0  0  0
    1.0657   21.4191  -32.7613 H   0  0  0  0  0  0  0  0  0  0  0  0
    0.1762   22.4247  -30.9628 H   0  0  0  0  0  0  0  0  0  0  0  0
   -1.4528   21.9072  -31.6799 H   0  0  0  0  0  0  0  0  0  0  0  0
   -0.1838   18.9565  -29.2114 H   0  0  0  0  0  0  0  0  0  0  0  0
   -1.0946   18.8423  -30.7554 H   0  0  0  0  0  0  0  0  0  0  0  0
    0.6031   19.4293  -30.7554 H   0  0  0  0  0  0  0  0  0  0  0  0
   -2.7199   21.6884  -30.4228 H   0  0  0  0  0  0  0  0  0  0  0  0
   -2.6454   19.8432  -30.3614 H   0  0  0  0  0  0  0  0  0  0  0  0
   -3.0716   21.8269  -28.1553 H   0  0  0  0  0  0  0  0  0  0  0  0
   -3.8559   20.2157  -28.5121 H   0  0  0  0  0  0  0  0  0  0  0  0
   -2.4387   20.2534  -26.4547 H   0  0  0  0  0  0  0  0  0  0  0  0
   -1.9717   19.0325  -27.7203 H   0  0  0  0  0  0  0  0  0  0  0  0
   -0.4658   21.3340  -26.6286 H   0  0  0  0  0  0  0  0  0  0  0  0
    0.0828   19.7714  -27.4238 H   0  0  0  0  0  0  0  0  0  0  0  0
    0.8894   21.2825  -28.9335 H   0  0  0  0  0  0  0  0  0  0  0  0
   -0.4735   23.1919  -27.5520 H   0  0  0  0  0  0  0  0  0  0  0  0
    0.3889   23.4887  -29.0995 H   0  0  0  0  0  0  0  0  0  0  0  0
   -1.3853   23.2082  -29.0995 H   0  0  0  0  0  0  0  0  0  0  0  0
   -2.9339   21.8650  -33.1420 H   0  0  0  0  0  0  0  0  0  0  0  0
  1  2  1  0
  2  3  1  0
  3  4  1  0
  4  5  1  0
  3  6  1  0
  6  7  1  0
  7  8  1  0
  8  9  1  0
  9 10  2  0
 10 11  1  0
 11 12  2  0
 12 13  1  0
 13 14  2  0
 14 15  1  0
 15 16  2  0
 16 17  1  0
 16 18  1  0
 18 19  2  0
 19 20  1  0
 20 21  2  0
 21 22  1  0
 22 23  1  0
 23 24  1  0
 25 24  1  6
 25 26  1  0
 25 27  1  0
 27 28  1  0
 28 29  1  0
 29 30  1  0
 30 31  1  0
 31 32  1  0
 21 33  1  0
 33 34  2  0
 34  9  1  0
 15 10  1  0
 34 18  1  0
 31 25  1  0
  1 35  1  0
  1 36  1  0
  1 37  1  0
  2 38  1  0
  2 39  1  0
  3 40  1  0
  4 41  1  0
  4 42  1  0
  5 43  1  0
  5 44  1  0
  5 45  1  0
  6 46  1  0
  6 47  1  0
  7 48  1  0
  7 49  1  0
  8 50  1  0
 11 51  1  0
 12 52  1  0
 13 53  1  0
 14 54  1  0
 17 55  1  0
 17 56  1  0
 17 57  1  0
 19 58  1  0
 20 59  1  0
 23 60  1  0
 23 61  1  0
 24 62  1  0
 24 63  1  0
 26 64  1  0
 26 65  1  0
 26 66  1  0
 27 67  1  0
 27 68  1  0
 28 69  1  0
 28 70  1  0
 29 71  1  0
 29 72  1  0
 30 73  1  0
 30 74  1  0
 31 75  1  6
 32 76  1  0
 32 77  1  0
 32 78  1  0
 33 79  1  0
M  CHG  3   3   1  16   1  25   1
M  END
>  <UniqueID>  (5) 
5

>  <SMILES>  (5) 
CC[NH+](CC)CCNc1c2ccccc2[n+](C)c2ccc(OCC[N@+]3(C)CCCC[C@@H]3C)cc12

>  <Energy>  (5) 
132.0919730637456

>  <Genealogy>  (5) 
CC[NH+](CC)CCNc1c2ccccc2[n+](C)c2ccc(OCC[N+]3(C)CCCCC3C)cc12 (protonated)
CC[NH+](CC)CCNc1c2ccccc2[n+](C)c2ccc(OCC[N@+]3(C)CCCC[C@@H]3C)cc12 (chirality)
CC[NH+](CC)CCNc1c2ccccc2[n+](C)c2ccc(OCC[N@+]3(C)CCCC[C@@H]3C)cc12 (3D coordinates assigned)
CC[NH+](CC)CCNc1c2ccccc2[n+](C)c2ccc(OCC[N@+]3(C)CCCC[C@@H]3C)cc12 (nonaromatic ring conformer: 132.0919730637456 kcal/mol)

>  <smiles>  (5) 
CCN(CC)CCNc1c2ccccc2[n+](C)c2ccc(OCC[N+]3(C)CCCCC3C)cc12

>  <score_type>  (5) 
oracle

>  <origin>  (5) 
adg

>  <m_score__min__energy>  (5) 
-8.1099999999999994

>  <m_primary>  (5) 
energy

$$$$
5:0
     RDKit          3D

 56 58  0  0  0  0  0  0  0  0999 V2000
   -4.0310   24.1430  -28.4320 C   0  0  0  0  0  0  0  0  0  0  0  0
   -3.5190   23.8930  -29.8470 C   0  0  0  0  0  0  0  0  0  0  0  0
   -4.4540   24.4700  -30.8400 N   0  0  0  0  0  0  0  0  0  0  0  0
   -5.5050   25.2790  -30.1790 C   0  0  0  0  0  0  0  0  0  0  0  0
   -6.8510   24.5650  -30.2610 C   0  0  0  0  0  0  0  0  0  0  0  0
   -5.0460   23.4160  -31.6940 C   0  0  0  0  0  0  0  0  0  0  0  0
   -3.9520   22.4490  -32.1700 C   0  0  0  0  0  0  0  0  0  0  0  0
   -4.3450   21.7820  -33.4260 N   0  0  0  0  0  0  0  0  0  0  0  0
   -4.7320   20.3990  -33.1860 C   0  0  0  0  0  0  0  0  0  0  0  0
   -6.0500   20.0830  -32.7850 C   0  0  0  0  0  0  0  0  0  0  0  0
   -6.8500   21.0100  -32.0820 C   0  0  0  0  0  0  0  0  0  0  0  0
   -8.1420   20.6760  -31.6800 C   0  0  0  0  0  0  0  0  0  0  0  0
   -8.6540   19.4140  -31.9610 C   0  0  0  0  0  0  0  0  0  0  0  0
   -7.8850   18.4840  -32.6590 C   0  0  0  0  0  0  0  0  0  0  0  0
   -6.5780   18.8060  -33.1040 C   0  0  0  0  0  0  0  0  0  0  0  0
   -5.8250   17.9210  -33.8470 N   0  0  0  0  0  0  0  0  0  0  0  0
   -6.4800   16.7790  -34.5230 C   0  0  0  0  0  0  0  0  0  0  0  0
   -4.4570   18.0960  -33.9350 C   0  0  0  0  0  0  0  0  0  0  0  0
   -3.6130   17.0650  -34.4130 C   0  0  0  0  0  0  0  0  0  0  0  0
   -2.2280   17.2300  -34.4720 C   0  0  0  0  0  0  0  0  0  0  0  0
   -1.3560   16.1130  -34.9690 C   0  0  0  0  0  0  0  0  0  0  0  0
   -1.6500   18.3760  -33.9300 C   0  0  0  0  0  0  0  0  0  0  0  0
   -2.4440   19.3960  -33.3910 C   0  0  0  0  0  0  0  0  0  0  0  0
   -1.7300   20.4290  -32.5500 C   0  0  0  0  0  0  0  0  0  0  0  0
   -3.8660   19.3220  -33.5120 C   0  0  0  0  0  0  0  0  0  0  0  0
   -3.2896   23.7810  -27.7045 H   0  0  0  0  0  0  0  0  0  0  0  0
   -4.1922   25.2212  -28.2856 H   0  0  0  0  0  0  0  0  0  0  0  0
   -4.9804   23.6071  -28.2856 H   0  0  0  0  0  0  0  0  0  0  0  0
   -2.5307   24.3617  -29.9637 H   0  0  0  0  0  0  0  0  0  0  0  0
   -3.4431   22.8084  -30.0142 H   0  0  0  0  0  0  0  0  0  0  0  0
   -5.2372   25.4289  -29.1227 H   0  0  0  0  0  0  0  0  0  0  0  0
   -5.5831   26.2506  -30.6888 H   0  0  0  0  0  0  0  0  0  0  0  0
   -7.2237   24.3673  -29.2451 H   0  0  0  0  0  0  0  0  0  0  0  0
   -7.5707   25.1999  -30.7985 H   0  0  0  0  0  0  0  0  0  0  0  0
   -6.7290   23.6131  -30.7985 H   0  0  0  0  0  0  0  0  0  0  0  0
   -5.7982   22.8589  -31.1162 H   0  0  0  0  0  0  0  0  0  0  0  0
   -5.5194   23.8845  -32.5694 H   0  0  0  0  0  0  0  0  0  0  0  0
   -3.0222   23.0123  -32.3377 H   0  0  0  0  0  0  0  0  0  0  0  0
   -3.8033   21.6806  -31.3971 H   0  0  0  0  0  0  0  0  0  0  0  0
   -5.1440   22.3390  -33.7890 H   0  0  0  0  0  0  0  0  0  0  0  0
   -3.5740   21.8260  -34.1320 H   0  0  0  0  0  0  0  0  0  0  0  0
   -6.4489   22.0074  -31.8489 H   0  0  0  0  0  0  0  0  0  0  0  0
   -8.7570   21.4110  -31.1402 H   0  0  0  0  0  0  0  0  0  0  0  0
   -9.6693   19.1486  -31.6314 H   0  0  0  0  0  0  0  0  0  0  0  0
   -8.2982   17.4861  -32.8675 H   0  0  0  0  0  0  0  0  0  0  0  0
   -6.8780   16.0851  -33.7679 H   0  0  0  0  0  0  0  0  0  0  0  0
   -7.3035   17.1484  -35.1518 H   0  0  0  0  0  0  0  0  0  0  0  0
   -5.7453   16.2547  -35.1518 H   0  0  0  0  0  0  0  0  0  0  0  0
   -4.0573   16.1149  -34.7446 H   0  0  0  0  0  0  0  0  0  0  0  0
   -0.9319   15.5697  -34.1117 H   0  0  0  0  0  0  0  0  0  0  0  0
   -1.9567   15.4229  -35.5797 H   0  0  0  0  0  0  0  0  0  0  0  0
   -0.5407   16.5282  -35.5797 H   0  0  0  0  0  0  0  0  0  0  0  0
   -0.5550   18.4811  -33.9254 H   0  0  0  0  0  0  0  0  0  0  0  0
   -1.8849   20.2049  -31.4843 H   0  0  0  0  0  0  0  0  0  0  0  0
   -0.6539   20.4063  -32.7768 H   0  0  0  0  0  0  0  0  0  0  0  0
   -2.1315   21.4277  -32.7768 H   0  0  0  0  0  0  0  0  0  0  0  0
  1  2  1  0
  2  3  1  0
  3  4  1  0
  4  5  1  0
  3  6  1  0
  6  7  1  0
  7  8  1  0
  8  9  1  0
  9 10  2  0
 10 11  1  0
 11 12  2  0
 12 13  1  0
 13 14  2  0
 14 15  1  0
 15 16  2  0
 16 17  1  0
 16 18  1  0
 18 19  2  0
 19 20  1  0
 20 21  1  0
 20 22  2  0
 22 23  1  0
 23 24  1  0
 23 25  2  0
 25  9  1  0
 15 10  1  0
 25 18  1  0
  1 26  1  0
  1 27  1  0
  1 28  1  0
  2 29  1  0
  2 30  1  0
  4 31  1  0
  4 32  1  0
  5 33  1  0
  5 34  1  0
  5 35  1  0
  6 36  1  0
  6 37  1  0
  7 38  1  0
  7 39  1  0
  8 40  1  0
  8 41  1  0
 11 42  1  0
 12 43  1  0
 13 44  1  0
 14 45  1  0
 17 46  1  0
 17 47  1  0
 17 48  1  0
 19 49  1  0
 21 50  1  0
 21 51  1  0
 21 52  1  0
 22 53  1  0
 24 54  1  0
 24 55  1  0
 24 56  1  0
M  CHG  2   8   1  16   1
M  END
>  <UniqueID>  (6) 
6

>  <SMILES>  (6) 
CCN(CC)CC[NH2+]c1c2ccccc2[n+](C)c2cc(C)cc(C)c12

>  <Energy>  (6) 
95.18264245123667

>  <Genealogy>  (6) 
CCN(CC)CC[NH2+]c1c2ccccc2[n+](C)c2cc(C)cc(C)c12 (protonated)
CCN(CC)CC[NH2+]c1c2ccccc2[n+](C)c2cc(C)cc(C)c12 (3D coordinates assigned)
CCN(CC)CC[NH2+]c1c2ccccc2[n+](C)c2cc(C)cc(C)c12 (optimized conformer: 95.18264245123667 kcal/mol)

>  <smiles>  (6) 
CCN(CC)CCNc1c2ccccc2[n+](C)c2cc(C)cc(C)c12

>  <score_type>  (6) 
oracle

>  <origin>  (6) 
adg

>  <m_score__min__energy>  (6) 
-8.1400000000000006

>  <m_primary>  (6) 
energy

$$$$
6:0
     RDKit          3D

 52 53  0  0  0  0  0  0  0  0999 V2000
   -7.3690   18.5140  -32.3620 C   0  0  0  0  0  0  0  0  0  0  0  0
   -7.0730   19.8020  -33.1260 C   0  0  0  0  0  0  0  0  0  0  0  0
   -5.8140   19.6680  -33.9020 N   0  0  0  0  0  0  0  0  0  0  0  0
   -5.7300   18.3350  -34.5430 C   0  0  0  0  0  0  0  0  0  0  0  0
   -4.2810   17.8560  -34.5900 C   0  0  0  0  0  0  0  0  0  0  0  0
   -4.6360   19.9190  -33.0330 C   0  0  0  0  0  0  0  0  0  0  0  0
   -3.9950   21.3020  -33.2940 C   0  0  0  0  0  0  0  0  0  0  0  0
   -3.9900   22.1960  -32.1180 N   0  0  0  0  0  0  0  0  0  0  0  0
   -3.9380   21.4920  -30.8230 C   0  0  0  0  0  0  0  0  0  0  0  0
   -3.3320   22.3460  -29.7250 C   0  0  0  0  0  0  0  0  0  0  0  0
   -2.6830   21.7180  -28.6470 C   0  0  0  0  0  0  0  0  0  0  0  0
   -2.1220   22.4790  -27.6200 C   0  0  0  0  0  0  0  0  0  0  0  0
   -2.2120   23.8690  -27.6510 C   0  0  0  0  0  0  0  0  0  0  0  0
   -2.8470   24.5090  -28.7200 C   0  0  0  0  0  0  0  0  0  0  0  0
   -3.4050   23.7550  -29.7720 C   0  0  0  0  0  0  0  0  0  0  0  0
   -4.0240   24.3650  -30.8710 O   0  0  0  0  0  0  0  0  0  0  0  0
   -5.2930   25.0130  -30.8490 C   0  0  0  0  0  0  0  0  0  0  0  0
   -6.3630   23.9690  -30.9840 C   0  0  0  0  0  0  0  0  0  0  0  0
   -7.0160   23.7670  -32.2140 C   0  0  0  0  0  0  0  0  0  0  0  0
   -8.0430   22.8230  -32.3180 C   0  0  0  0  0  0  0  0  0  0  0  0
   -8.4330   22.0860  -31.1940 C   0  0  0  0  0  0  0  0  0  0  0  0
   -9.4470   21.1860  -31.2870 F   0  0  0  0  0  0  0  0  0  0  0  0
   -7.8040   22.2980  -29.9620 C   0  0  0  0  0  0  0  0  0  0  0  0
   -6.7770   23.2370  -29.8520 C   0  0  0  0  0  0  0  0  0  0  0  0
   -7.3238   18.7105  -31.2806 H   0  0  0  0  0  0  0  0  0  0  0  0
   -8.3736   18.1529  -32.6274 H   0  0  0  0  0  0  0  0  0  0  0  0
   -6.6229   17.7505  -32.6274 H   0  0  0  0  0  0  0  0  0  0  0  0
   -7.9032   20.0125  -33.8163 H   0  0  0  0  0  0  0  0  0  0  0  0
   -6.9612   20.6257  -32.4055 H   0  0  0  0  0  0  0  0  0  0  0  0
   -6.3304   17.6168  -33.9653 H   0  0  0  0  0  0  0  0  0  0  0  0
   -6.1143   18.4091  -35.5710 H   0  0  0  0  0  0  0  0  0  0  0  0
   -3.9027   17.7310  -33.5647 H   0  0  0  0  0  0  0  0  0  0  0  0
   -4.2301   16.8932  -35.1196 H   0  0  0  0  0  0  0  0  0  0  0  0
   -3.6663   18.5987  -35.1196 H   0  0  0  0  0  0  0  0  0  0  0  0
   -4.9559   19.8706  -31.9816 H   0  0  0  0  0  0  0  0  0  0  0  0
   -3.8817   19.1514  -33.2605 H   0  0  0  0  0  0  0  0  0  0  0  0
   -2.9541   21.1456  -33.6134 H   0  0  0  0  0  0  0  0  0  0  0  0
   -4.6063   21.7947  -34.0644 H   0  0  0  0  0  0  0  0  0  0  0  0
   -3.1600   22.8310  -32.1900 H   0  0  0  0  0  0  0  0  0  0  0  0
   -4.8370   22.8080  -32.1380 H   0  0  0  0  0  0  0  0  0  0  0  0
   -4.9614   21.2142  -30.5305 H   0  0  0  0  0  0  0  0  0  0  0  0
   -3.3002   20.6047  -30.9487 H   0  0  0  0  0  0  0  0  0  0  0  0
   -2.6170   20.6205  -28.6129 H   0  0  0  0  0  0  0  0  0  0  0  0
   -1.6081   21.9805  -26.7849 H   0  0  0  0  0  0  0  0  0  0  0  0
   -1.7823   24.4648  -26.8322 H   0  0  0  0  0  0  0  0  0  0  0  0
   -2.9114   25.6069  -28.7400 H   0  0  0  0  0  0  0  0  0  0  0  0
   -5.4181   25.5518  -29.8982 H   0  0  0  0  0  0  0  0  0  0  0  0
   -5.3627   25.7336  -31.6772 H   0  0  0  0  0  0  0  0  0  0  0  0
   -6.7181   24.3529  -33.0960 H   0  0  0  0  0  0  0  0  0  0  0  0
   -8.5442   22.6599  -33.2835 H   0  0  0  0  0  0  0  0  0  0  0  0
   -8.1195   21.7236  -29.0786 H   0  0  0  0  0  0  0  0  0  0  0  0
   -6.2897   23.4063  -28.8805 H   0  0  0  0  0  0  0  0  0  0  0  0
  1  2  1  0
  2  3  1  0
  3  4  1  0
  4  5  1  0
  3  6  1  0
  6  7  1  0
  7  8  1  0
  8  9  1  0
  9 10  1  0
 10 11  2  0
 11 12  1  0
 12 13  2  0
 13 14  1  0
 14 15  2  0
 15 16  1  0
 16 17  1  0
 17 18  1  0
 18 19  2  0
 19 20  1  0
 20 21  2  0
 21 22  1  0
 21 23  1  0
 23 24  2  0
 15 10  1  0
 24 18  1  0
  1 25  1  0
  1 26  1  0
  1 27  1  0
  2 28  1  0
  2 29  1  0
  4 30  1  0
  4 31  1  0
  5 32  1  0
  5 33  1  0
  5 34  1  0
  6 35  1  0
  6 36  1  0
  7 37  1  0
  7 38  1  0
  8 39  1  0
  8 40  1  0
  9 41  1  0
  9 42  1  0
 11 43  1  0
 12 44  1  0
 13 45  1  0
 14 46  1  0
 17 47  1  0
 17 48  1  0
 19 49  1  0
 20 50  1  0
 23 51  1  0
 24 52  1  0
M  CHG  1   8   1
M  END
>  <UniqueID>  (7) 
7

>  <SMILES>  (7) 
CCN(CC)CC[NH2+]Cc1ccccc1OCc1ccc(F)cc1

>  <Energy>  (7) 
46.45576116631145

>  <Genealogy>  (7) 
CCN(CC)CC[NH2+]Cc1ccccc1OCc1ccc(F)cc1 (protonated)
CCN(CC)CC[NH2+]Cc1ccccc1OCc1ccc(F)cc1 (3D coordinates assigned)
CCN(CC)CC[NH2+]Cc1ccccc1OCc1ccc(F)cc1 (optimized conformer: 46.45576116631145 kcal/mol)

>  <smiles>  (7) 
CCN(CC)CCNCc1ccccc1OCc1ccc(F)cc1

>  <score_type>  (7) 
oracle

>  <origin>  (7) 
adg

>  <m_score__min__energy>  (7) 
-6.9299999999999997

>  <m_primary>  (7) 
energy

$$$$
7:0
     RDKit          3D

 61 64  0  0  0  0  0  0  0  0999 V2000
   -6.2600   25.6300  -29.4690 C   0  0  0  0  0  0  0  0  0  0  0  0
   -5.3530   25.4710  -30.6980 C   0  0  0  0  0  0  0  0  0  0  0  0
   -5.5180   24.1850  -31.4130 N   0  0  0  0  0  0  0  0  0  0  0  0
   -6.9260   23.7970  -31.5960 C   0  0  0  0  0  0  0  0  0  0  0  0
   -4.7050   23.0870  -30.8450 C   0  0  0  0  0  0  0  0  0  0  0  0
   -3.9590   22.3350  -31.9600 C   0  0  0  0  0  0  0  0  0  0  0  0
   -4.8530   22.0170  -33.0870 N   0  0  0  0  0  0  0  0  0  0  0  0
   -5.1090   20.5870  -33.1610 C   0  0  0  0  0  0  0  0  0  0  0  0
   -6.3640   20.0530  -32.7690 C   0  0  0  0  0  0  0  0  0  0  0  0
   -7.3390   20.8440  -32.1110 C   0  0  0  0  0  0  0  0  0  0  0  0
   -8.5630   20.3030  -31.7280 C   0  0  0  0  0  0  0  0  0  0  0  0
   -8.8410   18.9660  -31.9700 C   0  0  0  0  0  0  0  0  0  0  0  0
   -7.8980   18.1590  -32.6040 C   0  0  0  0  0  0  0  0  0  0  0  0
   -6.6540   18.6860  -33.0370 C   0  0  0  0  0  0  0  0  0  0  0  0
   -5.7320   17.8970  -33.6920 N   0  0  0  0  0  0  0  0  0  0  0  0
   -6.1510   16.6030  -34.2720 C   0  0  0  0  0  0  0  0  0  0  0  0
   -4.4280   18.3260  -33.8260 C   0  0  0  0  0  0  0  0  0  0  0  0
   -3.3920   17.4260  -34.1760 C   0  0  0  0  0  0  0  0  0  0  0  0
   -2.0780   17.8630  -34.3730 C   0  0  0  0  0  0  0  0  0  0  0  0
   -1.0830   16.9500  -34.7460 C   0  0  0  0  0  0  0  0  0  0  0  0
    0.2260   17.3780  -34.9480 C   0  0  0  0  0  0  0  0  0  0  0  0
    0.5730   18.7320  -34.7860 C   0  0  0  0  0  0  0  0  0  0  0  0
    1.8990   19.1610  -34.9520 O   0  0  0  0  0  0  0  0  0  0  0  0
    2.7330   19.6490  -33.9080 C   0  0  0  0  0  0  0  0  0  0  0  0
   -0.4300   19.6690  -34.4280 C   0  0  0  0  0  0  0  0  0  0  0  0
   -0.1610   21.0450  -34.2900 O   0  0  0  0  0  0  0  0  0  0  0  0
    0.2670   21.9120  -35.3400 C   0  0  0  0  0  0  0  0  0  0  0  0
   -1.7540   19.2210  -34.1990 C   0  0  0  0  0  0  0  0  0  0  0  0
   -2.7620   20.1150  -33.8040 C   0  0  0  0  0  0  0  0  0  0  0  0
   -4.0970   19.6880  -33.5980 C   0  0  0  0  0  0  0  0  0  0  0  0
   -5.6591   25.5247  -28.5537 H   0  0  0  0  0  0  0  0  0  0  0  0
   -6.7302   26.6243  -29.4865 H   0  0  0  0  0  0  0  0  0  0  0  0
   -7.0404   24.8550  -29.4865 H   0  0  0  0  0  0  0  0  0  0  0  0
   -5.5778   26.2873  -31.4003 H   0  0  0  0  0  0  0  0  0  0  0  0
   -4.3164   25.4973  -30.3308 H   0  0  0  0  0  0  0  0  0  0  0  0
   -7.4011   23.6661  -30.6125 H   0  0  0  0  0  0  0  0  0  0  0  0
   -7.4532   24.5833  -32.1561 H   0  0  0  0  0  0  0  0  0  0  0  0
   -6.9760   22.8516  -32.1561 H   0  0  0  0  0  0  0  0  0  0  0  0
   -3.9730   23.5066  -30.1393 H   0  0  0  0  0  0  0  0  0  0  0  0
   -5.3721   22.3827  -30.3264 H   0  0  0  0  0  0  0  0  0  0  0  0
   -3.1333   22.9636  -32.3248 H   0  0  0  0  0  0  0  0  0  0  0  0
   -3.5774   21.3907  -31.5445 H   0  0  0  0  0  0  0  0  0  0  0  0
   -4.4560   22.3550  -33.9890 H   0  0  0  0  0  0  0  0  0  0  0  0
   -5.7450   22.5510  -33.0030 H   0  0  0  0  0  0  0  0  0  0  0  0
   -7.1250   21.9021  -31.8997 H   0  0  0  0  0  0  0  0  0  0  0  0
   -9.3120   20.9378  -31.2319 H   0  0  0  0  0  0  0  0  0  0  0  0
   -9.8077   18.5417  -31.6609 H   0  0  0  0  0  0  0  0  0  0  0  0
   -8.1221   17.0952  -32.7715 H   0  0  0  0  0  0  0  0  0  0  0  0
   -6.3802   15.8951  -33.4618 H   0  0  0  0  0  0  0  0  0  0  0  0
   -7.0467   16.7523  -34.8928 H   0  0  0  0  0  0  0  0  0  0  0  0
   -5.3378   16.1989  -34.8928 H   0  0  0  0  0  0  0  0  0  0  0  0
   -3.6263   16.3579  -34.2958 H   0  0  0  0  0  0  0  0  0  0  0  0
   -1.3378   15.8883  -34.8801 H   0  0  0  0  0  0  0  0  0  0  0  0
    0.9978   16.6496  -35.2375 H   0  0  0  0  0  0  0  0  0  0  0  0
    2.2910   19.3904  -32.9345 H   0  0  0  0  0  0  0  0  0  0  0  0
    3.7300   19.1918  -33.9911 H   0  0  0  0  0  0  0  0  0  0  0  0
    2.8228   20.7422  -33.9911 H   0  0  0  0  0  0  0  0  0  0  0  0
    0.7147   22.8188  -34.9072 H   0  0  0  0  0  0  0  0  0  0  0  0
    1.0135   21.3951  -35.9610 H   0  0  0  0  0  0  0  0  0  0  0  0
   -0.5973   22.1902  -35.9610 H   0  0  0  0  0  0  0  0  0  0  0  0
   -2.5086   21.1744  -33.6505 H   0  0  0  0  0  0  0  0  0  0  0  0
  1  2  1  0
  2  3  1  0
  3  4  1  0
  3  5  1  0
  5  6  1  0
  6  7  1  0
  7  8  1  0
  8  9  2  0
  9 10  1  0
 10 11  2  0
 11 12  1  0
 12 13  2  0
 13 14  1  0
 14 15  2  0
 15 16  1  0
 15 17  1  0
 17 18  2  0
 18 19  1  0
 19 20  2  0
 20 21  1  0
 21 22  2  0
 22 23  1  0
 23 24  1  0
 22 25  1  0
 25 26  1  0
 26 27  1  0
 25 28  2  0
 28 29  1  0
 29 30  2  0
 30  8  1  0
 14  9  1  0
 30 17  1  0
 28 19  1  0
  1 31  1  0
  1 32  1  0
  1 33  1  0
  2 34  1  0
  2 35  1  0
  4 36  1  0
  4 37  1  0
  4 38  1  0
  5 39  1  0
  5 40  1  0
  6 41  1  0
  6 42  1  0
  7 43  1  0
  7 44  1  0
 10 45  1  0
 11 46  1  0
 12 47  1  0
 13 48  1  0
 16 49  1  0
 16 50  1  0
 16 51  1  0
 18 52  1  0
 20 53  1  0
 21 54  1  0
 24 55  1  0
 24 56  1  0
 24 57  1  0
 27 58  1  0
 27 59  1  0
 27 60  1  0
 29 61  1  0
M  CHG  2   7   1  15   1
M  END
>  <UniqueID>  (8) 
8

>  <SMILES>  (8) 
CCN(C)CC[NH2+]c1c2ccccc2[n+](C)c2cc3ccc(OC)c(OC)c3cc12

>  <Energy>  (8) 
99.3771385294275

>  <Genealogy>  (8) 
CCN(C)CC[NH2+]c1c2ccccc2[n+](C)c2cc3ccc(OC)c(OC)c3cc12 (protonated)
CCN(C)CC[NH2+]c1c2ccccc2[n+](C)c2cc3ccc(OC)c(OC)c3cc12 (3D coordinates assigned)
CCN(C)CC[NH2+]c1c2ccccc2[n+](C)c2cc3ccc(OC)c(OC)c3cc12 (optimized conformer: 99.3771385294275 kcal/mol)

>  <smiles>  (8) 
CCN(C)CCNc1c2ccccc2[n+](C)c2cc3ccc(OC)c(OC)c3cc12

>  <score_type>  (8) 
oracle

>  <origin>  (8) 
adg

>  <m_score__min__energy>  (8) 
-8.5299999999999994

>  <m_primary>  (8) 
energy

$$$$
8:0
     RDKit          3D

 64 65  0  0  0  0  0  0  0  0999 V2000
   -6.0260   15.8920  -33.9690 C   0  0  0  0  0  0  0  0  0  0  0  0
   -5.8730   17.2970  -34.5910 C   0  0  0  0  0  0  0  0  0  0  0  0
   -5.6180   18.4450  -33.6410 N   0  0  0  0  0  0  0  0  0  0  0  0
   -6.4930   19.6190  -33.9380 C   0  0  0  0  0  0  0  0  0  0  0  0
   -5.7780   18.0350  -32.2070 C   0  0  0  0  0  0  0  0  0  0  0  0
   -7.2240   18.0220  -31.6760 C   0  0  0  0  0  0  0  0  0  0  0  0
   -4.2120   18.9500  -33.8220 C   0  0  0  0  0  0  0  0  0  0  0  0
   -3.0970   18.1330  -33.1060 C   0  0  0  0  0  0  0  0  0  0  0  0
   -1.6510   18.3090  -33.6540 C   0  0  0  0  0  0  0  0  0  0  0  0
   -0.8710   19.5320  -33.2410 N   0  0  0  0  0  0  0  0  0  0  0  0
    0.5490   19.1730  -32.9680 C   0  0  0  0  0  0  0  0  0  0  0  0
   -0.8530   20.4760  -34.3920 C   0  0  0  0  0  0  0  0  0  0  0  0
   -1.4020   20.2290  -32.0260 C   0  0  0  0  0  0  0  0  0  0  0  0
   -1.7160   21.7360  -32.2130 C   0  0  0  0  0  0  0  0  0  0  0  0
   -2.0870   22.4240  -30.8830 C   0  0  0  0  0  0  0  0  0  0  0  0
   -3.5410   22.4880  -30.6830 N   0  0  0  0  0  0  0  0  0  0  0  0
   -4.3450   23.6620  -30.8020 C   0  0  0  0  0  0  0  0  0  0  0  0
   -3.8930   24.8390  -30.7640 O   0  0  0  0  0  0  0  0  0  0  0  0
   -5.7410   23.3000  -31.0020 C   0  0  0  0  0  0  0  0  0  0  0  0
   -6.8270   24.0870  -31.3600 C   0  0  0  0  0  0  0  0  0  0  0  0
   -8.0440   23.4440  -31.6630 C   0  0  0  0  0  0  0  0  0  0  0  0
   -8.1430   22.0350  -31.6210 C   0  0  0  0  0  0  0  0  0  0  0  0
   -9.4290   21.3440  -31.9690 C   0  0  0  0  0  0  0  0  0  0  0  0
   -7.0060   21.2630  -31.3030 C   0  0  0  0  0  0  0  0  0  0  0  0
   -5.8220   21.9250  -30.9950 C   0  0  0  0  0  0  0  0  0  0  0  0
   -4.4730   21.4060  -30.7940 C   0  0  0  0  0  0  0  0  0  0  0  0
   -4.1470   20.1880  -30.7920 O   0  0  0  0  0  0  0  0  0  0  0  0
   -6.0171   15.9737  -32.8721 H   0  0  0  0  0  0  0  0  0  0  0  0
   -6.9778   15.4479  -34.2959 H   0  0  0  0  0  0  0  0  0  0  0  0
   -5.1921   15.2535  -34.2959 H   0  0  0  0  0  0  0  0  0  0  0  0
   -5.0303   17.2572  -35.2969 H   0  0  0  0  0  0  0  0  0  0  0  0
   -6.8502   17.5153  -35.0464 H   0  0  0  0  0  0  0  0  0  0  0  0
   -6.8309   20.0724  -32.9945 H   0  0  0  0  0  0  0  0  0  0  0  0
   -5.9260   20.3612  -34.5191 H   0  0  0  0  0  0  0  0  0  0  0  0
   -7.3663   19.2877  -34.5191 H   0  0  0  0  0  0  0  0  0  0  0  0
   -5.3680   17.0201  -32.0974 H   0  0  0  0  0  0  0  0  0  0  0  0
   -5.2470   18.7954  -31.6155 H   0  0  0  0  0  0  0  0  0  0  0  0
   -7.2107   18.0221  -30.5761 H   0  0  0  0  0  0  0  0  0  0  0  0
   -7.7550   18.9154  -32.0364 H   0  0  0  0  0  0  0  0  0  0  0  0
   -7.7388   17.1192  -32.0364 H   0  0  0  0  0  0  0  0  0  0  0  0
   -3.9903   18.9500  -34.8994 H   0  0  0  0  0  0  0  0  0  0  0  0
   -4.1929   19.9477  -33.3591 H   0  0  0  0  0  0  0  0  0  0  0  0
   -3.0921   18.4300  -32.0469 H   0  0  0  0  0  0  0  0  0  0  0  0
   -3.3498   17.0769  -33.2814 H   0  0  0  0  0  0  0  0  0  0  0  0
   -1.0723   17.4304  -33.3326 H   0  0  0  0  0  0  0  0  0  0  0  0
   -1.7859   18.4282  -34.7392 H   0  0  0  0  0  0  0  0  0  0  0  0
    0.7142   19.1312  -31.8813 H   0  0  0  0  0  0  0  0  0  0  0  0
    0.7704   18.1906  -33.4106 H   0  0  0  0  0  0  0  0  0  0  0  0
    1.2107   19.9321  -33.4106 H   0  0  0  0  0  0  0  0  0  0  0  0
   -0.8333   21.5102  -34.0177 H   0  0  0  0  0  0  0  0  0  0  0  0
    0.0418   20.2905  -35.0044 H   0  0  0  0  0  0  0  0  0  0  0  0
   -1.7542   20.3248  -35.0044 H   0  0  0  0  0  0  0  0  0  0  0  0
   -2.3304   19.7232  -31.7222 H   0  0  0  0  0  0  0  0  0  0  0  0
   -0.6043   20.1751  -31.2705 H   0  0  0  0  0  0  0  0  0  0  0  0
   -0.8293   22.2330  -32.6335 H   0  0  0  0  0  0  0  0  0  0  0  0
   -2.5801   21.8193  -32.8885 H   0  0  0  0  0  0  0  0  0  0  0  0
   -1.6390   21.8576  -30.0532 H   0  0  0  0  0  0  0  0  0  0  0  0
   -1.7029   23.4543  -30.9149 H   0  0  0  0  0  0  0  0  0  0  0  0
   -6.7401   25.1826  -31.4059 H   0  0  0  0  0  0  0  0  0  0  0  0
   -8.9248   24.0444  -31.9346 H   0  0  0  0  0  0  0  0  0  0  0  0
   -9.9550   21.0614  -31.0452 H   0  0  0  0  0  0  0  0  0  0  0  0
  -10.0624   22.0233  -32.5584 H   0  0  0  0  0  0  0  0  0  0  0  0
   -9.2122   20.4409  -32.5584 H   0  0  0  0  0  0  0  0  0  0  0  0
   -7.0545   20.1641  -31.2987 H   0  0  0  0  0  0  0  0  0  0  0  0
  1  2  1  0
  2  3  1  0
  3  4  1  0
  3  5  1  0
  5  6  1  0
  3  7  1  0
  7  8  1  0
  8  9  1  0
  9 10  1  0
 10 11  1  0
 10 12  1  0
 10 13  1  0
 13 14  1  0
 14 15  1  0
 15 16  1  0
 16 17  1  0
 17 18  2  0
 17 19  1  0
 19 20  2  0
 20 21  1  0
 21 22  2  0
 22 23  1  0
 22 24  1  0
 24 25  2  0
 25 26  1  0
 26 27  2  0
 26 16  1  0
 25 19  1  0
  1 28  1  0
  1 29  1  0
  1 30  1  0
  2 31  1  0
  2 32  1  0
  4 33  1  0
  4 34  1  0
  4 35  1  0
  5 36  1  0
  5 37  1  0
  6 38  1  0
  6 39  1  0
  6 40  1  0
  7 41  1  0
  7 42  1  0
  8 43  1  0
  8 44  1  0
  9 45  1  0
  9 46  1  0
 11 47  1  0
 11 48  1  0
 11 49  1  0
 12 50  1  0
 12 51  1  0
 12 52  1  0
 13 53  1  0
 13 54  1  0
 14 55  1  0
 14 56  1  0
 15 57  1  0
 15 58  1  0
 20 59  1  0
 21 60  1  0
 23 61  1  0
 23 62  1  0
 23 63  1  0
 24 64  1  0
M  CHG  2   3   1  10   1
M  END
>  <UniqueID>  (9) 
9

>  <SMILES>  (9) 
CC[N+](C)(CC)CCC[N+](C)(C)CCCN1C(=O)c2ccc(C)cc2C1=O

>  <Energy>  (9) 
121.60612444462149

>  <Genealogy>  (9) 
CC[N+](C)(CC)CCC[N+](C)(C)CCCN1C(=O)c2ccc(C)cc2C1=O (3D coordinates assigned)
CC[N+](C)(CC)CCC[N+](C)(C)CCCN1C(=O)c2ccc(C)cc2C1=O (nonaromatic ring conformer: 121.60612444462149 kcal/mol)

>  <smiles>  (9) 
CC[N+](C)(CC)CCC[N+](C)(C)CCCN1C(=O)c2ccc(C)cc2C1=O

>  <score_type>  (9) 
oracle

>  <origin>  (9) 
adg

>  <m_score__min__energy>  (9) 
-6.3799999999999999

>  <m_primary>  (9) 
energy

$$$$
9:0
     RDKit          3D

 49 51  0  0  0  0  0  0  0  0999 V2000
   -3.5780   23.5840  -28.2220 C   0  0  0  0  0  0  0  0  0  0  0  0
   -3.1130   24.5400  -29.3180 C   0  0  0  0  0  0  0  0  0  0  0  0
   -3.9800   24.4130  -30.5110 N   0  0  0  0  0  0  0  0  0  0  0  0
   -5.0570   25.4310  -30.5030 C   0  0  0  0  0  0  0  0  0  0  0  0
   -6.2770   24.9030  -29.7560 C   0  0  0  0  0  0  0  0  0  0  0  0
   -4.5410   23.0460  -30.6220 C   0  0  0  0  0  0  0  0  0  0  0  0
   -3.7340   22.2290  -31.6350 C   0  0  0  0  0  0  0  0  0  0  0  0
   -4.5360   21.9340  -32.8220 N   0  0  0  0  0  0  0  0  0  0  0  0
   -5.6330   21.0190  -32.7380 C   0  0  0  0  0  0  0  0  0  0  0  0
   -6.9100   21.5200  -32.4270 C   0  0  0  0  0  0  0  0  0  0  0  0
   -7.1380   22.9110  -32.3420 C   0  0  0  0  0  0  0  0  0  0  0  0
   -8.4110   23.4080  -32.0770 C   0  0  0  0  0  0  0  0  0  0  0  0
   -9.4780   22.5340  -31.9050 C   0  0  0  0  0  0  0  0  0  0  0  0
   -9.2720   21.1570  -31.9700 C   0  0  0  0  0  0  0  0  0  0  0  0
   -7.9780   20.6200  -32.1970 C   0  0  0  0  0  0  0  0  0  0  0  0
   -7.7470   19.2600  -32.2050 N   0  0  0  0  0  0  0  0  0  0  0  0
   -8.7630   18.3390  -31.6470 C   0  0  0  0  0  0  0  0  0  0  0  0
   -6.5600   18.7610  -32.7110 C   0  0  0  0  0  0  0  0  0  0  0  0
   -6.4170   17.3810  -33.0000 C   0  0  0  0  0  0  0  0  0  0  0  0
   -5.2180   16.8610  -33.4660 C   0  0  0  0  0  0  0  0  0  0  0  0
   -4.1350   17.6970  -33.6860 C   0  0  0  0  0  0  0  0  0  0  0  0
   -4.2360   19.0720  -33.4630 C   0  0  0  0  0  0  0  0  0  0  0  0
   -2.8000   19.9960  -33.9050 Cl  0  0  0  0  0  0  0  0  0  0  0  0
   -5.4570   19.6320  -32.9710 C   0  0  0  0  0  0  0  0  0  0  0  0
   -3.3640   24.0239  -27.2367 H   0  0  0  0  0  0  0  0  0  0  0  0
   -4.6601   23.4126  -28.3198 H   0  0  0  0  0  0  0  0  0  0  0  0
   -3.0448   22.6269  -28.3198 H   0  0  0  0  0  0  0  0  0  0  0  0
   -3.1606   25.5730  -28.9429 H   0  0  0  0  0  0  0  0  0  0  0  0
   -2.0794   24.2885  -29.5979 H   0  0  0  0  0  0  0  0  0  0  0  0
   -4.6923   26.3415  -30.0050 H   0  0  0  0  0  0  0  0  0  0  0  0
   -5.3428   25.6584  -31.5406 H   0  0  0  0  0  0  0  0  0  0  0  0
   -6.1041   24.9778  -28.6723 H   0  0  0  0  0  0  0  0  0  0  0  0
   -7.1602   25.4994  -30.0284 H   0  0  0  0  0  0  0  0  0  0  0  0
   -6.4468   23.8509  -30.0284 H   0  0  0  0  0  0  0  0  0  0  0  0
   -4.4973   22.5535  -29.6394 H   0  0  0  0  0  0  0  0  0  0  0  0
   -5.5855   23.1109  -30.9608 H   0  0  0  0  0  0  0  0  0  0  0  0
   -2.8446   22.8029  -31.9343 H   0  0  0  0  0  0  0  0  0  0  0  0
   -3.4372   21.2796  -31.1654 H   0  0  0  0  0  0  0  0  0  0  0  0
   -4.4060   22.4760  -33.7070 H   0  0  0  0  0  0  0  0  0  0  0  0
   -6.3006   23.6094  -32.4868 H   0  0  0  0  0  0  0  0  0  0  0  0
   -8.5727   24.4936  -32.0036 H   0  0  0  0  0  0  0  0  0  0  0  0
  -10.4870   22.9298  -31.7172 H   0  0  0  0  0  0  0  0  0  0  0  0
  -10.1261   20.4755  -31.8433 H   0  0  0  0  0  0  0  0  0  0  0  0
   -8.7250   18.3734  -30.5482 H   0  0  0  0  0  0  0  0  0  0  0  0
   -9.7626   18.6451  -31.9891 H   0  0  0  0  0  0  0  0  0  0  0  0
   -8.5562   17.3142  -31.9891 H   0  0  0  0  0  0  0  0  0  0  0  0
   -7.2744   16.7081  -32.8518 H   0  0  0  0  0  0  0  0  0  0  0  0
   -5.1269   15.7823  -33.6613 H   0  0  0  0  0  0  0  0  0  0  0  0
   -3.1842   17.2725  -34.0406 H   0  0  0  0  0  0  0  0  0  0  0  0
  1  2  1  0
  2  3  1  0
  3  4  1  0
  4  5  1  0
  3  6  1  0
  6  7  1  0
  7  8  1  0
  8  9  1  0
  9 10  2  0
 10 11  1  0
 11 12  2  0
 12 13  1  0
 13 14  2  0
 14 15  1  0
 15 16  2  0
 16 17  1  0
 16 18  1  0
 18 19  2  0
 19 20  1  0
 20 21  2  0
 21 22  1  0
 22 23  1  0
 22 24  2  0
 24  9  1  0
 15 10  1  0
 24 18  1  0
  1 25  1  0
  1 26  1  0
  1 27  1  0
  2 28  1  0
  2 29  1  0
  4 30  1  0
  4 31  1  0
  5 32  1  0
  5 33  1  0
  5 34  1  0
  6 35  1  0
  6 36  1  0
  7 37  1  0
  7 38  1  0
  8 39  1  0
 11 40  1  0
 12 41  1  0
 13 42  1  0
 14 43  1  0
 17 44  1  0
 17 45  1  0
 17 46  1  0
 19 47  1  0
 20 48  1  0
 21 49  1  0
M  CHG  1  16   1
M  END
>  <UniqueID>  (10) 
10

>  <SMILES>  (10) 
CCN(CC)CCNc1c2ccccc2[n+](C)c2cccc(Cl)c12

>  <Energy>  (10) 
80.2436670715429

>  <Genealogy>  (10) 
CCN(CC)CCNc1c2ccccc2[n+](C)c2cccc(Cl)c12 (3D coordinates assigned)
CCN(CC)CCNc1c2ccccc2[n+](C)c2cccc(Cl)c12 (optimized conformer: 80.2436670715429 kcal/mol)

>  <smiles>  (10) 
CCN(CC)CCNc1c2ccccc2[n+](C)c2cccc(Cl)c12

>  <score_type>  (10) 
oracle

>  <origin>  (10) 
adg

>  <m_score__min__energy>  (10) 
-8.9000000000000004

>  <m_primary>  (10) 
energy

$$$$
10:0
     RDKit          3D

 44 45  0  0  0  0  0  0  0  0999 V2000
   -0.4780   22.6220  -23.7170 C   0  0  0  0  0  0  0  0  0  0  0  0
    1.0080   22.7020  -24.0510 C   0  0  0  0  0  0  0  0  0  0  0  0
    1.3150   23.9370  -24.6960 O   0  0  0  0  0  0  0  0  0  0  0  0
    0.4880   25.0750  -24.7380 C   0  0  0  0  0  0  0  0  0  0  0  0
    0.3910   25.9190  -23.6630 N   0  0  0  0  0  0  0  0  0  0  0  0
   -0.4000   27.0240  -23.6870 C   0  0  0  0  0  0  0  0  0  0  0  0
   -1.1440   27.3300  -24.8220 C   0  0  0  0  0  0  0  0  0  0  0  0
   -1.0730   26.4920  -25.9310 C   0  0  0  0  0  0  0  0  0  0  0  0
   -0.2570   25.3490  -25.9100 C   0  0  0  0  0  0  0  0  0  0  0  0
   -0.1860   24.4760  -27.1110 C   0  0  0  0  0  0  0  0  0  0  0  0
    0.7930   24.5720  -27.9020 O   0  0  0  0  0  0  0  0  0  0  0  0
   -1.1950   23.5380  -27.3690 O   0  0  0  0  0  0  0  0  0  0  0  0
   -2.4650   23.8820  -27.9220 C   0  0  0  0  0  0  0  0  0  0  0  0
   -2.3240   24.9430  -28.9710 C   0  0  0  0  0  0  0  0  0  0  0  0
   -1.5780   25.9330  -28.7480 O   0  0  0  0  0  0  0  0  0  0  0  0
   -3.1130   24.8700  -30.1650 N   0  0  0  0  0  0  0  0  0  0  0  0
   -4.4830   24.4500  -30.2820 C   0  0  0  0  0  0  0  0  0  0  0  0
   -5.5420   25.2650  -29.8390 C   0  0  0  0  0  0  0  0  0  0  0  0
   -6.8650   24.8370  -29.9650 C   0  0  0  0  0  0  0  0  0  0  0  0
   -7.1490   23.6000  -30.5410 C   0  0  0  0  0  0  0  0  0  0  0  0
   -6.1110   22.7930  -31.0130 C   0  0  0  0  0  0  0  0  0  0  0  0
   -4.7760   23.2180  -30.9100 C   0  0  0  0  0  0  0  0  0  0  0  0
   -3.6740   22.3210  -31.4220 C   0  0  0  0  0  0  0  0  0  0  0  0
   -3.9540   21.8780  -32.8540 C   0  0  0  0  0  0  0  0  0  0  0  0
   -0.6085   22.6150  -22.6248 H   0  0  0  0  0  0  0  0  0  0  0  0
   -0.9969   23.4935  -24.1427 H   0  0  0  0  0  0  0  0  0  0  0  0
   -0.9004   21.6998  -24.1427 H   0  0  0  0  0  0  0  0  0  0  0  0
    1.5914   22.6254  -23.1216 H   0  0  0  0  0  0  0  0  0  0  0  0
    1.2622   21.8756  -24.7310 H   0  0  0  0  0  0  0  0  0  0  0  0
    0.9230   25.7340  -22.7850 H   0  0  0  0  0  0  0  0  0  0  0  0
   -0.4521   27.6793  -22.8050 H   0  0  0  0  0  0  0  0  0  0  0  0
   -1.7823   28.2257  -24.8428 H   0  0  0  0  0  0  0  0  0  0  0  0
   -1.6605   26.7267  -26.8309 H   0  0  0  0  0  0  0  0  0  0  0  0
   -2.9149   22.9861  -28.3746 H   0  0  0  0  0  0  0  0  0  0  0  0
   -3.1053   24.2691  -27.1157 H   0  0  0  0  0  0  0  0  0  0  0  0
   -5.3256   26.2458  -29.3905 H   0  0  0  0  0  0  0  0  0  0  0  0
   -7.6852   25.4776  -29.6088 H   0  0  0  0  0  0  0  0  0  0  0  0
   -8.1915   23.2589  -30.6240 H   0  0  0  0  0  0  0  0  0  0  0  0
   -6.3405   21.8183  -31.4683 H   0  0  0  0  0  0  0  0  0  0  0  0
   -2.7210   22.8697  -31.3946 H   0  0  0  0  0  0  0  0  0  0  0  0
   -3.6218   21.4280  -30.7818 H   0  0  0  0  0  0  0  0  0  0  0  0
   -4.5417   20.9482  -32.8419 H   0  0  0  0  0  0  0  0  0  0  0  0
   -4.5204   22.6630  -33.3765 H   0  0  0  0  0  0  0  0  0  0  0  0
   -3.0019   21.7032  -33.3765 H   0  0  0  0  0  0  0  0  0  0  0  0
  1  2  1  0
  2  3  1  0
  3  4  1  0
  4  5  2  0
  5  6  1  0
  6  7  2  0
  7  8  1  0
  8  9  2  0
  9 10  1  0
 10 11  2  0
 10 12  1  0
 12 13  1  0
 13 14  1  0
 14 15  2  0
 14 16  1  0
 16 17  1  0
 17 18  2  0
 18 19  1  0
 19 20  2  0
 20 21  1  0
 21 22  2  0
 22 23  1  0
 23 24  1  0
  9  4  1  0
 22 17  1  0
  1 25  1  0
  1 26  1  0
  1 27  1  0
  2 28  1  0
  2 29  1  0
  5 30  1  0
  6 31  1  0
  7 32  1  0
  8 33  1  0
 13 34  1  0
 13 35  1  0
 18 36  1  0
 19 37  1  0
 20 38  1  0
 21 39  1  0
 23 40  1  0
 23 41  1  0
 24 42  1  0
 24 43  1  0
 24 44  1  0
M  CHG  2   5   1  16  -1
M  END
>  <UniqueID>  (11) 
11

>  <SMILES>  (11) 
CCOc1[nH+]cccc1C(=O)OCC(=O)[N-]c1ccccc1CC

>  <Energy>  (11) 
40.8959429745319

>  <Genealogy>  (11) 
CCOc1[nH+]cccc1C(=O)OCC(=O)[N-]c1ccccc1CC (protonated)
CCOc1[nH+]cccc1C(=O)OCC(=O)[N-]c1ccccc1CC (3D coordinates assigned)
CCOc1[nH+]cccc1C(=O)OCC(=O)[N-]c1ccccc1CC (optimized conformer: 40.8959429745319 kcal/mol)

>  <smiles>  (11) 
CCOc1ncccc1C(=O)OCC(=O)Nc1ccccc1CC

>  <score_type>  (11) 
oracle

>  <origin>  (11) 
adg

>  <m_score__min__energy>  (11) 
-9.1999999999999993

>  <m_primary>  (11) 
energy

$$$$
11:0
     RDKit          3D

 54 56  0  0  0  0  0  0  0  0999 V2000
   -8.7350   19.6530  -32.6400 C   0  0  0  0  0  0  0  0  0  0  0  0
   -7.6310   18.6570  -32.2660 C   0  0  0  0  0  0  0  0  0  0  0  0
   -6.4840   18.7050  -33.2110 N   0  0  0  0  0  0  0  0  0  0  0  0
   -6.3340   17.5180  -34.1020 C   0  0  0  0  0  0  0  0  0  0  0  0
   -5.0630   17.4820  -34.9700 C   0  0  0  0  0  0  0  0  0  0  0  0
   -5.2180   19.1090  -32.5440 C   0  0  0  0  0  0  0  0  0  0  0  0
   -4.5950   20.4140  -33.0760 C   0  0  0  0  0  0  0  0  0  0  0  0
   -4.9730   21.5730  -32.1910 C   0  0  0  0  0  0  0  0  0  0  0  0
   -6.2850   21.9780  -31.9900 C   0  0  0  0  0  0  0  0  0  0  0  0
   -6.2020   23.1220  -31.2370 C   0  0  0  0  0  0  0  0  0  0  0  0
   -7.2240   23.9450  -30.7770 C   0  0  0  0  0  0  0  0  0  0  0  0
   -6.8710   25.0890  -30.0500 C   0  0  0  0  0  0  0  0  0  0  0  0
   -5.5160   25.3920  -29.8120 C   0  0  0  0  0  0  0  0  0  0  0  0
   -4.4840   24.5490  -30.2970 C   0  0  0  0  0  0  0  0  0  0  0  0
   -3.1310   24.8570  -30.1040 O   0  0  0  0  0  0  0  0  0  0  0  0
   -2.3850   24.5320  -28.9360 C   0  0  0  0  0  0  0  0  0  0  0  0
   -4.8720   23.3880  -31.0040 C   0  0  0  0  0  0  0  0  0  0  0  0
   -4.1000   22.4260  -31.5780 N   0  0  0  0  0  0  0  0  0  0  0  0
   -2.6340   22.2950  -31.5690 C   0  0  0  0  0  0  0  0  0  0  0  0
   -2.1680   21.5220  -30.3630 C   0  0  0  0  0  0  0  0  0  0  0  0
   -0.8420   21.0630  -30.2870 C   0  0  0  0  0  0  0  0  0  0  0  0
   -0.4050   20.3540  -29.1640 C   0  0  0  0  0  0  0  0  0  0  0  0
   -1.2890   20.0860  -28.1170 C   0  0  0  0  0  0  0  0  0  0  0  0
   -2.6140   20.5240  -28.1910 C   0  0  0  0  0  0  0  0  0  0  0  0
   -3.0550   21.2350  -29.3110 C   0  0  0  0  0  0  0  0  0  0  0  0
   -9.1869   20.0607  -31.7237 H   0  0  0  0  0  0  0  0  0  0  0  0
   -8.3035   20.4733  -33.2323 H   0  0  0  0  0  0  0  0  0  0  0  0
   -9.5067   19.1396  -33.2323 H   0  0  0  0  0  0  0  0  0  0  0  0
   -7.2671   18.8952  -31.2556 H   0  0  0  0  0  0  0  0  0  0  0  0
   -8.0612   17.6456  -32.3100 H   0  0  0  0  0  0  0  0  0  0  0  0
   -6.6830   19.5090  -33.8560 H   0  0  0  0  0  0  0  0  0  0  0  0
   -6.3341   16.6191  -33.4680 H   0  0  0  0  0  0  0  0  0  0  0  0
   -7.1748   17.5700  -34.8094 H   0  0  0  0  0  0  0  0  0  0  0  0
   -4.1758   17.4569  -34.3202 H   0  0  0  0  0  0  0  0  0  0  0  0
   -5.0780   16.5839  -35.6050 H   0  0  0  0  0  0  0  0  0  0  0  0
   -5.0271   18.3795  -35.6050 H   0  0  0  0  0  0  0  0  0  0  0  0
   -5.4232   19.2403  -31.4713 H   0  0  0  0  0  0  0  0  0  0  0  0
   -4.4901   18.3111  -32.7523 H   0  0  0  0  0  0  0  0  0  0  0  0
   -3.4998   20.3126  -33.0930 H   0  0  0  0  0  0  0  0  0  0  0  0
   -4.9720   20.6021  -34.0921 H   0  0  0  0  0  0  0  0  0  0  0  0
   -7.1980   21.4861  -32.3567 H   0  0  0  0  0  0  0  0  0  0  0  0
   -8.2784   23.7048  -30.9781 H   0  0  0  0  0  0  0  0  0  0  0  0
   -7.6564   25.7547  -29.6627 H   0  0  0  0  0  0  0  0  0  0  0  0
   -5.2547   26.2956  -29.2417 H   0  0  0  0  0  0  0  0  0  0  0  0
   -2.9730   24.7882  -28.0423 H   0  0  0  0  0  0  0  0  0  0  0  0
   -2.1615   23.4550  -28.9316 H   0  0  0  0  0  0  0  0  0  0  0  0
   -1.4441   25.1017  -28.9316 H   0  0  0  0  0  0  0  0  0  0  0  0
   -2.3145   21.7674  -32.4798 H   0  0  0  0  0  0  0  0  0  0  0  0
   -2.1926   23.3019  -31.5317 H   0  0  0  0  0  0  0  0  0  0  0  0
   -0.1451   21.2623  -31.1144 H   0  0  0  0  0  0  0  0  0  0  0  0
    0.6371   20.0067  -29.1052 H   0  0  0  0  0  0  0  0  0  0  0  0
   -0.9423   19.5299  -27.2335 H   0  0  0  0  0  0  0  0  0  0  0  0
   -3.3106   20.3091  -27.3672 H   0  0  0  0  0  0  0  0  0  0  0  0
   -4.1007   21.5713  -29.3693 H   0  0  0  0  0  0  0  0  0  0  0  0
  1  2  1  0
  2  3  1  0
  3  4  1  0
  4  5  1  0
  3  6  1  0
  6  7  1  0
  7  8  1  0
  8  9  2  0
  9 10  1  0
 10 11  2  0
 11 12  1  0
 12 13  2  0
 13 14  1  0
 14 15  1  0
 15 16  1  0
 14 17  2  0
 17 18  1  0
 18 19  1  0
 19 20  1  0
 20 21  2  0
 21 22  1  0
 22 23  2  0
 23 24  1  0
 24 25  2  0
 18  8  1  0
 25 20  1  0
 17 10  1  0
  1 26  1  0
  1 27  1  0
  1 28  1  0
  2 29  1  0
  2 30  1  0
  3 31  1  0
  4 32  1  0
  4 33  1  0
  5 34  1  0
  5 35  1  0
  5 36  1  0
  6 37  1  0
  6 38  1  0
  7 39  1  0
  7 40  1  0
  9 41  1  0
 11 42  1  0
 12 43  1  0
 13 44  1  0
 16 45  1  0
 16 46  1  0
 16 47  1  0
 19 48  1  0
 19 49  1  0
 21 50  1  0
 22 51  1  0
 23 52  1  0
 24 53  1  0
 25 54  1  0
M  CHG  1   3   1
M  END
>  <UniqueID>  (12) 
12

>  <SMILES>  (12) 
CC[NH+](CC)CCc1cc2cccc(OC)c2n1Cc1ccccc1

>  <Energy>  (12) 
93.58348923809092

>  <Genealogy>  (12) 
CC[NH+](CC)CCc1cc2cccc(OC)c2n1Cc1ccccc1 (protonated)
CC[NH+](CC)CCc1cc2cccc(OC)c2n1Cc1ccccc1 (3D coordinates assigned)
CC[NH+](CC)CCc1cc2cccc(OC)c2n1Cc1ccccc1 (optimized conformer: 93.58348923809092 kcal/mol)

>  <smiles>  (12) 
CCN(CC)CCc1cc2cccc(OC)c2n1Cc1ccccc1

>  <score_type>  (12) 
oracle

>  <origin>  (12) 
adg

>  <m_score__min__energy>  (12) 
-7.5599999999999996

>  <m_primary>  (12) 
energy

$$$$
12:0
     RDKit          3D

 46 47  0  0  0  0  0  0  0  0999 V2000
   -0.9110   24.5830  -28.7720 C   0  0  0  0  0  0  0  0  0  0  0  0
   -2.0280   25.2900  -29.2600 O   0  0  0  0  0  0  0  0  0  0  0  0
   -3.1920   24.5050  -29.0920 C   0  0  0  0  0  0  0  0  0  0  0  0
   -3.7530   24.0980  -30.4680 C   0  0  0  0  0  0  0  0  0  0  0  0
   -5.2320   24.1300  -30.5790 N   0  0  0  0  0  0  0  0  0  0  0  0
   -5.8290   25.3750  -30.0690 C   0  0  0  0  0  0  0  0  0  0  0  0
   -5.7340   23.7990  -31.9270 C   0  0  0  0  0  0  0  0  0  0  0  0
   -6.2510   22.4220  -31.9560 N   0  0  0  0  0  0  0  0  0  0  0  0
   -5.5070   21.2940  -32.0520 C   0  0  0  0  0  0  0  0  0  0  0  0
   -4.0340   21.2480  -32.1430 C   0  0  0  0  0  0  0  0  0  0  0  0
   -3.3840   21.4360  -33.3740 C   0  0  0  0  0  0  0  0  0  0  0  0
   -1.9890   21.3810  -33.4480 C   0  0  0  0  0  0  0  0  0  0  0  0
   -1.2350   21.1480  -32.2950 C   0  0  0  0  0  0  0  0  0  0  0  0
   -1.8740   20.9780  -31.0640 C   0  0  0  0  0  0  0  0  0  0  0  0
   -3.2690   21.0330  -30.9850 C   0  0  0  0  0  0  0  0  0  0  0  0
   -6.3210   20.1830  -32.1250 C   0  0  0  0  0  0  0  0  0  0  0  0
   -7.6220   20.6410  -32.0390 C   0  0  0  0  0  0  0  0  0  0  0  0
   -8.8080   19.7580  -32.0150 C   0  0  0  0  0  0  0  0  0  0  0  0
   -8.7340   18.3260  -31.5860 C   0  0  0  0  0  0  0  0  0  0  0  0
   -9.9180   20.2140  -32.4020 O   0  0  0  0  0  0  0  0  0  0  0  0
   -7.5530   22.0320  -31.9720 C   0  0  0  0  0  0  0  0  0  0  0  0
   -8.7200   22.9800  -31.9840 C   0  0  0  0  0  0  0  0  0  0  0  0
   -0.9238   24.5911  -27.6721 H   0  0  0  0  0  0  0  0  0  0  0  0
   -0.9490   23.5441  -29.1315 H   0  0  0  0  0  0  0  0  0  0  0  0
    0.0117   25.0619  -29.1315 H   0  0  0  0  0  0  0  0  0  0  0  0
   -2.9423   23.6005  -28.5179 H   0  0  0  0  0  0  0  0  0  0  0  0
   -3.9494   25.0914  -28.5511 H   0  0  0  0  0  0  0  0  0  0  0  0
   -3.3398   24.7850  -31.2212 H   0  0  0  0  0  0  0  0  0  0  0  0
   -3.4568   23.0498  -30.6218 H   0  0  0  0  0  0  0  0  0  0  0  0
   -5.8223   25.3611  -28.9691 H   0  0  0  0  0  0  0  0  0  0  0  0
   -5.2456   26.2355  -30.4284 H   0  0  0  0  0  0  0  0  0  0  0  0
   -6.8653   25.4588  -30.4284 H   0  0  0  0  0  0  0  0  0  0  0  0
   -6.5422   24.4957  -32.1943 H   0  0  0  0  0  0  0  0  0  0  0  0
   -4.9075   23.8859  -32.6477 H   0  0  0  0  0  0  0  0  0  0  0  0
   -3.9743   21.6270  -34.2823 H   0  0  0  0  0  0  0  0  0  0  0  0
   -1.4843   21.5214  -34.4153 H   0  0  0  0  0  0  0  0  0  0  0  0
   -0.1378   21.0984  -32.3563 H   0  0  0  0  0  0  0  0  0  0  0  0
   -1.2789   20.8007  -30.1560 H   0  0  0  0  0  0  0  0  0  0  0  0
   -3.7686   20.9075  -30.0131 H   0  0  0  0  0  0  0  0  0  0  0  0
   -5.9978   19.1369  -32.2310 H   0  0  0  0  0  0  0  0  0  0  0  0
   -8.7312   18.2721  -30.4873 H   0  0  0  0  0  0  0  0  0  0  0  0
   -9.6051   17.7804  -31.9777 H   0  0  0  0  0  0  0  0  0  0  0  0
   -7.8113   17.8731  -31.9777 H   0  0  0  0  0  0  0  0  0  0  0  0
   -9.0110   23.2164  -30.9499 H   0  0  0  0  0  0  0  0  0  0  0  0
   -8.4351   23.9057  -32.5055 H   0  0  0  0  0  0  0  0  0  0  0  0
   -9.5677   22.5115  -32.5055 H   0  0  0  0  0  0  0  0  0  0  0  0
  1  2  1  0
  2  3  1  0
  3  4  1  0
  4  5  1  0
  5  6  1  0
  5  7  1  0
  7  8  1  0
  8  9  1  0
  9 10  1  0
 10 11  2  0
 11 12  1  0
 12 13  2  0
 13 14  1  0
 14 15  2  0
  9 16  2  0
 16 17  1  0
 17 18  1  0
 18 19  1  0
 18 20  2  0
 17 21  2  0
 21 22  1  0
 21  8  1  0
 15 10  1  0
  1 23  1  0
  1 24  1  0
  1 25  1  0
  3 26  1  0
  3 27  1  0
  4 28  1  0
  4 29  1  0
  6 30  1  0
  6 31  1  0
  6 32  1  0
  7 33  1  0
  7 34  1  0
 11 35  1  0
 12 36  1  0
 13 37  1  0
 14 38  1  0
 15 39  1  0
 16 40  1  0
 19 41  1  0
 19 42  1  0
 19 43  1  0
 22 44  1  0
 22 45  1  0
 22 46  1  0
M  END
>  <UniqueID>  (13) 
13

>  <SMILES>  (13) 
COCCN(C)Cn1c(-c2ccccc2)cc(C(C)=O)c1C

>  <Energy>  (13) 
82.72441856085541

>  <Genealogy>  (13) 
COCCN(C)Cn1c(-c2ccccc2)cc(C(C)=O)c1C (3D coordinates assigned)
COCCN(C)Cn1c(-c2ccccc2)cc(C(C)=O)c1C (optimized conformer: 82.72441856085541 kcal/mol)

>  <smiles>  (13) 
COCCN(C)Cn1c(-c2ccccc2)cc(C(C)=O)c1C

>  <score_type>  (13) 
oracle

>  <origin>  (13) 
adg

>  <m_score__min__energy>  (13) 
-7.6100000000000003

>  <m_primary>  (13) 
energy

$$$$
13:0
     RDKit          3D

 77 80  0  0  0  0  0  0  0  0999 V2000
    0.3410   22.0020  -35.7680 C   0  0  0  0  0  0  0  0  0  0  0  0
    1.0720   20.8830  -35.0320 C   0  0  0  0  0  0  0  0  0  0  0  0
    1.2670   19.6570  -35.9390 C   0  0  0  0  0  0  0  0  0  0  0  0
    0.7860   18.4050  -35.3220 N   0  0  0  0  0  0  0  0  0  0  0  0
    1.8410   17.5200  -34.7860 C   0  0  0  0  0  0  0  0  0  0  0  0
    1.3580   16.1070  -34.3930 C   0  0  0  0  0  0  0  0  0  0  0  0
   -0.0310   16.0840  -33.7520 C   0  0  0  0  0  0  0  0  0  0  0  0
   -0.9600   16.8010  -34.5620 O   0  0  0  0  0  0  0  0  0  0  0  0
   -2.1540   17.3660  -34.0880 C   0  0  0  0  0  0  0  0  0  0  0  0
   -2.1960   18.7430  -33.8780 C   0  0  0  0  0  0  0  0  0  0  0  0
   -3.3570   19.3580  -33.4050 C   0  0  0  0  0  0  0  0  0  0  0  0
   -4.5040   18.5990  -33.0710 C   0  0  0  0  0  0  0  0  0  0  0  0
   -4.4810   17.2130  -33.3740 C   0  0  0  0  0  0  0  0  0  0  0  0
   -5.6470   16.4570  -33.2650 C   0  0  0  0  0  0  0  0  0  0  0  0
   -6.8450   17.0560  -32.9060 C   0  0  0  0  0  0  0  0  0  0  0  0
   -6.9050   18.4200  -32.5340 C   0  0  0  0  0  0  0  0  0  0  0  0
   -5.7010   19.1830  -32.5360 C   0  0  0  0  0  0  0  0  0  0  0  0
   -5.7560   20.5000  -32.0090 C   0  0  0  0  0  0  0  0  0  0  0  0
   -4.5880   21.1400  -31.4620 N   0  0  0  0  0  0  0  0  0  0  0  0
   -4.0090   22.3460  -32.0580 C   0  0  0  0  0  0  0  0  0  0  0  0
   -3.0200   23.0240  -31.0980 C   0  0  0  0  0  0  0  0  0  0  0  0
   -3.5950   24.2390  -30.4710 N   0  0  0  0  0  0  0  0  0  0  0  0
   -4.9690   24.4860  -30.9750 C   0  0  0  0  0  0  0  0  0  0  0  0
   -5.7610   25.3450  -29.9940 C   0  0  0  0  0  0  0  0  0  0  0  0
   -3.6010   24.1310  -28.9910 C   0  0  0  0  0  0  0  0  0  0  0  0
   -4.0620   22.7380  -28.5710 C   0  0  0  0  0  0  0  0  0  0  0  0
   -7.0000   21.1460  -31.9190 C   0  0  0  0  0  0  0  0  0  0  0  0
   -7.0910   22.5350  -31.6790 C   0  0  0  0  0  0  0  0  0  0  0  0
   -8.3300   23.1710  -31.6500 C   0  0  0  0  0  0  0  0  0  0  0  0
   -9.4930   22.4400  -31.8600 C   0  0  0  0  0  0  0  0  0  0  0  0
   -9.4280   21.0640  -32.0690 C   0  0  0  0  0  0  0  0  0  0  0  0
   -8.1850   20.3840  -32.0670 C   0  0  0  0  0  0  0  0  0  0  0  0
   -8.1050   19.0120  -32.1820 N   0  0  0  0  0  0  0  0  0  0  0  0
   -9.3020   18.1800  -31.9260 C   0  0  0  0  0  0  0  0  0  0  0  0
   -3.3070   16.6020  -33.8450 C   0  0  0  0  0  0  0  0  0  0  0  0
   -0.1082   22.6897  -35.0364 H   0  0  0  0  0  0  0  0  0  0  0  0
    1.0541   22.5527  -36.3991 H   0  0  0  0  0  0  0  0  0  0  0  0
   -0.4498   21.5703  -36.3991 H   0  0  0  0  0  0  0  0  0  0  0  0
    2.0570   21.2501  -34.7080 H   0  0  0  0  0  0  0  0  0  0  0  0
    0.4661   20.5822  -34.1646 H   0  0  0  0  0  0  0  0  0  0  0  0
    0.7145   19.8217  -36.8758 H   0  0  0  0  0  0  0  0  0  0  0  0
    2.3469   19.5449  -36.1157 H   0  0  0  0  0  0  0  0  0  0  0  0
    0.2180   17.8800  -36.0270 H   0  0  0  0  0  0  0  0  0  0  0  0
    0.1370   18.6500  -34.5370 H   0  0  0  0  0  0  0  0  0  0  0  0
    2.6223   17.4143  -35.5531 H   0  0  0  0  0  0  0  0  0  0  0  0
    2.2041   17.9931  -33.8617 H   0  0  0  0  0  0  0  0  0  0  0  0
    1.3315   15.4851  -35.2999 H   0  0  0  0  0  0  0  0  0  0  0  0
    2.0639   15.7255  -33.6405 H   0  0  0  0  0  0  0  0  0  0  0  0
   -0.3668   15.0415  -33.6503 H   0  0  0  0  0  0  0  0  0  0  0  0
    0.0232   16.5599  -32.7617 H   0  0  0  0  0  0  0  0  0  0  0  0
   -1.3044   19.3524  -34.0872 H   0  0  0  0  0  0  0  0  0  0  0  0
   -3.3806   20.4517  -33.2899 H   0  0  0  0  0  0  0  0  0  0  0  0
   -5.6166   15.3759  -33.4655 H   0  0  0  0  0  0  0  0  0  0  0  0
   -7.7683   16.4582  -32.9105 H   0  0  0  0  0  0  0  0  0  0  0  0
   -4.1280   20.7390  -30.6140 H   0  0  0  0  0  0  0  0  0  0  0  0
   -3.4795   22.0702  -32.9819 H   0  0  0  0  0  0  0  0  0  0  0  0
   -4.8242   23.0527  -32.2725 H   0  0  0  0  0  0  0  0  0  0  0  0
   -2.7489   22.3105  -30.3059 H   0  0  0  0  0  0  0  0  0  0  0  0
   -2.1376   23.3284  -31.6800 H   0  0  0  0  0  0  0  0  0  0  0  0
   -4.9099   25.0056  -31.9428 H   0  0  0  0  0  0  0  0  0  0  0  0
   -5.4811   23.5192  -31.0894 H   0  0  0  0  0  0  0  0  0  0  0  0
   -5.4993   25.0612  -28.9640 H   0  0  0  0  0  0  0  0  0  0  0  0
   -5.5171   26.4054  -30.1554 H   0  0  0  0  0  0  0  0  0  0  0  0
   -6.8377   25.1878  -30.1554 H   0  0  0  0  0  0  0  0  0  0  0  0
   -2.5851   24.3092  -28.6087 H   0  0  0  0  0  0  0  0  0  0  0  0
   -4.2921   24.8800  -28.5772 H   0  0  0  0  0  0  0  0  0  0  0  0
   -4.0831   22.6743  -27.4730 H   0  0  0  0  0  0  0  0  0  0  0  0
   -5.0703   22.5500  -28.9686 H   0  0  0  0  0  0  0  0  0  0  0  0
   -3.3649   21.9857  -28.9686 H   0  0  0  0  0  0  0  0  0  0  0  0
   -6.1744   23.1202  -31.5134 H   0  0  0  0  0  0  0  0  0  0  0  0
   -8.3878   24.2530  -31.4607 H   0  0  0  0  0  0  0  0  0  0  0  0
  -10.4680   22.9493  -31.8612 H   0  0  0  0  0  0  0  0  0  0  0  0
  -10.3554   20.4972  -32.2381 H   0  0  0  0  0  0  0  0  0  0  0  0
   -9.4512   18.0763  -30.8411 H   0  0  0  0  0  0  0  0  0  0  0  0
  -10.1848   18.6602  -32.3733 H   0  0  0  0  0  0  0  0  0  0  0  0
   -9.1596   17.1852  -32.3733 H   0  0  0  0  0  0  0  0  0  0  0  0
   -3.2907   15.5169  -34.0248 H   0  0  0  0  0  0  0  0  0  0  0  0
  1  2  1  0
  2  3  1  0
  3  4  1  0
  4  5  1  0
  5  6  1  0
  6  7  1  0
  7  8  1  0
  8  9  1  0
  9 10  2  0
 10 11  1  0
 11 12  2  0
 12 13  1  0
 13 14  1  0
 14 15  2  0
 15 16  1  0
 16 17  2  0
 17 18  1  0
 18 19  1  0
 19 20  1  0
 20 21  1  0
 21 22  1  0
 22 23  1  0
 23 24  1  0
 22 25  1  0
 25 26  1  0
 18 27  2  0
 27 28  1  0
 28 29  2  0
 29 30  1  0
 30 31  2  0
 31 32  1  0
 32 33  2  0
 33 34  1  0
 13 35  2  0
 35  9  1  0
 17 12  1  0
 32 27  1  0
 33 16  1  0
  1 36  1  0
  1 37  1  0
  1 38  1  0
  2 39  1  0
  2 40  1  0
  3 41  1  0
  3 42  1  0
  4 43  1  0
  4 44  1  0
  5 45  1  0
  5 46  1  0
  6 47  1  0
  6 48  1  0
  7 49  1  0
  7 50  1  0
 10 51  1  0
 11 52  1  0
 14 53  1  0
 15 54  1  0
 19 55  1  0
 20 56  1  0
 20 57  1  0
 21 58  1  0
 21 59  1  0
 23 60  1  0
 23 61  1  0
 24 62  1  0
 24 63  1  0
 24 64  1  0
 25 65  1  0
 25 66  1  0
 26 67  1  0
 26 68  1  0
 26 69  1  0
 28 70  1  0
 29 71  1  0
 30 72  1  0
 31 73  1  0
 34 74  1  0
 34 75  1  0
 34 76  1  0
 35 77  1  0
M  CHG  2   4   1  33   1
M  END
>  <UniqueID>  (14) 
14

>  <SMILES>  (14) 
CCC[NH2+]CCCOc1ccc2c(ccc3c2c(NCCN(CC)CC)c2ccccc2[n+]3C)c1

>  <Energy>  (14) 
111.11449473156114

>  <Genealogy>  (14) 
CCC[NH2+]CCCOc1ccc2c(ccc3c2c(NCCN(CC)CC)c2ccccc2[n+]3C)c1 (protonated)
CCC[NH2+]CCCOc1ccc2c(ccc3c2c(NCCN(CC)CC)c2ccccc2[n+]3C)c1 (3D coordinates assigned)
CCC[NH2+]CCCOc1ccc2c(ccc3c2c(NCCN(CC)CC)c2ccccc2[n+]3C)c1 (optimized conformer: 111.11449473156114 kcal/mol)

>  <smiles>  (14) 
CCCNCCCOc1ccc2c(ccc3c2c(NCCN(CC)CC)c2ccccc2[n+]3C)c1

>  <score_type>  (14) 
oracle

>  <origin>  (14) 
adg

>  <m_score__min__energy>  (14) 
-9.2699999999999996

>  <m_primary>  (14) 
energy

$$$$
14:0
     RDKit          3D

 59 61  0  0  0  0  0  0  0  0999 V2000
   -7.6500   23.0560  -31.3450 C   0  0  0  0  0  0  0  0  0  0  0  0
   -6.6100   23.7310  -32.2430 C   0  0  0  0  0  0  0  0  0  0  0  0
   -5.3610   24.0950  -31.5390 N   0  0  0  0  0  0  0  0  0  0  0  0
   -5.4040   25.4100  -30.8470 C   0  0  0  0  0  0  0  0  0  0  0  0
   -6.1730   25.4230  -29.5150 C   0  0  0  0  0  0  0  0  0  0  0  0
   -4.7400   22.9730  -30.8020 C   0  0  0  0  0  0  0  0  0  0  0  0
   -3.6140   22.3280  -31.6270 C   0  0  0  0  0  0  0  0  0  0  0  0
   -3.9860   22.1410  -33.0410 N   0  0  0  0  0  0  0  0  0  0  0  0
   -4.0170   20.7370  -33.4060 C   0  0  0  0  0  0  0  0  0  0  0  0
   -2.8220   20.1500  -33.8540 C   0  0  0  0  0  0  0  0  0  0  0  0
   -2.7600   18.8050  -34.1950 C   0  0  0  0  0  0  0  0  0  0  0  0
   -3.8940   17.9910  -34.1010 C   0  0  0  0  0  0  0  0  0  0  0  0
   -5.1150   18.5420  -33.6520 C   0  0  0  0  0  0  0  0  0  0  0  0
   -6.2660   17.7240  -33.5440 C   0  0  0  0  0  0  0  0  0  0  0  0
   -7.4730   18.2780  -33.0920 C   0  0  0  0  0  0  0  0  0  0  0  0
   -7.5460   19.6210  -32.7450 C   0  0  0  0  0  0  0  0  0  0  0  0
   -6.4230   20.4380  -32.8440 C   0  0  0  0  0  0  0  0  0  0  0  0
   -5.1880   19.9250  -33.3000 C   0  0  0  0  0  0  0  0  0  0  0  0
   -6.2010   16.2870  -33.8980 C   0  0  0  0  0  0  0  0  0  0  0  0
   -7.2330   15.5660  -33.7980 O   0  0  0  0  0  0  0  0  0  0  0  0
   -4.9640   15.7120  -34.3520 N   0  0  0  0  0  0  0  0  0  0  0  0
   -4.8640   14.2630  -34.5970 C   0  0  0  0  0  0  0  0  0  0  0  0
   -5.1150   13.4750  -33.3050 C   0  0  0  0  0  0  0  0  0  0  0  0
   -4.3210   14.0300  -32.1860 N   0  0  0  0  0  0  0  0  0  0  0  0
   -4.6110   13.3070  -30.9380 C   0  0  0  0  0  0  0  0  0  0  0  0
   -2.8780   13.9550  -32.4740 C   0  0  0  0  0  0  0  0  0  0  0  0
   -3.8050   16.5560  -34.4620 C   0  0  0  0  0  0  0  0  0  0  0  0
   -2.7090   16.0770  -34.8660 O   0  0  0  0  0  0  0  0  0  0  0  0
   -7.3888   23.2255  -30.2900 H   0  0  0  0  0  0  0  0  0  0  0  0
   -8.6432   23.4821  -31.5499 H   0  0  0  0  0  0  0  0  0  0  0  0
   -7.6653   21.9754  -31.5499 H   0  0  0  0  0  0  0  0  0  0  0  0
   -6.3583   23.0409  -33.0618 H   0  0  0  0  0  0  0  0  0  0  0  0
   -7.0586   24.6677  -32.6054 H   0  0  0  0  0  0  0  0  0  0  0  0
   -4.3688   25.7228  -30.6456 H   0  0  0  0  0  0  0  0  0  0  0  0
   -5.9455   26.0917  -31.5193 H   0  0  0  0  0  0  0  0  0  0  0  0
   -5.4583   25.4109  -28.6789 H   0  0  0  0  0  0  0  0  0  0  0  0
   -6.7901   26.3317  -29.4568 H   0  0  0  0  0  0  0  0  0  0  0  0
   -6.8205   24.5357  -29.4568 H   0  0  0  0  0  0  0  0  0  0  0  0
   -4.3225   23.3506  -29.8569 H   0  0  0  0  0  0  0  0  0  0  0  0
   -5.5107   22.2129  -30.6064 H   0  0  0  0  0  0  0  0  0  0  0  0
   -2.7260   22.9754  -31.5785 H   0  0  0  0  0  0  0  0  0  0  0  0
   -3.4140   21.3342  -31.1999 H   0  0  0  0  0  0  0  0  0  0  0  0
   -4.8690   22.6480  -33.2650 H   0  0  0  0  0  0  0  0  0  0  0  0
   -3.2570   22.6160  -33.6230 H   0  0  0  0  0  0  0  0  0  0  0  0
   -1.9162   20.7686  -33.9365 H   0  0  0  0  0  0  0  0  0  0  0  0
   -1.8090   18.3752  -34.5427 H   0  0  0  0  0  0  0  0  0  0  0  0
   -8.3684   17.6441  -33.0118 H   0  0  0  0  0  0  0  0  0  0  0  0
   -8.4980   20.0421  -32.3894 H   0  0  0  0  0  0  0  0  0  0  0  0
   -6.4984   21.4988  -32.5630 H   0  0  0  0  0  0  0  0  0  0  0  0
   -5.6124   13.9716  -35.3486 H   0  0  0  0  0  0  0  0  0  0  0  0
   -3.8504   14.0350  -34.9585 H   0  0  0  0  0  0  0  0  0  0  0  0
   -6.1838   13.5308  -33.0508 H   0  0  0  0  0  0  0  0  0  0  0  0
   -4.8128   12.4297  -33.4662 H   0  0  0  0  0  0  0  0  0  0  0  0
   -4.3558   13.9433  -30.0778 H   0  0  0  0  0  0  0  0  0  0  0  0
   -5.6806   13.0529  -30.9015 H   0  0  0  0  0  0  0  0  0  0  0  0
   -4.0134   12.3842  -30.9015 H   0  0  0  0  0  0  0  0  0  0  0  0
   -2.3164   13.9258  -31.5286 H   0  0  0  0  0  0  0  0  0  0  0  0
   -2.6667   13.0447  -33.0542 H   0  0  0  0  0  0  0  0  0  0  0  0
   -2.5735   14.8385  -33.0542 H   0  0  0  0  0  0  0  0  0  0  0  0
  1  2  1  0
  2  3  1  0
  3  4  1  0
  4  5  1  0
  3  6  1  0
  6  7  1  0
  7  8  1  0
  8  9  1  0
  9 10  2  0
 10 11  1  0
 11 12  2  0
 12 13  1  0
 13 14  2  0
 14 15  1  0
 15 16  2  0
 16 17  1  0
 17 18  2  0
 14 19  1  0
 19 20  2  0
 19 21  1  0
 21 22  1  0
 22 23  1  0
 23 24  1  0
 24 25  1  0
 24 26  1  0
 21 27  1  0
 27 28  2  0
 18  9  1  0
 27 12  1  0
 18 13  1  0
  1 29  1  0
  1 30  1  0
  1 31  1  0
  2 32  1  0
  2 33  1  0
  4 34  1  0
  4 35  1  0
  5 36  1  0
  5 37  1  0
  5 38  1  0
  6 39  1  0
  6 40  1  0
  7 41  1  0
  7 42  1  0
  8 43  1  0
  8 44  1  0
 10 45  1  0
 11 46  1  0
 15 47  1  0
 16 48  1  0
 17 49  1  0
 22 50  1  0
 22 51  1  0
 23 52  1  0
 23 53  1  0
 25 54  1  0
 25 55  1  0
 25 56  1  0
 26 57  1  0
 26 58  1  0
 26 59  1  0
M  CHG  1   8   1
M  END
>  <UniqueID>  (15) 
15

>  <SMILES>  (15) 
CCN(CC)CC[NH2+]c1ccc2c3c(cccc13)C(=O)N(CCN(C)C)C2=O

>  <Energy>  (15) 
73.6448001557384

>  <Genealogy>  (15) 
CCN(CC)CC[NH2+]c1ccc2c3c(cccc13)C(=O)N(CCN(C)C)C2=O (protonated)
CCN(CC)CC[NH2+]c1ccc2c3c(cccc13)C(=O)N(CCN(C)C)C2=O (3D coordinates assigned)
CCN(CC)CC[NH2+]c1ccc2c3c(cccc13)C(=O)N(CCN(C)C)C2=O (nonaromatic ring conformer: 73.6448001557384 kcal/mol)

>  <smiles>  (15) 
CCN(CC)CCNc1ccc2c3c(cccc13)C(=O)N(CCN(C)C)C2=O

>  <score_type>  (15) 
oracle

>  <origin>  (15) 
adg

>  <m_score__min__energy>  (15) 
-7.6799999999999997

>  <m_primary>  (15) 
energy

$$$$
15:0
     RDKit          3D

 64 67  0  0  0  0  0  0  0  0999 V2000
    0.9910   21.1500  -34.2560 C   0  0  0  0  0  0  0  0  0  0  0  0
   -0.3660   21.1740  -34.9570 C   0  0  0  0  0  0  0  0  0  0  0  0
   -1.4260   20.5700  -34.1140 N   0  0  0  0  0  0  0  0  0  0  0  0
   -1.1900   19.1170  -33.8910 C   0  0  0  0  0  0  0  0  0  0  0  0
   -1.2820   18.7930  -32.4010 C   0  0  0  0  0  0  0  0  0  0  0  0
   -1.5520   21.3080  -32.8310 C   0  0  0  0  0  0  0  0  0  0  0  0
   -2.9980   21.8090  -32.6070 C   0  0  0  0  0  0  0  0  0  0  0  0
   -3.9310   21.4170  -33.6840 N   0  0  0  0  0  0  0  0  0  0  0  0
   -5.1320   20.7550  -33.1830 C   0  0  0  0  0  0  0  0  0  0  0  0
   -5.3790   19.3870  -33.4990 C   0  0  0  0  0  0  0  0  0  0  0  0
   -4.4310   18.6020  -34.2070 C   0  0  0  0  0  0  0  0  0  0  0  0
   -4.6730   17.2610  -34.4950 C   0  0  0  0  0  0  0  0  0  0  0  0
   -5.8500   16.6610  -34.0760 C   0  0  0  0  0  0  0  0  0  0  0  0
   -6.8030   17.4010  -33.3850 C   0  0  0  0  0  0  0  0  0  0  0  0
   -6.6060   18.7800  -33.1050 C   0  0  0  0  0  0  0  0  0  0  0  0
   -7.5720   19.5210  -32.4550 N   0  0  0  0  0  0  0  0  0  0  0  0
   -8.9500   18.9850  -32.3280 C   0  0  0  0  0  0  0  0  0  0  0  0
   -7.2660   20.7700  -31.9510 C   0  0  0  0  0  0  0  0  0  0  0  0
   -8.1240   21.4100  -31.0190 C   0  0  0  0  0  0  0  0  0  0  0  0
   -7.8720   22.6970  -30.5620 C   0  0  0  0  0  0  0  0  0  0  0  0
   -6.7440   23.3920  -31.0030 C   0  0  0  0  0  0  0  0  0  0  0  0
   -6.4370   24.6900  -30.5590 O   0  0  0  0  0  0  0  0  0  0  0  0
   -5.7550   25.0060  -29.3430 C   0  0  0  0  0  0  0  0  0  0  0  0
   -4.5390   24.1320  -29.1710 C   0  0  0  0  0  0  0  0  0  0  0  0
   -3.3450   24.4390  -29.8490 C   0  0  0  0  0  0  0  0  0  0  0  0
   -2.2260   23.6130  -29.7150 C   0  0  0  0  0  0  0  0  0  0  0  0
   -2.2860   22.4790  -28.8970 C   0  0  0  0  0  0  0  0  0  0  0  0
   -3.4600   22.1790  -28.2020 C   0  0  0  0  0  0  0  0  0  0  0  0
   -4.5810   23.0040  -28.3320 C   0  0  0  0  0  0  0  0  0  0  0  0
   -5.8710   22.7750  -31.9020 C   0  0  0  0  0  0  0  0  0  0  0  0
   -6.0760   21.4420  -32.3550 C   0  0  0  0  0  0  0  0  0  0  0  0
    0.8409   21.1527  -33.1663 H   0  0  0  0  0  0  0  0  0  0  0  0
    1.5388   20.2420  -34.5485 H   0  0  0  0  0  0  0  0  0  0  0  0
    1.5705   22.0380  -34.5485 H   0  0  0  0  0  0  0  0  0  0  0  0
   -0.6359   22.2174  -35.1769 H   0  0  0  0  0  0  0  0  0  0  0  0
   -0.2856   20.5858  -35.8830 H   0  0  0  0  0  0  0  0  0  0  0  0
   -1.9487   18.5371  -34.4370 H   0  0  0  0  0  0  0  0  0  0  0  0
   -0.1855   18.8553  -34.2551 H   0  0  0  0  0  0  0  0  0  0  0  0
   -1.0278   19.6883  -31.8147 H   0  0  0  0  0  0  0  0  0  0  0  0
   -2.3062   18.4740  -32.1577 H   0  0  0  0  0  0  0  0  0  0  0  0
   -0.5782   17.9833  -32.1577 H   0  0  0  0  0  0  0  0  0  0  0  0
   -1.2733   20.6382  -32.0041 H   0  0  0  0  0  0  0  0  0  0  0  0
   -0.8849   22.1819  -32.8677 H   0  0  0  0  0  0  0  0  0  0  0  0
   -3.3674   21.3934  -31.6579 H   0  0  0  0  0  0  0  0  0  0  0  0
   -2.9614   22.9083  -32.5948 H   0  0  0  0  0  0  0  0  0  0  0  0
   -4.1970   22.2610  -34.2390 H   0  0  0  0  0  0  0  0  0  0  0  0
   -3.4080   20.8690  -34.3920 H   0  0  0  0  0  0  0  0  0  0  0  0
   -3.4870   19.0620  -34.5344 H   0  0  0  0  0  0  0  0  0  0  0  0
   -3.9286   16.6770  -35.0561 H   0  0  0  0  0  0  0  0  0  0  0  0
   -6.0306   15.5973  -34.2905 H   0  0  0  0  0  0  0  0  0  0  0  0
   -7.7276   16.9092  -33.0485 H   0  0  0  0  0  0  0  0  0  0  0  0
   -9.2078   18.8847  -31.2633 H   0  0  0  0  0  0  0  0  0  0  0  0
   -9.6574   19.6735  -32.8133 H   0  0  0  0  0  0  0  0  0  0  0  0
   -9.0062   17.9994  -32.8133 H   0  0  0  0  0  0  0  0  0  0  0  0
   -9.0104   20.8735  -30.6496 H   0  0  0  0  0  0  0  0  0  0  0  0
   -8.5637   23.1707  -29.8499 H   0  0  0  0  0  0  0  0  0  0  0  0
   -5.4413   26.0600  -29.3684 H   0  0  0  0  0  0  0  0  0  0  0  0
   -6.4382   24.8312  -28.4988 H   0  0  0  0  0  0  0  0  0  0  0  0
   -3.2922   25.3332  -30.4874 H   0  0  0  0  0  0  0  0  0  0  0  0
   -1.2973   23.8542  -30.2528 H   0  0  0  0  0  0  0  0  0  0  0  0
   -1.4079   21.8234  -28.8013 H   0  0  0  0  0  0  0  0  0  0  0  0
   -3.5024   21.2927  -27.5518 H   0  0  0  0  0  0  0  0  0  0  0  0
   -5.5004   22.7698  -27.7754 H   0  0  0  0  0  0  0  0  0  0  0  0
   -4.9996   23.3361  -32.2705 H   0  0  0  0  0  0  0  0  0  0  0  0
  1  2  1  0
  2  3  1  0
  3  4  1  0
  4  5  1  0
  3  6  1  0
  6  7  1  0
  7  8  1  0
  8  9  1  0
  9 10  2  0
 10 11  1  0
 11 12  2  0
 12 13  1  0
 13 14  2  0
 14 15  1  0
 15 16  2  0
 16 17  1  0
 16 18  1  0
 18 19  2  0
 19 20  1  0
 20 21  2  0
 21 22  1  0
 22 23  1  0
 23 24  1  0
 24 25  2  0
 25 26  1  0
 26 27  2  0
 27 28  1  0
 28 29  2  0
 21 30  1  0
 30 31  2  0
 31  9  1  0
 15 10  1  0
 31 18  1  0
 29 24  1  0
  1 32  1  0
  1 33  1  0
  1 34  1  0
  2 35  1  0
  2 36  1  0
  4 37  1  0
  4 38  1  0
  5 39  1  0
  5 40  1  0
  5 41  1  0
  6 42  1  0
  6 43  1  0
  7 44  1  0
  7 45  1  0
  8 46  1  0
  8 47  1  0
 11 48  1  0
 12 49  1  0
 13 50  1  0
 14 51  1  0
 17 52  1  0
 17 53  1  0
 17 54  1  0
 19 55  1  0
 20 56  1  0
 23 57  1  0
 23 58  1  0
 25 59  1  0
 26 60  1  0
 27 61  1  0
 28 62  1  0
 29 63  1  0
 30 64  1  0
M  CHG  2   8   1  16   1
M  END
>  <UniqueID>  (16) 
16

>  <SMILES>  (16) 
CCN(CC)CC[NH2+]c1c2ccccc2[n+](C)c2ccc(OCc3ccccc3)cc12

>  <Energy>  (16) 
94.18892731899662

>  <Genealogy>  (16) 
CCN(CC)CC[NH2+]c1c2ccccc2[n+](C)c2ccc(OCc3ccccc3)cc12 (protonated)
CCN(CC)CC[NH2+]c1c2ccccc2[n+](C)c2ccc(OCc3ccccc3)cc12 (3D coordinates assigned)
CCN(CC)CC[NH2+]c1c2ccccc2[n+](C)c2ccc(OCc3ccccc3)cc12 (optimized conformer: 94.18892731899662 kcal/mol)

>  <smiles>  (16) 
CCN(CC)CCNc1c2ccccc2[n+](C)c2ccc(OCc3ccccc3)cc12

>  <score_type>  (16) 
oracle

>  <origin>  (16) 
adg

>  <m_score__min__energy>  (16) 
-8.8000000000000007

>  <m_primary>  (16) 
energy

$$$$
16:0
     RDKit          3D

 45 47  0  0  0  0  0  0  0  0999 V2000
   -0.5390   22.9130  -25.4200 C   0  0  0  0  0  0  0  0  0  0  0  0
   -0.8270   24.3810  -25.2640 C   0  0  0  0  0  0  0  0  0  0  0  0
   -0.2550   25.0720  -24.2360 N   0  0  0  0  0  0  0  0  0  0  0  0
   -0.4790   26.4030  -24.0680 C   0  0  0  0  0  0  0  0  0  0  0  0
   -1.2990   27.0830  -24.9670 C   0  0  0  0  0  0  0  0  0  0  0  0
   -1.8560   26.4080  -26.0030 N   0  0  0  0  0  0  0  0  0  0  0  0
   -1.6370   25.0790  -26.1860 C   0  0  0  0  0  0  0  0  0  0  0  0
   -2.2480   24.4180  -27.3000 N   0  0  0  0  0  0  0  0  0  0  0  0
   -3.5580   23.7600  -27.0940 C   0  0  0  0  0  0  0  0  0  0  0  0
   -3.9880   22.9330  -28.3230 C   0  0  2  0  0  0  0  0  0  0  0  0
   -3.1210   21.6750  -28.4510 C   0  0  0  0  0  0  0  0  0  0  0  0
   -1.9450   22.1020  -29.3360 C   0  0  0  0  0  0  0  0  0  0  0  0
   -2.2180   23.5750  -29.6590 C   0  0  2  0  0  0  0  0  0  0  0  0
   -1.5580   24.4900  -28.6080 C   0  0  0  0  0  0  0  0  0  0  0  0
   -3.6520   23.7010  -29.5060 N   0  0  0  0  0  0  0  0  0  0  0  0
   -4.4330   24.7820  -30.0510 C   0  0  0  0  0  0  0  0  0  0  0  0
   -3.8900   25.6160  -30.8250 O   0  0  0  0  0  0  0  0  0  0  0  0
   -5.8980   24.9160  -29.7460 C   0  0  0  0  0  0  0  0  0  0  0  0
   -6.7020   24.1200  -30.6950 N   0  0  0  0  0  0  0  0  0  0  0  0
   -5.9040   23.8040  -31.8890 C   0  0  0  0  0  0  0  0  0  0  0  0
   -7.1710   22.8710  -30.0680 C   0  0  0  0  0  0  0  0  0  0  0  0
   -0.4481   22.4496  -24.4265 H   0  0  0  0  0  0  0  0  0  0  0  0
   -1.3605   22.4350  -25.9738 H   0  0  0  0  0  0  0  0  0  0  0  0
    0.4022   22.7808  -25.9738 H   0  0  0  0  0  0  0  0  0  0  0  0
    0.3660   24.5800  -23.5550 H   0  0  0  0  0  0  0  0  0  0  0  0
   -0.0156   26.9399  -23.2272 H   0  0  0  0  0  0  0  0  0  0  0  0
   -1.4927   28.1580  -24.8372 H   0  0  0  0  0  0  0  0  0  0  0  0
   -4.3173   24.5324  -26.9022 H   0  0  0  0  0  0  0  0  0  0  0  0
   -3.4635   23.0745  -26.2389 H   0  0  0  0  0  0  0  0  0  0  0  0
   -5.0559   22.6895  -28.2211 H   0  0  0  0  0  0  0  0  0  0  0  0
   -3.6875   20.8600  -28.9251 H   0  0  0  0  0  0  0  0  0  0  0  0
   -2.7899   21.2962  -27.4728 H   0  0  0  0  0  0  0  0  0  0  0  0
   -1.9145   21.5018  -30.2573 H   0  0  0  0  0  0  0  0  0  0  0  0
   -0.9748   21.9573  -28.8383 H   0  0  0  0  0  0  0  0  0  0  0  0
   -1.8356   23.8542  -30.6519 H   0  0  0  0  0  0  0  0  0  0  0  0
   -1.5904   25.5282  -28.9702 H   0  0  0  0  0  0  0  0  0  0  0  0
   -0.5213   24.1513  -28.4649 H   0  0  0  0  0  0  0  0  0  0  0  0
   -6.0883   24.5591  -28.7231 H   0  0  0  0  0  0  0  0  0  0  0  0
   -6.1841   25.9740  -29.8396 H   0  0  0  0  0  0  0  0  0  0  0  0
   -4.9221   23.4152  -31.5814 H   0  0  0  0  0  0  0  0  0  0  0  0
   -6.4272   23.0452  -32.4894 H   0  0  0  0  0  0  0  0  0  0  0  0
   -5.7658   24.7153  -32.4894 H   0  0  0  0  0  0  0  0  0  0  0  0
   -7.1326   22.9733  -28.9734 H   0  0  0  0  0  0  0  0  0  0  0  0
   -8.2060   22.6696  -30.3813 H   0  0  0  0  0  0  0  0  0  0  0  0
   -6.5244   22.0381  -30.3813 H   0  0  0  0  0  0  0  0  0  0  0  0
  1  2  1  0
  2  3  2  0
  3  4  1  0
  4  5  2  0
  5  6  1  0
  6  7  2  0
  7  8  1  0
  8  9  1  0
  9 10  1  0
 10 11  1  0
 11 12  1  0
 12 13  1  0
 13 14  1  0
 13 15  1  0
 15 16  1  0
 16 17  2  0
 16 18  1  0
 18 19  1  0
 19 20  1  0
 19 21  1  0
  7  2  1  0
 14  8  1  0
 15 10  1  0
  1 22  1  0
  1 23  1  0
  1 24  1  0
  3 25  1  0
  4 26  1  0
  5 27  1  0
  9 28  1  0
  9 29  1  0
 10 30  1  1
 11 31  1  0
 11 32  1  0
 12 33  1  0
 12 34  1  0
 13 35  1  6
 14 36  1  0
 14 37  1  0
 18 38  1  0
 18 39  1  0
 20 40  1  0
 20 41  1  0
 20 42  1  0
 21 43  1  0
 21 44  1  0
 21 45  1  0
M  CHG  1   3   1
M  END
>  <UniqueID>  (17) 
17

>  <SMILES>  (17) 
Cc1[nH+]ccnc1N1C[C@H]2CC[C@@H](C1)N2C(=O)CN(C)C

>  <Energy>  (17) 
63.51253143674241

>  <Genealogy>  (17) 
Cc1[nH+]ccnc1N1CC2CCC(C1)N2C(=O)CN(C)C (protonated)
Cc1[nH+]ccnc1N1C[C@H]2CC[C@@H](C1)N2C(=O)CN(C)C (chirality)
Cc1[nH+]ccnc1N1C[C@H]2CC[C@@H](C1)N2C(=O)CN(C)C (3D coordinates assigned)
Cc1[nH+]ccnc1N1C[C@H]2CC[C@@H](C1)N2C(=O)CN(C)C (nonaromatic ring conformer: 63.51253143674241 kcal/mol)

>  <smiles>  (17) 
Cc1nccnc1N1CC2CCC(C1)N2C(=O)CN(C)C

>  <score_type>  (17) 
oracle

>  <origin>  (17) 
adg

>  <m_score__min__energy>  (17) 
-7.4000000000000004

>  <m_primary>  (17) 
energy

$$$$
17:0
     RDKit          3D

 62 65  0  0  0  0  0  0  0  0999 V2000
   -7.3810   23.6030  -31.3820 C   0  0  0  0  0  0  0  0  0  0  0  0
   -5.9470   23.7610  -31.8750 C   0  0  0  0  0  0  0  0  0  0  0  0
   -4.9960   23.5190  -30.7780 N   0  0  0  0  0  0  0  0  0  0  0  0
   -4.9630   22.2820  -30.1940 C   0  0  0  0  0  0  0  0  0  0  0  0
   -4.0950   22.0160  -29.1340 C   0  0  0  0  0  0  0  0  0  0  0  0
   -3.2530   23.0260  -28.6580 C   0  0  0  0  0  0  0  0  0  0  0  0
   -2.3280   22.7710  -27.4950 C   0  0  0  0  0  0  0  0  0  0  0  0
   -1.0490   22.1810  -27.9480 N   0  0  0  0  0  0  0  0  0  0  0  0
   -1.2010   20.7340  -28.2510 C   0  0  0  0  0  0  0  0  0  0  0  0
   -0.0710   20.2150  -29.1530 C   0  0  0  0  0  0  0  0  0  0  0  0
    0.0130   20.9620  -30.4310 N   0  0  0  0  0  0  0  0  0  0  0  0
   -0.2500   20.1520  -31.6410 C   0  0  0  0  0  0  0  0  0  0  0  0
   -0.0100   20.8930  -32.9700 C   0  0  0  0  0  0  0  0  0  0  0  0
   -0.9850   20.5110  -33.9350 O   0  0  0  0  0  0  0  0  0  0  0  0
   -2.3320   20.2470  -33.6430 C   0  0  0  0  0  0  0  0  0  0  0  0
   -2.8610   18.9450  -33.6320 C   0  0  0  0  0  0  0  0  0  0  0  0
   -4.2080   18.7330  -33.3240 C   0  0  0  0  0  0  0  0  0  0  0  0
   -5.0520   19.8180  -33.0240 C   0  0  0  0  0  0  0  0  0  0  0  0
   -6.4830   19.5940  -32.6940 C   0  0  0  0  0  0  0  0  0  0  0  0
   -6.9300   18.3270  -32.2720 C   0  0  0  0  0  0  0  0  0  0  0  0
   -8.2780   18.1190  -31.9610 C   0  0  0  0  0  0  0  0  0  0  0  0
   -9.1910   19.1690  -32.0690 C   0  0  0  0  0  0  0  0  0  0  0  0
   -8.7610   20.4300  -32.4870 C   0  0  0  0  0  0  0  0  0  0  0  0
   -7.4150   20.6440  -32.7980 C   0  0  0  0  0  0  0  0  0  0  0  0
   -4.5180   21.1180  -33.0420 C   0  0  0  0  0  0  0  0  0  0  0  0
   -3.1700   21.3270  -33.3490 C   0  0  0  0  0  0  0  0  0  0  0  0
   -0.6610   22.2750  -30.4250 C   0  0  0  0  0  0  0  0  0  0  0  0
   -0.4630   22.9630  -29.0690 C   0  0  0  0  0  0  0  0  0  0  0  0
   -3.3110   24.2930  -29.2460 C   0  0  0  0  0  0  0  0  0  0  0  0
   -4.1920   24.5280  -30.3060 C   0  0  0  0  0  0  0  0  0  0  0  0
   -4.2370   25.6800  -30.8180 O   0  0  0  0  0  0  0  0  0  0  0  0
   -7.3925   23.6017  -30.2821 H   0  0  0  0  0  0  0  0  0  0  0  0
   -7.9909   24.4394  -31.7541 H   0  0  0  0  0  0  0  0  0  0  0  0
   -7.7942   22.6539  -31.7541 H   0  0  0  0  0  0  0  0  0  0  0  0
   -5.7599   23.0379  -32.6826 H   0  0  0  0  0  0  0  0  0  0  0  0
   -5.8090   24.7873  -32.2460 H   0  0  0  0  0  0  0  0  0  0  0  0
   -5.6283   21.4881  -30.5643 H   0  0  0  0  0  0  0  0  0  0  0  0
   -4.0733   21.0165  -28.6751 H   0  0  0  0  0  0  0  0  0  0  0  0
   -2.1228   23.7234  -26.9842 H   0  0  0  0  0  0  0  0  0  0  0  0
   -2.8161   22.0612  -26.8109 H   0  0  0  0  0  0  0  0  0  0  0  0
   -1.1895   20.1700  -27.3067 H   0  0  0  0  0  0  0  0  0  0  0  0
   -2.1531   20.5959  -28.7843 H   0  0  0  0  0  0  0  0  0  0  0  0
    0.8848   20.3186  -28.6186 H   0  0  0  0  0  0  0  0  0  0  0  0
   -0.2847   19.1624  -29.3904 H   0  0  0  0  0  0  0  0  0  0  0  0
    0.4086   19.2713  -31.6148 H   0  0  0  0  0  0  0  0  0  0  0  0
   -1.3183   19.8909  -31.6167 H   0  0  0  0  0  0  0  0  0  0  0  0
   -0.0764   21.9773  -32.7974 H   0  0  0  0  0  0  0  0  0  0  0  0
    0.9888   20.6308  -33.3491 H   0  0  0  0  0  0  0  0  0  0  0  0
   -2.2119   18.0885  -33.8669 H   0  0  0  0  0  0  0  0  0  0  0  0
   -4.6113   17.7096  -33.3161 H   0  0  0  0  0  0  0  0  0  0  0  0
   -6.2147   17.4957  -32.1864 H   0  0  0  0  0  0  0  0  0  0  0  0
   -8.6188   17.1266  -31.6309 H   0  0  0  0  0  0  0  0  0  0  0  0
  -10.2506   19.0030  -31.8246 H   0  0  0  0  0  0  0  0  0  0  0  0
   -9.4824   21.2561  -32.5717 H   0  0  0  0  0  0  0  0  0  0  0  0
   -7.0818   21.6396  -33.1262 H   0  0  0  0  0  0  0  0  0  0  0  0
   -5.1653   21.9773  -32.8129 H   0  0  0  0  0  0  0  0  0  0  0  0
   -2.7653   22.3498  -33.3593 H   0  0  0  0  0  0  0  0  0  0  0  0
   -0.2350   22.9062  -31.2188 H   0  0  0  0  0  0  0  0  0  0  0  0
   -1.7369   22.1281  -30.6004 H   0  0  0  0  0  0  0  0  0  0  0  0
    0.6152   23.0859  -28.8888 H   0  0  0  0  0  0  0  0  0  0  0  0
   -0.9775   23.9345  -29.1065 H   0  0  0  0  0  0  0  0  0  0  0  0
   -2.6653   25.1029  -28.8757 H   0  0  0  0  0  0  0  0  0  0  0  0
  1  2  1  0
  2  3  1  0
  3  4  1  0
  4  5  2  0
  5  6  1  0
  6  7  1  0
  7  8  1  0
  8  9  1  0
  9 10  1  0
 10 11  1  0
 11 12  1  0
 12 13  1  0
 13 14  1  0
 14 15  1  0
 15 16  2  0
 16 17  1  0
 17 18  2  0
 18 19  1  0
 19 20  2  0
 20 21  1  0
 21 22  2  0
 22 23  1  0
 23 24  2  0
 18 25  1  0
 25 26  2  0
 11 27  1  0
 27 28  1  0
  6 29  2  0
 29 30  1  0
 30 31  2  0
 30  3  1  0
 28  8  1  0
 26 15  1  0
 24 19  1  0
  1 32  1  0
  1 33  1  0
  1 34  1  0
  2 35  1  0
  2 36  1  0
  4 37  1  0
  5 38  1  0
  7 39  1  0
  7 40  1  0
  9 41  1  0
  9 42  1  0
 10 43  1  0
 10 44  1  0
 12 45  1  0
 12 46  1  0
 13 47  1  0
 13 48  1  0
 16 49  1  0
 17 50  1  0
 20 51  1  0
 21 52  1  0
 22 53  1  0
 23 54  1  0
 24 55  1  0
 25 56  1  0
 26 57  1  0
 27 58  1  0
 27 59  1  0
 28 60  1  0
 28 61  1  0
 29 62  1  0
M  END
>  <UniqueID>  (18) 
18

>  <SMILES>  (18) 
CCn1ccc(CN2CCN(CCOc3ccc(-c4ccccc4)cc3)CC2)cc1=O

>  <Energy>  (18) 
83.96074933708763

>  <Genealogy>  (18) 
CCn1ccc(CN2CCN(CCOc3ccc(-c4ccccc4)cc3)CC2)cc1=O (3D coordinates assigned)
CCn1ccc(CN2CCN(CCOc3ccc(-c4ccccc4)cc3)CC2)cc1=O (nonaromatic ring conformer: 83.96074933708763 kcal/mol)

>  <smiles>  (18) 
CCn1ccc(CN2CCN(CCOc3ccc(-c4ccccc4)cc3)CC2)cc1=O

>  <score_type>  (18) 
oracle

>  <origin>  (18) 
adg

>  <m_score__min__energy>  (18) 
-10.56

>  <m_primary>  (18) 
energy

$$$$
18:0
     RDKit          3D

 38 39  0  0  0  0  0  0  0  0999 V2000
   -4.6420   20.8690  -31.1880 C   0  0  0  0  0  0  0  0  0  0  0  0
   -4.9510   21.9180  -32.1800 N   0  0  0  0  0  0  0  0  0  0  0  0
   -3.9490   21.8850  -33.2590 C   0  0  0  0  0  0  0  0  0  0  0  0
   -4.9830   23.2660  -31.5620 C   0  0  0  0  0  0  0  0  0  0  0  0
   -6.4250   23.7830  -31.3470 C   0  0  0  0  0  0  0  0  0  0  0  0
   -7.3630   23.2620  -32.3530 N   0  0  0  0  0  0  0  0  0  0  0  0
   -8.4560   22.4810  -31.7540 C   0  0  0  0  0  0  0  0  0  0  0  0
   -8.4810   21.0640  -32.3400 C   0  0  2  0  0  0  0  0  0  0  0  0
   -8.7080   19.9940  -31.2510 C   0  0  0  0  0  0  0  0  0  0  0  0
   -8.5240   18.6870  -31.8000 O   0  0  0  0  0  0  0  0  0  0  0  0
   -7.5070   18.4290  -32.7240 C   0  0  0  0  0  0  0  0  0  0  0  0
   -7.1510   17.1170  -33.0500 C   0  0  0  0  0  0  0  0  0  0  0  0
   -6.1090   16.8830  -33.9540 C   0  0  0  0  0  0  0  0  0  0  0  0
   -5.4260   17.9600  -34.5330 C   0  0  0  0  0  0  0  0  0  0  0  0
   -5.7930   19.2740  -34.2190 C   0  0  0  0  0  0  0  0  0  0  0  0
   -6.8440   19.5070  -33.3250 C   0  0  0  0  0  0  0  0  0  0  0  0
   -7.2470   20.8110  -33.0200 O   0  0  0  0  0  0  0  0  0  0  0  0
   -4.7622   21.2769  -30.1735 H   0  0  0  0  0  0  0  0  0  0  0  0
   -5.3284   20.0205  -31.3257 H   0  0  0  0  0  0  0  0  0  0  0  0
   -3.6053   20.5281  -31.3257 H   0  0  0  0  0  0  0  0  0  0  0  0
   -5.8850   21.7090  -32.6070 H   0  0  0  0  0  0  0  0  0  0  0  0
   -2.9402   21.8518  -32.8217 H   0  0  0  0  0  0  0  0  0  0  0  0
   -4.1088   20.9916  -33.8806 H   0  0  0  0  0  0  0  0  0  0  0  0
   -4.0497   22.7869  -33.8806 H   0  0  0  0  0  0  0  0  0  0  0  0
   -4.4755   23.2197  -30.5872 H   0  0  0  0  0  0  0  0  0  0  0  0
   -4.4767   23.9611  -32.2479 H   0  0  0  0  0  0  0  0  0  0  0  0
   -6.7673   23.4705  -30.3494 H   0  0  0  0  0  0  0  0  0  0  0  0
   -6.4061   24.8788  -31.4416 H   0  0  0  0  0  0  0  0  0  0  0  0
   -6.8470   22.6620  -33.0400 H   0  0  0  0  0  0  0  0  0  0  0  0
   -8.3053   22.4211  -30.6660 H   0  0  0  0  0  0  0  0  0  0  0  0
   -9.4128   22.9766  -31.9752 H   0  0  0  0  0  0  0  0  0  0  0  0
   -9.3229   21.0018  -33.0453 H   0  0  0  0  0  0  0  0  0  0  0  0
   -7.9892   20.1494  -30.4329 H   0  0  0  0  0  0  0  0  0  0  0  0
   -9.7356   20.0822  -30.8685 H   0  0  0  0  0  0  0  0  0  0  0  0
   -7.6886   16.2709  -32.5971 H   0  0  0  0  0  0  0  0  0  0  0  0
   -5.8258   15.8515  -34.2104 H   0  0  0  0  0  0  0  0  0  0  0  0
   -4.6002   17.7732  -35.2353 H   0  0  0  0  0  0  0  0  0  0  0  0
   -5.2571   20.1203  -34.6734 H   0  0  0  0  0  0  0  0  0  0  0  0
  1  2  1  0
  2  3  1  0
  2  4  1  0
  4  5  1  0
  5  6  1  0
  6  7  1  0
  7  8  1  0
  8  9  1  0
  9 10  1  0
 10 11  1  0
 11 12  2  0
 12 13  1  0
 13 14  2  0
 14 15  1  0
 15 16  2  0
 16 17  1  0
 17  8  1  0
 16 11  1  0
  1 18  1  0
  1 19  1  0
  1 20  1  0
  2 21  1  0
  3 22  1  0
  3 23  1  0
  3 24  1  0
  4 25  1  0
  4 26  1  0
  5 27  1  0
  5 28  1  0
  6 29  1  0
  7 30  1  0
  7 31  1  0
  8 32  1  6
  9 33  1  0
  9 34  1  0
 12 35  1  0
 13 36  1  0
 14 37  1  0
 15 38  1  0
M  CHG  1   2   1
M  END
>  <UniqueID>  (19) 
19

>  <SMILES>  (19) 
C[NH+](C)CCNC[C@@H]1COc2ccccc2O1

>  <Energy>  (19) 
37.07691081320691

>  <Genealogy>  (19) 
C[NH+](C)CCNCC1COc2ccccc2O1 (protonated)
C[NH+](C)CCNC[C@@H]1COc2ccccc2O1 (chirality)
C[NH+](C)CCNC[C@@H]1COc2ccccc2O1 (3D coordinates assigned)
C[NH+](C)CCNC[C@@H]1COc2ccccc2O1 (nonaromatic ring conformer: 37.07691081320691 kcal/mol)

>  <smiles>  (19) 
CN(C)CCNCC1COc2ccccc2O1

>  <score_type>  (19) 
oracle

>  <origin>  (19) 
adg

>  <m_score__min__energy>  (19) 
-4.2599999999999998

>  <m_primary>  (19) 
energy

$$$$
19:0
     RDKit          3D

 73 75  0  0  0  0  0  0  0  0999 V2000
   -0.2660   21.5130  -27.1390 C   0  0  0  0  0  0  0  0  0  0  0  0
   -0.6800   20.0860  -27.4940 C   0  0  0  0  0  0  0  0  0  0  0  0
   -1.9800   20.0780  -28.2030 N   0  0  0  0  0  0  0  0  0  0  0  0
   -3.0960   19.7120  -27.2930 C   0  0  0  0  0  0  0  0  0  0  0  0
   -2.6480   18.6040  -26.3460 C   0  0  0  0  0  0  0  0  0  0  0  0
   -2.2140   21.3800  -28.8690 C   0  0  0  0  0  0  0  0  0  0  0  0
   -2.0680   21.2550  -30.3930 C   0  0  0  0  0  0  0  0  0  0  0  0
   -3.3830   21.1170  -31.0390 N   0  0  0  0  0  0  0  0  0  0  0  0
   -4.4900   21.9940  -30.6150 C   0  0  0  0  0  0  0  0  0  0  0  0
   -4.6040   23.2440  -31.4960 C   0  0  0  0  0  0  0  0  0  0  0  0
   -4.3040   24.4810  -30.7240 N   0  0  0  0  0  0  0  0  0  0  0  0
   -5.4220   25.4500  -30.8200 C   0  0  0  0  0  0  0  0  0  0  0  0
   -6.4910   25.1960  -29.7530 C   0  0  0  0  0  0  0  0  0  0  0  0
   -3.9850   24.1710  -29.3080 C   0  0  0  0  0  0  0  0  0  0  0  0
   -2.5500   24.5660  -28.9670 C   0  0  0  0  0  0  0  0  0  0  0  0
   -3.5250   20.1510  -32.1060 C   0  0  0  0  0  0  0  0  0  0  0  0
   -2.8370   19.0940  -32.0780 O   0  0  0  0  0  0  0  0  0  0  0  0
   -4.4160   20.3820  -33.2980 C   0  0  0  0  0  0  0  0  0  0  0  0
   -5.3700   19.2770  -33.4270 N   0  0  0  0  0  0  0  0  0  0  0  0
   -6.6650   19.2420  -33.0040 C   0  0  0  0  0  0  0  0  0  0  0  0
   -7.4020   20.3780  -32.4140 C   0  0  0  0  0  0  0  0  0  0  0  0
   -7.0400   21.7020  -32.7120 C   0  0  0  0  0  0  0  0  0  0  0  0
   -7.7440   22.7690  -32.1420 C   0  0  0  0  0  0  0  0  0  0  0  0
   -8.8230   22.5200  -31.2890 C   0  0  0  0  0  0  0  0  0  0  0  0
   -9.2060   21.2060  -31.0090 C   0  0  0  0  0  0  0  0  0  0  0  0
   -8.5020   20.1360  -31.5730 C   0  0  0  0  0  0  0  0  0  0  0  0
   -7.1830   17.9530  -33.1040 C   0  0  0  0  0  0  0  0  0  0  0  0
   -6.1530   17.1870  -33.5990 C   0  0  0  0  0  0  0  0  0  0  0  0
   -6.0960   15.8200  -33.8600 C   0  0  0  0  0  0  0  0  0  0  0  0
   -4.8740   15.2870  -34.3090 C   0  0  0  0  0  0  0  0  0  0  0  0
   -3.7490   16.1230  -34.4780 C   0  0  0  0  0  0  0  0  0  0  0  0
   -3.8350   17.4990  -34.2020 C   0  0  0  0  0  0  0  0  0  0  0  0
   -5.0670   18.0090  -33.7730 C   0  0  0  0  0  0  0  0  0  0  0  0
   -0.2338   21.6240  -26.0451 H   0  0  0  0  0  0  0  0  0  0  0  0
    0.7295   21.7210  -27.5581 H   0  0  0  0  0  0  0  0  0  0  0  0
   -0.9956   22.2215  -27.5581 H   0  0  0  0  0  0  0  0  0  0  0  0
    0.0875   19.6383  -28.1425 H   0  0  0  0  0  0  0  0  0  0  0  0
   -0.7810   19.5061  -26.5648 H   0  0  0  0  0  0  0  0  0  0  0  0
   -3.3942   20.5943  -26.7077 H   0  0  0  0  0  0  0  0  0  0  0  0
   -3.9495   19.3571  -27.8894 H   0  0  0  0  0  0  0  0  0  0  0  0
   -2.7817   18.9347  -25.3054 H   0  0  0  0  0  0  0  0  0  0  0  0
   -3.2522   17.7023  -26.5247 H   0  0  0  0  0  0  0  0  0  0  0  0
   -1.5869   18.3757  -26.5247 H   0  0  0  0  0  0  0  0  0  0  0  0
   -3.2307   21.7270  -28.6326 H   0  0  0  0  0  0  0  0  0  0  0  0
   -1.4658   22.0990  -28.5039 H   0  0  0  0  0  0  0  0  0  0  0  0
   -1.5689   22.1550  -30.7816 H   0  0  0  0  0  0  0  0  0  0  0  0
   -1.4722   20.3575  -30.6156 H   0  0  0  0  0  0  0  0  0  0  0  0
   -5.4326   21.4301  -30.6753 H   0  0  0  0  0  0  0  0  0  0  0  0
   -4.2872   22.3223  -29.5849 H   0  0  0  0  0  0  0  0  0  0  0  0
   -3.8913   23.1606  -32.3297 H   0  0  0  0  0  0  0  0  0  0  0  0
   -5.6361   23.3110  -31.8705 H   0  0  0  0  0  0  0  0  0  0  0  0
   -5.0235   26.4669  -30.6892 H   0  0  0  0  0  0  0  0  0  0  0  0
   -5.8915   25.3322  -31.8078 H   0  0  0  0  0  0  0  0  0  0  0  0
   -6.0440   25.3022  -28.7536 H   0  0  0  0  0  0  0  0  0  0  0  0
   -7.3060   25.9255  -29.8696 H   0  0  0  0  0  0  0  0  0  0  0  0
   -6.8908   24.1779  -29.8696 H   0  0  0  0  0  0  0  0  0  0  0  0
   -4.6748   24.7256  -28.6549 H   0  0  0  0  0  0  0  0  0  0  0  0
   -4.0940   23.0871  -29.1552 H   0  0  0  0  0  0  0  0  0  0  0  0
   -2.4287   24.5994  -27.8742 H   0  0  0  0  0  0  0  0  0  0  0  0
   -1.8554   23.8256  -29.3906 H   0  0  0  0  0  0  0  0  0  0  0  0
   -2.3321   25.5575  -29.3906 H   0  0  0  0  0  0  0  0  0  0  0  0
   -4.9659   21.3254  -33.1654 H   0  0  0  0  0  0  0  0  0  0  0  0
   -3.7991   20.4368  -34.2071 H   0  0  0  0  0  0  0  0  0  0  0  0
   -6.2011   21.9008  -33.3951 H   0  0  0  0  0  0  0  0  0  0  0  0
   -7.4479   23.8045  -32.3655 H   0  0  0  0  0  0  0  0  0  0  0  0
   -9.3714   23.3599  -30.8375 H   0  0  0  0  0  0  0  0  0  0  0  0
  -10.0613   21.0123  -30.3449 H   0  0  0  0  0  0  0  0  0  0  0  0
   -8.8104   19.1024  -31.3575 H   0  0  0  0  0  0  0  0  0  0  0  0
   -8.1981   17.6190  -32.8431 H   0  0  0  0  0  0  0  0  0  0  0  0
   -6.9780   15.1779  -33.7196 H   0  0  0  0  0  0  0  0  0  0  0  0
   -4.7945   14.2123  -34.5297 H   0  0  0  0  0  0  0  0  0  0  0  0
   -2.7982   15.6948  -34.8282 H   0  0  0  0  0  0  0  0  0  0  0  0
   -2.9604   18.1557  -34.3195 H   0  0  0  0  0  0  0  0  0  0  0  0
  1  2  1  0
  2  3  1  0
  3  4  1  0
  4  5  1  0
  3  6  1  0
  6  7  1  0
  7  8  1  0
  8  9  1  0
  9 10  1  0
 10 11  1  0
 11 12  1  0
 12 13  1  0
 11 14  1  0
 14 15  1  0
  8 16  1  0
 16 17  2  0
 16 18  1  0
 18 19  1  0
 19 20  1  0
 20 21  1  0
 21 22  2  0
 22 23  1  0
 23 24  2  0
 24 25  1  0
 25 26  2  0
 20 27  2  0
 27 28  1  0
 28 29  2  0
 29 30  1  0
 30 31  2  0
 31 32  1  0
 32 33  2  0
 33 19  1  0
 26 21  1  0
 33 28  1  0
  1 34  1  0
  1 35  1  0
  1 36  1  0
  2 37  1  0
  2 38  1  0
  4 39  1  0
  4 40  1  0
  5 41  1  0
  5 42  1  0
  5 43  1  0
  6 44  1  0
  6 45  1  0
  7 46  1  0
  7 47  1  0
  9 48  1  0
  9 49  1  0
 10 50  1  0
 10 51  1  0
 12 52  1  0
 12 53  1  0
 13 54  1  0
 13 55  1  0
 13 56  1  0
 14 57  1  0
 14 58  1  0
 15 59  1  0
 15 60  1  0
 15 61  1  0
 18 62  1  0
 18 63  1  0
 22 64  1  0
 23 65  1  0
 24 66  1  0
 25 67  1  0
 26 68  1  0
 27 69  1  0
 29 70  1  0
 30 71  1  0
 31 72  1  0
 32 73  1  0
M  END
>  <UniqueID>  (20) 
20

>  <SMILES>  (20) 
CCN(CC)CCN(CCN(CC)CC)C(=O)Cn1c(-c2ccccc2)cc2ccccc21

>  <Energy>  (20) 
107.6993708924937

>  <Genealogy>  (20) 
CCN(CC)CCN(CCN(CC)CC)C(=O)Cn1c(-c2ccccc2)cc2ccccc21 (3D coordinates assigned)
CCN(CC)CCN(CCN(CC)CC)C(=O)Cn1c(-c2ccccc2)cc2ccccc21 (optimized conformer: 107.6993708924937 kcal/mol)

>  <smiles>  (20) 
CCN(CC)CCN(CCN(CC)CC)C(=O)Cn1c(-c2ccccc2)cc2ccccc21

>  <score_type>  (20) 
oracle

>  <origin>  (20) 
adg

>  <m_score__min__energy>  (20) 
-9.4600000000000009

>  <m_primary>  (20) 
energy

$$$$
20:0
     RDKit          3D

 47 49  0  0  0  0  0  0  0  0999 V2000
   -6.6170   24.5190  -30.4280 C   0  0  0  0  0  0  0  0  0  0  0  0
   -5.3600   25.2880  -30.8250 C   0  0  0  0  0  0  0  0  0  0  0  0
   -4.1890   24.3810  -30.8460 N   0  0  0  0  0  0  0  0  0  0  0  0
   -3.3430   24.5340  -29.6350 C   0  0  0  0  0  0  0  0  0  0  0  0
   -3.9130   23.8590  -28.3800 C   0  0  0  0  0  0  0  0  0  0  0  0
   -4.5930   22.9820  -31.1280 C   0  0  0  0  0  0  0  0  0  0  0  0
   -3.6140   22.2850  -32.0930 C   0  0  0  0  0  0  0  0  0  0  0  0
   -4.2510   21.9330  -33.3750 N   0  0  0  0  0  0  0  0  0  0  0  0
   -4.9470   20.6630  -33.2990 C   0  0  0  0  0  0  0  0  0  0  0  0
   -6.2940   20.5370  -32.8520 C   0  0  0  0  0  0  0  0  0  0  0  0
   -7.0370   21.6580  -32.4210 C   0  0  0  0  0  0  0  0  0  0  0  0
   -8.3550   21.5200  -31.9930 C   0  0  0  0  0  0  0  0  0  0  0  0
   -8.9650   20.2720  -31.9860 C   0  0  0  0  0  0  0  0  0  0  0  0
   -8.2630   19.1430  -32.4040 C   0  0  0  0  0  0  0  0  0  0  0  0
   -6.9200   19.2380  -32.8430 C   0  0  0  0  0  0  0  0  0  0  0  0
   -6.2190   18.1150  -33.2580 N   0  0  0  0  0  0  0  0  0  0  0  0
   -6.8410   16.7780  -33.2470 C   0  0  0  0  0  0  0  0  0  0  0  0
   -4.9300   18.2830  -33.6870 C   0  0  0  0  0  0  0  0  0  0  0  0
   -4.0150   17.3620  -34.1720 C   0  0  0  0  0  0  0  0  0  0  0  0
   -2.8820   18.1080  -34.4580 C   0  0  0  0  0  0  0  0  0  0  0  0
   -3.0870   19.3790  -34.1720 O   0  0  0  0  0  0  0  0  0  0  0  0
   -4.3090   19.4970  -33.7120 C   0  0  0  0  0  0  0  0  0  0  0  0
   -6.6889   24.4750  -29.3312 H   0  0  0  0  0  0  0  0  0  0  0  0
   -7.5028   25.0300  -30.8333 H   0  0  0  0  0  0  0  0  0  0  0  0
   -6.5654   23.4977  -30.8333 H   0  0  0  0  0  0  0  0  0  0  0  0
   -5.5009   25.7222  -31.8258 H   0  0  0  0  0  0  0  0  0  0  0  0
   -5.1815   26.0867  -30.0900 H   0  0  0  0  0  0  0  0  0  0  0  0
   -2.3568   24.0945  -29.8454 H   0  0  0  0  0  0  0  0  0  0  0  0
   -3.2921   25.6114  -29.4190 H   0  0  0  0  0  0  0  0  0  0  0  0
   -3.5020   24.3457  -27.4832 H   0  0  0  0  0  0  0  0  0  0  0  0
   -5.0090   23.9532  -28.3787 H   0  0  0  0  0  0  0  0  0  0  0  0
   -3.6365   22.7943  -28.3787 H   0  0  0  0  0  0  0  0  0  0  0  0
   -4.6192   22.4217  -30.1818 H   0  0  0  0  0  0  0  0  0  0  0  0
   -5.5845   23.0026  -31.6040 H   0  0  0  0  0  0  0  0  0  0  0  0
   -2.7698   22.9618  -32.2910 H   0  0  0  0  0  0  0  0  0  0  0  0
   -3.2767   21.3527  -31.6165 H   0  0  0  0  0  0  0  0  0  0  0  0
   -3.5290   21.8980  -34.1300 H   0  0  0  0  0  0  0  0  0  0  0  0
   -4.9090   22.6960  -33.6590 H   0  0  0  0  0  0  0  0  0  0  0  0
   -6.5685   22.6532  -32.4234 H   0  0  0  0  0  0  0  0  0  0  0  0
   -8.9165   22.4047  -31.6584 H   0  0  0  0  0  0  0  0  0  0  0  0
  -10.0075   20.1744  -31.6488 H   0  0  0  0  0  0  0  0  0  0  0  0
   -8.7603   18.1619  -32.3927 H   0  0  0  0  0  0  0  0  0  0  0  0
   -6.9924   16.4526  -32.2072 H   0  0  0  0  0  0  0  0  0  0  0  0
   -7.8116   16.8209  -33.7628 H   0  0  0  0  0  0  0  0  0  0  0  0
   -6.1830   16.0632  -33.7628 H   0  0  0  0  0  0  0  0  0  0  0  0
   -4.1564   16.2788  -34.3014 H   0  0  0  0  0  0  0  0  0  0  0  0
   -1.9459   17.6984  -34.8653 H   0  0  0  0  0  0  0  0  0  0  0  0
  1  2  1  0
  2  3  1  0
  3  4  1  0
  4  5  1  0
  3  6  1  0
  6  7  1  0
  7  8  1  0
  8  9  1  0
  9 10  2  0
 10 11  1  0
 11 12  2  0
 12 13  1  0
 13 14  2  0
 14 15  1  0
 15 16  2  0
 16 17  1  0
 16 18  1  0
 18 19  1  0
 19 20  2  0
 20 21  1  0
 21 22  1  0
 22  9  1  0
 15 10  1  0
 22 18  2  0
  1 23  1  0
  1 24  1  0
  1 25  1  0
  2 26  1  0
  2 27  1  0
  4 28  1  0
  4 29  1  0
  5 30  1  0
  5 31  1  0
  5 32  1  0
  6 33  1  0
  6 34  1  0
  7 35  1  0
  7 36  1  0
  8 37  1  0
  8 38  1  0
 11 39  1  0
 12 40  1  0
 13 41  1  0
 14 42  1  0
 17 43  1  0
 17 44  1  0
 17 45  1  0
 19 46  1  0
 20 47  1  0
M  CHG  2   8   1  16   1
M  END
>  <UniqueID>  (21) 
21

>  <SMILES>  (21) 
CCN(CC)CC[NH2+]c1c2ccccc2[n+](C)c2ccoc12

>  <Energy>  (21) 
95.15164925047534

>  <Genealogy>  (21) 
CCN(CC)CC[NH2+]c1c2ccccc2[n+](C)c2ccoc12 (protonated)
CCN(CC)CC[NH2+]c1c2ccccc2[n+](C)c2ccoc12 (3D coordinates assigned)
CCN(CC)CC[NH2+]c1c2ccccc2[n+](C)c2ccoc12 (optimized conformer: 95.15164925047534 kcal/mol)

>  <smiles>  (21) 
CCN(CC)CCNc1c2ccccc2[n+](C)c2ccoc12

>  <score_type>  (21) 
oracle

>  <origin>  (21) 
adg

>  <m_score__min__energy>  (21) 
-7.2199999999999998

>  <m_primary>  (21) 
energy

$$$$
21:0
     RDKit          3D

 62 65  0  0  0  0  0  0  0  0999 V2000
   -0.6540   22.5200  -25.9590 C   0  0  0  0  0  0  0  0  0  0  0  0
   -1.4260   21.5170  -26.8190 C   0  0  0  0  0  0  0  0  0  0  0  0
   -0.5710   20.4170  -27.3280 N   0  0  0  0  0  0  0  0  0  0  0  0
   -1.2670   19.1160  -27.2110 C   0  0  0  0  0  0  0  0  0  0  0  0
   -2.7030   19.2800  -26.7130 C   0  0  0  0  0  0  0  0  0  0  0  0
    0.0410   20.6640  -28.6620 C   0  0  0  0  0  0  0  0  0  0  0  0
   -0.5020   19.8020  -29.8240 C   0  0  0  0  0  0  0  0  0  0  0  0
   -0.8620   20.6080  -30.9890 N   0  0  0  0  0  0  0  0  0  0  0  0
   -2.2400   20.7860  -31.3420 C   0  0  0  0  0  0  0  0  0  0  0  0
   -2.9020   19.8120  -32.0830 C   0  0  0  0  0  0  0  0  0  0  0  0
   -4.2160   19.9890  -32.4680 C   0  0  0  0  0  0  0  0  0  0  0  0
   -4.9600   21.0620  -32.0420 N   0  0  0  0  0  0  0  0  0  0  0  0
   -6.4240   21.0470  -32.1890 C   0  0  0  0  0  0  0  0  0  0  0  0
   -4.3070   22.1080  -31.4090 C   0  0  0  0  0  0  0  0  0  0  0  0
   -4.9570   23.3360  -31.1420 C   0  0  0  0  0  0  0  0  0  0  0  0
   -4.3050   24.3760  -30.4560 C   0  0  0  0  0  0  0  0  0  0  0  0
   -4.9410   25.5950  -30.1720 O   0  0  0  0  0  0  0  0  0  0  0  0
   -6.1910   25.7230  -29.5030 C   0  0  0  0  0  0  0  0  0  0  0  0
   -2.9810   24.2100  -30.0370 C   0  0  0  0  0  0  0  0  0  0  0  0
   -2.3690   25.2660  -29.3400 O   0  0  0  0  0  0  0  0  0  0  0  0
   -1.7110   25.1340  -28.0850 C   0  0  0  0  0  0  0  0  0  0  0  0
   -2.3020   23.0160  -30.3260 C   0  0  0  0  0  0  0  0  0  0  0  0
   -2.9380   21.9730  -31.0260 C   0  0  0  0  0  0  0  0  0  0  0  0
   -4.5820   18.8650  -33.3400 C   0  0  0  0  0  0  0  0  0  0  0  0
   -5.6980   18.6500  -34.1630 C   0  0  0  0  0  0  0  0  0  0  0  0
   -5.7320   17.4990  -34.9660 C   0  0  0  0  0  0  0  0  0  0  0  0
   -4.6460   16.6060  -34.9780 C   0  0  0  0  0  0  0  0  0  0  0  0
   -3.5080   16.8690  -34.2030 C   0  0  0  0  0  0  0  0  0  0  0  0
   -3.4930   18.0110  -33.4000 C   0  0  0  0  0  0  0  0  0  0  0  0
   -2.3360   18.5240  -32.6040 C   0  0  0  0  0  0  0  0  0  0  0  0
   -0.8245   22.2985  -24.8951 H   0  0  0  0  0  0  0  0  0  0  0  0
    0.4205   22.4435  -26.1818 H   0  0  0  0  0  0  0  0  0  0  0  0
   -1.0030   23.5391  -26.1818 H   0  0  0  0  0  0  0  0  0  0  0  0
   -2.2335   21.0820  -26.2118 H   0  0  0  0  0  0  0  0  0  0  0  0
   -1.8181   22.0615  -27.6906 H   0  0  0  0  0  0  0  0  0  0  0  0
   -1.2863   18.6330  -28.1991 H   0  0  0  0  0  0  0  0  0  0  0  0
   -0.7208   18.5019  -26.4798 H   0  0  0  0  0  0  0  0  0  0  0  0
   -2.7118   19.2810  -25.6130 H   0  0  0  0  0  0  0  0  0  0  0  0
   -3.1133   20.2308  -27.0838 H   0  0  0  0  0  0  0  0  0  0  0  0
   -3.3172   18.4462  -27.0838 H   0  0  0  0  0  0  0  0  0  0  0  0
   -0.1264   21.7203  -28.9192 H   0  0  0  0  0  0  0  0  0  0  0  0
    1.1012   20.3899  -28.5583 H   0  0  0  0  0  0  0  0  0  0  0  0
    0.2718   19.0782  -30.1196 H   0  0  0  0  0  0  0  0  0  0  0  0
   -1.4117   19.2943  -29.4709 H   0  0  0  0  0  0  0  0  0  0  0  0
   -0.1730   21.2970  -31.3640 H   0  0  0  0  0  0  0  0  0  0  0  0
   -6.8924   21.0422  -31.1937 H   0  0  0  0  0  0  0  0  0  0  0  0
   -6.7462   21.9419  -32.7416 H   0  0  0  0  0  0  0  0  0  0  0  0
   -6.7278   20.1457  -32.7416 H   0  0  0  0  0  0  0  0  0  0  0  0
   -5.9944   23.4802  -31.4782 H   0  0  0  0  0  0  0  0  0  0  0  0
   -6.0281   25.7063  -28.4153 H   0  0  0  0  0  0  0  0  0  0  0  0
   -6.6639   26.6743  -29.7884 H   0  0  0  0  0  0  0  0  0  0  0  0
   -6.8469   24.8873  -29.7884 H   0  0  0  0  0  0  0  0  0  0  0  0
   -2.4382   25.2799  -27.2726 H   0  0  0  0  0  0  0  0  0  0  0  0
   -1.2698   24.1295  -28.0062 H   0  0  0  0  0  0  0  0  0  0  0  0
   -0.9165   25.8907  -28.0062 H   0  0  0  0  0  0  0  0  0  0  0  0
   -1.2583   22.8934  -30.0010 H   0  0  0  0  0  0  0  0  0  0  0  0
   -6.5300   19.3694  -34.1787 H   0  0  0  0  0  0  0  0  0  0  0  0
   -6.6144   17.2943  -35.5901 H   0  0  0  0  0  0  0  0  0  0  0  0
   -4.6896   15.6981  -35.5975 H   0  0  0  0  0  0  0  0  0  0  0  0
   -2.6437   16.1890  -34.2270 H   0  0  0  0  0  0  0  0  0  0  0  0
   -2.0715   17.8378  -31.7859 H   0  0  0  0  0  0  0  0  0  0  0  0
   -1.4031   18.6350  -33.1762 H   0  0  0  0  0  0  0  0  0  0  0  0
  1  2  1  0
  2  3  1  0
  3  4  1  0
  4  5  1  0
  3  6  1  0
  6  7  1  0
  7  8  1  0
  8  9  1  0
  9 10  2  0
 10 11  1  0
 11 12  2  0
 12 13  1  0
 12 14  1  0
 14 15  2  0
 15 16  1  0
 16 17  1  0
 17 18  1  0
 16 19  2  0
 19 20  1  0
 20 21  1  0
 19 22  1  0
 22 23  2  0
 11 24  1  0
 24 25  2  0
 25 26  1  0
 26 27  2  0
 27 28  1  0
 28 29  2  0
 29 30  1  0
 23  9  1  0
 29 24  1  0
 30 10  1  0
 23 14  1  0
  1 31  1  0
  1 32  1  0
  1 33  1  0
  2 34  1  0
  2 35  1  0
  4 36  1  0
  4 37  1  0
  5 38  1  0
  5 39  1  0
  5 40  1  0
  6 41  1  0
  6 42  1  0
  7 43  1  0
  7 44  1  0
  8 45  1  0
 13 46  1  0
 13 47  1  0
 13 48  1  0
 15 49  1  0
 18 50  1  0
 18 51  1  0
 18 52  1  0
 21 53  1  0
 21 54  1  0
 21 55  1  0
 22 56  1  0
 25 57  1  0
 26 58  1  0
 27 59  1  0
 28 60  1  0
 30 61  1  0
 30 62  1  0
M  CHG  1  12   1
M  END
>  <UniqueID>  (22) 
22

>  <SMILES>  (22) 
CCN(CC)CCNc1c2c([n+](C)c3cc(OC)c(OC)cc13)-c1ccccc1C2

>  <Energy>  (22) 
109.77504365159722

>  <Genealogy>  (22) 
CCN(CC)CCNc1c2c([n+](C)c3cc(OC)c(OC)cc13)-c1ccccc1C2 (3D coordinates assigned)
CCN(CC)CCNc1c2c([n+](C)c3cc(OC)c(OC)cc13)-c1ccccc1C2 (nonaromatic ring conformer: 109.77504365159722 kcal/mol)

>  <smiles>  (22) 
CCN(CC)CCNc1c2c([n+](C)c3cc(OC)c(OC)cc13)-c1ccccc1C2

>  <score_type>  (22) 
oracle

>  <origin>  (22) 
adg

>  <m_score__min__energy>  (22) 
-7.9199999999999999

>  <m_primary>  (22) 
energy

$$$$
22:0
     RDKit          3D

 72 75  0  0  0  0  0  0  0  0999 V2000
   -4.2949   25.5158  -29.4424 H   0  0  0  0  0  0  0  0  0  0  0  0
   -3.7770   24.5470  -29.5000 C   0  0  0  0  0  0  0  0  0  0  0  0
   -3.5710   23.9650  -30.7040 N   0  0  0  0  0  0  0  0  0  0  0  0
   -2.9950   22.7430  -30.8220 C   0  0  0  0  0  0  0  0  0  0  0  0
   -2.8370   22.1840  -32.0970 C   0  0  0  0  0  0  0  0  0  0  0  0
   -3.1236   22.7651  -32.9859 H   0  0  0  0  0  0  0  0  0  0  0  0
   -2.3190   20.8960  -32.2500 C   0  0  0  0  0  0  0  0  0  0  0  0
   -2.0880   20.4140  -33.5490 O   0  0  0  0  0  0  0  0  0  0  0  0
   -2.8800   19.4240  -34.2070 C   0  0  0  0  0  0  0  0  0  0  0  0
   -2.5232   18.4243  -33.9182 H   0  0  0  0  0  0  0  0  0  0  0  0
   -2.7879   19.5600  -35.2947 H   0  0  0  0  0  0  0  0  0  0  0  0
   -4.3570   19.5670  -33.8120 C   0  0  0  0  0  0  0  0  0  0  0  0
   -4.8838   20.1363  -34.5920 H   0  0  0  0  0  0  0  0  0  0  0  0
   -4.4109   20.0917  -32.8467 H   0  0  0  0  0  0  0  0  0  0  0  0
   -5.0000   18.2430  -33.6630 N   0  0  0  0  0  0  0  0  0  0  0  0
   -5.1230   17.5360  -34.9530 C   0  0  0  0  0  0  0  0  0  0  0  0
   -5.3089   16.4675  -34.7693 H   0  0  0  0  0  0  0  0  0  0  0  0
   -5.9607   17.9608  -35.5255 H   0  0  0  0  0  0  0  0  0  0  0  0
   -4.1910   17.6529  -35.5255 H   0  0  0  0  0  0  0  0  0  0  0  0
   -6.3000   18.3300  -32.9580 C   0  0  0  0  0  0  0  0  0  0  0  0
   -6.1289   18.1194  -31.8920 H   0  0  0  0  0  0  0  0  0  0  0  0
   -6.9678   17.5980  -33.4357 H   0  0  0  0  0  0  0  0  0  0  0  0
   -6.9900   19.6980  -33.0740 C   0  0  0  0  0  0  0  0  0  0  0  0
   -7.1899   20.0943  -32.0676 H   0  0  0  0  0  0  0  0  0  0  0  0
   -6.3351   20.3940  -33.6187 H   0  0  0  0  0  0  0  0  0  0  0  0
   -7.9389   19.5850  -33.6187 H   0  0  0  0  0  0  0  0  0  0  0  0
   -2.0580   20.1260  -31.1030 C   0  0  0  0  0  0  0  0  0  0  0  0
   -1.7266   19.0826  -31.2098 H   0  0  0  0  0  0  0  0  0  0  0  0
   -2.2160   20.6750  -29.8310 C   0  0  0  0  0  0  0  0  0  0  0  0
   -2.0544   20.0450  -28.9439 H   0  0  0  0  0  0  0  0  0  0  0  0
   -2.5810   22.0300  -29.6670 C   0  0  0  0  0  0  0  0  0  0  0  0
   -2.6500   22.6930  -28.4010 C   0  0  0  0  0  0  0  0  0  0  0  0
   -2.0720   22.2630  -27.3050 N   0  0  0  0  0  0  0  0  0  0  0  0
   -1.0700   22.8830  -26.4840 C   0  0  0  0  0  0  0  0  0  0  0  0
   -0.3590   24.0100  -26.9310 C   0  0  0  0  0  0  0  0  0  0  0  0
   -0.5690   24.4316  -27.9250 H   0  0  0  0  0  0  0  0  0  0  0  0
    0.6140   24.5970  -26.1170 C   0  0  0  0  0  0  0  0  0  0  0  0
    1.1873   25.4607  -26.4847 H   0  0  0  0  0  0  0  0  0  0  0  0
    0.8630   24.0880  -24.8300 C   0  0  0  0  0  0  0  0  0  0  0  0
    1.8390   24.7110  -23.9680 N   0  0  0  0  0  0  0  0  0  0  0  0
    2.2720   23.9950  -23.3380 H   0  0  0  0  0  0  0  0  0  0  0  0
    1.3540   25.3990  -23.3440 H   0  0  0  0  0  0  0  0  0  0  0  0
    2.8660   25.4260  -24.7550 C   0  0  0  0  0  0  0  0  0  0  0  0
    3.7415   24.7711  -24.8754 H   0  0  0  0  0  0  0  0  0  0  0  0
    2.4283   25.6862  -25.7300 H   0  0  0  0  0  0  0  0  0  0  0  0
    3.3110   26.7310  -24.0680 C   0  0  0  0  0  0  0  0  0  0  0  0
    3.9403   26.4808  -23.2012 H   0  0  0  0  0  0  0  0  0  0  0  0
    3.8700   27.3308  -24.8013 H   0  0  0  0  0  0  0  0  0  0  0  0
    2.1090   27.5600  -23.5880 C   0  0  0  0  0  0  0  0  0  0  0  0
    1.9223   27.3375  -22.5271 H   0  0  0  0  0  0  0  0  0  0  0  0
    2.3460   28.6248  -23.7292 H   0  0  0  0  0  0  0  0  0  0  0  0
    0.8900   27.2490  -24.3660 N   0  0  0  0  0  0  0  0  0  0  0  0
   -0.2750   27.1210  -23.4740 C   0  0  0  0  0  0  0  0  0  0  0  0
   -0.0751   26.3404  -22.7252 H   0  0  0  0  0  0  0  0  0  0  0  0
   -0.4516   28.0849  -22.9743 H   0  0  0  0  0  0  0  0  0  0  0  0
   -1.5310   26.7380  -24.2870 C   0  0  0  0  0  0  0  0  0  0  0  0
   -1.7700   25.6826  -24.0894 H   0  0  0  0  0  0  0  0  0  0  0  0
   -2.3472   27.4051  -23.9725 H   0  0  0  0  0  0  0  0  0  0  0  0
   -1.3510   26.9090  -25.6830 O   0  0  0  0  0  0  0  0  0  0  0  0
   -0.8100   28.1850  -25.9410 C   0  0  0  0  0  0  0  0  0  0  0  0
   -0.8093   28.3662  -27.0260 H   0  0  0  0  0  0  0  0  0  0  0  0
   -1.4237   28.9433  -25.4327 H   0  0  0  0  0  0  0  0  0  0  0  0
    0.6350   28.2710  -25.4100 C   0  0  0  0  0  0  0  0  0  0  0  0
    1.3331   28.1115  -26.2450 H   0  0  0  0  0  0  0  0  0  0  0  0
    0.7809   29.2657  -24.9635 H   0  0  0  0  0  0  0  0  0  0  0  0
    0.1030   22.9990  -24.3650 C   0  0  0  0  0  0  0  0  0  0  0  0
    0.2675   22.6122  -23.3485 H   0  0  0  0  0  0  0  0  0  0  0  0
   -0.8590   22.4060  -25.1860 C   0  0  0  0  0  0  0  0  0  0  0  0
   -1.4533   21.5601  -24.8102 H   0  0  0  0  0  0  0  0  0  0  0  0
   -3.3360   23.9250  -28.3300 C   0  0  0  0  0  0  0  0  0  0  0  0
   -3.5060   24.6190  -27.0740 C   0  0  0  0  0  0  0  0  0  0  0  0
   -3.6410   25.1790  -26.0710 N   0  0  0  0  0  0  0  0  0  0  0  0
  1  2  1  0
  2  3  1  0
  3  4  1  0
  4  5  2  0
  5  6  1  0
  5  7  1  0
  7  8  1  0
  8  9  1  0
  9 10  1  0
  9 11  1  0
  9 12  1  0
 12 13  1  0
 12 14  1  0
 12 15  1  0
 15 16  1  0
 16 17  1  0
 16 18  1  0
 16 19  1  0
 15 20  1  0
 20 21  1  0
 20 22  1  0
 20 23  1  0
 23 24  1  0
 23 25  1  0
 23 26  1  0
  7 27  2  0
 27 28  1  0
 27 29  1  0
 29 30  1  0
 29 31  2  0
 31 32  1  0
 32 33  2  0
 33 34  1  0
 34 35  2  0
 35 36  1  0
 35 37  1  0
 37 38  1  0
 37 39  2  0
 39 40  1  0
 40 41  1  0
 40 42  1  0
 40 43  1  0
 43 44  1  0
 43 45  1  0
 43 46  1  0
 46 47  1  0
 46 48  1  0
 46 49  1  0
 49 50  1  0
 49 51  1  0
 49 52  1  0
 52 53  1  0
 53 54  1  0
 53 55  1  0
 53 56  1  0
 56 57  1  0
 56 58  1  0
 56 59  1  0
 59 60  1  0
 60 61  1  0
 60 62  1  0
 60 63  1  0
 63 64  1  0
 63 65  1  0
 39 66  1  0
 66 67  1  0
 66 68  2  0
 68 69  1  0
 32 70  1  0
 70 71  1  0
 71 72  3  0
 70  2  2  0
 31  4  1  0
 68 34  1  0
 63 52  1  0
M  CHG  2   3  -1  40   1
M  END
>  <UniqueID>  (23) 
23

>  <SMILES>  (23) 
CCN(C)CCOc1ccc2/c(=N\c3ccc([NH2+]CCCN4CCOCC4)cc3)c(C#N)c[n-]c2c1

>  <Energy>  (23) 
107.99229948890972

>  <Genealogy>  (23) 
CCN(C)CCOc1ccc2c(=Nc3ccc([NH2+]CCCN4CCOCC4)cc3)c(C#N)c[n-]c2c1 (protonated)
CCN(C)CCOc1ccc2/c(=N\c3ccc([NH2+]CCCN4CCOCC4)cc3)c(C#N)c[n-]c2c1 (cis-trans isomerization)
CCN(C)CCOc1ccc2/c(=N\c3ccc([NH2+]CCCN4CCOCC4)cc3)c(C#N)c[n-]c2c1 (3D coordinates assigned)
CCN(C)CCOc1ccc2/c(=N\c3ccc([NH2+]CCCN4CCOCC4)cc3)c(C#N)c[n-]c2c1 (nonaromatic ring conformer: 107.99229948890972 kcal/mol)

>  <smiles>  (23) 
CCN(C)CCOc1ccc2c(=Nc3ccc(NCCCN4CCOCC4)cc3)c(C#N)c[nH]c2c1

>  <score_type>  (23) 
oracle

>  <origin>  (23) 
adg

>  <m_score__min__energy>  (23) 
-9.0600000000000005

>  <m_primary>  (23) 
energy

$$$$
23:0
     RDKit          3D

 60 63  0  0  0  0  0  0  0  0999 V2000
   -5.6917   24.8805  -32.0633 H   0  0  0  0  0  0  0  0  0  0  0  0
   -5.1290   24.4420  -31.2260 C   0  0  0  0  0  0  0  0  0  0  0  0
   -4.0390   25.0780  -30.7380 N   0  0  0  0  0  0  0  0  0  0  0  0
   -3.2990   24.5750  -29.7170 C   0  0  0  0  0  0  0  0  0  0  0  0
   -2.2360   25.2900  -29.2810 N   0  0  0  0  0  0  0  0  0  0  0  0
   -1.4540   24.8700  -28.2640 C   0  0  0  0  0  0  0  0  0  0  0  0
   -0.6090   25.4907  -27.9314 H   0  0  0  0  0  0  0  0  0  0  0  0
   -1.7110   23.6560  -27.6340 C   0  0  0  0  0  0  0  0  0  0  0  0
   -0.8300   23.2450  -26.5620 C   0  0  0  0  0  0  0  0  0  0  0  0
   -0.1260   22.9160  -25.7050 N   0  0  0  0  0  0  0  0  0  0  0  0
   -2.7920   22.8430  -28.0510 C   0  0  0  0  0  0  0  0  0  0  0  0
   -2.9040   21.6890  -27.4330 N   0  0  0  0  0  0  0  0  0  0  0  0
   -2.6830   20.2820  -27.7700 C   0  0  0  0  0  0  0  0  0  0  0  0
   -3.5747   19.8780  -28.2717 H   0  0  0  0  0  0  0  0  0  0  0  0
   -2.4120   19.5130  -26.4630 C   0  0  0  0  0  0  0  0  0  0  0  0
   -1.8492   20.1587  -25.7729 H   0  0  0  0  0  0  0  0  0  0  0  0
   -3.3736   19.2253  -26.0130 H   0  0  0  0  0  0  0  0  0  0  0  0
   -1.5950   18.2420  -26.7470 C   0  0  0  0  0  0  0  0  0  0  0  0
   -1.4479   17.7090  -25.7961 H   0  0  0  0  0  0  0  0  0  0  0  0
   -2.1691   17.6602  -27.4832 H   0  0  0  0  0  0  0  0  0  0  0  0
   -0.3160   18.4770  -27.3270 O   0  0  0  0  0  0  0  0  0  0  0  0
   -0.2070   19.7160  -28.0150 C   0  0  0  0  0  0  0  0  0  0  0  0
    0.0385   20.5002  -27.2838 H   0  0  0  0  0  0  0  0  0  0  0  0
    0.5779   19.5962  -28.7763 H   0  0  0  0  0  0  0  0  0  0  0  0
   -1.4940   20.1220  -28.7510 C   0  0  0  0  0  0  0  0  0  0  0  0
   -1.3244   21.0790  -29.2662 H   0  0  0  0  0  0  0  0  0  0  0  0
   -1.7448   19.3289  -29.4707 H   0  0  0  0  0  0  0  0  0  0  0  0
   -3.6370   23.3300  -29.1130 C   0  0  0  0  0  0  0  0  0  0  0  0
   -4.7990   22.6910  -29.6040 C   0  0  0  0  0  0  0  0  0  0  0  0
   -5.1298   21.7495  -29.1412 H   0  0  0  0  0  0  0  0  0  0  0  0
   -5.5410   23.2290  -30.6680 C   0  0  0  0  0  0  0  0  0  0  0  0
   -6.7420   22.5280  -31.1890 C   0  0  0  0  0  0  0  0  0  0  0  0
   -8.0040   23.1440  -31.1490 C   0  0  0  0  0  0  0  0  0  0  0  0
   -8.1050   24.1574  -30.7333 H   0  0  0  0  0  0  0  0  0  0  0  0
   -9.1310   22.4770  -31.6340 C   0  0  0  0  0  0  0  0  0  0  0  0
  -10.1151   22.9670  -31.5978 H   0  0  0  0  0  0  0  0  0  0  0  0
   -9.0140   21.1900  -32.1650 C   0  0  0  0  0  0  0  0  0  0  0  0
   -9.9059   20.6703  -32.5451 H   0  0  0  0  0  0  0  0  0  0  0  0
   -7.7570   20.5560  -32.2150 C   0  0  0  0  0  0  0  0  0  0  0  0
   -7.5760   19.2670  -32.7410 O   0  0  0  0  0  0  0  0  0  0  0  0
   -7.4010   18.0730  -31.9760 C   0  0  0  0  0  0  0  0  0  0  0  0
   -7.9136   17.2414  -32.4818 H   0  0  0  0  0  0  0  0  0  0  0  0
   -7.8259   18.2291  -30.9735 H   0  0  0  0  0  0  0  0  0  0  0  0
   -5.9110   17.7350  -31.8340 C   0  0  0  0  0  0  0  0  0  0  0  0
   -5.7650   17.1096  -30.9409 H   0  0  0  0  0  0  0  0  0  0  0  0
   -5.3409   18.6709  -31.7382 H   0  0  0  0  0  0  0  0  0  0  0  0
   -5.4310   17.0010  -33.0270 N   0  0  0  0  0  0  0  0  0  0  0  0
   -6.5550   16.3040  -33.6860 C   0  0  0  0  0  0  0  0  0  0  0  0
   -7.2270   15.8873  -32.9213 H   0  0  0  0  0  0  0  0  0  0  0  0
   -7.1107   17.0162  -34.3136 H   0  0  0  0  0  0  0  0  0  0  0  0
   -6.1640   15.4896  -34.3136 H   0  0  0  0  0  0  0  0  0  0  0  0
   -4.7610   17.9230  -33.9720 C   0  0  0  0  0  0  0  0  0  0  0  0
   -3.9901   17.3675  -34.5262 H   0  0  0  0  0  0  0  0  0  0  0  0
   -4.3143   18.7440  -33.3920 H   0  0  0  0  0  0  0  0  0  0  0  0
   -5.7510   18.5270  -34.9700 C   0  0  0  0  0  0  0  0  0  0  0  0
   -6.5657   19.0241  -34.4231 H   0  0  0  0  0  0  0  0  0  0  0  0
   -5.2317   19.2623  -35.6022 H   0  0  0  0  0  0  0  0  0  0  0  0
   -6.1673   17.7289  -35.6022 H   0  0  0  0  0  0  0  0  0  0  0  0
   -6.6310   21.2340  -31.7300 C   0  0  0  0  0  0  0  0  0  0  0  0
   -5.6454   20.7474  -31.7728 H   0  0  0  0  0  0  0  0  0  0  0  0
  1  2  1  0
  2  3  2  0
  3  4  1  0
  4  5  1  0
  5  6  1  0
  6  7  1  0
  6  8  2  0
  8  9  1  0
  9 10  3  0
  8 11  1  0
 11 12  2  0
 12 13  1  0
 13 14  1  0
 13 15  1  0
 15 16  1  0
 15 17  1  0
 15 18  1  0
 18 19  1  0
 18 20  1  0
 18 21  1  0
 21 22  1  0
 22 23  1  0
 22 24  1  0
 22 25  1  0
 25 26  1  0
 25 27  1  0
 11 28  1  0
 28 29  1  0
 29 30  1  0
 29 31  2  0
 31 32  1  0
 32 33  2  0
 33 34  1  0
 33 35  1  0
 35 36  1  0
 35 37  2  0
 37 38  1  0
 37 39  1  0
 39 40  1  0
 40 41  1  0
 41 42  1  0
 41 43  1  0
 41 44  1  0
 44 45  1  0
 44 46  1  0
 44 47  1  0
 47 48  1  0
 48 49  1  0
 48 50  1  0
 48 51  1  0
 47 52  1  0
 52 53  1  0
 52 54  1  0
 52 55  1  0
 55 56  1  0
 55 57  1  0
 55 58  1  0
 39 59  2  0
 59 60  1  0
 31  2  1  0
 59 32  1  0
 28  4  2  0
 25 13  1  0
M  CHG  1   5  -1
M  END
>  <UniqueID>  (24) 
24

>  <SMILES>  (24) 
CCN(C)CCOc1cccc(-c2cnc3[n-]cc(C#N)/c(=N/C4CCOCC4)c3c2)c1

>  <Energy>  (24) 
99.18669677424455

>  <Genealogy>  (24) 
CCN(C)CCOc1cccc(-c2cnc3[n-]cc(C#N)c(=NC4CCOCC4)c3c2)c1 (protonated)
CCN(C)CCOc1cccc(-c2cnc3[n-]cc(C#N)/c(=N/C4CCOCC4)c3c2)c1 (cis-trans isomerization)
CCN(C)CCOc1cccc(-c2cnc3[n-]cc(C#N)/c(=N/C4CCOCC4)c3c2)c1 (3D coordinates assigned)
CCN(C)CCOc1cccc(-c2cnc3[n-]cc(C#N)/c(=N/C4CCOCC4)c3c2)c1 (nonaromatic ring conformer: 99.18669677424455 kcal/mol)

>  <smiles>  (24) 
CCN(C)CCOc1cccc(-c2cnc3[nH]cc(C#N)c(=NC4CCOCC4)c3c2)c1

>  <score_type>  (24) 
oracle

>  <origin>  (24) 
adg

>  <m_score__min__energy>  (24) 
-11.470000000000001

>  <m_primary>  (24) 
energy

$$$$
24:0
     RDKit          3D

 57 60  0  0  0  0  0  0  0  0999 V2000
    0.2560   22.0990  -35.6900 C   0  0  0  0  0  0  0  0  0  0  0  0
    0.8790   20.8800  -35.0290 C   0  0  0  0  0  0  0  0  0  0  0  0
    0.0870   20.4900  -33.9100 O   0  0  0  0  0  0  0  0  0  0  0  0
   -1.0310   19.6400  -33.9750 C   0  0  0  0  0  0  0  0  0  0  0  0
   -0.9300   18.3360  -34.4860 C   0  0  0  0  0  0  0  0  0  0  0  0
   -2.0620   17.5350  -34.5990 C   0  0  0  0  0  0  0  0  0  0  0  0
   -3.2960   17.9920  -34.1430 C   0  0  0  0  0  0  0  0  0  0  0  0
   -3.4200   19.2520  -33.5160 C   0  0  0  0  0  0  0  0  0  0  0  0
   -2.2860   20.1120  -33.5300 C   0  0  0  0  0  0  0  0  0  0  0  0
   -2.4360   21.4530  -33.1520 C   0  0  0  0  0  0  0  0  0  0  0  0
   -3.6900   21.9630  -32.8440 C   0  0  0  0  0  0  0  0  0  0  0  0
   -4.8140   21.1230  -32.7870 C   0  0  0  0  0  0  0  0  0  0  0  0
   -6.0880   21.6530  -32.5190 C   0  0  0  0  0  0  0  0  0  0  0  0
   -6.2610   23.0660  -32.3450 N   0  0  0  0  0  0  0  0  0  0  0  0
   -6.4850   23.6210  -31.0120 C   0  0  0  0  0  0  0  0  0  0  0  0
   -5.1640   24.0440  -30.3430 C   0  0  0  0  0  0  0  0  0  0  0  0
   -5.0190   23.5390  -28.9540 N   0  0  0  0  0  0  0  0  0  0  0  0
   -4.2260   22.2970  -28.9550 C   0  0  0  0  0  0  0  0  0  0  0  0
   -4.3710   24.5340  -28.0770 C   0  0  0  0  0  0  0  0  0  0  0  0
   -7.1990   20.7960  -32.4770 C   0  0  0  0  0  0  0  0  0  0  0  0
   -8.5070   21.3060  -32.3440 C   0  0  0  0  0  0  0  0  0  0  0  0
   -9.6000   20.4450  -32.2690 C   0  0  0  0  0  0  0  0  0  0  0  0
   -9.4080   19.0670  -32.3260 C   0  0  0  0  0  0  0  0  0  0  0  0
   -8.1210   18.5430  -32.4550 C   0  0  0  0  0  0  0  0  0  0  0  0
   -6.9920   19.3950  -32.5320 C   0  0  0  0  0  0  0  0  0  0  0  0
   -5.7140   18.8880  -32.6410 N   0  0  0  0  0  0  0  0  0  0  0  0
   -5.4560   17.5200  -32.1430 C   0  0  0  0  0  0  0  0  0  0  0  0
   -4.6650   19.7260  -32.9860 C   0  0  0  0  0  0  0  0  0  0  0  0
   -0.0995   22.7946  -34.9155 H   0  0  0  0  0  0  0  0  0  0  0  0
    1.0081   22.6010  -36.3164 H   0  0  0  0  0  0  0  0  0  0  0  0
   -0.5914   21.7835  -36.3164 H   0  0  0  0  0  0  0  0  0  0  0  0
    0.9236   20.0529  -35.7528 H   0  0  0  0  0  0  0  0  0  0  0  0
    1.8963   21.1260  -34.6905 H   0  0  0  0  0  0  0  0  0  0  0  0
    0.0497   17.9455  -34.7987 H   0  0  0  0  0  0  0  0  0  0  0  0
   -1.9819   16.5353  -35.0510 H   0  0  0  0  0  0  0  0  0  0  0  0
   -4.1883   17.3620  -34.2731 H   0  0  0  0  0  0  0  0  0  0  0  0
   -1.5530   22.1069  -33.0989 H   0  0  0  0  0  0  0  0  0  0  0  0
   -3.8046   23.0382  -32.6421 H   0  0  0  0  0  0  0  0  0  0  0  0
   -6.2030   23.6810  -33.1880 H   0  0  0  0  0  0  0  0  0  0  0  0
   -7.1394   24.5011  -31.0974 H   0  0  0  0  0  0  0  0  0  0  0  0
   -6.9511   22.8427  -30.3899 H   0  0  0  0  0  0  0  0  0  0  0  0
   -4.3286   23.6559  -30.9442 H   0  0  0  0  0  0  0  0  0  0  0  0
   -5.1632   25.1428  -30.2911 H   0  0  0  0  0  0  0  0  0  0  0  0
   -5.9590   23.3100  -28.5550 H   0  0  0  0  0  0  0  0  0  0  0  0
   -4.0283   21.9874  -27.9182 H   0  0  0  0  0  0  0  0  0  0  0  0
   -4.7859   21.5049  -29.4738 H   0  0  0  0  0  0  0  0  0  0  0  0
   -3.2719   22.4716  -29.4738 H   0  0  0  0  0  0  0  0  0  0  0  0
   -4.5463   24.2648  -27.0249 H   0  0  0  0  0  0  0  0  0  0  0  0
   -3.2893   24.5492  -28.2763 H   0  0  0  0  0  0  0  0  0  0  0  0
   -4.7945   25.5294  -28.2763 H   0  0  0  0  0  0  0  0  0  0  0  0
   -8.6659   22.3935  -32.2991 H   0  0  0  0  0  0  0  0  0  0  0  0
  -10.6157   20.8543  -32.1646 H   0  0  0  0  0  0  0  0  0  0  0  0
  -10.2729   18.3898  -32.2692 H   0  0  0  0  0  0  0  0  0  0  0  0
   -7.9813   17.4527  -32.4975 H   0  0  0  0  0  0  0  0  0  0  0  0
   -5.4568   17.5240  -31.0430 H   0  0  0  0  0  0  0  0  0  0  0  0
   -6.2422   16.8427  -32.5077 H   0  0  0  0  0  0  0  0  0  0  0  0
   -4.4771   17.1756  -32.5077 H   0  0  0  0  0  0  0  0  0  0  0  0
  1  2  1  0
  2  3  1  0
  3  4  1  0
  4  5  2  0
  5  6  1  0
  6  7  2  0
  7  8  1  0
  8  9  2  0
  9 10  1  0
 10 11  2  0
 11 12  1  0
 12 13  2  0
 13 14  1  0
 14 15  1  0
 15 16  1  0
 16 17  1  0
 17 18  1  0
 17 19  1  0
 13 20  1  0
 20 21  2  0
 21 22  1  0
 22 23  2  0
 23 24  1  0
 24 25  2  0
 25 26  1  0
 26 27  1  0
 26 28  2  0
  9  4  1  0
 28 12  1  0
 28  8  1  0
 25 20  1  0
  1 29  1  0
  1 30  1  0
  1 31  1  0
  2 32  1  0
  2 33  1  0
  5 34  1  0
  6 35  1  0
  7 36  1  0
 10 37  1  0
 11 38  1  0
 14 39  1  0
 15 40  1  0
 15 41  1  0
 16 42  1  0
 16 43  1  0
 17 44  1  0
 18 45  1  0
 18 46  1  0
 18 47  1  0
 19 48  1  0
 19 49  1  0
 19 50  1  0
 21 51  1  0
 22 52  1  0
 23 53  1  0
 24 54  1  0
 27 55  1  0
 27 56  1  0
 27 57  1  0
M  CHG  2  17   1  26   1
M  END
>  <UniqueID>  (25) 
25

>  <SMILES>  (25) 
CCOc1cccc2c1ccc1c(NCC[NH+](C)C)c3ccccc3[n+](C)c12

>  <Energy>  (25) 
99.12080413922837

>  <Genealogy>  (25) 
CCOc1cccc2c1ccc1c(NCC[NH+](C)C)c3ccccc3[n+](C)c12 (protonated)
CCOc1cccc2c1ccc1c(NCC[NH+](C)C)c3ccccc3[n+](C)c12 (3D coordinates assigned)
CCOc1cccc2c1ccc1c(NCC[NH+](C)C)c3ccccc3[n+](C)c12 (optimized conformer: 99.12080413922837 kcal/mol)

>  <smiles>  (25) 
CCOc1cccc2c1ccc1c(NCCN(C)C)c3ccccc3[n+](C)c12

>  <score_type>  (25) 
oracle

>  <origin>  (25) 
adg

>  <m_score__min__energy>  (25) 
-7.6699999999999999

>  <m_primary>  (25) 
energy

$$$$
25:0
     RDKit          3D

 88 92  0  0  0  0  0  0  0  0999 V2000
   -1.5380   20.5710  -28.8290 C   0  0  0  0  0  0  0  0  0  0  0  0
   -0.6110   21.2410  -29.8520 C   0  0  0  0  0  0  0  0  0  0  0  0
   -1.0530   21.0840  -31.2570 N   0  0  0  0  0  0  0  0  0  0  0  0
   -2.3550   20.4030  -31.3580 C   0  0  0  0  0  0  0  0  0  0  0  0
   -0.0150   20.4640  -32.1120 C   0  0  0  0  0  0  0  0  0  0  0  0
    0.2170   21.2580  -33.4090 C   0  0  0  0  0  0  0  0  0  0  0  0
   -0.5850   20.7360  -34.5210 N   0  0  0  0  0  0  0  0  0  0  0  0
   -0.7530   19.3230  -34.7320 C   0  0  0  0  0  0  0  0  0  0  0  0
    0.3460   18.4890  -35.0040 C   0  0  0  0  0  0  0  0  0  0  0  0
    1.6180   19.0320  -35.2840 C   0  0  0  0  0  0  0  0  0  0  0  0
    2.7140   18.1980  -35.4960 C   0  0  0  0  0  0  0  0  0  0  0  0
    2.5600   16.8160  -35.4410 C   0  0  0  0  0  0  0  0  0  0  0  0
    1.3010   16.2570  -35.2100 C   0  0  0  0  0  0  0  0  0  0  0  0
    0.1610   17.0810  -35.0190 C   0  0  0  0  0  0  0  0  0  0  0  0
   -1.1030   16.5430  -34.8370 N   0  0  0  0  0  0  0  0  0  0  0  0
   -1.3480   15.1340  -35.2090 C   0  0  0  0  0  0  0  0  0  0  0  0
   -2.1460   17.3550  -34.4210 C   0  0  0  0  0  0  0  0  0  0  0  0
   -3.3500   16.8610  -33.8360 C   0  0  0  0  0  0  0  0  0  0  0  0
   -3.4360   15.6390  -33.5330 O   0  0  0  0  0  0  0  0  0  0  0  0
   -4.3920   17.7190  -33.5310 N   0  0  0  0  0  0  0  0  0  0  0  0
   -5.5600   17.2850  -32.9270 C   0  0  0  0  0  0  0  0  0  0  0  0
   -5.7160   16.0700  -32.6220 O   0  0  0  0  0  0  0  0  0  0  0  0
   -6.5930   18.1970  -32.6360 C   0  0  0  0  0  0  0  0  0  0  0  0
   -7.7690   17.8190  -31.9660 C   0  0  0  0  0  0  0  0  0  0  0  0
   -8.7590   18.7650  -31.6850 C   0  0  0  0  0  0  0  0  0  0  0  0
   -8.6210   20.0970  -32.1250 C   0  0  0  0  0  0  0  0  0  0  0  0
   -9.6530   21.0800  -31.8690 N   0  0  0  0  0  0  0  0  0  0  0  0
   -9.1220   22.4490  -31.7240 C   0  0  0  0  0  0  0  0  0  0  0  0
   -7.9690   22.5320  -30.6820 C   0  0  0  0  0  0  0  0  0  0  0  0
   -6.8000   23.3900  -31.0720 N   0  0  0  0  0  0  0  0  0  0  0  0
   -6.8670   23.8030  -32.4970 C   0  0  0  0  0  0  0  0  0  0  0  0
   -6.8570   24.6250  -30.2420 C   0  0  0  0  0  0  0  0  0  0  0  0
   -5.5000   22.7190  -30.7790 C   0  0  0  0  0  0  0  0  0  0  0  0
   -4.4050   23.4990  -31.2160 O   0  0  0  0  0  0  0  0  0  0  0  0
   -3.2870   23.3610  -30.3550 C   0  0  0  0  0  0  0  0  0  0  0  0
   -3.3860   24.3880  -29.2310 C   0  0  0  0  0  0  0  0  0  0  0  0
   -2.3150   25.3000  -29.3410 O   0  0  0  0  0  0  0  0  0  0  0  0
   -1.2210   24.8300  -28.5850 C   0  0  0  0  0  0  0  0  0  0  0  0
   -7.4360   20.4730  -32.7820 C   0  0  0  0  0  0  0  0  0  0  0  0
   -6.4250   19.5370  -33.0160 C   0  0  0  0  0  0  0  0  0  0  0  0
   -5.2590   19.9340  -33.5740 N   0  0  0  0  0  0  0  0  0  0  0  0
   -4.2480   19.0610  -33.8060 C   0  0  0  0  0  0  0  0  0  0  0  0
   -3.0620   19.5520  -34.2310 N   0  0  0  0  0  0  0  0  0  0  0  0
   -2.0030   18.7510  -34.4910 C   0  0  0  0  0  0  0  0  0  0  0  0
   -1.1992   20.8159  -27.8116 H   0  0  0  0  0  0  0  0  0  0  0  0
   -2.5658   20.9363  -28.9711 H   0  0  0  0  0  0  0  0  0  0  0  0
   -1.5136   19.4805  -28.9711 H   0  0  0  0  0  0  0  0  0  0  0  0
   -0.5616   22.3157  -29.6227 H   0  0  0  0  0  0  0  0  0  0  0  0
    0.3675   20.7454  -29.7683 H   0  0  0  0  0  0  0  0  0  0  0  0
   -2.7422   20.2005  -30.3485 H   0  0  0  0  0  0  0  0  0  0  0  0
   -3.0639   21.0458  -31.9005 H   0  0  0  0  0  0  0  0  0  0  0  0
   -2.2314   19.4541  -31.9005 H   0  0  0  0  0  0  0  0  0  0  0  0
    0.9290   20.4209  -31.5489 H   0  0  0  0  0  0  0  0  0  0  0  0
   -0.3612   19.4572  -32.3887 H   0  0  0  0  0  0  0  0  0  0  0  0
   -0.0565   22.3093  -33.2361 H   0  0  0  0  0  0  0  0  0  0  0  0
    1.2787   21.1640  -33.6809 H   0  0  0  0  0  0  0  0  0  0  0  0
   -1.2670   21.3870  -34.9690 H   0  0  0  0  0  0  0  0  0  0  0  0
    1.7455   20.1234  -35.3354 H   0  0  0  0  0  0  0  0  0  0  0  0
    3.7022   18.6326  -35.7071 H   0  0  0  0  0  0  0  0  0  0  0  0
    3.4330   16.1614  -35.5800 H   0  0  0  0  0  0  0  0  0  0  0  0
    1.1914   15.1630  -35.1756 H   0  0  0  0  0  0  0  0  0  0  0  0
   -1.4535   14.5272  -34.2976 H   0  0  0  0  0  0  0  0  0  0  0  0
   -2.2713   15.0669  -35.8031 H   0  0  0  0  0  0  0  0  0  0  0  0
   -0.5016   14.7591  -35.8031 H   0  0  0  0  0  0  0  0  0  0  0  0
   -7.9114   16.7719  -31.6607 H   0  0  0  0  0  0  0  0  0  0  0  0
   -9.6524   18.4677  -31.1163 H   0  0  0  0  0  0  0  0  0  0  0  0
  -10.3240   21.0630  -32.6730 H   0  0  0  0  0  0  0  0  0  0  0  0
  -10.1950   20.8380  -31.0060 H   0  0  0  0  0  0  0  0  0  0  0  0
   -8.7410   22.7851  -32.6997 H   0  0  0  0  0  0  0  0  0  0  0  0
   -9.9418   23.0903  -31.3682 H   0  0  0  0  0  0  0  0  0  0  0  0
   -8.3865   22.9342  -29.7471 H   0  0  0  0  0  0  0  0  0  0  0  0
   -7.5734   21.5097  -30.5901 H   0  0  0  0  0  0  0  0  0  0  0  0
   -7.0429   24.8872  -32.5566 H   0  0  0  0  0  0  0  0  0  0  0  0
   -5.9173   23.5577  -32.9949 H   0  0  0  0  0  0  0  0  0  0  0  0
   -7.6904   23.2700  -32.9949 H   0  0  0  0  0  0  0  0  0  0  0  0
   -6.8444   24.3516  -29.1766 H   0  0  0  0  0  0  0  0  0  0  0  0
   -5.9872   25.2592  -30.4681 H   0  0  0  0  0  0  0  0  0  0  0  0
   -7.7816   25.1764  -30.4681 H   0  0  0  0  0  0  0  0  0  0  0  0
   -5.4159   22.5609  -29.6937 H   0  0  0  0  0  0  0  0  0  0  0  0
   -5.4774   21.7598  -31.3170 H   0  0  0  0  0  0  0  0  0  0  0  0
   -3.2758   22.3478  -29.9269 H   0  0  0  0  0  0  0  0  0  0  0  0
   -2.3607   23.5265  -30.9247 H   0  0  0  0  0  0  0  0  0  0  0  0
   -4.3402   24.9296  -29.3103 H   0  0  0  0  0  0  0  0  0  0  0  0
   -3.3383   23.8771  -28.2580 H   0  0  0  0  0  0  0  0  0  0  0  0
   -1.4473   24.9272  -27.5129 H   0  0  0  0  0  0  0  0  0  0  0  0
   -1.0357   23.7729  -28.8262 H   0  0  0  0  0  0  0  0  0  0  0  0
   -0.3267   25.4233  -28.8262 H   0  0  0  0  0  0  0  0  0  0  0  0
   -7.3036   21.5131  -33.1147 H   0  0  0  0  0  0  0  0  0  0  0  0
  1  2  1  0
  2  3  1  0
  3  4  1  0
  3  5  1  0
  5  6  1  0
  6  7  1  0
  7  8  1  0
  8  9  2  0
  9 10  1  0
 10 11  2  0
 11 12  1  0
 12 13  2  0
 13 14  1  0
 14 15  2  0
 15 16  1  0
 15 17  1  0
 17 18  1  0
 18 19  2  0
 18 20  1  0
 20 21  1  0
 21 22  2  0
 21 23  1  0
 23 24  2  0
 24 25  1  0
 25 26  2  0
 26 27  1  0
 27 28  1  0
 28 29  1  0
 29 30  1  0
 30 31  1  0
 30 32  1  0
 30 33  1  0
 33 34  1  0
 34 35  1  0
 35 36  1  0
 36 37  1  0
 37 38  1  0
 26 39  1  0
 39 40  2  0
 40 41  1  0
 41 42  1  0
 42 43  2  0
 43 44  1  0
 44  8  1  0
 14  9  1  0
 44 17  2  0
 42 20  1  0
 40 23  1  0
  1 45  1  0
  1 46  1  0
  1 47  1  0
  2 48  1  0
  2 49  1  0
  4 50  1  0
  4 51  1  0
  4 52  1  0
  5 53  1  0
  5 54  1  0
  6 55  1  0
  6 56  1  0
  7 57  1  0
 10 58  1  0
 11 59  1  0
 12 60  1  0
 13 61  1  0
 16 62  1  0
 16 63  1  0
 16 64  1  0
 24 65  1  0
 25 66  1  0
 27 67  1  0
 27 68  1  0
 28 69  1  0
 28 70  1  0
 29 71  1  0
 29 72  1  0
 31 73  1  0
 31 74  1  0
 31 75  1  0
 32 76  1  0
 32 77  1  0
 32 78  1  0
 33 79  1  0
 33 80  1  0
 35 81  1  0
 35 82  1  0
 36 83  1  0
 36 84  1  0
 38 85  1  0
 38 86  1  0
 38 87  1  0
 39 88  1  0
M  CHG  4  15   1  27   1  30   1  41  -1
M  END
>  <UniqueID>  (26) 
26

>  <SMILES>  (26) 
CCN(C)CCNc1c2ccccc2[n+](C)c2c(=O)n3c(=O)c4ccc([NH2+]CC[N+](C)(C)COCCOC)cc4[n-]c3nc12

>  <Energy>  (26) 
147.57327236966046

>  <Genealogy>  (26) 
CCN(C)CCNc1c2ccccc2[n+](C)c2c(=O)n3c(=O)c4ccc([NH2+]CC[N+](C)(C)COCCOC)cc4[n-]c3nc12 (protonated)
CCN(C)CCNc1c2ccccc2[n+](C)c2c(=O)n3c(=O)c4ccc([NH2+]CC[N+](C)(C)COCCOC)cc4[n-]c3nc12 (3D coordinates assigned)
CCN(C)CCNc1c2ccccc2[n+](C)c2c(=O)n3c(=O)c4ccc([NH2+]CC[N+](C)(C)COCCOC)cc4[n-]c3nc12 (optimized conformer: 147.57327236966046 kcal/mol)

>  <smiles>  (26) 
CCN(C)CCNc1c2ccccc2[n+](C)c2c(=O)n3c(=O)c4ccc(NCC[N+](C)(C)COCCOC)cc4[nH]c3nc12

>  <score_type>  (26) 
oracle

>  <origin>  (26) 
adg

>  <m_score__min__energy>  (26) 
-8.0700000000000003

>  <m_primary>  (26) 
energy

$$$$
26:0
     RDKit          3D

 39 41  0  0  0  0  0  0  0  0999 V2000
   -4.2800   23.6040  -28.5250 C   0  0  0  0  0  0  0  0  0  0  0  0
   -3.1790   24.2210  -29.3920 C   0  0  0  0  0  0  0  0  0  0  0  0
   -3.7080   24.8680  -30.6030 N   0  0  0  0  0  0  0  0  0  0  0  0
   -5.0990   25.3100  -30.4340 C   0  0  0  0  0  0  0  0  0  0  0  0
   -6.0590   24.3580  -31.1630 C   0  0  0  0  0  0  0  0  0  0  0  0
   -5.4110   23.5990  -32.2500 N   0  0  0  0  0  0  0  0  0  0  0  0
   -5.7200   22.1830  -32.1820 C   0  0  0  0  0  0  0  0  0  0  0  0
   -4.6590   21.2170  -32.2190 C   0  0  0  0  0  0  0  0  0  0  0  0
   -2.8100   21.7280  -32.2830 Br  0  0  0  0  0  0  0  0  0  0  0  0
   -4.9370   19.8350  -32.1970 C   0  0  0  0  0  0  0  0  0  0  0  0
   -6.2610   19.4160  -32.1350 C   0  0  0  0  0  0  0  0  0  0  0  0
   -7.2640   20.3270  -32.0880 C   0  0  0  0  0  0  0  0  0  0  0  0
   -8.4870   19.7310  -32.0230 C   0  0  0  0  0  0  0  0  0  0  0  0
   -9.6440   20.5070  -31.9630 C   0  0  0  0  0  0  0  0  0  0  0  0
   -9.5090   21.9080  -31.9670 C   0  0  0  0  0  0  0  0  0  0  0  0
   -8.2330   22.5110  -32.0320 C   0  0  0  0  0  0  0  0  0  0  0  0
   -7.0660   21.7090  -32.1020 C   0  0  0  0  0  0  0  0  0  0  0  0
   -8.3460   18.2420  -32.0250 C   0  0  0  0  0  0  0  0  0  0  0  0
   -6.8100   18.0240  -32.0990 C   0  0  0  0  0  0  0  0  0  0  0  0
   -4.0314   23.7433  -27.4626 H   0  0  0  0  0  0  0  0  0  0  0  0
   -5.2389   24.0962  -28.7448 H   0  0  0  0  0  0  0  0  0  0  0  0
   -4.3607   22.5292  -28.7448 H   0  0  0  0  0  0  0  0  0  0  0  0
   -2.6420   24.9739  -28.7964 H   0  0  0  0  0  0  0  0  0  0  0  0
   -2.5126   23.4069  -29.7133 H   0  0  0  0  0  0  0  0  0  0  0  0
   -3.1120   25.6950  -30.8450 H   0  0  0  0  0  0  0  0  0  0  0  0
   -5.3468   25.3232  -29.3624 H   0  0  0  0  0  0  0  0  0  0  0  0
   -5.2060   26.3182  -30.8607 H   0  0  0  0  0  0  0  0  0  0  0  0
   -6.4652   23.6437  -30.4318 H   0  0  0  0  0  0  0  0  0  0  0  0
   -6.8469   24.9749  -31.6197 H   0  0  0  0  0  0  0  0  0  0  0  0
   -5.7540   23.9750  -33.1630 H   0  0  0  0  0  0  0  0  0  0  0  0
   -4.3850   23.7810  -32.2640 H   0  0  0  0  0  0  0  0  0  0  0  0
   -4.1192   19.1000  -32.2284 H   0  0  0  0  0  0  0  0  0  0  0  0
  -10.6369   20.0362  -31.9138 H   0  0  0  0  0  0  0  0  0  0  0  0
  -10.4075   22.5408  -31.9190 H   0  0  0  0  0  0  0  0  0  0  0  0
   -8.1446   23.6074  -32.0283 H   0  0  0  0  0  0  0  0  0  0  0  0
   -8.7611   17.8064  -31.1042 H   0  0  0  0  0  0  0  0  0  0  0  0
   -8.8876   17.7612  -32.8530 H   0  0  0  0  0  0  0  0  0  0  0  0
   -6.4469   17.4809  -31.2141 H   0  0  0  0  0  0  0  0  0  0  0  0
   -6.5042   17.4202  -32.9661 H   0  0  0  0  0  0  0  0  0  0  0  0
  1  2  1  0
  2  3  1  0
  3  4  1  0
  4  5  1  0
  5  6  1  0
  6  7  1  0
  7  8  2  0
  8  9  1  0
  8 10  1  0
 10 11  2  0
 11 12  1  0
 12 13  2  0
 13 14  1  0
 14 15  2  0
 15 16  1  0
 16 17  2  0
 13 18  1  0
 18 19  1  0
 17  7  1  0
 19 11  1  0
 17 12  1  0
  1 20  1  0
  1 21  1  0
  1 22  1  0
  2 23  1  0
  2 24  1  0
  3 25  1  0
  4 26  1  0
  4 27  1  0
  5 28  1  0
  5 29  1  0
  6 30  1  0
  6 31  1  0
 10 32  1  0
 14 33  1  0
 15 34  1  0
 16 35  1  0
 18 36  1  0
 18 37  1  0
 19 38  1  0
 19 39  1  0
M  CHG  1   6   1
M  END
>  <UniqueID>  (27) 
27

>  <SMILES>  (27) 
CCNCC[NH2+]c1c(Br)cc2c3c(cccc13)CC2

>  <Energy>  (27) 
61.686980693532

>  <Genealogy>  (27) 
CCNCC[NH2+]c1c(Br)cc2c3c(cccc13)CC2 (protonated)
CCNCC[NH2+]c1c(Br)cc2c3c(cccc13)CC2 (3D coordinates assigned)
CCNCC[NH2+]c1c(Br)cc2c3c(cccc13)CC2 (nonaromatic ring conformer: 61.686980693532 kcal/mol)

>  <smiles>  (27) 
CCNCCNc1c(Br)cc2c3c(cccc13)CC2

>  <score_type>  (27) 
oracle

>  <origin>  (27) 
adg

>  <m_score__min__energy>  (27) 
-8.6300000000000008

>  <m_primary>  (27) 
energy

$$$$
27:0
     RDKit          3D

 40 40  0  0  0  0  0  0  0  0999 V2000
   -4.2180   24.5490  -27.0140 C   0  0  0  0  0  0  0  0  0  0  0  0
   -4.4410   24.0880  -28.4540 C   0  0  0  0  0  0  0  0  0  0  0  0
   -3.3780   24.5580  -29.4790 C   0  0  0  0  0  0  0  0  0  0  0  0
   -2.2000   23.5680  -29.7090 C   0  0  0  0  0  0  0  0  0  0  0  0
   -0.9280   23.9740  -28.9660 C   0  0  0  0  0  0  0  0  0  0  0  0
   -4.0200   25.0350  -30.7270 N   0  0  0  0  0  0  0  0  0  0  0  0
   -5.3830   24.5400  -30.9750 C   0  0  0  0  0  0  0  0  0  0  0  0
   -5.3190   23.3030  -31.8260 C   0  0  0  0  0  0  0  0  0  0  0  0
   -4.2400   22.9460  -32.2810 O   0  0  0  0  0  0  0  0  0  0  0  0
   -6.5200   22.5370  -32.1030 N   0  0  0  0  0  0  0  0  0  0  0  0
   -7.6190   22.9700  -31.2140 C   0  0  0  0  0  0  0  0  0  0  0  0
   -8.9560   22.3170  -31.6210 C   0  0  0  0  0  0  0  0  0  0  0  0
   -8.7660   20.9720  -32.3410 C   0  0  0  0  0  0  0  0  0  0  0  0
   -7.5310   20.2350  -31.8200 C   0  0  0  0  0  0  0  0  0  0  0  0
   -6.2470   21.0830  -31.9700 C   0  0  0  0  0  0  0  0  0  0  0  0
   -4.5900   23.7800  -26.3210 H   0  0  0  0  0  0  0  0  0  0  0  0
   -3.1432   24.7083  -26.8423 H   0  0  0  0  0  0  0  0  0  0  0  0
   -4.7603   25.4905  -26.8423 H   0  0  0  0  0  0  0  0  0  0  0  0
   -4.4533   22.9881  -28.4593 H   0  0  0  0  0  0  0  0  0  0  0  0
   -5.3896   24.5446  -28.7730 H   0  0  0  0  0  0  0  0  0  0  0  0
   -2.8726   25.4207  -29.0205 H   0  0  0  0  0  0  0  0  0  0  0  0
   -2.5067   22.5707  -29.3607 H   0  0  0  0  0  0  0  0  0  0  0  0
   -1.9698   23.5733  -30.7846 H   0  0  0  0  0  0  0  0  0  0  0  0
   -1.1032   23.9181  -27.8815 H   0  0  0  0  0  0  0  0  0  0  0  0
   -0.1095   23.2925  -29.2408 H   0  0  0  0  0  0  0  0  0  0  0  0
   -0.6557   25.0037  -29.2408 H   0  0  0  0  0  0  0  0  0  0  0  0
   -3.4270   24.7430  -31.5400 H   0  0  0  0  0  0  0  0  0  0  0  0
   -5.8665   24.3010  -30.0163 H   0  0  0  0  0  0  0  0  0  0  0  0
   -5.9653   25.3141  -31.4961 H   0  0  0  0  0  0  0  0  0  0  0  0
   -6.8090   22.7260  -33.0920 H   0  0  0  0  0  0  0  0  0  0  0  0
   -7.3789   22.6815  -30.1800 H   0  0  0  0  0  0  0  0  0  0  0  0
   -7.7249   24.0617  -31.2975 H   0  0  0  0  0  0  0  0  0  0  0  0
   -9.5556   22.1489  -30.7143 H   0  0  0  0  0  0  0  0  0  0  0  0
   -9.4590   23.0000  -32.3214 H   0  0  0  0  0  0  0  0  0  0  0  0
   -9.6548   20.3462  -32.1726 H   0  0  0  0  0  0  0  0  0  0  0  0
   -8.6274   21.1682  -33.4144 H   0  0  0  0  0  0  0  0  0  0  0  0
   -7.6797   20.0003  -30.7557 H   0  0  0  0  0  0  0  0  0  0  0  0
   -7.4052   19.3182  -32.4147 H   0  0  0  0  0  0  0  0  0  0  0  0
   -5.6176   20.9250  -31.0818 H   0  0  0  0  0  0  0  0  0  0  0  0
   -5.7459   20.7580  -32.8937 H   0  0  0  0  0  0  0  0  0  0  0  0
  1  2  1  0
  2  3  1  0
  3  4  1  0
  4  5  1  0
  3  6  1  0
  6  7  1  0
  7  8  1  0
  8  9  2  0
  8 10  1  0
 10 11  1  0
 11 12  1  0
 12 13  1  0
 13 14  1  0
 14 15  1  0
 15 10  1  0
  1 16  1  0
  1 17  1  0
  1 18  1  0
  2 19  1  0
  2 20  1  0
  3 21  1  0
  4 22  1  0
  4 23  1  0
  5 24  1  0
  5 25  1  0
  5 26  1  0
  6 27  1  0
  7 28  1  0
  7 29  1  0
 10 30  1  0
 11 31  1  0
 11 32  1  0
 12 33  1  0
 12 34  1  0
 13 35  1  0
 13 36  1  0
 14 37  1  0
 14 38  1  0
 15 39  1  0
 15 40  1  0
M  CHG  1  10   1
M  END
>  <UniqueID>  (28) 
28

>  <SMILES>  (28) 
CCC(CC)NCC(=O)[NH+]1CCCCC1

>  <Energy>  (28) 
40.28905918878418

>  <Genealogy>  (28) 
CCC(CC)NCC(=O)[NH+]1CCCCC1 (protonated)
CCC(CC)NCC(=O)[NH+]1CCCCC1 (3D coordinates assigned)
CCC(CC)NCC(=O)[NH+]1CCCCC1 (nonaromatic ring conformer: 40.28905918878418 kcal/mol)

>  <smiles>  (28) 
CCC(CC)NCC(=O)N1CCCCC1

>  <score_type>  (28) 
oracle

>  <origin>  (28) 
adg

>  <m_score__min__energy>  (28) 
-5.7000000000000002

>  <m_primary>  (28) 
energy

$$$$
28:0
     RDKit          3D

 48 51  0  0  0  0  0  0  0  0999 V2000
   -6.2970   25.3000  -29.6890 C   0  0  0  0  0  0  0  0  0  0  0  0
   -5.3410   25.6710  -30.8180 C   0  0  0  0  0  0  0  0  0  0  0  0
   -3.9650   25.2990  -30.4590 N   0  0  0  0  0  0  0  0  0  0  0  0
   -3.9400   24.2240  -29.4540 C   0  0  0  0  0  0  0  0  0  0  0  0
   -3.8870   22.8480  -30.1250 C   0  0  0  0  0  0  0  0  0  0  0  0
   -4.3800   22.9100  -31.5000 N   0  0  0  0  0  0  0  0  0  0  0  0
   -4.8000   21.7160  -32.1720 C   0  0  0  0  0  0  0  0  0  0  0  0
   -3.8540   20.8860  -32.8000 C   0  0  0  0  0  0  0  0  0  0  0  0
   -2.4840   21.2230  -32.7830 C   0  0  0  0  0  0  0  0  0  0  0  0
   -1.5370   20.4100  -33.4130 C   0  0  0  0  0  0  0  0  0  0  0  0
   -0.1740   20.7520  -33.3920 C   0  0  0  0  0  0  0  0  0  0  0  0
    0.7650   19.9350  -34.0280 C   0  0  0  0  0  0  0  0  0  0  0  0
    0.3520   18.7760  -34.6890 C   0  0  0  0  0  0  0  0  0  0  0  0
   -1.0020   18.4270  -34.7150 C   0  0  0  0  0  0  0  0  0  0  0  0
   -1.9540   19.2390  -34.0780 C   0  0  0  0  0  0  0  0  0  0  0  0
   -3.3130   18.8940  -34.0970 C   0  0  0  0  0  0  0  0  0  0  0  0
   -4.2870   19.7000  -33.4540 C   0  0  0  0  0  0  0  0  0  0  0  0
   -5.6290   19.3560  -33.4560 N   0  0  0  0  0  0  0  0  0  0  0  0
   -6.0730   18.1020  -34.1060 C   0  0  0  0  0  0  0  0  0  0  0  0
   -6.5590   20.1830  -32.8670 C   0  0  0  0  0  0  0  0  0  0  0  0
   -7.8880   19.8680  -32.9020 N   0  0  0  0  0  0  0  0  0  0  0  0
   -8.8450   20.6520  -32.3430 C   0  0  0  0  0  0  0  0  0  0  0  0
   -8.4880   21.8360  -31.7060 C   0  0  0  0  0  0  0  0  0  0  0  0
   -7.1450   22.2010  -31.6460 C   0  0  0  0  0  0  0  0  0  0  0  0
   -6.1590   21.3760  -32.2200 C   0  0  0  0  0  0  0  0  0  0  0  0
   -5.8111   25.4886  -28.7203 H   0  0  0  0  0  0  0  0  0  0  0  0
   -7.2096   25.9092  -29.7662 H   0  0  0  0  0  0  0  0  0  0  0  0
   -6.5597   24.2346  -29.7662 H   0  0  0  0  0  0  0  0  0  0  0  0
   -5.6349   25.1369  -31.7336 H   0  0  0  0  0  0  0  0  0  0  0  0
   -5.3876   26.7571  -30.9862 H   0  0  0  0  0  0  0  0  0  0  0  0
   -3.5020   24.9350  -31.3250 H   0  0  0  0  0  0  0  0  0  0  0  0
   -3.0523   24.3480  -28.8164 H   0  0  0  0  0  0  0  0  0  0  0  0
   -4.8582   24.2855  -28.8514 H   0  0  0  0  0  0  0  0  0  0  0  0
   -2.8460   22.4927  -30.1329 H   0  0  0  0  0  0  0  0  0  0  0  0
   -4.5283   22.1586  -29.5562 H   0  0  0  0  0  0  0  0  0  0  0  0
   -4.3090   23.7930  -32.0560 H   0  0  0  0  0  0  0  0  0  0  0  0
   -2.1566   22.1377  -32.2671 H   0  0  0  0  0  0  0  0  0  0  0  0
    0.1547   21.6649  -32.8738 H   0  0  0  0  0  0  0  0  0  0  0  0
    1.8311   20.2053  -34.0079 H   0  0  0  0  0  0  0  0  0  0  0  0
    1.0933   18.1363  -35.1902 H   0  0  0  0  0  0  0  0  0  0  0  0
   -1.3224   17.5130  -35.2364 H   0  0  0  0  0  0  0  0  0  0  0  0
   -3.6300   17.9802  -34.6209 H   0  0  0  0  0  0  0  0  0  0  0  0
   -6.3349   17.3623  -33.3352 H   0  0  0  0  0  0  0  0  0  0  0  0
   -6.9536   18.3058  -34.7329 H   0  0  0  0  0  0  0  0  0  0  0  0
   -5.2603   17.7063  -34.7329 H   0  0  0  0  0  0  0  0  0  0  0  0
   -9.9019   20.3512  -32.3937 H   0  0  0  0  0  0  0  0  0  0  0  0
   -9.2587   22.4778  -31.2541 H   0  0  0  0  0  0  0  0  0  0  0  0
   -6.8536   23.1376  -31.1481 H   0  0  0  0  0  0  0  0  0  0  0  0
  1  2  1  0
  2  3  1  0
  3  4  1  0
  4  5  1  0
  5  6  1  0
  6  7  1  0
  7  8  2  0
  8  9  1  0
  9 10  2  0
 10 11  1  0
 11 12  2  0
 12 13  1  0
 13 14  2  0
 14 15  1  0
 15 16  2  0
 16 17  1  0
 17 18  2  0
 18 19  1  0
 18 20  1  0
 20 21  2  0
 21 22  1  0
 22 23  2  0
 23 24  1  0
 24 25  2  0
 25  7  1  0
 17  8  1  0
 25 20  1  0
 15 10  1  0
  1 26  1  0
  1 27  1  0
  1 28  1  0
  2 29  1  0
  2 30  1  0
  3 31  1  0
  4 32  1  0
  4 33  1  0
  5 34  1  0
  5 35  1  0
  6 36  1  0
  9 37  1  0
 11 38  1  0
 12 39  1  0
 13 40  1  0
 14 41  1  0
 16 42  1  0
 19 43  1  0
 19 44  1  0
 19 45  1  0
 22 46  1  0
 23 47  1  0
 24 48  1  0
M  CHG  1  18   1
M  END
>  <UniqueID>  (29) 
29

>  <SMILES>  (29) 
CCNCCNc1c2cc3ccccc3cc2[n+](C)c2ncccc12

>  <Energy>  (29) 
70.21952450725573

>  <Genealogy>  (29) 
CCNCCNc1c2cc3ccccc3cc2[n+](C)c2ncccc12 (3D coordinates assigned)
CCNCCNc1c2cc3ccccc3cc2[n+](C)c2ncccc12 (optimized conformer: 70.21952450725573 kcal/mol)

>  <smiles>  (29) 
CCNCCNc1c2cc3ccccc3cc2[n+](C)c2ncccc12

>  <score_type>  (29) 
oracle

>  <origin>  (29) 
adg

>  <m_score__min__energy>  (29) 
-9.1500000000000004

>  <m_primary>  (29) 
energy

$$$$
