0:0
     RDKit          3D

 50 51  0  0  0  0  0  0  0  0999 V2000
   -7.9060   18.2120  -31.9910 C   0  0  0  0  0  0  0  0  0  0  0  0
   -9.0250   19.2010  -32.2530 C   0  0  0  0  0  0  0  0  0  0  0  0
   -9.0480   20.1520  -31.2630 O   0  0  0  0  0  0  0  0  0  0  0  0
   -8.7010   21.4180  -31.6640 C   0  0  0  0  0  0  0  0  0  0  0  0
   -7.4050   21.5400  -32.4070 C   0  0  0  0  0  0  0  0  0  0  0  0
   -6.5240   22.4940  -31.8860 N   0  0  0  0  0  0  0  0  0  0  0  0
   -5.2290   21.9940  -31.5800 C   0  0  0  0  0  0  0  0  0  0  0  0
   -4.1750   23.0560  -31.4740 C   0  0  0  0  0  0  0  0  0  0  0  0
   -4.5840   24.2400  -30.8350 N   0  0  0  0  0  0  0  0  0  0  0  0
   -4.0630   24.5430  -29.5570 C   0  0  0  0  0  0  0  0  0  0  0  0
   -2.9940   23.6920  -29.0420 C   0  0  0  0  0  0  0  0  0  0  0  0
   -3.0870   22.3420  -28.7930 C   0  0  0  0  0  0  0  0  0  0  0  0
   -2.0310   21.5890  -28.3030 C   0  0  0  0  0  0  0  0  0  0  0  0
   -2.2160   20.2320  -28.0830 O   0  0  0  0  0  0  0  0  0  0  0  0
   -2.3050   19.7780  -26.7520 C   0  0  0  0  0  0  0  0  0  0  0  0
   -0.8380   22.2300  -28.0570 C   0  0  0  0  0  0  0  0  0  0  0  0
   -0.7080   23.5880  -28.2950 C   0  0  0  0  0  0  0  0  0  0  0  0
   -1.7620   24.3020  -28.7760 C   0  0  0  0  0  0  0  0  0  0  0  0
   -1.5870   25.6610  -29.0000 O   0  0  0  0  0  0  0  0  0  0  0  0
   -0.8620   26.5130  -28.1140 C   0  0  0  0  0  0  0  0  0  0  0  0
   -5.9330   24.6170  -30.9640 C   0  0  0  0  0  0  0  0  0  0  0  0
   -6.9450   23.4880  -31.0030 C   0  0  0  0  0  0  0  0  0  0  0  0
   -7.7697   18.0915  -30.9062 H   0  0  0  0  0  0  0  0  0  0  0  0
   -8.1630   17.2405  -32.4384 H   0  0  0  0  0  0  0  0  0  0  0  0
   -6.9735   18.5865  -32.4384 H   0  0  0  0  0  0  0  0  0  0  0  0
   -8.8602   19.6896  -33.2246 H   0  0  0  0  0  0  0  0  0  0  0  0
   -9.9862   18.6663  -32.2646 H   0  0  0  0  0  0  0  0  0  0  0  0
   -9.5008   21.7948  -32.3184 H   0  0  0  0  0  0  0  0  0  0  0  0
   -8.5673   21.9961  -30.7378 H   0  0  0  0  0  0  0  0  0  0  0  0
   -6.9033   20.5613  -32.3854 H   0  0  0  0  0  0  0  0  0  0  0  0
   -7.6584   21.8717  -33.4247 H   0  0  0  0  0  0  0  0  0  0  0  0
   -5.2818   21.4618  -30.6188 H   0  0  0  0  0  0  0  0  0  0  0  0
   -4.9365   21.3368  -32.4122 H   0  0  0  0  0  0  0  0  0  0  0  0
   -3.3272   22.6397  -30.9102 H   0  0  0  0  0  0  0  0  0  0  0  0
   -3.9185   23.3375  -32.5060 H   0  0  0  0  0  0  0  0  0  0  0  0
   -3.6748   25.5715  -29.5956 H   0  0  0  0  0  0  0  0  0  0  0  0
   -4.9046   24.3811  -28.8675 H   0  0  0  0  0  0  0  0  0  0  0  0
   -4.0436   21.8367  -28.9919 H   0  0  0  0  0  0  0  0  0  0  0  0
   -2.1397   20.6212  -26.0652 H   0  0  0  0  0  0  0  0  0  0  0  0
   -3.3038   19.3520  -26.5759 H   0  0  0  0  0  0  0  0  0  0  0  0
   -1.5410   19.0064  -26.5759 H   0  0  0  0  0  0  0  0  0  0  0  0
    0.0184   21.6594  -27.6685 H   0  0  0  0  0  0  0  0  0  0  0  0
    0.2496   24.0909  -28.0948 H   0  0  0  0  0  0  0  0  0  0  0  0
   -1.0930   26.2415  -27.0734 H   0  0  0  0  0  0  0  0  0  0  0  0
    0.2169   26.3950  -28.2929 H   0  0  0  0  0  0  0  0  0  0  0  0
   -1.1511   27.5592  -28.2929 H   0  0  0  0  0  0  0  0  0  0  0  0
   -6.1838   25.2626  -30.1095 H   0  0  0  0  0  0  0  0  0  0  0  0
   -6.0071   25.1116  -31.9438 H   0  0  0  0  0  0  0  0  0  0  0  0
   -7.0494   23.0587  -29.9956 H   0  0  0  0  0  0  0  0  0  0  0  0
   -7.9125   23.8849  -31.3442 H   0  0  0  0  0  0  0  0  0  0  0  0
  1  2  1  0
  2  3  1  0
  3  4  1  0
  4  5  1  0
  5  6  1  0
  6  7  1  0
  7  8  1  0
  8  9  1  0
  9 10  1  0
 10 11  1  0
 11 12  2  0
 12 13  1  0
 13 14  1  0
 14 15  1  0
 13 16  2  0
 16 17  1  0
 17 18  2  0
 18 19  1  0
 19 20  1  0
  9 21  1  0
 21 22  1  0
 22  6  1  0
 18 11  1  0
  1 23  1  0
  1 24  1  0
  1 25  1  0
  2 26  1  0
  2 27  1  0
  4 28  1  0
  4 29  1  0
  5 30  1  0
  5 31  1  0
  7 32  1  0
  7 33  1  0
  8 34  1  0
  8 35  1  0
 10 36  1  0
 10 37  1  0
 12 38  1  0
 15 39  1  0
 15 40  1  0
 15 41  1  0
 16 42  1  0
 17 43  1  0
 20 44  1  0
 20 45  1  0
 20 46  1  0
 21 47  1  0
 21 48  1  0
 22 49  1  0
 22 50  1  0
M  END
>  <smiles>  (1) 
CCOCCN1CCN(Cc2cc(OC)ccc2OC)CC1

>  <score_type>  (1) 
oracle

>  <origin>  (1) 
adg

>  <m_score__min__energy>  (1) 
-7.0499999999999998

>  <m_primary>  (1) 
energy

$$$$
1:0
     RDKit          3D

 36 37  0  0  0  0  0  0  0  0999 V2000
   -1.5950   26.7860  -24.8920 C   0  0  0  0  0  0  0  0  0  0  0  0
   -1.6420   25.4960  -25.6670 C   0  0  0  0  0  0  0  0  0  0  0  0
   -2.7260   25.3530  -26.5400 N   0  0  0  0  0  0  0  0  0  0  0  0
   -2.7730   24.2940  -27.4670 C   0  0  0  0  0  0  0  0  0  0  0  0
   -2.1780   24.6410  -28.8090 C   0  0  0  0  0  0  0  0  0  0  0  0
   -3.1400   25.1890  -29.6880 O   0  0  0  0  0  0  0  0  0  0  0  0
   -4.2230   24.4570  -30.1260 C   0  0  0  0  0  0  0  0  0  0  0  0
   -3.9460   23.2020  -30.6640 C   0  0  0  0  0  0  0  0  0  0  0  0
   -4.9890   22.3960  -31.1260 C   0  0  0  0  0  0  0  0  0  0  0  0
   -6.3050   22.8180  -31.0650 C   0  0  0  0  0  0  0  0  0  0  0  0
   -7.4190   21.9930  -31.5180 C   0  0  0  0  0  0  0  0  0  0  0  0
   -7.1270   20.7200  -31.9550 C   0  0  0  0  0  0  0  0  0  0  0  0
   -8.1460   19.9010  -32.4000 C   0  0  0  0  0  0  0  0  0  0  0  0
   -9.4500   20.3590  -32.4040 C   0  0  0  0  0  0  0  0  0  0  0  0
   -9.7150   21.6180  -31.9680 N   0  0  0  0  0  0  0  0  0  0  0  0
   -8.7140   22.4160  -31.5340 C   0  0  0  0  0  0  0  0  0  0  0  0
   -6.5270   24.0640  -30.5280 C   0  0  0  0  0  0  0  0  0  0  0  0
   -5.5350   24.8950  -30.0590 C   0  0  0  0  0  0  0  0  0  0  0  0
   -1.6030   26.5667  -23.8141 H   0  0  0  0  0  0  0  0  0  0  0  0
   -0.6763   27.3342  -25.1478 H   0  0  0  0  0  0  0  0  0  0  0  0
   -2.4714   27.3996  -25.1478 H   0  0  0  0  0  0  0  0  0  0  0  0
   -0.7184   25.4239  -26.2601 H   0  0  0  0  0  0  0  0  0  0  0  0
   -1.7532   24.6990  -24.9171 H   0  0  0  0  0  0  0  0  0  0  0  0
   -3.4480   26.0650  -26.5920 H   0  0  0  0  0  0  0  0  0  0  0  0
   -2.2171   23.4414  -27.0498 H   0  0  0  0  0  0  0  0  0  0  0  0
   -3.8343   24.0586  -27.6352 H   0  0  0  0  0  0  0  0  0  0  0  0
   -1.3724   25.3754  -28.6614 H   0  0  0  0  0  0  0  0  0  0  0  0
   -1.7933   23.7146  -29.2604 H   0  0  0  0  0  0  0  0  0  0  0  0
   -2.9069   22.8463  -30.7249 H   0  0  0  0  0  0  0  0  0  0  0  0
   -4.7594   21.4059  -31.5467 H   0  0  0  0  0  0  0  0  0  0  0  0
   -6.0884   20.3578  -31.9496 H   0  0  0  0  0  0  0  0  0  0  0  0
   -7.9197   18.8835  -32.7515 H   0  0  0  0  0  0  0  0  0  0  0  0
  -10.2653   19.7103  -32.7568 H   0  0  0  0  0  0  0  0  0  0  0  0
   -8.9508   23.4320  -31.1851 H   0  0  0  0  0  0  0  0  0  0  0  0
   -7.5660   24.4204  -30.4693 H   0  0  0  0  0  0  0  0  0  0  0  0
   -5.7785   25.8830  -29.6411 H   0  0  0  0  0  0  0  0  0  0  0  0
  1  2  1  0
  2  3  1  0
  3  4  1  0
  4  5  1  0
  5  6  1  0
  6  7  1  0
  7  8  2  0
  8  9  1  0
  9 10  2  0
 10 11  1  0
 11 12  2  0
 12 13  1  0
 13 14  2  0
 14 15  1  0
 15 16  2  0
 10 17  1  0
 17 18  2  0
 18  7  1  0
 16 11  1  0
  1 19  1  0
  1 20  1  0
  1 21  1  0
  2 22  1  0
  2 23  1  0
  3 24  1  0
  4 25  1  0
  4 26  1  0
  5 27  1  0
  5 28  1  0
  8 29  1  0
  9 30  1  0
 12 31  1  0
 13 32  1  0
 14 33  1  0
 16 34  1  0
 17 35  1  0
 18 36  1  0
M  END
>  <smiles>  (2) 
CCNCCOc1ccc(-c2cccnc2)cc1

>  <score_type>  (2) 
oracle

>  <origin>  (2) 
adg

>  <m_score__min__energy>  (2) 
-7.3600000000000003

>  <m_primary>  (2) 
energy

$$$$
2:0
     RDKit          3D

 64 67  0  0  0  0  0  0  0  0999 V2000
    1.2850   24.6020  -27.0970 C   0  0  0  0  0  0  0  0  0  0  0  0
    0.5260   24.8950  -28.2020 O   0  0  0  0  0  0  0  0  0  0  0  0
   -0.8250   24.8930  -28.0180 C   0  0  0  0  0  0  0  0  0  0  0  0
   -1.4060   23.5610  -27.6230 C   0  0  0  0  0  0  0  0  0  0  0  0
   -2.0340   22.9630  -28.7820 N   0  0  0  0  0  0  0  0  0  0  0  0
   -2.6290   21.7270  -28.4020 C   0  0  0  0  0  0  0  0  0  0  0  0
   -2.5310   20.6660  -29.4830 C   0  0  0  0  0  0  0  0  0  0  0  0
   -1.2200   20.5240  -29.9790 N   0  0  0  0  0  0  0  0  0  0  0  0
   -1.0990   19.4860  -30.9330 C   0  0  0  0  0  0  0  0  0  0  0  0
   -0.8180   19.9530  -32.3370 C   0  0  0  0  0  0  0  0  0  0  0  0
    0.4940   20.1270  -32.7740 C   0  0  0  0  0  0  0  0  0  0  0  0
    0.8030   20.6280  -34.0200 C   0  0  0  0  0  0  0  0  0  0  0  0
    2.2300   20.7850  -34.4320 C   0  0  0  0  0  0  0  0  0  0  0  0
    3.0870   20.3040  -33.4700 F   0  0  0  0  0  0  0  0  0  0  0  0
    2.5380   22.1240  -34.6080 F   0  0  0  0  0  0  0  0  0  0  0  0
    2.3860   20.1100  -35.6540 F   0  0  0  0  0  0  0  0  0  0  0  0
   -0.2110   20.9750  -34.8790 C   0  0  0  0  0  0  0  0  0  0  0  0
   -1.5120   20.8090  -34.4620 C   0  0  0  0  0  0  0  0  0  0  0  0
   -1.8320   20.3020  -33.2010 C   0  0  0  0  0  0  0  0  0  0  0  0
   -3.2400   20.1330  -32.9060 C   0  0  0  0  0  0  0  0  0  0  0  0
   -3.7790   18.8790  -33.2470 C   0  0  0  0  0  0  0  0  0  0  0  0
   -2.9420   17.8120  -33.8650 C   0  0  0  0  0  0  0  0  0  0  0  0
   -5.1040   18.5870  -33.0380 C   0  0  0  0  0  0  0  0  0  0  0  0
   -5.9350   19.5510  -32.4780 C   0  0  0  0  0  0  0  0  0  0  0  0
   -7.2910   19.2030  -32.2830 N   0  0  0  0  0  0  0  0  0  0  0  0
   -8.3110   19.8980  -32.8240 N   0  0  0  0  0  0  0  0  0  0  0  0
   -9.4830   19.3340  -32.4750 C   0  0  0  0  0  0  0  0  0  0  0  0
   -9.1670   18.2700  -31.7030 N   0  0  0  0  0  0  0  0  0  0  0  0
   -7.8540   18.2140  -31.6060 N   0  0  0  0  0  0  0  0  0  0  0  0
   -5.3920   20.7800  -32.1480 C   0  0  0  0  0  0  0  0  0  0  0  0
   -4.0560   21.0880  -32.3530 C   0  0  0  0  0  0  0  0  0  0  0  0
   -3.4950   22.3110  -32.0320 O   0  0  0  0  0  0  0  0  0  0  0  0
   -4.1700   23.2660  -31.2260 C   0  0  0  0  0  0  0  0  0  0  0  0
   -0.4530   21.6860  -30.0770 C   0  0  0  0  0  0  0  0  0  0  0  0
   -1.2710   22.9690  -29.9710 C   0  0  0  0  0  0  0  0  0  0  0  0
    0.7087   24.8245  -26.1868 H   0  0  0  0  0  0  0  0  0  0  0  0
    1.5539   23.5354  -27.1092 H   0  0  0  0  0  0  0  0  0  0  0  0
    2.2008   25.2112  -27.1092 H   0  0  0  0  0  0  0  0  0  0  0  0
   -1.0638   25.6188  -27.2267 H   0  0  0  0  0  0  0  0  0  0  0  0
   -1.2706   25.1494  -28.9905 H   0  0  0  0  0  0  0  0  0  0  0  0
   -0.6049   22.9026  -27.2558 H   0  0  0  0  0  0  0  0  0  0  0  0
   -2.1503   23.7001  -26.8251 H   0  0  0  0  0  0  0  0  0  0  0  0
   -2.1213   21.3561  -27.4994 H   0  0  0  0  0  0  0  0  0  0  0  0
   -3.6975   21.9170  -28.2225 H   0  0  0  0  0  0  0  0  0  0  0  0
   -2.8560   19.7027  -29.0630 H   0  0  0  0  0  0  0  0  0  0  0  0
   -3.1738   20.9787  -30.3191 H   0  0  0  0  0  0  0  0  0  0  0  0
   -0.2761   18.8267  -30.6198 H   0  0  0  0  0  0  0  0  0  0  0  0
   -2.0733   18.9763  -30.9636 H   0  0  0  0  0  0  0  0  0  0  0  0
    1.3164   19.8532  -32.0967 H   0  0  0  0  0  0  0  0  0  0  0  0
    0.0119   21.3768  -35.8784 H   0  0  0  0  0  0  0  0  0  0  0  0
   -2.3281   21.0853  -35.1459 H   0  0  0  0  0  0  0  0  0  0  0  0
   -2.4706   17.2111  -33.0733 H   0  0  0  0  0  0  0  0  0  0  0  0
   -3.5754   17.1643  -34.4889 H   0  0  0  0  0  0  0  0  0  0  0  0
   -2.1621   18.2730  -34.4889 H   0  0  0  0  0  0  0  0  0  0  0  0
   -5.5046   17.5996  -33.3110 H   0  0  0  0  0  0  0  0  0  0  0  0
  -10.4910   19.6701  -32.7597 H   0  0  0  0  0  0  0  0  0  0  0  0
   -6.0474   21.5442  -31.7047 H   0  0  0  0  0  0  0  0  0  0  0  0
   -4.0046   23.0319  -30.1640 H   0  0  0  0  0  0  0  0  0  0  0  0
   -3.7807   24.2712  -31.4449 H   0  0  0  0  0  0  0  0  0  0  0  0
   -5.2475   23.2344  -31.4449 H   0  0  0  0  0  0  0  0  0  0  0  0
    0.2915   21.6805  -29.2672 H   0  0  0  0  0  0  0  0  0  0  0  0
    0.0124   21.6819  -31.0737 H   0  0  0  0  0  0  0  0  0  0  0  0
   -0.5913   23.8339  -29.9625 H   0  0  0  0  0  0  0  0  0  0  0  0
   -1.9503   23.0345  -30.8337 H   0  0  0  0  0  0  0  0  0  0  0  0
  1  2  1  0
  2  3  1  0
  3  4  1  0
  4  5  1  0
  5  6  1  0
  6  7  1  0
  7  8  1  0
  8  9  1  0
  9 10  1  0
 10 11  2  0
 11 12  1  0
 12 13  1  0
 13 14  1  0
 13 15  1  0
 13 16  1  0
 12 17  2  0
 17 18  1  0
 18 19  2  0
 19 20  1  0
 20 21  2  0
 21 22  1  0
 21 23  1  0
 23 24  2  0
 24 25  1  0
 25 26  1  0
 26 27  2  0
 27 28  1  0
 28 29  2  0
 24 30  1  0
 30 31  2  0
 31 32  1  0
 32 33  1  0
  8 34  1  0
 34 35  1  0
 35  5  1  0
 19 10  1  0
 31 20  1  0
 29 25  1  0
  1 36  1  0
  1 37  1  0
  1 38  1  0
  3 39  1  0
  3 40  1  0
  4 41  1  0
  4 42  1  0
  6 43  1  0
  6 44  1  0
  7 45  1  0
  7 46  1  0
  9 47  1  0
  9 48  1  0
 11 49  1  0
 17 50  1  0
 18 51  1  0
 22 52  1  0
 22 53  1  0
 22 54  1  0
 23 55  1  0
 27 56  1  0
 30 57  1  0
 33 58  1  0
 33 59  1  0
 33 60  1  0
 34 61  1  0
 34 62  1  0
 35 63  1  0
 35 64  1  0
M  END
>  <smiles>  (3) 
COCCN1CCN(Cc2cc(C(F)(F)F)ccc2-c2c(C)cc(-n3ncnn3)cc2OC)CC1

>  <score_type>  (3) 
oracle

>  <origin>  (3) 
adg

>  <m_score__min__energy>  (3) 
-8.0299999999999994

>  <m_primary>  (3) 
energy

$$$$
3:0
     RDKit          3D

 46 47  0  0  0  0  0  0  0  0999 V2000
   -4.1450   16.1140  -34.5920 C   0  0  0  0  0  0  0  0  0  0  0  0
   -4.1470   17.5790  -34.9710 C   0  0  0  0  0  0  0  0  0  0  0  0
   -4.6000   18.4190  -33.8870 N   0  0  0  0  0  0  0  0  0  0  0  0
   -5.9440   18.4240  -33.4620 C   0  0  0  0  0  0  0  0  0  0  0  0
   -6.8310   17.6880  -34.0130 O   0  0  0  0  0  0  0  0  0  0  0  0
   -6.3970   19.3340  -32.2980 C   0  0  0  0  0  0  0  0  0  0  0  0
   -5.1720   19.6910  -31.7080 N   0  0  0  0  0  0  0  0  0  0  0  0
   -4.1180   20.8160  -32.3150 S   0  0  0  0  0  0  0  0  0  0  0  0
   -4.4790   21.1050  -33.8030 O   0  0  0  0  0  0  0  0  0  0  0  0
   -2.6640   20.4260  -32.3950 O   0  0  0  0  0  0  0  0  0  0  0  0
   -4.3020   22.3690  -31.6080 N   0  0  0  0  0  0  0  0  0  0  0  0
   -4.4840   22.4410  -30.2140 C   0  0  0  0  0  0  0  0  0  0  0  0
   -4.2710   23.9160  -29.8280 C   0  0  0  0  0  0  0  0  0  0  0  0
   -4.6520   24.7710  -30.8480 O   0  0  0  0  0  0  0  0  0  0  0  0
   -5.7810   24.2550  -31.4760 C   0  0  0  0  0  0  0  0  0  0  0  0
   -5.3940   23.0320  -32.2840 C   0  0  0  0  0  0  0  0  0  0  0  0
   -7.2890   18.5640  -31.3930 C   0  0  0  0  0  0  0  0  0  0  0  0
   -8.7490   18.6010  -31.6470 C   0  0  0  0  0  0  0  0  0  0  0  0
   -9.3110   19.7780  -32.3600 C   0  0  0  0  0  0  0  0  0  0  0  0
   -8.3420   20.9300  -32.3180 C   0  0  0  0  0  0  0  0  0  0  0  0
   -7.0540   20.4840  -32.9850 C   0  0  0  0  0  0  0  0  0  0  0  0
   -4.1449   16.0188  -33.4961 H   0  0  0  0  0  0  0  0  0  0  0  0
   -5.0425   15.6279  -35.0022 H   0  0  0  0  0  0  0  0  0  0  0  0
   -3.2462   15.6304  -35.0022 H   0  0  0  0  0  0  0  0  0  0  0  0
   -3.1242   17.8757  -35.2463 H   0  0  0  0  0  0  0  0  0  0  0  0
   -4.8408   17.7102  -35.8145 H   0  0  0  0  0  0  0  0  0  0  0  0
   -3.9250   19.0260  -33.4160 H   0  0  0  0  0  0  0  0  0  0  0  0
   -4.6890   18.7800  -31.4430 H   0  0  0  0  0  0  0  0  0  0  0  0
   -5.5011   22.1197  -29.9453 H   0  0  0  0  0  0  0  0  0  0  0  0
   -3.7804   21.7825  -29.6836 H   0  0  0  0  0  0  0  0  0  0  0  0
   -4.8690   24.1403  -28.9324 H   0  0  0  0  0  0  0  0  0  0  0  0
   -3.1991   24.0690  -29.6339 H   0  0  0  0  0  0  0  0  0  0  0  0
   -6.5260   23.9729  -30.7175 H   0  0  0  0  0  0  0  0  0  0  0  0
   -6.2094   25.0162  -32.1446 H   0  0  0  0  0  0  0  0  0  0  0  0
   -6.2533   22.3496  -32.3607 H   0  0  0  0  0  0  0  0  0  0  0  0
   -5.0880   23.3287  -33.2981 H   0  0  0  0  0  0  0  0  0  0  0  0
   -6.9758   17.5108  -31.4457 H   0  0  0  0  0  0  0  0  0  0  0  0
   -7.1711   19.0532  -30.4148 H   0  0  0  0  0  0  0  0  0  0  0  0
   -8.9986   17.7101  -32.2420 H   0  0  0  0  0  0  0  0  0  0  0  0
   -9.1977   18.6518  -30.6439 H   0  0  0  0  0  0  0  0  0  0  0  0
   -9.5067   19.5072  -33.4080 H   0  0  0  0  0  0  0  0  0  0  0  0
  -10.2463   20.0807  -31.8664 H   0  0  0  0  0  0  0  0  0  0  0  0
   -8.7627   21.7915  -32.8572 H   0  0  0  0  0  0  0  0  0  0  0  0
   -8.1495   21.2296  -31.2772 H   0  0  0  0  0  0  0  0  0  0  0  0
   -7.2818   20.1879  -34.0196 H   0  0  0  0  0  0  0  0  0  0  0  0
   -6.3546   21.3318  -32.9389 H   0  0  0  0  0  0  0  0  0  0  0  0
  1  2  1  0
  2  3  1  0
  3  4  1  0
  4  5  2  0
  4  6  1  0
  6  7  1  0
  7  8  1  0
  8  9  2  0
  8 10  2  0
  8 11  1  0
 11 12  1  0
 12 13  1  0
 13 14  1  0
 14 15  1  0
 15 16  1  0
  6 17  1  0
 17 18  1  0
 18 19  1  0
 19 20  1  0
 20 21  1  0
 21  6  1  0
 16 11  1  0
  1 22  1  0
  1 23  1  0
  1 24  1  0
  2 25  1  0
  2 26  1  0
  3 27  1  0
  7 28  1  0
 12 29  1  0
 12 30  1  0
 13 31  1  0
 13 32  1  0
 15 33  1  0
 15 34  1  0
 16 35  1  0
 16 36  1  0
 17 37  1  0
 17 38  1  0
 18 39  1  0
 18 40  1  0
 19 41  1  0
 19 42  1  0
 20 43  1  0
 20 44  1  0
 21 45  1  0
 21 46  1  0
M  END
>  <smiles>  (4) 
CCNC(=O)C1(NS(=O)(=O)N2CCOCC2)CCCCC1

>  <score_type>  (4) 
oracle

>  <origin>  (4) 
adg

>  <m_score__min__energy>  (4) 
-7.8600000000000003

>  <m_primary>  (4) 
energy

$$$$
4:0
     RDKit          3D

 45 47  0  0  1  0  0  0  0  0999 V2000
   -5.7300   25.6800  -30.3760 C   0  0  0  0  0  0  0  0  0  0  0  0
   -5.8640   24.2900  -30.9040 C   0  0  0  0  0  0  0  0  0  0  0  0
   -5.0570   23.6780  -31.7510 N   0  0  0  0  0  0  0  0  0  0  0  0
   -5.5280   22.4110  -31.9860 C   0  0  0  0  0  0  0  0  0  0  0  0
   -4.7940   21.5050  -32.9000 C   0  0  1  0  0  0  0  0  0  0  0  0
   -3.3660   21.9250  -33.1670 C   0  0  0  0  0  0  0  0  0  0  0  0
   -4.6760   20.1760  -32.2750 N   0  0  0  0  0  0  0  0  0  0  0  0
   -3.8660   20.1320  -31.0720 C   0  0  0  0  0  0  0  0  0  0  0  0
   -5.2850   19.0150  -32.7660 C   0  0  0  0  0  0  0  0  0  0  0  0
   -5.9340   18.0610  -32.0300 C   0  0  0  0  0  0  0  0  0  0  0  0
   -6.5180   16.9290  -32.5930 C   0  0  0  0  0  0  0  0  0  0  0  0
   -6.4610   16.7180  -33.9470 C   0  0  0  0  0  0  0  0  0  0  0  0
   -5.8110   17.6680  -34.7070 C   0  0  0  0  0  0  0  0  0  0  0  0
   -5.2360   18.7880  -34.1470 C   0  0  0  0  0  0  0  0  0  0  0  0
   -6.6210   22.2820  -31.2690 N   0  0  0  0  0  0  0  0  0  0  0  0
   -7.4920   21.1540  -31.1430 C   0  0  0  0  0  0  0  0  0  0  0  0
   -8.8270   21.5760  -30.4870 C   0  0  0  0  0  0  0  0  0  0  0  0
   -9.6650   21.9050  -31.6770 C   0  0  0  0  0  0  0  0  0  0  0  0
   -9.4220   20.6710  -32.5530 C   0  0  0  0  0  0  0  0  0  0  0  0
   -7.9210   20.5950  -32.5040 C   0  0  0  0  0  0  0  0  0  0  0  0
   -6.8430   23.4270  -30.5970 N   0  0  0  0  0  0  0  0  0  0  0  0
   -5.7323   25.6563  -29.2763 H   0  0  0  0  0  0  0  0  0  0  0  0
   -4.7855   26.1178  -30.7314 H   0  0  0  0  0  0  0  0  0  0  0  0
   -6.5735   26.2901  -30.7314 H   0  0  0  0  0  0  0  0  0  0  0  0
   -5.3680   21.5189  -33.8382 H   0  0  0  0  0  0  0  0  0  0  0  0
   -2.8441   22.0785  -32.2109 H   0  0  0  0  0  0  0  0  0  0  0  0
   -2.8542   21.1394  -33.7421 H   0  0  0  0  0  0  0  0  0  0  0  0
   -3.3610   22.8627  -33.7421 H   0  0  0  0  0  0  0  0  0  0  0  0
   -4.5199   20.1675  -30.1882 H   0  0  0  0  0  0  0  0  0  0  0  0
   -3.2807   19.2007  -31.0579 H   0  0  0  0  0  0  0  0  0  0  0  0
   -3.1833   20.9944  -31.0579 H   0  0  0  0  0  0  0  0  0  0  0  0
   -5.9975   18.1950  -30.9400 H   0  0  0  0  0  0  0  0  0  0  0  0
   -7.0284   16.1992  -31.9474 H   0  0  0  0  0  0  0  0  0  0  0  0
   -6.9148   15.8282  -34.4077 H   0  0  0  0  0  0  0  0  0  0  0  0
   -5.7496   17.5268  -35.7962 H   0  0  0  0  0  0  0  0  0  0  0  0
   -4.7293   19.5170  -34.7965 H   0  0  0  0  0  0  0  0  0  0  0  0
   -6.9250   20.4151  -30.5577 H   0  0  0  0  0  0  0  0  0  0  0  0
   -9.2649   20.7516  -29.9050 H   0  0  0  0  0  0  0  0  0  0  0  0
   -8.7275   22.4050  -29.7709 H   0  0  0  0  0  0  0  0  0  0  0  0
  -10.7267   22.0073  -31.4081 H   0  0  0  0  0  0  0  0  0  0  0  0
   -9.4138   22.8612  -32.1593 H   0  0  0  0  0  0  0  0  0  0  0  0
   -9.8888   19.7711  -32.1261 H   0  0  0  0  0  0  0  0  0  0  0  0
   -9.8460   20.7359  -33.5659 H   0  0  0  0  0  0  0  0  0  0  0  0
   -7.5915   19.5504  -32.6049 H   0  0  0  0  0  0  0  0  0  0  0  0
   -7.4702   21.1703  -33.3261 H   0  0  0  0  0  0  0  0  0  0  0  0
  1  2  1  0
  2  3  1  0
  3  4  2  0
  4  5  1  0
  5  6  1  0
  5  7  1  0
  7  8  1  0
  7  9  1  0
  9 10  2  0
 10 11  1  0
 11 12  2  0
 12 13  1  0
 13 14  2  0
  4 15  1  0
 15 16  1  0
 16 17  1  0
 17 18  1  0
 18 19  1  0
 19 20  1  0
 15 21  1  0
 21  2  2  0
 14  9  1  0
 20 16  1  0
  1 22  1  0
  1 23  1  0
  1 24  1  0
  5 25  1  6
  6 26  1  0
  6 27  1  0
  6 28  1  0
  8 29  1  0
  8 30  1  0
  8 31  1  0
 10 32  1  0
 11 33  1  0
 12 34  1  0
 13 35  1  0
 14 36  1  0
 16 37  1  0
 17 38  1  0
 17 39  1  0
 18 40  1  0
 18 41  1  0
 19 42  1  0
 19 43  1  0
 20 44  1  0
 20 45  1  0
M  END
>  <smiles>  (5) 
Cc1nc(C(C)N(C)c2ccccc2)n(C2CCCC2)n1

>  <score_type>  (5) 
oracle

>  <origin>  (5) 
adg

>  <m_score__min__energy>  (5) 
-7.5700000000000003

>  <m_primary>  (5) 
energy

$$$$
5:0
     RDKit          3D

 42 44  0  0  0  0  0  0  0  0999 V2000
   -6.3320   25.0290  -29.7110 C   0  0  0  0  0  0  0  0  0  0  0  0
   -5.4190   25.9250  -30.5180 C   0  0  0  0  0  0  0  0  0  0  0  0
   -4.2070   25.2960  -30.8100 O   0  0  0  0  0  0  0  0  0  0  0  0
   -3.9960   24.3310  -29.8380 C   0  0  0  0  0  0  0  0  0  0  0  0
   -3.9300   22.9440  -30.4890 C   0  0  0  0  0  0  0  0  0  0  0  0
   -4.5390   22.9300  -31.7810 N   0  0  0  0  0  0  0  0  0  0  0  0
   -5.0490   21.7270  -32.2970 C   0  0  0  0  0  0  0  0  0  0  0  0
   -6.3860   21.3920  -32.2310 C   0  0  0  0  0  0  0  0  0  0  0  0
   -7.2200   22.3160  -31.6240 C   0  0  0  0  0  0  0  0  0  0  0  0
   -8.5720   22.0630  -31.5200 C   0  0  0  0  0  0  0  0  0  0  0  0
   -9.0240   20.8690  -32.0410 C   0  0  0  0  0  0  0  0  0  0  0  0
   -8.1870   19.9450  -32.6480 C   0  0  0  0  0  0  0  0  0  0  0  0
   -6.8360   20.1980  -32.7520 C   0  0  0  0  0  0  0  0  0  0  0  0
   -6.0380   19.2930  -33.3460 N   0  0  0  0  0  0  0  0  0  0  0  0
   -6.4640   18.0490  -33.8860 C   0  0  0  0  0  0  0  0  0  0  0  0
   -4.7200   19.6020  -33.4230 C   0  0  0  0  0  0  0  0  0  0  0  0
   -3.7930   18.7660  -34.0100 C   0  0  0  0  0  0  0  0  0  0  0  0
   -2.4370   19.0970  -34.0870 C   0  0  0  0  0  0  0  0  0  0  0  0
   -1.9740   20.2830  -33.5710 C   0  0  0  0  0  0  0  0  0  0  0  0
   -2.8840   21.1320  -32.9800 C   0  0  0  0  0  0  0  0  0  0  0  0
   -4.2190   20.7970  -32.9100 C   0  0  0  0  0  0  0  0  0  0  0  0
   -6.1584   25.1994  -28.6382 H   0  0  0  0  0  0  0  0  0  0  0  0
   -7.3799   25.2590  -29.9539 H   0  0  0  0  0  0  0  0  0  0  0  0
   -6.1217   23.9770  -29.9539 H   0  0  0  0  0  0  0  0  0  0  0  0
   -5.9203   26.1889  -31.4609 H   0  0  0  0  0  0  0  0  0  0  0  0
   -5.2047   26.8240  -29.9215 H   0  0  0  0  0  0  0  0  0  0  0  0
   -3.0481   24.5364  -29.3191 H   0  0  0  0  0  0  0  0  0  0  0  0
   -4.8260   24.3545  -29.1165 H   0  0  0  0  0  0  0  0  0  0  0  0
   -2.8751   22.6491  -30.5904 H   0  0  0  0  0  0  0  0  0  0  0  0
   -4.4798   22.2405  -29.8465 H   0  0  0  0  0  0  0  0  0  0  0  0
   -4.6140   23.8060  -32.3530 H   0  0  0  0  0  0  0  0  0  0  0  0
   -6.8039   23.2526  -31.2244 H   0  0  0  0  0  0  0  0  0  0  0  0
   -9.2572   22.7799  -31.0439 H   0  0  0  0  0  0  0  0  0  0  0  0
  -10.0975   20.6390  -31.9720 H   0  0  0  0  0  0  0  0  0  0  0  0
   -8.6021   19.0079  -33.0475 H   0  0  0  0  0  0  0  0  0  0  0  0
   -6.7015   17.3554  -33.0659 H   0  0  0  0  0  0  0  0  0  0  0  0
   -7.3598   18.2055  -34.5050 H   0  0  0  0  0  0  0  0  0  0  0  0
   -5.6604   17.6235  -34.5050 H   0  0  0  0  0  0  0  0  0  0  0  0
   -4.1317   17.8079  -34.4311 H   0  0  0  0  0  0  0  0  0  0  0  0
   -1.7332   18.4003  -34.5659 H   0  0  0  0  0  0  0  0  0  0  0  0
   -0.9077   20.5471  -33.6280 H   0  0  0  0  0  0  0  0  0  0  0  0
   -2.5409   22.0886  -32.5590 H   0  0  0  0  0  0  0  0  0  0  0  0
  1  2  1  0
  2  3  1  0
  3  4  1  0
  4  5  1  0
  5  6  1  0
  6  7  1  0
  7  8  2  0
  8  9  1  0
  9 10  2  0
 10 11  1  0
 11 12  2  0
 12 13  1  0
 13 14  2  0
 14 15  1  0
 14 16  1  0
 16 17  2  0
 17 18  1  0
 18 19  2  0
 19 20  1  0
 20 21  2  0
 21  7  1  0
 13  8  1  0
 21 16  1  0
  1 22  1  0
  1 23  1  0
  1 24  1  0
  2 25  1  0
  2 26  1  0
  4 27  1  0
  4 28  1  0
  5 29  1  0
  5 30  1  0
  6 31  1  0
  9 32  1  0
 10 33  1  0
 11 34  1  0
 12 35  1  0
 15 36  1  0
 15 37  1  0
 15 38  1  0
 17 39  1  0
 18 40  1  0
 19 41  1  0
 20 42  1  0
M  CHG  1  14   1
M  END
>  <smiles>  (6) 
CCOCCNc1c2ccccc2[n+](C)c2ccccc12

>  <score_type>  (6) 
oracle

>  <origin>  (6) 
adg

>  <m_score__min__energy>  (6) 
-8.1999999999999993

>  <m_primary>  (6) 
energy

$$$$
6:0
     RDKit          3D

 38 41  0  0  0  0  0  0  0  0999 V2000
   -5.6840   26.0600  -30.1000 C   0  0  0  0  0  0  0  0  0  0  0  0
   -4.8780   25.1480  -30.8530 O   0  0  0  0  0  0  0  0  0  0  0  0
   -5.3950   23.9140  -31.2250 C   0  0  0  0  0  0  0  0  0  0  0  0
   -6.5540   23.8650  -31.9760 C   0  0  0  0  0  0  0  0  0  0  0  0
   -7.0860   22.6360  -32.3580 C   0  0  0  0  0  0  0  0  0  0  0  0
   -6.4360   21.4830  -31.9730 C   0  0  0  0  0  0  0  0  0  0  0  0
   -6.8920   20.1780  -32.3080 N   0  0  0  0  0  0  0  0  0  0  0  0
   -8.1030   19.6560  -32.2100 N   0  0  0  0  0  0  0  0  0  0  0  0
   -8.0870   18.3700  -32.6460 C   0  0  0  0  0  0  0  0  0  0  0  0
   -6.8080   18.0900  -33.0290 C   0  0  0  0  0  0  0  0  0  0  0  0
   -6.1620   16.9880  -33.5450 C   0  0  0  0  0  0  0  0  0  0  0  0
   -6.8540   15.8190  -33.7810 C   0  0  0  0  0  0  0  0  0  0  0  0
   -6.2470   14.7000  -34.2950 C   0  0  0  0  0  0  0  0  0  0  0  0
   -7.1940   13.0780  -34.6250 Br  0  0  0  0  0  0  0  0  0  0  0  0
   -4.8860   14.7520  -34.5850 C   0  0  0  0  0  0  0  0  0  0  0  0
   -4.1570   15.9010  -34.3630 C   0  0  0  0  0  0  0  0  0  0  0  0
   -4.7960   17.0150  -33.8450 C   0  0  0  0  0  0  0  0  0  0  0  0
   -4.1070   18.1480  -33.6200 N   0  0  0  0  0  0  0  0  0  0  0  0
   -2.6750   18.1910  -33.9280 C   0  0  0  0  0  0  0  0  0  0  0  0
   -4.7340   19.2280  -33.1160 C   0  0  0  0  0  0  0  0  0  0  0  0
   -6.0700   19.2350  -32.8120 C   0  0  0  0  0  0  0  0  0  0  0  0
   -5.2780   21.5590  -31.2210 C   0  0  0  0  0  0  0  0  0  0  0  0
   -4.7350   22.7480  -30.8330 C   0  0  0  0  0  0  0  0  0  0  0  0
   -5.5292   25.8848  -29.0251 H   0  0  0  0  0  0  0  0  0  0  0  0
   -5.3982   27.0928  -30.3481 H   0  0  0  0  0  0  0  0  0  0  0  0
   -6.7441   25.9033  -30.3481 H   0  0  0  0  0  0  0  0  0  0  0  0
   -7.0567   24.7975  -32.2723 H   0  0  0  0  0  0  0  0  0  0  0  0
   -8.0079   22.5862  -32.9560 H   0  0  0  0  0  0  0  0  0  0  0  0
   -8.9450   17.6826  -32.6834 H   0  0  0  0  0  0  0  0  0  0  0  0
   -7.9287   15.7817  -33.5496 H   0  0  0  0  0  0  0  0  0  0  0  0
   -4.3853   13.8635  -34.9972 H   0  0  0  0  0  0  0  0  0  0  0  0
   -3.0820   15.9324  -34.5943 H   0  0  0  0  0  0  0  0  0  0  0  0
   -2.0988   18.2083  -32.9911 H   0  0  0  0  0  0  0  0  0  0  0  0
   -2.3987   17.3007  -34.5120 H   0  0  0  0  0  0  0  0  0  0  0  0
   -2.4526   19.0962  -34.5120 H   0  0  0  0  0  0  0  0  0  0  0  0
   -4.1490   20.1430  -32.9410 H   0  0  0  0  0  0  0  0  0  0  0  0
   -4.7764   20.6258  -30.9249 H   0  0  0  0  0  0  0  0  0  0  0  0
   -3.8129   22.7869  -30.2345 H   0  0  0  0  0  0  0  0  0  0  0  0
  1  2  1  0
  2  3  1  0
  3  4  2  0
  4  5  1  0
  5  6  2  0
  6  7  1  0
  7  8  1  0
  8  9  2  0
  9 10  1  0
 10 11  2  0
 11 12  1  0
 12 13  2  0
 13 14  1  0
 13 15  1  0
 15 16  2  0
 16 17  1  0
 17 18  2  0
 18 19  1  0
 18 20  1  0
 20 21  2  0
  6 22  1  0
 22 23  2  0
 23  3  1  0
 21  7  1  0
 21 10  1  0
 17 11  1  0
  1 24  1  0
  1 25  1  0
  1 26  1  0
  4 27  1  0
  5 28  1  0
  9 29  1  0
 12 30  1  0
 15 31  1  0
 16 32  1  0
 19 33  1  0
 19 34  1  0
 19 35  1  0
 20 36  1  0
 22 37  1  0
 23 38  1  0
M  CHG  1  18   1
M  END
>  <smiles>  (7) 
COc1ccc(-n2ncc3c4cc(Br)ccc4[n+](C)cc32)cc1

>  <score_type>  (7) 
oracle

>  <origin>  (7) 
adg

>  <m_score__min__energy>  (7) 
-7.7400000000000002

>  <m_primary>  (7) 
energy

$$$$
7:0
     RDKit          3D

 37 39  0  0  0  0  0  0  0  0999 V2000
   -0.8900   30.3340  -25.6500 C   0  0  0  0  0  0  0  0  0  0  0  0
   -0.8520   29.1420  -25.8330 C   0  0  0  0  0  0  0  0  0  0  0  0
   -0.7850   27.7030  -26.0450 C   0  0  0  0  0  0  0  0  0  0  0  0
   -0.1120   27.3270  -27.0350 O   0  0  0  0  0  0  0  0  0  0  0  0
   -1.4510   26.8330  -25.1650 N   0  0  0  0  0  0  0  0  0  0  0  0
   -1.4590   25.3880  -25.2750 C   0  0  0  0  0  0  0  0  0  0  0  0
   -2.2180   25.0060  -26.4920 C   0  0  0  0  0  0  0  0  0  0  0  0
   -3.6030   24.9250  -26.3680 C   0  0  0  0  0  0  0  0  0  0  0  0
   -4.4060   24.5750  -27.4410 C   0  0  0  0  0  0  0  0  0  0  0  0
   -3.8070   24.3060  -28.6440 C   0  0  0  0  0  0  0  0  0  0  0  0
   -4.6580   23.9390  -29.7770 C   0  0  0  0  0  0  0  0  0  0  0  0
   -4.7920   22.9680  -30.4510 N   0  0  0  0  0  0  0  0  0  0  0  0
   -5.6130   22.7720  -31.4560 C   0  0  0  0  0  0  0  0  0  0  0  0
   -5.6870   21.5160  -32.2220 C   0  0  0  0  0  0  0  0  0  0  0  0
   -6.8900   20.9340  -32.5650 C   0  0  0  0  0  0  0  0  0  0  0  0
   -6.9080   19.7430  -33.2910 C   0  0  0  0  0  0  0  0  0  0  0  0
   -5.7480   19.1160  -33.6840 C   0  0  0  0  0  0  0  0  0  0  0  0
   -5.7410   17.6260  -34.5930 Cl  0  0  0  0  0  0  0  0  0  0  0  0
   -4.5470   19.6880  -33.3460 C   0  0  0  0  0  0  0  0  0  0  0  0
   -3.0420   18.9430  -33.8150 Cl  0  0  0  0  0  0  0  0  0  0  0  0
   -4.5440   20.8660  -32.6280 C   0  0  0  0  0  0  0  0  0  0  0  0
   -6.4260   23.8620  -31.7510 C   0  0  0  0  0  0  0  0  0  0  0  0
   -5.8940   25.1210  -30.4810 S   0  0  0  0  0  0  0  0  0  0  0  0
   -2.4380   24.3780  -28.7990 C   0  0  0  0  0  0  0  0  0  0  0  0
   -1.6620   24.7310  -27.7040 C   0  0  0  0  0  0  0  0  0  0  0  0
   -0.9246   31.4207  -25.4832 H   0  0  0  0  0  0  0  0  0  0  0  0
   -1.9830   27.2820  -24.3670 H   0  0  0  0  0  0  0  0  0  0  0  0
   -0.4262   25.0172  -25.3516 H   0  0  0  0  0  0  0  0  0  0  0  0
   -1.9326   24.9477  -24.3851 H   0  0  0  0  0  0  0  0  0  0  0  0
   -4.0695   25.1439  -25.3962 H   0  0  0  0  0  0  0  0  0  0  0  0
   -5.4987   24.5144  -27.3302 H   0  0  0  0  0  0  0  0  0  0  0  0
   -7.8357   21.4095  -32.2657 H   0  0  0  0  0  0  0  0  0  0  0  0
   -7.8759   19.2928  -33.5565 H   0  0  0  0  0  0  0  0  0  0  0  0
   -3.5729   21.3109  -32.3651 H   0  0  0  0  0  0  0  0  0  0  0  0
   -7.1906   23.9575  -32.5360 H   0  0  0  0  0  0  0  0  0  0  0  0
   -1.9711   24.1600  -29.7708 H   0  0  0  0  0  0  0  0  0  0  0  0
   -0.5695   24.7902  -27.8182 H   0  0  0  0  0  0  0  0  0  0  0  0
  1  2  3  0
  2  3  1  0
  3  4  2  0
  3  5  1  0
  5  6  1  0
  6  7  1  0
  7  8  2  0
  8  9  1  0
  9 10  2  0
 10 11  1  0
 11 12  2  0
 12 13  1  0
 13 14  1  0
 14 15  2  0
 15 16  1  0
 16 17  2  0
 17 18  1  0
 17 19  1  0
 19 20  1  0
 19 21  2  0
 13 22  2  0
 22 23  1  0
 10 24  1  0
 24 25  2  0
 25  7  1  0
 23 11  1  0
 21 14  1  0
  1 26  1  0
  5 27  1  0
  6 28  1  0
  6 29  1  0
  8 30  1  0
  9 31  1  0
 15 32  1  0
 16 33  1  0
 21 34  1  0
 22 35  1  0
 24 36  1  0
 25 37  1  0
M  END
>  <smiles>  (8) 
C#CC(=O)NCc1ccc(-c2nc(-c3ccc(Cl)c(Cl)c3)cs2)cc1

>  <score_type>  (8) 
oracle

>  <origin>  (8) 
adg

>  <m_score__min__energy>  (8) 
-9.1699999999999999

>  <m_primary>  (8) 
energy

$$$$
8:0
     RDKit          3D

 55 57  0  0  0  0  0  0  0  0999 V2000
   -6.1110   25.4080  -30.0910 C   0  0  0  0  0  0  0  0  0  0  0  0
   -5.0320   24.6030  -29.4460 C   0  0  0  0  0  0  0  0  0  0  0  0
   -3.8340   24.4890  -30.3520 N   0  0  0  0  0  0  0  0  0  0  0  0
   -2.7630   24.2200  -29.3730 C   0  0  0  0  0  0  0  0  0  0  0  0
   -3.2300   24.1750  -27.9670 C   0  0  0  0  0  0  0  0  0  0  0  0
   -4.0820   23.3330  -31.2060 C   0  0  0  0  0  0  0  0  0  0  0  0
   -3.9420   22.0230  -30.5450 C   0  0  0  0  0  0  0  0  0  0  0  0
   -3.0960   21.1310  -31.2900 O   0  0  0  0  0  0  0  0  0  0  0  0
   -3.6250   20.2740  -32.2480 C   0  0  0  0  0  0  0  0  0  0  0  0
   -3.2240   19.0890  -32.3660 O   0  0  0  0  0  0  0  0  0  0  0  0
   -4.7000   20.8570  -33.1220 C   0  0  0  0  0  0  0  0  0  0  0  0
   -6.0470   20.4120  -32.7400 C   0  0  0  0  0  0  0  0  0  0  0  0
   -6.6110   19.1680  -32.5820 C   0  0  0  0  0  0  0  0  0  0  0  0
   -5.9250   17.9180  -32.8920 C   0  0  0  0  0  0  0  0  0  0  0  0
   -5.6970   16.9190  -31.9780 C   0  0  0  0  0  0  0  0  0  0  0  0
   -5.0540   15.7300  -32.3450 C   0  0  0  0  0  0  0  0  0  0  0  0
   -4.6300   15.5260  -33.6430 C   0  0  0  0  0  0  0  0  0  0  0  0
   -4.8520   16.5160  -34.5650 C   0  0  0  0  0  0  0  0  0  0  0  0
   -5.4920   17.6910  -34.1830 C   0  0  0  0  0  0  0  0  0  0  0  0
   -7.9060   19.2970  -32.1510 N   0  0  0  0  0  0  0  0  0  0  0  0
   -8.8570   18.2410  -31.8690 C   0  0  0  0  0  0  0  0  0  0  0  0
   -8.1810   20.6290  -32.0280 C   0  0  0  0  0  0  0  0  0  0  0  0
   -9.3420   21.3010  -31.6290 C   0  0  0  0  0  0  0  0  0  0  0  0
   -9.3640   22.6790  -31.5900 C   0  0  0  0  0  0  0  0  0  0  0  0
   -8.2210   23.3690  -31.9510 C   0  0  0  0  0  0  0  0  0  0  0  0
   -7.0660   22.7260  -32.3480 C   0  0  0  0  0  0  0  0  0  0  0  0
   -7.0530   21.3270  -32.3860 C   0  0  0  0  0  0  0  0  0  0  0  0
   -6.7352   25.8737  -29.3142 H   0  0  0  0  0  0  0  0  0  0  0  0
   -5.6594   26.1916  -30.7171 H   0  0  0  0  0  0  0  0  0  0  0  0
   -6.7335   24.7519  -30.7171 H   0  0  0  0  0  0  0  0  0  0  0  0
   -4.7294   25.0917  -28.5081 H   0  0  0  0  0  0  0  0  0  0  0  0
   -5.4186   23.5931  -29.2447 H   0  0  0  0  0  0  0  0  0  0  0  0
   -2.3066   23.2494  -29.6173 H   0  0  0  0  0  0  0  0  0  0  0  0
   -2.0488   25.0535  -29.4450 H   0  0  0  0  0  0  0  0  0  0  0  0
   -2.3663   24.2582  -27.2909 H   0  0  0  0  0  0  0  0  0  0  0  0
   -3.9213   25.0107  -27.7833 H   0  0  0  0  0  0  0  0  0  0  0  0
   -3.7490   23.2227  -27.7833 H   0  0  0  0  0  0  0  0  0  0  0  0
   -5.1084   23.4105  -31.5940 H   0  0  0  0  0  0  0  0  0  0  0  0
   -3.3121   23.3626  -31.9911 H   0  0  0  0  0  0  0  0  0  0  0  0
   -3.5065   22.1740  -29.5462 H   0  0  0  0  0  0  0  0  0  0  0  0
   -4.9411   21.5675  -30.4790 H   0  0  0  0  0  0  0  0  0  0  0  0
   -4.6576   21.9536  -33.0473 H   0  0  0  0  0  0  0  0  0  0  0  0
   -4.5156   20.5110  -34.1497 H   0  0  0  0  0  0  0  0  0  0  0  0
   -6.0258   17.0551  -30.9371 H   0  0  0  0  0  0  0  0  0  0  0  0
   -4.8847   14.9487  -31.5894 H   0  0  0  0  0  0  0  0  0  0  0  0
   -4.1261   14.5914  -33.9305 H   0  0  0  0  0  0  0  0  0  0  0  0
   -4.5243   16.3815  -35.6064 H   0  0  0  0  0  0  0  0  0  0  0  0
   -5.6597   18.4707  -34.9405 H   0  0  0  0  0  0  0  0  0  0  0  0
   -8.9626   18.1237  -30.7804 H   0  0  0  0  0  0  0  0  0  0  0  0
   -9.8326   18.4998  -32.3063 H   0  0  0  0  0  0  0  0  0  0  0  0
   -8.4978   17.2977  -32.3063 H   0  0  0  0  0  0  0  0  0  0  0  0
  -10.2380   20.7291  -31.3462 H   0  0  0  0  0  0  0  0  0  0  0  0
  -10.2709   23.2179  -31.2785 H   0  0  0  0  0  0  0  0  0  0  0  0
   -8.2328   24.4685  -31.9207 H   0  0  0  0  0  0  0  0  0  0  0  0
   -6.1723   23.3024  -32.6293 H   0  0  0  0  0  0  0  0  0  0  0  0
  1  2  1  0
  2  3  1  0
  3  4  1  0
  4  5  1  0
  3  6  1  0
  6  7  1  0
  7  8  1  0
  8  9  1  0
  9 10  2  0
  9 11  1  0
 11 12  1  0
 12 13  2  0
 13 14  1  0
 14 15  2  0
 15 16  1  0
 16 17  2  0
 17 18  1  0
 18 19  2  0
 13 20  1  0
 20 21  1  0
 20 22  1  0
 22 23  2  0
 23 24  1  0
 24 25  2  0
 25 26  1  0
 26 27  2  0
 27 12  1  0
 19 14  1  0
 27 22  1  0
  1 28  1  0
  1 29  1  0
  1 30  1  0
  2 31  1  0
  2 32  1  0
  4 33  1  0
  4 34  1  0
  5 35  1  0
  5 36  1  0
  5 37  1  0
  6 38  1  0
  6 39  1  0
  7 40  1  0
  7 41  1  0
 11 42  1  0
 11 43  1  0
 15 44  1  0
 16 45  1  0
 17 46  1  0
 18 47  1  0
 19 48  1  0
 21 49  1  0
 21 50  1  0
 21 51  1  0
 23 52  1  0
 24 53  1  0
 25 54  1  0
 26 55  1  0
M  END
>  <smiles>  (9) 
CCN(CC)CCOC(=O)Cc1c(-c2ccccc2)n(C)c2ccccc12

>  <score_type>  (9) 
oracle

>  <origin>  (9) 
adg

>  <m_score__min__energy>  (9) 
-8.8800000000000008

>  <m_primary>  (9) 
energy

$$$$
9:0
     RDKit          3D

 44 46  0  0  0  0  0  0  0  0999 V2000
   -2.5660   21.7330  -31.8960 C   0  0  0  0  0  0  0  0  0  0  0  0
   -2.4400   22.6360  -30.7100 C   0  0  0  0  0  0  0  0  0  0  0  0
   -3.1350   23.8640  -30.8420 O   0  0  0  0  0  0  0  0  0  0  0  0
   -4.5000   24.0170  -30.6920 C   0  0  0  0  0  0  0  0  0  0  0  0
   -4.9310   25.1640  -30.0470 C   0  0  0  0  0  0  0  0  0  0  0  0
   -6.2720   25.4140  -29.8460 C   0  0  0  0  0  0  0  0  0  0  0  0
   -7.1660   24.4660  -30.3200 C   0  0  0  0  0  0  0  0  0  0  0  0
   -6.8020   23.3210  -30.9600 C   0  0  0  0  0  0  0  0  0  0  0  0
   -7.7290   22.3180  -31.4620 C   0  0  0  0  0  0  0  0  0  0  0  0
   -9.0080   22.6360  -31.8570 C   0  0  0  0  0  0  0  0  0  0  0  0
   -9.8630   21.7020  -32.3210 N   0  0  0  0  0  0  0  0  0  0  0  0
   -9.4980   20.4110  -32.4170 C   0  0  0  0  0  0  0  0  0  0  0  0
   -8.2040   20.0780  -32.0170 C   0  0  0  0  0  0  0  0  0  0  0  0
   -7.8400   18.6760  -32.1330 C   0  0  0  0  0  0  0  0  0  0  0  0
   -8.5060   17.8120  -31.5450 O   0  0  0  0  0  0  0  0  0  0  0  0
   -6.7230   18.2230  -32.9090 N   0  0  0  0  0  0  0  0  0  0  0  0
   -6.4920   16.7940  -32.9230 C   0  0  0  0  0  0  0  0  0  0  0  0
   -5.3230   16.3500  -33.7050 C   0  0  0  0  0  0  0  0  0  0  0  0
   -4.9630   17.1710  -34.8930 C   0  0  0  0  0  0  0  0  0  0  0  0
   -5.6260   18.5060  -34.9820 C   0  0  0  0  0  0  0  0  0  0  0  0
   -5.8730   19.1470  -33.6410 C   0  0  0  0  0  0  0  0  0  0  0  0
   -7.3670   21.0260  -31.5580 N   0  0  0  0  0  0  0  0  0  0  0  0
   -5.4340   23.1100  -31.1400 C   0  0  0  0  0  0  0  0  0  0  0  0
   -2.7105   20.6974  -31.5546 H   0  0  0  0  0  0  0  0  0  0  0  0
   -3.4296   22.0429  -32.5027 H   0  0  0  0  0  0  0  0  0  0  0  0
   -1.6505   21.7947  -32.5027 H   0  0  0  0  0  0  0  0  0  0  0  0
   -2.8357   22.1078  -29.8300 H   0  0  0  0  0  0  0  0  0  0  0  0
   -1.3729   22.8841  -30.6119 H   0  0  0  0  0  0  0  0  0  0  0  0
   -4.1879   25.8910  -29.6874 H   0  0  0  0  0  0  0  0  0  0  0  0
   -6.6168   26.3239  -29.3331 H   0  0  0  0  0  0  0  0  0  0  0  0
   -8.2397   24.6513  -30.1690 H   0  0  0  0  0  0  0  0  0  0  0  0
   -9.3427   23.6819  -31.7925 H   0  0  0  0  0  0  0  0  0  0  0  0
  -10.1931   19.6474  -32.7963 H   0  0  0  0  0  0  0  0  0  0  0  0
   -6.3507   16.4628  -31.8836 H   0  0  0  0  0  0  0  0  0  0  0  0
   -7.3710   16.3496  -33.4128 H   0  0  0  0  0  0  0  0  0  0  0  0
   -4.4543   16.3412  -33.0302 H   0  0  0  0  0  0  0  0  0  0  0  0
   -5.6016   15.3651  -34.1078 H   0  0  0  0  0  0  0  0  0  0  0  0
   -3.8754   17.3343  -34.8740 H   0  0  0  0  0  0  0  0  0  0  0  0
   -5.3134   16.6031  -35.7675 H   0  0  0  0  0  0  0  0  0  0  0  0
   -4.9837   19.1745  -35.5741 H   0  0  0  0  0  0  0  0  0  0  0  0
   -6.6088   18.3477  -35.4500 H   0  0  0  0  0  0  0  0  0  0  0  0
   -4.9227   19.2972  -33.1077 H   0  0  0  0  0  0  0  0  0  0  0  0
   -6.3461   20.1345  -33.7461 H   0  0  0  0  0  0  0  0  0  0  0  0
   -5.0941   22.1976  -31.6518 H   0  0  0  0  0  0  0  0  0  0  0  0
  1  2  1  0
  2  3  1  0
  3  4  1  0
  4  5  2  0
  5  6  1  0
  6  7  2  0
  7  8  1  0
  8  9  1  0
  9 10  2  0
 10 11  1  0
 11 12  2  0
 12 13  1  0
 13 14  1  0
 14 15  2  0
 14 16  1  0
 16 17  1  0
 17 18  1  0
 18 19  1  0
 19 20  1  0
 20 21  1  0
 13 22  2  0
  8 23  2  0
 23  4  1  0
 22  9  1  0
 21 16  1  0
  1 24  1  0
  1 25  1  0
  1 26  1  0
  2 27  1  0
  2 28  1  0
  5 29  1  0
  6 30  1  0
  7 31  1  0
 10 32  1  0
 12 33  1  0
 17 34  1  0
 17 35  1  0
 18 36  1  0
 18 37  1  0
 19 38  1  0
 19 39  1  0
 20 40  1  0
 20 41  1  0
 21 42  1  0
 21 43  1  0
 23 44  1  0
M  END
>  <smiles>  (10) 
CCOc1cccc(-c2cncc(C(=O)N3CCCCC3)n2)c1

>  <score_type>  (10) 
oracle

>  <origin>  (10) 
adg

>  <m_score__min__energy>  (10) 
-8.4700000000000006

>  <m_primary>  (10) 
energy

$$$$
10:0
     RDKit          3D

 42 44  0  0  1  0  0  0  0  0999 V2000
   -2.1750   24.6930  -28.2450 C   0  0  0  0  0  0  0  0  0  0  0  0
   -2.7830   25.2950  -29.3700 O   0  0  0  0  0  0  0  0  0  0  0  0
   -3.8980   24.8030  -30.0230 C   0  0  0  0  0  0  0  0  0  0  0  0
   -3.7890   23.5130  -30.5420 C   0  0  0  0  0  0  0  0  0  0  0  0
   -4.8470   22.9340  -31.2100 C   0  0  0  0  0  0  0  0  0  0  0  0
   -6.0220   23.6410  -31.3650 C   0  0  0  0  0  0  0  0  0  0  0  0
   -7.1210   23.0220  -32.0670 N   0  0  0  0  0  0  0  0  0  0  0  0
   -8.1260   22.4840  -31.1540 C   0  0  0  0  0  0  0  0  0  0  0  0
   -7.7950   22.6890  -29.9890 O   0  0  0  0  0  0  0  0  0  0  0  0
   -9.2240   21.8690  -31.7900 C   0  0  0  0  0  0  0  0  0  0  0  0
   -9.2340   20.7050  -32.3080 C   0  0  0  0  0  0  0  0  0  0  0  0
   -8.2270   19.7520  -32.6220 C   0  0  0  0  0  0  0  0  0  0  0  0
   -7.2460   19.7060  -33.4560 C   0  0  0  0  0  0  0  0  0  0  0  0
   -6.2700   18.5920  -33.6030 C   0  0  0  0  0  0  0  0  0  0  0  0
   -5.3830   18.5490  -34.6520 C   0  0  0  0  0  0  0  0  0  0  0  0
   -4.6460   17.3900  -34.8070 C   0  0  0  0  0  0  0  0  0  0  0  0
   -4.7770   16.2980  -33.9520 C   0  0  0  0  0  0  0  0  0  0  0  0
   -5.6790   16.3480  -32.8820 C   0  0  0  0  0  0  0  0  0  0  0  0
   -6.3880   17.5120  -32.7600 C   0  0  0  0  0  0  0  0  0  0  0  0
   -7.2510   17.8160  -31.5520 C   0  0  0  0  0  0  0  0  0  0  0  0
   -8.5380   18.3990  -31.9610 C   0  0  0  0  0  0  0  0  0  0  0  0
   -6.1270   24.9220  -30.8500 C   0  0  0  0  0  0  0  0  0  0  0  0
   -5.0720   25.5070  -30.1790 C   0  0  0  0  0  0  0  0  0  0  0  0
   -2.6039   25.1176  -27.3253 H   0  0  0  0  0  0  0  0  0  0  0  0
   -2.3559   23.6082  -28.2671 H   0  0  0  0  0  0  0  0  0  0  0  0
   -1.0920   24.8847  -28.2671 H   0  0  0  0  0  0  0  0  0  0  0  0
   -2.8507   22.9527  -30.4173 H   0  0  0  0  0  0  0  0  0  0  0  0
   -4.7552   21.9160  -31.6164 H   0  0  0  0  0  0  0  0  0  0  0  0
   -7.1920   22.9650  -33.0880 H   0  0  0  0  0  0  0  0  0  0  0  0
  -10.1580   22.4475  -31.8439 H   0  0  0  0  0  0  0  0  0  0  0  0
  -10.2456   20.3615  -32.5702 H   0  0  0  0  0  0  0  0  0  0  0  0
   -7.1177   20.5718  -34.1223 H   0  0  0  0  0  0  0  0  0  0  0  0
   -5.2647   19.4002  -35.3386 H   0  0  0  0  0  0  0  0  0  0  0  0
   -3.9280   17.3275  -35.6380 H   0  0  0  0  0  0  0  0  0  0  0  0
   -4.1710   15.3951  -34.1176 H   0  0  0  0  0  0  0  0  0  0  0  0
   -5.8091   15.5068  -32.1853 H   0  0  0  0  0  0  0  0  0  0  0  0
   -7.4373   16.8838  -30.9985 H   0  0  0  0  0  0  0  0  0  0  0  0
   -6.7226   18.5411  -30.9155 H   0  0  0  0  0  0  0  0  0  0  0  0
   -9.0429   17.7351  -32.6781 H   0  0  0  0  0  0  0  0  0  0  0  0
   -9.2040   18.5283  -31.0951 H   0  0  0  0  0  0  0  0  0  0  0  0
   -7.0652   25.4819  -30.9775 H   0  0  0  0  0  0  0  0  0  0  0  0
   -5.1676   26.5248  -29.7730 H   0  0  0  0  0  0  0  0  0  0  0  0
  1  2  1  0
  2  3  1  0
  3  4  2  0
  4  5  1  0
  5  6  2  0
  6  7  1  0
  7  8  1  0
  8  9  2  0
  8 10  1  0
 10 11  2  0
 11 12  1  0
 12 13  2  0
 13 14  1  0
 14 15  2  0
 15 16  1  0
 16 17  2  0
 17 18  1  0
 18 19  2  0
 19 20  1  0
 20 21  1  0
  6 22  1  0
 22 23  2  0
 23  3  1  0
 21 12  1  0
 19 14  1  0
  1 24  1  0
  1 25  1  0
  1 26  1  0
  4 27  1  0
  5 28  1  0
  7 29  1  0
 10 30  1  0
 11 31  1  0
 13 32  1  0
 15 33  1  0
 16 34  1  0
 17 35  1  0
 18 36  1  0
 20 37  1  0
 20 38  1  0
 21 39  1  0
 21 40  1  0
 22 41  1  0
 23 42  1  0
M  END
>  <smiles>  (11) 
COc1ccc(NC(=O)C=CC2=Cc3ccccc3CC2)cc1

>  <score_type>  (11) 
oracle

>  <origin>  (11) 
adg

>  <m_score__min__energy>  (11) 
-9.9399999999999995

>  <m_primary>  (11) 
energy

$$$$
11:0
     RDKit          3D

 53 56  0  0  1  0  0  0  0  0999 V2000
   -6.9340   23.7450  -32.6960 O   0  0  0  0  0  0  0  0  0  0  0  0
   -6.9020   23.9460  -31.3100 C   0  0  1  0  0  0  0  0  0  0  0  0
   -6.9850   22.6050  -30.6440 C   0  0  0  0  0  0  0  0  0  0  0  0
   -6.6740   21.5960  -31.5420 O   0  0  0  0  0  0  0  0  0  0  0  0
   -7.2370   20.4010  -31.7760 C   0  0  0  0  0  0  0  0  0  0  0  0
   -8.4540   19.9270  -31.3580 C   0  0  0  0  0  0  0  0  0  0  0  0
   -8.9190   18.6540  -31.6720 C   0  0  0  0  0  0  0  0  0  0  0  0
   -8.1660   17.8000  -32.4250 C   0  0  0  0  0  0  0  0  0  0  0  0
   -6.9390   18.2390  -32.8600 C   0  0  0  0  0  0  0  0  0  0  0  0
   -6.1720   17.3760  -33.6240 C   0  0  0  0  0  0  0  0  0  0  0  0
   -4.9390   17.7630  -34.0840 C   0  0  0  0  0  0  0  0  0  0  0  0
   -3.8340   16.6180  -35.1410 Br  0  0  0  0  0  0  0  0  0  0  0  0
   -4.4520   19.0140  -33.7930 C   0  0  0  0  0  0  0  0  0  0  0  0
   -5.2340   19.8600  -33.0290 C   0  0  0  0  0  0  0  0  0  0  0  0
   -6.4830   19.4940  -32.5510 C   0  0  0  0  0  0  0  0  0  0  0  0
   -5.8080   24.8380  -30.8690 C   0  0  0  0  0  0  0  0  0  0  0  0
   -4.4700   24.4190  -31.0150 N   0  0  0  0  0  0  0  0  0  0  0  0
   -4.2220   23.1370  -31.5580 C   0  0  0  0  0  0  0  0  0  0  0  0
   -3.0760   22.3870  -30.8950 C   0  0  0  0  0  0  0  0  0  0  0  0
   -3.1510   22.4470  -29.4500 N   0  0  0  0  0  0  0  0  0  0  0  0
   -2.4720   21.4680  -28.6820 C   0  0  0  0  0  0  0  0  0  0  0  0
   -1.1020   21.3380  -28.7780 C   0  0  0  0  0  0  0  0  0  0  0  0
   -0.3990   20.3840  -28.0370 C   0  0  0  0  0  0  0  0  0  0  0  0
   -1.0720   19.5350  -27.1750 C   0  0  0  0  0  0  0  0  0  0  0  0
   -2.4380   19.6630  -27.0770 C   0  0  0  0  0  0  0  0  0  0  0  0
   -3.2770   18.5660  -25.9680 Cl  0  0  0  0  0  0  0  0  0  0  0  0
   -3.1160   20.6070  -27.8140 C   0  0  0  0  0  0  0  0  0  0  0  0
   -3.9160   23.5110  -28.8280 C   0  0  0  0  0  0  0  0  0  0  0  0
   -3.7560   24.6960  -29.7910 C   0  0  0  0  0  0  0  0  0  0  0  0
   -6.2590   23.0830  -32.9870 H   0  0  0  0  0  0  0  0  0  0  0  0
   -7.7796   24.5225  -30.9823 H   0  0  0  0  0  0  0  0  0  0  0  0
   -6.2752   22.5735  -29.8043 H   0  0  0  0  0  0  0  0  0  0  0  0
   -8.0115   22.4522  -30.2793 H   0  0  0  0  0  0  0  0  0  0  0  0
   -9.0913   20.5830  -30.7468 H   0  0  0  0  0  0  0  0  0  0  0  0
   -9.9060   18.3315  -31.3089 H   0  0  0  0  0  0  0  0  0  0  0  0
   -8.5300   16.7926  -32.6755 H   0  0  0  0  0  0  0  0  0  0  0  0
   -6.5541   16.3728  -33.8639 H   0  0  0  0  0  0  0  0  0  0  0  0
   -3.4652   19.3343  -34.1585 H   0  0  0  0  0  0  0  0  0  0  0  0
   -4.8503   20.8630  -32.7909 H   0  0  0  0  0  0  0  0  0  0  0  0
   -5.9129   25.7764  -31.4333 H   0  0  0  0  0  0  0  0  0  0  0  0
   -5.9438   24.8944  -29.7789 H   0  0  0  0  0  0  0  0  0  0  0  0
   -5.1360   22.5345  -31.4502 H   0  0  0  0  0  0  0  0  0  0  0  0
   -3.9323   23.2904  -32.6080 H   0  0  0  0  0  0  0  0  0  0  0  0
   -3.1127   21.3334  -31.2089 H   0  0  0  0  0  0  0  0  0  0  0  0
   -2.1342   22.8628  -31.2059 H   0  0  0  0  0  0  0  0  0  0  0  0
   -0.5477   22.0034  -29.4563 H   0  0  0  0  0  0  0  0  0  0  0  0
    0.6936   20.3074  -28.1391 H   0  0  0  0  0  0  0  0  0  0  0  0
   -0.5303   18.7804  -26.5859 H   0  0  0  0  0  0  0  0  0  0  0  0
   -4.2086   20.6786  -27.7084 H   0  0  0  0  0  0  0  0  0  0  0  0
   -4.9741   23.2264  -28.7308 H   0  0  0  0  0  0  0  0  0  0  0  0
   -3.5686   23.7428  -27.8104 H   0  0  0  0  0  0  0  0  0  0  0  0
   -4.1646   25.6050  -29.3254 H   0  0  0  0  0  0  0  0  0  0  0  0
   -2.6894   24.8469  -30.0139 H   0  0  0  0  0  0  0  0  0  0  0  0
  1  2  1  0
  2  3  1  0
  3  4  1  0
  4  5  1  0
  5  6  2  0
  6  7  1  0
  7  8  2  0
  8  9  1  0
  9 10  2  0
 10 11  1  0
 11 12  1  0
 11 13  2  0
 13 14  1  0
 14 15  2  0
  2 16  1  0
 16 17  1  0
 17 18  1  0
 18 19  1  0
 19 20  1  0
 20 21  1  0
 21 22  2  0
 22 23  1  0
 23 24  2  0
 24 25  1  0
 25 26  1  0
 25 27  2  0
 20 28  1  0
 28 29  1  0
 15  5  1  0
 29 17  1  0
 15  9  1  0
 27 21  1  0
  1 30  1  0
  2 31  1  1
  3 32  1  0
  3 33  1  0
  6 34  1  0
  7 35  1  0
  8 36  1  0
 10 37  1  0
 13 38  1  0
 14 39  1  0
 16 40  1  0
 16 41  1  0
 18 42  1  0
 18 43  1  0
 19 44  1  0
 19 45  1  0
 22 46  1  0
 23 47  1  0
 24 48  1  0
 27 49  1  0
 28 50  1  0
 28 51  1  0
 29 52  1  0
 29 53  1  0
M  END
>  <smiles>  (12) 
OC(COc1cccc2cc(Br)ccc12)CN1CCN(c2cccc(Cl)c2)CC1

>  <score_type>  (12) 
oracle

>  <origin>  (12) 
adg

>  <m_score__min__energy>  (12) 
-10.9

>  <m_primary>  (12) 
energy

$$$$
12:0
     RDKit          3D

 41 44  0  0  0  0  0  0  0  0999 V2000
   -2.7250   17.4480  -34.5810 C   0  0  0  0  0  0  0  0  0  0  0  0
   -3.4800   18.5800  -34.0640 N   0  0  0  0  0  0  0  0  0  0  0  0
   -2.8840   19.7630  -33.8360 C   0  0  0  0  0  0  0  0  0  0  0  0
   -1.1380   19.8880  -34.1910 S   0  0  0  0  0  0  0  0  0  0  0  0
   -0.3250   21.2180  -33.3150 C   0  0  0  0  0  0  0  0  0  0  0  0
   -0.6290   21.1550  -31.8600 C   0  0  0  0  0  0  0  0  0  0  0  0
    0.1640   20.6580  -31.0130 O   0  0  0  0  0  0  0  0  0  0  0  0
   -1.9050   21.7040  -31.4680 N   0  0  0  0  0  0  0  0  0  0  0  0
   -2.3550   21.7290  -30.1460 C   0  0  0  0  0  0  0  0  0  0  0  0
   -1.8520   20.4860  -28.8720 S   0  0  0  0  0  0  0  0  0  0  0  0
   -2.8530   21.2710  -27.5880 C   0  0  0  0  0  0  0  0  0  0  0  0
   -3.4700   22.3760  -28.1990 C   0  0  0  0  0  0  0  0  0  0  0  0
   -3.1970   22.5760  -29.4870 C   0  0  0  0  0  0  0  0  0  0  0  0
   -3.7890   23.7100  -30.2340 C   0  0  0  0  0  0  0  0  0  0  0  0
   -4.2380   24.6120  -30.8300 N   0  0  0  0  0  0  0  0  0  0  0  0
   -3.6020   20.8020  -33.3560 N   0  0  0  0  0  0  0  0  0  0  0  0
   -4.9360   20.6870  -33.0880 C   0  0  0  0  0  0  0  0  0  0  0  0
   -5.6680   21.6940  -32.6140 N   0  0  0  0  0  0  0  0  0  0  0  0
   -6.9920   21.5360  -32.3610 C   0  0  0  0  0  0  0  0  0  0  0  0
   -7.7700   22.5620  -31.8690 C   0  0  0  0  0  0  0  0  0  0  0  0
   -9.1180   22.4340  -31.6030 C   0  0  0  0  0  0  0  0  0  0  0  0
   -9.7190   21.2170  -31.8390 C   0  0  0  0  0  0  0  0  0  0  0  0
   -8.9830   20.1460  -32.3350 C   0  0  0  0  0  0  0  0  0  0  0  0
   -7.6300   20.3280  -32.5870 C   0  0  0  0  0  0  0  0  0  0  0  0
   -6.8960   19.2590  -33.0810 C   0  0  0  0  0  0  0  0  0  0  0  0
   -5.5480   19.4510  -33.3280 C   0  0  0  0  0  0  0  0  0  0  0  0
   -4.7920   18.4040  -33.8200 C   0  0  0  0  0  0  0  0  0  0  0  0
   -5.3470   17.2800  -34.0390 O   0  0  0  0  0  0  0  0  0  0  0  0
   -2.3304   16.8564  -33.7418 H   0  0  0  0  0  0  0  0  0  0  0  0
   -3.3842   16.8177  -35.1960 H   0  0  0  0  0  0  0  0  0  0  0  0
   -1.8898   17.8144  -35.1960 H   0  0  0  0  0  0  0  0  0  0  0  0
    0.7621   21.1342  -33.4603 H   0  0  0  0  0  0  0  0  0  0  0  0
   -0.6911   22.1768  -33.7108 H   0  0  0  0  0  0  0  0  0  0  0  0
   -2.5560   22.1180  -32.2020 H   0  0  0  0  0  0  0  0  0  0  0  0
   -2.9579   20.9493  -26.5413 H   0  0  0  0  0  0  0  0  0  0  0  0
   -4.1446   23.0423  -27.6413 H   0  0  0  0  0  0  0  0  0  0  0  0
   -7.2912   23.5338  -31.6784 H   0  0  0  0  0  0  0  0  0  0  0  0
   -9.6984   23.2828  -31.2122 H   0  0  0  0  0  0  0  0  0  0  0  0
  -10.7922   21.0909  -31.6330 H   0  0  0  0  0  0  0  0  0  0  0  0
   -9.4633   19.1745  -32.5237 H   0  0  0  0  0  0  0  0  0  0  0  0
   -7.3725   18.2859  -33.2710 H   0  0  0  0  0  0  0  0  0  0  0  0
  1  2  1  0
  2  3  1  0
  3  4  1  0
  4  5  1  0
  5  6  1  0
  6  7  2  0
  6  8  1  0
  8  9  1  0
  9 10  1  0
 10 11  1  0
 11 12  2  0
 12 13  1  0
 13 14  1  0
 14 15  3  0
  3 16  2  0
 16 17  1  0
 17 18  2  0
 18 19  1  0
 19 20  2  0
 20 21  1  0
 21 22  2  0
 22 23  1  0
 23 24  2  0
 24 25  1  0
 25 26  2  0
 26 27  1  0
 27 28  2  0
 27  2  1  0
 13  9  2  0
 26 17  1  0
 24 19  1  0
  1 29  1  0
  1 30  1  0
  1 31  1  0
  5 32  1  0
  5 33  1  0
  8 34  1  0
 11 35  1  0
 12 36  1  0
 20 37  1  0
 21 38  1  0
 22 39  1  0
 23 40  1  0
 25 41  1  0
M  END
>  <smiles>  (13) 
Cn1c(SCC(=O)Nc2sccc2C#N)nc2nc3ccccc3cc2c1=O

>  <score_type>  (13) 
oracle

>  <origin>  (13) 
adg

>  <m_score__min__energy>  (13) 
-9.9900000000000002

>  <m_primary>  (13) 
energy

$$$$
13:0
     RDKit          3D

 43 46  0  0  0  0  0  0  0  0999 V2000
   -3.3870   16.3330  -35.4420 C   0  0  0  0  0  0  0  0  0  0  0  0
   -4.6070   17.0320  -35.6140 O   0  0  0  0  0  0  0  0  0  0  0  0
   -5.3870   17.5090  -34.5850 C   0  0  0  0  0  0  0  0  0  0  0  0
   -6.3650   16.6810  -34.0740 C   0  0  0  0  0  0  0  0  0  0  0  0
   -7.2010   17.0690  -33.0380 C   0  0  0  0  0  0  0  0  0  0  0  0
   -7.0160   18.3410  -32.5230 C   0  0  0  0  0  0  0  0  0  0  0  0
   -6.0670   19.2040  -32.9860 C   0  0  0  0  0  0  0  0  0  0  0  0
   -5.8480   20.5480  -32.4650 C   0  0  0  0  0  0  0  0  0  0  0  0
   -6.7690   21.5210  -32.5570 N   0  0  0  0  0  0  0  0  0  0  0  0
   -6.2760   22.6180  -31.9970 C   0  0  0  0  0  0  0  0  0  0  0  0
   -6.8350   23.8710  -31.8430 C   0  0  0  0  0  0  0  0  0  0  0  0
   -6.0960   24.8550  -31.2100 C   0  0  0  0  0  0  0  0  0  0  0  0
   -4.8250   24.5730  -30.7480 C   0  0  0  0  0  0  0  0  0  0  0  0
   -4.1220   25.5920  -30.1190 O   0  0  0  0  0  0  0  0  0  0  0  0
   -4.3030   23.3010  -30.9230 C   0  0  0  0  0  0  0  0  0  0  0  0
   -5.0110   22.2950  -31.5500 C   0  0  0  0  0  0  0  0  0  0  0  0
   -4.7400   20.9900  -31.8440 N   0  0  0  0  0  0  0  0  0  0  0  0
   -3.5320   20.2930  -31.5410 C   0  0  0  0  0  0  0  0  0  0  0  0
   -2.4990   20.3430  -32.5790 C   0  0  0  0  0  0  0  0  0  0  0  0
   -1.8100   21.5030  -32.9220 C   0  0  0  0  0  0  0  0  0  0  0  0
   -0.8460   21.5370  -33.8950 C   0  0  0  0  0  0  0  0  0  0  0  0
   -0.5050   20.3960  -34.5920 C   0  0  0  0  0  0  0  0  0  0  0  0
   -1.1670   19.2290  -34.2770 C   0  0  0  0  0  0  0  0  0  0  0  0
   -2.1390   19.2070  -33.2950 C   0  0  0  0  0  0  0  0  0  0  0  0
   -5.2560   18.7610  -34.0290 C   0  0  0  0  0  0  0  0  0  0  0  0
   -3.1805   16.2147  -34.3681 H   0  0  0  0  0  0  0  0  0  0  0  0
   -3.4631   15.3415  -35.9122 H   0  0  0  0  0  0  0  0  0  0  0  0
   -2.5701   16.9001  -35.9122 H   0  0  0  0  0  0  0  0  0  0  0  0
   -6.4861   15.6759  -34.5043 H   0  0  0  0  0  0  0  0  0  0  0  0
   -7.9765   16.3964  -32.6429 H   0  0  0  0  0  0  0  0  0  0  0  0
   -7.6665   18.6716  -31.6999 H   0  0  0  0  0  0  0  0  0  0  0  0
   -7.8478   24.0830  -32.2161 H   0  0  0  0  0  0  0  0  0  0  0  0
   -6.5203   25.8608  -31.0748 H   0  0  0  0  0  0  0  0  0  0  0  0
   -4.5960   26.0430  -29.3450 H   0  0  0  0  0  0  0  0  0  0  0  0
   -3.2908   23.0858  -30.5499 H   0  0  0  0  0  0  0  0  0  0  0  0
   -3.1110   20.7276  -30.6223 H   0  0  0  0  0  0  0  0  0  0  0  0
   -3.8106   19.2335  -31.4422 H   0  0  0  0  0  0  0  0  0  0  0  0
   -2.0503   22.4341  -32.3879 H   0  0  0  0  0  0  0  0  0  0  0  0
   -0.3377   22.4854  -34.1233 H   0  0  0  0  0  0  0  0  0  0  0  0
    0.2694   20.4171  -35.3730 H   0  0  0  0  0  0  0  0  0  0  0  0
   -0.9182   18.3022  -34.8147 H   0  0  0  0  0  0  0  0  0  0  0  0
   -2.6460   18.2567  -33.0719 H   0  0  0  0  0  0  0  0  0  0  0  0
   -4.4825   19.4370  -34.4224 H   0  0  0  0  0  0  0  0  0  0  0  0
  1  2  1  0
  2  3  1  0
  3  4  2  0
  4  5  1  0
  5  6  2  0
  6  7  1  0
  7  8  1  0
  8  9  2  0
  9 10  1  0
 10 11  2  0
 11 12  1  0
 12 13  2  0
 13 14  1  0
 13 15  1  0
 15 16  2  0
 16 17  1  0
 17 18  1  0
 18 19  1  0
 19 20  2  0
 20 21  1  0
 21 22  2  0
 22 23  1  0
 23 24  2  0
  7 25  2  0
 25  3  1  0
 17  8  1  0
 24 19  1  0
 16 10  1  0
  1 26  1  0
  1 27  1  0
  1 28  1  0
  4 29  1  0
  5 30  1  0
  6 31  1  0
 11 32  1  0
 12 33  1  0
 14 34  1  0
 15 35  1  0
 18 36  1  0
 18 37  1  0
 20 38  1  0
 21 39  1  0
 22 40  1  0
 23 41  1  0
 24 42  1  0
 25 43  1  0
M  END
>  <smiles>  (14) 
COc1cccc(-c2nc3ccc(O)cc3n2Cc2ccccc2)c1

>  <score_type>  (14) 
oracle

>  <origin>  (14) 
adg

>  <m_score__min__energy>  (14) 
-8.6199999999999992

>  <m_primary>  (14) 
energy

$$$$
14:0
     RDKit          3D

 36 37  0  0  0  0  0  0  0  0999 V2000
   -3.5470   22.8880  -29.1020 C   0  0  0  0  0  0  0  0  0  0  0  0
   -3.4230   24.1930  -29.8210 C   0  0  0  0  0  0  0  0  0  0  0  0
   -4.3760   24.2740  -30.8940 N   0  0  0  0  0  0  0  0  0  0  0  0
   -5.3090   25.3750  -30.7520 C   0  0  0  0  0  0  0  0  0  0  0  0
   -6.3560   24.8910  -29.7750 C   0  0  0  0  0  0  0  0  0  0  0  0
   -6.5750   23.4720  -29.8080 N   0  0  0  0  0  0  0  0  0  0  0  0
   -7.6220   23.2240  -30.7760 C   0  0  0  0  0  0  0  0  0  0  0  0
   -7.3810   22.0020  -31.5880 C   0  0  0  0  0  0  0  0  0  0  0  0
   -8.4120   21.1610  -31.9930 C   0  0  0  0  0  0  0  0  0  0  0  0
   -8.1150   20.0300  -32.7570 C   0  0  0  0  0  0  0  0  0  0  0  0
   -6.7780   19.7950  -33.0840 C   0  0  0  0  0  0  0  0  0  0  0  0
   -6.4640   18.6720  -33.8470 C   0  0  0  0  0  0  0  0  0  0  0  0
   -5.1540   18.3900  -34.1990 C   0  0  0  0  0  0  0  0  0  0  0  0
   -4.8150   17.3050  -34.9420 F   0  0  0  0  0  0  0  0  0  0  0  0
   -4.1890   19.2720  -33.7590 C   0  0  0  0  0  0  0  0  0  0  0  0
   -4.4850   20.3870  -33.0050 C   0  0  0  0  0  0  0  0  0  0  0  0
   -3.0870   21.5730  -32.4270 Br  0  0  0  0  0  0  0  0  0  0  0  0
   -5.7880   20.6690  -32.6530 C   0  0  0  0  0  0  0  0  0  0  0  0
   -6.0860   21.7550  -31.9160 N   0  0  0  0  0  0  0  0  0  0  0  0
   -3.5302   23.0645  -28.0164 H   0  0  0  0  0  0  0  0  0  0  0  0
   -4.4951   22.4047  -29.3803 H   0  0  0  0  0  0  0  0  0  0  0  0
   -2.7069   22.2347  -29.3803 H   0  0  0  0  0  0  0  0  0  0  0  0
   -3.6060   25.0144  -29.1127 H   0  0  0  0  0  0  0  0  0  0  0  0
   -2.4094   24.2705  -30.2414 H   0  0  0  0  0  0  0  0  0  0  0  0
   -4.8470   23.3620  -31.0940 H   0  0  0  0  0  0  0  0  0  0  0  0
   -4.7968   26.2650  -30.3576 H   0  0  0  0  0  0  0  0  0  0  0  0
   -5.7520   25.6626  -31.7169 H   0  0  0  0  0  0  0  0  0  0  0  0
   -6.0358   25.1679  -28.7597 H   0  0  0  0  0  0  0  0  0  0  0  0
   -7.3049   25.3660  -30.0646 H   0  0  0  0  0  0  0  0  0  0  0  0
   -5.7390   22.9080  -29.9530 H   0  0  0  0  0  0  0  0  0  0  0  0
   -8.5753   23.1069  -30.2398 H   0  0  0  0  0  0  0  0  0  0  0  0
   -7.6433   24.0803  -31.4662 H   0  0  0  0  0  0  0  0  0  0  0  0
   -9.4523   21.3846  -31.7141 H   0  0  0  0  0  0  0  0  0  0  0  0
   -8.9093   19.3460  -33.0905 H   0  0  0  0  0  0  0  0  0  0  0  0
   -7.2694   17.9984  -34.1752 H   0  0  0  0  0  0  0  0  0  0  0  0
   -3.1386   19.0771  -34.0211 H   0  0  0  0  0  0  0  0  0  0  0  0
  1  2  1  0
  2  3  1  0
  3  4  1  0
  4  5  1  0
  5  6  1  0
  6  7  1  0
  7  8  1  0
  8  9  2  0
  9 10  1  0
 10 11  2  0
 11 12  1  0
 12 13  2  0
 13 14  1  0
 13 15  1  0
 15 16  2  0
 16 17  1  0
 16 18  1  0
 18 19  2  0
 19  8  1  0
 18 11  1  0
  1 20  1  0
  1 21  1  0
  1 22  1  0
  2 23  1  0
  2 24  1  0
  3 25  1  0
  4 26  1  0
  4 27  1  0
  5 28  1  0
  5 29  1  0
  6 30  1  0
  7 31  1  0
  7 32  1  0
  9 33  1  0
 10 34  1  0
 12 35  1  0
 15 36  1  0
M  END
>  <smiles>  (15) 
CCNCCNCc1ccc2cc(F)cc(Br)c2n1

>  <score_type>  (15) 
oracle

>  <origin>  (15) 
adg

>  <m_score__min__energy>  (15) 
-8.0700000000000003

>  <m_primary>  (15) 
energy

$$$$
15:0
     RDKit          3D

 49 52  0  0  0  0  0  0  0  0999 V2000
   -4.8350   16.1140  -34.5770 C   0  0  0  0  0  0  0  0  0  0  0  0
   -4.7080   17.4280  -34.9920 C   0  0  0  0  0  0  0  0  0  0  0  0
   -5.5570   18.3850  -34.4300 C   0  0  0  0  0  0  0  0  0  0  0  0
   -6.4900   18.0090  -33.4900 C   0  0  0  0  0  0  0  0  0  0  0  0
   -7.3500   19.0440  -32.9350 C   0  0  0  0  0  0  0  0  0  0  0  0
   -7.1440   20.3780  -32.8780 N   0  0  0  0  0  0  0  0  0  0  0  0
   -8.1960   20.9740  -32.2780 C   0  0  0  0  0  0  0  0  0  0  0  0
   -8.3850   22.4140  -32.0100 C   0  0  0  0  0  0  0  0  0  0  0  0
   -7.2720   23.2320  -32.4360 N   0  0  0  0  0  0  0  0  0  0  0  0
   -6.2080   23.5780  -31.5250 C   0  0  0  0  0  0  0  0  0  0  0  0
   -6.3930   24.5590  -30.5580 C   0  0  0  0  0  0  0  0  0  0  0  0
   -5.3230   24.8300  -29.7260 C   0  0  0  0  0  0  0  0  0  0  0  0
   -4.1180   24.2060  -29.7910 C   0  0  0  0  0  0  0  0  0  0  0  0
   -3.0330   24.5510  -28.8720 C   0  0  0  0  0  0  0  0  0  0  0  0
   -3.5320   24.1950  -27.4650 C   0  0  0  0  0  0  0  0  0  0  0  0
   -2.5630   24.9120  -26.5270 C   0  0  0  0  0  0  0  0  0  0  0  0
   -1.2570   24.1620  -26.6610 C   0  0  0  0  0  0  0  0  0  0  0  0
   -0.7570   24.0520  -28.0600 C   0  0  0  0  0  0  0  0  0  0  0  0
   -1.7840   23.7590  -29.0980 C   0  0  0  0  0  0  0  0  0  0  0  0
   -3.9600   23.2230  -30.7750 C   0  0  0  0  0  0  0  0  0  0  0  0
   -5.0000   22.9080  -31.6400 C   0  0  0  0  0  0  0  0  0  0  0  0
   -9.0590   19.9460  -31.9670 C   0  0  0  0  0  0  0  0  0  0  0  0
   -8.5020   18.8310  -32.3810 O   0  0  0  0  0  0  0  0  0  0  0  0
   -6.5930   16.6820  -33.0930 C   0  0  0  0  0  0  0  0  0  0  0  0
   -5.7670   15.7200  -33.6320 C   0  0  0  0  0  0  0  0  0  0  0  0
   -4.1706   15.3541  -35.0143 H   0  0  0  0  0  0  0  0  0  0  0  0
   -3.9580   17.7118  -35.7449 H   0  0  0  0  0  0  0  0  0  0  0  0
   -5.4800   19.4381  -34.7384 H   0  0  0  0  0  0  0  0  0  0  0  0
   -9.2877   22.7511  -32.5406 H   0  0  0  0  0  0  0  0  0  0  0  0
   -8.4730   22.5308  -30.9198 H   0  0  0  0  0  0  0  0  0  0  0  0
   -7.2330   23.5800  -33.4170 H   0  0  0  0  0  0  0  0  0  0  0  0
   -7.3481   25.0957  -30.4592 H   0  0  0  0  0  0  0  0  0  0  0  0
   -5.4565   25.6054  -28.9573 H   0  0  0  0  0  0  0  0  0  0  0  0
   -2.7861   25.6129  -29.0186 H   0  0  0  0  0  0  0  0  0  0  0  0
   -4.5599   24.5561  -27.3134 H   0  0  0  0  0  0  0  0  0  0  0  0
   -3.5585   23.1091  -27.2912 H   0  0  0  0  0  0  0  0  0  0  0  0
   -2.4381   25.9621  -26.8300 H   0  0  0  0  0  0  0  0  0  0  0  0
   -2.9269   24.9235  -25.4890 H   0  0  0  0  0  0  0  0  0  0  0  0
   -0.4961   24.6846  -26.0628 H   0  0  0  0  0  0  0  0  0  0  0  0
   -1.4440   23.1363  -26.3105 H   0  0  0  0  0  0  0  0  0  0  0  0
   -0.2762   25.0061  -28.3218 H   0  0  0  0  0  0  0  0  0  0  0  0
   -0.0751   23.1889  -28.0648 H   0  0  0  0  0  0  0  0  0  0  0  0
   -1.3746   24.0116  -30.0873 H   0  0  0  0  0  0  0  0  0  0  0  0
   -2.0378   22.6902  -29.0406 H   0  0  0  0  0  0  0  0  0  0  0  0
   -3.0001   22.6933  -30.8643 H   0  0  0  0  0  0  0  0  0  0  0  0
   -4.8662   22.1336  -32.4096 H   0  0  0  0  0  0  0  0  0  0  0  0
  -10.0333   20.0414  -31.4653 H   0  0  0  0  0  0  0  0  0  0  0  0
   -7.3422   16.3960  -32.3401 H   0  0  0  0  0  0  0  0  0  0  0  0
   -5.8458   14.6681  -33.3202 H   0  0  0  0  0  0  0  0  0  0  0  0
  1  2  2  0
  2  3  1  0
  3  4  2  0
  4  5  1  0
  5  6  2  0
  6  7  1  0
  7  8  1  0
  8  9  1  0
  9 10  1  0
 10 11  2  0
 11 12  1  0
 12 13  2  0
 13 14  1  0
 14 15  1  0
 15 16  1  0
 16 17  1  0
 17 18  1  0
 18 19  1  0
 13 20  1  0
 20 21  2  0
  7 22  2  0
 22 23  1  0
  4 24  1  0
 24 25  2  0
 25  1  1  0
 23  5  1  0
 21 10  1  0
 19 14  1  0
  1 26  1  0
  2 27  1  0
  3 28  1  0
  8 29  1  0
  8 30  1  0
  9 31  1  0
 11 32  1  0
 12 33  1  0
 14 34  1  0
 15 35  1  0
 15 36  1  0
 16 37  1  0
 16 38  1  0
 17 39  1  0
 17 40  1  0
 18 41  1  0
 18 42  1  0
 19 43  1  0
 19 44  1  0
 20 45  1  0
 21 46  1  0
 22 47  1  0
 24 48  1  0
 25 49  1  0
M  END
>  <smiles>  (16) 
c1ccc(-c2nc(CNc3ccc(C4CCCCC4)cc3)co2)cc1

>  <score_type>  (16) 
oracle

>  <origin>  (16) 
adg

>  <m_score__min__energy>  (16) 
-9.6400000000000006

>  <m_primary>  (16) 
energy

$$$$
16:0
     RDKit          3D

 40 43  0  0  0  0  0  0  0  0999 V2000
   -6.2380   17.0820  -34.2260 Cl  0  0  0  0  0  0  0  0  0  0  0  0
   -4.5860   17.6720  -34.2180 C   0  0  0  0  0  0  0  0  0  0  0  0
   -3.5630   16.8640  -34.7270 C   0  0  0  0  0  0  0  0  0  0  0  0
   -2.2510   17.2930  -34.7370 C   0  0  0  0  0  0  0  0  0  0  0  0
   -1.9690   18.5440  -34.2310 C   0  0  0  0  0  0  0  0  0  0  0  0
   -2.9790   19.3650  -33.7190 C   0  0  0  0  0  0  0  0  0  0  0  0
   -4.2800   18.9150  -33.7200 C   0  0  0  0  0  0  0  0  0  0  0  0
   -5.2970   19.7930  -33.1810 C   0  0  0  0  0  0  0  0  0  0  0  0
   -4.9220   20.9850  -32.6910 N   0  0  0  0  0  0  0  0  0  0  0  0
   -5.8110   21.8680  -32.1670 C   0  0  0  0  0  0  0  0  0  0  0  0
   -5.2700   23.0940  -31.6990 N   0  0  0  0  0  0  0  0  0  0  0  0
   -5.9670   24.3640  -31.7970 C   0  0  0  0  0  0  0  0  0  0  0  0
   -5.6920   25.1830  -30.5680 C   0  0  0  0  0  0  0  0  0  0  0  0
   -4.2470   25.4530  -30.5810 N   0  0  0  0  0  0  0  0  0  0  0  0
   -3.6150   24.2150  -30.2350 C   0  0  0  0  0  0  0  0  0  0  0  0
   -3.9570   23.0520  -31.1010 C   0  0  0  0  0  0  0  0  0  0  0  0
   -7.1490   21.5490  -32.1280 C   0  0  0  0  0  0  0  0  0  0  0  0
   -8.0480   22.4420  -31.5950 C   0  0  0  0  0  0  0  0  0  0  0  0
   -9.3870   22.1250  -31.5520 C   0  0  0  0  0  0  0  0  0  0  0  0
   -9.7770   20.9010  -32.0540 C   0  0  0  0  0  0  0  0  0  0  0  0
   -8.8780   19.9930  -32.5940 C   0  0  0  0  0  0  0  0  0  0  0  0
   -7.5320   20.3180  -32.6350 C   0  0  0  0  0  0  0  0  0  0  0  0
   -6.6060   19.4980  -33.1350 N   0  0  0  0  0  0  0  0  0  0  0  0
   -3.8089   15.8690  -35.1264 H   0  0  0  0  0  0  0  0  0  0  0  0
   -1.4512   16.6532  -35.1383 H   0  0  0  0  0  0  0  0  0  0  0  0
   -0.9294   18.9035  -34.2299 H   0  0  0  0  0  0  0  0  0  0  0  0
   -2.7361   20.3606  -33.3194 H   0  0  0  0  0  0  0  0  0  0  0  0
   -5.6150   24.9077  -32.6861 H   0  0  0  0  0  0  0  0  0  0  0  0
   -7.0486   24.1827  -31.8820 H   0  0  0  0  0  0  0  0  0  0  0  0
   -6.2580   26.1256  -30.6014 H   0  0  0  0  0  0  0  0  0  0  0  0
   -5.9966   24.6542  -29.6528 H   0  0  0  0  0  0  0  0  0  0  0  0
   -4.0200   25.6700  -31.5940 H   0  0  0  0  0  0  0  0  0  0  0  0
   -2.5265   24.3654  -30.2852 H   0  0  0  0  0  0  0  0  0  0  0  0
   -3.9837   23.9601  -29.2305 H   0  0  0  0  0  0  0  0  0  0  0  0
   -3.2155   23.0024  -31.9120 H   0  0  0  0  0  0  0  0  0  0  0  0
   -3.9500   22.1703  -30.4434 H   0  0  0  0  0  0  0  0  0  0  0  0
   -7.6980   23.4085  -31.2034 H   0  0  0  0  0  0  0  0  0  0  0  0
  -10.1227   22.8258  -31.1305 H   0  0  0  0  0  0  0  0  0  0  0  0
  -10.8437   20.6341  -32.0250 H   0  0  0  0  0  0  0  0  0  0  0  0
   -9.2296   19.0268  -32.9849 H   0  0  0  0  0  0  0  0  0  0  0  0
  1  2  1  0
  2  3  2  0
  3  4  1  0
  4  5  2  0
  5  6  1  0
  6  7  2  0
  7  8  1  0
  8  9  2  0
  9 10  1  0
 10 11  1  0
 11 12  1  0
 12 13  1  0
 13 14  1  0
 14 15  1  0
 15 16  1  0
 10 17  2  0
 17 18  1  0
 18 19  2  0
 19 20  1  0
 20 21  2  0
 21 22  1  0
 22 23  2  0
  7  2  1  0
 23  8  1  0
 16 11  1  0
 22 17  1  0
  3 24  1  0
  4 25  1  0
  5 26  1  0
  6 27  1  0
 12 28  1  0
 12 29  1  0
 13 30  1  0
 13 31  1  0
 14 32  1  0
 15 33  1  0
 15 34  1  0
 16 35  1  0
 16 36  1  0
 18 37  1  0
 19 38  1  0
 20 39  1  0
 21 40  1  0
M  END
>  <smiles>  (17) 
Clc1ccccc1-c1nc(N2CCNCC2)c2ccccc2n1

>  <score_type>  (17) 
oracle

>  <origin>  (17) 
adg

>  <m_score__min__energy>  (17) 
-9.7200000000000006

>  <m_primary>  (17) 
energy

$$$$
17:0
     RDKit          3D

 36 38  0  0  0  0  0  0  0  0999 V2000
   -2.4350   22.6700  -30.3050 C   0  0  0  0  0  0  0  0  0  0  0  0
   -3.3530   23.2000  -31.2110 O   0  0  0  0  0  0  0  0  0  0  0  0
   -4.6030   23.6870  -30.9340 C   0  0  0  0  0  0  0  0  0  0  0  0
   -4.8630   24.9090  -30.3500 C   0  0  0  0  0  0  0  0  0  0  0  0
   -6.1500   25.3300  -30.1030 C   0  0  0  0  0  0  0  0  0  0  0  0
   -7.2360   24.5450  -30.4310 C   0  0  0  0  0  0  0  0  0  0  0  0
   -6.9890   23.3190  -31.0170 C   0  0  0  0  0  0  0  0  0  0  0  0
   -8.0920   22.5530  -31.3350 C   0  0  0  0  0  0  0  0  0  0  0  0
   -7.9150   21.3190  -31.9220 C   0  0  0  0  0  0  0  0  0  0  0  0
   -6.6300   20.8860  -32.1740 C   0  0  0  0  0  0  0  0  0  0  0  0
   -6.4530   19.5650  -32.8030 C   0  0  0  0  0  0  0  0  0  0  0  0
   -6.6720   18.4520  -32.0030 C   0  0  0  0  0  0  0  0  0  0  0  0
   -6.5130   17.1870  -32.5750 C   0  0  0  0  0  0  0  0  0  0  0  0
   -6.1460   17.0980  -33.9030 C   0  0  0  0  0  0  0  0  0  0  0  0
   -5.9300   18.2170  -34.6940 C   0  0  0  0  0  0  0  0  0  0  0  0
   -6.0910   19.4830  -34.1200 C   0  0  0  0  0  0  0  0  0  0  0  0
   -5.5100   21.6350  -31.8650 C   0  0  0  0  0  0  0  0  0  0  0  0
   -4.2230   21.1790  -32.1290 O   0  0  0  0  0  0  0  0  0  0  0  0
   -3.5950   21.3590  -33.3800 C   0  0  0  0  0  0  0  0  0  0  0  0
   -5.6870   22.8770  -31.2740 C   0  0  0  0  0  0  0  0  0  0  0  0
   -2.7772   22.8675  -29.2784 H   0  0  0  0  0  0  0  0  0  0  0  0
   -2.3509   21.5844  -30.4610 H   0  0  0  0  0  0  0  0  0  0  0  0
   -1.4528   23.1400  -30.4610 H   0  0  0  0  0  0  0  0  0  0  0  0
   -4.0221   25.5626  -30.0751 H   0  0  0  0  0  0  0  0  0  0  0  0
   -6.3158   26.3115  -29.6349 H   0  0  0  0  0  0  0  0  0  0  0  0
   -8.2635   24.8839  -30.2326 H   0  0  0  0  0  0  0  0  0  0  0  0
   -9.1050   22.9248  -31.1214 H   0  0  0  0  0  0  0  0  0  0  0  0
   -8.7803   20.6925  -32.1841 H   0  0  0  0  0  0  0  0  0  0  0  0
   -6.9627   18.5627  -30.9479 H   0  0  0  0  0  0  0  0  0  0  0  0
   -6.6774   16.2780  -31.9777 H   0  0  0  0  0  0  0  0  0  0  0  0
   -6.0200   16.1014  -34.3511 H   0  0  0  0  0  0  0  0  0  0  0  0
   -5.6385   18.1114  -35.7494 H   0  0  0  0  0  0  0  0  0  0  0  0
   -5.9298   20.3938  -34.7154 H   0  0  0  0  0  0  0  0  0  0  0  0
   -2.5481   21.6591  -33.2250 H   0  0  0  0  0  0  0  0  0  0  0  0
   -3.6262   20.4157  -33.9451 H   0  0  0  0  0  0  0  0  0  0  0  0
   -4.1212   22.1425  -33.9451 H   0  0  0  0  0  0  0  0  0  0  0  0
  1  2  1  0
  2  3  1  0
  3  4  2  0
  4  5  1  0
  5  6  2  0
  6  7  1  0
  7  8  2  0
  8  9  1  0
  9 10  2  0
 10 11  1  0
 11 12  2  0
 12 13  1  0
 13 14  2  0
 14 15  1  0
 15 16  2  0
 10 17  1  0
 17 18  1  0
 18 19  1  0
 17 20  2  0
 20  3  1  0
 20  7  1  0
 16 11  1  0
  1 21  1  0
  1 22  1  0
  1 23  1  0
  4 24  1  0
  5 25  1  0
  6 26  1  0
  8 27  1  0
  9 28  1  0
 12 29  1  0
 13 30  1  0
 14 31  1  0
 15 32  1  0
 16 33  1  0
 19 34  1  0
 19 35  1  0
 19 36  1  0
M  END
>  <smiles>  (18) 
COc1cccc2ccc(-c3ccccc3)c(OC)c12

>  <score_type>  (18) 
oracle

>  <origin>  (18) 
adg

>  <m_score__min__energy>  (18) 
-7.4400000000000004

>  <m_primary>  (18) 
energy

$$$$
18:0
     RDKit          3D

 66 70  0  0  0  0  0  0  0  0999 V2000
   -1.8730   24.8990  -28.6790 C   0  0  0  0  0  0  0  0  0  0  0  0
   -2.2740   23.7860  -29.6250 C   0  0  0  0  0  0  0  0  0  0  0  0
   -3.5690   23.2560  -29.3370 N   0  0  0  0  0  0  0  0  0  0  0  0
   -3.4260   21.9110  -28.8320 C   0  0  0  0  0  0  0  0  0  0  0  0
   -2.1780   21.3190  -29.4630 C   0  0  0  0  0  0  0  0  0  0  0  0
   -4.3320   24.0280  -28.3730 C   0  0  0  0  0  0  0  0  0  0  0  0
   -5.3230   24.9400  -29.0090 C   0  0  0  0  0  0  0  0  0  0  0  0
   -6.1200   24.3130  -29.9440 O   0  0  0  0  0  0  0  0  0  0  0  0
   -6.1050   24.8380  -31.2140 C   0  0  0  0  0  0  0  0  0  0  0  0
   -5.7780   23.7060  -32.2050 C   0  0  0  0  0  0  0  0  0  0  0  0
   -5.4090   22.5060  -31.5060 N   0  0  0  0  0  0  0  0  0  0  0  0
   -5.6120   21.2440  -32.1140 C   0  0  0  0  0  0  0  0  0  0  0  0
   -6.8600   20.6730  -32.1450 C   0  0  0  0  0  0  0  0  0  0  0  0
   -7.8840   21.3950  -31.5530 C   0  0  0  0  0  0  0  0  0  0  0  0
   -9.1700   20.9010  -31.5350 C   0  0  0  0  0  0  0  0  0  0  0  0
   -9.3790   19.6760  -32.1250 C   0  0  0  0  0  0  0  0  0  0  0  0
   -8.3460   18.9530  -32.7200 C   0  0  0  0  0  0  0  0  0  0  0  0
   -7.0570   19.4420  -32.7410 C   0  0  0  0  0  0  0  0  0  0  0  0
   -6.0750   18.7280  -33.3200 N   0  0  0  0  0  0  0  0  0  0  0  0
   -6.2520   17.4470  -33.9450 C   0  0  0  0  0  0  0  0  0  0  0  0
   -4.8300   19.2900  -33.2930 C   0  0  0  0  0  0  0  0  0  0  0  0
   -4.5900   20.5160  -32.7090 C   0  0  0  0  0  0  0  0  0  0  0  0
   -3.3370   21.1040  -32.6720 C   0  0  0  0  0  0  0  0  0  0  0  0
   -2.2610   20.4580  -33.2380 C   0  0  0  0  0  0  0  0  0  0  0  0
   -2.4710   19.2300  -33.8300 C   0  0  0  0  0  0  0  0  0  0  0  0
   -1.3860   18.6370  -34.3700 N   0  0  0  0  0  0  0  0  0  0  0  0
   -1.5360   17.4400  -34.9610 C   0  0  0  0  0  0  0  0  0  0  0  0
   -0.5000   16.7480  -35.5430 C   0  0  0  0  0  0  0  0  0  0  0  0
   -0.6850   15.5010  -36.1520 C   0  0  0  0  0  0  0  0  0  0  0  0
   -1.9530   14.9380  -36.1720 C   0  0  0  0  0  0  0  0  0  0  0  0
   -3.0040   15.6360  -35.5830 C   0  0  0  0  0  0  0  0  0  0  0  0
   -2.7900   16.8780  -34.9840 C   0  0  0  0  0  0  0  0  0  0  0  0
   -3.8590   17.4690  -34.4470 N   0  0  0  0  0  0  0  0  0  0  0  0
   -3.7310   18.6590  -33.8560 C   0  0  0  0  0  0  0  0  0  0  0  0
   -1.9955   24.5591  -27.6400 H   0  0  0  0  0  0  0  0  0  0  0  0
   -0.8212   25.1687  -28.8550 H   0  0  0  0  0  0  0  0  0  0  0  0
   -2.5111   25.7775  -28.8550 H   0  0  0  0  0  0  0  0  0  0  0  0
   -2.2759   24.1807  -30.6517 H   0  0  0  0  0  0  0  0  0  0  0  0
   -1.5469   22.9695  -29.5038 H   0  0  0  0  0  0  0  0  0  0  0  0
   -3.3210   21.9297  -27.7372 H   0  0  0  0  0  0  0  0  0  0  0  0
   -4.3109   21.3067  -29.0807 H   0  0  0  0  0  0  0  0  0  0  0  0
   -1.4873   20.9914  -28.6720 H   0  0  0  0  0  0  0  0  0  0  0  0
   -2.4563   20.4569  -30.0870 H   0  0  0  0  0  0  0  0  0  0  0  0
   -1.6864   22.0799  -30.0870 H   0  0  0  0  0  0  0  0  0  0  0  0
   -4.8701   23.3312  -27.7135 H   0  0  0  0  0  0  0  0  0  0  0  0
   -3.6195   24.6543  -27.8162 H   0  0  0  0  0  0  0  0  0  0  0  0
   -5.9693   25.3565  -28.2223 H   0  0  0  0  0  0  0  0  0  0  0  0
   -4.7555   25.7212  -29.5360 H   0  0  0  0  0  0  0  0  0  0  0  0
   -7.0905   25.2656  -31.4507 H   0  0  0  0  0  0  0  0  0  0  0  0
   -5.3476   25.6326  -31.2852 H   0  0  0  0  0  0  0  0  0  0  0  0
   -6.6630   23.5038  -32.8261 H   0  0  0  0  0  0  0  0  0  0  0  0
   -4.9325   24.0216  -32.8339 H   0  0  0  0  0  0  0  0  0  0  0  0
   -4.9870   22.5190  -30.5480 H   0  0  0  0  0  0  0  0  0  0  0  0
   -7.6682   22.3709  -31.0935 H   0  0  0  0  0  0  0  0  0  0  0  0
   -9.9938   21.4617  -31.0691 H   0  0  0  0  0  0  0  0  0  0  0  0
  -10.3944   19.2530  -32.1274 H   0  0  0  0  0  0  0  0  0  0  0  0
   -8.5627   17.9775  -33.1798 H   0  0  0  0  0  0  0  0  0  0  0  0
   -6.3590   16.6729  -33.1708 H   0  0  0  0  0  0  0  0  0  0  0  0
   -7.1560   17.4664  -34.5714 H   0  0  0  0  0  0  0  0  0  0  0  0
   -5.3766   17.2206  -34.5714 H   0  0  0  0  0  0  0  0  0  0  0  0
   -3.2017   22.0844  -32.1918 H   0  0  0  0  0  0  0  0  0  0  0  0
   -1.2584   20.9101  -33.2186 H   0  0  0  0  0  0  0  0  0  0  0  0
    0.5077   17.1889  -35.5296 H   0  0  0  0  0  0  0  0  0  0  0  0
    0.1651   14.9736  -36.6094 H   0  0  0  0  0  0  0  0  0  0  0  0
   -2.1246   13.9593  -36.6440 H   0  0  0  0  0  0  0  0  0  0  0  0
   -4.0152   15.2031  -35.5900 H   0  0  0  0  0  0  0  0  0  0  0  0
  1  2  1  0
  2  3  1  0
  3  4  1  0
  4  5  1  0
  3  6  1  0
  6  7  1  0
  7  8  1  0
  8  9  1  0
  9 10  1  0
 10 11  1  0
 11 12  1  0
 12 13  2  0
 13 14  1  0
 14 15  2  0
 15 16  1  0
 16 17  2  0
 17 18  1  0
 18 19  2  0
 19 20  1  0
 19 21  1  0
 21 22  2  0
 22 23  1  0
 23 24  2  0
 24 25  1  0
 25 26  2  0
 26 27  1  0
 27 28  2  0
 28 29  1  0
 29 30  2  0
 30 31  1  0
 31 32  2  0
 32 33  1  0
 33 34  2  0
 22 12  1  0
 34 25  1  0
 18 13  1  0
 34 21  1  0
 32 27  1  0
  1 35  1  0
  1 36  1  0
  1 37  1  0
  2 38  1  0
  2 39  1  0
  4 40  1  0
  4 41  1  0
  5 42  1  0
  5 43  1  0
  5 44  1  0
  6 45  1  0
  6 46  1  0
  7 47  1  0
  7 48  1  0
  9 49  1  0
  9 50  1  0
 10 51  1  0
 10 52  1  0
 11 53  1  0
 14 54  1  0
 15 55  1  0
 16 56  1  0
 17 57  1  0
 20 58  1  0
 20 59  1  0
 20 60  1  0
 23 61  1  0
 24 62  1  0
 28 63  1  0
 29 64  1  0
 30 65  1  0
 31 66  1  0
M  CHG  1  19   1
M  END
>  <smiles>  (19) 
CCN(CC)CCOCCNc1c2ccccc2[n+](C)c2c1ccc1nc3ccccc3nc12

>  <score_type>  (19) 
oracle

>  <origin>  (19) 
adg

>  <m_score__min__energy>  (19) 
-9.4000000000000004

>  <m_primary>  (19) 
energy

$$$$
19:0
     RDKit          3D

 55 56  0  0  0  0  0  0  0  0999 V2000
   -1.5200   20.8130  -33.8180 C   0  0  0  0  0  0  0  0  0  0  0  0
   -2.7410   19.8950  -33.8430 C   0  0  0  0  0  0  0  0  0  0  0  0
   -3.9850   20.5900  -33.4620 C   0  0  0  0  0  0  0  0  0  0  0  0
   -4.6190   20.3280  -32.2280 N   0  0  0  0  0  0  0  0  0  0  0  0
   -4.2980   20.6110  -30.8780 C   0  0  0  0  0  0  0  0  0  0  0  0
   -2.9220   20.9740  -30.4720 C   0  0  0  0  0  0  0  0  0  0  0  0
   -2.6450   22.4660  -30.8680 C   0  0  0  0  0  0  0  0  0  0  0  0
   -2.7950   20.9970  -28.9730 C   0  0  0  0  0  0  0  0  0  0  0  0
   -5.9150   19.6090  -32.3730 C   0  0  0  0  0  0  0  0  0  0  0  0
   -5.8710   18.3020  -32.8090 C   0  0  0  0  0  0  0  0  0  0  0  0
   -7.0320   17.5620  -32.9600 C   0  0  0  0  0  0  0  0  0  0  0  0
   -8.2390   18.1970  -32.6550 C   0  0  0  0  0  0  0  0  0  0  0  0
   -8.2560   19.5120  -32.2180 C   0  0  0  0  0  0  0  0  0  0  0  0
   -7.0860   20.2470  -32.0690 C   0  0  0  0  0  0  0  0  0  0  0  0
   -7.2150   21.5760  -31.6260 N   0  0  0  0  0  0  0  0  0  0  0  0
   -7.7130   22.0090  -30.3610 C   0  0  0  0  0  0  0  0  0  0  0  0
   -7.2060   23.4370  -30.1200 C   0  0  0  0  0  0  0  0  0  0  0  0
   -5.8140   23.4650  -30.4810 N   0  0  0  0  0  0  0  0  0  0  0  0
   -5.0390   24.8530  -29.8050 S   0  0  0  0  0  0  0  0  0  0  0  0
   -4.4460   24.5190  -28.1650 C   0  0  0  0  0  0  0  0  0  0  0  0
   -6.0440   25.9750  -29.7470 O   0  0  0  0  0  0  0  0  0  0  0  0
   -3.8840   25.3060  -30.6350 O   0  0  0  0  0  0  0  0  0  0  0  0
   -5.7130   23.4870  -31.9220 C   0  0  0  0  0  0  0  0  0  0  0  0
   -6.7770   22.6270  -32.5620 C   0  0  0  0  0  0  0  0  0  0  0  0
   -1.2405   21.0231  -32.7750 H   0  0  0  0  0  0  0  0  0  0  0  0
   -0.6804   20.3205  -34.3305 H   0  0  0  0  0  0  0  0  0  0  0  0
   -1.7599   21.7563  -34.3305 H   0  0  0  0  0  0  0  0  0  0  0  0
   -2.8593   19.4948  -34.8607 H   0  0  0  0  0  0  0  0  0  0  0  0
   -2.5696   19.0948  -33.1079 H   0  0  0  0  0  0  0  0  0  0  0  0
   -3.7574   21.6661  -33.4737 H   0  0  0  0  0  0  0  0  0  0  0  0
   -4.7105   20.2020  -34.1922 H   0  0  0  0  0  0  0  0  0  0  0  0
   -4.9428   21.4489  -30.5744 H   0  0  0  0  0  0  0  0  0  0  0  0
   -4.4395   19.6350  -30.3908 H   0  0  0  0  0  0  0  0  0  0  0  0
   -2.2470   20.2460  -30.9458 H   0  0  0  0  0  0  0  0  0  0  0  0
   -2.5324   23.0723  -29.9571 H   0  0  0  0  0  0  0  0  0  0  0  0
   -1.7211   22.5221  -31.4623 H   0  0  0  0  0  0  0  0  0  0  0  0
   -3.4872   22.8500  -31.4623 H   0  0  0  0  0  0  0  0  0  0  0  0
   -3.7808   20.8185  -28.5187 H   0  0  0  0  0  0  0  0  0  0  0  0
   -2.0956   20.2109  -28.6522 H   0  0  0  0  0  0  0  0  0  0  0  0
   -2.4157   21.9784  -28.6522 H   0  0  0  0  0  0  0  0  0  0  0  0
   -4.8998   17.8401  -33.0403 H   0  0  0  0  0  0  0  0  0  0  0  0
   -7.0052   16.5180  -33.3056 H   0  0  0  0  0  0  0  0  0  0  0  0
   -9.1856   17.6472  -32.7630 H   0  0  0  0  0  0  0  0  0  0  0  0
   -9.2203   19.9862  -31.9830 H   0  0  0  0  0  0  0  0  0  0  0  0
   -8.8129   21.9990  -30.3687 H   0  0  0  0  0  0  0  0  0  0  0  0
   -7.3652   21.3382  -29.5616 H   0  0  0  0  0  0  0  0  0  0  0  0
   -7.7704   24.1466  -30.7428 H   0  0  0  0  0  0  0  0  0  0  0  0
   -7.3403   23.7246  -29.0668 H   0  0  0  0  0  0  0  0  0  0  0  0
   -5.1581   24.9201  -27.4288 H   0  0  0  0  0  0  0  0  0  0  0  0
   -4.3470   23.4324  -28.0251 H   0  0  0  0  0  0  0  0  0  0  0  0
   -3.4655   24.9975  -28.0251 H   0  0  0  0  0  0  0  0  0  0  0  0
   -5.8307   24.5227  -32.2733 H   0  0  0  0  0  0  0  0  0  0  0  0
   -4.7281   23.0881  -32.2062 H   0  0  0  0  0  0  0  0  0  0  0  0
   -7.6386   23.2556  -32.8311 H   0  0  0  0  0  0  0  0  0  0  0  0
   -6.3607   22.1534  -33.4633 H   0  0  0  0  0  0  0  0  0  0  0  0
  1  2  1  0
  2  3  1  0
  3  4  1  0
  4  5  1  0
  5  6  1  0
  6  7  1  0
  6  8  1  0
  4  9  1  0
  9 10  2  0
 10 11  1  0
 11 12  2  0
 12 13  1  0
 13 14  2  0
 14 15  1  0
 15 16  1  0
 16 17  1  0
 17 18  1  0
 18 19  1  0
 19 20  1  0
 19 21  2  0
 19 22  2  0
 18 23  1  0
 23 24  1  0
 14  9  1  0
 24 15  1  0
  1 25  1  0
  1 26  1  0
  1 27  1  0
  2 28  1  0
  2 29  1  0
  3 30  1  0
  3 31  1  0
  5 32  1  0
  5 33  1  0
  6 34  1  0
  7 35  1  0
  7 36  1  0
  7 37  1  0
  8 38  1  0
  8 39  1  0
  8 40  1  0
 10 41  1  0
 11 42  1  0
 12 43  1  0
 13 44  1  0
 16 45  1  0
 16 46  1  0
 17 47  1  0
 17 48  1  0
 20 49  1  0
 20 50  1  0
 20 51  1  0
 23 52  1  0
 23 53  1  0
 24 54  1  0
 24 55  1  0
M  END
>  <smiles>  (20) 
CCCN(CC(C)C)c1ccccc1N1CCN(S(C)(=O)=O)CC1

>  <score_type>  (20) 
oracle

>  <origin>  (20) 
adg

>  <m_score__min__energy>  (20) 
-8.3699999999999992

>  <m_primary>  (20) 
energy

$$$$
20:0
     RDKit          3D

 67 69  0  0  1  0  0  0  0  0999 V2000
   -2.3170   19.6930  -27.0360 C   0  0  0  0  0  0  0  0  0  0  0  0
   -2.9770   20.8000  -27.8160 C   0  0  0  0  0  0  0  0  0  0  0  0
   -2.1920   21.9330  -28.0390 N   0  0  0  0  0  0  0  0  0  0  0  0
   -2.6260   23.2020  -27.6510 C   0  0  0  0  0  0  0  0  0  0  0  0
   -4.0900   23.3830  -27.9740 C   0  0  0  0  0  0  0  0  0  0  0  0
   -0.8860   21.7800  -28.5790 C   0  0  0  0  0  0  0  0  0  0  0  0
   -0.5770   22.6630  -29.7390 C   0  0  0  0  0  0  0  0  0  0  0  0
   -0.9050   22.1460  -31.0240 N   0  0  0  0  0  0  0  0  0  0  0  0
   -2.0860   21.4510  -31.3780 C   0  0  0  0  0  0  0  0  0  0  0  0
   -3.3190   22.0090  -31.0370 C   0  0  0  0  0  0  0  0  0  0  0  0
   -4.5180   21.4030  -31.3210 C   0  0  0  0  0  0  0  0  0  0  0  0
   -4.5210   20.1890  -31.9730 C   0  0  0  0  0  0  0  0  0  0  0  0
   -5.7210   19.5750  -32.2680 C   0  0  0  0  0  0  0  0  0  0  0  0
   -6.7790   20.1090  -31.9100 N   0  0  0  0  0  0  0  0  0  0  0  0
   -7.7500   20.7740  -32.6780 C   0  0  0  0  0  0  0  0  0  0  0  0
   -7.4300   22.2640  -32.2660 C   0  0  0  0  0  0  0  0  0  0  0  0
   -7.6830   22.2980  -30.7780 C   0  0  0  0  0  0  0  0  0  0  0  0
   -6.8980   23.3330  -30.0460 C   0  0  0  0  0  0  0  0  0  0  0  0
   -6.2290   24.2480  -31.0450 C   0  0  0  0  0  0  0  0  0  0  0  0
   -5.6920   25.4760  -30.3820 C   0  0  0  0  0  0  0  0  0  0  0  0
   -4.2630   25.5730  -30.7230 N   0  0  0  0  0  0  0  0  0  0  0  0
   -5.7090   18.3770  -32.9210 C   0  0  0  0  0  0  0  0  0  0  0  0
   -6.8690   17.7420  -33.2420 C   0  0  0  0  0  0  0  0  0  0  0  0
   -6.7790   16.5060  -33.9240 C   0  0  0  0  0  0  0  0  0  0  0  0
   -5.5400   16.0340  -34.2170 C   0  0  0  0  0  0  0  0  0  0  0  0
   -4.3540   16.6560  -33.9060 C   0  0  0  0  0  0  0  0  0  0  0  0
   -4.4630   17.8640  -33.2390 C   0  0  0  0  0  0  0  0  0  0  0  0
   -3.3040   18.4770  -32.9420 N   0  0  0  0  0  0  0  0  0  0  0  0
   -3.2930   19.6580  -32.3010 C   0  0  0  0  0  0  0  0  0  0  0  0
   -2.0930   20.2480  -32.0240 C   0  0  0  0  0  0  0  0  0  0  0  0
   -2.4313   19.8848  -25.9589 H   0  0  0  0  0  0  0  0  0  0  0  0
   -2.7903   18.7330  -27.2898 H   0  0  0  0  0  0  0  0  0  0  0  0
   -1.2474   19.6529  -27.2898 H   0  0  0  0  0  0  0  0  0  0  0  0
   -3.2718   20.3946  -28.7952 H   0  0  0  0  0  0  0  0  0  0  0  0
   -3.8240   21.1376  -27.2006 H   0  0  0  0  0  0  0  0  0  0  0  0
   -2.4773   23.3196  -26.5675 H   0  0  0  0  0  0  0  0  0  0  0  0
   -2.0451   23.9590  -28.1983 H   0  0  0  0  0  0  0  0  0  0  0  0
   -4.6656   23.4542  -27.0393 H   0  0  0  0  0  0  0  0  0  0  0  0
   -4.2252   24.3047  -28.5590 H   0  0  0  0  0  0  0  0  0  0  0  0
   -4.4456   22.5220  -28.5590 H   0  0  0  0  0  0  0  0  0  0  0  0
   -0.1596   21.9969  -27.7820 H   0  0  0  0  0  0  0  0  0  0  0  0
   -0.8273   20.7476  -28.9541 H   0  0  0  0  0  0  0  0  0  0  0  0
   -1.1320   23.6030  -29.6032 H   0  0  0  0  0  0  0  0  0  0  0  0
    0.5167   22.7805  -29.7380 H   0  0  0  0  0  0  0  0  0  0  0  0
   -0.1920   22.2960  -31.7970 H   0  0  0  0  0  0  0  0  0  0  0  0
   -3.3308   22.9783  -30.5171 H   0  0  0  0  0  0  0  0  0  0  0  0
   -5.4653   21.8812  -31.0313 H   0  0  0  0  0  0  0  0  0  0  0  0
   -7.6068   20.6062  -33.7557 H   0  0  0  0  0  0  0  0  0  0  0  0
   -8.7872   20.4518  -32.5035 H   0  0  0  0  0  0  0  0  0  0  0  0
   -6.3825   22.5144  -32.4897 H   0  0  0  0  0  0  0  0  0  0  0  0
   -8.0427   22.9943  -32.8148 H   0  0  0  0  0  0  0  0  0  0  0  0
   -8.7524   22.4973  -30.6148 H   0  0  0  0  0  0  0  0  0  0  0  0
   -7.3648   21.3224  -30.3818 H   0  0  0  0  0  0  0  0  0  0  0  0
   -7.5714   23.9193  -29.4035 H   0  0  0  0  0  0  0  0  0  0  0  0
   -6.1343   22.8451  -29.4225 H   0  0  0  0  0  0  0  0  0  0  0  0
   -5.3996   23.7085  -31.5257 H   0  0  0  0  0  0  0  0  0  0  0  0
   -6.9775   24.5549  -31.7904 H   0  0  0  0  0  0  0  0  0  0  0  0
   -6.2268   26.3649  -30.7479 H   0  0  0  0  0  0  0  0  0  0  0  0
   -5.8276   25.4189  -29.2919 H   0  0  0  0  0  0  0  0  0  0  0  0
   -4.2340   25.7190  -31.7660 H   0  0  0  0  0  0  0  0  0  0  0  0
   -3.8800   26.4370  -30.2840 H   0  0  0  0  0  0  0  0  0  0  0  0
   -7.8452   18.1759  -32.9796 H   0  0  0  0  0  0  0  0  0  0  0  0
   -7.6824   15.9460  -34.2075 H   0  0  0  0  0  0  0  0  0  0  0  0
   -5.4801   15.0726  -34.7481 H   0  0  0  0  0  0  0  0  0  0  0  0
   -3.3791   16.2207  -34.1708 H   0  0  0  0  0  0  0  0  0  0  0  0
   -2.3830   18.0350  -33.2090 H   0  0  0  0  0  0  0  0  0  0  0  0
   -1.1497   19.7632  -32.3158 H   0  0  0  0  0  0  0  0  0  0  0  0
  1  2  1  0
  2  3  1  0
  3  4  1  0
  4  5  1  0
  3  6  1  0
  6  7  1  0
  7  8  1  0
  8  9  1  0
  9 10  2  0
 10 11  1  0
 11 12  2  0
 12 13  1  0
 13 14  2  0
 14 15  1  0
 15 16  1  0
 16 17  1  0
 17 18  1  0
 18 19  1  0
 19 20  1  0
 20 21  1  0
 13 22  1  0
 22 23  2  0
 23 24  1  0
 24 25  2  0
 25 26  1  0
 26 27  2  0
 27 28  1  0
 28 29  1  0
 29 30  2  0
 30  9  1  0
 29 12  1  0
 27 22  1  0
  1 31  1  0
  1 32  1  0
  1 33  1  0
  2 34  1  0
  2 35  1  0
  4 36  1  0
  4 37  1  0
  5 38  1  0
  5 39  1  0
  5 40  1  0
  6 41  1  0
  6 42  1  0
  7 43  1  0
  7 44  1  0
  8 45  1  0
 10 46  1  0
 11 47  1  0
 15 48  1  0
 15 49  1  0
 16 50  1  0
 16 51  1  0
 17 52  1  0
 17 53  1  0
 18 54  1  0
 18 55  1  0
 19 56  1  0
 19 57  1  0
 20 58  1  0
 20 59  1  0
 21 60  1  0
 21 61  1  0
 23 62  1  0
 24 63  1  0
 25 64  1  0
 26 65  1  0
 28 66  1  0
 30 67  1  0
M  END
>  <smiles>  (21) 
CCN(CC)CCNc1ccc2c(=NCCCCCCN)c3ccccc3[nH]c2c1

>  <score_type>  (21) 
oracle

>  <origin>  (21) 
adg

>  <m_score__min__energy>  (21) 
-9.0600000000000005

>  <m_primary>  (21) 
energy

$$$$
21:0
     RDKit          3D

 55 58  0  0  1  0  0  0  0  0999 V2000
   -6.8640   25.1700  -29.7200 C   0  0  0  0  0  0  0  0  0  0  0  0
   -5.6670   25.7240  -30.4900 C   0  0  0  0  0  0  0  0  0  0  0  0
   -5.5070   24.9260  -31.5940 O   0  0  0  0  0  0  0  0  0  0  0  0
   -5.7720   23.5620  -31.3460 C   0  0  1  0  0  0  0  0  0  0  0  0
   -7.0550   23.2730  -32.0970 C   0  0  0  0  0  0  0  0  0  0  0  0
   -7.3870   21.8240  -32.0960 C   0  0  0  0  0  0  0  0  0  0  0  0
   -8.6740   21.3450  -31.9670 C   0  0  0  0  0  0  0  0  0  0  0  0
   -8.8470   19.9790  -31.9830 C   0  0  0  0  0  0  0  0  0  0  0  0
   -7.7980   19.0940  -32.1200 C   0  0  0  0  0  0  0  0  0  0  0  0
   -6.4970   19.5690  -32.2510 C   0  0  0  0  0  0  0  0  0  0  0  0
   -6.3490   20.9390  -32.2320 C   0  0  0  0  0  0  0  0  0  0  0  0
   -5.0320   21.4490  -32.3630 N   0  0  0  0  0  0  0  0  0  0  0  0
   -3.9990   20.7460  -33.1110 C   0  0  0  0  0  0  0  0  0  0  0  0
   -2.8230   20.6080  -32.1720 C   0  0  0  0  0  0  0  0  0  0  0  0
   -3.2760   20.9220  -30.7580 C   0  0  0  0  0  0  0  0  0  0  0  0
   -3.6080   22.4090  -30.7200 C   0  0  2  0  0  0  0  0  0  0  0  0
   -3.9700   22.7440  -29.3550 N   0  0  0  0  0  0  0  0  0  0  0  0
   -3.5800   24.0300  -28.8880 C   0  0  0  0  0  0  0  0  0  0  0  0
   -2.9520   24.8590  -29.5940 O   0  0  0  0  0  0  0  0  0  0  0  0
   -3.9200   24.4390  -27.4990 C   0  0  0  0  0  0  0  0  0  0  0  0
   -2.6150   24.5640  -26.7580 C   0  0  0  0  0  0  0  0  0  0  0  0
   -2.4070   25.6540  -25.9380 C   0  0  0  0  0  0  0  0  0  0  0  0
   -1.1830   25.7370  -25.2670 C   0  0  0  0  0  0  0  0  0  0  0  0
   -0.2450   24.7270  -25.4570 C   0  0  0  0  0  0  0  0  0  0  0  0
   -0.4760   23.6470  -26.2830 C   0  0  0  0  0  0  0  0  0  0  0  0
   -1.6820   23.5650  -26.9440 C   0  0  0  0  0  0  0  0  0  0  0  0
   -4.6140   22.7170  -31.7540 C   0  0  2  0  0  0  0  0  0  0  0  0
   -6.6769   25.2566  -28.6395 H   0  0  0  0  0  0  0  0  0  0  0  0
   -7.7659   25.7423  -29.9830 H   0  0  0  0  0  0  0  0  0  0  0  0
   -7.0114   24.1121  -29.9830 H   0  0  0  0  0  0  0  0  0  0  0  0
   -5.8611   26.7622  -30.7972 H   0  0  0  0  0  0  0  0  0  0  0  0
   -4.7606   25.7247  -29.8667 H   0  0  0  0  0  0  0  0  0  0  0  0
   -5.9046   23.3267  -30.2797 H   0  0  0  0  0  0  0  0  0  0  0  0
   -7.8777   23.8261  -31.6203 H   0  0  0  0  0  0  0  0  0  0  0  0
   -6.9156   23.5887  -33.1415 H   0  0  0  0  0  0  0  0  0  0  0  0
   -9.5292   22.0278  -31.8556 H   0  0  0  0  0  0  0  0  0  0  0  0
   -9.8656   19.5763  -31.8822 H   0  0  0  0  0  0  0  0  0  0  0  0
   -7.9904   18.0110  -32.1257 H   0  0  0  0  0  0  0  0  0  0  0  0
   -5.6377   18.8915  -32.3631 H   0  0  0  0  0  0  0  0  0  0  0  0
   -4.3596   19.7537  -33.4198 H   0  0  0  0  0  0  0  0  0  0  0  0
   -3.7220   21.2922  -34.0247 H   0  0  0  0  0  0  0  0  0  0  0  0
   -2.4364   19.5791  -32.2148 H   0  0  0  0  0  0  0  0  0  0  0  0
   -2.0275   21.3069  -32.4697 H   0  0  0  0  0  0  0  0  0  0  0  0
   -4.1673   20.3288  -30.5057 H   0  0  0  0  0  0  0  0  0  0  0  0
   -2.4905   20.6750  -30.0287 H   0  0  0  0  0  0  0  0  0  0  0  0
   -2.7529   23.0514  -30.9772 H   0  0  0  0  0  0  0  0  0  0  0  0
   -4.4900   22.0470  -28.7820 H   0  0  0  0  0  0  0  0  0  0  0  0
   -4.4472   25.4044  -27.5055 H   0  0  0  0  0  0  0  0  0  0  0  0
   -4.5812   23.7029  -27.0184 H   0  0  0  0  0  0  0  0  0  0  0  0
   -3.1768   26.4303  -25.8164 H   0  0  0  0  0  0  0  0  0  0  0  0
   -0.9657   26.5852  -24.6012 H   0  0  0  0  0  0  0  0  0  0  0  0
    0.7174   24.7924  -24.9283 H   0  0  0  0  0  0  0  0  0  0  0  0
    0.2880   22.8661  -26.4116 H   0  0  0  0  0  0  0  0  0  0  0  0
   -1.8976   22.7162  -27.6097 H   0  0  0  0  0  0  0  0  0  0  0  0
   -4.1194   23.3759  -32.4829 H   0  0  0  0  0  0  0  0  0  0  0  0
  1  2  1  0
  2  3  1  0
  3  4  1  0
  4  5  1  0
  5  6  1  0
  6  7  2  0
  7  8  1  0
  8  9  2  0
  9 10  1  0
 10 11  2  0
 11 12  1  0
 12 13  1  0
 13 14  1  0
 14 15  1  0
 15 16  1  0
 16 17  1  0
 17 18  1  0
 18 19  2  0
 18 20  1  0
 20 21  1  0
 21 22  2  0
 22 23  1  0
 23 24  2  0
 24 25  1  0
 25 26  2  0
 16 27  1  0
 27  4  1  0
 11  6  1  0
 27 12  1  0
 26 21  1  0
  1 28  1  0
  1 29  1  0
  1 30  1  0
  2 31  1  0
  2 32  1  0
  4 33  1  1
  5 34  1  0
  5 35  1  0
  7 36  1  0
  8 37  1  0
  9 38  1  0
 10 39  1  0
 13 40  1  0
 13 41  1  0
 14 42  1  0
 14 43  1  0
 15 44  1  0
 15 45  1  0
 16 46  1  6
 17 47  1  0
 20 48  1  0
 20 49  1  0
 22 50  1  0
 23 51  1  0
 24 52  1  0
 25 53  1  0
 26 54  1  0
 27 55  1  6
M  END
>  <smiles>  (22) 
CCOC1Cc2ccccc2N2CCCC(NC(=O)Cc3ccccc3)C12

>  <score_type>  (22) 
oracle

>  <origin>  (22) 
adg

>  <m_score__min__energy>  (22) 
-9.9299999999999997

>  <m_primary>  (22) 
energy

$$$$
22:0
     RDKit          3D

 38 39  0  0  1  0  0  0  0  0999 V2000
   -0.4870   27.9250  -26.1070 C   0  0  0  0  0  0  0  0  0  0  0  0
   -0.4540   26.4800  -26.0420 N   0  0  0  0  0  0  0  0  0  0  0  0
   -0.8530   25.9980  -24.7620 C   0  0  0  0  0  0  0  0  0  0  0  0
   -0.0420   24.8040  -24.3610 C   0  0  0  0  0  0  0  0  0  0  0  0
   -0.4960   23.5650  -25.1010 C   0  0  0  0  0  0  0  0  0  0  0  0
   -5.2310   24.1490  -31.1110 N   0  0  0  0  0  0  0  0  0  0  0  0
   -2.0560   23.4210  -26.9500 C   0  0  0  0  0  0  0  0  0  0  0  0
   -2.7160   23.8080  -28.1140 C   0  0  0  0  0  0  0  0  0  0  0  0
   -4.2830   23.0490  -28.7670 S   0  0  0  0  0  0  0  0  0  0  0  0
   -4.3420   24.1440  -30.1980 C   0  0  0  0  0  0  0  0  0  0  0  0
   -1.0210   24.0160  -26.4030 N   0  0  0  0  0  0  0  0  0  0  0  0
   -6.0370   22.9870  -31.4050 C   0  0  0  0  0  0  0  0  0  0  0  0
   -7.2500   22.8220  -30.7690 C   0  0  0  0  0  0  0  0  0  0  0  0
   -7.9970   21.6990  -31.0730 C   0  0  0  0  0  0  0  0  0  0  0  0
   -7.5700   20.7540  -31.9830 C   0  0  0  0  0  0  0  0  0  0  0  0
   -6.3390   20.9540  -32.6070 C   0  0  0  0  0  0  0  0  0  0  0  0
   -5.5540   22.0630  -32.3340 C   0  0  0  0  0  0  0  0  0  0  0  0
   -3.2510   24.9290  -30.0650 N   0  0  0  0  0  0  0  0  0  0  0  0
   -2.4590   24.7680  -29.0530 C   0  0  0  0  0  0  0  0  0  0  0  0
   -1.2890   25.5850  -28.8780 O   0  0  0  0  0  0  0  0  0  0  0  0
   -0.4964   28.3378  -25.0874 H   0  0  0  0  0  0  0  0  0  0  0  0
    0.4031   28.2884  -26.6415 H   0  0  0  0  0  0  0  0  0  0  0  0
   -1.3927   28.2474  -26.6415 H   0  0  0  0  0  0  0  0  0  0  0  0
   -1.0360   26.0910  -26.7870 H   0  0  0  0  0  0  0  0  0  0  0  0
   -0.7118   26.7953  -24.0174 H   0  0  0  0  0  0  0  0  0  0  0  0
   -1.9111   25.7016  -24.8134 H   0  0  0  0  0  0  0  0  0  0  0  0
    1.0163   24.9938  -24.5933 H   0  0  0  0  0  0  0  0  0  0  0  0
   -0.1764   24.6361  -23.2822 H   0  0  0  0  0  0  0  0  0  0  0  0
    0.3524   22.8811  -25.2509 H   0  0  0  0  0  0  0  0  0  0  0  0
   -1.2654   23.0239  -24.5307 H   0  0  0  0  0  0  0  0  0  0  0  0
   -2.4405   22.5269  -26.4374 H   0  0  0  0  0  0  0  0  0  0  0  0
   -7.6125   23.5626  -30.0409 H   0  0  0  0  0  0  0  0  0  0  0  0
   -8.9654   21.5539  -30.5719 H   0  0  0  0  0  0  0  0  0  0  0  0
   -8.1825   19.8689  -32.2097 H   0  0  0  0  0  0  0  0  0  0  0  0
   -5.9814   20.2115  -33.3356 H   0  0  0  0  0  0  0  0  0  0  0  0
   -4.5842   22.2103  -32.8318 H   0  0  0  0  0  0  0  0  0  0  0  0
   -3.0820   25.6750  -30.8260 H   0  0  0  0  0  0  0  0  0  0  0  0
   -0.7770   25.5280  -28.0110 H   0  0  0  0  0  0  0  0  0  0  0  0
  1  2  1  0
  2  3  1  0
  3  4  1  0
  4  5  1  0
  5  6  1  0
  6  7  2  0
  7  8  1  0
  8  9  1  0
  9 10  1  0
 10 11  2  0
 11 12  1  0
 12 13  2  0
 13 14  1  0
 14 15  2  0
 15 16  1  0
 16 17  2  0
 10 18  1  0
 18 19  1  0
 19 20  1  0
 19  8  2  0
 17 12  1  0
  1 21  1  0
  1 22  1  0
  1 23  1  0
  2 24  1  0
  3 25  1  0
  3 26  1  0
  4 27  1  0
  4 28  1  0
  5 29  1  0
  5 30  1  0
  7 31  1  0
 13 32  1  0
 14 33  1  0
 15 34  1  0
 16 35  1  0
 17 36  1  0
 18 37  1  0
 20 38  1  0
M  END
>  <smiles>  (23) 
CNCCCN=Cc1sc(=Nc2ccccc2)[nH]c1O

>  <score_type>  (23) 
oracle

>  <origin>  (23) 
adg

>  <m_score__min__energy>  (23) 
-7.5

>  <m_primary>  (23) 
energy

$$$$
23:0
     RDKit          3D

 42 43  0  0  0  0  0  0  0  0999 V2000
   -6.1970   25.3040  -29.5130 C   0  0  0  0  0  0  0  0  0  0  0  0
   -5.4230   25.2870  -30.8360 C   0  0  0  0  0  0  0  0  0  0  0  0
   -3.9980   25.2450  -30.5380 N   0  0  0  0  0  0  0  0  0  0  0  0
   -3.7040   24.2660  -29.5110 C   0  0  0  0  0  0  0  0  0  0  0  0
   -3.3860   22.9130  -30.0720 C   0  0  0  0  0  0  0  0  0  0  0  0
   -3.4700   22.8730  -31.5400 N   0  0  0  0  0  0  0  0  0  0  0  0
   -2.6140   21.8150  -32.0250 C   0  0  0  0  0  0  0  0  0  0  0  0
   -3.2330   20.8090  -32.9170 C   0  0  0  0  0  0  0  0  0  0  0  0
   -4.5580   21.1010  -33.3870 N   0  0  0  0  0  0  0  0  0  0  0  0
   -5.7330   20.3860  -33.1330 C   0  0  0  0  0  0  0  0  0  0  0  0
   -5.8540   19.0280  -33.3430 C   0  0  0  0  0  0  0  0  0  0  0  0
   -7.0130   18.3170  -33.0580 C   0  0  0  0  0  0  0  0  0  0  0  0
   -8.1230   18.9400  -32.5420 C   0  0  0  0  0  0  0  0  0  0  0  0
   -8.0220   20.3040  -32.3230 C   0  0  0  0  0  0  0  0  0  0  0  0
   -9.1420   20.9190  -31.8020 C   0  0  0  0  0  0  0  0  0  0  0  0
   -9.1690   22.2710  -31.5380 C   0  0  0  0  0  0  0  0  0  0  0  0
   -8.0270   22.9870  -31.8150 C   0  0  0  0  0  0  0  0  0  0  0  0
   -6.9000   22.3650  -32.3400 C   0  0  0  0  0  0  0  0  0  0  0  0
   -6.8720   21.0100  -32.6060 C   0  0  0  0  0  0  0  0  0  0  0  0
   -5.4873   25.2884  -28.6727 H   0  0  0  0  0  0  0  0  0  0  0  0
   -6.8099   26.2158  -29.4584 H   0  0  0  0  0  0  0  0  0  0  0  0
   -6.8493   24.4200  -29.4584 H   0  0  0  0  0  0  0  0  0  0  0  0
   -5.7062   24.3989  -31.4200 H   0  0  0  0  0  0  0  0  0  0  0  0
   -5.6588   26.1876  -31.4219 H   0  0  0  0  0  0  0  0  0  0  0  0
   -3.4620   25.0070  -31.4060 H   0  0  0  0  0  0  0  0  0  0  0  0
   -2.8395   24.6168  -28.9282 H   0  0  0  0  0  0  0  0  0  0  0  0
   -4.6029   24.1622  -28.8855 H   0  0  0  0  0  0  0  0  0  0  0  0
   -2.3645   22.6382  -29.7704 H   0  0  0  0  0  0  0  0  0  0  0  0
   -4.1308   22.2063  -29.6772 H   0  0  0  0  0  0  0  0  0  0  0  0
   -3.1370   23.8120  -31.8980 H   0  0  0  0  0  0  0  0  0  0  0  0
   -1.7861   22.2840  -32.5769 H   0  0  0  0  0  0  0  0  0  0  0  0
   -2.3126   21.2555  -31.1271 H   0  0  0  0  0  0  0  0  0  0  0  0
   -2.5828   20.6972  -33.7972 H   0  0  0  0  0  0  0  0  0  0  0  0
   -3.3336   19.8997  -32.3062 H   0  0  0  0  0  0  0  0  0  0  0  0
   -4.6170   21.9750  -33.9990 H   0  0  0  0  0  0  0  0  0  0  0  0
   -4.9924   18.4825  -33.7554 H   0  0  0  0  0  0  0  0  0  0  0  0
   -7.0423   17.2342  -33.2493 H   0  0  0  0  0  0  0  0  0  0  0  0
   -9.0447   18.3844  -32.3144 H   0  0  0  0  0  0  0  0  0  0  0  0
  -10.0365   20.3142  -31.5920 H   0  0  0  0  0  0  0  0  0  0  0  0
  -10.0647   22.7570  -31.1237 H   0  0  0  0  0  0  0  0  0  0  0  0
   -8.0055   24.0690  -31.6178 H   0  0  0  0  0  0  0  0  0  0  0  0
   -6.0050   22.9692  -32.5495 H   0  0  0  0  0  0  0  0  0  0  0  0
  1  2  1  0
  2  3  1  0
  3  4  1  0
  4  5  1  0
  5  6  1  0
  6  7  1  0
  7  8  1  0
  8  9  1  0
  9 10  1  0
 10 11  2  0
 11 12  1  0
 12 13  2  0
 13 14  1  0
 14 15  2  0
 15 16  1  0
 16 17  2  0
 17 18  1  0
 18 19  2  0
 19 10  1  0
 19 14  1  0
  1 20  1  0
  1 21  1  0
  1 22  1  0
  2 23  1  0
  2 24  1  0
  3 25  1  0
  4 26  1  0
  4 27  1  0
  5 28  1  0
  5 29  1  0
  6 30  1  0
  7 31  1  0
  7 32  1  0
  8 33  1  0
  8 34  1  0
  9 35  1  0
 11 36  1  0
 12 37  1  0
 13 38  1  0
 15 39  1  0
 16 40  1  0
 17 41  1  0
 18 42  1  0
M  END
>  <smiles>  (24) 
CCNCCNCCNc1cccc2ccccc12

>  <score_type>  (24) 
oracle

>  <origin>  (24) 
adg

>  <m_score__min__energy>  (24) 
-8.1600000000000001

>  <m_primary>  (24) 
energy

$$$$
24:0
     RDKit          3D

 56 58  0  0  1  0  0  0  0  0999 V2000
   -2.0180   19.4310  -27.0760 C   0  0  0  0  0  0  0  0  0  0  0  0
   -1.0630   20.2660  -27.7430 O   0  0  0  0  0  0  0  0  0  0  0  0
   -0.7670   21.5500  -27.2810 C   0  0  0  0  0  0  0  0  0  0  0  0
   -0.8340   21.8050  -26.0540 O   0  0  0  0  0  0  0  0  0  0  0  0
   -0.3740   22.5920  -28.2960 C   0  0  2  0  0  0  0  0  0  0  0  0
    0.5610   23.5930  -27.7160 C   0  0  0  0  0  0  0  0  0  0  0  0
    0.1110   24.9300  -27.8450 N   0  0  0  0  0  0  0  0  0  0  0  0
   -0.9280   25.4070  -28.3920 C   0  0  0  0  0  0  0  0  0  0  0  0
   -1.2410   26.7920  -28.4410 N   0  0  0  0  0  0  0  0  0  0  0  0
   -1.8320   24.4590  -28.9790 N   0  0  0  0  0  0  0  0  0  0  0  0
   -1.5430   23.2110  -28.9120 C   0  0  0  0  0  0  0  0  0  0  0  0
   -2.4940   22.3270  -29.5460 N   0  0  0  0  0  0  0  0  0  0  0  0
   -2.1400   21.6090  -30.7510 C   0  0  0  0  0  0  0  0  0  0  0  0
   -3.4090   20.9240  -31.2790 C   0  0  0  0  0  0  0  0  0  0  0  0
   -4.5350   21.9180  -31.4300 C   0  0  0  0  0  0  0  0  0  0  0  0
   -5.8290   21.3150  -31.8500 C   0  0  0  0  0  0  0  0  0  0  0  0
   -5.8600   20.0310  -32.3850 N   0  0  0  0  0  0  0  0  0  0  0  0
   -6.6200   19.0040  -31.8220 C   0  0  0  0  0  0  0  0  0  0  0  0
   -5.8970   17.6470  -31.9340 C   0  0  0  0  0  0  0  0  0  0  0  0
   -6.3770   16.9210  -33.1590 C   0  0  0  0  0  0  0  0  0  0  0  0
   -5.5580   17.4740  -34.3300 C   0  0  0  0  0  0  0  0  0  0  0  0
   -6.1310   18.8760  -34.5590 C   0  0  0  0  0  0  0  0  0  0  0  0
   -5.3970   19.8730  -33.7280 C   0  0  0  0  0  0  0  0  0  0  0  0
   -4.7770   22.5920  -30.0920 C   0  0  0  0  0  0  0  0  0  0  0  0
   -3.8280   22.1230  -29.0250 C   0  0  0  0  0  0  0  0  0  0  0  0
   -1.8990   19.5351  -25.9874 H   0  0  0  0  0  0  0  0  0  0  0  0
   -3.0352   19.7347  -27.3643 H   0  0  0  0  0  0  0  0  0  0  0  0
   -1.8528   18.3824  -27.3643 H   0  0  0  0  0  0  0  0  0  0  0  0
    0.1715   22.0814  -29.1033 H   0  0  0  0  0  0  0  0  0  0  0  0
    0.6889   23.3707  -26.6463 H   0  0  0  0  0  0  0  0  0  0  0  0
    1.5051   23.5148  -28.2750 H   0  0  0  0  0  0  0  0  0  0  0  0
   -1.1320   27.4370  -27.6360 H   0  0  0  0  0  0  0  0  0  0  0  0
   -1.6100   27.2230  -29.3350 H   0  0  0  0  0  0  0  0  0  0  0  0
   -1.7523   22.3105  -31.5044 H   0  0  0  0  0  0  0  0  0  0  0  0
   -1.3604   20.8626  -30.5386 H   0  0  0  0  0  0  0  0  0  0  0  0
   -3.1934   20.4725  -32.2586 H   0  0  0  0  0  0  0  0  0  0  0  0
   -3.7166   20.1514  -30.5590 H   0  0  0  0  0  0  0  0  0  0  0  0
   -4.2160   22.6160  -32.2180 H   0  0  0  0  0  0  0  0  0  0  0  0
   -6.4768   21.3037  -30.9610 H   0  0  0  0  0  0  0  0  0  0  0  0
   -6.1385   21.9472  -32.6953 H   0  0  0  0  0  0  0  0  0  0  0  0
   -6.7965   19.2295  -30.7599 H   0  0  0  0  0  0  0  0  0  0  0  0
   -7.5722   18.9366  -32.3686 H   0  0  0  0  0  0  0  0  0  0  0  0
   -4.8125   17.8149  -32.0091 H   0  0  0  0  0  0  0  0  0  0  0  0
   -6.1144   17.0419  -31.0415 H   0  0  0  0  0  0  0  0  0  0  0  0
   -6.2080   15.8393  -33.0523 H   0  0  0  0  0  0  0  0  0  0  0  0
   -7.4553   17.0701  -33.3174 H   0  0  0  0  0  0  0  0  0  0  0  0
   -4.4906   17.5264  -34.0694 H   0  0  0  0  0  0  0  0  0  0  0  0
   -5.6231   16.8402  -35.2267 H   0  0  0  0  0  0  0  0  0  0  0  0
   -6.0279   19.1418  -35.6214 H   0  0  0  0  0  0  0  0  0  0  0  0
   -7.1930   18.8815  -34.2725 H   0  0  0  0  0  0  0  0  0  0  0  0
   -4.3419   19.5648  -33.6863 H   0  0  0  0  0  0  0  0  0  0  0  0
   -5.5629   20.8451  -34.2154 H   0  0  0  0  0  0  0  0  0  0  0  0
   -4.6555   23.6780  -30.2182 H   0  0  0  0  0  0  0  0  0  0  0  0
   -5.7954   22.3309  -29.7684 H   0  0  0  0  0  0  0  0  0  0  0  0
   -3.9707   22.7087  -28.1049 H   0  0  0  0  0  0  0  0  0  0  0  0
   -4.0008   21.0659  -28.7745 H   0  0  0  0  0  0  0  0  0  0  0  0
  1  2  1  0
  2  3  1  0
  3  4  2  0
  3  5  1  0
  5  6  1  0
  6  7  1  0
  7  8  2  0
  8  9  1  0
  8 10  1  0
 10 11  2  0
 11 12  1  0
 12 13  1  0
 13 14  1  0
 14 15  1  0
 15 16  1  0
 16 17  1  0
 17 18  1  0
 18 19  1  0
 19 20  1  0
 20 21  1  0
 21 22  1  0
 22 23  1  0
 15 24  1  0
 24 25  1  0
 11  5  1  0
 25 12  1  0
 23 17  1  0
  1 26  1  0
  1 27  1  0
  1 28  1  0
  5 29  1  6
  6 30  1  0
  6 31  1  0
  9 32  1  0
  9 33  1  0
 13 34  1  0
 13 35  1  0
 14 36  1  0
 14 37  1  0
 15 38  1  0
 16 39  1  0
 16 40  1  0
 18 41  1  0
 18 42  1  0
 19 43  1  0
 19 44  1  0
 20 45  1  0
 20 46  1  0
 21 47  1  0
 21 48  1  0
 22 49  1  0
 22 50  1  0
 23 51  1  0
 23 52  1  0
 24 53  1  0
 24 54  1  0
 25 55  1  0
 25 56  1  0
M  END
>  <smiles>  (25) 
COC(=O)C1CN=C(N)N=C1N1CCC(CN2CCCCCC2)CC1

>  <score_type>  (25) 
oracle

>  <origin>  (25) 
adg

>  <m_score__min__energy>  (25) 
-7.0199999999999996

>  <m_primary>  (25) 
energy

$$$$
25:0
     RDKit          3D

 33 35  0  0  0  0  0  0  0  0999 V2000
   -2.4020   24.5340  -28.6520 C   0  0  0  0  0  0  0  0  0  0  0  0
   -3.1110   25.1150  -29.7160 O   0  0  0  0  0  0  0  0  0  0  0  0
   -4.2340   24.5440  -30.2940 C   0  0  0  0  0  0  0  0  0  0  0  0
   -5.4400   25.2080  -30.4240 C   0  0  0  0  0  0  0  0  0  0  0  0
   -6.4960   24.5450  -31.0160 C   0  0  0  0  0  0  0  0  0  0  0  0
   -6.3710   23.2560  -31.4710 C   0  0  0  0  0  0  0  0  0  0  0  0
   -7.4270   22.6030  -32.0590 C   0  0  0  0  0  0  0  0  0  0  0  0
   -8.6880   23.2790  -32.2020 C   0  0  0  0  0  0  0  0  0  0  0  0
   -9.7050   23.8200  -32.3370 N   0  0  0  0  0  0  0  0  0  0  0  0
   -7.2670   21.3130  -32.5040 C   0  0  0  0  0  0  0  0  0  0  0  0
   -6.0930   20.6490  -32.3840 N   0  0  0  0  0  0  0  0  0  0  0  0
   -6.0080   19.3150  -32.8690 C   0  0  0  0  0  0  0  0  0  0  0  0
   -6.1670   18.2500  -31.9830 C   0  0  0  0  0  0  0  0  0  0  0  0
   -6.0960   16.9470  -32.3860 C   0  0  0  0  0  0  0  0  0  0  0  0
   -5.8610   16.6380  -33.7080 C   0  0  0  0  0  0  0  0  0  0  0  0
   -5.7000   17.6740  -34.6060 C   0  0  0  0  0  0  0  0  0  0  0  0
   -5.7740   19.0000  -34.1890 C   0  0  0  0  0  0  0  0  0  0  0  0
   -5.0600   21.2880  -31.8080 C   0  0  0  0  0  0  0  0  0  0  0  0
   -3.9640   20.7150  -31.6780 O   0  0  0  0  0  0  0  0  0  0  0  0
   -5.1670   22.5900  -31.3420 C   0  0  0  0  0  0  0  0  0  0  0  0
   -4.1020   23.2420  -30.7520 C   0  0  0  0  0  0  0  0  0  0  0  0
   -2.8246   24.8803  -27.6973 H   0  0  0  0  0  0  0  0  0  0  0  0
   -2.4823   23.4386  -28.7127 H   0  0  0  0  0  0  0  0  0  0  0  0
   -1.3438   24.8280  -28.7127 H   0  0  0  0  0  0  0  0  0  0  0  0
   -5.5551   26.2410  -30.0638 H   0  0  0  0  0  0  0  0  0  0  0  0
   -7.4607   25.0619  -31.1258 H   0  0  0  0  0  0  0  0  0  0  0  0
   -8.1210   20.8027  -32.9734 H   0  0  0  0  0  0  0  0  0  0  0  0
   -6.3564   18.4671  -30.9214 H   0  0  0  0  0  0  0  0  0  0  0  0
   -6.2272   16.1394  -31.6508 H   0  0  0  0  0  0  0  0  0  0  0  0
   -5.8031   15.5909  -34.0399 H   0  0  0  0  0  0  0  0  0  0  0  0
   -5.5106   17.4485  -35.6659 H   0  0  0  0  0  0  0  0  0  0  0  0
   -5.6437   19.8077  -34.9243 H   0  0  0  0  0  0  0  0  0  0  0  0
   -3.1384   22.7226  -30.6443 H   0  0  0  0  0  0  0  0  0  0  0  0
  1  2  1  0
  2  3  1  0
  3  4  2  0
  4  5  1  0
  5  6  2  0
  6  7  1  0
  7  8  1  0
  8  9  3  0
  7 10  2  0
 10 11  1  0
 11 12  1  0
 12 13  2  0
 13 14  1  0
 14 15  2  0
 15 16  1  0
 16 17  2  0
 11 18  1  0
 18 19  2  0
 18 20  1  0
 20 21  2  0
 21  3  1  0
 20  6  1  0
 17 12  1  0
  1 22  1  0
  1 23  1  0
  1 24  1  0
  4 25  1  0
  5 26  1  0
 10 27  1  0
 13 28  1  0
 14 29  1  0
 15 30  1  0
 16 31  1  0
 17 32  1  0
 21 33  1  0
M  END
>  <smiles>  (26) 
COc1ccc2c(C#N)cn(-c3ccccc3)c(=O)c2c1

>  <score_type>  (26) 
oracle

>  <origin>  (26) 
adg

>  <m_score__min__energy>  (26) 
-8.1899999999999995

>  <m_primary>  (26) 
energy

$$$$
26:0
     RDKit          3D

 62 64  0  0  1  0  0  0  0  0999 V2000
   -3.0870   18.6000  -25.8390 C   0  0  0  0  0  0  0  0  0  0  0  0
   -2.7790   19.0260  -27.1280 O   0  0  0  0  0  0  0  0  0  0  0  0
   -1.5090   19.2090  -27.6460 C   0  0  0  0  0  0  0  0  0  0  0  0
   -0.5120   18.2520  -27.4650 C   0  0  0  0  0  0  0  0  0  0  0  0
    0.7530   18.4440  -27.9860 C   0  0  0  0  0  0  0  0  0  0  0  0
    1.0020   19.6180  -28.6930 C   0  0  0  0  0  0  0  0  0  0  0  0
   -0.0060   20.5600  -28.8610 C   0  0  0  0  0  0  0  0  0  0  0  0
   -1.2760   20.3820  -28.3470 C   0  0  0  0  0  0  0  0  0  0  0  0
   -2.2680   21.3760  -28.5460 N   0  0  0  0  0  0  0  0  0  0  0  0
   -2.3790   22.5470  -27.6610 C   0  0  0  0  0  0  0  0  0  0  0  0
   -2.1880   23.7310  -28.5770 C   0  0  0  0  0  0  0  0  0  0  0  0
   -3.1120   23.7370  -29.6600 N   0  0  0  0  0  0  0  0  0  0  0  0
   -4.4640   24.0170  -29.2630 C   0  0  0  0  0  0  0  0  0  0  0  0
   -4.9660   25.2740  -29.9520 C   0  0  1  0  0  0  0  0  0  0  0  0
   -4.4500   25.2640  -31.2170 O   0  0  0  0  0  0  0  0  0  0  0  0
   -6.4550   25.2060  -29.9320 C   0  0  0  0  0  0  0  0  0  0  0  0
   -7.0150   24.5040  -30.9100 O   0  0  0  0  0  0  0  0  0  0  0  0
   -6.9930   23.2730  -31.4020 C   0  0  0  0  0  0  0  0  0  0  0  0
   -8.0160   22.4000  -30.9470 C   0  0  0  0  0  0  0  0  0  0  0  0
   -8.1340   21.1160  -31.3460 C   0  0  0  0  0  0  0  0  0  0  0  0
   -7.2490   20.5630  -32.2400 C   0  0  0  0  0  0  0  0  0  0  0  0
   -7.4130   19.2080  -32.6320 N   0  0  0  0  0  0  0  0  0  0  0  0
   -8.6400   18.5220  -32.2700 C   0  0  0  0  0  0  0  0  0  0  0  0
   -6.1710   18.4130  -33.5190 S   0  0  0  0  0  0  0  0  0  0  0  0
   -6.5330   16.6810  -33.6830 C   0  0  0  0  0  0  0  0  0  0  0  0
   -4.8740   18.5780  -32.7730 O   0  0  0  0  0  0  0  0  0  0  0  0
   -6.0520   19.0300  -34.8860 O   0  0  0  0  0  0  0  0  0  0  0  0
   -6.2410   21.3670  -32.7110 C   0  0  0  0  0  0  0  0  0  0  0  0
   -6.1250   22.6960  -32.2920 C   0  0  0  0  0  0  0  0  0  0  0  0
   -2.9630   22.5580  -30.4620 C   0  0  0  0  0  0  0  0  0  0  0  0
   -3.2430   21.3270  -29.6260 C   0  0  0  0  0  0  0  0  0  0  0  0
   -2.6055   19.2660  -25.1079 H   0  0  0  0  0  0  0  0  0  0  0  0
   -4.1773   18.6249  -25.6953 H   0  0  0  0  0  0  0  0  0  0  0  0
   -2.7216   17.5725  -25.6953 H   0  0  0  0  0  0  0  0  0  0  0  0
   -0.7348   17.3341  -26.9013 H   0  0  0  0  0  0  0  0  0  0  0  0
    1.5420   17.6904  -27.8463 H   0  0  0  0  0  0  0  0  0  0  0  0
    1.9994   19.8001  -29.1196 H   0  0  0  0  0  0  0  0  0  0  0  0
    0.2151   21.4795  -29.4229 H   0  0  0  0  0  0  0  0  0  0  0  0
   -3.3691   22.5808  -27.1829 H   0  0  0  0  0  0  0  0  0  0  0  0
   -1.6422   22.5261  -26.8445 H   0  0  0  0  0  0  0  0  0  0  0  0
   -2.3224   24.6537  -27.9935 H   0  0  0  0  0  0  0  0  0  0  0  0
   -1.1755   23.6650  -29.0018 H   0  0  0  0  0  0  0  0  0  0  0  0
   -5.1070   23.1691  -29.5415 H   0  0  0  0  0  0  0  0  0  0  0  0
   -4.4928   24.1700  -28.1741 H   0  0  0  0  0  0  0  0  0  0  0  0
   -4.6570   26.2102  -29.4642 H   0  0  0  0  0  0  0  0  0  0  0  0
   -3.5160   24.9120  -31.2170 H   0  0  0  0  0  0  0  0  0  0  0  0
   -6.7593   24.7550  -28.9760 H   0  0  0  0  0  0  0  0  0  0  0  0
   -6.8029   26.2404  -30.0699 H   0  0  0  0  0  0  0  0  0  0  0  0
   -8.7527   22.7915  -30.2301 H   0  0  0  0  0  0  0  0  0  0  0  0
   -8.9542   20.5005  -30.9480 H   0  0  0  0  0  0  0  0  0  0  0  0
   -8.7242   18.4749  -31.1742 H   0  0  0  0  0  0  0  0  0  0  0  0
   -9.5011   19.0696  -32.6807 H   0  0  0  0  0  0  0  0  0  0  0  0
   -8.6245   17.5017  -32.6807 H   0  0  0  0  0  0  0  0  0  0  0  0
   -6.6273   16.2299  -32.6842 H   0  0  0  0  0  0  0  0  0  0  0  0
   -7.4771   16.5542  -34.2332 H   0  0  0  0  0  0  0  0  0  0  0  0
   -5.7188   16.1867  -34.2332 H   0  0  0  0  0  0  0  0  0  0  0  0
   -5.5137   20.9597  -33.4287 H   0  0  0  0  0  0  0  0  0  0  0  0
   -5.3016   23.3046  -32.6940 H   0  0  0  0  0  0  0  0  0  0  0  0
   -3.6714   22.5968  -31.3026 H   0  0  0  0  0  0  0  0  0  0  0  0
   -1.9332   22.5087  -30.8454 H   0  0  0  0  0  0  0  0  0  0  0  0
   -4.2667   21.3568  -29.2245 H   0  0  0  0  0  0  0  0  0  0  0  0
   -3.1625   20.4008  -30.2140 H   0  0  0  0  0  0  0  0  0  0  0  0
  1  2  1  0
  2  3  1  0
  3  4  2  0
  4  5  1  0
  5  6  2  0
  6  7  1  0
  7  8  2  0
  8  9  1  0
  9 10  1  0
 10 11  1  0
 11 12  1  0
 12 13  1  0
 13 14  1  0
 14 15  1  0
 14 16  1  0
 16 17  1  0
 17 18  1  0
 18 19  2  0
 19 20  1  0
 20 21  2  0
 21 22  1  0
 22 23  1  0
 22 24  1  0
 24 25  1  0
 24 26  2  0
 24 27  2  0
 21 28  1  0
 28 29  2  0
 12 30  1  0
 30 31  1  0
  8  3  1  0
 31  9  1  0
 29 18  1  0
  1 32  1  0
  1 33  1  0
  1 34  1  0
  4 35  1  0
  5 36  1  0
  6 37  1  0
  7 38  1  0
 10 39  1  0
 10 40  1  0
 11 41  1  0
 11 42  1  0
 13 43  1  0
 13 44  1  0
 14 45  1  1
 15 46  1  0
 16 47  1  0
 16 48  1  0
 19 49  1  0
 20 50  1  0
 23 51  1  0
 23 52  1  0
 23 53  1  0
 25 54  1  0
 25 55  1  0
 25 56  1  0
 28 57  1  0
 29 58  1  0
 30 59  1  0
 30 60  1  0
 31 61  1  0
 31 62  1  0
M  END
>  <smiles>  (27) 
COc1ccccc1N1CCN(CC(O)COc2ccc(N(C)S(C)(=O)=O)cc2)CC1

>  <score_type>  (27) 
oracle

>  <origin>  (27) 
adg

>  <m_score__min__energy>  (27) 
-9.8200000000000003

>  <m_primary>  (27) 
energy

$$$$
27:0
     RDKit          3D

 36 38  0  0  0  0  0  0  0  0999 V2000
   -4.8240   18.0820  -34.2720 C   0  0  0  0  0  0  0  0  0  0  0  0
   -5.7180   18.9260  -33.5150 N   0  0  0  0  0  0  0  0  0  0  0  0
   -5.3210   20.1960  -33.2160 C   0  0  0  0  0  0  0  0  0  0  0  0
   -4.1820   20.5690  -33.6190 O   0  0  0  0  0  0  0  0  0  0  0  0
   -6.1640   21.0210  -32.4910 C   0  0  0  0  0  0  0  0  0  0  0  0
   -5.9790   22.2740  -32.0950 N   0  0  0  0  0  0  0  0  0  0  0  0
   -7.0940   22.6580  -31.4100 C   0  0  0  0  0  0  0  0  0  0  0  0
   -7.2310   24.0020  -30.8240 C   0  0  0  0  0  0  0  0  0  0  0  0
   -6.0970   24.9250  -31.1100 C   0  0  0  0  0  0  0  0  0  0  0  0
   -4.9480   24.4270  -30.2730 C   0  0  0  0  0  0  0  0  0  0  0  0
   -4.9950   24.5210  -28.8780 C   0  0  0  0  0  0  0  0  0  0  0  0
   -3.9340   24.0580  -28.1340 C   0  0  0  0  0  0  0  0  0  0  0  0
   -2.8320   23.5070  -28.7700 C   0  0  0  0  0  0  0  0  0  0  0  0
   -2.8010   23.4220  -30.1480 C   0  0  0  0  0  0  0  0  0  0  0  0
   -3.8610   23.8850  -30.8580 N   0  0  0  0  0  0  0  0  0  0  0  0
   -7.9620   21.6130  -31.3960 N   0  0  0  0  0  0  0  0  0  0  0  0
   -7.4070   20.5860  -32.0600 C   0  0  0  0  0  0  0  0  0  0  0  0
   -7.7490   19.3280  -32.3830 N   0  0  0  0  0  0  0  0  0  0  0  0
   -9.0410   18.8250  -31.9560 C   0  0  0  0  0  0  0  0  0  0  0  0
   -6.9310   18.5320  -33.0840 C   0  0  0  0  0  0  0  0  0  0  0  0
   -7.2650   17.3400  -33.3840 O   0  0  0  0  0  0  0  0  0  0  0  0
   -4.2016   17.4944  -33.5811 H   0  0  0  0  0  0  0  0  0  0  0  0
   -5.4112   17.4012  -34.9058 H   0  0  0  0  0  0  0  0  0  0  0  0
   -4.1781   18.7074  -34.9058 H   0  0  0  0  0  0  0  0  0  0  0  0
   -5.1330   22.8580  -32.2750 H   0  0  0  0  0  0  0  0  0  0  0  0
   -8.1509   24.4564  -31.2206 H   0  0  0  0  0  0  0  0  0  0  0  0
   -7.2515   23.8643  -29.7328 H   0  0  0  0  0  0  0  0  0  0  0  0
   -5.8360   24.8931  -32.1781 H   0  0  0  0  0  0  0  0  0  0  0  0
   -6.3516   25.9683  -30.8720 H   0  0  0  0  0  0  0  0  0  0  0  0
   -5.8719   24.9609  -28.3805 H   0  0  0  0  0  0  0  0  0  0  0  0
   -3.9601   24.1249  -27.0363 H   0  0  0  0  0  0  0  0  0  0  0  0
   -1.9824   23.1376  -28.1769 H   0  0  0  0  0  0  0  0  0  0  0  0
   -1.9315   22.9862  -30.6618 H   0  0  0  0  0  0  0  0  0  0  0  0
   -9.0831   18.8086  -30.8569 H   0  0  0  0  0  0  0  0  0  0  0  0
   -9.8356   19.4795  -32.3437 H   0  0  0  0  0  0  0  0  0  0  0  0
   -9.1839   17.8055  -32.3437 H   0  0  0  0  0  0  0  0  0  0  0  0
  1  2  1  0
  2  3  1  0
  3  4  2  0
  3  5  1  0
  5  6  1  0
  6  7  1  0
  7  8  1  0
  8  9  1  0
  9 10  1  0
 10 11  2  0
 11 12  1  0
 12 13  2  0
 13 14  1  0
 14 15  2  0
  7 16  2  0
 16 17  1  0
 17 18  1  0
 18 19  1  0
 18 20  1  0
 20 21  2  0
 20  2  1  0
 17  5  2  0
 15 10  1  0
  1 22  1  0
  1 23  1  0
  1 24  1  0
  6 25  1  0
  8 26  1  0
  8 27  1  0
  9 28  1  0
  9 29  1  0
 11 30  1  0
 12 31  1  0
 13 32  1  0
 14 33  1  0
 19 34  1  0
 19 35  1  0
 19 36  1  0
M  END
>  <smiles>  (28) 
Cn1c(=O)c2[nH]c(CCc3ccccn3)nc2n(C)c1=O

>  <score_type>  (28) 
oracle

>  <origin>  (28) 
adg

>  <m_score__min__energy>  (28) 
-7.1100000000000003

>  <m_primary>  (28) 
energy

$$$$
28:0
     RDKit          3D

 52 54  0  0  0  0  0  0  0  0999 V2000
   -3.4230   21.5350  -33.0900 C   0  0  0  0  0  0  0  0  0  0  0  0
   -4.7670   20.9170  -33.2220 C   0  0  0  0  0  0  0  0  0  0  0  0
   -4.8120   19.5610  -33.5990 N   0  0  0  0  0  0  0  0  0  0  0  0
   -3.7370   18.7840  -33.1510 C   0  0  0  0  0  0  0  0  0  0  0  0
   -3.1520   17.8710  -34.1860 C   0  0  0  0  0  0  0  0  0  0  0  0
   -5.9510   19.0140  -34.1870 C   0  0  0  0  0  0  0  0  0  0  0  0
   -6.6640   17.9380  -33.4530 C   0  0  0  0  0  0  0  0  0  0  0  0
   -7.9220   18.3110  -32.2950 S   0  0  0  0  0  0  0  0  0  0  0  0
   -8.1960   20.0180  -31.9920 C   0  0  0  0  0  0  0  0  0  0  0  0
   -9.3090   20.7400  -32.3360 C   0  0  0  0  0  0  0  0  0  0  0  0
   -9.4760   22.0740  -32.0690 C   0  0  0  0  0  0  0  0  0  0  0  0
   -8.4330   22.7080  -31.4070 C   0  0  0  0  0  0  0  0  0  0  0  0
   -7.3060   22.0170  -31.0490 C   0  0  0  0  0  0  0  0  0  0  0  0
   -6.2020   22.6490  -30.3410 C   0  0  0  0  0  0  0  0  0  0  0  0
   -6.3620   23.9170  -29.8180 C   0  0  0  0  0  0  0  0  0  0  0  0
   -5.3250   24.5480  -29.1410 C   0  0  0  0  0  0  0  0  0  0  0  0
   -4.0990   23.9220  -28.9700 C   0  0  0  0  0  0  0  0  0  0  0  0
   -2.9700   24.5480  -28.2960 C   0  0  0  0  0  0  0  0  0  0  0  0
   -1.7930   24.8690  -28.9330 C   0  0  0  0  0  0  0  0  0  0  0  0
   -0.7810   25.4930  -28.2160 C   0  0  0  0  0  0  0  0  0  0  0  0
   -0.9310   25.7920  -26.8930 C   0  0  0  0  0  0  0  0  0  0  0  0
   -2.1180   25.4680  -26.2450 C   0  0  0  0  0  0  0  0  0  0  0  0
   -3.1580   24.8390  -26.9400 C   0  0  0  0  0  0  0  0  0  0  0  0
   -3.9300   22.6610  -29.4850 C   0  0  0  0  0  0  0  0  0  0  0  0
   -4.9760   22.0510  -30.1570 C   0  0  0  0  0  0  0  0  0  0  0  0
   -7.2110   20.7100  -31.3430 N   0  0  0  0  0  0  0  0  0  0  0  0
   -3.1749   21.6491  -32.0244 H   0  0  0  0  0  0  0  0  0  0  0  0
   -2.6741   20.8908  -33.5739 H   0  0  0  0  0  0  0  0  0  0  0  0
   -3.4245   22.5228  -33.5739 H   0  0  0  0  0  0  0  0  0  0  0  0
   -5.2713   21.0079  -32.2486 H   0  0  0  0  0  0  0  0  0  0  0  0
   -5.2515   21.4595  -34.0472 H   0  0  0  0  0  0  0  0  0  0  0  0
   -2.9438   19.4630  -32.8049 H   0  0  0  0  0  0  0  0  0  0  0  0
   -4.1311   18.1379  -32.3527 H   0  0  0  0  0  0  0  0  0  0  0  0
   -2.6226   17.0448  -33.6890 H   0  0  0  0  0  0  0  0  0  0  0  0
   -3.9583   17.4646  -34.8143 H   0  0  0  0  0  0  0  0  0  0  0  0
   -2.4458   18.4337  -34.8143 H   0  0  0  0  0  0  0  0  0  0  0  0
   -6.6666   19.8351  -34.3408 H   0  0  0  0  0  0  0  0  0  0  0  0
   -5.5819   18.5261  -35.1012 H   0  0  0  0  0  0  0  0  0  0  0  0
   -7.1236   17.2921  -34.2156 H   0  0  0  0  0  0  0  0  0  0  0  0
   -5.8715   17.5149  -32.8183 H   0  0  0  0  0  0  0  0  0  0  0  0
  -10.1209   20.2148  -32.8604 H   0  0  0  0  0  0  0  0  0  0  0  0
  -10.3881   22.6138  -32.3636 H   0  0  0  0  0  0  0  0  0  0  0  0
   -8.5129   23.7785  -31.1671 H   0  0  0  0  0  0  0  0  0  0  0  0
   -7.3246   24.4354  -29.9390 H   0  0  0  0  0  0  0  0  0  0  0  0
   -5.4788   25.5586  -28.7348 H   0  0  0  0  0  0  0  0  0  0  0  0
   -1.6556   24.6337  -29.9987 H   0  0  0  0  0  0  0  0  0  0  0  0
    0.1598   25.7513  -28.7241 H   0  0  0  0  0  0  0  0  0  0  0  0
   -0.1174   26.2866  -26.3421 H   0  0  0  0  0  0  0  0  0  0  0  0
   -2.2408   25.7077  -25.1785 H   0  0  0  0  0  0  0  0  0  0  0  0
   -4.0992   24.5800  -26.4330 H   0  0  0  0  0  0  0  0  0  0  0  0
   -2.9697   22.1382  -29.3647 H   0  0  0  0  0  0  0  0  0  0  0  0
   -4.8197   21.0407  -30.5630 H   0  0  0  0  0  0  0  0  0  0  0  0
  1  2  1  0
  2  3  1  0
  3  4  1  0
  4  5  1  0
  3  6  1  0
  6  7  1  0
  7  8  1  0
  8  9  1  0
  9 10  2  0
 10 11  1  0
 11 12  2  0
 12 13  1  0
 13 14  1  0
 14 15  2  0
 15 16  1  0
 16 17  2  0
 17 18  1  0
 18 19  2  0
 19 20  1  0
 20 21  2  0
 21 22  1  0
 22 23  2  0
 17 24  1  0
 24 25  2  0
 13 26  2  0
 26  9  1  0
 25 14  1  0
 23 18  1  0
  1 27  1  0
  1 28  1  0
  1 29  1  0
  2 30  1  0
  2 31  1  0
  4 32  1  0
  4 33  1  0
  5 34  1  0
  5 35  1  0
  5 36  1  0
  6 37  1  0
  6 38  1  0
  7 39  1  0
  7 40  1  0
 10 41  1  0
 11 42  1  0
 12 43  1  0
 15 44  1  0
 16 45  1  0
 19 46  1  0
 20 47  1  0
 21 48  1  0
 22 49  1  0
 23 50  1  0
 24 51  1  0
 25 52  1  0
M  END
>  <smiles>  (29) 
CCN(CC)CCSc1cccc(-c2ccc(-c3ccccc3)cc2)n1

>  <score_type>  (29) 
oracle

>  <origin>  (29) 
adg

>  <m_score__min__energy>  (29) 
-8.5700000000000003

>  <m_primary>  (29) 
energy

$$$$
29:0
     RDKit          3D

 47 49  0  0  1  0  0  0  0  0999 V2000
    0.5720   23.1280  -26.0700 C   0  0  0  0  0  0  0  0  0  0  0  0
   -0.5770   23.4370  -26.9950 C   0  0  0  0  0  0  0  0  0  0  0  0
   -1.6000   22.5240  -27.0800 C   0  0  0  0  0  0  0  0  0  0  0  0
   -2.6500   22.8000  -27.9220 C   0  0  0  0  0  0  0  0  0  0  0  0
   -2.7240   23.9510  -28.6860 C   0  0  0  0  0  0  0  0  0  0  0  0
   -3.8800   24.1410  -29.5430 C   0  0  0  0  0  0  0  0  0  0  0  0
   -5.1570   23.6390  -29.4570 C   0  0  0  0  0  0  0  0  0  0  0  0
   -5.8800   24.1060  -30.4920 N   0  0  0  0  0  0  0  0  0  0  0  0
   -7.2940   23.8290  -30.8020 C   0  0  0  0  0  0  0  0  0  0  0  0
   -7.3740   23.1760  -32.1000 C   0  0  0  0  0  0  0  0  0  0  0  0
   -7.7740   21.9170  -32.3290 C   0  0  0  0  0  0  0  0  0  0  0  0
   -7.3640   20.7460  -31.5710 C   0  0  0  0  0  0  0  0  0  0  0  0
   -6.0690   20.2440  -31.9280 N   0  0  0  0  0  0  0  0  0  0  0  0
   -4.7920   20.7680  -31.5650 C   0  0  0  0  0  0  0  0  0  0  0  0
   -3.9490   21.3550  -32.6510 C   0  0  0  0  0  0  0  0  0  0  0  0
   -4.2930   22.6120  -33.0050 F   0  0  0  0  0  0  0  0  0  0  0  0
   -6.0870   19.0340  -32.7320 C   0  0  0  0  0  0  0  0  0  0  0  0
   -6.0380   19.0680  -34.1100 C   0  0  0  0  0  0  0  0  0  0  0  0
   -6.0530   17.9110  -34.8290 N   0  0  0  0  0  0  0  0  0  0  0  0
   -6.1190   16.7160  -34.2280 C   0  0  0  0  0  0  0  0  0  0  0  0
   -6.1680   16.7100  -32.8530 C   0  0  0  0  0  0  0  0  0  0  0  0
   -6.1520   17.8290  -32.1370 N   0  0  0  0  0  0  0  0  0  0  0  0
   -5.0670   24.8860  -31.2110 N   0  0  0  0  0  0  0  0  0  0  0  0
   -3.8620   24.9180  -30.6570 N   0  0  0  0  0  0  0  0  0  0  0  0
   -1.6850   24.8570  -28.5870 C   0  0  0  0  0  0  0  0  0  0  0  0
   -0.6340   24.5810  -27.7430 C   0  0  0  0  0  0  0  0  0  0  0  0
    0.2368   23.2181  -25.0262 H   0  0  0  0  0  0  0  0  0  0  0  0
    0.9256   22.1028  -26.2543 H   0  0  0  0  0  0  0  0  0  0  0  0
    1.3921   23.8375  -26.2543 H   0  0  0  0  0  0  0  0  0  0  0  0
   -1.5790   21.5963  -26.4894 H   0  0  0  0  0  0  0  0  0  0  0  0
   -3.4709   22.0711  -27.9920 H   0  0  0  0  0  0  0  0  0  0  0  0
   -5.5276   22.9653  -28.6704 H   0  0  0  0  0  0  0  0  0  0  0  0
   -7.7187   23.1699  -30.0305 H   0  0  0  0  0  0  0  0  0  0  0  0
   -7.8617   24.7709  -30.8236 H   0  0  0  0  0  0  0  0  0  0  0  0
   -7.0783   23.7717  -32.9762 H   0  0  0  0  0  0  0  0  0  0  0  0
   -8.4731   21.7560  -33.1628 H   0  0  0  0  0  0  0  0  0  0  0  0
   -7.3496   21.0124  -30.5038 H   0  0  0  0  0  0  0  0  0  0  0  0
   -8.0879   19.9498  -31.7991 H   0  0  0  0  0  0  0  0  0  0  0  0
   -4.9608   21.5568  -30.8171 H   0  0  0  0  0  0  0  0  0  0  0  0
   -4.2231   19.8955  -31.2114 H   0  0  0  0  0  0  0  0  0  0  0  0
   -2.9043   21.3679  -32.3069 H   0  0  0  0  0  0  0  0  0  0  0  0
   -4.0990   20.7256  -33.5406 H   0  0  0  0  0  0  0  0  0  0  0  0
   -5.9865   20.0351  -34.6315 H   0  0  0  0  0  0  0  0  0  0  0  0
   -6.1334   15.7812  -34.8076 H   0  0  0  0  0  0  0  0  0  0  0  0
   -6.2223   15.7448  -32.3281 H   0  0  0  0  0  0  0  0  0  0  0  0
   -1.6981   25.7864  -29.1752 H   0  0  0  0  0  0  0  0  0  0  0  0
    0.1897   25.3060  -27.6670 H   0  0  0  0  0  0  0  0  0  0  0  0
  1  2  1  0
  2  3  2  0
  3  4  1  0
  4  5  2  0
  5  6  1  0
  6  7  2  0
  7  8  1  0
  8  9  1  0
  9 10  1  0
 10 11  2  0
 11 12  1  0
 12 13  1  0
 13 14  1  0
 14 15  1  0
 15 16  1  0
 13 17  1  0
 17 18  2  0
 18 19  1  0
 19 20  2  0
 20 21  1  0
 21 22  2  0
  8 23  1  0
 23 24  2  0
  5 25  1  0
 25 26  2  0
 26  2  1  0
 24  6  1  0
 22 17  1  0
  1 27  1  0
  1 28  1  0
  1 29  1  0
  3 30  1  0
  4 31  1  0
  7 32  1  0
  9 33  1  0
  9 34  1  0
 10 35  1  0
 11 36  1  0
 12 37  1  0
 12 38  1  0
 14 39  1  0
 14 40  1  0
 15 41  1  0
 15 42  1  0
 18 43  1  0
 20 44  1  0
 21 45  1  0
 25 46  1  0
 26 47  1  0
M  END
>  <smiles>  (30) 
Cc1ccc(-c2cn(CC=CCN(CCF)c3cnccn3)nn2)cc1

>  <score_type>  (30) 
oracle

>  <origin>  (30) 
adg

>  <m_score__min__energy>  (30) 
-8.0700000000000003

>  <m_primary>  (30) 
energy

$$$$
30:0
     RDKit          3D

 47 49  0  0  0  0  0  0  0  0999 V2000
   -0.3830   21.9000  -30.3880 C   0  0  0  0  0  0  0  0  0  0  0  0
   -1.1090   23.0290  -29.9290 O   0  0  0  0  0  0  0  0  0  0  0  0
   -2.5040   23.0080  -29.9510 C   0  0  0  0  0  0  0  0  0  0  0  0
   -3.2140   21.8720  -30.2680 C   0  0  0  0  0  0  0  0  0  0  0  0
   -4.5930   21.8770  -30.2830 C   0  0  0  0  0  0  0  0  0  0  0  0
   -5.3170   23.0100  -29.9820 C   0  0  0  0  0  0  0  0  0  0  0  0
   -6.8020   23.0560  -29.9870 C   0  0  0  0  0  0  0  0  0  0  0  0
   -7.2830   23.2420  -31.3170 N   0  0  0  0  0  0  0  0  0  0  0  0
   -8.7060   23.0390  -31.4490 C   0  0  0  0  0  0  0  0  0  0  0  0
   -8.9620   21.5560  -31.5240 C   0  0  0  0  0  0  0  0  0  0  0  0
   -8.3020   20.9730  -32.6870 N   0  0  0  0  0  0  0  0  0  0  0  0
   -8.6770   19.5950  -32.7310 C   0  0  0  0  0  0  0  0  0  0  0  0
   -7.5760   18.6580  -32.5080 C   0  0  0  0  0  0  0  0  0  0  0  0
   -7.1700   18.0420  -31.3380 C   0  0  0  0  0  0  0  0  0  0  0  0
   -6.1290   17.2160  -31.3690 C   0  0  0  0  0  0  0  0  0  0  0  0
   -5.4930   17.0060  -32.5740 C   0  0  0  0  0  0  0  0  0  0  0  0
   -6.4690   18.0760  -33.7350 S   0  0  0  0  0  0  0  0  0  0  0  0
   -6.8690   21.1600  -32.5590 C   0  0  0  0  0  0  0  0  0  0  0  0
   -6.5490   22.6120  -32.3580 C   0  0  0  0  0  0  0  0  0  0  0  0
   -4.5830   24.1440  -29.6650 C   0  0  0  0  0  0  0  0  0  0  0  0
   -3.2030   24.1580  -29.6450 C   0  0  0  0  0  0  0  0  0  0  0  0
   -2.4700   25.2900  -29.3280 O   0  0  0  0  0  0  0  0  0  0  0  0
   -1.6910   25.3570  -28.1660 C   0  0  0  0  0  0  0  0  0  0  0  0
   -0.0139   21.3259  -29.5253 H   0  0  0  0  0  0  0  0  0  0  0  0
   -1.0415   21.2635  -30.9973 H   0  0  0  0  0  0  0  0  0  0  0  0
    0.4693   22.2351  -30.9973 H   0  0  0  0  0  0  0  0  0  0  0  0
   -2.6731   20.9461  -30.5131 H   0  0  0  0  0  0  0  0  0  0  0  0
   -5.1291   20.9521  -30.5421 H   0  0  0  0  0  0  0  0  0  0  0  0
   -7.1965   22.1105  -29.5865 H   0  0  0  0  0  0  0  0  0  0  0  0
   -7.1379   23.8967  -29.3622 H   0  0  0  0  0  0  0  0  0  0  0  0
   -9.2257   23.4635  -30.5774 H   0  0  0  0  0  0  0  0  0  0  0  0
   -9.0796   23.5367  -32.3561 H   0  0  0  0  0  0  0  0  0  0  0  0
   -8.5752   21.0770  -30.6124 H   0  0  0  0  0  0  0  0  0  0  0  0
  -10.0457   21.3901  -31.6144 H   0  0  0  0  0  0  0  0  0  0  0  0
   -9.4379   19.4214  -31.9559 H   0  0  0  0  0  0  0  0  0  0  0  0
   -9.0477   19.4046  -33.7490 H   0  0  0  0  0  0  0  0  0  0  0  0
   -7.7017   18.2332  -30.3942 H   0  0  0  0  0  0  0  0  0  0  0  0
   -5.7831   16.7118  -30.4546 H   0  0  0  0  0  0  0  0  0  0  0  0
   -4.6257   16.3657  -32.7924 H   0  0  0  0  0  0  0  0  0  0  0  0
   -6.5038   20.5850  -31.6953 H   0  0  0  0  0  0  0  0  0  0  0  0
   -6.3789   20.8098  -33.4794 H   0  0  0  0  0  0  0  0  0  0  0  0
   -5.4779   22.6977  -32.1227 H   0  0  0  0  0  0  0  0  0  0  0  0
   -6.8289   23.1244  -33.2903 H   0  0  0  0  0  0  0  0  0  0  0  0
   -5.1233   25.0702  -29.4195 H   0  0  0  0  0  0  0  0  0  0  0  0
   -2.3443   25.3008  -27.2828 H   0  0  0  0  0  0  0  0  0  0  0  0
   -0.9815   24.5166  -28.1513 H   0  0  0  0  0  0  0  0  0  0  0  0
   -1.1354   26.3062  -28.1513 H   0  0  0  0  0  0  0  0  0  0  0  0
  1  2  1  0
  2  3  1  0
  3  4  2  0
  4  5  1  0
  5  6  2  0
  6  7  1  0
  7  8  1  0
  8  9  1  0
  9 10  1  0
 10 11  1  0
 11 12  1  0
 12 13  1  0
 13 14  2  0
 14 15  1  0
 15 16  2  0
 16 17  1  0
 11 18  1  0
 18 19  1  0
  6 20  1  0
 20 21  2  0
 21 22  1  0
 22 23  1  0
 21  3  1  0
 19  8  1  0
 17 13  1  0
  1 24  1  0
  1 25  1  0
  1 26  1  0
  4 27  1  0
  5 28  1  0
  7 29  1  0
  7 30  1  0
  9 31  1  0
  9 32  1  0
 10 33  1  0
 10 34  1  0
 12 35  1  0
 12 36  1  0
 14 37  1  0
 15 38  1  0
 16 39  1  0
 18 40  1  0
 18 41  1  0
 19 42  1  0
 19 43  1  0
 20 44  1  0
 23 45  1  0
 23 46  1  0
 23 47  1  0
M  END
>  <smiles>  (31) 
COc1ccc(CN2CCN(Cc3cccs3)CC2)cc1OC

>  <score_type>  (31) 
oracle

>  <origin>  (31) 
adg

>  <m_score__min__energy>  (31) 
-8.5899999999999999

>  <m_primary>  (31) 
energy

$$$$
31:0
     RDKit          3D

 88 93  0  0  1  0  0  0  0  0999 V2000
    0.4390   26.5390  -24.8640 C   0  0  0  0  0  0  0  0  0  0  0  0
   -0.6070   25.5930  -25.1400 N   0  0  0  0  0  0  0  0  0  0  0  0
   -0.5720   24.3820  -24.4230 C   0  0  0  0  0  0  0  0  0  0  0  0
   -0.4860   23.1000  -25.1540 C   0  0  0  0  0  0  0  0  0  0  0  0
   -0.3090   23.1390  -26.5690 N   0  0  0  0  0  0  0  0  0  0  0  0
   -0.3240   22.0800  -27.4710 C   0  0  0  0  0  0  0  0  0  0  0  0
    0.8290   21.4970  -27.6790 O   0  0  0  0  0  0  0  0  0  0  0  0
   -1.4170   21.4980  -28.2340 C   0  0  2  0  0  0  0  0  0  0  0  0
   -0.9040   20.7810  -29.4700 C   0  0  0  0  0  0  0  0  0  0  0  0
   -1.9410   20.3440  -30.4350 C   0  0  0  0  0  0  0  0  0  0  0  0
   -2.5710   21.5890  -31.0290 C   0  0  2  0  0  0  0  0  0  0  0  0
   -1.6240   21.8740  -32.2170 C   0  0  0  0  0  0  0  0  0  0  0  0
   -2.3640   22.7360  -30.1000 C   0  0  1  0  0  0  0  0  0  0  0  0
   -3.2740   23.9130  -30.4730 C   0  0  0  0  0  0  0  0  0  0  0  0
   -4.6980   23.5000  -30.3770 C   0  0  0  0  0  0  0  0  0  0  0  0
   -5.0070   22.0980  -30.7440 C   0  0  1  0  0  0  0  0  0  0  0  0
   -6.4000   21.9180  -31.2580 C   0  0  2  0  0  0  0  0  0  0  0  0
   -6.8520   22.8230  -32.3310 C   0  0  0  0  0  0  0  0  0  0  0  0
   -7.2400   22.3140  -30.0160 C   0  0  0  0  0  0  0  0  0  0  0  0
   -8.6910   22.0100  -30.2150 C   0  0  0  0  0  0  0  0  0  0  0  0
   -8.9480   21.3620  -31.5260 C   0  0  0  0  0  0  0  0  0  0  0  0
   -9.8600   21.7410  -32.2270 O   0  0  0  0  0  0  0  0  0  0  0  0
   -8.0950   20.2350  -32.0100 C   0  0  0  0  0  0  0  0  0  0  0  0
   -8.7110   19.0010  -31.3280 C   0  0  0  0  0  0  0  0  0  0  0  0
   -8.2930   20.0420  -33.4670 C   0  0  0  0  0  0  0  0  0  0  0  0
   -6.7270   20.4530  -31.4970 C   0  0  1  0  0  0  0  0  0  0  0  0
   -5.6550   19.6830  -32.2010 C   0  0  0  0  0  0  0  0  0  0  0  0
   -4.3340   19.9440  -31.5090 C   0  0  0  0  0  0  0  0  0  0  0  0
   -3.9430   21.4120  -31.5720 C   0  0  2  0  0  0  0  0  0  0  0  0
   -4.0110   21.8320  -33.0250 C   0  0  0  0  0  0  0  0  0  0  0  0
   -2.4950   22.5320  -28.6470 C   0  0  1  0  0  0  0  0  0  0  0  0
   -2.8070   21.3370  -27.9100 C   0  0  0  0  0  0  0  0  0  0  0  0
   -0.0680   24.4890  -27.1470 C   0  0  0  0  0  0  0  0  0  0  0  0
   -0.9830   25.4810  -26.5180 C   0  0  0  0  0  0  0  0  0  0  0  0
   -0.8880   26.7990  -27.2090 C   0  0  0  0  0  0  0  0  0  0  0  0
   -2.4410   25.0520  -26.5620 C   0  0  0  0  0  0  0  0  0  0  0  0
    0.5582   26.6468  -23.7758 H   0  0  0  0  0  0  0  0  0  0  0  0
    1.3822   26.1810  -25.3025 H   0  0  0  0  0  0  0  0  0  0  0  0
    0.1773   27.5133  -25.3025 H   0  0  0  0  0  0  0  0  0  0  0  0
    0.3035   24.4298  -23.7588 H   0  0  0  0  0  0  0  0  0  0  0  0
   -1.5620   24.3385  -23.9455 H   0  0  0  0  0  0  0  0  0  0  0  0
    0.3644   22.5424  -24.7346 H   0  0  0  0  0  0  0  0  0  0  0  0
   -1.4768   22.6422  -25.0168 H   0  0  0  0  0  0  0  0  0  0  0  0
   -0.2182   21.4617  -29.9957 H   0  0  0  0  0  0  0  0  0  0  0  0
   -0.4252   19.8600  -29.1060 H   0  0  0  0  0  0  0  0  0  0  0  0
   -1.4813   19.7402  -31.2313 H   0  0  0  0  0  0  0  0  0  0  0  0
   -2.7019   19.7296  -29.9314 H   0  0  0  0  0  0  0  0  0  0  0  0
   -0.6361   22.1713  -31.8353 H   0  0  0  0  0  0  0  0  0  0  0  0
   -1.5222   20.9667  -32.8306 H   0  0  0  0  0  0  0  0  0  0  0  0
   -2.0398   22.6868  -32.8306 H   0  0  0  0  0  0  0  0  0  0  0  0
   -1.2909   22.9198  -30.2567 H   0  0  0  0  0  0  0  0  0  0  0  0
   -3.0894   24.7498  -29.7833 H   0  0  0  0  0  0  0  0  0  0  0  0
   -3.0562   24.2270  -31.5045 H   0  0  0  0  0  0  0  0  0  0  0  0
   -5.0203   23.6516  -29.3363 H   0  0  0  0  0  0  0  0  0  0  0  0
   -5.2302   24.1178  -31.1153 H   0  0  0  0  0  0  0  0  0  0  0  0
   -4.9782   21.5472  -29.7922 H   0  0  0  0  0  0  0  0  0  0  0  0
   -7.3016   23.7231  -31.8864 H   0  0  0  0  0  0  0  0  0  0  0  0
   -5.9923   23.1118  -32.9535 H   0  0  0  0  0  0  0  0  0  0  0  0
   -7.5993   22.3092  -32.9535 H   0  0  0  0  0  0  0  0  0  0  0  0
   -6.8738   21.7532  -29.1434 H   0  0  0  0  0  0  0  0  0  0  0  0
   -7.1331   23.3974  -29.8586 H   0  0  0  0  0  0  0  0  0  0  0  0
   -9.0258   21.3352  -29.4134 H   0  0  0  0  0  0  0  0  0  0  0  0
   -9.2440   22.9606  -30.1912 H   0  0  0  0  0  0  0  0  0  0  0  0
   -8.6525   19.1182  -30.2358 H   0  0  0  0  0  0  0  0  0  0  0  0
   -9.7640   18.9024  -31.6303 H   0  0  0  0  0  0  0  0  0  0  0  0
   -8.1569   18.1001  -31.6303 H   0  0  0  0  0  0  0  0  0  0  0  0
   -9.0716   19.2831  -33.6339 H   0  0  0  0  0  0  0  0  0  0  0  0
   -8.6041   20.9930  -33.9239 H   0  0  0  0  0  0  0  0  0  0  0  0
   -7.3502   19.7067  -33.9239 H   0  0  0  0  0  0  0  0  0  0  0  0
   -6.7356   19.9963  -30.4963 H   0  0  0  0  0  0  0  0  0  0  0  0
   -5.8862   18.6082  -32.1636 H   0  0  0  0  0  0  0  0  0  0  0  0
   -5.5957   20.0000  -33.2527 H   0  0  0  0  0  0  0  0  0  0  0  0
   -4.4192   19.6433  -30.4543 H   0  0  0  0  0  0  0  0  0  0  0  0
   -3.5570   19.3611  -32.0252 H   0  0  0  0  0  0  0  0  0  0  0  0
   -4.1865   22.9162  -33.0854 H   0  0  0  0  0  0  0  0  0  0  0  0
   -3.0613   21.5860  -33.5226 H   0  0  0  0  0  0  0  0  0  0  0  0
   -4.8345   21.2989  -33.5226 H   0  0  0  0  0  0  0  0  0  0  0  0
   -2.9146   23.5372  -28.4936 H   0  0  0  0  0  0  0  0  0  0  0  0
   -3.1251   21.4235  -26.8606 H   0  0  0  0  0  0  0  0  0  0  0  0
   -3.5231   20.5201  -28.0827 H   0  0  0  0  0  0  0  0  0  0  0  0
    0.9748   24.7849  -26.9598 H   0  0  0  0  0  0  0  0  0  0  0  0
   -0.2574   24.4580  -28.2301 H   0  0  0  0  0  0  0  0  0  0  0  0
   -0.8301   27.6024  -26.4599 H   0  0  0  0  0  0  0  0  0  0  0  0
    0.0139   26.8188  -27.8384 H   0  0  0  0  0  0  0  0  0  0  0  0
   -1.7777   26.9480  -27.8384 H   0  0  0  0  0  0  0  0  0  0  0  0
   -2.8214   24.9401  -25.5360 H   0  0  0  0  0  0  0  0  0  0  0  0
   -3.0317   25.8144  -27.0909 H   0  0  0  0  0  0  0  0  0  0  0  0
   -2.5247   24.0912  -27.0909 H   0  0  0  0  0  0  0  0  0  0  0  0
  1  2  1  0
  2  3  1  0
  3  4  1  0
  4  5  1  0
  5  6  1  0
  6  7  2  0
  8  6  1  1
  8  9  1  0
  9 10  1  0
 10 11  1  0
 11 12  1  6
 11 13  1  0
 13 14  1  0
 14 15  1  0
 15 16  1  0
 16 17  1  0
 17 18  1  6
 17 19  1  0
 19 20  1  0
 20 21  1  0
 21 22  2  0
 21 23  1  0
 23 24  1  0
 23 25  1  0
 23 26  1  0
 26 27  1  0
 27 28  1  0
 28 29  1  0
 29 30  1  6
 13 31  1  0
 31 32  1  0
  5 33  1  0
 33 34  1  0
 34 35  1  0
 34 36  1  0
 34  2  1  0
 31  8  1  0
 32  8  1  0
 29 11  1  0
 29 16  1  0
 26 17  1  0
  1 37  1  0
  1 38  1  0
  1 39  1  0
  3 40  1  0
  3 41  1  0
  4 42  1  0
  4 43  1  0
  9 44  1  0
  9 45  1  0
 10 46  1  0
 10 47  1  0
 12 48  1  0
 12 49  1  0
 12 50  1  0
 13 51  1  1
 14 52  1  0
 14 53  1  0
 15 54  1  0
 15 55  1  0
 16 56  1  1
 18 57  1  0
 18 58  1  0
 18 59  1  0
 19 60  1  0
 19 61  1  0
 20 62  1  0
 20 63  1  0
 24 64  1  0
 24 65  1  0
 24 66  1  0
 25 67  1  0
 25 68  1  0
 25 69  1  0
 26 70  1  1
 27 71  1  0
 27 72  1  0
 28 73  1  0
 28 74  1  0
 30 75  1  0
 30 76  1  0
 30 77  1  0
 31 78  1  1
 32 79  1  0
 32 80  1  0
 33 81  1  0
 33 82  1  0
 35 83  1  0
 35 84  1  0
 35 85  1  0
 36 86  1  0
 36 87  1  0
 36 88  1  0
M  END
>  <smiles>  (32) 
CN1CCN(C(=O)C23CCC4(C)C(CCC5C6(C)CCC(=O)C(C)(C)C6CCC54C)C2C3)CC1(C)C

>  <score_type>  (32) 
oracle

>  <origin>  (32) 
adg

>  <m_score__min__energy>  (32) 
-11.65

>  <m_primary>  (32) 
energy

$$$$
32:0
     RDKit          3D

 38 41  0  0  0  0  0  0  0  0999 V2000
   -9.5990   21.5490  -30.9470 C   0  0  0  0  0  0  0  0  0  0  0  0
   -8.4440   21.8210  -31.7730 N   0  0  0  0  0  0  0  0  0  0  0  0
   -8.0550   23.2030  -31.9600 C   0  0  0  0  0  0  0  0  0  0  0  0
   -6.6770   23.4570  -31.4570 C   0  0  0  0  0  0  0  0  0  0  0  0
   -5.5360   23.4090  -32.2300 C   0  0  0  0  0  0  0  0  0  0  0  0
   -4.5150   23.6830  -31.4580 O   0  0  0  0  0  0  0  0  0  0  0  0
   -4.9140   23.9100  -30.2210 C   0  0  0  0  0  0  0  0  0  0  0  0
   -4.0770   24.2460  -29.0730 C   0  0  0  0  0  0  0  0  0  0  0  0
   -4.5570   24.2810  -27.7840 C   0  0  0  0  0  0  0  0  0  0  0  0
   -3.7080   24.6100  -26.7290 C   0  0  0  0  0  0  0  0  0  0  0  0
   -2.3770   24.9020  -26.9760 C   0  0  0  0  0  0  0  0  0  0  0  0
   -1.1540   25.3600  -25.5880 Br  0  0  0  0  0  0  0  0  0  0  0  0
   -1.8800   24.8710  -28.2650 C   0  0  0  0  0  0  0  0  0  0  0  0
   -2.7490   24.5420  -29.2870 C   0  0  0  0  0  0  0  0  0  0  0  0
   -6.2630   23.7690  -30.2160 N   0  0  0  0  0  0  0  0  0  0  0  0
   -7.7740   20.7190  -32.3430 C   0  0  0  0  0  0  0  0  0  0  0  0
   -6.8990   20.4230  -33.0950 N   0  0  0  0  0  0  0  0  0  0  0  0
   -6.4740   19.2410  -33.4540 C   0  0  0  0  0  0  0  0  0  0  0  0
   -5.4460   18.8980  -34.3370 C   0  0  0  0  0  0  0  0  0  0  0  0
   -5.1750   17.5680  -34.5610 C   0  0  0  0  0  0  0  0  0  0  0  0
   -5.8340   16.5230  -33.9870 C   0  0  0  0  0  0  0  0  0  0  0  0
   -6.8660   16.8540  -33.1000 C   0  0  0  0  0  0  0  0  0  0  0  0
   -7.1370   18.1810  -32.8750 C   0  0  0  0  0  0  0  0  0  0  0  0
   -8.3670   18.9910  -31.8210 S   0  0  0  0  0  0  0  0  0  0  0  0
   -9.3152   21.6158  -29.8863 H   0  0  0  0  0  0  0  0  0  0  0  0
  -10.3862   22.2863  -31.1631 H   0  0  0  0  0  0  0  0  0  0  0  0
   -9.9744   20.5379  -31.1631 H   0  0  0  0  0  0  0  0  0  0  0  0
   -8.0933   23.4426  -33.0329 H   0  0  0  0  0  0  0  0  0  0  0  0
   -8.7513   23.8366  -31.3910 H   0  0  0  0  0  0  0  0  0  0  0  0
   -5.4917   23.1808  -33.3052 H   0  0  0  0  0  0  0  0  0  0  0  0
   -5.6137   24.0487  -27.5857 H   0  0  0  0  0  0  0  0  0  0  0  0
   -4.0952   24.6378  -25.6998 H   0  0  0  0  0  0  0  0  0  0  0  0
   -0.8243   25.1014  -28.4710 H   0  0  0  0  0  0  0  0  0  0  0  0
   -2.3636   24.5152  -30.3169 H   0  0  0  0  0  0  0  0  0  0  0  0
   -4.8625   19.6799  -34.8451 H   0  0  0  0  0  0  0  0  0  0  0  0
   -4.3602   17.3290  -35.2602 H   0  0  0  0  0  0  0  0  0  0  0  0
   -5.5704   15.4781  -34.2078 H   0  0  0  0  0  0  0  0  0  0  0  0
   -7.4466   16.0681  -32.5947 H   0  0  0  0  0  0  0  0  0  0  0  0
  1  2  1  0
  2  3  1  0
  3  4  1  0
  4  5  2  0
  5  6  1  0
  6  7  1  0
  7  8  1  0
  8  9  2  0
  9 10  1  0
 10 11  2  0
 11 12  1  0
 11 13  1  0
 13 14  2  0
  7 15  2  0
  2 16  1  0
 16 17  2  0
 17 18  1  0
 18 19  2  0
 19 20  1  0
 20 21  2  0
 21 22  1  0
 22 23  2  0
 23 24  1  0
 15  4  1  0
 24 16  1  0
 14  8  1  0
 23 18  1  0
  1 25  1  0
  1 26  1  0
  1 27  1  0
  3 28  1  0
  3 29  1  0
  5 30  1  0
  9 31  1  0
 10 32  1  0
 13 33  1  0
 14 34  1  0
 19 35  1  0
 20 36  1  0
 21 37  1  0
 22 38  1  0
M  END
>  <smiles>  (33) 
CN(Cc1coc(-c2ccc(Br)cc2)n1)c1nc2ccccc2s1

>  <score_type>  (33) 
oracle

>  <origin>  (33) 
adg

>  <m_score__min__energy>  (33) 
-9.1500000000000004

>  <m_primary>  (33) 
energy

$$$$
33:0
     RDKit          3D

 45 48  0  0  1  0  0  0  0  0999 V2000
   -1.6670   12.6740  -32.6790 C   0  0  0  0  0  0  0  0  0  0  0  0
   -2.4340   13.2280  -33.7310 O   0  0  0  0  0  0  0  0  0  0  0  0
   -3.2720   14.3130  -33.5200 C   0  0  0  0  0  0  0  0  0  0  0  0
   -4.1260   14.4210  -32.4450 C   0  0  0  0  0  0  0  0  0  0  0  0
   -4.9490   15.5250  -32.2740 C   0  0  0  0  0  0  0  0  0  0  0  0
   -4.9500   16.5840  -33.1890 C   0  0  0  0  0  0  0  0  0  0  0  0
   -5.8100   17.7330  -32.9430 C   0  0  0  0  0  0  0  0  0  0  0  0
   -7.1130   17.5480  -32.7210 O   0  0  0  0  0  0  0  0  0  0  0  0
   -7.7360   18.6610  -32.5200 C   0  0  0  0  0  0  0  0  0  0  0  0
   -9.0650   18.9010  -32.2650 C   0  0  0  0  0  0  0  0  0  0  0  0
   -9.5010   20.1970  -32.0950 C   0  0  0  0  0  0  0  0  0  0  0  0
   -8.5670   21.2010  -32.1910 C   0  0  0  0  0  0  0  0  0  0  0  0
   -9.0870   23.0340  -31.9700 Br  0  0  0  0  0  0  0  0  0  0  0  0
   -7.2380   20.9460  -32.4460 C   0  0  0  0  0  0  0  0  0  0  0  0
   -6.7850   19.6600  -32.6160 C   0  0  0  0  0  0  0  0  0  0  0  0
   -5.5330   19.0780  -32.8900 C   0  0  0  0  0  0  0  0  0  0  0  0
   -4.3030   19.7060  -33.2650 C   0  0  0  0  0  0  0  0  0  0  0  0
   -3.5590   20.5320  -32.5980 C   0  0  0  0  0  0  0  0  0  0  0  0
   -3.9710   21.6550  -31.8020 C   0  0  0  0  0  0  0  0  0  0  0  0
   -3.6520   21.6460  -30.4660 C   0  0  0  0  0  0  0  0  0  0  0  0
   -4.0840   22.6300  -29.6400 C   0  0  0  0  0  0  0  0  0  0  0  0
   -4.8640   23.6960  -30.0670 C   0  0  0  0  0  0  0  0  0  0  0  0
   -5.2760   24.6880  -29.1350 N   0  0  0  0  0  0  0  0  0  0  0  0
   -5.1930   23.7230  -31.3900 C   0  0  0  0  0  0  0  0  0  0  0  0
   -4.7470   22.7080  -32.2390 C   0  0  0  0  0  0  0  0  0  0  0  0
   -4.0940   16.4580  -34.2490 C   0  0  0  0  0  0  0  0  0  0  0  0
   -3.2640   15.3490  -34.4270 C   0  0  0  0  0  0  0  0  0  0  0  0
   -2.0933   12.9819  -31.7129 H   0  0  0  0  0  0  0  0  0  0  0  0
   -1.6816   11.5766  -32.7531 H   0  0  0  0  0  0  0  0  0  0  0  0
   -0.6298   13.0328  -32.7531 H   0  0  0  0  0  0  0  0  0  0  0  0
   -4.1565   13.6104  -31.7020 H   0  0  0  0  0  0  0  0  0  0  0  0
   -5.6154   15.5688  -31.3999 H   0  0  0  0  0  0  0  0  0  0  0  0
   -9.7758   18.0642  -32.1971 H   0  0  0  0  0  0  0  0  0  0  0  0
  -10.5584   20.4202  -31.8899 H   0  0  0  0  0  0  0  0  0  0  0  0
   -6.5288   21.7840  -32.5146 H   0  0  0  0  0  0  0  0  0  0  0  0
   -3.9337   19.4496  -34.2689 H   0  0  0  0  0  0  0  0  0  0  0  0
   -2.4753   20.3501  -32.6477 H   0  0  0  0  0  0  0  0  0  0  0  0
   -3.0373   20.8287  -30.0608 H   0  0  0  0  0  0  0  0  0  0  0  0
   -3.8023   22.5814  -28.5778 H   0  0  0  0  0  0  0  0  0  0  0  0
   -4.9390   25.6820  -29.1660 H   0  0  0  0  0  0  0  0  0  0  0  0
   -5.9560   24.4070  -28.3750 H   0  0  0  0  0  0  0  0  0  0  0  0
   -5.8088   24.5431  -31.7879 H   0  0  0  0  0  0  0  0  0  0  0  0
   -5.0266   22.7501  -33.3020 H   0  0  0  0  0  0  0  0  0  0  0  0
   -4.0580   17.2663  -34.9942 H   0  0  0  0  0  0  0  0  0  0  0  0
   -2.5971   15.3027  -35.3006 H   0  0  0  0  0  0  0  0  0  0  0  0
  1  2  1  0
  2  3  1  0
  3  4  2  0
  4  5  1  0
  5  6  2  0
  6  7  1  0
  7  8  1  0
  8  9  1  0
  9 10  2  0
 10 11  1  0
 11 12  2  0
 12 13  1  0
 12 14  1  0
 14 15  2  0
 15 16  1  0
 16 17  1  0
 17 18  2  0
 18 19  1  0
 19 20  2  0
 20 21  1  0
 21 22  2  0
 22 23  1  0
 22 24  1  0
 24 25  2  0
  6 26  1  0
 26 27  2  0
 27  3  1  0
 16  7  2  0
 25 19  1  0
 15  9  1  0
  1 28  1  0
  1 29  1  0
  1 30  1  0
  4 31  1  0
  5 32  1  0
 10 33  1  0
 11 34  1  0
 14 35  1  0
 17 36  1  0
 18 37  1  0
 20 38  1  0
 21 39  1  0
 23 40  1  0
 23 41  1  0
 24 42  1  0
 25 43  1  0
 26 44  1  0
 27 45  1  0
M  END
>  <smiles>  (34) 
COc1ccc(-c2oc3ccc(Br)cc3c2C=Cc2ccc(N)cc2)cc1

>  <score_type>  (34) 
oracle

>  <origin>  (34) 
adg

>  <m_score__min__energy>  (34) 
-8.7400000000000002

>  <m_primary>  (34) 
energy

$$$$
34:0
     RDKit          3D

 42 44  0  0  0  0  0  0  0  0999 V2000
   -0.8350   27.1870  -24.5640 C   0  0  0  0  0  0  0  0  0  0  0  0
   -0.7430   27.0860  -25.9660 O   0  0  0  0  0  0  0  0  0  0  0  0
   -1.4850   26.2000  -26.7110 C   0  0  0  0  0  0  0  0  0  0  0  0
   -2.4990   25.4130  -26.2060 C   0  0  0  0  0  0  0  0  0  0  0  0
   -3.1950   24.5410  -27.0560 C   0  0  0  0  0  0  0  0  0  0  0  0
   -2.9170   24.4240  -28.3850 C   0  0  0  0  0  0  0  0  0  0  0  0
   -3.5810   23.6030  -29.3640 C   0  0  0  0  0  0  0  0  0  0  0  0
   -3.1330   22.2950  -29.4980 C   0  0  0  0  0  0  0  0  0  0  0  0
   -3.6940   21.3910  -30.3760 C   0  0  0  0  0  0  0  0  0  0  0  0
   -4.7530   21.7670  -31.1750 C   0  0  0  0  0  0  0  0  0  0  0  0
   -5.3870   20.8570  -32.1220 C   0  0  0  0  0  0  0  0  0  0  0  0
   -4.5540   20.1530  -32.9710 C   0  0  0  0  0  0  0  0  0  0  0  0
   -5.1190   19.2830  -33.8780 C   0  0  0  0  0  0  0  0  0  0  0  0
   -6.4900   19.1000  -33.9590 C   0  0  0  0  0  0  0  0  0  0  0  0
   -7.2810   19.8270  -33.0890 C   0  0  0  0  0  0  0  0  0  0  0  0
   -6.7780   20.7070  -32.1650 C   0  0  0  0  0  0  0  0  0  0  0  0
   -7.5630   21.4420  -31.2870 O   0  0  0  0  0  0  0  0  0  0  0  0
   -8.9440   21.5350  -31.5830 C   0  0  0  0  0  0  0  0  0  0  0  0
   -5.2050   23.0500  -31.0530 C   0  0  0  0  0  0  0  0  0  0  0  0
   -4.6320   23.9680  -30.1570 C   0  0  0  0  0  0  0  0  0  0  0  0
   -5.2650   25.2950  -30.1040 C   0  0  0  0  0  0  0  0  0  0  0  0
   -1.9060   25.2220  -28.8460 N   0  0  0  0  0  0  0  0  0  0  0  0
   -1.2200   26.0680  -28.0580 C   0  0  0  0  0  0  0  0  0  0  0  0
   -0.1639   26.4502  -24.0985 H   0  0  0  0  0  0  0  0  0  0  0  0
   -0.5425   28.1996  -24.2494 H   0  0  0  0  0  0  0  0  0  0  0  0
   -1.8705   26.9900  -24.2494 H   0  0  0  0  0  0  0  0  0  0  0  0
   -2.7612   25.4691  -25.1392 H   0  0  0  0  0  0  0  0  0  0  0  0
   -4.0008   23.9244  -26.6312 H   0  0  0  0  0  0  0  0  0  0  0  0
   -2.2900   21.9640  -28.8737 H   0  0  0  0  0  0  0  0  0  0  0  0
   -3.2955   20.3676  -30.4389 H   0  0  0  0  0  0  0  0  0  0  0  0
   -3.4629   20.2845  -32.9236 H   0  0  0  0  0  0  0  0  0  0  0  0
   -4.4632   18.7180  -34.5567 H   0  0  0  0  0  0  0  0  0  0  0  0
   -6.9317   18.4036  -34.6870 H   0  0  0  0  0  0  0  0  0  0  0  0
   -8.3715   19.6926  -33.1405 H   0  0  0  0  0  0  0  0  0  0  0  0
   -9.5181   21.5737  -30.6455 H   0  0  0  0  0  0  0  0  0  0  0  0
   -9.1332   22.4479  -32.1668 H   0  0  0  0  0  0  0  0  0  0  0  0
   -9.2539   20.6557  -32.1668 H   0  0  0  0  0  0  0  0  0  0  0  0
   -6.0484   23.3765  -31.6791 H   0  0  0  0  0  0  0  0  0  0  0  0
   -5.4067   25.5920  -29.0544 H   0  0  0  0  0  0  0  0  0  0  0  0
   -4.6202   26.0293  -30.6090 H   0  0  0  0  0  0  0  0  0  0  0  0
   -6.2414   25.2559  -30.6090 H   0  0  0  0  0  0  0  0  0  0  0  0
   -0.4190   26.6764  -28.5033 H   0  0  0  0  0  0  0  0  0  0  0  0
  1  2  1  0
  2  3  1  0
  3  4  2  0
  4  5  1  0
  5  6  2  0
  6  7  1  0
  7  8  2  0
  8  9  1  0
  9 10  2  0
 10 11  1  0
 11 12  2  0
 12 13  1  0
 13 14  2  0
 14 15  1  0
 15 16  2  0
 16 17  1  0
 17 18  1  0
 10 19  1  0
 19 20  2  0
 20 21  1  0
  6 22  1  0
 22 23  2  0
 23  3  1  0
 20  7  1  0
 16 11  1  0
  1 24  1  0
  1 25  1  0
  1 26  1  0
  4 27  1  0
  5 28  1  0
  8 29  1  0
  9 30  1  0
 12 31  1  0
 13 32  1  0
 14 33  1  0
 15 34  1  0
 18 35  1  0
 18 36  1  0
 18 37  1  0
 19 38  1  0
 21 39  1  0
 21 40  1  0
 21 41  1  0
 23 42  1  0
M  END
>  <smiles>  (35) 
COc1ccc(-c2ccc(-c3ccccc3OC)cc2C)nc1

>  <score_type>  (35) 
oracle

>  <origin>  (35) 
adg

>  <m_score__min__energy>  (35) 
-7.4400000000000004

>  <m_primary>  (35) 
energy

$$$$
35:0
     RDKit          3D

 37 40  0  0  0  0  0  0  0  0999 V2000
   -9.0120   18.1900  -31.5970 C   0  0  0  0  0  0  0  0  0  0  0  0
   -7.6280   17.8700  -31.5090 O   0  0  0  0  0  0  0  0  0  0  0  0
   -6.8720   17.7240  -32.6800 C   0  0  0  0  0  0  0  0  0  0  0  0
   -6.5990   16.4580  -33.1580 C   0  0  0  0  0  0  0  0  0  0  0  0
   -5.8480   16.3360  -34.3230 C   0  0  0  0  0  0  0  0  0  0  0  0
   -5.3970   17.4920  -34.9670 C   0  0  0  0  0  0  0  0  0  0  0  0
   -5.7040   18.7510  -34.4410 C   0  0  0  0  0  0  0  0  0  0  0  0
   -6.4380   18.8760  -33.3020 C   0  0  0  0  0  0  0  0  0  0  0  0
   -6.7610   20.1680  -32.7470 N   0  0  0  0  0  0  0  0  0  0  0  0
   -7.9890   20.6540  -32.7030 N   0  0  0  0  0  0  0  0  0  0  0  0
   -7.9950   21.8940  -32.1250 C   0  0  0  0  0  0  0  0  0  0  0  0
   -9.2330   22.6850  -31.9390 C   0  0  0  0  0  0  0  0  0  0  0  0
   -6.7020   22.1450  -31.8150 C   0  0  0  0  0  0  0  0  0  0  0  0
   -6.0780   23.1930  -31.2330 C   0  0  0  0  0  0  0  0  0  0  0  0
   -6.8000   24.2800  -30.8320 C   0  0  0  0  0  0  0  0  0  0  0  0
   -6.1150   25.3470  -30.2320 C   0  0  0  0  0  0  0  0  0  0  0  0
   -4.7520   25.2540  -30.0720 C   0  0  0  0  0  0  0  0  0  0  0  0
   -4.0110   24.1690  -30.4690 C   0  0  0  0  0  0  0  0  0  0  0  0
   -4.6930   23.1250  -31.0580 C   0  0  0  0  0  0  0  0  0  0  0  0
   -3.9520   22.0390  -31.4540 C   0  0  0  0  0  0  0  0  0  0  0  0
   -4.6130   21.0180  -32.0300 N   0  0  0  0  0  0  0  0  0  0  0  0
   -5.9380   21.0610  -32.2070 C   0  0  0  0  0  0  0  0  0  0  0  0
   -9.4310   18.2869  -30.5846 H   0  0  0  0  0  0  0  0  0  0  0  0
   -9.1350   19.1403  -32.1372 H   0  0  0  0  0  0  0  0  0  0  0  0
   -9.5396   17.3902  -32.1372 H   0  0  0  0  0  0  0  0  0  0  0  0
   -6.9668   15.5659  -32.6299 H   0  0  0  0  0  0  0  0  0  0  0  0
   -5.6121   15.3425  -34.7321 H   0  0  0  0  0  0  0  0  0  0  0  0
   -4.8005   17.4113  -35.8877 H   0  0  0  0  0  0  0  0  0  0  0  0
   -5.3464   19.6547  -34.9563 H   0  0  0  0  0  0  0  0  0  0  0  0
   -9.4298   22.8107  -30.8641 H   0  0  0  0  0  0  0  0  0  0  0  0
   -9.1108   23.6728  -32.4074 H   0  0  0  0  0  0  0  0  0  0  0  0
  -10.0780   22.1591  -32.4074 H   0  0  0  0  0  0  0  0  0  0  0  0
   -7.8899   24.3181  -30.9756 H   0  0  0  0  0  0  0  0  0  0  0  0
   -6.6583   26.2423  -29.8954 H   0  0  0  0  0  0  0  0  0  0  0  0
   -4.2262   26.0967  -29.5992 H   0  0  0  0  0  0  0  0  0  0  0  0
   -2.9212   24.1337  -30.3238 H   0  0  0  0  0  0  0  0  0  0  0  0
   -2.8625   22.0049  -31.3065 H   0  0  0  0  0  0  0  0  0  0  0  0
  1  2  1  0
  2  3  1  0
  3  4  2  0
  4  5  1  0
  5  6  2  0
  6  7  1  0
  7  8  2  0
  8  9  1  0
  9 10  1  0
 10 11  2  0
 11 12  1  0
 11 13  1  0
 13 14  2  0
 14 15  1  0
 15 16  2  0
 16 17  1  0
 17 18  2  0
 18 19  1  0
 19 20  2  0
 20 21  1  0
 21 22  2  0
  8  3  1  0
 22  9  1  0
 22 13  1  0
 19 14  1  0
  1 23  1  0
  1 24  1  0
  1 25  1  0
  4 26  1  0
  5 27  1  0
  6 28  1  0
  7 29  1  0
 12 30  1  0
 12 31  1  0
 12 32  1  0
 15 33  1  0
 16 34  1  0
 17 35  1  0
 18 36  1  0
 20 37  1  0
M  END
>  <smiles>  (36) 
COc1ccccc1-n1nc(C)c2c3ccccc3cnc21

>  <score_type>  (36) 
oracle

>  <origin>  (36) 
adg

>  <m_score__min__energy>  (36) 
-8.1600000000000001

>  <m_primary>  (36) 
energy

$$$$
36:0
     RDKit          3D

 36 37  0  0  0  0  0  0  0  0999 V2000
   -6.4620   16.8690  -34.2030 C   0  0  0  0  0  0  0  0  0  0  0  0
   -5.6510   18.0710  -33.9440 C   0  0  0  0  0  0  0  0  0  0  0  0
   -5.4140   18.5270  -32.6590 N   0  0  0  0  0  0  0  0  0  0  0  0
   -6.1310   17.9090  -31.5720 C   0  0  0  0  0  0  0  0  0  0  0  0
   -4.5200   19.5430  -32.3370 C   0  0  0  0  0  0  0  0  0  0  0  0
   -4.7470   20.8660  -33.0140 C   0  0  0  0  0  0  0  0  0  0  0  0
   -5.5230   21.8050  -32.2510 N   0  0  0  0  0  0  0  0  0  0  0  0
   -5.0370   22.8820  -31.6220 C   0  0  0  0  0  0  0  0  0  0  0  0
   -3.8050   23.1180  -31.6690 O   0  0  0  0  0  0  0  0  0  0  0  0
   -5.8120   23.7700  -30.9070 C   0  0  0  0  0  0  0  0  0  0  0  0
   -5.1960   24.9310  -30.2420 C   0  0  0  0  0  0  0  0  0  0  0  0
   -4.2440   25.5270  -30.8430 O   0  0  0  0  0  0  0  0  0  0  0  0
   -7.1700   23.5700  -30.8150 C   0  0  0  0  0  0  0  0  0  0  0  0
   -7.6940   22.4570  -31.4620 C   0  0  0  0  0  0  0  0  0  0  0  0
   -9.0540   22.2630  -31.3650 C   0  0  0  0  0  0  0  0  0  0  0  0
   -9.6060   21.1600  -32.0000 C   0  0  0  0  0  0  0  0  0  0  0  0
   -8.7650   20.3120  -32.6980 C   0  0  0  0  0  0  0  0  0  0  0  0
   -7.4320   20.5370  -32.7720 N   0  0  0  0  0  0  0  0  0  0  0  0
   -6.8650   21.6100  -32.1570 C   0  0  0  0  0  0  0  0  0  0  0  0
   -6.7659   16.4186  -33.2465 H   0  0  0  0  0  0  0  0  0  0  0  0
   -7.3574   17.1477  -34.7779 H   0  0  0  0  0  0  0  0  0  0  0  0
   -5.8684   16.1430  -34.7779 H   0  0  0  0  0  0  0  0  0  0  0  0
   -4.6642   17.8803  -34.3911 H   0  0  0  0  0  0  0  0  0  0  0  0
   -6.2786   18.8710  -34.3636 H   0  0  0  0  0  0  0  0  0  0  0  0
   -5.7210   18.2624  -30.6144 H   0  0  0  0  0  0  0  0  0  0  0  0
   -7.1960   18.1768  -31.6360 H   0  0  0  0  0  0  0  0  0  0  0  0
   -6.0232   16.8162  -31.6360 H   0  0  0  0  0  0  0  0  0  0  0  0
   -4.5762   19.7078  -31.2509 H   0  0  0  0  0  0  0  0  0  0  0  0
   -3.5387   19.1951  -32.6920 H   0  0  0  0  0  0  0  0  0  0  0  0
   -3.7658   21.3189  -33.2192 H   0  0  0  0  0  0  0  0  0  0  0  0
   -5.3244   20.6537  -33.9259 H   0  0  0  0  0  0  0  0  0  0  0  0
   -5.5471   25.2727  -29.2571 H   0  0  0  0  0  0  0  0  0  0  0  0
   -7.8143   24.2620  -30.2529 H   0  0  0  0  0  0  0  0  0  0  0  0
   -9.6856   22.9638  -30.7993 H   0  0  0  0  0  0  0  0  0  0  0  0
  -10.6873   20.9643  -31.9496 H   0  0  0  0  0  0  0  0  0  0  0  0
   -9.1897   19.4333  -33.2054 H   0  0  0  0  0  0  0  0  0  0  0  0
  1  2  1  0
  2  3  1  0
  3  4  1  0
  3  5  1  0
  5  6  1  0
  6  7  1  0
  7  8  1  0
  8  9  2  0
  8 10  1  0
 10 11  1  0
 11 12  2  0
 10 13  2  0
 13 14  1  0
 14 15  2  0
 15 16  1  0
 16 17  2  0
 17 18  1  0
 18 19  2  0
 19  7  1  0
 19 14  1  0
  1 20  1  0
  1 21  1  0
  1 22  1  0
  2 23  1  0
  2 24  1  0
  4 25  1  0
  4 26  1  0
  4 27  1  0
  5 28  1  0
  5 29  1  0
  6 30  1  0
  6 31  1  0
 11 32  1  0
 13 33  1  0
 15 34  1  0
 16 35  1  0
 17 36  1  0
M  END
>  <smiles>  (37) 
CCN(C)CCn1c(=O)c(C=O)cc2cccnc21

>  <score_type>  (37) 
oracle

>  <origin>  (37) 
adg

>  <m_score__min__energy>  (37) 
-7.5499999999999998

>  <m_primary>  (37) 
energy

$$$$
37:0
     RDKit          3D

 49 52  0  0  0  0  0  0  0  0999 V2000
   -5.4190   16.2610  -32.7490 C   0  0  0  0  0  0  0  0  0  0  0  0
   -6.3200   17.0080  -33.5600 O   0  0  0  0  0  0  0  0  0  0  0  0
   -6.6910   18.2840  -33.1810 C   0  0  0  0  0  0  0  0  0  0  0  0
   -7.9460   18.6130  -32.7150 C   0  0  0  0  0  0  0  0  0  0  0  0
   -8.2590   19.9210  -32.3470 C   0  0  0  0  0  0  0  0  0  0  0  0
   -9.4760   20.2670  -31.8900 N   0  0  0  0  0  0  0  0  0  0  0  0
   -9.7420   21.5610  -31.5410 C   0  0  0  0  0  0  0  0  0  0  0  0
   -8.7740   22.5090  -31.6550 N   0  0  0  0  0  0  0  0  0  0  0  0
   -7.5450   22.2100  -32.1060 C   0  0  0  0  0  0  0  0  0  0  0  0
   -6.5260   23.1440  -32.2390 O   0  0  0  0  0  0  0  0  0  0  0  0
   -5.6300   23.4370  -31.2200 C   0  0  0  0  0  0  0  0  0  0  0  0
   -5.9000   24.4890  -30.3550 C   0  0  0  0  0  0  0  0  0  0  0  0
   -5.0370   24.8260  -29.3180 C   0  0  0  0  0  0  0  0  0  0  0  0
   -3.9010   24.0570  -29.1990 C   0  0  0  0  0  0  0  0  0  0  0  0
   -3.6280   22.9970  -30.0720 C   0  0  0  0  0  0  0  0  0  0  0  0
   -4.4680   22.6670  -31.0840 C   0  0  0  0  0  0  0  0  0  0  0  0
   -2.3380   22.2790  -29.7870 C   0  0  0  0  0  0  0  0  0  0  0  0
   -1.3010   23.4030  -29.6800 C   0  0  0  0  0  0  0  0  0  0  0  0
   -1.5340   24.1730  -28.3970 C   0  0  0  0  0  0  0  0  0  0  0  0
   -2.9700   24.3400  -28.1610 N   0  0  0  0  0  0  0  0  0  0  0  0
   -3.4450   24.7720  -26.8960 C   0  0  0  0  0  0  0  0  0  0  0  0
   -2.4970   25.5160  -25.9880 C   0  0  0  0  0  0  0  0  0  0  0  0
   -4.5930   24.5930  -26.4540 O   0  0  0  0  0  0  0  0  0  0  0  0
   -7.2810   20.9120  -32.4560 C   0  0  0  0  0  0  0  0  0  0  0  0
   -6.0300   20.5700  -32.9230 C   0  0  0  0  0  0  0  0  0  0  0  0
   -5.7290   19.2730  -33.2850 C   0  0  0  0  0  0  0  0  0  0  0  0
   -4.4590   18.9670  -33.7510 O   0  0  0  0  0  0  0  0  0  0  0  0
   -3.3940   19.8600  -33.4070 C   0  0  0  0  0  0  0  0  0  0  0  0
   -5.6417   16.4456  -31.6877 H   0  0  0  0  0  0  0  0  0  0  0  0
   -5.5329   15.1887  -32.9664 H   0  0  0  0  0  0  0  0  0  0  0  0
   -4.3864   16.5716  -32.9664 H   0  0  0  0  0  0  0  0  0  0  0  0
   -8.7140   17.8299  -32.6320 H   0  0  0  0  0  0  0  0  0  0  0  0
  -10.7395   21.8359  -31.1677 H   0  0  0  0  0  0  0  0  0  0  0  0
   -6.8223   25.0721  -30.4939 H   0  0  0  0  0  0  0  0  0  0  0  0
   -5.2497   25.6592  -28.6320 H   0  0  0  0  0  0  0  0  0  0  0  0
   -4.2470   21.8332  -31.7666 H   0  0  0  0  0  0  0  0  0  0  0  0
   -2.4038   21.7172  -28.8436 H   0  0  0  0  0  0  0  0  0  0  0  0
   -2.0840   21.5424  -30.5635 H   0  0  0  0  0  0  0  0  0  0  0  0
   -0.2894   22.9710  -29.6716 H   0  0  0  0  0  0  0  0  0  0  0  0
   -1.3990   24.0803  -30.5412 H   0  0  0  0  0  0  0  0  0  0  0  0
   -1.0893   23.6208  -27.5560 H   0  0  0  0  0  0  0  0  0  0  0  0
   -1.0667   25.1650  -28.4838 H   0  0  0  0  0  0  0  0  0  0  0  0
   -2.7576   25.3115  -24.9391 H   0  0  0  0  0  0  0  0  0  0  0  0
   -1.4667   25.1829  -26.1815 H   0  0  0  0  0  0  0  0  0  0  0  0
   -2.5757   26.5960  -26.1815 H   0  0  0  0  0  0  0  0  0  0  0  0
   -5.2559   21.3468  -33.0088 H   0  0  0  0  0  0  0  0  0  0  0  0
   -3.3122   19.9286  -32.3122 H   0  0  0  0  0  0  0  0  0  0  0  0
   -2.4487   19.4805  -33.8223 H   0  0  0  0  0  0  0  0  0  0  0  0
   -3.6029   20.8570  -33.8223 H   0  0  0  0  0  0  0  0  0  0  0  0
  1  2  1  0
  2  3  1  0
  3  4  2  0
  4  5  1  0
  5  6  2  0
  6  7  1  0
  7  8  2  0
  8  9  1  0
  9 10  1  0
 10 11  1  0
 11 12  2  0
 12 13  1  0
 13 14  2  0
 14 15  1  0
 15 16  2  0
 15 17  1  0
 17 18  1  0
 18 19  1  0
 19 20  1  0
 20 21  1  0
 21 22  1  0
 21 23  2  0
  9 24  2  0
 24 25  1  0
 25 26  2  0
 26 27  1  0
 27 28  1  0
 26  3  1  0
 24  5  1  0
 16 11  1  0
 20 14  1  0
  1 29  1  0
  1 30  1  0
  1 31  1  0
  4 32  1  0
  7 33  1  0
 12 34  1  0
 13 35  1  0
 16 36  1  0
 17 37  1  0
 17 38  1  0
 18 39  1  0
 18 40  1  0
 19 41  1  0
 19 42  1  0
 22 43  1  0
 22 44  1  0
 22 45  1  0
 25 46  1  0
 28 47  1  0
 28 48  1  0
 28 49  1  0
M  END
>  <smiles>  (38) 
COc1cc2ncnc(Oc3ccc4c(c3)CCCN4C(C)=O)c2cc1OC

>  <score_type>  (38) 
oracle

>  <origin>  (38) 
adg

>  <m_score__min__energy>  (38) 
-8.5

>  <m_primary>  (38) 
energy

$$$$
38:0
     RDKit          3D

 43 44  0  0  0  0  0  0  0  0999 V2000
   -8.7480   21.7710  -30.8960 C   0  0  0  0  0  0  0  0  0  0  0  0
   -7.6370   22.4040  -30.0870 C   0  0  0  0  0  0  0  0  0  0  0  0
   -6.7690   23.2520  -30.9080 N   0  0  0  0  0  0  0  0  0  0  0  0
   -7.3890   23.4280  -32.2250 C   0  0  0  0  0  0  0  0  0  0  0  0
   -6.6650   24.5320  -30.2510 C   0  0  0  0  0  0  0  0  0  0  0  0
   -5.4510   25.2780  -30.7620 C   0  0  0  0  0  0  0  0  0  0  0  0
   -4.3600   24.5450  -30.8240 O   0  0  0  0  0  0  0  0  0  0  0  0
   -3.4990   23.6280  -30.4750 C   0  0  0  0  0  0  0  0  0  0  0  0
   -2.6660   23.6740  -29.3790 C   0  0  0  0  0  0  0  0  0  0  0  0
   -1.7710   22.6720  -29.0520 C   0  0  0  0  0  0  0  0  0  0  0  0
   -1.7110   21.5820  -29.8560 C   0  0  0  0  0  0  0  0  0  0  0  0
   -0.4950   20.1850  -29.4390 Br  0  0  0  0  0  0  0  0  0  0  0  0
   -2.5070   21.4580  -30.9650 C   0  0  0  0  0  0  0  0  0  0  0  0
   -3.3860   22.4680  -31.2680 C   0  0  0  0  0  0  0  0  0  0  0  0
   -4.2180   22.2840  -32.4910 C   0  0  0  0  0  0  0  0  0  0  0  0
   -4.7570   20.9190  -32.6430 C   0  0  0  0  0  0  0  0  0  0  0  0
   -5.9060   20.4500  -32.0860 C   0  0  0  0  0  0  0  0  0  0  0  0
   -6.3690   19.1570  -32.2680 C   0  0  0  0  0  0  0  0  0  0  0  0
   -5.6510   18.2600  -33.0540 C   0  0  0  0  0  0  0  0  0  0  0  0
   -4.4940   18.7150  -33.6220 C   0  0  0  0  0  0  0  0  0  0  0  0
   -4.0370   20.0150  -33.4350 C   0  0  0  0  0  0  0  0  0  0  0  0
   -9.4990   21.3431  -30.2156 H   0  0  0  0  0  0  0  0  0  0  0  0
   -9.2210   22.5352  -31.5302 H   0  0  0  0  0  0  0  0  0  0  0  0
   -8.3317   20.9745  -31.5302 H   0  0  0  0  0  0  0  0  0  0  0  0
   -8.0838   23.0190  -29.2919 H   0  0  0  0  0  0  0  0  0  0  0  0
   -7.0207   21.5948  -29.6684 H   0  0  0  0  0  0  0  0  0  0  0  0
   -8.4402   23.7264  -32.0985 H   0  0  0  0  0  0  0  0  0  0  0  0
   -6.8507   24.2088  -32.7823 H   0  0  0  0  0  0  0  0  0  0  0  0
   -7.3412   22.4808  -32.7823 H   0  0  0  0  0  0  0  0  0  0  0  0
   -7.5696   25.1226  -30.4582 H   0  0  0  0  0  0  0  0  0  0  0  0
   -6.5629   24.3748  -29.1671 H   0  0  0  0  0  0  0  0  0  0  0  0
   -5.6745   25.6519  -31.7721 H   0  0  0  0  0  0  0  0  0  0  0  0
   -5.2501   26.0882  -30.0456 H   0  0  0  0  0  0  0  0  0  0  0  0
   -2.7156   24.5583  -28.7266 H   0  0  0  0  0  0  0  0  0  0  0  0
   -1.1261   22.7568  -28.1649 H   0  0  0  0  0  0  0  0  0  0  0  0
   -2.4425   20.5635  -31.6020 H   0  0  0  0  0  0  0  0  0  0  0  0
   -5.0624   22.9875  -32.4454 H   0  0  0  0  0  0  0  0  0  0  0  0
   -3.5633   22.4687  -33.3554 H   0  0  0  0  0  0  0  0  0  0  0  0
   -6.4981   21.1326  -31.4587 H   0  0  0  0  0  0  0  0  0  0  0  0
   -7.3070   18.8381  -31.7899 H   0  0  0  0  0  0  0  0  0  0  0  0
   -6.0000   17.2288  -33.2113 H   0  0  0  0  0  0  0  0  0  0  0  0
   -3.9043   18.0295  -34.2484 H   0  0  0  0  0  0  0  0  0  0  0  0
   -3.1005   20.3369  -33.9139 H   0  0  0  0  0  0  0  0  0  0  0  0
  1  2  1  0
  2  3  1  0
  3  4  1  0
  3  5  1  0
  5  6  1  0
  6  7  1  0
  7  8  1  0
  8  9  2  0
  9 10  1  0
 10 11  2  0
 11 12  1  0
 11 13  1  0
 13 14  2  0
 14 15  1  0
 15 16  1  0
 16 17  2  0
 17 18  1  0
 18 19  2  0
 19 20  1  0
 20 21  2  0
 14  8  1  0
 21 16  1  0
  1 22  1  0
  1 23  1  0
  1 24  1  0
  2 25  1  0
  2 26  1  0
  4 27  1  0
  4 28  1  0
  4 29  1  0
  5 30  1  0
  5 31  1  0
  6 32  1  0
  6 33  1  0
  9 34  1  0
 10 35  1  0
 13 36  1  0
 15 37  1  0
 15 38  1  0
 17 39  1  0
 18 40  1  0
 19 41  1  0
 20 42  1  0
 21 43  1  0
M  END
>  <smiles>  (39) 
CCN(C)CCOc1ccc(Br)cc1Cc1ccccc1

>  <score_type>  (39) 
oracle

>  <origin>  (39) 
adg

>  <m_score__min__energy>  (39) 
-7.1200000000000001

>  <m_primary>  (39) 
energy

$$$$
39:0
     RDKit          3D

 33 34  0  0  0  0  0  0  0  0999 V2000
   -5.3530   19.7280  -33.5970 C   0  0  0  0  0  0  0  0  0  0  0  0
   -4.6790   20.9660  -33.0900 C   0  0  0  0  0  0  0  0  0  0  0  0
   -4.9010   21.2840  -31.7600 O   0  0  0  0  0  0  0  0  0  0  0  0
   -5.0130   22.5260  -31.1760 C   0  0  0  0  0  0  0  0  0  0  0  0
   -3.9720   23.2930  -30.7280 C   0  0  0  0  0  0  0  0  0  0  0  0
   -4.1950   24.5260  -30.1570 C   0  0  0  0  0  0  0  0  0  0  0  0
   -3.1110   25.2690  -29.7170 O   0  0  0  0  0  0  0  0  0  0  0  0
   -2.1960   24.9230  -28.7340 C   0  0  0  0  0  0  0  0  0  0  0  0
   -5.4830   25.0570  -30.0070 C   0  0  0  0  0  0  0  0  0  0  0  0
   -6.5310   24.2820  -30.4600 C   0  0  0  0  0  0  0  0  0  0  0  0
   -6.3020   23.0400  -31.0340 C   0  0  0  0  0  0  0  0  0  0  0  0
   -7.4360   22.2530  -31.4990 C   0  0  0  0  0  0  0  0  0  0  0  0
   -8.6580   22.7600  -31.9440 C   0  0  0  0  0  0  0  0  0  0  0  0
   -9.3910   21.6810  -32.2700 N   0  0  0  0  0  0  0  0  0  0  0  0
   -8.7190   20.5460  -32.0600 C   0  0  0  0  0  0  0  0  0  0  0  0
   -9.2180   19.1610  -32.3100 C   0  0  0  0  0  0  0  0  0  0  0  0
   -7.5060   20.9020  -31.5820 N   0  0  0  0  0  0  0  0  0  0  0  0
   -5.6858   19.1167  -32.7452 H   0  0  0  0  0  0  0  0  0  0  0  0
   -6.2229   20.0086  -34.2090 H   0  0  0  0  0  0  0  0  0  0  0  0
   -4.6452   19.1497  -34.2090 H   0  0  0  0  0  0  0  0  0  0  0  0
   -3.5952   20.8381  -33.2278 H   0  0  0  0  0  0  0  0  0  0  0  0
   -5.1150   21.7949  -33.6669 H   0  0  0  0  0  0  0  0  0  0  0  0
   -2.9421   22.9191  -30.8255 H   0  0  0  0  0  0  0  0  0  0  0  0
   -2.6417   25.0915  -27.7426 H   0  0  0  0  0  0  0  0  0  0  0  0
   -1.9279   23.8614  -28.8399 H   0  0  0  0  0  0  0  0  0  0  0  0
   -1.2926   25.5416  -28.8399 H   0  0  0  0  0  0  0  0  0  0  0  0
   -5.6505   26.0436  -29.5504 H   0  0  0  0  0  0  0  0  0  0  0  0
   -7.5618   24.6540  -30.3647 H   0  0  0  0  0  0  0  0  0  0  0  0
   -8.9573   23.8162  -32.0132 H   0  0  0  0  0  0  0  0  0  0  0  0
  -10.3720   21.7330  -32.6410 H   0  0  0  0  0  0  0  0  0  0  0  0
   -9.3994   18.6576  -31.3489 H   0  0  0  0  0  0  0  0  0  0  0  0
  -10.1561   19.2070  -32.8826 H   0  0  0  0  0  0  0  0  0  0  0  0
   -8.4661   18.5981  -32.8826 H   0  0  0  0  0  0  0  0  0  0  0  0
  1  2  1  0
  2  3  1  0
  3  4  1  0
  4  5  2  0
  5  6  1  0
  6  7  1  0
  7  8  1  0
  6  9  2  0
  9 10  1  0
 10 11  2  0
 11 12  1  0
 12 13  2  0
 13 14  1  0
 14 15  1  0
 15 16  1  0
 15 17  2  0
 11  4  1  0
 17 12  1  0
  1 18  1  0
  1 19  1  0
  1 20  1  0
  2 21  1  0
  2 22  1  0
  5 23  1  0
  8 24  1  0
  8 25  1  0
  8 26  1  0
  9 27  1  0
 10 28  1  0
 13 29  1  0
 14 30  1  0
 16 31  1  0
 16 32  1  0
 16 33  1  0
M  END
>  <smiles>  (40) 
CCOc1cc(OC)ccc1-c1c[nH]c(C)n1

>  <score_type>  (40) 
oracle

>  <origin>  (40) 
adg

>  <m_score__min__energy>  (40) 
-6.0800000000000001

>  <m_primary>  (40) 
energy

$$$$
40:0
     RDKit          3D

 48 50  0  0  0  0  0  0  0  0999 V2000
   -6.4780   25.6940  -29.3950 C   0  0  0  0  0  0  0  0  0  0  0  0
   -5.3330   24.8480  -29.8260 C   0  0  0  0  0  0  0  0  0  0  0  0
   -4.7050   25.1080  -30.8980 O   0  0  0  0  0  0  0  0  0  0  0  0
   -4.8820   23.7260  -29.0880 N   0  0  0  0  0  0  0  0  0  0  0  0
   -3.7890   22.9070  -29.4880 C   0  0  0  0  0  0  0  0  0  0  0  0
   -2.5850   23.5470  -29.7180 C   0  0  0  0  0  0  0  0  0  0  0  0
   -1.4860   22.7920  -30.1090 C   0  0  0  0  0  0  0  0  0  0  0  0
   -1.5500   21.4230  -30.2790 C   0  0  0  0  0  0  0  0  0  0  0  0
   -0.4030   20.7270  -30.6750 O   0  0  0  0  0  0  0  0  0  0  0  0
    0.0370   20.9500  -31.9910 C   0  0  0  0  0  0  0  0  0  0  0  0
   -0.7820   20.1070  -32.9500 C   0  0  0  0  0  0  0  0  0  0  0  0
   -1.6180   20.9620  -33.7350 N   0  0  0  0  0  0  0  0  0  0  0  0
   -3.0210   20.9870  -33.4020 C   0  0  0  0  0  0  0  0  0  0  0  0
   -3.6180   22.1620  -32.9900 C   0  0  0  0  0  0  0  0  0  0  0  0
   -4.9650   22.2330  -32.6600 C   0  0  0  0  0  0  0  0  0  0  0  0
   -5.7380   21.0700  -32.7500 C   0  0  0  0  0  0  0  0  0  0  0  0
   -7.1760   21.0970  -32.4090 C   0  0  0  0  0  0  0  0  0  0  0  0
   -7.9430   19.9700  -32.6140 C   0  0  0  0  0  0  0  0  0  0  0  0
   -9.2890   19.9610  -32.3050 C   0  0  0  0  0  0  0  0  0  0  0  0
   -9.8320   21.1170  -31.7880 C   0  0  0  0  0  0  0  0  0  0  0  0
   -9.0850   22.2650  -31.5740 C   0  0  0  0  0  0  0  0  0  0  0  0
   -7.7340   22.2660  -31.8850 C   0  0  0  0  0  0  0  0  0  0  0  0
   -5.1510   19.8760  -33.1650 C   0  0  0  0  0  0  0  0  0  0  0  0
   -3.7980   19.8350  -33.4890 C   0  0  0  0  0  0  0  0  0  0  0  0
   -2.7560   20.7930  -30.0460 C   0  0  0  0  0  0  0  0  0  0  0  0
   -3.8640   21.5510  -29.6520 C   0  0  0  0  0  0  0  0  0  0  0  0
   -6.5186   25.7240  -28.2962 H   0  0  0  0  0  0  0  0  0  0  0  0
   -6.3474   26.7142  -29.7851 H   0  0  0  0  0  0  0  0  0  0  0  0
   -7.4148   25.2695  -29.7851 H   0  0  0  0  0  0  0  0  0  0  0  0
   -5.3860   23.4920  -28.2000 H   0  0  0  0  0  0  0  0  0  0  0  0
   -2.4986   24.6365  -29.5934 H   0  0  0  0  0  0  0  0  0  0  0  0
   -0.5293   23.3038  -30.2899 H   0  0  0  0  0  0  0  0  0  0  0  0
   -0.0850   22.0139  -32.2427 H   0  0  0  0  0  0  0  0  0  0  0  0
    1.0980   20.6718  -32.0740 H   0  0  0  0  0  0  0  0  0  0  0  0
   -0.1078   19.5437  -33.6119 H   0  0  0  0  0  0  0  0  0  0  0  0
   -1.4063   19.4026  -32.3807 H   0  0  0  0  0  0  0  0  0  0  0  0
   -1.2890   21.5540  -34.5130 H   0  0  0  0  0  0  0  0  0  0  0  0
   -3.0055   23.0731  -32.9208 H   0  0  0  0  0  0  0  0  0  0  0  0
   -5.4146   23.1828  -32.3349 H   0  0  0  0  0  0  0  0  0  0  0  0
   -7.4762   19.0648  -33.0297 H   0  0  0  0  0  0  0  0  0  0  0  0
   -9.9050   19.0639  -32.4657 H   0  0  0  0  0  0  0  0  0  0  0  0
  -10.9023   21.1295  -31.5346 H   0  0  0  0  0  0  0  0  0  0  0  0
   -9.5600   23.1671  -31.1611 H   0  0  0  0  0  0  0  0  0  0  0  0
   -7.1179   23.1629  -31.7236 H   0  0  0  0  0  0  0  0  0  0  0  0
   -5.7594   18.9624  -33.2368 H   0  0  0  0  0  0  0  0  0  0  0  0
   -3.3410   18.8890  -33.8150 H   0  0  0  0  0  0  0  0  0  0  0  0
   -2.8452   19.7036  -30.1691 H   0  0  0  0  0  0  0  0  0  0  0  0
   -4.8221   21.0424  -29.4690 H   0  0  0  0  0  0  0  0  0  0  0  0
  1  2  1  0
  2  3  2  0
  2  4  1  0
  4  5  1  0
  5  6  2  0
  6  7  1  0
  7  8  2  0
  8  9  1  0
  9 10  1  0
 10 11  1  0
 11 12  1  0
 12 13  1  0
 13 14  2  0
 14 15  1  0
 15 16  2  0
 16 17  1  0
 17 18  2  0
 18 19  1  0
 19 20  2  0
 20 21  1  0
 21 22  2  0
 16 23  1  0
 23 24  2  0
  8 25  1  0
 25 26  2  0
 26  5  1  0
 24 13  1  0
 22 17  1  0
  1 27  1  0
  1 28  1  0
  1 29  1  0
  4 30  1  0
  6 31  1  0
  7 32  1  0
 10 33  1  0
 10 34  1  0
 11 35  1  0
 11 36  1  0
 12 37  1  0
 14 38  1  0
 15 39  1  0
 18 40  1  0
 19 41  1  0
 20 42  1  0
 21 43  1  0
 22 44  1  0
 23 45  1  0
 24 46  1  0
 25 47  1  0
 26 48  1  0
M  END
>  <smiles>  (41) 
CC(=O)Nc1ccc(OCCNc2ccc(-c3ccccc3)cc2)cc1

>  <score_type>  (41) 
oracle

>  <origin>  (41) 
adg

>  <m_score__min__energy>  (41) 
-9.3900000000000006

>  <m_primary>  (41) 
energy

$$$$
41:0
     RDKit          3D

 52 55  0  0  0  0  0  0  0  0999 V2000
   -3.4190   20.8630  -31.2160 C   0  0  0  0  0  0  0  0  0  0  0  0
   -2.9530   22.2900  -31.5240 C   0  0  0  0  0  0  0  0  0  0  0  0
   -2.1990   22.7510  -30.3160 C   0  0  0  0  0  0  0  0  0  0  0  0
   -2.3200   24.1310  -30.0510 O   0  0  0  0  0  0  0  0  0  0  0  0
   -2.3570   24.5130  -28.7250 C   0  0  0  0  0  0  0  0  0  0  0  0
   -1.2320   24.8780  -28.0040 C   0  0  0  0  0  0  0  0  0  0  0  0
   -1.2830   25.2590  -26.6770 C   0  0  0  0  0  0  0  0  0  0  0  0
   -2.4850   25.2850  -26.0170 C   0  0  0  0  0  0  0  0  0  0  0  0
   -3.6100   24.9230  -26.7260 C   0  0  0  0  0  0  0  0  0  0  0  0
   -3.5630   24.5420  -28.0570 C   0  0  0  0  0  0  0  0  0  0  0  0
   -4.8020   24.1950  -28.6610 N   0  0  0  0  0  0  0  0  0  0  0  0
   -5.7670   25.1830  -29.1150 C   0  0  0  0  0  0  0  0  0  0  0  0
   -5.9920   25.0760  -30.5990 C   0  0  0  0  0  0  0  0  0  0  0  0
   -5.9510   23.7170  -30.9990 N   0  0  0  0  0  0  0  0  0  0  0  0
   -6.4380   23.4120  -32.3020 C   0  0  0  0  0  0  0  0  0  0  0  0
   -7.5870   22.4750  -32.1840 C   0  0  0  0  0  0  0  0  0  0  0  0
   -8.9260   22.8050  -31.9450 C   0  0  0  0  0  0  0  0  0  0  0  0
   -9.6160   21.6520  -31.9160 N   0  0  0  0  0  0  0  0  0  0  0  0
   -8.7800   20.6090  -32.1240 C   0  0  0  0  0  0  0  0  0  0  0  0
   -9.0590   19.2580  -32.1750 C   0  0  0  0  0  0  0  0  0  0  0  0
   -8.0400   18.3560  -32.4010 C   0  0  0  0  0  0  0  0  0  0  0  0
   -6.7720   18.8740  -32.5670 C   0  0  0  0  0  0  0  0  0  0  0  0
   -6.5550   20.2320  -32.5070 C   0  0  0  0  0  0  0  0  0  0  0  0
   -7.5530   21.1230  -32.2840 N   0  0  0  0  0  0  0  0  0  0  0  0
   -6.1840   22.7460  -29.9870 C   0  0  0  0  0  0  0  0  0  0  0  0
   -5.1760   22.7980  -28.8590 C   0  0  0  0  0  0  0  0  0  0  0  0
   -3.4658   20.7197  -30.1264 H   0  0  0  0  0  0  0  0  0  0  0  0
   -4.4166   20.7013  -31.6503 H   0  0  0  0  0  0  0  0  0  0  0  0
   -2.7091   20.1437  -31.6503 H   0  0  0  0  0  0  0  0  0  0  0  0
   -2.2980   22.2952  -32.4077 H   0  0  0  0  0  0  0  0  0  0  0  0
   -3.8039   22.9518  -31.7431 H   0  0  0  0  0  0  0  0  0  0  0  0
   -2.5749   22.1977  -29.4427 H   0  0  0  0  0  0  0  0  0  0  0  0
   -1.1344   22.5595  -30.5157 H   0  0  0  0  0  0  0  0  0  0  0  0
   -0.2554   24.8639  -28.5101 H   0  0  0  0  0  0  0  0  0  0  0  0
   -0.3598   25.5414  -26.1499 H   0  0  0  0  0  0  0  0  0  0  0  0
   -2.5488   25.5839  -24.9603 H   0  0  0  0  0  0  0  0  0  0  0  0
   -4.5839   24.9372  -26.2147 H   0  0  0  0  0  0  0  0  0  0  0  0
   -6.7217   25.0191  -28.5938 H   0  0  0  0  0  0  0  0  0  0  0  0
   -5.3729   26.1855  -28.8920 H   0  0  0  0  0  0  0  0  0  0  0  0
   -6.9756   25.5000  -30.8498 H   0  0  0  0  0  0  0  0  0  0  0  0
   -5.2012   25.6311  -31.1249 H   0  0  0  0  0  0  0  0  0  0  0  0
   -6.7663   24.3370  -32.7986 H   0  0  0  0  0  0  0  0  0  0  0  0
   -5.6388   22.9460  -32.8971 H   0  0  0  0  0  0  0  0  0  0  0  0
   -9.3359   23.8164  -31.8070 H   0  0  0  0  0  0  0  0  0  0  0  0
  -10.0904   18.9019  -32.0359 H   0  0  0  0  0  0  0  0  0  0  0  0
   -8.2297   17.2734  -32.4468 H   0  0  0  0  0  0  0  0  0  0  0  0
   -5.9260   18.1950  -32.7491 H   0  0  0  0  0  0  0  0  0  0  0  0
   -5.5312   20.6097  -32.6455 H   0  0  0  0  0  0  0  0  0  0  0  0
   -7.1864   22.9145  -29.5666 H   0  0  0  0  0  0  0  0  0  0  0  0
   -6.0914   21.7568  -30.4592 H   0  0  0  0  0  0  0  0  0  0  0  0
   -5.6235   22.3960  -27.9381 H   0  0  0  0  0  0  0  0  0  0  0  0
   -4.2906   22.1938  -29.1059 H   0  0  0  0  0  0  0  0  0  0  0  0
  1  2  1  0
  2  3  1  0
  3  4  1  0
  4  5  1  0
  5  6  2  0
  6  7  1  0
  7  8  2  0
  8  9  1  0
  9 10  2  0
 10 11  1  0
 11 12  1  0
 12 13  1  0
 13 14  1  0
 14 15  1  0
 15 16  1  0
 16 17  2  0
 17 18  1  0
 18 19  2  0
 19 20  1  0
 20 21  2  0
 21 22  1  0
 22 23  2  0
 23 24  1  0
 14 25  1  0
 25 26  1  0
 10  5  1  0
 26 11  1  0
 24 16  1  0
 24 19  1  0
  1 27  1  0
  1 28  1  0
  1 29  1  0
  2 30  1  0
  2 31  1  0
  3 32  1  0
  3 33  1  0
  6 34  1  0
  7 35  1  0
  8 36  1  0
  9 37  1  0
 12 38  1  0
 12 39  1  0
 13 40  1  0
 13 41  1  0
 15 42  1  0
 15 43  1  0
 17 44  1  0
 20 45  1  0
 21 46  1  0
 22 47  1  0
 23 48  1  0
 25 49  1  0
 25 50  1  0
 26 51  1  0
 26 52  1  0
M  END
>  <smiles>  (42) 
CCCOc1ccccc1N1CCN(Cc2cnc3ccccn23)CC1

>  <score_type>  (42) 
oracle

>  <origin>  (42) 
adg

>  <m_score__min__energy>  (42) 
-8.9700000000000006

>  <m_primary>  (42) 
energy

$$$$
42:0
     RDKit          3D

 54 56  0  0  1  0  0  0  0  0999 V2000
   -5.7040   25.7860  -30.0760 C   0  0  0  0  0  0  0  0  0  0  0  0
   -5.2540   25.0130  -31.1710 O   0  0  0  0  0  0  0  0  0  0  0  0
   -6.4010   24.2870  -31.5570 C   0  0  0  0  0  0  0  0  0  0  0  0
   -6.3840   22.8710  -31.0190 C   0  0  0  0  0  0  0  0  0  0  0  0
   -5.4880   22.0120  -31.7850 N   0  0  0  0  0  0  0  0  0  0  0  0
   -4.1880   22.2460  -32.0250 C   0  0  0  0  0  0  0  0  0  0  0  0
   -3.5230   23.3700  -31.5560 O   0  0  0  0  0  0  0  0  0  0  0  0
   -3.6530   21.2160  -32.7910 C   0  0  0  0  0  0  0  0  0  0  0  0
   -2.2790   21.1170  -33.2380 C   0  0  0  0  0  0  0  0  0  0  0  0
   -1.5670   20.0850  -33.0350 N   0  0  0  0  0  0  0  0  0  0  0  0
   -1.4920   19.3040  -31.8290 C   0  0  0  0  0  0  0  0  0  0  0  0
   -0.5040   19.9390  -30.8770 C   0  0  0  0  0  0  0  0  0  0  0  0
   -1.1440   20.9760  -30.1460 N   0  0  0  0  0  0  0  0  0  0  0  0
   -2.5290   20.8120  -29.8490 C   0  0  0  0  0  0  0  0  0  0  0  0
   -2.8640   21.7580  -28.7170 C   0  0  0  0  0  0  0  0  0  0  0  0
   -2.4120   23.0820  -28.8600 N   0  0  0  0  0  0  0  0  0  0  0  0
   -3.3410   24.0280  -28.9180 O   0  0  0  0  0  0  0  0  0  0  0  0
   -4.1720   24.1210  -27.8100 C   0  0  0  0  0  0  0  0  0  0  0  0
   -1.2400   23.3000  -29.6120 C   0  0  0  0  0  0  0  0  0  0  0  0
   -0.9870   22.2970  -30.7080 C   0  0  0  0  0  0  0  0  0  0  0  0
   -4.6840   20.3260  -33.0140 C   0  0  0  0  0  0  0  0  0  0  0  0
   -4.7700   19.1290  -33.6890 C   0  0  0  0  0  0  0  0  0  0  0  0
   -5.9900   18.4490  -33.7260 C   0  0  0  0  0  0  0  0  0  0  0  0
   -6.0680   16.9360  -34.5820 Cl  0  0  0  0  0  0  0  0  0  0  0  0
   -7.0880   18.9830  -33.0900 C   0  0  0  0  0  0  0  0  0  0  0  0
   -7.0220   20.1900  -32.4050 C   0  0  0  0  0  0  0  0  0  0  0  0
   -5.8040   20.8350  -32.3870 C   0  0  0  0  0  0  0  0  0  0  0  0
   -5.4166   25.2923  -29.1360 H   0  0  0  0  0  0  0  0  0  0  0  0
   -5.2465   26.7854  -30.1201 H   0  0  0  0  0  0  0  0  0  0  0  0
   -6.7989   25.8817  -30.1201 H   0  0  0  0  0  0  0  0  0  0  0  0
   -7.2935   24.8023  -31.1725 H   0  0  0  0  0  0  0  0  0  0  0  0
   -6.4151   24.2329  -32.6556 H   0  0  0  0  0  0  0  0  0  0  0  0
   -6.0484   22.8919  -29.9716 H   0  0  0  0  0  0  0  0  0  0  0  0
   -7.4020   22.4621  -31.0995 H   0  0  0  0  0  0  0  0  0  0  0  0
   -3.6550   23.6520  -30.5960 H   0  0  0  0  0  0  0  0  0  0  0  0
   -1.8348   21.9686  -33.7741 H   0  0  0  0  0  0  0  0  0  0  0  0
   -2.4840   19.2649  -31.3554 H   0  0  0  0  0  0  0  0  0  0  0  0
   -1.1614   18.2837  -32.0733 H   0  0  0  0  0  0  0  0  0  0  0  0
   -0.1278   19.1773  -30.1783 H   0  0  0  0  0  0  0  0  0  0  0  0
    0.3352   20.3606  -31.4497 H   0  0  0  0  0  0  0  0  0  0  0  0
   -3.1348   21.0556  -30.7343 H   0  0  0  0  0  0  0  0  0  0  0  0
   -2.7443   19.7720  -29.5627 H   0  0  0  0  0  0  0  0  0  0  0  0
   -3.9590   21.7862  -28.6161 H   0  0  0  0  0  0  0  0  0  0  0  0
   -2.3382   21.3609  -27.8361 H   0  0  0  0  0  0  0  0  0  0  0  0
   -3.5688   24.0535  -26.8926 H   0  0  0  0  0  0  0  0  0  0  0  0
   -4.7030   25.0842  -27.8297 H   0  0  0  0  0  0  0  0  0  0  0  0
   -4.9027   23.2990  -27.8297 H   0  0  0  0  0  0  0  0  0  0  0  0
   -1.3109   24.2966  -30.0721 H   0  0  0  0  0  0  0  0  0  0  0  0
   -0.4013   23.2011  -28.9071 H   0  0  0  0  0  0  0  0  0  0  0  0
   -1.7101   22.4444  -31.5237 H   0  0  0  0  0  0  0  0  0  0  0  0
    0.0272   22.4221  -31.1151 H   0  0  0  0  0  0  0  0  0  0  0  0
   -3.8865   18.7120  -34.1944 H   0  0  0  0  0  0  0  0  0  0  0  0
   -8.0436   18.4393  -33.1251 H   0  0  0  0  0  0  0  0  0  0  0  0
   -7.9029   20.6122  -31.8993 H   0  0  0  0  0  0  0  0  0  0  0  0
  1  2  1  0
  2  3  1  0
  3  4  1  0
  4  5  1  0
  5  6  1  0
  6  7  1  0
  6  8  2  0
  8  9  1  0
  9 10  2  0
 10 11  1  0
 11 12  1  0
 12 13  1  0
 13 14  1  0
 14 15  1  0
 15 16  1  0
 16 17  1  0
 17 18  1  0
 16 19  1  0
 19 20  1  0
  8 21  1  0
 21 22  2  0
 22 23  1  0
 23 24  1  0
 23 25  2  0
 25 26  1  0
 26 27  2  0
 27  5  1  0
 20 13  1  0
 27 21  1  0
  1 28  1  0
  1 29  1  0
  1 30  1  0
  3 31  1  0
  3 32  1  0
  4 33  1  0
  4 34  1  0
  7 35  1  0
  9 36  1  0
 11 37  1  0
 11 38  1  0
 12 39  1  0
 12 40  1  0
 14 41  1  0
 14 42  1  0
 15 43  1  0
 15 44  1  0
 18 45  1  0
 18 46  1  0
 18 47  1  0
 19 48  1  0
 19 49  1  0
 20 50  1  0
 20 51  1  0
 22 52  1  0
 25 53  1  0
 26 54  1  0
M  END
>  <smiles>  (43) 
COCCn1c(O)c(C=NCCN2CCN(OC)CC2)c2cc(Cl)ccc21

>  <score_type>  (43) 
oracle

>  <origin>  (43) 
adg

>  <m_score__min__energy>  (43) 
-8.5700000000000003

>  <m_primary>  (43) 
energy

$$$$
