0:0
     RDKit          3D

 50 52  0  0  0  0  0  0  0  0999 V2000
   -6.0970   24.3820  -29.7260 C   0  0  0  0  0  0  0  0  0  0  0  0
   -5.3600   25.4020  -30.5870 C   0  0  0  0  0  0  0  0  0  0  0  0
   -3.9460   25.2510  -30.4530 O   0  0  0  0  0  0  0  0  0  0  0  0
   -3.2500   24.0310  -30.4690 C   0  0  0  0  0  0  0  0  0  0  0  0
   -2.1850   23.7520  -29.5940 C   0  0  0  0  0  0  0  0  0  0  0  0
   -1.5240   22.5240  -29.6590 C   0  0  0  0  0  0  0  0  0  0  0  0
   -1.9120   21.5610  -30.5990 C   0  0  0  0  0  0  0  0  0  0  0  0
   -2.9840   21.8190  -31.4740 C   0  0  0  0  0  0  0  0  0  0  0  0
   -3.6500   23.0600  -31.3940 C   0  0  0  0  0  0  0  0  0  0  0  0
   -3.3630   20.7120  -32.4480 C   0  0  1  0  0  0  0  0  0  0  0  0
   -4.5310   21.0510  -33.4150 C   0  0  0  0  0  0  0  0  0  0  0  0
   -5.8300   20.3710  -33.0440 C   0  0  0  0  0  0  0  0  0  0  0  0
   -5.9620   18.9750  -33.1590 C   0  0  0  0  0  0  0  0  0  0  0  0
   -7.1600   18.3470  -32.8060 C   0  0  0  0  0  0  0  0  0  0  0  0
   -8.2300   19.1020  -32.3190 C   0  0  0  0  0  0  0  0  0  0  0  0
   -9.3910   18.4900  -31.9750 F   0  0  0  0  0  0  0  0  0  0  0  0
   -8.1010   20.4860  -32.1780 C   0  0  0  0  0  0  0  0  0  0  0  0
   -6.9050   21.1190  -32.5300 C   0  0  0  0  0  0  0  0  0  0  0  0
   -2.0830   20.1200  -33.1400 C   0  0  1  0  0  0  0  0  0  0  0  0
   -1.6370   20.8540  -34.3530 N   0  0  0  0  0  0  0  0  0  0  0  0
   -0.3750   20.3800  -34.9730 C   0  0  0  0  0  0  0  0  0  0  0  0
    0.4570   21.5120  -35.5020 C   0  0  0  0  0  0  0  0  0  0  0  0
    0.2930   22.6790  -35.0580 O   0  0  0  0  0  0  0  0  0  0  0  0
    1.3990   21.2820  -36.4960 O   0  0  0  0  0  0  0  0  0  0  0  0
   -0.8950   19.8760  -32.1480 C   0  0  0  0  0  0  0  0  0  0  0  0
   -1.2050   20.2340  -30.6850 C   0  0  0  0  0  0  0  0  0  0  0  0
   -5.9312   24.6114  -28.6630 H   0  0  0  0  0  0  0  0  0  0  0  0
   -7.1737   24.4254  -29.9469 H   0  0  0  0  0  0  0  0  0  0  0  0
   -5.7177   23.3734  -29.9469 H   0  0  0  0  0  0  0  0  0  0  0  0
   -5.6403   25.2545  -31.6404 H   0  0  0  0  0  0  0  0  0  0  0  0
   -5.6400   26.4124  -30.2544 H   0  0  0  0  0  0  0  0  0  0  0  0
   -1.8715   24.5044  -28.8553 H   0  0  0  0  0  0  0  0  0  0  0  0
   -0.6944   22.3118  -28.9686 H   0  0  0  0  0  0  0  0  0  0  0  0
   -4.4947   23.2672  -32.0674 H   0  0  0  0  0  0  0  0  0  0  0  0
   -3.8063   19.9044  -31.8469 H   0  0  0  0  0  0  0  0  0  0  0  0
   -4.6904   22.1393  -33.4023 H   0  0  0  0  0  0  0  0  0  0  0  0
   -4.2450   20.6861  -34.4125 H   0  0  0  0  0  0  0  0  0  0  0  0
   -5.1179   18.3744  -33.5287 H   0  0  0  0  0  0  0  0  0  0  0  0
   -7.2604   17.2567  -32.9118 H   0  0  0  0  0  0  0  0  0  0  0  0
   -8.9421   21.0789  -31.7893 H   0  0  0  0  0  0  0  0  0  0  0  0
   -6.8041   22.2071  -32.4044 H   0  0  0  0  0  0  0  0  0  0  0  0
   -2.4186   19.1344  -33.4950 H   0  0  0  0  0  0  0  0  0  0  0  0
   -2.3990   20.7610  -35.0670 H   0  0  0  0  0  0  0  0  0  0  0  0
   -1.5990   21.8770  -34.1480 H   0  0  0  0  0  0  0  0  0  0  0  0
    0.2085   19.8349  -34.2164 H   0  0  0  0  0  0  0  0  0  0  0  0
   -0.6384   19.7298  -35.8203 H   0  0  0  0  0  0  0  0  0  0  0  0
   -0.6238   18.8108  -32.1914 H   0  0  0  0  0  0  0  0  0  0  0  0
   -0.0782   20.5400  -32.4672 H   0  0  0  0  0  0  0  0  0  0  0  0
   -1.8476   19.4539  -30.2509 H   0  0  0  0  0  0  0  0  0  0  0  0
   -0.2579   20.3017  -30.1296 H   0  0  0  0  0  0  0  0  0  0  0  0
  1  2  1  0
  2  3  1  0
  3  4  1  0
  4  5  2  0
  5  6  1  0
  6  7  2  0
  7  8  1  0
  8  9  2  0
  8 10  1  0
 10 11  1  0
 11 12  1  0
 12 13  2  0
 13 14  1  0
 14 15  2  0
 15 16  1  0
 15 17  1  0
 17 18  2  0
 10 19  1  0
 19 20  1  0
 20 21  1  0
 21 22  1  0
 22 23  2  0
 22 24  1  0
 19 25  1  0
 25 26  1  0
  9  4  1  0
 18 12  1  0
 26  7  1  0
  1 27  1  0
  1 28  1  0
  1 29  1  0
  2 30  1  0
  2 31  1  0
  5 32  1  0
  6 33  1  0
  9 34  1  0
 10 35  1  1
 11 36  1  0
 11 37  1  0
 13 38  1  0
 14 39  1  0
 17 40  1  0
 18 41  1  0
 19 42  1  6
 20 43  1  0
 20 44  1  0
 21 45  1  0
 21 46  1  0
 25 47  1  0
 25 48  1  0
 26 49  1  0
 26 50  1  0
M  CHG  2  20   1  24  -1
M  END
>  <UniqueID>  (1) 
1

>  <SMILES>  (1) 
CCOc1ccc2c(c1)[C@@H](Cc1ccc(F)cc1)[C@@H]([NH2+]CC(=O)[O-])CC2

>  <Energy>  (1) 
66.05574869282354

>  <Genealogy>  (1) 
CCOc1ccc2c(c1)C(Cc1ccc(F)cc1)C([NH2+]CC(=O)[O-])CC2 (protonated)
CCOc1ccc2c(c1)[C@@H](Cc1ccc(F)cc1)[C@@H]([NH2+]CC(=O)[O-])CC2 (chirality)
CCOc1ccc2c(c1)[C@@H](Cc1ccc(F)cc1)[C@@H]([NH2+]CC(=O)[O-])CC2 (3D coordinates assigned)
CCOc1ccc2c(c1)[C@@H](Cc1ccc(F)cc1)[C@@H]([NH2+]CC(=O)[O-])CC2 (nonaromatic ring conformer: 66.05574869282354 kcal/mol)

>  <smiles>  (1) 
CCOc1ccc2c(c1)C(Cc1ccc(F)cc1)C(NCC(=O)O)CC2

>  <score_type>  (1) 
oracle

>  <origin>  (1) 
adg

>  <m_score__min__energy>  (1) 
-9.4700000000000006

>  <m_primary>  (1) 
energy

$$$$
1:0
     RDKit          3D

 33 35  0  0  0  0  0  0  0  0999 V2000
   -5.6495   25.6654  -32.0009 H   0  0  0  0  0  0  0  0  0  0  0  0
   -5.7260   24.9100  -31.2050 C   0  0  0  0  0  0  0  0  0  0  0  0
   -5.5670   25.3190  -29.9390 C   0  0  0  0  0  0  0  0  0  0  0  0
   -5.9287   26.3230  -29.6724 H   0  0  0  0  0  0  0  0  0  0  0  0
   -4.9270   24.4940  -28.8630 C   0  0  0  0  0  0  0  0  0  0  0  0
   -5.2267   24.8803  -27.8776 H   0  0  0  0  0  0  0  0  0  0  0  0
   -5.2520   23.4477  -28.9610 H   0  0  0  0  0  0  0  0  0  0  0  0
   -3.8327   24.5487  -28.9610 H   0  0  0  0  0  0  0  0  0  0  0  0
   -5.9970   23.5140  -31.6050 C   0  0  0  0  0  0  0  0  0  0  0  0
   -5.0040   22.7200  -32.2230 C   0  0  0  0  0  0  0  0  0  0  0  0
   -3.9983   23.1307  -32.3959 H   0  0  0  0  0  0  0  0  0  0  0  0
   -5.3040   21.4080  -32.6150 C   0  0  0  0  0  0  0  0  0  0  0  0
   -4.5378   20.7693  -33.0786 H   0  0  0  0  0  0  0  0  0  0  0  0
   -6.5660   20.9440  -32.4080 N   0  0  0  0  0  0  0  0  0  0  0  0
   -7.1200   19.7440  -32.6660 C   0  0  0  0  0  0  0  0  0  0  0  0
   -6.4380   18.6100  -33.3240 C   0  0  0  0  0  0  0  0  0  0  0  0
   -5.8030   18.8060  -34.5110 N   0  0  0  0  0  0  0  0  0  0  0  0
   -5.1660   17.7890  -35.1470 C   0  0  0  0  0  0  0  0  0  0  0  0
   -4.6604   17.9717  -36.1067 H   0  0  0  0  0  0  0  0  0  0  0  0
   -5.1530   16.5450  -34.5980 N   0  0  0  0  0  0  0  0  0  0  0  0
   -5.7700   16.3020  -33.4130 C   0  0  0  0  0  0  0  0  0  0  0  0
   -5.7510   15.2910  -32.9799 H   0  0  0  0  0  0  0  0  0  0  0  0
   -6.4280   17.3350  -32.7450 C   0  0  0  0  0  0  0  0  0  0  0  0
   -6.9288   17.1517  -31.7829 H   0  0  0  0  0  0  0  0  0  0  0  0
   -8.4450   19.8080  -32.2390 C   0  0  0  0  0  0  0  0  0  0  0  0
   -9.4750   18.7290  -32.3350 C   0  0  0  0  0  0  0  0  0  0  0  0
   -9.7736   18.4161  -31.3236 H   0  0  0  0  0  0  0  0  0  0  0  0
  -10.3543   19.1086  -32.8760 H   0  0  0  0  0  0  0  0  0  0  0  0
   -9.0550   17.8682  -32.8760 H   0  0  0  0  0  0  0  0  0  0  0  0
   -8.7050   21.0270  -31.7080 N   0  0  0  0  0  0  0  0  0  0  0  0
   -7.5340   21.6830  -31.8350 C   0  0  0  0  0  0  0  0  0  0  0  0
   -7.2920   22.9920  -31.4260 C   0  0  0  0  0  0  0  0  0  0  0  0
   -8.0900   23.6007  -30.9759 H   0  0  0  0  0  0  0  0  0  0  0  0
  1  2  1  0
  2  3  2  0
  3  4  1  0
  3  5  1  0
  5  6  1  0
  5  7  1  0
  5  8  1  0
  2  9  1  0
  9 10  1  0
 10 11  1  0
 10 12  2  0
 12 13  1  0
 12 14  1  0
 14 15  1  0
 15 16  1  0
 16 17  2  0
 17 18  1  0
 18 19  1  0
 18 20  2  0
 20 21  1  0
 21 22  1  0
 21 23  2  0
 23 24  1  0
 15 25  2  0
 25 26  1  0
 26 27  1  0
 26 28  1  0
 26 29  1  0
 25 30  1  0
 30 31  2  0
 31 32  1  0
 32 33  1  0
 32  9  2  0
 31 14  1  0
 23 16  1  0
M  END
>  <UniqueID>  (2) 
2

>  <SMILES>  (2) 
C/C=C\c1ccn2c(-c3ccncn3)c(C)nc2c1

>  <Energy>  (2) 
79.17534146892484

>  <Genealogy>  (2) 
C/C=C\c1ccn2c(-c3ccncn3)c(C)nc2c1 (cis-trans isomerization)
C/C=C\c1ccn2c(-c3ccncn3)c(C)nc2c1 (3D coordinates assigned)
C/C=C\c1ccn2c(-c3ccncn3)c(C)nc2c1 (optimized conformer: 79.17534146892484 kcal/mol)

>  <smiles>  (2) 
CC=Cc1ccn2c(-c3ccncn3)c(C)nc2c1

>  <score_type>  (2) 
oracle

>  <origin>  (2) 
adg

>  <m_score__min__energy>  (2) 
-7.2000000000000002

>  <m_primary>  (2) 
energy

$$$$
2:0
     RDKit          3D

 50 52  0  0  0  0  0  0  0  0999 V2000
    0.2630   22.2120  -35.7290 C   0  0  0  0  0  0  0  0  0  0  0  0
    0.0190   20.8060  -35.1810 C   0  0  0  0  0  0  0  0  0  0  0  0
    1.2020   20.3670  -34.3020 C   0  0  0  0  0  0  0  0  0  0  0  0
   -1.2500   20.8040  -34.4220 N   0  0  0  0  0  0  0  0  0  0  0  0
   -1.0890   21.1740  -33.0070 C   0  0  0  0  0  0  0  0  0  0  0  0
   -2.4250   21.5350  -32.3470 C   0  0  0  0  0  0  0  0  0  0  0  0
   -3.5010   21.5160  -33.3350 N   0  0  0  0  0  0  0  0  0  0  0  0
   -4.8140   21.0370  -33.0010 C   0  0  0  0  0  0  0  0  0  0  0  0
   -5.7790   21.9220  -32.4930 C   0  0  0  0  0  0  0  0  0  0  0  0
   -7.0780   21.4550  -32.2200 C   0  0  0  0  0  0  0  0  0  0  0  0
   -7.3800   20.1130  -32.3220 N   0  0  0  0  0  0  0  0  0  0  0  0
   -8.6480   19.6070  -31.7580 C   0  0  0  0  0  0  0  0  0  0  0  0
   -6.4780   19.2490  -32.9170 C   0  0  0  0  0  0  0  0  0  0  0  0
   -6.8330   17.9190  -33.2600 C   0  0  0  0  0  0  0  0  0  0  0  0
   -5.8910   17.0380  -33.7970 C   0  0  0  0  0  0  0  0  0  0  0  0
   -6.3560   15.3950  -34.2000 Cl  0  0  0  0  0  0  0  0  0  0  0  0
   -4.5850   17.4610  -34.0150 C   0  0  0  0  0  0  0  0  0  0  0  0
   -4.2200   18.7750  -33.7360 C   0  0  0  0  0  0  0  0  0  0  0  0
   -5.1630   19.6920  -33.2240 C   0  0  0  0  0  0  0  0  0  0  0  0
   -8.1200   22.5210  -31.9130 C   0  0  0  0  0  0  0  0  0  0  0  0
   -7.6190   23.4750  -30.8170 C   0  0  0  0  0  0  0  0  0  0  0  0
   -6.1370   23.8930  -30.9830 C   0  0  0  0  0  0  0  0  0  0  0  0
   -5.4970   23.3970  -32.2900 C   0  0  0  0  0  0  0  0  0  0  0  0
    0.3851   22.9156  -34.8923 H   0  0  0  0  0  0  0  0  0  0  0  0
    1.1747   22.2125  -36.3445 H   0  0  0  0  0  0  0  0  0  0  0  0
   -0.5952   22.5197  -36.3445 H   0  0  0  0  0  0  0  0  0  0  0  0
   -0.0615   20.0853  -36.0081 H   0  0  0  0  0  0  0  0  0  0  0  0
    0.9283   20.4686  -33.2414 H   0  0  0  0  0  0  0  0  0  0  0  0
    1.4495   19.3172  -34.5179 H   0  0  0  0  0  0  0  0  0  0  0  0
    2.0744   21.0012  -34.5179 H   0  0  0  0  0  0  0  0  0  0  0  0
   -1.9800   21.4080  -34.8680 H   0  0  0  0  0  0  0  0  0  0  0  0
   -0.6453   20.3246  -32.4670 H   0  0  0  0  0  0  0  0  0  0  0  0
   -0.4395   22.0606  -32.9616 H   0  0  0  0  0  0  0  0  0  0  0  0
   -2.6471   20.8050  -31.5547 H   0  0  0  0  0  0  0  0  0  0  0  0
   -2.3507   22.5455  -31.9188 H   0  0  0  0  0  0  0  0  0  0  0  0
   -3.2480   21.6270  -34.3430 H   0  0  0  0  0  0  0  0  0  0  0  0
   -8.5950   19.6282  -30.6595 H   0  0  0  0  0  0  0  0  0  0  0  0
   -9.4795   20.2422  -32.0973 H   0  0  0  0  0  0  0  0  0  0  0  0
   -8.8138   18.5738  -32.0973 H   0  0  0  0  0  0  0  0  0  0  0  0
   -7.8660   17.5761  -33.1007 H   0  0  0  0  0  0  0  0  0  0  0  0
   -3.8383   16.7558  -34.4089 H   0  0  0  0  0  0  0  0  0  0  0  0
   -3.1854   19.1023  -33.9165 H   0  0  0  0  0  0  0  0  0  0  0  0
   -8.3257   23.0979  -32.8267 H   0  0  0  0  0  0  0  0  0  0  0  0
   -9.0361   22.0264  -31.5579 H   0  0  0  0  0  0  0  0  0  0  0  0
   -8.2399   24.3828  -30.8368 H   0  0  0  0  0  0  0  0  0  0  0  0
   -7.6948   22.9344  -29.8620 H   0  0  0  0  0  0  0  0  0  0  0  0
   -6.0820   24.9915  -30.9645 H   0  0  0  0  0  0  0  0  0  0  0  0
   -5.5783   23.4305  -30.1560 H   0  0  0  0  0  0  0  0  0  0  0  0
   -5.9134   23.9648  -33.1351 H   0  0  0  0  0  0  0  0  0  0  0  0
   -4.4087   23.5463  -32.2321 H   0  0  0  0  0  0  0  0  0  0  0  0
  1  2  1  0
  2  3  1  0
  2  4  1  0
  4  5  1  0
  5  6  1  0
  6  7  1  0
  7  8  1  0
  8  9  2  0
  9 10  1  0
 10 11  2  0
 11 12  1  0
 11 13  1  0
 13 14  2  0
 14 15  1  0
 15 16  1  0
 15 17  2  0
 17 18  1  0
 18 19  2  0
 10 20  1  0
 20 21  1  0
 21 22  1  0
 22 23  1  0
 19  8  1  0
 23  9  1  0
 19 13  1  0
  1 24  1  0
  1 25  1  0
  1 26  1  0
  2 27  1  0
  3 28  1  0
  3 29  1  0
  3 30  1  0
  4 31  1  0
  5 32  1  0
  5 33  1  0
  6 34  1  0
  6 35  1  0
  7 36  1  0
 12 37  1  0
 12 38  1  0
 12 39  1  0
 14 40  1  0
 17 41  1  0
 18 42  1  0
 20 43  1  0
 20 44  1  0
 21 45  1  0
 21 46  1  0
 22 47  1  0
 22 48  1  0
 23 49  1  0
 23 50  1  0
M  CHG  1  11   1
M  END
>  <UniqueID>  (3) 
3

>  <SMILES>  (3) 
CC(C)NCCNc1c2c([n+](C)c3cc(Cl)ccc13)CCCC2

>  <Energy>  (3) 
73.7871573481991

>  <Genealogy>  (3) 
CC(C)NCCNc1c2c([n+](C)c3cc(Cl)ccc13)CCCC2 (3D coordinates assigned)
CC(C)NCCNc1c2c([n+](C)c3cc(Cl)ccc13)CCCC2 (nonaromatic ring conformer: 73.7871573481991 kcal/mol)

>  <smiles>  (3) 
CC(C)NCCNc1c2c([n+](C)c3cc(Cl)ccc13)CCCC2

>  <score_type>  (3) 
oracle

>  <origin>  (3) 
adg

>  <m_score__min__energy>  (3) 
-8.8499999999999996

>  <m_primary>  (3) 
energy

$$$$
3:0
     RDKit          3D

 46 49  0  0  0  0  0  0  0  0999 V2000
   -4.6080   24.4700  -28.2560 C   0  0  0  0  0  0  0  0  0  0  0  0
   -5.7210   24.9560  -29.1760 C   0  0  0  0  0  0  0  0  0  0  0  0
   -6.0730   23.9100  -30.1480 N   0  0  0  0  0  0  0  0  0  0  0  0
   -7.2930   23.3550  -30.0910 N   0  0  0  0  0  0  0  0  0  0  0  0
   -7.6970   22.4010  -30.9770 C   0  0  0  0  0  0  0  0  0  0  0  0
   -6.8080   21.9660  -31.9710 C   0  0  0  0  0  0  0  0  0  0  0  0
   -5.5520   22.5640  -32.0540 C   0  0  0  0  0  0  0  0  0  0  0  0
   -5.1920   23.5430  -31.1320 C   0  0  0  0  0  0  0  0  0  0  0  0
   -4.0550   24.0830  -31.2190 O   0  0  0  0  0  0  0  0  0  0  0  0
   -7.2320   20.9540  -33.0090 C   0  0  0  0  0  0  0  0  0  0  0  0
   -8.3390   20.0940  -32.5430 N   0  0  0  0  0  0  0  0  0  0  0  0
   -7.8710   19.0610  -31.5920 C   0  0  0  0  0  0  0  0  0  0  0  0
   -6.8840   18.1360  -32.2430 C   0  0  0  0  0  0  0  0  0  0  0  0
   -7.2710   17.0320  -32.9360 N   0  0  0  0  0  0  0  0  0  0  0  0
   -6.1070   16.5400  -33.3980 C   0  0  0  0  0  0  0  0  0  0  0  0
   -5.9210   15.4160  -34.2000 C   0  0  0  0  0  0  0  0  0  0  0  0
   -4.6070   15.1080  -34.5990 C   0  0  0  0  0  0  0  0  0  0  0  0
   -3.5250   15.9230  -34.1950 C   0  0  0  0  0  0  0  0  0  0  0  0
   -3.7470   17.0540  -33.3880 C   0  0  0  0  0  0  0  0  0  0  0  0
   -5.0630   17.3250  -33.0020 C   0  0  0  0  0  0  0  0  0  0  0  0
   -5.5370   18.3340  -32.2540 N   0  0  0  0  0  0  0  0  0  0  0  0
   -4.7890   19.4700  -31.7140 C   0  0  0  0  0  0  0  0  0  0  0  0
   -9.4580   20.9160  -32.0310 C   0  0  0  0  0  0  0  0  0  0  0  0
   -9.0590   21.7740  -30.8210 C   0  0  0  0  0  0  0  0  0  0  0  0
   -4.9141   24.6036  -27.2079 H   0  0  0  0  0  0  0  0  0  0  0  0
   -4.4126   23.4046  -28.4479 H   0  0  0  0  0  0  0  0  0  0  0  0
   -3.6938   25.0508  -28.4479 H   0  0  0  0  0  0  0  0  0  0  0  0
   -6.6072   25.2046  -28.5736 H   0  0  0  0  0  0  0  0  0  0  0  0
   -5.3727   25.8468  -29.7193 H   0  0  0  0  0  0  0  0  0  0  0  0
   -7.9620   23.6570  -29.3460 H   0  0  0  0  0  0  0  0  0  0  0  0
   -4.8483   22.2639  -32.8444 H   0  0  0  0  0  0  0  0  0  0  0  0
   -7.5586   21.4907  -33.9119 H   0  0  0  0  0  0  0  0  0  0  0  0
   -6.3683   20.3044  -33.2142 H   0  0  0  0  0  0  0  0  0  0  0  0
   -7.3901   19.5537  -30.7341 H   0  0  0  0  0  0  0  0  0  0  0  0
   -8.7385   18.4707  -31.2618 H   0  0  0  0  0  0  0  0  0  0  0  0
   -6.7714   14.7912  -34.5105 H   0  0  0  0  0  0  0  0  0  0  0  0
   -4.4206   14.2265  -35.2300 H   0  0  0  0  0  0  0  0  0  0  0  0
   -2.5027   15.6713  -34.5136 H   0  0  0  0  0  0  0  0  0  0  0  0
   -2.9155   17.7013  -33.0724 H   0  0  0  0  0  0  0  0  0  0  0  0
   -4.8120   19.4350  -30.6148 H   0  0  0  0  0  0  0  0  0  0  0  0
   -3.7462   19.4205  -32.0607 H   0  0  0  0  0  0  0  0  0  0  0  0
   -5.2465   20.4084  -32.0607 H   0  0  0  0  0  0  0  0  0  0  0  0
   -9.8025   21.5817  -32.8360 H   0  0  0  0  0  0  0  0  0  0  0  0
  -10.2519   20.2287  -31.7033 H   0  0  0  0  0  0  0  0  0  0  0  0
   -9.8030   22.5746  -30.6965 H   0  0  0  0  0  0  0  0  0  0  0  0
   -9.0222   21.1132  -29.9424 H   0  0  0  0  0  0  0  0  0  0  0  0
  1  2  1  0
  2  3  1  0
  3  4  1  0
  4  5  2  0
  5  6  1  0
  6  7  2  0
  7  8  1  0
  8  9  2  0
  6 10  1  0
 10 11  1  0
 11 12  1  0
 12 13  1  0
 13 14  2  0
 14 15  1  0
 15 16  2  0
 16 17  1  0
 17 18  2  0
 18 19  1  0
 19 20  2  0
 20 21  1  0
 21 22  1  0
 11 23  1  0
 23 24  1  0
  8  3  1  0
 21 13  1  0
 24  5  1  0
 20 15  1  0
  1 25  1  0
  1 26  1  0
  1 27  1  0
  2 28  1  0
  2 29  1  0
  4 30  1  0
  7 31  1  0
 10 32  1  0
 10 33  1  0
 12 34  1  0
 12 35  1  0
 16 36  1  0
 17 37  1  0
 18 38  1  0
 19 39  1  0
 22 40  1  0
 22 41  1  0
 22 42  1  0
 23 43  1  0
 23 44  1  0
 24 45  1  0
 24 46  1  0
M  CHG  1   4   1
M  END
>  <UniqueID>  (4) 
4

>  <SMILES>  (4) 
CCn1[nH+]c2c(cc1=O)CN(Cc1nc3ccccc3n1C)CC2

>  <Energy>  (4) 
90.39793561568958

>  <Genealogy>  (4) 
CCn1[nH+]c2c(cc1=O)CN(Cc1nc3ccccc3n1C)CC2 (protonated)
CCn1[nH+]c2c(cc1=O)CN(Cc1nc3ccccc3n1C)CC2 (3D coordinates assigned)
CCn1[nH+]c2c(cc1=O)CN(Cc1nc3ccccc3n1C)CC2 (nonaromatic ring conformer: 90.39793561568958 kcal/mol)

>  <smiles>  (4) 
CCn1nc2c(cc1=O)CN(Cc1nc3ccccc3n1C)CC2

>  <score_type>  (4) 
oracle

>  <origin>  (4) 
adg

>  <m_score__min__energy>  (4) 
-7.8099999999999996

>  <m_primary>  (4) 
energy

$$$$
4:0
     RDKit          3D

 43 43  0  0  0  0  0  0  0  0999 V2000
   -8.7517   21.6145  -30.2430 H   0  0  0  0  0  0  0  0  0  0  0  0
   -8.4030   21.6650  -31.2850 C   0  0  0  0  0  0  0  0  0  0  0  0
   -8.2520   20.5080  -31.9650 C   0  0  0  0  0  0  0  0  0  0  0  0
   -9.4840   19.7230  -32.3320 C   0  0  0  0  0  0  0  0  0  0  0  0
   -9.9970   19.3961  -31.4155 H   0  0  0  0  0  0  0  0  0  0  0  0
  -10.1600   20.3572  -32.9243 H   0  0  0  0  0  0  0  0  0  0  0  0
   -9.1947   18.8423  -32.9243 H   0  0  0  0  0  0  0  0  0  0  0  0
   -6.8880   19.9790  -32.3590 C   0  0  0  0  0  0  0  0  0  0  0  0
   -6.1077   20.5967  -31.8904 H   0  0  0  0  0  0  0  0  0  0  0  0
   -6.7908   18.9374  -32.0190 H   0  0  0  0  0  0  0  0  0  0  0  0
   -6.7370   20.0280  -33.8190 N   0  0  0  0  0  0  0  0  0  0  0  0
   -7.6970   19.9980  -34.2360 H   0  0  0  0  0  0  0  0  0  0  0  0
   -5.9880   18.8680  -34.3220 C   0  0  0  0  0  0  0  0  0  0  0  0
   -6.1264   18.7918  -35.4106 H   0  0  0  0  0  0  0  0  0  0  0  0
   -4.9223   19.0016  -34.0844 H   0  0  0  0  0  0  0  0  0  0  0  0
   -6.4850   17.5850  -33.6610 C   0  0  0  0  0  0  0  0  0  0  0  0
   -6.4422   17.6956  -32.5674 H   0  0  0  0  0  0  0  0  0  0  0  0
   -7.5230   17.3918  -33.9696 H   0  0  0  0  0  0  0  0  0  0  0  0
   -5.8480   16.7430  -33.9696 H   0  0  0  0  0  0  0  0  0  0  0  0
   -8.1190   23.0240  -31.8780 C   0  0  0  0  0  0  0  0  0  0  0  0
   -8.9313   23.7137  -31.6050 H   0  0  0  0  0  0  0  0  0  0  0  0
   -8.0527   22.9252  -32.9715 H   0  0  0  0  0  0  0  0  0  0  0  0
   -6.8140   23.5690  -31.3620 C   0  0  0  0  0  0  0  0  0  0  0  0
   -5.6050   22.9370  -31.6880 C   0  0  0  0  0  0  0  0  0  0  0  0
   -5.6091   22.0559  -32.3465 H   0  0  0  0  0  0  0  0  0  0  0  0
   -4.3940   23.4200  -31.1810 C   0  0  0  0  0  0  0  0  0  0  0  0
   -3.4499   22.9257  -31.4535 H   0  0  0  0  0  0  0  0  0  0  0  0
   -4.3790   24.5380  -30.3220 C   0  0  0  0  0  0  0  0  0  0  0  0
   -3.2000   25.0730  -29.7760 O   0  0  0  0  0  0  0  0  0  0  0  0
   -2.2670   24.3950  -28.9310 C   0  0  0  0  0  0  0  0  0  0  0  0
   -1.5826   25.1335  -28.4881 H   0  0  0  0  0  0  0  0  0  0  0  0
   -1.7125   23.6666  -29.5409 H   0  0  0  0  0  0  0  0  0  0  0  0
   -2.9810   23.6390  -27.8060 C   0  0  0  0  0  0  0  0  0  0  0  0
   -2.2217   23.1883  -27.1500 H   0  0  0  0  0  0  0  0  0  0  0  0
   -3.6218   22.8787  -28.2765 H   0  0  0  0  0  0  0  0  0  0  0  0
   -3.8820   24.5350  -26.9620 C   0  0  0  0  0  0  0  0  0  0  0  0
   -3.6917   24.3458  -25.8952 H   0  0  0  0  0  0  0  0  0  0  0  0
   -3.6687   25.5895  -27.1911 H   0  0  0  0  0  0  0  0  0  0  0  0
   -4.9353   24.3158  -27.1911 H   0  0  0  0  0  0  0  0  0  0  0  0
   -5.5900   25.1580  -29.9940 C   0  0  0  0  0  0  0  0  0  0  0  0
   -5.5898   26.0343  -29.3291 H   0  0  0  0  0  0  0  0  0  0  0  0
   -6.8000   24.6760  -30.5020 C   0  0  0  0  0  0  0  0  0  0  0  0
   -7.7447   25.1673  -30.2258 H   0  0  0  0  0  0  0  0  0  0  0  0
  1  2  1  0
  2  3  2  0
  3  4  1  0
  4  5  1  0
  4  6  1  0
  4  7  1  0
  3  8  1  0
  8  9  1  0
  8 10  1  0
  8 11  1  0
 11 12  1  0
 11 13  1  0
 13 14  1  0
 13 15  1  0
 13 16  1  0
 16 17  1  0
 16 18  1  0
 16 19  1  0
  2 20  1  0
 20 21  1  0
 20 22  1  0
 20 23  1  0
 23 24  2  0
 24 25  1  0
 24 26  1  0
 26 27  1  0
 26 28  2  0
 28 29  1  0
 29 30  1  0
 30 31  1  0
 30 32  1  0
 30 33  1  0
 33 34  1  0
 33 35  1  0
 33 36  1  0
 36 37  1  0
 36 38  1  0
 36 39  1  0
 28 40  1  0
 40 41  1  0
 40 42  2  0
 42 43  1  0
 42 23  1  0
M  END
>  <UniqueID>  (5) 
5

>  <SMILES>  (5) 
CCCOc1ccc(C/C=C(/C)CNCC)cc1

>  <Energy>  (5) 
29.54974407154818

>  <Genealogy>  (5) 
CCCOc1ccc(C/C=C(/C)CNCC)cc1 (cis-trans isomerization)
CCCOc1ccc(C/C=C(/C)CNCC)cc1 (3D coordinates assigned)
CCCOc1ccc(C/C=C(/C)CNCC)cc1 (optimized conformer: 29.54974407154818 kcal/mol)

>  <smiles>  (5) 
CCCOc1ccc(CC=C(C)CNCC)cc1

>  <score_type>  (5) 
oracle

>  <origin>  (5) 
adg

>  <m_score__min__energy>  (5) 
-7.4500000000000002

>  <m_primary>  (5) 
energy

$$$$
5:0
     RDKit          3D

 44 46  0  0  0  0  0  0  0  0999 V2000
   -1.4190   24.9740  -25.7980 C   0  0  0  0  0  0  0  0  0  0  0  0
   -0.8390   23.8010  -26.5790 C   0  0  0  0  0  0  0  0  0  0  0  0
   -1.5100   23.6710  -27.8690 N   0  0  0  0  0  0  0  0  0  0  0  0
   -2.4900   24.4710  -28.3320 C   0  0  0  0  0  0  0  0  0  0  0  0
   -2.9150   23.9710  -29.5460 C   0  0  0  0  0  0  0  0  0  0  0  0
   -4.0170   24.4850  -30.3830 C   0  0  0  0  0  0  0  0  0  0  0  0
   -3.9820   25.6800  -30.7820 O   0  0  0  0  0  0  0  0  0  0  0  0
   -5.1220   23.6440  -30.7600 N   0  0  0  0  0  0  0  0  0  0  0  0
   -5.7860   22.8230  -29.7330 C   0  0  0  0  0  0  0  0  0  0  0  0
   -7.1440   22.3130  -30.2190 C   0  0  0  0  0  0  0  0  0  0  0  0
   -6.9990   21.7480  -31.5660 N   0  0  0  0  0  0  0  0  0  0  0  0
   -7.4380   20.4070  -31.8500 C   0  0  0  0  0  0  0  0  0  0  0  0
   -8.6730   19.9430  -31.3610 C   0  0  0  0  0  0  0  0  0  0  0  0
   -9.0920   18.6370  -31.6250 C   0  0  0  0  0  0  0  0  0  0  0  0
   -8.2830   17.7790  -32.3760 C   0  0  0  0  0  0  0  0  0  0  0  0
   -7.0510   18.2270  -32.8620 C   0  0  0  0  0  0  0  0  0  0  0  0
   -6.0360   17.1510  -33.8040 Cl  0  0  0  0  0  0  0  0  0  0  0  0
   -6.6280   19.5350  -32.5990 C   0  0  0  0  0  0  0  0  0  0  0  0
   -6.3140   22.5230  -32.6120 C   0  0  0  0  0  0  0  0  0  0  0  0
   -5.7610   23.8480  -32.0690 C   0  0  0  0  0  0  0  0  0  0  0  0
   -2.1430   22.8350  -29.7480 C   0  0  0  0  0  0  0  0  0  0  0  0
   -2.2310   21.8830  -30.8960 C   0  0  0  0  0  0  0  0  0  0  0  0
   -1.3020   22.6690  -28.7090 N   0  0  0  0  0  0  0  0  0  0  0  0
   -1.3230   24.7798  -24.7195 H   0  0  0  0  0  0  0  0  0  0  0  0
   -0.8712   25.8926  -26.0554 H   0  0  0  0  0  0  0  0  0  0  0  0
   -2.4814   25.0964  -26.0554 H   0  0  0  0  0  0  0  0  0  0  0  0
    0.2353   23.9704  -26.7440 H   0  0  0  0  0  0  0  0  0  0  0  0
   -0.9900   22.8768  -26.0019 H   0  0  0  0  0  0  0  0  0  0  0  0
   -2.8832   25.3671  -27.8296 H   0  0  0  0  0  0  0  0  0  0  0  0
   -5.1449   21.9618  -29.4935 H   0  0  0  0  0  0  0  0  0  0  0  0
   -5.9490   23.4475  -28.8423 H   0  0  0  0  0  0  0  0  0  0  0  0
   -7.5112   21.5358  -29.5326 H   0  0  0  0  0  0  0  0  0  0  0  0
   -7.8615   23.1464  -30.2454 H   0  0  0  0  0  0  0  0  0  0  0  0
   -9.3124   20.6128  -30.7672 H   0  0  0  0  0  0  0  0  0  0  0  0
  -10.0602   18.2829  -31.2414 H   0  0  0  0  0  0  0  0  0  0  0  0
   -8.6158   16.7515  -32.5845 H   0  0  0  0  0  0  0  0  0  0  0  0
   -5.6566   19.8828  -32.9803 H   0  0  0  0  0  0  0  0  0  0  0  0
   -5.4805   21.9255  -33.0097 H   0  0  0  0  0  0  0  0  0  0  0  0
   -7.0453   22.7549  -33.4003 H   0  0  0  0  0  0  0  0  0  0  0  0
   -5.0183   24.2466  -32.7758 H   0  0  0  0  0  0  0  0  0  0  0  0
   -6.5929   24.5579  -31.9510 H   0  0  0  0  0  0  0  0  0  0  0  0
   -2.3260   20.8558  -30.5141 H   0  0  0  0  0  0  0  0  0  0  0  0
   -3.1103   22.1288  -31.5096 H   0  0  0  0  0  0  0  0  0  0  0  0
   -1.3216   21.9634  -31.5096 H   0  0  0  0  0  0  0  0  0  0  0  0
  1  2  1  0
  2  3  1  0
  3  4  1  0
  4  5  2  0
  5  6  1  0
  6  7  2  0
  6  8  1  0
  8  9  1  0
  9 10  1  0
 10 11  1  0
 11 12  1  0
 12 13  2  0
 13 14  1  0
 14 15  2  0
 15 16  1  0
 16 17  1  0
 16 18  2  0
 11 19  1  0
 19 20  1  0
  5 21  1  0
 21 22  1  0
 21 23  2  0
 23  3  1  0
 20  8  1  0
 18 12  1  0
  1 24  1  0
  1 25  1  0
  1 26  1  0
  2 27  1  0
  2 28  1  0
  4 29  1  0
  9 30  1  0
  9 31  1  0
 10 32  1  0
 10 33  1  0
 13 34  1  0
 14 35  1  0
 15 36  1  0
 18 37  1  0
 19 38  1  0
 19 39  1  0
 20 40  1  0
 20 41  1  0
 22 42  1  0
 22 43  1  0
 22 44  1  0
M  END
>  <UniqueID>  (6) 
6

>  <SMILES>  (6) 
CCn1cc(C(=O)N2CCN(c3cccc(Cl)c3)CC2)c(C)n1

>  <Energy>  (6) 
78.08606900729835

>  <Genealogy>  (6) 
CCn1cc(C(=O)N2CCN(c3cccc(Cl)c3)CC2)c(C)n1 (3D coordinates assigned)
CCn1cc(C(=O)N2CCN(c3cccc(Cl)c3)CC2)c(C)n1 (nonaromatic ring conformer: 78.08606900729835 kcal/mol)

>  <smiles>  (6) 
CCn1cc(C(=O)N2CCN(c3cccc(Cl)c3)CC2)c(C)n1

>  <score_type>  (6) 
oracle

>  <origin>  (6) 
adg

>  <m_score__min__energy>  (6) 
-8.0500000000000007

>  <m_primary>  (6) 
energy

$$$$
6:0
     RDKit          3D

 79 82  0  0  0  0  0  0  0  0999 V2000
   -4.4600   22.9260  -28.6570 C   0  0  0  0  0  0  0  0  0  0  0  0
   -5.5100   23.1480  -29.7460 C   0  0  0  0  0  0  0  0  0  0  0  0
   -4.8940   23.8080  -30.9230 N   0  0  0  0  0  0  0  0  0  0  0  0
   -5.0000   25.2830  -30.8350 C   0  0  0  0  0  0  0  0  0  0  0  0
   -6.1170   25.6760  -29.8670 C   0  0  0  0  0  0  0  0  0  0  0  0
   -3.4960   23.3630  -31.1280 C   0  0  0  0  0  0  0  0  0  0  0  0
   -3.4710   22.2330  -32.1600 C   0  0  0  0  0  0  0  0  0  0  0  0
   -4.5990   22.3250  -33.1010 N   0  0  0  0  0  0  0  0  0  0  0  0
   -5.5080   21.2080  -32.8720 C   0  0  0  0  0  0  0  0  0  0  0  0
   -6.8580   21.4480  -32.4920 C   0  0  0  0  0  0  0  0  0  0  0  0
   -7.3510   22.7620  -32.2850 C   0  0  0  0  0  0  0  0  0  0  0  0
   -8.6820   22.9900  -31.9450 C   0  0  0  0  0  0  0  0  0  0  0  0
   -9.5560   21.9250  -31.7970 C   0  0  0  0  0  0  0  0  0  0  0  0
   -9.1030   20.6210  -31.9790 C   0  0  0  0  0  0  0  0  0  0  0  0
   -7.7500   20.3490  -32.3210 C   0  0  0  0  0  0  0  0  0  0  0  0
   -7.3110   19.0590  -32.5200 N   0  0  0  0  0  0  0  0  0  0  0  0
   -8.1400   17.9300  -32.0370 C   0  0  0  0  0  0  0  0  0  0  0  0
   -6.0780   18.8230  -33.0840 C   0  0  0  0  0  0  0  0  0  0  0  0
   -5.7450   17.5540  -33.6110 C   0  0  0  0  0  0  0  0  0  0  0  0
   -4.4420   17.2490  -34.0160 C   0  0  0  0  0  0  0  0  0  0  0  0
   -4.1460   15.8990  -34.6060 C   0  0  0  0  0  0  0  0  0  0  0  0
   -3.4550   18.2400  -33.9550 C   0  0  0  0  0  0  0  0  0  0  0  0
   -2.1180   17.9090  -34.1620 O   0  0  0  0  0  0  0  0  0  0  0  0
   -1.2330   17.5390  -33.1090 C   0  0  0  0  0  0  0  0  0  0  0  0
    0.2280   17.5110  -33.6090 C   0  0  0  0  0  0  0  0  0  0  0  0
    0.8430   18.8500  -33.9110 N   0  0  0  0  0  0  0  0  0  0  0  0
    2.3010   18.6970  -34.1660 C   0  0  0  0  0  0  0  0  0  0  0  0
    0.2010   19.3680  -35.1740 C   0  0  0  0  0  0  0  0  0  0  0  0
    0.1920   20.9010  -35.2610 C   0  0  0  0  0  0  0  0  0  0  0  0
   -0.6460   21.5040  -34.1230 C   0  0  0  0  0  0  0  0  0  0  0  0
   -0.6580   20.6160  -32.8670 C   0  0  0  0  0  0  0  0  0  0  0  0
    0.6430   19.7980  -32.7540 C   0  0  0  0  0  0  0  0  0  0  0  0
   -3.7980   19.5420  -33.5910 C   0  0  0  0  0  0  0  0  0  0  0  0
   -5.1180   19.8720  -33.1830 C   0  0  0  0  0  0  0  0  0  0  0  0
   -4.9309   23.0256  -27.6679 H   0  0  0  0  0  0  0  0  0  0  0  0
   -4.0326   21.9176  -28.7598 H   0  0  0  0  0  0  0  0  0  0  0  0
   -3.6611   23.6751  -28.7598 H   0  0  0  0  0  0  0  0  0  0  0  0
   -5.9283   22.1774  -30.0510 H   0  0  0  0  0  0  0  0  0  0  0  0
   -6.3084   23.7925  -29.3495 H   0  0  0  0  0  0  0  0  0  0  0  0
   -4.0457   25.6949  -30.4750 H   0  0  0  0  0  0  0  0  0  0  0  0
   -5.2311   25.6861  -31.8320 H   0  0  0  0  0  0  0  0  0  0  0  0
   -5.7656   25.5524  -28.8320 H   0  0  0  0  0  0  0  0  0  0  0  0
   -6.3963   26.7264  -30.0364 H   0  0  0  0  0  0  0  0  0  0  0  0
   -6.9925   25.0319  -30.0364 H   0  0  0  0  0  0  0  0  0  0  0  0
   -2.8915   24.2067  -31.4923 H   0  0  0  0  0  0  0  0  0  0  0  0
   -3.0810   23.0015  -30.1756 H   0  0  0  0  0  0  0  0  0  0  0  0
   -2.5297   22.2892  -32.7264 H   0  0  0  0  0  0  0  0  0  0  0  0
   -3.5529   21.2773  -31.6216 H   0  0  0  0  0  0  0  0  0  0  0  0
   -4.2530   22.3340  -34.0860 H   0  0  0  0  0  0  0  0  0  0  0  0
   -5.0630   23.2510  -33.0210 H   0  0  0  0  0  0  0  0  0  0  0  0
   -6.6685   23.6176  -32.3952 H   0  0  0  0  0  0  0  0  0  0  0  0
   -9.0407   24.0188  -31.7934 H   0  0  0  0  0  0  0  0  0  0  0  0
  -10.6084   22.1098  -31.5356 H   0  0  0  0  0  0  0  0  0  0  0  0
   -9.8062   19.7842  -31.8557 H   0  0  0  0  0  0  0  0  0  0  0  0
   -8.1451   17.9231  -30.9370 H   0  0  0  0  0  0  0  0  0  0  0  0
   -9.1692   18.0459  -32.4077 H   0  0  0  0  0  0  0  0  0  0  0  0
   -7.7213   16.9828  -32.4077 H   0  0  0  0  0  0  0  0  0  0  0  0
   -6.5295   16.7886  -33.7046 H   0  0  0  0  0  0  0  0  0  0  0  0
   -3.9866   15.1719  -33.7961 H   0  0  0  0  0  0  0  0  0  0  0  0
   -4.9947   15.5761  -35.2269 H   0  0  0  0  0  0  0  0  0  0  0  0
   -3.2401   15.9608  -35.2269 H   0  0  0  0  0  0  0  0  0  0  0  0
   -1.3207   18.2685  -32.2904 H   0  0  0  0  0  0  0  0  0  0  0  0
   -1.5051   16.5338  -32.7548 H   0  0  0  0  0  0  0  0  0  0  0  0
    0.8403   17.0254  -32.8348 H   0  0  0  0  0  0  0  0  0  0  0  0
    0.2054   16.9702  -34.5666 H   0  0  0  0  0  0  0  0  0  0  0  0
    2.8370   18.6408  -33.2071 H   0  0  0  0  0  0  0  0  0  0  0  0
    2.4782   17.7753  -34.7397 H   0  0  0  0  0  0  0  0  0  0  0  0
    2.6656   19.5618  -34.7397 H   0  0  0  0  0  0  0  0  0  0  0  0
    0.7565   18.9718  -36.0368 H   0  0  0  0  0  0  0  0  0  0  0  0
   -0.8470   19.0339  -35.1697 H   0  0  0  0  0  0  0  0  0  0  0  0
    1.2244   21.2731  -35.1857 H   0  0  0  0  0  0  0  0  0  0  0  0
   -0.2513   21.1983  -36.2228 H   0  0  0  0  0  0  0  0  0  0  0  0
   -0.2261   22.4854  -33.8573 H   0  0  0  0  0  0  0  0  0  0  0  0
   -1.6825   21.5914  -34.4808 H   0  0  0  0  0  0  0  0  0  0  0  0
   -0.7597   21.2541  -31.9768 H   0  0  0  0  0  0  0  0  0  0  0  0
   -1.5047   19.9177  -32.9407 H   0  0  0  0  0  0  0  0  0  0  0  0
    1.4937   20.4945  -32.7199 H   0  0  0  0  0  0  0  0  0  0  0  0
    0.5733   19.1918  -31.8388 H   0  0  0  0  0  0  0  0  0  0  0  0
   -3.0305   20.3295  -33.6205 H   0  0  0  0  0  0  0  0  0  0  0  0
  1  2  1  0
  2  3  1  0
  3  4  1  0
  4  5  1  0
  3  6  1  0
  6  7  1  0
  7  8  1  0
  8  9  1  0
  9 10  2  0
 10 11  1  0
 11 12  2  0
 12 13  1  0
 13 14  2  0
 14 15  1  0
 15 16  2  0
 16 17  1  0
 16 18  1  0
 18 19  2  0
 19 20  1  0
 20 21  1  0
 20 22  2  0
 22 23  1  0
 23 24  1  0
 24 25  1  0
 25 26  1  0
 26 27  1  0
 26 28  1  0
 28 29  1  0
 29 30  1  0
 30 31  1  0
 31 32  1  0
 22 33  1  0
 33 34  2  0
 34  9  1  0
 15 10  1  0
 34 18  1  0
 32 26  1  0
  1 35  1  0
  1 36  1  0
  1 37  1  0
  2 38  1  0
  2 39  1  0
  4 40  1  0
  4 41  1  0
  5 42  1  0
  5 43  1  0
  5 44  1  0
  6 45  1  0
  6 46  1  0
  7 47  1  0
  7 48  1  0
  8 49  1  0
  8 50  1  0
 11 51  1  0
 12 52  1  0
 13 53  1  0
 14 54  1  0
 17 55  1  0
 17 56  1  0
 17 57  1  0
 19 58  1  0
 21 59  1  0
 21 60  1  0
 21 61  1  0
 24 62  1  0
 24 63  1  0
 25 64  1  0
 25 65  1  0
 27 66  1  0
 27 67  1  0
 27 68  1  0
 28 69  1  0
 28 70  1  0
 29 71  1  0
 29 72  1  0
 30 73  1  0
 30 74  1  0
 31 75  1  0
 31 76  1  0
 32 77  1  0
 32 78  1  0
 33 79  1  0
M  CHG  3   8   1  16   1  26   1
M  END
>  <UniqueID>  (7) 
7

>  <SMILES>  (7) 
CCN(CC)CC[NH2+]c1c2ccccc2[n+](C)c2cc(C)c(OCC[N+]3(C)CCCCC3)cc12

>  <Energy>  (7) 
131.2328278634768

>  <Genealogy>  (7) 
CCN(CC)CC[NH2+]c1c2ccccc2[n+](C)c2cc(C)c(OCC[N+]3(C)CCCCC3)cc12 (protonated)
CCN(CC)CC[NH2+]c1c2ccccc2[n+](C)c2cc(C)c(OCC[N+]3(C)CCCCC3)cc12 (3D coordinates assigned)
CCN(CC)CC[NH2+]c1c2ccccc2[n+](C)c2cc(C)c(OCC[N+]3(C)CCCCC3)cc12 (nonaromatic ring conformer: 131.2328278634768 kcal/mol)

>  <smiles>  (7) 
CCN(CC)CCNc1c2ccccc2[n+](C)c2cc(C)c(OCC[N+]3(C)CCCCC3)cc12

>  <score_type>  (7) 
oracle

>  <origin>  (7) 
adg

>  <m_score__min__energy>  (7) 
-8.5099999999999998

>  <m_primary>  (7) 
energy

$$$$
7:0
     RDKit          3D

 52 56  0  0  0  0  0  0  0  0999 V2000
   -3.6700   22.6150  -29.6600 C   0  0  0  0  0  0  0  0  0  0  0  0
   -4.2310   23.4340  -28.5050 C   0  0  0  0  0  0  0  0  0  0  0  0
   -5.0360   24.5480  -29.0180 N   0  0  0  0  0  0  0  0  0  0  0  0
   -4.8830   24.6610  -30.4730 C   0  0  0  0  0  0  0  0  0  0  0  0
   -6.2060   24.3360  -31.1740 C   0  0  0  0  0  0  0  0  0  0  0  0
   -5.9760   23.6260  -32.4340 N   0  0  0  0  0  0  0  0  0  0  0  0
   -5.9850   22.1930  -32.4950 C   0  0  0  0  0  0  0  0  0  0  0  0
   -7.1620   21.4280  -32.3290 C   0  0  0  0  0  0  0  0  0  0  0  0
   -8.3900   22.0430  -32.0150 C   0  0  0  0  0  0  0  0  0  0  0  0
   -9.5410   21.2770  -31.8370 C   0  0  0  0  0  0  0  0  0  0  0  0
   -9.4880   19.8910  -31.9510 C   0  0  0  0  0  0  0  0  0  0  0  0
   -8.2780   19.2520  -32.2290 C   0  0  0  0  0  0  0  0  0  0  0  0
   -7.0890   19.9960  -32.4100 C   0  0  0  0  0  0  0  0  0  0  0  0
   -5.8720   19.3670  -32.6280 N   0  0  0  0  0  0  0  0  0  0  0  0
   -5.6960   17.9600  -32.2220 C   0  0  0  0  0  0  0  0  0  0  0  0
   -4.7950   20.1480  -32.9690 C   0  0  0  0  0  0  0  0  0  0  0  0
   -4.8130   21.5120  -32.7800 C   0  0  0  0  0  0  0  0  0  0  0  0
   -3.6120   22.0300  -32.8980 O   0  0  0  0  0  0  0  0  0  0  0  0
   -2.7980   21.0420  -33.1990 C   0  0  0  0  0  0  0  0  0  0  0  0
   -1.4230   21.1370  -33.3750 C   0  0  0  0  0  0  0  0  0  0  0  0
   -0.7180   19.9840  -33.7420 C   0  0  0  0  0  0  0  0  0  0  0  0
   -1.4070   18.7820  -34.0260 C   0  0  0  0  0  0  0  0  0  0  0  0
   -0.7060   17.6720  -34.5210 C   0  0  0  0  0  0  0  0  0  0  0  0
   -1.3980   16.5400  -34.9520 C   0  0  0  0  0  0  0  0  0  0  0  0
   -2.7940   16.5230  -34.9330 C   0  0  0  0  0  0  0  0  0  0  0  0
   -3.5050   17.6140  -34.4260 C   0  0  0  0  0  0  0  0  0  0  0  0
   -2.8250   18.7170  -33.8820 C   0  0  0  0  0  0  0  0  0  0  0  0
   -3.4780   19.8410  -33.3320 C   0  0  0  0  0  0  0  0  0  0  0  0
   -3.0905   21.7689  -29.2621 H   0  0  0  0  0  0  0  0  0  0  0  0
   -4.4981   22.2347  -30.2761 H   0  0  0  0  0  0  0  0  0  0  0  0
   -3.0162   23.2498  -30.2761 H   0  0  0  0  0  0  0  0  0  0  0  0
   -4.8620   22.7895  -27.8753 H   0  0  0  0  0  0  0  0  0  0  0  0
   -3.3966   23.8371  -27.9123 H   0  0  0  0  0  0  0  0  0  0  0  0
   -4.6760   25.4340  -28.5900 H   0  0  0  0  0  0  0  0  0  0  0  0
   -4.5802   25.6875  -30.7273 H   0  0  0  0  0  0  0  0  0  0  0  0
   -4.1158   23.9476  -30.8084 H   0  0  0  0  0  0  0  0  0  0  0  0
   -6.8172   23.7045  -30.5124 H   0  0  0  0  0  0  0  0  0  0  0  0
   -6.7246   25.2805  -31.3955 H   0  0  0  0  0  0  0  0  0  0  0  0
   -6.1220   24.1540  -33.3230 H   0  0  0  0  0  0  0  0  0  0  0  0
   -8.4410   23.1367  -31.9094 H   0  0  0  0  0  0  0  0  0  0  0  0
  -10.4963   21.7707  -31.6052 H   0  0  0  0  0  0  0  0  0  0  0  0
  -10.4040   19.2959  -31.8214 H   0  0  0  0  0  0  0  0  0  0  0  0
   -8.2492   18.1552  -32.3083 H   0  0  0  0  0  0  0  0  0  0  0  0
   -5.6877   17.8935  -31.1240 H   0  0  0  0  0  0  0  0  0  0  0  0
   -6.5257   17.3571  -32.6196 H   0  0  0  0  0  0  0  0  0  0  0  0
   -4.7433   17.5801  -32.6196 H   0  0  0  0  0  0  0  0  0  0  0  0
   -0.9011   22.0943  -33.2296 H   0  0  0  0  0  0  0  0  0  0  0  0
    0.3795   20.0134  -33.8099 H   0  0  0  0  0  0  0  0  0  0  0  0
    0.3927   17.6944  -34.5694 H   0  0  0  0  0  0  0  0  0  0  0  0
   -0.8429   15.6593  -35.3074 H   0  0  0  0  0  0  0  0  0  0  0  0
   -3.3364   15.6472  -35.3187 H   0  0  0  0  0  0  0  0  0  0  0  0
   -4.6047   17.6094  -34.4529 H   0  0  0  0  0  0  0  0  0  0  0  0
  1  2  1  0
  2  3  1  0
  3  4  1  0
  4  5  1  0
  5  6  1  0
  6  7  1  0
  7  8  2  0
  8  9  1  0
  9 10  2  0
 10 11  1  0
 11 12  2  0
 12 13  1  0
 13 14  2  0
 14 15  1  0
 14 16  1  0
 16 17  2  0
 17 18  1  0
 18 19  1  0
 19 20  2  0
 20 21  1  0
 21 22  2  0
 22 23  1  0
 23 24  2  0
 24 25  1  0
 25 26  2  0
 26 27  1  0
 27 28  2  0
 17  7  1  0
 28 19  1  0
 13  8  1  0
 28 16  1  0
 27 22  1  0
  1 29  1  0
  1 30  1  0
  1 31  1  0
  2 32  1  0
  2 33  1  0
  3 34  1  0
  4 35  1  0
  4 36  1  0
  5 37  1  0
  5 38  1  0
  6 39  1  0
  9 40  1  0
 10 41  1  0
 11 42  1  0
 12 43  1  0
 15 44  1  0
 15 45  1  0
 15 46  1  0
 20 47  1  0
 21 48  1  0
 23 49  1  0
 24 50  1  0
 25 51  1  0
 26 52  1  0
M  CHG  1  14   1
M  END
>  <UniqueID>  (8) 
8

>  <SMILES>  (8) 
CCNCCNc1c2ccccc2[n+](C)c2c1oc1ccc3ccccc3c12

>  <Energy>  (8) 
125.55569871370284

>  <Genealogy>  (8) 
CCNCCNc1c2ccccc2[n+](C)c2c1oc1ccc3ccccc3c12 (3D coordinates assigned)
CCNCCNc1c2ccccc2[n+](C)c2c1oc1ccc3ccccc3c12 (optimized conformer: 125.55569871370284 kcal/mol)

>  <smiles>  (8) 
CCNCCNc1c2ccccc2[n+](C)c2c1oc1ccc3ccccc3c12

>  <score_type>  (8) 
oracle

>  <origin>  (8) 
adg

>  <m_score__min__energy>  (8) 
-9.6099999999999994

>  <m_primary>  (8) 
energy

$$$$
8:0
     RDKit          3D

 22 22  0  0  0  0  0  0  0  0999 V2000
   -8.8840   22.2050  -31.6030 C   0  0  0  0  0  0  0  0  0  0  0  0
   -7.7770   23.2580  -31.5750 C   0  0  0  0  0  0  0  0  0  0  0  0
   -6.4320   22.6350  -31.8740 C   0  0  0  0  0  0  0  0  0  0  0  0
   -6.4090   21.4440  -32.6230 C   0  0  0  0  0  0  0  0  0  0  0  0
   -5.2040   20.8050  -32.9120 C   0  0  0  0  0  0  0  0  0  0  0  0
   -4.0030   21.3400  -32.4530 C   0  0  0  0  0  0  0  0  0  0  0  0
   -4.0020   22.5170  -31.7020 C   0  0  0  0  0  0  0  0  0  0  0  0
   -5.2060   23.1740  -31.3960 C   0  0  0  0  0  0  0  0  0  0  0  0
   -5.1300   24.6740  -30.4530 S   0  0  0  0  0  0  0  0  0  0  0  0
   -3.5190   25.2990  -30.4850 N   0  0  0  0  0  0  0  0  0  0  0  0
   -5.5180   24.4120  -29.0250 O   0  0  0  0  0  0  0  0  0  0  0  0
   -6.0790   25.6900  -31.0230 O   0  0  0  0  0  0  0  0  0  0  0  0
   -9.1634   21.9392  -30.5728 H   0  0  0  0  0  0  0  0  0  0  0  0
   -9.7618   22.6096  -32.1282 H   0  0  0  0  0  0  0  0  0  0  0  0
   -8.5237   21.3081  -32.1282 H   0  0  0  0  0  0  0  0  0  0  0  0
   -7.9932   24.0280  -32.3303 H   0  0  0  0  0  0  0  0  0  0  0  0
   -7.7420   23.7045  -30.5703 H   0  0  0  0  0  0  0  0  0  0  0  0
   -7.3535   21.0117  -32.9850 H   0  0  0  0  0  0  0  0  0  0  0  0
   -5.2020   19.8773  -33.5031 H   0  0  0  0  0  0  0  0  0  0  0  0
   -3.0534   20.8344  -32.6825 H   0  0  0  0  0  0  0  0  0  0  0  0
   -3.0486   22.9345  -31.3460 H   0  0  0  0  0  0  0  0  0  0  0  0
   -3.4960   26.0450  -31.2160 H   0  0  0  0  0  0  0  0  0  0  0  0
  1  2  1  0
  2  3  1  0
  3  4  2  0
  4  5  1  0
  5  6  2  0
  6  7  1  0
  7  8  2  0
  8  9  1  0
  9 10  1  0
  9 11  2  0
  9 12  2  0
  8  3  1  0
  1 13  1  0
  1 14  1  0
  1 15  1  0
  2 16  1  0
  2 17  1  0
  4 18  1  0
  5 19  1  0
  6 20  1  0
  7 21  1  0
 10 22  1  0
M  CHG  1  10  -1
M  END
>  <UniqueID>  (9) 
9

>  <SMILES>  (9) 
CCc1ccccc1S([NH-])(=O)=O

>  <Energy>  (9) 
19.624853220178526

>  <Genealogy>  (9) 
CCc1ccccc1S([NH-])(=O)=O (protonated)
CCc1ccccc1S([NH-])(=O)=O (3D coordinates assigned)
CCc1ccccc1S([NH-])(=O)=O (optimized conformer: 19.624853220178526 kcal/mol)

>  <smiles>  (9) 
CCc1ccccc1S(N)(=O)=O

>  <score_type>  (9) 
oracle

>  <origin>  (9) 
adg

>  <m_score__min__energy>  (9) 
-8.0500000000000007

>  <m_primary>  (9) 
energy

$$$$
9:0
     RDKit          3D

 43 45  0  0  0  0  0  0  0  0999 V2000
   -6.1200   25.7010  -29.3900 C   0  0  0  0  0  0  0  0  0  0  0  0
   -5.0950   25.9180  -30.5060 C   0  0  0  0  0  0  0  0  0  0  0  0
   -3.8850   25.0940  -30.3300 N   0  0  0  0  0  0  0  0  0  0  0  0
   -4.1160   23.9170  -29.4810 C   0  0  0  0  0  0  0  0  0  0  0  0
   -4.7600   22.7960  -30.2770 C   0  0  0  0  0  0  0  0  0  0  0  0
   -6.1000   22.8020  -30.4350 C   0  0  0  0  0  0  0  0  0  0  0  0
   -6.8840   21.8110  -31.2190 C   0  0  0  0  0  0  0  0  0  0  0  0
   -8.2840   21.8500  -31.1180 C   0  0  0  0  0  0  0  0  0  0  0  0
   -9.0760   20.9710  -31.8530 C   0  0  0  0  0  0  0  0  0  0  0  0
   -8.4860   20.0500  -32.7160 C   0  0  0  0  0  0  0  0  0  0  0  0
   -7.0900   19.9980  -32.8560 C   0  0  0  0  0  0  0  0  0  0  0  0
   -6.4940   18.9880  -33.8020 C   0  0  0  0  0  0  0  0  0  0  0  0
   -6.2830   20.8710  -32.0840 C   0  0  0  0  0  0  0  0  0  0  0  0
   -4.5310   20.8370  -32.1830 S   0  0  0  0  0  0  0  0  0  0  0  0
   -4.0330   19.4230  -32.0680 O   0  0  0  0  0  0  0  0  0  0  0  0
   -4.0690   21.4520  -33.4740 O   0  0  0  0  0  0  0  0  0  0  0  0
   -3.9370   21.7590  -30.8480 N   0  0  0  0  0  0  0  0  0  0  0  0
   -2.6380   21.4450  -30.3190 C   0  0  0  0  0  0  0  0  0  0  0  0
   -2.5000   21.0130  -28.9900 C   0  0  0  0  0  0  0  0  0  0  0  0
   -1.2370   20.7020  -28.4790 C   0  0  0  0  0  0  0  0  0  0  0  0
   -0.1050   20.8150  -29.2920 C   0  0  0  0  0  0  0  0  0  0  0  0
   -0.2360   21.2360  -30.6180 C   0  0  0  0  0  0  0  0  0  0  0  0
   -1.4990   21.5470  -31.1330 C   0  0  0  0  0  0  0  0  0  0  0  0
   -5.6258   25.8056  -28.4128 H   0  0  0  0  0  0  0  0  0  0  0  0
   -6.9214   26.4494  -29.4776 H   0  0  0  0  0  0  0  0  0  0  0  0
   -6.5494   24.6921  -29.4776 H   0  0  0  0  0  0  0  0  0  0  0  0
   -5.5611   25.6591  -31.4682 H   0  0  0  0  0  0  0  0  0  0  0  0
   -4.7874   26.9737  -30.4764 H   0  0  0  0  0  0  0  0  0  0  0  0
   -3.1210   25.6730  -29.9080 H   0  0  0  0  0  0  0  0  0  0  0  0
   -3.1534   23.5674  -29.0796 H   0  0  0  0  0  0  0  0  0  0  0  0
   -4.7923   24.2009  -28.6612 H   0  0  0  0  0  0  0  0  0  0  0  0
   -6.6607   23.6094  -29.9414 H   0  0  0  0  0  0  0  0  0  0  0  0
   -8.7607   22.5831  -30.4508 H   0  0  0  0  0  0  0  0  0  0  0  0
  -10.1708   21.0041  -31.7518 H   0  0  0  0  0  0  0  0  0  0  0  0
   -9.1186   19.3585  -33.2919 H   0  0  0  0  0  0  0  0  0  0  0  0
   -6.0180   18.1814  -33.2250 H   0  0  0  0  0  0  0  0  0  0  0  0
   -7.2879   18.5662  -34.4358 H   0  0  0  0  0  0  0  0  0  0  0  0
   -5.7409   19.4791  -34.4358 H   0  0  0  0  0  0  0  0  0  0  0  0
   -3.3890   20.9191  -28.3490 H   0  0  0  0  0  0  0  0  0  0  0  0
   -1.1333   20.3680  -27.4361 H   0  0  0  0  0  0  0  0  0  0  0  0
    0.8888   20.5724  -28.8877 H   0  0  0  0  0  0  0  0  0  0  0  0
    0.6548   21.3229  -31.2575 H   0  0  0  0  0  0  0  0  0  0  0  0
   -1.5998   21.8724  -32.1789 H   0  0  0  0  0  0  0  0  0  0  0  0
  1  2  1  0
  2  3  1  0
  3  4  1  0
  4  5  1  0
  5  6  2  0
  6  7  1  0
  7  8  2  0
  8  9  1  0
  9 10  2  0
 10 11  1  0
 11 12  1  0
 11 13  2  0
 13 14  1  0
 14 15  2  0
 14 16  2  0
 14 17  1  0
 17 18  1  0
 18 19  2  0
 19 20  1  0
 20 21  2  0
 21 22  1  0
 22 23  2  0
 17  5  1  0
 23 18  1  0
 13  7  1  0
  1 24  1  0
  1 25  1  0
  1 26  1  0
  2 27  1  0
  2 28  1  0
  3 29  1  0
  4 30  1  0
  4 31  1  0
  6 32  1  0
  8 33  1  0
  9 34  1  0
 10 35  1  0
 12 36  1  0
 12 37  1  0
 12 38  1  0
 19 39  1  0
 20 40  1  0
 21 41  1  0
 22 42  1  0
 23 43  1  0
M  END
>  <UniqueID>  (10) 
10

>  <SMILES>  (10) 
CCNCC1=Cc2cccc(C)c2S(=O)(=O)N1c1ccccc1

>  <Energy>  (10) 
56.7463609510904

>  <Genealogy>  (10) 
CCNCC1=Cc2cccc(C)c2S(=O)(=O)N1c1ccccc1 (3D coordinates assigned)
CCNCC1=Cc2cccc(C)c2S(=O)(=O)N1c1ccccc1 (nonaromatic ring conformer: 56.7463609510904 kcal/mol)

>  <smiles>  (10) 
CCNCC1=Cc2cccc(C)c2S(=O)(=O)N1c1ccccc1

>  <score_type>  (10) 
oracle

>  <origin>  (10) 
adg

>  <m_score__min__energy>  (10) 
-8.8200000000000003

>  <m_primary>  (10) 
energy

$$$$
10:0
     RDKit          3D

 60 63  0  0  0  0  0  0  0  0999 V2000
   -8.7440   18.6820  -31.9860 C   0  0  0  0  0  0  0  0  0  0  0  0
   -9.1330   20.1280  -32.3330 C   0  0  0  0  0  0  0  0  0  0  0  0
   -8.1480   21.1480  -31.9100 N   0  0  0  0  0  0  0  0  0  0  0  0
   -8.6560   22.5300  -31.9650 C   0  0  0  0  0  0  0  0  0  0  0  0
   -7.6950   23.4720  -31.2120 C   0  0  0  0  0  0  0  0  0  0  0  0
   -6.3720   22.8480  -30.9870 N   0  0  0  0  0  0  0  0  0  0  0  0
   -5.4020   23.8590  -30.5210 C   0  0  0  0  0  0  0  0  0  0  0  0
   -4.1560   23.1930  -30.0000 C   0  0  0  0  0  0  0  0  0  0  0  0
   -4.1080   22.7350  -28.6750 C   0  0  0  0  0  0  0  0  0  0  0  0
   -2.9610   22.0990  -28.1890 C   0  0  0  0  0  0  0  0  0  0  0  0
   -1.8430   21.9210  -29.0180 C   0  0  0  0  0  0  0  0  0  0  0  0
   -0.6380   21.2380  -28.4970 C   0  0  0  0  0  0  0  0  0  0  0  0
   -0.1650   20.0210  -28.9500 C   0  0  0  0  0  0  0  0  0  0  0  0
    1.0270   19.8430  -28.2730 C   0  0  0  0  0  0  0  0  0  0  0  0
    1.9860   18.7140  -28.4730 C   0  0  0  0  0  0  0  0  0  0  0  0
    3.1990   19.0340  -27.8910 F   0  0  0  0  0  0  0  0  0  0  0  0
    1.4910   17.5620  -27.8900 F   0  0  0  0  0  0  0  0  0  0  0  0
    2.1740   18.4890  -29.8250 F   0  0  0  0  0  0  0  0  0  0  0  0
    1.2600   20.8970  -27.4670 N   0  0  0  0  0  0  0  0  0  0  0  0
    0.2420   21.7350  -27.5930 N   0  0  0  0  0  0  0  0  0  0  0  0
    0.1260   22.9340  -26.8080 C   0  0  0  0  0  0  0  0  0  0  0  0
    0.2410   24.2000  -27.4060 C   0  0  0  0  0  0  0  0  0  0  0  0
    0.1180   25.3600  -26.6350 C   0  0  0  0  0  0  0  0  0  0  0  0
   -0.1420   25.2680  -25.2610 C   0  0  0  0  0  0  0  0  0  0  0  0
   -0.2780   26.7270  -24.2850 S   0  0  0  0  0  0  0  0  0  0  0  0
    1.0520   26.8070  -23.1850 N   0  0  0  0  0  0  0  0  0  0  0  0
   -0.2660   27.9370  -25.1750 O   0  0  0  0  0  0  0  0  0  0  0  0
   -1.5700   26.7060  -23.5170 O   0  0  0  0  0  0  0  0  0  0  0  0
   -0.2730   24.0070  -24.6650 C   0  0  0  0  0  0  0  0  0  0  0  0
   -0.1500   22.8470  -25.4360 C   0  0  0  0  0  0  0  0  0  0  0  0
   -1.9020   22.3580  -30.3510 C   0  0  0  0  0  0  0  0  0  0  0  0
   -3.0470   22.9950  -30.8370 C   0  0  0  0  0  0  0  0  0  0  0  0
   -5.9010   22.1830  -32.2190 C   0  0  0  0  0  0  0  0  0  0  0  0
   -6.8430   21.0200  -32.5910 C   0  0  0  0  0  0  0  0  0  0  0  0
   -8.7120   18.5632  -30.8929 H   0  0  0  0  0  0  0  0  0  0  0  0
   -9.4881   17.9907  -32.4084 H   0  0  0  0  0  0  0  0  0  0  0  0
   -7.7535   18.4573  -32.4084 H   0  0  0  0  0  0  0  0  0  0  0  0
   -9.2535   20.1987  -33.4241 H   0  0  0  0  0  0  0  0  0  0  0  0
  -10.0608   20.3425  -31.7824 H   0  0  0  0  0  0  0  0  0  0  0  0
   -8.7318   22.8493  -33.0149 H   0  0  0  0  0  0  0  0  0  0  0  0
   -9.6482   22.5706  -31.4918 H   0  0  0  0  0  0  0  0  0  0  0  0
   -7.5593   24.3889  -31.8044 H   0  0  0  0  0  0  0  0  0  0  0  0
   -8.1374   23.6954  -30.2299 H   0  0  0  0  0  0  0  0  0  0  0  0
   -5.1360   24.5192  -31.3597 H   0  0  0  0  0  0  0  0  0  0  0  0
   -5.8593   24.4434  -29.7090 H   0  0  0  0  0  0  0  0  0  0  0  0
   -4.9766   22.8767  -28.0150 H   0  0  0  0  0  0  0  0  0  0  0  0
   -2.9352   21.7362  -27.1509 H   0  0  0  0  0  0  0  0  0  0  0  0
   -0.6315   19.3467  -29.6833 H   0  0  0  0  0  0  0  0  0  0  0  0
    0.4289   24.2792  -28.4869 H   0  0  0  0  0  0  0  0  0  0  0  0
    0.2256   26.3472  -27.1081 H   0  0  0  0  0  0  0  0  0  0  0  0
    1.3580   25.8240  -23.0050 H   0  0  0  0  0  0  0  0  0  0  0  0
    0.6800   27.1770  -22.2820 H   0  0  0  0  0  0  0  0  0  0  0  0
   -0.4734   23.9291  -23.5862 H   0  0  0  0  0  0  0  0  0  0  0  0
   -0.2704   21.8609  -24.9637 H   0  0  0  0  0  0  0  0  0  0  0  0
   -1.0414   22.1979  -31.0171 H   0  0  0  0  0  0  0  0  0  0  0  0
   -3.0792   23.3427  -31.8801 H   0  0  0  0  0  0  0  0  0  0  0  0
   -5.8829   22.9131  -33.0416 H   0  0  0  0  0  0  0  0  0  0  0  0
   -4.8901   21.7848  -32.0474 H   0  0  0  0  0  0  0  0  0  0  0  0
   -7.0046   21.0237  -33.6791 H   0  0  0  0  0  0  0  0  0  0  0  0
   -6.3748   20.0776  -32.2705 H   0  0  0  0  0  0  0  0  0  0  0  0
  1  2  1  0
  2  3  1  0
  3  4  1  0
  4  5  1  0
  5  6  1  0
  6  7  1  0
  7  8  1  0
  8  9  2  0
  9 10  1  0
 10 11  2  0
 11 12  1  0
 12 13  2  0
 13 14  1  0
 14 15  1  0
 15 16  1  0
 15 17  1  0
 15 18  1  0
 14 19  2  0
 19 20  1  0
 20 21  1  0
 21 22  2  0
 22 23  1  0
 23 24  2  0
 24 25  1  0
 25 26  1  0
 25 27  2  0
 25 28  2  0
 24 29  1  0
 29 30  2  0
 11 31  1  0
 31 32  2  0
  6 33  1  0
 33 34  1  0
 34  3  1  0
 32  8  1  0
 20 12  1  0
 30 21  1  0
  1 35  1  0
  1 36  1  0
  1 37  1  0
  2 38  1  0
  2 39  1  0
  4 40  1  0
  4 41  1  0
  5 42  1  0
  5 43  1  0
  7 44  1  0
  7 45  1  0
  9 46  1  0
 10 47  1  0
 13 48  1  0
 22 49  1  0
 23 50  1  0
 26 51  1  0
 26 52  1  0
 29 53  1  0
 30 54  1  0
 31 55  1  0
 32 56  1  0
 33 57  1  0
 33 58  1  0
 34 59  1  0
 34 60  1  0
M  END
>  <UniqueID>  (11) 
11

>  <SMILES>  (11) 
CCN1CCN(Cc2ccc(-c3cc(C(F)(F)F)nn3-c3ccc(S(N)(=O)=O)cc3)cc2)CC1

>  <Energy>  (11) 
108.74065558124182

>  <Genealogy>  (11) 
CCN1CCN(Cc2ccc(-c3cc(C(F)(F)F)nn3-c3ccc(S(N)(=O)=O)cc3)cc2)CC1 (3D coordinates assigned)
CCN1CCN(Cc2ccc(-c3cc(C(F)(F)F)nn3-c3ccc(S(N)(=O)=O)cc3)cc2)CC1 (nonaromatic ring conformer: 108.74065558124182 kcal/mol)

>  <smiles>  (11) 
CCN1CCN(Cc2ccc(-c3cc(C(F)(F)F)nn3-c3ccc(S(N)(=O)=O)cc3)cc2)CC1

>  <score_type>  (11) 
oracle

>  <origin>  (11) 
adg

>  <m_score__min__energy>  (11) 
-10

>  <m_primary>  (11) 
energy

$$$$
11:0
     RDKit          3D

 46 49  0  0  0  0  0  0  0  0999 V2000
   -5.7450   25.3000  -30.4950 C   0  0  0  0  0  0  0  0  0  0  0  0
   -4.4750   24.5970  -30.0290 C   0  0  0  0  0  0  0  0  0  0  0  0
   -3.8210   23.9240  -31.1620 N   0  0  0  0  0  0  0  0  0  0  0  0
   -3.1630   22.6630  -30.7730 C   0  0  0  0  0  0  0  0  0  0  0  0
   -2.5400   21.9200  -31.9710 C   0  0  0  0  0  0  0  0  0  0  0  0
   -3.4830   21.8080  -33.0870 N   0  0  0  0  0  0  0  0  0  0  0  0
   -4.8410   21.3470  -32.9370 C   0  0  0  0  0  0  0  0  0  0  0  0
   -5.8300   22.2540  -32.5460 C   0  0  0  0  0  0  0  0  0  0  0  0
   -7.1490   21.8460  -32.3460 C   0  0  0  0  0  0  0  0  0  0  0  0
   -8.1070   22.7960  -31.9520 C   0  0  0  0  0  0  0  0  0  0  0  0
   -9.4300   22.4180  -31.7410 C   0  0  0  0  0  0  0  0  0  0  0  0
   -9.8120   21.0930  -31.9210 C   0  0  0  0  0  0  0  0  0  0  0  0
   -8.8750   20.1350  -32.3130 C   0  0  0  0  0  0  0  0  0  0  0  0
   -7.5180   20.4870  -32.5340 C   0  0  0  0  0  0  0  0  0  0  0  0
   -6.5190   19.5460  -32.9370 C   0  0  0  0  0  0  0  0  0  0  0  0
   -6.8050   18.1790  -33.1480 C   0  0  0  0  0  0  0  0  0  0  0  0
   -5.8070   17.2950  -33.5710 C   0  0  0  0  0  0  0  0  0  0  0  0
   -6.1160   15.9400  -33.7770 C   0  0  0  0  0  0  0  0  0  0  0  0
   -5.1220   15.0650  -34.2070 C   0  0  0  0  0  0  0  0  0  0  0  0
   -3.8320   15.5380  -34.4290 C   0  0  0  0  0  0  0  0  0  0  0  0
   -3.5510   16.8880  -34.2170 C   0  0  0  0  0  0  0  0  0  0  0  0
   -4.5280   17.7490  -33.7910 N   0  0  0  0  0  0  0  0  0  0  0  0
   -4.2150   19.0620  -33.5900 C   0  0  0  0  0  0  0  0  0  0  0  0
   -5.1830   19.9880  -33.1450 C   0  0  0  0  0  0  0  0  0  0  0  0
   -6.3278   25.6226  -29.6196 H   0  0  0  0  0  0  0  0  0  0  0  0
   -5.4768   26.1781  -31.1008 H   0  0  0  0  0  0  0  0  0  0  0  0
   -6.3467   24.6065  -31.1008 H   0  0  0  0  0  0  0  0  0  0  0  0
   -3.7855   25.3391  -29.6002 H   0  0  0  0  0  0  0  0  0  0  0  0
   -4.7388   23.8461  -29.2696 H   0  0  0  0  0  0  0  0  0  0  0  0
   -3.1250   24.5740  -31.5920 H   0  0  0  0  0  0  0  0  0  0  0  0
   -2.3674   22.8907  -30.0484 H   0  0  0  0  0  0  0  0  0  0  0  0
   -3.9332   22.0072  -30.3408 H   0  0  0  0  0  0  0  0  0  0  0  0
   -1.6505   22.4715  -32.3095 H   0  0  0  0  0  0  0  0  0  0  0  0
   -2.2723   20.9044  -31.6440 H   0  0  0  0  0  0  0  0  0  0  0  0
   -3.1390   22.0790  -34.0350 H   0  0  0  0  0  0  0  0  0  0  0  0
   -5.5631   23.3101  -32.3930 H   0  0  0  0  0  0  0  0  0  0  0  0
   -7.8093   23.8453  -31.8094 H   0  0  0  0  0  0  0  0  0  0  0  0
  -10.1734   23.1675  -31.4318 H   0  0  0  0  0  0  0  0  0  0  0  0
  -10.8584   20.7980  -31.7536 H   0  0  0  0  0  0  0  0  0  0  0  0
   -9.1934   19.0914  -32.4527 H   0  0  0  0  0  0  0  0  0  0  0  0
   -7.8253   17.8049  -32.9775 H   0  0  0  0  0  0  0  0  0  0  0  0
   -7.1375   15.5725  -33.5996 H   0  0  0  0  0  0  0  0  0  0  0  0
   -5.3556   14.0027  -34.3708 H   0  0  0  0  0  0  0  0  0  0  0  0
   -3.0409   14.8534  -34.7687 H   0  0  0  0  0  0  0  0  0  0  0  0
   -2.5331   17.2656  -34.3939 H   0  0  0  0  0  0  0  0  0  0  0  0
   -3.1873   19.4058  -33.7786 H   0  0  0  0  0  0  0  0  0  0  0  0
  1  2  1  0
  2  3  1  0
  3  4  1  0
  4  5  1  0
  5  6  1  0
  6  7  1  0
  7  8  2  0
  8  9  1  0
  9 10  2  0
 10 11  1  0
 11 12  2  0
 12 13  1  0
 13 14  2  0
 14 15  1  0
 15 16  2  0
 16 17  1  0
 17 18  2  0
 18 19  1  0
 19 20  2  0
 20 21  1  0
 21 22  2  0
 22 23  1  0
 23 24  2  0
 24  7  1  0
 14  9  1  0
 24 15  1  0
 22 17  1  0
  1 25  1  0
  1 26  1  0
  1 27  1  0
  2 28  1  0
  2 29  1  0
  3 30  1  0
  4 31  1  0
  4 32  1  0
  5 33  1  0
  5 34  1  0
  6 35  1  0
  8 36  1  0
 10 37  1  0
 11 38  1  0
 12 39  1  0
 13 40  1  0
 16 41  1  0
 18 42  1  0
 19 43  1  0
 20 44  1  0
 21 45  1  0
 23 46  1  0
M  CHG  1  22   1
M  END
>  <UniqueID>  (12) 
12

>  <SMILES>  (12) 
CCNCCNc1cc2ccccc2c2cc3cccc[n+]3cc12

>  <Energy>  (12) 
66.83517840735992

>  <Genealogy>  (12) 
CCNCCNc1cc2ccccc2c2cc3cccc[n+]3cc12 (3D coordinates assigned)
CCNCCNc1cc2ccccc2c2cc3cccc[n+]3cc12 (optimized conformer: 66.83517840735992 kcal/mol)

>  <smiles>  (12) 
CCNCCNc1cc2ccccc2c2cc3cccc[n+]3cc12

>  <score_type>  (12) 
oracle

>  <origin>  (12) 
adg

>  <m_score__min__energy>  (12) 
-9

>  <m_primary>  (12) 
energy

$$$$
12:0
     RDKit          3D

 67 69  0  0  0  0  0  0  0  0999 V2000
   -4.7743   24.8571  -30.9471 H   0  0  0  0  0  0  0  0  0  0  0  0
   -3.8760   24.4660  -30.4470 C   0  0  0  0  0  0  0  0  0  0  0  0
   -3.1210   25.2890  -29.6760 N   0  0  0  0  0  0  0  0  0  0  0  0
   -2.0000   24.8510  -29.0460 C   0  0  0  0  0  0  0  0  0  0  0  0
   -1.2660   25.7350  -28.2480 C   0  0  0  0  0  0  0  0  0  0  0  0
   -1.5927   26.7803  -28.1450 H   0  0  0  0  0  0  0  0  0  0  0  0
   -0.1190   25.2950  -27.5810 C   0  0  0  0  0  0  0  0  0  0  0  0
    0.7850   26.4070  -26.5720 Cl  0  0  0  0  0  0  0  0  0  0  0  0
    0.3050   23.9700  -27.7180 C   0  0  0  0  0  0  0  0  0  0  0  0
    1.2087   23.6265  -27.1932 H   0  0  0  0  0  0  0  0  0  0  0  0
   -0.4160   23.0800  -28.5200 C   0  0  0  0  0  0  0  0  0  0  0  0
   -0.0706   22.0415  -28.6306 H   0  0  0  0  0  0  0  0  0  0  0  0
   -1.5830   23.5050  -29.1880 C   0  0  0  0  0  0  0  0  0  0  0  0
   -2.3620   22.6270  -29.9780 C   0  0  0  0  0  0  0  0  0  0  0  0
   -2.0080   21.3760  -30.0910 N   0  0  0  0  0  0  0  0  0  0  0  0
   -2.2650   20.4940  -31.2270 C   0  0  0  0  0  0  0  0  0  0  0  0
   -3.3464   20.3084  -31.3055 H   0  0  0  0  0  0  0  0  0  0  0  0
   -1.7312   19.5447  -31.0722 H   0  0  0  0  0  0  0  0  0  0  0  0
   -1.7670   21.1420  -32.5240 C   0  0  0  0  0  0  0  0  0  0  0  0
   -0.6708   21.0567  -32.5580 H   0  0  0  0  0  0  0  0  0  0  0  0
   -2.1019   22.1897  -32.5134 H   0  0  0  0  0  0  0  0  0  0  0  0
   -2.3450   20.4940  -33.7890 C   0  0  0  0  0  0  0  0  0  0  0  0
   -1.5204   20.2065  -34.4579 H   0  0  0  0  0  0  0  0  0  0  0  0
   -3.0045   21.2175  -34.2907 H   0  0  0  0  0  0  0  0  0  0  0  0
   -3.1330   19.2880  -33.4390 N   0  0  0  0  0  0  0  0  0  0  0  0
   -4.6060   19.4850  -33.4830 C   0  0  0  0  0  0  0  0  0  0  0  0
   -4.8123   20.5457  -33.6890 H   0  0  0  0  0  0  0  0  0  0  0  0
   -5.0104   19.1711  -32.5094 H   0  0  0  0  0  0  0  0  0  0  0  0
   -5.2920   18.6320  -34.5650 C   0  0  0  0  0  0  0  0  0  0  0  0
   -4.9413   18.9658  -35.5527 H   0  0  0  0  0  0  0  0  0  0  0  0
   -6.3786   18.7642  -34.4565 H   0  0  0  0  0  0  0  0  0  0  0  0
   -4.9950   17.1800  -34.4180 N   0  0  0  0  0  0  0  0  0  0  0  0
   -5.0420   16.7570  -35.3750 H   0  0  0  0  0  0  0  0  0  0  0  0
   -5.9900   16.4820  -33.5620 C   0  0  0  0  0  0  0  0  0  0  0  0
   -5.9156   15.4006  -33.7495 H   0  0  0  0  0  0  0  0  0  0  0  0
   -6.9823   16.8783  -33.8232 H   0  0  0  0  0  0  0  0  0  0  0  0
   -5.7760   16.7350  -32.0540 C   0  0  0  0  0  0  0  0  0  0  0  0
   -4.7205   16.9902  -31.8786 H   0  0  0  0  0  0  0  0  0  0  0  0
   -6.0493   15.8224  -31.5040 H   0  0  0  0  0  0  0  0  0  0  0  0
   -6.6580   17.8850  -31.5580 C   0  0  0  0  0  0  0  0  0  0  0  0
   -6.1400   18.8410  -31.7244 H   0  0  0  0  0  0  0  0  0  0  0  0
   -6.8567   17.7545  -30.4840 H   0  0  0  0  0  0  0  0  0  0  0  0
   -7.9260   17.8850  -32.2890 N   0  0  0  0  0  0  0  0  0  0  0  0
   -8.4240   19.5030  -32.6750 S   0  0  0  0  0  0  0  0  0  0  0  0
   -7.6010   20.0460  -33.8100 O   0  0  0  0  0  0  0  0  0  0  0  0
   -9.8700   19.4700  -33.0850 O   0  0  0  0  0  0  0  0  0  0  0  0
   -8.2330   20.5280  -31.2170 C   0  0  0  0  0  0  0  0  0  0  0  0
   -7.1629   20.5877  -30.9692 H   0  0  0  0  0  0  0  0  0  0  0  0
   -8.8183   20.0619  -30.4106 H   0  0  0  0  0  0  0  0  0  0  0  0
   -8.7710   21.9550  -31.4060 C   0  0  0  0  0  0  0  0  0  0  0  0
   -9.2775   22.2542  -30.4766 H   0  0  0  0  0  0  0  0  0  0  0  0
   -9.4415   21.9171  -32.2772 H   0  0  0  0  0  0  0  0  0  0  0  0
   -7.7050   23.0160  -31.7310 C   0  0  0  0  0  0  0  0  0  0  0  0
   -7.4794   23.5780  -30.8127 H   0  0  0  0  0  0  0  0  0  0  0  0
   -8.1166   23.6628  -32.5198 H   0  0  0  0  0  0  0  0  0  0  0  0
   -6.4050   22.4170  -32.2660 C   0  0  0  0  0  0  0  0  0  0  0  0
   -5.7633   22.1213  -31.4229 H   0  0  0  0  0  0  0  0  0  0  0  0
   -6.6338   21.5335  -32.8801 H   0  0  0  0  0  0  0  0  0  0  0  0
   -5.8821   23.1650  -32.8801 H   0  0  0  0  0  0  0  0  0  0  0  0
   -3.6200   16.9180  -33.9040 C   0  0  0  0  0  0  0  0  0  0  0  0
   -3.2215   16.0210  -34.4006 H   0  0  0  0  0  0  0  0  0  0  0  0
   -3.6885   16.7769  -32.8152 H   0  0  0  0  0  0  0  0  0  0  0  0
   -2.6700   18.0890  -34.1660 C   0  0  0  0  0  0  0  0  0  0  0  0
   -2.6456   18.3039  -35.2445 H   0  0  0  0  0  0  0  0  0  0  0  0
   -1.6622   17.8214  -33.8158 H   0  0  0  0  0  0  0  0  0  0  0  0
   -3.5200   23.1280  -30.6090 C   0  0  0  0  0  0  0  0  0  0  0  0
   -4.1411   22.4638  -31.2279 H   0  0  0  0  0  0  0  0  0  0  0  0
  1  2  1  0
  2  3  1  0
  3  4  1  0
  4  5  2  0
  5  6  1  0
  5  7  1  0
  7  8  1  0
  7  9  2  0
  9 10  1  0
  9 11  1  0
 11 12  1  0
 11 13  2  0
 13 14  1  0
 14 15  2  0
 15 16  1  0
 16 17  1  0
 16 18  1  0
 16 19  1  0
 19 20  1  0
 19 21  1  0
 19 22  1  0
 22 23  1  0
 22 24  1  0
 22 25  1  0
 25 26  1  0
 26 27  1  0
 26 28  1  0
 26 29  1  0
 29 30  1  0
 29 31  1  0
 29 32  1  0
 32 33  1  0
 32 34  1  0
 34 35  1  0
 34 36  1  0
 34 37  1  0
 37 38  1  0
 37 39  1  0
 37 40  1  0
 40 41  1  0
 40 42  1  0
 40 43  1  0
 43 44  1  0
 44 45  2  0
 44 46  2  0
 44 47  1  0
 47 48  1  0
 47 49  1  0
 47 50  1  0
 50 51  1  0
 50 52  1  0
 50 53  1  0
 53 54  1  0
 53 55  1  0
 53 56  1  0
 56 57  1  0
 56 58  1  0
 56 59  1  0
 32 60  1  0
 60 61  1  0
 60 62  1  0
 60 63  1  0
 63 64  1  0
 63 65  1  0
 14 66  1  0
 66 67  1  0
 66  2  2  0
 13  4  1  0
 63 25  1  0
M  CHG  3   3  -1  32   1  43  -1
M  END
>  <UniqueID>  (13) 
13

>  <SMILES>  (13) 
CCCCS(=O)(=O)[N-]CCC[NH+]1CCN(CCC/N=c2\cc[n-]c3cc(Cl)ccc23)CC1

>  <Energy>  (13) 
71.07570154385702

>  <Genealogy>  (13) 
CCCCS(=O)(=O)[N-]CCC[NH+]1CCN(CCCN=c2cc[n-]c3cc(Cl)ccc23)CC1 (protonated)
CCCCS(=O)(=O)[N-]CCC[NH+]1CCN(CCC/N=c2\cc[n-]c3cc(Cl)ccc23)CC1 (cis-trans isomerization)
CCCCS(=O)(=O)[N-]CCC[NH+]1CCN(CCC/N=c2\cc[n-]c3cc(Cl)ccc23)CC1 (3D coordinates assigned)
CCCCS(=O)(=O)[N-]CCC[NH+]1CCN(CCC/N=c2\cc[n-]c3cc(Cl)ccc23)CC1 (nonaromatic ring conformer: 71.07570154385702 kcal/mol)

>  <smiles>  (13) 
CCCCS(=O)(=O)NCCCN1CCN(CCCN=c2cc[nH]c3cc(Cl)ccc23)CC1

>  <score_type>  (13) 
oracle

>  <origin>  (13) 
adg

>  <m_score__min__energy>  (13) 
-10.49

>  <m_primary>  (13) 
energy

$$$$
13:0
     RDKit          3D

 61 63  0  0  0  0  0  0  0  0999 V2000
   -2.7970   19.0620  -26.5920 C   0  0  0  0  0  0  0  0  0  0  0  0
   -2.7280   20.0770  -27.7440 C   0  0  0  0  0  0  0  0  0  0  0  0
   -1.3900   20.1930  -28.3780 N   0  0  1  0  0  0  0  0  0  0  0  0
   -0.6890   21.4200  -27.9460 C   0  0  0  0  0  0  0  0  0  0  0  0
   -0.5620   18.9770  -28.1600 C   0  0  0  0  0  0  0  0  0  0  0  0
    0.5080   18.7900  -29.2450 C   0  0  0  0  0  0  0  0  0  0  0  0
    0.1900   19.5990  -30.3590 O   0  0  0  0  0  0  0  0  0  0  0  0
   -0.1390   18.7820  -31.4620 C   0  0  0  0  0  0  0  0  0  0  0  0
   -1.2990   19.4200  -32.2240 C   0  0  0  0  0  0  0  0  0  0  0  0
   -1.7740   20.5610  -31.5340 O   0  0  0  0  0  0  0  0  0  0  0  0
   -2.2490   21.5480  -32.4310 C   0  0  0  0  0  0  0  0  0  0  0  0
   -3.6500   22.0180  -32.0330 C   0  0  0  0  0  0  0  0  0  0  0  0
   -4.6250   21.7000  -33.0780 N   0  0  0  0  0  0  0  0  0  0  0  0
   -5.7580   20.8520  -32.8160 C   0  0  0  0  0  0  0  0  0  0  0  0
   -6.9900   21.4140  -32.4340 C   0  0  0  0  0  0  0  0  0  0  0  0
   -7.1340   22.8110  -32.2890 C   0  0  0  0  0  0  0  0  0  0  0  0
   -8.3680   23.3700  -31.9730 C   0  0  0  0  0  0  0  0  0  0  0  0
   -9.4820   22.5550  -31.8140 C   0  0  0  0  0  0  0  0  0  0  0  0
   -9.3640   21.1720  -31.9420 C   0  0  0  0  0  0  0  0  0  0  0  0
   -8.1100   20.5660  -32.2150 C   0  0  0  0  0  0  0  0  0  0  0  0
   -7.9670   19.1930  -32.2900 N   0  0  0  0  0  0  0  0  0  0  0  0
   -9.0480   18.3110  -31.7930 C   0  0  0  0  0  0  0  0  0  0  0  0
   -6.8000   18.6410  -32.7830 C   0  0  0  0  0  0  0  0  0  0  0  0
   -6.6990   17.2620  -33.1010 C   0  0  0  0  0  0  0  0  0  0  0  0
   -5.4870   16.7000  -33.5050 C   0  0  0  0  0  0  0  0  0  0  0  0
   -5.3820   14.8340  -33.9030 Br  0  0  0  0  0  0  0  0  0  0  0  0
   -4.3520   17.4970  -33.6130 C   0  0  0  0  0  0  0  0  0  0  0  0
   -4.4330   18.8630  -33.3650 C   0  0  0  0  0  0  0  0  0  0  0  0
   -5.6580   19.4590  -32.9950 C   0  0  0  0  0  0  0  0  0  0  0  0
   -2.7607   19.5954  -25.6307 H   0  0  0  0  0  0  0  0  0  0  0  0
   -3.7359   18.4930  -26.6604 H   0  0  0  0  0  0  0  0  0  0  0  0
   -1.9437   18.3711  -26.6604 H   0  0  0  0  0  0  0  0  0  0  0  0
   -3.4495   19.7713  -28.5160 H   0  0  0  0  0  0  0  0  0  0  0  0
   -2.9570   21.0615  -27.3101 H   0  0  0  0  0  0  0  0  0  0  0  0
   -1.5730   20.2960  -29.4060 H   0  0  0  0  0  0  0  0  0  0  0  0
   -0.6655   21.4612  -26.8470 H   0  0  0  0  0  0  0  0  0  0  0  0
    0.3400   21.4106  -28.3347 H   0  0  0  0  0  0  0  0  0  0  0  0
   -1.2197   22.3016  -28.3347 H   0  0  0  0  0  0  0  0  0  0  0  0
   -0.0628   19.0610  -27.1834 H   0  0  0  0  0  0  0  0  0  0  0  0
   -1.2323   18.1057  -28.1989 H   0  0  0  0  0  0  0  0  0  0  0  0
    1.4905   19.0831  -28.8465 H   0  0  0  0  0  0  0  0  0  0  0  0
    0.5397   17.7345  -29.5532 H   0  0  0  0  0  0  0  0  0  0  0  0
    0.7329   18.6905  -32.1264 H   0  0  0  0  0  0  0  0  0  0  0  0
   -0.4307   17.7815  -31.1099 H   0  0  0  0  0  0  0  0  0  0  0  0
   -0.9544   19.7190  -33.2249 H   0  0  0  0  0  0  0  0  0  0  0  0
   -2.1159   18.6882  -32.3087 H   0  0  0  0  0  0  0  0  0  0  0  0
   -1.5630   22.4078  -32.4168 H   0  0  0  0  0  0  0  0  0  0  0  0
   -2.2976   21.1122  -33.4398 H   0  0  0  0  0  0  0  0  0  0  0  0
   -3.9462   21.5169  -31.0997 H   0  0  0  0  0  0  0  0  0  0  0  0
   -3.6280   23.1089  -31.8935 H   0  0  0  0  0  0  0  0  0  0  0  0
   -4.3610   21.8880  -34.0720 H   0  0  0  0  0  0  0  0  0  0  0  0
   -6.2604   23.4649  -32.4275 H   0  0  0  0  0  0  0  0  0  0  0  0
   -8.4620   24.4589  -31.8488 H   0  0  0  0  0  0  0  0  0  0  0  0
  -10.4606   23.0028  -31.5863 H   0  0  0  0  0  0  0  0  0  0  0  0
  -10.2573   20.5400  -31.8296 H   0  0  0  0  0  0  0  0  0  0  0  0
   -9.0460   18.3127  -30.6930 H   0  0  0  0  0  0  0  0  0  0  0  0
  -10.0182   18.6785  -32.1584 H   0  0  0  0  0  0  0  0  0  0  0  0
   -8.8827   17.2867  -32.1584 H   0  0  0  0  0  0  0  0  0  0  0  0
   -7.5922   16.6241  -33.0278 H   0  0  0  0  0  0  0  0  0  0  0  0
   -3.3891   17.0461  -33.8950 H   0  0  0  0  0  0  0  0  0  0  0  0
   -3.5316   19.4866  -33.4583 H   0  0  0  0  0  0  0  0  0  0  0  0
  1  2  1  0
  2  3  1  0
  3  4  1  0
  3  5  1  0
  5  6  1  0
  6  7  1  0
  7  8  1  0
  8  9  1  0
  9 10  1  0
 10 11  1  0
 11 12  1  0
 12 13  1  0
 13 14  1  0
 14 15  2  0
 15 16  1  0
 16 17  2  0
 17 18  1  0
 18 19  2  0
 19 20  1  0
 20 21  2  0
 21 22  1  0
 21 23  1  0
 23 24  2  0
 24 25  1  0
 25 26  1  0
 25 27  2  0
 27 28  1  0
 28 29  2  0
 29 14  1  0
 20 15  1  0
 29 23  1  0
  1 30  1  0
  1 31  1  0
  1 32  1  0
  2 33  1  0
  2 34  1  0
  3 35  1  6
  4 36  1  0
  4 37  1  0
  4 38  1  0
  5 39  1  0
  5 40  1  0
  6 41  1  0
  6 42  1  0
  8 43  1  0
  8 44  1  0
  9 45  1  0
  9 46  1  0
 11 47  1  0
 11 48  1  0
 12 49  1  0
 12 50  1  0
 13 51  1  0
 16 52  1  0
 17 53  1  0
 18 54  1  0
 19 55  1  0
 22 56  1  0
 22 57  1  0
 22 58  1  0
 24 59  1  0
 27 60  1  0
 28 61  1  0
M  CHG  2   3   1  21   1
M  END
>  <UniqueID>  (14) 
14

>  <SMILES>  (14) 
CC[N@@H+](C)CCOCCOCCNc1c2ccccc2[n+](C)c2cc(Br)ccc12

>  <Energy>  (14) 
89.74769346869957

>  <Genealogy>  (14) 
CC[NH+](C)CCOCCOCCNc1c2ccccc2[n+](C)c2cc(Br)ccc12 (protonated)
CC[N@@H+](C)CCOCCOCCNc1c2ccccc2[n+](C)c2cc(Br)ccc12 (chirality)
CC[N@@H+](C)CCOCCOCCNc1c2ccccc2[n+](C)c2cc(Br)ccc12 (3D coordinates assigned)
CC[N@@H+](C)CCOCCOCCNc1c2ccccc2[n+](C)c2cc(Br)ccc12 (optimized conformer: 89.74769346869957 kcal/mol)

>  <smiles>  (14) 
CCN(C)CCOCCOCCNc1c2ccccc2[n+](C)c2cc(Br)ccc12

>  <score_type>  (14) 
oracle

>  <origin>  (14) 
adg

>  <m_score__min__energy>  (14) 
-8.6600000000000001

>  <m_primary>  (14) 
energy

$$$$
14:0
     RDKit          3D

 55 57  0  0  0  0  0  0  0  0999 V2000
   -3.1830   24.2630  -27.9660 C   0  0  0  0  0  0  0  0  0  0  0  0
   -2.6250   24.5560  -29.3560 C   0  0  0  0  0  0  0  0  0  0  0  0
   -3.5710   24.1150  -30.3960 N   0  0  0  0  0  0  0  0  0  0  0  0
   -4.9740   24.2340  -29.9640 C   0  0  0  0  0  0  0  0  0  0  0  0
   -5.8470   24.5740  -31.1710 C   0  0  0  0  0  0  0  0  0  0  0  0
   -6.6390   23.3690  -31.6120 C   0  0  0  0  0  0  0  0  0  0  0  0
   -7.9790   23.2340  -31.2210 C   0  0  0  0  0  0  0  0  0  0  0  0
   -8.7060   22.0960  -31.5750 C   0  0  0  0  0  0  0  0  0  0  0  0
   -8.1020   21.0670  -32.3050 C   0  0  0  0  0  0  0  0  0  0  0  0
   -9.0800   19.6500  -32.6850 Cl  0  0  0  0  0  0  0  0  0  0  0  0
   -6.7470   21.1790  -32.6970 C   0  0  0  0  0  0  0  0  0  0  0  0
   -6.0270   20.0520  -33.4180 C   0  0  0  0  0  0  0  0  0  0  0  0
   -5.0750   19.3490  -32.5280 N   0  0  2  0  0  0  0  0  0  0  0  0
   -3.7380   19.8810  -32.7570 C   0  0  0  0  0  0  0  0  0  0  0  0
   -3.3490   20.0450  -33.9080 O   0  0  0  0  0  0  0  0  0  0  0  0
   -2.8360   20.3730  -31.6280 C   0  0  1  0  0  0  0  0  0  0  0  0
   -1.7590   21.4140  -32.0440 C   0  0  0  0  0  0  0  0  0  0  0  0
   -1.3620   22.2980  -30.9320 N   0  0  0  0  0  0  0  0  0  0  0  0
   -1.4080   21.6020  -29.6410 C   0  0  0  0  0  0  0  0  0  0  0  0
   -2.8510   21.1510  -29.3200 C   0  0  0  0  0  0  0  0  0  0  0  0
   -3.6580   20.9190  -30.5330 N   0  0  0  0  0  0  0  0  0  0  0  0
   -5.0750   17.8950  -32.8150 C   0  0  0  0  0  0  0  0  0  0  0  0
   -5.8870   17.4660  -34.0350 C   0  0  0  0  0  0  0  0  0  0  0  0
   -6.4220   17.2040  -32.6350 C   0  0  0  0  0  0  0  0  0  0  0  0
   -6.0260   22.3420  -32.3500 C   0  0  0  0  0  0  0  0  0  0  0  0
   -4.7210   22.4620  -32.7120 F   0  0  0  0  0  0  0  0  0  0  0  0
   -2.4808   24.6317  -27.2038 H   0  0  0  0  0  0  0  0  0  0  0  0
   -4.1527   24.7682  -27.8462 H   0  0  0  0  0  0  0  0  0  0  0  0
   -3.3176   23.1779  -27.8462 H   0  0  0  0  0  0  0  0  0  0  0  0
   -2.4548   25.6381  -29.4569 H   0  0  0  0  0  0  0  0  0  0  0  0
   -1.6786   24.0096  -29.4816 H   0  0  0  0  0  0  0  0  0  0  0  0
   -3.3730   23.1020  -30.6000 H   0  0  0  0  0  0  0  0  0  0  0  0
   -5.3061   23.2806  -29.5272 H   0  0  0  0  0  0  0  0  0  0  0  0
   -5.0611   25.0304  -29.2102 H   0  0  0  0  0  0  0  0  0  0  0  0
   -6.5413   25.3824  -30.8983 H   0  0  0  0  0  0  0  0  0  0  0  0
   -5.1970   24.8926  -31.9992 H   0  0  0  0  0  0  0  0  0  0  0  0
   -8.4598   24.0291  -30.6322 H   0  0  0  0  0  0  0  0  0  0  0  0
   -9.7614   22.0079  -31.2777 H   0  0  0  0  0  0  0  0  0  0  0  0
   -6.7720   19.3300  -33.7836 H   0  0  0  0  0  0  0  0  0  0  0  0
   -5.4570   20.4886  -34.2514 H   0  0  0  0  0  0  0  0  0  0  0  0
   -5.3710   19.5300  -31.5440 H   0  0  0  0  0  0  0  0  0  0  0  0
   -2.2730   19.4862  -31.3014 H   0  0  0  0  0  0  0  0  0  0  0  0
   -0.8685   20.8756  -32.4007 H   0  0  0  0  0  0  0  0  0  0  0  0
   -2.1949   22.0462  -32.8316 H   0  0  0  0  0  0  0  0  0  0  0  0
   -0.3760   22.6200  -31.1010 H   0  0  0  0  0  0  0  0  0  0  0  0
   -0.7535   20.7189  -29.6824 H   0  0  0  0  0  0  0  0  0  0  0  0
   -1.0670   22.2903  -28.8536 H   0  0  0  0  0  0  0  0  0  0  0  0
   -2.8072   20.2159  -28.7423 H   0  0  0  0  0  0  0  0  0  0  0  0
   -3.3327   21.9591  -28.7500 H   0  0  0  0  0  0  0  0  0  0  0  0
   -4.0750   21.8330  -30.8480 H   0  0  0  0  0  0  0  0  0  0  0  0
   -4.0488   17.7160  -32.4617 H   0  0  0  0  0  0  0  0  0  0  0  0
   -6.3638   18.2248  -34.6729 H   0  0  0  0  0  0  0  0  0  0  0  0
   -5.6900   16.8448  -34.9212 H   0  0  0  0  0  0  0  0  0  0  0  0
   -7.2860   17.7732  -32.2615 H   0  0  0  0  0  0  0  0  0  0  0  0
   -6.7721   16.3143  -32.0911 H   0  0  0  0  0  0  0  0  0  0  0  0
  1  2  1  0
  2  3  1  0
  3  4  1  0
  4  5  1  0
  5  6  1  0
  6  7  2  0
  7  8  1  0
  8  9  2  0
  9 10  1  0
  9 11  1  0
 11 12  1  0
 12 13  1  0
 13 14  1  0
 14 15  2  0
 14 16  1  0
 16 17  1  0
 17 18  1  0
 18 19  1  0
 19 20  1  0
 20 21  1  0
 13 22  1  0
 22 23  1  0
 23 24  1  0
 11 25  2  0
 25 26  1  0
 25  6  1  0
 21 16  1  0
 24 22  1  0
  1 27  1  0
  1 28  1  0
  1 29  1  0
  2 30  1  0
  2 31  1  0
  3 32  1  0
  4 33  1  0
  4 34  1  0
  5 35  1  0
  5 36  1  0
  7 37  1  0
  8 38  1  0
 12 39  1  0
 12 40  1  0
 13 41  1  1
 16 42  1  1
 17 43  1  0
 17 44  1  0
 18 45  1  0
 19 46  1  0
 19 47  1  0
 20 48  1  0
 20 49  1  0
 21 50  1  0
 22 51  1  0
 23 52  1  0
 23 53  1  0
 24 54  1  0
 24 55  1  0
M  CHG  1  13   1
M  END
>  <UniqueID>  (15) 
15

>  <SMILES>  (15) 
CCNCCc1ccc(Cl)c(C[N@H+](C(=O)[C@H]2CNCCN2)C2CC2)c1F

>  <Energy>  (15) 
327.91352232377335

>  <Genealogy>  (15) 
CCNCCc1ccc(Cl)c(C[NH+](C(=O)C2CNCCN2)C2CC2)c1F (protonated)
CCNCCc1ccc(Cl)c(C[N@H+](C(=O)[C@H]2CNCCN2)C2CC2)c1F (chirality)
CCNCCc1ccc(Cl)c(C[N@H+](C(=O)[C@H]2CNCCN2)C2CC2)c1F (3D coordinates assigned)
CCNCCc1ccc(Cl)c(C[N@H+](C(=O)[C@H]2CNCCN2)C2CC2)c1F (nonaromatic ring conformer: 327.91352232377335 kcal/mol)

>  <smiles>  (15) 
CCNCCc1ccc(Cl)c(CN(C(=O)C2CNCCN2)C2CC2)c1F

>  <score_type>  (15) 
oracle

>  <origin>  (15) 
adg

>  <m_score__min__energy>  (15) 
-7.9699999999999998

>  <m_primary>  (15) 
energy

$$$$
15:0
     RDKit          3D

 80 83  0  0  0  0  0  0  0  0999 V2000
   -8.8290   18.5710  -31.9120 C   0  0  0  0  0  0  0  0  0  0  0  0
   -7.3890   18.9870  -31.6220 C   0  0  0  0  0  0  0  0  0  0  0  0
   -7.0970   20.3570  -32.1080 N   0  0  0  0  0  0  0  0  0  0  0  0
   -8.2990   21.2210  -32.0480 C   0  0  0  0  0  0  0  0  0  0  0  0
   -8.3930   21.8970  -30.6830 C   0  0  0  0  0  0  0  0  0  0  0  0
   -6.4380   20.4050  -33.4380 C   0  0  0  0  0  0  0  0  0  0  0  0
   -4.8930   20.3650  -33.3770 C   0  0  0  0  0  0  0  0  0  0  0  0
   -4.3170   21.7280  -33.4050 N   0  0  0  0  0  0  0  0  0  0  0  0
   -3.8500   22.1510  -32.0930 C   0  0  0  0  0  0  0  0  0  0  0  0
   -4.6480   23.0610  -31.3400 C   0  0  0  0  0  0  0  0  0  0  0  0
   -5.7590   23.7340  -31.9120 C   0  0  0  0  0  0  0  0  0  0  0  0
   -6.4850   24.6760  -31.1880 C   0  0  0  0  0  0  0  0  0  0  0  0
   -6.1270   24.9740  -29.8820 C   0  0  0  0  0  0  0  0  0  0  0  0
   -5.0710   24.2990  -29.2790 C   0  0  0  0  0  0  0  0  0  0  0  0
   -4.3420   23.3010  -29.9770 C   0  0  0  0  0  0  0  0  0  0  0  0
   -3.3690   22.5610  -29.3490 N   0  0  0  0  0  0  0  0  0  0  0  0
   -3.3290   22.5100  -27.8680 C   0  0  0  0  0  0  0  0  0  0  0  0
   -2.4470   21.8520  -30.0930 C   0  0  0  0  0  0  0  0  0  0  0  0
   -1.2770   21.3470  -29.4770 C   0  0  0  0  0  0  0  0  0  0  0  0
   -0.3520   20.5990  -30.1830 C   0  0  0  0  0  0  0  0  0  0  0  0
   -0.5350   20.3700  -31.5320 C   0  0  0  0  0  0  0  0  0  0  0  0
   -1.6460   20.8850  -32.2100 C   0  0  0  0  0  0  0  0  0  0  0  0
   -1.6230   20.7590  -33.6360 N   0  0  0  0  0  0  0  0  0  0  0  0
   -0.8610   19.6810  -34.2690 C   0  0  0  0  0  0  0  0  0  0  0  0
   -1.7780   18.4990  -34.5970 C   0  0  0  0  0  0  0  0  0  0  0  0
   -2.4750   17.9670  -33.3210 C   0  0  0  0  0  0  0  0  0  0  0  0
   -3.4250   16.8260  -33.5420 N   0  0  0  0  0  0  0  0  0  0  0  0
   -2.7150   15.5370  -33.3150 C   0  0  0  0  0  0  0  0  0  0  0  0
   -4.5900   16.9300  -32.5960 C   0  0  0  0  0  0  0  0  0  0  0  0
   -5.8880   16.3460  -33.1730 C   0  0  0  0  0  0  0  0  0  0  0  0
   -6.3240   17.1160  -34.4300 C   0  0  0  0  0  0  0  0  0  0  0  0
   -5.1300   17.7020  -35.2020 C   0  0  0  0  0  0  0  0  0  0  0  0
   -3.8660   16.8560  -34.9810 C   0  0  0  0  0  0  0  0  0  0  0  0
   -2.6510   21.6310  -31.4970 C   0  0  0  0  0  0  0  0  0  0  0  0
   -9.3641   18.4164  -30.9634 H   0  0  0  0  0  0  0  0  0  0  0  0
   -9.3295   19.3613  -32.4908 H   0  0  0  0  0  0  0  0  0  0  0  0
   -8.8309   17.6356  -32.4908 H   0  0  0  0  0  0  0  0  0  0  0  0
   -7.2216   18.9527  -30.5354 H   0  0  0  0  0  0  0  0  0  0  0  0
   -6.7216   18.2901  -32.1501 H   0  0  0  0  0  0  0  0  0  0  0  0
   -8.2330   21.9907  -32.8311 H   0  0  0  0  0  0  0  0  0  0  0  0
   -9.1947   20.6021  -32.2051 H   0  0  0  0  0  0  0  0  0  0  0  0
   -8.2878   21.1407  -29.8912 H   0  0  0  0  0  0  0  0  0  0  0  0
   -7.5899   22.6425  -30.5869 H   0  0  0  0  0  0  0  0  0  0  0  0
   -9.3690   22.3951  -30.5869 H   0  0  0  0  0  0  0  0  0  0  0  0
   -6.7833   19.5421  -34.0263 H   0  0  0  0  0  0  0  0  0  0  0  0
   -6.7134   21.3670  -33.8948 H   0  0  0  0  0  0  0  0  0  0  0  0
   -4.5842   19.8648  -32.4473 H   0  0  0  0  0  0  0  0  0  0  0  0
   -4.5255   19.8153  -34.2561 H   0  0  0  0  0  0  0  0  0  0  0  0
   -3.5110   21.7740  -34.0700 H   0  0  0  0  0  0  0  0  0  0  0  0
   -4.9830   22.4090  -33.8210 H   0  0  0  0  0  0  0  0  0  0  0  0
   -6.0522   23.5069  -32.9476 H   0  0  0  0  0  0  0  0  0  0  0  0
   -7.3430   25.1841  -31.6523 H   0  0  0  0  0  0  0  0  0  0  0  0
   -6.6782   25.7443  -29.3228 H   0  0  0  0  0  0  0  0  0  0  0  0
   -4.7958   24.5430  -28.2423 H   0  0  0  0  0  0  0  0  0  0  0  0
   -3.9585   23.3126  -27.4563 H   0  0  0  0  0  0  0  0  0  0  0  0
   -3.7061   21.5355  -27.5244 H   0  0  0  0  0  0  0  0  0  0  0  0
   -2.2927   22.6440  -27.5244 H   0  0  0  0  0  0  0  0  0  0  0  0
   -1.0990   21.5543  -28.4115 H   0  0  0  0  0  0  0  0  0  0  0  0
    0.5292   20.1868  -29.6696 H   0  0  0  0  0  0  0  0  0  0  0  0
    0.2054   19.7722  -32.0838 H   0  0  0  0  0  0  0  0  0  0  0  0
   -1.6960   21.6560  -34.1650 H   0  0  0  0  0  0  0  0  0  0  0  0
   -0.4066   20.0557  -35.1981 H   0  0  0  0  0  0  0  0  0  0  0  0
   -0.0780   19.3426  -33.5745 H   0  0  0  0  0  0  0  0  0  0  0  0
   -2.5440   18.8265  -35.3154 H   0  0  0  0  0  0  0  0  0  0  0  0
   -1.1679   17.6905  -35.0261 H   0  0  0  0  0  0  0  0  0  0  0  0
   -1.6951   17.6304  -32.6221 H   0  0  0  0  0  0  0  0  0  0  0  0
   -3.0812   18.7993  -32.9339 H   0  0  0  0  0  0  0  0  0  0  0  0
   -2.6164   15.3581  -32.2341 H   0  0  0  0  0  0  0  0  0  0  0  0
   -3.2887   14.7170  -33.7716 H   0  0  0  0  0  0  0  0  0  0  0  0
   -1.7153   15.5837  -33.7716 H   0  0  0  0  0  0  0  0  0  0  0  0
   -4.3412   16.3859  -31.6729 H   0  0  0  0  0  0  0  0  0  0  0  0
   -4.7662   17.9995  -32.4086 H   0  0  0  0  0  0  0  0  0  0  0  0
   -5.7225   15.2908  -33.4362 H   0  0  0  0  0  0  0  0  0  0  0  0
   -6.6803   16.4329  -32.4149 H   0  0  0  0  0  0  0  0  0  0  0  0
   -6.8707   16.4293  -35.0930 H   0  0  0  0  0  0  0  0  0  0  0  0
   -6.9584   17.9544  -34.1066 H   0  0  0  0  0  0  0  0  0  0  0  0
   -5.3687   17.7193  -36.2756 H   0  0  0  0  0  0  0  0  0  0  0  0
   -4.9397   18.7212  -34.8345 H   0  0  0  0  0  0  0  0  0  0  0  0
   -4.0720   15.8256  -35.3065 H   0  0  0  0  0  0  0  0  0  0  0  0
   -3.0551   17.3156  -35.5651 H   0  0  0  0  0  0  0  0  0  0  0  0
  1  2  1  0
  2  3  1  0
  3  4  1  0
  4  5  1  0
  3  6  1  0
  6  7  1  0
  7  8  1  0
  8  9  1  0
  9 10  2  0
 10 11  1  0
 11 12  2  0
 12 13  1  0
 13 14  2  0
 14 15  1  0
 15 16  2  0
 16 17  1  0
 16 18  1  0
 18 19  2  0
 19 20  1  0
 20 21  2  0
 21 22  1  0
 22 23  1  0
 23 24  1  0
 24 25  1  0
 25 26  1  0
 26 27  1  0
 27 28  1  0
 27 29  1  0
 29 30  1  0
 30 31  1  0
 31 32  1  0
 32 33  1  0
 22 34  2  0
 34  9  1  0
 15 10  1  0
 34 18  1  0
 33 27  1  0
  1 35  1  0
  1 36  1  0
  1 37  1  0
  2 38  1  0
  2 39  1  0
  4 40  1  0
  4 41  1  0
  5 42  1  0
  5 43  1  0
  5 44  1  0
  6 45  1  0
  6 46  1  0
  7 47  1  0
  7 48  1  0
  8 49  1  0
  8 50  1  0
 11 51  1  0
 12 52  1  0
 13 53  1  0
 14 54  1  0
 17 55  1  0
 17 56  1  0
 17 57  1  0
 19 58  1  0
 20 59  1  0
 21 60  1  0
 23 61  1  0
 24 62  1  0
 24 63  1  0
 25 64  1  0
 25 65  1  0
 26 66  1  0
 26 67  1  0
 28 68  1  0
 28 69  1  0
 28 70  1  0
 29 71  1  0
 29 72  1  0
 30 73  1  0
 30 74  1  0
 31 75  1  0
 31 76  1  0
 32 77  1  0
 32 78  1  0
 33 79  1  0
 33 80  1  0
M  CHG  3   8   1  16   1  27   1
M  END
>  <UniqueID>  (16) 
16

>  <SMILES>  (16) 
CCN(CC)CC[NH2+]c1c2ccccc2[n+](C)c2cccc(NCCC[N+]3(C)CCCCC3)c12

>  <Energy>  (16) 
134.3196631963972

>  <Genealogy>  (16) 
CCN(CC)CC[NH2+]c1c2ccccc2[n+](C)c2cccc(NCCC[N+]3(C)CCCCC3)c12 (protonated)
CCN(CC)CC[NH2+]c1c2ccccc2[n+](C)c2cccc(NCCC[N+]3(C)CCCCC3)c12 (3D coordinates assigned)
CCN(CC)CC[NH2+]c1c2ccccc2[n+](C)c2cccc(NCCC[N+]3(C)CCCCC3)c12 (nonaromatic ring conformer: 134.3196631963972 kcal/mol)

>  <smiles>  (16) 
CCN(CC)CCNc1c2ccccc2[n+](C)c2cccc(NCCC[N+]3(C)CCCCC3)c12

>  <score_type>  (16) 
oracle

>  <origin>  (16) 
adg

>  <m_score__min__energy>  (16) 
-9.25

>  <m_primary>  (16) 
energy

$$$$
16:0
     RDKit          3D

 56 59  0  0  0  0  0  0  0  0999 V2000
   -6.4210   24.8880  -29.8040 C   0  0  0  0  0  0  0  0  0  0  0  0
   -5.1450   25.3100  -30.5390 C   0  0  0  0  0  0  0  0  0  0  0  0
   -4.1840   24.2030  -30.6840 N   0  0  0  0  0  0  0  0  0  0  0  0
   -3.2440   24.1280  -29.5530 C   0  0  0  0  0  0  0  0  0  0  0  0
   -2.5790   22.7410  -29.4890 C   0  0  0  0  0  0  0  0  0  0  0  0
   -3.1800   21.7870  -30.4330 N   0  0  0  0  0  0  0  0  0  0  0  0
   -2.1970   20.8920  -31.0730 C   0  0  0  0  0  0  0  0  0  0  0  0
   -1.6160   21.4980  -32.3570 C   0  0  0  0  0  0  0  0  0  0  0  0
   -2.5770   21.3800  -33.4520 N   0  0  0  0  0  0  0  0  0  0  0  0
   -3.5610   20.3340  -33.4660 C   0  0  0  0  0  0  0  0  0  0  0  0
   -4.8760   20.5980  -33.0960 C   0  0  0  0  0  0  0  0  0  0  0  0
   -5.8370   19.6010  -33.0830 C   0  0  0  0  0  0  0  0  0  0  0  0
   -5.5690   18.3390  -33.5540 N   0  0  0  0  0  0  0  0  0  0  0  0
   -6.6750   17.4080  -33.8290 C   0  0  0  0  0  0  0  0  0  0  0  0
   -4.2520   18.0000  -33.8240 C   0  0  0  0  0  0  0  0  0  0  0  0
   -3.8700   16.6630  -34.0960 C   0  0  0  0  0  0  0  0  0  0  0  0
   -2.5480   16.3410  -34.3990 C   0  0  0  0  0  0  0  0  0  0  0  0
   -1.5710   17.3310  -34.4250 C   0  0  0  0  0  0  0  0  0  0  0  0
   -1.9020   18.6510  -34.1290 C   0  0  0  0  0  0  0  0  0  0  0  0
   -3.2290   19.0060  -33.8140 C   0  0  0  0  0  0  0  0  0  0  0  0
   -7.1070   20.1950  -32.5980 C   0  0  0  0  0  0  0  0  0  0  0  0
   -8.3160   19.6090  -32.1940 C   0  0  0  0  0  0  0  0  0  0  0  0
   -9.3340   20.4400  -31.6940 C   0  0  0  0  0  0  0  0  0  0  0  0
   -9.1260   21.8260  -31.5610 C   0  0  0  0  0  0  0  0  0  0  0  0
   -7.8900   22.3920  -31.9040 C   0  0  0  0  0  0  0  0  0  0  0  0
   -6.8980   21.5530  -32.4090 C   0  0  0  0  0  0  0  0  0  0  0  0
   -5.5120   21.8600  -32.7200 C   0  0  0  0  0  0  0  0  0  0  0  0
   -4.9760   22.9990  -32.6930 O   0  0  0  0  0  0  0  0  0  0  0  0
   -6.2540   24.9432  -28.7182 H   0  0  0  0  0  0  0  0  0  0  0  0
   -7.2447   25.5616  -30.0830 H   0  0  0  0  0  0  0  0  0  0  0  0
   -6.6806   23.8561  -30.0830 H   0  0  0  0  0  0  0  0  0  0  0  0
   -5.4187   25.6727  -31.5407 H   0  0  0  0  0  0  0  0  0  0  0  0
   -4.6605   26.0966  -29.9419 H   0  0  0  0  0  0  0  0  0  0  0  0
   -4.7300   23.3100  -30.7280 H   0  0  0  0  0  0  0  0  0  0  0  0
   -3.6550   24.3060  -31.5820 H   0  0  0  0  0  0  0  0  0  0  0  0
   -2.4664   24.8958  -29.6783 H   0  0  0  0  0  0  0  0  0  0  0  0
   -3.8002   24.2969  -28.6191 H   0  0  0  0  0  0  0  0  0  0  0  0
   -1.5110   22.8499  -29.7288 H   0  0  0  0  0  0  0  0  0  0  0  0
   -2.7258   22.3453  -28.4732 H   0  0  0  0  0  0  0  0  0  0  0  0
   -3.7610   22.3010  -31.1380 H   0  0  0  0  0  0  0  0  0  0  0  0
   -1.3755   20.7039  -30.3661 H   0  0  0  0  0  0  0  0  0  0  0  0
   -2.7132   19.9586  -31.3420 H   0  0  0  0  0  0  0  0  0  0  0  0
   -1.3885   22.5606  -32.1864 H   0  0  0  0  0  0  0  0  0  0  0  0
   -0.6978   20.9552  -32.6259 H   0  0  0  0  0  0  0  0  0  0  0  0
   -2.3580   21.8700  -34.3470 H   0  0  0  0  0  0  0  0  0  0  0  0
   -7.0988   17.0512  -32.8787 H   0  0  0  0  0  0  0  0  0  0  0  0
   -7.4548   17.9255  -34.4069 H   0  0  0  0  0  0  0  0  0  0  0  0
   -6.2980   16.5513  -34.4069 H   0  0  0  0  0  0  0  0  0  0  0  0
   -4.6284   15.8667  -34.0676 H   0  0  0  0  0  0  0  0  0  0  0  0
   -2.2758   15.2981  -34.6188 H   0  0  0  0  0  0  0  0  0  0  0  0
   -0.5333   17.0703  -34.6803 H   0  0  0  0  0  0  0  0  0  0  0  0
   -1.1198   19.4243  -34.1412 H   0  0  0  0  0  0  0  0  0  0  0  0
   -8.4645   18.5215  -32.2669 H   0  0  0  0  0  0  0  0  0  0  0  0
  -10.3012   20.0035  -31.4043 H   0  0  0  0  0  0  0  0  0  0  0  0
   -9.9369   22.4678  -31.1863 H   0  0  0  0  0  0  0  0  0  0  0  0
   -7.7079   23.4695  -31.7779 H   0  0  0  0  0  0  0  0  0  0  0  0
  1  2  1  0
  2  3  1  0
  3  4  1  0
  4  5  1  0
  5  6  1  0
  6  7  1  0
  7  8  1  0
  8  9  1  0
  9 10  1  0
 10 11  2  0
 11 12  1  0
 12 13  2  0
 13 14  1  0
 13 15  1  0
 15 16  2  0
 16 17  1  0
 17 18  2  0
 18 19  1  0
 19 20  2  0
 12 21  1  0
 21 22  2  0
 22 23  1  0
 23 24  2  0
 24 25  1  0
 25 26  2  0
 26 27  1  0
 27 28  2  0
 20 10  1  0
 26 21  1  0
 27 11  1  0
 20 15  1  0
  1 29  1  0
  1 30  1  0
  1 31  1  0
  2 32  1  0
  2 33  1  0
  3 34  1  0
  3 35  1  0
  4 36  1  0
  4 37  1  0
  5 38  1  0
  5 39  1  0
  6 40  1  0
  7 41  1  0
  7 42  1  0
  8 43  1  0
  8 44  1  0
  9 45  1  0
 14 46  1  0
 14 47  1  0
 14 48  1  0
 16 49  1  0
 17 50  1  0
 18 51  1  0
 19 52  1  0
 22 53  1  0
 23 54  1  0
 24 55  1  0
 25 56  1  0
M  CHG  2   3   1  13   1
M  END
>  <UniqueID>  (17) 
17

>  <SMILES>  (17) 
CC[NH2+]CCNCCNc1c2c([n+](C)c3ccccc13)-c1ccccc1C2=O

>  <Energy>  (17) 
110.38230457263788

>  <Genealogy>  (17) 
CC[NH2+]CCNCCNc1c2c([n+](C)c3ccccc13)-c1ccccc1C2=O (protonated)
CC[NH2+]CCNCCNc1c2c([n+](C)c3ccccc13)-c1ccccc1C2=O (3D coordinates assigned)
CC[NH2+]CCNCCNc1c2c([n+](C)c3ccccc13)-c1ccccc1C2=O (nonaromatic ring conformer: 110.38230457263788 kcal/mol)

>  <smiles>  (17) 
CCNCCNCCNc1c2c([n+](C)c3ccccc13)-c1ccccc1C2=O

>  <score_type>  (17) 
oracle

>  <origin>  (17) 
adg

>  <m_score__min__energy>  (17) 
-8.0999999999999996

>  <m_primary>  (17) 
energy

$$$$
17:0
     RDKit          3D

 54 56  0  0  0  0  0  0  0  0999 V2000
   -5.7400   16.3580  -33.7430 C   0  0  0  0  0  0  0  0  0  0  0  0
   -5.1840   17.7140  -34.1620 C   0  0  0  0  0  0  0  0  0  0  0  0
   -6.2590   18.6960  -34.3200 N   0  0  0  0  0  0  0  0  0  0  0  0
   -7.0480   19.2130  -33.2280 C   0  0  0  0  0  0  0  0  0  0  0  0
   -8.1230   18.4560  -32.7210 C   0  0  0  0  0  0  0  0  0  0  0  0
   -8.9490   18.9690  -31.7190 C   0  0  0  0  0  0  0  0  0  0  0  0
   -8.7240   20.2470  -31.2140 C   0  0  0  0  0  0  0  0  0  0  0  0
   -7.6600   21.0100  -31.6950 C   0  0  0  0  0  0  0  0  0  0  0  0
   -6.8000   20.5050  -32.6870 C   0  0  0  0  0  0  0  0  0  0  0  0
   -5.6010   21.3520  -33.0930 C   0  0  0  0  0  0  0  0  0  0  0  0
   -4.3090   20.6530  -32.8660 N   0  0  0  0  0  0  0  0  0  0  0  0
   -3.1390   21.5330  -33.1770 C   0  0  0  0  0  0  0  0  0  0  0  0
   -2.0290   21.4850  -32.1240 C   0  0  0  0  0  0  0  0  0  0  0  0
   -2.6190   21.7550  -30.8130 N   0  0  0  0  0  0  0  0  0  0  0  0
   -2.0800   22.7880  -29.9750 C   0  0  0  0  0  0  0  0  0  0  0  0
   -0.7940   22.6320  -29.4360 C   0  0  0  0  0  0  0  0  0  0  0  0
   -0.2570   23.6060  -28.5930 C   0  0  0  0  0  0  0  0  0  0  0  0
   -0.9950   24.7550  -28.2820 C   0  0  0  0  0  0  0  0  0  0  0  0
   -0.4350   25.7780  -27.3370 C   0  0  0  0  0  0  0  0  0  0  0  0
   -2.2890   24.9080  -28.8040 C   0  0  0  0  0  0  0  0  0  0  0  0
   -2.8310   23.9420  -29.6660 C   0  0  0  0  0  0  0  0  0  0  0  0
   -4.2180   24.1320  -30.2150 C   0  0  0  0  0  0  0  0  0  0  0  0
   -3.8510   21.0680  -30.4220 C   0  0  0  0  0  0  0  0  0  0  0  0
   -4.2750   20.0580  -31.5020 C   0  0  0  0  0  0  0  0  0  0  0  0
   -5.7656   16.2956  -32.6451 H   0  0  0  0  0  0  0  0  0  0  0  0
   -6.7588   16.2407  -34.1408 H   0  0  0  0  0  0  0  0  0  0  0  0
   -5.0968   15.5592  -34.1408 H   0  0  0  0  0  0  0  0  0  0  0  0
   -4.4830   18.0688  -33.3921 H   0  0  0  0  0  0  0  0  0  0  0  0
   -4.6699   17.5988  -35.1276 H   0  0  0  0  0  0  0  0  0  0  0  0
   -6.5070   18.9680  -35.2970 H   0  0  0  0  0  0  0  0  0  0  0  0
   -8.3137   17.4486  -33.1195 H   0  0  0  0  0  0  0  0  0  0  0  0
   -9.7791   18.3624  -31.3278 H   0  0  0  0  0  0  0  0  0  0  0  0
   -9.3855   20.6550  -30.4356 H   0  0  0  0  0  0  0  0  0  0  0  0
   -7.4912   22.0200  -31.2933 H   0  0  0  0  0  0  0  0  0  0  0  0
   -5.6871   21.5963  -34.1621 H   0  0  0  0  0  0  0  0  0  0  0  0
   -5.6052   22.2586  -32.4701 H   0  0  0  0  0  0  0  0  0  0  0  0
   -4.2740   19.8420  -33.5270 H   0  0  0  0  0  0  0  0  0  0  0  0
   -2.7150   21.2173  -34.1417 H   0  0  0  0  0  0  0  0  0  0  0  0
   -3.5141   22.5669  -33.1983 H   0  0  0  0  0  0  0  0  0  0  0  0
   -1.5622   20.4890  -32.1225 H   0  0  0  0  0  0  0  0  0  0  0  0
   -1.2603   22.2378  -32.3530 H   0  0  0  0  0  0  0  0  0  0  0  0
   -0.2048   21.7356  -29.6796 H   0  0  0  0  0  0  0  0  0  0  0  0
    0.7499   23.4707  -28.1712 H   0  0  0  0  0  0  0  0  0  0  0  0
   -0.6117   25.4552  -26.3004 H   0  0  0  0  0  0  0  0  0  0  0  0
    0.6464   25.8830  -27.5090 H   0  0  0  0  0  0  0  0  0  0  0  0
   -0.9293   26.7455  -27.5090 H   0  0  0  0  0  0  0  0  0  0  0  0
   -2.8839   25.7933  -28.5350 H   0  0  0  0  0  0  0  0  0  0  0  0
   -4.9313   24.2297  -29.3834 H   0  0  0  0  0  0  0  0  0  0  0  0
   -4.2467   25.0425  -30.8316 H   0  0  0  0  0  0  0  0  0  0  0  0
   -4.4905   23.2628  -30.8316 H   0  0  0  0  0  0  0  0  0  0  0  0
   -3.6823   20.5347  -29.4748 H   0  0  0  0  0  0  0  0  0  0  0  0
   -4.6500   21.8145  -30.3019 H   0  0  0  0  0  0  0  0  0  0  0  0
   -3.5605   19.2216  -31.5010 H   0  0  0  0  0  0  0  0  0  0  0  0
   -5.2948   19.7235  -31.2608 H   0  0  0  0  0  0  0  0  0  0  0  0
  1  2  1  0
  2  3  1  0
  3  4  1  0
  4  5  2  0
  5  6  1  0
  6  7  2  0
  7  8  1  0
  8  9  2  0
  9 10  1  0
 10 11  1  0
 11 12  1  0
 12 13  1  0
 13 14  1  0
 14 15  1  0
 15 16  2  0
 16 17  1  0
 17 18  2  0
 18 19  1  0
 18 20  1  0
 20 21  2  0
 21 22  1  0
 14 23  1  0
 23 24  1  0
  9  4  1  0
 24 11  1  0
 21 15  1  0
  1 25  1  0
  1 26  1  0
  1 27  1  0
  2 28  1  0
  2 29  1  0
  3 30  1  0
  5 31  1  0
  6 32  1  0
  7 33  1  0
  8 34  1  0
 10 35  1  0
 10 36  1  0
 11 37  1  0
 12 38  1  0
 12 39  1  0
 13 40  1  0
 13 41  1  0
 16 42  1  0
 17 43  1  0
 19 44  1  0
 19 45  1  0
 19 46  1  0
 20 47  1  0
 22 48  1  0
 22 49  1  0
 22 50  1  0
 23 51  1  0
 23 52  1  0
 24 53  1  0
 24 54  1  0
M  CHG  1  11   1
M  END
>  <UniqueID>  (18) 
18

>  <SMILES>  (18) 
CCNc1ccccc1C[NH+]1CCN(c2ccc(C)cc2C)CC1

>  <Energy>  (18) 
68.1248807416139

>  <Genealogy>  (18) 
CCNc1ccccc1C[NH+]1CCN(c2ccc(C)cc2C)CC1 (protonated)
CCNc1ccccc1C[NH+]1CCN(c2ccc(C)cc2C)CC1 (3D coordinates assigned)
CCNc1ccccc1C[NH+]1CCN(c2ccc(C)cc2C)CC1 (nonaromatic ring conformer: 68.1248807416139 kcal/mol)

>  <smiles>  (18) 
CCNc1ccccc1CN1CCN(c2ccc(C)cc2C)CC1

>  <score_type>  (18) 
oracle

>  <origin>  (18) 
adg

>  <m_score__min__energy>  (18) 
-7.2999999999999998

>  <m_primary>  (18) 
energy

$$$$
18:0
     RDKit          3D

 59 61  0  0  0  0  0  0  0  0999 V2000
   -1.2520   15.8620  -32.7430 C   0  0  0  0  0  0  0  0  0  0  0  0
   -1.2500   17.3710  -32.4840 C   0  0  0  0  0  0  0  0  0  0  0  0
   -1.4150   18.1550  -33.7210 N   0  0  0  0  0  0  0  0  0  0  0  0
   -0.4290   19.2420  -33.8340 C   0  0  0  0  0  0  0  0  0  0  0  0
   -1.0600   20.5010  -34.4380 C   0  0  0  0  0  0  0  0  0  0  0  0
   -2.3370   20.7250  -33.8730 O   0  0  0  0  0  0  0  0  0  0  0  0
   -2.1840   21.1710  -32.5420 C   0  0  0  0  0  0  0  0  0  0  0  0
   -3.5340   21.6240  -31.9760 C   0  0  0  0  0  0  0  0  0  0  0  0
   -4.6090   21.6000  -32.9780 N   0  0  0  0  0  0  0  0  0  0  0  0
   -5.7850   20.7740  -32.8570 C   0  0  0  0  0  0  0  0  0  0  0  0
   -7.0060   21.3240  -32.4280 C   0  0  0  0  0  0  0  0  0  0  0  0
   -7.1860   22.7210  -32.3470 C   0  0  0  0  0  0  0  0  0  0  0  0
   -8.4020   23.2610  -31.9400 C   0  0  0  0  0  0  0  0  0  0  0  0
   -9.4680   22.4240  -31.6330 C   0  0  0  0  0  0  0  0  0  0  0  0
   -9.3230   21.0390  -31.7290 C   0  0  0  0  0  0  0  0  0  0  0  0
   -8.0870   20.4590  -32.1120 C   0  0  0  0  0  0  0  0  0  0  0  0
   -7.9260   19.0890  -32.2050 N   0  0  0  0  0  0  0  0  0  0  0  0
   -8.9220   18.1840  -31.5890 C   0  0  0  0  0  0  0  0  0  0  0  0
   -6.8260   18.5690  -32.8610 C   0  0  0  0  0  0  0  0  0  0  0  0
   -6.7680   17.2060  -33.2470 C   0  0  0  0  0  0  0  0  0  0  0  0
   -5.6280   16.6680  -33.8660 C   0  0  0  0  0  0  0  0  0  0  0  0
   -5.5470   15.3160  -34.2380 O   0  0  0  0  0  0  0  0  0  0  0  0
   -4.9770   14.2860  -33.4360 C   0  0  0  0  0  0  0  0  0  0  0  0
   -4.5300   17.4880  -34.1280 C   0  0  0  0  0  0  0  0  0  0  0  0
   -3.4030   16.9140  -34.7410 O   0  0  0  0  0  0  0  0  0  0  0  0
   -3.4360   16.1310  -35.9290 C   0  0  0  0  0  0  0  0  0  0  0  0
   -4.5780   18.8470  -33.7770 C   0  0  0  0  0  0  0  0  0  0  0  0
   -5.7230   19.4030  -33.1700 C   0  0  0  0  0  0  0  0  0  0  0  0
   -1.2527   15.3252  -31.7829 H   0  0  0  0  0  0  0  0  0  0  0  0
   -2.1505   15.5895  -33.3161 H   0  0  0  0  0  0  0  0  0  0  0  0
   -0.3542   15.5871  -33.3161 H   0  0  0  0  0  0  0  0  0  0  0  0
   -2.0768   17.6128  -31.7999 H   0  0  0  0  0  0  0  0  0  0  0  0
   -0.2750   17.6346  -32.0482 H   0  0  0  0  0  0  0  0  0  0  0  0
   -1.3280   17.5220  -34.5480 H   0  0  0  0  0  0  0  0  0  0  0  0
   -2.3790   18.5640  -33.7120 H   0  0  0  0  0  0  0  0  0  0  0  0
   -0.0409   19.4801  -32.8327 H   0  0  0  0  0  0  0  0  0  0  0  0
    0.3840   18.9079  -34.4954 H   0  0  0  0  0  0  0  0  0  0  0  0
   -0.4138   21.3668  -34.2309 H   0  0  0  0  0  0  0  0  0  0  0  0
   -1.1665   20.3640  -35.5242 H   0  0  0  0  0  0  0  0  0  0  0  0
   -1.7896   20.3489  -31.9266 H   0  0  0  0  0  0  0  0  0  0  0  0
   -1.4856   22.0207  -32.5267 H   0  0  0  0  0  0  0  0  0  0  0  0
   -3.8104   20.9546  -31.1481 H   0  0  0  0  0  0  0  0  0  0  0  0
   -3.4191   22.6647  -31.6386 H   0  0  0  0  0  0  0  0  0  0  0  0
   -4.4440   22.1060  -33.8770 H   0  0  0  0  0  0  0  0  0  0  0  0
   -6.3545   23.3918  -32.6089 H   0  0  0  0  0  0  0  0  0  0  0  0
   -8.5197   24.3518  -31.8611 H   0  0  0  0  0  0  0  0  0  0  0  0
  -10.4287   22.8541  -31.3135 H   0  0  0  0  0  0  0  0  0  0  0  0
  -10.1805   20.3877  -31.5042 H   0  0  0  0  0  0  0  0  0  0  0  0
   -8.8493   18.2501  -30.4934 H   0  0  0  0  0  0  0  0  0  0  0  0
   -9.9325   18.4794  -31.9079 H   0  0  0  0  0  0  0  0  0  0  0  0
   -8.7245   17.1499  -31.9079 H   0  0  0  0  0  0  0  0  0  0  0  0
   -7.6348   16.5558  -33.0575 H   0  0  0  0  0  0  0  0  0  0  0  0
   -5.1130   14.5318  -32.3725 H   0  0  0  0  0  0  0  0  0  0  0  0
   -5.4747   13.3305  -33.6581 H   0  0  0  0  0  0  0  0  0  0  0  0
   -3.9031   14.2003  -33.6581 H   0  0  0  0  0  0  0  0  0  0  0  0
   -3.4810   15.0643  -35.6640 H   0  0  0  0  0  0  0  0  0  0  0  0
   -4.3236   16.3996  -36.5206 H   0  0  0  0  0  0  0  0  0  0  0  0
   -2.5289   16.3239  -36.5206 H   0  0  0  0  0  0  0  0  0  0  0  0
   -3.7077   19.4886  -33.9790 H   0  0  0  0  0  0  0  0  0  0  0  0
  1  2  1  0
  2  3  1  0
  3  4  1  0
  4  5  1  0
  5  6  1  0
  6  7  1  0
  7  8  1  0
  8  9  1  0
  9 10  1  0
 10 11  2  0
 11 12  1  0
 12 13  2  0
 13 14  1  0
 14 15  2  0
 15 16  1  0
 16 17  2  0
 17 18  1  0
 17 19  1  0
 19 20  2  0
 20 21  1  0
 21 22  1  0
 22 23  1  0
 21 24  2  0
 24 25  1  0
 25 26  1  0
 24 27  1  0
 27 28  2  0
 28 10  1  0
 16 11  1  0
 28 19  1  0
  1 29  1  0
  1 30  1  0
  1 31  1  0
  2 32  1  0
  2 33  1  0
  3 34  1  0
  3 35  1  0
  4 36  1  0
  4 37  1  0
  5 38  1  0
  5 39  1  0
  7 40  1  0
  7 41  1  0
  8 42  1  0
  8 43  1  0
  9 44  1  0
 12 45  1  0
 13 46  1  0
 14 47  1  0
 15 48  1  0
 18 49  1  0
 18 50  1  0
 18 51  1  0
 20 52  1  0
 23 53  1  0
 23 54  1  0
 23 55  1  0
 26 56  1  0
 26 57  1  0
 26 58  1  0
 27 59  1  0
M  CHG  2   3   1  17   1
M  END
>  <UniqueID>  (19) 
19

>  <SMILES>  (19) 
CC[NH2+]CCOCCNc1c2ccccc2[n+](C)c2cc(OC)c(OC)cc12

>  <Energy>  (19) 
77.67868398019752

>  <Genealogy>  (19) 
CC[NH2+]CCOCCNc1c2ccccc2[n+](C)c2cc(OC)c(OC)cc12 (protonated)
CC[NH2+]CCOCCNc1c2ccccc2[n+](C)c2cc(OC)c(OC)cc12 (3D coordinates assigned)
CC[NH2+]CCOCCNc1c2ccccc2[n+](C)c2cc(OC)c(OC)cc12 (optimized conformer: 77.67868398019752 kcal/mol)

>  <smiles>  (19) 
CCNCCOCCNc1c2ccccc2[n+](C)c2cc(OC)c(OC)cc12

>  <score_type>  (19) 
oracle

>  <origin>  (19) 
adg

>  <m_score__min__energy>  (19) 
-7.4100000000000001

>  <m_primary>  (19) 
energy

$$$$
19:0
     RDKit          3D

 45 46  0  0  0  0  0  0  0  0999 V2000
   -8.8880   21.7960  -31.6090 C   0  0  0  0  0  0  0  0  0  0  0  0
   -8.6860   20.3230  -31.2600 C   0  0  0  0  0  0  0  0  0  0  0  0
   -7.4480   19.7970  -31.8750 N   0  0  0  0  0  0  0  0  0  0  0  0
   -7.5530   18.3610  -32.2200 C   0  0  0  0  0  0  0  0  0  0  0  0
   -6.4870   17.4850  -31.5440 C   0  0  0  0  0  0  0  0  0  0  0  0
   -6.9460   20.6240  -33.0000 C   0  0  0  0  0  0  0  0  0  0  0  0
   -5.5800   20.1090  -33.4690 C   0  0  0  0  0  0  0  0  0  0  0  0
   -4.5150   20.2250  -32.3720 C   0  0  0  0  0  0  0  0  0  0  0  0
   -5.0180   21.0050  -31.2390 N   0  0  0  0  0  0  0  0  0  0  0  0
   -4.1990   22.0050  -30.6110 C   0  0  0  0  0  0  0  0  0  0  0  0
   -4.4310   23.3730  -30.8400 C   0  0  0  0  0  0  0  0  0  0  0  0
   -5.5450   23.8050  -31.6540 C   0  0  0  0  0  0  0  0  0  0  0  0
   -6.4360   24.1530  -32.3050 N   0  0  0  0  0  0  0  0  0  0  0  0
   -3.6280   24.3030  -30.2520 N   0  0  0  0  0  0  0  0  0  0  0  0
   -3.8630   25.6420  -30.4950 O   0  0  0  0  0  0  0  0  0  0  0  0
   -2.6140   23.9280  -29.4170 C   0  0  0  0  0  0  0  0  0  0  0  0
   -1.7970   24.8970  -28.8020 C   0  0  0  0  0  0  0  0  0  0  0  0
   -0.7820   24.5160  -27.9280 C   0  0  0  0  0  0  0  0  0  0  0  0
   -0.5720   23.1680  -27.6470 C   0  0  0  0  0  0  0  0  0  0  0  0
   -1.3680   22.1910  -28.2480 C   0  0  0  0  0  0  0  0  0  0  0  0
   -2.3920   22.5500  -29.1560 C   0  0  0  0  0  0  0  0  0  0  0  0
   -3.1870   21.6140  -29.7790 N   0  0  0  0  0  0  0  0  0  0  0  0
   -2.9900   20.2500  -29.6370 O   0  0  0  0  0  0  0  0  0  0  0  0
   -8.9687   22.3845  -30.6831 H   0  0  0  0  0  0  0  0  0  0  0  0
   -8.0306   22.1543  -32.1976 H   0  0  0  0  0  0  0  0  0  0  0  0
   -9.8102   21.9102  -32.1976 H   0  0  0  0  0  0  0  0  0  0  0  0
   -8.6171   20.2185  -30.1671 H   0  0  0  0  0  0  0  0  0  0  0  0
   -9.5409   19.7505  -31.6490 H   0  0  0  0  0  0  0  0  0  0  0  0
   -8.5455   18.0011  -31.9111 H   0  0  0  0  0  0  0  0  0  0  0  0
   -7.3964   18.2784  -33.3057 H   0  0  0  0  0  0  0  0  0  0  0  0
   -6.5851   17.5656  -30.4514 H   0  0  0  0  0  0  0  0  0  0  0  0
   -6.6266   16.4372  -31.8483 H   0  0  0  0  0  0  0  0  0  0  0  0
   -5.4861   17.8250  -31.8483 H   0  0  0  0  0  0  0  0  0  0  0  0
   -7.6598   20.5725  -33.8353 H   0  0  0  0  0  0  0  0  0  0  0  0
   -6.8393   21.6647  -32.6601 H   0  0  0  0  0  0  0  0  0  0  0  0
   -5.6789   19.0522  -33.7577 H   0  0  0  0  0  0  0  0  0  0  0  0
   -5.2586   20.7258  -34.3212 H   0  0  0  0  0  0  0  0  0  0  0  0
   -4.2443   19.2172  -32.0242 H   0  0  0  0  0  0  0  0  0  0  0  0
   -3.6342   20.7358  -32.7883 H   0  0  0  0  0  0  0  0  0  0  0  0
   -5.8420   20.6510  -30.7020 H   0  0  0  0  0  0  0  0  0  0  0  0
   -1.9622   25.9637  -29.0140 H   0  0  0  0  0  0  0  0  0  0  0  0
   -0.1453   25.2806  -27.4589 H   0  0  0  0  0  0  0  0  0  0  0  0
    0.2245   22.8719  -26.9485 H   0  0  0  0  0  0  0  0  0  0  0  0
   -1.1971   21.1301  -28.0129 H   0  0  0  0  0  0  0  0  0  0  0  0
   -2.6930   19.8050  -28.7820 H   0  0  0  0  0  0  0  0  0  0  0  0
  1  2  1  0
  2  3  1  0
  3  4  1  0
  4  5  1  0
  3  6  1  0
  6  7  1  0
  7  8  1  0
  8  9  1  0
  9 10  1  0
 10 11  2  0
 11 12  1  0
 12 13  3  0
 11 14  1  0
 14 15  1  0
 14 16  2  0
 16 17  1  0
 17 18  2  0
 18 19  1  0
 19 20  2  0
 20 21  1  0
 21 22  2  0
 22 23  1  0
 22 10  1  0
 21 16  1  0
  1 24  1  0
  1 25  1  0
  1 26  1  0
  2 27  1  0
  2 28  1  0
  4 29  1  0
  4 30  1  0
  5 31  1  0
  5 32  1  0
  5 33  1  0
  6 34  1  0
  6 35  1  0
  7 36  1  0
  7 37  1  0
  8 38  1  0
  8 39  1  0
  9 40  1  0
 17 41  1  0
 18 42  1  0
 19 43  1  0
 20 44  1  0
 23 45  1  0
M  CHG  3  14   1  15  -1  22   1
M  END
>  <UniqueID>  (20) 
20

>  <SMILES>  (20) 
CCN(CC)CCCNc1c(C#N)[n+]([O-])c2ccccc2[n+]1O

>  <Energy>  (20) 
58.026171162416404

>  <Genealogy>  (20) 
CCN(CC)CCCNc1c(C#N)[n+]([O-])c2ccccc2[n+]1O (protonated)
CCN(CC)CCCNc1c(C#N)[n+]([O-])c2ccccc2[n+]1O (3D coordinates assigned)
CCN(CC)CCCNc1c(C#N)[n+]([O-])c2ccccc2[n+]1O (optimized conformer: 58.026171162416404 kcal/mol)

>  <smiles>  (20) 
CCN(CC)CCCNc1c(C#N)[n+]([O-])c2ccccc2[n+]1[O-]

>  <score_type>  (20) 
oracle

>  <origin>  (20) 
adg

>  <m_score__min__energy>  (20) 
-6.75

>  <m_primary>  (20) 
energy

$$$$
20:0
     RDKit          3D

 48 49  0  0  0  0  0  0  0  0999 V2000
   -8.9325   19.2523  -30.6854 H   0  0  0  0  0  0  0  0  0  0  0  0
   -8.4270   19.8490  -31.4590 C   0  0  0  0  0  0  0  0  0  0  0  0
   -8.7880   21.1380  -31.5790 C   0  0  0  0  0  0  0  0  0  0  0  0
   -9.8146   21.3460  -31.9150 H   0  0  0  0  0  0  0  0  0  0  0  0
   -7.9170   22.3000  -31.2960 C   0  0  0  0  0  0  0  0  0  0  0  0
   -7.3240   22.9860  -32.3660 C   0  0  0  0  0  0  0  0  0  0  0  0
   -7.5266   22.6676  -33.3992 H   0  0  0  0  0  0  0  0  0  0  0  0
   -6.4770   24.0720  -32.1270 C   0  0  0  0  0  0  0  0  0  0  0  0
   -6.0279   24.6117  -32.9738 H   0  0  0  0  0  0  0  0  0  0  0  0
   -6.1960   24.4780  -30.8130 C   0  0  0  0  0  0  0  0  0  0  0  0
   -5.2700   25.6430  -30.5570 C   0  0  0  0  0  0  0  0  0  0  0  0
   -5.5842   26.1469  -29.6310 H   0  0  0  0  0  0  0  0  0  0  0  0
   -5.3319   26.3169  -31.4242 H   0  0  0  0  0  0  0  0  0  0  0  0
   -3.8650   25.2240  -30.4140 N   0  0  0  0  0  0  0  0  0  0  0  0
   -3.5020   24.9270  -31.3490 H   0  0  0  0  0  0  0  0  0  0  0  0
   -3.6790   24.1120  -29.4650 C   0  0  0  0  0  0  0  0  0  0  0  0
   -4.5516   24.0637  -28.7969 H   0  0  0  0  0  0  0  0  0  0  0  0
   -2.7565   24.2978  -28.8954 H   0  0  0  0  0  0  0  0  0  0  0  0
   -3.5320   22.7690  -30.1880 C   0  0  0  0  0  0  0  0  0  0  0  0
   -4.3987   22.1338  -29.9526 H   0  0  0  0  0  0  0  0  0  0  0  0
   -2.6045   22.2823  -29.8520 H   0  0  0  0  0  0  0  0  0  0  0  0
   -3.4630   22.9750  -31.6420 N   0  0  0  0  0  0  0  0  0  0  0  0
   -4.1120   23.7640  -31.8780 H   0  0  0  0  0  0  0  0  0  0  0  0
   -3.9170   21.7860  -32.3760 C   0  0  0  0  0  0  0  0  0  0  0  0
   -3.1374   21.4816  -33.0898 H   0  0  0  0  0  0  0  0  0  0  0  0
   -4.8461   22.0314  -32.9113 H   0  0  0  0  0  0  0  0  0  0  0  0
   -4.1920   20.6350  -31.4110 C   0  0  0  0  0  0  0  0  0  0  0  0
   -4.1057   20.9961  -30.3755 H   0  0  0  0  0  0  0  0  0  0  0  0
   -5.2077   20.2486  -31.5811 H   0  0  0  0  0  0  0  0  0  0  0  0
   -3.4606   19.8312  -31.5811 H   0  0  0  0  0  0  0  0  0  0  0  0
   -6.7640   23.7720  -29.7400 C   0  0  0  0  0  0  0  0  0  0  0  0
   -6.5426   24.0762  -28.7063 H   0  0  0  0  0  0  0  0  0  0  0  0
   -7.6090   22.6850  -29.9790 C   0  0  0  0  0  0  0  0  0  0  0  0
   -8.0356   22.1274  -29.1322 H   0  0  0  0  0  0  0  0  0  0  0  0
   -7.4050   19.1680  -32.2830 C   0  0  0  0  0  0  0  0  0  0  0  0
   -6.9780   17.8590  -31.9940 C   0  0  0  0  0  0  0  0  0  0  0  0
   -7.3946   17.3268  -31.1261 H   0  0  0  0  0  0  0  0  0  0  0  0
   -6.0270   17.2310  -32.8040 C   0  0  0  0  0  0  0  0  0  0  0  0
   -5.6947   16.2095  -32.5673 H   0  0  0  0  0  0  0  0  0  0  0  0
   -5.4950   17.8980  -33.9170 C   0  0  0  0  0  0  0  0  0  0  0  0
   -4.5040   17.2080  -34.8070 C   0  0  0  0  0  0  0  0  0  0  0  0
   -3.7568   16.6878  -34.1897 H   0  0  0  0  0  0  0  0  0  0  0  0
   -5.0275   16.4781  -35.4420 H   0  0  0  0  0  0  0  0  0  0  0  0
   -4.0010   17.9522  -35.4420 H   0  0  0  0  0  0  0  0  0  0  0  0
   -5.9570   19.1840  -34.2350 C   0  0  0  0  0  0  0  0  0  0  0  0
   -5.5698   19.6999  -35.1261 H   0  0  0  0  0  0  0  0  0  0  0  0
   -6.9070   19.8130  -33.4250 C   0  0  0  0  0  0  0  0  0  0  0  0
   -7.2662   20.8198  -33.6846 H   0  0  0  0  0  0  0  0  0  0  0  0
  1  2  1  0
  2  3  2  0
  3  4  1  0
  3  5  1  0
  5  6  2  0
  6  7  1  0
  6  8  1  0
  8  9  1  0
  8 10  2  0
 10 11  1  0
 11 12  1  0
 11 13  1  0
 11 14  1  0
 14 15  1  0
 14 16  1  0
 16 17  1  0
 16 18  1  0
 16 19  1  0
 19 20  1  0
 19 21  1  0
 19 22  1  0
 22 23  1  0
 22 24  1  0
 24 25  1  0
 24 26  1  0
 24 27  1  0
 27 28  1  0
 27 29  1  0
 27 30  1  0
 10 31  1  0
 31 32  1  0
 31 33  2  0
 33 34  1  0
  2 35  1  0
 35 36  2  0
 36 37  1  0
 36 38  1  0
 38 39  1  0
 38 40  2  0
 40 41  1  0
 41 42  1  0
 41 43  1  0
 41 44  1  0
 40 45  1  0
 45 46  1  0
 45 47  2  0
 47 48  1  0
 33  5  1  0
 47 35  1  0
M  END
>  <UniqueID>  (21) 
21

>  <SMILES>  (21) 
CCNCCNCc1ccc(/C=C\c2ccc(C)cc2)cc1

>  <Energy>  (21) 
51.850660773945

>  <Genealogy>  (21) 
CCNCCNCc1ccc(/C=C\c2ccc(C)cc2)cc1 (cis-trans isomerization)
CCNCCNCc1ccc(/C=C\c2ccc(C)cc2)cc1 (3D coordinates assigned)
CCNCCNCc1ccc(/C=C\c2ccc(C)cc2)cc1 (optimized conformer: 51.850660773945 kcal/mol)

>  <smiles>  (21) 
CCNCCNCc1ccc(C=Cc2ccc(C)cc2)cc1

>  <score_type>  (21) 
oracle

>  <origin>  (21) 
adg

>  <m_score__min__energy>  (21) 
-9.3000000000000007

>  <m_primary>  (21) 
energy

$$$$
21:0
     RDKit          3D

 58 61  0  0  0  0  0  0  0  0999 V2000
   -2.3300   20.0940  -26.9090 C   0  0  0  0  0  0  0  0  0  0  0  0
   -1.4200   21.2770  -27.2820 C   0  0  0  0  0  0  0  0  0  0  0  0
   -0.9480   22.0000  -26.0180 C   0  0  0  0  0  0  0  0  0  0  0  0
   -2.1100   22.2400  -28.1590 N   0  0  0  0  0  0  0  0  0  0  0  0
   -2.6380   23.4170  -27.4370 C   0  0  0  0  0  0  0  0  0  0  0  0
   -2.0780   24.7410  -27.9820 C   0  0  0  0  0  0  0  0  0  0  0  0
   -2.5560   25.0000  -29.3420 N   0  0  0  0  0  0  0  0  0  0  0  0
   -3.7230   24.3760  -29.9040 C   0  0  0  0  0  0  0  0  0  0  0  0
   -5.0240   24.9170  -29.6480 C   0  0  0  0  0  0  0  0  0  0  0  0
   -6.1850   24.3560  -30.2320 C   0  0  0  0  0  0  0  0  0  0  0  0
   -6.0120   23.2520  -31.0640 C   0  0  0  0  0  0  0  0  0  0  0  0
   -4.7780   22.7510  -31.2900 C   0  0  0  0  0  0  0  0  0  0  0  0
   -4.9170   21.7160  -32.1510 C   0  0  0  0  0  0  0  0  0  0  0  0
   -6.2290   21.5890  -32.4570 N   0  0  0  0  0  0  0  0  0  0  0  0
   -6.9020   22.5250  -31.7830 N   0  0  0  0  0  0  0  0  0  0  0  0
   -8.3410   22.7540  -31.9090 C   0  0  0  0  0  0  0  0  0  0  0  0
   -9.1230   21.4910  -31.5400 C   0  0  0  0  0  0  0  0  0  0  0  0
   -8.5490   20.3200  -32.2440 N   0  0  0  0  0  0  0  0  0  0  0  0
   -9.5570   19.6450  -33.0750 C   0  0  0  0  0  0  0  0  0  0  0  0
   -7.9550   19.3630  -31.2980 C   0  0  0  0  0  0  0  0  0  0  0  0
   -3.7420   20.9620  -32.6120 C   0  0  0  0  0  0  0  0  0  0  0  0
   -3.8240   19.8920  -33.5080 C   0  0  0  0  0  0  0  0  0  0  0  0
   -2.6590   19.2210  -33.8850 C   0  0  0  0  0  0  0  0  0  0  0  0
   -1.4270   19.6260  -33.3600 C   0  0  0  0  0  0  0  0  0  0  0  0
   -1.3620   20.6700  -32.4900 N   0  0  0  0  0  0  0  0  0  0  0  0
   -2.4740   21.3500  -32.1020 C   0  0  0  0  0  0  0  0  0  0  0  0
   -2.3650   22.4960  -31.1370 C   0  0  0  0  0  0  0  0  0  0  0  0
   -1.2460   22.7920  -30.6450 O   0  0  0  0  0  0  0  0  0  0  0  0
   -3.6050   23.2430  -30.7580 C   0  0  0  0  0  0  0  0  0  0  0  0
   -2.3936   20.0114  -25.8140 H   0  0  0  0  0  0  0  0  0  0  0  0
   -3.3354   20.2600  -27.3232 H   0  0  0  0  0  0  0  0  0  0  0  0
   -1.9117   19.1648  -27.3232 H   0  0  0  0  0  0  0  0  0  0  0  0
   -0.5563   20.8670  -27.8260 H   0  0  0  0  0  0  0  0  0  0  0  0
   -1.3031   21.4561  -25.1303 H   0  0  0  0  0  0  0  0  0  0  0  0
    0.1512   22.0407  -26.0077 H   0  0  0  0  0  0  0  0  0  0  0  0
   -1.3529   23.0227  -26.0077 H   0  0  0  0  0  0  0  0  0  0  0  0
   -1.4760   22.5170  -28.9450 H   0  0  0  0  0  0  0  0  0  0  0  0
   -3.7334   23.4297  -27.5362 H   0  0  0  0  0  0  0  0  0  0  0  0
   -2.3286   23.3307  -26.3850 H   0  0  0  0  0  0  0  0  0  0  0  0
   -2.3998   25.5634  -27.3262 H   0  0  0  0  0  0  0  0  0  0  0  0
   -0.9805   24.6704  -28.0067 H   0  0  0  0  0  0  0  0  0  0  0  0
   -2.0080   25.6710  -29.9240 H   0  0  0  0  0  0  0  0  0  0  0  0
   -5.1233   25.7876  -28.9830 H   0  0  0  0  0  0  0  0  0  0  0  0
   -7.1833   24.7747  -30.0368 H   0  0  0  0  0  0  0  0  0  0  0  0
   -6.6580   20.8990  -33.1130 H   0  0  0  0  0  0  0  0  0  0  0  0
   -8.6370   23.5719  -31.2356 H   0  0  0  0  0  0  0  0  0  0  0  0
   -8.5675   23.0186  -32.9524 H   0  0  0  0  0  0  0  0  0  0  0  0
   -9.0632   21.3291  -30.4536 H   0  0  0  0  0  0  0  0  0  0  0  0
  -10.1742   21.6148  -31.8396 H   0  0  0  0  0  0  0  0  0  0  0  0
  -10.2953   19.1506  -32.4266 H   0  0  0  0  0  0  0  0  0  0  0  0
  -10.0646   20.3860  -33.7100 H   0  0  0  0  0  0  0  0  0  0  0  0
   -9.0651   18.8935  -33.7100 H   0  0  0  0  0  0  0  0  0  0  0  0
   -8.1587   19.6911  -30.2680 H   0  0  0  0  0  0  0  0  0  0  0  0
   -8.3942   18.3674  -31.4593 H   0  0  0  0  0  0  0  0  0  0  0  0
   -6.8680   19.3147  -31.4593 H   0  0  0  0  0  0  0  0  0  0  0  0
   -4.7985   19.5812  -33.9127 H   0  0  0  0  0  0  0  0  0  0  0  0
   -2.7095   18.3788  -34.5907 H   0  0  0  0  0  0  0  0  0  0  0  0
   -0.5071   19.0981  -33.6518 H   0  0  0  0  0  0  0  0  0  0  0  0
  1  2  1  0
  2  3  1  0
  2  4  1  0
  4  5  1  0
  5  6  1  0
  6  7  1  0
  7  8  1  0
  8  9  2  0
  9 10  1  0
 10 11  2  0
 11 12  1  0
 12 13  1  0
 13 14  2  0
 14 15  1  0
 15 16  1  0
 16 17  1  0
 17 18  1  0
 18 19  1  0
 18 20  1  0
 13 21  1  0
 21 22  2  0
 22 23  1  0
 23 24  2  0
 24 25  1  0
 25 26  2  0
 26 27  1  0
 27 28  2  0
 27 29  1  0
 29  8  1  0
 15 11  1  0
 26 21  1  0
 29 12  2  0
  1 30  1  0
  1 31  1  0
  1 32  1  0
  2 33  1  0
  3 34  1  0
  3 35  1  0
  3 36  1  0
  4 37  1  0
  5 38  1  0
  5 39  1  0
  6 40  1  0
  6 41  1  0
  7 42  1  0
  9 43  1  0
 10 44  1  0
 14 45  1  0
 16 46  1  0
 16 47  1  0
 17 48  1  0
 17 49  1  0
 19 50  1  0
 19 51  1  0
 19 52  1  0
 20 53  1  0
 20 54  1  0
 20 55  1  0
 22 56  1  0
 23 57  1  0
 24 58  1  0
M  CHG  1  14   1
M  END
>  <UniqueID>  (22) 
22

>  <SMILES>  (22) 
CC(C)NCCNc1ccc2c3c([nH+]n2CCN(C)C)-c2cccnc2C(=O)c13

>  <Energy>  (22) 
111.98266949596842

>  <Genealogy>  (22) 
CC(C)NCCNc1ccc2c3c([nH+]n2CCN(C)C)-c2cccnc2C(=O)c13 (protonated)
CC(C)NCCNc1ccc2c3c([nH+]n2CCN(C)C)-c2cccnc2C(=O)c13 (3D coordinates assigned)
CC(C)NCCNc1ccc2c3c([nH+]n2CCN(C)C)-c2cccnc2C(=O)c13 (nonaromatic ring conformer: 111.98266949596842 kcal/mol)

>  <smiles>  (22) 
CC(C)NCCNc1ccc2c3c(nn2CCN(C)C)-c2cccnc2C(=O)c13

>  <score_type>  (22) 
oracle

>  <origin>  (22) 
adg

>  <m_score__min__energy>  (22) 
-7.8300000000000001

>  <m_primary>  (22) 
energy

$$$$
22:0
     RDKit          3D

 70 72  0  0  0  0  0  0  0  0999 V2000
   -6.1820   24.9820  -29.7060 C   0  0  0  0  0  0  0  0  0  0  0  0
   -5.1940   25.1340  -30.8620 C   0  0  0  0  0  0  0  0  0  0  0  0
   -4.0090   24.2660  -30.6820 N   0  0  0  0  0  0  0  0  0  0  0  0
   -3.2760   24.5220  -29.4180 C   0  0  0  0  0  0  0  0  0  0  0  0
   -1.9210   23.8070  -29.3110 C   0  0  0  0  0  0  0  0  0  0  0  0
   -4.3390   22.8340  -30.8730 C   0  0  0  0  0  0  0  0  0  0  0  0
   -3.6630   22.2760  -32.1390 C   0  0  0  0  0  0  0  0  0  0  0  0
   -4.6080   22.0970  -33.2650 N   0  0  0  0  0  0  0  0  0  0  0  0
   -5.6210   21.0880  -32.9670 C   0  0  0  0  0  0  0  0  0  0  0  0
   -6.9090   21.4910  -32.5150 C   0  0  0  0  0  0  0  0  0  0  0  0
   -7.2380   22.8570  -32.3210 C   0  0  0  0  0  0  0  0  0  0  0  0
   -8.5280   23.2470  -31.9710 C   0  0  0  0  0  0  0  0  0  0  0  0
   -9.5210   22.2940  -31.8070 C   0  0  0  0  0  0  0  0  0  0  0  0
   -9.2180   20.9420  -31.9400 C   0  0  0  0  0  0  0  0  0  0  0  0
   -7.9010   20.5080  -32.2420 C   0  0  0  0  0  0  0  0  0  0  0  0
   -7.5810   19.1680  -32.2800 N   0  0  0  0  0  0  0  0  0  0  0  0
   -8.5020   18.1760  -31.6760 C   0  0  0  0  0  0  0  0  0  0  0  0
   -6.3870   18.7520  -32.8300 C   0  0  0  0  0  0  0  0  0  0  0  0
   -6.1510   17.3830  -33.1160 C   0  0  0  0  0  0  0  0  0  0  0  0
   -4.9170   16.9390  -33.5740 C   0  0  0  0  0  0  0  0  0  0  0  0
   -3.8790   17.8430  -33.7780 C   0  0  0  0  0  0  0  0  0  0  0  0
   -2.5130   17.3670  -34.2180 C   0  0  0  0  0  0  0  0  0  0  0  0
   -1.4690   18.5060  -34.2600 C   0  0  0  0  0  0  0  0  0  0  0  0
   -1.3370   19.1840  -32.9490 N   0  0  0  0  0  0  0  0  0  0  0  0
   -0.4830   18.3770  -32.0450 C   0  0  0  0  0  0  0  0  0  0  0  0
   -0.1590   19.1370  -30.7580 C   0  0  0  0  0  0  0  0  0  0  0  0
   -0.8230   20.5710  -33.0950 C   0  0  0  0  0  0  0  0  0  0  0  0
   -0.5580   20.8680  -34.5660 C   0  0  0  0  0  0  0  0  0  0  0  0
   -4.1180   19.2100  -33.5990 C   0  0  0  0  0  0  0  0  0  0  0  0
   -5.3650   19.6960  -33.1370 C   0  0  0  0  0  0  0  0  0  0  0  0
   -5.6437   25.0648  -28.7503 H   0  0  0  0  0  0  0  0  0  0  0  0
   -6.9433   25.7736  -29.7678 H   0  0  0  0  0  0  0  0  0  0  0  0
   -6.6702   23.9982  -29.7678 H   0  0  0  0  0  0  0  0  0  0  0  0
   -5.6978   24.8605  -31.8008 H   0  0  0  0  0  0  0  0  0  0  0  0
   -4.8541   26.1798  -30.8895 H   0  0  0  0  0  0  0  0  0  0  0  0
   -3.1004   25.6048  -29.3360 H   0  0  0  0  0  0  0  0  0  0  0  0
   -3.9038   24.1251  -28.6066 H   0  0  0  0  0  0  0  0  0  0  0  0
   -1.6614   23.6700  -28.2509 H   0  0  0  0  0  0  0  0  0  0  0  0
   -1.9847   22.8251  -29.8027 H   0  0  0  0  0  0  0  0  0  0  0  0
   -1.1464   24.4138  -29.8027 H   0  0  0  0  0  0  0  0  0  0  0  0
   -3.9906   22.2648  -29.9986 H   0  0  0  0  0  0  0  0  0  0  0  0
   -5.4289   22.7376  -30.9862 H   0  0  0  0  0  0  0  0  0  0  0  0
   -2.8725   22.9741  -32.4517 H   0  0  0  0  0  0  0  0  0  0  0  0
   -3.2574   21.2849  -31.8874 H   0  0  0  0  0  0  0  0  0  0  0  0
   -4.1100   21.9330  -34.1640 H   0  0  0  0  0  0  0  0  0  0  0  0
   -5.0790   23.0070  -33.4710 H   0  0  0  0  0  0  0  0  0  0  0  0
   -6.4591   23.6230  -32.4495 H   0  0  0  0  0  0  0  0  0  0  0  0
   -8.7593   24.3124  -31.8245 H   0  0  0  0  0  0  0  0  0  0  0  0
  -10.5491   22.6063  -31.5716 H   0  0  0  0  0  0  0  0  0  0  0  0
  -10.0150   20.1953  -31.8085 H   0  0  0  0  0  0  0  0  0  0  0  0
   -8.4423   18.2403  -30.5795 H   0  0  0  0  0  0  0  0  0  0  0  0
   -9.5318   18.3869  -32.0001 H   0  0  0  0  0  0  0  0  0  0  0  0
   -8.2154   17.1647  -32.0001 H   0  0  0  0  0  0  0  0  0  0  0  0
   -6.9639   16.6561  -32.9718 H   0  0  0  0  0  0  0  0  0  0  0  0
   -4.7599   15.8692  -33.7761 H   0  0  0  0  0  0  0  0  0  0  0  0
   -2.1652   16.5967  -33.5140 H   0  0  0  0  0  0  0  0  0  0  0  0
   -2.6126   16.9700  -35.2390 H   0  0  0  0  0  0  0  0  0  0  0  0
   -0.4932   18.0836  -34.5416 H   0  0  0  0  0  0  0  0  0  0  0  0
   -1.8065   19.2505  -34.9961 H   0  0  0  0  0  0  0  0  0  0  0  0
   -1.0120   17.4473  -31.7882 H   0  0  0  0  0  0  0  0  0  0  0  0
    0.4613   18.1578  -32.5648 H   0  0  0  0  0  0  0  0  0  0  0  0
   -0.4236   18.5164  -29.8892 H   0  0  0  0  0  0  0  0  0  0  0  0
    0.9160   19.3684  -30.7296 H   0  0  0  0  0  0  0  0  0  0  0  0
   -0.7364   20.0728  -30.7296 H   0  0  0  0  0  0  0  0  0  0  0  0
   -1.5692   21.2802  -32.7074 H   0  0  0  0  0  0  0  0  0  0  0  0
    0.1139   20.6740  -32.5279 H   0  0  0  0  0  0  0  0  0  0  0  0
    0.1723   21.6864  -34.6491 H   0  0  0  0  0  0  0  0  0  0  0  0
   -0.1573   19.9680  -35.0554 H   0  0  0  0  0  0  0  0  0  0  0  0
   -1.4976   21.1639  -35.0554 H   0  0  0  0  0  0  0  0  0  0  0  0
   -3.3146   19.9271  -33.8235 H   0  0  0  0  0  0  0  0  0  0  0  0
  1  2  1  0
  2  3  1  0
  3  4  1  0
  4  5  1  0
  3  6  1  0
  6  7  1  0
  7  8  1  0
  8  9  1  0
  9 10  2  0
 10 11  1  0
 11 12  2  0
 12 13  1  0
 13 14  2  0
 14 15  1  0
 15 16  2  0
 16 17  1  0
 16 18  1  0
 18 19  2  0
 19 20  1  0
 20 21  2  0
 21 22  1  0
 22 23  1  0
 23 24  1  0
 24 25  1  0
 25 26  1  0
 24 27  1  0
 27 28  1  0
 21 29  1  0
 29 30  2  0
 30  9  1  0
 15 10  1  0
 30 18  1  0
  1 31  1  0
  1 32  1  0
  1 33  1  0
  2 34  1  0
  2 35  1  0
  4 36  1  0
  4 37  1  0
  5 38  1  0
  5 39  1  0
  5 40  1  0
  6 41  1  0
  6 42  1  0
  7 43  1  0
  7 44  1  0
  8 45  1  0
  8 46  1  0
 11 47  1  0
 12 48  1  0
 13 49  1  0
 14 50  1  0
 17 51  1  0
 17 52  1  0
 17 53  1  0
 19 54  1  0
 20 55  1  0
 22 56  1  0
 22 57  1  0
 23 58  1  0
 23 59  1  0
 25 60  1  0
 25 61  1  0
 26 62  1  0
 26 63  1  0
 26 64  1  0
 27 65  1  0
 27 66  1  0
 28 67  1  0
 28 68  1  0
 28 69  1  0
 29 70  1  0
M  CHG  2   8   1  16   1
M  END
>  <UniqueID>  (23) 
23

>  <SMILES>  (23) 
CCN(CC)CC[NH2+]c1c2ccccc2[n+](C)c2ccc(CCN(CC)CC)cc12

>  <Energy>  (23) 
100.86220971955287

>  <Genealogy>  (23) 
CCN(CC)CC[NH2+]c1c2ccccc2[n+](C)c2ccc(CCN(CC)CC)cc12 (protonated)
CCN(CC)CC[NH2+]c1c2ccccc2[n+](C)c2ccc(CCN(CC)CC)cc12 (3D coordinates assigned)
CCN(CC)CC[NH2+]c1c2ccccc2[n+](C)c2ccc(CCN(CC)CC)cc12 (optimized conformer: 100.86220971955287 kcal/mol)

>  <smiles>  (23) 
CCN(CC)CCNc1c2ccccc2[n+](C)c2ccc(CCN(CC)CC)cc12

>  <score_type>  (23) 
oracle

>  <origin>  (23) 
adg

>  <m_score__min__energy>  (23) 
-8.25

>  <m_primary>  (23) 
energy

$$$$
23:0
     RDKit          3D

 73 76  0  0  0  0  0  0  0  0999 V2000
   -3.4190   23.8800  -28.2520 C   0  0  0  0  0  0  0  0  0  0  0  0
   -3.0500   24.4350  -29.6370 C   0  0  0  0  0  0  0  0  0  0  0  0
   -4.0700   24.2190  -30.6940 N   0  0  0  0  0  0  0  0  0  0  0  0
   -5.1150   25.2580  -30.8400 C   0  0  0  0  0  0  0  0  0  0  0  0
   -6.2450   25.0370  -29.8370 C   0  0  0  0  0  0  0  0  0  0  0  0
   -4.5780   22.8340  -30.7970 C   0  0  0  0  0  0  0  0  0  0  0  0
   -3.7960   21.9690  -31.7970 C   0  0  0  0  0  0  0  0  0  0  0  0
   -4.6210   21.6600  -32.9660 N   0  0  0  0  0  0  0  0  0  0  0  0
   -5.7910   20.8340  -32.8610 C   0  0  0  0  0  0  0  0  0  0  0  0
   -7.0150   21.4240  -32.5000 C   0  0  0  0  0  0  0  0  0  0  0  0
   -7.1390   22.8270  -32.3950 C   0  0  0  0  0  0  0  0  0  0  0  0
   -8.3610   23.4110  -32.0690 C   0  0  0  0  0  0  0  0  0  0  0  0
   -9.4780   22.6130  -31.8560 C   0  0  0  0  0  0  0  0  0  0  0  0
   -9.3740   21.2240  -31.9390 C   0  0  0  0  0  0  0  0  0  0  0  0
   -8.1340   20.6000  -32.2270 C   0  0  0  0  0  0  0  0  0  0  0  0
   -7.9990   19.2260  -32.2450 N   0  0  0  0  0  0  0  0  0  0  0  0
   -9.0460   18.3740  -31.6390 C   0  0  0  0  0  0  0  0  0  0  0  0
   -6.8760   18.6480  -32.8110 C   0  0  0  0  0  0  0  0  0  0  0  0
   -6.8370   17.2660  -33.1080 C   0  0  0  0  0  0  0  0  0  0  0  0
   -5.7010   16.6770  -33.6450 C   0  0  0  0  0  0  0  0  0  0  0  0
   -4.5840   17.4450  -33.9370 C   0  0  0  0  0  0  0  0  0  0  0  0
   -4.5880   18.8320  -33.7140 C   0  0  0  0  0  0  0  0  0  0  0  0
   -3.4840   19.6220  -34.0860 O   0  0  0  0  0  0  0  0  0  0  0  0
   -2.1420   19.1760  -34.2830 C   0  0  0  0  0  0  0  0  0  0  0  0
   -1.3910   19.1300  -32.9290 C   0  0  0  0  0  0  0  0  0  0  0  0
   -0.2890   20.1350  -32.7610 N   0  0  0  0  0  0  0  0  0  0  0  0
    0.2070   20.1250  -31.3590 C   0  0  0  0  0  0  0  0  0  0  0  0
   -0.7660   21.5160  -33.1070 C   0  0  0  0  0  0  0  0  0  0  0  0
   -0.4800   21.8800  -34.5770 C   0  0  0  0  0  0  0  0  0  0  0  0
    0.9020   21.8820  -34.8990 O   0  0  0  0  0  0  0  0  0  0  0  0
    1.6600   20.9440  -34.1470 C   0  0  0  0  0  0  0  0  0  0  0  0
    0.8390   19.7310  -33.6630 C   0  0  0  0  0  0  0  0  0  0  0  0
   -5.7340   19.4440  -33.1230 C   0  0  0  0  0  0  0  0  0  0  0  0
   -2.9896   24.5258  -27.4719 H   0  0  0  0  0  0  0  0  0  0  0  0
   -4.5137   23.8558  -28.1464 H   0  0  0  0  0  0  0  0  0  0  0  0
   -3.0178   22.8612  -28.1464 H   0  0  0  0  0  0  0  0  0  0  0  0
   -2.8864   25.5182  -29.5376 H   0  0  0  0  0  0  0  0  0  0  0  0
   -2.1538   23.8844  -29.9589 H   0  0  0  0  0  0  0  0  0  0  0  0
   -4.6666   26.2472  -30.6655 H   0  0  0  0  0  0  0  0  0  0  0  0
   -5.5303   25.1991  -31.8569 H   0  0  0  0  0  0  0  0  0  0  0  0
   -5.8478   25.1147  -28.8142 H   0  0  0  0  0  0  0  0  0  0  0  0
   -7.0230   25.8000  -29.9872 H   0  0  0  0  0  0  0  0  0  0  0  0
   -6.6782   24.0371  -29.9872 H   0  0  0  0  0  0  0  0  0  0  0  0
   -4.5129   22.3642  -29.8045 H   0  0  0  0  0  0  0  0  0  0  0  0
   -5.6140   22.8949  -31.1617 H   0  0  0  0  0  0  0  0  0  0  0  0
   -2.8980   22.5148  -32.1223 H   0  0  0  0  0  0  0  0  0  0  0  0
   -3.5114   21.0273  -31.3048 H   0  0  0  0  0  0  0  0  0  0  0  0
   -4.3680   22.0670  -33.8950 H   0  0  0  0  0  0  0  0  0  0  0  0
   -6.2611   23.4655  -32.5726 H   0  0  0  0  0  0  0  0  0  0  0  0
   -8.4415   24.5045  -31.9802 H   0  0  0  0  0  0  0  0  0  0  0  0
  -10.4471   23.0774  -31.6213 H   0  0  0  0  0  0  0  0  0  0  0  0
  -10.2680   20.6035  -31.7785 H   0  0  0  0  0  0  0  0  0  0  0  0
   -8.9760   18.4310  -30.5427 H   0  0  0  0  0  0  0  0  0  0  0  0
  -10.0371   18.7255  -31.9619 H   0  0  0  0  0  0  0  0  0  0  0  0
   -8.9033   17.3322  -31.9619 H   0  0  0  0  0  0  0  0  0  0  0  0
   -7.7238   16.6462  -32.9096 H   0  0  0  0  0  0  0  0  0  0  0  0
   -5.6865   15.5945  -33.8402 H   0  0  0  0  0  0  0  0  0  0  0  0
   -3.6847   16.9628  -34.3478 H   0  0  0  0  0  0  0  0  0  0  0  0
   -2.1547   18.1693  -34.7261 H   0  0  0  0  0  0  0  0  0  0  0  0
   -1.6258   19.8756  -34.9569 H   0  0  0  0  0  0  0  0  0  0  0  0
   -2.1267   19.2983  -32.1287 H   0  0  0  0  0  0  0  0  0  0  0  0
   -0.9057   18.1437  -32.8889 H   0  0  0  0  0  0  0  0  0  0  0  0
   -0.6482   20.1422  -30.6674 H   0  0  0  0  0  0  0  0  0  0  0  0
    0.7999   19.2147  -31.1863 H   0  0  0  0  0  0  0  0  0  0  0  0
    0.8361   21.0106  -31.1863 H   0  0  0  0  0  0  0  0  0  0  0  0
   -1.8509   21.5698  -32.9335 H   0  0  0  0  0  0  0  0  0  0  0  0
   -0.2226   22.2300  -32.4707 H   0  0  0  0  0  0  0  0  0  0  0  0
   -0.9872   21.1478  -35.2224 H   0  0  0  0  0  0  0  0  0  0  0  0
   -0.8518   22.9030  -34.7362 H   0  0  0  0  0  0  0  0  0  0  0  0
    2.4832   20.5771  -34.7776 H   0  0  0  0  0  0  0  0  0  0  0  0
    2.0210   21.4674  -33.2494 H   0  0  0  0  0  0  0  0  0  0  0  0
    0.4235   19.2118  -34.5393 H   0  0  0  0  0  0  0  0  0  0  0  0
    1.5110   19.0746  -33.0907 H   0  0  0  0  0  0  0  0  0  0  0  0
  1  2  1  0
  2  3  1  0
  3  4  1  0
  4  5  1  0
  3  6  1  0
  6  7  1  0
  7  8  1  0
  8  9  1  0
  9 10  2  0
 10 11  1  0
 11 12  2  0
 12 13  1  0
 13 14  2  0
 14 15  1  0
 15 16  2  0
 16 17  1  0
 16 18  1  0
 18 19  2  0
 19 20  1  0
 20 21  2  0
 21 22  1  0
 22 23  1  0
 23 24  1  0
 24 25  1  0
 25 26  1  0
 26 27  1  0
 26 28  1  0
 28 29  1  0
 29 30  1  0
 30 31  1  0
 31 32  1  0
 22 33  2  0
 33  9  1  0
 15 10  1  0
 33 18  1  0
 32 26  1  0
  1 34  1  0
  1 35  1  0
  1 36  1  0
  2 37  1  0
  2 38  1  0
  4 39  1  0
  4 40  1  0
  5 41  1  0
  5 42  1  0
  5 43  1  0
  6 44  1  0
  6 45  1  0
  7 46  1  0
  7 47  1  0
  8 48  1  0
 11 49  1  0
 12 50  1  0
 13 51  1  0
 14 52  1  0
 17 53  1  0
 17 54  1  0
 17 55  1  0
 19 56  1  0
 20 57  1  0
 21 58  1  0
 24 59  1  0
 24 60  1  0
 25 61  1  0
 25 62  1  0
 27 63  1  0
 27 64  1  0
 27 65  1  0
 28 66  1  0
 28 67  1  0
 29 68  1  0
 29 69  1  0
 31 70  1  0
 31 71  1  0
 32 72  1  0
 32 73  1  0
M  CHG  2  16   1  26   1
M  END
>  <UniqueID>  (24) 
24

>  <SMILES>  (24) 
CCN(CC)CCNc1c2ccccc2[n+](C)c2cccc(OCC[N+]3(C)CCOCC3)c12

>  <Energy>  (24) 
131.83319954189142

>  <Genealogy>  (24) 
CCN(CC)CCNc1c2ccccc2[n+](C)c2cccc(OCC[N+]3(C)CCOCC3)c12 (3D coordinates assigned)
CCN(CC)CCNc1c2ccccc2[n+](C)c2cccc(OCC[N+]3(C)CCOCC3)c12 (nonaromatic ring conformer: 131.83319954189142 kcal/mol)

>  <smiles>  (24) 
CCN(CC)CCNc1c2ccccc2[n+](C)c2cccc(OCC[N+]3(C)CCOCC3)c12

>  <score_type>  (24) 
oracle

>  <origin>  (24) 
adg

>  <m_score__min__energy>  (24) 
-8.7799999999999994

>  <m_primary>  (24) 
energy

$$$$
24:0
     RDKit          3D

 60 63  0  0  0  0  0  0  0  0999 V2000
   -1.7510   19.7340  -26.3550 C   0  0  0  0  0  0  0  0  0  0  0  0
   -2.8140   19.7710  -27.4470 C   0  0  0  0  0  0  0  0  0  0  0  0
   -2.4620   20.7820  -28.4520 N   0  0  0  0  0  0  0  0  0  0  0  0
   -1.0280   21.1110  -28.4020 C   0  0  0  0  0  0  0  0  0  0  0  0
   -0.5610   21.6680  -29.7510 C   0  0  0  0  0  0  0  0  0  0  0  0
   -1.7190   21.9810  -30.6020 N   0  0  0  0  0  0  0  0  0  0  0  0
   -1.5170   21.5510  -31.9940 C   0  0  0  0  0  0  0  0  0  0  0  0
   -2.7390   20.7680  -32.4820 C   0  0  0  0  0  0  0  0  0  0  0  0
   -3.5090   20.2240  -31.3510 N   0  0  0  0  0  0  0  0  0  0  0  0
   -4.9270   20.2360  -31.6420 C   0  0  0  0  0  0  0  0  0  0  0  0
   -5.5770   19.1290  -32.2690 C   0  0  0  0  0  0  0  0  0  0  0  0
   -4.8420   18.0290  -32.7720 C   0  0  0  0  0  0  0  0  0  0  0  0
   -5.4830   16.9670  -33.4030 C   0  0  0  0  0  0  0  0  0  0  0  0
   -6.8620   16.9760  -33.5660 C   0  0  0  0  0  0  0  0  0  0  0  0
   -7.6170   18.0430  -33.0870 C   0  0  0  0  0  0  0  0  0  0  0  0
   -7.0070   19.1300  -32.4140 C   0  0  0  0  0  0  0  0  0  0  0  0
   -7.7620   20.1780  -31.9160 N   0  0  0  0  0  0  0  0  0  0  0  0
   -9.2360   20.1310  -31.9070 C   0  0  0  0  0  0  0  0  0  0  0  0
   -7.1100   21.2850  -31.4460 C   0  0  0  0  0  0  0  0  0  0  0  0
   -7.6950   22.4470  -31.0660 N   0  0  0  0  0  0  0  0  0  0  0  0
   -6.6840   23.2430  -30.6810 C   0  0  0  0  0  0  0  0  0  0  0  0
   -6.8010   24.5520  -30.2220 C   0  0  0  0  0  0  0  0  0  0  0  0
   -5.6290   25.2470  -29.8860 C   0  0  0  0  0  0  0  0  0  0  0  0
   -4.3600   24.6300  -30.0340 C   0  0  0  0  0  0  0  0  0  0  0  0
   -3.1640   25.2970  -29.7190 O   0  0  0  0  0  0  0  0  0  0  0  0
   -2.2480   24.8720  -28.7160 C   0  0  0  0  0  0  0  0  0  0  0  0
   -4.2770   23.3100  -30.5140 C   0  0  0  0  0  0  0  0  0  0  0  0
   -5.4610   22.6200  -30.8140 C   0  0  0  0  0  0  0  0  0  0  0  0
   -5.7330   21.3410  -31.3090 C   0  0  0  0  0  0  0  0  0  0  0  0
   -2.2378   19.7509  -25.3687 H   0  0  0  0  0  0  0  0  0  0  0  0
   -1.1553   18.8146  -26.4542 H   0  0  0  0  0  0  0  0  0  0  0  0
   -1.0928   20.6098  -26.4542 H   0  0  0  0  0  0  0  0  0  0  0  0
   -2.8768   18.7841  -27.9287 H   0  0  0  0  0  0  0  0  0  0  0  0
   -3.7852   20.0281  -26.9989 H   0  0  0  0  0  0  0  0  0  0  0  0
   -2.6680   20.3770  -29.3970 H   0  0  0  0  0  0  0  0  0  0  0  0
   -0.8560   21.8647  -27.6194 H   0  0  0  0  0  0  0  0  0  0  0  0
   -0.4595   20.1965  -28.1772 H   0  0  0  0  0  0  0  0  0  0  0  0
    0.0238   22.5843  -29.5825 H   0  0  0  0  0  0  0  0  0  0  0  0
    0.0597   20.9124  -30.2548 H   0  0  0  0  0  0  0  0  0  0  0  0
   -1.8500   23.0200  -30.6010 H   0  0  0  0  0  0  0  0  0  0  0  0
   -1.3728   22.4358  -32.6314 H   0  0  0  0  0  0  0  0  0  0  0  0
   -0.6286   20.9045  -32.0472 H   0  0  0  0  0  0  0  0  0  0  0  0
   -3.3854   21.4393  -33.0664 H   0  0  0  0  0  0  0  0  0  0  0  0
   -2.3903   19.9288  -33.1018 H   0  0  0  0  0  0  0  0  0  0  0  0
   -3.3190   20.7510  -30.4710 H   0  0  0  0  0  0  0  0  0  0  0  0
   -3.1910   19.2530  -31.1300 H   0  0  0  0  0  0  0  0  0  0  0  0
   -3.7476   18.0132  -32.6625 H   0  0  0  0  0  0  0  0  0  0  0  0
   -4.8939   16.1156  -33.7747 H   0  0  0  0  0  0  0  0  0  0  0  0
   -7.3594   16.1374  -34.0752 H   0  0  0  0  0  0  0  0  0  0  0  0
   -8.7072   18.0420  -33.2338 H   0  0  0  0  0  0  0  0  0  0  0  0
   -9.5961   20.1195  -30.8677 H   0  0  0  0  0  0  0  0  0  0  0  0
   -9.6343   21.0169  -32.4233 H   0  0  0  0  0  0  0  0  0  0  0  0
   -9.5770   19.2215  -32.4233 H   0  0  0  0  0  0  0  0  0  0  0  0
   -8.7010   22.7180  -31.0980 H   0  0  0  0  0  0  0  0  0  0  0  0
   -7.7872   25.0296  -30.1251 H   0  0  0  0  0  0  0  0  0  0  0  0
   -5.6947   26.2770  -29.5054 H   0  0  0  0  0  0  0  0  0  0  0  0
   -2.6750   25.0701  -27.7218 H   0  0  0  0  0  0  0  0  0  0  0  0
   -2.0585   23.7940  -28.8255 H   0  0  0  0  0  0  0  0  0  0  0  0
   -1.3025   25.4234  -28.8255 H   0  0  0  0  0  0  0  0  0  0  0  0
   -3.2987   22.8265  -30.6519 H   0  0  0  0  0  0  0  0  0  0  0  0
  1  2  1  0
  2  3  1  0
  3  4  1  0
  4  5  1  0
  5  6  1  0
  6  7  1  0
  7  8  1  0
  8  9  1  0
  9 10  1  0
 10 11  2  0
 11 12  1  0
 12 13  2  0
 13 14  1  0
 14 15  2  0
 15 16  1  0
 16 17  2  0
 17 18  1  0
 17 19  1  0
 19 20  1  0
 20 21  1  0
 21 22  2  0
 22 23  1  0
 23 24  2  0
 24 25  1  0
 25 26  1  0
 24 27  1  0
 27 28  2  0
 28 29  1  0
 29 10  1  0
 16 11  1  0
 29 19  2  0
 28 21  1  0
  1 30  1  0
  1 31  1  0
  1 32  1  0
  2 33  1  0
  2 34  1  0
  3 35  1  0
  4 36  1  0
  4 37  1  0
  5 38  1  0
  5 39  1  0
  6 40  1  0
  7 41  1  0
  7 42  1  0
  8 43  1  0
  8 44  1  0
  9 45  1  0
  9 46  1  0
 12 47  1  0
 13 48  1  0
 14 49  1  0
 15 50  1  0
 18 51  1  0
 18 52  1  0
 18 53  1  0
 20 54  1  0
 22 55  1  0
 23 56  1  0
 26 57  1  0
 26 58  1  0
 26 59  1  0
 27 60  1  0
M  CHG  2   9   1  17   1
M  END
>  <UniqueID>  (25) 
25

>  <SMILES>  (25) 
CCNCCNCC[NH2+]c1c2ccccc2[n+](C)c2[nH]c3ccc(OC)cc3c12

>  <Energy>  (25) 
111.95665109656245

>  <Genealogy>  (25) 
CCNCCNCC[NH2+]c1c2ccccc2[n+](C)c2[nH]c3ccc(OC)cc3c12 (protonated)
CCNCCNCC[NH2+]c1c2ccccc2[n+](C)c2[nH]c3ccc(OC)cc3c12 (3D coordinates assigned)
CCNCCNCC[NH2+]c1c2ccccc2[n+](C)c2[nH]c3ccc(OC)cc3c12 (optimized conformer: 111.95665109656245 kcal/mol)

>  <smiles>  (25) 
CCNCCNCCNc1c2ccccc2[n+](C)c2[nH]c3ccc(OC)cc3c12

>  <score_type>  (25) 
oracle

>  <origin>  (25) 
adg

>  <m_score__min__energy>  (25) 
-8.5299999999999994

>  <m_primary>  (25) 
energy

$$$$
25:0
     RDKit          3D

 49 50  0  0  0  0  0  0  0  0999 V2000
   -3.9090   17.4060  -33.7230 C   0  0  0  0  0  0  0  0  0  0  0  0
   -4.8390   17.6950  -34.8970 C   0  0  0  0  0  0  0  0  0  0  0  0
   -6.2010   17.9700  -34.4180 N   0  0  0  0  0  0  0  0  0  0  0  0
   -6.5550   17.1090  -33.2800 C   0  0  0  0  0  0  0  0  0  0  0  0
   -7.6230   17.7820  -32.4100 C   0  0  0  0  0  0  0  0  0  0  0  0
   -8.2230   18.9370  -33.0950 N   0  0  0  0  0  0  0  0  0  0  0  0
   -7.9990   20.1360  -32.3270 C   0  0  0  0  0  0  0  0  0  0  0  0
   -9.0350   20.7150  -31.5640 C   0  0  0  0  0  0  0  0  0  0  0  0
   -8.8150   21.9040  -30.8450 C   0  0  0  0  0  0  0  0  0  0  0  0
   -7.5500   22.5130  -30.8480 C   0  0  0  0  0  0  0  0  0  0  0  0
   -6.5030   21.8860  -31.5350 C   0  0  0  0  0  0  0  0  0  0  0  0
   -6.7400   20.7560  -32.2800 C   0  0  0  0  0  0  0  0  0  0  0  0
   -5.5330   20.4870  -33.0300 C   0  0  0  0  0  0  0  0  0  0  0  0
   -4.6660   21.4460  -32.7160 C   0  0  0  0  0  0  0  0  0  0  0  0
   -5.1540   22.3750  -31.7150 N   0  0  1  0  0  0  0  0  0  0  0  0
   -5.1310   23.6460  -32.2170 O   0  0  0  0  0  0  0  0  0  0  0  0
   -4.2950   22.2580  -30.5110 C   0  0  0  0  0  0  0  0  0  0  0  0
   -4.3870   23.4200  -29.4930 C   0  0  0  0  0  0  0  0  0  0  0  0
   -3.5220   24.6510  -29.8170 C   0  0  0  0  0  0  0  0  0  0  0  0
   -4.2760   25.6760  -30.5560 N   0  0  0  0  0  0  0  0  0  0  0  0
   -5.7110   25.6030  -30.2670 C   0  0  0  0  0  0  0  0  0  0  0  0
   -4.4477   17.5734  -32.7787 H   0  0  0  0  0  0  0  0  0  0  0  0
   -3.5708   16.3604  -33.7719 H   0  0  0  0  0  0  0  0  0  0  0  0
   -3.0378   18.0758  -33.7719 H   0  0  0  0  0  0  0  0  0  0  0  0
   -4.4652   18.5705  -35.4481 H   0  0  0  0  0  0  0  0  0  0  0  0
   -4.8643   16.8149  -35.5564 H   0  0  0  0  0  0  0  0  0  0  0  0
   -6.8650   17.7490  -35.1990 H   0  0  0  0  0  0  0  0  0  0  0  0
   -6.9455   16.1524  -33.6574 H   0  0  0  0  0  0  0  0  0  0  0  0
   -5.6557   16.9371  -32.6704 H   0  0  0  0  0  0  0  0  0  0  0  0
   -8.4127   17.0507  -32.1828 H   0  0  0  0  0  0  0  0  0  0  0  0
   -7.1434   18.1379  -31.4862 H   0  0  0  0  0  0  0  0  0  0  0  0
   -7.8060   19.0450  -34.0490 H   0  0  0  0  0  0  0  0  0  0  0  0
   -9.2530   18.7850  -33.2130 H   0  0  0  0  0  0  0  0  0  0  0  0
  -10.0231   20.2326  -31.5311 H   0  0  0  0  0  0  0  0  0  0  0  0
   -9.6394   22.3595  -30.2768 H   0  0  0  0  0  0  0  0  0  0  0  0
   -7.3845   23.4642  -30.3209 H   0  0  0  0  0  0  0  0  0  0  0  0
   -5.3645   19.6514  -33.7253 H   0  0  0  0  0  0  0  0  0  0  0  0
   -3.6692   21.5269  -33.1742 H   0  0  0  0  0  0  0  0  0  0  0  0
   -4.2660   24.0710  -31.9630 H   0  0  0  0  0  0  0  0  0  0  0  0
   -4.5732   21.3308  -29.9886 H   0  0  0  0  0  0  0  0  0  0  0  0
   -3.2602   22.2733  -30.8839 H   0  0  0  0  0  0  0  0  0  0  0  0
   -5.4364   23.7460  -29.4439 H   0  0  0  0  0  0  0  0  0  0  0  0
   -4.0032   23.0214  -28.5423 H   0  0  0  0  0  0  0  0  0  0  0  0
   -3.1588   25.0876  -28.8750 H   0  0  0  0  0  0  0  0  0  0  0  0
   -2.6860   24.3212  -30.4513 H   0  0  0  0  0  0  0  0  0  0  0  0
   -4.1570   25.4810  -31.5790 H   0  0  0  0  0  0  0  0  0  0  0  0
   -5.8658   25.5951  -29.1780 H   0  0  0  0  0  0  0  0  0  0  0  0
   -6.2178   26.4765  -30.7031 H   0  0  0  0  0  0  0  0  0  0  0  0
   -6.1265   24.6826  -30.7031 H   0  0  0  0  0  0  0  0  0  0  0  0
  1  2  1  0
  2  3  1  0
  3  4  1  0
  4  5  1  0
  5  6  1  0
  6  7  1  0
  7  8  2  0
  8  9  1  0
  9 10  2  0
 10 11  1  0
 11 12  2  0
 12 13  1  0
 13 14  2  0
 14 15  1  0
 15 16  1  6
 15 17  1  0
 17 18  1  0
 18 19  1  0
 19 20  1  0
 20 21  1  0
 12  7  1  0
 15 11  1  0
  1 22  1  0
  1 23  1  0
  1 24  1  0
  2 25  1  0
  2 26  1  0
  3 27  1  0
  4 28  1  0
  4 29  1  0
  5 30  1  0
  5 31  1  0
  6 32  1  0
  6 33  1  0
  8 34  1  0
  9 35  1  0
 10 36  1  0
 13 37  1  0
 14 38  1  0
 16 39  1  0
 17 40  1  0
 17 41  1  0
 18 42  1  0
 18 43  1  0
 19 44  1  0
 19 45  1  0
 20 46  1  0
 21 47  1  0
 21 48  1  0
 21 49  1  0
M  CHG  2   6   1  15   1
M  END
>  <UniqueID>  (26) 
26

>  <SMILES>  (26) 
CCNCC[NH2+]c1cccc2c1C=C[N@+]2(O)CCCNC

>  <Energy>  (26) 
72.50078116318042

>  <Genealogy>  (26) 
CCNCC[NH2+]c1cccc2c1C=C[N+]2(O)CCCNC (protonated)
CCNCC[NH2+]c1cccc2c1C=C[N@+]2(O)CCCNC (chirality)
CCNCC[NH2+]c1cccc2c1C=C[N@+]2(O)CCCNC (3D coordinates assigned)
CCNCC[NH2+]c1cccc2c1C=C[N@+]2(O)CCCNC (nonaromatic ring conformer: 72.50078116318042 kcal/mol)

>  <smiles>  (26) 
CCNCCNc1cccc2c1C=C[N+]2([O-])CCCNC

>  <score_type>  (26) 
oracle

>  <origin>  (26) 
adg

>  <m_score__min__energy>  (26) 
-6.8099999999999996

>  <m_primary>  (26) 
energy

$$$$
26:0
     RDKit          3D

 83 85  0  0  0  0  0  0  0  0999 V2000
   -3.3770   18.8520  -26.3450 C   0  0  0  0  0  0  0  0  0  0  0  0
   -2.0940   19.6250  -26.0460 C   0  0  0  0  0  0  0  0  0  0  0  0
   -1.2650   19.7670  -27.2680 N   0  0  0  0  0  0  0  0  0  0  0  0
   -0.5130   18.5270  -27.5360 C   0  0  0  0  0  0  0  0  0  0  0  0
   -0.3300   20.9100  -27.1550 C   0  0  0  0  0  0  0  0  0  0  0  0
   -0.7980   21.8830  -26.0720 C   0  0  0  0  0  0  0  0  0  0  0  0
   -1.7050   22.7990  -26.6510 O   0  0  0  0  0  0  0  0  0  0  0  0
   -1.2070   24.1140  -26.5170 C   0  0  0  0  0  0  0  0  0  0  0  0
    0.1410   24.1990  -27.2330 C   0  0  0  0  0  0  0  0  0  0  0  0
   -0.0230   24.6560  -28.5630 O   0  0  0  0  0  0  0  0  0  0  0  0
   -1.2360   24.1720  -29.1100 C   0  0  0  0  0  0  0  0  0  0  0  0
   -0.9380   23.0350  -30.0830 C   0  0  0  0  0  0  0  0  0  0  0  0
   -2.1810   22.3730  -30.4990 N   0  0  0  0  0  0  0  0  0  0  0  0
   -2.5130   21.2760  -29.5790 C   0  0  0  0  0  0  0  0  0  0  0  0
   -3.5380   21.7450  -28.5490 C   0  0  0  0  0  0  0  0  0  0  0  0
   -4.5090   22.5560  -29.1770 O   0  0  0  0  0  0  0  0  0  0  0  0
   -4.6290   23.8040  -28.5150 C   0  0  0  0  0  0  0  0  0  0  0  0
   -4.8440   24.9300  -29.5320 C   0  0  0  0  0  0  0  0  0  0  0  0
   -4.5470   24.4630  -30.8370 O   0  0  0  0  0  0  0  0  0  0  0  0
   -5.7240   24.4460  -31.6250 C   0  0  0  0  0  0  0  0  0  0  0  0
   -6.0900   22.9900  -31.9880 C   0  0  0  0  0  0  0  0  0  0  0  0
   -5.1950   21.9870  -31.3710 N   0  0  0  0  0  0  0  0  0  0  0  0
   -5.3150   20.6710  -31.9940 C   0  0  0  0  0  0  0  0  0  0  0  0
   -4.2290   20.0840  -32.7140 C   0  0  0  0  0  0  0  0  0  0  0  0
   -2.9720   20.7320  -32.8570 C   0  0  0  0  0  0  0  0  0  0  0  0
   -1.9400   20.1610  -33.5960 C   0  0  0  0  0  0  0  0  0  0  0  0
   -2.1280   18.9470  -34.2340 C   0  0  0  0  0  0  0  0  0  0  0  0
   -3.3440   18.2820  -34.1110 C   0  0  0  0  0  0  0  0  0  0  0  0
   -4.4020   18.8060  -33.3200 C   0  0  0  0  0  0  0  0  0  0  0  0
   -5.5790   18.1050  -33.1590 N   0  0  0  0  0  0  0  0  0  0  0  0
   -5.6420   16.6700  -33.5290 C   0  0  0  0  0  0  0  0  0  0  0  0
   -6.6850   18.7210  -32.6100 C   0  0  0  0  0  0  0  0  0  0  0  0
   -7.9750   18.1330  -32.7010 C   0  0  0  0  0  0  0  0  0  0  0  0
   -9.0720   18.6950  -32.0550 C   0  0  0  0  0  0  0  0  0  0  0  0
   -8.9180   19.8560  -31.3110 C   0  0  0  0  0  0  0  0  0  0  0  0
   -7.6810   20.4910  -31.2560 C   0  0  0  0  0  0  0  0  0  0  0  0
   -6.5540   19.9700  -31.9450 C   0  0  0  0  0  0  0  0  0  0  0  0
   -3.8589   18.5617  -25.3997 H   0  0  0  0  0  0  0  0  0  0  0  0
   -4.0615   19.4881  -26.9253 H   0  0  0  0  0  0  0  0  0  0  0  0
   -3.1345   17.9495  -26.9253 H   0  0  0  0  0  0  0  0  0  0  0  0
   -2.3554   20.6251  -25.6698 H   0  0  0  0  0  0  0  0  0  0  0  0
   -1.5167   19.0699  -25.2920 H   0  0  0  0  0  0  0  0  0  0  0  0
   -0.2283   18.0576  -26.5828 H   0  0  0  0  0  0  0  0  0  0  0  0
   -1.1429   17.8335  -28.1125 H   0  0  0  0  0  0  0  0  0  0  0  0
    0.3931   18.7650  -28.1125 H   0  0  0  0  0  0  0  0  0  0  0  0
    0.6707   20.5342  -26.8954 H   0  0  0  0  0  0  0  0  0  0  0  0
   -0.2993   21.4398  -28.1185 H   0  0  0  0  0  0  0  0  0  0  0  0
   -1.2973   21.3270  -25.2648 H   0  0  0  0  0  0  0  0  0  0  0  0
    0.0644   22.4219  -25.6526 H   0  0  0  0  0  0  0  0  0  0  0  0
   -1.9129   24.8258  -26.9698 H   0  0  0  0  0  0  0  0  0  0  0  0
   -1.0842   24.3632  -25.4527 H   0  0  0  0  0  0  0  0  0  0  0  0
    0.7943   24.8977  -26.6898 H   0  0  0  0  0  0  0  0  0  0  0  0
    0.5901   23.1952  -27.2584 H   0  0  0  0  0  0  0  0  0  0  0  0
   -1.8814   23.8015  -28.2999 H   0  0  0  0  0  0  0  0  0  0  0  0
   -1.7479   24.9863  -29.6437 H   0  0  0  0  0  0  0  0  0  0  0  0
   -0.4304   23.4417  -30.9701 H   0  0  0  0  0  0  0  0  0  0  0  0
   -0.2939   22.2979  -29.5812 H   0  0  0  0  0  0  0  0  0  0  0  0
   -2.9560   23.0770  -30.4560 H   0  0  0  0  0  0  0  0  0  0  0  0
   -2.9316   20.4353  -30.1517 H   0  0  0  0  0  0  0  0  0  0  0  0
   -1.5993   20.9560  -29.0568 H   0  0  0  0  0  0  0  0  0  0  0  0
   -4.0290   20.8703  -28.0976 H   0  0  0  0  0  0  0  0  0  0  0  0
   -3.0280   22.3273  -27.7675 H   0  0  0  0  0  0  0  0  0  0  0  0
   -5.4866   23.7683  -27.8271 H   0  0  0  0  0  0  0  0  0  0  0  0
   -3.7030   24.0012  -27.9550 H   0  0  0  0  0  0  0  0  0  0  0  0
   -5.8920   25.2619  -29.4929 H   0  0  0  0  0  0  0  0  0  0  0  0
   -4.1788   25.7713  -29.2877 H   0  0  0  0  0  0  0  0  0  0  0  0
   -6.5500   24.8995  -31.0574 H   0  0  0  0  0  0  0  0  0  0  0  0
   -5.5509   25.0179  -32.5486 H   0  0  0  0  0  0  0  0  0  0  0  0
   -7.1183   22.7945  -31.6497 H   0  0  0  0  0  0  0  0  0  0  0  0
   -5.9846   22.8914  -33.0785 H   0  0  0  0  0  0  0  0  0  0  0  0
   -4.2250   22.3560  -31.3410 H   0  0  0  0  0  0  0  0  0  0  0  0
   -5.4250   21.9090  -30.3530 H   0  0  0  0  0  0  0  0  0  0  0  0
   -2.8113   21.7065  -32.3728 H   0  0  0  0  0  0  0  0  0  0  0  0
   -0.9713   20.6764  -33.6734 H   0  0  0  0  0  0  0  0  0  0  0  0
   -1.3184   18.5093  -34.8365 H   0  0  0  0  0  0  0  0  0  0  0  0
   -3.4899   17.3279  -34.6386 H   0  0  0  0  0  0  0  0  0  0  0  0
   -5.6689   16.0568  -32.6162 H   0  0  0  0  0  0  0  0  0  0  0  0
   -6.5492   16.4839  -34.1226 H   0  0  0  0  0  0  0  0  0  0  0  0
   -4.7546   16.4051  -34.1226 H   0  0  0  0  0  0  0  0  0  0  0  0
   -8.1093   17.2159  -33.2934 H   0  0  0  0  0  0  0  0  0  0  0  0
  -10.0606   18.2191  -32.1342 H   0  0  0  0  0  0  0  0  0  0  0  0
   -9.7752   20.2752  -30.7637 H   0  0  0  0  0  0  0  0  0  0  0  0
   -7.5742   21.4142  -30.6675 H   0  0  0  0  0  0  0  0  0  0  0  0
  1  2  1  0
  2  3  1  0
  3  4  1  0
  3  5  1  0
  5  6  1  0
  6  7  1  0
  7  8  1  0
  8  9  1  0
  9 10  1  0
 10 11  1  0
 11 12  1  0
 12 13  1  0
 13 14  1  0
 14 15  1  0
 15 16  1  0
 16 17  1  0
 17 18  1  0
 18 19  1  0
 19 20  1  0
 20 21  1  0
 21 22  1  0
 22 23  1  0
 23 24  2  0
 24 25  1  0
 25 26  2  0
 26 27  1  0
 27 28  2  0
 28 29  1  0
 29 30  2  0
 30 31  1  0
 30 32  1  0
 32 33  2  0
 33 34  1  0
 34 35  2  0
 35 36  1  0
 36 37  2  0
 37 23  1  0
 29 24  1  0
 37 32  1  0
  1 38  1  0
  1 39  1  0
  1 40  1  0
  2 41  1  0
  2 42  1  0
  4 43  1  0
  4 44  1  0
  4 45  1  0
  5 46  1  0
  5 47  1  0
  6 48  1  0
  6 49  1  0
  8 50  1  0
  8 51  1  0
  9 52  1  0
  9 53  1  0
 11 54  1  0
 11 55  1  0
 12 56  1  0
 12 57  1  0
 13 58  1  0
 14 59  1  0
 14 60  1  0
 15 61  1  0
 15 62  1  0
 17 63  1  0
 17 64  1  0
 18 65  1  0
 18 66  1  0
 20 67  1  0
 20 68  1  0
 21 69  1  0
 21 70  1  0
 22 71  1  0
 22 72  1  0
 25 73  1  0
 26 74  1  0
 27 75  1  0
 28 76  1  0
 31 77  1  0
 31 78  1  0
 31 79  1  0
 33 80  1  0
 34 81  1  0
 35 82  1  0
 36 83  1  0
M  CHG  2  22   1  30   1
M  END
>  <UniqueID>  (27) 
27

>  <SMILES>  (27) 
CCN(C)CCOCCOCCNCCOCCOCC[NH2+]c1c2ccccc2[n+](C)c2ccccc12

>  <Energy>  (27) 
110.35710497840435

>  <Genealogy>  (27) 
CCN(C)CCOCCOCCNCCOCCOCC[NH2+]c1c2ccccc2[n+](C)c2ccccc12 (protonated)
CCN(C)CCOCCOCCNCCOCCOCC[NH2+]c1c2ccccc2[n+](C)c2ccccc12 (3D coordinates assigned)
CCN(C)CCOCCOCCNCCOCCOCC[NH2+]c1c2ccccc2[n+](C)c2ccccc12 (optimized conformer: 110.35710497840435 kcal/mol)

>  <smiles>  (27) 
CCN(C)CCOCCOCCNCCOCCOCCNc1c2ccccc2[n+](C)c2ccccc12

>  <score_type>  (27) 
oracle

>  <origin>  (27) 
adg

>  <m_score__min__energy>  (27) 
-8.3499999999999996

>  <m_primary>  (27) 
energy

$$$$
27:0
     RDKit          3D

 51 55  0  0  0  0  0  0  0  0999 V2000
   -5.2540   25.0110  -30.6120 C   0  0  0  0  0  0  0  0  0  0  0  0
   -3.9670   24.2940  -30.6030 N   0  0  0  0  0  0  0  0  0  0  0  0
   -3.2710   24.5570  -29.3320 C   0  0  0  0  0  0  0  0  0  0  0  0
   -4.1910   22.8460  -30.7960 C   0  0  0  0  0  0  0  0  0  0  0  0
   -3.5310   22.3610  -32.0940 C   0  0  0  0  0  0  0  0  0  0  0  0
   -4.5370   22.0060  -33.0970 N   0  0  0  0  0  0  0  0  0  0  0  0
   -5.6200   21.0930  -32.8390 C   0  0  0  0  0  0  0  0  0  0  0  0
   -5.4550   19.7190  -33.0190 C   0  0  0  0  0  0  0  0  0  0  0  0
   -6.5220   18.8520  -32.8580 C   0  0  0  0  0  0  0  0  0  0  0  0
   -7.7370   19.2740  -32.3810 N   0  0  0  0  0  0  0  0  0  0  0  0
   -8.7280   18.2890  -31.9160 C   0  0  0  0  0  0  0  0  0  0  0  0
   -7.9720   20.6350  -32.2820 C   0  0  0  0  0  0  0  0  0  0  0  0
   -9.2620   21.1470  -31.9980 C   0  0  0  0  0  0  0  0  0  0  0  0
   -9.4750   22.5180  -31.8560 C   0  0  0  0  0  0  0  0  0  0  0  0
   -8.4190   23.4110  -32.0010 C   0  0  0  0  0  0  0  0  0  0  0  0
   -7.1450   22.9460  -32.3160 C   0  0  0  0  0  0  0  0  0  0  0  0
   -6.9050   21.5670  -32.4880 C   0  0  0  0  0  0  0  0  0  0  0  0
   -6.0910   17.5170  -33.2930 C   0  0  0  0  0  0  0  0  0  0  0  0
   -6.8180   16.3310  -33.5350 C   0  0  0  0  0  0  0  0  0  0  0  0
   -6.0960   15.2490  -34.0460 C   0  0  0  0  0  0  0  0  0  0  0  0
   -4.7650   15.3330  -34.3370 C   0  0  0  0  0  0  0  0  0  0  0  0
   -4.0360   16.5080  -34.1590 C   0  0  0  0  0  0  0  0  0  0  0  0
   -4.7400   17.6080  -33.6410 C   0  0  0  0  0  0  0  0  0  0  0  0
   -4.2160   18.9960  -33.4670 C   0  0  0  0  0  0  0  0  0  0  0  0
   -4.3290   14.1200  -34.8360 O   0  0  0  0  0  0  0  0  0  0  0  0
   -5.4480   13.2210  -34.8630 C   0  0  0  0  0  0  0  0  0  0  0  0
   -6.5530   13.9820  -34.3550 O   0  0  0  0  0  0  0  0  0  0  0  0
   -5.5798   25.1925  -29.5772 H   0  0  0  0  0  0  0  0  0  0  0  0
   -5.1344   25.9725  -31.1328 H   0  0  0  0  0  0  0  0  0  0  0  0
   -6.0087   24.4033  -31.1328 H   0  0  0  0  0  0  0  0  0  0  0  0
   -3.9350   24.3061  -28.4916 H   0  0  0  0  0  0  0  0  0  0  0  0
   -2.3616   23.9405  -29.2775 H   0  0  0  0  0  0  0  0  0  0  0  0
   -2.9966   25.6208  -29.2775 H   0  0  0  0  0  0  0  0  0  0  0  0
   -3.7598   22.2978  -29.9454 H   0  0  0  0  0  0  0  0  0  0  0  0
   -5.2736   22.6621  -30.8607 H   0  0  0  0  0  0  0  0  0  0  0  0
   -2.8927   23.1628  -32.4937 H   0  0  0  0  0  0  0  0  0  0  0  0
   -2.9324   21.4662  -31.8681 H   0  0  0  0  0  0  0  0  0  0  0  0
   -4.5510   22.5540  -33.9860 H   0  0  0  0  0  0  0  0  0  0  0  0
   -8.7425   18.2746  -30.8162 H   0  0  0  0  0  0  0  0  0  0  0  0
   -9.7240   18.5653  -32.2922 H   0  0  0  0  0  0  0  0  0  0  0  0
   -8.4577   17.2913  -32.2922 H   0  0  0  0  0  0  0  0  0  0  0  0
  -10.1082   20.4529  -31.8878 H   0  0  0  0  0  0  0  0  0  0  0  0
  -10.4831   22.8947  -31.6282 H   0  0  0  0  0  0  0  0  0  0  0  0
   -8.5909   24.4891  -31.8663 H   0  0  0  0  0  0  0  0  0  0  0  0
   -6.3174   23.6614  -32.4319 H   0  0  0  0  0  0  0  0  0  0  0  0
   -7.8969   16.2622  -33.3318 H   0  0  0  0  0  0  0  0  0  0  0  0
   -2.9670   16.5705  -34.4106 H   0  0  0  0  0  0  0  0  0  0  0  0
   -3.4264   19.0363  -32.7022 H   0  0  0  0  0  0  0  0  0  0  0  0
   -3.7463   19.4185  -34.3675 H   0  0  0  0  0  0  0  0  0  0  0  0
   -5.6499   12.8869  -35.8914 H   0  0  0  0  0  0  0  0  0  0  0  0
   -5.2630   12.3156  -34.2664 H   0  0  0  0  0  0  0  0  0  0  0  0
  1  2  1  0
  2  3  1  0
  2  4  1  0
  4  5  1  0
  5  6  1  0
  6  7  1  0
  7  8  2  0
  8  9  1  0
  9 10  2  0
 10 11  1  0
 10 12  1  0
 12 13  2  0
 13 14  1  0
 14 15  2  0
 15 16  1  0
 16 17  2  0
  9 18  1  0
 18 19  2  0
 19 20  1  0
 20 21  2  0
 21 22  1  0
 22 23  2  0
 23 24  1  0
 21 25  1  0
 25 26  1  0
 26 27  1  0
 17  7  1  0
 23 18  1  0
 24  8  1  0
 17 12  1  0
 27 20  1  0
  1 28  1  0
  1 29  1  0
  1 30  1  0
  3 31  1  0
  3 32  1  0
  3 33  1  0
  4 34  1  0
  4 35  1  0
  5 36  1  0
  5 37  1  0
  6 38  1  0
 11 39  1  0
 11 40  1  0
 11 41  1  0
 13 42  1  0
 14 43  1  0
 15 44  1  0
 16 45  1  0
 19 46  1  0
 22 47  1  0
 24 48  1  0
 24 49  1  0
 26 50  1  0
 26 51  1  0
M  CHG  1  10   1
M  END
>  <UniqueID>  (28) 
28

>  <SMILES>  (28) 
CN(C)CCNc1c2c([n+](C)c3ccccc13)-c1cc3c(cc1C2)OCO3

>  <Energy>  (28) 
124.33050888017192

>  <Genealogy>  (28) 
CN(C)CCNc1c2c([n+](C)c3ccccc13)-c1cc3c(cc1C2)OCO3 (3D coordinates assigned)
CN(C)CCNc1c2c([n+](C)c3ccccc13)-c1cc3c(cc1C2)OCO3 (nonaromatic ring conformer: 124.33050888017192 kcal/mol)

>  <smiles>  (28) 
CN(C)CCNc1c2c([n+](C)c3ccccc13)-c1cc3c(cc1C2)OCO3

>  <score_type>  (28) 
oracle

>  <origin>  (28) 
adg

>  <m_score__min__energy>  (28) 
-8.9100000000000001

>  <m_primary>  (28) 
energy

$$$$
28:0
     RDKit          3D

 67 70  0  0  0  0  0  0  0  0999 V2000
   -2.7560   19.0560  -26.6700 C   0  0  0  0  0  0  0  0  0  0  0  0
   -2.8870   20.4640  -27.2360 C   0  0  0  0  0  0  0  0  0  0  0  0
   -2.4200   20.4840  -28.6280 N   0  0  0  0  0  0  0  0  0  0  0  0
   -1.2110   19.6700  -28.8420 C   0  0  0  0  0  0  0  0  0  0  0  0
   -0.2000   20.2570  -29.8600 C   0  0  0  0  0  0  0  0  0  0  0  0
   -0.5890   21.5600  -30.4290 N   0  0  0  0  0  0  0  0  0  0  0  0
   -0.7100   21.5510  -31.8950 C   0  0  0  0  0  0  0  0  0  0  0  0
   -2.1040   21.0740  -32.3090 C   0  0  0  0  0  0  0  0  0  0  0  0
   -3.0360   21.1590  -31.1830 N   0  0  0  0  0  0  0  0  0  0  0  0
   -4.4410   21.3390  -31.4090 C   0  0  0  0  0  0  0  0  0  0  0  0
   -5.1300   20.3960  -32.1920 C   0  0  0  0  0  0  0  0  0  0  0  0
   -4.4590   19.2770  -32.7310 C   0  0  0  0  0  0  0  0  0  0  0  0
   -5.1250   18.3770  -33.5580 C   0  0  0  0  0  0  0  0  0  0  0  0
   -6.4640   18.5800  -33.8710 C   0  0  0  0  0  0  0  0  0  0  0  0
   -7.1520   19.6650  -33.3300 C   0  0  0  0  0  0  0  0  0  0  0  0
   -6.5130   20.5730  -32.4470 C   0  0  0  0  0  0  0  0  0  0  0  0
   -7.1980   21.6140  -31.8530 N   0  0  0  0  0  0  0  0  0  0  0  0
   -8.6790   21.6250  -31.8720 C   0  0  0  0  0  0  0  0  0  0  0  0
   -6.5080   22.6240  -31.2070 C   0  0  0  0  0  0  0  0  0  0  0  0
   -7.1530   23.8260  -30.8350 C   0  0  0  0  0  0  0  0  0  0  0  0
   -6.4860   24.8100  -30.1190 C   0  0  0  0  0  0  0  0  0  0  0  0
   -5.1600   24.6360  -29.7580 C   0  0  0  0  0  0  0  0  0  0  0  0
   -4.4530   23.4840  -30.1470 C   0  0  0  0  0  0  0  0  0  0  0  0
   -3.1030   23.3030  -29.7860 O   0  0  0  0  0  0  0  0  0  0  0  0
   -2.2050   24.2590  -29.2150 C   0  0  0  0  0  0  0  0  0  0  0  0
   -1.7530   23.8190  -27.8030 C   0  0  2  0  0  0  0  0  0  0  0  0
   -0.9820   24.9040  -27.0640 C   0  0  0  0  0  0  0  0  0  0  0  0
    0.4630   24.6460  -27.4230 C   0  0  0  0  0  0  0  0  0  0  0  0
    0.5150   23.1760  -27.8220 C   0  0  0  0  0  0  0  0  0  0  0  0
   -0.8550   22.6610  -27.8690 N   0  0  0  0  0  0  0  0  0  0  0  0
   -5.1180   22.4810  -30.9150 C   0  0  0  0  0  0  0  0  0  0  0  0
   -2.7602   19.1008  -25.5709 H   0  0  0  0  0  0  0  0  0  0  0  0
   -3.6009   18.4420  -27.0152 H   0  0  0  0  0  0  0  0  0  0  0  0
   -1.8123   18.6084  -27.0152 H   0  0  0  0  0  0  0  0  0  0  0  0
   -3.9412   20.7760  -27.1996 H   0  0  0  0  0  0  0  0  0  0  0  0
   -2.2760   21.1554  -26.6371 H   0  0  0  0  0  0  0  0  0  0  0  0
   -2.2590   21.4680  -28.9420 H   0  0  0  0  0  0  0  0  0  0  0  0
   -0.6976   19.5602  -27.8754 H   0  0  0  0  0  0  0  0  0  0  0  0
   -1.5539   18.7140  -29.2644 H   0  0  0  0  0  0  0  0  0  0  0  0
    0.7674   20.3799  -29.3510 H   0  0  0  0  0  0  0  0  0  0  0  0
   -0.1580   19.5494  -30.7012 H   0  0  0  0  0  0  0  0  0  0  0  0
   -1.4740   21.9070  -29.9970 H   0  0  0  0  0  0  0  0  0  0  0  0
   -0.5455   22.5686  -32.2791 H   0  0  0  0  0  0  0  0  0  0  0  0
    0.0419   20.8651  -32.3123 H   0  0  0  0  0  0  0  0  0  0  0  0
   -2.4723   21.7054  -33.1310 H   0  0  0  0  0  0  0  0  0  0  0  0
   -2.0368   20.0252  -32.6338 H   0  0  0  0  0  0  0  0  0  0  0  0
   -2.6960   21.0850  -30.1970 H   0  0  0  0  0  0  0  0  0  0  0  0
   -3.3971   19.1144  -32.4946 H   0  0  0  0  0  0  0  0  0  0  0  0
   -4.5915   17.5049  -33.9640 H   0  0  0  0  0  0  0  0  0  0  0  0
   -6.9816   17.8833  -34.5468 H   0  0  0  0  0  0  0  0  0  0  0  0
   -8.2090   19.8198  -33.5924 H   0  0  0  0  0  0  0  0  0  0  0  0
   -9.0589   21.6278  -30.8397 H   0  0  0  0  0  0  0  0  0  0  0  0
   -9.0323   22.5258  -32.3952 H   0  0  0  0  0  0  0  0  0  0  0  0
   -9.0456   20.7296  -32.3952 H   0  0  0  0  0  0  0  0  0  0  0  0
   -8.2040   23.9842  -31.1187 H   0  0  0  0  0  0  0  0  0  0  0  0
   -7.0132   25.7332  -29.8366 H   0  0  0  0  0  0  0  0  0  0  0  0
   -4.6539   25.4081  -29.1599 H   0  0  0  0  0  0  0  0  0  0  0  0
   -1.3209   24.3539  -29.8626 H   0  0  0  0  0  0  0  0  0  0  0  0
   -2.7264   25.2240  -29.1316 H   0  0  0  0  0  0  0  0  0  0  0  0
   -2.6859   23.5845  -27.2694 H   0  0  0  0  0  0  0  0  0  0  0  0
   -1.2950   25.9030  -27.4016 H   0  0  0  0  0  0  0  0  0  0  0  0
   -1.1563   24.8779  -25.9782 H   0  0  0  0  0  0  0  0  0  0  0  0
    0.7727   25.2855  -28.2627 H   0  0  0  0  0  0  0  0  0  0  0  0
    1.1424   24.8713  -26.5877 H   0  0  0  0  0  0  0  0  0  0  0  0
    0.9836   23.0762  -28.8122 H   0  0  0  0  0  0  0  0  0  0  0  0
    1.1079   22.6067  -27.0909 H   0  0  0  0  0  0  0  0  0  0  0  0
   -0.9970   22.1060  -28.7460 H   0  0  0  0  0  0  0  0  0  0  0  0
  1  2  1  0
  2  3  1  0
  3  4  1  0
  4  5  1  0
  5  6  1  0
  6  7  1  0
  7  8  1  0
  8  9  1  0
  9 10  1  0
 10 11  2  0
 11 12  1  0
 12 13  2  0
 13 14  1  0
 14 15  2  0
 15 16  1  0
 16 17  2  0
 17 18  1  0
 17 19  1  0
 19 20  2  0
 20 21  1  0
 21 22  2  0
 22 23  1  0
 23 24  1  0
 24 25  1  0
 25 26  1  0
 26 27  1  0
 27 28  1  0
 28 29  1  0
 29 30  1  0
 23 31  2  0
 31 10  1  0
 16 11  1  0
 31 19  1  0
 30 26  1  0
  1 32  1  0
  1 33  1  0
  1 34  1  0
  2 35  1  0
  2 36  1  0
  3 37  1  0
  4 38  1  0
  4 39  1  0
  5 40  1  0
  5 41  1  0
  6 42  1  0
  7 43  1  0
  7 44  1  0
  8 45  1  0
  8 46  1  0
  9 47  1  0
 12 48  1  0
 13 49  1  0
 14 50  1  0
 15 51  1  0
 18 52  1  0
 18 53  1  0
 18 54  1  0
 20 55  1  0
 21 56  1  0
 22 57  1  0
 25 58  1  0
 25 59  1  0
 26 60  1  1
 27 61  1  0
 27 62  1  0
 28 63  1  0
 28 64  1  0
 29 65  1  0
 29 66  1  0
 30 67  1  0
M  CHG  1  17   1
M  END
>  <UniqueID>  (29) 
29

>  <SMILES>  (29) 
CCNCCNCCNc1c2ccccc2[n+](C)c2cccc(OC[C@@H]3CCCN3)c12

>  <Energy>  (29) 
99.67742528314517

>  <Genealogy>  (29) 
CCNCCNCCNc1c2ccccc2[n+](C)c2cccc(OC[C@@H]3CCCN3)c12 (chirality)
CCNCCNCCNc1c2ccccc2[n+](C)c2cccc(OC[C@@H]3CCCN3)c12 (3D coordinates assigned)
CCNCCNCCNc1c2ccccc2[n+](C)c2cccc(OC[C@@H]3CCCN3)c12 (nonaromatic ring conformer: 99.67742528314517 kcal/mol)

>  <smiles>  (29) 
CCNCCNCCNc1c2ccccc2[n+](C)c2cccc(OCC3CCCN3)c12

>  <score_type>  (29) 
oracle

>  <origin>  (29) 
adg

>  <m_score__min__energy>  (29) 
-10.220000000000001

>  <m_primary>  (29) 
energy

$$$$
29:0
     RDKit          3D

 53 56  0  0  0  0  0  0  0  0999 V2000
   -3.4710   24.2030  -27.3980 C   0  0  0  0  0  0  0  0  0  0  0  0
   -4.5490   24.1760  -28.4920 C   0  0  0  0  0  0  0  0  0  0  0  0
   -4.0360   24.4560  -29.8540 N   0  0  0  0  0  0  0  0  0  0  0  0
   -3.1210   23.4030  -30.3280 C   0  0  0  0  0  0  0  0  0  0  0  0
   -5.1230   24.7330  -30.8190 C   0  0  0  0  0  0  0  0  0  0  0  0
   -6.0420   23.5200  -31.0010 C   0  0  0  0  0  0  0  0  0  0  0  0
   -5.9630   22.9980  -32.3660 N   0  0  0  0  0  0  0  0  0  0  0  0
   -5.9230   21.5830  -32.6220 C   0  0  0  0  0  0  0  0  0  0  0  0
   -4.7100   20.9660  -32.9820 C   0  0  0  0  0  0  0  0  0  0  0  0
   -3.5430   21.7280  -33.2030 C   0  0  0  0  0  0  0  0  0  0  0  0
   -2.3410   21.1090  -33.5450 C   0  0  0  0  0  0  0  0  0  0  0  0
   -2.2840   19.7260  -33.6830 C   0  0  0  0  0  0  0  0  0  0  0  0
   -3.4300   18.9570  -33.4920 C   0  0  0  0  0  0  0  0  0  0  0  0
   -4.6620   19.5630  -33.1500 C   0  0  0  0  0  0  0  0  0  0  0  0
   -5.8450   18.8010  -32.9780 C   0  0  0  0  0  0  0  0  0  0  0  0
   -5.7800   17.3260  -33.1450 C   0  0  0  0  0  0  0  0  0  0  0  0
   -5.0210   16.5510  -32.2560 C   0  0  0  0  0  0  0  0  0  0  0  0
   -4.9610   15.1620  -32.4140 C   0  0  0  0  0  0  0  0  0  0  0  0
   -5.6580   14.5450  -33.4570 C   0  0  0  0  0  0  0  0  0  0  0  0
   -6.4160   15.3160  -34.3450 C   0  0  0  0  0  0  0  0  0  0  0  0
   -6.4780   16.7040  -34.1900 C   0  0  0  0  0  0  0  0  0  0  0  0
   -7.0400   19.4250  -32.6730 N   0  0  0  0  0  0  0  0  0  0  0  0
   -8.1930   18.6830  -32.5280 C   0  0  0  0  0  0  0  0  0  0  0  0
   -9.4110   19.2820  -32.2210 C   0  0  0  0  0  0  0  0  0  0  0  0
   -9.4760   20.6560  -32.0590 C   0  0  0  0  0  0  0  0  0  0  0  0
   -8.3250   21.4180  -32.2010 C   0  0  0  0  0  0  0  0  0  0  0  0
   -7.0930   20.7990  -32.5060 C   0  0  0  0  0  0  0  0  0  0  0  0
   -3.9521   24.1910  -26.4088 H   0  0  0  0  0  0  0  0  0  0  0  0
   -2.8220   23.3208  -27.5009 H   0  0  0  0  0  0  0  0  0  0  0  0
   -2.8670   25.1166  -27.5009 H   0  0  0  0  0  0  0  0  0  0  0  0
   -5.0125   23.1784  -28.4957 H   0  0  0  0  0  0  0  0  0  0  0  0
   -5.2647   24.9761  -28.2519 H   0  0  0  0  0  0  0  0  0  0  0  0
   -2.6744   22.8891  -29.4640 H   0  0  0  0  0  0  0  0  0  0  0  0
   -3.6807   22.6778  -30.9369 H   0  0  0  0  0  0  0  0  0  0  0  0
   -2.3248   23.8560  -30.9369 H   0  0  0  0  0  0  0  0  0  0  0  0
   -5.7198   25.5803  -30.4502 H   0  0  0  0  0  0  0  0  0  0  0  0
   -4.6664   24.9665  -31.7922 H   0  0  0  0  0  0  0  0  0  0  0  0
   -5.7391   22.7311  -30.2968 H   0  0  0  0  0  0  0  0  0  0  0  0
   -7.0780   23.8349  -30.8073 H   0  0  0  0  0  0  0  0  0  0  0  0
   -6.1550   23.6520  -33.1580 H   0  0  0  0  0  0  0  0  0  0  0  0
   -3.5819   22.8229  -33.1044 H   0  0  0  0  0  0  0  0  0  0  0  0
   -1.4371   21.7150  -33.7058 H   0  0  0  0  0  0  0  0  0  0  0  0
   -1.3328   19.2388  -33.9433 H   0  0  0  0  0  0  0  0  0  0  0  0
   -3.3763   17.8645  -33.6086 H   0  0  0  0  0  0  0  0  0  0  0  0
   -4.4728   17.0352  -31.4344 H   0  0  0  0  0  0  0  0  0  0  0  0
   -4.3648   14.5549  -31.7168 H   0  0  0  0  0  0  0  0  0  0  0  0
   -5.6105   13.4529  -33.5796 H   0  0  0  0  0  0  0  0  0  0  0  0
   -6.9636   14.8297  -35.1657 H   0  0  0  0  0  0  0  0  0  0  0  0
   -7.0749   17.3088  -34.8885 H   0  0  0  0  0  0  0  0  0  0  0  0
   -8.1491   17.5916  -32.6581 H   0  0  0  0  0  0  0  0  0  0  0  0
  -10.3166   18.6680  -32.1077 H   0  0  0  0  0  0  0  0  0  0  0  0
  -10.4341   21.1402  -31.8192 H   0  0  0  0  0  0  0  0  0  0  0  0
   -8.3726   22.5098  -32.0753 H   0  0  0  0  0  0  0  0  0  0  0  0
  1  2  1  0
  2  3  1  0
  3  4  1  0
  3  5  1  0
  5  6  1  0
  6  7  1  0
  7  8  1  0
  8  9  2  0
  9 10  1  0
 10 11  2  0
 11 12  1  0
 12 13  2  0
 13 14  1  0
 14 15  2  0
 15 16  1  0
 16 17  2  0
 17 18  1  0
 18 19  2  0
 19 20  1  0
 20 21  2  0
 15 22  1  0
 22 23  2  0
 23 24  1  0
 24 25  2  0
 25 26  1  0
 26 27  2  0
 27  8  1  0
 14  9  1  0
 21 16  1  0
 27 22  1  0
  1 28  1  0
  1 29  1  0
  1 30  1  0
  2 31  1  0
  2 32  1  0
  4 33  1  0
  4 34  1  0
  4 35  1  0
  5 36  1  0
  5 37  1  0
  6 38  1  0
  6 39  1  0
  7 40  1  0
 10 41  1  0
 11 42  1  0
 12 43  1  0
 13 44  1  0
 17 45  1  0
 18 46  1  0
 19 47  1  0
 20 48  1  0
 21 49  1  0
 23 50  1  0
 24 51  1  0
 25 52  1  0
 26 53  1  0
M  CHG  1  22   1
M  END
>  <UniqueID>  (30) 
30

>  <SMILES>  (30) 
CCN(C)CCNc1c2ccccc2c(-c2ccccc2)[n+]2ccccc12

>  <Energy>  (30) 
84.45747742542059

>  <Genealogy>  (30) 
CCN(C)CCNc1c2ccccc2c(-c2ccccc2)[n+]2ccccc12 (3D coordinates assigned)
CCN(C)CCNc1c2ccccc2c(-c2ccccc2)[n+]2ccccc12 (optimized conformer: 84.45747742542059 kcal/mol)

>  <smiles>  (30) 
CCN(C)CCNc1c2ccccc2c(-c2ccccc2)[n+]2ccccc12

>  <score_type>  (30) 
oracle

>  <origin>  (30) 
adg

>  <m_score__min__energy>  (30) 
-9.1699999999999999

>  <m_primary>  (30) 
energy

$$$$
30:0
     RDKit          3D

 54 56  0  0  0  0  0  0  0  0999 V2000
   -3.4980   24.1740  -28.4660 C   0  0  0  0  0  0  0  0  0  0  0  0
   -3.3450   24.5150  -29.9550 C   0  0  0  0  0  0  0  0  0  0  0  0
   -4.4270   23.9770  -30.8120 N   0  0  0  0  0  0  0  0  0  0  0  0
   -5.5850   24.8890  -30.8800 C   0  0  0  0  0  0  0  0  0  0  0  0
   -4.8200   22.6020  -30.4370 C   0  0  0  0  0  0  0  0  0  0  0  0
   -3.7040   21.6090  -30.7830 C   0  0  0  0  0  0  0  0  0  0  0  0
   -3.3510   21.6660  -32.2760 C   0  0  0  0  0  0  0  0  0  0  0  0
   -4.5310   22.0310  -33.0780 N   0  0  0  0  0  0  0  0  0  0  0  0
   -5.5440   20.9900  -33.0130 C   0  0  0  0  0  0  0  0  0  0  0  0
   -6.8590   21.2870  -32.5680 C   0  0  0  0  0  0  0  0  0  0  0  0
   -7.2960   22.6190  -32.3560 C   0  0  0  0  0  0  0  0  0  0  0  0
   -8.5900   22.8890  -31.9220 C   0  0  0  0  0  0  0  0  0  0  0  0
   -9.4840   21.8500  -31.7000 C   0  0  0  0  0  0  0  0  0  0  0  0
   -9.0840   20.5320  -31.9040 C   0  0  0  0  0  0  0  0  0  0  0  0
   -7.7660   20.2210  -32.3230 C   0  0  0  0  0  0  0  0  0  0  0  0
   -7.3640   18.9160  -32.4990 N   0  0  0  0  0  0  0  0  0  0  0  0
   -8.1080   17.8350  -31.8150 C   0  0  0  0  0  0  0  0  0  0  0  0
   -6.2240   18.6350  -33.2270 C   0  0  0  0  0  0  0  0  0  0  0  0
   -5.9900   17.3460  -33.8000 C   0  0  0  0  0  0  0  0  0  0  0  0
   -7.0150   16.3830  -33.8160 O   0  0  0  0  0  0  0  0  0  0  0  0
   -6.8640   15.0270  -34.2260 C   0  0  0  0  0  0  0  0  0  0  0  0
   -4.7520   17.0660  -34.4030 C   0  0  0  0  0  0  0  0  0  0  0  0
   -3.7850   18.0510  -34.5220 C   0  0  0  0  0  0  0  0  0  0  0  0
   -4.0380   19.3390  -34.0710 C   0  0  0  0  0  0  0  0  0  0  0  0
   -5.2570   19.6620  -33.4340 C   0  0  0  0  0  0  0  0  0  0  0  0
   -3.1228   25.0103  -27.8579 H   0  0  0  0  0  0  0  0  0  0  0  0
   -4.5599   24.0014  -28.2366 H   0  0  0  0  0  0  0  0  0  0  0  0
   -2.9210   23.2660  -28.2366 H   0  0  0  0  0  0  0  0  0  0  0  0
   -3.3335   25.6100  -30.0594 H   0  0  0  0  0  0  0  0  0  0  0  0
   -2.4091   24.0466  -30.2936 H   0  0  0  0  0  0  0  0  0  0  0  0
   -5.9103   25.1452  -29.8609 H   0  0  0  0  0  0  0  0  0  0  0  0
   -5.2983   25.8064  -31.4149 H   0  0  0  0  0  0  0  0  0  0  0  0
   -6.4097   24.3952  -31.4149 H   0  0  0  0  0  0  0  0  0  0  0  0
   -5.0152   22.5640  -29.3551 H   0  0  0  0  0  0  0  0  0  0  0  0
   -5.7260   22.3267  -30.9967 H   0  0  0  0  0  0  0  0  0  0  0  0
   -2.8089   21.8560  -30.1933 H   0  0  0  0  0  0  0  0  0  0  0  0
   -4.0566   20.5940  -30.5477 H   0  0  0  0  0  0  0  0  0  0  0  0
   -2.5625   22.4170  -32.4319 H   0  0  0  0  0  0  0  0  0  0  0  0
   -3.0015   20.6727  -32.5942 H   0  0  0  0  0  0  0  0  0  0  0  0
   -4.9210   22.9460  -32.7610 H   0  0  0  0  0  0  0  0  0  0  0  0
   -4.2530   22.2150  -34.0680 H   0  0  0  0  0  0  0  0  0  0  0  0
   -6.6010   23.4521  -32.5375 H   0  0  0  0  0  0  0  0  0  0  0  0
   -8.9060   23.9292  -31.7542 H   0  0  0  0  0  0  0  0  0  0  0  0
  -10.5081   22.0681  -31.3630 H   0  0  0  0  0  0  0  0  0  0  0  0
   -9.8039   19.7172  -31.7370 H   0  0  0  0  0  0  0  0  0  0  0  0
   -8.0206   17.9620  -30.7259 H   0  0  0  0  0  0  0  0  0  0  0  0
   -9.1681   17.8789  -32.1054 H   0  0  0  0  0  0  0  0  0  0  0  0
   -7.6884   16.8605  -32.1054 H   0  0  0  0  0  0  0  0  0  0  0  0
   -6.7921   14.3814  -33.3383 H   0  0  0  0  0  0  0  0  0  0  0  0
   -7.7343   14.7269  -34.8281 H   0  0  0  0  0  0  0  0  0  0  0  0
   -5.9490   14.9257  -34.8281 H   0  0  0  0  0  0  0  0  0  0  0  0
   -4.5486   16.0545  -34.7844 H   0  0  0  0  0  0  0  0  0  0  0  0
   -2.8122   17.8111  -34.9760 H   0  0  0  0  0  0  0  0  0  0  0  0
   -3.2772   20.1209  -34.2118 H   0  0  0  0  0  0  0  0  0  0  0  0
  1  2  1  0
  2  3  1  0
  3  4  1  0
  3  5  1  0
  5  6  1  0
  6  7  1  0
  7  8  1  0
  8  9  1  0
  9 10  2  0
 10 11  1  0
 11 12  2  0
 12 13  1  0
 13 14  2  0
 14 15  1  0
 15 16  2  0
 16 17  1  0
 16 18  1  0
 18 19  2  0
 19 20  1  0
 20 21  1  0
 19 22  1  0
 22 23  2  0
 23 24  1  0
 24 25  2  0
 25  9  1  0
 15 10  1  0
 25 18  1  0
  1 26  1  0
  1 27  1  0
  1 28  1  0
  2 29  1  0
  2 30  1  0
  4 31  1  0
  4 32  1  0
  4 33  1  0
  5 34  1  0
  5 35  1  0
  6 36  1  0
  6 37  1  0
  7 38  1  0
  7 39  1  0
  8 40  1  0
  8 41  1  0
 11 42  1  0
 12 43  1  0
 13 44  1  0
 14 45  1  0
 17 46  1  0
 17 47  1  0
 17 48  1  0
 21 49  1  0
 21 50  1  0
 21 51  1  0
 22 52  1  0
 23 53  1  0
 24 54  1  0
M  CHG  2   8   1  16   1
M  END
>  <UniqueID>  (31) 
31

>  <SMILES>  (31) 
CCN(C)CCC[NH2+]c1c2ccccc2[n+](C)c2c(OC)cccc12

>  <Energy>  (31) 
85.16659297134844

>  <Genealogy>  (31) 
CCN(C)CCC[NH2+]c1c2ccccc2[n+](C)c2c(OC)cccc12 (protonated)
CCN(C)CCC[NH2+]c1c2ccccc2[n+](C)c2c(OC)cccc12 (3D coordinates assigned)
CCN(C)CCC[NH2+]c1c2ccccc2[n+](C)c2c(OC)cccc12 (optimized conformer: 85.16659297134844 kcal/mol)

>  <smiles>  (31) 
CCN(C)CCCNc1c2ccccc2[n+](C)c2c(OC)cccc12

>  <score_type>  (31) 
oracle

>  <origin>  (31) 
adg

>  <m_score__min__energy>  (31) 
-7.1900000000000004

>  <m_primary>  (31) 
energy

$$$$
31:0
     RDKit          3D

 21 21  0  0  0  0  0  0  0  0999 V2000
   -4.0360   25.4970  -30.5790 N   0  0  0  0  0  0  0  0  0  0  0  0
   -5.2340   24.9040  -29.9920 C   0  0  0  0  0  0  0  0  0  0  0  0
   -5.7860   23.8230  -30.8750 C   0  0  0  0  0  0  0  0  0  0  0  0
   -5.4840   23.8080  -32.0990 O   0  0  0  0  0  0  0  0  0  0  0  0
   -6.6520   22.8190  -30.3240 N   0  0  0  0  0  0  0  0  0  0  0  0
   -7.3640   21.8630  -31.1240 C   0  0  0  0  0  0  0  0  0  0  0  0
   -8.7680   21.8820  -31.1290 C   0  0  0  0  0  0  0  0  0  0  0  0
   -9.4850   20.9710  -31.9100 C   0  0  0  0  0  0  0  0  0  0  0  0
   -8.8070   20.0450  -32.7050 C   0  0  0  0  0  0  0  0  0  0  0  0
   -7.4090   20.0340  -32.7290 C   0  0  0  0  0  0  0  0  0  0  0  0
   -6.7560   19.1490  -33.5210 F   0  0  0  0  0  0  0  0  0  0  0  0
   -6.6860   20.9430  -31.9480 C   0  0  0  0  0  0  0  0  0  0  0  0
   -5.3310   20.9580  -32.0360 F   0  0  0  0  0  0  0  0  0  0  0  0
   -4.1940   25.6310  -31.6040 H   0  0  0  0  0  0  0  0  0  0  0  0
   -3.8850   26.4420  -30.1560 H   0  0  0  0  0  0  0  0  0  0  0  0
   -4.9794   24.4734  -29.0123 H   0  0  0  0  0  0  0  0  0  0  0  0
   -5.9960   25.6895  -29.8810 H   0  0  0  0  0  0  0  0  0  0  0  0
   -6.6660   22.6990  -29.2860 H   0  0  0  0  0  0  0  0  0  0  0  0
   -9.3069   22.6182  -30.5146 H   0  0  0  0  0  0  0  0  0  0  0  0
  -10.5849   20.9837  -31.8982 H   0  0  0  0  0  0  0  0  0  0  0  0
   -9.3729   19.3237  -33.3128 H   0  0  0  0  0  0  0  0  0  0  0  0
  1  2  1  0
  2  3  1  0
  3  4  2  0
  3  5  1  0
  5  6  1  0
  6  7  2  0
  7  8  1  0
  8  9  2  0
  9 10  1  0
 10 11  1  0
 10 12  2  0
 12 13  1  0
 12  6  1  0
  1 14  1  0
  1 15  1  0
  2 16  1  0
  2 17  1  0
  5 18  1  0
  7 19  1  0
  8 20  1  0
  9 21  1  0
M  END
>  <UniqueID>  (32) 
32

>  <SMILES>  (32) 
NCC(=O)Nc1cccc(F)c1F

>  <Energy>  (32) 
21.8333569578327

>  <Genealogy>  (32) 
NCC(=O)Nc1cccc(F)c1F (3D coordinates assigned)
NCC(=O)Nc1cccc(F)c1F (optimized conformer: 21.8333569578327 kcal/mol)

>  <smiles>  (32) 
NCC(=O)Nc1cccc(F)c1F

>  <score_type>  (32) 
oracle

>  <origin>  (32) 
adg

>  <m_score__min__energy>  (32) 
-6.0199999999999996

>  <m_primary>  (32) 
energy

$$$$
32:0
     RDKit          3D

 74 77  0  0  0  0  0  0  0  0999 V2000
   -7.6360   22.6620  -31.0350 C   0  0  0  0  0  0  0  0  0  0  0  0
   -6.9720   23.1310  -32.3270 C   0  0  0  0  0  0  0  0  0  0  0  0
   -5.9570   24.1560  -32.0420 N   0  0  0  0  0  0  0  0  0  0  0  0
   -6.2210   24.8300  -30.7640 C   0  0  0  0  0  0  0  0  0  0  0  0
   -5.0070   25.6730  -30.3640 C   0  0  0  0  0  0  0  0  0  0  0  0
   -3.7970   24.9290  -30.5110 O   0  0  0  0  0  0  0  0  0  0  0  0
   -3.3440   23.8550  -29.7180 C   0  0  0  0  0  0  0  0  0  0  0  0
   -2.5920   24.1960  -28.5870 C   0  0  0  0  0  0  0  0  0  0  0  0
   -2.0770   23.2100  -27.7310 C   0  0  0  0  0  0  0  0  0  0  0  0
   -1.3160   23.5400  -26.5920 C   0  0  0  0  0  0  0  0  0  0  0  0
   -1.0280   24.9080  -26.2700 N   0  0  0  0  0  0  0  0  0  0  0  0
   -1.2440   25.3820  -24.9040 C   0  0  0  0  0  0  0  0  0  0  0  0
   -1.6020   26.8730  -24.9200 C   0  0  0  0  0  0  0  0  0  0  0  0
   -0.6560   27.6760  -25.7250 N   0  0  0  0  0  0  0  0  0  0  0  0
    0.6470   27.8490  -25.0610 C   0  0  0  0  0  0  0  0  0  0  0  0
   -0.5260   27.1630  -27.1050 C   0  0  0  0  0  0  0  0  0  0  0  0
   -0.1500   25.6750  -27.1510 C   0  0  0  0  0  0  0  0  0  0  0  0
   -0.8280   22.5190  -25.7690 C   0  0  0  0  0  0  0  0  0  0  0  0
   -1.0900   21.1890  -26.0900 C   0  0  0  0  0  0  0  0  0  0  0  0
   -1.8180   20.8790  -27.1970 N   0  0  0  0  0  0  0  0  0  0  0  0
   -2.3170   21.8500  -28.0180 C   0  0  0  0  0  0  0  0  0  0  0  0
   -3.0750   21.5030  -29.1420 C   0  0  0  0  0  0  0  0  0  0  0  0
   -3.6230   22.4890  -29.9790 C   0  0  0  0  0  0  0  0  0  0  0  0
   -4.4280   22.0990  -31.0980 N   0  0  0  0  0  0  0  0  0  0  0  0
   -3.9640   21.5820  -32.3530 C   0  0  0  0  0  0  0  0  0  0  0  0
   -4.1140   22.2830  -33.3890 O   0  0  0  0  0  0  0  0  0  0  0  0
   -3.4040   20.1910  -32.4890 C   0  0  0  0  0  0  0  0  0  0  0  0
   -3.9320   19.4950  -33.7540 C   0  0  0  0  0  0  0  0  0  0  0  0
   -5.1180   18.6620  -33.4530 N   0  0  0  0  0  0  0  0  0  0  0  0
   -5.3530   18.5560  -31.9870 C   0  0  0  0  0  0  0  0  0  0  0  0
   -6.8140   18.2310  -31.6530 C   0  0  0  0  0  0  0  0  0  0  0  0
   -7.7500   19.3430  -32.1530 C   0  0  0  0  0  0  0  0  0  0  0  0
   -7.2150   20.0460  -33.4130 C   0  0  0  0  0  0  0  0  0  0  0  0
   -6.3080   19.1110  -34.2250 C   0  0  0  0  0  0  0  0  0  0  0  0
   -7.0785   23.0558  -30.1723 H   0  0  0  0  0  0  0  0  0  0  0  0
   -8.6721   23.0297  -31.0008 H   0  0  0  0  0  0  0  0  0  0  0  0
   -7.6358   21.5625  -31.0008 H   0  0  0  0  0  0  0  0  0  0  0  0
   -6.4914   22.2727  -32.8192 H   0  0  0  0  0  0  0  0  0  0  0  0
   -7.7400   23.5642  -32.9847 H   0  0  0  0  0  0  0  0  0  0  0  0
   -5.0320   23.6740  -31.9610 H   0  0  0  0  0  0  0  0  0  0  0  0
   -7.1003   25.4825  -30.8696 H   0  0  0  0  0  0  0  0  0  0  0  0
   -6.4120   24.0752  -29.9870 H   0  0  0  0  0  0  0  0  0  0  0  0
   -4.9611   26.5651  -31.0060 H   0  0  0  0  0  0  0  0  0  0  0  0
   -5.1141   25.9632  -29.3084 H   0  0  0  0  0  0  0  0  0  0  0  0
   -2.4013   25.2564  -28.3653 H   0  0  0  0  0  0  0  0  0  0  0  0
   -2.0675   24.8140  -24.4466 H   0  0  0  0  0  0  0  0  0  0  0  0
   -0.3232   25.2367  -24.3201 H   0  0  0  0  0  0  0  0  0  0  0  0
   -2.6109   26.9886  -25.3428 H   0  0  0  0  0  0  0  0  0  0  0  0
   -1.5522   27.2390  -23.8839 H   0  0  0  0  0  0  0  0  0  0  0  0
    0.5079   27.8305  -23.9700 H   0  0  0  0  0  0  0  0  0  0  0  0
    1.3214   27.0325  -25.3585 H   0  0  0  0  0  0  0  0  0  0  0  0
    1.0850   28.8132  -25.3585 H   0  0  0  0  0  0  0  0  0  0  0  0
   -1.4867   27.2994  -27.6231 H   0  0  0  0  0  0  0  0  0  0  0  0
    0.2832   27.7255  -27.5937 H   0  0  0  0  0  0  0  0  0  0  0  0
   -0.2551   25.3048  -28.1815 H   0  0  0  0  0  0  0  0  0  0  0  0
    0.8906   25.5559  -26.8149 H   0  0  0  0  0  0  0  0  0  0  0  0
   -0.2401   22.7655  -24.8725 H   0  0  0  0  0  0  0  0  0  0  0  0
   -0.7062   20.3849  -25.4450 H   0  0  0  0  0  0  0  0  0  0  0  0
   -1.9960   19.8700  -27.4060 H   0  0  0  0  0  0  0  0  0  0  0  0
   -3.2444   20.4411  -29.3738 H   0  0  0  0  0  0  0  0  0  0  0  0
   -2.3070   20.2507  -32.5447 H   0  0  0  0  0  0  0  0  0  0  0  0
   -3.7190   19.6039  -31.6137 H   0  0  0  0  0  0  0  0  0  0  0  0
   -4.2095   20.2596  -34.4946 H   0  0  0  0  0  0  0  0  0  0  0  0
   -3.1394   18.8419  -34.1480 H   0  0  0  0  0  0  0  0  0  0  0  0
   -4.7121   17.7586  -31.5829 H   0  0  0  0  0  0  0  0  0  0  0  0
   -5.1141   19.5308  -31.5369 H   0  0  0  0  0  0  0  0  0  0  0  0
   -7.0915   17.2823  -32.1355 H   0  0  0  0  0  0  0  0  0  0  0  0
   -6.9157   18.1499  -30.5607 H   0  0  0  0  0  0  0  0  0  0  0  0
   -8.7297   18.9004  -32.3859 H   0  0  0  0  0  0  0  0  0  0  0  0
   -7.8245   20.0983  -31.3568 H   0  0  0  0  0  0  0  0  0  0  0  0
   -8.0644   20.3558  -34.0395 H   0  0  0  0  0  0  0  0  0  0  0  0
   -6.6252   20.9205  -33.1011 H   0  0  0  0  0  0  0  0  0  0  0  0
   -6.8896   18.2263  -34.5234 H   0  0  0  0  0  0  0  0  0  0  0  0
   -5.9475   19.6711  -35.1004 H   0  0  0  0  0  0  0  0  0  0  0  0
  1  2  1  0
  2  3  1  0
  3  4  1  0
  4  5  1  0
  5  6  1  0
  6  7  1  0
  7  8  2  0
  8  9  1  0
  9 10  2  0
 10 11  1  0
 11 12  1  0
 12 13  1  0
 13 14  1  0
 14 15  1  0
 14 16  1  0
 16 17  1  0
 10 18  1  0
 18 19  2  0
 19 20  1  0
 20 21  2  0
 21 22  1  0
 22 23  2  0
 23 24  1  0
 24 25  1  0
 25 26  2  0
 25 27  1  0
 27 28  1  0
 28 29  1  0
 29 30  1  0
 30 31  1  0
 31 32  1  0
 32 33  1  0
 33 34  1  0
 23  7  1  0
 34 29  1  0
 21  9  1  0
 17 11  1  0
  1 35  1  0
  1 36  1  0
  1 37  1  0
  2 38  1  0
  2 39  1  0
  3 40  1  0
  4 41  1  0
  4 42  1  0
  5 43  1  0
  5 44  1  0
  8 45  1  0
 12 46  1  0
 12 47  1  0
 13 48  1  0
 13 49  1  0
 15 50  1  0
 15 51  1  0
 15 52  1  0
 16 53  1  0
 16 54  1  0
 17 55  1  0
 17 56  1  0
 18 57  1  0
 19 58  1  0
 20 59  1  0
 22 60  1  0
 27 61  1  0
 27 62  1  0
 28 63  1  0
 28 64  1  0
 30 65  1  0
 30 66  1  0
 31 67  1  0
 31 68  1  0
 32 69  1  0
 32 70  1  0
 33 71  1  0
 33 72  1  0
 34 73  1  0
 34 74  1  0
M  CHG  2  20   1  24  -1
M  END
>  <UniqueID>  (33) 
33

>  <SMILES>  (33) 
CCNCCOc1cc2c(N3CCN(C)CC3)cc[nH+]c2cc1[N-]C(=O)CCN1CCCCC1

>  <Energy>  (33) 
95.83059945542324

>  <Genealogy>  (33) 
CCNCCOc1cc2c(N3CCN(C)CC3)cc[nH+]c2cc1[N-]C(=O)CCN1CCCCC1 (protonated)
CCNCCOc1cc2c(N3CCN(C)CC3)cc[nH+]c2cc1[N-]C(=O)CCN1CCCCC1 (3D coordinates assigned)
CCNCCOc1cc2c(N3CCN(C)CC3)cc[nH+]c2cc1[N-]C(=O)CCN1CCCCC1 (nonaromatic ring conformer: 95.83059945542324 kcal/mol)

>  <smiles>  (33) 
CCNCCOc1cc2c(N3CCN(C)CC3)ccnc2cc1NC(=O)CCN1CCCCC1

>  <score_type>  (33) 
oracle

>  <origin>  (33) 
adg

>  <m_score__min__energy>  (33) 
-10.85

>  <m_primary>  (33) 
energy

$$$$
33:0
     RDKit          3D

 36 38  0  0  0  0  0  0  0  0999 V2000
   -5.7670   18.5290  -34.9180 C   0  0  0  0  0  0  0  0  0  0  0  0
   -4.4600   17.7310  -34.8680 C   0  0  0  0  0  0  0  0  0  0  0  0
   -4.4240   16.7900  -33.7320 N   0  0  0  0  0  0  0  0  0  0  0  0
   -5.7600   16.5380  -33.1450 C   0  0  0  0  0  0  0  0  0  0  0  0
   -5.9610   17.2530  -31.7950 C   0  0  0  0  0  0  0  0  0  0  0  0
   -6.6730   18.5180  -31.9570 N   0  0  0  0  0  0  0  0  0  0  0  0
   -8.4270   18.5950  -32.2610 S   0  0  0  0  0  0  0  0  0  0  0  0
   -8.3270   20.3720  -32.0180 C   0  0  0  0  0  0  0  0  0  0  0  0
   -9.3900   21.2730  -32.0150 C   0  0  0  0  0  0  0  0  0  0  0  0
   -9.1250   22.6340  -31.7810 C   0  0  0  0  0  0  0  0  0  0  0  0
   -7.8070   23.0820  -31.5570 C   0  0  0  0  0  0  0  0  0  0  0  0
   -6.7330   22.1640  -31.5780 C   0  0  0  0  0  0  0  0  0  0  0  0
   -5.3730   22.5020  -31.3490 C   0  0  0  0  0  0  0  0  0  0  0  0
   -4.9510   23.8640  -31.1790 N   0  0  0  0  0  0  0  0  0  0  0  0
   -3.7740   24.1170  -30.8480 O   0  0  0  0  0  0  0  0  0  0  0  0
   -5.7540   24.8950  -31.6080 O   0  0  0  0  0  0  0  0  0  0  0  0
   -4.4060   21.4640  -31.3080 C   0  0  0  0  0  0  0  0  0  0  0  0
   -4.7700   20.1230  -31.5160 C   0  0  0  0  0  0  0  0  0  0  0  0
   -6.1120   19.8190  -31.7630 C   0  0  0  0  0  0  0  0  0  0  0  0
   -7.0460   20.8160  -31.7950 C   0  0  0  0  0  0  0  0  0  0  0  0
   -6.1087   18.7376  -33.8934 H   0  0  0  0  0  0  0  0  0  0  0  0
   -5.5973   19.4777  -35.4482 H   0  0  0  0  0  0  0  0  0  0  0  0
   -6.5334   17.9446  -35.4482 H   0  0  0  0  0  0  0  0  0  0  0  0
   -4.3570   17.1612  -35.8033 H   0  0  0  0  0  0  0  0  0  0  0  0
   -3.6332   18.4453  -34.7409 H   0  0  0  0  0  0  0  0  0  0  0  0
   -4.0120   15.8820  -34.0490 H   0  0  0  0  0  0  0  0  0  0  0  0
   -3.7720   17.1700  -33.0060 H   0  0  0  0  0  0  0  0  0  0  0  0
   -6.5265   16.8938  -33.8492 H   0  0  0  0  0  0  0  0  0  0  0  0
   -5.8446   15.4563  -32.9638 H   0  0  0  0  0  0  0  0  0  0  0  0
   -6.5421   16.5993  -31.1279 H   0  0  0  0  0  0  0  0  0  0  0  0
   -4.9700   17.4682  -31.3689 H   0  0  0  0  0  0  0  0  0  0  0  0
  -10.4185   20.9256  -32.1926 H   0  0  0  0  0  0  0  0  0  0  0  0
   -9.9544   23.3565  -31.7726 H   0  0  0  0  0  0  0  0  0  0  0  0
   -7.6145   24.1480  -31.3656 H   0  0  0  0  0  0  0  0  0  0  0  0
   -3.3532   21.7137  -31.1099 H   0  0  0  0  0  0  0  0  0  0  0  0
   -4.0123   19.3262  -31.4850 H   0  0  0  0  0  0  0  0  0  0  0  0
  1  2  1  0
  2  3  1  0
  3  4  1  0
  4  5  1  0
  5  6  1  0
  6  7  1  0
  7  8  1  0
  8  9  2  0
  9 10  1  0
 10 11  2  0
 11 12  1  0
 12 13  2  0
 13 14  1  0
 14 15  2  0
 14 16  1  0
 13 17  1  0
 17 18  2  0
 18 19  1  0
 19 20  2  0
 19  6  1  0
 20  8  1  0
 20 12  1  0
  1 21  1  0
  1 22  1  0
  1 23  1  0
  2 24  1  0
  2 25  1  0
  3 26  1  0
  3 27  1  0
  4 28  1  0
  4 29  1  0
  5 30  1  0
  5 31  1  0
  9 32  1  0
 10 33  1  0
 11 34  1  0
 17 35  1  0
 18 36  1  0
M  CHG  3   3   1  14   1  16  -1
M  END
>  <UniqueID>  (34) 
34

>  <SMILES>  (34) 
CC[NH2+]CCN1Sc2cccc3c([N+](=O)[O-])ccc1c23

>  <Energy>  (34) 
68.19001918054369

>  <Genealogy>  (34) 
CC[NH2+]CCN1Sc2cccc3c([N+](=O)[O-])ccc1c23 (protonated)
CC[NH2+]CCN1Sc2cccc3c([N+](=O)[O-])ccc1c23 (3D coordinates assigned)
CC[NH2+]CCN1Sc2cccc3c([N+](=O)[O-])ccc1c23 (nonaromatic ring conformer: 68.19001918054369 kcal/mol)

>  <smiles>  (34) 
CCNCCN1Sc2cccc3c([N+](=O)[O-])ccc1c23

>  <score_type>  (34) 
oracle

>  <origin>  (34) 
adg

>  <m_score__min__energy>  (34) 
-7.2999999999999998

>  <m_primary>  (34) 
energy

$$$$
