0:0
     RDKit          3D

 46 47  0  0  0  0  0  0  0  0999 V2000
   -1.5410   26.2370  -26.3000 C   0  0  0  0  0  0  0  0  0  0  0  0
   -0.8190   26.4210  -27.5960 C   0  0  0  0  0  0  0  0  0  0  0  0
   -0.4830   25.1710  -28.2630 N   0  0  0  0  0  0  0  0  0  0  0  0
    0.5770   24.5550  -27.5300 C   0  0  0  0  0  0  0  0  0  0  0  0
    0.2030   23.3360  -26.7480 C   0  0  0  0  0  0  0  0  0  0  0  0
   -1.6570   24.3320  -28.3930 C   0  0  0  0  0  0  0  0  0  0  0  0
   -1.7180   23.7890  -29.7120 N   0  0  0  0  0  0  0  0  0  0  0  0
   -0.9860   22.5130  -29.8050 C   0  0  0  0  0  0  0  0  0  0  0  0
   -1.6040   21.7400  -30.9510 C   0  0  0  0  0  0  0  0  0  0  0  0
   -2.4910   22.5670  -31.6990 O   0  0  0  0  0  0  0  0  0  0  0  0
   -3.7500   22.0530  -31.9730 C   0  0  0  0  0  0  0  0  0  0  0  0
   -3.9430   21.0040  -32.8600 C   0  0  0  0  0  0  0  0  0  0  0  0
   -5.2200   20.5410  -33.0900 C   0  0  0  0  0  0  0  0  0  0  0  0
   -6.2890   21.1260  -32.4360 C   0  0  0  0  0  0  0  0  0  0  0  0
   -7.5790   20.6990  -32.6330 C   0  0  0  0  0  0  0  0  0  0  0  0
   -8.6560   21.2680  -31.9910 C   0  0  0  0  0  0  0  0  0  0  0  0
   -8.4310   22.3060  -31.1170 C   0  0  0  0  0  0  0  0  0  0  0  0
   -7.1430   22.7820  -30.8780 C   0  0  0  0  0  0  0  0  0  0  0  0
   -6.0980   22.1750  -31.5480 C   0  0  0  0  0  0  0  0  0  0  0  0
   -4.8240   22.6520  -31.3060 C   0  0  0  0  0  0  0  0  0  0  0  0
   -4.5850   23.7290  -30.4010 N   0  0  0  0  0  0  0  0  0  0  0  0
   -4.2470   24.8620  -30.8320 O   0  0  0  0  0  0  0  0  0  0  0  0
   -4.7050   23.5950  -29.0370 O   0  0  0  0  0  0  0  0  0  0  0  0
   -0.8468   26.4139  -25.4652 H   0  0  0  0  0  0  0  0  0  0  0  0
   -2.3755   26.9512  -26.2406 H   0  0  0  0  0  0  0  0  0  0  0  0
   -1.9319   25.2105  -26.2406 H   0  0  0  0  0  0  0  0  0  0  0  0
   -1.4581   27.0122  -28.2684 H   0  0  0  0  0  0  0  0  0  0  0  0
    0.1302   26.9269  -27.3655 H   0  0  0  0  0  0  0  0  0  0  0  0
    1.3615   24.2693  -28.2462 H   0  0  0  0  0  0  0  0  0  0  0  0
    0.8999   25.2997  -26.7876 H   0  0  0  0  0  0  0  0  0  0  0  0
    0.2704   23.5555  -25.6722 H   0  0  0  0  0  0  0  0  0  0  0  0
   -0.8268   23.0414  -26.9983 H   0  0  0  0  0  0  0  0  0  0  0  0
    0.8904   22.5146  -26.9983 H   0  0  0  0  0  0  0  0  0  0  0  0
   -1.6026   23.5116  -27.6622 H   0  0  0  0  0  0  0  0  0  0  0  0
   -2.5577   24.9351  -28.2058 H   0  0  0  0  0  0  0  0  0  0  0  0
   -2.7120   23.5420  -29.9730 H   0  0  0  0  0  0  0  0  0  0  0  0
    0.0793   22.7007  -30.0050 H   0  0  0  0  0  0  0  0  0  0  0  0
   -1.0544   21.9478  -28.8638 H   0  0  0  0  0  0  0  0  0  0  0  0
   -0.8046   21.3768  -31.6136 H   0  0  0  0  0  0  0  0  0  0  0  0
   -2.1738   20.8940  -30.5390 H   0  0  0  0  0  0  0  0  0  0  0  0
   -3.0851   20.5465  -33.3745 H   0  0  0  0  0  0  0  0  0  0  0  0
   -5.3886   19.7099  -33.7906 H   0  0  0  0  0  0  0  0  0  0  0  0
   -7.7593   19.8689  -33.3319 H   0  0  0  0  0  0  0  0  0  0  0  0
   -9.6763   20.8997  -32.1735 H   0  0  0  0  0  0  0  0  0  0  0  0
   -9.2829   22.7688  -30.5973 H   0  0  0  0  0  0  0  0  0  0  0  0
   -6.9644   23.6128  -30.1796 H   0  0  0  0  0  0  0  0  0  0  0  0
  1  2  1  0
  2  3  1  0
  3  4  1  0
  4  5  1  0
  3  6  1  0
  6  7  1  0
  7  8  1  0
  8  9  1  0
  9 10  1  0
 10 11  1  0
 11 12  2  0
 12 13  1  0
 13 14  2  0
 14 15  1  0
 15 16  2  0
 16 17  1  0
 17 18  2  0
 18 19  1  0
 19 20  2  0
 20 21  1  0
 21 22  2  0
 21 23  1  0
 20 11  1  0
 19 14  1  0
  1 24  1  0
  1 25  1  0
  1 26  1  0
  2 27  1  0
  2 28  1  0
  4 29  1  0
  4 30  1  0
  5 31  1  0
  5 32  1  0
  5 33  1  0
  6 34  1  0
  6 35  1  0
  7 36  1  0
  8 37  1  0
  8 38  1  0
  9 39  1  0
  9 40  1  0
 12 41  1  0
 13 42  1  0
 15 43  1  0
 16 44  1  0
 17 45  1  0
 18 46  1  0
M  CHG  2  21   1  23  -1
M  END
>  <smiles>  (1) 
CCN(CC)CNCCOc1ccc2ccccc2c1[N+](=O)[O-]

>  <score_type>  (1) 
oracle

>  <origin>  (1) 
adg

>  <m_score__min__energy>  (1) 
-7.21

>  <m_primary>  (1) 
energy

$$$$
1:0
     RDKit          3D

 65 67  0  0  0  0  0  0  0  0999 V2000
   -0.1950   24.4680  -27.9880 C   0  0  0  0  0  0  0  0  0  0  0  0
   -0.9630   24.5780  -26.7220 C   0  0  0  0  0  0  0  0  0  0  0  0
   -2.0290   25.5550  -26.6920 N   0  0  0  0  0  0  0  0  0  0  0  0
   -1.6040   26.6560  -25.9300 C   0  0  0  0  0  0  0  0  0  0  0  0
   -1.2010   26.3720  -24.5020 C   0  0  0  0  0  0  0  0  0  0  0  0
   -3.2620   24.9370  -26.4740 C   0  0  0  0  0  0  0  0  0  0  0  0
   -3.9680   24.2260  -27.5420 C   0  0  0  0  0  0  0  0  0  0  0  0
   -3.2060   24.2980  -28.7590 O   0  0  0  0  0  0  0  0  0  0  0  0
   -3.1100   23.0120  -29.2840 C   0  0  0  0  0  0  0  0  0  0  0  0
   -2.1220   22.8510  -30.3990 C   0  0  0  0  0  0  0  0  0  0  0  0
   -1.3190   21.7530  -30.2810 O   0  0  0  0  0  0  0  0  0  0  0  0
   -1.3460   20.8990  -31.2480 N   0  0  0  0  0  0  0  0  0  0  0  0
   -2.5410   20.4740  -31.8680 C   0  0  0  0  0  0  0  0  0  0  0  0
   -2.7610   21.0670  -33.2340 C   0  0  0  0  0  0  0  0  0  0  0  0
   -4.1150   21.4660  -33.5260 N   0  0  0  0  0  0  0  0  0  0  0  0
   -5.2730   20.8110  -33.0540 C   0  0  0  0  0  0  0  0  0  0  0  0
   -5.6920   19.5550  -33.3620 C   0  0  0  0  0  0  0  0  0  0  0  0
   -4.9630   18.8200  -34.2570 C   0  0  0  0  0  0  0  0  0  0  0  0
   -5.3240   17.5480  -34.6260 C   0  0  0  0  0  0  0  0  0  0  0  0
   -6.4660   17.0060  -34.0720 C   0  0  0  0  0  0  0  0  0  0  0  0
   -7.2020   17.7430  -33.1730 C   0  0  0  0  0  0  0  0  0  0  0  0
   -6.8510   19.0300  -32.7860 C   0  0  0  0  0  0  0  0  0  0  0  0
   -7.6010   19.7360  -31.9060 N   0  0  0  0  0  0  0  0  0  0  0  0
   -8.7810   19.1380  -31.3290 C   0  0  0  0  0  0  0  0  0  0  0  0
   -7.2000   20.9850  -31.5900 C   0  0  0  0  0  0  0  0  0  0  0  0
   -7.9040   21.7820  -30.7070 C   0  0  0  0  0  0  0  0  0  0  0  0
   -7.5200   23.0590  -30.3670 C   0  0  0  0  0  0  0  0  0  0  0  0
   -6.3780   23.5920  -30.9250 C   0  0  0  0  0  0  0  0  0  0  0  0
   -5.7480   25.3440  -30.5420 Br  0  0  0  0  0  0  0  0  0  0  0  0
   -5.6570   22.8260  -31.8060 C   0  0  0  0  0  0  0  0  0  0  0  0
   -6.0550   21.5390  -32.1410 C   0  0  0  0  0  0  0  0  0  0  0  0
    0.8700   24.3155  -27.7587 H   0  0  0  0  0  0  0  0  0  0  0  0
   -0.5703   23.6144  -28.5716 H   0  0  0  0  0  0  0  0  0  0  0  0
   -0.3157   25.3926  -28.5716 H   0  0  0  0  0  0  0  0  0  0  0  0
   -1.4074   23.5933  -26.5151 H   0  0  0  0  0  0  0  0  0  0  0  0
   -0.2356   24.9206  -25.9713 H   0  0  0  0  0  0  0  0  0  0  0  0
   -0.7366   27.1006  -26.4399 H   0  0  0  0  0  0  0  0  0  0  0  0
   -2.4805   27.3169  -25.8592 H   0  0  0  0  0  0  0  0  0  0  0  0
   -1.9045   26.8678  -23.8170 H   0  0  0  0  0  0  0  0  0  0  0  0
   -1.2199   25.2866  -24.3246 H   0  0  0  0  0  0  0  0  0  0  0  0
   -0.1852   26.7549  -24.3246 H   0  0  0  0  0  0  0  0  0  0  0  0
   -3.1026   24.2051  -25.6685 H   0  0  0  0  0  0  0  0  0  0  0  0
   -3.9238   25.7958  -26.2883 H   0  0  0  0  0  0  0  0  0  0  0  0
   -4.0994   23.1723  -27.2548 H   0  0  0  0  0  0  0  0  0  0  0  0
   -4.9520   24.6915  -27.7006 H   0  0  0  0  0  0  0  0  0  0  0  0
   -2.8179   22.3327  -28.4696 H   0  0  0  0  0  0  0  0  0  0  0  0
   -4.0962   22.7831  -29.7141 H   0  0  0  0  0  0  0  0  0  0  0  0
   -2.6787   22.7713  -31.3444 H   0  0  0  0  0  0  0  0  0  0  0  0
   -1.4620   23.7304  -30.3660 H   0  0  0  0  0  0  0  0  0  0  0  0
   -0.4990   20.6320  -31.7430 H   0  0  0  0  0  0  0  0  0  0  0  0
   -2.5102   19.3788  -31.9662 H   0  0  0  0  0  0  0  0  0  0  0  0
   -3.3710   20.8166  -31.2326 H   0  0  0  0  0  0  0  0  0  0  0  0
   -2.1186   21.9553  -33.3254 H   0  0  0  0  0  0  0  0  0  0  0  0
   -2.5194   20.2696  -33.9522 H   0  0  0  0  0  0  0  0  0  0  0  0
   -4.2990   22.3180  -34.1450 H   0  0  0  0  0  0  0  0  0  0  0  0
   -4.0570   19.2635  -34.6956 H   0  0  0  0  0  0  0  0  0  0  0  0
   -4.7189   16.9756  -35.3445 H   0  0  0  0  0  0  0  0  0  0  0  0
   -6.7860   15.9903  -34.3477 H   0  0  0  0  0  0  0  0  0  0  0  0
   -8.1084   17.2931  -32.7417 H   0  0  0  0  0  0  0  0  0  0  0  0
   -8.7109   19.1735  -30.2318 H   0  0  0  0  0  0  0  0  0  0  0  0
   -9.6717   19.6935  -31.6577 H   0  0  0  0  0  0  0  0  0  0  0  0
   -8.8597   18.0912  -31.6577 H   0  0  0  0  0  0  0  0  0  0  0  0
   -8.8189   21.3743  -30.2524 H   0  0  0  0  0  0  0  0  0  0  0  0
   -8.1186   23.6485  -29.6569 H   0  0  0  0  0  0  0  0  0  0  0  0
   -4.7434   23.2409  -32.2568 H   0  0  0  0  0  0  0  0  0  0  0  0
  1  2  1  0
  2  3  1  0
  3  4  1  0
  4  5  1  0
  3  6  1  0
  6  7  1  0
  7  8  1  0
  8  9  1  0
  9 10  1  0
 10 11  1  0
 11 12  1  0
 12 13  1  0
 13 14  1  0
 14 15  1  0
 15 16  1  0
 16 17  2  0
 17 18  1  0
 18 19  2  0
 19 20  1  0
 20 21  2  0
 21 22  1  0
 22 23  2  0
 23 24  1  0
 23 25  1  0
 25 26  2  0
 26 27  1  0
 27 28  2  0
 28 29  1  0
 28 30  1  0
 30 31  2  0
 31 16  1  0
 22 17  1  0
 31 25  1  0
  1 32  1  0
  1 33  1  0
  1 34  1  0
  2 35  1  0
  2 36  1  0
  4 37  1  0
  4 38  1  0
  5 39  1  0
  5 40  1  0
  5 41  1  0
  6 42  1  0
  6 43  1  0
  7 44  1  0
  7 45  1  0
  9 46  1  0
  9 47  1  0
 10 48  1  0
 10 49  1  0
 12 50  1  0
 13 51  1  0
 13 52  1  0
 14 53  1  0
 14 54  1  0
 15 55  1  0
 18 56  1  0
 19 57  1  0
 20 58  1  0
 21 59  1  0
 24 60  1  0
 24 61  1  0
 24 62  1  0
 26 63  1  0
 27 64  1  0
 30 65  1  0
M  CHG  1  23   1
M  END
>  <smiles>  (2) 
CCN(CC)CCOCCONCCNc1c2ccccc2[n+](C)c2ccc(Br)cc12

>  <score_type>  (2) 
oracle

>  <origin>  (2) 
adg

>  <m_score__min__energy>  (2) 
-10.27

>  <m_primary>  (2) 
energy

$$$$
2:0
     RDKit          3D

 48 51  0  0  0  0  0  0  0  0999 V2000
   -4.0190   13.3750  -33.6320 C   0  0  0  0  0  0  0  0  0  0  0  0
   -4.5760   14.6990  -33.3350 C   0  0  0  0  0  0  0  0  0  0  0  0
   -4.9700   15.1170  -32.0790 C   0  0  0  0  0  0  0  0  0  0  0  0
   -5.4770   16.3590  -31.8750 N   0  0  0  0  0  0  0  0  0  0  0  0
   -5.6340   17.2650  -32.8640 C   0  0  0  0  0  0  0  0  0  0  0  0
   -6.1830   18.5770  -32.5590 C   0  0  0  0  0  0  0  0  0  0  0  0
   -7.5260   18.8750  -32.5830 C   0  0  0  0  0  0  0  0  0  0  0  0
   -8.0340   20.1250  -32.2960 C   0  0  0  0  0  0  0  0  0  0  0  0
   -9.4950   20.3930  -32.3370 C   0  0  0  0  0  0  0  0  0  0  0  0
   -7.1460   21.0830  -31.9800 N   0  0  0  0  0  0  0  0  0  0  0  0
   -5.8100   20.8830  -31.9310 C   0  0  0  0  0  0  0  0  0  0  0  0
   -4.9640   21.9750  -31.5830 N   0  0  0  0  0  0  0  0  0  0  0  0
   -5.4880   23.3130  -31.7660 C   0  0  0  0  0  0  0  0  0  0  0  0
   -5.3510   24.1460  -30.5080 C   0  0  0  0  0  0  0  0  0  0  0  0
   -3.9550   24.0700  -30.0520 C   0  0  0  0  0  0  0  0  0  0  0  0
   -3.1910   24.9300  -29.3570 N   0  0  0  0  0  0  0  0  0  0  0  0
   -1.9820   24.4380  -29.1730 N   0  0  0  0  0  0  0  0  0  0  0  0
   -0.9450   25.1550  -28.4530 C   0  0  0  0  0  0  0  0  0  0  0  0
   -1.9310   23.2240  -29.7560 C   0  0  0  0  0  0  0  0  0  0  0  0
   -3.1640   22.9710  -30.3150 C   0  0  0  0  0  0  0  0  0  0  0  0
   -3.6430   21.7850  -31.0700 C   0  0  0  0  0  0  0  0  0  0  0  0
   -5.3290   19.6240  -32.2210 C   0  0  0  0  0  0  0  0  0  0  0  0
   -5.2470   16.8690  -34.1260 C   0  0  0  0  0  0  0  0  0  0  0  0
   -5.3720   17.7960  -35.2820 C   0  0  0  0  0  0  0  0  0  0  0  0
   -4.7210   15.5960  -34.3660 C   0  0  0  0  0  0  0  0  0  0  0  0
   -3.7983   12.8505  -32.6906 H   0  0  0  0  0  0  0  0  0  0  0  0
   -4.7483   12.7925  -34.2140 H   0  0  0  0  0  0  0  0  0  0  0  0
   -3.0926   13.4891  -34.2140 H   0  0  0  0  0  0  0  0  0  0  0  0
   -4.8708   14.4289  -31.2265 H   0  0  0  0  0  0  0  0  0  0  0  0
   -8.2324   18.0736  -32.8451 H   0  0  0  0  0  0  0  0  0  0  0  0
   -9.8837   20.4643  -31.3104 H   0  0  0  0  0  0  0  0  0  0  0  0
   -9.6794   21.3400  -32.8655 H   0  0  0  0  0  0  0  0  0  0  0  0
  -10.0035   19.5731  -32.8655 H   0  0  0  0  0  0  0  0  0  0  0  0
   -4.9351   23.8039  -32.5805 H   0  0  0  0  0  0  0  0  0  0  0  0
   -6.5579   23.2318  -32.0084 H   0  0  0  0  0  0  0  0  0  0  0  0
   -5.6150   25.1918  -30.7241 H   0  0  0  0  0  0  0  0  0  0  0  0
   -6.0255   23.7654  -29.7268 H   0  0  0  0  0  0  0  0  0  0  0  0
   -1.1061   25.0436  -27.3706 H   0  0  0  0  0  0  0  0  0  0  0  0
    0.0392   24.7436  -28.7214 H   0  0  0  0  0  0  0  0  0  0  0  0
   -0.9824   26.2211  -28.7214 H   0  0  0  0  0  0  0  0  0  0  0  0
   -1.0590   22.5539  -29.7810 H   0  0  0  0  0  0  0  0  0  0  0  0
   -2.9587   21.5991  -31.9109 H   0  0  0  0  0  0  0  0  0  0  0  0
   -3.6662   20.9290  -30.3795 H   0  0  0  0  0  0  0  0  0  0  0  0
   -4.2448   19.4420  -32.1846 H   0  0  0  0  0  0  0  0  0  0  0  0
   -5.5106   18.8236  -34.9147 H   0  0  0  0  0  0  0  0  0  0  0  0
   -4.4589   17.7451  -35.8932 H   0  0  0  0  0  0  0  0  0  0  0  0
   -6.2390   17.5051  -35.8932 H   0  0  0  0  0  0  0  0  0  0  0  0
   -4.4217   15.3110  -35.3854 H   0  0  0  0  0  0  0  0  0  0  0  0
  1  2  1  0
  2  3  2  0
  3  4  1  0
  4  5  2  0
  5  6  1  0
  6  7  2  0
  7  8  1  0
  8  9  1  0
  8 10  2  0
 10 11  1  0
 11 12  1  0
 12 13  1  0
 13 14  1  0
 14 15  1  0
 15 16  2  0
 16 17  1  0
 17 18  1  0
 17 19  1  0
 19 20  2  0
 20 21  1  0
 11 22  2  0
  5 23  1  0
 23 24  1  0
 23 25  2  0
 25  2  1  0
 22  6  1  0
 21 12  1  0
 20 15  1  0
  1 26  1  0
  1 27  1  0
  1 28  1  0
  3 29  1  0
  7 30  1  0
  9 31  1  0
  9 32  1  0
  9 33  1  0
 13 34  1  0
 13 35  1  0
 14 36  1  0
 14 37  1  0
 18 38  1  0
 18 39  1  0
 18 40  1  0
 19 41  1  0
 21 42  1  0
 21 43  1  0
 22 44  1  0
 24 45  1  0
 24 46  1  0
 24 47  1  0
 25 48  1  0
M  END
>  <smiles>  (3) 
Cc1cnc(-c2cc(C)nc(N3CCc4nn(C)cc4C3)c2)c(C)c1

>  <score_type>  (3) 
oracle

>  <origin>  (3) 
adg

>  <m_score__min__energy>  (3) 
-8.4700000000000006

>  <m_primary>  (3) 
energy

$$$$
3:0
     RDKit          3D

 31 32  0  0  0  0  0  0  0  0999 V2000
   -6.8250   16.5190  -33.4340 C   0  0  0  0  0  0  0  0  0  0  0  0
   -6.2050   17.8840  -33.4190 C   0  0  0  0  0  0  0  0  0  0  0  0
   -4.9120   18.0490  -33.8790 C   0  0  0  0  0  0  0  0  0  0  0  0
   -4.3680   19.3230  -33.8530 C   0  0  0  0  0  0  0  0  0  0  0  0
   -5.1270   20.3910  -33.3700 C   0  0  0  0  0  0  0  0  0  0  0  0
   -6.4120   20.2230  -32.9130 C   0  0  0  0  0  0  0  0  0  0  0  0
   -7.4420   21.5310  -32.2990 S   0  0  0  0  0  0  0  0  0  0  0  0
   -7.5740   21.5980  -30.5160 C   0  0  0  0  0  0  0  0  0  0  0  0
   -7.6130   23.0130  -30.0260 C   0  0  0  0  0  0  0  0  0  0  0  0
   -6.2930   23.6980  -30.2020 C   0  0  0  0  0  0  0  0  0  0  0  0
   -6.2340   25.0710  -30.3060 C   0  0  0  0  0  0  0  0  0  0  0  0
   -5.0080   25.6850  -30.4680 C   0  0  0  0  0  0  0  0  0  0  0  0
   -3.8470   25.0080  -30.5320 N   0  0  0  0  0  0  0  0  0  0  0  0
   -3.8950   23.6550  -30.4310 C   0  0  0  0  0  0  0  0  0  0  0  0
   -5.1030   23.0030  -30.2680 C   0  0  0  0  0  0  0  0  0  0  0  0
   -6.9340   18.9520  -32.9470 C   0  0  0  0  0  0  0  0  0  0  0  0
   -8.5660   18.6500  -32.3830 Cl  0  0  0  0  0  0  0  0  0  0  0  0
   -6.9809   16.1757  -32.4006 H   0  0  0  0  0  0  0  0  0  0  0  0
   -7.7922   16.5613  -33.9562 H   0  0  0  0  0  0  0  0  0  0  0  0
   -6.1567   15.8185  -33.9562 H   0  0  0  0  0  0  0  0  0  0  0  0
   -4.3316   17.1935  -34.2549 H   0  0  0  0  0  0  0  0  0  0  0  0
   -3.3420   19.4925  -34.2115 H   0  0  0  0  0  0  0  0  0  0  0  0
   -4.6828   21.3972  -33.3549 H   0  0  0  0  0  0  0  0  0  0  0  0
   -8.4966   21.0857  -30.2055 H   0  0  0  0  0  0  0  0  0  0  0  0
   -6.6908   21.1050  -30.0837 H   0  0  0  0  0  0  0  0  0  0  0  0
   -8.3788   23.5647  -30.5910 H   0  0  0  0  0  0  0  0  0  0  0  0
   -7.8499   22.9970  -28.9519 H   0  0  0  0  0  0  0  0  0  0  0  0
   -7.1544   25.6716  -30.2604 H   0  0  0  0  0  0  0  0  0  0  0  0
   -4.9790   26.7817  -30.5487 H   0  0  0  0  0  0  0  0  0  0  0  0
   -2.9635   23.0719  -30.4793 H   0  0  0  0  0  0  0  0  0  0  0  0
   -5.1158   21.9059  -30.1892 H   0  0  0  0  0  0  0  0  0  0  0  0
  1  2  1  0
  2  3  2  0
  3  4  1  0
  4  5  2  0
  5  6  1  0
  6  7  1  0
  7  8  1  0
  8  9  1  0
  9 10  1  0
 10 11  2  0
 11 12  1  0
 12 13  2  0
 13 14  1  0
 14 15  2  0
  6 16  2  0
 16 17  1  0
 16  2  1  0
 15 10  1  0
  1 18  1  0
  1 19  1  0
  1 20  1  0
  3 21  1  0
  4 22  1  0
  5 23  1  0
  8 24  1  0
  8 25  1  0
  9 26  1  0
  9 27  1  0
 11 28  1  0
 12 29  1  0
 14 30  1  0
 15 31  1  0
M  END
>  <smiles>  (4) 
Cc1cccc(SCCc2ccncc2)c1Cl

>  <score_type>  (4) 
oracle

>  <origin>  (4) 
adg

>  <m_score__min__energy>  (4) 
-7.7199999999999998

>  <m_primary>  (4) 
energy

$$$$
4:0
     RDKit          3D

 36 39  0  0  1  0  0  0  0  0999 V2000
   -6.7150   26.0300  -29.0010 O   0  0  0  0  0  0  0  0  0  0  0  0
   -6.0320   25.2880  -29.7630 C   0  0  0  0  0  0  0  0  0  0  0  0
   -6.5090   24.9270  -31.0780 N   0  0  0  0  0  0  0  0  0  0  0  0
   -6.3810   23.7690  -31.5450 C   0  0  0  0  0  0  0  0  0  0  0  0
   -5.3680   22.9820  -31.8700 N   0  0  0  0  0  0  0  0  0  0  0  0
   -5.5480   21.7920  -32.3480 C   0  0  0  0  0  0  0  0  0  0  0  0
   -4.5590   20.8510  -32.7340 C   0  0  0  0  0  0  0  0  0  0  0  0
   -4.9240   19.6240  -33.2260 C   0  0  0  0  0  0  0  0  0  0  0  0
   -6.2290   19.2090  -33.3840 C   0  0  0  0  0  0  0  0  0  0  0  0
   -6.5840   18.0030  -33.8670 F   0  0  0  0  0  0  0  0  0  0  0  0
   -7.2070   20.1060  -33.0160 C   0  0  0  0  0  0  0  0  0  0  0  0
   -6.8280   21.3130  -32.5320 C   0  0  0  0  0  0  0  0  0  0  0  0
   -7.9100   22.7250  -31.9550 S   0  0  0  0  0  0  0  0  0  0  0  0
   -4.7110   24.7360  -29.3830 C   0  0  1  0  0  0  0  0  0  0  0  0
   -4.7690   23.2700  -28.9960 C   0  0  0  0  0  0  0  0  0  0  0  0
   -3.3510   22.8850  -29.3100 C   0  0  0  0  0  0  0  0  0  0  0  0
   -2.6090   21.7510  -28.7710 C   0  0  0  0  0  0  0  0  0  0  0  0
   -1.6290   21.1980  -29.5700 C   0  0  0  0  0  0  0  0  0  0  0  0
   -0.8700   20.1140  -29.1380 C   0  0  0  0  0  0  0  0  0  0  0  0
   -1.1300   19.6060  -27.8770 C   0  0  0  0  0  0  0  0  0  0  0  0
   -0.3770   18.5500  -27.4790 F   0  0  0  0  0  0  0  0  0  0  0  0
   -2.1110   20.1660  -27.0840 C   0  0  0  0  0  0  0  0  0  0  0  0
   -2.8650   21.2430  -27.5150 C   0  0  0  0  0  0  0  0  0  0  0  0
   -2.8680   23.7280  -30.1540 N   0  0  0  0  0  0  0  0  0  0  0  0
   -3.8180   24.6880  -30.4720 O   0  0  0  0  0  0  0  0  0  0  0  0
   -4.3670   23.3930  -31.7110 H   0  0  0  0  0  0  0  0  0  0  0  0
   -3.4935   21.1069  -32.6381 H   0  0  0  0  0  0  0  0  0  0  0  0
   -4.1238   18.9260  -33.5131 H   0  0  0  0  0  0  0  0  0  0  0  0
   -8.2719   19.8481  -33.1129 H   0  0  0  0  0  0  0  0  0  0  0  0
   -4.3975   25.3999  -28.5639 H   0  0  0  0  0  0  0  0  0  0  0  0
   -5.0065   23.1342  -27.9306 H   0  0  0  0  0  0  0  0  0  0  0  0
   -5.5430   22.6775  -29.5058 H   0  0  0  0  0  0  0  0  0  0  0  0
   -1.4440   21.6222  -30.5679 H   0  0  0  0  0  0  0  0  0  0  0  0
   -0.0896   19.6757  -29.7775 H   0  0  0  0  0  0  0  0  0  0  0  0
   -2.2980   19.7457  -26.0848 H   0  0  0  0  0  0  0  0  0  0  0  0
   -3.6452   21.6808  -26.8750 H   0  0  0  0  0  0  0  0  0  0  0  0
  1  2  2  0
  2  3  1  0
  3  4  2  0
  4  5  1  0
  5  6  1  0
  6  7  2  0
  7  8  1  0
  8  9  2  0
  9 10  1  0
  9 11  1  0
 11 12  2  0
 12 13  1  0
  2 14  1  0
 14 15  1  0
 15 16  1  0
 16 17  1  0
 17 18  2  0
 18 19  1  0
 19 20  2  0
 20 21  1  0
 20 22  1  0
 22 23  2  0
 16 24  2  0
 24 25  1  0
 13  4  1  0
 25 14  1  0
 12  6  1  0
 23 17  1  0
  5 26  1  0
  7 27  1  0
  8 28  1  0
 11 29  1  0
 14 30  1  1
 15 31  1  0
 15 32  1  0
 18 33  1  0
 19 34  1  0
 22 35  1  0
 23 36  1  0
M  END
>  <smiles>  (5) 
O=C(N=c1[nH]c2ccc(F)cc2s1)C1CC(c2ccc(F)cc2)=NO1

>  <score_type>  (5) 
oracle

>  <origin>  (5) 
adg

>  <m_score__min__energy>  (5) 
-9.4199999999999999

>  <m_primary>  (5) 
energy

$$$$
5:0
     RDKit          3D

 32 33  0  0  0  0  0  0  0  0999 V2000
   -3.5540   24.1560  -27.8450 C   0  0  0  0  0  0  0  0  0  0  0  0
   -2.7620   24.5340  -29.0600 C   0  0  0  0  0  0  0  0  0  0  0  0
   -3.5140   25.1450  -30.0790 O   0  0  0  0  0  0  0  0  0  0  0  0
   -4.7350   24.6250  -30.4470 C   0  0  0  0  0  0  0  0  0  0  0  0
   -4.7180   23.5020  -31.2650 C   0  0  0  0  0  0  0  0  0  0  0  0
   -5.8700   22.9030  -31.6890 C   0  0  0  0  0  0  0  0  0  0  0  0
   -7.0740   23.4310  -31.2920 C   0  0  0  0  0  0  0  0  0  0  0  0
   -8.5550   22.5970  -31.8840 S   0  0  0  0  0  0  0  0  0  0  0  0
   -8.1180   20.8730  -32.1020 C   0  0  0  0  0  0  0  0  0  0  0  0
   -8.7360   19.8610  -31.4000 C   0  0  0  0  0  0  0  0  0  0  0  0
   -8.3370   18.5450  -31.6270 C   0  0  0  0  0  0  0  0  0  0  0  0
   -7.3350   18.2550  -32.5490 C   0  0  0  0  0  0  0  0  0  0  0  0
   -6.7220   19.2730  -33.2490 C   0  0  0  0  0  0  0  0  0  0  0  0
   -5.6960   18.9760  -34.1920 N   0  0  0  0  0  0  0  0  0  0  0  0
   -4.5390   19.3910  -33.9870 O   0  0  0  0  0  0  0  0  0  0  0  0
   -5.9670   18.2300  -35.3350 O   0  0  0  0  0  0  0  0  0  0  0  0
   -7.1200   20.5830  -33.0200 C   0  0  0  0  0  0  0  0  0  0  0  0
   -7.1500   24.5510  -30.4750 C   0  0  0  0  0  0  0  0  0  0  0  0
   -5.9540   25.1160  -30.0750 C   0  0  0  0  0  0  0  0  0  0  0  0
   -2.9890   24.4257  -26.9405 H   0  0  0  0  0  0  0  0  0  0  0  0
   -4.5140   24.6930  -27.8514 H   0  0  0  0  0  0  0  0  0  0  0  0
   -3.7403   23.0719  -27.8514 H   0  0  0  0  0  0  0  0  0  0  0  0
   -1.9708   25.2328  -28.7507 H   0  0  0  0  0  0  0  0  0  0  0  0
   -2.3679   23.5971  -29.4807 H   0  0  0  0  0  0  0  0  0  0  0  0
   -3.7504   23.0839  -31.5797 H   0  0  0  0  0  0  0  0  0  0  0  0
   -5.8340   22.0144  -32.3363 H   0  0  0  0  0  0  0  0  0  0  0  0
   -9.5301   20.0878  -30.6734 H   0  0  0  0  0  0  0  0  0  0  0  0
   -8.8189   17.7268  -31.0718 H   0  0  0  0  0  0  0  0  0  0  0  0
   -7.0315   17.2115  -32.7196 H   0  0  0  0  0  0  0  0  0  0  0  0
   -6.6374   21.4017  -33.5740 H   0  0  0  0  0  0  0  0  0  0  0  0
   -8.1176   24.9693  -30.1606 H   0  0  0  0  0  0  0  0  0  0  0  0
   -5.9852   26.0036  -29.4260 H   0  0  0  0  0  0  0  0  0  0  0  0
  1  2  1  0
  2  3  1  0
  3  4  1  0
  4  5  2  0
  5  6  1  0
  6  7  2  0
  7  8  1  0
  8  9  1  0
  9 10  2  0
 10 11  1  0
 11 12  2  0
 12 13  1  0
 13 14  1  0
 14 15  2  0
 14 16  1  0
 13 17  2  0
  7 18  1  0
 18 19  2  0
 19  4  1  0
 17  9  1  0
  1 20  1  0
  1 21  1  0
  1 22  1  0
  2 23  1  0
  2 24  1  0
  5 25  1  0
  6 26  1  0
 10 27  1  0
 11 28  1  0
 12 29  1  0
 17 30  1  0
 18 31  1  0
 19 32  1  0
M  CHG  2  14   1  16  -1
M  END
>  <smiles>  (6) 
CCOc1ccc(Sc2cccc([N+](=O)[O-])c2)cc1

>  <score_type>  (6) 
oracle

>  <origin>  (6) 
adg

>  <m_score__min__energy>  (6) 
-8.4199999999999999

>  <m_primary>  (6) 
energy

$$$$
6:0
     RDKit          3D

 49 51  0  0  0  0  0  0  0  0999 V2000
   -4.5700   14.2400  -32.3180 C   0  0  0  0  0  0  0  0  0  0  0  0
   -5.2370   14.3080  -33.6750 C   0  0  0  0  0  0  0  0  0  0  0  0
   -4.8890   15.5680  -34.3350 N   0  0  0  0  0  0  0  0  0  0  0  0
   -5.2380   16.7850  -33.7090 C   0  0  0  0  0  0  0  0  0  0  0  0
   -4.2610   17.7760  -33.6350 C   0  0  0  0  0  0  0  0  0  0  0  0
   -4.6150   18.9550  -33.0230 C   0  0  0  0  0  0  0  0  0  0  0  0
   -5.8880   19.1190  -32.5160 C   0  0  0  0  0  0  0  0  0  0  0  0
   -6.8750   18.1560  -32.5740 C   0  0  0  0  0  0  0  0  0  0  0  0
   -6.5080   16.9590  -33.1990 C   0  0  0  0  0  0  0  0  0  0  0  0
   -8.2650   18.1690  -32.0780 C   0  0  0  0  0  0  0  0  0  0  0  0
   -9.0910   19.3410  -32.4540 C   0  0  0  0  0  0  0  0  0  0  0  0
   -8.5290   20.6730  -32.1950 C   0  0  0  0  0  0  0  0  0  0  0  0
   -9.5750   21.6040  -32.1980 C   0  0  0  0  0  0  0  0  0  0  0  0
   -9.3230   22.9590  -31.9950 C   0  0  0  0  0  0  0  0  0  0  0  0
   -8.0330   23.4150  -31.7870 C   0  0  0  0  0  0  0  0  0  0  0  0
   -6.9910   22.5100  -31.7820 C   0  0  0  0  0  0  0  0  0  0  0  0
   -7.2620   21.1700  -31.9840 C   0  0  0  0  0  0  0  0  0  0  0  0
   -6.0240   20.4130  -31.9280 N   0  0  0  0  0  0  0  0  0  0  0  0
   -4.9010   20.9750  -31.2630 C   0  0  0  0  0  0  0  0  0  0  0  0
   -4.0610   21.8680  -32.2100 C   0  0  0  0  0  0  0  0  0  0  0  0
   -4.3030   23.2070  -32.0280 O   0  0  0  0  0  0  0  0  0  0  0  0
   -3.9630   23.7770  -30.5160 S   0  0  0  0  0  0  0  0  0  0  0  0
   -2.3700   23.0940  -30.0450 C   0  0  0  0  0  0  0  0  0  0  0  0
   -4.9990   23.4250  -29.4950 O   0  0  0  0  0  0  0  0  0  0  0  0
   -3.8250   25.2740  -30.5520 O   0  0  0  0  0  0  0  0  0  0  0  0
   -5.3334   14.3178  -31.5299 H   0  0  0  0  0  0  0  0  0  0  0  0
   -4.0370   13.2829  -32.2190 H   0  0  0  0  0  0  0  0  0  0  0  0
   -3.8548   15.0699  -32.2190 H   0  0  0  0  0  0  0  0  0  0  0  0
   -4.8945   13.4650  -34.2931 H   0  0  0  0  0  0  0  0  0  0  0  0
   -6.3282   14.2538  -33.5470 H   0  0  0  0  0  0  0  0  0  0  0  0
   -4.3910   15.5620  -35.2490 H   0  0  0  0  0  0  0  0  0  0  0  0
   -3.2529   17.6219  -34.0473 H   0  0  0  0  0  0  0  0  0  0  0  0
   -3.8814   19.7701  -32.9372 H   0  0  0  0  0  0  0  0  0  0  0  0
   -7.2428   16.1449  -33.2849 H   0  0  0  0  0  0  0  0  0  0  0  0
   -8.7661   17.2693  -32.4645 H   0  0  0  0  0  0  0  0  0  0  0  0
   -8.1823   18.2110  -30.9819 H   0  0  0  0  0  0  0  0  0  0  0  0
   -9.2914   19.2712  -33.5333 H   0  0  0  0  0  0  0  0  0  0  0  0
   -9.9791   19.2791  -31.8079 H   0  0  0  0  0  0  0  0  0  0  0  0
  -10.6073   21.2616  -32.3625 H   0  0  0  0  0  0  0  0  0  0  0  0
  -10.1586   23.6744  -32.0001 H   0  0  0  0  0  0  0  0  0  0  0  0
   -7.8404   24.4862  -31.6275 H   0  0  0  0  0  0  0  0  0  0  0  0
   -5.9579   22.8510  -31.6193 H   0  0  0  0  0  0  0  0  0  0  0  0
   -5.2552   21.5851  -30.4190 H   0  0  0  0  0  0  0  0  0  0  0  0
   -4.2621   20.1507  -30.9133 H   0  0  0  0  0  0  0  0  0  0  0  0
   -2.9945   21.6744  -32.0224 H   0  0  0  0  0  0  0  0  0  0  0  0
   -4.3444   21.6163  -33.2426 H   0  0  0  0  0  0  0  0  0  0  0  0
   -2.2948   23.0617  -28.9481 H   0  0  0  0  0  0  0  0  0  0  0  0
   -2.2737   22.0755  -30.4492 H   0  0  0  0  0  0  0  0  0  0  0  0
   -1.5659   23.7265  -30.4492 H   0  0  0  0  0  0  0  0  0  0  0  0
  1  2  1  0
  2  3  1  0
  3  4  1  0
  4  5  2  0
  5  6  1  0
  6  7  2  0
  7  8  1  0
  8  9  2  0
  8 10  1  0
 10 11  1  0
 11 12  1  0
 12 13  2  0
 13 14  1  0
 14 15  2  0
 15 16  1  0
 16 17  2  0
 17 18  1  0
 18 19  1  0
 19 20  1  0
 20 21  1  0
 21 22  1  0
 22 23  1  0
 22 24  2  0
 22 25  2  0
  9  4  1  0
 17 12  1  0
 18  7  1  0
  1 26  1  0
  1 27  1  0
  1 28  1  0
  2 29  1  0
  2 30  1  0
  3 31  1  0
  5 32  1  0
  6 33  1  0
  9 34  1  0
 10 35  1  0
 10 36  1  0
 11 37  1  0
 11 38  1  0
 13 39  1  0
 14 40  1  0
 15 41  1  0
 16 42  1  0
 19 43  1  0
 19 44  1  0
 20 45  1  0
 20 46  1  0
 23 47  1  0
 23 48  1  0
 23 49  1  0
M  END
>  <smiles>  (7) 
CCNc1ccc2c(c1)CCc1ccccc1N2CCOS(C)(=O)=O

>  <score_type>  (7) 
oracle

>  <origin>  (7) 
adg

>  <m_score__min__energy>  (7) 
-7.9100000000000001

>  <m_primary>  (7) 
energy

$$$$
7:0
     RDKit          3D

 55 57  0  0  0  0  0  0  0  0999 V2000
   -2.4500   24.8820  -28.3420 C   0  0  0  0  0  0  0  0  0  0  0  0
   -2.7590   24.9230  -29.7180 O   0  0  0  0  0  0  0  0  0  0  0  0
   -3.9800   24.4730  -30.1970 C   0  0  0  0  0  0  0  0  0  0  0  0
   -5.0920   25.2800  -30.0360 C   0  0  0  0  0  0  0  0  0  0  0  0
   -6.3280   24.8780  -30.4940 C   0  0  0  0  0  0  0  0  0  0  0  0
   -6.4190   23.6470  -31.1160 C   0  0  0  0  0  0  0  0  0  0  0  0
   -7.7710   23.2080  -31.6180 C   0  0  0  0  0  0  0  0  0  0  0  0
   -7.7270   21.7760  -31.6540 N   0  0  0  0  0  0  0  0  0  0  0  0
   -8.9640   21.1370  -32.0160 C   0  0  0  0  0  0  0  0  0  0  0  0
   -8.6680   19.8320  -32.7270 C   0  0  0  0  0  0  0  0  0  0  0  0
   -7.3150   19.3670  -32.3770 N   0  0  0  0  0  0  0  0  0  0  0  0
   -6.3900   19.5260  -33.4640 C   0  0  0  0  0  0  0  0  0  0  0  0
   -6.1270   18.1770  -34.1190 C   0  0  0  0  0  0  0  0  0  0  0  0
   -5.4350   17.3770  -33.2150 O   0  0  0  0  0  0  0  0  0  0  0  0
   -6.0420   17.3160  -31.9840 C   0  0  0  0  0  0  0  0  0  0  0  0
   -7.4040   18.0040  -31.9510 C   0  0  0  0  0  0  0  0  0  0  0  0
   -5.3070   22.8630  -31.2660 C   0  0  0  0  0  0  0  0  0  0  0  0
   -4.0790   23.2350  -30.8240 C   0  0  0  0  0  0  0  0  0  0  0  0
   -2.8360   22.4470  -30.9220 C   0  0  0  0  0  0  0  0  0  0  0  0
   -2.0680   22.3280  -29.7310 N   0  0  0  0  0  0  0  0  0  0  0  0
   -1.9890   21.2520  -28.8400 C   0  0  0  0  0  0  0  0  0  0  0  0
   -2.9570   20.8660  -27.9520 C   0  0  0  0  0  0  0  0  0  0  0  0
   -2.8270   19.8020  -27.0790 C   0  0  0  0  0  0  0  0  0  0  0  0
   -1.6660   19.0620  -27.0750 C   0  0  0  0  0  0  0  0  0  0  0  0
   -0.6670   19.4150  -27.9520 C   0  0  0  0  0  0  0  0  0  0  0  0
   -0.8140   20.4760  -28.8130 C   0  0  0  0  0  0  0  0  0  0  0  0
    0.2260   20.7470  -29.6390 F   0  0  0  0  0  0  0  0  0  0  0  0
   -3.3724   25.0044  -27.7553 H   0  0  0  0  0  0  0  0  0  0  0  0
   -1.9865   23.9145  -28.0990 H   0  0  0  0  0  0  0  0  0  0  0  0
   -1.7502   25.6952  -28.0990 H   0  0  0  0  0  0  0  0  0  0  0  0
   -4.9884   26.2545  -29.5363 H   0  0  0  0  0  0  0  0  0  0  0  0
   -7.2146   25.5169  -30.3685 H   0  0  0  0  0  0  0  0  0  0  0  0
   -8.5628   23.5500  -30.9353 H   0  0  0  0  0  0  0  0  0  0  0  0
   -7.9926   23.6317  -32.6087 H   0  0  0  0  0  0  0  0  0  0  0  0
   -6.9770   21.4800  -32.3170 H   0  0  0  0  0  0  0  0  0  0  0  0
   -9.5520   20.9352  -31.1085 H   0  0  0  0  0  0  0  0  0  0  0  0
   -9.5366   21.7973  -32.6839 H   0  0  0  0  0  0  0  0  0  0  0  0
   -9.4047   19.0746  -32.4211 H   0  0  0  0  0  0  0  0  0  0  0  0
   -8.7271   19.9899  -33.8140 H   0  0  0  0  0  0  0  0  0  0  0  0
   -6.8154   20.2162  -34.2075 H   0  0  0  0  0  0  0  0  0  0  0  0
   -5.4436   19.9334  -33.0788 H   0  0  0  0  0  0  0  0  0  0  0  0
   -7.0823   17.6993  -34.3822 H   0  0  0  0  0  0  0  0  0  0  0  0
   -5.5340   18.3113  -35.0357 H   0  0  0  0  0  0  0  0  0  0  0  0
   -6.1777   16.2586  -31.7130 H   0  0  0  0  0  0  0  0  0  0  0  0
   -5.3912   17.8445  -31.2719 H   0  0  0  0  0  0  0  0  0  0  0  0
   -8.0925   17.4654  -32.6187 H   0  0  0  0  0  0  0  0  0  0  0  0
   -7.7718   17.9904  -30.9144 H   0  0  0  0  0  0  0  0  0  0  0  0
   -5.4134   21.8892  -31.7665 H   0  0  0  0  0  0  0  0  0  0  0  0
   -3.1078   21.4322  -31.2479 H   0  0  0  0  0  0  0  0  0  0  0  0
   -2.1965   22.9961  -31.6288 H   0  0  0  0  0  0  0  0  0  0  0  0
   -1.4680   23.1850  -29.4850 H   0  0  0  0  0  0  0  0  0  0  0  0
   -3.8964   21.4380  -27.9320 H   0  0  0  0  0  0  0  0  0  0  0  0
   -3.6469   19.5479  -26.3911 H   0  0  0  0  0  0  0  0  0  0  0  0
   -1.5407   18.2114  -26.3889 H   0  0  0  0  0  0  0  0  0  0  0  0
    0.2685   18.8364  -27.9645 H   0  0  0  0  0  0  0  0  0  0  0  0
  1  2  1  0
  2  3  1  0
  3  4  2  0
  4  5  1  0
  5  6  2  0
  6  7  1  0
  7  8  1  0
  8  9  1  0
  9 10  1  0
 10 11  1  0
 11 12  1  0
 12 13  1  0
 13 14  1  0
 14 15  1  0
 15 16  1  0
  6 17  1  0
 17 18  2  0
 18 19  1  0
 19 20  1  0
 20 21  1  0
 21 22  2  0
 22 23  1  0
 23 24  2  0
 24 25  1  0
 25 26  2  0
 26 27  1  0
 18  3  1  0
 26 21  1  0
 16 11  1  0
  1 28  1  0
  1 29  1  0
  1 30  1  0
  4 31  1  0
  5 32  1  0
  7 33  1  0
  7 34  1  0
  8 35  1  0
  9 36  1  0
  9 37  1  0
 10 38  1  0
 10 39  1  0
 12 40  1  0
 12 41  1  0
 13 42  1  0
 13 43  1  0
 15 44  1  0
 15 45  1  0
 16 46  1  0
 16 47  1  0
 17 48  1  0
 19 49  1  0
 19 50  1  0
 20 51  1  0
 22 52  1  0
 23 53  1  0
 24 54  1  0
 25 55  1  0
M  END
>  <smiles>  (8) 
COc1ccc(CNCCN2CCOCC2)cc1CNc1ccccc1F

>  <score_type>  (8) 
oracle

>  <origin>  (8) 
adg

>  <m_score__min__energy>  (8) 
-8.4600000000000009

>  <m_primary>  (8) 
energy

$$$$
8:0
     RDKit          3D

 43 45  0  0  0  0  0  0  0  0999 V2000
   -6.8510   25.3170  -29.6620 C   0  0  0  0  0  0  0  0  0  0  0  0
   -5.5460   25.6540  -30.3430 C   0  0  0  0  0  0  0  0  0  0  0  0
   -4.4850   24.5820  -30.0660 C   0  0  0  0  0  0  0  0  0  0  0  0
   -4.2660   23.8100  -31.2460 N   0  0  0  0  0  0  0  0  0  0  0  0
   -3.3240   22.7240  -31.0950 C   0  0  0  0  0  0  0  0  0  0  0  0
   -3.2730   21.8090  -32.2600 C   0  0  0  0  0  0  0  0  0  0  0  0
   -4.4590   21.7890  -33.0900 N   0  0  0  0  0  0  0  0  0  0  0  0
   -5.6320   21.0750  -32.8250 C   0  0  0  0  0  0  0  0  0  0  0  0
   -5.7300   19.7030  -33.0690 C   0  0  0  0  0  0  0  0  0  0  0  0
   -4.6670   18.9730  -33.5500 C   0  0  0  0  0  0  0  0  0  0  0  0
   -4.7650   17.6060  -33.7930 C   0  0  0  0  0  0  0  0  0  0  0  0
   -5.9380   16.9230  -33.5590 C   0  0  0  0  0  0  0  0  0  0  0  0
   -7.0040   17.6500  -33.0770 C   0  0  0  0  0  0  0  0  0  0  0  0
   -6.9080   19.0090  -32.8350 C   0  0  0  0  0  0  0  0  0  0  0  0
   -8.0110   19.6110  -32.3660 N   0  0  0  0  0  0  0  0  0  0  0  0
   -9.2220   18.8830  -32.1290 C   0  0  0  0  0  0  0  0  0  0  0  0
   -7.9520   20.9290  -32.1210 C   0  0  0  0  0  0  0  0  0  0  0  0
   -8.9340   21.7820  -31.6430 C   0  0  0  0  0  0  0  0  0  0  0  0
   -8.3260   23.0190  -31.5890 C   0  0  0  0  0  0  0  0  0  0  0  0
   -7.0920   22.8900  -32.0030 O   0  0  0  0  0  0  0  0  0  0  0  0
   -6.7870   21.6700  -32.3410 C   0  0  0  0  0  0  0  0  0  0  0  0
   -6.7150   25.3521  -28.5710 H   0  0  0  0  0  0  0  0  0  0  0  0
   -7.6189   26.0463  -29.9595 H   0  0  0  0  0  0  0  0  0  0  0  0
   -7.1697   24.3071  -29.9595 H   0  0  0  0  0  0  0  0  0  0  0  0
   -5.7140   25.7211  -31.4280 H   0  0  0  0  0  0  0  0  0  0  0  0
   -5.1836   26.6143  -29.9474 H   0  0  0  0  0  0  0  0  0  0  0  0
   -3.5443   25.0667  -29.7657 H   0  0  0  0  0  0  0  0  0  0  0  0
   -4.8337   23.9228  -29.2573 H   0  0  0  0  0  0  0  0  0  0  0  0
   -5.0800   23.6040  -31.8310 H   0  0  0  0  0  0  0  0  0  0  0  0
   -2.3218   23.1525  -30.9466 H   0  0  0  0  0  0  0  0  0  0  0  0
   -3.6589   22.1272  -30.2338 H   0  0  0  0  0  0  0  0  0  0  0  0
   -2.4234   22.1102  -32.8904 H   0  0  0  0  0  0  0  0  0  0  0  0
   -3.1791   20.7952  -31.8435 H   0  0  0  0  0  0  0  0  0  0  0  0
   -4.3840   22.3870  -33.9630 H   0  0  0  0  0  0  0  0  0  0  0  0
   -3.7133   19.4842  -33.7479 H   0  0  0  0  0  0  0  0  0  0  0  0
   -3.8904   17.0616  -34.1787 H   0  0  0  0  0  0  0  0  0  0  0  0
   -6.0200   15.8426  -33.7490 H   0  0  0  0  0  0  0  0  0  0  0  0
   -7.9566   17.1368  -32.8793 H   0  0  0  0  0  0  0  0  0  0  0  0
   -9.3849   18.7851  -31.0455 H   0  0  0  0  0  0  0  0  0  0  0  0
  -10.0682   19.4223  -32.5797 H   0  0  0  0  0  0  0  0  0  0  0  0
   -9.1427   17.8827  -32.5797 H   0  0  0  0  0  0  0  0  0  0  0  0
   -9.9685   21.5289  -31.3678 H   0  0  0  0  0  0  0  0  0  0  0  0
   -8.7984   23.9545  -31.2547 H   0  0  0  0  0  0  0  0  0  0  0  0
  1  2  1  0
  2  3  1  0
  3  4  1  0
  4  5  1  0
  5  6  1  0
  6  7  1  0
  7  8  1  0
  8  9  2  0
  9 10  1  0
 10 11  2  0
 11 12  1  0
 12 13  2  0
 13 14  1  0
 14 15  2  0
 15 16  1  0
 15 17  1  0
 17 18  1  0
 18 19  2  0
 19 20  1  0
 20 21  1  0
 21  8  1  0
 14  9  1  0
 21 17  2  0
  1 22  1  0
  1 23  1  0
  1 24  1  0
  2 25  1  0
  2 26  1  0
  3 27  1  0
  3 28  1  0
  4 29  1  0
  5 30  1  0
  5 31  1  0
  6 32  1  0
  6 33  1  0
  7 34  1  0
 10 35  1  0
 11 36  1  0
 12 37  1  0
 13 38  1  0
 16 39  1  0
 16 40  1  0
 16 41  1  0
 18 42  1  0
 19 43  1  0
M  CHG  1  15   1
M  END
>  <smiles>  (9) 
CCCNCCNc1c2ccccc2[n+](C)c2ccoc12

>  <score_type>  (9) 
oracle

>  <origin>  (9) 
adg

>  <m_score__min__energy>  (9) 
-7.7000000000000002

>  <m_primary>  (9) 
energy

$$$$
9:0
     RDKit          3D

 54 56  0  0  1  0  0  0  0  0999 V2000
   -1.3470   20.3400  -30.3830 C   0  0  0  0  0  0  0  0  0  0  0  0
   -2.5880   20.6060  -31.2050 C   0  0  0  0  0  0  0  0  0  0  0  0
   -2.5030   20.0870  -32.5450 N   0  0  0  0  0  0  0  0  0  0  0  0
   -1.1170   20.0540  -33.0930 C   0  0  0  0  0  0  0  0  0  0  0  0
   -0.8750   21.3420  -33.8410 C   0  0  0  0  0  0  0  0  0  0  0  0
   -3.5130   19.6210  -33.3760 C   0  0  0  0  0  0  0  0  0  0  0  0
   -3.1190   19.2310  -34.5600 O   0  0  0  0  0  0  0  0  0  0  0  0
   -4.9550   19.4780  -33.1860 C   0  0  0  0  0  0  0  0  0  0  0  0
   -5.7400   20.5910  -32.7830 N   0  0  0  0  0  0  0  0  0  0  0  0
   -5.2490   21.8430  -32.5170 C   0  0  0  0  0  0  0  0  0  0  0  0
   -6.3040   22.6600  -32.1060 C   0  0  0  0  0  0  0  0  0  0  0  0
   -6.1070   24.0520  -31.7680 C   0  0  0  0  0  0  0  0  0  0  0  0
   -5.5230   24.5210  -30.7010 C   0  0  0  0  0  0  0  0  0  0  0  0
   -6.2700   25.3520  -29.7820 C   0  0  0  0  0  0  0  0  0  0  0  0
   -6.8410   26.0110  -29.0520 N   0  0  0  0  0  0  0  0  0  0  0  0
   -4.1050   24.2350  -30.3860 C   0  0  0  0  0  0  0  0  0  0  0  0
   -3.4330   23.5550  -31.2140 O   0  0  0  0  0  0  0  0  0  0  0  0
   -3.5500   24.7300  -29.1760 N   0  0  0  0  0  0  0  0  0  0  0  0
   -2.2070   24.5190  -28.7710 C   0  0  0  0  0  0  0  0  0  0  0  0
   -1.5370   23.3350  -29.0920 C   0  0  0  0  0  0  0  0  0  0  0  0
   -0.2260   23.2300  -28.6570 C   0  0  0  0  0  0  0  0  0  0  0  0
    0.4020   24.2140  -27.9530 C   0  0  0  0  0  0  0  0  0  0  0  0
   -0.2880   25.3810  -27.6490 C   0  0  0  0  0  0  0  0  0  0  0  0
   -1.5980   25.5330  -28.0590 C   0  0  0  0  0  0  0  0  0  0  0  0
   -7.4350   21.8810  -32.1320 C   0  0  0  0  0  0  0  0  0  0  0  0
   -8.7440   22.1730  -31.8350 C   0  0  0  0  0  0  0  0  0  0  0  0
   -9.7500   21.2060  -31.9380 C   0  0  0  0  0  0  0  0  0  0  0  0
   -9.4020   19.9370  -32.3500 C   0  0  0  0  0  0  0  0  0  0  0  0
   -8.0820   19.6820  -32.6410 C   0  0  0  0  0  0  0  0  0  0  0  0
   -7.0760   20.6150  -32.5470 C   0  0  0  0  0  0  0  0  0  0  0  0
   -1.5973   20.3937  -29.3132 H   0  0  0  0  0  0  0  0  0  0  0  0
   -0.9587   19.3382  -30.6189 H   0  0  0  0  0  0  0  0  0  0  0  0
   -0.5822   21.0946  -30.6189 H   0  0  0  0  0  0  0  0  0  0  0  0
   -3.4471   20.1375  -30.7026 H   0  0  0  0  0  0  0  0  0  0  0  0
   -2.7000   21.6974  -31.2838 H   0  0  0  0  0  0  0  0  0  0  0  0
   -0.3933   19.9597  -32.2700 H   0  0  0  0  0  0  0  0  0  0  0  0
   -0.9957   19.1940  -33.7680 H   0  0  0  0  0  0  0  0  0  0  0  0
   -0.7213   22.1602  -33.1220 H   0  0  0  0  0  0  0  0  0  0  0  0
    0.0190   21.2365  -34.4731 H   0  0  0  0  0  0  0  0  0  0  0  0
   -1.7464   21.5682  -34.4731 H   0  0  0  0  0  0  0  0  0  0  0  0
   -5.3671   19.1317  -34.1453 H   0  0  0  0  0  0  0  0  0  0  0  0
   -5.0262   18.7982  -32.3242 H   0  0  0  0  0  0  0  0  0  0  0  0
   -4.1978   22.1527  -32.6117 H   0  0  0  0  0  0  0  0  0  0  0  0
   -6.4898   24.7923  -32.4859 H   0  0  0  0  0  0  0  0  0  0  0  0
   -4.1660   25.2940  -28.5230 H   0  0  0  0  0  0  0  0  0  0  0  0
   -2.0250   22.5292  -29.6600 H   0  0  0  0  0  0  0  0  0  0  0  0
    0.3331   22.3118  -28.8900 H   0  0  0  0  0  0  0  0  0  0  0  0
    1.4452   24.0853  -27.6287 H   0  0  0  0  0  0  0  0  0  0  0  0
    0.2084   26.1827  -27.0826 H   0  0  0  0  0  0  0  0  0  0  0  0
   -2.1511   26.4535  -27.8205 H   0  0  0  0  0  0  0  0  0  0  0  0
   -9.0073   23.1900  -31.5088 H   0  0  0  0  0  0  0  0  0  0  0  0
  -10.7943   21.4524  -31.6959 H   0  0  0  0  0  0  0  0  0  0  0  0
  -10.1620   19.1473  -32.4437 H   0  0  0  0  0  0  0  0  0  0  0  0
   -7.8140   18.6671  -32.9699 H   0  0  0  0  0  0  0  0  0  0  0  0
  1  2  1  0
  2  3  1  0
  3  4  1  0
  4  5  1  0
  3  6  1  0
  6  7  2  0
  6  8  1  0
  8  9  1  0
  9 10  1  0
 10 11  2  0
 11 12  1  0
 12 13  2  0
 13 14  1  0
 14 15  3  0
 13 16  1  0
 16 17  2  0
 16 18  1  0
 18 19  1  0
 19 20  2  0
 20 21  1  0
 21 22  2  0
 22 23  1  0
 23 24  2  0
 11 25  1  0
 25 26  2  0
 26 27  1  0
 27 28  2  0
 28 29  1  0
 29 30  2  0
 30  9  1  0
 24 19  1  0
 30 25  1  0
  1 31  1  0
  1 32  1  0
  1 33  1  0
  2 34  1  0
  2 35  1  0
  4 36  1  0
  4 37  1  0
  5 38  1  0
  5 39  1  0
  5 40  1  0
  8 41  1  0
  8 42  1  0
 10 43  1  0
 12 44  1  0
 18 45  1  0
 20 46  1  0
 21 47  1  0
 22 48  1  0
 23 49  1  0
 24 50  1  0
 26 51  1  0
 27 52  1  0
 28 53  1  0
 29 54  1  0
M  END
>  <smiles>  (10) 
CCN(CC)C(=O)Cn1cc(C=C(C#N)C(=O)Nc2ccccc2)c2ccccc21

>  <score_type>  (10) 
oracle

>  <origin>  (10) 
adg

>  <m_score__min__energy>  (10) 
-9.5

>  <m_primary>  (10) 
energy

$$$$
10:0
     RDKit          3D

 60 62  0  0  0  0  0  0  0  0999 V2000
   -1.8090   25.6680  -26.5870 C   0  0  0  0  0  0  0  0  0  0  0  0
   -0.7510   25.7120  -27.6620 C   0  0  0  0  0  0  0  0  0  0  0  0
   -1.3600   25.5790  -28.9800 N   0  0  0  0  0  0  0  0  0  0  0  0
   -1.9830   24.2680  -29.1090 C   0  0  0  0  0  0  0  0  0  0  0  0
   -3.4650   24.3870  -29.2690 C   0  0  0  0  0  0  0  0  0  0  0  0
   -3.8880   24.9770  -30.4380 O   0  0  0  0  0  0  0  0  0  0  0  0
   -5.2610   25.1580  -30.5210 C   0  0  0  0  0  0  0  0  0  0  0  0
   -5.8250   24.2460  -31.5920 C   0  0  0  0  0  0  0  0  0  0  0  0
   -5.2870   22.8460  -31.3920 C   0  0  0  0  0  0  0  0  0  0  0  0
   -5.1030   22.1880  -32.6660 N   0  0  0  0  0  0  0  0  0  0  0  0
   -5.4910   20.8400  -32.8200 C   0  0  0  0  0  0  0  0  0  0  0  0
   -6.8260   20.5330  -32.5800 C   0  0  0  0  0  0  0  0  0  0  0  0
   -7.7010   21.5610  -32.2310 C   0  0  0  0  0  0  0  0  0  0  0  0
   -9.0370   21.3230  -31.9890 C   0  0  0  0  0  0  0  0  0  0  0  0
   -9.4880   20.0350  -32.1030 C   0  0  0  0  0  0  0  0  0  0  0  0
   -8.6130   19.0160  -32.4520 C   0  0  0  0  0  0  0  0  0  0  0  0
   -7.2740   19.2290  -32.6970 C   0  0  0  0  0  0  0  0  0  0  0  0
   -6.4380   18.2100  -33.0470 N   0  0  0  0  0  0  0  0  0  0  0  0
   -6.9340   16.8440  -33.1410 C   0  0  0  0  0  0  0  0  0  0  0  0
   -5.1440   18.5250  -33.2800 C   0  0  0  0  0  0  0  0  0  0  0  0
   -4.2430   17.5490  -33.6550 C   0  0  0  0  0  0  0  0  0  0  0  0
   -2.9040   17.8350  -33.9160 C   0  0  0  0  0  0  0  0  0  0  0  0
   -2.4220   19.1190  -33.8090 C   0  0  0  0  0  0  0  0  0  0  0  0
   -3.3200   20.0960  -33.4360 C   0  0  0  0  0  0  0  0  0  0  0  0
   -2.8540   21.3850  -33.3280 O   0  0  0  0  0  0  0  0  0  0  0  0
   -1.9970   21.9060  -32.3660 C   0  0  0  0  0  0  0  0  0  0  0  0
   -2.2590   21.2840  -31.0300 C   0  0  0  0  0  0  0  0  0  0  0  0
   -4.6530   19.8120  -33.1750 C   0  0  0  0  0  0  0  0  0  0  0  0
   -1.3279   25.6880  -25.5980 H   0  0  0  0  0  0  0  0  0  0  0  0
   -2.4725   26.5393  -26.6897 H   0  0  0  0  0  0  0  0  0  0  0  0
   -2.3979   24.7446  -26.6897 H   0  0  0  0  0  0  0  0  0  0  0  0
   -0.2160   26.6715  -27.6050 H   0  0  0  0  0  0  0  0  0  0  0  0
   -0.0499   24.8786  -27.5071 H   0  0  0  0  0  0  0  0  0  0  0  0
   -0.6500   25.7420  -29.7260 H   0  0  0  0  0  0  0  0  0  0  0  0
   -1.5667   23.7581  -29.9903 H   0  0  0  0  0  0  0  0  0  0  0  0
   -1.7764   23.6927  -28.1945 H   0  0  0  0  0  0  0  0  0  0  0  0
   -3.8932   23.3747  -29.2258 H   0  0  0  0  0  0  0  0  0  0  0  0
   -3.8050   25.0465  -28.4569 H   0  0  0  0  0  0  0  0  0  0  0  0
   -5.7224   24.9156  -29.5523 H   0  0  0  0  0  0  0  0  0  0  0  0
   -5.4787   26.2052  -30.7780 H   0  0  0  0  0  0  0  0  0  0  0  0
   -6.9226   24.2313  -31.5212 H   0  0  0  0  0  0  0  0  0  0  0  0
   -5.5282   24.6161  -32.5844 H   0  0  0  0  0  0  0  0  0  0  0  0
   -4.3204   22.9007  -30.8698 H   0  0  0  0  0  0  0  0  0  0  0  0
   -6.0085   22.2694  -30.7945 H   0  0  0  0  0  0  0  0  0  0  0  0
   -4.6850   22.6860  -33.4960 H   0  0  0  0  0  0  0  0  0  0  0  0
   -7.3154   22.5878  -32.1467 H   0  0  0  0  0  0  0  0  0  0  0  0
   -9.7187   22.1411  -31.7133 H   0  0  0  0  0  0  0  0  0  0  0  0
  -10.5480   19.8072  -31.9172 H   0  0  0  0  0  0  0  0  0  0  0  0
   -9.0061   17.9922  -32.5369 H   0  0  0  0  0  0  0  0  0  0  0  0
   -7.0817   16.4372  -32.1297 H   0  0  0  0  0  0  0  0  0  0  0  0
   -7.8917   16.8381  -33.6821 H   0  0  0  0  0  0  0  0  0  0  0  0
   -6.2032   16.2250  -33.6821 H   0  0  0  0  0  0  0  0  0  0  0  0
   -4.5934   16.5107  -33.7511 H   0  0  0  0  0  0  0  0  0  0  0  0
   -2.2234   17.0229  -34.2116 H   0  0  0  0  0  0  0  0  0  0  0  0
   -1.3671   19.3555  -34.0120 H   0  0  0  0  0  0  0  0  0  0  0  0
   -0.9570   21.7027  -32.6610 H   0  0  0  0  0  0  0  0  0  0  0  0
   -2.1679   22.9900  -32.2906 H   0  0  0  0  0  0  0  0  0  0  0  0
   -1.9638   21.9847  -30.2351 H   0  0  0  0  0  0  0  0  0  0  0  0
   -3.3306   21.0537  -30.9365 H   0  0  0  0  0  0  0  0  0  0  0  0
   -1.6751   20.3564  -30.9365 H   0  0  0  0  0  0  0  0  0  0  0  0
  1  2  1  0
  2  3  1  0
  3  4  1  0
  4  5  1  0
  5  6  1  0
  6  7  1  0
  7  8  1  0
  8  9  1  0
  9 10  1  0
 10 11  1  0
 11 12  2  0
 12 13  1  0
 13 14  2  0
 14 15  1  0
 15 16  2  0
 16 17  1  0
 17 18  2  0
 18 19  1  0
 18 20  1  0
 20 21  2  0
 21 22  1  0
 22 23  2  0
 23 24  1  0
 24 25  1  0
 25 26  1  0
 26 27  1  0
 24 28  2  0
 28 11  1  0
 17 12  1  0
 28 20  1  0
  1 29  1  0
  1 30  1  0
  1 31  1  0
  2 32  1  0
  2 33  1  0
  3 34  1  0
  4 35  1  0
  4 36  1  0
  5 37  1  0
  5 38  1  0
  7 39  1  0
  7 40  1  0
  8 41  1  0
  8 42  1  0
  9 43  1  0
  9 44  1  0
 10 45  1  0
 13 46  1  0
 14 47  1  0
 15 48  1  0
 16 49  1  0
 19 50  1  0
 19 51  1  0
 19 52  1  0
 21 53  1  0
 22 54  1  0
 23 55  1  0
 26 56  1  0
 26 57  1  0
 27 58  1  0
 27 59  1  0
 27 60  1  0
M  CHG  1  18   1
M  END
>  <smiles>  (11) 
CCNCCOCCCNc1c2ccccc2[n+](C)c2cccc(OCC)c12

>  <score_type>  (11) 
oracle

>  <origin>  (11) 
adg

>  <m_score__min__energy>  (11) 
-8.8499999999999996

>  <m_primary>  (11) 
energy

$$$$
11:0
     RDKit          3D

 66 69  0  0  0  0  0  0  0  0999 V2000
    0.3910   18.8830  -31.5690 C   0  0  0  0  0  0  0  0  0  0  0  0
    0.4930   20.4000  -31.4120 C   0  0  0  0  0  0  0  0  0  0  0  0
   -0.8290   20.9620  -31.4050 N   0  0  0  0  0  0  0  0  0  0  0  0
   -1.3050   21.2940  -32.7500 C   0  0  0  0  0  0  0  0  0  0  0  0
   -2.7690   21.0400  -32.8700 C   0  0  0  0  0  0  0  0  0  0  0  0
   -3.3720   20.9400  -31.5230 N   0  0  0  0  0  0  0  0  0  0  0  0
   -4.7010   21.4340  -31.4480 C   0  0  0  0  0  0  0  0  0  0  0  0
   -5.6700   20.5870  -31.9810 C   0  0  0  0  0  0  0  0  0  0  0  0
   -5.2950   19.3400  -32.4770 C   0  0  0  0  0  0  0  0  0  0  0  0
   -6.1740   18.4450  -33.0220 C   0  0  0  0  0  0  0  0  0  0  0  0
   -7.5020   18.7890  -33.0840 C   0  0  0  0  0  0  0  0  0  0  0  0
   -7.8880   20.0280  -32.5920 C   0  0  0  0  0  0  0  0  0  0  0  0
   -7.0030   20.9250  -32.0470 C   0  0  0  0  0  0  0  0  0  0  0  0
   -7.3660   22.1170  -31.5760 N   0  0  0  0  0  0  0  0  0  0  0  0
   -8.7250   22.5570  -31.5890 C   0  0  0  0  0  0  0  0  0  0  0  0
   -6.4440   22.9560  -31.0530 C   0  0  0  0  0  0  0  0  0  0  0  0
   -6.8670   24.1780  -30.5930 C   0  0  0  0  0  0  0  0  0  0  0  0
   -5.9840   25.0840  -30.0580 C   0  0  0  0  0  0  0  0  0  0  0  0
   -4.6580   24.7270  -29.9950 C   0  0  0  0  0  0  0  0  0  0  0  0
   -4.1580   23.5110  -30.4360 C   0  0  0  0  0  0  0  0  0  0  0  0
   -2.7980   23.2320  -30.2640 N   0  0  0  0  0  0  0  0  0  0  0  0
   -2.0350   24.1120  -29.3510 C   0  0  0  0  0  0  0  0  0  0  0  0
   -0.7850   23.3980  -28.8460 C   0  0  0  0  0  0  0  0  0  0  0  0
   -1.1690   22.1610  -28.0800 C   0  0  0  0  0  0  0  0  0  0  0  0
   -1.7990   21.1380  -28.8940 N   0  0  0  0  0  0  0  0  0  0  0  0
   -1.0730   19.9000  -28.6030 C   0  0  0  0  0  0  0  0  0  0  0  0
   -1.4670   19.4830  -27.2270 C   0  0  0  0  0  0  0  0  0  0  0  0
   -2.8980   19.9480  -27.1390 C   0  0  0  0  0  0  0  0  0  0  0  0
   -3.1130   20.9150  -28.2850 C   0  0  0  0  0  0  0  0  0  0  0  0
   -5.0940   22.6440  -30.9700 C   0  0  0  0  0  0  0  0  0  0  0  0
    0.3594   18.4128  -30.5751 H   0  0  0  0  0  0  0  0  0  0  0  0
   -0.5260   18.6325  -32.1225 H   0  0  0  0  0  0  0  0  0  0  0  0
    1.2662   18.5120  -32.1225 H   0  0  0  0  0  0  0  0  0  0  0  0
    0.9998   20.6391  -30.4655 H   0  0  0  0  0  0  0  0  0  0  0  0
    1.0701   20.8211  -32.2484 H   0  0  0  0  0  0  0  0  0  0  0  0
   -0.8760   21.7780  -30.7640 H   0  0  0  0  0  0  0  0  0  0  0  0
   -1.1055   22.3569  -32.9512 H   0  0  0  0  0  0  0  0  0  0  0  0
   -0.7761   20.6612  -33.4779 H   0  0  0  0  0  0  0  0  0  0  0  0
   -3.2395   21.8682  -33.4202 H   0  0  0  0  0  0  0  0  0  0  0  0
   -2.9308   20.0963  -33.4115 H   0  0  0  0  0  0  0  0  0  0  0  0
   -2.8610   20.5100  -30.7200 H   0  0  0  0  0  0  0  0  0  0  0  0
   -4.2325   19.0597  -32.4275 H   0  0  0  0  0  0  0  0  0  0  0  0
   -5.8256   17.4731  -33.4015 H   0  0  0  0  0  0  0  0  0  0  0  0
   -8.2427   18.0985  -33.5137 H   0  0  0  0  0  0  0  0  0  0  0  0
   -8.9517   20.3039  -32.6410 H   0  0  0  0  0  0  0  0  0  0  0  0
   -9.0828   22.6728  -30.5553 H   0  0  0  0  0  0  0  0  0  0  0  0
   -8.7927   23.5230  -32.1109 H   0  0  0  0  0  0  0  0  0  0  0  0
   -9.3460   21.8140  -32.1109 H   0  0  0  0  0  0  0  0  0  0  0  0
   -7.9343   24.4370  -30.6540 H   0  0  0  0  0  0  0  0  0  0  0  0
   -6.3267   26.0631  -29.6920 H   0  0  0  0  0  0  0  0  0  0  0  0
   -3.9489   25.4514  -29.5679 H   0  0  0  0  0  0  0  0  0  0  0  0
   -2.2090   22.4890  -30.6430 H   0  0  0  0  0  0  0  0  0  0  0  0
   -1.7387   25.0240  -29.8900 H   0  0  0  0  0  0  0  0  0  0  0  0
   -2.6702   24.3709  -28.4911 H   0  0  0  0  0  0  0  0  0  0  0  0
   -0.1567   23.1145  -29.7033 H   0  0  0  0  0  0  0  0  0  0  0  0
   -0.2282   24.0746  -28.1809 H   0  0  0  0  0  0  0  0  0  0  0  0
   -0.2595   21.7352  -27.6311 H   0  0  0  0  0  0  0  0  0  0  0  0
   -1.9077   22.4688  -27.3253 H   0  0  0  0  0  0  0  0  0  0  0  0
   -1.3481   19.1202  -29.3284 H   0  0  0  0  0  0  0  0  0  0  0  0
    0.0139   20.0541  -28.6727 H   0  0  0  0  0  0  0  0  0  0  0  0
   -1.3961   18.3918  -27.1073 H   0  0  0  0  0  0  0  0  0  0  0  0
   -0.8217   19.9028  -26.4413 H   0  0  0  0  0  0  0  0  0  0  0  0
   -3.5814   19.0912  -27.2327 H   0  0  0  0  0  0  0  0  0  0  0  0
   -3.0982   20.4309  -26.1711 H   0  0  0  0  0  0  0  0  0  0  0  0
   -3.8050   20.4823  -29.0225 H   0  0  0  0  0  0  0  0  0  0  0  0
   -3.5527   21.8592  -27.9313 H   0  0  0  0  0  0  0  0  0  0  0  0
  1  2  1  0
  2  3  1  0
  3  4  1  0
  4  5  1  0
  5  6  1  0
  6  7  1  0
  7  8  2  0
  8  9  1  0
  9 10  2  0
 10 11  1  0
 11 12  2  0
 12 13  1  0
 13 14  2  0
 14 15  1  0
 14 16  1  0
 16 17  2  0
 17 18  1  0
 18 19  2  0
 19 20  1  0
 20 21  1  0
 21 22  1  0
 22 23  1  0
 23 24  1  0
 24 25  1  0
 25 26  1  0
 26 27  1  0
 27 28  1  0
 28 29  1  0
 20 30  2  0
 30  7  1  0
 13  8  1  0
 30 16  1  0
 29 25  1  0
  1 31  1  0
  1 32  1  0
  1 33  1  0
  2 34  1  0
  2 35  1  0
  3 36  1  0
  4 37  1  0
  4 38  1  0
  5 39  1  0
  5 40  1  0
  6 41  1  0
  9 42  1  0
 10 43  1  0
 11 44  1  0
 12 45  1  0
 15 46  1  0
 15 47  1  0
 15 48  1  0
 17 49  1  0
 18 50  1  0
 19 51  1  0
 21 52  1  0
 22 53  1  0
 22 54  1  0
 23 55  1  0
 23 56  1  0
 24 57  1  0
 24 58  1  0
 26 59  1  0
 26 60  1  0
 27 61  1  0
 27 62  1  0
 28 63  1  0
 28 64  1  0
 29 65  1  0
 29 66  1  0
M  CHG  1  14   1
M  END
>  <smiles>  (12) 
CCNCCNc1c2ccccc2[n+](C)c2cccc(NCCCN3CCCC3)c12

>  <score_type>  (12) 
oracle

>  <origin>  (12) 
adg

>  <m_score__min__energy>  (12) 
-9.0399999999999991

>  <m_primary>  (12) 
energy

$$$$
12:0
     RDKit          3D

 58 61  0  0  0  0  0  0  0  0999 V2000
    0.4660   26.1690  -24.5470 C   0  0  0  0  0  0  0  0  0  0  0  0
   -0.6710   25.7110  -25.3830 C   0  0  0  0  0  0  0  0  0  0  0  0
   -1.9620   26.0620  -25.0270 C   0  0  0  0  0  0  0  0  0  0  0  0
   -3.0170   25.6340  -25.8090 C   0  0  0  0  0  0  0  0  0  0  0  0
   -2.7160   24.8760  -26.9100 C   0  0  0  0  0  0  0  0  0  0  0  0
   -3.7640   24.4440  -27.6930 C   0  0  0  0  0  0  0  0  0  0  0  0
   -3.4830   23.6730  -28.8110 C   0  0  0  0  0  0  0  0  0  0  0  0
   -4.6760   23.2300  -29.6120 C   0  0  0  0  0  0  0  0  0  0  0  0
   -4.4260   23.6770  -30.9580 N   0  0  0  0  0  0  0  0  0  0  0  0
   -4.6540   22.6950  -31.9730 C   0  0  0  0  0  0  0  0  0  0  0  0
   -3.4620   22.2640  -32.7470 C   0  0  0  0  0  0  0  0  0  0  0  0
   -3.8570   20.9520  -33.4460 C   0  0  0  0  0  0  0  0  0  0  0  0
   -3.8010   19.9150  -32.4340 N   0  0  0  0  0  0  0  0  0  0  0  0
   -4.2610   18.6320  -32.8860 C   0  0  0  0  0  0  0  0  0  0  0  0
   -5.4190   18.8110  -33.8140 C   0  0  0  0  0  0  0  0  0  0  0  0
   -6.6910   19.0420  -33.1070 N   0  0  0  0  0  0  0  0  0  0  0  0
   -7.3810   20.1590  -33.2640 N   0  0  0  0  0  0  0  0  0  0  0  0
   -8.5340   20.4530  -32.6710 C   0  0  0  0  0  0  0  0  0  0  0  0
   -9.0950   19.5290  -31.8050 C   0  0  0  0  0  0  0  0  0  0  0  0
   -8.3920   18.3480  -31.6230 C   0  0  0  0  0  0  0  0  0  0  0  0
   -7.1900   18.1040  -32.2720 C   0  0  0  0  0  0  0  0  0  0  0  0
   -6.5610   17.0170  -32.0920 O   0  0  0  0  0  0  0  0  0  0  0  0
   -4.4330   20.3330  -31.1990 C   0  0  0  0  0  0  0  0  0  0  0  0
   -5.3810   21.4910  -31.4080 C   0  0  0  0  0  0  0  0  0  0  0  0
   -2.1960   23.3270  -29.1610 C   0  0  0  0  0  0  0  0  0  0  0  0
   -1.9730   22.6290  -30.1750 O   0  0  0  0  0  0  0  0  0  0  0  0
   -1.1850   23.7660  -28.3710 N   0  0  0  0  0  0  0  0  0  0  0  0
    0.1920   23.4580  -28.6560 C   0  0  0  0  0  0  0  0  0  0  0  0
   -1.4260   24.5250  -27.2670 C   0  0  0  0  0  0  0  0  0  0  0  0
   -0.4030   24.9600  -26.4780 N   0  0  0  0  0  0  0  0  0  0  0  0
    0.2050   26.0638  -23.4836 H   0  0  0  0  0  0  0  0  0  0  0  0
    1.3536   25.5583  -24.7688 H   0  0  0  0  0  0  0  0  0  0  0  0
    0.6824   27.2244  -24.7688 H   0  0  0  0  0  0  0  0  0  0  0  0
   -2.1454   26.6745  -24.1319 H   0  0  0  0  0  0  0  0  0  0  0  0
   -4.0566   25.8912  -25.5581 H   0  0  0  0  0  0  0  0  0  0  0  0
   -4.8014   24.7050  -27.4369 H   0  0  0  0  0  0  0  0  0  0  0  0
   -4.7729   22.1347  -29.5829 H   0  0  0  0  0  0  0  0  0  0  0  0
   -5.6123   23.6463  -29.2120 H   0  0  0  0  0  0  0  0  0  0  0  0
   -3.4190   24.0120  -30.9510 H   0  0  0  0  0  0  0  0  0  0  0  0
   -5.2855   23.2162  -32.7076 H   0  0  0  0  0  0  0  0  0  0  0  0
   -3.1943   23.0277  -33.4921 H   0  0  0  0  0  0  0  0  0  0  0  0
   -2.5885   22.1233  -32.0934 H   0  0  0  0  0  0  0  0  0  0  0  0
   -4.8754   21.0303  -33.8543 H   0  0  0  0  0  0  0  0  0  0  0  0
   -3.1807   20.7278  -34.2840 H   0  0  0  0  0  0  0  0  0  0  0  0
   -3.4454   18.1162  -33.4141 H   0  0  0  0  0  0  0  0  0  0  0  0
   -4.5773   18.0322  -32.0198 H   0  0  0  0  0  0  0  0  0  0  0  0
   -5.2172   19.6749  -34.4643 H   0  0  0  0  0  0  0  0  0  0  0  0
   -5.5265   17.8804  -34.3905 H   0  0  0  0  0  0  0  0  0  0  0  0
   -9.0338   21.4135  -32.8648 H   0  0  0  0  0  0  0  0  0  0  0  0
  -10.0473   19.7219  -31.2893 H   0  0  0  0  0  0  0  0  0  0  0  0
   -8.7985   17.5830  -30.9451 H   0  0  0  0  0  0  0  0  0  0  0  0
   -4.9963   19.4842  -30.7841 H   0  0  0  0  0  0  0  0  0  0  0  0
   -3.6423   20.6633  -30.5093 H   0  0  0  0  0  0  0  0  0  0  0  0
   -6.1713   21.1864  -32.1099 H   0  0  0  0  0  0  0  0  0  0  0  0
   -5.8140   21.7684  -30.4356 H   0  0  0  0  0  0  0  0  0  0  0  0
    0.7431   23.3347  -27.7120 H   0  0  0  0  0  0  0  0  0  0  0  0
    0.2465   22.5255  -29.2369 H   0  0  0  0  0  0  0  0  0  0  0  0
    0.6386   24.2784  -29.2369 H   0  0  0  0  0  0  0  0  0  0  0  0
  1  2  1  0
  2  3  2  0
  3  4  1  0
  4  5  2  0
  5  6  1  0
  6  7  2  0
  7  8  1  0
  8  9  1  0
  9 10  1  0
 10 11  1  0
 11 12  1  0
 12 13  1  0
 13 14  1  0
 14 15  1  0
 15 16  1  0
 16 17  1  0
 17 18  2  0
 18 19  1  0
 19 20  2  0
 20 21  1  0
 21 22  2  0
 13 23  1  0
 23 24  1  0
  7 25  1  0
 25 26  2  0
 25 27  1  0
 27 28  1  0
 27 29  1  0
 29 30  2  0
 30  2  1  0
 29  5  1  0
 24 10  1  0
 21 16  1  0
  1 31  1  0
  1 32  1  0
  1 33  1  0
  3 34  1  0
  4 35  1  0
  6 36  1  0
  8 37  1  0
  8 38  1  0
  9 39  1  0
 10 40  1  0
 11 41  1  0
 11 42  1  0
 12 43  1  0
 12 44  1  0
 14 45  1  0
 14 46  1  0
 15 47  1  0
 15 48  1  0
 18 49  1  0
 19 50  1  0
 20 51  1  0
 23 52  1  0
 23 53  1  0
 24 54  1  0
 24 55  1  0
 28 56  1  0
 28 57  1  0
 28 58  1  0
M  END
>  <smiles>  (13) 
Cc1ccc2cc(CNC3CCN(CCn4ncccc4=O)CC3)c(=O)n(C)c2n1

>  <score_type>  (13) 
oracle

>  <origin>  (13) 
adg

>  <m_score__min__energy>  (13) 
-9.9600000000000009

>  <m_primary>  (13) 
energy

$$$$
13:0
     RDKit          3D

 40 41  0  0  0  0  0  0  0  0999 V2000
   -1.0340   26.5190  -25.6360 C   0  0  0  0  0  0  0  0  0  0  0  0
   -0.1230   27.0610  -26.7050 C   0  0  0  0  0  0  0  0  0  0  0  0
    0.4070   25.9830  -27.4330 O   0  0  0  0  0  0  0  0  0  0  0  0
   -0.3730   24.9350  -27.8610 C   0  0  0  0  0  0  0  0  0  0  0  0
   -0.0450   23.6690  -27.3630 C   0  0  0  0  0  0  0  0  0  0  0  0
   -0.7560   22.5400  -27.7210 C   0  0  0  0  0  0  0  0  0  0  0  0
   -1.8020   22.6880  -28.5880 C   0  0  0  0  0  0  0  0  0  0  0  0
   -2.1580   23.9170  -29.1020 C   0  0  0  0  0  0  0  0  0  0  0  0
   -1.4290   25.0240  -28.7240 C   0  0  0  0  0  0  0  0  0  0  0  0
   -3.1950   24.0390  -29.9530 N   0  0  0  0  0  0  0  0  0  0  0  0
   -3.4840   25.2920  -30.4220 O   0  0  0  0  0  0  0  0  0  0  0  0
   -3.9340   22.9590  -30.3400 C   0  0  0  0  0  0  0  0  0  0  0  0
   -5.0240   23.1150  -31.2320 N   0  0  0  0  0  0  0  0  0  0  0  0
   -5.3450   22.1860  -32.2930 C   0  0  0  0  0  0  0  0  0  0  0  0
   -6.8270   21.9990  -32.3430 C   0  0  0  0  0  0  0  0  0  0  0  0
   -7.5520   22.9340  -31.5150 N   0  0  0  0  0  0  0  0  0  0  0  0
   -8.8420   23.3010  -31.9960 C   0  0  0  0  0  0  0  0  0  0  0  0
   -7.6940   22.3340  -30.2020 C   0  0  0  0  0  0  0  0  0  0  0  0
   -3.5530   21.7830  -29.8170 N   0  0  0  0  0  0  0  0  0  0  0  0
   -2.5420   21.6280  -28.9800 N   0  0  0  0  0  0  0  0  0  0  0  0
   -2.2570   20.3730  -28.5140 O   0  0  0  0  0  0  0  0  0  0  0  0
   -0.6230   26.7635  -24.6454 H   0  0  0  0  0  0  0  0  0  0  0  0
   -2.0315   26.9706  -25.7408 H   0  0  0  0  0  0  0  0  0  0  0  0
   -1.1131   25.4269  -25.7408 H   0  0  0  0  0  0  0  0  0  0  0  0
   -0.6925   27.7184  -27.3785 H   0  0  0  0  0  0  0  0  0  0  0  0
    0.6916   27.6400  -26.2455 H   0  0  0  0  0  0  0  0  0  0  0  0
    0.8017   23.5702  -26.6678 H   0  0  0  0  0  0  0  0  0  0  0  0
   -0.4882   21.5513  -27.3201 H   0  0  0  0  0  0  0  0  0  0  0  0
   -1.7054   26.0086  -29.1291 H   0  0  0  0  0  0  0  0  0  0  0  0
   -5.6360   23.9520  -31.1200 H   0  0  0  0  0  0  0  0  0  0  0  0
   -4.9911   22.5871  -33.2542 H   0  0  0  0  0  0  0  0  0  0  0  0
   -4.8544   21.2200  -32.1028 H   0  0  0  0  0  0  0  0  0  0  0  0
   -7.1593   22.1249  -33.3840 H   0  0  0  0  0  0  0  0  0  0  0  0
   -7.0400   20.9911  -31.9572 H   0  0  0  0  0  0  0  0  0  0  0  0
   -9.5107   23.4912  -31.1436 H   0  0  0  0  0  0  0  0  0  0  0  0
   -8.7598   24.2114  -32.6079 H   0  0  0  0  0  0  0  0  0  0  0  0
   -9.2514   22.4837  -32.6079 H   0  0  0  0  0  0  0  0  0  0  0  0
   -7.5137   23.0958  -29.4293 H   0  0  0  0  0  0  0  0  0  0  0  0
   -8.7120   21.9324  -30.0905 H   0  0  0  0  0  0  0  0  0  0  0  0
   -6.9640   21.5187  -30.0905 H   0  0  0  0  0  0  0  0  0  0  0  0
  1  2  1  0
  2  3  1  0
  3  4  1  0
  4  5  2  0
  5  6  1  0
  6  7  2  0
  7  8  1  0
  8  9  2  0
  8 10  1  0
 10 11  1  0
 10 12  2  0
 12 13  1  0
 13 14  1  0
 14 15  1  0
 15 16  1  0
 16 17  1  0
 16 18  1  0
 12 19  1  0
 19 20  2  0
 20 21  1  0
  9  4  1  0
 20  7  1  0
  1 22  1  0
  1 23  1  0
  1 24  1  0
  2 25  1  0
  2 26  1  0
  5 27  1  0
  6 28  1  0
  9 29  1  0
 13 30  1  0
 14 31  1  0
 14 32  1  0
 15 33  1  0
 15 34  1  0
 17 35  1  0
 17 36  1  0
 17 37  1  0
 18 38  1  0
 18 39  1  0
 18 40  1  0
M  CHG  4  10   1  11  -1  20   1  21  -1
M  END
>  <smiles>  (14) 
CCOc1ccc2c(c1)[n+]([O-])c(NCCN(C)C)n[n+]2[O-]

>  <score_type>  (14) 
oracle

>  <origin>  (14) 
adg

>  <m_score__min__energy>  (14) 
-6.8899999999999997

>  <m_primary>  (14) 
energy

$$$$
14:0
     RDKit          3D

 61 63  0  0  0  0  0  0  0  0999 V2000
   -9.1050   22.7970  -31.9680 C   0  0  0  0  0  0  0  0  0  0  0  0
   -8.8610   21.9020  -30.7780 C   0  0  0  0  0  0  0  0  0  0  0  0
   -7.4580   21.4040  -30.8480 N   0  0  0  0  0  0  0  0  0  0  0  0
   -7.1640   20.2840  -31.6380 C   0  0  0  0  0  0  0  0  0  0  0  0
   -8.1600   19.3200  -31.7690 C   0  0  0  0  0  0  0  0  0  0  0  0
   -8.0050   18.1550  -32.4720 C   0  0  0  0  0  0  0  0  0  0  0  0
   -6.8090   17.9000  -33.0950 C   0  0  0  0  0  0  0  0  0  0  0  0
   -5.7900   18.8230  -33.0000 C   0  0  0  0  0  0  0  0  0  0  0  0
   -5.9760   20.0140  -32.2700 C   0  0  0  0  0  0  0  0  0  0  0  0
   -4.9710   20.9240  -32.1820 C   0  0  0  0  0  0  0  0  0  0  0  0
   -4.9950   22.1930  -31.5610 N   0  0  0  0  0  0  0  0  0  0  0  0
   -5.7490   23.2360  -32.2920 C   0  0  0  0  0  0  0  0  0  0  0  0
   -5.7540   24.5560  -31.6220 C   0  0  0  0  0  0  0  0  0  0  0  0
   -4.8170   24.8300  -30.6860 O   0  0  0  0  0  0  0  0  0  0  0  0
   -5.1070   24.6630  -29.3700 C   0  0  0  0  0  0  0  0  0  0  0  0
   -3.9620   24.1710  -28.5190 C   0  0  0  0  0  0  0  0  0  0  0  0
   -3.2760   23.1150  -29.2120 N   0  0  0  0  0  0  0  0  0  0  0  0
   -1.9650   23.4230  -29.6700 C   0  0  0  0  0  0  0  0  0  0  0  0
   -3.3100   21.8330  -28.5970 C   0  0  0  0  0  0  0  0  0  0  0  0
   -2.5080   20.8350  -29.3950 C   0  0  0  0  0  0  0  0  0  0  0  0
   -3.7720   20.6120  -32.8370 C   0  0  0  0  0  0  0  0  0  0  0  0
   -2.6960   21.4690  -32.7970 C   0  0  0  0  0  0  0  0  0  0  0  0
   -1.4930   21.2360  -33.4060 C   0  0  0  0  0  0  0  0  0  0  0  0
   -1.3460   20.0660  -34.1070 C   0  0  0  0  0  0  0  0  0  0  0  0
   -2.4050   19.1900  -34.1630 C   0  0  0  0  0  0  0  0  0  0  0  0
   -3.6240   19.4430  -33.5360 C   0  0  0  0  0  0  0  0  0  0  0  0
   -4.6450   18.5290  -33.6240 N   0  0  0  0  0  0  0  0  0  0  0  0
   -4.3500   17.3620  -34.3850 C   0  0  0  0  0  0  0  0  0  0  0  0
   -9.3794   23.8036  -31.6196 H   0  0  0  0  0  0  0  0  0  0  0  0
   -8.1902   22.8562  -32.5760 H   0  0  0  0  0  0  0  0  0  0  0  0
   -9.9232   22.3837  -32.5760 H   0  0  0  0  0  0  0  0  0  0  0  0
   -9.0079   22.4710  -29.8481 H   0  0  0  0  0  0  0  0  0  0  0  0
   -9.5646   21.0565  -30.7886 H   0  0  0  0  0  0  0  0  0  0  0  0
   -6.8560   21.9720  -30.2470 H   0  0  0  0  0  0  0  0  0  0  0  0
   -9.1275   19.5049  -31.2794 H   0  0  0  0  0  0  0  0  0  0  0  0
   -8.8306   17.4310  -32.5367 H   0  0  0  0  0  0  0  0  0  0  0  0
   -6.6654   16.9694  -33.6637 H   0  0  0  0  0  0  0  0  0  0  0  0
   -4.4880   22.4210  -30.6640 H   0  0  0  0  0  0  0  0  0  0  0  0
   -5.2975   23.3553  -33.2880 H   0  0  0  0  0  0  0  0  0  0  0  0
   -6.7950   22.8988  -32.3389 H   0  0  0  0  0  0  0  0  0  0  0  0
   -5.6506   25.3158  -32.4107 H   0  0  0  0  0  0  0  0  0  0  0  0
   -6.6955   24.5541  -31.0531 H   0  0  0  0  0  0  0  0  0  0  0  0
   -5.4380   25.6321  -28.9685 H   0  0  0  0  0  0  0  0  0  0  0  0
   -5.8803   23.8821  -29.3237 H   0  0  0  0  0  0  0  0  0  0  0  0
   -3.2639   24.9992  -28.3275 H   0  0  0  0  0  0  0  0  0  0  0  0
   -4.3498   23.7930  -27.5616 H   0  0  0  0  0  0  0  0  0  0  0  0
   -1.3020   23.5788  -28.8062 H   0  0  0  0  0  0  0  0  0  0  0  0
   -1.5842   22.5899  -30.2790 H   0  0  0  0  0  0  0  0  0  0  0  0
   -1.9950   24.3385  -30.2790 H   0  0  0  0  0  0  0  0  0  0  0  0
   -2.8878   21.9076  -27.5840 H   0  0  0  0  0  0  0  0  0  0  0  0
   -4.3545   21.4909  -28.5520 H   0  0  0  0  0  0  0  0  0  0  0  0
   -1.9695   20.1648  -28.7088 H   0  0  0  0  0  0  0  0  0  0  0  0
   -3.1850   20.2436  -30.0290 H   0  0  0  0  0  0  0  0  0  0  0  0
   -1.7848   21.3688  -30.0290 H   0  0  0  0  0  0  0  0  0  0  0  0
   -2.8112   22.4079  -32.2356 H   0  0  0  0  0  0  0  0  0  0  0  0
   -0.6706   21.9631  -33.3358 H   0  0  0  0  0  0  0  0  0  0  0  0
   -0.3986   19.8327  -34.6150 H   0  0  0  0  0  0  0  0  0  0  0  0
   -2.2851   18.2521  -34.7251 H   0  0  0  0  0  0  0  0  0  0  0  0
   -4.1382   16.5242  -33.7043 H   0  0  0  0  0  0  0  0  0  0  0  0
   -5.2127   17.1101  -35.0192 H   0  0  0  0  0  0  0  0  0  0  0  0
   -3.4712   17.5503  -35.0192 H   0  0  0  0  0  0  0  0  0  0  0  0
  1  2  1  0
  2  3  1  0
  3  4  1  0
  4  5  2  0
  5  6  1  0
  6  7  2  0
  7  8  1  0
  8  9  2  0
  9 10  1  0
 10 11  1  0
 11 12  1  0
 12 13  1  0
 13 14  1  0
 14 15  1  0
 15 16  1  0
 16 17  1  0
 17 18  1  0
 17 19  1  0
 19 20  1  0
 10 21  2  0
 21 22  1  0
 22 23  2  0
 23 24  1  0
 24 25  2  0
 25 26  1  0
 26 27  2  0
 27 28  1  0
  9  4  1  0
 26 21  1  0
 27  8  1  0
  1 29  1  0
  1 30  1  0
  1 31  1  0
  2 32  1  0
  2 33  1  0
  3 34  1  0
  5 35  1  0
  6 36  1  0
  7 37  1  0
 11 38  1  0
 12 39  1  0
 12 40  1  0
 13 41  1  0
 13 42  1  0
 15 43  1  0
 15 44  1  0
 16 45  1  0
 16 46  1  0
 18 47  1  0
 18 48  1  0
 18 49  1  0
 19 50  1  0
 19 51  1  0
 20 52  1  0
 20 53  1  0
 20 54  1  0
 22 55  1  0
 23 56  1  0
 24 57  1  0
 25 58  1  0
 28 59  1  0
 28 60  1  0
 28 61  1  0
M  CHG  1  27   1
M  END
>  <smiles>  (15) 
CCNc1cccc2c1c(NCCOCCN(C)CC)c1ccccc1[n+]2C

>  <score_type>  (15) 
oracle

>  <origin>  (15) 
adg

>  <m_score__min__energy>  (15) 
-8.7200000000000006

>  <m_primary>  (15) 
energy

$$$$
16:0
     RDKit          3D

 42 44  0  0  1  0  0  0  0  0999 V2000
   -1.7440   18.9430  -34.1740 C   0  0  0  0  0  0  0  0  0  0  0  0
   -3.1920   19.0540  -33.9430 C   0  0  0  0  0  0  0  0  0  0  0  0
   -4.0230   18.0780  -34.3890 C   0  0  0  0  0  0  0  0  0  0  0  0
   -5.3900   18.0570  -34.2410 C   0  0  0  0  0  0  0  0  0  0  0  0
   -5.9270   19.1560  -33.5700 C   0  0  0  0  0  0  0  0  0  0  0  0
   -7.2640   19.1400  -33.4230 N   0  0  0  0  0  0  0  0  0  0  0  0
   -7.9130   20.1360  -32.7960 C   0  0  0  0  0  0  0  0  0  0  0  0
   -9.2850   20.1030  -32.6530 C   0  0  0  0  0  0  0  0  0  0  0  0
   -9.8560   21.1770  -31.9910 C   0  0  0  0  0  0  0  0  0  0  0  0
   -9.1260   22.2260  -31.4940 C   0  0  0  0  0  0  0  0  0  0  0  0
   -7.7620   22.1930  -31.6720 C   0  0  0  0  0  0  0  0  0  0  0  0
   -7.1300   21.1660  -32.3160 C   0  0  0  0  0  0  0  0  0  0  0  0
   -5.7530   21.1970  -32.4590 C   0  0  0  0  0  0  0  0  0  0  0  0
   -5.1260   22.1640  -31.9980 N   0  0  0  0  0  0  0  0  0  0  0  0
   -4.5400   22.3040  -30.7270 C   0  0  0  0  0  0  0  0  0  0  0  0
   -3.4880   23.4230  -31.0530 C   0  0  0  0  0  0  0  0  0  0  0  0
   -3.9520   24.6560  -30.4480 N   0  0  0  0  0  0  0  0  0  0  0  0
   -3.9250   24.4310  -29.0200 C   0  0  0  0  0  0  0  0  0  0  0  0
   -5.2990   24.9610  -30.8320 C   0  0  0  0  0  0  0  0  0  0  0  0
   -5.1140   20.1740  -33.1010 C   0  0  0  0  0  0  0  0  0  0  0  0
   -3.7650   20.1570  -33.2670 C   0  0  0  0  0  0  0  0  0  0  0  0
   -1.2205   18.9029  -33.2074 H   0  0  0  0  0  0  0  0  0  0  0  0
   -1.5328   18.0260  -34.7437 H   0  0  0  0  0  0  0  0  0  0  0  0
   -1.3955   19.8171  -34.7437 H   0  0  0  0  0  0  0  0  0  0  0  0
   -3.5624   17.2289  -34.9152 H   0  0  0  0  0  0  0  0  0  0  0  0
   -6.0134   17.2352  -34.6231 H   0  0  0  0  0  0  0  0  0  0  0  0
   -7.8480   18.3410  -33.7990 H   0  0  0  0  0  0  0  0  0  0  0  0
   -9.8905   19.2713  -33.0425 H   0  0  0  0  0  0  0  0  0  0  0  0
  -10.9478   21.1892  -31.8574 H   0  0  0  0  0  0  0  0  0  0  0  0
   -9.6129   23.0631  -30.9722 H   0  0  0  0  0  0  0  0  0  0  0  0
   -7.1571   23.0246  -31.2813 H   0  0  0  0  0  0  0  0  0  0  0  0
   -5.2694   22.6330  -29.9721 H   0  0  0  0  0  0  0  0  0  0  0  0
   -4.1253   21.3805  -30.2967 H   0  0  0  0  0  0  0  0  0  0  0  0
   -2.5076   23.1477  -30.6371 H   0  0  0  0  0  0  0  0  0  0  0  0
   -3.3808   23.5450  -32.1410 H   0  0  0  0  0  0  0  0  0  0  0  0
   -4.0402   25.3909  -28.4953 H   0  0  0  0  0  0  0  0  0  0  0  0
   -4.7489   23.7584  -28.7391 H   0  0  0  0  0  0  0  0  0  0  0  0
   -2.9654   23.9725  -28.7391 H   0  0  0  0  0  0  0  0  0  0  0  0
   -5.9145   25.1004  -29.9310 H   0  0  0  0  0  0  0  0  0  0  0  0
   -5.3097   25.8843  -31.4298 H   0  0  0  0  0  0  0  0  0  0  0  0
   -5.7064   24.1324  -31.4298 H   0  0  0  0  0  0  0  0  0  0  0  0
   -3.1373   20.9765  -32.8870 H   0  0  0  0  0  0  0  0  0  0  0  0
  1  2  1  0
  2  3  2  0
  3  4  1  0
  4  5  2  0
  5  6  1  0
  6  7  1  0
  7  8  2  0
  8  9  1  0
  9 10  2  0
 10 11  1  0
 11 12  2  0
 12 13  1  0
 13 14  2  0
 14 15  1  0
 15 16  1  0
 16 17  1  0
 17 18  1  0
 17 19  1  0
 13 20  1  0
 20 21  2  0
 21  2  1  0
 20  5  1  0
 12  7  1  0
  1 22  1  0
  1 23  1  0
  1 24  1  0
  3 25  1  0
  4 26  1  0
  6 27  1  0
  8 28  1  0
  9 29  1  0
 10 30  1  0
 11 31  1  0
 15 32  1  0
 15 33  1  0
 16 34  1  0
 16 35  1  0
 18 36  1  0
 18 37  1  0
 18 38  1  0
 19 39  1  0
 19 40  1  0
 19 41  1  0
 21 42  1  0
M  END
>  <smiles>  (16) 
Cc1ccc2[nH]c3ccccc3c(=NCCN(C)C)c2c1

>  <score_type>  (16) 
oracle

>  <origin>  (16) 
adg

>  <m_score__min__energy>  (16) 
-8.0199999999999996

>  <m_primary>  (16) 
energy

$$$$
17:0
     RDKit          3D

 58 58  0  0  0  0  0  0  0  0999 V2000
   -4.0760   24.4440  -30.1470 C   0  0  0  0  0  0  0  0  0  0  0  0
   -5.3320   25.2850  -30.1300 C   0  0  0  0  0  0  0  0  0  0  0  0
   -6.5610   24.4390  -30.4450 C   0  0  0  0  0  0  0  0  0  0  0  0
   -6.2920   23.8450  -31.8300 C   0  0  0  0  0  0  0  0  0  0  0  0
   -7.5630   23.2510  -32.3430 C   0  0  0  0  0  0  0  0  0  0  0  0
   -8.2540   22.3670  -31.3370 C   0  0  0  0  0  0  0  0  0  0  0  0
   -9.5160   21.8010  -31.9700 C   0  0  0  0  0  0  0  0  0  0  0  0
   -9.3250   20.3280  -32.2880 C   0  0  0  0  0  0  0  0  0  0  0  0
   -8.3280   19.6530  -31.3740 C   0  0  0  0  0  0  0  0  0  0  0  0
   -8.3480   18.1760  -31.6280 C   0  0  0  0  0  0  0  0  0  0  0  0
   -7.6050   17.8000  -32.8900 C   0  0  0  0  0  0  0  0  0  0  0  0
   -6.3780   17.0210  -32.5520 C   0  0  0  0  0  0  0  0  0  0  0  0
   -5.4630   16.9350  -33.7230 C   0  0  0  0  0  0  0  0  0  0  0  0
   -5.5980   18.1840  -34.5760 C   0  0  0  0  0  0  0  0  0  0  0  0
   -5.0340   19.3130  -33.8690 N   0  0  0  0  0  0  0  0  0  0  0  0
   -5.6130   20.3960  -33.3370 C   0  0  0  0  0  0  0  0  0  0  0  0
   -4.6790   21.2290  -32.7540 C   0  0  0  0  0  0  0  0  0  0  0  0
   -3.4960   20.6170  -32.9480 N   0  0  0  0  0  0  0  0  0  0  0  0
   -2.1900   21.1240  -32.5000 C   0  0  0  0  0  0  0  0  0  0  0  0
   -3.7070   19.4720  -33.6130 C   0  0  0  0  0  0  0  0  0  0  0  0
   -2.6070   18.5450  -33.9940 C   0  0  0  0  0  0  0  0  0  0  0  0
   -3.7617   24.2335  -29.1141 H   0  0  0  0  0  0  0  0  0  0  0  0
   -4.2759   23.4970  -30.6696 H   0  0  0  0  0  0  0  0  0  0  0  0
   -3.2765   24.9895  -30.6696 H   0  0  0  0  0  0  0  0  0  0  0  0
   -5.4506   25.7342  -29.1329 H   0  0  0  0  0  0  0  0  0  0  0  0
   -5.2397   26.0679  -30.8972 H   0  0  0  0  0  0  0  0  0  0  0  0
   -6.6813   23.6398  -29.6988 H   0  0  0  0  0  0  0  0  0  0  0  0
   -7.4866   25.0330  -30.4240 H   0  0  0  0  0  0  0  0  0  0  0  0
   -5.9492   24.6359  -32.5133 H   0  0  0  0  0  0  0  0  0  0  0  0
   -5.5126   23.0716  -31.7647 H   0  0  0  0  0  0  0  0  0  0  0  0
   -8.2456   24.0690  -32.6167 H   0  0  0  0  0  0  0  0  0  0  0  0
   -7.3041   22.6219  -33.2074 H   0  0  0  0  0  0  0  0  0  0  0  0
   -7.5847   21.5439  -31.0462 H   0  0  0  0  0  0  0  0  0  0  0  0
   -8.5134   22.9505  -30.4413 H   0  0  0  0  0  0  0  0  0  0  0  0
  -10.3570   21.9161  -31.2704 H   0  0  0  0  0  0  0  0  0  0  0  0
   -9.7270   22.3461  -32.9019 H   0  0  0  0  0  0  0  0  0  0  0  0
  -10.2947   19.8186  -32.1869 H   0  0  0  0  0  0  0  0  0  0  0  0
   -8.9316   20.2600  -33.3130 H   0  0  0  0  0  0  0  0  0  0  0  0
   -7.3205   20.0470  -31.5735 H   0  0  0  0  0  0  0  0  0  0  0  0
   -8.5947   19.8513  -30.3254 H   0  0  0  0  0  0  0  0  0  0  0  0
   -7.8781   17.6641  -30.7752 H   0  0  0  0  0  0  0  0  0  0  0  0
   -9.3974   17.8703  -31.7519 H   0  0  0  0  0  0  0  0  0  0  0  0
   -8.2594   17.1885  -33.5286 H   0  0  0  0  0  0  0  0  0  0  0  0
   -7.3129   18.7175  -33.4218 H   0  0  0  0  0  0  0  0  0  0  0  0
   -5.8542   17.5169  -31.7215 H   0  0  0  0  0  0  0  0  0  0  0  0
   -6.6770   16.0022  -32.2646 H   0  0  0  0  0  0  0  0  0  0  0  0
   -4.4253   16.8450  -33.3694 H   0  0  0  0  0  0  0  0  0  0  0  0
   -5.7276   16.0538  -34.3259 H   0  0  0  0  0  0  0  0  0  0  0  0
   -5.0608   18.0399  -35.5250 H   0  0  0  0  0  0  0  0  0  0  0  0
   -6.6616   18.3743  -34.7824 H   0  0  0  0  0  0  0  0  0  0  0  0
   -6.6943   20.5967  -33.3611 H   0  0  0  0  0  0  0  0  0  0  0  0
   -4.8619   22.1853  -32.2421 H   0  0  0  0  0  0  0  0  0  0  0  0
   -2.1589   21.1361  -31.4005 H   0  0  0  0  0  0  0  0  0  0  0  0
   -1.3922   20.4703  -32.8822 H   0  0  0  0  0  0  0  0  0  0  0  0
   -2.0422   22.1448  -32.8822 H   0  0  0  0  0  0  0  0  0  0  0  0
   -2.1329   18.1455  -33.0854 H   0  0  0  0  0  0  0  0  0  0  0  0
   -3.0163   17.7154  -34.5891 H   0  0  0  0  0  0  0  0  0  0  0  0
   -1.8587   19.0889  -34.5891 H   0  0  0  0  0  0  0  0  0  0  0  0
  1  2  1  0
  2  3  1  0
  3  4  1  0
  4  5  1  0
  5  6  1  0
  6  7  1  0
  7  8  1  0
  8  9  1  0
  9 10  1  0
 10 11  1  0
 11 12  1  0
 12 13  1  0
 13 14  1  0
 14 15  1  0
 15 16  1  0
 16 17  2  0
 17 18  1  0
 18 19  1  0
 18 20  2  0
 20 21  1  0
 20 15  1  0
  1 22  1  0
  1 23  1  0
  1 24  1  0
  2 25  1  0
  2 26  1  0
  3 27  1  0
  3 28  1  0
  4 29  1  0
  4 30  1  0
  5 31  1  0
  5 32  1  0
  6 33  1  0
  6 34  1  0
  7 35  1  0
  7 36  1  0
  8 37  1  0
  8 38  1  0
  9 39  1  0
  9 40  1  0
 10 41  1  0
 10 42  1  0
 11 43  1  0
 11 44  1  0
 12 45  1  0
 12 46  1  0
 13 47  1  0
 13 48  1  0
 14 49  1  0
 14 50  1  0
 16 51  1  0
 17 52  1  0
 19 53  1  0
 19 54  1  0
 19 55  1  0
 21 56  1  0
 21 57  1  0
 21 58  1  0
M  CHG  1  18   1
M  END
>  <smiles>  (17) 
CCCCCCCCCCCCCCn1cc[n+](C)c1C

>  <score_type>  (17) 
oracle

>  <origin>  (17) 
adg

>  <m_score__min__energy>  (17) 
-6.2300000000000004

>  <m_primary>  (17) 
energy

$$$$
18:0
     RDKit          3D

 43 44  0  0  0  0  0  0  0  0999 V2000
   -8.8700   18.5830  -31.6410 C   0  0  0  0  0  0  0  0  0  0  0  0
   -8.7830   20.0700  -31.7290 C   0  0  0  0  0  0  0  0  0  0  0  0
   -7.4370   20.5940  -31.6900 N   0  0  0  0  0  0  0  0  0  0  0  0
   -7.3390   21.8040  -30.8960 C   0  0  0  0  0  0  0  0  0  0  0  0
   -7.6070   23.0200  -31.7380 C   0  0  0  0  0  0  0  0  0  0  0  0
   -6.5680   24.0120  -31.6640 N   0  0  0  0  0  0  0  0  0  0  0  0
   -6.4850   24.6630  -30.3800 C   0  0  0  0  0  0  0  0  0  0  0  0
   -5.3630   25.6830  -30.4710 C   0  0  0  0  0  0  0  0  0  0  0  0
   -4.1370   25.0350  -30.5320 O   0  0  0  0  0  0  0  0  0  0  0  0
   -4.2650   23.7020  -30.8170 C   0  0  0  0  0  0  0  0  0  0  0  0
   -5.2870   23.3720  -31.8830 C   0  0  0  0  0  0  0  0  0  0  0  0
   -6.8880   20.7350  -33.0070 C   0  0  0  0  0  0  0  0  0  0  0  0
   -6.0000   19.6240  -33.4160 C   0  0  0  0  0  0  0  0  0  0  0  0
   -6.3740   18.3440  -33.8320 C   0  0  0  0  0  0  0  0  0  0  0  0
   -5.2490   17.6100  -34.1230 C   0  0  0  0  0  0  0  0  0  0  0  0
   -4.1840   18.4470  -33.8810 C   0  0  0  0  0  0  0  0  0  0  0  0
   -4.6400   19.6430  -33.4610 N   0  0  0  0  0  0  0  0  0  0  0  0
   -3.7960   20.7790  -33.1120 C   0  0  0  0  0  0  0  0  0  0  0  0
   -8.8878   18.2787  -30.5841 H   0  0  0  0  0  0  0  0  0  0  0  0
   -9.7898   18.2395  -32.1370 H   0  0  0  0  0  0  0  0  0  0  0  0
   -7.9966   18.1346  -32.1370 H   0  0  0  0  0  0  0  0  0  0  0  0
   -9.2477   20.3861  -32.6746 H   0  0  0  0  0  0  0  0  0  0  0  0
   -9.2995   20.4670  -30.8426 H   0  0  0  0  0  0  0  0  0  0  0  0
   -8.0761   21.7607  -30.0807 H   0  0  0  0  0  0  0  0  0  0  0  0
   -6.3198   21.8759  -30.4884 H   0  0  0  0  0  0  0  0  0  0  0  0
   -7.7099   22.7016  -32.7859 H   0  0  0  0  0  0  0  0  0  0  0  0
   -8.5253   23.4850  -31.3500 H   0  0  0  0  0  0  0  0  0  0  0  0
   -7.4355   25.1665  -30.1496 H   0  0  0  0  0  0  0  0  0  0  0  0
   -6.2877   23.9326  -29.5815 H   0  0  0  0  0  0  0  0  0  0  0  0
   -5.4980   26.2934  -31.3761 H   0  0  0  0  0  0  0  0  0  0  0  0
   -5.3872   26.3274  -29.5798 H   0  0  0  0  0  0  0  0  0  0  0  0
   -3.2867   23.3297  -31.1551 H   0  0  0  0  0  0  0  0  0  0  0  0
   -4.6187   23.2222  -29.8925 H   0  0  0  0  0  0  0  0  0  0  0  0
   -4.8945   23.6999  -32.8569 H   0  0  0  0  0  0  0  0  0  0  0  0
   -5.4548   22.2854  -31.8493 H   0  0  0  0  0  0  0  0  0  0  0  0
   -7.7206   20.7928  -33.7235 H   0  0  0  0  0  0  0  0  0  0  0  0
   -6.2709   21.6455  -32.9965 H   0  0  0  0  0  0  0  0  0  0  0  0
   -7.4087   17.9799  -33.9140 H   0  0  0  0  0  0  0  0  0  0  0  0
   -5.2084   16.5690  -34.4762 H   0  0  0  0  0  0  0  0  0  0  0  0
   -3.1246   18.1808  -34.0104 H   0  0  0  0  0  0  0  0  0  0  0  0
   -3.7318   20.8654  -32.0173 H   0  0  0  0  0  0  0  0  0  0  0  0
   -2.7887   20.6288  -33.5277 H   0  0  0  0  0  0  0  0  0  0  0  0
   -4.2306   21.7001  -33.5277 H   0  0  0  0  0  0  0  0  0  0  0  0
  1  2  1  0
  2  3  1  0
  3  4  1  0
  4  5  1  0
  5  6  1  0
  6  7  1  0
  7  8  1  0
  8  9  1  0
  9 10  1  0
 10 11  1  0
  3 12  1  0
 12 13  1  0
 13 14  2  0
 14 15  1  0
 15 16  2  0
 16 17  1  0
 17 18  1  0
 11  6  1  0
 17 13  1  0
  1 19  1  0
  1 20  1  0
  1 21  1  0
  2 22  1  0
  2 23  1  0
  4 24  1  0
  4 25  1  0
  5 26  1  0
  5 27  1  0
  7 28  1  0
  7 29  1  0
  8 30  1  0
  8 31  1  0
 10 32  1  0
 10 33  1  0
 11 34  1  0
 11 35  1  0
 12 36  1  0
 12 37  1  0
 14 38  1  0
 15 39  1  0
 16 40  1  0
 18 41  1  0
 18 42  1  0
 18 43  1  0
M  END
>  <smiles>  (18) 
CCN(CCN1CCOCC1)Cc1cccn1C

>  <score_type>  (18) 
oracle

>  <origin>  (18) 
adg

>  <m_score__min__energy>  (18) 
-7.0300000000000002

>  <m_primary>  (18) 
energy

$$$$
19:0
     RDKit          3D

 41 43  0  0  0  0  0  0  0  0999 V2000
   -0.4840   25.4640  -25.7380 C   0  0  0  0  0  0  0  0  0  0  0  0
    0.6470   25.7270  -26.6850 C   0  0  0  0  0  0  0  0  0  0  0  0
    0.6100   24.9120  -27.8370 O   0  0  0  0  0  0  0  0  0  0  0  0
   -0.4820   24.2240  -28.2870 C   0  0  0  0  0  0  0  0  0  0  0  0
   -0.7050   22.8780  -28.1050 C   0  0  0  0  0  0  0  0  0  0  0  0
   -1.8260   22.2220  -28.5790 C   0  0  0  0  0  0  0  0  0  0  0  0
   -2.7490   22.9860  -29.2640 C   0  0  0  0  0  0  0  0  0  0  0  0
   -3.8840   22.3530  -29.7500 C   0  0  0  0  0  0  0  0  0  0  0  0
   -4.7850   23.1580  -30.4350 C   0  0  0  0  0  0  0  0  0  0  0  0
   -6.0050   22.5650  -30.9770 C   0  0  0  0  0  0  0  0  0  0  0  0
   -7.1520   22.6620  -30.2150 C   0  0  0  0  0  0  0  0  0  0  0  0
   -8.3400   22.1280  -30.6600 C   0  0  0  0  0  0  0  0  0  0  0  0
   -8.3770   21.4820  -31.8960 C   0  0  0  0  0  0  0  0  0  0  0  0
   -7.2150   21.4000  -32.6390 C   0  0  0  0  0  0  0  0  0  0  0  0
   -6.0140   21.9290  -32.2100 C   0  0  0  0  0  0  0  0  0  0  0  0
   -4.8580   21.8460  -32.9520 O   0  0  0  0  0  0  0  0  0  0  0  0
   -4.0520   20.6750  -32.9240 C   0  0  0  0  0  0  0  0  0  0  0  0
   -2.6010   21.1070  -32.9370 C   0  0  0  0  0  0  0  0  0  0  0  0
   -4.5750   24.5100  -30.6260 C   0  0  0  0  0  0  0  0  0  0  0  0
   -5.4030   25.2380  -31.2510 O   0  0  0  0  0  0  0  0  0  0  0  0
   -3.4790   25.0570  -30.1410 O   0  0  0  0  0  0  0  0  0  0  0  0
   -2.5850   24.3390  -29.4810 C   0  0  0  0  0  0  0  0  0  0  0  0
   -1.4490   24.9250  -28.9840 C   0  0  0  0  0  0  0  0  0  0  0  0
   -0.1223   25.5481  -24.7026 H   0  0  0  0  0  0  0  0  0  0  0  0
   -1.2834   26.2002  -25.9081 H   0  0  0  0  0  0  0  0  0  0  0  0
   -0.8766   24.4506  -25.9081 H   0  0  0  0  0  0  0  0  0  0  0  0
    0.6011   26.7799  -27.0002 H   0  0  0  0  0  0  0  0  0  0  0  0
    1.5804   25.4953  -26.1511 H   0  0  0  0  0  0  0  0  0  0  0  0
    0.0472   22.2943  -27.5542 H   0  0  0  0  0  0  0  0  0  0  0  0
   -1.9749   21.1441  -28.4181 H   0  0  0  0  0  0  0  0  0  0  0  0
   -4.0598   21.2773  -29.6016 H   0  0  0  0  0  0  0  0  0  0  0  0
   -7.1161   23.1719  -29.2410 H   0  0  0  0  0  0  0  0  0  0  0  0
   -9.2503   22.2097  -30.0478 H   0  0  0  0  0  0  0  0  0  0  0  0
   -9.3142   21.0459  -32.2721 H   0  0  0  0  0  0  0  0  0  0  0  0
   -7.2481   20.8916  -33.6139 H   0  0  0  0  0  0  0  0  0  0  0  0
   -4.2620   20.0987  -32.0109 H   0  0  0  0  0  0  0  0  0  0  0  0
   -4.2699   20.0395  -33.7950 H   0  0  0  0  0  0  0  0  0  0  0  0
   -2.2411   21.2142  -31.9031 H   0  0  0  0  0  0  0  0  0  0  0  0
   -1.9976   20.3496  -33.4587 H   0  0  0  0  0  0  0  0  0  0  0  0
   -2.5101   22.0712  -33.4587 H   0  0  0  0  0  0  0  0  0  0  0  0
   -1.3002   26.0026  -29.1474 H   0  0  0  0  0  0  0  0  0  0  0  0
  1  2  1  0
  2  3  1  0
  3  4  1  0
  4  5  2  0
  5  6  1  0
  6  7  2  0
  7  8  1  0
  8  9  2  0
  9 10  1  0
 10 11  2  0
 11 12  1  0
 12 13  2  0
 13 14  1  0
 14 15  2  0
 15 16  1  0
 16 17  1  0
 17 18  1  0
  9 19  1  0
 19 20  2  0
 19 21  1  0
 21 22  1  0
 22 23  2  0
 23  4  1  0
 22  7  1  0
 15 10  1  0
  1 24  1  0
  1 25  1  0
  1 26  1  0
  2 27  1  0
  2 28  1  0
  5 29  1  0
  6 30  1  0
  8 31  1  0
 11 32  1  0
 12 33  1  0
 13 34  1  0
 14 35  1  0
 17 36  1  0
 17 37  1  0
 18 38  1  0
 18 39  1  0
 18 40  1  0
 23 41  1  0
M  END
>  <smiles>  (19) 
CCOc1ccc2cc(-c3ccccc3OCC)c(=O)oc2c1

>  <score_type>  (19) 
oracle

>  <origin>  (19) 
adg

>  <m_score__min__energy>  (19) 
-7.5499999999999998

>  <m_primary>  (19) 
energy

$$$$
20:0
     RDKit          3D

 57 61  0  0  1  0  0  0  0  0999 V2000
   -4.3120   21.7050  -30.3490 C   0  0  0  0  0  0  0  0  0  0  0  0
   -4.3920   23.1190  -30.5860 N   0  0  0  0  0  0  0  0  0  0  0  0
   -5.3600   23.7590  -31.2400 C   0  0  0  0  0  0  0  0  0  0  0  0
   -6.8280   23.1320  -32.0230 S   0  0  0  0  0  0  0  0  0  0  0  0
   -8.0020   22.6120  -30.7780 C   0  0  0  0  0  0  0  0  0  0  0  0
   -8.3090   21.1320  -30.8920 C   0  0  0  0  0  0  0  0  0  0  0  0
   -8.9900   20.9610  -32.2380 C   0  0  0  0  0  0  0  0  0  0  0  0
   -8.4970   19.7180  -32.7890 N   0  0  0  0  0  0  0  0  0  0  0  0
   -8.3880   18.7690  -31.6530 C   0  0  0  0  0  0  0  0  0  0  0  0
   -7.1240   18.1700  -31.9070 C   0  0  1  0  0  0  0  0  0  0  0  0
   -6.1720   17.2830  -31.3520 C   0  0  0  0  0  0  0  0  0  0  0  0
   -5.0040   17.4190  -32.3530 C   0  0  0  0  0  0  0  0  0  0  0  0
   -5.1010   18.6670  -33.2280 C   0  0  0  0  0  0  0  0  0  0  0  0
   -3.8900   18.8070  -34.1000 C   0  0  0  0  0  0  0  0  0  0  0  0
   -4.2180   19.8100  -33.0220 C   0  0  0  0  0  0  0  0  0  0  0  0
   -6.4240   18.8530  -33.9690 C   0  0  1  0  0  0  0  0  0  0  0  0
   -7.2190   17.7330  -33.3530 C   0  0  0  0  0  0  0  0  0  0  0  0
   -7.2350   20.0400  -33.4290 C   0  0  0  0  0  0  0  0  0  0  0  0
   -5.0370   25.0710  -31.2210 N   0  0  0  0  0  0  0  0  0  0  0  0
   -3.9050   25.2420  -30.5770 N   0  0  0  0  0  0  0  0  0  0  0  0
   -3.5010   24.0240  -30.1800 C   0  0  0  0  0  0  0  0  0  0  0  0
   -2.2610   23.8170  -29.4180 C   0  0  0  0  0  0  0  0  0  0  0  0
   -1.3980   22.7740  -29.6680 C   0  0  0  0  0  0  0  0  0  0  0  0
   -0.2560   22.6810  -28.8780 C   0  0  0  0  0  0  0  0  0  0  0  0
   -0.0120   23.6070  -27.8830 C   0  0  0  0  0  0  0  0  0  0  0  0
   -0.8720   24.6560  -27.6250 C   0  0  0  0  0  0  0  0  0  0  0  0
   -2.0020   24.7380  -28.4160 C   0  0  0  0  0  0  0  0  0  0  0  0
   -4.3012   21.5148  -29.2656 H   0  0  0  0  0  0  0  0  0  0  0  0
   -5.1834   21.2078  -30.7999 H   0  0  0  0  0  0  0  0  0  0  0  0
   -3.3900   21.3092  -30.7999 H   0  0  0  0  0  0  0  0  0  0  0  0
   -7.5810   22.8146  -29.7821 H   0  0  0  0  0  0  0  0  0  0  0  0
   -8.9367   23.1723  -30.9277 H   0  0  0  0  0  0  0  0  0  0  0  0
   -7.3809   20.5429  -30.8532 H   0  0  0  0  0  0  0  0  0  0  0  0
   -8.9454   20.7826  -30.0656 H   0  0  0  0  0  0  0  0  0  0  0  0
  -10.0814   20.9138  -32.1091 H   0  0  0  0  0  0  0  0  0  0  0  0
   -8.7726   21.8077  -32.9058 H   0  0  0  0  0  0  0  0  0  0  0  0
   -8.3969   19.2952  -30.6871 H   0  0  0  0  0  0  0  0  0  0  0  0
   -9.2195   18.0520  -31.5851 H   0  0  0  0  0  0  0  0  0  0  0  0
   -6.6765   18.9633  -31.2903 H   0  0  0  0  0  0  0  0  0  0  0  0
   -5.8730   17.5959  -30.3407 H   0  0  0  0  0  0  0  0  0  0  0  0
   -6.5380   16.2532  -31.2271 H   0  0  0  0  0  0  0  0  0  0  0  0
   -4.0620   17.4619  -31.7867 H   0  0  0  0  0  0  0  0  0  0  0  0
   -5.0455   16.5473  -33.0227 H   0  0  0  0  0  0  0  0  0  0  0  0
   -3.0375   18.1222  -33.9806 H   0  0  0  0  0  0  0  0  0  0  0  0
   -3.6971   18.8464  -35.1822 H   0  0  0  0  0  0  0  0  0  0  0  0
   -3.5952   19.8655  -32.1170 H   0  0  0  0  0  0  0  0  0  0  0  0
   -4.3572   20.9008  -32.9962 H   0  0  0  0  0  0  0  0  0  0  0  0
   -6.2584   18.9338  -35.0535 H   0  0  0  0  0  0  0  0  0  0  0  0
   -8.2579   17.7132  -33.7139 H   0  0  0  0  0  0  0  0  0  0  0  0
   -6.8643   16.7150  -33.5717 H   0  0  0  0  0  0  0  0  0  0  0  0
   -6.6099   20.5655  -32.6921 H   0  0  0  0  0  0  0  0  0  0  0  0
   -7.4986   20.6411  -34.3117 H   0  0  0  0  0  0  0  0  0  0  0  0
   -1.6034   22.0415  -30.4625 H   0  0  0  0  0  0  0  0  0  0  0  0
    0.4588   21.8623  -29.0477 H   0  0  0  0  0  0  0  0  0  0  0  0
    0.8990   23.5054  -27.2749 H   0  0  0  0  0  0  0  0  0  0  0  0
   -0.6680   25.3889  -26.8305 H   0  0  0  0  0  0  0  0  0  0  0  0
   -2.7158   25.5574  -28.2454 H   0  0  0  0  0  0  0  0  0  0  0  0
  1  2  1  0
  2  3  1  0
  3  4  1  0
  4  5  1  0
  5  6  1  0
  6  7  1  0
  7  8  1  0
  8  9  1  0
  9 10  1  0
 10 11  1  0
 11 12  1  0
 12 13  1  0
 13 14  1  0
 14 15  1  0
 13 16  1  0
 16 17  1  0
 16 18  1  0
  3 19  2  0
 19 20  1  0
 20 21  2  0
 21 22  1  0
 22 23  2  0
 23 24  1  0
 24 25  2  0
 25 26  1  0
 26 27  2  0
 21  2  1  0
 27 22  1  0
 18  8  1  0
 17 10  1  0
 15 13  1  0
  1 28  1  0
  1 29  1  0
  1 30  1  0
  5 31  1  0
  5 32  1  0
  6 33  1  0
  6 34  1  0
  7 35  1  0
  7 36  1  0
  9 37  1  0
  9 38  1  0
 10 39  1  6
 11 40  1  0
 11 41  1  0
 12 42  1  0
 12 43  1  0
 14 44  1  0
 14 45  1  0
 15 46  1  0
 15 47  1  0
 16 48  1  6
 17 49  1  0
 17 50  1  0
 18 51  1  0
 18 52  1  0
 23 53  1  0
 24 54  1  0
 25 55  1  0
 26 56  1  0
 27 57  1  0
M  END
>  <smiles>  (20) 
Cn1c(SCCCN2CC3CCC4(CC4)C(C3)C2)nnc1-c1ccccc1

>  <score_type>  (20) 
oracle

>  <origin>  (20) 
adg

>  <m_score__min__energy>  (20) 
-10.529999999999999

>  <m_primary>  (20) 
energy

$$$$
21:0
     RDKit          3D

 56 58  0  0  0  0  0  0  0  0999 V2000
   -1.9690   20.8800  -30.3210 C   0  0  0  0  0  0  0  0  0  0  0  0
   -1.7280   21.8560  -31.4340 C   0  0  0  0  0  0  0  0  0  0  0  0
   -2.5900   21.7150  -32.5320 O   0  0  0  0  0  0  0  0  0  0  0  0
   -3.0170   20.5200  -33.0850 C   0  0  0  0  0  0  0  0  0  0  0  0
   -2.0650   19.7350  -33.6890 C   0  0  0  0  0  0  0  0  0  0  0  0
   -2.4600   18.5370  -34.2400 C   0  0  0  0  0  0  0  0  0  0  0  0
   -3.8010   18.1450  -34.1740 C   0  0  0  0  0  0  0  0  0  0  0  0
   -4.7510   18.9370  -33.5680 C   0  0  0  0  0  0  0  0  0  0  0  0
   -4.3470   20.1520  -33.0130 C   0  0  0  0  0  0  0  0  0  0  0  0
   -5.2430   20.9610  -32.3680 C   0  0  0  0  0  0  0  0  0  0  0  0
   -4.9750   22.2700  -31.8790 N   0  0  0  0  0  0  0  0  0  0  0  0
   -5.7560   23.4320  -32.2550 C   0  0  0  0  0  0  0  0  0  0  0  0
   -6.1100   24.4310  -31.1950 C   0  0  0  0  0  0  0  0  0  0  0  0
   -4.8890   24.9440  -30.5070 C   0  0  0  0  0  0  0  0  0  0  0  0
   -4.0380   24.0300  -29.8510 N   0  0  0  0  0  0  0  0  0  0  0  0
   -4.9340   23.2060  -28.9840 C   0  0  0  0  0  0  0  0  0  0  0  0
   -3.0790   24.5500  -28.9260 C   0  0  0  0  0  0  0  0  0  0  0  0
   -1.6970   24.0240  -28.9750 C   0  0  0  0  0  0  0  0  0  0  0  0
   -6.5720   20.5080  -32.2850 C   0  0  0  0  0  0  0  0  0  0  0  0
   -7.5300   21.2570  -31.6270 C   0  0  0  0  0  0  0  0  0  0  0  0
   -8.8440   20.8590  -31.4980 C   0  0  0  0  0  0  0  0  0  0  0  0
   -9.2070   19.6690  -32.0490 C   0  0  0  0  0  0  0  0  0  0  0  0
   -8.2630   18.8930  -32.7160 C   0  0  0  0  0  0  0  0  0  0  0  0
   -6.9420   19.2890  -32.8480 C   0  0  0  0  0  0  0  0  0  0  0  0
   -6.0270   18.5030  -33.4930 N   0  0  0  0  0  0  0  0  0  0  0  0
   -6.4890   17.2680  -34.0680 C   0  0  0  0  0  0  0  0  0  0  0  0
   -1.8434   21.3886  -29.3537 H   0  0  0  0  0  0  0  0  0  0  0  0
   -2.9921   20.4831  -30.3965 H   0  0  0  0  0  0  0  0  0  0  0  0
   -1.2482   20.0525  -30.3965 H   0  0  0  0  0  0  0  0  0  0  0  0
   -1.8491   22.8724  -31.0311 H   0  0  0  0  0  0  0  0  0  0  0  0
   -0.7126   21.6578  -31.8077 H   0  0  0  0  0  0  0  0  0  0  0  0
   -1.0136   20.0557  -33.7312 H   0  0  0  0  0  0  0  0  0  0  0  0
   -1.7209   17.8879  -34.7323 H   0  0  0  0  0  0  0  0  0  0  0  0
   -4.1033   17.1839  -34.6154 H   0  0  0  0  0  0  0  0  0  0  0  0
   -4.1680   22.4470  -31.2000 H   0  0  0  0  0  0  0  0  0  0  0  0
   -5.1877   23.9682  -33.0293 H   0  0  0  0  0  0  0  0  0  0  0  0
   -6.7254   23.0151  -32.5657 H   0  0  0  0  0  0  0  0  0  0  0  0
   -6.6409   25.2747  -31.6601 H   0  0  0  0  0  0  0  0  0  0  0  0
   -6.7479   23.9353  -30.4485 H   0  0  0  0  0  0  0  0  0  0  0  0
   -4.2835   25.4595  -31.2670 H   0  0  0  0  0  0  0  0  0  0  0  0
   -5.2875   25.5651  -29.6913 H   0  0  0  0  0  0  0  0  0  0  0  0
   -4.7110   23.4111  -27.9266 H   0  0  0  0  0  0  0  0  0  0  0  0
   -5.9832   23.4613  -29.1936 H   0  0  0  0  0  0  0  0  0  0  0  0
   -4.7673   22.1391  -29.1936 H   0  0  0  0  0  0  0  0  0  0  0  0
   -3.0200   25.6354  -29.0945 H   0  0  0  0  0  0  0  0  0  0  0  0
   -3.4539   24.2337  -27.9414 H   0  0  0  0  0  0  0  0  0  0  0  0
   -1.3224   23.8814  -27.9506 H   0  0  0  0  0  0  0  0  0  0  0  0
   -1.6900   23.0603  -29.5054 H   0  0  0  0  0  0  0  0  0  0  0  0
   -1.0511   24.7392  -29.5054 H   0  0  0  0  0  0  0  0  0  0  0  0
   -7.2291   22.2180  -31.1845 H   0  0  0  0  0  0  0  0  0  0  0  0
   -9.5761   21.4843  -30.9660 H   0  0  0  0  0  0  0  0  0  0  0  0
  -10.2469   19.3199  -31.9674 H   0  0  0  0  0  0  0  0  0  0  0  0
   -8.5765   17.9334  -33.1528 H   0  0  0  0  0  0  0  0  0  0  0  0
   -6.7520   16.5649  -33.2639 H   0  0  0  0  0  0  0  0  0  0  0  0
   -7.3753   17.4620  -34.6899 H   0  0  0  0  0  0  0  0  0  0  0  0
   -5.6929   16.8327  -34.6899 H   0  0  0  0  0  0  0  0  0  0  0  0
  1  2  1  0
  2  3  1  0
  3  4  1  0
  4  5  2  0
  5  6  1  0
  6  7  2  0
  7  8  1  0
  8  9  2  0
  9 10  1  0
 10 11  1  0
 11 12  1  0
 12 13  1  0
 13 14  1  0
 14 15  1  0
 15 16  1  0
 15 17  1  0
 17 18  1  0
 10 19  2  0
 19 20  1  0
 20 21  2  0
 21 22  1  0
 22 23  2  0
 23 24  1  0
 24 25  2  0
 25 26  1  0
  9  4  1  0
 24 19  1  0
 25  8  1  0
  1 27  1  0
  1 28  1  0
  1 29  1  0
  2 30  1  0
  2 31  1  0
  5 32  1  0
  6 33  1  0
  7 34  1  0
 11 35  1  0
 12 36  1  0
 12 37  1  0
 13 38  1  0
 13 39  1  0
 14 40  1  0
 14 41  1  0
 16 42  1  0
 16 43  1  0
 16 44  1  0
 17 45  1  0
 17 46  1  0
 18 47  1  0
 18 48  1  0
 18 49  1  0
 20 50  1  0
 21 51  1  0
 22 52  1  0
 23 53  1  0
 26 54  1  0
 26 55  1  0
 26 56  1  0
M  CHG  1  25   1
M  END
>  <smiles>  (21) 
CCOc1cccc2c1c(NCCCN(C)CC)c1ccccc1[n+]2C

>  <score_type>  (21) 
oracle

>  <origin>  (21) 
adg

>  <m_score__min__energy>  (21) 
-8.3699999999999992

>  <m_primary>  (21) 
energy

$$$$
22:0
     RDKit          3D

 39 41  0  0  0  0  0  0  0  0999 V2000
   -4.3240   21.9890  -32.6950 C   0  0  0  0  0  0  0  0  0  0  0  0
   -5.7020   21.5470  -32.3920 C   0  0  0  0  0  0  0  0  0  0  0  0
   -6.0010   20.1870  -32.2710 C   0  0  0  0  0  0  0  0  0  0  0  0
   -7.2860   19.7720  -31.9880 C   0  0  0  0  0  0  0  0  0  0  0  0
   -7.5410   18.3180  -31.8730 C   0  0  0  0  0  0  0  0  0  0  0  0
   -6.9660   17.5330  -33.0800 C   0  0  0  0  0  0  0  0  0  0  0  0
   -6.4860   17.3400  -31.6450 C   0  0  0  0  0  0  0  0  0  0  0  0
   -8.2890   20.7060  -31.8220 C   0  0  0  0  0  0  0  0  0  0  0  0
   -7.9500   22.0250  -31.9480 C   0  0  0  0  0  0  0  0  0  0  0  0
   -8.8860   22.8720  -31.7920 O   0  0  0  0  0  0  0  0  0  0  0  0
   -6.6880   22.4480  -32.2270 N   0  0  0  0  0  0  0  0  0  0  0  0
   -6.4660   23.8670  -32.3340 C   0  0  0  0  0  0  0  0  0  0  0  0
   -6.0650   24.4520  -31.0150 C   0  0  0  0  0  0  0  0  0  0  0  0
   -4.6550   24.4870  -30.8770 O   0  0  0  0  0  0  0  0  0  0  0  0
   -3.9530   24.0240  -29.7970 C   0  0  0  0  0  0  0  0  0  0  0  0
   -4.5280   24.1590  -28.5470 C   0  0  0  0  0  0  0  0  0  0  0  0
   -3.8320   23.6990  -27.4560 C   0  0  0  0  0  0  0  0  0  0  0  0
   -2.5860   23.1180  -27.6400 C   0  0  0  0  0  0  0  0  0  0  0  0
   -2.0020   22.9760  -28.8720 C   0  0  0  0  0  0  0  0  0  0  0  0
   -2.7120   23.4450  -29.9700 C   0  0  0  0  0  0  0  0  0  0  0  0
   -3.7799   22.1635  -31.7551 H   0  0  0  0  0  0  0  0  0  0  0  0
   -3.8091   21.2109  -33.2777 H   0  0  0  0  0  0  0  0  0  0  0  0
   -4.3578   22.9214  -33.2777 H   0  0  0  0  0  0  0  0  0  0  0  0
   -5.2041   19.4403  -32.4027 H   0  0  0  0  0  0  0  0  0  0  0  0
   -8.4953   18.4654  -31.3462 H   0  0  0  0  0  0  0  0  0  0  0  0
   -7.5647   16.7566  -33.5788 H   0  0  0  0  0  0  0  0  0  0  0  0
   -6.5068   17.7823  -34.0480 H   0  0  0  0  0  0  0  0  0  0  0  0
   -6.7188   16.4040  -31.1162 H   0  0  0  0  0  0  0  0  0  0  0  0
   -5.5001   17.3817  -31.1590 H   0  0  0  0  0  0  0  0  0  0  0  0
   -9.3216   20.4009  -31.5969 H   0  0  0  0  0  0  0  0  0  0  0  0
   -5.6662   24.0511  -33.0665 H   0  0  0  0  0  0  0  0  0  0  0  0
   -7.4035   24.3435  -32.6565 H   0  0  0  0  0  0  0  0  0  0  0  0
   -6.4581   25.4768  -30.9427 H   0  0  0  0  0  0  0  0  0  0  0  0
   -6.4777   23.8207  -30.2142 H   0  0  0  0  0  0  0  0  0  0  0  0
   -5.5182   24.6233  -28.4292 H   0  0  0  0  0  0  0  0  0  0  0  0
   -4.2585   23.7904  -26.4462 H   0  0  0  0  0  0  0  0  0  0  0  0
   -2.0412   22.7543  -26.7563 H   0  0  0  0  0  0  0  0  0  0  0  0
   -1.0122   22.5100  -28.9864 H   0  0  0  0  0  0  0  0  0  0  0  0
   -2.2843   23.3548  -30.9794 H   0  0  0  0  0  0  0  0  0  0  0  0
  1  2  1  0
  2  3  2  0
  3  4  1  0
  4  5  1  0
  5  6  1  0
  6  7  1  0
  4  8  2  0
  8  9  1  0
  9 10  2  0
  9 11  1  0
 11 12  1  0
 12 13  1  0
 13 14  1  0
 14 15  1  0
 15 16  2  0
 16 17  1  0
 17 18  2  0
 18 19  1  0
 19 20  2  0
 11  2  1  0
 20 15  1  0
  7  5  1  0
  1 21  1  0
  1 22  1  0
  1 23  1  0
  3 24  1  0
  5 25  1  0
  6 26  1  0
  6 27  1  0
  7 28  1  0
  7 29  1  0
  8 30  1  0
 12 31  1  0
 12 32  1  0
 13 33  1  0
 13 34  1  0
 16 35  1  0
 17 36  1  0
 18 37  1  0
 19 38  1  0
 20 39  1  0
M  END
>  <smiles>  (22) 
Cc1cc(C2CC2)cc(=O)n1CCOc1ccccc1

>  <score_type>  (22) 
oracle

>  <origin>  (22) 
adg

>  <m_score__min__energy>  (22) 
-7.3200000000000003

>  <m_primary>  (22) 
energy

$$$$
23:0
     RDKit          3D

 49 52  0  0  0  0  0  0  0  0999 V2000
   -6.7770   25.2980  -29.7240 C   0  0  0  0  0  0  0  0  0  0  0  0
   -6.0330   24.2950  -30.4360 N   0  0  0  0  0  0  0  0  0  0  0  0
   -4.6830   24.0940  -30.4570 C   0  0  0  0  0  0  0  0  0  0  0  0
   -3.6740   24.8830  -29.7330 C   0  0  0  0  0  0  0  0  0  0  0  0
   -2.8780   24.0740  -28.8760 N   0  0  0  0  0  0  0  0  0  0  0  0
   -1.9260   23.2260  -29.4830 C   0  0  0  0  0  0  0  0  0  0  0  0
   -0.4980   23.4410  -29.2350 C   0  0  0  0  0  0  0  0  0  0  0  0
   -0.1040   24.5660  -28.5900 O   0  0  0  0  0  0  0  0  0  0  0  0
   -1.0750   25.3820  -28.0850 C   0  0  0  0  0  0  0  0  0  0  0  0
   -2.3450   24.7050  -27.7150 C   0  0  0  0  0  0  0  0  0  0  0  0
   -4.4140   23.0290  -31.2680 N   0  0  0  0  0  0  0  0  0  0  0  0
   -5.5430   22.5490  -31.7600 C   0  0  0  0  0  0  0  0  0  0  0  0
   -6.5590   23.3520  -31.2320 C   0  0  0  0  0  0  0  0  0  0  0  0
   -7.9420   22.9740  -31.6700 C   0  0  0  0  0  0  0  0  0  0  0  0
   -8.0800   21.5100  -31.4160 C   0  0  0  0  0  0  0  0  0  0  0  0
   -7.1280   20.7650  -32.1610 N   0  0  0  0  0  0  0  0  0  0  0  0
   -7.7600   19.8590  -33.0870 C   0  0  0  0  0  0  0  0  0  0  0  0
   -6.8850   18.7090  -33.4250 C   0  0  0  0  0  0  0  0  0  0  0  0
   -6.8310   17.5470  -32.6870 C   0  0  0  0  0  0  0  0  0  0  0  0
   -5.9770   16.5440  -33.1060 C   0  0  0  0  0  0  0  0  0  0  0  0
   -5.2000   16.6660  -34.2050 N   0  0  0  0  0  0  0  0  0  0  0  0
   -5.2600   17.8090  -34.9210 C   0  0  0  0  0  0  0  0  0  0  0  0
   -6.0920   18.8610  -34.5660 C   0  0  0  0  0  0  0  0  0  0  0  0
   -5.9950   21.4610  -32.6620 C   0  0  0  0  0  0  0  0  0  0  0  0
   -6.6607   25.1413  -28.6414 H   0  0  0  0  0  0  0  0  0  0  0  0
   -6.3984   26.2952  -29.9929 H   0  0  0  0  0  0  0  0  0  0  0  0
   -7.8411   25.2250  -29.9929 H   0  0  0  0  0  0  0  0  0  0  0  0
   -3.0180   25.3773  -30.4646 H   0  0  0  0  0  0  0  0  0  0  0  0
   -4.2023   25.6196  -29.1099 H   0  0  0  0  0  0  0  0  0  0  0  0
   -2.1559   22.2018  -29.1543 H   0  0  0  0  0  0  0  0  0  0  0  0
   -2.0351   23.4455  -30.5553 H   0  0  0  0  0  0  0  0  0  0  0  0
   -0.1424   22.5871  -28.6397 H   0  0  0  0  0  0  0  0  0  0  0  0
   -0.0697   23.5514  -30.2422 H   0  0  0  0  0  0  0  0  0  0  0  0
   -0.6746   25.8691  -27.1837 H   0  0  0  0  0  0  0  0  0  0  0  0
   -1.3295   26.0863  -28.8907 H   0  0  0  0  0  0  0  0  0  0  0  0
   -2.1502   23.9500  -26.9391 H   0  0  0  0  0  0  0  0  0  0  0  0
   -3.0631   25.4406  -27.3236 H   0  0  0  0  0  0  0  0  0  0  0  0
   -8.6908   23.5329  -31.0895 H   0  0  0  0  0  0  0  0  0  0  0  0
   -8.1022   23.2109  -32.7322 H   0  0  0  0  0  0  0  0  0  0  0  0
   -7.9271   21.3164  -30.3440 H   0  0  0  0  0  0  0  0  0  0  0  0
   -9.0872   21.1969  -31.7283 H   0  0  0  0  0  0  0  0  0  0  0  0
   -8.6875   19.4784  -32.6343 H   0  0  0  0  0  0  0  0  0  0  0  0
   -7.9676   20.4120  -34.0150 H   0  0  0  0  0  0  0  0  0  0  0  0
   -7.4514   17.4206  -31.7875 H   0  0  0  0  0  0  0  0  0  0  0  0
   -5.9281   15.6122  -32.5234 H   0  0  0  0  0  0  0  0  0  0  0  0
   -4.6281   17.9096  -35.8158 H   0  0  0  0  0  0  0  0  0  0  0  0
   -6.1265   19.7844  -35.1629 H   0  0  0  0  0  0  0  0  0  0  0  0
   -5.1702   20.7444  -32.7889 H   0  0  0  0  0  0  0  0  0  0  0  0
   -6.2856   21.9223  -33.6174 H   0  0  0  0  0  0  0  0  0  0  0  0
  1  2  1  0
  2  3  1  0
  3  4  1  0
  4  5  1  0
  5  6  1  0
  6  7  1  0
  7  8  1  0
  8  9  1  0
  9 10  1  0
  3 11  2  0
 11 12  1  0
 12 13  2  0
 13 14  1  0
 14 15  1  0
 15 16  1  0
 16 17  1  0
 17 18  1  0
 18 19  2  0
 19 20  1  0
 20 21  2  0
 21 22  1  0
 22 23  2  0
 16 24  1  0
 13  2  1  0
 23 18  1  0
 10  5  1  0
 24 12  1  0
  1 25  1  0
  1 26  1  0
  1 27  1  0
  4 28  1  0
  4 29  1  0
  6 30  1  0
  6 31  1  0
  7 32  1  0
  7 33  1  0
  9 34  1  0
  9 35  1  0
 10 36  1  0
 10 37  1  0
 14 38  1  0
 14 39  1  0
 15 40  1  0
 15 41  1  0
 17 42  1  0
 17 43  1  0
 19 44  1  0
 20 45  1  0
 22 46  1  0
 23 47  1  0
 24 48  1  0
 24 49  1  0
M  END
>  <smiles>  (23) 
Cn1c(CN2CCOCC2)nc2c1CCN(Cc1ccncc1)C2

>  <score_type>  (23) 
oracle

>  <origin>  (23) 
adg

>  <m_score__min__energy>  (23) 
-8.9800000000000004

>  <m_primary>  (23) 
energy

$$$$
24:0
     RDKit          3D

 72 75  0  0  0  0  0  0  0  0999 V2000
   -0.3650   19.6350  -29.3940 C   0  0  0  0  0  0  0  0  0  0  0  0
   -1.5100   20.4170  -28.8220 C   0  0  0  0  0  0  0  0  0  0  0  0
   -1.1190   21.7020  -28.3520 N   0  0  0  0  0  0  0  0  0  0  0  0
   -0.4920   22.5050  -29.3610 C   0  0  0  0  0  0  0  0  0  0  0  0
   -2.0760   22.4020  -27.5490 C   0  0  0  0  0  0  0  0  0  0  0  0
   -3.4830   21.9000  -27.6830 C   0  0  0  0  0  0  0  0  0  0  0  0
   -4.3860   22.8280  -28.1730 O   0  0  0  0  0  0  0  0  0  0  0  0
   -3.9010   24.0940  -28.3650 C   0  0  0  0  0  0  0  0  0  0  0  0
   -3.3120   24.3530  -29.7190 C   0  0  0  0  0  0  0  0  0  0  0  0
   -3.8640   25.3540  -30.4550 O   0  0  0  0  0  0  0  0  0  0  0  0
   -5.2170   25.4030  -30.5800 C   0  0  0  0  0  0  0  0  0  0  0  0
   -5.7440   24.2660  -31.4810 C   0  0  0  0  0  0  0  0  0  0  0  0
   -5.5730   22.9930  -30.8610 N   0  0  0  0  0  0  0  0  0  0  0  0
   -5.6710   21.7650  -31.6170 C   0  0  0  0  0  0  0  0  0  0  0  0
   -6.9050   21.1730  -31.8130 C   0  0  0  0  0  0  0  0  0  0  0  0
   -7.0070   19.9980  -32.5280 C   0  0  0  0  0  0  0  0  0  0  0  0
   -5.8870   19.4020  -33.0550 N   0  0  0  0  0  0  0  0  0  0  0  0
   -6.0850   18.1600  -33.7290 C   0  0  0  0  0  0  0  0  0  0  0  0
   -4.6790   19.9970  -32.8570 C   0  0  0  0  0  0  0  0  0  0  0  0
   -4.5420   21.1700  -32.1460 C   0  0  0  0  0  0  0  0  0  0  0  0
   -3.2730   21.8970  -31.9300 C   0  0  0  0  0  0  0  0  0  0  0  0
   -2.0300   21.1180  -32.1460 C   0  0  0  0  0  0  0  0  0  0  0  0
   -2.2250   19.9460  -33.0380 C   0  0  0  0  0  0  0  0  0  0  0  0
   -1.0250   19.4220  -33.5490 C   0  0  0  0  0  0  0  0  0  0  0  0
   -1.0790   18.3190  -34.3490 C   0  0  0  0  0  0  0  0  0  0  0  0
   -2.2580   17.7300  -34.6530 C   0  0  0  0  0  0  0  0  0  0  0  0
   -3.4500   18.2740  -34.1310 C   0  0  0  0  0  0  0  0  0  0  0  0
   -3.4460   19.3830  -33.3210 C   0  0  0  0  0  0  0  0  0  0  0  0
   -8.3610   19.3660  -32.7320 C   0  0  0  0  0  0  0  0  0  0  0  0
   -9.4730   20.2040  -32.2020 C   0  0  0  0  0  0  0  0  0  0  0  0
   -9.1240   20.8670  -30.8850 C   0  0  0  0  0  0  0  0  0  0  0  0
   -8.0630   21.8860  -31.2190 C   0  0  0  0  0  0  0  0  0  0  0  0
    0.2415   19.2208  -28.5751 H   0  0  0  0  0  0  0  0  0  0  0  0
   -0.7549   18.8137  -30.0132 H   0  0  0  0  0  0  0  0  0  0  0  0
    0.2581   20.2970  -30.0132 H   0  0  0  0  0  0  0  0  0  0  0  0
   -2.2731   20.5458  -29.6037 H   0  0  0  0  0  0  0  0  0  0  0  0
   -1.8992   19.8534  -27.9612 H   0  0  0  0  0  0  0  0  0  0  0  0
    0.1175   23.2855  -28.8821 H   0  0  0  0  0  0  0  0  0  0  0  0
    0.1517   21.8700  -29.9875 H   0  0  0  0  0  0  0  0  0  0  0  0
   -1.2641   22.9755  -29.9875 H   0  0  0  0  0  0  0  0  0  0  0  0
   -1.7758   22.3071  -26.4950 H   0  0  0  0  0  0  0  0  0  0  0  0
   -2.0796   23.4439  -27.9018 H   0  0  0  0  0  0  0  0  0  0  0  0
   -3.4750   21.0370  -28.3651 H   0  0  0  0  0  0  0  0  0  0  0  0
   -3.8197   21.6467  -26.6669 H   0  0  0  0  0  0  0  0  0  0  0  0
   -4.7287   24.8023  -28.2127 H   0  0  0  0  0  0  0  0  0  0  0  0
   -3.0785   24.2183  -27.6453 H   0  0  0  0  0  0  0  0  0  0  0  0
   -2.2484   24.5946  -29.5766 H   0  0  0  0  0  0  0  0  0  0  0  0
   -3.5087   23.4362  -30.2941 H   0  0  0  0  0  0  0  0  0  0  0  0
   -5.6716   25.3086  -29.5828 H   0  0  0  0  0  0  0  0  0  0  0  0
   -5.4859   26.3634  -31.0439 H   0  0  0  0  0  0  0  0  0  0  0  0
   -6.8144   24.4293  -31.6751 H   0  0  0  0  0  0  0  0  0  0  0  0
   -5.1727   24.2743  -32.4210 H   0  0  0  0  0  0  0  0  0  0  0  0
   -5.3740   22.9440  -29.8430 H   0  0  0  0  0  0  0  0  0  0  0  0
   -6.2130   17.3571  -32.9881 H   0  0  0  0  0  0  0  0  0  0  0  0
   -6.9843   18.2241  -34.3592 H   0  0  0  0  0  0  0  0  0  0  0  0
   -5.2104   17.9413  -34.3592 H   0  0  0  0  0  0  0  0  0  0  0  0
   -3.2558   22.7549  -32.6182 H   0  0  0  0  0  0  0  0  0  0  0  0
   -3.2678   22.1723  -30.8650 H   0  0  0  0  0  0  0  0  0  0  0  0
   -1.2759   21.7797  -32.5970 H   0  0  0  0  0  0  0  0  0  0  0  0
   -1.7082   20.7350  -31.1663 H   0  0  0  0  0  0  0  0  0  0  0  0
   -0.0605   19.8928  -33.3081 H   0  0  0  0  0  0  0  0  0  0  0  0
   -0.1462   17.9004  -34.7547 H   0  0  0  0  0  0  0  0  0  0  0  0
   -2.2868   16.8395  -35.2981 H   0  0  0  0  0  0  0  0  0  0  0  0
   -4.4094   17.7968  -34.3796 H   0  0  0  0  0  0  0  0  0  0  0  0
   -8.5189   19.2127  -33.8098 H   0  0  0  0  0  0  0  0  0  0  0  0
   -8.3699   18.4147  -32.1798 H   0  0  0  0  0  0  0  0  0  0  0  0
   -9.7075   20.9860  -32.9392 H   0  0  0  0  0  0  0  0  0  0  0  0
  -10.3343   19.5430  -32.0252 H   0  0  0  0  0  0  0  0  0  0  0  0
  -10.0089   21.3593  -30.4554 H   0  0  0  0  0  0  0  0  0  0  0  0
   -8.7715   20.1380  -30.1405 H   0  0  0  0  0  0  0  0  0  0  0  0
   -8.4610   22.6151  -31.9401 H   0  0  0  0  0  0  0  0  0  0  0  0
   -7.7529   22.4230  -30.3104 H   0  0  0  0  0  0  0  0  0  0  0  0
  1  2  1  0
  2  3  1  0
  3  4  1  0
  3  5  1  0
  5  6  1  0
  6  7  1  0
  7  8  1  0
  8  9  1  0
  9 10  1  0
 10 11  1  0
 11 12  1  0
 12 13  1  0
 13 14  1  0
 14 15  2  0
 15 16  1  0
 16 17  2  0
 17 18  1  0
 17 19  1  0
 19 20  2  0
 20 21  1  0
 21 22  1  0
 22 23  1  0
 23 24  2  0
 24 25  1  0
 25 26  2  0
 26 27  1  0
 27 28  2  0
 16 29  1  0
 29 30  1  0
 30 31  1  0
 31 32  1  0
 20 14  1  0
 28 23  1  0
 32 15  1  0
 28 19  1  0
  1 33  1  0
  1 34  1  0
  1 35  1  0
  2 36  1  0
  2 37  1  0
  4 38  1  0
  4 39  1  0
  4 40  1  0
  5 41  1  0
  5 42  1  0
  6 43  1  0
  6 44  1  0
  8 45  1  0
  8 46  1  0
  9 47  1  0
  9 48  1  0
 11 49  1  0
 11 50  1  0
 12 51  1  0
 12 52  1  0
 13 53  1  0
 18 54  1  0
 18 55  1  0
 18 56  1  0
 21 57  1  0
 21 58  1  0
 22 59  1  0
 22 60  1  0
 24 61  1  0
 25 62  1  0
 26 63  1  0
 27 64  1  0
 29 65  1  0
 29 66  1  0
 30 67  1  0
 30 68  1  0
 31 69  1  0
 31 70  1  0
 32 71  1  0
 32 72  1  0
M  CHG  1  17   1
M  END
>  <smiles>  (24) 
CCN(C)CCOCCOCCNc1c2c([n+](C)c3c1CCc1ccccc1-3)CCCC2

>  <score_type>  (24) 
oracle

>  <origin>  (24) 
adg

>  <m_score__min__energy>  (24) 
-9.8499999999999996

>  <m_primary>  (24) 
energy

$$$$
25:0
     RDKit          3D

 63 65  0  0  0  0  0  0  0  0999 V2000
   -2.7370   20.5910  -27.8420 C   0  0  0  0  0  0  0  0  0  0  0  0
   -2.9930   21.0200  -29.2630 C   0  0  0  0  0  0  0  0  0  0  0  0
   -1.7340   21.1690  -30.0020 N   0  0  0  0  0  0  0  0  0  0  0  0
   -0.6880   20.8090  -29.0310 C   0  0  0  0  0  0  0  0  0  0  0  0
   -1.5680   22.5660  -30.4120 C   0  0  0  0  0  0  0  0  0  0  0  0
   -0.8570   23.3040  -29.3190 C   0  0  0  0  0  0  0  0  0  0  0  0
   -1.6900   23.7650  -28.3250 O   0  0  0  0  0  0  0  0  0  0  0  0
   -2.3730   24.9230  -28.6180 C   0  0  0  0  0  0  0  0  0  0  0  0
   -3.7660   24.5100  -29.0990 C   0  0  0  0  0  0  0  0  0  0  0  0
   -3.8880   24.9350  -30.3900 O   0  0  0  0  0  0  0  0  0  0  0  0
   -5.1770   25.1530  -30.8390 C   0  0  0  0  0  0  0  0  0  0  0  0
   -5.6760   23.9870  -31.5960 C   0  0  0  0  0  0  0  0  0  0  0  0
   -5.0060   22.7250  -31.3720 N   0  0  0  0  0  0  0  0  0  0  0  0
   -5.2590   21.5370  -32.0750 C   0  0  0  0  0  0  0  0  0  0  0  0
   -6.5610   21.0190  -32.0640 C   0  0  0  0  0  0  0  0  0  0  0  0
   -7.5480   21.7020  -31.3760 C   0  0  0  0  0  0  0  0  0  0  0  0
   -8.8670   21.2360  -31.3290 C   0  0  0  0  0  0  0  0  0  0  0  0
   -9.1290   20.0660  -32.0020 C   0  0  0  0  0  0  0  0  0  0  0  0
   -8.1390   19.3680  -32.7010 C   0  0  0  0  0  0  0  0  0  0  0  0
   -6.8520   19.8290  -32.7440 C   0  0  0  0  0  0  0  0  0  0  0  0
   -5.9390   19.1400  -33.4210 N   0  0  0  0  0  0  0  0  0  0  0  0
   -6.1680   17.9200  -34.1480 C   0  0  0  0  0  0  0  0  0  0  0  0
   -4.6630   19.6240  -33.4480 C   0  0  0  0  0  0  0  0  0  0  0  0
   -3.6690   18.9560  -34.1440 C   0  0  0  0  0  0  0  0  0  0  0  0
   -2.3590   19.4320  -34.1990 C   0  0  0  0  0  0  0  0  0  0  0  0
   -2.0410   20.5910  -33.5490 C   0  0  0  0  0  0  0  0  0  0  0  0
   -0.6500   21.1240  -33.5890 C   0  0  0  0  0  0  0  0  0  0  0  0
   -3.0460   21.2490  -32.8540 C   0  0  0  0  0  0  0  0  0  0  0  0
   -4.3360   20.8070  -32.7820 C   0  0  0  0  0  0  0  0  0  0  0  0
   -3.1760   21.3267  -27.1521 H   0  0  0  0  0  0  0  0  0  0  0  0
   -3.1953   19.6062  -27.6681 H   0  0  0  0  0  0  0  0  0  0  0  0
   -1.6527   20.5267  -27.6681 H   0  0  0  0  0  0  0  0  0  0  0  0
   -3.6150   20.2618  -29.7612 H   0  0  0  0  0  0  0  0  0  0  0  0
   -3.5081   21.9919  -29.2484 H   0  0  0  0  0  0  0  0  0  0  0  0
   -1.0743   20.9420  -28.0097 H   0  0  0  0  0  0  0  0  0  0  0  0
   -0.3963   19.7587  -29.1788 H   0  0  0  0  0  0  0  0  0  0  0  0
    0.1883   21.4573  -29.1788 H   0  0  0  0  0  0  0  0  0  0  0  0
   -0.9749   22.6126  -31.3372 H   0  0  0  0  0  0  0  0  0  0  0  0
   -2.5516   23.0230  -30.5957 H   0  0  0  0  0  0  0  0  0  0  0  0
   -0.1192   22.6255  -28.8659 H   0  0  0  0  0  0  0  0  0  0  0  0
   -0.3906   24.1870  -29.7803 H   0  0  0  0  0  0  0  0  0  0  0  0
   -2.4545   25.5515  -27.7189 H   0  0  0  0  0  0  0  0  0  0  0  0
   -1.8473   25.5049  -29.3894 H   0  0  0  0  0  0  0  0  0  0  0  0
   -3.8729   23.4163  -29.0503 H   0  0  0  0  0  0  0  0  0  0  0  0
   -4.5467   24.9556  -28.4651 H   0  0  0  0  0  0  0  0  0  0  0  0
   -5.8343   25.3294  -29.9748 H   0  0  0  0  0  0  0  0  0  0  0  0
   -5.1738   26.0288  -31.5046 H   0  0  0  0  0  0  0  0  0  0  0  0
   -6.7361   23.8510  -31.3358 H   0  0  0  0  0  0  0  0  0  0  0  0
   -5.4860   24.2286  -32.6522 H   0  0  0  0  0  0  0  0  0  0  0  0
   -4.2530   22.6650  -30.6180 H   0  0  0  0  0  0  0  0  0  0  0  0
   -7.2897   22.6345  -30.8529 H   0  0  0  0  0  0  0  0  0  0  0  0
   -9.6530   21.7775  -30.7822 H   0  0  0  0  0  0  0  0  0  0  0  0
  -10.1532   19.6649  -31.9902 H   0  0  0  0  0  0  0  0  0  0  0  0
   -8.3989   18.4355  -33.2234 H   0  0  0  0  0  0  0  0  0  0  0  0
   -6.3231   17.0939  -33.4384 H   0  0  0  0  0  0  0  0  0  0  0  0
   -7.0608   18.0323  -34.7808 H   0  0  0  0  0  0  0  0  0  0  0  0
   -5.2953   17.7009  -34.7808 H   0  0  0  0  0  0  0  0  0  0  0  0
   -3.9201   18.0225  -34.6689 H   0  0  0  0  0  0  0  0  0  0  0  0
   -1.5901   18.8802  -34.7597 H   0  0  0  0  0  0  0  0  0  0  0  0
   -0.2817   21.2651  -32.5621 H   0  0  0  0  0  0  0  0  0  0  0  0
    0.0006   20.4115  -34.1172 H   0  0  0  0  0  0  0  0  0  0  0  0
   -0.6421   22.0889  -34.1172 H   0  0  0  0  0  0  0  0  0  0  0  0
   -2.7883   22.1814  -32.3304 H   0  0  0  0  0  0  0  0  0  0  0  0
  1  2  1  0
  2  3  1  0
  3  4  1  0
  3  5  1  0
  5  6  1  0
  6  7  1  0
  7  8  1  0
  8  9  1  0
  9 10  1  0
 10 11  1  0
 11 12  1  0
 12 13  1  0
 13 14  1  0
 14 15  2  0
 15 16  1  0
 16 17  2  0
 17 18  1  0
 18 19  2  0
 19 20  1  0
 20 21  2  0
 21 22  1  0
 21 23  1  0
 23 24  2  0
 24 25  1  0
 25 26  2  0
 26 27  1  0
 26 28  1  0
 28 29  2  0
 29 14  1  0
 20 15  1  0
 29 23  1  0
  1 30  1  0
  1 31  1  0
  1 32  1  0
  2 33  1  0
  2 34  1  0
  4 35  1  0
  4 36  1  0
  4 37  1  0
  5 38  1  0
  5 39  1  0
  6 40  1  0
  6 41  1  0
  8 42  1  0
  8 43  1  0
  9 44  1  0
  9 45  1  0
 11 46  1  0
 11 47  1  0
 12 48  1  0
 12 49  1  0
 13 50  1  0
 16 51  1  0
 17 52  1  0
 18 53  1  0
 19 54  1  0
 22 55  1  0
 22 56  1  0
 22 57  1  0
 24 58  1  0
 25 59  1  0
 27 60  1  0
 27 61  1  0
 27 62  1  0
 28 63  1  0
M  CHG  1  21   1
M  END
>  <smiles>  (25) 
CCN(C)CCOCCOCCNc1c2ccccc2[n+](C)c2ccc(C)cc12

>  <score_type>  (25) 
oracle

>  <origin>  (25) 
adg

>  <m_score__min__energy>  (25) 
-8.9800000000000004

>  <m_primary>  (25) 
energy

$$$$
27:0
     RDKit          3D

 79 81  0  0  0  0  0  0  0  0999 V2000
   -1.8180   18.8730  -26.7270 C   0  0  0  0  0  0  0  0  0  0  0  0
   -3.1160   19.5470  -27.1230 C   0  0  0  0  0  0  0  0  0  0  0  0
   -3.0780   20.1860  -28.4020 N   0  0  0  0  0  0  0  0  0  0  0  0
   -2.6710   21.5890  -28.3470 C   0  0  0  0  0  0  0  0  0  0  0  0
   -1.2660   21.6510  -28.9730 C   0  0  0  0  0  0  0  0  0  0  0  0
   -1.4500   21.5900  -30.4800 C   0  0  0  0  0  0  0  0  0  0  0  0
   -1.6910   20.2350  -30.9500 N   0  0  0  0  0  0  0  0  0  0  0  0
   -2.0600   20.3070  -32.3600 C   0  0  0  0  0  0  0  0  0  0  0  0
   -3.5240   20.2890  -32.5520 C   0  0  0  0  0  0  0  0  0  0  0  0
   -4.2960   20.3040  -31.2910 N   0  0  0  0  0  0  0  0  0  0  0  0
   -5.6060   20.8620  -31.4490 C   0  0  0  0  0  0  0  0  0  0  0  0
   -5.6460   22.2460  -31.1960 C   0  0  0  0  0  0  0  0  0  0  0  0
   -4.4850   22.9080  -30.7730 C   0  0  0  0  0  0  0  0  0  0  0  0
   -4.4650   24.2540  -30.5010 C   0  0  0  0  0  0  0  0  0  0  0  0
   -5.6360   24.9500  -30.6560 C   0  0  0  0  0  0  0  0  0  0  0  0
   -6.7820   24.3070  -31.0700 C   0  0  0  0  0  0  0  0  0  0  0  0
   -6.8160   22.9530  -31.3500 C   0  0  0  0  0  0  0  0  0  0  0  0
   -7.9160   22.2950  -31.7430 N   0  0  0  0  0  0  0  0  0  0  0  0
   -9.1510   22.9940  -31.9430 C   0  0  0  0  0  0  0  0  0  0  0  0
   -7.8910   20.9620  -31.9850 C   0  0  0  0  0  0  0  0  0  0  0  0
   -9.0880   20.3760  -32.3450 C   0  0  0  0  0  0  0  0  0  0  0  0
   -9.0770   19.0150  -32.5530 C   0  0  0  0  0  0  0  0  0  0  0  0
   -7.9100   18.2760  -32.4040 C   0  0  0  0  0  0  0  0  0  0  0  0
   -6.6990   18.8520  -32.0410 C   0  0  0  0  0  0  0  0  0  0  0  0
   -5.5750   18.0180  -31.9150 N   0  0  0  0  0  0  0  0  0  0  0  0
   -5.7670   16.7010  -31.2480 C   0  0  0  0  0  0  0  0  0  0  0  0
   -4.9950   15.6510  -32.0120 C   0  0  0  0  0  0  0  0  0  0  0  0
   -4.9730   15.9740  -33.4670 C   0  0  0  0  0  0  0  0  0  0  0  0
   -3.9760   16.8740  -33.8730 N   0  0  0  0  0  0  0  0  0  0  0  0
   -2.7570   16.9260  -33.1630 C   0  0  0  0  0  0  0  0  0  0  0  0
   -1.6480   17.3910  -34.0390 C   0  0  0  0  0  0  0  0  0  0  0  0
   -4.2850   17.9460  -34.7240 C   0  0  0  0  0  0  0  0  0  0  0  0
   -5.7200   18.1970  -35.0360 C   0  0  0  0  0  0  0  0  0  0  0  0
   -6.7180   20.2090  -31.8410 C   0  0  0  0  0  0  0  0  0  0  0  0
   -1.7444   18.8348  -25.6301 H   0  0  0  0  0  0  0  0  0  0  0  0
   -1.7975   17.8504  -27.1317 H   0  0  0  0  0  0  0  0  0  0  0  0
   -0.9697   19.4445  -27.1317 H   0  0  0  0  0  0  0  0  0  0  0  0
   -3.9089   18.7848  -27.1415 H   0  0  0  0  0  0  0  0  0  0  0  0
   -3.3016   20.3369  -26.3803 H   0  0  0  0  0  0  0  0  0  0  0  0
   -2.3300   19.7000  -28.9550 H   0  0  0  0  0  0  0  0  0  0  0  0
   -3.3724   22.2127  -28.9207 H   0  0  0  0  0  0  0  0  0  0  0  0
   -2.6675   21.9661  -27.3137 H   0  0  0  0  0  0  0  0  0  0  0  0
   -0.7674   22.5900  -28.6907 H   0  0  0  0  0  0  0  0  0  0  0  0
   -0.6407   20.8181  -28.6191 H   0  0  0  0  0  0  0  0  0  0  0  0
   -2.3085   22.2192  -30.7577 H   0  0  0  0  0  0  0  0  0  0  0  0
   -0.5218   21.9496  -30.9482 H   0  0  0  0  0  0  0  0  0  0  0  0
   -2.5680   19.8640  -30.4690 H   0  0  0  0  0  0  0  0  0  0  0  0
   -1.6578   21.2385  -32.7849 H   0  0  0  0  0  0  0  0  0  0  0  0
   -1.6409   19.4246  -32.8656 H   0  0  0  0  0  0  0  0  0  0  0  0
   -3.8065   21.1739  -33.1411 H   0  0  0  0  0  0  0  0  0  0  0  0
   -3.7665   19.3453  -33.0625 H   0  0  0  0  0  0  0  0  0  0  0  0
   -3.9070   19.9800  -30.3870 H   0  0  0  0  0  0  0  0  0  0  0  0
   -3.5573   22.3289  -30.6548 H   0  0  0  0  0  0  0  0  0  0  0  0
   -3.5432   24.7553  -30.1709 H   0  0  0  0  0  0  0  0  0  0  0  0
   -5.6607   26.0299  -30.4483 H   0  0  0  0  0  0  0  0  0  0  0  0
   -7.7059   24.8933  -31.1822 H   0  0  0  0  0  0  0  0  0  0  0  0
   -9.5929   23.2441  -30.9672 H   0  0  0  0  0  0  0  0  0  0  0  0
   -8.9616   23.9188  -32.5076 H   0  0  0  0  0  0  0  0  0  0  0  0
   -9.8464   22.3556  -32.5076 H   0  0  0  0  0  0  0  0  0  0  0  0
  -10.0075   20.9687  -32.4603 H   0  0  0  0  0  0  0  0  0  0  0  0
  -10.0075   18.5044  -32.8419 H   0  0  0  0  0  0  0  0  0  0  0  0
   -7.9463   17.1909  -32.5806 H   0  0  0  0  0  0  0  0  0  0  0  0
   -4.6070   18.1510  -32.1960 H   0  0  0  0  0  0  0  0  0  0  0  0
   -5.3962   16.7529  -30.2137 H   0  0  0  0  0  0  0  0  0  0  0  0
   -6.8360   16.4419  -31.2332 H   0  0  0  0  0  0  0  0  0  0  0  0
   -3.9627   15.6141  -31.6338 H   0  0  0  0  0  0  0  0  0  0  0  0
   -5.4856   14.6765  -31.8715 H   0  0  0  0  0  0  0  0  0  0  0  0
   -4.8265   15.0345  -34.0201 H   0  0  0  0  0  0  0  0  0  0  0  0
   -5.9313   16.4704  -33.6797 H   0  0  0  0  0  0  0  0  0  0  0  0
   -2.8629   17.6214  -32.3173 H   0  0  0  0  0  0  0  0  0  0  0  0
   -2.5181   15.9143  -32.8031 H   0  0  0  0  0  0  0  0  0  0  0  0
   -0.8115   17.7417  -33.4166 H   0  0  0  0  0  0  0  0  0  0  0  0
   -1.3090   16.5593  -34.6740 H   0  0  0  0  0  0  0  0  0  0  0  0
   -2.0035   18.2158  -34.6740 H   0  0  0  0  0  0  0  0  0  0  0  0
   -3.8864   18.8594  -34.2583 H   0  0  0  0  0  0  0  0  0  0  0  0
   -3.8369   17.6695  -35.6898 H   0  0  0  0  0  0  0  0  0  0  0  0
   -6.2871   18.2962  -34.0987 H   0  0  0  0  0  0  0  0  0  0  0  0
   -5.8115   19.1248  -35.6198 H   0  0  0  0  0  0  0  0  0  0  0  0
   -6.1210   17.3554  -35.6198 H   0  0  0  0  0  0  0  0  0  0  0  0
  1  2  1  0
  2  3  1  0
  3  4  1  0
  4  5  1  0
  5  6  1  0
  6  7  1  0
  7  8  1  0
  8  9  1  0
  9 10  1  0
 10 11  1  0
 11 12  2  0
 12 13  1  0
 13 14  2  0
 14 15  1  0
 15 16  2  0
 16 17  1  0
 17 18  2  0
 18 19  1  0
 18 20  1  0
 20 21  2  0
 21 22  1  0
 22 23  2  0
 23 24  1  0
 24 25  1  0
 25 26  1  0
 26 27  1  0
 27 28  1  0
 28 29  1  0
 29 30  1  0
 30 31  1  0
 29 32  1  0
 32 33  1  0
 24 34  2  0
 34 11  1  0
 17 12  1  0
 34 20  1  0
  1 35  1  0
  1 36  1  0
  1 37  1  0
  2 38  1  0
  2 39  1  0
  3 40  1  0
  4 41  1  0
  4 42  1  0
  5 43  1  0
  5 44  1  0
  6 45  1  0
  6 46  1  0
  7 47  1  0
  8 48  1  0
  8 49  1  0
  9 50  1  0
  9 51  1  0
 10 52  1  0
 13 53  1  0
 14 54  1  0
 15 55  1  0
 16 56  1  0
 19 57  1  0
 19 58  1  0
 19 59  1  0
 21 60  1  0
 22 61  1  0
 23 62  1  0
 25 63  1  0
 26 64  1  0
 26 65  1  0
 27 66  1  0
 27 67  1  0
 28 68  1  0
 28 69  1  0
 30 70  1  0
 30 71  1  0
 31 72  1  0
 31 73  1  0
 31 74  1  0
 32 75  1  0
 32 76  1  0
 33 77  1  0
 33 78  1  0
 33 79  1  0
M  CHG  1  18   1
M  END
>  <smiles>  (26) 
CCNCCCNCCNc1c2ccccc2[n+](C)c2cccc(NCCCN(CC)CC)c12

>  <score_type>  (26) 
oracle

>  <origin>  (26) 
adg

>  <m_score__min__energy>  (26) 
-10.25

>  <m_primary>  (26) 
energy

$$$$
