0:0
     RDKit          3D

 41 44  0  0  0  0  0  0  0  0999 V2000
   -1.4440   20.4180  -34.1470 C   0  0  0  0  0  0  0  0  0  0  0  0
   -2.4090   20.5350  -33.0110 C   0  0  0  0  0  0  0  0  0  0  0  0
   -2.1110   20.1210  -31.7150 C   0  0  0  0  0  0  0  0  0  0  0  0
   -3.4800   20.3740  -30.7670 S   0  0  0  0  0  0  0  0  0  0  0  0
   -4.3980   20.9750  -32.0420 C   0  0  0  0  0  0  0  0  0  0  0  0
   -5.8090   21.4290  -31.9270 C   0  0  0  0  0  0  0  0  0  0  0  0
   -6.8090   20.6740  -32.4510 C   0  0  0  0  0  0  0  0  0  0  0  0
   -6.5540   19.3350  -33.0410 C   0  0  0  0  0  0  0  0  0  0  0  0
   -6.0120   19.2310  -34.3320 C   0  0  0  0  0  0  0  0  0  0  0  0
   -5.7690   17.9740  -34.8940 C   0  0  0  0  0  0  0  0  0  0  0  0
   -6.0720   16.8150  -34.1750 C   0  0  0  0  0  0  0  0  0  0  0  0
   -6.6260   16.9110  -32.8950 C   0  0  0  0  0  0  0  0  0  0  0  0
   -6.8730   18.1650  -32.3310 C   0  0  0  0  0  0  0  0  0  0  0  0
   -8.2440   21.0680  -32.2770 C   0  0  0  0  0  0  0  0  0  0  0  0
   -8.5710   20.9970  -30.7920 C   0  0  0  0  0  0  0  0  0  0  0  0
   -8.2280   22.2090  -30.1300 O   0  0  0  0  0  0  0  0  0  0  0  0
   -7.1420   23.0600  -30.3990 C   0  0  0  0  0  0  0  0  0  0  0  0
   -7.1890   24.3080  -29.7610 C   0  0  0  0  0  0  0  0  0  0  0  0
   -6.2120   25.2730  -29.9870 C   0  0  0  0  0  0  0  0  0  0  0  0
   -5.1650   25.0070  -30.8620 C   0  0  0  0  0  0  0  0  0  0  0  0
   -5.0830   23.7680  -31.4950 C   0  0  0  0  0  0  0  0  0  0  0  0
   -6.0450   22.7570  -31.2670 C   0  0  0  0  0  0  0  0  0  0  0  0
   -3.6760   21.0010  -33.1840 N   0  0  0  0  0  0  0  0  0  0  0  0
   -0.4251   20.2945  -33.7513 H   0  0  0  0  0  0  0  0  0  0  0  0
   -1.7066   19.5451  -34.7627 H   0  0  0  0  0  0  0  0  0  0  0  0
   -1.4904   21.3283  -34.7627 H   0  0  0  0  0  0  0  0  0  0  0  0
   -1.1529   19.7035  -31.3719 H   0  0  0  0  0  0  0  0  0  0  0  0
   -5.7778   20.1414  -34.9032 H   0  0  0  0  0  0  0  0  0  0  0  0
   -5.3387   17.8975  -35.9035 H   0  0  0  0  0  0  0  0  0  0  0  0
   -5.8746   15.8268  -34.6161 H   0  0  0  0  0  0  0  0  0  0  0  0
   -6.8677   15.9979  -32.3312 H   0  0  0  0  0  0  0  0  0  0  0  0
   -7.3186   18.2368  -31.3279 H   0  0  0  0  0  0  0  0  0  0  0  0
   -8.3975   22.0932  -32.6451 H   0  0  0  0  0  0  0  0  0  0  0  0
   -8.8990   20.3924  -32.8467 H   0  0  0  0  0  0  0  0  0  0  0  0
   -9.6490   20.8147  -30.6705 H   0  0  0  0  0  0  0  0  0  0  0  0
   -7.9860   20.1793  -30.3457 H   0  0  0  0  0  0  0  0  0  0  0  0
   -8.0145   24.5285  -29.0682 H   0  0  0  0  0  0  0  0  0  0  0  0
   -6.2681   26.2445  -29.4742 H   0  0  0  0  0  0  0  0  0  0  0  0
   -4.4011   25.7746  -31.0548 H   0  0  0  0  0  0  0  0  0  0  0  0
   -4.2512   23.5722  -32.1876 H   0  0  0  0  0  0  0  0  0  0  0  0
   -4.0390   21.3540  -34.0980 H   0  0  0  0  0  0  0  0  0  0  0  0
  1  2  1  0
  2  3  2  0
  3  4  1  0
  4  5  1  0
  5  6  1  0
  6  7  2  0
  7  8  1  0
  8  9  2  0
  9 10  1  0
 10 11  2  0
 11 12  1  0
 12 13  2  0
  7 14  1  0
 14 15  1  0
 15 16  1  0
 16 17  1  0
 17 18  2  0
 18 19  1  0
 19 20  2  0
 20 21  1  0
 21 22  2  0
  5 23  2  0
 23  2  1  0
 22  6  1  0
 13  8  1  0
 22 17  1  0
  1 24  1  0
  1 25  1  0
  1 26  1  0
  3 27  1  0
  9 28  1  0
 10 29  1  0
 11 30  1  0
 12 31  1  0
 13 32  1  0
 14 33  1  0
 14 34  1  0
 15 35  1  0
 15 36  1  0
 18 37  1  0
 19 38  1  0
 20 39  1  0
 21 40  1  0
 23 41  1  0
M  CHG  1  23   1
M  END
>  <UniqueID>  (1) 
1

>  <SMILES>  (1) 
Cc1csc(C2=C(c3ccccc3)CCOc3ccccc32)[nH+]1

>  <Energy>  (1) 
98.55015507044983

>  <Genealogy>  (1) 
Cc1csc(C2=C(c3ccccc3)CCOc3ccccc32)[nH+]1 (protonated)
Cc1csc(C2=C(c3ccccc3)CCOc3ccccc32)[nH+]1 (3D coordinates assigned)
Cc1csc(C2=C(c3ccccc3)CCOc3ccccc32)[nH+]1 (nonaromatic ring conformer: 98.55015507044983 kcal/mol)

>  <smiles>  (1) 
Cc1csc(C2=C(c3ccccc3)CCOc3ccccc32)n1

>  <score_type>  (1) 
oracle

>  <origin>  (1) 
adg

>  <m_score__min__energy>  (1) 
-6.9299999999999997

>  <m_primary>  (1) 
energy

$$$$
1:0
     RDKit          3D

 52 54  0  0  0  0  0  0  0  0999 V2000
   -9.8870   21.3800  -32.2000 C   0  0  0  0  0  0  0  0  0  0  0  0
   -9.4940   21.6060  -30.7410 C   0  0  0  0  0  0  0  0  0  0  0  0
   -8.0360   21.4150  -30.5630 N   0  0  0  0  0  0  0  0  0  0  0  0
   -7.4600   20.6260  -31.6760 C   0  0  0  0  0  0  0  0  0  0  0  0
   -7.8060   19.1480  -31.5240 C   0  0  0  0  0  0  0  0  0  0  0  0
   -7.3370   22.7160  -30.4230 C   0  0  0  0  0  0  0  0  0  0  0  0
   -6.9130   23.2440  -31.7990 C   0  0  0  0  0  0  0  0  0  0  0  0
   -5.4320   23.5110  -31.8380 C   0  0  0  0  0  0  0  0  0  0  0  0
   -4.9430   24.3560  -31.0430 O   0  0  0  0  0  0  0  0  0  0  0  0
   -4.5460   22.7500  -32.6650 N   0  0  0  0  0  0  0  0  0  0  0  0
   -4.0930   21.4150  -32.4090 C   0  0  0  0  0  0  0  0  0  0  0  0
   -3.0400   21.0420  -31.5760 C   0  0  0  0  0  0  0  0  0  0  0  0
   -2.2090   21.9230  -30.7360 C   0  0  0  0  0  0  0  0  0  0  0  0
   -1.0770   21.5160  -30.3600 O   0  0  0  0  0  0  0  0  0  0  0  0
   -2.6530   23.2390  -30.3790 N   0  0  0  0  0  0  0  0  0  0  0  0
   -2.3460   23.8790  -29.1270 C   0  0  0  0  0  0  0  0  0  0  0  0
   -1.0890   24.4810  -28.9530 C   0  0  0  0  0  0  0  0  0  0  0  0
   -0.7860   25.1660  -27.7740 C   0  0  0  0  0  0  0  0  0  0  0  0
   -1.7400   25.2650  -26.7560 C   0  0  0  0  0  0  0  0  0  0  0  0
   -1.3280   26.2090  -25.1480 Br  0  0  0  0  0  0  0  0  0  0  0  0
   -2.9980   24.6780  -26.9210 C   0  0  0  0  0  0  0  0  0  0  0  0
   -3.3040   23.9910  -28.1000 C   0  0  0  0  0  0  0  0  0  0  0  0
   -2.8900   19.7300  -31.6120 O   0  0  0  0  0  0  0  0  0  0  0  0
   -3.7750   19.2430  -32.4510 C   0  0  0  0  0  0  0  0  0  0  0  0
   -3.9520   17.9110  -32.8130 C   0  0  0  0  0  0  0  0  0  0  0  0
   -4.9390   17.6150  -33.7720 C   0  0  0  0  0  0  0  0  0  0  0  0
   -5.7110   18.6490  -34.3450 C   0  0  0  0  0  0  0  0  0  0  0  0
   -5.5110   19.9870  -33.9590 C   0  0  0  0  0  0  0  0  0  0  0  0
   -4.5440   20.2460  -32.9870 C   0  0  0  0  0  0  0  0  0  0  0  0
  -10.8399   20.8320  -32.2424 H   0  0  0  0  0  0  0  0  0  0  0  0
   -9.9998   22.3512  -32.7040 H   0  0  0  0  0  0  0  0  0  0  0  0
   -9.1043   20.7940  -32.7040 H   0  0  0  0  0  0  0  0  0  0  0  0
   -9.7636   22.6313  -30.4477 H   0  0  0  0  0  0  0  0  0  0  0  0
  -10.0284   20.8796  -30.1111 H   0  0  0  0  0  0  0  0  0  0  0  0
   -7.8662   20.9959  -32.6290 H   0  0  0  0  0  0  0  0  0  0  0  0
   -6.3657   20.7369  -31.6592 H   0  0  0  0  0  0  0  0  0  0  0  0
   -7.8656   18.8934  -30.4555 H   0  0  0  0  0  0  0  0  0  0  0  0
   -8.7754   18.9472  -32.0034 H   0  0  0  0  0  0  0  0  0  0  0  0
   -7.0264   18.5377  -32.0034 H   0  0  0  0  0  0  0  0  0  0  0  0
   -8.0136   23.4421  -29.9486 H   0  0  0  0  0  0  0  0  0  0  0  0
   -6.4399   22.5749  -29.8023 H   0  0  0  0  0  0  0  0  0  0  0  0
   -7.1645   22.4958  -32.5652 H   0  0  0  0  0  0  0  0  0  0  0  0
   -7.4456   24.1866  -31.9935 H   0  0  0  0  0  0  0  0  0  0  0  0
   -3.1930   23.7800  -31.0890 H   0  0  0  0  0  0  0  0  0  0  0  0
   -0.3364   24.4124  -29.7523 H   0  0  0  0  0  0  0  0  0  0  0  0
    0.2040   25.6281  -27.6460 H   0  0  0  0  0  0  0  0  0  0  0  0
   -3.7492   24.7567  -26.1213 H   0  0  0  0  0  0  0  0  0  0  0  0
   -4.2974   23.5359  -28.2262 H   0  0  0  0  0  0  0  0  0  0  0  0
   -3.3401   17.1148  -32.3640 H   0  0  0  0  0  0  0  0  0  0  0  0
   -5.1098   16.5720  -34.0768 H   0  0  0  0  0  0  0  0  0  0  0  0
   -6.4745   18.4066  -35.0988 H   0  0  0  0  0  0  0  0  0  0  0  0
   -6.0974   20.8019  -34.4085 H   0  0  0  0  0  0  0  0  0  0  0  0
  1  2  1  0
  2  3  1  0
  3  4  1  0
  4  5  1  0
  3  6  1  0
  6  7  1  0
  7  8  1  0
  8  9  2  0
  8 10  1  0
 10 11  1  0
 11 12  2  0
 12 13  1  0
 13 14  2  0
 13 15  1  0
 15 16  1  0
 16 17  2  0
 17 18  1  0
 18 19  2  0
 19 20  1  0
 19 21  1  0
 21 22  2  0
 12 23  1  0
 23 24  1  0
 24 25  2  0
 25 26  1  0
 26 27  2  0
 27 28  1  0
 28 29  2  0
 29 11  1  0
 22 16  1  0
 29 24  1  0
  1 30  1  0
  1 31  1  0
  1 32  1  0
  2 33  1  0
  2 34  1  0
  4 35  1  0
  4 36  1  0
  5 37  1  0
  5 38  1  0
  5 39  1  0
  6 40  1  0
  6 41  1  0
  7 42  1  0
  7 43  1  0
 15 44  1  0
 17 45  1  0
 18 46  1  0
 21 47  1  0
 22 48  1  0
 25 49  1  0
 26 50  1  0
 27 51  1  0
 28 52  1  0
M  CHG  1  10  -1
M  END
>  <UniqueID>  (2) 
2

>  <SMILES>  (2) 
CCN(CC)CCC(=O)[N-]c1c(C(=O)Nc2ccc(Br)cc2)oc2ccccc12

>  <Energy>  (2) 
90.17672599886512

>  <Genealogy>  (2) 
CCN(CC)CCC(=O)[N-]c1c(C(=O)Nc2ccc(Br)cc2)oc2ccccc12 (protonated)
CCN(CC)CCC(=O)[N-]c1c(C(=O)Nc2ccc(Br)cc2)oc2ccccc12 (3D coordinates assigned)
CCN(CC)CCC(=O)[N-]c1c(C(=O)Nc2ccc(Br)cc2)oc2ccccc12 (optimized conformer: 90.17672599886512 kcal/mol)

>  <smiles>  (2) 
CCN(CC)CCC(=O)Nc1c(C(=O)Nc2ccc(Br)cc2)oc2ccccc12

>  <score_type>  (2) 
oracle

>  <origin>  (2) 
adg

>  <m_score__min__energy>  (2) 
-9.3699999999999992

>  <m_primary>  (2) 
energy

$$$$
2:0
     RDKit          3D

 47 50  0  0  0  0  0  0  0  0999 V2000
   -8.7730   22.5490  -31.6050 C   0  0  0  0  0  0  0  0  0  0  0  0
   -7.5480   23.2590  -31.0470 C   0  0  0  0  0  0  0  0  0  0  0  0
   -6.3130   23.6030  -32.3490 S   0  0  0  0  0  0  0  0  0  0  0  0
   -4.8780   23.1550  -31.3530 C   0  0  0  0  0  0  0  0  0  0  0  0
   -4.2420   24.1490  -30.6720 N   0  0  0  0  0  0  0  0  0  0  0  0
   -3.1810   23.8480  -29.8950 C   0  0  0  0  0  0  0  0  0  0  0  0
   -2.2900   24.9230  -28.9610 S   0  0  0  0  0  0  0  0  0  0  0  0
   -1.2690   23.7220  -28.3530 C   0  0  0  0  0  0  0  0  0  0  0  0
   -1.5930   22.4850  -28.9020 C   0  0  0  0  0  0  0  0  0  0  0  0
   -2.7050   22.5610  -29.7630 C   0  0  0  0  0  0  0  0  0  0  0  0
   -3.3540   21.5390  -30.4660 C   0  0  0  0  0  0  0  0  0  0  0  0
   -2.9450   20.3480  -30.3760 O   0  0  0  0  0  0  0  0  0  0  0  0
   -4.4320   21.8500  -31.2630 N   0  0  0  0  0  0  0  0  0  0  0  0
   -5.0710   20.8060  -32.0240 C   0  0  0  0  0  0  0  0  0  0  0  0
   -4.4500   20.2810  -33.1670 C   0  0  0  0  0  0  0  0  0  0  0  0
   -5.0680   19.2680  -33.9020 C   0  0  0  0  0  0  0  0  0  0  0  0
   -6.3080   18.7660  -33.4980 C   0  0  0  0  0  0  0  0  0  0  0  0
   -6.9390   19.2680  -32.3540 C   0  0  0  0  0  0  0  0  0  0  0  0
   -8.1830   18.7320  -31.9890 O   0  0  0  0  0  0  0  0  0  0  0  0
   -9.4390   19.2920  -32.3600 C   0  0  0  0  0  0  0  0  0  0  0  0
   -6.3090   20.2860  -31.6120 C   0  0  0  0  0  0  0  0  0  0  0  0
   -0.8550   21.2360  -28.5040 C   0  0  0  0  0  0  0  0  0  0  0  0
    0.4600   21.5710  -27.7660 C   0  0  0  0  0  0  0  0  0  0  0  0
    0.3160   22.6740  -26.7860 N   0  0  0  0  0  0  0  0  0  0  0  0
   -0.5620   22.3080  -25.6610 C   0  0  0  0  0  0  0  0  0  0  0  0
   -0.1090   23.9360  -27.4310 C   0  0  0  0  0  0  0  0  0  0  0  0
   -9.3971   22.1873  -30.7746 H   0  0  0  0  0  0  0  0  0  0  0  0
   -9.3540   23.2503  -32.2219 H   0  0  0  0  0  0  0  0  0  0  0  0
   -8.4533   21.6962  -32.2219 H   0  0  0  0  0  0  0  0  0  0  0  0
   -7.8632   24.2108  -30.5945 H   0  0  0  0  0  0  0  0  0  0  0  0
   -7.0822   22.6011  -30.2985 H   0  0  0  0  0  0  0  0  0  0  0  0
   -3.4714   20.6694  -33.4856 H   0  0  0  0  0  0  0  0  0  0  0  0
   -4.5783   18.8643  -34.8004 H   0  0  0  0  0  0  0  0  0  0  0  0
   -6.7918   17.9703  -34.0835 H   0  0  0  0  0  0  0  0  0  0  0  0
  -10.0090   19.5462  -31.4542 H   0  0  0  0  0  0  0  0  0  0  0  0
   -9.2732   20.2015  -32.9562 H   0  0  0  0  0  0  0  0  0  0  0  0
  -10.0047   18.5609  -32.9562 H   0  0  0  0  0  0  0  0  0  0  0  0
   -6.7901   20.6767  -30.7032 H   0  0  0  0  0  0  0  0  0  0  0  0
   -1.4959   20.6375  -27.8399 H   0  0  0  0  0  0  0  0  0  0  0  0
   -0.6071   20.6740  -29.4165 H   0  0  0  0  0  0  0  0  0  0  0  0
    0.8000   20.6714  -27.2321 H   0  0  0  0  0  0  0  0  0  0  0  0
    1.1852   21.9008  -28.5245 H   0  0  0  0  0  0  0  0  0  0  0  0
   -0.0495   22.5216  -24.7114 H   0  0  0  0  0  0  0  0  0  0  0  0
   -1.4916   22.8936  -25.7158 H   0  0  0  0  0  0  0  0  0  0  0  0
   -0.8004   21.2356  -25.7158 H   0  0  0  0  0  0  0  0  0  0  0  0
   -0.4012   24.6545  -26.6510 H   0  0  0  0  0  0  0  0  0  0  0  0
    0.7345   24.3198  -28.0237 H   0  0  0  0  0  0  0  0  0  0  0  0
  1  2  1  0
  2  3  1  0
  3  4  1  0
  4  5  2  0
  5  6  1  0
  6  7  1  0
  7  8  1  0
  8  9  2  0
  9 10  1  0
 10 11  1  0
 11 12  2  0
 11 13  1  0
 13 14  1  0
 14 15  2  0
 15 16  1  0
 16 17  2  0
 17 18  1  0
 18 19  1  0
 19 20  1  0
 18 21  2  0
  9 22  1  0
 22 23  1  0
 23 24  1  0
 24 25  1  0
 24 26  1  0
 13  4  1  0
 21 14  1  0
 10  6  2  0
 26  8  1  0
  1 27  1  0
  1 28  1  0
  1 29  1  0
  2 30  1  0
  2 31  1  0
 15 32  1  0
 16 33  1  0
 17 34  1  0
 20 35  1  0
 20 36  1  0
 20 37  1  0
 21 38  1  0
 22 39  1  0
 22 40  1  0
 23 41  1  0
 23 42  1  0
 25 43  1  0
 25 44  1  0
 25 45  1  0
 26 46  1  0
 26 47  1  0
M  END
>  <UniqueID>  (3) 
3

>  <SMILES>  (3) 
CCSc1nc2sc3c(c2c(=O)n1-c1cccc(OC)c1)CCN(C)C3

>  <Energy>  (3) 
92.18579042518363

>  <Genealogy>  (3) 
CCSc1nc2sc3c(c2c(=O)n1-c1cccc(OC)c1)CCN(C)C3 (3D coordinates assigned)
CCSc1nc2sc3c(c2c(=O)n1-c1cccc(OC)c1)CCN(C)C3 (nonaromatic ring conformer: 92.18579042518363 kcal/mol)

>  <smiles>  (3) 
CCSc1nc2sc3c(c2c(=O)n1-c1cccc(OC)c1)CCN(C)C3

>  <score_type>  (3) 
oracle

>  <origin>  (3) 
adg

>  <m_score__min__energy>  (3) 
-7.9199999999999999

>  <m_primary>  (3) 
energy

$$$$
3:0
     RDKit          3D

 46 48  0  0  0  0  0  0  0  0999 V2000
   -1.6400   25.6600  -27.1090 C   0  0  0  0  0  0  0  0  0  0  0  0
   -1.6170   24.8160  -28.3810 C   0  0  0  0  0  0  0  0  0  0  0  0
   -2.7950   25.0820  -29.2100 N   0  0  0  0  0  0  0  0  0  0  0  0
   -3.5520   24.0440  -29.8610 C   0  0  0  0  0  0  0  0  0  0  0  0
   -3.2530   22.6800  -29.6750 C   0  0  0  0  0  0  0  0  0  0  0  0
   -4.0070   21.6960  -30.3200 C   0  0  0  0  0  0  0  0  0  0  0  0
   -5.0800   22.0530  -31.1490 C   0  0  0  0  0  0  0  0  0  0  0  0
   -5.8440   21.0050  -31.8570 C   0  0  0  0  0  0  0  0  0  0  0  0
   -5.1430   20.0050  -32.4550 N   0  0  0  0  0  0  0  0  0  0  0  0
   -5.7510   19.0190  -33.1680 C   0  0  0  0  0  0  0  0  0  0  0  0
   -4.9260   17.8900  -33.7670 C   0  0  0  0  0  0  0  0  0  0  0  0
   -5.3410   16.5680  -33.0990 C   0  0  0  0  0  0  0  0  0  0  0  0
   -5.1660   17.7910  -35.2890 C   0  0  0  0  0  0  0  0  0  0  0  0
   -3.4210   18.1370  -33.5250 C   0  0  0  0  0  0  0  0  0  0  0  0
   -7.1070   19.0020  -33.2590 N   0  0  0  0  0  0  0  0  0  0  0  0
   -7.8680   19.9610  -32.6740 C   0  0  0  0  0  0  0  0  0  0  0  0
   -9.2620   19.9040  -32.7860 C   0  0  0  0  0  0  0  0  0  0  0  0
  -10.0560   20.8660  -32.1590 C   0  0  0  0  0  0  0  0  0  0  0  0
   -9.4620   21.8830  -31.4080 C   0  0  0  0  0  0  0  0  0  0  0  0
   -8.0710   21.9500  -31.2880 C   0  0  0  0  0  0  0  0  0  0  0  0
   -7.2550   21.0000  -31.9370 C   0  0  0  0  0  0  0  0  0  0  0  0
   -5.3660   23.4120  -31.3550 C   0  0  0  0  0  0  0  0  0  0  0  0
   -4.6120   24.3970  -30.7100 C   0  0  0  0  0  0  0  0  0  0  0  0
   -1.6220   24.9990  -26.2300 H   0  0  0  0  0  0  0  0  0  0  0  0
   -0.7595   26.3190  -27.0903 H   0  0  0  0  0  0  0  0  0  0  0  0
   -2.5551   26.2701  -27.0903 H   0  0  0  0  0  0  0  0  0  0  0  0
   -0.7108   25.0570  -28.9561 H   0  0  0  0  0  0  0  0  0  0  0  0
   -1.6221   23.7535  -28.0962 H   0  0  0  0  0  0  0  0  0  0  0  0
   -3.1070   26.0720  -29.3380 H   0  0  0  0  0  0  0  0  0  0  0  0
   -2.4207   22.3876  -29.0179 H   0  0  0  0  0  0  0  0  0  0  0  0
   -3.7571   20.6344  -30.1764 H   0  0  0  0  0  0  0  0  0  0  0  0
   -5.3050   16.6826  -32.0056 H   0  0  0  0  0  0  0  0  0  0  0  0
   -6.3643   16.3070  -33.4069 H   0  0  0  0  0  0  0  0  0  0  0  0
   -4.6505   15.7690  -33.4069 H   0  0  0  0  0  0  0  0  0  0  0  0
   -6.1681   17.3776  -35.4761 H   0  0  0  0  0  0  0  0  0  0  0  0
   -5.0929   18.7927  -35.7376 H   0  0  0  0  0  0  0  0  0  0  0  0
   -4.4080   17.1321  -35.7376 H   0  0  0  0  0  0  0  0  0  0  0  0
   -3.2240   18.1693  -32.4433 H   0  0  0  0  0  0  0  0  0  0  0  0
   -2.8380   17.3225  -33.9797 H   0  0  0  0  0  0  0  0  0  0  0  0
   -3.1289   19.0951  -33.9797 H   0  0  0  0  0  0  0  0  0  0  0  0
   -9.7331   19.0992  -33.3695 H   0  0  0  0  0  0  0  0  0  0  0  0
  -11.1508   20.8230  -32.2565 H   0  0  0  0  0  0  0  0  0  0  0  0
  -10.0916   22.6344  -30.9089 H   0  0  0  0  0  0  0  0  0  0  0  0
   -7.6109   22.7467  -30.6851 H   0  0  0  0  0  0  0  0  0  0  0  0
   -6.1869   23.7031  -32.0268 H   0  0  0  0  0  0  0  0  0  0  0  0
   -4.8520   25.4586  -30.8696 H   0  0  0  0  0  0  0  0  0  0  0  0
  1  2  1  0
  2  3  1  0
  3  4  1  0
  4  5  2  0
  5  6  1  0
  6  7  2  0
  7  8  1  0
  8  9  2  0
  9 10  1  0
 10 11  1  0
 11 12  1  0
 11 13  1  0
 11 14  1  0
 10 15  2  0
 15 16  1  0
 16 17  2  0
 17 18  1  0
 18 19  2  0
 19 20  1  0
 20 21  2  0
  7 22  1  0
 22 23  2  0
 23  4  1  0
 21  8  1  0
 21 16  1  0
  1 24  1  0
  1 25  1  0
  1 26  1  0
  2 27  1  0
  2 28  1  0
  3 29  1  0
  5 30  1  0
  6 31  1  0
 12 32  1  0
 12 33  1  0
 12 34  1  0
 13 35  1  0
 13 36  1  0
 13 37  1  0
 14 38  1  0
 14 39  1  0
 14 40  1  0
 17 41  1  0
 18 42  1  0
 19 43  1  0
 20 44  1  0
 22 45  1  0
 23 46  1  0
M  END
>  <UniqueID>  (4) 
4

>  <SMILES>  (4) 
CCNc1ccc(-c2nc(C(C)(C)C)nc3ccccc23)cc1

>  <Energy>  (4) 
52.05904742068279

>  <Genealogy>  (4) 
CCNc1ccc(-c2nc(C(C)(C)C)nc3ccccc23)cc1 (3D coordinates assigned)
CCNc1ccc(-c2nc(C(C)(C)C)nc3ccccc23)cc1 (optimized conformer: 52.05904742068279 kcal/mol)

>  <smiles>  (4) 
CCNc1ccc(-c2nc(C(C)(C)C)nc3ccccc23)cc1

>  <score_type>  (4) 
oracle

>  <origin>  (4) 
adg

>  <m_score__min__energy>  (4) 
-9.0899999999999999

>  <m_primary>  (4) 
energy

$$$$
4:0
     RDKit          3D

 48 51  0  0  0  0  0  0  0  0999 V2000
   -6.5550   24.7250  -29.7140 C   0  0  0  0  0  0  0  0  0  0  0  0
   -6.0170   23.5220  -30.4360 C   0  0  0  0  0  0  0  0  0  0  0  0
   -6.9050   22.5610  -30.8090 N   0  0  0  0  0  0  0  0  0  0  0  0
   -6.5620   21.4800  -31.5620 C   0  0  0  0  0  0  0  0  0  0  0  0
   -7.5700   20.5090  -31.8990 N   0  0  0  0  0  0  0  0  0  0  0  0
   -8.8530   20.7280  -32.2610 C   0  0  0  0  0  0  0  0  0  0  0  0
   -9.4870   19.5240  -32.4970 C   0  0  0  0  0  0  0  0  0  0  0  0
   -8.5570   18.5320  -32.2640 C   0  0  0  0  0  0  0  0  0  0  0  0
   -7.3920   19.1710  -31.8960 C   0  0  0  0  0  0  0  0  0  0  0  0
   -5.2330   21.3560  -32.0010 C   0  0  0  0  0  0  0  0  0  0  0  0
   -4.2970   22.3280  -31.6500 C   0  0  0  0  0  0  0  0  0  0  0  0
   -4.6700   23.4240  -30.8600 C   0  0  0  0  0  0  0  0  0  0  0  0
   -3.6440   24.4310  -30.4940 C   0  0  0  0  0  0  0  0  0  0  0  0
   -3.8910   25.6540  -30.6550 O   0  0  0  0  0  0  0  0  0  0  0  0
   -2.4180   24.0570  -29.8510 N   0  0  0  0  0  0  0  0  0  0  0  0
   -2.0930   22.7610  -29.3200 C   0  0  0  0  0  0  0  0  0  0  0  0
   -1.7710   21.6890  -30.1700 C   0  0  0  0  0  0  0  0  0  0  0  0
   -1.3870   20.4550  -29.6370 C   0  0  0  0  0  0  0  0  0  0  0  0
   -1.3080   20.2880  -28.2500 C   0  0  0  0  0  0  0  0  0  0  0  0
   -1.6200   21.3490  -27.3950 C   0  0  0  0  0  0  0  0  0  0  0  0
   -2.0080   22.5880  -27.9240 C   0  0  0  0  0  0  0  0  0  0  0  0
   -2.2950   23.6770  -27.0340 N   0  0  0  0  0  0  0  0  0  0  0  0
   -1.1680   24.3080  -26.3340 C   0  0  0  0  0  0  0  0  0  0  0  0
   -1.6440   25.3080  -25.2770 C   0  0  0  0  0  0  0  0  0  0  0  0
   -2.6990   26.1080  -25.7700 O   0  0  0  0  0  0  0  0  0  0  0  0
   -3.8380   25.2980  -25.9610 C   0  0  0  0  0  0  0  0  0  0  0  0
   -3.6120   24.3220  -27.1210 C   0  0  0  0  0  0  0  0  0  0  0  0
   -6.4828   24.5637  -28.6283 H   0  0  0  0  0  0  0  0  0  0  0  0
   -5.9681   25.6127  -29.9926 H   0  0  0  0  0  0  0  0  0  0  0  0
   -7.6079   24.8793  -29.9926 H   0  0  0  0  0  0  0  0  0  0  0  0
   -9.3229   21.7182  -32.3540 H   0  0  0  0  0  0  0  0  0  0  0  0
  -10.5320   19.3831  -32.8103 H   0  0  0  0  0  0  0  0  0  0  0  0
   -8.7138   17.4469  -32.3539 H   0  0  0  0  0  0  0  0  0  0  0  0
   -6.4515   18.6628  -31.6369 H   0  0  0  0  0  0  0  0  0  0  0  0
   -4.9326   20.4966  -32.6184 H   0  0  0  0  0  0  0  0  0  0  0  0
   -3.2571   22.2339  -31.9960 H   0  0  0  0  0  0  0  0  0  0  0  0
   -1.8214   21.8217  -31.2608 H   0  0  0  0  0  0  0  0  0  0  0  0
   -1.1472   19.6163  -30.3072 H   0  0  0  0  0  0  0  0  0  0  0  0
   -0.9994   19.3188  -27.8311 H   0  0  0  0  0  0  0  0  0  0  0  0
   -1.5610   21.2115  -26.3052 H   0  0  0  0  0  0  0  0  0  0  0  0
   -0.5718   23.5258  -25.8414 H   0  0  0  0  0  0  0  0  0  0  0  0
   -0.5671   24.8544  -27.0759 H   0  0  0  0  0  0  0  0  0  0  0  0
   -1.9952   24.7558  -24.3928 H   0  0  0  0  0  0  0  0  0  0  0  0
   -0.8017   25.9649  -25.0142 H   0  0  0  0  0  0  0  0  0  0  0  0
   -4.0356   24.7280  -25.0412 H   0  0  0  0  0  0  0  0  0  0  0  0
   -4.6975   25.9419  -26.1991 H   0  0  0  0  0  0  0  0  0  0  0  0
   -4.3920   23.5469  -27.0929 H   0  0  0  0  0  0  0  0  0  0  0  0
   -3.6567   24.8891  -28.0625 H   0  0  0  0  0  0  0  0  0  0  0  0
  1  2  1  0
  2  3  2  0
  3  4  1  0
  4  5  1  0
  5  6  1  0
  6  7  2  0
  7  8  1  0
  8  9  2  0
  4 10  2  0
 10 11  1  0
 11 12  2  0
 12 13  1  0
 13 14  2  0
 13 15  1  0
 15 16  1  0
 16 17  2  0
 17 18  1  0
 18 19  2  0
 19 20  1  0
 20 21  2  0
 21 22  1  0
 22 23  1  0
 23 24  1  0
 24 25  1  0
 25 26  1  0
 26 27  1  0
 12  2  1  0
 21 16  1  0
 27 22  1  0
  9  5  1  0
  1 28  1  0
  1 29  1  0
  1 30  1  0
  6 31  1  0
  7 32  1  0
  8 33  1  0
  9 34  1  0
 10 35  1  0
 11 36  1  0
 17 37  1  0
 18 38  1  0
 19 39  1  0
 20 40  1  0
 23 41  1  0
 23 42  1  0
 24 43  1  0
 24 44  1  0
 26 45  1  0
 26 46  1  0
 27 47  1  0
 27 48  1  0
M  CHG  1  15  -1
M  END
>  <UniqueID>  (5) 
5

>  <SMILES>  (5) 
Cc1nc(-n2cccc2)ccc1C(=O)[N-]c1ccccc1N1CCOCC1

>  <Energy>  (5) 
96.150765406479

>  <Genealogy>  (5) 
Cc1nc(-n2cccc2)ccc1C(=O)[N-]c1ccccc1N1CCOCC1 (protonated)
Cc1nc(-n2cccc2)ccc1C(=O)[N-]c1ccccc1N1CCOCC1 (3D coordinates assigned)
Cc1nc(-n2cccc2)ccc1C(=O)[N-]c1ccccc1N1CCOCC1 (nonaromatic ring conformer: 96.150765406479 kcal/mol)

>  <smiles>  (5) 
Cc1nc(-n2cccc2)ccc1C(=O)Nc1ccccc1N1CCOCC1

>  <score_type>  (5) 
oracle

>  <origin>  (5) 
adg

>  <m_score__min__energy>  (5) 
-9.6199999999999992

>  <m_primary>  (5) 
energy

$$$$
5:0
     RDKit          3D

 43 45  0  0  0  0  0  0  0  0999 V2000
   -9.5820   21.6190  -31.4070 C   0  0  0  0  0  0  0  0  0  0  0  0
   -8.2470   21.1900  -31.9260 C   0  0  0  0  0  0  0  0  0  0  0  0
   -7.2070   22.1120  -32.0530 C   0  0  0  0  0  0  0  0  0  0  0  0
   -5.9720   21.6880  -32.5420 C   0  0  0  0  0  0  0  0  0  0  0  0
   -5.7720   20.3480  -32.9070 C   0  0  0  0  0  0  0  0  0  0  0  0
   -4.4290   19.9460  -33.4920 C   0  0  0  0  0  0  0  0  0  0  0  0
   -3.5830   19.2430  -32.5120 N   0  0  0  0  0  0  0  0  0  0  0  0
   -2.9890   20.1670  -31.5750 C   0  0  0  0  0  0  0  0  0  0  0  0
   -3.7620   20.7230  -30.5420 C   0  0  0  0  0  0  0  0  0  0  0  0
   -3.2250   21.7070  -29.7100 C   0  0  0  0  0  0  0  0  0  0  0  0
   -1.9100   22.1510  -29.8980 C   0  0  0  0  0  0  0  0  0  0  0  0
   -1.2900   23.5030  -28.9520 S   0  0  0  0  0  0  0  0  0  0  0  0
    0.1450   23.7540  -29.3210 O   0  0  0  0  0  0  0  0  0  0  0  0
   -1.3600   23.2010  -27.4810 O   0  0  0  0  0  0  0  0  0  0  0  0
   -2.2310   24.9170  -29.2990 N   0  0  0  0  0  0  0  0  0  0  0  0
   -3.4850   24.8690  -29.6270 C   0  0  0  0  0  0  0  0  0  0  0  0
   -3.9740   25.3020  -30.8120 N   0  0  0  0  0  0  0  0  0  0  0  0
   -5.3210   25.1390  -30.8810 C   0  0  0  0  0  0  0  0  0  0  0  0
   -5.9070   24.5790  -29.7510 C   0  0  0  0  0  0  0  0  0  0  0  0
   -4.6910   24.2740  -28.6250 S   0  0  0  0  0  0  0  0  0  0  0  0
   -1.1240   21.5800  -30.9120 C   0  0  0  0  0  0  0  0  0  0  0  0
    0.1440   22.0120  -31.1290 F   0  0  0  0  0  0  0  0  0  0  0  0
   -1.6590   20.5910  -31.7400 C   0  0  0  0  0  0  0  0  0  0  0  0
   -6.8500   19.4400  -32.7520 C   0  0  0  0  0  0  0  0  0  0  0  0
   -6.7350   17.9830  -33.0930 C   0  0  0  0  0  0  0  0  0  0  0  0
   -8.0410   19.8900  -32.2690 N   0  0  0  0  0  0  0  0  0  0  0  0
   -9.5667   21.6141  -30.3071 H   0  0  0  0  0  0  0  0  0  0  0  0
   -9.8060   22.6343  -31.7660 H   0  0  0  0  0  0  0  0  0  0  0  0
  -10.3555   20.9242  -31.7660 H   0  0  0  0  0  0  0  0  0  0  0  0
   -7.3603   23.1638  -31.7698 H   0  0  0  0  0  0  0  0  0  0  0  0
   -5.1480   22.4097  -32.6424 H   0  0  0  0  0  0  0  0  0  0  0  0
   -4.6016   19.2820  -34.3518 H   0  0  0  0  0  0  0  0  0  0  0  0
   -3.9039   20.8641  -33.7942 H   0  0  0  0  0  0  0  0  0  0  0  0
   -4.1430   18.5170  -32.0060 H   0  0  0  0  0  0  0  0  0  0  0  0
   -2.8210   18.7390  -33.0250 H   0  0  0  0  0  0  0  0  0  0  0  0
   -4.7961   20.3811  -30.3879 H   0  0  0  0  0  0  0  0  0  0  0  0
   -3.8375   22.1356  -28.9030 H   0  0  0  0  0  0  0  0  0  0  0  0
   -5.9057   25.4290  -31.7665 H   0  0  0  0  0  0  0  0  0  0  0  0
   -6.9787   24.3711  -29.6156 H   0  0  0  0  0  0  0  0  0  0  0  0
   -1.0356   20.1408  -32.5265 H   0  0  0  0  0  0  0  0  0  0  0  0
   -6.6884   17.3921  -32.1663 H   0  0  0  0  0  0  0  0  0  0  0  0
   -7.6115   17.6738  -33.6813 H   0  0  0  0  0  0  0  0  0  0  0  0
   -5.8208   17.8152  -33.6813 H   0  0  0  0  0  0  0  0  0  0  0  0
  1  2  1  0
  2  3  2  0
  3  4  1  0
  4  5  2  0
  5  6  1  0
  6  7  1  0
  7  8  1  0
  8  9  2  0
  9 10  1  0
 10 11  2  0
 11 12  1  0
 12 13  2  0
 12 14  2  0
 12 15  1  0
 15 16  2  3
 16 17  1  0
 17 18  1  0
 18 19  2  0
 19 20  1  0
 11 21  1  0
 21 22  1  0
 21 23  2  0
  5 24  1  0
 24 25  1  0
 24 26  2  0
 26  2  1  0
 23  8  1  0
 20 16  1  0
  1 27  1  0
  1 28  1  0
  1 29  1  0
  3 30  1  0
  4 31  1  0
  6 32  1  0
  6 33  1  0
  7 34  1  0
  7 35  1  0
  9 36  1  0
 10 37  1  0
 18 38  1  0
 19 39  1  0
 23 40  1  0
 25 41  1  0
 25 42  1  0
 25 43  1  0
M  CHG  2   7   1  17  -1
M  END
>  <UniqueID>  (6) 
6

>  <SMILES>  (6) 
Cc1ccc(C[NH2+]c2ccc(S(=O)(=O)N=c3[n-]ccs3)c(F)c2)c(C)n1

>  <Energy>  (6) 
75.6567639369159

>  <Genealogy>  (6) 
Cc1ccc(C[NH2+]c2ccc(S(=O)(=O)N=c3[n-]ccs3)c(F)c2)c(C)n1 (protonated)
Cc1ccc(C[NH2+]c2ccc(S(=O)(=O)N=c3[n-]ccs3)c(F)c2)c(C)n1 (3D coordinates assigned)
Cc1ccc(C[NH2+]c2ccc(S(=O)(=O)N=c3[n-]ccs3)c(F)c2)c(C)n1 (optimized conformer: 75.6567639369159 kcal/mol)

>  <smiles>  (6) 
Cc1ccc(CNc2ccc(S(=O)(=O)N=c3[nH]ccs3)c(F)c2)c(C)n1

>  <score_type>  (6) 
oracle

>  <origin>  (6) 
adg

>  <m_score__min__energy>  (6) 
-9.5999999999999996

>  <m_primary>  (6) 
energy

$$$$
6:0
     RDKit          3D

 61 64  0  0  0  0  0  0  0  0999 V2000
   -9.6150   21.0790  -32.0040 C   0  0  0  0  0  0  0  0  0  0  0  0
   -9.4840   19.6620  -32.5600 C   0  0  0  0  0  0  0  0  0  0  0  0
   -8.2860   18.9000  -31.9760 C   0  0  0  0  0  0  0  0  0  0  0  0
   -6.9680   19.5380  -32.3600 C   0  0  0  0  0  0  0  0  0  0  0  0
   -6.7170   20.7690  -31.8450 N   0  0  0  0  0  0  0  0  0  0  0  0
   -5.5750   21.4610  -32.0780 C   0  0  0  0  0  0  0  0  0  0  0  0
   -5.4550   22.8120  -31.4890 C   0  0  0  0  0  0  0  0  0  0  0  0
   -4.2250   23.2770  -30.9920 C   0  0  0  0  0  0  0  0  0  0  0  0
   -4.1330   24.5490  -30.4180 C   0  0  0  0  0  0  0  0  0  0  0  0
   -5.2630   25.3690  -30.3470 C   0  0  0  0  0  0  0  0  0  0  0  0
   -6.4840   24.9210  -30.8590 C   0  0  0  0  0  0  0  0  0  0  0  0
   -6.5800   23.6510  -31.4330 C   0  0  0  0  0  0  0  0  0  0  0  0
   -4.5600   20.8880  -32.8710 C   0  0  0  0  0  0  0  0  0  0  0  0
   -3.3010   21.5600  -33.0610 N   0  0  0  0  0  0  0  0  0  0  0  0
   -2.1570   21.3620  -32.1690 C   0  0  0  0  0  0  0  0  0  0  0  0
   -2.5170   20.4230  -31.0080 C   0  0  0  0  0  0  0  0  0  0  0  0
   -1.8390   20.7610  -29.7370 N   0  0  0  0  0  0  0  0  0  0  0  0
   -0.8350   21.8430  -29.7920 C   0  0  0  0  0  0  0  0  0  0  0  0
   -1.3920   23.1850  -29.3050 C   0  0  0  0  0  0  0  0  0  0  0  0
   -1.9870   23.0290  -27.9680 N   0  0  0  0  0  0  0  0  0  0  0  0
   -2.4350   24.3360  -27.4630 C   0  0  0  0  0  0  0  0  0  0  0  0
   -3.1270   22.1010  -28.0390 C   0  0  0  0  0  0  0  0  0  0  0  0
   -2.6690   20.7150  -28.5130 C   0  0  0  0  0  0  0  0  0  0  0  0
   -4.7740   19.6080  -33.4340 C   0  0  0  0  0  0  0  0  0  0  0  0
   -3.7790   18.9880  -34.2180 C   0  0  0  0  0  0  0  0  0  0  0  0
   -3.9860   17.7190  -34.7570 C   0  0  0  0  0  0  0  0  0  0  0  0
   -5.1780   17.0450  -34.5190 C   0  0  0  0  0  0  0  0  0  0  0  0
   -6.1740   17.6300  -33.7370 C   0  0  0  0  0  0  0  0  0  0  0  0
   -5.9920   18.9160  -33.1800 C   0  0  0  0  0  0  0  0  0  0  0  0
   -9.6117   21.0433  -30.9046 H   0  0  0  0  0  0  0  0  0  0  0  0
   -8.7695   21.6897  -32.3536 H   0  0  0  0  0  0  0  0  0  0  0  0
  -10.5581   21.5243  -32.3536 H   0  0  0  0  0  0  0  0  0  0  0  0
  -10.4030   19.1057  -32.3235 H   0  0  0  0  0  0  0  0  0  0  0  0
   -9.3246   19.7464  -33.6451 H   0  0  0  0  0  0  0  0  0  0  0  0
   -8.3706   18.8916  -30.8793 H   0  0  0  0  0  0  0  0  0  0  0  0
   -8.3011   17.8783  -32.3834 H   0  0  0  0  0  0  0  0  0  0  0  0
   -3.3317   22.6381  -31.0548 H   0  0  0  0  0  0  0  0  0  0  0  0
   -3.1704   24.9047  -30.0219 H   0  0  0  0  0  0  0  0  0  0  0  0
   -5.1913   26.3663  -29.8884 H   0  0  0  0  0  0  0  0  0  0  0  0
   -7.3710   25.5697  -30.8099 H   0  0  0  0  0  0  0  0  0  0  0  0
   -7.5409   23.3066  -31.8429 H   0  0  0  0  0  0  0  0  0  0  0  0
   -3.1620   22.1290  -33.9260 H   0  0  0  0  0  0  0  0  0  0  0  0
   -1.3266   20.9232  -32.7417 H   0  0  0  0  0  0  0  0  0  0  0  0
   -1.8662   22.3375  -31.7520 H   0  0  0  0  0  0  0  0  0  0  0  0
   -3.6038   20.4725  -30.8456 H   0  0  0  0  0  0  0  0  0  0  0  0
   -2.1806   19.4154  -31.2936 H   0  0  0  0  0  0  0  0  0  0  0  0
    0.0192   21.5643  -29.1574 H   0  0  0  0  0  0  0  0  0  0  0  0
   -0.5343   21.9672  -30.8428 H   0  0  0  0  0  0  0  0  0  0  0  0
   -0.5766   23.9217  -29.2569 H   0  0  0  0  0  0  0  0  0  0  0  0
   -2.1662   23.5298  -30.0062 H   0  0  0  0  0  0  0  0  0  0  0  0
   -2.4312   24.3250  -26.3631 H   0  0  0  0  0  0  0  0  0  0  0  0
   -1.7548   25.1214  -27.8242 H   0  0  0  0  0  0  0  0  0  0  0  0
   -3.4540   24.5390  -27.8242 H   0  0  0  0  0  0  0  0  0  0  0  0
   -3.5810   22.0097  -27.0412 H   0  0  0  0  0  0  0  0  0  0  0  0
   -3.8606   22.4960  -28.7572 H   0  0  0  0  0  0  0  0  0  0  0  0
   -2.0809   20.2477  -27.7094 H   0  0  0  0  0  0  0  0  0  0  0  0
   -3.5735   20.1371  -28.7536 H   0  0  0  0  0  0  0  0  0  0  0  0
   -2.8298   19.5111  -34.4062 H   0  0  0  0  0  0  0  0  0  0  0  0
   -3.2040   17.2500  -35.3722 H   0  0  0  0  0  0  0  0  0  0  0  0
   -5.3368   16.0453  -34.9495 H   0  0  0  0  0  0  0  0  0  0  0  0
   -7.1111   17.0845  -33.5519 H   0  0  0  0  0  0  0  0  0  0  0  0
  1  2  1  0
  2  3  1  0
  3  4  1  0
  4  5  2  0
  5  6  1  0
  6  7  1  0
  7  8  2  0
  8  9  1  0
  9 10  2  0
 10 11  1  0
 11 12  2  0
  6 13  2  0
 13 14  1  0
 14 15  1  0
 15 16  1  0
 16 17  1  0
 17 18  1  0
 18 19  1  0
 19 20  1  0
 20 21  1  0
 20 22  1  0
 22 23  1  0
 13 24  1  0
 24 25  2  0
 25 26  1  0
 26 27  2  0
 27 28  1  0
 28 29  2  0
 29  4  1  0
 12  7  1  0
 23 17  1  0
 29 24  1  0
  1 30  1  0
  1 31  1  0
  1 32  1  0
  2 33  1  0
  2 34  1  0
  3 35  1  0
  3 36  1  0
  8 37  1  0
  9 38  1  0
 10 39  1  0
 11 40  1  0
 12 41  1  0
 14 42  1  0
 15 43  1  0
 15 44  1  0
 16 45  1  0
 16 46  1  0
 18 47  1  0
 18 48  1  0
 19 49  1  0
 19 50  1  0
 21 51  1  0
 21 52  1  0
 21 53  1  0
 22 54  1  0
 22 55  1  0
 23 56  1  0
 23 57  1  0
 25 58  1  0
 26 59  1  0
 27 60  1  0
 28 61  1  0
M  END
>  <UniqueID>  (7) 
7

>  <SMILES>  (7) 
CCCc1nc(-c2ccccc2)c(NCCN2CCN(C)CC2)c2ccccc12

>  <Energy>  (7) 
82.38036711746584

>  <Genealogy>  (7) 
CCCc1nc(-c2ccccc2)c(NCCN2CCN(C)CC2)c2ccccc12 (3D coordinates assigned)
CCCc1nc(-c2ccccc2)c(NCCN2CCN(C)CC2)c2ccccc12 (nonaromatic ring conformer: 82.38036711746584 kcal/mol)

>  <smiles>  (7) 
CCCc1nc(-c2ccccc2)c(NCCN2CCN(C)CC2)c2ccccc12

>  <score_type>  (7) 
oracle

>  <origin>  (7) 
adg

>  <m_score__min__energy>  (7) 
-9.3100000000000005

>  <m_primary>  (7) 
energy

$$$$
7:0
     RDKit          3D

 39 40  0  0  0  0  0  0  0  0999 V2000
   -5.6700   24.8840  -30.5530 C   0  0  0  0  0  0  0  0  0  0  0  0
   -4.8400   24.0200  -31.2980 O   0  0  0  0  0  0  0  0  0  0  0  0
   -4.0360   23.2660  -30.4130 C   0  0  0  0  0  0  0  0  0  0  0  0
   -2.8660   22.6260  -31.1800 C   0  0  0  0  0  0  0  0  0  0  0  0
   -3.2680   21.6140  -32.1830 N   0  0  0  0  0  0  0  0  0  0  0  0
   -3.3040   20.2310  -31.6630 C   0  0  0  0  0  0  0  0  0  0  0  0
   -3.4450   19.2090  -32.8010 C   0  0  0  0  0  0  0  0  0  0  0  0
   -4.8010   19.1450  -33.3730 N   0  0  0  0  0  0  0  0  0  0  0  0
   -5.0500   18.1880  -34.4550 C   0  0  0  0  0  0  0  0  0  0  0  0
   -5.8810   19.9960  -32.9280 C   0  0  0  0  0  0  0  0  0  0  0  0
   -7.1410   19.4490  -32.6450 C   0  0  0  0  0  0  0  0  0  0  0  0
   -8.1870   20.2690  -32.2330 C   0  0  0  0  0  0  0  0  0  0  0  0
   -7.9760   21.6450  -32.1100 C   0  0  0  0  0  0  0  0  0  0  0  0
   -9.1120   22.5410  -31.7160 C   0  0  0  0  0  0  0  0  0  0  0  0
   -6.7540   22.1730  -32.4090 N   0  0  0  0  0  0  0  0  0  0  0  0
   -5.6980   21.3870  -32.7750 C   0  0  0  0  0  0  0  0  0  0  0  0
   -4.3620   22.0220  -33.0980 C   0  0  0  0  0  0  0  0  0  0  0  0
   -5.5063   24.7136  -29.4787 H   0  0  0  0  0  0  0  0  0  0  0  0
   -5.4277   25.9282  -30.7997 H   0  0  0  0  0  0  0  0  0  0  0  0
   -6.7231   24.6838  -30.7997 H   0  0  0  0  0  0  0  0  0  0  0  0
   -3.6390   23.9272  -29.6286 H   0  0  0  0  0  0  0  0  0  0  0  0
   -4.6467   22.4721  -29.9582 H   0  0  0  0  0  0  0  0  0  0  0  0
   -2.3179   23.4257  -31.6998 H   0  0  0  0  0  0  0  0  0  0  0  0
   -2.2539   22.0993  -30.4330 H   0  0  0  0  0  0  0  0  0  0  0  0
   -2.3717   20.0302  -31.1148 H   0  0  0  0  0  0  0  0  0  0  0  0
   -4.1755   20.1329  -30.9990 H   0  0  0  0  0  0  0  0  0  0  0  0
   -2.7424   19.4818  -33.6022 H   0  0  0  0  0  0  0  0  0  0  0  0
   -3.2288   18.2189  -32.3733 H   0  0  0  0  0  0  0  0  0  0  0  0
   -5.3051   17.2077  -34.0260 H   0  0  0  0  0  0  0  0  0  0  0  0
   -5.8851   18.5452  -35.0755 H   0  0  0  0  0  0  0  0  0  0  0  0
   -4.1467   18.0929  -35.0755 H   0  0  0  0  0  0  0  0  0  0  0  0
   -7.3032   18.3660  -32.7493 H   0  0  0  0  0  0  0  0  0  0  0  0
   -9.1729   19.8373  -32.0058 H   0  0  0  0  0  0  0  0  0  0  0  0
   -9.1758   22.5913  -30.6190 H   0  0  0  0  0  0  0  0  0  0  0  0
   -8.9406   23.5497  -32.1200 H   0  0  0  0  0  0  0  0  0  0  0  0
  -10.0530   22.1393  -32.1200 H   0  0  0  0  0  0  0  0  0  0  0  0
   -6.6300   23.2100  -32.3700 H   0  0  0  0  0  0  0  0  0  0  0  0
   -4.0814   21.7371  -34.1227 H   0  0  0  0  0  0  0  0  0  0  0  0
   -4.4876   23.1087  -32.9824 H   0  0  0  0  0  0  0  0  0  0  0  0
  1  2  1  0
  2  3  1  0
  3  4  1  0
  4  5  1  0
  5  6  1  0
  6  7  1  0
  7  8  1  0
  8  9  1  0
  8 10  1  0
 10 11  2  0
 11 12  1  0
 12 13  2  0
 13 14  1  0
 13 15  1  0
 15 16  2  0
 16 17  1  0
 17  5  1  0
 16 10  1  0
  1 18  1  0
  1 19  1  0
  1 20  1  0
  3 21  1  0
  3 22  1  0
  4 23  1  0
  4 24  1  0
  6 25  1  0
  6 26  1  0
  7 27  1  0
  7 28  1  0
  9 29  1  0
  9 30  1  0
  9 31  1  0
 11 32  1  0
 12 33  1  0
 14 34  1  0
 14 35  1  0
 14 36  1  0
 15 37  1  0
 17 38  1  0
 17 39  1  0
M  CHG  1  15   1
M  END
>  <UniqueID>  (8) 
8

>  <SMILES>  (8) 
COCCN1CCN(C)c2ccc(C)[nH+]c2C1

>  <Energy>  (8) 
53.841916317063074

>  <Genealogy>  (8) 
COCCN1CCN(C)c2ccc(C)[nH+]c2C1 (protonated)
COCCN1CCN(C)c2ccc(C)[nH+]c2C1 (3D coordinates assigned)
COCCN1CCN(C)c2ccc(C)[nH+]c2C1 (nonaromatic ring conformer: 53.841916317063074 kcal/mol)

>  <smiles>  (8) 
COCCN1CCN(C)c2ccc(C)nc2C1

>  <score_type>  (8) 
oracle

>  <origin>  (8) 
adg

>  <m_score__min__energy>  (8) 
-4.29

>  <m_primary>  (8) 
energy

$$$$
8:0
     RDKit          3D

 43 45  0  0  0  0  0  0  0  0999 V2000
   -2.6770   25.3450  -26.3870 C   0  0  0  0  0  0  0  0  0  0  0  0
   -3.5010   24.3330  -27.1790 C   0  0  0  0  0  0  0  0  0  0  0  0
   -2.6090   23.4640  -28.0320 C   0  0  0  0  0  0  0  0  0  0  0  0
   -1.9150   22.3950  -27.4380 C   0  0  0  0  0  0  0  0  0  0  0  0
   -1.0670   21.5900  -28.2020 C   0  0  0  0  0  0  0  0  0  0  0  0
   -0.9020   21.8440  -29.5630 C   0  0  0  0  0  0  0  0  0  0  0  0
   -1.5720   22.9120  -30.1640 C   0  0  0  0  0  0  0  0  0  0  0  0
   -2.4110   23.7450  -29.4020 C   0  0  0  0  0  0  0  0  0  0  0  0
   -3.1060   24.8510  -29.9990 N   0  0  0  0  0  0  0  0  0  0  0  0
   -4.4830   24.8860  -30.3930 C   0  0  0  0  0  0  0  0  0  0  0  0
   -4.9030   25.7560  -31.2020 O   0  0  0  0  0  0  0  0  0  0  0  0
   -5.4440   23.9230  -29.7720 C   0  0  0  0  0  0  0  0  0  0  0  0
   -6.3660   23.4000  -30.7820 N   0  0  0  0  0  0  0  0  0  0  0  0
   -7.5980   23.8460  -30.9530 N   0  0  0  0  0  0  0  0  0  0  0  0
   -8.1150   23.2780  -32.0310 N   0  0  0  0  0  0  0  0  0  0  0  0
   -7.2270   22.4650  -32.5870 N   0  0  0  0  0  0  0  0  0  0  0  0
   -6.1380   22.5380  -31.7980 C   0  0  0  0  0  0  0  0  0  0  0  0
   -4.8700   21.8430  -32.0940 C   0  0  0  0  0  0  0  0  0  0  0  0
   -4.4970   20.7240  -31.3330 C   0  0  0  0  0  0  0  0  0  0  0  0
   -3.3040   20.0480  -31.6030 C   0  0  0  0  0  0  0  0  0  0  0  0
   -2.4520   20.4950  -32.6300 C   0  0  0  0  0  0  0  0  0  0  0  0
   -1.2470   19.8500  -32.9430 O   0  0  0  0  0  0  0  0  0  0  0  0
   -1.1570   18.5720  -33.5650 C   0  0  0  0  0  0  0  0  0  0  0  0
   -2.8110   21.6290  -33.3680 C   0  0  0  0  0  0  0  0  0  0  0  0
   -4.0060   22.3040  -33.0990 C   0  0  0  0  0  0  0  0  0  0  0  0
   -2.8188   25.1708  -25.3102 H   0  0  0  0  0  0  0  0  0  0  0  0
   -1.6127   25.2296  -26.6401 H   0  0  0  0  0  0  0  0  0  0  0  0
   -3.0057   26.3638  -26.6401 H   0  0  0  0  0  0  0  0  0  0  0  0
   -4.0607   23.6964  -26.4780 H   0  0  0  0  0  0  0  0  0  0  0  0
   -4.1929   24.8798  -27.8365 H   0  0  0  0  0  0  0  0  0  0  0  0
   -2.0408   22.1913  -26.3644 H   0  0  0  0  0  0  0  0  0  0  0  0
   -0.5289   20.7550  -27.7296 H   0  0  0  0  0  0  0  0  0  0  0  0
   -0.2425   21.2016  -30.1649 H   0  0  0  0  0  0  0  0  0  0  0  0
   -1.4428   23.1028  -31.2396 H   0  0  0  0  0  0  0  0  0  0  0  0
   -4.8835   23.0883  -29.3259 H   0  0  0  0  0  0  0  0  0  0  0  0
   -6.0230   24.4462  -28.9968 H   0  0  0  0  0  0  0  0  0  0  0  0
   -5.1487   20.3765  -30.5178 H   0  0  0  0  0  0  0  0  0  0  0  0
   -3.0298   19.1628  -31.0103 H   0  0  0  0  0  0  0  0  0  0  0  0
   -1.1020   17.7911  -32.7922 H   0  0  0  0  0  0  0  0  0  0  0  0
   -2.0457   18.4058  -34.1916 H   0  0  0  0  0  0  0  0  0  0  0  0
   -0.2538   18.5320  -34.1916 H   0  0  0  0  0  0  0  0  0  0  0  0
   -2.1474   21.9924  -34.1665 H   0  0  0  0  0  0  0  0  0  0  0  0
   -4.2700   23.2010  -33.6783 H   0  0  0  0  0  0  0  0  0  0  0  0
  1  2  1  0
  2  3  1  0
  3  4  2  0
  4  5  1  0
  5  6  2  0
  6  7  1  0
  7  8  2  0
  8  9  1  0
  9 10  1  0
 10 11  2  0
 10 12  1  0
 12 13  1  0
 13 14  1  0
 14 15  2  0
 15 16  1  0
 16 17  2  0
 17 18  1  0
 18 19  2  0
 19 20  1  0
 20 21  2  0
 21 22  1  0
 22 23  1  0
 21 24  1  0
 24 25  2  0
  8  3  1  0
 17 13  1  0
 25 18  1  0
  1 26  1  0
  1 27  1  0
  1 28  1  0
  2 29  1  0
  2 30  1  0
  4 31  1  0
  5 32  1  0
  6 33  1  0
  7 34  1  0
 12 35  1  0
 12 36  1  0
 19 37  1  0
 20 38  1  0
 23 39  1  0
 23 40  1  0
 23 41  1  0
 24 42  1  0
 25 43  1  0
M  CHG  1   9  -1
M  END
>  <UniqueID>  (9) 
9

>  <SMILES>  (9) 
CCc1ccccc1[N-]C(=O)Cn1nnnc1-c1ccc(OC)cc1

>  <Energy>  (9) 
87.12832362707391

>  <Genealogy>  (9) 
CCc1ccccc1[N-]C(=O)Cn1nnnc1-c1ccc(OC)cc1 (protonated)
CCc1ccccc1[N-]C(=O)Cn1nnnc1-c1ccc(OC)cc1 (3D coordinates assigned)
CCc1ccccc1[N-]C(=O)Cn1nnnc1-c1ccc(OC)cc1 (optimized conformer: 87.12832362707391 kcal/mol)

>  <smiles>  (9) 
CCc1ccccc1NC(=O)Cn1nnnc1-c1ccc(OC)cc1

>  <score_type>  (9) 
oracle

>  <origin>  (9) 
adg

>  <m_score__min__energy>  (9) 
-9.2100000000000009

>  <m_primary>  (9) 
energy

$$$$
9:0
     RDKit          3D

 49 51  0  0  0  0  0  0  0  0999 V2000
   -2.1740   20.1830  -33.8440 C   0  0  0  0  0  0  0  0  0  0  0  0
   -3.2660   19.3820  -34.2810 O   0  0  0  0  0  0  0  0  0  0  0  0
   -4.5670   19.4600  -33.7600 C   0  0  0  0  0  0  0  0  0  0  0  0
   -5.4130   18.3590  -33.9200 C   0  0  0  0  0  0  0  0  0  0  0  0
   -6.7160   18.3860  -33.4180 C   0  0  0  0  0  0  0  0  0  0  0  0
   -7.1980   19.5240  -32.7450 C   0  0  0  0  0  0  0  0  0  0  0  0
   -8.5050   19.5840  -32.2380 O   0  0  0  0  0  0  0  0  0  0  0  0
   -9.1090   18.5800  -31.4290 C   0  0  0  0  0  0  0  0  0  0  0  0
   -6.3500   20.6360  -32.5780 C   0  0  0  0  0  0  0  0  0  0  0  0
   -6.9400   22.0830  -31.7510 S   0  0  0  0  0  0  0  0  0  0  0  0
   -7.8390   21.6850  -30.6160 O   0  0  0  0  0  0  0  0  0  0  0  0
   -7.7250   22.9170  -32.7220 O   0  0  0  0  0  0  0  0  0  0  0  0
   -5.6090   23.0380  -31.0990 C   0  0  0  0  0  0  0  0  0  0  0  0
   -4.3020   22.5350  -31.1180 C   0  0  0  0  0  0  0  0  0  0  0  0
   -3.2550   23.2730  -30.5580 C   0  0  0  0  0  0  0  0  0  0  0  0
   -3.5070   24.5280  -29.9790 C   0  0  0  0  0  0  0  0  0  0  0  0
   -2.4730   25.2860  -29.3400 N   0  0  0  0  0  0  0  0  0  0  0  0
   -1.3670   24.7600  -28.5960 C   0  0  0  0  0  0  0  0  0  0  0  0
   -0.2960   25.4150  -28.5010 O   0  0  0  0  0  0  0  0  0  0  0  0
   -1.5030   23.5010  -27.8390 C   0  0  0  0  0  0  0  0  0  0  0  0
   -1.0010   22.3140  -28.2180 C   0  0  0  0  0  0  0  0  0  0  0  0
   -1.4170   21.0040  -27.6720 C   0  0  0  0  0  0  0  0  0  0  0  0
   -2.7570   20.7380  -27.3450 C   0  0  0  0  0  0  0  0  0  0  0  0
   -3.1160   19.4850  -26.8470 C   0  0  0  0  0  0  0  0  0  0  0  0
   -2.1420   18.4960  -26.7090 C   0  0  0  0  0  0  0  0  0  0  0  0
   -0.8550   18.7580  -27.0610 N   0  0  0  0  0  0  0  0  0  0  0  0
   -0.4770   19.9730  -27.5430 C   0  0  0  0  0  0  0  0  0  0  0  0
   -4.8180   25.0170  -29.9440 C   0  0  0  0  0  0  0  0  0  0  0  0
   -5.8640   24.2780  -30.5040 C   0  0  0  0  0  0  0  0  0  0  0  0
   -5.0430   20.6000  -33.0900 C   0  0  0  0  0  0  0  0  0  0  0  0
   -2.1494   20.2010  -32.7444 H   0  0  0  0  0  0  0  0  0  0  0  0
   -1.2330   19.7594  -34.2249 H   0  0  0  0  0  0  0  0  0  0  0  0
   -2.2954   21.2078  -34.2249 H   0  0  0  0  0  0  0  0  0  0  0  0
   -5.0495   17.4637  -34.4457 H   0  0  0  0  0  0  0  0  0  0  0  0
   -7.3702   17.5115  -33.5496 H   0  0  0  0  0  0  0  0  0  0  0  0
   -8.9608   18.8264  -30.3672 H   0  0  0  0  0  0  0  0  0  0  0  0
  -10.1860   18.5320  -31.6474 H   0  0  0  0  0  0  0  0  0  0  0  0
   -8.6468   17.6060  -31.6474 H   0  0  0  0  0  0  0  0  0  0  0  0
   -4.0985   21.5555  -31.5753 H   0  0  0  0  0  0  0  0  0  0  0  0
   -2.2315   22.8701  -30.5707 H   0  0  0  0  0  0  0  0  0  0  0  0
   -2.0587   23.5371  -26.8904 H   0  0  0  0  0  0  0  0  0  0  0  0
   -0.2210   22.3166  -28.9936 H   0  0  0  0  0  0  0  0  0  0  0  0
   -3.5222   21.5164  -27.4813 H   0  0  0  0  0  0  0  0  0  0  0  0
   -4.1591   19.2787  -26.5654 H   0  0  0  0  0  0  0  0  0  0  0  0
   -2.4147   17.5055  -26.3159 H   0  0  0  0  0  0  0  0  0  0  0  0
    0.5700   20.1464  -27.8323 H   0  0  0  0  0  0  0  0  0  0  0  0
   -5.0265   25.9889  -29.4729 H   0  0  0  0  0  0  0  0  0  0  0  0
   -6.8904   24.6726  -30.4767 H   0  0  0  0  0  0  0  0  0  0  0  0
   -4.3852   21.4728  -32.9654 H   0  0  0  0  0  0  0  0  0  0  0  0
  1  2  1  0
  2  3  1  0
  3  4  2  0
  4  5  1  0
  5  6  2  0
  6  7  1  0
  7  8  1  0
  6  9  1  0
  9 10  1  0
 10 11  2  0
 10 12  2  0
 10 13  1  0
 13 14  2  0
 14 15  1  0
 15 16  2  0
 16 17  1  0
 17 18  1  0
 18 19  2  0
 18 20  1  0
 20 21  2  3
 21 22  1  0
 22 23  2  0
 23 24  1  0
 24 25  2  0
 25 26  1  0
 26 27  2  0
 16 28  1  0
 28 29  2  0
  9 30  2  0
 30  3  1  0
 29 13  1  0
 27 22  1  0
  1 31  1  0
  1 32  1  0
  1 33  1  0
  4 34  1  0
  5 35  1  0
  8 36  1  0
  8 37  1  0
  8 38  1  0
 14 39  1  0
 15 40  1  0
 20 41  1  0
 21 42  1  0
 23 43  1  0
 24 44  1  0
 25 45  1  0
 27 46  1  0
 28 47  1  0
 29 48  1  0
 30 49  1  0
M  CHG  1  17  -1
M  END
>  <UniqueID>  (10) 
10

>  <SMILES>  (10) 
COc1ccc(OC)c(S(=O)(=O)c2ccc([N-]C(=O)C=Cc3cccnc3)cc2)c1

>  <Energy>  (10) 
62.84397171915886

>  <Genealogy>  (10) 
COc1ccc(OC)c(S(=O)(=O)c2ccc([N-]C(=O)C=Cc3cccnc3)cc2)c1 (protonated)
COc1ccc(OC)c(S(=O)(=O)c2ccc([N-]C(=O)C=Cc3cccnc3)cc2)c1 (3D coordinates assigned)
COc1ccc(OC)c(S(=O)(=O)c2ccc([N-]C(=O)C=Cc3cccnc3)cc2)c1 (optimized conformer: 62.84397171915886 kcal/mol)

>  <smiles>  (10) 
COc1ccc(OC)c(S(=O)(=O)c2ccc(NC(=O)C=Cc3cccnc3)cc2)c1

>  <score_type>  (10) 
oracle

>  <origin>  (10) 
adg

>  <m_score__min__energy>  (10) 
-10.789999999999999

>  <m_primary>  (10) 
energy

$$$$
10:0
     RDKit          3D

 38 40  0  0  0  0  0  0  0  0999 V2000
   -8.6570   18.5360  -31.6030 C   0  0  0  0  0  0  0  0  0  0  0  0
   -8.6920   19.6550  -32.4820 O   0  0  0  0  0  0  0  0  0  0  0  0
   -7.9820   20.8480  -32.2750 C   0  0  0  0  0  0  0  0  0  0  0  0
   -8.6890   21.9750  -31.8410 C   0  0  0  0  0  0  0  0  0  0  0  0
   -8.0280   23.1860  -31.6200 C   0  0  0  0  0  0  0  0  0  0  0  0
   -6.6430   23.2840  -31.8240 C   0  0  0  0  0  0  0  0  0  0  0  0
   -5.9340   24.5990  -31.6250 C   0  0  0  0  0  0  0  0  0  0  0  0
   -5.2230   24.6510  -30.2720 C   0  0  0  0  0  0  0  0  0  0  0  0
   -3.8460   25.0980  -30.4450 N   0  0  0  0  0  0  0  0  0  0  0  0
   -2.7480   24.5430  -29.7170 C   0  0  0  0  0  0  0  0  0  0  0  0
   -1.8220   25.2910  -29.3040 O   0  0  0  0  0  0  0  0  0  0  0  0
   -2.7140   23.0940  -29.4540 C   0  0  0  0  0  0  0  0  0  0  0  0
   -3.2180   22.0930  -30.2800 C   0  0  0  0  0  0  0  0  0  0  0  0
   -3.0170   20.8820  -29.7130 N   0  0  0  0  0  0  0  0  0  0  0  0
   -2.4040   21.0940  -28.5620 N   0  0  0  0  0  0  0  0  0  0  0  0
   -2.0170   20.1410  -27.6760 C   0  0  0  0  0  0  0  0  0  0  0  0
   -1.3760   20.5470  -26.4980 C   0  0  0  0  0  0  0  0  0  0  0  0
   -1.1540   21.9180  -26.2680 C   0  0  0  0  0  0  0  0  0  0  0  0
   -1.5690   22.8720  -27.2100 C   0  0  0  0  0  0  0  0  0  0  0  0
   -2.2030   22.4080  -28.3660 C   0  0  0  0  0  0  0  0  0  0  0  0
   -5.9320   22.1590  -32.2700 C   0  0  0  0  0  0  0  0  0  0  0  0
   -6.5940   20.9470  -32.4900 C   0  0  0  0  0  0  0  0  0  0  0  0
   -8.6680   18.8879  -30.5609 H   0  0  0  0  0  0  0  0  0  0  0  0
   -9.5357   17.8996  -31.7844 H   0  0  0  0  0  0  0  0  0  0  0  0
   -7.7403   17.9558  -31.7844 H   0  0  0  0  0  0  0  0  0  0  0  0
   -9.7739   21.9069  -31.6725 H   0  0  0  0  0  0  0  0  0  0  0  0
   -8.5957   24.0665  -31.2846 H   0  0  0  0  0  0  0  0  0  0  0  0
   -5.1905   24.7293  -32.4251 H   0  0  0  0  0  0  0  0  0  0  0  0
   -6.6833   25.4038  -31.6532 H   0  0  0  0  0  0  0  0  0  0  0  0
   -5.7523   25.3520  -29.6098 H   0  0  0  0  0  0  0  0  0  0  0  0
   -5.2211   23.6446  -29.8280 H   0  0  0  0  0  0  0  0  0  0  0  0
   -3.7074   22.2622  -31.2505 H   0  0  0  0  0  0  0  0  0  0  0  0
   -2.2022   19.0757  -27.8780 H   0  0  0  0  0  0  0  0  0  0  0  0
   -1.0490   19.8006  -25.7591 H   0  0  0  0  0  0  0  0  0  0  0  0
   -0.6524   22.2434  -25.3447 H   0  0  0  0  0  0  0  0  0  0  0  0
   -1.4013   23.9465  -27.0445 H   0  0  0  0  0  0  0  0  0  0  0  0
   -4.8488   22.2310  -32.4473 H   0  0  0  0  0  0  0  0  0  0  0  0
   -6.0284   20.0678  -32.8322 H   0  0  0  0  0  0  0  0  0  0  0  0
  1  2  1  0
  2  3  1  0
  3  4  2  0
  4  5  1  0
  5  6  2  0
  6  7  1  0
  7  8  1  0
  8  9  1  0
  9 10  1  0
 10 11  2  0
 10 12  1  0
 12 13  1  0
 13 14  2  0
 14 15  1  0
 15 16  1  0
 16 17  2  0
 17 18  1  0
 18 19  2  0
 19 20  1  0
  6 21  1  0
 21 22  2  0
 22  3  1  0
 20 12  2  0
 20 15  1  0
  1 23  1  0
  1 24  1  0
  1 25  1  0
  4 26  1  0
  5 27  1  0
  7 28  1  0
  7 29  1  0
  8 30  1  0
  8 31  1  0
 13 32  1  0
 16 33  1  0
 17 34  1  0
 18 35  1  0
 19 36  1  0
 21 37  1  0
 22 38  1  0
M  CHG  1   9  -1
M  END
>  <UniqueID>  (11) 
11

>  <SMILES>  (11) 
COc1ccc(CC[N-]C(=O)c2cnn3ccccc23)cc1

>  <Energy>  (11) 
70.47718418942026

>  <Genealogy>  (11) 
COc1ccc(CC[N-]C(=O)c2cnn3ccccc23)cc1 (protonated)
COc1ccc(CC[N-]C(=O)c2cnn3ccccc23)cc1 (3D coordinates assigned)
COc1ccc(CC[N-]C(=O)c2cnn3ccccc23)cc1 (optimized conformer: 70.47718418942026 kcal/mol)

>  <smiles>  (11) 
COc1ccc(CCNC(=O)c2cnn3ccccc23)cc1

>  <score_type>  (11) 
oracle

>  <origin>  (11) 
adg

>  <m_score__min__energy>  (11) 
-8.8599999999999994

>  <m_primary>  (11) 
energy

$$$$
11:0
     RDKit          3D

 61 65  0  0  0  0  0  0  0  0999 V2000
   -4.6030   18.3390  -34.1870 C   0  0  0  0  0  0  0  0  0  0  0  0
   -5.9940   18.4380  -34.4040 O   0  0  0  0  0  0  0  0  0  0  0  0
   -6.4820   19.6790  -33.9280 C   0  0  0  0  0  0  0  0  0  0  0  0
   -6.7580   19.6150  -32.4110 C   0  0  2  0  0  0  0  0  0  0  0  0
   -8.0920   18.9130  -32.0760 C   0  0  0  0  0  0  0  0  0  0  0  0
   -9.3070   19.8070  -32.3380 C   0  0  0  0  0  0  0  0  0  0  0  0
   -9.1700   21.1270  -31.5840 C   0  0  0  0  0  0  0  0  0  0  0  0
   -7.8850   21.8530  -31.9820 C   0  0  0  0  0  0  0  0  0  0  0  0
   -6.7130   20.9720  -31.8270 N   0  0  0  0  0  0  0  0  0  0  0  0
   -5.4420   21.5330  -31.4220 C   0  0  0  0  0  0  0  0  0  0  0  0
   -4.2900   21.1810  -32.0770 N   0  0  0  0  0  0  0  0  0  0  0  0
   -3.0740   21.6870  -31.7250 C   0  0  0  0  0  0  0  0  0  0  0  0
   -1.8910   21.2780  -32.4250 N   0  0  0  0  0  0  0  0  0  0  0  0
   -1.9650   20.9000  -33.8420 C   0  0  0  0  0  0  0  0  0  0  0  0
   -0.6230   21.1680  -34.5640 C   0  0  0  0  0  0  0  0  0  0  0  0
    0.4370   21.5210  -33.6900 O   0  0  0  0  0  0  0  0  0  0  0  0
    0.4770   20.6370  -32.5890 C   0  0  0  0  0  0  0  0  0  0  0  0
   -0.6910   20.9450  -31.6510 C   0  0  0  0  0  0  0  0  0  0  0  0
   -3.0250   22.5710  -30.6490 C   0  0  0  0  0  0  0  0  0  0  0  0
   -1.7160   23.3090  -29.8980 S   0  0  0  0  0  0  0  0  0  0  0  0
   -2.6420   24.1100  -28.7210 C   0  0  0  0  0  0  0  0  0  0  0  0
   -2.0720   24.9890  -27.6770 C   0  0  0  0  0  0  0  0  0  0  0  0
   -2.5740   25.0080  -26.3660 C   0  0  0  0  0  0  0  0  0  0  0  0
   -1.9990   25.8590  -25.4200 C   0  0  0  0  0  0  0  0  0  0  0  0
   -0.9250   26.6890  -25.7800 C   0  0  0  0  0  0  0  0  0  0  0  0
   -0.3060   27.5650  -24.8770 O   0  0  0  0  0  0  0  0  0  0  0  0
    0.0870   27.2070  -23.5550 C   0  0  0  0  0  0  0  0  0  0  0  0
   -0.4550   26.6390  -27.0950 C   0  0  0  0  0  0  0  0  0  0  0  0
   -1.0300   25.8040  -28.0000 N   0  0  0  0  0  0  0  0  0  0  0  0
   -3.9920   23.7860  -28.9100 C   0  0  0  0  0  0  0  0  0  0  0  0
   -4.1820   22.9190  -29.9880 C   0  0  0  0  0  0  0  0  0  0  0  0
   -5.3760   22.4080  -30.3720 N   0  0  0  0  0  0  0  0  0  0  0  0
   -4.4007   18.3246  -33.1059 H   0  0  0  0  0  0  0  0  0  0  0  0
   -4.2258   17.4117  -34.6430 H   0  0  0  0  0  0  0  0  0  0  0  0
   -4.0983   19.2035  -34.6430 H   0  0  0  0  0  0  0  0  0  0  0  0
   -5.7334   20.4604  -34.1255 H   0  0  0  0  0  0  0  0  0  0  0  0
   -7.4235   19.9099  -34.4478 H   0  0  0  0  0  0  0  0  0  0  0  0
   -5.9634   19.0020  -31.9607 H   0  0  0  0  0  0  0  0  0  0  0  0
   -8.1797   18.0082  -32.6953 H   0  0  0  0  0  0  0  0  0  0  0  0
   -8.0814   18.6695  -31.0034 H   0  0  0  0  0  0  0  0  0  0  0  0
   -9.3804   20.0117  -33.4163 H   0  0  0  0  0  0  0  0  0  0  0  0
  -10.2124   19.2892  -31.9886 H   0  0  0  0  0  0  0  0  0  0  0  0
  -10.0329   21.7673  -31.8195 H   0  0  0  0  0  0  0  0  0  0  0  0
   -9.1326   20.9130  -30.5057 H   0  0  0  0  0  0  0  0  0  0  0  0
   -7.9610   22.1697  -33.0327 H   0  0  0  0  0  0  0  0  0  0  0  0
   -7.7572   22.7264  -31.3256 H   0  0  0  0  0  0  0  0  0  0  0  0
   -2.2042   19.8288  -33.9155 H   0  0  0  0  0  0  0  0  0  0  0  0
   -2.7465   21.5061  -34.3236 H   0  0  0  0  0  0  0  0  0  0  0  0
   -0.3344   20.2570  -35.1089 H   0  0  0  0  0  0  0  0  0  0  0  0
   -0.7852   22.0256  -35.2335 H   0  0  0  0  0  0  0  0  0  0  0  0
    0.3970   19.6000  -32.9472 H   0  0  0  0  0  0  0  0  0  0  0  0
    1.4268   20.7638  -32.0488 H   0  0  0  0  0  0  0  0  0  0  0  0
   -0.8958   20.0639  -31.0251 H   0  0  0  0  0  0  0  0  0  0  0  0
   -0.4242   21.8036  -31.0173 H   0  0  0  0  0  0  0  0  0  0  0  0
   -3.4150   24.3566  -26.0858 H   0  0  0  0  0  0  0  0  0  0  0  0
   -2.3879   25.8793  -24.3912 H   0  0  0  0  0  0  0  0  0  0  0  0
   -0.5232   27.7628  -22.8279 H   0  0  0  0  0  0  0  0  0  0  0  0
   -0.0610   26.1269  -23.4083 H   0  0  0  0  0  0  0  0  0  0  0  0
    1.1486   27.4549  -23.4083 H   0  0  0  0  0  0  0  0  0  0  0  0
    0.3858   27.2796  -27.3996 H   0  0  0  0  0  0  0  0  0  0  0  0
   -4.8086   24.1705  -28.2812 H   0  0  0  0  0  0  0  0  0  0  0  0
  1  2  1  0
  2  3  1  0
  3  4  1  0
  4  5  1  0
  5  6  1  0
  6  7  1  0
  7  8  1  0
  8  9  1  0
  9 10  1  0
 10 11  2  0
 11 12  1  0
 12 13  1  0
 13 14  1  0
 14 15  1  0
 15 16  1  0
 16 17  1  0
 17 18  1  0
 12 19  2  0
 19 20  1  0
 20 21  1  0
 21 22  1  0
 22 23  2  0
 23 24  1  0
 24 25  2  0
 25 26  1  0
 26 27  1  0
 25 28  1  0
 28 29  2  0
 21 30  2  0
 30 31  1  0
 31 32  2  0
  9  4  1  0
 32 10  1  0
 18 13  1  0
 31 19  1  0
 29 22  1  0
  1 33  1  0
  1 34  1  0
  1 35  1  0
  3 36  1  0
  3 37  1  0
  4 38  1  1
  5 39  1  0
  5 40  1  0
  6 41  1  0
  6 42  1  0
  7 43  1  0
  7 44  1  0
  8 45  1  0
  8 46  1  0
 14 47  1  0
 14 48  1  0
 15 49  1  0
 15 50  1  0
 17 51  1  0
 17 52  1  0
 18 53  1  0
 18 54  1  0
 23 55  1  0
 24 56  1  0
 27 57  1  0
 27 58  1  0
 27 59  1  0
 28 60  1  0
 30 61  1  0
M  END
>  <UniqueID>  (12) 
12

>  <SMILES>  (12) 
COC[C@@H]1CCCCN1c1nc(N2CCOCC2)c2sc(-c3ccc(OC)cn3)cc2n1

>  <Energy>  (12) 
107.22512428185063

>  <Genealogy>  (12) 
COC[C@@H]1CCCCN1c1nc(N2CCOCC2)c2sc(-c3ccc(OC)cn3)cc2n1 (chirality)
COC[C@@H]1CCCCN1c1nc(N2CCOCC2)c2sc(-c3ccc(OC)cn3)cc2n1 (3D coordinates assigned)
COC[C@@H]1CCCCN1c1nc(N2CCOCC2)c2sc(-c3ccc(OC)cn3)cc2n1 (nonaromatic ring conformer: 107.22512428185063 kcal/mol)

>  <smiles>  (12) 
COCC1CCCCN1c1nc(N2CCOCC2)c2sc(-c3ccc(OC)cn3)cc2n1

>  <score_type>  (12) 
oracle

>  <origin>  (12) 
adg

>  <m_score__min__energy>  (12) 
-9.0800000000000001

>  <m_primary>  (12) 
energy

$$$$
12:0
     RDKit          3D

 46 49  0  0  0  0  0  0  0  0999 V2000
   -9.5540   21.5520  -30.4760 C   0  0  0  0  0  0  0  0  0  0  0  0
   -8.3660   21.2620  -31.3930 C   0  0  0  0  0  0  0  0  0  0  0  0
   -7.8370   22.5580  -32.0090 C   0  0  0  0  0  0  0  0  0  0  0  0
   -8.8990   20.1170  -32.7240 S   0  0  0  0  0  0  0  0  0  0  0  0
   -7.7070   18.7750  -32.3740 C   0  0  0  0  0  0  0  0  0  0  0  0
   -6.3030   19.2260  -32.6510 C   0  0  0  0  0  0  0  0  0  0  0  0
   -5.5610   18.6690  -33.7020 C   0  0  0  0  0  0  0  0  0  0  0  0
   -4.2490   19.0930  -33.9090 C   0  0  0  0  0  0  0  0  0  0  0  0
   -3.6890   20.0640  -33.0780 C   0  0  0  0  0  0  0  0  0  0  0  0
   -4.4580   20.6140  -32.0370 C   0  0  0  0  0  0  0  0  0  0  0  0
   -3.9070   21.6380  -31.1150 C   0  0  0  0  0  0  0  0  0  0  0  0
   -4.6870   22.7220  -30.6720 C   0  0  0  0  0  0  0  0  0  0  0  0
   -4.1510   23.6720  -29.7980 C   0  0  0  0  0  0  0  0  0  0  0  0
   -2.8270   23.5590  -29.3430 C   0  0  0  0  0  0  0  0  0  0  0  0
   -2.2610   24.5650  -28.4180 C   0  0  0  0  0  0  0  0  0  0  0  0
   -2.4330   24.5100  -27.0690 N   0  0  0  0  0  0  0  0  0  0  0  0
   -1.7690   25.5930  -26.6420 C   0  0  0  0  0  0  0  0  0  0  0  0
   -1.6120   26.0350  -25.3300 C   0  0  0  0  0  0  0  0  0  0  0  0
   -0.8660   27.2110  -25.1230 C   0  0  0  0  0  0  0  0  0  0  0  0
   -0.3040   27.9030  -26.2210 C   0  0  0  0  0  0  0  0  0  0  0  0
   -0.4830   27.4230  -27.5320 C   0  0  0  0  0  0  0  0  0  0  0  0
   -1.2280   26.2580  -27.6980 C   0  0  0  0  0  0  0  0  0  0  0  0
   -1.5240   25.6280  -28.8430 N   0  0  0  0  0  0  0  0  0  0  0  0
   -2.0500   22.4710  -29.7770 C   0  0  0  0  0  0  0  0  0  0  0  0
   -2.5860   21.5200  -30.6500 C   0  0  0  0  0  0  0  0  0  0  0  0
   -5.7350   20.1730  -31.8560 N   0  0  0  0  0  0  0  0  0  0  0  0
   -9.2345   21.4740  -29.4263 H   0  0  0  0  0  0  0  0  0  0  0  0
   -9.9282   22.5679  -30.6709 H   0  0  0  0  0  0  0  0  0  0  0  0
  -10.3542   20.8228  -30.6709 H   0  0  0  0  0  0  0  0  0  0  0  0
   -7.5601   20.8008  -30.8032 H   0  0  0  0  0  0  0  0  0  0  0  0
   -7.5523   23.2555  -31.2074 H   0  0  0  0  0  0  0  0  0  0  0  0
   -6.9576   22.3359  -32.6313 H   0  0  0  0  0  0  0  0  0  0  0  0
   -8.6206   23.0148  -32.6313 H   0  0  0  0  0  0  0  0  0  0  0  0
   -7.7908   18.4846  -31.3163 H   0  0  0  0  0  0  0  0  0  0  0  0
   -7.9379   17.9187  -33.0248 H   0  0  0  0  0  0  0  0  0  0  0  0
   -6.0088   17.9062  -34.3559 H   0  0  0  0  0  0  0  0  0  0  0  0
   -3.6549   18.6617  -34.7281 H   0  0  0  0  0  0  0  0  0  0  0  0
   -2.6527   20.3971  -33.2362 H   0  0  0  0  0  0  0  0  0  0  0  0
   -5.7269   22.8226  -31.0162 H   0  0  0  0  0  0  0  0  0  0  0  0
   -4.7719   24.5161  -29.4634 H   0  0  0  0  0  0  0  0  0  0  0  0
   -2.0548   25.4851  -24.4865 H   0  0  0  0  0  0  0  0  0  0  0  0
   -0.7195   27.5935  -24.1021 H   0  0  0  0  0  0  0  0  0  0  0  0
    0.2763   28.8216  -26.0494 H   0  0  0  0  0  0  0  0  0  0  0  0
   -0.0497   27.9495  -28.3952 H   0  0  0  0  0  0  0  0  0  0  0  0
   -1.0123   22.3672  -29.4270 H   0  0  0  0  0  0  0  0  0  0  0  0
   -1.9677   20.6708  -30.9763 H   0  0  0  0  0  0  0  0  0  0  0  0
  1  2  1  0
  2  3  1  0
  2  4  1  0
  4  5  1  0
  5  6  1  0
  6  7  2  0
  7  8  1  0
  8  9  2  0
  9 10  1  0
 10 11  1  0
 11 12  2  0
 12 13  1  0
 13 14  2  0
 14 15  1  0
 15 16  2  0
 16 17  1  0
 17 18  2  0
 18 19  1  0
 19 20  2  0
 20 21  1  0
 21 22  2  0
 22 23  1  0
 14 24  1  0
 24 25  2  0
 10 26  2  0
 26  6  1  0
 25 11  1  0
 23 15  1  0
 22 17  1  0
  1 27  1  0
  1 28  1  0
  1 29  1  0
  2 30  1  0
  3 31  1  0
  3 32  1  0
  3 33  1  0
  5 34  1  0
  5 35  1  0
  7 36  1  0
  8 37  1  0
  9 38  1  0
 12 39  1  0
 13 40  1  0
 18 41  1  0
 19 42  1  0
 20 43  1  0
 21 44  1  0
 24 45  1  0
 25 46  1  0
M  CHG  1  23  -1
M  END
>  <UniqueID>  (13) 
13

>  <SMILES>  (13) 
CC(C)SCc1cccc(-c2ccc(-c3nc4ccccc4[n-]3)cc2)n1

>  <Energy>  (13) 
81.81714067841372

>  <Genealogy>  (13) 
CC(C)SCc1cccc(-c2ccc(-c3nc4ccccc4[n-]3)cc2)n1 (protonated)
CC(C)SCc1cccc(-c2ccc(-c3nc4ccccc4[n-]3)cc2)n1 (3D coordinates assigned)
CC(C)SCc1cccc(-c2ccc(-c3nc4ccccc4[n-]3)cc2)n1 (optimized conformer: 81.81714067841372 kcal/mol)

>  <smiles>  (13) 
CC(C)SCc1cccc(-c2ccc(-c3nc4ccccc4[nH]3)cc2)n1

>  <score_type>  (13) 
oracle

>  <origin>  (13) 
adg

>  <m_score__min__energy>  (13) 
-9.5999999999999996

>  <m_primary>  (13) 
energy

$$$$
13:0
     RDKit          3D

 46 49  0  0  0  0  0  0  0  0999 V2000
   -1.1225   22.7384  -28.9551 H   0  0  0  0  0  0  0  0  0  0  0  0
   -2.0450   22.8680  -29.5400 C   0  0  0  0  0  0  0  0  0  0  0  0
   -2.6780   21.7530  -30.0910 C   0  0  0  0  0  0  0  0  0  0  0  0
   -2.2502   20.7511  -29.9385 H   0  0  0  0  0  0  0  0  0  0  0  0
   -3.8560   21.9010  -30.8380 C   0  0  0  0  0  0  0  0  0  0  0  0
   -4.5300   20.7170  -31.4330 C   0  0  0  0  0  0  0  0  0  0  0  0
   -3.7910   19.7920  -32.1740 C   0  0  0  0  0  0  0  0  0  0  0  0
   -2.7119   19.9422  -32.3257 H   0  0  0  0  0  0  0  0  0  0  0  0
   -4.4240   18.6810  -32.7190 C   0  0  0  0  0  0  0  0  0  0  0  0
   -3.6960   17.7910  -33.4350 N   0  0  0  0  0  0  0  0  0  0  0  0
   -4.2630   16.6910  -33.9840 C   0  0  0  0  0  0  0  0  0  0  0  0
   -3.6443   15.9876  -34.5606 H   0  0  0  0  0  0  0  0  0  0  0  0
   -5.5960   16.4490  -33.8270 N   0  0  0  0  0  0  0  0  0  0  0  0
   -6.1900   15.2480  -34.4310 C   0  0  0  0  0  0  0  0  0  0  0  0
   -6.5271   14.5663  -33.6362 H   0  0  0  0  0  0  0  0  0  0  0  0
   -7.0488   15.5376  -35.0544 H   0  0  0  0  0  0  0  0  0  0  0  0
   -5.4387   14.7412  -35.0544 H   0  0  0  0  0  0  0  0  0  0  0  0
   -6.3770   17.3170  -33.1100 C   0  0  0  0  0  0  0  0  0  0  0  0
   -7.6090   17.0740  -32.9760 O   0  0  0  0  0  0  0  0  0  0  0  0
   -5.8040   18.4780  -32.5240 C   0  0  0  0  0  0  0  0  0  0  0  0
   -6.5350   19.4340  -31.7600 C   0  0  0  0  0  0  0  0  0  0  0  0
   -7.8190   19.2330  -31.5720 N   0  0  0  0  0  0  0  0  0  0  0  0
   -9.0680   20.0160  -31.4630 C   0  0  0  0  0  0  0  0  0  0  0  0
   -9.6754   19.1186  -31.2738 H   0  0  0  0  0  0  0  0  0  0  0  0
   -9.2160   21.2330  -32.3520 C   0  0  0  0  0  0  0  0  0  0  0  0
   -8.4187   21.4971  -33.0623 H   0  0  0  0  0  0  0  0  0  0  0  0
   -9.9703   21.5886  -33.0693 H   0  0  0  0  0  0  0  0  0  0  0  0
   -8.9860   21.3950  -30.8400 C   0  0  0  0  0  0  0  0  0  0  0  0
   -8.0238   21.7749  -30.4661 H   0  0  0  0  0  0  0  0  0  0  0  0
   -9.5066   21.9147  -30.0221 H   0  0  0  0  0  0  0  0  0  0  0  0
   -5.8710   20.5220  -31.2500 N   0  0  0  0  0  0  0  0  0  0  0  0
   -6.3610   21.2640  -30.7250 H   0  0  0  0  0  0  0  0  0  0  0  0
   -4.3920   23.1870  -31.0230 C   0  0  0  0  0  0  0  0  0  0  0  0
   -5.3176   23.3125  -31.6040 H   0  0  0  0  0  0  0  0  0  0  0  0
   -3.7560   24.3170  -30.4720 C   0  0  0  0  0  0  0  0  0  0  0  0
   -4.2660   25.6140  -30.6420 O   0  0  0  0  0  0  0  0  0  0  0  0
   -5.6250   25.9820  -30.4300 C   0  0  0  0  0  0  0  0  0  0  0  0
   -5.8259   26.0364  -29.3499 H   0  0  0  0  0  0  0  0  0  0  0  0
   -5.8148   26.9639  -30.8882 H   0  0  0  0  0  0  0  0  0  0  0  0
   -6.2843   25.2300  -30.8882 H   0  0  0  0  0  0  0  0  0  0  0  0
   -2.5780   24.1570  -29.7270 C   0  0  0  0  0  0  0  0  0  0  0  0
   -1.9680   25.3020  -29.1900 O   0  0  0  0  0  0  0  0  0  0  0  0
   -1.4620   25.3990  -27.8630 C   0  0  0  0  0  0  0  0  0  0  0  0
   -2.2812   25.2420  -27.1458 H   0  0  0  0  0  0  0  0  0  0  0  0
   -0.6878   24.6329  -27.7089 H   0  0  0  0  0  0  0  0  0  0  0  0
   -1.0260   26.3971  -27.7089 H   0  0  0  0  0  0  0  0  0  0  0  0
  1  2  1  0
  2  3  2  0
  3  4  1  0
  3  5  1  0
  5  6  1  0
  6  7  2  0
  7  8  1  0
  7  9  1  0
  9 10  1  0
 10 11  2  0
 11 12  1  0
 11 13  1  0
 13 14  1  0
 14 15  1  0
 14 16  1  0
 14 17  1  0
 13 18  1  0
 18 19  2  0
 18 20  1  0
 20 21  1  0
 21 22  2  0
 22 23  1  0
 23 24  1  0
 23 25  1  0
 25 26  1  0
 25 27  1  0
 25 28  1  0
 28 29  1  0
 28 30  1  0
 21 31  1  0
 31 32  1  0
  5 33  2  0
 33 34  1  0
 33 35  1  0
 35 36  1  0
 36 37  1  0
 37 38  1  0
 37 39  1  0
 37 40  1  0
 35 41  2  0
 41 42  1  0
 42 43  1  0
 43 44  1  0
 43 45  1  0
 43 46  1  0
 41  2  1  0
 31  6  1  0
 20  9  2  0
 28 23  1  0
M  END
>  <UniqueID>  (14) 
14

>  <SMILES>  (14) 
COc1ccc(-c2cc3ncn(C)c(=O)c3/c(=N/C3CC3)[nH]2)cc1OC

>  <Energy>  (14) 
346.1497402777489

>  <Genealogy>  (14) 
COc1ccc(-c2cc3ncn(C)c(=O)c3/c(=N/C3CC3)[nH]2)cc1OC (cis-trans isomerization)
COc1ccc(-c2cc3ncn(C)c(=O)c3/c(=N/C3CC3)[nH]2)cc1OC (3D coordinates assigned)
COc1ccc(-c2cc3ncn(C)c(=O)c3/c(=N/C3CC3)[nH]2)cc1OC (nonaromatic ring conformer: 346.1497402777489 kcal/mol)

>  <smiles>  (14) 
COc1ccc(-c2cc3ncn(C)c(=O)c3c(=NC3CC3)[nH]2)cc1OC

>  <score_type>  (14) 
oracle

>  <origin>  (14) 
adg

>  <m_score__min__energy>  (14) 
-8.3699999999999992

>  <m_primary>  (14) 
energy

$$$$
14:0
     RDKit          3D

 28 30  0  0  0  0  0  0  0  0999 V2000
   -7.5980   17.7940  -32.0020 C   0  0  0  0  0  0  0  0  0  0  0  0
   -8.4660   18.9060  -31.4270 C   0  0  0  0  0  0  0  0  0  0  0  0
   -8.8870   20.1480  -32.6990 S   0  0  0  0  0  0  0  0  0  0  0  0
   -7.5710   21.2920  -32.2540 C   0  0  0  0  0  0  0  0  0  0  0  0
   -7.8490   22.4000  -31.5030 N   0  0  0  0  0  0  0  0  0  0  0  0
   -6.8640   23.2850  -31.1490 C   0  0  0  0  0  0  0  0  0  0  0  0
   -7.1420   24.4270  -30.3880 C   0  0  0  0  0  0  0  0  0  0  0  0
   -6.1070   25.3020  -30.0500 C   0  0  0  0  0  0  0  0  0  0  0  0
   -4.8030   25.0280  -30.4740 C   0  0  0  0  0  0  0  0  0  0  0  0
   -4.5420   23.9160  -31.2140 N   0  0  0  0  0  0  0  0  0  0  0  0
   -5.5320   23.0470  -31.5570 C   0  0  0  0  0  0  0  0  0  0  0  0
   -5.2800   21.9350  -32.2930 N   0  0  0  0  0  0  0  0  0  0  0  0
   -4.1170   21.4770  -32.7920 C   0  0  0  0  0  0  0  0  0  0  0  0
   -4.3520   20.2910  -33.4690 C   0  0  0  0  0  0  0  0  0  0  0  0
   -5.7130   20.0250  -33.3740 C   0  0  0  0  0  0  0  0  0  0  0  0
   -6.2450   21.0680  -32.6410 C   0  0  0  0  0  0  0  0  0  0  0  0
   -7.1482   17.2178  -31.1800 H   0  0  0  0  0  0  0  0  0  0  0  0
   -8.2175   17.1280  -32.6206 H   0  0  0  0  0  0  0  0  0  0  0  0
   -6.8015   18.2333  -32.6206 H   0  0  0  0  0  0  0  0  0  0  0  0
   -9.3950   18.4677  -31.0334 H   0  0  0  0  0  0  0  0  0  0  0  0
   -7.9015   19.4073  -30.6270 H   0  0  0  0  0  0  0  0  0  0  0  0
   -8.8350   22.5730  -31.2010 H   0  0  0  0  0  0  0  0  0  0  0  0
   -8.1707   24.6341  -30.0579 H   0  0  0  0  0  0  0  0  0  0  0  0
   -6.3167   26.2020  -29.4533 H   0  0  0  0  0  0  0  0  0  0  0  0
   -3.9850   25.7138  -30.2084 H   0  0  0  0  0  0  0  0  0  0  0  0
   -3.1377   21.9654  -32.6804 H   0  0  0  0  0  0  0  0  0  0  0  0
   -3.6013   19.6748  -33.9854 H   0  0  0  0  0  0  0  0  0  0  0  0
   -6.2533   19.1641  -33.7945 H   0  0  0  0  0  0  0  0  0  0  0  0
  1  2  1  0
  2  3  1  0
  3  4  1  0
  4  5  2  0
  5  6  1  0
  6  7  2  0
  7  8  1  0
  8  9  2  0
  9 10  1  0
 10 11  2  0
 11 12  1  0
 12 13  1  0
 13 14  2  0
 14 15  1  0
 15 16  2  0
 16  4  1  0
 11  6  1  0
 16 12  1  0
  1 17  1  0
  1 18  1  0
  1 19  1  0
  2 20  1  0
  2 21  1  0
  5 22  1  0
  7 23  1  0
  8 24  1  0
  9 25  1  0
 13 26  1  0
 14 27  1  0
 15 28  1  0
M  CHG  1   5   1
M  END
>  <UniqueID>  (15) 
15

>  <SMILES>  (15) 
CCSc1[nH+]c2cccnc2n2cccc12

>  <Energy>  (15) 
59.5228802160865

>  <Genealogy>  (15) 
CCSc1[nH+]c2cccnc2n2cccc12 (protonated)
CCSc1[nH+]c2cccnc2n2cccc12 (3D coordinates assigned)
CCSc1[nH+]c2cccnc2n2cccc12 (optimized conformer: 59.5228802160865 kcal/mol)

>  <smiles>  (15) 
CCSc1nc2cccnc2n2cccc12

>  <score_type>  (15) 
oracle

>  <origin>  (15) 
adg

>  <m_score__min__energy>  (15) 
-6.1699999999999999

>  <m_primary>  (15) 
energy

$$$$
15:0
     RDKit          3D

 48 51  0  0  0  0  0  0  0  0999 V2000
   -9.4360   21.5520  -31.5710 C   0  0  0  0  0  0  0  0  0  0  0  0
   -8.1890   20.9700  -30.9160 C   0  0  0  0  0  0  0  0  0  0  0  0
   -7.1760   20.6610  -31.9300 N   0  0  0  0  0  0  0  0  0  0  0  0
   -6.2840   21.5060  -32.5240 C   0  0  0  0  0  0  0  0  0  0  0  0
   -6.0840   22.9490  -32.1560 C   0  0  0  0  0  0  0  0  0  0  0  0
   -4.8440   23.0990  -31.3830 N   0  0  0  0  0  0  0  0  0  0  0  0
   -4.5970   24.3340  -30.6860 C   0  0  0  0  0  0  0  0  0  0  0  0
   -4.9880   25.4220  -31.1910 O   0  0  0  0  0  0  0  0  0  0  0  0
   -3.8810   24.3450  -29.3890 C   0  0  0  0  0  0  0  0  0  0  0  0
   -2.4860   24.5310  -29.3420 C   0  0  0  0  0  0  0  0  0  0  0  0
   -1.8170   24.5560  -28.1140 C   0  0  0  0  0  0  0  0  0  0  0  0
   -2.5310   24.4090  -26.9230 C   0  0  0  0  0  0  0  0  0  0  0  0
   -3.9170   24.2390  -26.9570 C   0  0  0  0  0  0  0  0  0  0  0  0
   -4.5920   24.2160  -28.1810 C   0  0  0  0  0  0  0  0  0  0  0  0
   -3.7680   22.1630  -31.5750 C   0  0  0  0  0  0  0  0  0  0  0  0
   -3.3170   21.3680  -30.5100 C   0  0  0  0  0  0  0  0  0  0  0  0
   -2.2830   20.4550  -30.7250 C   0  0  0  0  0  0  0  0  0  0  0  0
   -1.6990   20.3510  -31.9890 C   0  0  0  0  0  0  0  0  0  0  0  0
   -2.1600   21.1680  -33.0210 C   0  0  0  0  0  0  0  0  0  0  0  0
   -3.1720   22.0480  -32.7950 N   0  0  0  0  0  0  0  0  0  0  0  0
   -5.5310   20.8870  -33.4660 N   0  0  0  0  0  0  0  0  0  0  0  0
   -5.9820   19.6220  -33.4770 C   0  0  0  0  0  0  0  0  0  0  0  0
   -5.5490   18.5630  -34.2720 C   0  0  0  0  0  0  0  0  0  0  0  0
   -6.1860   17.3190  -34.1010 C   0  0  0  0  0  0  0  0  0  0  0  0
   -7.2260   17.1710  -33.1560 C   0  0  0  0  0  0  0  0  0  0  0  0
   -7.6400   18.2640  -32.3700 C   0  0  0  0  0  0  0  0  0  0  0  0
   -6.9810   19.4820  -32.5570 C   0  0  0  0  0  0  0  0  0  0  0  0
  -10.1399   21.8805  -30.7922 H   0  0  0  0  0  0  0  0  0  0  0  0
   -9.1542   22.4116  -32.1968 H   0  0  0  0  0  0  0  0  0  0  0  0
   -9.9139   20.7839  -32.1968 H   0  0  0  0  0  0  0  0  0  0  0  0
   -7.7783   21.7015  -30.2045 H   0  0  0  0  0  0  0  0  0  0  0  0
   -8.4617   20.0432  -30.3900 H   0  0  0  0  0  0  0  0  0  0  0  0
   -6.0182   23.5537  -33.0725 H   0  0  0  0  0  0  0  0  0  0  0  0
   -6.9345   23.2894  -31.5471 H   0  0  0  0  0  0  0  0  0  0  0  0
   -1.9193   24.6573  -30.2763 H   0  0  0  0  0  0  0  0  0  0  0  0
   -0.7258   24.6918  -28.0863 H   0  0  0  0  0  0  0  0  0  0  0  0
   -2.0023   24.4271  -25.9586 H   0  0  0  0  0  0  0  0  0  0  0  0
   -4.4787   24.1229  -26.0184 H   0  0  0  0  0  0  0  0  0  0  0  0
   -5.6853   24.0964  -28.2002 H   0  0  0  0  0  0  0  0  0  0  0  0
   -3.7744   21.4635  -29.5142 H   0  0  0  0  0  0  0  0  0  0  0  0
   -1.9291   19.8189  -29.9003 H   0  0  0  0  0  0  0  0  0  0  0  0
   -0.8850   19.6332  -32.1687 H   0  0  0  0  0  0  0  0  0  0  0  0
   -1.7041   21.1005  -34.0198 H   0  0  0  0  0  0  0  0  0  0  0  0
   -4.7700   21.2990  -34.0510 H   0  0  0  0  0  0  0  0  0  0  0  0
   -4.7399   18.6938  -35.0057 H   0  0  0  0  0  0  0  0  0  0  0  0
   -5.8719   16.4565  -34.7072 H   0  0  0  0  0  0  0  0  0  0  0  0
   -7.7164   16.1940  -33.0331 H   0  0  0  0  0  0  0  0  0  0  0  0
   -8.4526   18.1625  -31.6356 H   0  0  0  0  0  0  0  0  0  0  0  0
  1  2  1  0
  2  3  1  0
  3  4  1  0
  4  5  1  0
  5  6  1  0
  6  7  1  0
  7  8  2  0
  7  9  1  0
  9 10  2  0
 10 11  1  0
 11 12  2  0
 12 13  1  0
 13 14  2  0
  6 15  1  0
 15 16  2  0
 16 17  1  0
 17 18  2  0
 18 19  1  0
 19 20  2  0
  4 21  2  0
 21 22  1  0
 22 23  2  0
 23 24  1  0
 24 25  2  0
 25 26  1  0
 26 27  2  0
 27  3  1  0
 14  9  1  0
 20 15  1  0
 27 22  1  0
  1 28  1  0
  1 29  1  0
  1 30  1  0
  2 31  1  0
  2 32  1  0
  5 33  1  0
  5 34  1  0
 10 35  1  0
 11 36  1  0
 12 37  1  0
 13 38  1  0
 14 39  1  0
 16 40  1  0
 17 41  1  0
 18 42  1  0
 19 43  1  0
 21 44  1  0
 23 45  1  0
 24 46  1  0
 25 47  1  0
 26 48  1  0
M  CHG  1  21   1
M  END
>  <UniqueID>  (16) 
16

>  <SMILES>  (16) 
CCn1c(CN(C(=O)c2ccccc2)c2ccccn2)[nH+]c2ccccc21

>  <Energy>  (16) 
97.33802567959376

>  <Genealogy>  (16) 
CCn1c(CN(C(=O)c2ccccc2)c2ccccn2)[nH+]c2ccccc21 (protonated)
CCn1c(CN(C(=O)c2ccccc2)c2ccccn2)[nH+]c2ccccc21 (3D coordinates assigned)
CCn1c(CN(C(=O)c2ccccc2)c2ccccn2)[nH+]c2ccccc21 (optimized conformer: 97.33802567959376 kcal/mol)

>  <smiles>  (16) 
CCn1c(CN(C(=O)c2ccccc2)c2ccccn2)nc2ccccc21

>  <score_type>  (16) 
oracle

>  <origin>  (16) 
adg

>  <m_score__min__energy>  (16) 
-8.2599999999999998

>  <m_primary>  (16) 
energy

$$$$
16:0
     RDKit          3D

 53 55  0  0  0  0  0  0  0  0999 V2000
   -6.9480   22.7610  -29.8620 C   0  0  0  0  0  0  0  0  0  0  0  0
   -7.0180   23.7740  -30.9270 N   0  0  0  0  0  0  0  0  0  0  0  0
   -7.7920   23.2390  -32.0610 C   0  0  0  0  0  0  0  0  0  0  0  0
   -5.6560   24.1660  -31.3490 C   0  0  0  0  0  0  0  0  0  0  0  0
   -4.9340   24.9260  -30.2310 C   0  0  0  0  0  0  0  0  0  0  0  0
   -3.4960   24.9400  -30.4690 N   0  0  0  0  0  0  0  0  0  0  0  0
   -2.5150   24.6920  -29.4540 C   0  0  0  0  0  0  0  0  0  0  0  0
   -1.8620   25.6550  -28.9660 O   0  0  0  0  0  0  0  0  0  0  0  0
   -2.2720   23.3100  -28.9750 C   0  0  0  0  0  0  0  0  0  0  0  0
   -3.0360   22.7750  -27.9230 C   0  0  0  0  0  0  0  0  0  0  0  0
   -2.8020   21.4750  -27.4690 C   0  0  0  0  0  0  0  0  0  0  0  0
   -1.8070   20.6880  -28.0550 C   0  0  0  0  0  0  0  0  0  0  0  0
   -1.5810   19.0450  -27.4680 Cl  0  0  0  0  0  0  0  0  0  0  0  0
   -1.0280   21.2080  -29.1080 C   0  0  0  0  0  0  0  0  0  0  0  0
    0.0140   20.4170  -29.7030 N   0  0  0  0  0  0  0  0  0  0  0  0
   -0.2150   19.5980  -30.8940 C   0  0  0  0  0  0  0  0  0  0  0  0
   -1.1590   20.3020  -31.8160 C   0  0  0  0  0  0  0  0  0  0  0  0
   -2.5320   20.3090  -31.7380 C   0  0  0  0  0  0  0  0  0  0  0  0
   -2.9530   21.0890  -32.7490 N   0  0  0  0  0  0  0  0  0  0  0  0
   -4.3320   21.4660  -33.0410 C   0  0  0  0  0  0  0  0  0  0  0  0
   -5.2190   20.2530  -32.9910 C   0  0  0  0  0  0  0  0  0  0  0  0
   -4.9890   19.1780  -33.8660 C   0  0  0  0  0  0  0  0  0  0  0  0
   -5.7990   18.0390  -33.8110 C   0  0  0  0  0  0  0  0  0  0  0  0
   -6.8400   17.9650  -32.8800 C   0  0  0  0  0  0  0  0  0  0  0  0
   -7.6260   16.8610  -32.8290 F   0  0  0  0  0  0  0  0  0  0  0  0
   -7.0650   19.0250  -31.9960 C   0  0  0  0  0  0  0  0  0  0  0  0
   -6.2540   20.1640  -32.0460 C   0  0  0  0  0  0  0  0  0  0  0  0
   -1.8950   21.5490  -33.3980 N   0  0  0  0  0  0  0  0  0  0  0  0
   -0.7820   21.0790  -32.8530 N   0  0  0  0  0  0  0  0  0  0  0  0
   -1.2640   22.5210  -29.5540 C   0  0  0  0  0  0  0  0  0  0  0  0
   -6.9823   23.2574  -28.8810 H   0  0  0  0  0  0  0  0  0  0  0  0
   -7.8007   22.0723  -29.9544 H   0  0  0  0  0  0  0  0  0  0  0  0
   -6.0087   22.1961  -29.9544 H   0  0  0  0  0  0  0  0  0  0  0  0
   -8.6412   22.6521  -31.6810 H   0  0  0  0  0  0  0  0  0  0  0  0
   -8.1670   24.0716  -32.6743 H   0  0  0  0  0  0  0  0  0  0  0  0
   -7.1456   22.5940  -32.6743 H   0  0  0  0  0  0  0  0  0  0  0  0
   -5.0820   23.2614  -31.5983 H   0  0  0  0  0  0  0  0  0  0  0  0
   -5.7361   24.8245  -32.2264 H   0  0  0  0  0  0  0  0  0  0  0  0
   -5.3056   25.9608  -30.1984 H   0  0  0  0  0  0  0  0  0  0  0  0
   -5.1311   24.4218  -29.2734 H   0  0  0  0  0  0  0  0  0  0  0  0
   -3.8231   23.3841  -27.4545 H   0  0  0  0  0  0  0  0  0  0  0  0
   -3.4053   21.0678  -26.6442 H   0  0  0  0  0  0  0  0  0  0  0  0
    0.8610   20.1900  -29.1340 H   0  0  0  0  0  0  0  0  0  0  0  0
    0.7414   19.4277  -31.4101 H   0  0  0  0  0  0  0  0  0  0  0  0
   -0.6500   18.6331  -30.5944 H   0  0  0  0  0  0  0  0  0  0  0  0
   -3.1571   19.7845  -31.0004 H   0  0  0  0  0  0  0  0  0  0  0  0
   -4.6748   22.1988  -32.2957 H   0  0  0  0  0  0  0  0  0  0  0  0
   -4.3801   21.9069  -34.0476 H   0  0  0  0  0  0  0  0  0  0  0  0
   -4.1689   19.2323  -34.5970 H   0  0  0  0  0  0  0  0  0  0  0  0
   -5.6172   17.2012  -34.5002 H   0  0  0  0  0  0  0  0  0  0  0  0
   -7.8806   18.9632  -31.2605 H   0  0  0  0  0  0  0  0  0  0  0  0
   -6.4276   20.9921  -31.3431 H   0  0  0  0  0  0  0  0  0  0  0  0
   -0.6507   22.9358  -30.3675 H   0  0  0  0  0  0  0  0  0  0  0  0
  1  2  1  0
  2  3  1  0
  2  4  1  0
  4  5  1  0
  5  6  1  0
  6  7  1  0
  7  8  2  0
  7  9  1  0
  9 10  2  0
 10 11  1  0
 11 12  2  0
 12 13  1  0
 12 14  1  0
 14 15  1  0
 15 16  1  0
 16 17  1  0
 17 18  2  0
 18 19  1  0
 19 20  1  0
 20 21  1  0
 21 22  2  0
 22 23  1  0
 23 24  2  0
 24 25  1  0
 24 26  1  0
 26 27  2  0
 19 28  1  0
 28 29  2  0
 14 30  2  0
 30  9  1  0
 29 17  1  0
 27 21  1  0
  1 31  1  0
  1 32  1  0
  1 33  1  0
  3 34  1  0
  3 35  1  0
  3 36  1  0
  4 37  1  0
  4 38  1  0
  5 39  1  0
  5 40  1  0
 10 41  1  0
 11 42  1  0
 15 43  1  0
 16 44  1  0
 16 45  1  0
 18 46  1  0
 20 47  1  0
 20 48  1  0
 22 49  1  0
 23 50  1  0
 26 51  1  0
 27 52  1  0
 30 53  1  0
M  CHG  1   6  -1
M  END
>  <UniqueID>  (17) 
17

>  <SMILES>  (17) 
CN(C)CC[N-]C(=O)c1ccc(Cl)c(NCc2cn(Cc3ccc(F)cc3)nn2)c1

>  <Energy>  (17) 
88.06028341476821

>  <Genealogy>  (17) 
CN(C)CC[N-]C(=O)c1ccc(Cl)c(NCc2cn(Cc3ccc(F)cc3)nn2)c1 (protonated)
CN(C)CC[N-]C(=O)c1ccc(Cl)c(NCc2cn(Cc3ccc(F)cc3)nn2)c1 (3D coordinates assigned)
CN(C)CC[N-]C(=O)c1ccc(Cl)c(NCc2cn(Cc3ccc(F)cc3)nn2)c1 (optimized conformer: 88.06028341476821 kcal/mol)

>  <smiles>  (17) 
CN(C)CCNC(=O)c1ccc(Cl)c(NCc2cn(Cc3ccc(F)cc3)nn2)c1

>  <score_type>  (17) 
oracle

>  <origin>  (17) 
adg

>  <m_score__min__energy>  (17) 
-10.640000000000001

>  <m_primary>  (17) 
energy

$$$$
17:0
     RDKit          3D

 47 49  0  0  0  0  0  0  0  0999 V2000
   -4.2220   23.0110  -28.0520 C   0  0  0  0  0  0  0  0  0  0  0  0
   -5.3340   22.9710  -29.0960 C   0  0  0  0  0  0  0  0  0  0  0  0
   -4.7910   23.2990  -30.4340 N   0  0  0  0  0  0  0  0  0  0  0  0
   -5.0690   24.7120  -30.7900 C   0  0  0  0  0  0  0  0  0  0  0  0
   -6.1530   25.3080  -29.8920 C   0  0  0  0  0  0  0  0  0  0  0  0
   -3.3330   23.0260  -30.4910 C   0  0  0  0  0  0  0  0  0  0  0  0
   -2.9960   22.0380  -31.6140 C   0  0  0  0  0  0  0  0  0  0  0  0
   -4.0740   21.0610  -31.7970 N   0  0  0  0  0  0  0  0  0  0  0  0
   -4.0350   19.9470  -32.7170 C   0  0  0  0  0  0  0  0  0  0  0  0
   -2.8250   19.5700  -33.3340 C   0  0  0  0  0  0  0  0  0  0  0  0
   -2.7910   18.5340  -34.2680 C   0  0  0  0  0  0  0  0  0  0  0  0
   -3.9560   17.8420  -34.5890 C   0  0  0  0  0  0  0  0  0  0  0  0
   -5.1580   18.1740  -33.9670 C   0  0  0  0  0  0  0  0  0  0  0  0
   -5.2130   19.2140  -33.0240 C   0  0  0  0  0  0  0  0  0  0  0  0
   -6.5100   19.4970  -32.3720 C   0  0  0  0  0  0  0  0  0  0  0  0
   -7.3270   18.4900  -31.8490 C   0  0  0  0  0  0  0  0  0  0  0  0
   -8.7420   19.1850  -31.2410 S   0  0  0  0  0  0  0  0  0  0  0  0
   -8.3360   20.7590  -31.6530 C   0  0  0  0  0  0  0  0  0  0  0  0
   -9.0790   21.9190  -31.4480 C   0  0  0  0  0  0  0  0  0  0  0  0
   -8.5420   23.1370  -31.8870 C   0  0  0  0  0  0  0  0  0  0  0  0
   -7.2850   23.1720  -32.5220 C   0  0  0  0  0  0  0  0  0  0  0  0
   -6.5550   21.9890  -32.7190 C   0  0  0  0  0  0  0  0  0  0  0  0
   -7.0940   20.7750  -32.2740 C   0  0  0  0  0  0  0  0  0  0  0  0
   -4.6639   22.9951  -27.0448 H   0  0  0  0  0  0  0  0  0  0  0  0
   -3.5679   22.1358  -28.1793 H   0  0  0  0  0  0  0  0  0  0  0  0
   -3.6325   23.9309  -28.1793 H   0  0  0  0  0  0  0  0  0  0  0  0
   -5.7743   21.9632  -29.1196 H   0  0  0  0  0  0  0  0  0  0  0  0
   -6.1034   23.7107  -28.8296 H   0  0  0  0  0  0  0  0  0  0  0  0
   -4.1457   25.2988  -30.6750 H   0  0  0  0  0  0  0  0  0  0  0  0
   -5.4236   24.7445  -31.8308 H   0  0  0  0  0  0  0  0  0  0  0  0
   -5.8791   25.1574  -28.8373 H   0  0  0  0  0  0  0  0  0  0  0  0
   -6.2472   26.3848  -30.0962 H   0  0  0  0  0  0  0  0  0  0  0  0
   -7.1127   24.8107  -30.0962 H   0  0  0  0  0  0  0  0  0  0  0  0
   -2.7982   23.9701  -30.6716 H   0  0  0  0  0  0  0  0  0  0  0  0
   -3.0247   22.5819  -29.5330 H   0  0  0  0  0  0  0  0  0  0  0  0
   -2.8525   22.5949  -32.5517 H   0  0  0  0  0  0  0  0  0  0  0  0
   -2.0772   21.4983  -31.3412 H   0  0  0  0  0  0  0  0  0  0  0  0
   -4.9510   21.2610  -31.2680 H   0  0  0  0  0  0  0  0  0  0  0  0
   -1.8959   20.0992  -33.0759 H   0  0  0  0  0  0  0  0  0  0  0  0
   -1.8412   18.2631  -34.7522 H   0  0  0  0  0  0  0  0  0  0  0  0
   -3.9274   17.0330  -35.3338 H   0  0  0  0  0  0  0  0  0  0  0  0
   -6.0727   17.6164  -34.2168 H   0  0  0  0  0  0  0  0  0  0  0  0
   -7.0869   17.4166  -31.8355 H   0  0  0  0  0  0  0  0  0  0  0  0
  -10.0614   21.8803  -30.9546 H   0  0  0  0  0  0  0  0  0  0  0  0
   -9.1047   24.0699  -31.7350 H   0  0  0  0  0  0  0  0  0  0  0  0
   -6.8728   24.1322  -32.8656 H   0  0  0  0  0  0  0  0  0  0  0  0
   -5.5739   22.0151  -33.2157 H   0  0  0  0  0  0  0  0  0  0  0  0
  1  2  1  0
  2  3  1  0
  3  4  1  0
  4  5  1  0
  3  6  1  0
  6  7  1  0
  7  8  1  0
  8  9  1  0
  9 10  2  0
 10 11  1  0
 11 12  2  0
 12 13  1  0
 13 14  2  0
 14 15  1  0
 15 16  2  0
 16 17  1  0
 17 18  1  0
 18 19  2  0
 19 20  1  0
 20 21  2  0
 21 22  1  0
 22 23  2  0
 14  9  1  0
 23 15  1  0
 23 18  1  0
  1 24  1  0
  1 25  1  0
  1 26  1  0
  2 27  1  0
  2 28  1  0
  4 29  1  0
  4 30  1  0
  5 31  1  0
  5 32  1  0
  5 33  1  0
  6 34  1  0
  6 35  1  0
  7 36  1  0
  7 37  1  0
  8 38  1  0
 10 39  1  0
 11 40  1  0
 12 41  1  0
 13 42  1  0
 16 43  1  0
 19 44  1  0
 20 45  1  0
 21 46  1  0
 22 47  1  0
M  END
>  <UniqueID>  (18) 
18

>  <SMILES>  (18) 
CCN(CC)CCNc1ccccc1-c1csc2ccccc12

>  <Energy>  (18) 
83.03286923239993

>  <Genealogy>  (18) 
CCN(CC)CCNc1ccccc1-c1csc2ccccc12 (3D coordinates assigned)
CCN(CC)CCNc1ccccc1-c1csc2ccccc12 (optimized conformer: 83.03286923239993 kcal/mol)

>  <smiles>  (18) 
CCN(CC)CCNc1ccccc1-c1csc2ccccc12

>  <score_type>  (18) 
oracle

>  <origin>  (18) 
adg

>  <m_score__min__energy>  (18) 
-8.3399999999999999

>  <m_primary>  (18) 
energy

$$$$
18:0
     RDKit          3D

 53 53  0  0  0  0  0  0  0  0999 V2000
   -1.2400   25.9400  -27.7780 C   0  0  0  0  0  0  0  0  0  0  0  0
   -1.9570   25.6390  -28.9720 O   0  0  0  0  0  0  0  0  0  0  0  0
   -2.4250   24.3650  -29.3310 C   0  0  0  0  0  0  0  0  0  0  0  0
   -1.8190   23.2020  -28.8140 C   0  0  0  0  0  0  0  0  0  0  0  0
   -2.2840   21.9380  -29.1690 C   0  0  0  0  0  0  0  0  0  0  0  0
   -3.3600   21.8080  -30.0400 C   0  0  0  0  0  0  0  0  0  0  0  0
   -3.9930   22.9450  -30.5620 C   0  0  0  0  0  0  0  0  0  0  0  0
   -5.1370   22.7690  -31.5320 C   0  0  0  0  0  0  0  0  0  0  0  0
   -4.8960   21.5380  -32.4360 C   0  0  0  0  0  0  0  0  0  0  0  0
   -5.8040   20.3660  -32.2330 N   0  0  0  0  0  0  0  0  0  0  0  0
   -7.1970   20.6070  -32.7140 C   0  0  0  0  0  0  0  0  0  0  0  0
   -8.3430   20.3800  -31.6860 C   0  0  0  0  0  0  0  0  0  0  0  0
   -9.3340   21.5520  -31.6250 C   0  0  0  0  0  0  0  0  0  0  0  0
   -9.1090   19.0990  -32.0530 C   0  0  0  0  0  0  0  0  0  0  0  0
   -5.2700   19.0200  -32.6130 C   0  0  0  0  0  0  0  0  0  0  0  0
   -6.1900   18.1920  -33.5560 C   0  0  0  0  0  0  0  0  0  0  0  0
   -5.7140   18.1680  -35.0130 C   0  0  0  0  0  0  0  0  0  0  0  0
   -6.4320   16.7680  -33.0340 C   0  0  0  0  0  0  0  0  0  0  0  0
   -3.5220   24.2350  -30.2250 C   0  0  0  0  0  0  0  0  0  0  0  0
   -4.1820   25.3360  -30.8090 O   0  0  0  0  0  0  0  0  0  0  0  0
   -5.4920   25.8050  -30.5050 C   0  0  0  0  0  0  0  0  0  0  0  0
   -1.8568   25.6811  -26.9048 H   0  0  0  0  0  0  0  0  0  0  0  0
   -0.3072   25.3575  -27.7537 H   0  0  0  0  0  0  0  0  0  0  0  0
   -1.0025   27.0138  -27.7537 H   0  0  0  0  0  0  0  0  0  0  0  0
   -0.9688   23.2938  -28.1220 H   0  0  0  0  0  0  0  0  0  0  0  0
   -1.7986   21.0400  -28.7591 H   0  0  0  0  0  0  0  0  0  0  0  0
   -3.7171   20.8064  -30.3215 H   0  0  0  0  0  0  0  0  0  0  0  0
   -6.0709   22.6269  -30.9684 H   0  0  0  0  0  0  0  0  0  0  0  0
   -5.2085   23.6662  -32.1644 H   0  0  0  0  0  0  0  0  0  0  0  0
   -5.0034   21.8656  -33.4806 H   0  0  0  0  0  0  0  0  0  0  0  0
   -3.8925   21.1755  -32.1685 H   0  0  0  0  0  0  0  0  0  0  0  0
   -5.9370   20.3370  -31.1960 H   0  0  0  0  0  0  0  0  0  0  0  0
   -7.2560   21.6518  -33.0529 H   0  0  0  0  0  0  0  0  0  0  0  0
   -7.3636   19.8571  -33.5013 H   0  0  0  0  0  0  0  0  0  0  0  0
   -7.8737   20.2930  -30.6950 H   0  0  0  0  0  0  0  0  0  0  0  0
   -9.5440   21.8003  -30.5742 H   0  0  0  0  0  0  0  0  0  0  0  0
   -8.8980   22.4274  -32.1286 H   0  0  0  0  0  0  0  0  0  0  0  0
  -10.2697   21.2676  -32.1286 H   0  0  0  0  0  0  0  0  0  0  0  0
   -9.4188   18.5809  -31.1335 H   0  0  0  0  0  0  0  0  0  0  0  0
   -9.9990   19.3606  -32.6441 H   0  0  0  0  0  0  0  0  0  0  0  0
   -8.4574   18.4387  -32.6441 H   0  0  0  0  0  0  0  0  0  0  0  0
   -4.3045   19.1661  -33.1195 H   0  0  0  0  0  0  0  0  0  0  0  0
   -5.1892   18.4453  -31.6785 H   0  0  0  0  0  0  0  0  0  0  0  0
   -7.1531   18.7235  -33.5501 H   0  0  0  0  0  0  0  0  0  0  0  0
   -4.6157   18.1126  -35.0391 H   0  0  0  0  0  0  0  0  0  0  0  0
   -6.1376   17.2901  -35.5227 H   0  0  0  0  0  0  0  0  0  0  0  0
   -6.0471   19.0841  -35.5227 H   0  0  0  0  0  0  0  0  0  0  0  0
   -6.4307   16.7755  -31.9340 H   0  0  0  0  0  0  0  0  0  0  0  0
   -7.4048   16.4048  -33.3971 H   0  0  0  0  0  0  0  0  0  0  0  0
   -5.6339   16.1038  -33.3971 H   0  0  0  0  0  0  0  0  0  0  0  0
   -5.6208   25.8511  -29.4135 H   0  0  0  0  0  0  0  0  0  0  0  0
   -5.6307   26.8086  -30.9333 H   0  0  0  0  0  0  0  0  0  0  0  0
   -6.2362   25.1175  -30.9333 H   0  0  0  0  0  0  0  0  0  0  0  0
  1  2  1  0
  2  3  1  0
  3  4  2  0
  4  5  1  0
  5  6  2  0
  6  7  1  0
  7  8  1  0
  8  9  1  0
  9 10  1  0
 10 11  1  0
 11 12  1  0
 12 13  1  0
 12 14  1  0
 10 15  1  0
 15 16  1  0
 16 17  1  0
 16 18  1  0
  7 19  2  0
 19 20  1  0
 20 21  1  0
 19  3  1  0
  1 22  1  0
  1 23  1  0
  1 24  1  0
  4 25  1  0
  5 26  1  0
  6 27  1  0
  8 28  1  0
  8 29  1  0
  9 30  1  0
  9 31  1  0
 10 32  1  0
 11 33  1  0
 11 34  1  0
 12 35  1  0
 13 36  1  0
 13 37  1  0
 13 38  1  0
 14 39  1  0
 14 40  1  0
 14 41  1  0
 15 42  1  0
 15 43  1  0
 16 44  1  0
 17 45  1  0
 17 46  1  0
 17 47  1  0
 18 48  1  0
 18 49  1  0
 18 50  1  0
 21 51  1  0
 21 52  1  0
 21 53  1  0
M  CHG  1  10   1
M  END
>  <UniqueID>  (19) 
19

>  <SMILES>  (19) 
COc1cccc(CC[NH+](CC(C)C)CC(C)C)c1OC

>  <Energy>  (19) 
60.974910469758626

>  <Genealogy>  (19) 
COc1cccc(CC[NH+](CC(C)C)CC(C)C)c1OC (protonated)
COc1cccc(CC[NH+](CC(C)C)CC(C)C)c1OC (3D coordinates assigned)
COc1cccc(CC[NH+](CC(C)C)CC(C)C)c1OC (optimized conformer: 60.974910469758626 kcal/mol)

>  <smiles>  (19) 
COc1cccc(CCN(CC(C)C)CC(C)C)c1OC

>  <score_type>  (19) 
oracle

>  <origin>  (19) 
adg

>  <m_score__min__energy>  (19) 
-7.71

>  <m_primary>  (19) 
energy

$$$$
19:0
     RDKit          3D

 44 46  0  0  0  0  0  0  0  0999 V2000
   -7.2150   16.6760  -33.8230 O   0  0  0  0  0  0  0  0  0  0  0  0
   -6.3000   17.5430  -33.7760 C   0  0  0  0  0  0  0  0  0  0  0  0
   -5.4290   17.7430  -34.9800 C   0  0  0  0  0  0  0  0  0  0  0  0
   -4.0220   18.1660  -34.5540 C   0  0  0  0  0  0  0  0  0  0  0  0
   -4.0790   19.3370  -33.6100 C   0  0  0  0  0  0  0  0  0  0  0  0
   -3.0720   20.3140  -33.6420 C   0  0  0  0  0  0  0  0  0  0  0  0
   -3.0980   21.3810  -32.7420 C   0  0  0  0  0  0  0  0  0  0  0  0
   -4.1210   21.4730  -31.7990 C   0  0  0  0  0  0  0  0  0  0  0  0
   -5.1190   20.4970  -31.7440 C   0  0  0  0  0  0  0  0  0  0  0  0
   -5.1050   19.4070  -32.6400 C   0  0  0  0  0  0  0  0  0  0  0  0
   -6.1240   18.3730  -32.6050 N   0  0  0  0  0  0  0  0  0  0  0  0
   -6.8860   18.0810  -31.3750 C   0  0  0  0  0  0  0  0  0  0  0  0
   -8.3950   18.3340  -31.5650 C   0  0  0  0  0  0  0  0  0  0  0  0
   -8.7180   19.0370  -32.8170 N   0  0  0  0  0  0  0  0  0  0  0  0
   -8.1970   20.4100  -32.8390 C   0  0  0  0  0  0  0  0  0  0  0  0
   -8.5550   21.1370  -31.5380 C   0  0  0  0  0  0  0  0  0  0  0  0
   -7.6270   22.2960  -31.2840 C   0  0  0  0  0  0  0  0  0  0  0  0
   -7.2750   22.6460  -29.9700 C   0  0  0  0  0  0  0  0  0  0  0  0
   -6.4390   23.7420  -29.7330 C   0  0  0  0  0  0  0  0  0  0  0  0
   -5.9550   24.4990  -30.8040 C   0  0  0  0  0  0  0  0  0  0  0  0
   -6.3080   24.1630  -32.1140 C   0  0  0  0  0  0  0  0  0  0  0  0
   -7.1440   23.0680  -32.3550 C   0  0  0  0  0  0  0  0  0  0  0  0
   -5.3691   16.8010  -35.5449 H   0  0  0  0  0  0  0  0  0  0  0  0
   -5.8647   18.5331  -35.6092 H   0  0  0  0  0  0  0  0  0  0  0  0
   -3.5281   17.3213  -34.0515 H   0  0  0  0  0  0  0  0  0  0  0  0
   -3.4564   18.4623  -35.4497 H   0  0  0  0  0  0  0  0  0  0  0  0
   -2.2590   20.2388  -34.3791 H   0  0  0  0  0  0  0  0  0  0  0  0
   -2.3114   22.1492  -32.7768 H   0  0  0  0  0  0  0  0  0  0  0  0
   -4.1423   22.3180  -31.0951 H   0  0  0  0  0  0  0  0  0  0  0  0
   -5.9219   20.5788  -30.9965 H   0  0  0  0  0  0  0  0  0  0  0  0
   -6.7329   17.0262  -31.1029 H   0  0  0  0  0  0  0  0  0  0  0  0
   -6.5237   18.7499  -30.5804 H   0  0  0  0  0  0  0  0  0  0  0  0
   -8.9135   17.3639  -31.5664 H   0  0  0  0  0  0  0  0  0  0  0  0
   -8.7222   18.9799  -30.7369 H   0  0  0  0  0  0  0  0  0  0  0  0
   -8.3400   18.5060  -33.6350 H   0  0  0  0  0  0  0  0  0  0  0  0
   -7.1029   20.3810  -32.9490 H   0  0  0  0  0  0  0  0  0  0  0  0
   -8.6472   20.9495  -33.6853 H   0  0  0  0  0  0  0  0  0  0  0  0
   -9.5862   21.5131  -31.6100 H   0  0  0  0  0  0  0  0  0  0  0  0
   -8.4569   20.4254  -30.7050 H   0  0  0  0  0  0  0  0  0  0  0  0
   -7.6582   22.0560  -29.1244 H   0  0  0  0  0  0  0  0  0  0  0  0
   -6.1620   24.0087  -28.7024 H   0  0  0  0  0  0  0  0  0  0  0  0
   -5.2961   25.3594  -30.6157 H   0  0  0  0  0  0  0  0  0  0  0  0
   -5.9280   24.7602  -32.9560 H   0  0  0  0  0  0  0  0  0  0  0  0
   -7.4247   22.8098  -33.3868 H   0  0  0  0  0  0  0  0  0  0  0  0
  1  2  2  0
  2  3  1  0
  3  4  1  0
  4  5  1  0
  5  6  2  0
  6  7  1  0
  7  8  2  0
  8  9  1  0
  9 10  2  0
 10 11  1  0
 11 12  1  0
 12 13  1  0
 13 14  1  0
 14 15  1  0
 15 16  1  0
 16 17  1  0
 17 18  2  0
 18 19  1  0
 19 20  2  0
 20 21  1  0
 21 22  2  0
 11  2  1  0
 22 17  1  0
 10  5  1  0
  3 23  1  0
  3 24  1  0
  4 25  1  0
  4 26  1  0
  6 27  1  0
  7 28  1  0
  8 29  1  0
  9 30  1  0
 12 31  1  0
 12 32  1  0
 13 33  1  0
 13 34  1  0
 14 35  1  0
 15 36  1  0
 15 37  1  0
 16 38  1  0
 16 39  1  0
 18 40  1  0
 19 41  1  0
 20 42  1  0
 21 43  1  0
 22 44  1  0
M  END
>  <UniqueID>  (20) 
20

>  <SMILES>  (20) 
O=C1CCc2ccccc2N1CCNCCc1ccccc1

>  <Energy>  (20) 
44.965268902644596

>  <Genealogy>  (20) 
O=C1CCc2ccccc2N1CCNCCc1ccccc1 (3D coordinates assigned)
O=C1CCc2ccccc2N1CCNCCc1ccccc1 (nonaromatic ring conformer: 44.965268902644596 kcal/mol)

>  <smiles>  (20) 
O=C1CCc2ccccc2N1CCNCCc1ccccc1

>  <score_type>  (20) 
oracle

>  <origin>  (20) 
adg

>  <m_score__min__energy>  (20) 
-8.7300000000000004

>  <m_primary>  (20) 
energy

$$$$
20:0
     RDKit          3D

 32 35  0  0  0  0  0  0  0  0999 V2000
   -9.4790   19.3530  -32.7230 C   0  0  0  0  0  0  0  0  0  0  0  0
   -8.4020   20.2790  -32.2380 C   0  0  0  0  0  0  0  0  0  0  0  0
   -8.7380   21.4530  -31.5500 C   0  0  0  0  0  0  0  0  0  0  0  0
   -7.7360   22.2980  -31.0640 C   0  0  0  0  0  0  0  0  0  0  0  0
   -6.3780   21.9800  -31.2530 C   0  0  0  0  0  0  0  0  0  0  0  0
   -5.2960   22.8610  -30.7390 C   0  0  0  0  0  0  0  0  0  0  0  0
   -4.4240   22.4380  -29.7090 C   0  0  0  0  0  0  0  0  0  0  0  0
   -3.4530   23.3410  -29.3020 C   0  0  0  0  0  0  0  0  0  0  0  0
   -3.3540   24.5810  -29.8690 C   0  0  0  0  0  0  0  0  0  0  0  0
   -4.2020   24.9720  -30.8470 N   0  0  0  0  0  0  0  0  0  0  0  0
   -5.1500   24.1230  -31.2650 N   0  0  0  0  0  0  0  0  0  0  0  0
   -2.3760   25.2910  -29.3440 O   0  0  0  0  0  0  0  0  0  0  0  0
   -1.8250   24.5190  -28.4260 C   0  0  0  0  0  0  0  0  0  0  0  0
   -0.7490   24.8240  -27.5950 C   0  0  0  0  0  0  0  0  0  0  0  0
   -0.3240   23.8420  -26.6790 C   0  0  0  0  0  0  0  0  0  0  0  0
   -0.9770   22.5890  -26.6130 C   0  0  0  0  0  0  0  0  0  0  0  0
   -2.0620   22.3020  -27.4620 C   0  0  0  0  0  0  0  0  0  0  0  0
   -2.4580   23.2930  -28.3570 C   0  0  0  0  0  0  0  0  0  0  0  0
   -6.0490   20.7850  -31.9190 C   0  0  0  0  0  0  0  0  0  0  0  0
   -7.0530   19.9420  -32.4040 C   0  0  0  0  0  0  0  0  0  0  0  0
   -9.9962   18.9083  -31.8600 H   0  0  0  0  0  0  0  0  0  0  0  0
  -10.2006   19.9170  -33.3322 H   0  0  0  0  0  0  0  0  0  0  0  0
   -9.0295   18.5550  -33.3322 H   0  0  0  0  0  0  0  0  0  0  0  0
   -9.7956   21.7108  -31.3917 H   0  0  0  0  0  0  0  0  0  0  0  0
   -8.0112   23.2191  -30.5294 H   0  0  0  0  0  0  0  0  0  0  0  0
   -4.5116   21.4410  -29.2527 H   0  0  0  0  0  0  0  0  0  0  0  0
   -0.2471   25.8011  -27.6525 H   0  0  0  0  0  0  0  0  0  0  0  0
    0.5231   24.0513  -26.0092 H   0  0  0  0  0  0  0  0  0  0  0  0
   -0.6338   21.8325  -25.8919 H   0  0  0  0  0  0  0  0  0  0  0  0
   -2.5780   21.3314  -27.4203 H   0  0  0  0  0  0  0  0  0  0  0  0
   -4.9927   20.5119  -32.0592 H   0  0  0  0  0  0  0  0  0  0  0  0
   -6.7819   19.0086  -32.9190 H   0  0  0  0  0  0  0  0  0  0  0  0
  1  2  1  0
  2  3  2  0
  3  4  1  0
  4  5  2  0
  5  6  1  0
  6  7  2  0
  7  8  1  0
  8  9  2  0
  9 10  1  0
 10 11  2  0
  9 12  1  0
 12 13  1  0
 13 14  2  0
 14 15  1  0
 15 16  2  0
 16 17  1  0
 17 18  2  0
  5 19  1  0
 19 20  2  0
 20  2  1  0
 11  6  1  0
 18 13  1  0
 18  8  1  0
  1 21  1  0
  1 22  1  0
  1 23  1  0
  3 24  1  0
  4 25  1  0
  7 26  1  0
 14 27  1  0
 15 28  1  0
 16 29  1  0
 17 30  1  0
 19 31  1  0
 20 32  1  0
M  END
>  <UniqueID>  (21) 
21

>  <SMILES>  (21) 
Cc1ccc(-c2cc3c(nn2)oc2ccccc23)cc1

>  <Energy>  (21) 
85.07256037910037

>  <Genealogy>  (21) 
Cc1ccc(-c2cc3c(nn2)oc2ccccc23)cc1 (3D coordinates assigned)
Cc1ccc(-c2cc3c(nn2)oc2ccccc23)cc1 (optimized conformer: 85.07256037910037 kcal/mol)

>  <smiles>  (21) 
Cc1ccc(-c2cc3c(nn2)oc2ccccc23)cc1

>  <score_type>  (21) 
oracle

>  <origin>  (21) 
adg

>  <m_score__min__energy>  (21) 
-9.3000000000000007

>  <m_primary>  (21) 
energy

$$$$
21:0
     RDKit          3D

 44 46  0  0  0  0  0  0  0  0999 V2000
    0.3910   24.2670  -25.0520 C   0  0  0  0  0  0  0  0  0  0  0  0
    0.0750   25.6770  -24.6620 C   0  0  0  0  0  0  0  0  0  0  0  0
    0.2800   26.1840  -23.4310 N   0  0  0  0  0  0  0  0  0  0  0  0
   -0.0440   27.4420  -23.4510 O   0  0  0  0  0  0  0  0  0  0  0  0
   -0.4560   27.7950  -24.6490 C   0  0  0  0  0  0  0  0  0  0  0  0
   -0.8680   29.1820  -25.0130 C   0  0  0  0  0  0  0  0  0  0  0  0
   -0.3980   26.6880  -25.4830 C   0  0  0  0  0  0  0  0  0  0  0  0
   -0.6870   26.6230  -26.9580 C   0  0  0  0  0  0  0  0  0  0  0  0
   -1.7610   25.6580  -27.2350 N   0  0  0  0  0  0  0  0  0  0  0  0
   -2.7520   25.3950  -26.1800 C   0  0  0  0  0  0  0  0  0  0  0  0
   -4.0050   24.7120  -26.7310 C   0  0  0  0  0  0  0  0  0  0  0  0
   -3.6150   23.4630  -27.5150 C   0  0  0  0  0  0  0  0  0  0  0  0
   -2.7330   23.8240  -28.6280 N   0  0  0  0  0  0  0  0  0  0  0  0
   -2.8490   23.1250  -29.9150 C   0  0  0  0  0  0  0  0  0  0  0  0
   -4.2400   23.2810  -30.4670 C   0  0  0  0  0  0  0  0  0  0  0  0
   -4.8560   22.2280  -31.1640 C   0  0  0  0  0  0  0  0  0  0  0  0
   -6.1390   22.3900  -31.6960 C   0  0  0  0  0  0  0  0  0  0  0  0
   -6.8150   23.6040  -31.5380 C   0  0  0  0  0  0  0  0  0  0  0  0
   -8.0580   23.7590  -32.0550 F   0  0  0  0  0  0  0  0  0  0  0  0
   -6.2070   24.6570  -30.8490 C   0  0  0  0  0  0  0  0  0  0  0  0
   -4.9240   24.4990  -30.3160 C   0  0  0  0  0  0  0  0  0  0  0  0
   -1.7450   24.8560  -28.4370 C   0  0  0  0  0  0  0  0  0  0  0  0
   -0.8900   25.0770  -29.3360 O   0  0  0  0  0  0  0  0  0  0  0  0
    0.5275   23.6579  -24.1463 H   0  0  0  0  0  0  0  0  0  0  0  0
   -0.4375   23.8570  -25.6482 H   0  0  0  0  0  0  0  0  0  0  0  0
    1.3153   24.2498  -25.6482 H   0  0  0  0  0  0  0  0  0  0  0  0
    0.6460   25.6750  -22.5970 H   0  0  0  0  0  0  0  0  0  0  0  0
   -1.0413   29.7654  -24.0967 H   0  0  0  0  0  0  0  0  0  0  0  0
   -0.0723   29.6573  -25.6053 H   0  0  0  0  0  0  0  0  0  0  0  0
   -1.7942   29.1459  -25.6053 H   0  0  0  0  0  0  0  0  0  0  0  0
   -0.9963   27.6183  -27.3096 H   0  0  0  0  0  0  0  0  0  0  0  0
    0.2237   26.2989  -27.4829 H   0  0  0  0  0  0  0  0  0  0  0  0
   -2.2972   24.7433  -25.4195 H   0  0  0  0  0  0  0  0  0  0  0  0
   -3.0528   26.3604  -25.7469 H   0  0  0  0  0  0  0  0  0  0  0  0
   -4.6622   24.4278  -25.8960 H   0  0  0  0  0  0  0  0  0  0  0  0
   -4.5321   25.4086  -27.3995 H   0  0  0  0  0  0  0  0  0  0  0  0
   -3.0911   22.7629  -26.8476 H   0  0  0  0  0  0  0  0  0  0  0  0
   -4.5240   22.9892  -27.9141 H   0  0  0  0  0  0  0  0  0  0  0  0
   -2.1259   23.5507  -30.6263 H   0  0  0  0  0  0  0  0  0  0  0  0
   -2.6408   22.0556  -29.7629 H   0  0  0  0  0  0  0  0  0  0  0  0
   -4.3268   21.2722  -31.2917 H   0  0  0  0  0  0  0  0  0  0  0  0
   -6.6171   21.5616  -32.2394 H   0  0  0  0  0  0  0  0  0  0  0  0
   -6.7388   25.6120  -30.7258 H   0  0  0  0  0  0  0  0  0  0  0  0
   -4.4484   25.3313  -29.7765 H   0  0  0  0  0  0  0  0  0  0  0  0
  1  2  1  0
  2  3  2  0
  3  4  1  0
  4  5  1  0
  5  6  1  0
  5  7  2  0
  7  8  1  0
  8  9  1  0
  9 10  1  0
 10 11  1  0
 11 12  1  0
 12 13  1  0
 13 14  1  0
 14 15  1  0
 15 16  2  0
 16 17  1  0
 17 18  2  0
 18 19  1  0
 18 20  1  0
 20 21  2  0
 13 22  1  0
 22 23  2  0
  7  2  1  0
 22  9  1  0
 21 15  1  0
  1 24  1  0
  1 25  1  0
  1 26  1  0
  3 27  1  0
  6 28  1  0
  6 29  1  0
  6 30  1  0
  8 31  1  0
  8 32  1  0
 10 33  1  0
 10 34  1  0
 11 35  1  0
 11 36  1  0
 12 37  1  0
 12 38  1  0
 14 39  1  0
 14 40  1  0
 16 41  1  0
 17 42  1  0
 20 43  1  0
 21 44  1  0
M  CHG  1   3   1
M  END
>  <UniqueID>  (22) 
22

>  <SMILES>  (22) 
Cc1[nH+]oc(C)c1CN1CCCN(Cc2ccc(F)cc2)C1=O

>  <Energy>  (22) 
68.02248683595077

>  <Genealogy>  (22) 
Cc1[nH+]oc(C)c1CN1CCCN(Cc2ccc(F)cc2)C1=O (protonated)
Cc1[nH+]oc(C)c1CN1CCCN(Cc2ccc(F)cc2)C1=O (3D coordinates assigned)
Cc1[nH+]oc(C)c1CN1CCCN(Cc2ccc(F)cc2)C1=O (nonaromatic ring conformer: 68.02248683595077 kcal/mol)

>  <smiles>  (22) 
Cc1noc(C)c1CN1CCCN(Cc2ccc(F)cc2)C1=O

>  <score_type>  (22) 
oracle

>  <origin>  (22) 
adg

>  <m_score__min__energy>  (22) 
-8.3000000000000007

>  <m_primary>  (22) 
energy

$$$$
22:0
     RDKit          3D

 43 45  0  0  0  0  0  0  0  0999 V2000
   -2.5170   24.5240  -28.0210 C   0  0  0  0  0  0  0  0  0  0  0  0
   -2.7800   25.0100  -29.3320 O   0  0  0  0  0  0  0  0  0  0  0  0
   -3.8040   24.5320  -30.1620 C   0  0  0  0  0  0  0  0  0  0  0  0
   -4.9780   25.2870  -30.2730 C   0  0  0  0  0  0  0  0  0  0  0  0
   -6.0230   24.8610  -31.0980 C   0  0  0  0  0  0  0  0  0  0  0  0
   -5.9070   23.6730  -31.8360 C   0  0  0  0  0  0  0  0  0  0  0  0
   -7.0550   23.2080  -32.7020 C   0  0  0  0  0  0  0  0  0  0  0  0
   -7.7550   21.9930  -32.1260 C   0  0  0  0  0  0  0  0  0  0  0  0
   -8.7930   22.1930  -31.2020 C   0  0  0  0  0  0  0  0  0  0  0  0
   -9.4380   21.1400  -30.6380 N   0  0  0  0  0  0  0  0  0  0  0  0
   -9.1070   19.8590  -30.9380 C   0  0  0  0  0  0  0  0  0  0  0  0
   -8.0770   19.5890  -31.8450 C   0  0  0  0  0  0  0  0  0  0  0  0
   -7.7310   18.2640  -32.1450 C   0  0  0  0  0  0  0  0  0  0  0  0
   -6.6930   17.9750  -33.0520 C   0  0  0  0  0  0  0  0  0  0  0  0
   -6.3500   16.6480  -33.3580 O   0  0  0  0  0  0  0  0  0  0  0  0
   -5.3100   15.9040  -32.7290 C   0  0  0  0  0  0  0  0  0  0  0  0
   -5.9950   19.0450  -33.6640 C   0  0  0  0  0  0  0  0  0  0  0  0
   -4.9290   18.8730  -34.5660 O   0  0  0  0  0  0  0  0  0  0  0  0
   -3.5980   18.4980  -34.2390 C   0  0  0  0  0  0  0  0  0  0  0  0
   -6.3600   20.3660  -33.3700 C   0  0  0  0  0  0  0  0  0  0  0  0
   -7.3900   20.6610  -32.4580 C   0  0  0  0  0  0  0  0  0  0  0  0
   -4.7410   22.9000  -31.7050 C   0  0  0  0  0  0  0  0  0  0  0  0
   -3.6920   23.3300  -30.8840 C   0  0  0  0  0  0  0  0  0  0  0  0
   -2.9041   25.2392  -27.2803 H   0  0  0  0  0  0  0  0  0  0  0  0
   -3.0117   23.5510  -27.8845 H   0  0  0  0  0  0  0  0  0  0  0  0
   -1.4319   24.4060  -27.8845 H   0  0  0  0  0  0  0  0  0  0  0  0
   -5.0789   26.2240  -29.7057 H   0  0  0  0  0  0  0  0  0  0  0  0
   -6.9423   25.4609  -31.1692 H   0  0  0  0  0  0  0  0  0  0  0  0
   -7.7842   24.0266  -32.7922 H   0  0  0  0  0  0  0  0  0  0  0  0
   -6.6440   22.9261  -33.6826 H   0  0  0  0  0  0  0  0  0  0  0  0
   -9.0878   23.2176  -30.9312 H   0  0  0  0  0  0  0  0  0  0  0  0
  -10.2060   21.3200  -29.9540 H   0  0  0  0  0  0  0  0  0  0  0  0
   -9.6515   19.0282  -30.4654 H   0  0  0  0  0  0  0  0  0  0  0  0
   -8.2777   17.4387  -31.6654 H   0  0  0  0  0  0  0  0  0  0  0  0
   -5.4147   15.9789  -31.6366 H   0  0  0  0  0  0  0  0  0  0  0  0
   -5.3788   14.8489  -33.0325 H   0  0  0  0  0  0  0  0  0  0  0  0
   -4.3337   16.3099  -33.0325 H   0  0  0  0  0  0  0  0  0  0  0  0
   -3.4843   18.4660  -33.1454 H   0  0  0  0  0  0  0  0  0  0  0  0
   -3.3832   17.5044  -34.6592 H   0  0  0  0  0  0  0  0  0  0  0  0
   -2.8961   19.2334  -34.6592 H   0  0  0  0  0  0  0  0  0  0  0  0
   -5.8282   21.1923  -33.8644 H   0  0  0  0  0  0  0  0  0  0  0  0
   -4.6518   21.9497  -32.2518 H   0  0  0  0  0  0  0  0  0  0  0  0
   -2.7765   22.7256  -30.8031 H   0  0  0  0  0  0  0  0  0  0  0  0
  1  2  1  0
  2  3  1  0
  3  4  2  0
  4  5  1  0
  5  6  2  0
  6  7  1  0
  7  8  1  0
  8  9  2  0
  9 10  1  0
 10 11  2  0
 11 12  1  0
 12 13  2  0
 13 14  1  0
 14 15  1  0
 15 16  1  0
 14 17  2  0
 17 18  1  0
 18 19  1  0
 17 20  1  0
 20 21  2  0
  6 22  1  0
 22 23  2  0
 23  3  1  0
 21  8  1  0
 21 12  1  0
  1 24  1  0
  1 25  1  0
  1 26  1  0
  4 27  1  0
  5 28  1  0
  7 29  1  0
  7 30  1  0
  9 31  1  0
 10 32  1  0
 11 33  1  0
 13 34  1  0
 16 35  1  0
 16 36  1  0
 16 37  1  0
 19 38  1  0
 19 39  1  0
 19 40  1  0
 20 41  1  0
 22 42  1  0
 23 43  1  0
M  CHG  1  10   1
M  END
>  <UniqueID>  (23) 
23

>  <SMILES>  (23) 
COc1ccc(Cc2c[nH+]cc3cc(OC)c(OC)cc23)cc1

>  <Energy>  (23) 
51.7349951649503

>  <Genealogy>  (23) 
COc1ccc(Cc2c[nH+]cc3cc(OC)c(OC)cc23)cc1 (protonated)
COc1ccc(Cc2c[nH+]cc3cc(OC)c(OC)cc23)cc1 (3D coordinates assigned)
COc1ccc(Cc2c[nH+]cc3cc(OC)c(OC)cc23)cc1 (optimized conformer: 51.7349951649503 kcal/mol)

>  <smiles>  (23) 
COc1ccc(Cc2cncc3cc(OC)c(OC)cc23)cc1

>  <score_type>  (23) 
oracle

>  <origin>  (23) 
adg

>  <m_score__min__energy>  (23) 
-7.1500000000000004

>  <m_primary>  (23) 
energy

$$$$
23:0
     RDKit          3D

 40 40  0  0  0  0  0  0  0  0999 V2000
   -9.4550   21.3180  -31.9040 C   0  0  0  0  0  0  0  0  0  0  0  0
   -8.4100   22.2500  -32.1530 O   0  0  0  0  0  0  0  0  0  0  0  0
   -7.5840   22.7460  -31.1390 C   0  0  0  0  0  0  0  0  0  0  0  0
   -7.6310   22.2590  -29.9760 O   0  0  0  0  0  0  0  0  0  0  0  0
   -6.6050   23.8320  -31.4530 C   0  0  0  0  0  0  0  0  0  0  0  0
   -6.1460   24.5210  -30.1660 C   0  0  0  0  0  0  0  0  0  0  0  0
   -5.2530   25.7260  -30.4760 C   0  0  0  0  0  0  0  0  0  0  0  0
   -3.8840   25.2880  -30.7150 N   0  0  0  0  0  0  0  0  0  0  0  0
   -3.0700   24.6430  -29.7300 C   0  0  0  0  0  0  0  0  0  0  0  0
   -2.1460   25.2720  -29.1480 O   0  0  0  0  0  0  0  0  0  0  0  0
   -3.3580   23.2240  -29.3570 C   0  0  0  0  0  0  0  0  0  0  0  0
   -2.8830   22.2700  -30.4590 C   0  0  0  0  0  0  0  0  0  0  0  0
   -3.8970   21.2420  -30.7030 N   0  0  0  0  0  0  0  0  0  0  0  0
   -4.1490   21.0010  -32.4080 S   0  0  0  0  0  0  0  0  0  0  0  0
   -4.6540   22.2810  -33.0130 O   0  0  0  0  0  0  0  0  0  0  0  0
   -2.8390   20.6570  -33.0620 O   0  0  0  0  0  0  0  0  0  0  0  0
   -5.3360   19.7230  -32.7040 C   0  0  0  0  0  0  0  0  0  0  0  0
   -6.4440   19.6070  -31.8500 C   0  0  0  0  0  0  0  0  0  0  0  0
   -7.3760   18.5830  -32.0390 C   0  0  0  0  0  0  0  0  0  0  0  0
   -7.2090   17.6680  -33.0820 C   0  0  0  0  0  0  0  0  0  0  0  0
   -6.1110   17.7760  -33.9380 C   0  0  0  0  0  0  0  0  0  0  0  0
   -5.1730   18.7990  -33.7530 C   0  0  0  0  0  0  0  0  0  0  0  0
   -4.1080   18.8710  -34.5890 F   0  0  0  0  0  0  0  0  0  0  0  0
   -9.5889   21.1986  -30.8187 H   0  0  0  0  0  0  0  0  0  0  0  0
  -10.3900   21.6876  -32.3503 H   0  0  0  0  0  0  0  0  0  0  0  0
   -9.1944   20.3470  -32.3503 H   0  0  0  0  0  0  0  0  0  0  0  0
   -5.7326   23.3978  -31.9633 H   0  0  0  0  0  0  0  0  0  0  0  0
   -7.0905   24.5747  -32.1032 H   0  0  0  0  0  0  0  0  0  0  0  0
   -7.0292   24.8625  -29.6063 H   0  0  0  0  0  0  0  0  0  0  0  0
   -5.5668   23.8001  -29.5703 H   0  0  0  0  0  0  0  0  0  0  0  0
   -5.6324   26.2387  -31.3722 H   0  0  0  0  0  0  0  0  0  0  0  0
   -5.2658   26.4133  -29.6172 H   0  0  0  0  0  0  0  0  0  0  0  0
   -2.8348   22.9831  -28.4199 H   0  0  0  0  0  0  0  0  0  0  0  0
   -4.4438   23.1044  -29.2278 H   0  0  0  0  0  0  0  0  0  0  0  0
   -2.7113   22.8392  -31.3845 H   0  0  0  0  0  0  0  0  0  0  0  0
   -1.9481   21.7863  -30.1396 H   0  0  0  0  0  0  0  0  0  0  0  0
   -6.5793   20.3255  -31.0281 H   0  0  0  0  0  0  0  0  0  0  0  0
   -8.2419   18.4971  -31.3661 H   0  0  0  0  0  0  0  0  0  0  0  0
   -7.9431   16.8620  -33.2288 H   0  0  0  0  0  0  0  0  0  0  0  0
   -5.9827   17.0558  -34.7595 H   0  0  0  0  0  0  0  0  0  0  0  0
  1  2  1  0
  2  3  1  0
  3  4  2  0
  3  5  1  0
  5  6  1  0
  6  7  1  0
  7  8  1  0
  8  9  1  0
  9 10  2  0
  9 11  1  0
 11 12  1  0
 12 13  1  0
 13 14  1  0
 14 15  2  0
 14 16  2  0
 14 17  1  0
 17 18  2  0
 18 19  1  0
 19 20  2  0
 20 21  1  0
 21 22  2  0
 22 23  1  0
 22 17  1  0
  1 24  1  0
  1 25  1  0
  1 26  1  0
  5 27  1  0
  5 28  1  0
  6 29  1  0
  6 30  1  0
  7 31  1  0
  7 32  1  0
 11 33  1  0
 11 34  1  0
 12 35  1  0
 12 36  1  0
 18 37  1  0
 19 38  1  0
 20 39  1  0
 21 40  1  0
M  CHG  2   8  -1  13  -1
M  END
>  <UniqueID>  (24) 
24

>  <SMILES>  (24) 
COC(=O)CCC[N-]C(=O)CC[N-]S(=O)(=O)c1ccccc1F

>  <Energy>  (24) 
23.512597894099386

>  <Genealogy>  (24) 
COC(=O)CCC[N-]C(=O)CC[N-]S(=O)(=O)c1ccccc1F (protonated)
COC(=O)CCC[N-]C(=O)CC[N-]S(=O)(=O)c1ccccc1F (3D coordinates assigned)
COC(=O)CCC[N-]C(=O)CC[N-]S(=O)(=O)c1ccccc1F (optimized conformer: 23.512597894099386 kcal/mol)

>  <smiles>  (24) 
COC(=O)CCCNC(=O)CCNS(=O)(=O)c1ccccc1F

>  <score_type>  (24) 
oracle

>  <origin>  (24) 
adg

>  <m_score__min__energy>  (24) 
-9.3399999999999999

>  <m_primary>  (24) 
energy

$$$$
24:0
     RDKit          3D

 66 69  0  0  0  0  0  0  0  0999 V2000
    0.9270   22.6090  -27.5200 C   0  0  0  0  0  0  0  0  0  0  0  0
    0.5440   23.9270  -27.9070 O   0  0  0  0  0  0  0  0  0  0  0  0
   -0.2290   24.8110  -27.1390 C   0  0  0  0  0  0  0  0  0  0  0  0
    0.4150   25.7070  -26.2580 C   0  0  0  0  0  0  0  0  0  0  0  0
   -0.3120   26.6120  -25.4940 C   0  0  0  0  0  0  0  0  0  0  0  0
   -1.6930   26.6520  -25.5970 C   0  0  0  0  0  0  0  0  0  0  0  0
   -2.3580   25.7800  -26.4540 C   0  0  0  0  0  0  0  0  0  0  0  0
   -1.6620   24.8210  -27.2410 C   0  0  0  0  0  0  0  0  0  0  0  0
   -2.4180   23.9020  -28.1150 N   0  0  0  0  0  0  0  0  0  0  0  0
   -3.8430   23.6480  -27.7960 C   0  0  0  0  0  0  0  0  0  0  0  0
   -4.5570   22.6260  -28.6920 C   0  0  0  0  0  0  0  0  0  0  0  0
   -4.0970   22.6470  -30.0830 N   0  0  0  0  0  0  0  0  0  0  0  0
   -4.4680   23.8670  -30.7850 C   0  0  0  0  0  0  0  0  0  0  0  0
   -3.9140   24.9260  -30.5220 O   0  0  0  0  0  0  0  0  0  0  0  0
   -5.5070   23.8200  -31.8940 C   0  0  2  0  0  0  0  0  0  0  0  0
   -6.8980   24.2100  -31.3700 C   0  0  0  0  0  0  0  0  0  0  0  0
   -7.4460   23.1740  -30.3860 C   0  0  0  0  0  0  0  0  0  0  0  0
   -7.3230   21.7820  -30.9340 C   0  0  0  0  0  0  0  0  0  0  0  0
   -8.1850   20.9220  -30.6080 O   0  0  0  0  0  0  0  0  0  0  0  0
   -6.1940   21.4140  -31.7580 N   0  0  0  0  0  0  0  0  0  0  0  0
   -5.8960   19.9810  -31.9880 C   0  0  0  0  0  0  0  0  0  0  0  0
   -4.5690   19.7990  -32.7690 C   0  0  0  0  0  0  0  0  0  0  0  0
   -4.2900   18.3290  -33.1290 C   0  0  0  0  0  0  0  0  0  0  0  0
   -4.9120   17.8860  -34.4580 C   0  0  0  0  0  0  0  0  0  0  0  0
   -6.3910   17.4850  -34.3470 C   0  0  0  0  0  0  0  0  0  0  0  0
   -6.9710   17.7920  -32.9580 C   0  0  0  0  0  0  0  0  0  0  0  0
   -7.1120   19.2960  -32.6560 C   0  0  0  0  0  0  0  0  0  0  0  0
   -5.5740   22.4530  -32.6050 C   0  0  0  0  0  0  0  0  0  0  0  0
   -2.6590   22.3590  -30.1390 C   0  0  0  0  0  0  0  0  0  0  0  0
   -1.7980   23.3510  -29.3410 C   0  0  0  0  0  0  0  0  0  0  0  0
    0.9469   22.5404  -26.4223 H   0  0  0  0  0  0  0  0  0  0  0  0
    0.2023   21.8844  -27.9196 H   0  0  0  0  0  0  0  0  0  0  0  0
    1.9272   22.3856  -27.9196 H   0  0  0  0  0  0  0  0  0  0  0  0
    1.5117   25.6883  -26.1749 H   0  0  0  0  0  0  0  0  0  0  0  0
    0.2087   27.2962  -24.8079 H   0  0  0  0  0  0  0  0  0  0  0  0
   -2.2662   27.3758  -24.9991 H   0  0  0  0  0  0  0  0  0  0  0  0
   -3.4544   25.8340  -26.5249 H   0  0  0  0  0  0  0  0  0  0  0  0
   -3.8970   23.2838  -26.7595 H   0  0  0  0  0  0  0  0  0  0  0  0
   -4.3611   24.6040  -27.9622 H   0  0  0  0  0  0  0  0  0  0  0  0
   -4.3810   21.6205  -28.2821 H   0  0  0  0  0  0  0  0  0  0  0  0
   -5.6243   22.8921  -28.6998 H   0  0  0  0  0  0  0  0  0  0  0  0
   -4.5720   21.8430  -30.5610 H   0  0  0  0  0  0  0  0  0  0  0  0
   -5.1816   24.5582  -32.6417 H   0  0  0  0  0  0  0  0  0  0  0  0
   -6.8267   25.1822  -30.8604 H   0  0  0  0  0  0  0  0  0  0  0  0
   -7.5841   24.2626  -32.2282 H   0  0  0  0  0  0  0  0  0  0  0  0
   -6.8805   23.2397  -29.4448 H   0  0  0  0  0  0  0  0  0  0  0  0
   -8.5117   23.3869  -30.2157 H   0  0  0  0  0  0  0  0  0  0  0  0
   -5.7338   19.4777  -31.0234 H   0  0  0  0  0  0  0  0  0  0  0  0
   -4.6242   20.3848  -33.6984 H   0  0  0  0  0  0  0  0  0  0  0  0
   -3.7507   20.1437  -32.1197 H   0  0  0  0  0  0  0  0  0  0  0  0
   -3.2008   18.1888  -33.1926 H   0  0  0  0  0  0  0  0  0  0  0  0
   -4.7497   17.7146  -32.3409 H   0  0  0  0  0  0  0  0  0  0  0  0
   -4.8309   18.7178  -35.1733 H   0  0  0  0  0  0  0  0  0  0  0  0
   -4.3615   16.9924  -34.7874 H   0  0  0  0  0  0  0  0  0  0  0  0
   -6.9666   18.0403  -35.1022 H   0  0  0  0  0  0  0  0  0  0  0  0
   -6.4605   16.3994  -34.5104 H   0  0  0  0  0  0  0  0  0  0  0  0
   -7.9672   17.3306  -32.8895 H   0  0  0  0  0  0  0  0  0  0  0  0
   -6.2637   17.3844  -32.2207 H   0  0  0  0  0  0  0  0  0  0  0  0
   -7.3052   19.8118  -33.6082 H   0  0  0  0  0  0  0  0  0  0  0  0
   -7.9287   19.3713  -31.9229 H   0  0  0  0  0  0  0  0  0  0  0  0
   -4.5523   22.1371  -32.8625 H   0  0  0  0  0  0  0  0  0  0  0  0
   -6.1953   22.5703  -33.5051 H   0  0  0  0  0  0  0  0  0  0  0  0
   -2.4910   21.3500  -29.7345 H   0  0  0  0  0  0  0  0  0  0  0  0
   -2.3550   22.4451  -31.1926 H   0  0  0  0  0  0  0  0  0  0  0  0
   -0.8722   22.8343  -29.0479 H   0  0  0  0  0  0  0  0  0  0  0  0
   -1.6389   24.2115  -30.0076 H   0  0  0  0  0  0  0  0  0  0  0  0
  1  2  1  0
  2  3  1  0
  3  4  2  0
  4  5  1  0
  5  6  2  0
  6  7  1  0
  7  8  2  0
  8  9  1  0
  9 10  1  0
 10 11  1  0
 11 12  1  0
 12 13  1  0
 13 14  2  0
 13 15  1  0
 15 16  1  0
 16 17  1  0
 17 18  1  0
 18 19  2  0
 18 20  1  0
 20 21  1  0
 21 22  1  0
 22 23  1  0
 23 24  1  0
 24 25  1  0
 25 26  1  0
 26 27  1  0
 20 28  1  0
 12 29  1  0
 29 30  1  0
  8  3  1  0
 30  9  1  0
 28 15  1  0
 27 21  1  0
  1 31  1  0
  1 32  1  0
  1 33  1  0
  4 34  1  0
  5 35  1  0
  6 36  1  0
  7 37  1  0
 10 38  1  0
 10 39  1  0
 11 40  1  0
 11 41  1  0
 12 42  1  0
 15 43  1  6
 16 44  1  0
 16 45  1  0
 17 46  1  0
 17 47  1  0
 21 48  1  0
 22 49  1  0
 22 50  1  0
 23 51  1  0
 23 52  1  0
 24 53  1  0
 24 54  1  0
 25 55  1  0
 25 56  1  0
 26 57  1  0
 26 58  1  0
 27 59  1  0
 27 60  1  0
 28 61  1  0
 28 62  1  0
 29 63  1  0
 29 64  1  0
 30 65  1  0
 30 66  1  0
M  CHG  1  12   1
M  END
>  <UniqueID>  (25) 
25

>  <SMILES>  (25) 
COc1ccccc1N1CC[NH+](C(=O)[C@@H]2CCC(=O)N(C3CCCCCC3)C2)CC1

>  <Energy>  (25) 
85.83001911106022

>  <Genealogy>  (25) 
COc1ccccc1N1CC[NH+](C(=O)C2CCC(=O)N(C3CCCCCC3)C2)CC1 (protonated)
COc1ccccc1N1CC[NH+](C(=O)[C@@H]2CCC(=O)N(C3CCCCCC3)C2)CC1 (chirality)
COc1ccccc1N1CC[NH+](C(=O)[C@@H]2CCC(=O)N(C3CCCCCC3)C2)CC1 (3D coordinates assigned)
COc1ccccc1N1CC[NH+](C(=O)[C@@H]2CCC(=O)N(C3CCCCCC3)C2)CC1 (nonaromatic ring conformer: 85.83001911106022 kcal/mol)

>  <smiles>  (25) 
COc1ccccc1N1CCN(C(=O)C2CCC(=O)N(C3CCCCCC3)C2)CC1

>  <score_type>  (25) 
oracle

>  <origin>  (25) 
adg

>  <m_score__min__energy>  (25) 
-6.1500000000000004

>  <m_primary>  (25) 
energy

$$$$
25:0
     RDKit          3D

 39 42  0  0  0  0  0  0  0  0999 V2000
   -6.1410   13.4440  -34.1980 C   0  0  0  0  0  0  0  0  0  0  0  0
   -5.6630   14.8600  -34.2550 C   0  0  0  0  0  0  0  0  0  0  0  0
   -6.3900   15.8780  -33.6220 C   0  0  0  0  0  0  0  0  0  0  0  0
   -5.9200   17.2040  -33.6670 C   0  0  0  0  0  0  0  0  0  0  0  0
   -6.6560   18.3120  -33.0070 C   0  0  0  0  0  0  0  0  0  0  0  0
   -8.0280   18.2150  -32.7100 C   0  0  0  0  0  0  0  0  0  0  0  0
   -8.6810   19.2830  -32.0910 C   0  0  0  0  0  0  0  0  0  0  0  0
   -7.9700   20.4450  -31.7750 C   0  0  0  0  0  0  0  0  0  0  0  0
   -8.5850   21.5400  -31.1610 C   0  0  0  0  0  0  0  0  0  0  0  0
   -7.8360   22.6790  -30.8690 C   0  0  0  0  0  0  0  0  0  0  0  0
   -6.4670   22.7180  -31.1860 C   0  0  0  0  0  0  0  0  0  0  0  0
   -5.6580   23.9230  -30.8990 C   0  0  0  0  0  0  0  0  0  0  0  0
   -6.1560   25.1960  -30.7040 C   0  0  0  0  0  0  0  0  0  0  0  0
   -5.0620   26.0040  -30.4730 C   0  0  0  0  0  0  0  0  0  0  0  0
   -3.9610   25.2890  -30.5350 O   0  0  0  0  0  0  0  0  0  0  0  0
   -4.2770   24.0420  -30.7970 C   0  0  0  0  0  0  0  0  0  0  0  0
   -3.2560   22.9620  -30.9620 C   0  0  0  0  0  0  0  0  0  0  0  0
   -5.8900   21.6420  -31.8010 N   0  0  0  0  0  0  0  0  0  0  0  0
   -6.6000   20.5170  -32.0940 C   0  0  0  0  0  0  0  0  0  0  0  0
   -5.9910   19.4610  -32.6960 N   0  0  0  0  0  0  0  0  0  0  0  0
   -4.7120   17.4670  -34.3360 C   0  0  0  0  0  0  0  0  0  0  0  0
   -4.0150   16.4240  -34.9480 C   0  0  0  0  0  0  0  0  0  0  0  0
   -4.5000   15.1560  -34.8940 N   0  0  0  0  0  0  0  0  0  0  0  0
   -6.2455   13.1343  -33.1477 H   0  0  0  0  0  0  0  0  0  0  0  0
   -7.1155   13.3654  -34.7022 H   0  0  0  0  0  0  0  0  0  0  0  0
   -5.4135   12.7909  -34.7022 H   0  0  0  0  0  0  0  0  0  0  0  0
   -7.3244   15.6413  -33.0921 H   0  0  0  0  0  0  0  0  0  0  0  0
   -8.5844   17.3009  -32.9646 H   0  0  0  0  0  0  0  0  0  0  0  0
   -9.7524   19.2104  -31.8525 H   0  0  0  0  0  0  0  0  0  0  0  0
   -9.6552   21.5031  -30.9094 H   0  0  0  0  0  0  0  0  0  0  0  0
   -8.3156   23.5460  -30.3912 H   0  0  0  0  0  0  0  0  0  0  0  0
   -7.2118   25.5037  -30.7280 H   0  0  0  0  0  0  0  0  0  0  0  0
   -5.1047   27.0839  -30.2679 H   0  0  0  0  0  0  0  0  0  0  0  0
   -2.9270   22.6140  -29.9717 H   0  0  0  0  0  0  0  0  0  0  0  0
   -3.6976   22.1217  -31.5178 H   0  0  0  0  0  0  0  0  0  0  0  0
   -2.3923   23.3558  -31.5178 H   0  0  0  0  0  0  0  0  0  0  0  0
   -4.8720   21.6680  -32.0410 H   0  0  0  0  0  0  0  0  0  0  0  0
   -4.3168   18.4927  -34.3771 H   0  0  0  0  0  0  0  0  0  0  0  0
   -3.0714   16.6290  -35.4749 H   0  0  0  0  0  0  0  0  0  0  0  0
  1  2  1  0
  2  3  2  0
  3  4  1  0
  4  5  1  0
  5  6  2  0
  6  7  1  0
  7  8  2  0
  8  9  1  0
  9 10  2  0
 10 11  1  0
 11 12  1  0
 12 13  1  0
 13 14  2  0
 14 15  1  0
 15 16  1  0
 16 17  1  0
 11 18  2  0
 18 19  1  0
 19 20  2  0
  4 21  2  0
 21 22  1  0
 22 23  2  0
 23  2  1  0
 20  5  1  0
 19  8  1  0
 16 12  2  0
  1 24  1  0
  1 25  1  0
  1 26  1  0
  3 27  1  0
  6 28  1  0
  7 29  1  0
  9 30  1  0
 10 31  1  0
 13 32  1  0
 14 33  1  0
 17 34  1  0
 17 35  1  0
 17 36  1  0
 18 37  1  0
 21 38  1  0
 22 39  1  0
M  CHG  1  18   1
M  END
>  <UniqueID>  (26) 
26

>  <SMILES>  (26) 
Cc1cc(-c2ccc3ccc(-c4ccoc4C)[nH+]c3n2)ccn1

>  <Energy>  (26) 
79.75534580993822

>  <Genealogy>  (26) 
Cc1cc(-c2ccc3ccc(-c4ccoc4C)[nH+]c3n2)ccn1 (protonated)
Cc1cc(-c2ccc3ccc(-c4ccoc4C)[nH+]c3n2)ccn1 (3D coordinates assigned)
Cc1cc(-c2ccc3ccc(-c4ccoc4C)[nH+]c3n2)ccn1 (optimized conformer: 79.75534580993822 kcal/mol)

>  <smiles>  (26) 
Cc1cc(-c2ccc3ccc(-c4ccoc4C)nc3n2)ccn1

>  <score_type>  (26) 
oracle

>  <origin>  (26) 
adg

>  <m_score__min__energy>  (26) 
-8.5899999999999999

>  <m_primary>  (26) 
energy

$$$$
26:0
     RDKit          3D

 43 47  0  0  0  0  0  0  0  0999 V2000
   -1.2740   21.4160  -33.2040 C   0  0  0  0  0  0  0  0  0  0  0  0
   -2.2830   22.0880  -32.4580 O   0  0  0  0  0  0  0  0  0  0  0  0
   -2.5110   21.9220  -31.0830 C   0  0  0  0  0  0  0  0  0  0  0  0
   -1.4920   21.4720  -30.2200 C   0  0  0  0  0  0  0  0  0  0  0  0
   -1.7430   21.2960  -28.8590 C   0  0  0  0  0  0  0  0  0  0  0  0
   -3.0090   21.5600  -28.3420 C   0  0  0  0  0  0  0  0  0  0  0  0
   -4.0290   22.0080  -29.1820 C   0  0  0  0  0  0  0  0  0  0  0  0
   -3.7950   22.2080  -30.5550 C   0  0  0  0  0  0  0  0  0  0  0  0
   -4.9370   22.6890  -31.4420 C   0  0  2  0  0  0  0  0  0  0  0  0
   -5.6000   23.8760  -30.7990 C   0  0  0  0  0  0  0  0  0  0  0  0
   -6.8620   23.8540  -30.3020 C   0  0  0  0  0  0  0  0  0  0  0  0
   -7.1280   25.0820  -29.7380 C   0  0  0  0  0  0  0  0  0  0  0  0
   -6.0590   25.8390  -29.8820 O   0  0  0  0  0  0  0  0  0  0  0  0
   -5.1310   25.1460  -30.5130 C   0  0  0  0  0  0  0  0  0  0  0  0
   -3.8760   25.6540  -30.8330 O   0  0  0  0  0  0  0  0  0  0  0  0
   -7.7140   22.7250  -30.4180 N   0  0  0  0  0  0  0  0  0  0  0  0
   -7.2560   21.5860  -31.1690 C   0  0  0  0  0  0  0  0  0  0  0  0
   -8.1310   20.5110  -31.3490 C   0  0  0  0  0  0  0  0  0  0  0  0
   -7.7480   19.3990  -32.0880 C   0  0  0  0  0  0  0  0  0  0  0  0
   -6.4850   19.3450  -32.6840 C   0  0  0  0  0  0  0  0  0  0  0  0
   -6.1270   18.2200  -33.4440 C   0  0  0  0  0  0  0  0  0  0  0  0
   -4.8800   18.1530  -34.0610 C   0  0  0  0  0  0  0  0  0  0  0  0
   -3.9820   19.2090  -33.9320 C   0  0  0  0  0  0  0  0  0  0  0  0
   -4.3190   20.3350  -33.1770 C   0  0  0  0  0  0  0  0  0  0  0  0
   -5.5710   20.4230  -32.5260 C   0  0  0  0  0  0  0  0  0  0  0  0
   -5.9420   21.5510  -31.7330 C   0  0  0  0  0  0  0  0  0  0  0  0
   -0.5617   20.9416  -32.5129 H   0  0  0  0  0  0  0  0  0  0  0  0
   -1.7381   20.6460  -33.8378 H   0  0  0  0  0  0  0  0  0  0  0  0
   -0.7424   22.1411  -33.8378 H   0  0  0  0  0  0  0  0  0  0  0  0
   -0.4909   21.2578  -30.6225 H   0  0  0  0  0  0  0  0  0  0  0  0
   -0.9396   20.9481  -28.1930 H   0  0  0  0  0  0  0  0  0  0  0  0
   -3.2051   21.4150  -27.2694 H   0  0  0  0  0  0  0  0  0  0  0  0
   -5.0277   22.2072  -28.7661 H   0  0  0  0  0  0  0  0  0  0  0  0
   -4.5319   23.0004  -32.4161 H   0  0  0  0  0  0  0  0  0  0  0  0
   -8.0690   25.3792  -29.2519 H   0  0  0  0  0  0  0  0  0  0  0  0
   -3.3390   25.2810  -31.6040 H   0  0  0  0  0  0  0  0  0  0  0  0
   -8.6730   22.7510  -30.0010 H   0  0  0  0  0  0  0  0  0  0  0  0
   -9.1347   20.5460  -30.9002 H   0  0  0  0  0  0  0  0  0  0  0  0
   -8.4436   18.5550  -32.2050 H   0  0  0  0  0  0  0  0  0  0  0  0
   -6.8360   17.3860  -33.5529 H   0  0  0  0  0  0  0  0  0  0  0  0
   -4.6048   17.2658  -34.6501 H   0  0  0  0  0  0  0  0  0  0  0  0
   -3.0013   19.1564  -34.4275 H   0  0  0  0  0  0  0  0  0  0  0  0
   -3.6012   21.1637  -33.0878 H   0  0  0  0  0  0  0  0  0  0  0  0
  1  2  1  0
  2  3  1  0
  3  4  2  0
  4  5  1  0
  5  6  2  0
  6  7  1  0
  7  8  2  0
  8  9  1  0
  9 10  1  0
 10 11  1  0
 11 12  2  0
 12 13  1  0
 13 14  1  0
 14 15  1  0
 11 16  1  0
 16 17  1  0
 17 18  2  0
 18 19  1  0
 19 20  2  0
 20 21  1  0
 21 22  2  0
 22 23  1  0
 23 24  2  0
 24 25  1  0
 25 26  2  0
  8  3  1  0
 26  9  1  0
 14 10  2  0
 26 17  1  0
 25 20  1  0
  1 27  1  0
  1 28  1  0
  1 29  1  0
  4 30  1  0
  5 31  1  0
  6 32  1  0
  7 33  1  0
  9 34  1  6
 12 35  1  0
 15 36  1  0
 16 37  1  0
 18 38  1  0
 19 39  1  0
 21 40  1  0
 22 41  1  0
 23 42  1  0
 24 43  1  0
M  END
>  <UniqueID>  (27) 
27

>  <SMILES>  (27) 
COc1ccccc1[C@@H]1c2c(coc2O)Nc2ccc3ccccc3c21

>  <Energy>  (27) 
88.86582325173033

>  <Genealogy>  (27) 
COc1ccccc1[C@@H]1c2c(coc2O)Nc2ccc3ccccc3c21 (chirality)
COc1ccccc1[C@@H]1c2c(coc2O)Nc2ccc3ccccc3c21 (3D coordinates assigned)
COc1ccccc1[C@@H]1c2c(coc2O)Nc2ccc3ccccc3c21 (nonaromatic ring conformer: 88.86582325173033 kcal/mol)

>  <smiles>  (27) 
COc1ccccc1C1c2c(coc2O)Nc2ccc3ccccc3c21

>  <score_type>  (27) 
oracle

>  <origin>  (27) 
adg

>  <m_score__min__energy>  (27) 
-9.7200000000000006

>  <m_primary>  (27) 
energy

$$$$
27:0
     RDKit          3D

 65 68  0  0  0  0  0  0  0  0999 V2000
   -4.2240   17.6840  -33.0820 C   0  0  0  0  0  0  0  0  0  0  0  0
   -5.6350   17.4040  -33.4460 N   0  0  0  0  0  0  0  0  0  0  0  0
   -5.6750   16.0930  -34.1410 C   0  0  0  0  0  0  0  0  0  0  0  0
   -6.1300   18.4630  -34.3840 C   0  0  0  0  0  0  0  0  0  0  0  0
   -6.7740   19.6440  -33.6370 C   0  0  0  0  0  0  0  0  0  0  0  0
   -7.9690   19.2260  -32.8500 N   0  0  0  0  0  0  0  0  0  0  0  0
   -8.1710   20.1080  -31.6730 C   0  0  0  0  0  0  0  0  0  0  0  0
   -8.7630   21.4810  -32.0570 C   0  0  0  0  0  0  0  0  0  0  0  0
   -7.9650   22.6300  -31.4300 C   0  0  0  0  0  0  0  0  0  0  0  0
   -6.6450   22.6970  -31.9750 O   0  0  0  0  0  0  0  0  0  0  0  0
   -5.5070   23.1840  -31.3080 C   0  0  0  0  0  0  0  0  0  0  0  0
   -5.4670   24.4820  -30.7650 C   0  0  0  0  0  0  0  0  0  0  0  0
   -4.3340   24.9370  -30.0900 C   0  0  0  0  0  0  0  0  0  0  0  0
   -3.2210   24.1000  -29.9360 C   0  0  0  0  0  0  0  0  0  0  0  0
   -2.0660   24.5160  -29.2490 C   0  0  0  0  0  0  0  0  0  0  0  0
   -1.9860   25.6710  -28.7480 O   0  0  0  0  0  0  0  0  0  0  0  0
   -0.9920   23.6360  -29.1210 C   0  0  0  0  0  0  0  0  0  0  0  0
   -1.0920   22.3610  -29.6780 C   0  0  0  0  0  0  0  0  0  0  0  0
   -2.1930   21.9920  -30.3240 O   0  0  0  0  0  0  0  0  0  0  0  0
   -3.2460   22.7940  -30.4770 C   0  0  0  0  0  0  0  0  0  0  0  0
   -4.3830   22.3420  -31.1790 C   0  0  0  0  0  0  0  0  0  0  0  0
   -4.4130   20.9460  -31.7620 C   0  0  0  0  0  0  0  0  0  0  0  0
   -3.7670   20.9260  -33.1500 C   0  0  0  0  0  0  0  0  0  0  0  0
   -2.2940   20.6380  -33.0410 C   0  0  0  0  0  0  0  0  0  0  0  0
   -1.8210   19.7040  -32.1050 C   0  0  0  0  0  0  0  0  0  0  0  0
   -0.4490   19.4670  -31.9770 C   0  0  0  0  0  0  0  0  0  0  0  0
    0.4600   20.1660  -32.7770 C   0  0  0  0  0  0  0  0  0  0  0  0
   -0.0020   21.1070  -33.7010 C   0  0  0  0  0  0  0  0  0  0  0  0
   -1.3730   21.3480  -33.8300 C   0  0  0  0  0  0  0  0  0  0  0  0
   -7.9050   17.7990  -32.4280 C   0  0  0  0  0  0  0  0  0  0  0  0
   -6.4570   17.3330  -32.1960 C   0  0  0  0  0  0  0  0  0  0  0  0
   -4.1249   17.7037  -31.9867 H   0  0  0  0  0  0  0  0  0  0  0  0
   -3.5757   16.8970  -33.4948 H   0  0  0  0  0  0  0  0  0  0  0  0
   -3.9254   18.6589  -33.4948 H   0  0  0  0  0  0  0  0  0  0  0  0
   -5.6997   15.2838  -33.3963 H   0  0  0  0  0  0  0  0  0  0  0  0
   -6.5752   16.0392  -34.7709 H   0  0  0  0  0  0  0  0  0  0  0  0
   -4.7797   15.9844  -34.7709 H   0  0  0  0  0  0  0  0  0  0  0  0
   -5.2814   18.8378  -34.9752 H   0  0  0  0  0  0  0  0  0  0  0  0
   -6.8980   18.0114  -35.0292 H   0  0  0  0  0  0  0  0  0  0  0  0
   -6.0312   20.0770  -32.9508 H   0  0  0  0  0  0  0  0  0  0  0  0
   -7.1024   20.3796  -34.3860 H   0  0  0  0  0  0  0  0  0  0  0  0
   -8.8110   19.3240  -33.4660 H   0  0  0  0  0  0  0  0  0  0  0  0
   -8.8589   19.6105  -30.9735 H   0  0  0  0  0  0  0  0  0  0  0  0
   -7.1865   20.2850  -31.2154 H   0  0  0  0  0  0  0  0  0  0  0  0
   -8.7417   21.5863  -33.1517 H   0  0  0  0  0  0  0  0  0  0  0  0
   -9.7951   21.5304  -31.6798 H   0  0  0  0  0  0  0  0  0  0  0  0
   -8.4845   23.5789  -31.6291 H   0  0  0  0  0  0  0  0  0  0  0  0
   -7.8875   22.4516  -30.3473 H   0  0  0  0  0  0  0  0  0  0  0  0
   -6.3383   25.1446  -30.8740 H   0  0  0  0  0  0  0  0  0  0  0  0
   -4.3144   25.9564  -29.6773 H   0  0  0  0  0  0  0  0  0  0  0  0
   -0.0795   23.9426  -28.5887 H   0  0  0  0  0  0  0  0  0  0  0  0
   -0.2532   21.6559  -29.5817 H   0  0  0  0  0  0  0  0  0  0  0  0
   -3.8616   20.2649  -31.0971 H   0  0  0  0  0  0  0  0  0  0  0  0
   -5.4606   20.6234  -31.8544 H   0  0  0  0  0  0  0  0  0  0  0  0
   -4.2444   20.1453  -33.7604 H   0  0  0  0  0  0  0  0  0  0  0  0
   -3.9033   21.9110  -33.6204 H   0  0  0  0  0  0  0  0  0  0  0  0
   -2.5329   19.1565  -31.4698 H   0  0  0  0  0  0  0  0  0  0  0  0
   -0.0844   18.7300  -31.2463 H   0  0  0  0  0  0  0  0  0  0  0  0
    1.5389   19.9752  -32.6790 H   0  0  0  0  0  0  0  0  0  0  0  0
    0.7140   21.6588  -34.3277 H   0  0  0  0  0  0  0  0  0  0  0  0
   -1.7322   22.0962  -34.5519 H   0  0  0  0  0  0  0  0  0  0  0  0
   -8.4712   17.6792  -31.4926 H   0  0  0  0  0  0  0  0  0  0  0  0
   -8.3352   17.1859  -33.2336 H   0  0  0  0  0  0  0  0  0  0  0  0
   -5.9959   17.9754  -31.4313 H   0  0  0  0  0  0  0  0  0  0  0  0
   -6.4873   16.2829  -31.8698 H   0  0  0  0  0  0  0  0  0  0  0  0
  1  2  1  0
  2  3  1  0
  2  4  1  0
  4  5  1  0
  5  6  1  0
  6  7  1  0
  7  8  1  0
  8  9  1  0
  9 10  1  0
 10 11  1  0
 11 12  2  0
 12 13  1  0
 13 14  2  0
 14 15  1  0
 15 16  2  0
 15 17  1  0
 17 18  2  0
 18 19  1  0
 19 20  1  0
 20 21  2  0
 21 22  1  0
 22 23  1  0
 23 24  1  0
 24 25  2  0
 25 26  1  0
 26 27  2  0
 27 28  1  0
 28 29  2  0
  6 30  1  0
 30 31  1  0
 31  2  1  0
 21 11  1  0
 29 24  1  0
 20 14  1  0
  1 32  1  0
  1 33  1  0
  1 34  1  0
  3 35  1  0
  3 36  1  0
  3 37  1  0
  4 38  1  0
  4 39  1  0
  5 40  1  0
  5 41  1  0
  6 42  1  0
  7 43  1  0
  7 44  1  0
  8 45  1  0
  8 46  1  0
  9 47  1  0
  9 48  1  0
 12 49  1  0
 13 50  1  0
 17 51  1  0
 18 52  1  0
 22 53  1  0
 22 54  1  0
 23 55  1  0
 23 56  1  0
 25 57  1  0
 26 58  1  0
 27 59  1  0
 28 60  1  0
 29 61  1  0
 30 62  1  0
 30 63  1  0
 31 64  1  0
 31 65  1  0
M  CHG  2   2   1   6   1
M  END
>  <UniqueID>  (28) 
28

>  <SMILES>  (28) 
C[N+]1(C)CC[NH+](CCCOc2ccc3c(=O)ccoc3c2CCc2ccccc2)CC1

>  <Energy>  (28) 
85.16951428368051

>  <Genealogy>  (28) 
C[N+]1(C)CC[NH+](CCCOc2ccc3c(=O)ccoc3c2CCc2ccccc2)CC1 (protonated)
C[N+]1(C)CC[NH+](CCCOc2ccc3c(=O)ccoc3c2CCc2ccccc2)CC1 (3D coordinates assigned)
C[N+]1(C)CC[NH+](CCCOc2ccc3c(=O)ccoc3c2CCc2ccccc2)CC1 (nonaromatic ring conformer: 85.16951428368051 kcal/mol)

>  <smiles>  (28) 
C[N+]1(C)CCN(CCCOc2ccc3c(=O)ccoc3c2CCc2ccccc2)CC1

>  <score_type>  (28) 
oracle

>  <origin>  (28) 
adg

>  <m_score__min__energy>  (28) 
-7.5499999999999998

>  <m_primary>  (28) 
energy

$$$$
28:0
     RDKit          3D

 29 30  0  0  0  0  0  0  0  0999 V2000
   -3.9240   25.4940  -30.6270 N   0  0  0  0  0  0  0  0  0  0  0  0
   -5.3020   25.0260  -30.7300 C   0  0  0  0  0  0  0  0  0  0  0  0
   -5.3530   23.6390  -31.2170 C   0  0  0  0  0  0  0  0  0  0  0  0
   -5.3930   22.5030  -31.6170 C   0  0  0  0  0  0  0  0  0  0  0  0
   -5.4420   21.1470  -32.0950 C   0  0  0  0  0  0  0  0  0  0  0  0
   -6.6290   20.4120  -32.0040 C   0  0  0  0  0  0  0  0  0  0  0  0
   -6.6780   19.0940  -32.4670 C   0  0  0  0  0  0  0  0  0  0  0  0
   -5.5370   18.4940  -33.0300 C   0  0  0  0  0  0  0  0  0  0  0  0
   -5.5910   17.0930  -33.5190 C   0  0  0  0  0  0  0  0  0  0  0  0
   -6.8290   16.4700  -33.7630 C   0  0  0  0  0  0  0  0  0  0  0  0
   -6.8600   15.1500  -34.2150 C   0  0  0  0  0  0  0  0  0  0  0  0
   -5.6680   14.4600  -34.4210 C   0  0  0  0  0  0  0  0  0  0  0  0
   -4.4540   15.1020  -34.1720 C   0  0  0  0  0  0  0  0  0  0  0  0
   -4.4370   16.3900  -33.7300 N   0  0  0  0  0  0  0  0  0  0  0  0
   -4.3470   19.2410  -33.1180 C   0  0  0  0  0  0  0  0  0  0  0  0
   -4.3010   20.5590  -32.6530 C   0  0  0  0  0  0  0  0  0  0  0  0
   -3.5530   25.6720  -31.5900 H   0  0  0  0  0  0  0  0  0  0  0  0
   -3.9120   26.4030  -30.1080 H   0  0  0  0  0  0  0  0  0  0  0  0
   -5.7740   25.0764  -29.7377 H   0  0  0  0  0  0  0  0  0  0  0  0
   -5.8375   25.6681  -31.4448 H   0  0  0  0  0  0  0  0  0  0  0  0
   -7.5269   20.8730  -31.5666 H   0  0  0  0  0  0  0  0  0  0  0  0
   -7.6147   18.5224  -32.3906 H   0  0  0  0  0  0  0  0  0  0  0  0
   -7.7671   17.0204  -33.5984 H   0  0  0  0  0  0  0  0  0  0  0  0
   -7.8236   14.6558  -34.4081 H   0  0  0  0  0  0  0  0  0  0  0  0
   -5.6831   13.4191  -34.7765 H   0  0  0  0  0  0  0  0  0  0  0  0
   -3.5073   14.5656  -34.3334 H   0  0  0  0  0  0  0  0  0  0  0  0
   -3.5090   16.8420  -33.5740 H   0  0  0  0  0  0  0  0  0  0  0  0
   -3.4469   18.7846  -33.5557 H   0  0  0  0  0  0  0  0  0  0  0  0
   -3.3665   21.1346  -32.7259 H   0  0  0  0  0  0  0  0  0  0  0  0
  1  2  1  0
  2  3  1  0
  3  4  3  0
  4  5  1  0
  5  6  2  0
  6  7  1  0
  7  8  2  0
  8  9  1  0
  9 10  2  0
 10 11  1  0
 11 12  2  0
 12 13  1  0
 13 14  2  0
  8 15  1  0
 15 16  2  0
 16  5  1  0
 14  9  1  0
  1 17  1  0
  1 18  1  0
  2 19  1  0
  2 20  1  0
  6 21  1  0
  7 22  1  0
 10 23  1  0
 11 24  1  0
 12 25  1  0
 13 26  1  0
 14 27  1  0
 15 28  1  0
 16 29  1  0
M  CHG  1  14   1
M  END
>  <UniqueID>  (29) 
29

>  <SMILES>  (29) 
NCC#Cc1ccc(-c2cccc[nH+]2)cc1

>  <Energy>  (29) 
29.111596480177713

>  <Genealogy>  (29) 
NCC#Cc1ccc(-c2cccc[nH+]2)cc1 (protonated)
NCC#Cc1ccc(-c2cccc[nH+]2)cc1 (3D coordinates assigned)
NCC#Cc1ccc(-c2cccc[nH+]2)cc1 (optimized conformer: 29.111596480177713 kcal/mol)

>  <smiles>  (29) 
NCC#Cc1ccc(-c2ccccn2)cc1

>  <score_type>  (29) 
oracle

>  <origin>  (29) 
adg

>  <m_score__min__energy>  (29) 
-5.7199999999999998

>  <m_primary>  (29) 
energy

$$$$
29:0
     RDKit          3D

 40 42  0  0  0  0  0  0  0  0999 V2000
   -3.1450   20.2860  -34.2090 O   0  0  0  0  0  0  0  0  0  0  0  0
   -4.1300   20.1270  -33.0830 S   0  0  0  0  0  0  0  0  0  0  0  0
   -3.3850   20.1300  -31.7780 O   0  0  0  0  0  0  0  0  0  0  0  0
   -5.2460   21.4550  -33.1130 N   0  0  0  0  0  0  0  0  0  0  0  0
   -6.5100   21.4310  -32.4240 C   0  0  0  0  0  0  0  0  0  0  0  0
   -7.4810   20.4580  -32.7280 C   0  0  0  0  0  0  0  0  0  0  0  0
   -8.6980   20.4320  -32.0410 C   0  0  0  0  0  0  0  0  0  0  0  0
   -8.9630   21.3770  -31.0490 C   0  0  0  0  0  0  0  0  0  0  0  0
   -8.0120   22.3500  -30.7410 C   0  0  0  0  0  0  0  0  0  0  0  0
   -6.7890   22.3880  -31.4250 C   0  0  0  0  0  0  0  0  0  0  0  0
   -5.8130   23.3780  -31.0750 N   0  0  0  0  0  0  0  0  0  0  0  0
   -4.4320   22.9620  -30.8290 C   0  0  0  0  0  0  0  0  0  0  0  0
   -3.7370   23.9970  -29.9380 C   0  0  0  0  0  0  0  0  0  0  0  0
   -3.8860   25.3000  -30.4710 O   0  0  0  0  0  0  0  0  0  0  0  0
   -5.2530   25.6750  -30.4540 C   0  0  0  0  0  0  0  0  0  0  0  0
   -6.0720   24.7830  -31.3900 C   0  0  0  0  0  0  0  0  0  0  0  0
   -5.0090   18.6070  -33.2270 C   0  0  0  0  0  0  0  0  0  0  0  0
   -5.3000   18.0890  -34.4970 C   0  0  0  0  0  0  0  0  0  0  0  0
   -5.9830   16.8740  -34.6220 C   0  0  0  0  0  0  0  0  0  0  0  0
   -6.3800   16.1750  -33.4780 C   0  0  0  0  0  0  0  0  0  0  0  0
   -6.1000   16.6910  -32.2090 C   0  0  0  0  0  0  0  0  0  0  0  0
   -5.4120   17.9040  -32.0820 C   0  0  0  0  0  0  0  0  0  0  0  0
   -4.9020   22.3450  -33.5360 H   0  0  0  0  0  0  0  0  0  0  0  0
   -7.2805   19.7128  -33.5119 H   0  0  0  0  0  0  0  0  0  0  0  0
   -9.4485   19.6650  -32.2828 H   0  0  0  0  0  0  0  0  0  0  0  0
   -9.9216   21.3547  -30.5100 H   0  0  0  0  0  0  0  0  0  0  0  0
   -8.2231   23.0919  -29.9567 H   0  0  0  0  0  0  0  0  0  0  0  0
   -4.4279   21.9837  -30.3261 H   0  0  0  0  0  0  0  0  0  0  0  0
   -3.8966   22.8846  -31.7868 H   0  0  0  0  0  0  0  0  0  0  0  0
   -4.1830   23.9653  -28.9330 H   0  0  0  0  0  0  0  0  0  0  0  0
   -2.6647   23.7566  -29.8887 H   0  0  0  0  0  0  0  0  0  0  0  0
   -5.6416   25.5760  -29.4297 H   0  0  0  0  0  0  0  0  0  0  0  0
   -5.3374   26.7171  -30.7960 H   0  0  0  0  0  0  0  0  0  0  0  0
   -7.1427   24.9973  -31.2569 H   0  0  0  0  0  0  0  0  0  0  0  0
   -5.7847   24.9840  -32.4326 H   0  0  0  0  0  0  0  0  0  0  0  0
   -4.9905   18.6393  -35.3978 H   0  0  0  0  0  0  0  0  0  0  0  0
   -6.2074   16.4691  -35.6198 H   0  0  0  0  0  0  0  0  0  0  0  0
   -6.9133   15.2180  -33.5764 H   0  0  0  0  0  0  0  0  0  0  0  0
   -6.4203   16.1439  -31.3101 H   0  0  0  0  0  0  0  0  0  0  0  0
   -5.1873   18.3061  -31.0831 H   0  0  0  0  0  0  0  0  0  0  0  0
  1  2  2  0
  2  3  2  0
  2  4  1  0
  4  5  1  0
  5  6  2  0
  6  7  1  0
  7  8  2  0
  8  9  1  0
  9 10  2  0
 10 11  1  0
 11 12  1  0
 12 13  1  0
 13 14  1  0
 14 15  1  0
 15 16  1  0
  2 17  1  0
 17 18  2  0
 18 19  1  0
 19 20  2  0
 20 21  1  0
 21 22  2  0
 10  5  1  0
 16 11  1  0
 22 17  1  0
  4 23  1  0
  6 24  1  0
  7 25  1  0
  8 26  1  0
  9 27  1  0
 12 28  1  0
 12 29  1  0
 13 30  1  0
 13 31  1  0
 15 32  1  0
 15 33  1  0
 16 34  1  0
 16 35  1  0
 18 36  1  0
 19 37  1  0
 20 38  1  0
 21 39  1  0
 22 40  1  0
M  END
>  <UniqueID>  (30) 
30

>  <SMILES>  (30) 
O=S(=O)(Nc1ccccc1N1CCOCC1)c1ccccc1

>  <Energy>  (30) 
50.47683503448908

>  <Genealogy>  (30) 
O=S(=O)(Nc1ccccc1N1CCOCC1)c1ccccc1 (3D coordinates assigned)
O=S(=O)(Nc1ccccc1N1CCOCC1)c1ccccc1 (nonaromatic ring conformer: 50.47683503448908 kcal/mol)

>  <smiles>  (30) 
O=S(=O)(Nc1ccccc1N1CCOCC1)c1ccccc1

>  <score_type>  (30) 
oracle

>  <origin>  (30) 
adg

>  <m_score__min__energy>  (30) 
-8.8200000000000003

>  <m_primary>  (30) 
energy

$$$$
30:0
     RDKit          3D

 44 46  0  0  0  0  0  0  0  0999 V2000
   -3.8910   22.6380  -28.1910 C   0  0  0  0  0  0  0  0  0  0  0  0
   -4.0280   24.0040  -28.8700 C   0  0  0  0  0  0  0  0  0  0  0  0
   -5.0550   24.8490  -28.2360 N   0  0  0  0  0  0  0  0  0  0  0  0
   -6.0630   25.3200  -29.2010 C   0  0  0  0  0  0  0  0  0  0  0  0
   -5.4220   25.9030  -30.4680 C   0  0  0  0  0  0  0  0  0  0  0  0
   -5.0190   24.8700  -31.3700 O   0  0  0  0  0  0  0  0  0  0  0  0
   -5.7320   23.6970  -31.6870 C   0  0  0  0  0  0  0  0  0  0  0  0
   -7.1390   23.6600  -31.7070 C   0  0  0  0  0  0  0  0  0  0  0  0
   -7.8130   22.4810  -32.0150 C   0  0  0  0  0  0  0  0  0  0  0  0
   -7.1050   21.3200  -32.3140 C   0  0  0  0  0  0  0  0  0  0  0  0
   -5.6960   21.3190  -32.3160 C   0  0  0  0  0  0  0  0  0  0  0  0
   -4.9520   20.1470  -32.6210 C   0  0  0  0  0  0  0  0  0  0  0  0
   -5.5950   18.8800  -33.0340 C   0  0  0  0  0  0  0  0  0  0  0  0
   -6.5990   18.3000  -32.2400 C   0  0  0  0  0  0  0  0  0  0  0  0
   -7.2190   17.1140  -32.6450 C   0  0  0  0  0  0  0  0  0  0  0  0
   -6.8500   16.5060  -33.8480 C   0  0  0  0  0  0  0  0  0  0  0  0
   -5.8630   17.0850  -34.6500 C   0  0  0  0  0  0  0  0  0  0  0  0
   -5.2390   18.2710  -34.2490 C   0  0  0  0  0  0  0  0  0  0  0  0
   -3.5520   20.1820  -32.5510 C   0  0  0  0  0  0  0  0  0  0  0  0
   -2.8840   21.3580  -32.2130 C   0  0  0  0  0  0  0  0  0  0  0  0
   -3.6020   22.5190  -31.9370 C   0  0  0  0  0  0  0  0  0  0  0  0
   -5.0080   22.5190  -31.9780 C   0  0  0  0  0  0  0  0  0  0  0  0
   -3.9041   22.7685  -27.0988 H   0  0  0  0  0  0  0  0  0  0  0  0
   -4.7289   21.9926  -28.4932 H   0  0  0  0  0  0  0  0  0  0  0  0
   -2.9416   22.1719  -28.4932 H   0  0  0  0  0  0  0  0  0  0  0  0
   -3.0602   24.5239  -28.8149 H   0  0  0  0  0  0  0  0  0  0  0  0
   -4.3350   23.8300  -29.9119 H   0  0  0  0  0  0  0  0  0  0  0  0
   -5.5310   24.2720  -27.5030 H   0  0  0  0  0  0  0  0  0  0  0  0
   -4.5930   25.6650  -27.7710 H   0  0  0  0  0  0  0  0  0  0  0  0
   -6.7044   24.4729  -29.4857 H   0  0  0  0  0  0  0  0  0  0  0  0
   -6.6463   26.1182  -28.7187 H   0  0  0  0  0  0  0  0  0  0  0  0
   -6.1520   26.5536  -30.9718 H   0  0  0  0  0  0  0  0  0  0  0  0
   -4.5291   26.4739  -30.1735 H   0  0  0  0  0  0  0  0  0  0  0  0
   -7.7114   24.5708  -31.4772 H   0  0  0  0  0  0  0  0  0  0  0  0
   -8.9129   22.4668  -32.0221 H   0  0  0  0  0  0  0  0  0  0  0  0
   -7.6508   20.3948  -32.5509 H   0  0  0  0  0  0  0  0  0  0  0  0
   -6.8981   18.7806  -31.2968 H   0  0  0  0  0  0  0  0  0  0  0  0
   -7.9982   16.6589  -32.0159 H   0  0  0  0  0  0  0  0  0  0  0  0
   -7.3367   15.5714  -34.1637 H   0  0  0  0  0  0  0  0  0  0  0  0
   -5.5762   16.6073  -35.5984 H   0  0  0  0  0  0  0  0  0  0  0  0
   -4.4677   18.7279  -34.8865 H   0  0  0  0  0  0  0  0  0  0  0  0
   -2.9741   19.2709  -32.7653 H   0  0  0  0  0  0  0  0  0  0  0  0
   -1.7851   21.3690  -32.1641 H   0  0  0  0  0  0  0  0  0  0  0  0
   -3.0644   23.4449  -31.6845 H   0  0  0  0  0  0  0  0  0  0  0  0
  1  2  1  0
  2  3  1  0
  3  4  1  0
  4  5  1  0
  5  6  1  0
  6  7  1  0
  7  8  2  0
  8  9  1  0
  9 10  2  0
 10 11  1  0
 11 12  2  0
 12 13  1  0
 13 14  2  0
 14 15  1  0
 15 16  2  0
 16 17  1  0
 17 18  2  0
 12 19  1  0
 19 20  2  0
 20 21  1  0
 21 22  2  0
 22  7  1  0
 22 11  1  0
 18 13  1  0
  1 23  1  0
  1 24  1  0
  1 25  1  0
  2 26  1  0
  2 27  1  0
  3 28  1  0
  3 29  1  0
  4 30  1  0
  4 31  1  0
  5 32  1  0
  5 33  1  0
  8 34  1  0
  9 35  1  0
 10 36  1  0
 14 37  1  0
 15 38  1  0
 16 39  1  0
 17 40  1  0
 18 41  1  0
 19 42  1  0
 20 43  1  0
 21 44  1  0
M  CHG  1   3   1
M  END
>  <UniqueID>  (31) 
31

>  <SMILES>  (31) 
CC[NH2+]CCOc1cccc2c(-c3ccccc3)cccc12

>  <Energy>  (31) 
57.40435930014086

>  <Genealogy>  (31) 
CC[NH2+]CCOc1cccc2c(-c3ccccc3)cccc12 (protonated)
CC[NH2+]CCOc1cccc2c(-c3ccccc3)cccc12 (3D coordinates assigned)
CC[NH2+]CCOc1cccc2c(-c3ccccc3)cccc12 (optimized conformer: 57.40435930014086 kcal/mol)

>  <smiles>  (31) 
CCNCCOc1cccc2c(-c3ccccc3)cccc12

>  <score_type>  (31) 
oracle

>  <origin>  (31) 
adg

>  <m_score__min__energy>  (31) 
-7.7000000000000002

>  <m_primary>  (31) 
energy

$$$$
31:0
     RDKit          3D

 45 48  0  0  0  0  0  0  0  0999 V2000
    0.5910   18.2710  -29.6140 C   0  0  0  0  0  0  0  0  0  0  0  0
   -0.4060   19.2380  -29.9260 O   0  0  0  0  0  0  0  0  0  0  0  0
   -1.2410   19.8610  -28.9810 C   0  0  0  0  0  0  0  0  0  0  0  0
   -1.4610   19.2980  -27.7130 C   0  0  0  0  0  0  0  0  0  0  0  0
   -2.3040   19.9240  -26.8040 C   0  0  0  0  0  0  0  0  0  0  0  0
   -2.9200   21.1290  -27.1290 C   0  0  0  0  0  0  0  0  0  0  0  0
   -2.6800   21.7580  -28.3700 C   0  0  0  0  0  0  0  0  0  0  0  0
   -1.8700   21.0770  -29.3240 C   0  0  0  0  0  0  0  0  0  0  0  0
   -1.6220   21.6380  -30.7110 C   0  0  0  0  0  0  0  0  0  0  0  0
   -2.4490   22.9030  -31.0660 C   0  0  1  0  0  0  0  0  0  0  0  0
   -3.8020   22.6030  -31.6070 N   0  0  0  0  0  0  0  0  0  0  0  0
   -3.7800   21.9270  -32.9150 C   0  0  0  0  0  0  0  0  0  0  0  0
   -4.6820   21.9000  -30.6510 C   0  0  0  0  0  0  0  0  0  0  0  0
   -4.7980   22.6840  -29.3320 C   0  0  0  0  0  0  0  0  0  0  0  0
   -3.4080   23.0670  -28.7540 C   0  0  1  0  0  0  0  0  0  0  0  0
   -3.6130   24.0250  -27.5390 C   0  0  0  0  0  0  0  0  0  0  0  0
   -2.2920   24.5490  -27.0550 C   0  0  0  0  0  0  0  0  0  0  0  0
   -1.9910   24.4830  -25.8730 O   0  0  0  0  0  0  0  0  0  0  0  0
   -1.3700   25.2030  -28.0440 C   0  0  0  0  0  0  0  0  0  0  0  0
   -1.2150   24.3150  -29.2870 C   0  0  0  0  0  0  0  0  0  0  0  0
   -2.5980   23.8460  -29.8470 C   0  0  1  0  0  0  0  0  0  0  0  0
   -3.3330   24.9860  -30.2440 O   0  0  0  0  0  0  0  0  0  0  0  0
    0.6846   18.1802  -28.5218 H   0  0  0  0  0  0  0  0  0  0  0  0
    0.3041   17.2981  -30.0396 H   0  0  0  0  0  0  0  0  0  0  0  0
    1.5547   18.5875  -30.0396 H   0  0  0  0  0  0  0  0  0  0  0  0
   -0.9630   18.3564  -27.4386 H   0  0  0  0  0  0  0  0  0  0  0  0
   -2.4859   19.4647  -25.8212 H   0  0  0  0  0  0  0  0  0  0  0  0
   -3.6047   21.5987  -26.4075 H   0  0  0  0  0  0  0  0  0  0  0  0
   -0.5553   21.8949  -30.7892 H   0  0  0  0  0  0  0  0  0  0  0  0
   -1.9368   20.8570  -31.4187 H   0  0  0  0  0  0  0  0  0  0  0  0
   -1.8728   23.3994  -31.8607 H   0  0  0  0  0  0  0  0  0  0  0  0
   -3.7446   20.8379  -32.7643 H   0  0  0  0  0  0  0  0  0  0  0  0
   -4.6872   22.1898  -33.4789 H   0  0  0  0  0  0  0  0  0  0  0  0
   -2.8918   22.2483  -33.4789 H   0  0  0  0  0  0  0  0  0  0  0  0
   -5.6826   21.7922  -31.0950 H   0  0  0  0  0  0  0  0  0  0  0  0
   -4.2485   20.9122  -30.4355 H   0  0  0  0  0  0  0  0  0  0  0  0
   -5.3712   23.6046  -29.5161 H   0  0  0  0  0  0  0  0  0  0  0  0
   -5.3031   22.0385  -28.5983 H   0  0  0  0  0  0  0  0  0  0  0  0
   -4.2469   24.8697  -27.8467 H   0  0  0  0  0  0  0  0  0  0  0  0
   -4.0954   23.4670  -26.7229 H   0  0  0  0  0  0  0  0  0  0  0  0
   -1.7870   26.1764  -28.3418 H   0  0  0  0  0  0  0  0  0  0  0  0
   -0.3839   25.3455  -27.5777 H   0  0  0  0  0  0  0  0  0  0  0  0
   -0.6904   24.8852  -30.0678 H   0  0  0  0  0  0  0  0  0  0  0  0
   -0.6444   23.4204  -28.9970 H   0  0  0  0  0  0  0  0  0  0  0  0
   -3.5110   24.9150  -31.2190 H   0  0  0  0  0  0  0  0  0  0  0  0
  1  2  1  0
  2  3  1  0
  3  4  2  0
  4  5  1  0
  5  6  2  0
  6  7  1  0
  7  8  2  0
  8  9  1  0
  9 10  1  0
 10 11  1  0
 11 12  1  0
 11 13  1  0
 13 14  1  0
 15 14  1  6
 15 16  1  0
 16 17  1  0
 17 18  2  0
 17 19  1  0
 19 20  1  0
 20 21  1  0
 21 22  1  6
  8  3  1  0
 21 10  1  0
 15  7  1  0
 21 15  1  0
  1 23  1  0
  1 24  1  0
  1 25  1  0
  4 26  1  0
  5 27  1  0
  6 28  1  0
  9 29  1  0
  9 30  1  0
 10 31  1  6
 12 32  1  0
 12 33  1  0
 12 34  1  0
 13 35  1  0
 13 36  1  0
 14 37  1  0
 14 38  1  0
 16 39  1  0
 16 40  1  0
 19 41  1  0
 19 42  1  0
 20 43  1  0
 20 44  1  0
 22 45  1  0
M  END
>  <UniqueID>  (32) 
32

>  <SMILES>  (32) 
COc1cccc2c1C[C@H]1N(C)CC[C@@]23CC(=O)CCC13O

>  <Energy>  (32) 
64.92334918872155

>  <Genealogy>  (32) 
COc1cccc2c1C[C@H]1N(C)CC[C@@]23CC(=O)CCC13O (chirality)
COc1cccc2c1C[C@H]1N(C)CC[C@@]23CC(=O)CCC13O (3D coordinates assigned)
COc1cccc2c1C[C@H]1N(C)CC[C@@]23CC(=O)CCC13O (nonaromatic ring conformer: 64.92334918872155 kcal/mol)

>  <smiles>  (32) 
COc1cccc2c1CC1N(C)CCC23CC(=O)CCC13O

>  <score_type>  (32) 
oracle

>  <origin>  (32) 
adg

>  <m_score__min__energy>  (32) 
-6.6399999999999997

>  <m_primary>  (32) 
energy

$$$$
32:0
     RDKit          3D

 40 41  0  0  0  0  0  0  0  0999 V2000
   -3.4930   24.4880  -29.5740 C   0  0  0  0  0  0  0  0  0  0  0  0
   -4.2020   24.2770  -30.8450 N   0  0  0  0  0  0  0  0  0  0  0  0
   -5.6130   24.7120  -30.7280 C   0  0  0  0  0  0  0  0  0  0  0  0
   -6.4920   24.0400  -31.7910 C   0  0  0  0  0  0  0  0  0  0  0  0
   -6.5130   22.5610  -31.6480 N   0  0  0  0  0  0  0  0  0  0  0  0
   -7.7340   22.1060  -30.9470 C   0  0  0  0  0  0  0  0  0  0  0  0
   -8.9730   22.2040  -31.8520 C   0  0  0  0  0  0  0  0  0  0  0  0
   -9.6210   20.8290  -32.0530 C   0  0  0  0  0  0  0  0  0  0  0  0
   -8.9020   20.0650  -33.0730 N   0  0  0  0  0  0  0  0  0  0  0  0
   -7.6210   19.4310  -32.8730 C   0  0  0  0  0  0  0  0  0  0  0  0
   -6.5040   19.7450  -33.6740 C   0  0  0  0  0  0  0  0  0  0  0  0
   -5.2770   19.1100  -33.4590 C   0  0  0  0  0  0  0  0  0  0  0  0
   -5.1490   18.1550  -32.4490 C   0  0  0  0  0  0  0  0  0  0  0  0
   -6.2480   17.8300  -31.6520 C   0  0  0  0  0  0  0  0  0  0  0  0
   -6.1190   16.9020  -30.6720 F   0  0  0  0  0  0  0  0  0  0  0  0
   -7.4790   18.4620  -31.8610 C   0  0  0  0  0  0  0  0  0  0  0  0
   -8.5330   18.1340  -31.0710 F   0  0  0  0  0  0  0  0  0  0  0  0
   -5.2840   22.0200  -31.0120 C   0  0  0  0  0  0  0  0  0  0  0  0
   -4.0500   22.8810  -31.3250 C   0  0  0  0  0  0  0  0  0  0  0  0
   -4.1753   24.2849  -28.7354 H   0  0  0  0  0  0  0  0  0  0  0  0
   -2.6305   23.8076  -29.5179 H   0  0  0  0  0  0  0  0  0  0  0  0
   -3.1429   25.5293  -29.5179 H   0  0  0  0  0  0  0  0  0  0  0  0
   -5.9893   24.4439  -29.7297 H   0  0  0  0  0  0  0  0  0  0  0  0
   -5.6550   25.8007  -30.8795 H   0  0  0  0  0  0  0  0  0  0  0  0
   -7.5196   24.4201  -31.6931 H   0  0  0  0  0  0  0  0  0  0  0  0
   -6.0698   24.2781  -32.7785 H   0  0  0  0  0  0  0  0  0  0  0  0
   -7.5993   21.0590  -30.6376 H   0  0  0  0  0  0  0  0  0  0  0  0
   -7.8926   22.7553  -30.0734 H   0  0  0  0  0  0  0  0  0  0  0  0
   -9.7046   22.8812  -31.3871 H   0  0  0  0  0  0  0  0  0  0  0  0
   -8.6587   22.5885  -32.8335 H   0  0  0  0  0  0  0  0  0  0  0  0
   -9.5967   20.2755  -31.1027 H   0  0  0  0  0  0  0  0  0  0  0  0
  -10.6603   20.9717  -32.3838 H   0  0  0  0  0  0  0  0  0  0  0  0
   -9.3600   19.9870  -34.0090 H   0  0  0  0  0  0  0  0  0  0  0  0
   -6.5985   20.4946  -34.4735 H   0  0  0  0  0  0  0  0  0  0  0  0
   -4.4104   19.3636  -34.0873 H   0  0  0  0  0  0  0  0  0  0  0  0
   -4.1819   17.6584  -32.2811 H   0  0  0  0  0  0  0  0  0  0  0  0
   -5.4306   21.9915  -29.9222 H   0  0  0  0  0  0  0  0  0  0  0  0
   -5.1072   21.0118  -31.4149 H   0  0  0  0  0  0  0  0  0  0  0  0
   -3.1723   22.4324  -30.8367 H   0  0  0  0  0  0  0  0  0  0  0  0
   -3.9290   22.9118  -32.4179 H   0  0  0  0  0  0  0  0  0  0  0  0
  1  2  1  0
  2  3  1  0
  3  4  1  0
  4  5  1  0
  5  6  1  0
  6  7  1  0
  7  8  1  0
  8  9  1  0
  9 10  1  0
 10 11  2  0
 11 12  1  0
 12 13  2  0
 13 14  1  0
 14 15  1  0
 14 16  2  0
 16 17  1  0
  5 18  1  0
 18 19  1  0
 19  2  1  0
 16 10  1  0
  1 20  1  0
  1 21  1  0
  1 22  1  0
  3 23  1  0
  3 24  1  0
  4 25  1  0
  4 26  1  0
  6 27  1  0
  6 28  1  0
  7 29  1  0
  7 30  1  0
  8 31  1  0
  8 32  1  0
  9 33  1  0
 11 34  1  0
 12 35  1  0
 13 36  1  0
 18 37  1  0
 18 38  1  0
 19 39  1  0
 19 40  1  0
M  END
>  <UniqueID>  (33) 
33

>  <SMILES>  (33) 
CN1CCN(CCCNc2cccc(F)c2F)CC1

>  <Energy>  (33) 
48.426484220826445

>  <Genealogy>  (33) 
CN1CCN(CCCNc2cccc(F)c2F)CC1 (3D coordinates assigned)
CN1CCN(CCCNc2cccc(F)c2F)CC1 (nonaromatic ring conformer: 48.426484220826445 kcal/mol)

>  <smiles>  (33) 
CN1CCN(CCCNc2cccc(F)c2F)CC1

>  <score_type>  (33) 
oracle

>  <origin>  (33) 
adg

>  <m_score__min__energy>  (33) 
-6.9500000000000002

>  <m_primary>  (33) 
energy

$$$$
33:0
     RDKit          3D

 56 58  0  0  0  0  0  0  0  0999 V2000
   -5.5830   25.1300  -30.8220 C   0  0  0  0  0  0  0  0  0  0  0  0
   -4.8710   24.1800  -29.8990 C   0  0  0  0  0  0  0  0  0  0  0  0
   -4.6730   24.5480  -28.5600 C   0  0  0  0  0  0  0  0  0  0  0  0
   -3.9800   23.7060  -27.6900 C   0  0  0  0  0  0  0  0  0  0  0  0
   -3.4840   22.4840  -28.1450 C   0  0  0  0  0  0  0  0  0  0  0  0
   -3.6690   22.0930  -29.4810 C   0  0  0  0  0  0  0  0  0  0  0  0
   -3.1320   20.7620  -29.9300 C   0  0  0  0  0  0  0  0  0  0  0  0
   -4.3280   22.9670  -30.3760 C   0  0  0  0  0  0  0  0  0  0  0  0
   -4.4590   22.6420  -31.7330 O   0  0  0  0  0  0  0  0  0  0  0  0
   -3.3540   22.2260  -32.5360 C   0  0  0  0  0  0  0  0  0  0  0  0
   -3.6410   20.9020  -33.1680 C   0  0  0  0  0  0  0  0  0  0  0  0
   -4.8830   20.3880  -33.2970 N   0  0  0  0  0  0  0  0  0  0  0  0
   -4.8750   19.1190  -33.7930 C   0  0  0  0  0  0  0  0  0  0  0  0
   -6.1450   18.3280  -33.9970 C   0  0  0  0  0  0  0  0  0  0  0  0
   -6.9400   18.1360  -32.7600 N   0  0  0  0  0  0  0  0  0  0  0  0
   -6.1210   18.2930  -31.5460 C   0  0  0  0  0  0  0  0  0  0  0  0
   -8.1680   18.9630  -32.6970 C   0  0  0  0  0  0  0  0  0  0  0  0
   -7.8870   20.4020  -33.1560 C   0  0  0  0  0  0  0  0  0  0  0  0
   -7.3160   21.2080  -32.0520 N   0  0  0  0  0  0  0  0  0  0  0  0
   -7.9610   20.9210  -30.7480 C   0  0  0  0  0  0  0  0  0  0  0  0
   -9.1520   21.8580  -30.4610 C   0  0  0  0  0  0  0  0  0  0  0  0
   -9.7060   22.3460  -31.6660 O   0  0  0  0  0  0  0  0  0  0  0  0
   -8.7860   23.2160  -32.3060 C   0  0  0  0  0  0  0  0  0  0  0  0
   -7.3460   22.6540  -32.3450 C   0  0  0  0  0  0  0  0  0  0  0  0
   -3.6050   18.6050  -34.0480 C   0  0  0  0  0  0  0  0  0  0  0  0
   -2.4760   19.7860  -33.6370 S   0  0  0  0  0  0  0  0  0  0  0  0
   -6.1384   25.8710  -30.2283 H   0  0  0  0  0  0  0  0  0  0  0  0
   -4.8470   25.6456  -31.4564 H   0  0  0  0  0  0  0  0  0  0  0  0
   -6.2844   24.5683  -31.4564 H   0  0  0  0  0  0  0  0  0  0  0  0
   -5.0670   25.5073  -28.1933 H   0  0  0  0  0  0  0  0  0  0  0  0
   -3.8243   24.0062  -26.6433 H   0  0  0  0  0  0  0  0  0  0  0  0
   -2.9440   21.8219  -27.4521 H   0  0  0  0  0  0  0  0  0  0  0  0
   -2.8852   20.1503  -29.0497 H   0  0  0  0  0  0  0  0  0  0  0  0
   -3.8919   20.2450  -30.5344 H   0  0  0  0  0  0  0  0  0  0  0  0
   -2.2261   20.9171  -30.5344 H   0  0  0  0  0  0  0  0  0  0  0  0
   -3.1762   22.9731  -33.3236 H   0  0  0  0  0  0  0  0  0  0  0  0
   -2.4632   22.1320  -31.8976 H   0  0  0  0  0  0  0  0  0  0  0  0
   -5.7510   20.8980  -33.0180 H   0  0  0  0  0  0  0  0  0  0  0  0
   -6.7693   18.8589  -34.7307 H   0  0  0  0  0  0  0  0  0  0  0  0
   -5.8453   17.3274  -34.3418 H   0  0  0  0  0  0  0  0  0  0  0  0
   -6.7567   18.1711  -30.6566 H   0  0  0  0  0  0  0  0  0  0  0  0
   -5.3282   17.5305  -31.5374 H   0  0  0  0  0  0  0  0  0  0  0  0
   -5.6664   19.2946  -31.5374 H   0  0  0  0  0  0  0  0  0  0  0  0
   -8.9339   18.5200  -33.3506 H   0  0  0  0  0  0  0  0  0  0  0  0
   -8.5193   18.9899  -31.6549 H   0  0  0  0  0  0  0  0  0  0  0  0
   -7.1729   20.3801  -33.9924 H   0  0  0  0  0  0  0  0  0  0  0  0
   -8.8353   20.8612  -33.4718 H   0  0  0  0  0  0  0  0  0  0  0  0
   -8.3226   19.8821  -30.7540 H   0  0  0  0  0  0  0  0  0  0  0  0
   -7.2104   21.0826  -29.9603 H   0  0  0  0  0  0  0  0  0  0  0  0
   -9.9235   21.3021  -29.9080 H   0  0  0  0  0  0  0  0  0  0  0  0
   -8.7950   22.7110  -29.8652 H   0  0  0  0  0  0  0  0  0  0  0  0
   -9.1241   23.3844  -33.3391 H   0  0  0  0  0  0  0  0  0  0  0  0
   -8.7582   24.1492  -31.7243 H   0  0  0  0  0  0  0  0  0  0  0  0
   -6.9242   22.8235  -33.3467 H   0  0  0  0  0  0  0  0  0  0  0  0
   -6.7549   23.1720  -31.5754 H   0  0  0  0  0  0  0  0  0  0  0  0
   -3.3796   17.6050  -34.4471 H   0  0  0  0  0  0  0  0  0  0  0  0
  1  2  1  0
  2  3  2  0
  3  4  1  0
  4  5  2  0
  5  6  1  0
  6  7  1  0
  6  8  2  0
  8  9  1  0
  9 10  1  0
 10 11  1  0
 11 12  2  0
 12 13  1  0
 13 14  1  0
 14 15  1  0
 15 16  1  0
 15 17  1  0
 17 18  1  0
 18 19  1  0
 19 20  1  0
 20 21  1  0
 21 22  1  0
 22 23  1  0
 23 24  1  0
 13 25  2  0
 25 26  1  0
  8  2  1  0
 26 11  1  0
 24 19  1  0
  1 27  1  0
  1 28  1  0
  1 29  1  0
  3 30  1  0
  4 31  1  0
  5 32  1  0
  7 33  1  0
  7 34  1  0
  7 35  1  0
 10 36  1  0
 10 37  1  0
 12 38  1  0
 14 39  1  0
 14 40  1  0
 16 41  1  0
 16 42  1  0
 16 43  1  0
 17 44  1  0
 17 45  1  0
 18 46  1  0
 18 47  1  0
 20 48  1  0
 20 49  1  0
 21 50  1  0
 21 51  1  0
 23 52  1  0
 23 53  1  0
 24 54  1  0
 24 55  1  0
 25 56  1  0
M  CHG  1  12   1
M  END
>  <UniqueID>  (34) 
34

>  <SMILES>  (34) 
Cc1cccc(C)c1OCc1[nH+]c(CN(C)CCN2CCOCC2)cs1

>  <Energy>  (34) 
102.45085939260079

>  <Genealogy>  (34) 
Cc1cccc(C)c1OCc1[nH+]c(CN(C)CCN2CCOCC2)cs1 (protonated)
Cc1cccc(C)c1OCc1[nH+]c(CN(C)CCN2CCOCC2)cs1 (3D coordinates assigned)
Cc1cccc(C)c1OCc1[nH+]c(CN(C)CCN2CCOCC2)cs1 (nonaromatic ring conformer: 102.45085939260079 kcal/mol)

>  <smiles>  (34) 
Cc1cccc(C)c1OCc1nc(CN(C)CCN2CCOCC2)cs1

>  <score_type>  (34) 
oracle

>  <origin>  (34) 
adg

>  <m_score__min__energy>  (34) 
-7.4699999999999998

>  <m_primary>  (34) 
energy

$$$$
34:0
     RDKit          3D

 45 47  0  0  0  0  0  0  0  0999 V2000
   -5.3770   18.6180  -32.0400 C   0  0  0  0  0  0  0  0  0  0  0  0
   -5.2730   19.6460  -33.0870 N   0  0  0  0  0  0  0  0  0  0  0  0
   -6.1240   19.2710  -34.2300 C   0  0  0  0  0  0  0  0  0  0  0  0
   -3.8620   19.8090  -33.5040 C   0  0  0  0  0  0  0  0  0  0  0  0
   -3.3430   21.2150  -33.1740 C   0  0  0  0  0  0  0  0  0  0  0  0
   -4.4480   22.1190  -32.8680 N   0  0  0  0  0  0  0  0  0  0  0  0
   -4.6410   22.6520  -31.5530 C   0  0  0  0  0  0  0  0  0  0  0  0
   -3.6850   23.1640  -30.8150 O   0  0  0  0  0  0  0  0  0  0  0  0
   -4.2420   23.5890  -29.7000 C   0  0  0  0  0  0  0  0  0  0  0  0
   -3.4770   24.2270  -28.6030 C   0  0  0  0  0  0  0  0  0  0  0  0
   -4.0900   24.4160  -27.3510 C   0  0  0  0  0  0  0  0  0  0  0  0
   -3.3890   25.0160  -26.3010 C   0  0  0  0  0  0  0  0  0  0  0  0
   -2.0690   25.4320  -26.4880 C   0  0  0  0  0  0  0  0  0  0  0  0
   -1.4480   25.2470  -27.7250 C   0  0  0  0  0  0  0  0  0  0  0  0
   -2.1450   24.6480  -28.7790 C   0  0  0  0  0  0  0  0  0  0  0  0
   -5.5770   23.3630  -29.6910 N   0  0  0  0  0  0  0  0  0  0  0  0
   -5.8350   22.7550  -30.8640 C   0  0  0  0  0  0  0  0  0  0  0  0
   -7.1650   22.2490  -31.2630 C   0  0  0  0  0  0  0  0  0  0  0  0
   -8.1730   23.1520  -31.6430 C   0  0  0  0  0  0  0  0  0  0  0  0
   -9.4400   22.6850  -32.0050 C   0  0  0  0  0  0  0  0  0  0  0  0
   -9.7160   21.3150  -31.9790 C   0  0  0  0  0  0  0  0  0  0  0  0
   -8.7260   20.4110  -31.5840 C   0  0  0  0  0  0  0  0  0  0  0  0
   -7.4570   20.8740  -31.2220 C   0  0  0  0  0  0  0  0  0  0  0  0
   -5.3286   19.0962  -31.0506 H   0  0  0  0  0  0  0  0  0  0  0  0
   -6.3337   18.0849  -32.1433 H   0  0  0  0  0  0  0  0  0  0  0  0
   -4.5465   17.9041  -32.1433 H   0  0  0  0  0  0  0  0  0  0  0  0
   -7.0719   18.8533  -33.8599 H   0  0  0  0  0  0  0  0  0  0  0  0
   -6.3299   20.1618  -34.8417 H   0  0  0  0  0  0  0  0  0  0  0  0
   -5.6055   18.5180  -34.8417 H   0  0  0  0  0  0  0  0  0  0  0  0
   -3.2445   19.0662  -32.9777 H   0  0  0  0  0  0  0  0  0  0  0  0
   -3.8021   19.6630  -34.5926 H   0  0  0  0  0  0  0  0  0  0  0  0
   -2.6735   21.1567  -32.3032 H   0  0  0  0  0  0  0  0  0  0  0  0
   -2.8018   21.6045  -34.0489 H   0  0  0  0  0  0  0  0  0  0  0  0
   -5.0830   22.4120  -33.6430 H   0  0  0  0  0  0  0  0  0  0  0  0
   -5.1290   24.0891  -27.1971 H   0  0  0  0  0  0  0  0  0  0  0  0
   -3.8777   25.1607  -25.3262 H   0  0  0  0  0  0  0  0  0  0  0  0
   -1.5188   25.9051  -25.6613 H   0  0  0  0  0  0  0  0  0  0  0  0
   -0.4077   25.5734  -27.8707 H   0  0  0  0  0  0  0  0  0  0  0  0
   -1.6500   24.5050  -29.7508 H   0  0  0  0  0  0  0  0  0  0  0  0
   -6.2630   23.5640  -28.9310 H   0  0  0  0  0  0  0  0  0  0  0  0
   -7.9638   24.2318  -31.6556 H   0  0  0  0  0  0  0  0  0  0  0  0
  -10.2209   23.3968  -32.3108 H   0  0  0  0  0  0  0  0  0  0  0  0
  -10.7117   20.9486  -32.2692 H   0  0  0  0  0  0  0  0  0  0  0  0
   -8.9454   19.3334  -31.5578 H   0  0  0  0  0  0  0  0  0  0  0  0
   -6.6837   20.1594  -30.9037 H   0  0  0  0  0  0  0  0  0  0  0  0
  1  2  1  0
  2  3  1  0
  2  4  1  0
  4  5  1  0
  5  6  1  0
  6  7  1  0
  7  8  1  0
  8  9  1  0
  9 10  1  0
 10 11  2  0
 11 12  1  0
 12 13  2  0
 13 14  1  0
 14 15  2  0
  9 16  2  0
 16 17  1  0
 17 18  1  0
 18 19  2  0
 19 20  1  0
 20 21  2  0
 21 22  1  0
 22 23  2  0
 17  7  2  0
 23 18  1  0
 15 10  1  0
  1 24  1  0
  1 25  1  0
  1 26  1  0
  3 27  1  0
  3 28  1  0
  3 29  1  0
  4 30  1  0
  4 31  1  0
  5 32  1  0
  5 33  1  0
  6 34  1  0
 11 35  1  0
 12 36  1  0
 13 37  1  0
 14 38  1  0
 15 39  1  0
 16 40  1  0
 19 41  1  0
 20 42  1  0
 21 43  1  0
 22 44  1  0
 23 45  1  0
M  CHG  1  16   1
M  END
>  <UniqueID>  (35) 
35

>  <SMILES>  (35) 
CN(C)CCNc1oc(-c2ccccc2)[nH+]c1-c1ccccc1

>  <Energy>  (35) 
79.56516813059703

>  <Genealogy>  (35) 
CN(C)CCNc1oc(-c2ccccc2)[nH+]c1-c1ccccc1 (protonated)
CN(C)CCNc1oc(-c2ccccc2)[nH+]c1-c1ccccc1 (3D coordinates assigned)
CN(C)CCNc1oc(-c2ccccc2)[nH+]c1-c1ccccc1 (optimized conformer: 79.56516813059703 kcal/mol)

>  <smiles>  (35) 
CN(C)CCNc1oc(-c2ccccc2)nc1-c1ccccc1

>  <score_type>  (35) 
oracle

>  <origin>  (35) 
adg

>  <m_score__min__energy>  (35) 
-7.2300000000000004

>  <m_primary>  (35) 
energy

$$$$
35:0
     RDKit          3D

 36 38  0  0  0  0  0  0  0  0999 V2000
   -9.0690   20.2020  -31.7800 C   0  0  0  0  0  0  0  0  0  0  0  0
   -7.8440   19.6110  -32.3470 N   0  0  0  0  0  0  0  0  0  0  0  0
   -7.8900   18.3000  -32.7230 C   0  0  0  0  0  0  0  0  0  0  0  0
   -6.7780   17.6600  -33.2690 C   0  0  0  0  0  0  0  0  0  0  0  0
   -6.8730   16.3080  -33.6430 C   0  0  0  0  0  0  0  0  0  0  0  0
   -5.7730   15.6520  -34.1910 C   0  0  0  0  0  0  0  0  0  0  0  0
   -4.5740   16.3350  -34.3700 C   0  0  0  0  0  0  0  0  0  0  0  0
   -4.4650   17.6790  -34.0030 C   0  0  0  0  0  0  0  0  0  0  0  0
   -5.5680   18.3720  -33.4420 C   0  0  0  0  0  0  0  0  0  0  0  0
   -5.5170   19.7390  -33.0480 C   0  0  0  0  0  0  0  0  0  0  0  0
   -4.3470   20.5240  -33.1810 C   0  0  0  0  0  0  0  0  0  0  0  0
   -4.3240   21.8600  -32.7900 C   0  0  0  0  0  0  0  0  0  0  0  0
   -5.4650   22.4670  -32.2550 C   0  0  0  0  0  0  0  0  0  0  0  0
   -5.4700   23.8480  -31.8370 N   0  0  0  0  0  0  0  0  0  0  0  0
   -6.1050   24.3520  -30.6180 C   0  0  0  0  0  0  0  0  0  0  0  0
   -5.3490   25.5640  -30.0770 C   0  0  0  0  0  0  0  0  0  0  0  0
   -4.0630   25.5950  -30.6300 O   0  0  0  0  0  0  0  0  0  0  0  0
   -6.6290   21.7060  -32.1080 C   0  0  0  0  0  0  0  0  0  0  0  0
   -6.6850   20.3450  -32.4960 C   0  0  0  0  0  0  0  0  0  0  0  0
   -9.0144   20.1757  -30.6817 H   0  0  0  0  0  0  0  0  0  0  0  0
   -9.1633   21.2447  -32.1175 H   0  0  0  0  0  0  0  0  0  0  0  0
   -9.9438   19.6268  -32.1175 H   0  0  0  0  0  0  0  0  0  0  0  0
   -8.8251   17.7356  -32.5925 H   0  0  0  0  0  0  0  0  0  0  0  0
   -7.8198   15.7660  -33.5023 H   0  0  0  0  0  0  0  0  0  0  0  0
   -5.8523   14.5942  -34.4822 H   0  0  0  0  0  0  0  0  0  0  0  0
   -3.7072   15.8141  -34.8028 H   0  0  0  0  0  0  0  0  0  0  0  0
   -3.5111   18.2064  -34.1512 H   0  0  0  0  0  0  0  0  0  0  0  0
   -3.4378   20.0696  -33.6016 H   0  0  0  0  0  0  0  0  0  0  0  0
   -3.3989   22.4443  -32.9030 H   0  0  0  0  0  0  0  0  0  0  0  0
   -4.9930   24.5530  -32.4450 H   0  0  0  0  0  0  0  0  0  0  0  0
   -7.1409   24.6443  -30.8448 H   0  0  0  0  0  0  0  0  0  0  0  0
   -6.0905   23.5576  -29.8572 H   0  0  0  0  0  0  0  0  0  0  0  0
   -5.8876   26.4838  -30.3488 H   0  0  0  0  0  0  0  0  0  0  0  0
   -5.2763   25.4927  -28.9817 H   0  0  0  0  0  0  0  0  0  0  0  0
   -4.1870   25.6700  -31.6110 H   0  0  0  0  0  0  0  0  0  0  0  0
   -7.5257   22.1773  -31.6793 H   0  0  0  0  0  0  0  0  0  0  0  0
  1  2  1  0
  2  3  2  0
  3  4  1  0
  4  5  2  0
  5  6  1  0
  6  7  2  0
  7  8  1  0
  8  9  2  0
  9 10  1  0
 10 11  2  0
 11 12  1  0
 12 13  2  0
 13 14  1  0
 14 15  1  0
 15 16  1  0
 16 17  1  0
 13 18  1  0
 18 19  2  0
 19  2  1  0
  9  4  1  0
 19 10  1  0
  1 20  1  0
  1 21  1  0
  1 22  1  0
  3 23  1  0
  5 24  1  0
  6 25  1  0
  7 26  1  0
  8 27  1  0
 11 28  1  0
 12 29  1  0
 14 30  1  0
 15 31  1  0
 15 32  1  0
 16 33  1  0
 16 34  1  0
 17 35  1  0
 18 36  1  0
M  CHG  1   2   1
M  END
>  <UniqueID>  (36) 
36

>  <SMILES>  (36) 
C[n+]1cc2ccccc2c2ccc(NCCO)cc21

>  <Energy>  (36) 
51.116255973778934

>  <Genealogy>  (36) 
C[n+]1cc2ccccc2c2ccc(NCCO)cc21 (3D coordinates assigned)
C[n+]1cc2ccccc2c2ccc(NCCO)cc21 (optimized conformer: 51.116255973778934 kcal/mol)

>  <smiles>  (36) 
C[n+]1cc2ccccc2c2ccc(NCCO)cc21

>  <score_type>  (36) 
oracle

>  <origin>  (36) 
adg

>  <m_score__min__energy>  (36) 
-7.9199999999999999

>  <m_primary>  (36) 
energy

$$$$
36:0
     RDKit          3D

 44 46  0  0  0  0  0  0  0  0999 V2000
   -6.3320   25.2980  -29.7690 C   0  0  0  0  0  0  0  0  0  0  0  0
   -4.9150   24.9260  -30.0830 C   0  0  0  0  0  0  0  0  0  0  0  0
   -4.2370   25.6760  -30.8340 O   0  0  0  0  0  0  0  0  0  0  0  0
   -4.2920   23.7610  -29.5230 N   0  0  0  0  0  0  0  0  0  0  0  0
   -2.8820   23.5390  -29.3630 C   0  0  0  0  0  0  0  0  0  0  0  0
   -2.1570   24.1710  -28.3370 C   0  0  0  0  0  0  0  0  0  0  0  0
   -0.7860   23.9330  -28.1890 C   0  0  0  0  0  0  0  0  0  0  0  0
    0.1890   24.7940  -26.7870 Br  0  0  0  0  0  0  0  0  0  0  0  0
   -0.1320   23.0560  -29.0570 C   0  0  0  0  0  0  0  0  0  0  0  0
   -0.8470   22.4080  -30.0660 C   0  0  0  0  0  0  0  0  0  0  0  0
   -2.2220   22.6340  -30.2180 C   0  0  0  0  0  0  0  0  0  0  0  0
   -2.9420   21.9530  -31.2550 N   0  0  0  0  0  0  0  0  0  0  0  0
   -3.9510   22.6690  -32.0360 C   0  0  0  0  0  0  0  0  0  0  0  0
   -5.1620   21.7640  -32.2720 C   0  0  0  0  0  0  0  0  0  0  0  0
   -4.7580   20.4540  -32.8020 N   0  0  0  0  0  0  0  0  0  0  0  0
   -5.7680   19.6790  -33.4680 C   0  0  0  0  0  0  0  0  0  0  0  0
   -5.5310   19.2070  -34.6120 O   0  0  0  0  0  0  0  0  0  0  0  0
   -7.0600   19.4150  -32.8180 C   0  0  0  0  0  0  0  0  0  0  0  0
   -8.1280   20.3000  -32.7320 C   0  0  0  0  0  0  0  0  0  0  0  0
   -9.2410   19.7650  -32.0660 C   0  0  0  0  0  0  0  0  0  0  0  0
   -9.0540   18.4610  -31.6250 C   0  0  0  0  0  0  0  0  0  0  0  0
   -7.5080   17.9730  -32.0720 S   0  0  0  0  0  0  0  0  0  0  0  0
   -3.3340   20.0560  -32.8210 C   0  0  2  0  0  0  0  0  0  0  0  0
   -3.1520   18.5330  -32.9500 C   0  0  0  0  0  0  0  0  0  0  0  0
   -2.6290   20.5490  -31.5410 C   0  0  0  0  0  0  0  0  0  0  0  0
   -6.4685   25.3338  -28.6781 H   0  0  0  0  0  0  0  0  0  0  0  0
   -6.5558   26.2853  -30.1992 H   0  0  0  0  0  0  0  0  0  0  0  0
   -7.0119   24.5479  -30.1992 H   0  0  0  0  0  0  0  0  0  0  0  0
   -2.6706   24.8564  -27.6468 H   0  0  0  0  0  0  0  0  0  0  0  0
    0.9474   22.8756  -28.9456 H   0  0  0  0  0  0  0  0  0  0  0  0
   -0.3282   21.7160  -30.7457 H   0  0  0  0  0  0  0  0  0  0  0  0
   -4.2682   23.5676  -31.4865 H   0  0  0  0  0  0  0  0  0  0  0  0
   -3.5207   22.9601  -33.0056 H   0  0  0  0  0  0  0  0  0  0  0  0
   -5.6899   21.6168  -31.3182 H   0  0  0  0  0  0  0  0  0  0  0  0
   -5.8175   22.2488  -33.0105 H   0  0  0  0  0  0  0  0  0  0  0  0
   -8.1032   21.3191  -33.1452 H   0  0  0  0  0  0  0  0  0  0  0  0
  -10.1742   20.3255  -31.9079 H   0  0  0  0  0  0  0  0  0  0  0  0
   -9.7897   17.8530  -31.0782 H   0  0  0  0  0  0  0  0  0  0  0  0
   -2.8812   20.5239  -33.7076 H   0  0  0  0  0  0  0  0  0  0  0  0
   -3.0983   18.0839  -31.9473 H   0  0  0  0  0  0  0  0  0  0  0  0
   -4.0056   18.1068  -33.4975 H   0  0  0  0  0  0  0  0  0  0  0  0
   -2.2220   18.3199  -33.4975 H   0  0  0  0  0  0  0  0  0  0  0  0
   -2.9575   19.9307  -30.6926 H   0  0  0  0  0  0  0  0  0  0  0  0
   -1.5430   20.4643  -31.6938 H   0  0  0  0  0  0  0  0  0  0  0  0
  1  2  1  0
  2  3  2  0
  2  4  1  0
  4  5  1  0
  5  6  2  0
  6  7  1  0
  7  8  1  0
  7  9  2  0
  9 10  1  0
 10 11  2  0
 11 12  1  0
 12 13  1  0
 13 14  1  0
 14 15  1  0
 15 16  1  0
 16 17  2  0
 16 18  1  0
 18 19  2  0
 19 20  1  0
 20 21  2  0
 21 22  1  0
 15 23  1  0
 23 24  1  0
 23 25  1  0
 11  5  1  0
 25 12  1  0
 22 18  1  0
  1 26  1  0
  1 27  1  0
  1 28  1  0
  6 29  1  0
  9 30  1  0
 10 31  1  0
 13 32  1  0
 13 33  1  0
 14 34  1  0
 14 35  1  0
 19 36  1  0
 20 37  1  0
 21 38  1  0
 23 39  1  6
 24 40  1  0
 24 41  1  0
 24 42  1  0
 25 43  1  0
 25 44  1  0
M  CHG  1   4  -1
M  END
>  <UniqueID>  (37) 
37

>  <SMILES>  (37) 
CC(=O)[N-]c1cc(Br)ccc1N1CCN(C(=O)c2cccs2)[C@H](C)C1

>  <Energy>  (37) 
83.90996643867943

>  <Genealogy>  (37) 
CC(=O)[N-]c1cc(Br)ccc1N1CCN(C(=O)c2cccs2)C(C)C1 (protonated)
CC(=O)[N-]c1cc(Br)ccc1N1CCN(C(=O)c2cccs2)[C@H](C)C1 (chirality)
CC(=O)[N-]c1cc(Br)ccc1N1CCN(C(=O)c2cccs2)[C@H](C)C1 (3D coordinates assigned)
CC(=O)[N-]c1cc(Br)ccc1N1CCN(C(=O)c2cccs2)[C@H](C)C1 (nonaromatic ring conformer: 83.90996643867943 kcal/mol)

>  <smiles>  (37) 
CC(=O)Nc1cc(Br)ccc1N1CCN(C(=O)c2cccs2)C(C)C1

>  <score_type>  (37) 
oracle

>  <origin>  (37) 
adg

>  <m_score__min__energy>  (37) 
-10.34

>  <m_primary>  (37) 
energy

$$$$
37:0
     RDKit          3D

 46 48  0  0  0  0  0  0  0  0999 V2000
    0.3480   23.7340  -27.8510 C   0  0  0  0  0  0  0  0  0  0  0  0
   -0.5460   24.1240  -29.0360 C   0  0  0  0  0  0  0  0  0  0  0  0
   -1.9910   24.1900  -28.7070 N   0  0  0  0  0  0  0  0  0  0  0  0
   -2.3080   24.9900  -27.5010 C   0  0  0  0  0  0  0  0  0  0  0  0
   -3.6320   24.5750  -26.8640 C   0  0  0  0  0  0  0  0  0  0  0  0
   -2.6190   22.8490  -28.6490 C   0  0  0  0  0  0  0  0  0  0  0  0
   -2.5330   22.1690  -30.0180 C   0  0  0  0  0  0  0  0  0  0  0  0
   -3.1590   23.0000  -31.0430 N   0  0  0  0  0  0  0  0  0  0  0  0
   -4.5410   23.3600  -30.9380 C   0  0  0  0  0  0  0  0  0  0  0  0
   -4.8910   24.6690  -30.5850 C   0  0  0  0  0  0  0  0  0  0  0  0
   -3.8950   25.6100  -30.3310 O   0  0  0  0  0  0  0  0  0  0  0  0
   -6.2390   25.0260  -30.4960 C   0  0  0  0  0  0  0  0  0  0  0  0
   -7.2390   24.0860  -30.7530 C   0  0  0  0  0  0  0  0  0  0  0  0
   -6.9200   22.7520  -31.1010 C   0  0  0  0  0  0  0  0  0  0  0  0
   -7.9740   21.8160  -31.3530 C   0  0  0  0  0  0  0  0  0  0  0  0
   -9.1640   22.2340  -31.2590 O   0  0  0  0  0  0  0  0  0  0  0  0
   -7.7820   20.4410  -31.7010 C   0  0  0  0  0  0  0  0  0  0  0  0
   -8.9030   19.6090  -31.9310 C   0  0  0  0  0  0  0  0  0  0  0  0
   -8.7440   18.2620  -32.2720 C   0  0  0  0  0  0  0  0  0  0  0  0
   -7.4680   17.7120  -32.3900 C   0  0  0  0  0  0  0  0  0  0  0  0
   -6.3450   18.5090  -32.1690 C   0  0  0  0  0  0  0  0  0  0  0  0
   -6.5010   19.8570  -31.8290 C   0  0  0  0  0  0  0  0  0  0  0  0
   -5.1490   20.8180  -31.5690 S   0  0  0  0  0  0  0  0  0  0  0  0
   -5.5480   22.4090  -31.1830 C   0  0  0  0  0  0  0  0  0  0  0  0
   -0.1724   23.9610  -26.9088 H   0  0  0  0  0  0  0  0  0  0  0  0
    0.5694   22.6575  -27.8974 H   0  0  0  0  0  0  0  0  0  0  0  0
    1.2877   24.3040  -27.8974 H   0  0  0  0  0  0  0  0  0  0  0  0
   -0.2283   25.1130  -29.3979 H   0  0  0  0  0  0  0  0  0  0  0  0
   -0.4286   23.3367  -29.7952 H   0  0  0  0  0  0  0  0  0  0  0  0
   -1.5026   24.8541  -26.7642 H   0  0  0  0  0  0  0  0  0  0  0  0
   -2.3968   26.0425  -27.8082 H   0  0  0  0  0  0  0  0  0  0  0  0
   -3.5371   24.6048  -25.7685 H   0  0  0  0  0  0  0  0  0  0  0  0
   -4.4251   25.2677  -27.1823 H   0  0  0  0  0  0  0  0  0  0  0  0
   -3.8878   23.5536  -27.1823 H   0  0  0  0  0  0  0  0  0  0  0  0
   -2.0946   22.2335  -27.9033 H   0  0  0  0  0  0  0  0  0  0  0  0
   -3.6765   22.9582  -28.3667 H   0  0  0  0  0  0  0  0  0  0  0  0
   -1.4759   22.0097  -30.2771 H   0  0  0  0  0  0  0  0  0  0  0  0
   -3.0614   21.2054  -29.9700 H   0  0  0  0  0  0  0  0  0  0  0  0
   -2.7260   23.0190  -31.9940 H   0  0  0  0  0  0  0  0  0  0  0  0
   -3.8530   26.4870  -30.8360 H   0  0  0  0  0  0  0  0  0  0  0  0
   -6.5144   26.0550  -30.2215 H   0  0  0  0  0  0  0  0  0  0  0  0
   -8.2944   24.3881  -30.6837 H   0  0  0  0  0  0  0  0  0  0  0  0
   -9.9159   20.0283  -31.8402 H   0  0  0  0  0  0  0  0  0  0  0  0
   -9.6295   17.6336  -32.4479 H   0  0  0  0  0  0  0  0  0  0  0  0
   -7.3474   16.6517  -32.6568 H   0  0  0  0  0  0  0  0  0  0  0  0
   -5.3373   18.0779  -32.2620 H   0  0  0  0  0  0  0  0  0  0  0  0
  1  2  1  0
  2  3  1  0
  3  4  1  0
  4  5  1  0
  3  6  1  0
  6  7  1  0
  7  8  1  0
  8  9  1  0
  9 10  2  0
 10 11  1  0
 10 12  1  0
 12 13  2  0
 13 14  1  0
 14 15  1  0
 15 16  2  0
 15 17  1  0
 17 18  2  0
 18 19  1  0
 19 20  2  0
 20 21  1  0
 21 22  2  0
 22 23  1  0
 23 24  1  0
 24  9  1  0
 24 14  2  0
 22 17  1  0
  1 25  1  0
  1 26  1  0
  1 27  1  0
  2 28  1  0
  2 29  1  0
  4 30  1  0
  4 31  1  0
  5 32  1  0
  5 33  1  0
  5 34  1  0
  6 35  1  0
  6 36  1  0
  7 37  1  0
  7 38  1  0
  8 39  1  0
 11 40  1  0
 12 41  1  0
 13 42  1  0
 18 43  1  0
 19 44  1  0
 20 45  1  0
 21 46  1  0
M  END
>  <UniqueID>  (38) 
38

>  <SMILES>  (38) 
CCN(CC)CCNc1c(O)ccc2c(=O)c3ccccc3sc12

>  <Energy>  (38) 
64.47511420967433

>  <Genealogy>  (38) 
CCN(CC)CCNc1c(O)ccc2c(=O)c3ccccc3sc12 (3D coordinates assigned)
CCN(CC)CCNc1c(O)ccc2c(=O)c3ccccc3sc12 (optimized conformer: 64.47511420967433 kcal/mol)

>  <smiles>  (38) 
CCN(CC)CCNc1c(O)ccc2c(=O)c3ccccc3sc12

>  <score_type>  (38) 
oracle

>  <origin>  (38) 
adg

>  <m_score__min__energy>  (38) 
-9.5500000000000007

>  <m_primary>  (38) 
energy

$$$$
38:0
     RDKit          3D

 29 30  0  0  0  0  0  0  0  0999 V2000
   -8.9740   22.3420  -31.9230 C   0  0  0  0  0  0  0  0  0  0  0  0
   -7.5220   22.6690  -31.7910 C   0  0  0  0  0  0  0  0  0  0  0  0
   -7.1110   23.8010  -31.0810 C   0  0  0  0  0  0  0  0  0  0  0  0
   -5.7420   24.0690  -30.9800 C   0  0  0  0  0  0  0  0  0  0  0  0
   -5.2570   25.2730  -30.2280 C   0  0  0  0  0  0  0  0  0  0  0  0
   -5.7300   25.2300  -28.9290 F   0  0  0  0  0  0  0  0  0  0  0  0
   -3.8740   25.3030  -30.1990 F   0  0  0  0  0  0  0  0  0  0  0  0
   -5.7170   26.4230  -30.8430 F   0  0  0  0  0  0  0  0  0  0  0  0
   -4.8510   23.2290  -31.5730 N   0  0  0  0  0  0  0  0  0  0  0  0
   -5.2610   22.1310  -32.2640 C   0  0  0  0  0  0  0  0  0  0  0  0
   -4.2840   21.2690  -32.8740 N   0  0  0  0  0  0  0  0  0  0  0  0
   -3.0410   21.6610  -33.1090 N   0  0  0  0  0  0  0  0  0  0  0  0
   -2.3880   20.6300  -33.6800 C   0  0  0  0  0  0  0  0  0  0  0  0
   -0.9760   20.7010  -34.1570 C   0  0  0  0  0  0  0  0  0  0  0  0
   -3.2400   19.5550  -33.8340 C   0  0  0  0  0  0  0  0  0  0  0  0
   -4.4370   19.9920  -33.3030 C   0  0  0  0  0  0  0  0  0  0  0  0
   -5.6920   19.1770  -33.2400 C   0  0  0  0  0  0  0  0  0  0  0  0
   -6.5910   21.8620  -32.3650 N   0  0  0  0  0  0  0  0  0  0  0  0
   -9.4197   22.2416  -30.9224 H   0  0  0  0  0  0  0  0  0  0  0  0
   -9.4829   23.1480  -32.4719 H   0  0  0  0  0  0  0  0  0  0  0  0
   -9.0883   21.3956  -32.4719 H   0  0  0  0  0  0  0  0  0  0  0  0
   -7.8494   24.4674  -30.6113 H   0  0  0  0  0  0  0  0  0  0  0  0
   -0.2979   20.7351  -33.2916 H   0  0  0  0  0  0  0  0  0  0  0  0
   -0.7495   19.8131  -34.7656 H   0  0  0  0  0  0  0  0  0  0  0  0
   -0.8397   21.6071  -34.7656 H   0  0  0  0  0  0  0  0  0  0  0  0
   -3.0162   18.5740  -34.2784 H   0  0  0  0  0  0  0  0  0  0  0  0
   -5.9627   19.0012  -32.1884 H   0  0  0  0  0  0  0  0  0  0  0  0
   -6.5067   19.7188  -33.7427 H   0  0  0  0  0  0  0  0  0  0  0  0
   -5.5284   18.2123  -33.7427 H   0  0  0  0  0  0  0  0  0  0  0  0
  1  2  1  0
  2  3  2  0
  3  4  1  0
  4  5  1  0
  5  6  1  0
  5  7  1  0
  5  8  1  0
  4  9  2  0
  9 10  1  0
 10 11  1  0
 11 12  1  0
 12 13  2  0
 13 14  1  0
 13 15  1  0
 15 16  2  0
 16 17  1  0
 10 18  2  0
 18  2  1  0
 16 11  1  0
  1 19  1  0
  1 20  1  0
  1 21  1  0
  3 22  1  0
 14 23  1  0
 14 24  1  0
 14 25  1  0
 15 26  1  0
 17 27  1  0
 17 28  1  0
 17 29  1  0
M  END
>  <UniqueID>  (39) 
39

>  <SMILES>  (39) 
Cc1cc(C(F)(F)F)nc(-n2nc(C)cc2C)n1

>  <Energy>  (39) 
56.848345776113796

>  <Genealogy>  (39) 
Cc1cc(C(F)(F)F)nc(-n2nc(C)cc2C)n1 (3D coordinates assigned)
Cc1cc(C(F)(F)F)nc(-n2nc(C)cc2C)n1 (optimized conformer: 56.848345776113796 kcal/mol)

>  <smiles>  (39) 
Cc1cc(C(F)(F)F)nc(-n2nc(C)cc2C)n1

>  <score_type>  (39) 
oracle

>  <origin>  (39) 
adg

>  <m_score__min__energy>  (39) 
-5.9199999999999999

>  <m_primary>  (39) 
energy

$$$$
39:0
     RDKit          3D

 57 61  0  0  0  0  0  0  0  0999 V2000
   -6.5090   25.2251  -31.3672 H   0  0  0  0  0  0  0  0  0  0  0  0
   -5.7140   24.5600  -30.9990 C   0  0  0  0  0  0  0  0  0  0  0  0
   -4.5500   25.0860  -30.5450 N   0  0  0  0  0  0  0  0  0  0  0  0
   -3.5250   24.3170  -30.0820 C   0  0  0  0  0  0  0  0  0  0  0  0
   -2.4320   24.8810  -29.6510 N   0  0  0  0  0  0  0  0  0  0  0  0
   -2.0140   24.9400  -28.2510 C   0  0  0  0  0  0  0  0  0  0  0  0
   -2.8241   25.3823  -27.6525 H   0  0  0  0  0  0  0  0  0  0  0  0
   -1.7941   23.9180  -27.9087 H   0  0  0  0  0  0  0  0  0  0  0  0
   -0.7490   25.7910  -28.0880 C   0  0  0  0  0  0  0  0  0  0  0  0
   -0.6655   26.4845  -28.9377 H   0  0  0  0  0  0  0  0  0  0  0  0
   -0.8154   26.3569  -27.1471 H   0  0  0  0  0  0  0  0  0  0  0  0
    0.4530   24.9190  -28.0460 N   0  0  0  0  0  0  0  0  0  0  0  0
    1.4530   25.3690  -27.0530 C   0  0  0  0  0  0  0  0  0  0  0  0
    2.4195   24.8972  -27.2837 H   0  0  0  0  0  0  0  0  0  0  0  0
    1.5205   26.4653  -27.1123 H   0  0  0  0  0  0  0  0  0  0  0  0
    1.0460   24.9930  -25.6070 C   0  0  0  0  0  0  0  0  0  0  0  0
    1.8021   24.3112  -25.1904 H   0  0  0  0  0  0  0  0  0  0  0  0
    0.9816   25.9201  -25.0185 H   0  0  0  0  0  0  0  0  0  0  0  0
   -0.2150   24.3580  -25.5640 O   0  0  0  0  0  0  0  0  0  0  0  0
   -0.1800   23.1820  -26.3450 C   0  0  0  0  0  0  0  0  0  0  0  0
    0.6067   22.5186  -25.9564 H   0  0  0  0  0  0  0  0  0  0  0  0
   -1.1664   22.6990  -26.2842 H   0  0  0  0  0  0  0  0  0  0  0  0
    0.1160   23.4950  -27.8350 C   0  0  0  0  0  0  0  0  0  0  0  0
    0.9635   22.8768  -28.1661 H   0  0  0  0  0  0  0  0  0  0  0  0
   -0.7910   23.2711  -28.4157 H   0  0  0  0  0  0  0  0  0  0  0  0
   -3.6630   22.9070  -30.0680 C   0  0  0  0  0  0  0  0  0  0  0  0
   -2.5970   22.0000  -29.5590 C   0  0  0  0  0  0  0  0  0  0  0  0
   -2.6480   21.3850  -28.3440 N   0  0  0  0  0  0  0  0  0  0  0  0
   -1.5140   20.6700  -28.3210 C   0  0  0  0  0  0  0  0  0  0  0  0
   -1.0550   19.8290  -27.3100 C   0  0  0  0  0  0  0  0  0  0  0  0
   -1.6267   19.6892  -26.3807 H   0  0  0  0  0  0  0  0  0  0  0  0
    0.1690   19.1640  -27.5220 C   0  0  0  0  0  0  0  0  0  0  0  0
    0.5667   18.4917  -26.7475 H   0  0  0  0  0  0  0  0  0  0  0  0
    0.8900   19.3550  -28.7240 C   0  0  0  0  0  0  0  0  0  0  0  0
    1.8446   18.8307  -28.8786 H   0  0  0  0  0  0  0  0  0  0  0  0
    0.3920   20.2130  -29.7240 C   0  0  0  0  0  0  0  0  0  0  0  0
    0.9408   20.3716  -30.6640 H   0  0  0  0  0  0  0  0  0  0  0  0
   -0.8220   20.8540  -29.4790 C   0  0  0  0  0  0  0  0  0  0  0  0
   -1.4860   21.6940  -30.2860 N   0  0  0  0  0  0  0  0  0  0  0  0
   -4.8700   22.3540  -30.5340 C   0  0  0  0  0  0  0  0  0  0  0  0
   -5.0020   21.2619  -30.5322 H   0  0  0  0  0  0  0  0  0  0  0  0
   -5.9080   23.1750  -31.0010 C   0  0  0  0  0  0  0  0  0  0  0  0
   -7.1900   22.5910  -31.4710 C   0  0  0  0  0  0  0  0  0  0  0  0
   -8.2610   23.4250  -31.8340 C   0  0  0  0  0  0  0  0  0  0  0  0
   -8.1457   24.5177  -31.7815 H   0  0  0  0  0  0  0  0  0  0  0  0
   -9.4710   22.8740  -32.2610 C   0  0  0  0  0  0  0  0  0  0  0  0
  -10.3030   23.5339  -32.5478 H   0  0  0  0  0  0  0  0  0  0  0  0
   -9.6280   21.4880  -32.3250 C   0  0  0  0  0  0  0  0  0  0  0  0
  -10.5846   21.0616  -32.6613 H   0  0  0  0  0  0  0  0  0  0  0  0
   -8.5760   20.6370  -31.9640 C   0  0  0  0  0  0  0  0  0  0  0  0
   -8.7870   19.2510  -32.0350 O   0  0  0  0  0  0  0  0  0  0  0  0
   -7.7510   18.2740  -31.9720 C   0  0  0  0  0  0  0  0  0  0  0  0
   -7.5179   18.0541  -30.9197 H   0  0  0  0  0  0  0  0  0  0  0  0
   -8.0840   17.3535  -32.4738 H   0  0  0  0  0  0  0  0  0  0  0  0
   -6.8516   18.6604  -32.4738 H   0  0  0  0  0  0  0  0  0  0  0  0
   -7.3530   21.1950  -31.5400 C   0  0  0  0  0  0  0  0  0  0  0  0
   -6.5193   20.5339  -31.2608 H   0  0  0  0  0  0  0  0  0  0  0  0
  1  2  1  0
  2  3  1  0
  3  4  1  0
  4  5  2  0
  5  6  1  0
  6  7  1  0
  6  8  1  0
  6  9  1  0
  9 10  1  0
  9 11  1  0
  9 12  1  0
 12 13  1  0
 13 14  1  0
 13 15  1  0
 13 16  1  0
 16 17  1  0
 16 18  1  0
 16 19  1  0
 19 20  1  0
 20 21  1  0
 20 22  1  0
 20 23  1  0
 23 24  1  0
 23 25  1  0
  4 26  1  0
 26 27  1  0
 27 28  2  0
 28 29  1  0
 29 30  2  0
 30 31  1  0
 30 32  1  0
 32 33  1  0
 32 34  2  0
 34 35  1  0
 34 36  1  0
 36 37  1  0
 36 38  2  0
 38 39  1  0
 26 40  2  0
 40 41  1  0
 40 42  1  0
 42 43  1  0
 43 44  2  0
 44 45  1  0
 44 46  1  0
 46 47  1  0
 46 48  2  0
 48 49  1  0
 48 50  1  0
 50 51  1  0
 51 52  1  0
 52 53  1  0
 52 54  1  0
 52 55  1  0
 50 56  2  0
 56 57  1  0
 42  2  2  0
 56 43  1  0
 23 12  1  0
 39 27  1  0
 38 29  1  0
M  CHG  2   3  -1  39  -1
M  END
>  <UniqueID>  (40) 
40

>  <SMILES>  (40) 
COc1cccc(-c2c[n-]/c(=N\CCN3CCOCC3)c(-c3nc4ccccc4[n-]3)c2)c1

>  <Energy>  (40) 
116.37331842920013

>  <Genealogy>  (40) 
COc1cccc(-c2c[n-]c(=NCCN3CCOCC3)c(-c3nc4ccccc4[n-]3)c2)c1 (protonated)
COc1cccc(-c2c[n-]/c(=N\CCN3CCOCC3)c(-c3nc4ccccc4[n-]3)c2)c1 (cis-trans isomerization)
COc1cccc(-c2c[n-]/c(=N\CCN3CCOCC3)c(-c3nc4ccccc4[n-]3)c2)c1 (3D coordinates assigned)
COc1cccc(-c2c[n-]/c(=N\CCN3CCOCC3)c(-c3nc4ccccc4[n-]3)c2)c1 (nonaromatic ring conformer: 116.37331842920013 kcal/mol)

>  <smiles>  (40) 
COc1cccc(-c2c[nH]c(=NCCN3CCOCC3)c(-c3nc4ccccc4[nH]3)c2)c1

>  <score_type>  (40) 
oracle

>  <origin>  (40) 
adg

>  <m_score__min__energy>  (40) 
-10.74

>  <m_primary>  (40) 
energy

$$$$
40:0
     RDKit          3D

 43 46  0  0  0  0  0  0  0  0999 V2000
    0.2270   22.8670  -24.0690 C   0  0  0  0  0  0  0  0  0  0  0  0
    0.4900   23.9990  -24.8920 O   0  0  0  0  0  0  0  0  0  0  0  0
   -0.2610   24.3420  -26.0250 C   0  0  0  0  0  0  0  0  0  0  0  0
   -0.0360   25.6080  -26.6140 C   0  0  0  0  0  0  0  0  0  0  0  0
   -0.7510   26.0120  -27.7550 C   0  0  0  0  0  0  0  0  0  0  0  0
   -1.6790   25.1230  -28.2880 C   0  0  0  0  0  0  0  0  0  0  0  0
   -2.4360   25.2970  -29.3450 O   0  0  0  0  0  0  0  0  0  0  0  0
   -3.1620   24.2040  -29.5070 C   0  0  0  0  0  0  0  0  0  0  0  0
   -4.1160   24.0480  -30.6170 C   0  0  0  0  0  0  0  0  0  0  0  0
   -4.6660   25.0750  -31.0950 O   0  0  0  0  0  0  0  0  0  0  0  0
   -4.3840   22.7610  -31.2050 N   0  0  0  0  0  0  0  0  0  0  0  0
   -3.2730   21.9850  -31.7640 C   0  0  0  0  0  0  0  0  0  0  0  0
   -3.6200   21.5310  -33.1800 C   0  0  0  0  0  0  0  0  0  0  0  0
   -4.8910   20.6760  -33.1720 C   0  0  0  0  0  0  0  0  0  0  0  0
   -6.0070   21.3080  -32.3790 C   0  0  0  0  0  0  0  0  0  0  0  0
   -7.3180   20.8390  -32.5550 C   0  0  0  0  0  0  0  0  0  0  0  0
   -8.3590   21.3440  -31.7740 C   0  0  0  0  0  0  0  0  0  0  0  0
   -8.0980   22.3050  -30.7960 C   0  0  0  0  0  0  0  0  0  0  0  0
   -6.7970   22.7720  -30.6000 C   0  0  0  0  0  0  0  0  0  0  0  0
   -5.7380   22.2870  -31.3940 C   0  0  0  0  0  0  0  0  0  0  0  0
   -2.8820   23.2860  -28.4880 C   0  0  0  0  0  0  0  0  0  0  0  0
   -3.4920   21.9430  -28.2360 C   0  0  0  0  0  0  0  0  0  0  0  0
   -1.9100   23.8970  -27.7240 C   0  0  0  0  0  0  0  0  0  0  0  0
   -1.2250   23.4680  -26.5880 C   0  0  0  0  0  0  0  0  0  0  0  0
    0.2949   23.1594  -23.0107 H   0  0  0  0  0  0  0  0  0  0  0  0
   -0.7834   22.4869  -24.2803 H   0  0  0  0  0  0  0  0  0  0  0  0
    0.9663   22.0804  -24.2803 H   0  0  0  0  0  0  0  0  0  0  0  0
    0.7092   26.2863  -26.1729 H   0  0  0  0  0  0  0  0  0  0  0  0
   -0.5823   26.9985  -28.2114 H   0  0  0  0  0  0  0  0  0  0  0  0
   -2.3686   22.6105  -31.7924 H   0  0  0  0  0  0  0  0  0  0  0  0
   -3.0933   21.1019  -31.1333 H   0  0  0  0  0  0  0  0  0  0  0  0
   -3.7822   22.4150  -33.8142 H   0  0  0  0  0  0  0  0  0  0  0  0
   -2.7883   20.9290  -33.5748 H   0  0  0  0  0  0  0  0  0  0  0  0
   -5.2297   20.5378  -34.2094 H   0  0  0  0  0  0  0  0  0  0  0  0
   -4.6448   19.7156  -32.6956 H   0  0  0  0  0  0  0  0  0  0  0  0
   -7.5264   20.0692  -33.3126 H   0  0  0  0  0  0  0  0  0  0  0  0
   -9.3867   20.9840  -31.9296 H   0  0  0  0  0  0  0  0  0  0  0  0
   -8.9198   22.6956  -30.1778 H   0  0  0  0  0  0  0  0  0  0  0  0
   -6.5971   23.5229  -29.8214 H   0  0  0  0  0  0  0  0  0  0  0  0
   -3.5692   21.7729  -27.1520 H   0  0  0  0  0  0  0  0  0  0  0  0
   -4.4953   21.9058  -28.6854 H   0  0  0  0  0  0  0  0  0  0  0  0
   -2.8598   21.1630  -28.6854 H   0  0  0  0  0  0  0  0  0  0  0  0
   -1.4261   22.4825  -26.1426 H   0  0  0  0  0  0  0  0  0  0  0  0
  1  2  1  0
  2  3  1  0
  3  4  2  0
  4  5  1  0
  5  6  2  0
  6  7  1  0
  7  8  1  0
  8  9  1  0
  9 10  2  0
  9 11  1  0
 11 12  1  0
 12 13  1  0
 13 14  1  0
 14 15  1  0
 15 16  2  0
 16 17  1  0
 17 18  2  0
 18 19  1  0
 19 20  2  0
  8 21  2  0
 21 22  1  0
 21 23  1  0
 23 24  2  0
 24  3  1  0
 23  6  1  0
 20 11  1  0
 20 15  1  0
  1 25  1  0
  1 26  1  0
  1 27  1  0
  4 28  1  0
  5 29  1  0
 12 30  1  0
 12 31  1  0
 13 32  1  0
 13 33  1  0
 14 34  1  0
 14 35  1  0
 16 36  1  0
 17 37  1  0
 18 38  1  0
 19 39  1  0
 22 40  1  0
 22 41  1  0
 22 42  1  0
 24 43  1  0
M  END
>  <UniqueID>  (41) 
41

>  <SMILES>  (41) 
COc1ccc2oc(C(=O)N3CCCc4ccccc43)c(C)c2c1

>  <Energy>  (41) 
86.98845563551019

>  <Genealogy>  (41) 
COc1ccc2oc(C(=O)N3CCCc4ccccc43)c(C)c2c1 (3D coordinates assigned)
COc1ccc2oc(C(=O)N3CCCc4ccccc43)c(C)c2c1 (nonaromatic ring conformer: 86.98845563551019 kcal/mol)

>  <smiles>  (41) 
COc1ccc2oc(C(=O)N3CCCc4ccccc43)c(C)c2c1

>  <score_type>  (41) 
oracle

>  <origin>  (41) 
adg

>  <m_score__min__energy>  (41) 
-8.7899999999999991

>  <m_primary>  (41) 
energy

$$$$
41:0
     RDKit          3D

 61 63  0  0  0  0  0  0  0  0999 V2000
   -5.8740   25.2920  -29.4190 C   0  0  0  0  0  0  0  0  0  0  0  0
   -5.2660   25.6770  -30.7640 C   0  0  0  0  0  0  0  0  0  0  0  0
   -3.8760   25.2450  -30.8420 N   0  0  0  0  0  0  0  0  0  0  0  0
   -3.3530   24.1020  -30.1510 C   0  0  0  0  0  0  0  0  0  0  0  0
   -2.6370   24.2710  -29.1250 O   0  0  0  0  0  0  0  0  0  0  0  0
   -3.6720   22.6800  -30.6100 C   0  0  2  0  0  0  0  0  0  0  0  0
   -5.2140   22.5540  -30.8600 C   0  0  0  0  0  0  0  0  0  0  0  0
   -5.6980   22.8210  -32.2990 C   0  0  0  0  0  0  0  0  0  0  0  0
   -6.9990   22.2700  -32.5070 O   0  0  0  0  0  0  0  0  0  0  0  0
   -7.3630   20.9140  -32.4210 C   0  0  0  0  0  0  0  0  0  0  0  0
   -8.6300   20.4750  -31.9770 C   0  0  0  0  0  0  0  0  0  0  0  0
   -8.9240   19.1080  -31.9360 C   0  0  0  0  0  0  0  0  0  0  0  0
   -7.9710   18.1710  -32.3400 C   0  0  0  0  0  0  0  0  0  0  0  0
   -6.7200   18.5980  -32.7910 C   0  0  0  0  0  0  0  0  0  0  0  0
   -6.4210   19.9640  -32.8330 C   0  0  0  0  0  0  0  0  0  0  0  0
   -3.2900   21.6920  -29.4560 C   0  0  0  0  0  0  0  0  0  0  0  0
   -1.8650   21.1480  -29.6220 C   0  0  0  0  0  0  0  0  0  0  0  0
   -1.7350   20.3110  -30.8460 N   0  0  2  0  0  0  0  0  0  0  0  0
   -0.3060   20.2130  -31.2350 C   0  0  0  0  0  0  0  0  0  0  0  0
   -0.1260   20.1520  -32.7360 C   0  0  0  0  0  0  0  0  0  0  0  0
   -0.3640   18.9600  -33.4380 C   0  0  0  0  0  0  0  0  0  0  0  0
   -0.1910   18.9110  -34.8240 C   0  0  0  0  0  0  0  0  0  0  0  0
    0.2160   20.0470  -35.5330 C   0  0  0  0  0  0  0  0  0  0  0  0
    0.3780   19.9440  -36.9230 O   0  0  0  0  0  0  0  0  0  0  0  0
    1.0480   18.8710  -37.5760 C   0  0  0  0  0  0  0  0  0  0  0  0
    0.4500   21.2450  -34.8300 C   0  0  0  0  0  0  0  0  0  0  0  0
    0.2790   21.2940  -33.4440 C   0  0  0  0  0  0  0  0  0  0  0  0
   -2.5860   20.7900  -31.9760 C   0  0  0  0  0  0  0  0  0  0  0  0
   -2.8620   22.3000  -31.9010 C   0  0  0  0  0  0  0  0  0  0  0  0
   -5.2476   25.6887  -28.6064 H   0  0  0  0  0  0  0  0  0  0  0  0
   -6.8869   25.7137  -29.3403 H   0  0  0  0  0  0  0  0  0  0  0  0
   -5.9259   24.1960  -29.3403 H   0  0  0  0  0  0  0  0  0  0  0  0
   -5.8395   25.1968  -31.5705 H   0  0  0  0  0  0  0  0  0  0  0  0
   -5.3034   26.7713  -30.8695 H   0  0  0  0  0  0  0  0  0  0  0  0
   -5.5145   21.5309  -30.5900 H   0  0  0  0  0  0  0  0  0  0  0  0
   -5.6754   23.3409  -30.2452 H   0  0  0  0  0  0  0  0  0  0  0  0
   -5.7344   23.9068  -32.4716 H   0  0  0  0  0  0  0  0  0  0  0  0
   -4.9972   22.3450  -33.0007 H   0  0  0  0  0  0  0  0  0  0  0  0
   -9.3866   21.2091  -31.6630 H   0  0  0  0  0  0  0  0  0  0  0  0
   -9.9098   18.7700  -31.5841 H   0  0  0  0  0  0  0  0  0  0  0  0
   -8.2054   17.0969  -32.3031 H   0  0  0  0  0  0  0  0  0  0  0  0
   -5.9701   17.8605  -33.1131 H   0  0  0  0  0  0  0  0  0  0  0  0
   -5.4358   20.2949  -33.1934 H   0  0  0  0  0  0  0  0  0  0  0  0
   -3.9962   20.8486  -29.4606 H   0  0  0  0  0  0  0  0  0  0  0  0
   -3.3381   22.2417  -28.5044 H   0  0  0  0  0  0  0  0  0  0  0  0
   -1.6121   20.5365  -28.7433 H   0  0  0  0  0  0  0  0  0  0  0  0
   -1.1800   22.0034  -29.7169 H   0  0  0  0  0  0  0  0  0  0  0  0
   -2.0690   19.3510  -30.5880 H   0  0  0  0  0  0  0  0  0  0  0  0
    0.2274   21.0944  -30.8496 H   0  0  0  0  0  0  0  0  0  0  0  0
    0.0975   19.2830  -30.8081 H   0  0  0  0  0  0  0  0  0  0  0  0
   -0.6882   18.0602  -32.8947 H   0  0  0  0  0  0  0  0  0  0  0  0
   -0.3766   17.9702  -35.3630 H   0  0  0  0  0  0  0  0  0  0  0  0
    1.4725   18.1911  -36.8226 H   0  0  0  0  0  0  0  0  0  0  0  0
    0.3328   18.3207  -38.2050 H   0  0  0  0  0  0  0  0  0  0  0  0
    1.8564   19.2721  -38.2050 H   0  0  0  0  0  0  0  0  0  0  0  0
    0.7688   22.1460  -35.3745 H   0  0  0  0  0  0  0  0  0  0  0  0
    0.4632   22.2345  -32.9040 H   0  0  0  0  0  0  0  0  0  0  0  0
   -3.5458   20.2534  -31.9478 H   0  0  0  0  0  0  0  0  0  0  0  0
   -2.0427   20.5940  -32.9121 H   0  0  0  0  0  0  0  0  0  0  0  0
   -3.4412   22.6008  -32.7865 H   0  0  0  0  0  0  0  0  0  0  0  0
   -1.8952   22.8236  -31.8653 H   0  0  0  0  0  0  0  0  0  0  0  0
  1  2  1  0
  2  3  1  0
  3  4  1  0
  4  5  2  0
  4  6  1  0
  6  7  1  6
  7  8  1  0
  8  9  1  0
  9 10  1  0
 10 11  2  0
 11 12  1  0
 12 13  2  0
 13 14  1  0
 14 15  2  0
  6 16  1  0
 16 17  1  0
 17 18  1  0
 18 19  1  0
 19 20  1  0
 20 21  2  0
 21 22  1  0
 22 23  2  0
 23 24  1  0
 24 25  1  0
 23 26  1  0
 26 27  2  0
 18 28  1  0
 28 29  1  0
 29  6  1  0
 15 10  1  0
 27 20  1  0
  1 30  1  0
  1 31  1  0
  1 32  1  0
  2 33  1  0
  2 34  1  0
  7 35  1  0
  7 36  1  0
  8 37  1  0
  8 38  1  0
 11 39  1  0
 12 40  1  0
 13 41  1  0
 14 42  1  0
 15 43  1  0
 16 44  1  0
 16 45  1  0
 17 46  1  0
 17 47  1  0
 18 48  1  1
 19 49  1  0
 19 50  1  0
 21 51  1  0
 22 52  1  0
 25 53  1  0
 25 54  1  0
 25 55  1  0
 26 56  1  0
 27 57  1  0
 28 58  1  0
 28 59  1  0
 29 60  1  0
 29 61  1  0
M  CHG  2   3  -1  18   1
M  END
>  <UniqueID>  (42) 
42

>  <SMILES>  (42) 
CC[N-]C(=O)C1(CCOc2ccccc2)CC[NH+](Cc2ccc(OC)cc2)CC1

>  <Energy>  (42) 
75.20237331270866

>  <Genealogy>  (42) 
CC[N-]C(=O)C1(CCOc2ccccc2)CC[NH+](Cc2ccc(OC)cc2)CC1 (protonated)
CC[N-]C(=O)C1(CCOc2ccccc2)CC[NH+](Cc2ccc(OC)cc2)CC1 (3D coordinates assigned)
CC[N-]C(=O)C1(CCOc2ccccc2)CC[NH+](Cc2ccc(OC)cc2)CC1 (nonaromatic ring conformer: 75.20237331270866 kcal/mol)

>  <smiles>  (42) 
CCNC(=O)C1(CCOc2ccccc2)CCN(Cc2ccc(OC)cc2)CC1

>  <score_type>  (42) 
oracle

>  <origin>  (42) 
adg

>  <m_score__min__energy>  (42) 
-9.3900000000000006

>  <m_primary>  (42) 
energy

$$$$
42:0
     RDKit          3D

 34 35  0  0  0  0  0  0  0  0999 V2000
   -6.3720   25.4890  -29.6850 C   0  0  0  0  0  0  0  0  0  0  0  0
   -5.6110   24.9140  -30.8740 C   0  0  0  0  0  0  0  0  0  0  0  0
   -6.2730   23.6670  -31.3720 C   0  0  0  0  0  0  0  0  0  0  0  0
   -7.6360   23.4040  -31.3420 C   0  0  0  0  0  0  0  0  0  0  0  0
   -7.9700   22.1300  -31.8270 C   0  0  0  0  0  0  0  0  0  0  0  0
   -9.3920   21.6650  -31.9270 C   0  0  0  0  0  0  0  0  0  0  0  0
   -6.8490   21.3700  -32.1970 C   0  0  0  0  0  0  0  0  0  0  0  0
   -6.8240   19.9930  -32.7390 C   0  0  0  0  0  0  0  0  0  0  0  0
   -7.5530   19.0250  -32.1620 C   0  0  0  0  0  0  0  0  0  0  0  0
   -7.6150   17.6230  -32.7150 C   0  0  0  0  0  0  0  0  0  0  0  0
   -6.4260   17.2630  -33.5120 N   0  0  0  0  0  0  0  0  0  0  0  0
   -5.2740   16.9260  -32.6580 C   0  0  0  0  0  0  0  0  0  0  0  0
   -6.1110   18.3130  -34.4970 C   0  0  0  0  0  0  0  0  0  0  0  0
   -5.8340   19.6700  -33.8310 C   0  0  0  0  0  0  0  0  0  0  0  0
   -5.4730   22.3130  -31.9600 S   0  0  0  0  0  0  0  0  0  0  0  0
   -5.9096   25.1396  -28.7500 H   0  0  0  0  0  0  0  0  0  0  0  0
   -6.3363   26.5877  -29.7235 H   0  0  0  0  0  0  0  0  0  0  0  0
   -7.4192   25.1546  -29.7235 H   0  0  0  0  0  0  0  0  0  0  0  0
   -5.5887   25.6589  -31.6831 H   0  0  0  0  0  0  0  0  0  0  0  0
   -4.5878   24.6680  -30.5539 H   0  0  0  0  0  0  0  0  0  0  0  0
   -8.3816   24.1241  -30.9739 H   0  0  0  0  0  0  0  0  0  0  0  0
   -9.8055   21.5298  -30.9167 H   0  0  0  0  0  0  0  0  0  0  0  0
   -9.9860   22.4157  -32.4688 H   0  0  0  0  0  0  0  0  0  0  0  0
   -9.4277   20.7084  -32.4688 H   0  0  0  0  0  0  0  0  0  0  0  0
   -8.1257   19.2625  -31.2534 H   0  0  0  0  0  0  0  0  0  0  0  0
   -7.6998   16.9184  -31.8746 H   0  0  0  0  0  0  0  0  0  0  0  0
   -8.4867   17.5720  -33.3840 H   0  0  0  0  0  0  0  0  0  0  0  0
   -5.5643   17.0109  -31.6004 H   0  0  0  0  0  0  0  0  0  0  0  0
   -4.9509   15.8957  -32.8679 H   0  0  0  0  0  0  0  0  0  0  0  0
   -4.4466   17.6197  -32.8679 H   0  0  0  0  0  0  0  0  0  0  0  0
   -5.2199   18.0092  -35.0658 H   0  0  0  0  0  0  0  0  0  0  0  0
   -6.9847   18.4319  -35.1547 H   0  0  0  0  0  0  0  0  0  0  0  0
   -4.8239   19.6493  -33.3960 H   0  0  0  0  0  0  0  0  0  0  0  0
   -5.9265   20.4462  -34.6050 H   0  0  0  0  0  0  0  0  0  0  0  0
  1  2  1  0
  2  3  1  0
  3  4  2  0
  4  5  1  0
  5  6  1  0
  5  7  2  0
  7  8  1  0
  8  9  2  0
  9 10  1  0
 10 11  1  0
 11 12  1  0
 11 13  1  0
 13 14  1  0
  7 15  1  0
 15  3  1  0
 14  8  1  0
  1 16  1  0
  1 17  1  0
  1 18  1  0
  2 19  1  0
  2 20  1  0
  4 21  1  0
  6 22  1  0
  6 23  1  0
  6 24  1  0
  9 25  1  0
 10 26  1  0
 10 27  1  0
 12 28  1  0
 12 29  1  0
 12 30  1  0
 13 31  1  0
 13 32  1  0
 14 33  1  0
 14 34  1  0
M  END
>  <UniqueID>  (43) 
43

>  <SMILES>  (43) 
CCc1cc(C)c(C2=CCN(C)CC2)s1

>  <Energy>  (43) 
61.98790587678076

>  <Genealogy>  (43) 
CCc1cc(C)c(C2=CCN(C)CC2)s1 (3D coordinates assigned)
CCc1cc(C)c(C2=CCN(C)CC2)s1 (nonaromatic ring conformer: 61.98790587678076 kcal/mol)

>  <smiles>  (43) 
CCc1cc(C)c(C2=CCN(C)CC2)s1

>  <score_type>  (43) 
oracle

>  <origin>  (43) 
adg

>  <m_score__min__energy>  (43) 
-7.1299999999999999

>  <m_primary>  (43) 
energy

$$$$
43:0
     RDKit          3D

 38 40  0  0  0  0  0  0  0  0999 V2000
   -2.5630   23.8850  -29.6930 C   0  0  0  0  0  0  0  0  0  0  0  0
   -3.4930   24.6210  -30.4810 O   0  0  0  0  0  0  0  0  0  0  0  0
   -4.8510   24.2940  -30.6140 C   0  0  0  0  0  0  0  0  0  0  0  0
   -5.8050   25.2500  -30.2580 C   0  0  0  0  0  0  0  0  0  0  0  0
   -7.1300   24.9710  -30.3720 N   0  0  0  0  0  0  0  0  0  0  0  0
   -7.5760   23.7740  -30.8320 C   0  0  0  0  0  0  0  0  0  0  0  0
   -6.6650   22.7720  -31.2090 C   0  0  0  0  0  0  0  0  0  0  0  0
   -7.1310   21.4540  -31.7140 C   0  0  0  0  0  0  0  0  0  0  0  0
   -8.3820   21.1610  -32.2590 C   0  0  0  0  0  0  0  0  0  0  0  0
   -8.5290   19.8230  -32.6470 C   0  0  0  0  0  0  0  0  0  0  0  0
   -7.3940   19.0520  -32.4240 C   0  0  0  0  0  0  0  0  0  0  0  0
   -7.2470   17.5790  -32.7100 C   0  0  0  0  0  0  0  0  0  0  0  0
   -6.3710   17.2790  -33.8630 N   0  0  0  0  0  0  0  0  0  0  0  0
   -5.8110   18.4740  -34.5340 C   0  0  0  0  0  0  0  0  0  0  0  0
   -4.2950   18.5960  -34.2940 C   0  0  0  0  0  0  0  0  0  0  0  0
   -3.5570   17.4670  -34.7450 O   0  0  0  0  0  0  0  0  0  0  0  0
   -4.2680   16.2380  -34.6530 C   0  0  0  0  0  0  0  0  0  0  0  0
   -5.3680   16.2310  -33.5800 C   0  0  0  0  0  0  0  0  0  0  0  0
   -6.2220   20.0320  -31.7230 S   0  0  0  0  0  0  0  0  0  0  0  0
   -5.2900   23.0470  -31.0910 C   0  0  0  0  0  0  0  0  0  0  0  0
   -2.7736   24.0516  -28.6263 H   0  0  0  0  0  0  0  0  0  0  0  0
   -2.6559   22.8131  -29.9220 H   0  0  0  0  0  0  0  0  0  0  0  0
   -1.5411   24.2217  -29.9220 H   0  0  0  0  0  0  0  0  0  0  0  0
   -5.4824   26.2328  -29.8838 H   0  0  0  0  0  0  0  0  0  0  0  0
   -8.6572   23.5871  -30.9102 H   0  0  0  0  0  0  0  0  0  0  0  0
   -9.1785   21.9110  -32.3733 H   0  0  0  0  0  0  0  0  0  0  0  0
   -9.4540   19.4210  -33.0861 H   0  0  0  0  0  0  0  0  0  0  0  0
   -6.8247   17.0931  -31.8181 H   0  0  0  0  0  0  0  0  0  0  0  0
   -8.2486   17.2002  -32.9617 H   0  0  0  0  0  0  0  0  0  0  0  0
   -5.9968   18.3969  -35.6154 H   0  0  0  0  0  0  0  0  0  0  0  0
   -6.3000   19.3662  -34.1158 H   0  0  0  0  0  0  0  0  0  0  0  0
   -3.9288   19.4865  -34.8258 H   0  0  0  0  0  0  0  0  0  0  0  0
   -4.1441   18.6682  -33.2068 H   0  0  0  0  0  0  0  0  0  0  0  0
   -4.7347   16.0346  -35.6281 H   0  0  0  0  0  0  0  0  0  0  0  0
   -3.5370   15.4683  -34.3644 H   0  0  0  0  0  0  0  0  0  0  0  0
   -5.8624   15.2484  -33.5743 H   0  0  0  0  0  0  0  0  0  0  0  0
   -4.9110   16.4302  -32.5994 H   0  0  0  0  0  0  0  0  0  0  0  0
   -4.5535   22.2805  -31.3741 H   0  0  0  0  0  0  0  0  0  0  0  0
  1  2  1  0
  2  3  1  0
  3  4  2  0
  4  5  1  0
  5  6  2  0
  6  7  1  0
  7  8  1  0
  8  9  2  0
  9 10  1  0
 10 11  2  0
 11 12  1  0
 12 13  1  0
 13 14  1  0
 14 15  1  0
 15 16  1  0
 16 17  1  0
 17 18  1  0
 11 19  1  0
  7 20  2  0
 20  3  1  0
 19  8  1  0
 18 13  1  0
  1 21  1  0
  1 22  1  0
  1 23  1  0
  4 24  1  0
  6 25  1  0
  9 26  1  0
 10 27  1  0
 12 28  1  0
 12 29  1  0
 14 30  1  0
 14 31  1  0
 15 32  1  0
 15 33  1  0
 17 34  1  0
 17 35  1  0
 18 36  1  0
 18 37  1  0
 20 38  1  0
M  END
>  <UniqueID>  (44) 
44

>  <SMILES>  (44) 
COc1cncc(-c2ccc(CN3CCOCC3)s2)c1

>  <Energy>  (44) 
83.08948816953665

>  <Genealogy>  (44) 
COc1cncc(-c2ccc(CN3CCOCC3)s2)c1 (3D coordinates assigned)
COc1cncc(-c2ccc(CN3CCOCC3)s2)c1 (nonaromatic ring conformer: 83.08948816953665 kcal/mol)

>  <smiles>  (44) 
COc1cncc(-c2ccc(CN3CCOCC3)s2)c1

>  <score_type>  (44) 
oracle

>  <origin>  (44) 
adg

>  <m_score__min__energy>  (44) 
-7.3799999999999999

>  <m_primary>  (44) 
energy

$$$$
44:0
     RDKit          3D

 41 42  0  0  0  0  0  0  0  0999 V2000
   -1.9220   21.9280  -30.5610 C   0  0  0  0  0  0  0  0  0  0  0  0
   -3.1260   21.3510  -29.8230 C   0  0  0  0  0  0  0  0  0  0  0  0
   -3.6760   22.3050  -28.7500 C   0  0  0  0  0  0  0  0  0  0  0  0
   -3.5270   23.7220  -29.1300 N   0  0  0  0  0  0  0  0  0  0  0  0
   -2.5730   24.5680  -28.3940 C   0  0  0  0  0  0  0  0  0  0  0  0
   -2.8180   24.4860  -26.8840 C   0  0  0  0  0  0  0  0  0  0  0  0
   -4.2420   24.9040  -26.5320 C   0  0  0  0  0  0  0  0  0  0  0  0
   -4.3650   24.3360  -30.1350 C   0  0  0  0  0  0  0  0  0  0  0  0
   -3.9150   25.3100  -30.8000 O   0  0  0  0  0  0  0  0  0  0  0  0
   -5.8090   23.9400  -30.3190 C   0  0  0  0  0  0  0  0  0  0  0  0
   -5.9320   22.8740  -31.3130 N   0  0  0  0  0  0  0  0  0  0  0  0
   -5.0500   22.5790  -32.3020 C   0  0  0  0  0  0  0  0  0  0  0  0
   -5.4840   21.5700  -33.0970 N   0  0  0  0  0  0  0  0  0  0  0  0
   -6.6820   21.2350  -32.5880 C   0  0  0  0  0  0  0  0  0  0  0  0
   -7.5700   20.2630  -33.0430 C   0  0  0  0  0  0  0  0  0  0  0  0
   -8.7850   20.1140  -32.3480 C   0  0  0  0  0  0  0  0  0  0  0  0
   -9.0780   20.9340  -31.2330 C   0  0  0  0  0  0  0  0  0  0  0  0
   -8.1580   21.9080  -30.8010 C   0  0  0  0  0  0  0  0  0  0  0  0
   -6.9600   22.0250  -31.5090 C   0  0  0  0  0  0  0  0  0  0  0  0
   -1.1802   22.2835  -29.8307 H   0  0  0  0  0  0  0  0  0  0  0  0
   -1.4707   21.1483  -31.1922 H   0  0  0  0  0  0  0  0  0  0  0  0
   -2.2470   22.7682  -31.1922 H   0  0  0  0  0  0  0  0  0  0  0  0
   -3.9222   21.1466  -30.5539 H   0  0  0  0  0  0  0  0  0  0  0  0
   -2.7960   20.4331  -29.3145 H   0  0  0  0  0  0  0  0  0  0  0  0
   -4.7442   22.0898  -28.5996 H   0  0  0  0  0  0  0  0  0  0  0  0
   -3.0990   22.1420  -27.8278 H   0  0  0  0  0  0  0  0  0  0  0  0
   -1.5494   24.2288  -28.6113 H   0  0  0  0  0  0  0  0  0  0  0  0
   -2.7096   25.6112  -28.7151 H   0  0  0  0  0  0  0  0  0  0  0  0
   -2.6552   23.4507  -26.5499 H   0  0  0  0  0  0  0  0  0  0  0  0
   -2.1198   25.1708  -26.3805 H   0  0  0  0  0  0  0  0  0  0  0  0
   -4.3547   24.9371  -25.4383 H   0  0  0  0  0  0  0  0  0  0  0  0
   -4.4462   25.9000  -26.9519 H   0  0  0  0  0  0  0  0  0  0  0  0
   -4.9521   24.1764  -26.9519 H   0  0  0  0  0  0  0  0  0  0  0  0
   -6.2111   23.5857  -29.3584 H   0  0  0  0  0  0  0  0  0  0  0  0
   -6.3733   24.8166  -30.6700 H   0  0  0  0  0  0  0  0  0  0  0  0
   -4.0914   23.0998  -32.4425 H   0  0  0  0  0  0  0  0  0  0  0  0
   -5.0000   21.1580  -33.9250 H   0  0  0  0  0  0  0  0  0  0  0  0
   -7.3305   19.6348  -33.9136 H   0  0  0  0  0  0  0  0  0  0  0  0
   -9.5114   19.3550  -32.6740 H   0  0  0  0  0  0  0  0  0  0  0  0
  -10.0319   20.8095  -30.6996 H   0  0  0  0  0  0  0  0  0  0  0  0
   -8.3749   22.5535  -29.9371 H   0  0  0  0  0  0  0  0  0  0  0  0
  1  2  1  0
  2  3  1  0
  3  4  1  0
  4  5  1  0
  5  6  1  0
  6  7  1  0
  4  8  1  0
  8  9  2  0
  8 10  1  0
 10 11  1  0
 11 12  1  0
 12 13  2  0
 13 14  1  0
 14 15  2  0
 15 16  1  0
 16 17  2  0
 17 18  1  0
 18 19  2  0
 19 11  1  0
 19 14  1  0
  1 20  1  0
  1 21  1  0
  1 22  1  0
  2 23  1  0
  2 24  1  0
  3 25  1  0
  3 26  1  0
  5 27  1  0
  5 28  1  0
  6 29  1  0
  6 30  1  0
  7 31  1  0
  7 32  1  0
  7 33  1  0
 10 34  1  0
 10 35  1  0
 12 36  1  0
 13 37  1  0
 15 38  1  0
 16 39  1  0
 17 40  1  0
 18 41  1  0
M  CHG  1  13   1
M  END
>  <UniqueID>  (45) 
45

>  <SMILES>  (45) 
CCCN(CCC)C(=O)Cn1c[nH+]c2ccccc21

>  <Energy>  (45) 
70.05339691504962

>  <Genealogy>  (45) 
CCCN(CCC)C(=O)Cn1c[nH+]c2ccccc21 (protonated)
CCCN(CCC)C(=O)Cn1c[nH+]c2ccccc21 (3D coordinates assigned)
CCCN(CCC)C(=O)Cn1c[nH+]c2ccccc21 (optimized conformer: 70.05339691504962 kcal/mol)

>  <smiles>  (45) 
CCCN(CCC)C(=O)Cn1cnc2ccccc21

>  <score_type>  (45) 
oracle

>  <origin>  (45) 
adg

>  <m_score__min__energy>  (45) 
-6.3099999999999996

>  <m_primary>  (45) 
energy

$$$$
45:0
     RDKit          3D

 37 38  0  0  0  0  0  0  0  0999 V2000
   -4.2000   17.7850  -34.9680 C   0  0  0  0  0  0  0  0  0  0  0  0
   -5.4720   17.0130  -34.6400 C   0  0  0  0  0  0  0  0  0  0  0  0
   -6.2770   17.7400  -33.6090 C   0  0  0  0  0  0  0  0  0  0  0  0
   -6.8570   18.9410  -33.8150 N   0  0  0  0  0  0  0  0  0  0  0  0
   -7.4630   19.4280  -32.6960 C   0  0  0  0  0  0  0  0  0  0  0  0
   -8.1690   20.7620  -32.6790 C   0  0  0  0  0  0  0  0  0  0  0  0
   -7.3850   21.8420  -32.0400 N   0  0  0  0  0  0  0  0  0  0  0  0
   -7.5490   21.9010  -30.5820 C   0  0  0  0  0  0  0  0  0  0  0  0
   -7.1150   23.2850  -30.1070 C   0  0  0  0  0  0  0  0  0  0  0  0
   -5.8740   23.7170  -30.7700 N   0  0  0  0  0  0  0  0  0  0  0  0
   -5.3200   25.0190  -30.4700 C   0  0  0  0  0  0  0  0  0  0  0  0
   -6.1110   26.0540  -29.7260 C   0  0  0  0  0  0  0  0  0  0  0  0
   -4.1470   25.3080  -30.8360 O   0  0  0  0  0  0  0  0  0  0  0  0
   -5.0810   22.7480  -31.5480 C   0  0  0  0  0  0  0  0  0  0  0  0
   -5.9620   21.8400  -32.4380 C   0  0  0  0  0  0  0  0  0  0  0  0
   -7.3670   18.6000  -31.5780 C   0  0  0  0  0  0  0  0  0  0  0  0
   -6.4800   17.2380  -32.0170 S   0  0  0  0  0  0  0  0  0  0  0  0
   -3.7030   18.0866  -34.0342 H   0  0  0  0  0  0  0  0  0  0  0  0
   -3.5233   17.1451  -35.5533 H   0  0  0  0  0  0  0  0  0  0  0  0
   -4.4553   18.6807  -35.5533 H   0  0  0  0  0  0  0  0  0  0  0  0
   -6.0727   16.9003  -35.5546 H   0  0  0  0  0  0  0  0  0  0  0  0
   -5.1954   16.0252  -34.2429 H   0  0  0  0  0  0  0  0  0  0  0  0
   -6.8340   19.4430  -34.7310 H   0  0  0  0  0  0  0  0  0  0  0  0
   -8.3820   21.0554  -33.7175 H   0  0  0  0  0  0  0  0  0  0  0  0
   -9.0845   20.6335  -32.0828 H   0  0  0  0  0  0  0  0  0  0  0  0
   -8.6035   21.7312  -30.3191 H   0  0  0  0  0  0  0  0  0  0  0  0
   -6.9362   21.1252  -30.0998 H   0  0  0  0  0  0  0  0  0  0  0  0
   -7.9124   24.0076  -30.3348 H   0  0  0  0  0  0  0  0  0  0  0  0
   -6.9293   23.2362  -29.0239 H   0  0  0  0  0  0  0  0  0  0  0  0
   -5.9920   25.8983  -28.6436 H   0  0  0  0  0  0  0  0  0  0  0  0
   -5.7469   27.0567  -29.9944 H   0  0  0  0  0  0  0  0  0  0  0  0
   -7.1741   25.9659  -29.9944 H   0  0  0  0  0  0  0  0  0  0  0  0
   -4.3813   23.3010  -32.1918 H   0  0  0  0  0  0  0  0  0  0  0  0
   -4.5494   22.1016  -30.8341 H   0  0  0  0  0  0  0  0  0  0  0  0
   -5.8889   22.1919  -33.4776 H   0  0  0  0  0  0  0  0  0  0  0  0
   -5.5914   20.8106  -32.3242 H   0  0  0  0  0  0  0  0  0  0  0  0
   -7.7951   18.8012  -30.5849 H   0  0  0  0  0  0  0  0  0  0  0  0
  1  2  1  0
  2  3  1  0
  3  4  2  0
  4  5  1  0
  5  6  1  0
  6  7  1  0
  7  8  1  0
  8  9  1  0
  9 10  1  0
 10 11  1  0
 11 12  1  0
 11 13  2  0
 10 14  1  0
 14 15  1  0
  5 16  2  0
 16 17  1  0
 17  3  1  0
 15  7  1  0
  1 18  1  0
  1 19  1  0
  1 20  1  0
  2 21  1  0
  2 22  1  0
  4 23  1  0
  6 24  1  0
  6 25  1  0
  8 26  1  0
  8 27  1  0
  9 28  1  0
  9 29  1  0
 12 30  1  0
 12 31  1  0
 12 32  1  0
 14 33  1  0
 14 34  1  0
 15 35  1  0
 15 36  1  0
 16 37  1  0
M  CHG  1   4   1
M  END
>  <UniqueID>  (46) 
46

>  <SMILES>  (46) 
CCc1[nH+]c(CN2CCN(C(C)=O)CC2)cs1

>  <Energy>  (46) 
66.31509895793783

>  <Genealogy>  (46) 
CCc1[nH+]c(CN2CCN(C(C)=O)CC2)cs1 (protonated)
CCc1[nH+]c(CN2CCN(C(C)=O)CC2)cs1 (3D coordinates assigned)
CCc1[nH+]c(CN2CCN(C(C)=O)CC2)cs1 (nonaromatic ring conformer: 66.31509895793783 kcal/mol)

>  <smiles>  (46) 
CCc1nc(CN2CCN(C(C)=O)CC2)cs1

>  <score_type>  (46) 
oracle

>  <origin>  (46) 
adg

>  <m_score__min__energy>  (46) 
-7.0800000000000001

>  <m_primary>  (46) 
energy

$$$$
46:0
     RDKit          3D

 50 52  0  0  0  0  0  0  0  0999 V2000
   -0.4450   22.3580  -29.0630 C   0  0  0  0  0  0  0  0  0  0  0  0
   -0.4030   23.8580  -29.3080 C   0  0  0  0  0  0  0  0  0  0  0  0
    0.2980   24.4920  -28.2400 O   0  0  0  0  0  0  0  0  0  0  0  0
   -0.3080   25.2210  -27.2050 C   0  0  0  0  0  0  0  0  0  0  0  0
    0.4110   26.1690  -26.4480 C   0  0  0  0  0  0  0  0  0  0  0  0
   -0.2330   26.9260  -25.4670 C   0  0  0  0  0  0  0  0  0  0  0  0
   -1.5980   26.7540  -25.2330 C   0  0  0  0  0  0  0  0  0  0  0  0
   -2.3180   25.8110  -25.9680 C   0  0  0  0  0  0  0  0  0  0  0  0
   -1.6800   25.0220  -26.9320 C   0  0  0  0  0  0  0  0  0  0  0  0
   -2.4660   24.0670  -27.6600 N   0  0  0  0  0  0  0  0  0  0  0  0
   -3.3820   24.3790  -28.7160 C   0  0  0  0  0  0  0  0  0  0  0  0
   -3.1150   25.2870  -29.5510 O   0  0  0  0  0  0  0  0  0  0  0  0
   -4.6190   23.5590  -28.8870 C   0  0  0  0  0  0  0  0  0  0  0  0
   -4.7680   23.1540  -30.2840 N   0  0  0  0  0  0  0  0  0  0  0  0
   -5.4050   23.8900  -31.3110 C   0  0  0  0  0  0  0  0  0  0  0  0
   -5.6860   25.1160  -31.2230 O   0  0  0  0  0  0  0  0  0  0  0  0
   -5.7100   23.1030  -32.4510 N   0  0  0  0  0  0  0  0  0  0  0  0
   -5.3120   21.7160  -32.1920 C   0  0  2  0  0  0  0  0  0  0  0  0
   -4.2080   21.3090  -33.2060 C   0  0  0  0  0  0  0  0  0  0  0  0
   -2.7790   21.5430  -32.7050 C   0  0  0  0  0  0  0  0  0  0  0  0
   -6.5590   20.8270  -32.2890 C   0  0  0  0  0  0  0  0  0  0  0  0
   -6.4990   19.4580  -32.6400 C   0  0  0  0  0  0  0  0  0  0  0  0
   -7.6630   18.6880  -32.7110 C   0  0  0  0  0  0  0  0  0  0  0  0
   -8.9030   19.2600  -32.4240 C   0  0  0  0  0  0  0  0  0  0  0  0
   -8.9810   20.6030  -32.0590 C   0  0  0  0  0  0  0  0  0  0  0  0
   -7.8210   21.3800  -31.9860 C   0  0  0  0  0  0  0  0  0  0  0  0
   -4.7280   21.8240  -30.7920 C   0  0  0  0  0  0  0  0  0  0  0  0
   -4.2360   20.8600  -30.1440 O   0  0  0  0  0  0  0  0  0  0  0  0
   -0.4505   22.1633  -27.9804 H   0  0  0  0  0  0  0  0  0  0  0  0
   -1.3553   21.9379  -29.5157 H   0  0  0  0  0  0  0  0  0  0  0  0
    0.4403   21.8876  -29.5157 H   0  0  0  0  0  0  0  0  0  0  0  0
    0.1137   24.0606  -30.2577 H   0  0  0  0  0  0  0  0  0  0  0  0
   -1.4290   24.2512  -29.3592 H   0  0  0  0  0  0  0  0  0  0  0  0
    1.4860   26.3131  -26.6314 H   0  0  0  0  0  0  0  0  0  0  0  0
    0.3368   27.6594  -24.8775 H   0  0  0  0  0  0  0  0  0  0  0  0
   -2.1062   27.3614  -24.4696 H   0  0  0  0  0  0  0  0  0  0  0  0
   -3.3961   25.6868  -25.7881 H   0  0  0  0  0  0  0  0  0  0  0  0
   -4.5505   22.6619  -28.2541 H   0  0  0  0  0  0  0  0  0  0  0  0
   -5.4916   24.1607  -28.5930 H   0  0  0  0  0  0  0  0  0  0  0  0
   -6.1460   23.4640  -33.3300 H   0  0  0  0  0  0  0  0  0  0  0  0
   -4.3238   20.2385  -33.4311 H   0  0  0  0  0  0  0  0  0  0  0  0
   -4.3412   21.9472  -34.0919 H   0  0  0  0  0  0  0  0  0  0  0  0
   -2.7717   21.5442  -31.6050 H   0  0  0  0  0  0  0  0  0  0  0  0
   -2.1246   20.7401  -33.0752 H   0  0  0  0  0  0  0  0  0  0  0  0
   -2.4149   22.5127  -33.0752 H   0  0  0  0  0  0  0  0  0  0  0  0
   -5.5258   18.9946  -32.8594 H   0  0  0  0  0  0  0  0  0  0  0  0
   -7.6015   17.6269  -32.9942 H   0  0  0  0  0  0  0  0  0  0  0  0
   -9.8176   18.6520  -32.4857 H   0  0  0  0  0  0  0  0  0  0  0  0
   -9.9579   21.0527  -31.8278 H   0  0  0  0  0  0  0  0  0  0  0  0
   -7.8933   22.4365  -31.6884 H   0  0  0  0  0  0  0  0  0  0  0  0
  1  2  1  0
  2  3  1  0
  3  4  1  0
  4  5  2  0
  5  6  1  0
  6  7  2  0
  7  8  1  0
  8  9  2  0
  9 10  1  0
 10 11  1  0
 11 12  2  0
 11 13  1  0
 13 14  1  0
 14 15  1  0
 15 16  2  0
 15 17  1  0
 17 18  1  0
 18 19  1  6
 19 20  1  0
 18 21  1  0
 21 22  2  0
 22 23  1  0
 23 24  2  0
 24 25  1  0
 25 26  2  0
 18 27  1  0
 27 28  2  0
  9  4  1  0
 27 14  1  0
 26 21  1  0
  1 29  1  0
  1 30  1  0
  1 31  1  0
  2 32  1  0
  2 33  1  0
  5 34  1  0
  6 35  1  0
  7 36  1  0
  8 37  1  0
 13 38  1  0
 13 39  1  0
 17 40  1  0
 19 41  1  0
 19 42  1  0
 20 43  1  0
 20 44  1  0
 20 45  1  0
 22 46  1  0
 23 47  1  0
 24 48  1  0
 25 49  1  0
 26 50  1  0
M  CHG  1  10  -1
M  END
>  <UniqueID>  (47) 
47

>  <SMILES>  (47) 
CCOc1ccccc1[N-]C(=O)CN1C(=O)N[C@](CC)(c2ccccc2)C1=O

>  <Energy>  (47) 
72.94300637804103

>  <Genealogy>  (47) 
CCOc1ccccc1[N-]C(=O)CN1C(=O)NC(CC)(c2ccccc2)C1=O (protonated)
CCOc1ccccc1[N-]C(=O)CN1C(=O)N[C@](CC)(c2ccccc2)C1=O (chirality)
CCOc1ccccc1[N-]C(=O)CN1C(=O)N[C@](CC)(c2ccccc2)C1=O (3D coordinates assigned)
CCOc1ccccc1[N-]C(=O)CN1C(=O)N[C@](CC)(c2ccccc2)C1=O (nonaromatic ring conformer: 72.94300637804103 kcal/mol)

>  <smiles>  (47) 
CCOc1ccccc1NC(=O)CN1C(=O)NC(CC)(c2ccccc2)C1=O

>  <score_type>  (47) 
oracle

>  <origin>  (47) 
adg

>  <m_score__min__energy>  (47) 
-9.9399999999999995

>  <m_primary>  (47) 
energy

$$$$
