0:0
     RDKit          3D

 71 74  0  0  0  0  0  0  0  0999 V2000
   -6.0260   25.3130  -30.0210 C   0  0  0  0  0  0  0  0  0  0  0  0
   -4.5670   25.2240  -30.4670 C   0  0  0  0  0  0  0  0  0  0  0  0
   -3.8790   24.1010  -29.7950 N   0  0  0  0  0  0  0  0  0  0  0  0
   -2.5430   24.5210  -29.3430 C   0  0  0  0  0  0  0  0  0  0  0  0
   -4.6700   23.5480  -28.6690 C   0  0  0  0  0  0  0  0  0  0  0  0
   -3.8750   22.4260  -27.9970 C   0  0  0  0  0  0  0  0  0  0  0  0
   -3.3030   21.5750  -28.9760 O   0  0  0  0  0  0  0  0  0  0  0  0
   -2.4460   20.6090  -28.3930 C   0  0  0  0  0  0  0  0  0  0  0  0
   -1.3310   20.2330  -29.3690 C   0  0  0  0  0  0  0  0  0  0  0  0
   -1.8330   20.2590  -30.6910 O   0  0  0  0  0  0  0  0  0  0  0  0
   -1.4580   21.4560  -31.3430 C   0  0  0  0  0  0  0  0  0  0  0  0
   -0.9480   21.1620  -32.7550 C   0  0  0  0  0  0  0  0  0  0  0  0
   -2.0610   21.1390  -33.7030 N   0  0  0  0  0  0  0  0  0  0  0  0
   -3.1460   20.2090  -33.5620 C   0  0  0  0  0  0  0  0  0  0  0  0
   -2.9380   18.8400  -33.7840 C   0  0  0  0  0  0  0  0  0  0  0  0
   -4.0360   17.9630  -33.7430 C   0  0  0  0  0  0  0  0  0  0  0  0
   -5.3190   18.4540  -33.6020 N   0  0  0  0  0  0  0  0  0  0  0  0
   -6.4630   17.5910  -33.9600 C   0  0  0  0  0  0  0  0  0  0  0  0
   -5.5130   19.7550  -33.1660 C   0  0  0  0  0  0  0  0  0  0  0  0
   -4.4150   20.6540  -33.1540 C   0  0  0  0  0  0  0  0  0  0  0  0
   -4.6310   22.1040  -32.7660 C   0  0  0  0  0  0  0  0  0  0  0  0
   -5.5980   22.2160  -31.5940 C   0  0  0  0  0  0  0  0  0  0  0  0
   -6.8680   21.4760  -31.8970 C   0  0  0  0  0  0  0  0  0  0  0  0
   -8.0880   21.9300  -31.3760 C   0  0  0  0  0  0  0  0  0  0  0  0
   -9.2560   21.2060  -31.6020 C   0  0  0  0  0  0  0  0  0  0  0  0
   -9.1900   20.0190  -32.3290 C   0  0  0  0  0  0  0  0  0  0  0  0
   -7.9970   19.5830  -32.8100 N   0  0  0  0  0  0  0  0  0  0  0  0
   -6.8310   20.2670  -32.6280 C   0  0  0  0  0  0  0  0  0  0  0  0
   -3.7430   16.4780  -33.8880 C   0  0  0  0  0  0  0  0  0  0  0  0
   -2.4660   16.1130  -33.1260 C   0  0  0  0  0  0  0  0  0  0  0  0
   -1.2460   16.9420  -33.5670 C   0  0  0  0  0  0  0  0  0  0  0  0
   -1.5910   18.2940  -34.2230 C   0  0  0  0  0  0  0  0  0  0  0  0
   -6.0739   25.3159  -28.9220 H   0  0  0  0  0  0  0  0  0  0  0  0
   -6.4724   26.2400  -30.4100 H   0  0  0  0  0  0  0  0  0  0  0  0
   -6.5818   24.4471  -30.4100 H   0  0  0  0  0  0  0  0  0  0  0  0
   -4.5317   25.0689  -31.5554 H   0  0  0  0  0  0  0  0  0  0  0  0
   -4.0583   26.1611  -30.1965 H   0  0  0  0  0  0  0  0  0  0  0  0
   -2.5140   24.5301  -28.2434 H   0  0  0  0  0  0  0  0  0  0  0  0
   -1.7888   23.8166  -29.7239 H   0  0  0  0  0  0  0  0  0  0  0  0
   -2.3275   25.5302  -29.7239 H   0  0  0  0  0  0  0  0  0  0  0  0
   -4.8737   24.3435  -27.9371 H   0  0  0  0  0  0  0  0  0  0  0  0
   -5.6226   23.1494  -29.0480 H   0  0  0  0  0  0  0  0  0  0  0  0
   -3.0736   22.8653  -27.3848 H   0  0  0  0  0  0  0  0  0  0  0  0
   -4.5533   21.8368  -27.3624 H   0  0  0  0  0  0  0  0  0  0  0  0
   -2.0016   21.0239  -27.4763 H   0  0  0  0  0  0  0  0  0  0  0  0
   -3.0311   19.7089  -28.1533 H   0  0  0  0  0  0  0  0  0  0  0  0
   -0.5045   20.9529  -29.2764 H   0  0  0  0  0  0  0  0  0  0  0  0
   -0.9648   19.2223  -29.1357 H   0  0  0  0  0  0  0  0  0  0  0  0
   -2.3307   22.1227  -31.4052 H   0  0  0  0  0  0  0  0  0  0  0  0
   -0.6529   21.9364  -30.7676 H   0  0  0  0  0  0  0  0  0  0  0  0
   -0.2340   21.9439  -33.0529 H   0  0  0  0  0  0  0  0  0  0  0  0
   -0.4545   20.1789  -32.7593 H   0  0  0  0  0  0  0  0  0  0  0  0
   -2.1490   21.9230  -34.3900 H   0  0  0  0  0  0  0  0  0  0  0  0
   -6.9477   17.2254  -33.0427 H   0  0  0  0  0  0  0  0  0  0  0  0
   -7.1875   18.1695  -34.5520 H   0  0  0  0  0  0  0  0  0  0  0  0
   -6.1058   16.7354  -34.5520 H   0  0  0  0  0  0  0  0  0  0  0  0
   -3.6659   22.5477  -32.4801 H   0  0  0  0  0  0  0  0  0  0  0  0
   -5.0597   22.6376  -33.6270 H   0  0  0  0  0  0  0  0  0  0  0  0
   -5.1317   21.7848  -30.6958 H   0  0  0  0  0  0  0  0  0  0  0  0
   -5.8330   23.2769  -31.4229 H   0  0  0  0  0  0  0  0  0  0  0  0
   -8.1226   22.8591  -30.7881 H   0  0  0  0  0  0  0  0  0  0  0  0
  -10.2190   21.5667  -31.2114 H   0  0  0  0  0  0  0  0  0  0  0  0
  -10.1039   19.4352  -32.5133 H   0  0  0  0  0  0  0  0  0  0  0  0
   -4.5861   15.9001  -33.4816 H   0  0  0  0  0  0  0  0  0  0  0  0
   -3.6044   16.2423  -34.9535 H   0  0  0  0  0  0  0  0  0  0  0  0
   -2.6369   16.2840  -32.0529 H   0  0  0  0  0  0  0  0  0  0  0  0
   -2.2432   15.0578  -33.3427 H   0  0  0  0  0  0  0  0  0  0  0  0
   -0.6266   17.1395  -32.6796 H   0  0  0  0  0  0  0  0  0  0  0  0
   -0.7261   16.3478  -34.3330 H   0  0  0  0  0  0  0  0  0  0  0  0
   -0.8126   19.0231  -33.9536 H   0  0  0  0  0  0  0  0  0  0  0  0
   -1.6411   18.1292  -35.3094 H   0  0  0  0  0  0  0  0  0  0  0  0
  1  2  1  0
  2  3  1  0
  3  4  1  0
  3  5  1  0
  5  6  1  0
  6  7  1  0
  7  8  1  0
  8  9  1  0
  9 10  1  0
 10 11  1  0
 11 12  1  0
 12 13  1  0
 13 14  1  0
 14 15  2  0
 15 16  1  0
 16 17  2  0
 17 18  1  0
 17 19  1  0
 19 20  2  0
 20 21  1  0
 21 22  1  0
 22 23  1  0
 23 24  2  0
 24 25  1  0
 25 26  2  0
 26 27  1  0
 27 28  2  0
 16 29  1  0
 29 30  1  0
 30 31  1  0
 31 32  1  0
 20 14  1  0
 28 23  1  0
 32 15  1  0
 28 19  1  0
  1 33  1  0
  1 34  1  0
  1 35  1  0
  2 36  1  0
  2 37  1  0
  4 38  1  0
  4 39  1  0
  4 40  1  0
  5 41  1  0
  5 42  1  0
  6 43  1  0
  6 44  1  0
  8 45  1  0
  8 46  1  0
  9 47  1  0
  9 48  1  0
 11 49  1  0
 11 50  1  0
 12 51  1  0
 12 52  1  0
 13 53  1  0
 18 54  1  0
 18 55  1  0
 18 56  1  0
 21 57  1  0
 21 58  1  0
 22 59  1  0
 22 60  1  0
 24 61  1  0
 25 62  1  0
 26 63  1  0
 29 64  1  0
 29 65  1  0
 30 66  1  0
 30 67  1  0
 31 68  1  0
 31 69  1  0
 32 70  1  0
 32 71  1  0
M  CHG  1  17   1
M  END
>  <UniqueID>  (1) 
1

>  <SMILES>  (1) 
CCN(C)CCOCCOCCNc1c2c([n+](C)c3c1CCc1cccnc1-3)CCCC2

>  <Energy>  (1) 
103.31360282528927

>  <Genealogy>  (1) 
CCN(C)CCOCCOCCNc1c2c([n+](C)c3c1CCc1cccnc1-3)CCCC2 (3D coordinates assigned)
CCN(C)CCOCCOCCNc1c2c([n+](C)c3c1CCc1cccnc1-3)CCCC2 (nonaromatic ring conformer: 103.31360282528927 kcal/mol)

>  <smiles>  (1) 
CCN(C)CCOCCOCCNc1c2c([n+](C)c3c1CCc1cccnc1-3)CCCC2

>  <score_type>  (1) 
oracle

>  <origin>  (1) 
adg

>  <m_score__min__energy>  (1) 
-9.0899999999999999

>  <m_primary>  (1) 
energy

$$$$
1:0
     RDKit          3D

 34 35  0  0  0  0  0  0  0  0999 V2000
   -9.5580   20.9590  -31.9220 C   0  0  0  0  0  0  0  0  0  0  0  0
   -9.4480   19.6560  -32.7080 C   0  0  0  0  0  0  0  0  0  0  0  0
   -8.7020   18.5850  -31.9030 C   0  0  0  0  0  0  0  0  0  0  0  0
   -7.3620   18.2370  -32.5650 C   0  0  0  0  0  0  0  0  0  0  0  0
   -6.8290   19.3760  -33.4430 C   0  0  0  0  0  0  0  0  0  0  0  0
   -5.0420   19.6850  -33.1960 S   0  0  0  0  0  0  0  0  0  0  0  0
   -5.2620   21.2610  -32.3620 C   0  0  0  0  0  0  0  0  0  0  0  0
   -6.4770   21.7310  -31.9790 N   0  0  0  0  0  0  0  0  0  0  0  0
   -6.2000   22.8990  -31.3760 C   0  0  0  0  0  0  0  0  0  0  0  0
   -7.0640   23.7960  -30.7610 C   0  0  0  0  0  0  0  0  0  0  0  0
   -6.4900   24.9400  -30.1760 C   0  0  0  0  0  0  0  0  0  0  0  0
   -5.0870   25.1300  -30.2300 C   0  0  0  0  0  0  0  0  0  0  0  0
   -4.2830   24.2120  -30.8470 N   0  0  0  0  0  0  0  0  0  0  0  0
   -4.8580   23.1190  -31.4090 C   0  0  0  0  0  0  0  0  0  0  0  0
   -4.2440   22.1070  -32.0430 N   0  0  0  0  0  0  0  0  0  0  0  0
   -2.8100   21.9020  -32.2150 C   0  0  0  0  0  0  0  0  0  0  0  0
   -9.5395   20.7398  -30.8442 H   0  0  0  0  0  0  0  0  0  0  0  0
   -8.7119   21.6139  -32.1775 H   0  0  0  0  0  0  0  0  0  0  0  0
  -10.5019   21.4628  -32.1775 H   0  0  0  0  0  0  0  0  0  0  0  0
  -10.4591   19.2907  -32.9407 H   0  0  0  0  0  0  0  0  0  0  0  0
   -8.8849   19.8528  -33.6322 H   0  0  0  0  0  0  0  0  0  0  0  0
   -8.5144   18.9634  -30.8873 H   0  0  0  0  0  0  0  0  0  0  0  0
   -9.3222   17.6772  -31.8663 H   0  0  0  0  0  0  0  0  0  0  0  0
   -6.6242   18.0233  -31.7776 H   0  0  0  0  0  0  0  0  0  0  0  0
   -7.5255   17.3632  -33.2129 H   0  0  0  0  0  0  0  0  0  0  0  0
   -6.9980   19.1150  -34.4981 H   0  0  0  0  0  0  0  0  0  0  0  0
   -7.3661   20.2928  -33.1584 H   0  0  0  0  0  0  0  0  0  0  0  0
   -7.4090   21.2770  -32.1040 H   0  0  0  0  0  0  0  0  0  0  0  0
   -8.1494   23.6199  -30.7325 H   0  0  0  0  0  0  0  0  0  0  0  0
   -7.1287   25.6845  -29.6783 H   0  0  0  0  0  0  0  0  0  0  0  0
   -4.6403   26.0244  -29.7713 H   0  0  0  0  0  0  0  0  0  0  0  0
   -2.3285   21.8332  -31.2284 H   0  0  0  0  0  0  0  0  0  0  0  0
   -2.6372   20.9700  -32.7732 H   0  0  0  0  0  0  0  0  0  0  0  0
   -2.3830   22.7482  -32.7732 H   0  0  0  0  0  0  0  0  0  0  0  0
  1  2  1  0
  2  3  1  0
  3  4  1  0
  4  5  1  0
  5  6  1  0
  6  7  1  0
  7  8  2  0
  8  9  1  0
  9 10  2  0
 10 11  1  0
 11 12  2  0
 12 13  1  0
 13 14  2  0
 14 15  1  0
 15 16  1  0
 15  7  1  0
 14  9  1  0
  1 17  1  0
  1 18  1  0
  1 19  1  0
  2 20  1  0
  2 21  1  0
  3 22  1  0
  3 23  1  0
  4 24  1  0
  4 25  1  0
  5 26  1  0
  5 27  1  0
  8 28  1  0
 10 29  1  0
 11 30  1  0
 12 31  1  0
 16 32  1  0
 16 33  1  0
 16 34  1  0
M  CHG  1   8   1
M  END
>  <UniqueID>  (2) 
2

>  <SMILES>  (2) 
CCCCCSc1[nH+]c2cccnc2n1C

>  <Energy>  (2) 
62.044281099685385

>  <Genealogy>  (2) 
CCCCCSc1[nH+]c2cccnc2n1C (protonated)
CCCCCSc1[nH+]c2cccnc2n1C (3D coordinates assigned)
CCCCCSc1[nH+]c2cccnc2n1C (optimized conformer: 62.044281099685385 kcal/mol)

>  <smiles>  (2) 
CCCCCSc1nc2cccnc2n1C

>  <score_type>  (2) 
oracle

>  <origin>  (2) 
adg

>  <m_score__min__energy>  (2) 
-5.8700000000000001

>  <m_primary>  (2) 
energy

$$$$
2:0
     RDKit          3D

 53 55  0  0  0  0  0  0  0  0999 V2000
    0.3030   21.1740  -34.1350 C   0  0  0  0  0  0  0  0  0  0  0  0
   -1.1470   21.4440  -33.7070 C   0  0  0  0  0  0  0  0  0  0  0  0
   -1.8660   20.2540  -33.1870 N   0  0  0  0  0  0  0  0  0  0  0  0
   -3.1940   20.0700  -33.8100 C   0  0  0  0  0  0  0  0  0  0  0  0
   -3.6040   18.6030  -33.7520 C   0  0  0  0  0  0  0  0  0  0  0  0
   -1.9290   20.1890  -31.7090 C   0  0  0  0  0  0  0  0  0  0  0  0
   -0.8510   19.2680  -31.1300 C   0  0  0  0  0  0  0  0  0  0  0  0
    0.2410   20.1400  -29.9450 S   0  0  0  0  0  0  0  0  0  0  0  0
   -1.0550   21.1300  -29.1940 C   0  0  0  0  0  0  0  0  0  0  0  0
   -1.8140   20.6140  -28.1430 C   0  0  0  0  0  0  0  0  0  0  0  0
   -2.8170   21.3980  -27.5770 C   0  0  0  0  0  0  0  0  0  0  0  0
   -3.0430   22.6950  -28.0440 C   0  0  0  0  0  0  0  0  0  0  0  0
   -4.2440   23.6800  -27.2130 Cl  0  0  0  0  0  0  0  0  0  0  0  0
   -2.2460   23.1940  -29.0970 C   0  0  0  0  0  0  0  0  0  0  0  0
   -2.3850   24.5760  -29.5960 C   0  0  0  0  0  0  0  0  0  0  0  0
   -1.5070   25.4320  -29.3110 O   0  0  0  0  0  0  0  0  0  0  0  0
   -3.5040   24.9610  -30.3960 N   0  0  0  0  0  0  0  0  0  0  0  0
   -4.4610   23.9980  -30.8380 C   0  0  0  0  0  0  0  0  0  0  0  0
   -4.0800   22.5840  -31.6660 S   0  0  0  0  0  0  0  0  0  0  0  0
   -5.6690   22.0360  -31.7570 C   0  0  0  0  0  0  0  0  0  0  0  0
   -6.5190   22.9610  -31.1540 C   0  0  0  0  0  0  0  0  0  0  0  0
   -5.8320   24.0580  -30.6090 C   0  0  0  0  0  0  0  0  0  0  0  0
   -6.4590   25.0900  -29.8240 C   0  0  0  0  0  0  0  0  0  0  0  0
   -6.9660   25.9170  -29.1940 N   0  0  0  0  0  0  0  0  0  0  0  0
   -7.9960   22.7050  -31.0070 C   0  0  0  0  0  0  0  0  0  0  0  0
   -8.4870   21.6320  -31.9950 C   0  0  0  0  0  0  0  0  0  0  0  0
   -7.5490   20.4140  -32.0160 C   0  0  0  0  0  0  0  0  0  0  0  0
   -6.1360   20.8070  -32.4750 C   0  0  0  0  0  0  0  0  0  0  0  0
   -1.2760   22.4000  -29.6300 N   0  0  0  0  0  0  0  0  0  0  0  0
    0.9333   21.0566  -33.2412 H   0  0  0  0  0  0  0  0  0  0  0  0
    0.3427   20.2530  -34.7352 H   0  0  0  0  0  0  0  0  0  0  0  0
    0.6715   22.0190  -34.7352 H   0  0  0  0  0  0  0  0  0  0  0  0
   -1.1355   22.2106  -32.9182 H   0  0  0  0  0  0  0  0  0  0  0  0
   -1.6857   21.7655  -34.6106 H   0  0  0  0  0  0  0  0  0  0  0  0
   -3.9360   20.6763  -33.2697 H   0  0  0  0  0  0  0  0  0  0  0  0
   -3.1440   20.3874  -34.8620 H   0  0  0  0  0  0  0  0  0  0  0  0
   -3.6920   18.2881  -32.7017 H   0  0  0  0  0  0  0  0  0  0  0  0
   -4.5729   18.4729  -34.2562 H   0  0  0  0  0  0  0  0  0  0  0  0
   -2.8429   17.9894  -34.2562 H   0  0  0  0  0  0  0  0  0  0  0  0
   -1.7874   21.2012  -31.3024 H   0  0  0  0  0  0  0  0  0  0  0  0
   -2.9114   19.7818  -31.4278 H   0  0  0  0  0  0  0  0  0  0  0  0
   -1.3414   18.4317  -30.6103 H   0  0  0  0  0  0  0  0  0  0  0  0
   -0.2282   18.9115  -31.9636 H   0  0  0  0  0  0  0  0  0  0  0  0
   -1.6224   19.5988  -27.7653 H   0  0  0  0  0  0  0  0  0  0  0  0
   -3.4329   20.9944  -26.7598 H   0  0  0  0  0  0  0  0  0  0  0  0
   -8.1987   22.3647  -29.9808 H   0  0  0  0  0  0  0  0  0  0  0  0
   -8.5304   23.6418  -31.2235 H   0  0  0  0  0  0  0  0  0  0  0  0
   -9.4929   21.3033  -31.6949 H   0  0  0  0  0  0  0  0  0  0  0  0
   -8.5034   22.0724  -33.0028 H   0  0  0  0  0  0  0  0  0  0  0  0
   -7.4916   19.9881  -31.0034 H   0  0  0  0  0  0  0  0  0  0  0  0
   -7.9525   19.6765  -32.7253 H   0  0  0  0  0  0  0  0  0  0  0  0
   -5.4437   19.9792  -32.2618 H   0  0  0  0  0  0  0  0  0  0  0  0
   -6.1600   21.0157  -33.5547 H   0  0  0  0  0  0  0  0  0  0  0  0
  1  2  1  0
  2  3  1  0
  3  4  1  0
  4  5  1  0
  3  6  1  0
  6  7  1  0
  7  8  1  0
  8  9  1  0
  9 10  2  0
 10 11  1  0
 11 12  2  0
 12 13  1  0
 12 14  1  0
 14 15  1  0
 15 16  2  0
 15 17  1  0
 17 18  1  0
 18 19  1  0
 19 20  1  0
 20 21  2  0
 21 22  1  0
 22 23  1  0
 23 24  3  0
 21 25  1  0
 25 26  1  0
 26 27  1  0
 27 28  1  0
 14 29  2  0
 29  9  1  0
 22 18  2  0
 28 20  1  0
  1 30  1  0
  1 31  1  0
  1 32  1  0
  2 33  1  0
  2 34  1  0
  4 35  1  0
  4 36  1  0
  5 37  1  0
  5 38  1  0
  5 39  1  0
  6 40  1  0
  6 41  1  0
  7 42  1  0
  7 43  1  0
 10 44  1  0
 11 45  1  0
 25 46  1  0
 25 47  1  0
 26 48  1  0
 26 49  1  0
 27 50  1  0
 27 51  1  0
 28 52  1  0
 28 53  1  0
M  CHG  1  17  -1
M  END
>  <UniqueID>  (3) 
3

>  <SMILES>  (3) 
CCN(CC)CCSc1ccc(Cl)c(C(=O)[N-]c2sc3c(c2C#N)CCCC3)n1

>  <Energy>  (3) 
85.71197048391849

>  <Genealogy>  (3) 
CCN(CC)CCSc1ccc(Cl)c(C(=O)[N-]c2sc3c(c2C#N)CCCC3)n1 (protonated)
CCN(CC)CCSc1ccc(Cl)c(C(=O)[N-]c2sc3c(c2C#N)CCCC3)n1 (3D coordinates assigned)
CCN(CC)CCSc1ccc(Cl)c(C(=O)[N-]c2sc3c(c2C#N)CCCC3)n1 (nonaromatic ring conformer: 85.71197048391849 kcal/mol)

>  <smiles>  (3) 
CCN(CC)CCSc1ccc(Cl)c(C(=O)Nc2sc3c(c2C#N)CCCC3)n1

>  <score_type>  (3) 
oracle

>  <origin>  (3) 
adg

>  <m_score__min__energy>  (3) 
-10.039999999999999

>  <m_primary>  (3) 
energy

$$$$
3:0
     RDKit          3D

 50 52  0  0  0  0  0  0  0  0999 V2000
    0.0100   19.6640  -35.1590 C   0  0  0  0  0  0  0  0  0  0  0  0
    0.1430   21.1820  -35.3070 C   0  0  0  0  0  0  0  0  0  0  0  0
   -0.6160   21.9200  -34.2850 N   0  0  0  0  0  0  0  0  0  0  0  0
   -0.7230   21.1790  -33.0220 C   0  0  0  0  0  0  0  0  0  0  0  0
   -2.1900   21.0590  -32.6050 C   0  0  0  0  0  0  0  0  0  0  0  0
   -3.0610   20.8740  -33.7810 N   0  0  0  0  0  0  0  0  0  0  0  0
   -3.6580   19.5310  -33.8450 C   0  0  0  0  0  0  0  0  0  0  0  0
   -5.1010   19.5610  -33.4010 C   0  0  0  0  0  0  0  0  0  0  0  0
   -5.6780   20.8080  -33.0840 C   0  0  0  0  0  0  0  0  0  0  0  0
   -6.9910   20.8430  -32.6120 C   0  0  0  0  0  0  0  0  0  0  0  0
   -7.7230   19.7020  -32.4590 C   0  0  0  0  0  0  0  0  0  0  0  0
   -7.1920   18.4520  -32.7670 C   0  0  0  0  0  0  0  0  0  0  0  0
   -5.8720   18.3740  -33.2430 C   0  0  0  0  0  0  0  0  0  0  0  0
   -5.2230   16.7770  -33.6000 Cl  0  0  0  0  0  0  0  0  0  0  0  0
   -9.0880   20.0170  -31.9510 C   0  0  0  0  0  0  0  0  0  0  0  0
   -9.0890   21.5620  -31.8640 C   0  0  0  0  0  0  0  0  0  0  0  0
   -7.7450   21.9890  -32.2510 N   0  0  0  0  0  0  0  0  0  0  0  0
   -7.3340   23.3840  -32.4120 C   0  0  0  0  0  0  0  0  0  0  0  0
   -6.3120   23.7590  -31.3720 C   0  0  0  0  0  0  0  0  0  0  0  0
   -6.6700   24.5960  -30.3030 C   0  0  0  0  0  0  0  0  0  0  0  0
   -5.7160   24.9760  -29.3550 C   0  0  0  0  0  0  0  0  0  0  0  0
   -4.3980   24.5250  -29.4670 C   0  0  0  0  0  0  0  0  0  0  0  0
   -4.0340   23.6870  -30.5240 C   0  0  0  0  0  0  0  0  0  0  0  0
   -4.9850   23.3070  -31.4770 C   0  0  0  0  0  0  0  0  0  0  0  0
   -0.0131   19.4003  -34.0913 H   0  0  0  0  0  0  0  0  0  0  0  0
   -0.9209   19.3289  -35.6397 H   0  0  0  0  0  0  0  0  0  0  0  0
    0.8685   19.1721  -35.6397 H   0  0  0  0  0  0  0  0  0  0  0  0
    1.2057   21.4525  -35.2200 H   0  0  0  0  0  0  0  0  0  0  0  0
   -0.2673   21.4576  -36.2897 H   0  0  0  0  0  0  0  0  0  0  0  0
   -1.5780   22.1190  -34.6470 H   0  0  0  0  0  0  0  0  0  0  0  0
   -0.2988   20.1727  -33.1536 H   0  0  0  0  0  0  0  0  0  0  0  0
   -0.1696   21.7193  -32.2398 H   0  0  0  0  0  0  0  0  0  0  0  0
   -2.3036   20.1949  -31.9339 H   0  0  0  0  0  0  0  0  0  0  0  0
   -2.4855   21.9866  -32.0928 H   0  0  0  0  0  0  0  0  0  0  0  0
   -2.4650   20.9830  -34.6360 H   0  0  0  0  0  0  0  0  0  0  0  0
   -3.6074   19.1634  -34.8805 H   0  0  0  0  0  0  0  0  0  0  0  0
   -3.0973   18.8648  -33.1729 H   0  0  0  0  0  0  0  0  0  0  0  0
   -5.1029   21.7376  -33.2067 H   0  0  0  0  0  0  0  0  0  0  0  0
   -7.7955   17.5412  -32.6399 H   0  0  0  0  0  0  0  0  0  0  0  0
   -9.8599   19.6613  -32.6493 H   0  0  0  0  0  0  0  0  0  0  0  0
   -9.3114   19.5320  -30.9893 H   0  0  0  0  0  0  0  0  0  0  0  0
   -9.8367   21.9830  -32.5523 H   0  0  0  0  0  0  0  0  0  0  0  0
   -9.3456   21.9081  -30.8519 H   0  0  0  0  0  0  0  0  0  0  0  0
   -6.8977   23.5191  -33.4127 H   0  0  0  0  0  0  0  0  0  0  0  0
   -8.2163   24.0297  -32.2910 H   0  0  0  0  0  0  0  0  0  0  0  0
   -7.7060   24.9542  -30.2113 H   0  0  0  0  0  0  0  0  0  0  0  0
   -6.0030   25.6312  -28.5193 H   0  0  0  0  0  0  0  0  0  0  0  0
   -3.6473   24.8298  -28.7230 H   0  0  0  0  0  0  0  0  0  0  0  0
   -2.9984   23.3256  -30.6069 H   0  0  0  0  0  0  0  0  0  0  0  0
   -4.6934   22.6522  -32.3114 H   0  0  0  0  0  0  0  0  0  0  0  0
  1  2  1  0
  2  3  1  0
  3  4  1  0
  4  5  1  0
  5  6  1  0
  6  7  1  0
  7  8  1  0
  8  9  2  0
  9 10  1  0
 10 11  2  0
 11 12  1  0
 12 13  2  0
 13 14  1  0
 11 15  1  0
 15 16  1  0
 16 17  1  0
 17 18  1  0
 18 19  1  0
 19 20  2  0
 20 21  1  0
 21 22  2  0
 22 23  1  0
 23 24  2  0
 13  8  1  0
 24 19  1  0
 17 10  1  0
  1 25  1  0
  1 26  1  0
  1 27  1  0
  2 28  1  0
  2 29  1  0
  3 30  1  0
  4 31  1  0
  4 32  1  0
  5 33  1  0
  5 34  1  0
  6 35  1  0
  7 36  1  0
  7 37  1  0
  9 38  1  0
 12 39  1  0
 15 40  1  0
 15 41  1  0
 16 42  1  0
 16 43  1  0
 18 44  1  0
 18 45  1  0
 20 46  1  0
 21 47  1  0
 22 48  1  0
 23 49  1  0
 24 50  1  0
M  END
>  <UniqueID>  (4) 
4

>  <SMILES>  (4) 
CCNCCNCc1cc2c(cc1Cl)CCN2Cc1ccccc1

>  <Energy>  (4) 
56.8053861160246

>  <Genealogy>  (4) 
CCNCCNCc1cc2c(cc1Cl)CCN2Cc1ccccc1 (3D coordinates assigned)
CCNCCNCc1cc2c(cc1Cl)CCN2Cc1ccccc1 (nonaromatic ring conformer: 56.8053861160246 kcal/mol)

>  <smiles>  (4) 
CCNCCNCc1cc2c(cc1Cl)CCN2Cc1ccccc1

>  <score_type>  (4) 
oracle

>  <origin>  (4) 
adg

>  <m_score__min__energy>  (4) 
-9.0299999999999994

>  <m_primary>  (4) 
energy

$$$$
4:0
     RDKit          3D

 73 75  0  0  0  0  0  0  0  0999 V2000
    0.4920   18.8780  -28.2170 C   0  0  0  0  0  0  0  0  0  0  0  0
   -0.8110   18.7860  -27.4120 C   0  0  0  0  0  0  0  0  0  0  0  0
   -1.7460   19.8790  -27.7650 N   0  0  0  0  0  0  0  0  0  0  0  0
   -3.0870   19.6730  -27.1560 C   0  0  0  0  0  0  0  0  0  0  0  0
   -2.9800   18.7060  -25.9830 C   0  0  0  0  0  0  0  0  0  0  0  0
   -1.2220   21.2480  -27.5380 C   0  0  0  0  0  0  0  0  0  0  0  0
   -2.2900   22.3500  -27.5820 C   0  0  0  0  0  0  0  0  0  0  0  0
   -1.8510   23.4830  -26.8670 O   0  0  0  0  0  0  0  0  0  0  0  0
   -1.1430   24.3450  -27.7320 C   0  0  0  0  0  0  0  0  0  0  0  0
   -1.6850   24.2080  -29.1500 C   0  0  0  0  0  0  0  0  0  0  0  0
   -2.8130   25.0430  -29.3000 O   0  0  0  0  0  0  0  0  0  0  0  0
   -4.0060   24.2880  -29.2290 C   0  0  0  0  0  0  0  0  0  0  0  0
   -4.8000   24.4960  -30.5120 C   0  0  0  0  0  0  0  0  0  0  0  0
   -4.2190   23.7540  -31.5690 O   0  0  0  0  0  0  0  0  0  0  0  0
   -3.5350   22.6270  -31.0610 C   0  0  0  0  0  0  0  0  0  0  0  0
   -3.4910   21.5220  -32.1180 C   0  0  0  0  0  0  0  0  0  0  0  0
   -4.6230   21.6670  -33.0350 N   0  0  0  0  0  0  0  0  0  0  0  0
   -5.8190   20.8650  -32.9040 C   0  0  0  0  0  0  0  0  0  0  0  0
   -7.0370   21.4390  -32.4690 C   0  0  0  0  0  0  0  0  0  0  0  0
   -7.1570   22.8310  -32.2350 C   0  0  0  0  0  0  0  0  0  0  0  0
   -8.3730   23.3920  -31.8590 C   0  0  0  0  0  0  0  0  0  0  0  0
   -9.4940   22.5850  -31.7130 C   0  0  0  0  0  0  0  0  0  0  0  0
   -9.3910   21.2120  -31.8860 C   0  0  0  0  0  0  0  0  0  0  0  0
   -8.1630   20.5950  -32.2410 C   0  0  0  0  0  0  0  0  0  0  0  0
   -8.0440   19.2170  -32.3590 N   0  0  0  0  0  0  0  0  0  0  0  0
   -9.1240   18.3260  -31.8740 C   0  0  0  0  0  0  0  0  0  0  0  0
   -6.9100   18.6690  -32.9310 C   0  0  0  0  0  0  0  0  0  0  0  0
   -6.8220   17.2890  -33.2540 C   0  0  0  0  0  0  0  0  0  0  0  0
   -5.6680   16.7410  -33.8160 C   0  0  0  0  0  0  0  0  0  0  0  0
   -4.5900   17.5610  -34.1410 C   0  0  0  0  0  0  0  0  0  0  0  0
   -3.3410   16.9740  -34.7370 C   0  0  0  0  0  0  0  0  0  0  0  0
   -4.6570   18.9250  -33.8590 C   0  0  0  0  0  0  0  0  0  0  0  0
   -5.7890   19.4900  -33.2270 C   0  0  0  0  0  0  0  0  0  0  0  0
    1.3461   18.9383  -27.5265 H   0  0  0  0  0  0  0  0  0  0  0  0
    0.5953   17.9849  -28.8508 H   0  0  0  0  0  0  0  0  0  0  0  0
    0.4687   19.7767  -28.8508 H   0  0  0  0  0  0  0  0  0  0  0  0
   -1.2940   17.8205  -27.6230 H   0  0  0  0  0  0  0  0  0  0  0  0
   -0.5636   18.8752  -26.3439 H   0  0  0  0  0  0  0  0  0  0  0  0
   -3.4778   20.6374  -26.7994 H   0  0  0  0  0  0  0  0  0  0  0  0
   -3.7675   19.2529  -27.9113 H   0  0  0  0  0  0  0  0  0  0  0  0
   -3.0420   19.2668  -25.0387 H   0  0  0  0  0  0  0  0  0  0  0  0
   -3.8031   17.9779  -26.0318 H   0  0  0  0  0  0  0  0  0  0  0  0
   -2.0177   18.1754  -26.0318 H   0  0  0  0  0  0  0  0  0  0  0  0
   -0.7419   21.2732  -26.5486 H   0  0  0  0  0  0  0  0  0  0  0  0
   -0.5209   21.4566  -28.3596 H   0  0  0  0  0  0  0  0  0  0  0  0
   -2.4786   22.6315  -28.6285 H   0  0  0  0  0  0  0  0  0  0  0  0
   -3.2149   21.9718  -27.1220 H   0  0  0  0  0  0  0  0  0  0  0  0
   -1.2648   25.3843  -27.3928 H   0  0  0  0  0  0  0  0  0  0  0  0
   -0.0765   24.0759  -27.7219 H   0  0  0  0  0  0  0  0  0  0  0  0
   -0.9089   24.5056  -29.8705 H   0  0  0  0  0  0  0  0  0  0  0  0
   -1.9726   23.1626  -29.3356 H   0  0  0  0  0  0  0  0  0  0  0  0
   -3.7616   23.2216  -29.1151 H   0  0  0  0  0  0  0  0  0  0  0  0
   -4.6027   24.6153  -28.3648 H   0  0  0  0  0  0  0  0  0  0  0  0
   -5.8358   24.1595  -30.3576 H   0  0  0  0  0  0  0  0  0  0  0  0
   -4.7889   25.5645  -30.7733 H   0  0  0  0  0  0  0  0  0  0  0  0
   -2.5080   22.9149  -30.7918 H   0  0  0  0  0  0  0  0  0  0  0  0
   -4.0633   22.2547  -30.1709 H   0  0  0  0  0  0  0  0  0  0  0  0
   -2.5508   21.5955  -32.6842 H   0  0  0  0  0  0  0  0  0  0  0  0
   -3.5492   20.5422  -31.6215 H   0  0  0  0  0  0  0  0  0  0  0  0
   -4.6770   22.5970  -33.5010 H   0  0  0  0  0  0  0  0  0  0  0  0
   -6.2752   23.4780  -32.3524 H   0  0  0  0  0  0  0  0  0  0  0  0
   -8.4468   24.4744  -31.6773 H   0  0  0  0  0  0  0  0  0  0  0  0
  -10.4652   23.0351  -31.4598 H   0  0  0  0  0  0  0  0  0  0  0  0
  -10.2841   20.5856  -31.7444 H   0  0  0  0  0  0  0  0  0  0  0  0
   -9.1294   18.3215  -30.7740 H   0  0  0  0  0  0  0  0  0  0  0  0
  -10.0937   18.6903  -32.2440 H   0  0  0  0  0  0  0  0  0  0  0  0
   -8.9506   17.3047  -32.2440 H   0  0  0  0  0  0  0  0  0  0  0  0
   -7.6847   16.6358  -33.0564 H   0  0  0  0  0  0  0  0  0  0  0  0
   -5.6096   15.6585  -34.0028 H   0  0  0  0  0  0  0  0  0  0  0  0
   -2.6642   16.6559  -33.9303 H   0  0  0  0  0  0  0  0  0  0  0  0
   -3.6044   16.1054  -35.3584 H   0  0  0  0  0  0  0  0  0  0  0  0
   -2.8404   17.7311  -35.3584 H   0  0  0  0  0  0  0  0  0  0  0  0
   -3.8127   19.5744  -34.1336 H   0  0  0  0  0  0  0  0  0  0  0  0
  1  2  1  0
  2  3  1  0
  3  4  1  0
  4  5  1  0
  3  6  1  0
  6  7  1  0
  7  8  1  0
  8  9  1  0
  9 10  1  0
 10 11  1  0
 11 12  1  0
 12 13  1  0
 13 14  1  0
 14 15  1  0
 15 16  1  0
 16 17  1  0
 17 18  1  0
 18 19  2  0
 19 20  1  0
 20 21  2  0
 21 22  1  0
 22 23  2  0
 23 24  1  0
 24 25  2  0
 25 26  1  0
 25 27  1  0
 27 28  2  0
 28 29  1  0
 29 30  2  0
 30 31  1  0
 30 32  1  0
 32 33  2  0
 33 18  1  0
 24 19  1  0
 33 27  1  0
  1 34  1  0
  1 35  1  0
  1 36  1  0
  2 37  1  0
  2 38  1  0
  4 39  1  0
  4 40  1  0
  5 41  1  0
  5 42  1  0
  5 43  1  0
  6 44  1  0
  6 45  1  0
  7 46  1  0
  7 47  1  0
  9 48  1  0
  9 49  1  0
 10 50  1  0
 10 51  1  0
 12 52  1  0
 12 53  1  0
 13 54  1  0
 13 55  1  0
 15 56  1  0
 15 57  1  0
 16 58  1  0
 16 59  1  0
 17 60  1  0
 20 61  1  0
 21 62  1  0
 22 63  1  0
 23 64  1  0
 26 65  1  0
 26 66  1  0
 26 67  1  0
 28 68  1  0
 29 69  1  0
 31 70  1  0
 31 71  1  0
 31 72  1  0
 32 73  1  0
M  CHG  1  25   1
M  END
>  <UniqueID>  (5) 
5

>  <SMILES>  (5) 
CCN(CC)CCOCCOCCOCCNc1c2ccccc2[n+](C)c2ccc(C)cc12

>  <Energy>  (5) 
95.47427572632654

>  <Genealogy>  (5) 
CCN(CC)CCOCCOCCOCCNc1c2ccccc2[n+](C)c2ccc(C)cc12 (3D coordinates assigned)
CCN(CC)CCOCCOCCOCCNc1c2ccccc2[n+](C)c2ccc(C)cc12 (optimized conformer: 95.47427572632654 kcal/mol)

>  <smiles>  (5) 
CCN(CC)CCOCCOCCOCCNc1c2ccccc2[n+](C)c2ccc(C)cc12

>  <score_type>  (5) 
oracle

>  <origin>  (5) 
adg

>  <m_score__min__energy>  (5) 
-9.0099999999999998

>  <m_primary>  (5) 
energy

$$$$
5:0
     RDKit          3D

 59 61  0  0  0  0  0  0  0  0999 V2000
   -8.9740   22.5760  -31.6420 C   0  0  0  0  0  0  0  0  0  0  0  0
   -7.8640   23.4090  -32.2940 C   0  0  0  0  0  0  0  0  0  0  0  0
   -6.6300   23.4330  -31.4930 N   0  0  0  0  0  0  0  0  0  0  0  0
   -6.6760   24.4580  -30.4410 C   0  0  0  0  0  0  0  0  0  0  0  0
   -5.3470   25.2070  -30.3820 C   0  0  0  0  0  0  0  0  0  0  0  0
   -4.2770   24.3290  -30.8850 N   0  0  0  0  0  0  0  0  0  0  0  0
   -3.7560   23.4160  -29.8580 C   0  0  0  0  0  0  0  0  0  0  0  0
   -3.7570   21.9620  -30.3520 C   0  0  0  0  0  0  0  0  0  0  0  0
   -4.3940   21.8370  -31.6660 N   0  0  0  0  0  0  0  0  0  0  0  0
   -4.4740   20.5810  -32.3630 C   0  0  0  0  0  0  0  0  0  0  0  0
   -5.6770   19.8540  -32.3680 C   0  0  0  0  0  0  0  0  0  0  0  0
   -6.7730   20.2580  -31.5750 C   0  0  0  0  0  0  0  0  0  0  0  0
   -7.9520   19.5190  -31.5620 C   0  0  0  0  0  0  0  0  0  0  0  0
   -8.0570   18.3610  -32.3240 C   0  0  0  0  0  0  0  0  0  0  0  0
   -6.9900   17.9460  -33.1210 C   0  0  0  0  0  0  0  0  0  0  0  0
   -5.7890   18.6980  -33.1840 C   0  0  0  0  0  0  0  0  0  0  0  0
   -4.7400   18.3260  -34.0040 N   0  0  0  0  0  0  0  0  0  0  0  0
   -4.9570   17.3290  -35.0760 C   0  0  0  0  0  0  0  0  0  0  0  0
   -3.4930   18.8950  -33.8270 C   0  0  0  0  0  0  0  0  0  0  0  0
   -2.3310   18.3410  -34.4200 C   0  0  0  0  0  0  0  0  0  0  0  0
   -1.0670   18.9300  -34.2470 C   0  0  0  0  0  0  0  0  0  0  0  0
    0.0930   18.4030  -34.8420 O   0  0  0  0  0  0  0  0  0  0  0  0
    0.1600   17.1510  -35.5170 C   0  0  0  0  0  0  0  0  0  0  0  0
   -0.9370   20.0720  -33.4510 C   0  0  0  0  0  0  0  0  0  0  0  0
    0.3420   20.6280  -33.2920 O   0  0  0  0  0  0  0  0  0  0  0  0
    1.4470   19.9580  -32.6920 C   0  0  0  0  0  0  0  0  0  0  0  0
   -2.0700   20.6150  -32.8290 C   0  0  0  0  0  0  0  0  0  0  0  0
   -3.3470   20.0470  -33.0130 C   0  0  0  0  0  0  0  0  0  0  0  0
   -8.8867   22.6415  -30.5474 H   0  0  0  0  0  0  0  0  0  0  0  0
   -9.9549   22.9628  -31.9554 H   0  0  0  0  0  0  0  0  0  0  0  0
   -8.8767   21.5261  -31.9554 H   0  0  0  0  0  0  0  0  0  0  0  0
   -7.6352   22.9802  -33.2808 H   0  0  0  0  0  0  0  0  0  0  0  0
   -8.2283   24.4437  -32.3758 H   0  0  0  0  0  0  0  0  0  0  0  0
   -5.8130   23.6220  -32.1210 H   0  0  0  0  0  0  0  0  0  0  0  0
   -7.4855   25.1695  -30.6611 H   0  0  0  0  0  0  0  0  0  0  0  0
   -6.8594   23.9718  -29.4715 H   0  0  0  0  0  0  0  0  0  0  0  0
   -5.4056   26.1111  -31.0059 H   0  0  0  0  0  0  0  0  0  0  0  0
   -5.1308   25.4975  -29.3433 H   0  0  0  0  0  0  0  0  0  0  0  0
   -3.4840   24.9280  -31.2180 H   0  0  0  0  0  0  0  0  0  0  0  0
   -2.7256   23.7087  -29.6077 H   0  0  0  0  0  0  0  0  0  0  0  0
   -4.4053   23.4824  -28.9726 H   0  0  0  0  0  0  0  0  0  0  0  0
   -2.7176   21.6093  -30.4246 H   0  0  0  0  0  0  0  0  0  0  0  0
   -4.3293   21.3561  -29.6341 H   0  0  0  0  0  0  0  0  0  0  0  0
   -4.7290   22.7030  -32.1460 H   0  0  0  0  0  0  0  0  0  0  0  0
   -6.6940   21.1670  -30.9606 H   0  0  0  0  0  0  0  0  0  0  0  0
   -8.8020   19.8515  -30.9480 H   0  0  0  0  0  0  0  0  0  0  0  0
   -8.9844   17.7701  -32.2984 H   0  0  0  0  0  0  0  0  0  0  0  0
   -7.0814   17.0213  -33.7097 H   0  0  0  0  0  0  0  0  0  0  0  0
   -5.1705   16.3480  -34.6266 H   0  0  0  0  0  0  0  0  0  0  0  0
   -5.8085   17.6400  -35.6991 H   0  0  0  0  0  0  0  0  0  0  0  0
   -4.0533   17.2580  -35.6991 H   0  0  0  0  0  0  0  0  0  0  0  0
   -2.4206   17.4296  -35.0293 H   0  0  0  0  0  0  0  0  0  0  0  0
    0.2035   16.3377  -34.7776 H   0  0  0  0  0  0  0  0  0  0  0  0
   -0.7327   17.0261  -36.1474 H   0  0  0  0  0  0  0  0  0  0  0  0
    1.0610   17.1221  -36.1474 H   0  0  0  0  0  0  0  0  0  0  0  0
    1.3579   20.0120  -31.5969 H   0  0  0  0  0  0  0  0  0  0  0  0
    1.4524   18.9044  -33.0079 H   0  0  0  0  0  0  0  0  0  0  0  0
    2.3838   20.4403  -33.0079 H   0  0  0  0  0  0  0  0  0  0  0  0
   -1.9605   21.5005  -32.1856 H   0  0  0  0  0  0  0  0  0  0  0  0
  1  2  1  0
  2  3  1  0
  3  4  1  0
  4  5  1  0
  5  6  1  0
  6  7  1  0
  7  8  1  0
  8  9  1  0
  9 10  1  0
 10 11  2  0
 11 12  1  0
 12 13  2  0
 13 14  1  0
 14 15  2  0
 15 16  1  0
 16 17  2  0
 17 18  1  0
 17 19  1  0
 19 20  2  0
 20 21  1  0
 21 22  1  0
 22 23  1  0
 21 24  2  0
 24 25  1  0
 25 26  1  0
 24 27  1  0
 27 28  2  0
 28 10  1  0
 16 11  1  0
 28 19  1  0
  1 29  1  0
  1 30  1  0
  1 31  1  0
  2 32  1  0
  2 33  1  0
  3 34  1  0
  4 35  1  0
  4 36  1  0
  5 37  1  0
  5 38  1  0
  6 39  1  0
  7 40  1  0
  7 41  1  0
  8 42  1  0
  8 43  1  0
  9 44  1  0
 12 45  1  0
 13 46  1  0
 14 47  1  0
 15 48  1  0
 18 49  1  0
 18 50  1  0
 18 51  1  0
 20 52  1  0
 23 53  1  0
 23 54  1  0
 23 55  1  0
 26 56  1  0
 26 57  1  0
 26 58  1  0
 27 59  1  0
M  CHG  1  17   1
M  END
>  <UniqueID>  (6) 
6

>  <SMILES>  (6) 
CCNCCNCCNc1c2ccccc2[n+](C)c2cc(OC)c(OC)cc12

>  <Energy>  (6) 
79.38518489285035

>  <Genealogy>  (6) 
CCNCCNCCNc1c2ccccc2[n+](C)c2cc(OC)c(OC)cc12 (3D coordinates assigned)
CCNCCNCCNc1c2ccccc2[n+](C)c2cc(OC)c(OC)cc12 (optimized conformer: 79.38518489285035 kcal/mol)

>  <smiles>  (6) 
CCNCCNCCNc1c2ccccc2[n+](C)c2cc(OC)c(OC)cc12

>  <score_type>  (6) 
oracle

>  <origin>  (6) 
adg

>  <m_score__min__energy>  (6) 
-8.3300000000000001

>  <m_primary>  (6) 
energy

$$$$
6:0
     RDKit          3D

 73 75  0  0  0  0  0  0  0  0999 V2000
   -1.5480   25.0710  -28.5410 C   0  0  0  0  0  0  0  0  0  0  0  0
   -1.3020   23.7350  -29.2430 C   0  0  0  0  0  0  0  0  0  0  0  0
   -1.0870   22.6350  -28.2740 N   0  0  0  0  0  0  0  0  0  0  0  0
    0.2700   22.5910  -27.6730 C   0  0  0  0  0  0  0  0  0  0  0  0
    0.2870   22.7610  -26.1470 C   0  0  0  0  0  0  0  0  0  0  0  0
   -2.1590   22.5640  -27.2540 C   0  0  0  0  0  0  0  0  0  0  0  0
   -3.3890   21.8800  -27.8550 C   0  0  0  0  0  0  0  0  0  0  0  0
   -3.0690   20.5660  -28.2700 O   0  0  0  0  0  0  0  0  0  0  0  0
   -3.0490   19.6850  -27.1660 C   0  0  0  0  0  0  0  0  0  0  0  0
   -1.6860   19.0010  -27.0820 C   0  0  0  0  0  0  0  0  0  0  0  0
   -0.7050   19.7350  -27.8900 N   0  0  0  0  0  0  0  0  0  0  0  0
   -0.0800   18.8480  -28.8770 C   0  0  0  0  0  0  0  0  0  0  0  0
   -0.1600   19.4720  -30.2710 C   0  0  0  0  0  0  0  0  0  0  0  0
   -1.3810   20.2880  -30.3820 N   0  0  0  0  0  0  0  0  0  0  0  0
   -1.4270   21.0440  -31.6400 C   0  0  0  0  0  0  0  0  0  0  0  0
   -2.8880   21.2930  -32.0390 C   0  0  0  0  0  0  0  0  0  0  0  0
   -3.8520   20.6480  -31.1220 N   0  0  0  0  0  0  0  0  0  0  0  0
   -5.1840   21.2340  -31.2210 C   0  0  0  0  0  0  0  0  0  0  0  0
   -5.3870   22.6060  -30.8970 C   0  0  0  0  0  0  0  0  0  0  0  0
   -4.3340   23.4160  -30.4010 C   0  0  0  0  0  0  0  0  0  0  0  0
   -4.5510   24.7420  -30.0390 C   0  0  0  0  0  0  0  0  0  0  0  0
   -5.8170   25.2940  -30.1510 C   0  0  0  0  0  0  0  0  0  0  0  0
   -6.8680   24.5310  -30.6500 C   0  0  0  0  0  0  0  0  0  0  0  0
   -6.6720   23.1880  -31.0650 C   0  0  0  0  0  0  0  0  0  0  0  0
   -7.7030   22.4520  -31.6100 N   0  0  0  0  0  0  0  0  0  0  0  0
   -8.9300   23.1370  -32.0780 C   0  0  0  0  0  0  0  0  0  0  0  0
   -7.5840   21.0840  -31.7410 C   0  0  0  0  0  0  0  0  0  0  0  0
   -8.7190   20.2730  -32.0040 C   0  0  0  0  0  0  0  0  0  0  0  0
   -8.5990   18.9030  -32.2090 C   0  0  0  0  0  0  0  0  0  0  0  0
   -7.3530   18.3000  -32.1410 C   0  0  0  0  0  0  0  0  0  0  0  0
   -6.2250   19.0560  -31.8340 C   0  0  0  0  0  0  0  0  0  0  0  0
   -6.3140   20.4530  -31.5980 C   0  0  0  0  0  0  0  0  0  0  0  0
   -1.5208   24.9231  -27.4513 H   0  0  0  0  0  0  0  0  0  0  0  0
   -0.7668   25.7881  -28.8333 H   0  0  0  0  0  0  0  0  0  0  0  0
   -2.5334   25.4628  -28.8333 H   0  0  0  0  0  0  0  0  0  0  0  0
   -2.1757   23.4944  -29.8665 H   0  0  0  0  0  0  0  0  0  0  0  0
   -0.3936   23.8331  -29.8556 H   0  0  0  0  0  0  0  0  0  0  0  0
    0.7244   21.6194  -27.9172 H   0  0  0  0  0  0  0  0  0  0  0  0
    0.8298   23.4400  -28.0924 H   0  0  0  0  0  0  0  0  0  0  0  0
    0.1885   21.7761  -25.6672 H   0  0  0  0  0  0  0  0  0  0  0  0
    1.2360   23.2250  -25.8403 H   0  0  0  0  0  0  0  0  0  0  0  0
   -0.5514   23.4037  -25.8403 H   0  0  0  0  0  0  0  0  0  0  0  0
   -1.8039   21.9857  -26.3883 H   0  0  0  0  0  0  0  0  0  0  0  0
   -2.4258   23.5809  -26.9305 H   0  0  0  0  0  0  0  0  0  0  0  0
   -4.1860   21.8371  -27.0980 H   0  0  0  0  0  0  0  0  0  0  0  0
   -3.7276   22.4574  -28.7279 H   0  0  0  0  0  0  0  0  0  0  0  0
   -3.2317   20.2523  -26.2414 H   0  0  0  0  0  0  0  0  0  0  0  0
   -3.8330   18.9237  -27.2915 H   0  0  0  0  0  0  0  0  0  0  0  0
   -1.3526   18.9809  -26.0339 H   0  0  0  0  0  0  0  0  0  0  0  0
   -1.7734   17.9738  -27.4657 H   0  0  0  0  0  0  0  0  0  0  0  0
   -1.2200   20.4830  -28.4120 H   0  0  0  0  0  0  0  0  0  0  0  0
    0.9752   18.6916  -28.6086 H   0  0  0  0  0  0  0  0  0  0  0  0
   -0.6119   17.8852  -28.8830 H   0  0  0  0  0  0  0  0  0  0  0  0
    0.7214   20.1088  -30.4374 H   0  0  0  0  0  0  0  0  0  0  0  0
   -0.1870   18.6726  -31.0262 H   0  0  0  0  0  0  0  0  0  0  0  0
   -1.3940   20.9660  -29.5850 H   0  0  0  0  0  0  0  0  0  0  0  0
   -0.9147   22.0082  -31.5064 H   0  0  0  0  0  0  0  0  0  0  0  0
   -0.9260   20.4669  -32.4311 H   0  0  0  0  0  0  0  0  0  0  0  0
   -3.0727   22.3774  -32.0366 H   0  0  0  0  0  0  0  0  0  0  0  0
   -3.0373   20.8549  -33.0369 H   0  0  0  0  0  0  0  0  0  0  0  0
   -3.9110   19.6300  -31.3520 H   0  0  0  0  0  0  0  0  0  0  0  0
   -3.4810   20.6270  -30.1500 H   0  0  0  0  0  0  0  0  0  0  0  0
   -3.3258   22.9877  -30.3004 H   0  0  0  0  0  0  0  0  0  0  0  0
   -3.7166   25.3526  -29.6635 H   0  0  0  0  0  0  0  0  0  0  0  0
   -5.9912   26.3362  -29.8452 H   0  0  0  0  0  0  0  0  0  0  0  0
   -7.8706   24.9774  -30.7243 H   0  0  0  0  0  0  0  0  0  0  0  0
   -9.5199   23.4663  -31.2099 H   0  0  0  0  0  0  0  0  0  0  0  0
   -8.6529   24.0109  -32.6858 H   0  0  0  0  0  0  0  0  0  0  0  0
   -9.5285   22.4425  -32.6858 H   0  0  0  0  0  0  0  0  0  0  0  0
   -9.7148   20.7384  -32.0465 H   0  0  0  0  0  0  0  0  0  0  0  0
   -9.4922   18.2983  -32.4249 H   0  0  0  0  0  0  0  0  0  0  0  0
   -7.2550   17.2208  -32.3302 H   0  0  0  0  0  0  0  0  0  0  0  0
   -5.2447   18.5607  -31.7731 H   0  0  0  0  0  0  0  0  0  0  0  0
  1  2  1  0
  2  3  1  0
  3  4  1  0
  4  5  1  0
  3  6  1  0
  6  7  1  0
  7  8  1  0
  8  9  1  0
  9 10  1  0
 10 11  1  0
 11 12  1  0
 12 13  1  0
 13 14  1  0
 14 15  1  0
 15 16  1  0
 16 17  1  0
 17 18  1  0
 18 19  2  0
 19 20  1  0
 20 21  2  0
 21 22  1  0
 22 23  2  0
 23 24  1  0
 24 25  2  0
 25 26  1  0
 25 27  1  0
 27 28  2  0
 28 29  1  0
 29 30  2  0
 30 31  1  0
 31 32  2  0
 32 18  1  0
 24 19  1  0
 32 27  1  0
  1 33  1  0
  1 34  1  0
  1 35  1  0
  2 36  1  0
  2 37  1  0
  4 38  1  0
  4 39  1  0
  5 40  1  0
  5 41  1  0
  5 42  1  0
  6 43  1  0
  6 44  1  0
  7 45  1  0
  7 46  1  0
  9 47  1  0
  9 48  1  0
 10 49  1  0
 10 50  1  0
 11 51  1  0
 12 52  1  0
 12 53  1  0
 13 54  1  0
 13 55  1  0
 14 56  1  0
 15 57  1  0
 15 58  1  0
 16 59  1  0
 16 60  1  0
 17 61  1  0
 17 62  1  0
 20 63  1  0
 21 64  1  0
 22 65  1  0
 23 66  1  0
 26 67  1  0
 26 68  1  0
 26 69  1  0
 28 70  1  0
 29 71  1  0
 30 72  1  0
 31 73  1  0
M  CHG  2  17   1  25   1
M  END
>  <UniqueID>  (7) 
7

>  <SMILES>  (7) 
CCN(CC)CCOCCNCCNCC[NH2+]c1c2ccccc2[n+](C)c2ccccc12

>  <Energy>  (7) 
96.88789295243168

>  <Genealogy>  (7) 
CCN(CC)CCOCCNCCNCC[NH2+]c1c2ccccc2[n+](C)c2ccccc12 (protonated)
CCN(CC)CCOCCNCCNCC[NH2+]c1c2ccccc2[n+](C)c2ccccc12 (3D coordinates assigned)
CCN(CC)CCOCCNCCNCC[NH2+]c1c2ccccc2[n+](C)c2ccccc12 (optimized conformer: 96.88789295243168 kcal/mol)

>  <smiles>  (7) 
CCN(CC)CCOCCNCCNCCNc1c2ccccc2[n+](C)c2ccccc12

>  <score_type>  (7) 
oracle

>  <origin>  (7) 
adg

>  <m_score__min__energy>  (7) 
-9.7799999999999994

>  <m_primary>  (7) 
energy

$$$$
7:0
     RDKit          3D

 54 56  0  0  0  0  0  0  0  0999 V2000
   -8.8950   21.4150  -31.1170 C   0  0  0  0  0  0  0  0  0  0  0  0
   -8.1000   20.8840  -32.3080 C   0  0  0  0  0  0  0  0  0  0  0  0
   -8.0160   19.4160  -32.2700 N   0  0  0  0  0  0  0  0  0  0  0  0
   -9.0700   18.6780  -31.5640 C   0  0  0  0  0  0  0  0  0  0  0  0
   -6.9090   18.7030  -32.8820 C   0  0  0  0  0  0  0  0  0  0  0  0
   -6.3290   19.1670  -34.0790 C   0  0  0  0  0  0  0  0  0  0  0  0
   -5.2640   18.4840  -34.6720 C   0  0  0  0  0  0  0  0  0  0  0  0
   -4.7450   17.3240  -34.0790 C   0  0  0  0  0  0  0  0  0  0  0  0
   -3.5870   16.5890  -34.7220 C   0  0  0  0  0  0  0  0  0  0  0  0
   -2.2730   17.2600  -34.5590 N   0  0  0  0  0  0  0  0  0  0  0  0
   -1.2730   16.7690  -35.5190 C   0  0  0  0  0  0  0  0  0  0  0  0
   -1.7410   17.2120  -33.1800 C   0  0  0  0  0  0  0  0  0  0  0  0
   -1.8910   18.5370  -32.4890 C   0  0  0  0  0  0  0  0  0  0  0  0
   -1.2150   18.7710  -31.4500 O   0  0  0  0  0  0  0  0  0  0  0  0
   -2.8030   19.5200  -33.0070 N   0  0  0  0  0  0  0  0  0  0  0  0
   -3.0590   20.7880  -32.3810 C   0  0  0  0  0  0  0  0  0  0  0  0
   -2.0620   21.4640  -31.6520 C   0  0  0  0  0  0  0  0  0  0  0  0
   -2.3450   22.6820  -31.0270 C   0  0  0  0  0  0  0  0  0  0  0  0
   -3.6290   23.2260  -31.1100 C   0  0  0  0  0  0  0  0  0  0  0  0
   -4.6250   22.5650  -31.8380 C   0  0  0  0  0  0  0  0  0  0  0  0
   -4.3500   21.3390  -32.4510 C   0  0  0  0  0  0  0  0  0  0  0  0
   -5.8930   23.1470  -31.9410 O   0  0  0  0  0  0  0  0  0  0  0  0
   -6.1120   24.5080  -31.5620 C   0  0  0  0  0  0  0  0  0  0  0  0
   -5.2980   24.8490  -30.3080 C   0  0  0  0  0  0  0  0  0  0  0  0
   -3.9410   24.4280  -30.4680 O   0  0  0  0  0  0  0  0  0  0  0  0
   -5.3300   16.8420  -32.9000 C   0  0  0  0  0  0  0  0  0  0  0  0
   -6.3940   17.5240  -32.3050 C   0  0  0  0  0  0  0  0  0  0  0  0
   -8.4133   21.0933  -30.1819 H   0  0  0  0  0  0  0  0  0  0  0  0
   -8.9233   22.5140  -31.1557 H   0  0  0  0  0  0  0  0  0  0  0  0
   -9.9210   21.0202  -31.1557 H   0  0  0  0  0  0  0  0  0  0  0  0
   -8.5974   21.1924  -33.2394 H   0  0  0  0  0  0  0  0  0  0  0  0
   -7.0810   21.2958  -32.2623 H   0  0  0  0  0  0  0  0  0  0  0  0
   -8.9247   18.7798  -30.4784 H   0  0  0  0  0  0  0  0  0  0  0  0
  -10.0528   19.0863  -31.8422 H   0  0  0  0  0  0  0  0  0  0  0  0
   -9.0225   17.6148  -31.8422 H   0  0  0  0  0  0  0  0  0  0  0  0
   -6.7198   20.0793  -34.5532 H   0  0  0  0  0  0  0  0  0  0  0  0
   -4.8296   18.8588  -35.6105 H   0  0  0  0  0  0  0  0  0  0  0  0
   -3.5211   15.5878  -34.2711 H   0  0  0  0  0  0  0  0  0  0  0  0
   -3.7936   16.5580  -35.8020 H   0  0  0  0  0  0  0  0  0  0  0  0
   -0.4160   16.3482  -34.9727 H   0  0  0  0  0  0  0  0  0  0  0  0
   -1.7234   15.9896  -36.1512 H   0  0  0  0  0  0  0  0  0  0  0  0
   -0.9317   17.6020  -36.1512 H   0  0  0  0  0  0  0  0  0  0  0  0
   -2.2900   16.4473  -32.6109 H   0  0  0  0  0  0  0  0  0  0  0  0
   -0.6699   16.9668  -33.2302 H   0  0  0  0  0  0  0  0  0  0  0  0
   -3.2170   19.3540  -33.9510 H   0  0  0  0  0  0  0  0  0  0  0  0
   -1.0539   21.0309  -31.5738 H   0  0  0  0  0  0  0  0  0  0  0  0
   -1.5576   23.2114  -30.4705 H   0  0  0  0  0  0  0  0  0  0  0  0
   -5.1462   20.8042  -32.9896 H   0  0  0  0  0  0  0  0  0  0  0  0
   -5.8031   25.1683  -32.3858 H   0  0  0  0  0  0  0  0  0  0  0  0
   -7.1808   24.6513  -31.3447 H   0  0  0  0  0  0  0  0  0  0  0  0
   -5.3237   25.9363  -30.1432 H   0  0  0  0  0  0  0  0  0  0  0  0
   -5.7354   24.3267  -29.4443 H   0  0  0  0  0  0  0  0  0  0  0  0
   -4.9480   15.9190  -32.4394 H   0  0  0  0  0  0  0  0  0  0  0  0
   -6.8355   17.1366  -31.3750 H   0  0  0  0  0  0  0  0  0  0  0  0
  1  2  1  0
  2  3  1  0
  3  4  1  0
  3  5  1  0
  5  6  2  0
  6  7  1  0
  7  8  2  0
  8  9  1  0
  9 10  1  0
 10 11  1  0
 10 12  1  0
 12 13  1  0
 13 14  2  0
 13 15  1  0
 15 16  1  0
 16 17  2  0
 17 18  1  0
 18 19  2  0
 19 20  1  0
 20 21  2  0
 20 22  1  0
 22 23  1  0
 23 24  1  0
 24 25  1  0
  8 26  1  0
 26 27  2  0
 27  5  1  0
 21 16  1  0
 25 19  1  0
  1 28  1  0
  1 29  1  0
  1 30  1  0
  2 31  1  0
  2 32  1  0
  4 33  1  0
  4 34  1  0
  4 35  1  0
  6 36  1  0
  7 37  1  0
  9 38  1  0
  9 39  1  0
 11 40  1  0
 11 41  1  0
 11 42  1  0
 12 43  1  0
 12 44  1  0
 15 45  1  0
 17 46  1  0
 18 47  1  0
 21 48  1  0
 23 49  1  0
 23 50  1  0
 24 51  1  0
 24 52  1  0
 26 53  1  0
 27 54  1  0
M  END
>  <UniqueID>  (8) 
8

>  <SMILES>  (8) 
CCN(C)c1ccc(CN(C)CC(=O)Nc2ccc3c(c2)OCCO3)cc1

>  <Energy>  (8) 
61.446439821633064

>  <Genealogy>  (8) 
CCN(C)c1ccc(CN(C)CC(=O)Nc2ccc3c(c2)OCCO3)cc1 (3D coordinates assigned)
CCN(C)c1ccc(CN(C)CC(=O)Nc2ccc3c(c2)OCCO3)cc1 (nonaromatic ring conformer: 61.446439821633064 kcal/mol)

>  <smiles>  (8) 
CCN(C)c1ccc(CN(C)CC(=O)Nc2ccc3c(c2)OCCO3)cc1

>  <score_type>  (8) 
oracle

>  <origin>  (8) 
adg

>  <m_score__min__energy>  (8) 
-8.5299999999999994

>  <m_primary>  (8) 
energy

$$$$
8:0
     RDKit          3D

 53 55  0  0  0  0  0  0  0  0999 V2000
   -3.7560   24.4460  -27.0970 C   0  0  0  0  0  0  0  0  0  0  0  0
   -2.6620   24.5180  -28.1550 C   0  0  0  0  0  0  0  0  0  0  0  0
   -3.2740   24.4590  -29.5040 N   0  0  0  0  0  0  0  0  0  0  0  0
   -2.8410   23.2540  -30.2290 C   0  0  0  0  0  0  0  0  0  0  0  0
   -4.7520   24.5260  -29.4600 C   0  0  0  0  0  0  0  0  0  0  0  0
   -5.3500   24.6130  -30.8720 C   0  0  0  0  0  0  0  0  0  0  0  0
   -6.3690   23.4960  -31.1310 C   0  0  0  0  0  0  0  0  0  0  0  0
   -6.1460   22.9040  -32.4480 N   0  0  0  0  0  0  0  0  0  0  0  0
   -5.9950   21.4800  -32.5900 C   0  0  0  0  0  0  0  0  0  0  0  0
   -7.1120   20.6350  -32.4660 C   0  0  0  0  0  0  0  0  0  0  0  0
   -8.4110   21.1710  -32.3380 C   0  0  0  0  0  0  0  0  0  0  0  0
   -9.5210   20.3340  -32.2510 C   0  0  0  0  0  0  0  0  0  0  0  0
   -9.3590   18.9560  -32.3150 C   0  0  0  0  0  0  0  0  0  0  0  0
   -8.0870   18.4040  -32.4500 C   0  0  0  0  0  0  0  0  0  0  0  0
   -6.9320   19.2280  -32.5010 C   0  0  0  0  0  0  0  0  0  0  0  0
   -5.6600   18.6940  -32.6010 N   0  0  0  0  0  0  0  0  0  0  0  0
   -5.4410   17.2530  -32.3450 C   0  0  0  0  0  0  0  0  0  0  0  0
   -4.5910   19.5110  -32.9180 C   0  0  0  0  0  0  0  0  0  0  0  0
   -3.3320   18.9770  -33.2940 C   0  0  0  0  0  0  0  0  0  0  0  0
   -2.2320   19.8010  -33.5440 C   0  0  0  0  0  0  0  0  0  0  0  0
   -1.0150   19.1990  -33.8980 O   0  0  0  0  0  0  0  0  0  0  0  0
    0.2380   19.8740  -33.9280 C   0  0  0  0  0  0  0  0  0  0  0  0
   -2.3780   21.1900  -33.4360 C   0  0  0  0  0  0  0  0  0  0  0  0
   -3.6150   21.7420  -33.1160 C   0  0  0  0  0  0  0  0  0  0  0  0
   -4.7360   20.9210  -32.8780 C   0  0  0  0  0  0  0  0  0  0  0  0
   -3.3007   24.4760  -26.0961 H   0  0  0  0  0  0  0  0  0  0  0  0
   -4.4376   25.3012  -27.2155 H   0  0  0  0  0  0  0  0  0  0  0  0
   -4.3196   23.5088  -27.2155 H   0  0  0  0  0  0  0  0  0  0  0  0
   -2.1072   25.4615  -28.0451 H   0  0  0  0  0  0  0  0  0  0  0  0
   -1.9728   23.6702  -28.0278 H   0  0  0  0  0  0  0  0  0  0  0  0
   -2.5603   22.4728  -29.5072 H   0  0  0  0  0  0  0  0  0  0  0  0
   -3.6647   22.8904  -30.8609 H   0  0  0  0  0  0  0  0  0  0  0  0
   -1.9743   23.4979  -30.8609 H   0  0  0  0  0  0  0  0  0  0  0  0
   -5.1368   23.6232  -28.9631 H   0  0  0  0  0  0  0  0  0  0  0  0
   -5.0417   25.4301  -28.9044 H   0  0  0  0  0  0  0  0  0  0  0  0
   -5.8513   25.5854  -30.9867 H   0  0  0  0  0  0  0  0  0  0  0  0
   -4.5303   24.5017  -31.5970 H   0  0  0  0  0  0  0  0  0  0  0  0
   -6.2598   22.7188  -30.3602 H   0  0  0  0  0  0  0  0  0  0  0  0
   -7.3832   23.9205  -31.0957 H   0  0  0  0  0  0  0  0  0  0  0  0
   -5.8340   23.5280  -33.2250 H   0  0  0  0  0  0  0  0  0  0  0  0
   -8.5486   22.2619  -32.3066 H   0  0  0  0  0  0  0  0  0  0  0  0
  -10.5262   20.7645  -32.1316 H   0  0  0  0  0  0  0  0  0  0  0  0
  -10.2386   18.2979  -32.2589 H   0  0  0  0  0  0  0  0  0  0  0  0
   -7.9757   17.3118  -32.5182 H   0  0  0  0  0  0  0  0  0  0  0  0
   -5.4137   17.0733  -31.2601 H   0  0  0  0  0  0  0  0  0  0  0  0
   -6.2612   16.6723  -32.7923 H   0  0  0  0  0  0  0  0  0  0  0  0
   -4.4853   16.9422  -32.7923 H   0  0  0  0  0  0  0  0  0  0  0  0
   -3.2189   17.8871  -33.3911 H   0  0  0  0  0  0  0  0  0  0  0  0
    0.5800   20.0582  -32.8989 H   0  0  0  0  0  0  0  0  0  0  0  0
    0.9771   19.2520  -34.4542 H   0  0  0  0  0  0  0  0  0  0  0  0
    0.1252   20.8334  -34.4542 H   0  0  0  0  0  0  0  0  0  0  0  0
   -1.5119   21.8468  -33.6047 H   0  0  0  0  0  0  0  0  0  0  0  0
   -3.7194   22.8349  -33.0478 H   0  0  0  0  0  0  0  0  0  0  0  0
  1  2  1  0
  2  3  1  0
  3  4  1  0
  3  5  1  0
  5  6  1  0
  6  7  1  0
  7  8  1  0
  8  9  1  0
  9 10  2  0
 10 11  1  0
 11 12  2  0
 12 13  1  0
 13 14  2  0
 14 15  1  0
 15 16  2  0
 16 17  1  0
 16 18  1  0
 18 19  2  0
 19 20  1  0
 20 21  1  0
 21 22  1  0
 20 23  2  0
 23 24  1  0
 24 25  2  0
 25  9  1  0
 15 10  1  0
 25 18  1  0
  1 26  1  0
  1 27  1  0
  1 28  1  0
  2 29  1  0
  2 30  1  0
  4 31  1  0
  4 32  1  0
  4 33  1  0
  5 34  1  0
  5 35  1  0
  6 36  1  0
  6 37  1  0
  7 38  1  0
  7 39  1  0
  8 40  1  0
 11 41  1  0
 12 42  1  0
 13 43  1  0
 14 44  1  0
 17 45  1  0
 17 46  1  0
 17 47  1  0
 19 48  1  0
 22 49  1  0
 22 50  1  0
 22 51  1  0
 23 52  1  0
 24 53  1  0
M  CHG  1  16   1
M  END
>  <UniqueID>  (9) 
9

>  <SMILES>  (9) 
CCN(C)CCCNc1c2ccccc2[n+](C)c2cc(OC)ccc12

>  <Energy>  (9) 
74.77745688452585

>  <Genealogy>  (9) 
CCN(C)CCCNc1c2ccccc2[n+](C)c2cc(OC)ccc12 (3D coordinates assigned)
CCN(C)CCCNc1c2ccccc2[n+](C)c2cc(OC)ccc12 (optimized conformer: 74.77745688452585 kcal/mol)

>  <smiles>  (9) 
CCN(C)CCCNc1c2ccccc2[n+](C)c2cc(OC)ccc12

>  <score_type>  (9) 
oracle

>  <origin>  (9) 
adg

>  <m_score__min__energy>  (9) 
-8.6300000000000008

>  <m_primary>  (9) 
energy

$$$$
9:0
     RDKit          3D

 33 33  0  0  0  0  0  0  0  0999 V2000
   -3.9440   24.1690  -28.7370 C   0  0  0  0  0  0  0  0  0  0  0  0
   -3.9390   23.6280  -30.1580 C   0  0  0  0  0  0  0  0  0  0  0  0
   -4.6150   24.5370  -31.0030 O   0  0  0  0  0  0  0  0  0  0  0  0
   -5.8520   24.9200  -30.4310 C   0  0  0  0  0  0  0  0  0  0  0  0
   -6.7930   23.7160  -30.3610 C   0  0  0  0  0  0  0  0  0  0  0  0
   -7.6370   23.4320  -31.9580 S   0  0  0  0  0  0  0  0  0  0  0  0
   -6.6730   21.9720  -32.3980 C   0  0  0  0  0  0  0  0  0  0  0  0
   -5.3390   22.1130  -32.6330 N   0  0  0  0  0  0  0  0  0  0  0  0
   -4.5510   21.0540  -32.9710 C   0  0  0  0  0  0  0  0  0  0  0  0
   -3.0760   21.2450  -33.1730 C   0  0  0  0  0  0  0  0  0  0  0  0
   -5.1090   19.7740  -33.0630 C   0  0  0  0  0  0  0  0  0  0  0  0
   -6.4810   19.5920  -32.8460 C   0  0  0  0  0  0  0  0  0  0  0  0
   -7.0770   18.2130  -32.9670 C   0  0  0  0  0  0  0  0  0  0  0  0
   -7.2790   20.7070  -32.5180 C   0  0  0  0  0  0  0  0  0  0  0  0
   -8.7040   20.5560  -32.3140 C   0  0  0  0  0  0  0  0  0  0  0  0
   -9.8430   20.4340  -32.1490 N   0  0  0  0  0  0  0  0  0  0  0  0
   -3.9362   23.3303  -28.0253 H   0  0  0  0  0  0  0  0  0  0  0  0
   -3.0516   24.7924  -28.5788 H   0  0  0  0  0  0  0  0  0  0  0  0
   -4.8478   24.7758  -28.5788 H   0  0  0  0  0  0  0  0  0  0  0  0
   -2.9012   23.5075  -30.5023 H   0  0  0  0  0  0  0  0  0  0  0  0
   -4.4457   22.6520  -30.1840 H   0  0  0  0  0  0  0  0  0  0  0  0
   -5.6794   25.3066  -29.4157 H   0  0  0  0  0  0  0  0  0  0  0  0
   -6.3114   25.7006  -31.0552 H   0  0  0  0  0  0  0  0  0  0  0  0
   -6.2093   22.8207  -30.1010 H   0  0  0  0  0  0  0  0  0  0  0  0
   -7.5582   23.9197  -29.5975 H   0  0  0  0  0  0  0  0  0  0  0  0
   -4.9100   23.0620  -32.5420 H   0  0  0  0  0  0  0  0  0  0  0  0
   -2.5773   21.3096  -32.1947 H   0  0  0  0  0  0  0  0  0  0  0  0
   -2.6695   20.3920  -33.7362 H   0  0  0  0  0  0  0  0  0  0  0  0
   -2.9002   22.1734  -33.7362 H   0  0  0  0  0  0  0  0  0  0  0  0
   -4.4709   18.9115  -33.3055 H   0  0  0  0  0  0  0  0  0  0  0  0
   -7.2550   17.8011  -31.9627 H   0  0  0  0  0  0  0  0  0  0  0  0
   -8.0299   18.2720  -33.5133 H   0  0  0  0  0  0  0  0  0  0  0  0
   -6.3810   17.5594  -33.5133 H   0  0  0  0  0  0  0  0  0  0  0  0
  1  2  1  0
  2  3  1  0
  3  4  1  0
  4  5  1  0
  5  6  1  0
  6  7  1  0
  7  8  2  0
  8  9  1  0
  9 10  1  0
  9 11  2  0
 11 12  1  0
 12 13  1  0
 12 14  2  0
 14 15  1  0
 15 16  3  0
 14  7  1  0
  1 17  1  0
  1 18  1  0
  1 19  1  0
  2 20  1  0
  2 21  1  0
  4 22  1  0
  4 23  1  0
  5 24  1  0
  5 25  1  0
  8 26  1  0
 10 27  1  0
 10 28  1  0
 10 29  1  0
 11 30  1  0
 13 31  1  0
 13 32  1  0
 13 33  1  0
M  CHG  1   8   1
M  END
>  <UniqueID>  (10) 
10

>  <SMILES>  (10) 
CCOCCSc1[nH+]c(C)cc(C)c1C#N

>  <Energy>  (10) 
24.170514485519767

>  <Genealogy>  (10) 
CCOCCSc1[nH+]c(C)cc(C)c1C#N (protonated)
CCOCCSc1[nH+]c(C)cc(C)c1C#N (3D coordinates assigned)
CCOCCSc1[nH+]c(C)cc(C)c1C#N (optimized conformer: 24.170514485519767 kcal/mol)

>  <smiles>  (10) 
CCOCCSc1nc(C)cc(C)c1C#N

>  <score_type>  (10) 
oracle

>  <origin>  (10) 
adg

>  <m_score__min__energy>  (10) 
-5.5099999999999998

>  <m_primary>  (10) 
energy

$$$$
10:0
     RDKit          3D

 55 57  0  0  0  0  0  0  0  0999 V2000
   -3.2010   23.4720  -27.5020 C   0  0  0  0  0  0  0  0  0  0  0  0
   -3.9410   23.9150  -28.7680 C   0  0  0  0  0  0  0  0  0  0  0  0
   -5.0480   24.8440  -28.4770 N   0  0  0  0  0  0  0  0  0  0  0  0
   -5.7350   25.2860  -29.7050 C   0  0  0  0  0  0  0  0  0  0  0  0
   -5.4480   24.3510  -30.8920 C   0  0  0  0  0  0  0  0  0  0  0  0
   -6.6570   23.4870  -31.2730 C   0  0  0  0  0  0  0  0  0  0  0  0
   -6.4530   22.8650  -32.5800 N   0  0  0  0  0  0  0  0  0  0  0  0
   -6.1620   21.4640  -32.7120 C   0  0  0  0  0  0  0  0  0  0  0  0
   -7.1810   20.5070  -32.5670 C   0  0  0  0  0  0  0  0  0  0  0  0
   -8.4750   20.8860  -32.1500 C   0  0  0  0  0  0  0  0  0  0  0  0
   -9.4720   19.9320  -31.9710 C   0  0  0  0  0  0  0  0  0  0  0  0
   -9.1940   18.5860  -32.1810 C   0  0  0  0  0  0  0  0  0  0  0  0
   -7.9200   18.1870  -32.5850 C   0  0  0  0  0  0  0  0  0  0  0  0
   -6.8920   19.1380  -32.8110 C   0  0  0  0  0  0  0  0  0  0  0  0
   -5.6310   18.7610  -33.2330 N   0  0  0  0  0  0  0  0  0  0  0  0
   -5.4090   17.4020  -33.7750 C   0  0  0  0  0  0  0  0  0  0  0  0
   -4.5830   19.6610  -33.1680 C   0  0  0  0  0  0  0  0  0  0  0  0
   -3.2330   19.2490  -33.3140 C   0  0  0  0  0  0  0  0  0  0  0  0
   -2.1710   20.1720  -33.3090 C   0  0  0  0  0  0  0  0  0  0  0  0
   -0.7980   19.7310  -33.4710 N   0  0  0  0  0  0  0  0  0  0  0  0
    0.2730   20.3170  -32.6560 C   0  0  0  0  0  0  0  0  0  0  0  0
   -0.4570   18.6910  -34.4490 C   0  0  0  0  0  0  0  0  0  0  0  0
   -2.4680   21.5330  -33.1390 C   0  0  0  0  0  0  0  0  0  0  0  0
   -3.7790   21.9570  -32.9500 C   0  0  0  0  0  0  0  0  0  0  0  0
   -4.8430   21.0360  -32.9410 C   0  0  0  0  0  0  0  0  0  0  0  0
   -3.7593   23.8062  -26.6151 H   0  0  0  0  0  0  0  0  0  0  0  0
   -3.1175   22.3752  -27.4909 H   0  0  0  0  0  0  0  0  0  0  0  0
   -2.1948   23.9165  -27.4909 H   0  0  0  0  0  0  0  0  0  0  0  0
   -3.2264   24.4160  -29.4376 H   0  0  0  0  0  0  0  0  0  0  0  0
   -4.3713   23.0173  -29.2359 H   0  0  0  0  0  0  0  0  0  0  0  0
   -5.7340   24.3350  -27.8730 H   0  0  0  0  0  0  0  0  0  0  0  0
   -4.6930   25.6700  -27.9410 H   0  0  0  0  0  0  0  0  0  0  0  0
   -6.8191   25.3024  -29.5195 H   0  0  0  0  0  0  0  0  0  0  0  0
   -5.3611   26.2879  -29.9626 H   0  0  0  0  0  0  0  0  0  0  0  0
   -5.1653   24.9629  -31.7612 H   0  0  0  0  0  0  0  0  0  0  0  0
   -4.6370   23.6718  -30.5905 H   0  0  0  0  0  0  0  0  0  0  0  0
   -6.7926   22.7008  -30.5157 H   0  0  0  0  0  0  0  0  0  0  0  0
   -7.5500   24.1276  -31.3204 H   0  0  0  0  0  0  0  0  0  0  0  0
   -6.5790   23.4400  -33.4450 H   0  0  0  0  0  0  0  0  0  0  0  0
   -8.6978   21.9471  -31.9645 H   0  0  0  0  0  0  0  0  0  0  0  0
  -10.4812   20.2431  -31.6630 H   0  0  0  0  0  0  0  0  0  0  0  0
   -9.9814   17.8333  -32.0280 H   0  0  0  0  0  0  0  0  0  0  0  0
   -7.7090   17.1173  -32.7308 H   0  0  0  0  0  0  0  0  0  0  0  0
   -5.2928   16.6904  -32.9443 H   0  0  0  0  0  0  0  0  0  0  0  0
   -6.2710   17.1079  -34.3918 H   0  0  0  0  0  0  0  0  0  0  0  0
   -4.4982   17.3975  -34.3918 H   0  0  0  0  0  0  0  0  0  0  0  0
   -3.0106   18.1785  -33.4344 H   0  0  0  0  0  0  0  0  0  0  0  0
    0.0354   20.1870  -31.5899 H   0  0  0  0  0  0  0  0  0  0  0  0
    1.2242   19.8137  -32.8837 H   0  0  0  0  0  0  0  0  0  0  0  0
    0.3620   21.3895  -32.8837 H   0  0  0  0  0  0  0  0  0  0  0  0
   -0.1565   17.7746  -33.9200 H   0  0  0  0  0  0  0  0  0  0  0  0
   -1.3329   18.4797  -35.0800 H   0  0  0  0  0  0  0  0  0  0  0  0
    0.3740   19.0393  -35.0800 H   0  0  0  0  0  0  0  0  0  0  0  0
   -1.6544   22.2731  -33.1554 H   0  0  0  0  0  0  0  0  0  0  0  0
   -3.9872   23.0274  -32.8055 H   0  0  0  0  0  0  0  0  0  0  0  0
  1  2  1  0
  2  3  1  0
  3  4  1  0
  4  5  1  0
  5  6  1  0
  6  7  1  0
  7  8  1  0
  8  9  2  0
  9 10  1  0
 10 11  2  0
 11 12  1  0
 12 13  2  0
 13 14  1  0
 14 15  2  0
 15 16  1  0
 15 17  1  0
 17 18  2  0
 18 19  1  0
 19 20  1  0
 20 21  1  0
 20 22  1  0
 19 23  2  0
 23 24  1  0
 24 25  2  0
 25  8  1  0
 14  9  1  0
 25 17  1  0
  1 26  1  0
  1 27  1  0
  1 28  1  0
  2 29  1  0
  2 30  1  0
  3 31  1  0
  3 32  1  0
  4 33  1  0
  4 34  1  0
  5 35  1  0
  5 36  1  0
  6 37  1  0
  6 38  1  0
  7 39  1  0
 10 40  1  0
 11 41  1  0
 12 42  1  0
 13 43  1  0
 16 44  1  0
 16 45  1  0
 16 46  1  0
 18 47  1  0
 21 48  1  0
 21 49  1  0
 21 50  1  0
 22 51  1  0
 22 52  1  0
 22 53  1  0
 23 54  1  0
 24 55  1  0
M  CHG  2   3   1  15   1
M  END
>  <UniqueID>  (11) 
11

>  <SMILES>  (11) 
CC[NH2+]CCCNc1c2ccccc2[n+](C)c2cc(N(C)C)ccc12

>  <Energy>  (11) 
78.54518412702882

>  <Genealogy>  (11) 
CC[NH2+]CCCNc1c2ccccc2[n+](C)c2cc(N(C)C)ccc12 (protonated)
CC[NH2+]CCCNc1c2ccccc2[n+](C)c2cc(N(C)C)ccc12 (3D coordinates assigned)
CC[NH2+]CCCNc1c2ccccc2[n+](C)c2cc(N(C)C)ccc12 (optimized conformer: 78.54518412702882 kcal/mol)

>  <smiles>  (11) 
CCNCCCNc1c2ccccc2[n+](C)c2cc(N(C)C)ccc12

>  <score_type>  (11) 
oracle

>  <origin>  (11) 
adg

>  <m_score__min__energy>  (11) 
-7.6699999999999999

>  <m_primary>  (11) 
energy

$$$$
11:0
     RDKit          3D

 43 43  0  0  0  0  0  0  0  0999 V2000
   -4.4680   20.7980  -31.1780 C   0  0  0  0  0  0  0  0  0  0  0  0
   -3.1280   21.7450  -31.8640 S   0  0  0  0  0  0  0  0  0  0  0  0
   -2.6470   21.1410  -33.4680 C   0  0  0  0  0  0  0  0  0  0  0  0
   -1.7450   21.9590  -30.7470 C   0  0  0  0  0  0  0  0  0  0  0  0
   -2.1120   22.6580  -29.4290 C   0  0  0  0  0  0  0  0  0  0  0  0
   -1.6230   24.1130  -29.3440 C   0  0  0  0  0  0  0  0  0  0  0  0
   -2.7480   25.0400  -29.3110 N   0  0  0  0  0  0  0  0  0  0  0  0
   -3.9060   24.9090  -30.1410 C   0  0  0  0  0  0  0  0  0  0  0  0
   -4.0290   25.6170  -31.1790 O   0  0  0  0  0  0  0  0  0  0  0  0
   -4.9990   23.9710  -29.7300 C   0  0  0  0  0  0  0  0  0  0  0  0
   -5.9510   23.7440  -30.8160 N   0  0  0  0  0  0  0  0  0  0  0  0
   -7.1800   23.0270  -30.6300 C   0  0  0  0  0  0  0  0  0  0  0  0
   -7.3590   22.3310  -29.5950 O   0  0  0  0  0  0  0  0  0  0  0  0
   -8.2350   23.0650  -31.6960 C   0  0  0  0  0  0  0  0  0  0  0  0
   -8.8930   21.8020  -31.8190 O   0  0  0  0  0  0  0  0  0  0  0  0
   -8.2700   20.5950  -32.1780 C   0  0  0  0  0  0  0  0  0  0  0  0
   -8.6760   19.3460  -31.6670 C   0  0  0  0  0  0  0  0  0  0  0  0
   -8.0060   18.1780  -32.0460 C   0  0  0  0  0  0  0  0  0  0  0  0
   -6.9320   18.2430  -32.9390 C   0  0  0  0  0  0  0  0  0  0  0  0
   -6.0170   16.6480  -33.4510 Br  0  0  0  0  0  0  0  0  0  0  0  0
   -6.5310   19.4790  -33.4560 C   0  0  0  0  0  0  0  0  0  0  0  0
   -7.1970   20.6480  -33.0780 C   0  0  0  0  0  0  0  0  0  0  0  0
   -4.4176   20.8336  -30.0797 H   0  0  0  0  0  0  0  0  0  0  0  0
   -5.4260   21.2208  -31.5150 H   0  0  0  0  0  0  0  0  0  0  0  0
   -4.3893   19.7539  -31.5150 H   0  0  0  0  0  0  0  0  0  0  0  0
   -1.9658   20.2856  -33.3486 H   0  0  0  0  0  0  0  0  0  0  0  0
   -3.5416   20.8226  -34.0233 H   0  0  0  0  0  0  0  0  0  0  0  0
   -2.1364   21.9416  -34.0233 H   0  0  0  0  0  0  0  0  0  0  0  0
   -1.3343   20.9664  -30.5100 H   0  0  0  0  0  0  0  0  0  0  0  0
   -1.0175   22.6055  -31.2596 H   0  0  0  0  0  0  0  0  0  0  0  0
   -3.2072   22.6532  -29.3266 H   0  0  0  0  0  0  0  0  0  0  0  0
   -1.6125   22.1033  -28.6211 H   0  0  0  0  0  0  0  0  0  0  0  0
   -1.0257   24.2391  -28.4289 H   0  0  0  0  0  0  0  0  0  0  0  0
   -1.0143   24.3313  -30.2339 H   0  0  0  0  0  0  0  0  0  0  0  0
   -4.5527   23.0084  -29.4396 H   0  0  0  0  0  0  0  0  0  0  0  0
   -5.5412   24.4234  -28.8866 H   0  0  0  0  0  0  0  0  0  0  0  0
   -5.7730   24.2090  -31.7350 H   0  0  0  0  0  0  0  0  0  0  0  0
   -8.9787   23.8331  -31.4372 H   0  0  0  0  0  0  0  0  0  0  0  0
   -7.7514   23.3001  -32.6556 H   0  0  0  0  0  0  0  0  0  0  0  0
   -9.5230   19.2893  -30.9674 H   0  0  0  0  0  0  0  0  0  0  0  0
   -8.3247   17.2063  -31.6407 H   0  0  0  0  0  0  0  0  0  0  0  0
   -5.6891   19.5312  -34.1621 H   0  0  0  0  0  0  0  0  0  0  0  0
   -6.8768   21.6165  -33.4897 H   0  0  0  0  0  0  0  0  0  0  0  0
  1  2  1  0
  2  3  1  0
  2  4  1  0
  4  5  1  0
  5  6  1  0
  6  7  1  0
  7  8  1  0
  8  9  2  0
  8 10  1  0
 10 11  1  0
 11 12  1  0
 12 13  2  0
 12 14  1  0
 14 15  1  0
 15 16  1  0
 16 17  2  0
 17 18  1  0
 18 19  2  0
 19 20  1  0
 19 21  1  0
 21 22  2  0
 22 16  1  0
  1 23  1  0
  1 24  1  0
  1 25  1  0
  3 26  1  0
  3 27  1  0
  3 28  1  0
  4 29  1  0
  4 30  1  0
  5 31  1  0
  5 32  1  0
  6 33  1  0
  6 34  1  0
 10 35  1  0
 10 36  1  0
 11 37  1  0
 14 38  1  0
 14 39  1  0
 17 40  1  0
 18 41  1  0
 21 42  1  0
 22 43  1  0
M  CHG  2   2   1   7  -1
M  END
>  <UniqueID>  (12) 
12

>  <SMILES>  (12) 
C[S+](C)CCC[N-]C(=O)CNC(=O)COc1ccc(Br)cc1

>  <Energy>  (12) 
24.206379996378978

>  <Genealogy>  (12) 
C[S+](C)CCC[N-]C(=O)CNC(=O)COc1ccc(Br)cc1 (protonated)
C[S+](C)CCC[N-]C(=O)CNC(=O)COc1ccc(Br)cc1 (3D coordinates assigned)
C[S+](C)CCC[N-]C(=O)CNC(=O)COc1ccc(Br)cc1 (optimized conformer: 24.206379996378978 kcal/mol)

>  <smiles>  (12) 
C[S+](C)CCCNC(=O)CNC(=O)COc1ccc(Br)cc1

>  <score_type>  (12) 
oracle

>  <origin>  (12) 
adg

>  <m_score__min__energy>  (12) 
-9.8000000000000007

>  <m_primary>  (12) 
energy

$$$$
12:0
     RDKit          3D

 54 57  0  0  0  0  0  0  0  0999 V2000
   -2.5830   20.9430  -29.7910 C   0  0  0  0  0  0  0  0  0  0  0  0
   -1.4870   21.2270  -30.8070 C   0  0  0  0  0  0  0  0  0  0  0  0
   -2.0740   21.6930  -32.0020 O   0  0  0  0  0  0  0  0  0  0  0  0
   -2.9160   20.6970  -32.5500 C   0  0  0  0  0  0  0  0  0  0  0  0
   -4.2810   21.2110  -32.7150 N   0  0  0  0  0  0  0  0  0  0  0  0
   -4.6150   22.4270  -32.3010 N   0  0  0  0  0  0  0  0  0  0  0  0
   -5.9550   22.5460  -32.2980 C   0  0  0  0  0  0  0  0  0  0  0  0
   -6.6890   23.7650  -31.8170 C   0  0  0  0  0  0  0  0  0  0  0  0
   -5.7600   24.7380  -31.2250 N   0  0  0  0  0  0  0  0  0  0  0  0
   -5.9700   24.9380  -29.7800 C   0  0  0  0  0  0  0  0  0  0  0  0
   -5.3390   23.8250  -28.9270 C   0  0  0  0  0  0  0  0  0  0  0  0
   -3.9300   24.1210  -28.6760 N   0  0  0  0  0  0  0  0  0  0  0  0
   -3.3650   24.5290  -27.3970 C   0  0  0  0  0  0  0  0  0  0  0  0
   -1.8940   24.9010  -27.7070 C   0  0  0  0  0  0  0  0  0  0  0  0
   -1.7530   24.7740  -29.1200 O   0  0  0  0  0  0  0  0  0  0  0  0
   -2.9340   24.3210  -29.6580 C   0  0  0  0  0  0  0  0  0  0  0  0
   -3.1070   24.1140  -30.8900 O   0  0  0  0  0  0  0  0  0  0  0  0
   -6.5030   21.3410  -32.6970 C   0  0  0  0  0  0  0  0  0  0  0  0
   -5.4210   20.5270  -33.0060 C   0  0  0  0  0  0  0  0  0  0  0  0
   -5.5610   19.1200  -33.4830 C   0  0  0  0  0  0  0  0  0  0  0  0
   -4.6170   18.5300  -34.3430 C   0  0  0  0  0  0  0  0  0  0  0  0
   -4.7750   17.2090  -34.7720 C   0  0  0  0  0  0  0  0  0  0  0  0
   -5.8970   16.4750  -34.3860 C   0  0  0  0  0  0  0  0  0  0  0  0
   -6.8860   17.0740  -33.6040 C   0  0  0  0  0  0  0  0  0  0  0  0
   -6.7370   18.3990  -33.1750 C   0  0  0  0  0  0  0  0  0  0  0  0
   -8.0620   19.1990  -32.3320 S   0  0  0  0  0  0  0  0  0  0  0  0
   -7.9270   18.9880  -30.8500 O   0  0  0  0  0  0  0  0  0  0  0  0
   -9.3880   18.6710  -32.8050 O   0  0  0  0  0  0  0  0  0  0  0  0
   -7.9460   20.9350  -32.7200 C   0  0  0  0  0  0  0  0  0  0  0  0
   -2.1767   21.0483  -28.7742 H   0  0  0  0  0  0  0  0  0  0  0  0
   -3.4077   21.6571  -29.9320 H   0  0  0  0  0  0  0  0  0  0  0  0
   -2.9571   19.9182  -29.9320 H   0  0  0  0  0  0  0  0  0  0  0  0
   -0.8051   21.9927  -30.4087 H   0  0  0  0  0  0  0  0  0  0  0  0
   -0.9202   20.3058  -31.0075 H   0  0  0  0  0  0  0  0  0  0  0  0
   -2.5235   20.3909  -33.5309 H   0  0  0  0  0  0  0  0  0  0  0  0
   -2.9405   19.8361  -31.8657 H   0  0  0  0  0  0  0  0  0  0  0  0
   -3.9360   23.1450  -31.9620 H   0  0  0  0  0  0  0  0  0  0  0  0
   -7.2064   24.2327  -32.6676 H   0  0  0  0  0  0  0  0  0  0  0  0
   -7.4131   23.4581  -31.0479 H   0  0  0  0  0  0  0  0  0  0  0  0
   -4.7790   24.4090  -31.3900 H   0  0  0  0  0  0  0  0  0  0  0  0
   -5.5225   25.9000  -29.4896 H   0  0  0  0  0  0  0  0  0  0  0  0
   -7.0546   24.9210  -29.5973 H   0  0  0  0  0  0  0  0  0  0  0  0
   -5.8725   23.7555  -27.9675 H   0  0  0  0  0  0  0  0  0  0  0  0
   -5.4150   22.8703  -29.4681 H   0  0  0  0  0  0  0  0  0  0  0  0
   -3.9067   25.3978  -26.9949 H   0  0  0  0  0  0  0  0  0  0  0  0
   -3.4387   23.7334  -26.6409 H   0  0  0  0  0  0  0  0  0  0  0  0
   -1.6852   25.9341  -27.3921 H   0  0  0  0  0  0  0  0  0  0  0  0
   -1.1889   24.2506  -27.1687 H   0  0  0  0  0  0  0  0  0  0  0  0
   -3.7474   19.1129  -34.6807 H   0  0  0  0  0  0  0  0  0  0  0  0
   -4.0123   16.7467  -35.4159 H   0  0  0  0  0  0  0  0  0  0  0  0
   -6.0021   15.4253  -34.6976 H   0  0  0  0  0  0  0  0  0  0  0  0
   -7.7843   16.5042  -33.3241 H   0  0  0  0  0  0  0  0  0  0  0  0
   -8.3657   21.1190  -33.7200 H   0  0  0  0  0  0  0  0  0  0  0  0
   -8.5106   21.5214  -31.9801 H   0  0  0  0  0  0  0  0  0  0  0  0
  1  2  1  0
  2  3  1  0
  3  4  1  0
  4  5  1  0
  5  6  1  0
  6  7  2  0
  7  8  1  0
  8  9  1  0
  9 10  1  0
 10 11  1  0
 11 12  1  0
 12 13  1  0
 13 14  1  0
 14 15  1  0
 15 16  1  0
 16 17  2  0
  7 18  1  0
 18 19  2  0
 19 20  1  0
 20 21  2  0
 21 22  1  0
 22 23  2  0
 23 24  1  0
 24 25  2  0
 25 26  1  0
 26 27  2  0
 26 28  2  0
 26 29  1  0
 19  5  1  0
 25 20  1  0
 16 12  1  0
 29 18  1  0
  1 30  1  0
  1 31  1  0
  1 32  1  0
  2 33  1  0
  2 34  1  0
  4 35  1  0
  4 36  1  0
  6 37  1  0
  8 38  1  0
  8 39  1  0
  9 40  1  0
 10 41  1  0
 10 42  1  0
 11 43  1  0
 11 44  1  0
 13 45  1  0
 13 46  1  0
 14 47  1  0
 14 48  1  0
 21 49  1  0
 22 50  1  0
 23 51  1  0
 24 52  1  0
 29 53  1  0
 29 54  1  0
M  CHG  1   6   1
M  END
>  <UniqueID>  (13) 
13

>  <SMILES>  (13) 
CCOCn1[nH+]c(CNCCN2CCOC2=O)c2c1-c1ccccc1S(=O)(=O)C2

>  <Energy>  (13) 
106.76275111164034

>  <Genealogy>  (13) 
CCOCn1[nH+]c(CNCCN2CCOC2=O)c2c1-c1ccccc1S(=O)(=O)C2 (protonated)
CCOCn1[nH+]c(CNCCN2CCOC2=O)c2c1-c1ccccc1S(=O)(=O)C2 (3D coordinates assigned)
CCOCn1[nH+]c(CNCCN2CCOC2=O)c2c1-c1ccccc1S(=O)(=O)C2 (nonaromatic ring conformer: 106.76275111164034 kcal/mol)

>  <smiles>  (13) 
CCOCn1nc(CNCCN2CCOC2=O)c2c1-c1ccccc1S(=O)(=O)C2

>  <score_type>  (13) 
oracle

>  <origin>  (13) 
adg

>  <m_score__min__energy>  (13) 
-8.5800000000000001

>  <m_primary>  (13) 
energy

$$$$
13:0
     RDKit          3D

 50 53  0  0  0  0  0  0  0  0999 V2000
   -6.4840   24.2050  -31.7310 C   0  0  0  0  0  0  0  0  0  0  0  0
   -5.7210   24.5620  -30.4490 C   0  0  0  0  0  0  0  0  0  0  0  0
   -6.4420   25.6550  -29.6430 C   0  0  0  0  0  0  0  0  0  0  0  0
   -4.3060   24.8860  -30.7310 N   0  0  0  0  0  0  0  0  0  0  0  0
   -3.3950   23.7280  -30.8240 C   0  0  0  0  0  0  0  0  0  0  0  0
   -4.1460   22.4270  -31.1590 C   0  0  0  0  0  0  0  0  0  0  0  0
   -4.0860   22.1450  -32.5930 N   0  0  0  0  0  0  0  0  0  0  0  0
   -3.7620   20.8380  -33.0840 C   0  0  0  0  0  0  0  0  0  0  0  0
   -2.4660   20.5160  -33.5500 C   0  0  0  0  0  0  0  0  0  0  0  0
   -1.4080   21.4370  -33.4230 C   0  0  0  0  0  0  0  0  0  0  0  0
   -0.1270   21.1130  -33.8650 C   0  0  0  0  0  0  0  0  0  0  0  0
    0.1270   19.8620  -34.4190 C   0  0  0  0  0  0  0  0  0  0  0  0
   -0.8970   18.9230  -34.5430 C   0  0  0  0  0  0  0  0  0  0  0  0
   -2.2170   19.2240  -34.1270 C   0  0  0  0  0  0  0  0  0  0  0  0
   -3.2460   18.2990  -34.2500 N   0  0  0  0  0  0  0  0  0  0  0  0
   -3.0410   17.0100  -34.9350 C   0  0  0  0  0  0  0  0  0  0  0  0
   -4.4630   18.6050  -33.6970 C   0  0  0  0  0  0  0  0  0  0  0  0
   -5.5480   17.7930  -33.6290 N   0  0  0  0  0  0  0  0  0  0  0  0
   -6.5020   18.5310  -33.0270 C   0  0  0  0  0  0  0  0  0  0  0  0
   -7.8020   18.1300  -32.7290 C   0  0  0  0  0  0  0  0  0  0  0  0
   -8.6480   19.0510  -32.0860 C   0  0  0  0  0  0  0  0  0  0  0  0
   -8.1790   20.3390  -31.7510 C   0  0  0  0  0  0  0  0  0  0  0  0
   -9.3420   21.5750  -30.8730 Br  0  0  0  0  0  0  0  0  0  0  0  0
   -6.8600   20.7200  -32.0560 C   0  0  0  0  0  0  0  0  0  0  0  0
   -6.0430   19.7900  -32.7050 C   0  0  0  0  0  0  0  0  0  0  0  0
   -4.7260   19.8370  -33.1300 C   0  0  0  0  0  0  0  0  0  0  0  0
   -7.4514   23.7524  -31.4679 H   0  0  0  0  0  0  0  0  0  0  0  0
   -6.6545   25.1168  -32.3222 H   0  0  0  0  0  0  0  0  0  0  0  0
   -5.8932   23.4898  -32.3222 H   0  0  0  0  0  0  0  0  0  0  0  0
   -5.7089   23.6695  -29.8061 H   0  0  0  0  0  0  0  0  0  0  0  0
   -6.3146   25.4618  -28.5676 H   0  0  0  0  0  0  0  0  0  0  0  0
   -6.0139   26.6371  -29.8924 H   0  0  0  0  0  0  0  0  0  0  0  0
   -7.5133   25.6480  -29.8924 H   0  0  0  0  0  0  0  0  0  0  0  0
   -4.2510   25.4800  -31.5930 H   0  0  0  0  0  0  0  0  0  0  0  0
   -2.6531   23.9226  -31.6125 H   0  0  0  0  0  0  0  0  0  0  0  0
   -2.9112   23.5977  -29.8447 H   0  0  0  0  0  0  0  0  0  0  0  0
   -3.6858   21.5933  -30.6083 H   0  0  0  0  0  0  0  0  0  0  0  0
   -5.2001   22.5442  -30.8674 H   0  0  0  0  0  0  0  0  0  0  0  0
   -4.3010   22.9050  -33.2770 H   0  0  0  0  0  0  0  0  0  0  0  0
   -1.5949   22.4220  -32.9703 H   0  0  0  0  0  0  0  0  0  0  0  0
    0.6861   21.8484  -33.7758 H   0  0  0  0  0  0  0  0  0  0  0  0
    1.1420   19.6120  -34.7614 H   0  0  0  0  0  0  0  0  0  0  0  0
   -0.6760   17.9338  -34.9703 H   0  0  0  0  0  0  0  0  0  0  0  0
   -2.9143   16.2134  -34.1871 H   0  0  0  0  0  0  0  0  0  0  0  0
   -3.9149   16.7863  -35.5645 H   0  0  0  0  0  0  0  0  0  0  0  0
   -2.1409   17.0684  -35.5645 H   0  0  0  0  0  0  0  0  0  0  0  0
   -5.6520   16.8020  -33.9370 H   0  0  0  0  0  0  0  0  0  0  0  0
   -8.1568   17.1218  -32.9891 H   0  0  0  0  0  0  0  0  0  0  0  0
   -9.6821   18.7656  -31.8426 H   0  0  0  0  0  0  0  0  0  0  0  0
   -6.4830   21.7191  -31.7919 H   0  0  0  0  0  0  0  0  0  0  0  0
  1  2  1  0
  2  3  1  0
  2  4  1  0
  4  5  1  0
  5  6  1  0
  6  7  1  0
  7  8  1  0
  8  9  2  0
  9 10  1  0
 10 11  2  0
 11 12  1  0
 12 13  2  0
 13 14  1  0
 14 15  2  0
 15 16  1  0
 15 17  1  0
 17 18  1  0
 18 19  1  0
 19 20  2  0
 20 21  1  0
 21 22  2  0
 22 23  1  0
 22 24  1  0
 24 25  2  0
 25 26  1  0
 26  8  1  0
 14  9  1  0
 26 17  2  0
 25 19  1  0
  1 27  1  0
  1 28  1  0
  1 29  1  0
  2 30  1  0
  3 31  1  0
  3 32  1  0
  3 33  1  0
  4 34  1  0
  5 35  1  0
  5 36  1  0
  6 37  1  0
  6 38  1  0
  7 39  1  0
 10 40  1  0
 11 41  1  0
 12 42  1  0
 13 43  1  0
 16 44  1  0
 16 45  1  0
 16 46  1  0
 18 47  1  0
 20 48  1  0
 21 49  1  0
 24 50  1  0
M  CHG  1  15   1
M  END
>  <UniqueID>  (14) 
14

>  <SMILES>  (14) 
CC(C)NCCNc1c2ccccc2[n+](C)c2[nH]c3ccc(Br)cc3c12

>  <Energy>  (14) 
108.67031978697483

>  <Genealogy>  (14) 
CC(C)NCCNc1c2ccccc2[n+](C)c2[nH]c3ccc(Br)cc3c12 (3D coordinates assigned)
CC(C)NCCNc1c2ccccc2[n+](C)c2[nH]c3ccc(Br)cc3c12 (optimized conformer: 108.67031978697483 kcal/mol)

>  <smiles>  (14) 
CC(C)NCCNc1c2ccccc2[n+](C)c2[nH]c3ccc(Br)cc3c12

>  <score_type>  (14) 
oracle

>  <origin>  (14) 
adg

>  <m_score__min__energy>  (14) 
-9.75

>  <m_primary>  (14) 
energy

$$$$
14:0
     RDKit          3D

 48 50  0  0  0  0  0  0  0  0999 V2000
    0.9220   21.7670  -35.7100 C   0  0  0  0  0  0  0  0  0  0  0  0
    0.0380   20.6570  -35.1350 C   0  0  0  0  0  0  0  0  0  0  0  0
   -1.2090   21.1770  -34.5480 N   0  0  0  0  0  0  0  0  0  0  0  0
   -1.3440   20.8370  -33.1200 C   0  0  0  0  0  0  0  0  0  0  0  0
   -2.4450   21.6670  -32.4360 C   0  0  0  0  0  0  0  0  0  0  0  0
   -3.6470   21.7860  -33.2710 N   0  0  0  0  0  0  0  0  0  0  0  0
   -4.9400   21.3380  -32.8320 C   0  0  0  0  0  0  0  0  0  0  0  0
   -5.7620   22.1840  -32.0650 C   0  0  0  0  0  0  0  0  0  0  0  0
   -7.0850   21.7700  -31.7570 C   0  0  0  0  0  0  0  0  0  0  0  0
   -7.5710   20.5790  -32.2660 N   0  0  0  0  0  0  0  0  0  0  0  0
   -9.0140   20.2630  -32.1630 C   0  0  0  0  0  0  0  0  0  0  0  0
   -6.7090   19.6650  -32.8410 C   0  0  0  0  0  0  0  0  0  0  0  0
   -7.1130   18.3370  -33.1370 C   0  0  0  0  0  0  0  0  0  0  0  0
   -6.2360   17.4340  -33.7410 C   0  0  0  0  0  0  0  0  0  0  0  0
   -6.7650   15.7990  -34.0970 Cl  0  0  0  0  0  0  0  0  0  0  0  0
   -4.9360   17.8220  -34.0460 C   0  0  0  0  0  0  0  0  0  0  0  0
   -4.5020   19.1090  -33.7420 C   0  0  0  0  0  0  0  0  0  0  0  0
   -5.3750   20.0400  -33.1410 C   0  0  0  0  0  0  0  0  0  0  0  0
   -7.9870   22.6810  -30.9310 C   0  0  0  0  0  0  0  0  0  0  0  0
   -7.2250   23.6900  -30.0740 C   0  0  0  0  0  0  0  0  0  0  0  0
   -6.1970   24.4190  -30.9250 C   0  0  0  0  0  0  0  0  0  0  0  0
   -5.1550   23.4290  -31.4350 C   0  0  0  0  0  0  0  0  0  0  0  0
    1.3763   22.3375  -34.8865 H   0  0  0  0  0  0  0  0  0  0  0  0
    1.7150   21.3210  -36.3283 H   0  0  0  0  0  0  0  0  0  0  0  0
    0.3098   22.4400  -36.3283 H   0  0  0  0  0  0  0  0  0  0  0  0
   -0.2179   19.9556  -35.9428 H   0  0  0  0  0  0  0  0  0  0  0  0
    0.6038   20.1605  -34.3328 H   0  0  0  0  0  0  0  0  0  0  0  0
   -1.2470   22.2180  -34.6660 H   0  0  0  0  0  0  0  0  0  0  0  0
   -2.0030   20.7700  -35.0920 H   0  0  0  0  0  0  0  0  0  0  0  0
   -1.5952   19.7698  -33.0304 H   0  0  0  0  0  0  0  0  0  0  0  0
   -0.3885   21.0616  -32.6234 H   0  0  0  0  0  0  0  0  0  0  0  0
   -2.7185   21.1806  -31.4881 H   0  0  0  0  0  0  0  0  0  0  0  0
   -2.0494   22.6792  -32.2659 H   0  0  0  0  0  0  0  0  0  0  0  0
   -3.5670   22.2280  -34.2130 H   0  0  0  0  0  0  0  0  0  0  0  0
   -9.3008   20.2002  -31.1029 H   0  0  0  0  0  0  0  0  0  0  0  0
   -9.5987   21.0544  -32.6548 H   0  0  0  0  0  0  0  0  0  0  0  0
   -9.2144   19.2997  -32.6548 H   0  0  0  0  0  0  0  0  0  0  0  0
   -8.1341   18.0138  -32.8864 H   0  0  0  0  0  0  0  0  0  0  0  0
   -4.2495   17.1106  -34.5283 H   0  0  0  0  0  0  0  0  0  0  0  0
   -3.4675   19.4033  -33.9728 H   0  0  0  0  0  0  0  0  0  0  0  0
   -8.6431   23.2352  -31.6183 H   0  0  0  0  0  0  0  0  0  0  0  0
   -8.5497   22.0349  -30.2412 H   0  0  0  0  0  0  0  0  0  0  0  0
   -7.9328   24.4190  -29.6526 H   0  0  0  0  0  0  0  0  0  0  0  0
   -6.7103   23.1586  -29.2599 H   0  0  0  0  0  0  0  0  0  0  0  0
   -6.7006   24.8927  -31.7806 H   0  0  0  0  0  0  0  0  0  0  0  0
   -5.7002   25.1885  -30.3158 H   0  0  0  0  0  0  0  0  0  0  0  0
   -4.5339   23.9341  -32.1894 H   0  0  0  0  0  0  0  0  0  0  0  0
   -4.5672   23.0994  -30.5656 H   0  0  0  0  0  0  0  0  0  0  0  0
  1  2  1  0
  2  3  1  0
  3  4  1  0
  4  5  1  0
  5  6  1  0
  6  7  1  0
  7  8  2  0
  8  9  1  0
  9 10  2  0
 10 11  1  0
 10 12  1  0
 12 13  2  0
 13 14  1  0
 14 15  1  0
 14 16  2  0
 16 17  1  0
 17 18  2  0
  9 19  1  0
 19 20  1  0
 20 21  1  0
 21 22  1  0
 18  7  1  0
 22  8  1  0
 18 12  1  0
  1 23  1  0
  1 24  1  0
  1 25  1  0
  2 26  1  0
  2 27  1  0
  3 28  1  0
  3 29  1  0
  4 30  1  0
  4 31  1  0
  5 32  1  0
  5 33  1  0
  6 34  1  0
 11 35  1  0
 11 36  1  0
 11 37  1  0
 13 38  1  0
 16 39  1  0
 17 40  1  0
 19 41  1  0
 19 42  1  0
 20 43  1  0
 20 44  1  0
 21 45  1  0
 21 46  1  0
 22 47  1  0
 22 48  1  0
M  CHG  2   3   1  10   1
M  END
>  <UniqueID>  (15) 
15

>  <SMILES>  (15) 
CC[NH2+]CCNc1c2c([n+](C)c3cc(Cl)ccc13)CCCC2

>  <Energy>  (15) 
66.71066209031493

>  <Genealogy>  (15) 
CC[NH2+]CCNc1c2c([n+](C)c3cc(Cl)ccc13)CCCC2 (protonated)
CC[NH2+]CCNc1c2c([n+](C)c3cc(Cl)ccc13)CCCC2 (3D coordinates assigned)
CC[NH2+]CCNc1c2c([n+](C)c3cc(Cl)ccc13)CCCC2 (nonaromatic ring conformer: 66.71066209031493 kcal/mol)

>  <smiles>  (15) 
CCNCCNc1c2c([n+](C)c3cc(Cl)ccc13)CCCC2

>  <score_type>  (15) 
oracle

>  <origin>  (15) 
adg

>  <m_score__min__energy>  (15) 
-7.7599999999999998

>  <m_primary>  (15) 
energy

$$$$
15:0
     RDKit          3D

 56 57  0  0  0  0  0  0  0  0999 V2000
   -4.1400   24.9610  -26.3080 C   0  0  0  0  0  0  0  0  0  0  0  0
   -2.7890   25.2900  -25.6490 C   0  0  0  0  0  0  0  0  0  0  0  0
   -1.8330   25.9940  -26.5410 N   0  0  0  0  0  0  0  0  0  0  0  0
   -1.2350   27.1750  -25.8640 C   0  0  0  0  0  0  0  0  0  0  0  0
   -0.9500   26.9160  -24.3800 C   0  0  0  0  0  0  0  0  0  0  0  0
   -0.7980   25.0630  -27.0880 C   0  0  0  0  0  0  0  0  0  0  0  0
   -0.9050   24.8960  -28.6150 C   0  0  0  0  0  0  0  0  0  0  0  0
   -2.1960   25.2720  -29.0620 O   0  0  0  0  0  0  0  0  0  0  0  0
   -3.0730   24.1640  -29.0480 C   0  0  0  0  0  0  0  0  0  0  0  0
   -3.6930   24.0040  -30.4290 C   0  0  0  0  0  0  0  0  0  0  0  0
   -4.2110   25.2520  -30.8460 O   0  0  0  0  0  0  0  0  0  0  0  0
   -5.5390   25.4280  -30.3930 C   0  0  0  0  0  0  0  0  0  0  0  0
   -6.3500   24.1270  -30.4580 C   0  0  0  0  0  0  0  0  0  0  0  0
   -6.4400   23.6360  -31.7960 O   0  0  0  0  0  0  0  0  0  0  0  0
   -6.6220   22.2820  -32.1090 C   0  0  0  0  0  0  0  0  0  0  0  0
   -7.8900   21.6600  -32.0200 C   0  0  0  0  0  0  0  0  0  0  0  0
   -9.1250   22.4310  -31.6400 C   0  0  0  0  0  0  0  0  0  0  0  0
   -8.0080   20.2870  -32.2910 C   0  0  0  0  0  0  0  0  0  0  0  0
   -6.8990   19.5420  -32.6970 C   0  0  0  0  0  0  0  0  0  0  0  0
   -5.6520   20.1620  -32.8410 C   0  0  0  0  0  0  0  0  0  0  0  0
   -4.5270   19.4410  -33.2700 C   0  0  0  0  0  0  0  0  0  0  0  0
   -3.2970   20.0870  -33.4060 C   0  0  0  0  0  0  0  0  0  0  0  0
   -3.2020   21.4490  -33.1110 C   0  0  0  0  0  0  0  0  0  0  0  0
   -4.3000   22.1370  -32.6950 N   0  0  0  0  0  0  0  0  0  0  0  0
   -5.5140   21.5370  -32.5510 C   0  0  0  0  0  0  0  0  0  0  0  0
   -4.8935   24.7775  -25.5279 H   0  0  0  0  0  0  0  0  0  0  0  0
   -4.4587   25.8078  -26.9336 H   0  0  0  0  0  0  0  0  0  0  0  0
   -4.0336   24.0625  -26.9336 H   0  0  0  0  0  0  0  0  0  0  0  0
   -2.9784   25.9285  -24.7735 H   0  0  0  0  0  0  0  0  0  0  0  0
   -2.3245   24.3291  -25.3826 H   0  0  0  0  0  0  0  0  0  0  0  0
   -2.4220   26.3630  -27.3270 H   0  0  0  0  0  0  0  0  0  0  0  0
   -0.2898   27.4289  -26.3661 H   0  0  0  0  0  0  0  0  0  0  0  0
   -1.9595   28.0003  -25.9273 H   0  0  0  0  0  0  0  0  0  0  0  0
   -1.6247   27.5292  -23.7646 H   0  0  0  0  0  0  0  0  0  0  0  0
   -1.1144   25.8518  -24.1553 H   0  0  0  0  0  0  0  0  0  0  0  0
    0.0937   27.1812  -24.1553 H   0  0  0  0  0  0  0  0  0  0  0  0
    0.1984   25.4610  -26.8454 H   0  0  0  0  0  0  0  0  0  0  0  0
   -0.9607   24.0757  -26.6310 H   0  0  0  0  0  0  0  0  0  0  0  0
   -0.1524   25.5326  -29.1032 H   0  0  0  0  0  0  0  0  0  0  0  0
   -0.7306   23.8409  -28.8724 H   0  0  0  0  0  0  0  0  0  0  0  0
   -2.5129   23.2538  -28.7877 H   0  0  0  0  0  0  0  0  0  0  0  0
   -3.8649   24.3268  -28.3021 H   0  0  0  0  0  0  0  0  0  0  0  0
   -2.9259   23.6660  -31.1412 H   0  0  0  0  0  0  0  0  0  0  0  0
   -4.5014   23.2590  -30.3905 H   0  0  0  0  0  0  0  0  0  0  0  0
   -5.5144   25.7785  -29.3506 H   0  0  0  0  0  0  0  0  0  0  0  0
   -6.0259   26.1631  -31.0507 H   0  0  0  0  0  0  0  0  0  0  0  0
   -5.8601   23.3680  -29.8303 H   0  0  0  0  0  0  0  0  0  0  0  0
   -7.3677   24.3348  -30.0960 H   0  0  0  0  0  0  0  0  0  0  0  0
   -9.2038   22.4802  -30.5439 H   0  0  0  0  0  0  0  0  0  0  0  0
   -9.0614   23.4501  -32.0491 H   0  0  0  0  0  0  0  0  0  0  0  0
  -10.0127   21.9264  -32.0491 H   0  0  0  0  0  0  0  0  0  0  0  0
   -8.9848   19.7931  -32.1822 H   0  0  0  0  0  0  0  0  0  0  0  0
   -7.0052   18.4669  -32.9039 H   0  0  0  0  0  0  0  0  0  0  0  0
   -4.6143   18.3686  -33.4987 H   0  0  0  0  0  0  0  0  0  0  0  0
   -2.4109   19.5287  -33.7423 H   0  0  0  0  0  0  0  0  0  0  0  0
   -2.2371   21.9668  -33.2152 H   0  0  0  0  0  0  0  0  0  0  0  0
  1  2  1  0
  2  3  1  0
  3  4  1  0
  4  5  1  0
  3  6  1  0
  6  7  1  0
  7  8  1  0
  8  9  1  0
  9 10  1  0
 10 11  1  0
 11 12  1  0
 12 13  1  0
 13 14  1  0
 14 15  1  0
 15 16  2  0
 16 17  1  0
 16 18  1  0
 18 19  2  0
 19 20  1  0
 20 21  2  0
 21 22  1  0
 22 23  2  0
 23 24  1  0
 24 25  2  0
 25 15  1  0
 25 20  1  0
  1 26  1  0
  1 27  1  0
  1 28  1  0
  2 29  1  0
  2 30  1  0
  3 31  1  0
  4 32  1  0
  4 33  1  0
  5 34  1  0
  5 35  1  0
  5 36  1  0
  6 37  1  0
  6 38  1  0
  7 39  1  0
  7 40  1  0
  9 41  1  0
  9 42  1  0
 10 43  1  0
 10 44  1  0
 12 45  1  0
 12 46  1  0
 13 47  1  0
 13 48  1  0
 17 49  1  0
 17 50  1  0
 17 51  1  0
 18 52  1  0
 19 53  1  0
 21 54  1  0
 22 55  1  0
 23 56  1  0
M  CHG  1   3   1
M  END
>  <UniqueID>  (16) 
16

>  <SMILES>  (16) 
CC[NH+](CC)CCOCCOCCOc1c(C)ccc2cccnc12

>  <Energy>  (16) 
67.68055091860514

>  <Genealogy>  (16) 
CC[NH+](CC)CCOCCOCCOc1c(C)ccc2cccnc12 (protonated)
CC[NH+](CC)CCOCCOCCOc1c(C)ccc2cccnc12 (3D coordinates assigned)
CC[NH+](CC)CCOCCOCCOc1c(C)ccc2cccnc12 (optimized conformer: 67.68055091860514 kcal/mol)

>  <smiles>  (16) 
CCN(CC)CCOCCOCCOc1c(C)ccc2cccnc12

>  <score_type>  (16) 
oracle

>  <origin>  (16) 
adg

>  <m_score__min__energy>  (16) 
-7.6399999999999997

>  <m_primary>  (16) 
energy

$$$$
16:0
     RDKit          3D

 34 35  0  0  0  0  0  0  0  0999 V2000
   -9.4700   19.4360  -32.6820 C   0  0  0  0  0  0  0  0  0  0  0  0
   -8.6920   18.5650  -31.7040 C   0  0  0  0  0  0  0  0  0  0  0  0
   -7.8320   17.6860  -32.4050 O   0  0  0  0  0  0  0  0  0  0  0  0
   -6.5410   17.6900  -31.8320 C   0  0  0  0  0  0  0  0  0  0  0  0
   -5.5020   17.4260  -32.9160 C   0  0  0  0  0  0  0  0  0  0  0  0
   -4.8500   18.6350  -33.2680 O   0  0  0  0  0  0  0  0  0  0  0  0
   -5.7850   19.6610  -33.5370 C   0  0  0  0  0  0  0  0  0  0  0  0
   -5.3480   20.9200  -32.9320 N   0  0  0  0  0  0  0  0  0  0  0  0
   -4.1000   21.4450  -32.9460 C   0  0  0  0  0  0  0  0  0  0  0  0
   -4.0190   22.6410  -32.3070 N   0  0  0  0  0  0  0  0  0  0  0  0
   -5.2800   22.8570  -31.8820 C   0  0  0  0  0  0  0  0  0  0  0  0
   -5.7760   23.9530  -31.1600 C   0  0  0  0  0  0  0  0  0  0  0  0
   -4.9300   25.0480  -30.7610 N   0  0  0  0  0  0  0  0  0  0  0  0
   -3.6940   24.8910  -30.6710 O   0  0  0  0  0  0  0  0  0  0  0  0
   -5.4630   26.2830  -30.4720 O   0  0  0  0  0  0  0  0  0  0  0  0
   -7.1550   23.9370  -30.8360 C   0  0  0  0  0  0  0  0  0  0  0  0
   -7.9780   22.8600  -31.2310 C   0  0  0  0  0  0  0  0  0  0  0  0
   -7.4440   21.7800  -31.9540 C   0  0  0  0  0  0  0  0  0  0  0  0
   -6.0840   21.8180  -32.2600 C   0  0  0  0  0  0  0  0  0  0  0  0
  -10.1008   20.1422  -32.1223 H   0  0  0  0  0  0  0  0  0  0  0  0
   -8.7657   19.9957  -33.3150 H   0  0  0  0  0  0  0  0  0  0  0  0
  -10.1053   18.7990  -33.3150 H   0  0  0  0  0  0  0  0  0  0  0  0
   -8.0927   19.2082  -31.0428 H   0  0  0  0  0  0  0  0  0  0  0  0
   -9.4028   17.9717  -31.1100 H   0  0  0  0  0  0  0  0  0  0  0  0
   -6.3480   18.6695  -31.3702 H   0  0  0  0  0  0  0  0  0  0  0  0
   -6.4782   16.9038  -31.0652 H   0  0  0  0  0  0  0  0  0  0  0  0
   -4.7587   16.7072  -32.5407 H   0  0  0  0  0  0  0  0  0  0  0  0
   -6.0037   17.0146  -33.8043 H   0  0  0  0  0  0  0  0  0  0  0  0
   -5.8747   19.7936  -34.6253 H   0  0  0  0  0  0  0  0  0  0  0  0
   -6.7583   19.3783  -33.1095 H   0  0  0  0  0  0  0  0  0  0  0  0
   -3.2404   20.9537  -33.4253 H   0  0  0  0  0  0  0  0  0  0  0  0
   -7.5898   24.7739  -30.2698 H   0  0  0  0  0  0  0  0  0  0  0  0
   -9.0467   22.8664  -30.9705 H   0  0  0  0  0  0  0  0  0  0  0  0
   -8.0755   20.9355  -32.2671 H   0  0  0  0  0  0  0  0  0  0  0  0
  1  2  1  0
  2  3  1  0
  3  4  1  0
  4  5  1  0
  5  6  1  0
  6  7  1  0
  7  8  1  0
  8  9  1  0
  9 10  2  0
 10 11  1  0
 11 12  2  0
 12 13  1  0
 13 14  2  0
 13 15  1  0
 12 16  1  0
 16 17  2  0
 17 18  1  0
 18 19  2  0
 19  8  1  0
 19 11  1  0
  1 20  1  0
  1 21  1  0
  1 22  1  0
  2 23  1  0
  2 24  1  0
  4 25  1  0
  4 26  1  0
  5 27  1  0
  5 28  1  0
  7 29  1  0
  7 30  1  0
  9 31  1  0
 16 32  1  0
 17 33  1  0
 18 34  1  0
M  CHG  2  13   1  15  -1
M  END
>  <UniqueID>  (17) 
17

>  <SMILES>  (17) 
CCOCCOCn1cnc2c([N+](=O)[O-])cccc21

>  <Energy>  (17) 
72.8127468272535

>  <Genealogy>  (17) 
CCOCCOCn1cnc2c([N+](=O)[O-])cccc21 (3D coordinates assigned)
CCOCCOCn1cnc2c([N+](=O)[O-])cccc21 (optimized conformer: 72.8127468272535 kcal/mol)

>  <smiles>  (17) 
CCOCCOCn1cnc2c([N+](=O)[O-])cccc21

>  <score_type>  (17) 
oracle

>  <origin>  (17) 
adg

>  <m_score__min__energy>  (17) 
-7.0300000000000002

>  <m_primary>  (17) 
energy

$$$$
17:0
     RDKit          3D

 53 56  0  0  0  0  0  0  0  0999 V2000
   -6.1530   17.4080  -31.2250 C   0  0  0  0  0  0  0  0  0  0  0  0
   -6.9390   17.4670  -32.3990 O   0  0  0  0  0  0  0  0  0  0  0  0
   -6.1100   17.3650  -33.5410 C   0  0  0  0  0  0  0  0  0  0  0  0
   -5.7120   18.7560  -34.0380 C   0  0  0  0  0  0  0  0  0  0  0  0
   -6.0070   19.7650  -33.0710 O   0  0  0  0  0  0  0  0  0  0  0  0
   -6.2700   20.7370  -32.1290 C   0  0  0  0  0  0  0  0  0  0  0  0
   -5.2270   21.3370  -31.3930 C   0  0  0  0  0  0  0  0  0  0  0  0
   -5.4810   22.4800  -30.5810 C   0  0  0  0  0  0  0  0  0  0  0  0
   -4.4170   23.0400  -29.7070 C   0  0  0  0  0  0  0  0  0  0  0  0
   -3.1400   22.4460  -29.6480 C   0  0  0  0  0  0  0  0  0  0  0  0
   -2.1870   22.9200  -28.7510 C   0  0  0  0  0  0  0  0  0  0  0  0
   -2.5050   23.9800  -27.8890 C   0  0  0  0  0  0  0  0  0  0  0  0
   -1.5640   24.4390  -26.8970 N   0  0  0  0  0  0  0  0  0  0  0  0
   -0.4640   23.5810  -26.4490 C   0  0  0  0  0  0  0  0  0  0  0  0
   -0.3410   23.6420  -24.9220 C   0  0  0  0  0  0  0  0  0  0  0  0
   -0.2370   25.0380  -24.4710 N   0  0  0  0  0  0  0  0  0  0  0  0
   -1.4320   25.7970  -24.8680 C   0  0  0  0  0  0  0  0  0  0  0  0
   -1.5740   25.8140  -26.3920 C   0  0  0  0  0  0  0  0  0  0  0  0
   -3.7410   24.5560  -27.9760 N   0  0  0  0  0  0  0  0  0  0  0  0
   -4.6850   24.1220  -28.8570 C   0  0  0  0  0  0  0  0  0  0  0  0
   -6.7770   23.0310  -30.5670 C   0  0  0  0  0  0  0  0  0  0  0  0
   -7.7840   22.3900  -31.2860 C   0  0  0  0  0  0  0  0  0  0  0  0
   -9.1020   22.6670  -31.2580 N   0  0  0  0  0  0  0  0  0  0  0  0
   -9.6470   21.6510  -31.9620 C   0  0  0  0  0  0  0  0  0  0  0  0
   -8.7320   20.7490  -32.3970 N   0  0  0  0  0  0  0  0  0  0  0  0
   -9.0190   19.3620  -32.7210 C   0  0  0  0  0  0  0  0  0  0  0  0
   -7.5530   21.2580  -31.9920 C   0  0  0  0  0  0  0  0  0  0  0  0
   -6.8078   17.4572  -30.3425 H   0  0  0  0  0  0  0  0  0  0  0  0
   -5.5871   16.4649  -31.2096 H   0  0  0  0  0  0  0  0  0  0  0  0
   -5.4527   18.2561  -31.2096 H   0  0  0  0  0  0  0  0  0  0  0  0
   -5.2028   16.7999  -33.2808 H   0  0  0  0  0  0  0  0  0  0  0  0
   -6.6632   16.8465  -34.3379 H   0  0  0  0  0  0  0  0  0  0  0  0
   -4.6317   18.7653  -34.2452 H   0  0  0  0  0  0  0  0  0  0  0  0
   -6.2890   18.9737  -34.9488 H   0  0  0  0  0  0  0  0  0  0  0  0
   -4.2106   20.9197  -31.4462 H   0  0  0  0  0  0  0  0  0  0  0  0
   -2.8957   21.6048  -30.3133 H   0  0  0  0  0  0  0  0  0  0  0  0
   -1.1864   22.4642  -28.7181 H   0  0  0  0  0  0  0  0  0  0  0  0
   -0.6619   22.5439  -26.7575 H   0  0  0  0  0  0  0  0  0  0  0  0
    0.4753   23.9317  -26.9016 H   0  0  0  0  0  0  0  0  0  0  0  0
   -1.2300   23.1798  -24.4681 H   0  0  0  0  0  0  0  0  0  0  0  0
    0.5655   23.0996  -24.6153 H   0  0  0  0  0  0  0  0  0  0  0  0
   -0.1860   25.0320  -23.4210 H   0  0  0  0  0  0  0  0  0  0  0  0
   -2.3229   25.3265  -24.4266 H   0  0  0  0  0  0  0  0  0  0  0  0
   -1.3322   26.8317  -24.5083 H   0  0  0  0  0  0  0  0  0  0  0  0
   -2.5223   26.2990  -26.6668 H   0  0  0  0  0  0  0  0  0  0  0  0
   -0.7358   26.3734  -26.8329 H   0  0  0  0  0  0  0  0  0  0  0  0
   -4.0080   25.3370  -27.3240 H   0  0  0  0  0  0  0  0  0  0  0  0
   -5.6631   24.6234  -28.9017 H   0  0  0  0  0  0  0  0  0  0  0  0
   -6.9901   23.9491  -29.9998 H   0  0  0  0  0  0  0  0  0  0  0  0
  -10.7251   21.5638  -32.1625 H   0  0  0  0  0  0  0  0  0  0  0  0
   -9.1383   18.7855  -31.7918 H   0  0  0  0  0  0  0  0  0  0  0  0
   -9.9475   19.3072  -33.3083 H   0  0  0  0  0  0  0  0  0  0  0  0
   -8.1885   18.9432  -33.3083 H   0  0  0  0  0  0  0  0  0  0  0  0
  1  2  1  0
  2  3  1  0
  3  4  1  0
  4  5  1  0
  5  6  1  0
  6  7  2  0
  7  8  1  0
  8  9  1  0
  9 10  2  0
 10 11  1  0
 11 12  2  0
 12 13  1  0
 13 14  1  0
 14 15  1  0
 15 16  1  0
 16 17  1  0
 17 18  1  0
 12 19  1  0
 19 20  2  0
  8 21  2  0
 21 22  1  0
 22 23  1  0
 23 24  2  0
 24 25  1  0
 25 26  1  0
 25 27  1  0
 27  6  1  0
 20  9  1  0
 27 22  2  0
 18 13  1  0
  1 28  1  0
  1 29  1  0
  1 30  1  0
  3 31  1  0
  3 32  1  0
  4 33  1  0
  4 34  1  0
  7 35  1  0
 10 36  1  0
 11 37  1  0
 14 38  1  0
 14 39  1  0
 15 40  1  0
 15 41  1  0
 16 42  1  0
 17 43  1  0
 17 44  1  0
 18 45  1  0
 18 46  1  0
 19 47  1  0
 20 48  1  0
 21 49  1  0
 24 50  1  0
 26 51  1  0
 26 52  1  0
 26 53  1  0
M  CHG  1  19   1
M  END
>  <UniqueID>  (18) 
18

>  <SMILES>  (18) 
COCCOc1cc(-c2ccc(N3CCNCC3)[nH+]c2)cc2ncn(C)c12

>  <Energy>  (18) 
162.59798999732894

>  <Genealogy>  (18) 
COCCOc1cc(-c2ccc(N3CCNCC3)[nH+]c2)cc2ncn(C)c12 (protonated)
COCCOc1cc(-c2ccc(N3CCNCC3)[nH+]c2)cc2ncn(C)c12 (3D coordinates assigned)
COCCOc1cc(-c2ccc(N3CCNCC3)[nH+]c2)cc2ncn(C)c12 (nonaromatic ring conformer: 162.59798999732894 kcal/mol)

>  <smiles>  (18) 
COCCOc1cc(-c2ccc(N3CCNCC3)nc2)cc2ncn(C)c12

>  <score_type>  (18) 
oracle

>  <origin>  (18) 
adg

>  <m_score__min__energy>  (18) 
-6.8899999999999997

>  <m_primary>  (18) 
energy

$$$$
18:0
     RDKit          3D

 20 19  0  0  0  0  0  0  0  0999 V2000
   -2.8550   25.3060  -26.0540 C   0  0  0  0  0  0  0  0  0  0  0  0
   -4.2730   24.8670  -26.4310 C   0  0  0  0  0  0  0  0  0  0  0  0
   -4.4150   24.5510  -27.8650 N   0  0  0  0  0  0  0  0  0  0  0  0
   -3.3950   23.6280  -28.4020 C   0  0  0  0  0  0  0  0  0  0  0  0
   -3.2440   23.6980  -29.9270 C   0  0  0  0  0  0  0  0  0  0  0  0
   -3.8840   24.8640  -30.4380 O   0  0  0  0  0  0  0  0  0  0  0  0
   -5.2460   24.9140  -30.6610 N   0  0  0  0  0  0  0  0  0  0  0  0
   -6.0300   25.3020  -29.7710 O   0  0  0  0  0  0  0  0  0  0  0  0
   -5.7430   24.5310  -31.8840 O   0  0  0  0  0  0  0  0  0  0  0  0
   -2.7594   25.3356  -24.9586 H   0  0  0  0  0  0  0  0  0  0  0  0
   -2.1280   24.5909  -26.4663 H   0  0  0  0  0  0  0  0  0  0  0  0
   -2.6592   26.3068  -26.4663 H   0  0  0  0  0  0  0  0  0  0  0  0
   -4.5296   23.9707  -25.8472 H   0  0  0  0  0  0  0  0  0  0  0  0
   -4.9479   25.7071  -26.2102 H   0  0  0  0  0  0  0  0  0  0  0  0
   -5.3660   24.1440  -28.0240 H   0  0  0  0  0  0  0  0  0  0  0  0
   -4.3700   25.4440  -28.4110 H   0  0  0  0  0  0  0  0  0  0  0  0
   -2.4259   23.8770  -27.9450 H   0  0  0  0  0  0  0  0  0  0  0  0
   -3.7236   22.6071  -28.1573 H   0  0  0  0  0  0  0  0  0  0  0  0
   -2.1749   23.7296  -30.1840 H   0  0  0  0  0  0  0  0  0  0  0  0
   -3.7146   22.8092  -30.3726 H   0  0  0  0  0  0  0  0  0  0  0  0
  1  2  1  0
  2  3  1  0
  3  4  1  0
  4  5  1  0
  5  6  1  0
  6  7  1  0
  7  8  2  0
  7  9  1  0
  1 10  1  0
  1 11  1  0
  1 12  1  0
  2 13  1  0
  2 14  1  0
  3 15  1  0
  3 16  1  0
  4 17  1  0
  4 18  1  0
  5 19  1  0
  5 20  1  0
M  CHG  3   3   1   7   1   9  -1
M  END
>  <UniqueID>  (19) 
19

>  <SMILES>  (19) 
CC[NH2+]CCO[N+](=O)[O-]

>  <Energy>  (19) 
11.975452448325214

>  <Genealogy>  (19) 
CC[NH2+]CCO[N+](=O)[O-] (protonated)
CC[NH2+]CCO[N+](=O)[O-] (3D coordinates assigned)
CC[NH2+]CCO[N+](=O)[O-] (optimized conformer: 11.975452448325214 kcal/mol)

>  <smiles>  (19) 
CCNCCO[N+](=O)[O-]

>  <score_type>  (19) 
oracle

>  <origin>  (19) 
adg

>  <m_score__min__energy>  (19) 
-3.52

>  <m_primary>  (19) 
energy

$$$$
19:0
     RDKit          3D

 44 46  0  0  0  0  0  0  0  0999 V2000
   -2.9850   24.2100  -27.7720 C   0  0  0  0  0  0  0  0  0  0  0  0
   -2.2060   24.6630  -28.9950 C   0  0  0  0  0  0  0  0  0  0  0  0
   -3.1100   24.9160  -30.0670 O   0  0  0  0  0  0  0  0  0  0  0  0
   -4.3910   24.3550  -30.1750 C   0  0  0  0  0  0  0  0  0  0  0  0
   -5.5440   25.0360  -29.7390 C   0  0  0  0  0  0  0  0  0  0  0  0
   -6.8080   24.4680  -29.9180 C   0  0  0  0  0  0  0  0  0  0  0  0
   -6.9440   23.2240  -30.5500 C   0  0  0  0  0  0  0  0  0  0  0  0
   -8.3140   22.6790  -30.8590 C   0  0  0  0  0  0  0  0  0  0  0  0
   -8.2400   21.2680  -31.2760 N   0  0  0  0  0  0  0  0  0  0  0  0
   -7.9400   21.1080  -32.7100 C   0  0  0  0  0  0  0  0  0  0  0  0
   -7.0240   19.9370  -32.9390 C   0  0  0  0  0  0  0  0  0  0  0  0
   -5.9050   20.0200  -33.7020 N   0  0  0  0  0  0  0  0  0  0  0  0
   -5.4760   18.7510  -33.8030 C   0  0  0  0  0  0  0  0  0  0  0  0
   -4.4190   18.2610  -34.5650 C   0  0  0  0  0  0  0  0  0  0  0  0
   -4.2260   16.8680  -34.5940 C   0  0  0  0  0  0  0  0  0  0  0  0
   -5.0890   16.0110  -33.8750 C   0  0  0  0  0  0  0  0  0  0  0  0
   -6.1530   16.5390  -33.1200 C   0  0  0  0  0  0  0  0  0  0  0  0
   -6.3110   17.9270  -33.1040 C   0  0  0  0  0  0  0  0  0  0  0  0
   -7.2820   18.6630  -32.5290 N   0  0  0  0  0  0  0  0  0  0  0  0
   -8.4390   18.1710  -31.7840 C   0  0  0  0  0  0  0  0  0  0  0  0
   -5.7930   22.5210  -30.9350 C   0  0  0  0  0  0  0  0  0  0  0  0
   -4.5250   23.0820  -30.7500 C   0  0  0  0  0  0  0  0  0  0  0  0
   -2.9830   22.1180  -31.3440 Br  0  0  0  0  0  0  0  0  0  0  0  0
   -2.4513   24.5204  -26.8616 H   0  0  0  0  0  0  0  0  0  0  0  0
   -3.9854   24.6672  -27.7844 H   0  0  0  0  0  0  0  0  0  0  0  0
   -3.0824   23.1144  -27.7844 H   0  0  0  0  0  0  0  0  0  0  0  0
   -1.6526   25.5834  -28.7571 H   0  0  0  0  0  0  0  0  0  0  0  0
   -1.4975   23.8753  -29.2910 H   0  0  0  0  0  0  0  0  0  0  0  0
   -5.4491   26.0194  -29.2554 H   0  0  0  0  0  0  0  0  0  0  0  0
   -7.7019   25.0002  -29.5608 H   0  0  0  0  0  0  0  0  0  0  0  0
   -8.9427   22.7557  -29.9597 H   0  0  0  0  0  0  0  0  0  0  0  0
   -8.7464   23.2654  -31.6831 H   0  0  0  0  0  0  0  0  0  0  0  0
   -7.4510   20.8300  -30.7440 H   0  0  0  0  0  0  0  0  0  0  0  0
   -8.8793   20.9432  -33.2583 H   0  0  0  0  0  0  0  0  0  0  0  0
   -7.4409   22.0202  -33.0687 H   0  0  0  0  0  0  0  0  0  0  0  0
   -5.5120   20.8650  -34.1740 H   0  0  0  0  0  0  0  0  0  0  0  0
   -3.7581   18.9392  -35.1246 H   0  0  0  0  0  0  0  0  0  0  0  0
   -3.3979   16.4431  -35.1802 H   0  0  0  0  0  0  0  0  0  0  0  0
   -4.9282   14.9232  -33.9055 H   0  0  0  0  0  0  0  0  0  0  0  0
   -6.8362   15.8818  -32.5621 H   0  0  0  0  0  0  0  0  0  0  0  0
   -8.2428   18.2544  -30.7049 H   0  0  0  0  0  0  0  0  0  0  0  0
   -9.3240   18.7706  -32.0432 H   0  0  0  0  0  0  0  0  0  0  0  0
   -8.6211   17.1176  -32.0432 H   0  0  0  0  0  0  0  0  0  0  0  0
   -5.8880   21.5219  -31.3854 H   0  0  0  0  0  0  0  0  0  0  0  0
  1  2  1  0
  2  3  1  0
  3  4  1  0
  4  5  2  0
  5  6  1  0
  6  7  2  0
  7  8  1  0
  8  9  1  0
  9 10  1  0
 10 11  1  0
 11 12  2  0
 12 13  1  0
 13 14  2  0
 14 15  1  0
 15 16  2  0
 16 17  1  0
 17 18  2  0
 18 19  1  0
 19 20  1  0
  7 21  1  0
 21 22  2  0
 22 23  1  0
 22  4  1  0
 19 11  1  0
 18 13  1  0
  1 24  1  0
  1 25  1  0
  1 26  1  0
  2 27  1  0
  2 28  1  0
  5 29  1  0
  6 30  1  0
  8 31  1  0
  8 32  1  0
  9 33  1  0
 10 34  1  0
 10 35  1  0
 12 36  1  0
 14 37  1  0
 15 38  1  0
 16 39  1  0
 17 40  1  0
 20 41  1  0
 20 42  1  0
 20 43  1  0
 21 44  1  0
M  CHG  1  12   1
M  END
>  <UniqueID>  (20) 
20

>  <SMILES>  (20) 
CCOc1ccc(CNCc2[nH+]c3ccccc3n2C)cc1Br

>  <Energy>  (20) 
73.76449449875794

>  <Genealogy>  (20) 
CCOc1ccc(CNCc2[nH+]c3ccccc3n2C)cc1Br (protonated)
CCOc1ccc(CNCc2[nH+]c3ccccc3n2C)cc1Br (3D coordinates assigned)
CCOc1ccc(CNCc2[nH+]c3ccccc3n2C)cc1Br (optimized conformer: 73.76449449875794 kcal/mol)

>  <smiles>  (20) 
CCOc1ccc(CNCc2nc3ccccc3n2C)cc1Br

>  <score_type>  (20) 
oracle

>  <origin>  (20) 
adg

>  <m_score__min__energy>  (20) 
-8.3599999999999994

>  <m_primary>  (20) 
energy

$$$$
20:0
     RDKit          3D

 35 35  0  0  0  0  0  0  0  0999 V2000
   -2.2430   25.6660  -26.0470 C   0  0  0  0  0  0  0  0  0  0  0  0
   -2.7230   24.8040  -26.9460 C   0  0  0  0  0  0  0  0  0  0  0  0
   -1.9610   24.4940  -28.2030 C   0  0  0  0  0  0  0  0  0  0  0  0
   -2.5480   25.1900  -29.3430 N   0  0  0  0  0  0  0  0  0  0  0  0
   -3.8400   24.9220  -29.9070 C   0  0  0  0  0  0  0  0  0  0  0  0
   -4.2430   25.6370  -30.8610 O   0  0  0  0  0  0  0  0  0  0  0  0
   -4.7500   23.8500  -29.3600 C   0  0  0  0  0  0  0  0  0  0  0  0
   -6.1600   24.1050  -29.6980 N   0  0  0  0  0  0  0  0  0  0  0  0
   -6.7120   23.0360  -30.4980 C   0  0  0  0  0  0  0  0  0  0  0  0
   -6.0930   22.6560  -31.7000 C   0  0  0  0  0  0  0  0  0  0  0  0
   -6.6370   21.6370  -32.4870 C   0  0  0  0  0  0  0  0  0  0  0  0
   -7.8190   20.9830  -32.0870 C   0  0  0  0  0  0  0  0  0  0  0  0
   -8.4120   19.9540  -32.8360 O   0  0  0  0  0  0  0  0  0  0  0  0
   -8.6840   18.6340  -32.3640 C   0  0  0  0  0  0  0  0  0  0  0  0
   -7.3890   17.9030  -32.0260 C   0  0  0  0  0  0  0  0  0  0  0  0
   -8.4340   21.3640  -30.8890 C   0  0  0  0  0  0  0  0  0  0  0  0
   -7.8900   22.3820  -30.1000 C   0  0  0  0  0  0  0  0  0  0  0  0
   -2.8142   25.8814  -25.1319 H   0  0  0  0  0  0  0  0  0  0  0  0
   -1.2762   26.1610  -26.2212 H   0  0  0  0  0  0  0  0  0  0  0  0
   -3.6906   24.3135  -26.7638 H   0  0  0  0  0  0  0  0  0  0  0  0
   -0.9163   24.8161  -28.0814 H   0  0  0  0  0  0  0  0  0  0  0  0
   -2.0056   23.4104  -28.3872 H   0  0  0  0  0  0  0  0  0  0  0  0
   -4.4521   22.8797  -29.7839 H   0  0  0  0  0  0  0  0  0  0  0  0
   -4.6560   23.8482  -28.2640 H   0  0  0  0  0  0  0  0  0  0  0  0
   -6.7080   24.1820  -28.8090 H   0  0  0  0  0  0  0  0  0  0  0  0
   -6.2530   25.0200  -30.1970 H   0  0  0  0  0  0  0  0  0  0  0  0
   -5.1730   23.1642  -32.0246 H   0  0  0  0  0  0  0  0  0  0  0  0
   -6.1397   21.3442  -33.4235 H   0  0  0  0  0  0  0  0  0  0  0  0
   -9.3098   18.6954  -31.4614 H   0  0  0  0  0  0  0  0  0  0  0  0
   -9.2074   18.0772  -33.1552 H   0  0  0  0  0  0  0  0  0  0  0  0
   -7.2778   17.8402  -30.9334 H   0  0  0  0  0  0  0  0  0  0  0  0
   -7.4190   16.8886  -32.4504 H   0  0  0  0  0  0  0  0  0  0  0  0
   -6.5360   18.4529  -32.4504 H   0  0  0  0  0  0  0  0  0  0  0  0
   -9.3549   20.8573  -30.5648 H   0  0  0  0  0  0  0  0  0  0  0  0
   -8.3870   22.6724  -29.1626 H   0  0  0  0  0  0  0  0  0  0  0  0
  1  2  2  0
  2  3  1  0
  3  4  1  0
  4  5  1  0
  5  6  2  0
  5  7  1  0
  7  8  1  0
  8  9  1  0
  9 10  2  0
 10 11  1  0
 11 12  2  0
 12 13  1  0
 13 14  1  0
 14 15  1  0
 12 16  1  0
 16 17  2  0
 17  9  1  0
  1 18  1  0
  1 19  1  0
  2 20  1  0
  3 21  1  0
  3 22  1  0
  7 23  1  0
  7 24  1  0
  8 25  1  0
  8 26  1  0
 10 27  1  0
 11 28  1  0
 14 29  1  0
 14 30  1  0
 15 31  1  0
 15 32  1  0
 15 33  1  0
 16 34  1  0
 17 35  1  0
M  CHG  2   4  -1   8   1
M  END
>  <UniqueID>  (21) 
21

>  <SMILES>  (21) 
C=CC[N-]C(=O)C[NH2+]c1ccc(OCC)cc1

>  <Energy>  (21) 
26.893352200535865

>  <Genealogy>  (21) 
C=CC[N-]C(=O)C[NH2+]c1ccc(OCC)cc1 (protonated)
C=CC[N-]C(=O)C[NH2+]c1ccc(OCC)cc1 (3D coordinates assigned)
C=CC[N-]C(=O)C[NH2+]c1ccc(OCC)cc1 (optimized conformer: 26.893352200535865 kcal/mol)

>  <smiles>  (21) 
C=CCNC(=O)CNc1ccc(OCC)cc1

>  <score_type>  (21) 
oracle

>  <origin>  (21) 
adg

>  <m_score__min__energy>  (21) 
-6.9800000000000004

>  <m_primary>  (21) 
energy

$$$$
21:0
     RDKit          3D

 37 39  0  0  0  0  0  0  0  0999 V2000
   -2.2270   24.5530  -28.6790 C   0  0  0  0  0  0  0  0  0  0  0  0
   -3.0260   25.2280  -29.6450 O   0  0  0  0  0  0  0  0  0  0  0  0
   -4.2710   24.7710  -30.1000 C   0  0  0  0  0  0  0  0  0  0  0  0
   -5.4890   25.3050  -29.6380 C   0  0  0  0  0  0  0  0  0  0  0  0
   -6.7040   24.8120  -30.1210 C   0  0  0  0  0  0  0  0  0  0  0  0
   -6.7230   23.7830  -31.0750 C   0  0  0  0  0  0  0  0  0  0  0  0
   -8.0340   23.2340  -31.5680 C   0  0  0  0  0  0  0  0  0  0  0  0
   -8.6610   21.9290  -30.4540 S   0  0  0  0  0  0  0  0  0  0  0  0
   -8.4560   20.6030  -31.6470 C   0  0  0  0  0  0  0  0  0  0  0  0
   -9.4800   20.0840  -32.3530 N   0  0  0  0  0  0  0  0  0  0  0  0
   -8.9600   19.1230  -33.0990 N   0  0  0  0  0  0  0  0  0  0  0  0
   -7.6410   19.0500  -32.8380 C   0  0  0  0  0  0  0  0  0  0  0  0
   -6.7420   18.0590  -33.4690 C   0  0  0  0  0  0  0  0  0  0  0  0
   -5.7830   18.4140  -34.4330 C   0  0  0  0  0  0  0  0  0  0  0  0
   -5.0650   17.3380  -34.9300 C   0  0  0  0  0  0  0  0  0  0  0  0
   -5.6350   15.9440  -34.1880 S   0  0  0  0  0  0  0  0  0  0  0  0
   -6.7910   16.6890  -33.2240 C   0  0  0  0  0  0  0  0  0  0  0  0
   -7.2860   19.9930  -31.9360 N   0  0  0  0  0  0  0  0  0  0  0  0
   -5.9690   20.2890  -31.3780 C   0  0  0  0  0  0  0  0  0  0  0  0
   -5.5090   23.2490  -31.5330 C   0  0  0  0  0  0  0  0  0  0  0  0
   -4.2940   23.7410  -31.0480 C   0  0  0  0  0  0  0  0  0  0  0  0
   -2.5587   24.8333  -27.6684 H   0  0  0  0  0  0  0  0  0  0  0  0
   -2.3321   23.4660  -28.8112 H   0  0  0  0  0  0  0  0  0  0  0  0
   -1.1729   24.8382  -28.8112 H   0  0  0  0  0  0  0  0  0  0  0  0
   -5.4842   26.1144  -28.8931 H   0  0  0  0  0  0  0  0  0  0  0  0
   -7.6507   25.2328  -29.7514 H   0  0  0  0  0  0  0  0  0  0  0  0
   -8.7701   24.0500  -31.6155 H   0  0  0  0  0  0  0  0  0  0  0  0
   -7.8769   22.7966  -32.5650 H   0  0  0  0  0  0  0  0  0  0  0  0
   -9.5120   18.5180  -33.7490 H   0  0  0  0  0  0  0  0  0  0  0  0
   -5.6176   19.4503  -34.7626 H   0  0  0  0  0  0  0  0  0  0  0  0
   -4.2618   17.3884  -35.6798 H   0  0  0  0  0  0  0  0  0  0  0  0
   -7.4691   16.1827  -32.5212 H   0  0  0  0  0  0  0  0  0  0  0  0
   -6.0249   20.2764  -30.2795 H   0  0  0  0  0  0  0  0  0  0  0  0
   -5.2482   19.5305  -31.7171 H   0  0  0  0  0  0  0  0  0  0  0  0
   -5.6421   21.2830  -31.7171 H   0  0  0  0  0  0  0  0  0  0  0  0
   -5.5135   22.4392  -32.2774 H   0  0  0  0  0  0  0  0  0  0  0  0
   -3.3480   23.3154  -31.4141 H   0  0  0  0  0  0  0  0  0  0  0  0
  1  2  1  0
  2  3  1  0
  3  4  2  0
  4  5  1  0
  5  6  2  0
  6  7  1  0
  7  8  1  0
  8  9  1  0
  9 10  2  0
 10 11  1  0
 11 12  2  0
 12 13  1  0
 13 14  1  0
 14 15  2  0
 15 16  1  0
 16 17  1  0
 12 18  1  0
 18 19  1  0
  6 20  1  0
 20 21  2  0
 21  3  1  0
 18  9  1  0
 17 13  2  0
  1 22  1  0
  1 23  1  0
  1 24  1  0
  4 25  1  0
  5 26  1  0
  7 27  1  0
  7 28  1  0
 11 29  1  0
 14 30  1  0
 15 31  1  0
 17 32  1  0
 19 33  1  0
 19 34  1  0
 19 35  1  0
 20 36  1  0
 21 37  1  0
M  CHG  1  11   1
M  END
>  <UniqueID>  (22) 
22

>  <SMILES>  (22) 
COc1ccc(CSc2n[nH+]c(-c3ccsc3)n2C)cc1

>  <Energy>  (22) 
97.54828701362042

>  <Genealogy>  (22) 
COc1ccc(CSc2n[nH+]c(-c3ccsc3)n2C)cc1 (protonated)
COc1ccc(CSc2n[nH+]c(-c3ccsc3)n2C)cc1 (3D coordinates assigned)
COc1ccc(CSc2n[nH+]c(-c3ccsc3)n2C)cc1 (optimized conformer: 97.54828701362042 kcal/mol)

>  <smiles>  (22) 
COc1ccc(CSc2nnc(-c3ccsc3)n2C)cc1

>  <score_type>  (22) 
oracle

>  <origin>  (22) 
adg

>  <m_score__min__energy>  (22) 
-8.0700000000000003

>  <m_primary>  (22) 
energy

$$$$
22:0
     RDKit          3D

 48 50  0  0  0  0  0  0  0  0999 V2000
   -5.3620   16.0660  -32.0080 C   0  0  0  0  0  0  0  0  0  0  0  0
   -6.1970   17.0930  -31.2480 C   0  0  0  0  0  0  0  0  0  0  0  0
   -7.3890   17.4750  -32.0220 N   0  0  0  0  0  0  0  0  0  0  0  0
   -8.2800   18.3420  -31.2380 C   0  0  0  0  0  0  0  0  0  0  0  0
   -9.0140   19.3310  -32.1480 C   0  0  0  0  0  0  0  0  0  0  0  0
   -8.1470   19.7940  -33.2330 N   0  0  0  0  0  0  0  0  0  0  0  0
   -6.7510   20.0660  -33.0120 C   0  0  0  0  0  0  0  0  0  0  0  0
   -5.7670   19.2710  -33.6260 C   0  0  0  0  0  0  0  0  0  0  0  0
   -6.1230   18.1500  -34.4070 C   0  0  0  0  0  0  0  0  0  0  0  0
   -5.1520   17.4060  -35.0720 C   0  0  0  0  0  0  0  0  0  0  0  0
   -3.8130   17.7650  -34.9730 C   0  0  0  0  0  0  0  0  0  0  0  0
   -3.4320   18.8430  -34.1750 C   0  0  0  0  0  0  0  0  0  0  0  0
   -4.3940   19.5900  -33.4440 C   0  0  0  0  0  0  0  0  0  0  0  0
   -4.0240   20.6070  -32.5850 N   0  0  0  0  0  0  0  0  0  0  0  0
   -2.6080   20.7500  -32.1750 C   0  0  0  0  0  0  0  0  0  0  0  0
   -4.9810   21.4650  -32.0730 C   0  0  0  0  0  0  0  0  0  0  0  0
   -4.6250   22.6610  -31.3970 C   0  0  0  0  0  0  0  0  0  0  0  0
   -5.5970   23.4940  -30.8350 C   0  0  0  0  0  0  0  0  0  0  0  0
   -5.1180   24.9590  -29.9830 S   0  0  0  0  0  0  0  0  0  0  0  0
   -4.7550   24.5790  -28.3360 N   0  0  0  0  0  0  0  0  0  0  0  0
   -3.9040   25.5540  -30.6410 O   0  0  0  0  0  0  0  0  0  0  0  0
   -6.2310   25.9680  -30.0280 O   0  0  0  0  0  0  0  0  0  0  0  0
   -6.9440   23.1490  -30.9340 C   0  0  0  0  0  0  0  0  0  0  0  0
   -7.3240   22.0070  -31.6320 C   0  0  0  0  0  0  0  0  0  0  0  0
   -6.3610   21.1720  -32.2340 C   0  0  0  0  0  0  0  0  0  0  0  0
   -4.8356   15.4186  -31.2912 H   0  0  0  0  0  0  0  0  0  0  0  0
   -6.0212   15.4530  -32.6403 H   0  0  0  0  0  0  0  0  0  0  0  0
   -4.6274   16.5862  -32.6403 H   0  0  0  0  0  0  0  0  0  0  0  0
   -6.5142   16.6601  -30.2878 H   0  0  0  0  0  0  0  0  0  0  0  0
   -5.5837   17.9906  -31.0801 H   0  0  0  0  0  0  0  0  0  0  0  0
   -7.9150   16.5960  -32.2390 H   0  0  0  0  0  0  0  0  0  0  0  0
   -9.0186   17.7191  -30.7121 H   0  0  0  0  0  0  0  0  0  0  0  0
   -7.6746   18.9094  -30.5158 H   0  0  0  0  0  0  0  0  0  0  0  0
   -9.8958   18.8351  -32.5798 H   0  0  0  0  0  0  0  0  0  0  0  0
   -9.3150   20.2013  -31.5464 H   0  0  0  0  0  0  0  0  0  0  0  0
   -8.4890   19.6900  -34.2150 H   0  0  0  0  0  0  0  0  0  0  0  0
   -7.1809   17.8607  -34.4912 H   0  0  0  0  0  0  0  0  0  0  0  0
   -5.4446   16.5342  -35.6756 H   0  0  0  0  0  0  0  0  0  0  0  0
   -3.0509   17.1965  -35.5263 H   0  0  0  0  0  0  0  0  0  0  0  0
   -2.3693   19.1195  -34.1105 H   0  0  0  0  0  0  0  0  0  0  0  0
   -2.5431   20.7566  -31.0769 H   0  0  0  0  0  0  0  0  0  0  0  0
   -2.0244   19.9062  -32.5718 H   0  0  0  0  0  0  0  0  0  0  0  0
   -2.2049   21.6934  -32.5718 H   0  0  0  0  0  0  0  0  0  0  0  0
   -3.5637   22.9380  -31.3136 H   0  0  0  0  0  0  0  0  0  0  0  0
   -4.5960   25.4860  -27.8430 H   0  0  0  0  0  0  0  0  0  0  0  0
   -5.6170   24.1590  -27.9230 H   0  0  0  0  0  0  0  0  0  0  0  0
   -7.7085   23.7813  -30.4590 H   0  0  0  0  0  0  0  0  0  0  0  0
   -8.3908   21.7522  -31.7152 H   0  0  0  0  0  0  0  0  0  0  0  0
  1  2  1  0
  2  3  1  0
  3  4  1  0
  4  5  1  0
  5  6  1  0
  6  7  1  0
  7  8  2  0
  8  9  1  0
  9 10  2  0
 10 11  1  0
 11 12  2  0
 12 13  1  0
 13 14  2  0
 14 15  1  0
 14 16  1  0
 16 17  2  0
 17 18  1  0
 18 19  1  0
 19 20  1  0
 19 21  2  0
 19 22  2  0
 18 23  2  0
 23 24  1  0
 24 25  2  0
 25  7  1  0
 13  8  1  0
 25 16  1  0
  1 26  1  0
  1 27  1  0
  1 28  1  0
  2 29  1  0
  2 30  1  0
  3 31  1  0
  4 32  1  0
  4 33  1  0
  5 34  1  0
  5 35  1  0
  6 36  1  0
  9 37  1  0
 10 38  1  0
 11 39  1  0
 12 40  1  0
 15 41  1  0
 15 42  1  0
 15 43  1  0
 17 44  1  0
 20 45  1  0
 20 46  1  0
 23 47  1  0
 24 48  1  0
M  CHG  1  14   1
M  END
>  <UniqueID>  (23) 
23

>  <SMILES>  (23) 
CCNCCNc1c2ccccc2[n+](C)c2cc(S(N)(=O)=O)ccc12

>  <Energy>  (23) 
68.10068663086835

>  <Genealogy>  (23) 
CCNCCNc1c2ccccc2[n+](C)c2cc(S(N)(=O)=O)ccc12 (3D coordinates assigned)
CCNCCNc1c2ccccc2[n+](C)c2cc(S(N)(=O)=O)ccc12 (optimized conformer: 68.10068663086835 kcal/mol)

>  <smiles>  (23) 
CCNCCNc1c2ccccc2[n+](C)c2cc(S(N)(=O)=O)ccc12

>  <score_type>  (23) 
oracle

>  <origin>  (23) 
adg

>  <m_score__min__energy>  (23) 
-9.5299999999999994

>  <m_primary>  (23) 
energy

$$$$
23:0
     RDKit          3D

 65 67  0  0  0  0  0  0  0  0999 V2000
   -0.3510   26.9410  -23.2140 C   0  0  0  0  0  0  0  0  0  0  0  0
   -1.2010   26.7720  -24.4800 C   0  0  0  0  0  0  0  0  0  0  0  0
   -0.9290   25.4960  -25.1920 N   0  0  2  0  0  0  0  0  0  0  0  0
   -0.4680   24.4850  -24.2190 C   0  0  0  0  0  0  0  0  0  0  0  0
    0.0810   25.7050  -26.2620 C   0  0  0  0  0  0  0  0  0  0  0  0
   -0.2590   24.9740  -27.5720 C   0  0  0  0  0  0  0  0  0  0  0  0
   -1.6630   24.9570  -27.7420 O   0  0  0  0  0  0  0  0  0  0  0  0
   -2.0170   24.4800  -29.0240 C   0  0  0  0  0  0  0  0  0  0  0  0
   -3.5330   24.5380  -29.1720 C   0  0  0  0  0  0  0  0  0  0  0  0
   -3.8640   25.0380  -30.4550 O   0  0  0  0  0  0  0  0  0  0  0  0
   -5.2550   24.9900  -30.7100 C   0  0  0  0  0  0  0  0  0  0  0  0
   -5.5890   23.8550  -31.6920 C   0  0  0  0  0  0  0  0  0  0  0  0
   -4.7350   22.6860  -31.4730 N   0  0  0  0  0  0  0  0  0  0  0  0
   -5.0280   21.4040  -32.0640 C   0  0  0  0  0  0  0  0  0  0  0  0
   -6.3500   20.9140  -32.0380 C   0  0  0  0  0  0  0  0  0  0  0  0
   -7.3510   21.5590  -31.2790 C   0  0  0  0  0  0  0  0  0  0  0  0
   -8.6560   21.0740  -31.2590 C   0  0  0  0  0  0  0  0  0  0  0  0
   -8.9820   19.9210  -31.9610 C   0  0  0  0  0  0  0  0  0  0  0  0
   -8.0070   19.2540  -32.7000 C   0  0  0  0  0  0  0  0  0  0  0  0
   -6.6790   19.7480  -32.7770 C   0  0  0  0  0  0  0  0  0  0  0  0
   -5.7160   19.1210  -33.5390 N   0  0  0  0  0  0  0  0  0  0  0  0
   -6.1190   18.1200  -34.5550 C   0  0  0  0  0  0  0  0  0  0  0  0
   -4.3820   19.4420  -33.3710 C   0  0  0  0  0  0  0  0  0  0  0  0
   -3.3630   18.6130  -33.8990 C   0  0  0  0  0  0  0  0  0  0  0  0
   -2.0250   18.9600  -33.7900 C   0  0  0  0  0  0  0  0  0  0  0  0
   -1.6560   20.1290  -33.1440 C   0  0  0  0  0  0  0  0  0  0  0  0
   -2.6220   20.9640  -32.5580 C   0  0  0  0  0  0  0  0  0  0  0  0
   -2.2250   22.1240  -31.8740 O   0  0  0  0  0  0  0  0  0  0  0  0
   -1.2250   22.1830  -30.8610 C   0  0  0  0  0  0  0  0  0  0  0  0
   -4.0050   20.6170  -32.6520 C   0  0  0  0  0  0  0  0  0  0  0  0
   -0.9872   26.8145  -22.3256 H   0  0  0  0  0  0  0  0  0  0  0  0
    0.4470   26.1839  -23.2043 H   0  0  0  0  0  0  0  0  0  0  0  0
    0.0967   27.9457  -23.2043 H   0  0  0  0  0  0  0  0  0  0  0  0
   -2.2633   26.7959  -24.1955 H   0  0  0  0  0  0  0  0  0  0  0  0
   -0.9424   27.5938  -25.1639 H   0  0  0  0  0  0  0  0  0  0  0  0
   -1.8200   25.1450  -25.6210 H   0  0  0  0  0  0  0  0  0  0  0  0
   -0.6370   24.8557  -23.1972 H   0  0  0  0  0  0  0  0  0  0  0  0
   -1.0290   23.5506  -24.3676 H   0  0  0  0  0  0  0  0  0  0  0  0
    0.6054   24.2958  -24.3676 H   0  0  0  0  0  0  0  0  0  0  0  0
    0.1496   26.7827  -26.4714 H   0  0  0  0  0  0  0  0  0  0  0  0
    1.0327   25.2919  -25.8964 H   0  0  0  0  0  0  0  0  0  0  0  0
    0.2081   25.4987  -28.4185 H   0  0  0  0  0  0  0  0  0  0  0  0
    0.1216   23.9428  -27.5303 H   0  0  0  0  0  0  0  0  0  0  0  0
   -1.5466   25.1085  -29.7945 H   0  0  0  0  0  0  0  0  0  0  0  0
   -1.6705   23.4429  -29.1442 H   0  0  0  0  0  0  0  0  0  0  0  0
   -3.9518   23.5278  -29.0531 H   0  0  0  0  0  0  0  0  0  0  0  0
   -3.9512   25.2018  -28.4010 H   0  0  0  0  0  0  0  0  0  0  0  0
   -5.7897   24.8181  -29.7642 H   0  0  0  0  0  0  0  0  0  0  0  0
   -5.5658   25.9463  -31.1560 H   0  0  0  0  0  0  0  0  0  0  0  0
   -6.6398   23.5607  -31.5538 H   0  0  0  0  0  0  0  0  0  0  0  0
   -5.4158   24.2217  -32.7145 H   0  0  0  0  0  0  0  0  0  0  0  0
   -3.9530   22.7610  -30.7850 H   0  0  0  0  0  0  0  0  0  0  0  0
   -7.0964   22.4563  -30.6959 H   0  0  0  0  0  0  0  0  0  0  0  0
   -9.4303   21.6052  -30.6860 H   0  0  0  0  0  0  0  0  0  0  0  0
  -10.0112   19.5338  -31.9336 H   0  0  0  0  0  0  0  0  0  0  0  0
   -8.2713   18.3287  -33.2328 H   0  0  0  0  0  0  0  0  0  0  0  0
   -6.4842   17.2129  -34.0513 H   0  0  0  0  0  0  0  0  0  0  0  0
   -6.9191   18.5375  -35.1839 H   0  0  0  0  0  0  0  0  0  0  0  0
   -5.2528   17.8667  -35.1839 H   0  0  0  0  0  0  0  0  0  0  0  0
   -3.6379   17.6759  -34.4053 H   0  0  0  0  0  0  0  0  0  0  0  0
   -1.2528   18.3042  -34.2184 H   0  0  0  0  0  0  0  0  0  0  0  0
   -0.5931   20.4068  -33.0893 H   0  0  0  0  0  0  0  0  0  0  0  0
   -1.7038   22.1548  -29.8711 H   0  0  0  0  0  0  0  0  0  0  0  0
   -0.5467   21.3233  -30.9649 H   0  0  0  0  0  0  0  0  0  0  0  0
   -0.6525   23.1165  -30.9649 H   0  0  0  0  0  0  0  0  0  0  0  0
  1  2  1  0
  2  3  1  0
  3  4  1  0
  3  5  1  0
  5  6  1  0
  6  7  1  0
  7  8  1  0
  8  9  1  0
  9 10  1  0
 10 11  1  0
 11 12  1  0
 12 13  1  0
 13 14  1  0
 14 15  2  0
 15 16  1  0
 16 17  2  0
 17 18  1  0
 18 19  2  0
 19 20  1  0
 20 21  2  0
 21 22  1  0
 21 23  1  0
 23 24  2  0
 24 25  1  0
 25 26  2  0
 26 27  1  0
 27 28  1  0
 28 29  1  0
 27 30  2  0
 30 14  1  0
 20 15  1  0
 30 23  1  0
  1 31  1  0
  1 32  1  0
  1 33  1  0
  2 34  1  0
  2 35  1  0
  3 36  1  6
  4 37  1  0
  4 38  1  0
  4 39  1  0
  5 40  1  0
  5 41  1  0
  6 42  1  0
  6 43  1  0
  8 44  1  0
  8 45  1  0
  9 46  1  0
  9 47  1  0
 11 48  1  0
 11 49  1  0
 12 50  1  0
 12 51  1  0
 13 52  1  0
 16 53  1  0
 17 54  1  0
 18 55  1  0
 19 56  1  0
 22 57  1  0
 22 58  1  0
 22 59  1  0
 24 60  1  0
 25 61  1  0
 26 62  1  0
 29 63  1  0
 29 64  1  0
 29 65  1  0
M  CHG  2   3   1  21   1
M  END
>  <UniqueID>  (24) 
24

>  <SMILES>  (24) 
CC[N@H+](C)CCOCCOCCNc1c2ccccc2[n+](C)c2cccc(OC)c12

>  <Energy>  (24) 
94.05661582414383

>  <Genealogy>  (24) 
CC[NH+](C)CCOCCOCCNc1c2ccccc2[n+](C)c2cccc(OC)c12 (protonated)
CC[N@H+](C)CCOCCOCCNc1c2ccccc2[n+](C)c2cccc(OC)c12 (chirality)
CC[N@H+](C)CCOCCOCCNc1c2ccccc2[n+](C)c2cccc(OC)c12 (3D coordinates assigned)
CC[N@H+](C)CCOCCOCCNc1c2ccccc2[n+](C)c2cccc(OC)c12 (optimized conformer: 94.05661582414383 kcal/mol)

>  <smiles>  (24) 
CCN(C)CCOCCOCCNc1c2ccccc2[n+](C)c2cccc(OC)c12

>  <score_type>  (24) 
oracle

>  <origin>  (24) 
adg

>  <m_score__min__energy>  (24) 
-8.1699999999999999

>  <m_primary>  (24) 
energy

$$$$
24:0
     RDKit          3D

 62 65  0  0  0  0  0  0  0  0999 V2000
   -2.7190   20.3780  -27.6770 C   0  0  0  0  0  0  0  0  0  0  0  0
   -1.4450   20.8970  -27.0190 C   0  0  0  0  0  0  0  0  0  0  0  0
   -1.0090   22.1500  -27.6500 N   0  0  0  0  0  0  0  0  0  0  0  0
   -1.5220   23.3210  -26.9250 C   0  0  0  0  0  0  0  0  0  0  0  0
   -2.4960   24.0930  -27.8090 C   0  0  0  0  0  0  0  0  0  0  0  0
   -1.9620   24.1990  -29.1090 O   0  0  0  0  0  0  0  0  0  0  0  0
   -2.7970   23.5140  -29.9380 N   0  0  0  0  0  0  0  0  0  0  0  0
   -2.2300   22.5090  -30.7990 C   0  0  0  0  0  0  0  0  0  0  0  0
   -1.1120   21.9910  -30.5310 O   0  0  0  0  0  0  0  0  0  0  0  0
   -2.9530   22.0880  -31.9210 O   0  0  0  0  0  0  0  0  0  0  0  0
   -4.0300   21.1530  -31.8640 C   0  0  2  0  0  0  0  0  0  0  0  0
   -3.4870   19.7030  -32.0690 C   0  0  0  0  0  0  0  0  0  0  0  0
   -4.5870   18.7350  -32.5910 C   0  0  1  0  0  0  0  0  0  0  0  0
   -5.7540   18.7050  -31.5850 C   0  0  0  0  0  0  0  0  0  0  0  0
   -6.7040   19.7940  -32.0770 C   0  0  0  0  0  0  0  0  0  0  0  0
   -6.0110   20.3680  -33.3260 C   0  0  1  0  0  0  0  0  0  0  0  0
   -5.1110   21.5660  -32.9080 C   0  0  0  0  0  0  0  0  0  0  0  0
   -5.1250   19.3080  -33.8350 N   0  0  2  0  0  0  0  0  0  0  0  0
   -5.7390   18.3520  -34.7950 C   0  0  0  0  0  0  0  0  0  0  0  0
   -5.5480   16.8900  -34.5010 C   0  0  0  0  0  0  0  0  0  0  0  0
   -6.5570   15.9740  -34.2280 C   0  0  0  0  0  0  0  0  0  0  0  0
   -6.0930   14.6580  -34.1180 C   0  0  0  0  0  0  0  0  0  0  0  0
   -4.7270   14.5270  -34.3350 C   0  0  0  0  0  0  0  0  0  0  0  0
   -4.0980   16.0490  -34.6690 S   0  0  0  0  0  0  0  0  0  0  0  0
   -4.1770   23.9160  -30.0330 C   0  0  0  0  0  0  0  0  0  0  0  0
   -4.4980   25.2300  -30.4140 C   0  0  0  0  0  0  0  0  0  0  0  0
   -5.8320   25.6420  -30.4770 C   0  0  0  0  0  0  0  0  0  0  0  0
   -6.8570   24.7530  -30.1470 C   0  0  0  0  0  0  0  0  0  0  0  0
   -6.5480   23.4510  -29.7450 C   0  0  0  0  0  0  0  0  0  0  0  0
   -5.2150   23.0340  -29.6820 C   0  0  0  0  0  0  0  0  0  0  0  0
   -3.4398   20.0844  -26.8996 H   0  0  0  0  0  0  0  0  0  0  0  0
   -3.1570   21.1694  -28.3030 H   0  0  0  0  0  0  0  0  0  0  0  0
   -2.4793   19.5058  -28.3030 H   0  0  0  0  0  0  0  0  0  0  0  0
   -1.6379   21.0782  -25.9513 H   0  0  0  0  0  0  0  0  0  0  0  0
   -0.6519   20.1446  -27.1408 H   0  0  0  0  0  0  0  0  0  0  0  0
   -1.4130   22.1760  -28.6150 H   0  0  0  0  0  0  0  0  0  0  0  0
   -2.0415   22.9875  -26.0145 H   0  0  0  0  0  0  0  0  0  0  0  0
   -0.6811   23.9764  -26.6543 H   0  0  0  0  0  0  0  0  0  0  0  0
   -3.4574   23.5600  -27.8491 H   0  0  0  0  0  0  0  0  0  0  0  0
   -2.6537   25.0988  -27.3924 H   0  0  0  0  0  0  0  0  0  0  0  0
   -4.5107   21.1628  -30.8746 H   0  0  0  0  0  0  0  0  0  0  0  0
   -2.6646   19.7321  -32.7989 H   0  0  0  0  0  0  0  0  0  0  0  0
   -3.1418   19.3294  -31.0937 H   0  0  0  0  0  0  0  0  0  0  0  0
   -4.1656   17.7293  -32.7359 H   0  0  0  0  0  0  0  0  0  0  0  0
   -6.2497   17.7230  -31.5923 H   0  0  0  0  0  0  0  0  0  0  0  0
   -5.4213   18.8735  -30.5502 H   0  0  0  0  0  0  0  0  0  0  0  0
   -7.6843   19.3677  -32.3366 H   0  0  0  0  0  0  0  0  0  0  0  0
   -6.8952   20.5615  -31.3126 H   0  0  0  0  0  0  0  0  0  0  0  0
   -6.7515   20.6953  -34.0707 H   0  0  0  0  0  0  0  0  0  0  0  0
   -4.6071   21.9599  -33.8030 H   0  0  0  0  0  0  0  0  0  0  0  0
   -5.7555   22.3273  -32.4442 H   0  0  0  0  0  0  0  0  0  0  0  0
   -4.3470   19.7390  -34.3910 H   0  0  0  0  0  0  0  0  0  0  0  0
   -6.8208   18.5497  -34.8177 H   0  0  0  0  0  0  0  0  0  0  0  0
   -5.2223   18.5267  -35.7503 H   0  0  0  0  0  0  0  0  0  0  0  0
   -7.6140   16.2550  -34.1102 H   0  0  0  0  0  0  0  0  0  0  0  0
   -6.7487   13.8070  -33.8818 H   0  0  0  0  0  0  0  0  0  0  0  0
   -4.1553   13.5881  -34.2950 H   0  0  0  0  0  0  0  0  0  0  0  0
   -3.6946   25.9385  -30.6641 H   0  0  0  0  0  0  0  0  0  0  0  0
   -6.0751   26.6690  -30.7873 H   0  0  0  0  0  0  0  0  0  0  0  0
   -7.9066   25.0774  -30.2035 H   0  0  0  0  0  0  0  0  0  0  0  0
   -7.3549   22.7528  -29.4776 H   0  0  0  0  0  0  0  0  0  0  0  0
   -4.9767   22.0107  -29.3562 H   0  0  0  0  0  0  0  0  0  0  0  0
  1  2  1  0
  2  3  1  0
  3  4  1  0
  4  5  1  0
  5  6  1  0
  6  7  1  0
  7  8  1  0
  8  9  2  0
  8 10  1  0
 10 11  1  0
 11 12  1  0
 12 13  1  0
 13 14  1  0
 14 15  1  0
 15 16  1  0
 16 17  1  0
 16 18  1  0
 18 19  1  0
 19 20  1  0
 20 21  2  0
 21 22  1  0
 22 23  2  0
 23 24  1  0
  7 25  1  0
 25 26  2  0
 26 27  1  0
 27 28  2  0
 28 29  1  0
 29 30  2  0
 17 11  1  0
 24 20  1  0
 30 25  1  0
 18 13  1  0
  1 31  1  0
  1 32  1  0
  1 33  1  0
  2 34  1  0
  2 35  1  0
  3 36  1  0
  4 37  1  0
  4 38  1  0
  5 39  1  0
  5 40  1  0
 11 41  1  1
 12 42  1  0
 12 43  1  0
 13 44  1  6
 14 45  1  0
 14 46  1  0
 15 47  1  0
 15 48  1  0
 16 49  1  6
 17 50  1  0
 17 51  1  0
 18 52  1  6
 19 53  1  0
 19 54  1  0
 21 55  1  0
 22 56  1  0
 23 57  1  0
 26 58  1  0
 27 59  1  0
 28 60  1  0
 29 61  1  0
 30 62  1  0
M  CHG  1  18   1
M  END
>  <UniqueID>  (25) 
25

>  <SMILES>  (25) 
CCNCCON(C(=O)OC1C[C@H]2CC[C@@H](C1)[NH+]2Cc1cccs1)c1ccccc1

>  <Energy>  (25) 
104.59950659902528

>  <Genealogy>  (25) 
CCNCCON(C(=O)OC1CC2CCC(C1)[NH+]2Cc1cccs1)c1ccccc1 (protonated)
CCNCCON(C(=O)OC1C[C@H]2CC[C@@H](C1)[NH+]2Cc1cccs1)c1ccccc1 (chirality)
CCNCCON(C(=O)OC1C[C@H]2CC[C@@H](C1)[NH+]2Cc1cccs1)c1ccccc1 (3D coordinates assigned)
CCNCCON(C(=O)OC1C[C@H]2CC[C@@H](C1)[NH+]2Cc1cccs1)c1ccccc1 (nonaromatic ring conformer: 104.59950659902528 kcal/mol)

>  <smiles>  (25) 
CCNCCON(C(=O)OC1CC2CCC(C1)N2Cc1cccs1)c1ccccc1

>  <score_type>  (25) 
oracle

>  <origin>  (25) 
adg

>  <m_score__min__energy>  (25) 
-7.7300000000000004

>  <m_primary>  (25) 
energy

$$$$
25:0
     RDKit          3D

 39 42  0  0  0  0  0  0  0  0999 V2000
   -6.3430   17.5090  -31.1810 C   0  0  0  0  0  0  0  0  0  0  0  0
   -5.8700   17.4990  -32.6120 C   0  0  0  0  0  0  0  0  0  0  0  0
   -5.1170   16.4070  -33.0780 C   0  0  0  0  0  0  0  0  0  0  0  0
   -4.6890   16.3580  -34.4060 C   0  0  0  0  0  0  0  0  0  0  0  0
   -5.0010   17.3980  -35.2830 C   0  0  0  0  0  0  0  0  0  0  0  0
   -5.7330   18.4980  -34.8300 C   0  0  0  0  0  0  0  0  0  0  0  0
   -6.1550   18.5680  -33.4940 C   0  0  0  0  0  0  0  0  0  0  0  0
   -6.9010   19.7590  -33.0480 C   0  0  0  0  0  0  0  0  0  0  0  0
   -6.2890   20.9410  -32.7670 N   0  0  0  0  0  0  0  0  0  0  0  0
   -7.2730   21.6820  -32.2330 C   0  0  0  0  0  0  0  0  0  0  0  0
   -8.3940   20.9660  -32.1440 C   0  0  0  0  0  0  0  0  0  0  0  0
   -9.0910   21.2850  -31.0380 N   0  0  0  0  0  0  0  0  0  0  0  0
   -8.3430   22.2930  -30.5090 C   0  0  0  0  0  0  0  0  0  0  0  0
   -7.1880   22.5260  -31.1930 N   0  0  0  0  0  0  0  0  0  0  0  0
   -6.0710   23.3470  -30.8030 C   0  0  0  0  0  0  0  0  0  0  0  0
   -6.1620   24.7510  -30.8390 C   0  0  0  0  0  0  0  0  0  0  0  0
   -5.0710   25.5400  -30.4600 C   0  0  0  0  0  0  0  0  0  0  0  0
   -3.8810   24.9390  -30.0460 C   0  0  0  0  0  0  0  0  0  0  0  0
   -3.7780   23.5450  -30.0110 C   0  0  0  0  0  0  0  0  0  0  0  0
   -4.8660   22.7530  -30.3880 C   0  0  0  0  0  0  0  0  0  0  0  0
   -8.2080   19.7370  -32.6550 N   0  0  0  0  0  0  0  0  0  0  0  0
   -9.0070   18.5550  -32.3400 C   0  0  0  0  0  0  0  0  0  0  0  0
   -5.4736   17.4906  -30.5073 H   0  0  0  0  0  0  0  0  0  0  0  0
   -6.9313   18.4198  -30.9956 H   0  0  0  0  0  0  0  0  0  0  0  0
   -6.9693   16.6239  -30.9956 H   0  0  0  0  0  0  0  0  0  0  0  0
   -4.8634   15.5857  -32.3916 H   0  0  0  0  0  0  0  0  0  0  0  0
   -4.1041   15.4972  -34.7622 H   0  0  0  0  0  0  0  0  0  0  0  0
   -4.6704   17.3514  -36.3311 H   0  0  0  0  0  0  0  0  0  0  0  0
   -5.9800   19.3141  -35.5249 H   0  0  0  0  0  0  0  0  0  0  0  0
   -5.2630   21.1360  -32.7660 H   0  0  0  0  0  0  0  0  0  0  0  0
   -8.6421   22.8630  -29.6170 H   0  0  0  0  0  0  0  0  0  0  0  0
   -7.0961   25.2304  -31.1670 H   0  0  0  0  0  0  0  0  0  0  0  0
   -5.1509   26.6367  -30.4882 H   0  0  0  0  0  0  0  0  0  0  0  0
   -3.0248   25.5617  -29.7475 H   0  0  0  0  0  0  0  0  0  0  0  0
   -2.8398   23.0713  -29.6864 H   0  0  0  0  0  0  0  0  0  0  0  0
   -4.7790   21.6568  -30.3599 H   0  0  0  0  0  0  0  0  0  0  0  0
   -9.0823   18.4436  -31.2482 H   0  0  0  0  0  0  0  0  0  0  0  0
  -10.0142   18.6687  -32.7673 H   0  0  0  0  0  0  0  0  0  0  0  0
   -8.5260   17.6628  -32.7673 H   0  0  0  0  0  0  0  0  0  0  0  0
  1  2  1  0
  2  3  2  0
  3  4  1  0
  4  5  2  0
  5  6  1  0
  6  7  2  0
  7  8  1  0
  8  9  2  0
  9 10  1  0
 10 11  2  0
 11 12  1  0
 12 13  2  0
 13 14  1  0
 14 15  1  0
 15 16  2  0
 16 17  1  0
 17 18  2  0
 18 19  1  0
 19 20  2  0
 11 21  1  0
 21 22  1  0
  7  2  1  0
 21  8  1  0
 14 10  1  0
 20 15  1  0
  1 23  1  0
  1 24  1  0
  1 25  1  0
  3 26  1  0
  4 27  1  0
  5 28  1  0
  6 29  1  0
  9 30  1  0
 13 31  1  0
 16 32  1  0
 17 33  1  0
 18 34  1  0
 19 35  1  0
 20 36  1  0
 22 37  1  0
 22 38  1  0
 22 39  1  0
M  CHG  1   9   1
M  END
>  <UniqueID>  (26) 
26

>  <SMILES>  (26) 
Cc1ccccc1-c1[nH+]c2c(ncn2-c2ccccc2)n1C

>  <Energy>  (26) 
145.87478311166885

>  <Genealogy>  (26) 
Cc1ccccc1-c1[nH+]c2c(ncn2-c2ccccc2)n1C (protonated)
Cc1ccccc1-c1[nH+]c2c(ncn2-c2ccccc2)n1C (3D coordinates assigned)
Cc1ccccc1-c1[nH+]c2c(ncn2-c2ccccc2)n1C (optimized conformer: 145.87478311166885 kcal/mol)

>  <smiles>  (26) 
Cc1ccccc1-c1nc2c(ncn2-c2ccccc2)n1C

>  <score_type>  (26) 
oracle

>  <origin>  (26) 
adg

>  <m_score__min__energy>  (26) 
-7.5499999999999998

>  <m_primary>  (26) 
energy

$$$$
26:0
     RDKit          3D

 68 70  0  0  0  0  0  0  0  0999 V2000
   -6.3480   25.6440  -29.6590 C   0  0  0  0  0  0  0  0  0  0  0  0
   -5.1130   24.9340  -30.2090 C   0  0  0  0  0  0  0  0  0  0  0  0
   -4.9110   23.5580  -29.5630 C   0  0  0  0  0  0  0  0  0  0  0  0
   -3.6320   22.9600  -30.0080 N   0  0  0  0  0  0  0  0  0  0  0  0
   -2.4680   23.8200  -29.6980 C   0  0  0  0  0  0  0  0  0  0  0  0
   -2.4070   24.1760  -28.2130 C   0  0  0  0  0  0  0  0  0  0  0  0
   -3.4820   21.5250  -29.6520 C   0  0  0  0  0  0  0  0  0  0  0  0
   -3.7440   20.5110  -30.7950 C   0  0  0  0  0  0  0  0  0  0  0  0
   -4.2280   21.1510  -32.0350 N   0  0  0  0  0  0  0  0  0  0  0  0
   -5.5070   20.5940  -32.4600 C   0  0  0  0  0  0  0  0  0  0  0  0
   -6.7090   21.3130  -32.2640 C   0  0  0  0  0  0  0  0  0  0  0  0
   -6.7180   22.7210  -32.1680 C   0  0  0  0  0  0  0  0  0  0  0  0
   -7.9100   23.4150  -31.9730 C   0  0  0  0  0  0  0  0  0  0  0  0
   -9.1130   22.7240  -31.8930 C   0  0  0  0  0  0  0  0  0  0  0  0
   -9.1320   21.3340  -32.0020 C   0  0  0  0  0  0  0  0  0  0  0  0
   -7.9320   20.6000  -32.1740 C   0  0  0  0  0  0  0  0  0  0  0  0
   -7.9290   19.2220  -32.2550 N   0  0  0  0  0  0  0  0  0  0  0  0
   -9.1060   18.4490  -31.8010 C   0  0  0  0  0  0  0  0  0  0  0  0
   -6.8350   18.5740  -32.7930 C   0  0  0  0  0  0  0  0  0  0  0  0
   -6.9060   17.2210  -33.2020 C   0  0  0  0  0  0  0  0  0  0  0  0
   -5.8150   16.5880  -33.7850 C   0  0  0  0  0  0  0  0  0  0  0  0
   -4.6530   17.2980  -34.0490 C   0  0  0  0  0  0  0  0  0  0  0  0
   -4.5520   18.6570  -33.7050 C   0  0  0  0  0  0  0  0  0  0  0  0
   -3.4680   19.4320  -34.1590 O   0  0  0  0  0  0  0  0  0  0  0  0
   -2.1010   19.0240  -34.2080 C   0  0  0  0  0  0  0  0  0  0  0  0
   -1.3790   19.3980  -32.9080 C   0  0  0  0  0  0  0  0  0  0  0  0
   -1.3530   20.8650  -32.7260 N   0  0  0  0  0  0  0  0  0  0  0  0
   -0.8610   21.5410  -33.9400 C   0  0  0  0  0  0  0  0  0  0  0  0
   -0.4880   21.2190  -31.5860 C   0  0  0  0  0  0  0  0  0  0  0  0
   -5.6080   19.2750  -32.9760 C   0  0  0  0  0  0  0  0  0  0  0  0
   -6.3207   25.6283  -28.5595 H   0  0  0  0  0  0  0  0  0  0  0  0
   -6.3588   26.6862  -30.0107 H   0  0  0  0  0  0  0  0  0  0  0  0
   -7.2541   25.1289  -30.0107 H   0  0  0  0  0  0  0  0  0  0  0  0
   -5.2316   24.8034  -31.2948 H   0  0  0  0  0  0  0  0  0  0  0  0
   -4.2328   25.5520  -29.9784 H   0  0  0  0  0  0  0  0  0  0  0  0
   -4.8970   23.6701  -28.4688 H   0  0  0  0  0  0  0  0  0  0  0  0
   -5.7372   22.8978  -29.8656 H   0  0  0  0  0  0  0  0  0  0  0  0
   -1.5468   23.2862  -29.9746 H   0  0  0  0  0  0  0  0  0  0  0  0
   -2.5699   24.7538  -30.2703 H   0  0  0  0  0  0  0  0  0  0  0  0
   -2.5626   23.2682  -27.6116 H   0  0  0  0  0  0  0  0  0  0  0  0
   -1.4220   24.6063  -27.9793 H   0  0  0  0  0  0  0  0  0  0  0  0
   -3.1925   24.9097  -27.9793 H   0  0  0  0  0  0  0  0  0  0  0  0
   -2.4525   21.3723  -29.2959 H   0  0  0  0  0  0  0  0  0  0  0  0
   -4.2542   21.3247  -28.8947 H   0  0  0  0  0  0  0  0  0  0  0  0
   -2.8051   19.9826  -31.0168 H   0  0  0  0  0  0  0  0  0  0  0  0
   -4.5308   19.8236  -30.4509 H   0  0  0  0  0  0  0  0  0  0  0  0
   -3.4890   20.9560  -32.7400 H   0  0  0  0  0  0  0  0  0  0  0  0
   -4.3180   22.1830  -31.9170 H   0  0  0  0  0  0  0  0  0  0  0  0
   -5.7723   23.2771  -32.2481 H   0  0  0  0  0  0  0  0  0  0  0  0
   -7.8990   24.5112  -31.8822 H   0  0  0  0  0  0  0  0  0  0  0  0
  -10.0531   23.2752  -31.7432 H   0  0  0  0  0  0  0  0  0  0  0  0
  -10.0922   20.7995  -31.9538 H   0  0  0  0  0  0  0  0  0  0  0  0
   -9.1317   18.4321  -30.7014 H   0  0  0  0  0  0  0  0  0  0  0  0
  -10.0237   18.9208  -32.1820 H   0  0  0  0  0  0  0  0  0  0  0  0
   -9.0377   17.4194  -32.1820 H   0  0  0  0  0  0  0  0  0  0  0  0
   -7.8412   16.6607  -33.0558 H   0  0  0  0  0  0  0  0  0  0  0  0
   -5.8731   15.5191  -34.0383 H   0  0  0  0  0  0  0  0  0  0  0  0
   -3.8033   16.7931  -34.5317 H   0  0  0  0  0  0  0  0  0  0  0  0
   -2.0539   17.9338  -34.3469 H   0  0  0  0  0  0  0  0  0  0  0  0
   -1.6080   19.5363  -35.0474 H   0  0  0  0  0  0  0  0  0  0  0  0
   -1.9048   18.9383  -32.0582 H   0  0  0  0  0  0  0  0  0  0  0  0
   -0.3435   19.0306  -32.9612 H   0  0  0  0  0  0  0  0  0  0  0  0
   -0.2360   22.3997  -33.6537 H   0  0  0  0  0  0  0  0  0  0  0  0
   -0.2637   20.8353  -34.5361 H   0  0  0  0  0  0  0  0  0  0  0  0
   -1.7161   21.8924  -34.5361 H   0  0  0  0  0  0  0  0  0  0  0  0
   -1.0151   21.0033  -30.6449 H   0  0  0  0  0  0  0  0  0  0  0  0
    0.4385   20.6277  -31.6312 H   0  0  0  0  0  0  0  0  0  0  0  0
   -0.2419   22.2902  -31.6312 H   0  0  0  0  0  0  0  0  0  0  0  0
  1  2  1  0
  2  3  1  0
  3  4  1  0
  4  5  1  0
  5  6  1  0
  4  7  1  0
  7  8  1  0
  8  9  1  0
  9 10  1  0
 10 11  2  0
 11 12  1  0
 12 13  2  0
 13 14  1  0
 14 15  2  0
 15 16  1  0
 16 17  2  0
 17 18  1  0
 17 19  1  0
 19 20  2  0
 20 21  1  0
 21 22  2  0
 22 23  1  0
 23 24  1  0
 24 25  1  0
 25 26  1  0
 26 27  1  0
 27 28  1  0
 27 29  1  0
 23 30  2  0
 30 10  1  0
 16 11  1  0
 30 19  1  0
  1 31  1  0
  1 32  1  0
  1 33  1  0
  2 34  1  0
  2 35  1  0
  3 36  1  0
  3 37  1  0
  5 38  1  0
  5 39  1  0
  6 40  1  0
  6 41  1  0
  6 42  1  0
  7 43  1  0
  7 44  1  0
  8 45  1  0
  8 46  1  0
  9 47  1  0
  9 48  1  0
 12 49  1  0
 13 50  1  0
 14 51  1  0
 15 52  1  0
 18 53  1  0
 18 54  1  0
 18 55  1  0
 20 56  1  0
 21 57  1  0
 22 58  1  0
 25 59  1  0
 25 60  1  0
 26 61  1  0
 26 62  1  0
 28 63  1  0
 28 64  1  0
 28 65  1  0
 29 66  1  0
 29 67  1  0
 29 68  1  0
M  CHG  2   9   1  17   1
M  END
>  <UniqueID>  (27) 
27

>  <SMILES>  (27) 
CCCN(CC)CC[NH2+]c1c2ccccc2[n+](C)c2cccc(OCCN(C)C)c12

>  <Energy>  (27) 
105.0423180147381

>  <Genealogy>  (27) 
CCCN(CC)CC[NH2+]c1c2ccccc2[n+](C)c2cccc(OCCN(C)C)c12 (protonated)
CCCN(CC)CC[NH2+]c1c2ccccc2[n+](C)c2cccc(OCCN(C)C)c12 (3D coordinates assigned)
CCCN(CC)CC[NH2+]c1c2ccccc2[n+](C)c2cccc(OCCN(C)C)c12 (optimized conformer: 105.0423180147381 kcal/mol)

>  <smiles>  (27) 
CCCN(CC)CCNc1c2ccccc2[n+](C)c2cccc(OCCN(C)C)c12

>  <score_type>  (27) 
oracle

>  <origin>  (27) 
adg

>  <m_score__min__energy>  (27) 
-7.0700000000000003

>  <m_primary>  (27) 
energy

$$$$
27:0
     RDKit          3D

 45 48  0  0  0  0  0  0  0  0999 V2000
   -2.2270   21.5700  -32.5880 C   0  0  0  0  0  0  0  0  0  0  0  0
   -2.6720   21.4380  -31.1310 C   0  0  1  0  0  0  0  0  0  0  0  0
   -1.5910   20.7380  -30.2940 C   0  0  0  0  0  0  0  0  0  0  0  0
   -0.5530   21.6380  -29.9710 O   0  0  0  0  0  0  0  0  0  0  0  0
   -1.0350   22.5840  -29.0440 C   0  0  0  0  0  0  0  0  0  0  0  0
   -2.1080   23.4920  -29.6590 C   0  0  0  0  0  0  0  0  0  0  0  0
   -2.9980   22.7670  -30.5830 N   0  0  0  0  0  0  0  0  0  0  0  0
   -4.2260   23.3950  -30.9840 C   0  0  0  0  0  0  0  0  0  0  0  0
   -4.2670   24.6480  -31.0960 O   0  0  0  0  0  0  0  0  0  0  0  0
   -5.4450   22.6050  -31.2540 C   0  0  0  0  0  0  0  0  0  0  0  0
   -6.7300   23.1360  -31.0250 C   0  0  0  0  0  0  0  0  0  0  0  0
   -7.8210   22.3290  -31.3250 C   0  0  0  0  0  0  0  0  0  0  0  0
   -9.1230   22.6570  -31.2240 N   0  0  0  0  0  0  0  0  0  0  0  0
   -9.7540   21.5620  -31.7210 C   0  0  0  0  0  0  0  0  0  0  0  0
   -8.9020   20.5850  -32.1170 N   0  0  0  0  0  0  0  0  0  0  0  0
   -9.2860   19.3220  -32.7330 C   0  0  0  0  0  0  0  0  0  0  0  0
   -7.6750   21.0770  -31.8490 C   0  0  0  0  0  0  0  0  0  0  0  0
   -6.3920   20.5520  -32.0700 C   0  0  0  0  0  0  0  0  0  0  0  0
   -6.1520   19.1930  -32.5740 C   0  0  0  0  0  0  0  0  0  0  0  0
   -6.1840   18.0980  -31.6980 C   0  0  0  0  0  0  0  0  0  0  0  0
   -5.9480   16.8070  -32.1770 C   0  0  0  0  0  0  0  0  0  0  0  0
   -5.6530   16.6080  -33.5280 C   0  0  0  0  0  0  0  0  0  0  0  0
   -5.4280   15.3530  -33.9890 F   0  0  0  0  0  0  0  0  0  0  0  0
   -5.5810   17.7000  -34.3990 C   0  0  0  0  0  0  0  0  0  0  0  0
   -5.2660   17.5070  -35.7090 F   0  0  0  0  0  0  0  0  0  0  0  0
   -5.8220   18.9910  -33.9220 C   0  0  0  0  0  0  0  0  0  0  0  0
   -5.3180   21.3440  -31.7750 N   0  0  0  0  0  0  0  0  0  0  0  0
   -1.1729   21.8827  -32.6226 H   0  0  0  0  0  0  0  0  0  0  0  0
   -2.3386   20.6001  -33.0948 H   0  0  0  0  0  0  0  0  0  0  0  0
   -2.8494   22.3222  -33.0948 H   0  0  0  0  0  0  0  0  0  0  0  0
   -3.5776   20.8150  -31.0887 H   0  0  0  0  0  0  0  0  0  0  0  0
   -2.0422   20.3581  -29.3655 H   0  0  0  0  0  0  0  0  0  0  0  0
   -1.1708   19.9075  -30.8802 H   0  0  0  0  0  0  0  0  0  0  0  0
   -1.4695   22.0511  -28.1854 H   0  0  0  0  0  0  0  0  0  0  0  0
   -0.1908   23.2166  -28.7321 H   0  0  0  0  0  0  0  0  0  0  0  0
   -2.7149   23.9205  -28.8478 H   0  0  0  0  0  0  0  0  0  0  0  0
   -1.5934   24.2749  -30.2355 H   0  0  0  0  0  0  0  0  0  0  0  0
   -6.8646   24.1513  -30.6238 H   0  0  0  0  0  0  0  0  0  0  0  0
  -10.8482   21.4764  -31.7949 H   0  0  0  0  0  0  0  0  0  0  0  0
   -9.5102   18.5845  -31.9482 H   0  0  0  0  0  0  0  0  0  0  0  0
  -10.1782   19.4752  -33.3580 H   0  0  0  0  0  0  0  0  0  0  0  0
   -8.4596   18.9526  -33.3580 H   0  0  0  0  0  0  0  0  0  0  0  0
   -6.3956   18.2563  -30.6302 H   0  0  0  0  0  0  0  0  0  0  0  0
   -5.9944   15.9482  -31.4912 H   0  0  0  0  0  0  0  0  0  0  0  0
   -5.7528   19.8505  -34.6050 H   0  0  0  0  0  0  0  0  0  0  0  0
  1  2  1  0
  2  3  1  0
  3  4  1  0
  4  5  1  0
  5  6  1  0
  6  7  1  0
  7  8  1  0
  8  9  2  0
  8 10  1  0
 10 11  2  0
 11 12  1  0
 12 13  1  0
 13 14  2  0
 14 15  1  0
 15 16  1  0
 15 17  1  0
 17 18  1  0
 18 19  1  0
 19 20  2  0
 20 21  1  0
 21 22  2  0
 22 23  1  0
 22 24  1  0
 24 25  1  0
 24 26  2  0
 18 27  2  0
  7  2  1  0
 27 10  1  0
 17 12  2  0
 26 19  1  0
  1 28  1  0
  1 29  1  0
  1 30  1  0
  2 31  1  6
  3 32  1  0
  3 33  1  0
  5 34  1  0
  5 35  1  0
  6 36  1  0
  6 37  1  0
 11 38  1  0
 14 39  1  0
 16 40  1  0
 16 41  1  0
 16 42  1  0
 20 43  1  0
 21 44  1  0
 26 45  1  0
M  END
>  <UniqueID>  (28) 
28

>  <SMILES>  (28) 
C[C@H]1COCCN1C(=O)c1cc2ncn(C)c2c(-c2ccc(F)c(F)c2)n1

>  <Energy>  (28) 
101.11828860593566

>  <Genealogy>  (28) 
C[C@H]1COCCN1C(=O)c1cc2ncn(C)c2c(-c2ccc(F)c(F)c2)n1 (chirality)
C[C@H]1COCCN1C(=O)c1cc2ncn(C)c2c(-c2ccc(F)c(F)c2)n1 (3D coordinates assigned)
C[C@H]1COCCN1C(=O)c1cc2ncn(C)c2c(-c2ccc(F)c(F)c2)n1 (nonaromatic ring conformer: 101.11828860593566 kcal/mol)

>  <smiles>  (28) 
CC1COCCN1C(=O)c1cc2ncn(C)c2c(-c2ccc(F)c(F)c2)n1

>  <score_type>  (28) 
oracle

>  <origin>  (28) 
adg

>  <m_score__min__energy>  (28) 
-8.5199999999999996

>  <m_primary>  (28) 
energy

$$$$
28:0
     RDKit          3D

 37 38  0  0  0  0  0  0  0  0999 V2000
   -3.6340   22.7410  -29.1600 C   0  0  0  0  0  0  0  0  0  0  0  0
   -3.0790   23.7900  -30.1180 C   0  0  0  0  0  0  0  0  0  0  0  0
   -4.0080   24.0600  -31.1690 O   0  0  0  0  0  0  0  0  0  0  0  0
   -5.2310   23.3990  -31.3720 C   0  0  0  0  0  0  0  0  0  0  0  0
   -5.3520   22.2720  -32.2080 C   0  0  0  0  0  0  0  0  0  0  0  0
   -6.5950   21.6450  -32.3960 C   0  0  0  0  0  0  0  0  0  0  0  0
   -6.6970   20.4670  -33.3390 C   0  0  0  0  0  0  0  0  0  0  0  0
   -5.8990   19.3240  -32.8480 N   0  0  0  0  0  0  0  0  0  0  0  0
   -5.2500   18.5910  -33.9680 C   0  0  0  0  0  0  0  0  0  0  0  0
   -6.0200   17.3250  -34.3710 C   0  0  0  0  0  0  0  0  0  0  0  0
   -6.1210   16.3390  -33.1940 C   0  0  0  0  0  0  0  0  0  0  0  0
   -6.1130   17.0460  -31.8280 C   0  0  0  0  0  0  0  0  0  0  0  0
   -6.6980   18.4580  -31.9380 C   0  0  0  0  0  0  0  0  0  0  0  0
   -7.7330   22.1570  -31.7400 C   0  0  0  0  0  0  0  0  0  0  0  0
   -9.4740   21.3830  -31.9670 Br  0  0  0  0  0  0  0  0  0  0  0  0
   -7.6100   23.2660  -30.8980 C   0  0  0  0  0  0  0  0  0  0  0  0
   -6.3700   23.8820  -30.7120 C   0  0  0  0  0  0  0  0  0  0  0  0
   -6.2530   25.4050  -29.5580 Br  0  0  0  0  0  0  0  0  0  0  0  0
   -3.4628   23.0646  -28.1227 H   0  0  0  0  0  0  0  0  0  0  0  0
   -4.7136   22.6209  -29.3332 H   0  0  0  0  0  0  0  0  0  0  0  0
   -3.1259   21.7809  -29.3332 H   0  0  0  0  0  0  0  0  0  0  0  0
   -2.8838   24.7188  -29.5619 H   0  0  0  0  0  0  0  0  0  0  0  0
   -2.1482   23.4056  -30.5606 H   0  0  0  0  0  0  0  0  0  0  0  0
   -4.4619   21.8778  -32.7202 H   0  0  0  0  0  0  0  0  0  0  0  0
   -7.7506   20.1615  -33.4201 H   0  0  0  0  0  0  0  0  0  0  0  0
   -6.3065   20.7703  -34.3216 H   0  0  0  0  0  0  0  0  0  0  0  0
   -5.1912   19.2598  -34.8394 H   0  0  0  0  0  0  0  0  0  0  0  0
   -4.2517   18.2791  -33.6274 H   0  0  0  0  0  0  0  0  0  0  0  0
   -7.0338   17.6078  -34.6906 H   0  0  0  0  0  0  0  0  0  0  0  0
   -5.4782   16.8336  -35.1926 H   0  0  0  0  0  0  0  0  0  0  0  0
   -7.0573   15.7697  -33.2906 H   0  0  0  0  0  0  0  0  0  0  0  0
   -5.2403   15.6811  -33.2339 H   0  0  0  0  0  0  0  0  0  0  0  0
   -6.7150   16.4615  -31.1167 H   0  0  0  0  0  0  0  0  0  0  0  0
   -5.0727   17.1235  -31.4792 H   0  0  0  0  0  0  0  0  0  0  0  0
   -7.7249   18.3876  -32.3258 H   0  0  0  0  0  0  0  0  0  0  0  0
   -6.6810   18.9116  -30.9360 H   0  0  0  0  0  0  0  0  0  0  0  0
   -8.4968   23.6569  -30.3776 H   0  0  0  0  0  0  0  0  0  0  0  0
  1  2  1  0
  2  3  1  0
  3  4  1  0
  4  5  2  0
  5  6  1  0
  6  7  1  0
  7  8  1  0
  8  9  1  0
  9 10  1  0
 10 11  1  0
 11 12  1  0
 12 13  1  0
  6 14  2  0
 14 15  1  0
 14 16  1  0
 16 17  2  0
 17 18  1  0
 17  4  1  0
 13  8  1  0
  1 19  1  0
  1 20  1  0
  1 21  1  0
  2 22  1  0
  2 23  1  0
  5 24  1  0
  7 25  1  0
  7 26  1  0
  9 27  1  0
  9 28  1  0
 10 29  1  0
 10 30  1  0
 11 31  1  0
 11 32  1  0
 12 33  1  0
 12 34  1  0
 13 35  1  0
 13 36  1  0
 16 37  1  0
M  END
>  <UniqueID>  (29) 
29

>  <SMILES>  (29) 
CCOc1cc(CN2CCCCC2)c(Br)cc1Br

>  <Energy>  (29) 
41.64882070193866

>  <Genealogy>  (29) 
CCOc1cc(CN2CCCCC2)c(Br)cc1Br (3D coordinates assigned)
CCOc1cc(CN2CCCCC2)c(Br)cc1Br (nonaromatic ring conformer: 41.64882070193866 kcal/mol)

>  <smiles>  (29) 
CCOc1cc(CN2CCCCC2)c(Br)cc1Br

>  <score_type>  (29) 
oracle

>  <origin>  (29) 
adg

>  <m_score__min__energy>  (29) 
-8.0800000000000001

>  <m_primary>  (29) 
energy

$$$$
