0:0
     RDKit          3D

 40 41  0  0  0  0  0  0  0  0999 V2000
   -2.1880   25.0980  -26.9800 C   0  0  0  0  0  0  0  0  0  0  0  0
   -1.2190   25.5880  -28.0450 C   0  0  0  0  0  0  0  0  0  0  0  0
   -1.7630   25.3290  -29.3210 O   0  0  0  0  0  0  0  0  0  0  0  0
   -2.1900   23.9840  -29.3910 C   0  0  0  0  0  0  0  0  0  0  0  0
   -3.6550   23.9400  -29.8120 C   0  0  0  0  0  0  0  0  0  0  0  0
   -3.9160   24.9890  -30.8130 N   0  0  0  0  0  0  0  0  0  0  0  0
   -5.1610   25.7260  -30.5490 C   0  0  0  0  0  0  0  0  0  0  0  0
   -6.3330   24.7590  -30.3890 C   0  0  0  0  0  0  0  0  0  0  0  0
   -6.5710   24.0880  -31.6240 O   0  0  0  0  0  0  0  0  0  0  0  0
   -6.9890   22.7550  -31.7420 C   0  0  0  0  0  0  0  0  0  0  0  0
   -8.2570   22.4150  -31.2580 C   0  0  0  0  0  0  0  0  0  0  0  0
   -8.7400   21.1100  -31.3740 C   0  0  0  0  0  0  0  0  0  0  0  0
   -7.9530   20.1190  -31.9760 C   0  0  0  0  0  0  0  0  0  0  0  0
   -8.4320   18.8060  -32.1060 C   0  0  0  0  0  0  0  0  0  0  0  0
   -7.6380   17.8270  -32.7100 C   0  0  0  0  0  0  0  0  0  0  0  0
   -6.3650   18.1490  -33.1860 C   0  0  0  0  0  0  0  0  0  0  0  0
   -5.8760   19.4540  -33.0630 C   0  0  0  0  0  0  0  0  0  0  0  0
   -6.6640   20.4460  -32.4600 C   0  0  0  0  0  0  0  0  0  0  0  0
   -6.1860   21.7610  -32.3340 C   0  0  0  0  0  0  0  0  0  0  0  0
   -1.7736   25.3076  -25.9828 H   0  0  0  0  0  0  0  0  0  0  0  0
   -3.1509   25.6175  -27.0935 H   0  0  0  0  0  0  0  0  0  0  0  0
   -2.3403   24.0145  -27.0935 H   0  0  0  0  0  0  0  0  0  0  0  0
   -1.0578   26.6696  -27.9263 H   0  0  0  0  0  0  0  0  0  0  0  0
   -0.2576   25.0639  -27.9395 H   0  0  0  0  0  0  0  0  0  0  0  0
   -1.5795   23.4429  -30.1289 H   0  0  0  0  0  0  0  0  0  0  0  0
   -2.0763   23.5101  -28.4048 H   0  0  0  0  0  0  0  0  0  0  0  0
   -3.8810   22.9552  -30.2470 H   0  0  0  0  0  0  0  0  0  0  0  0
   -4.2922   24.1101  -28.9316 H   0  0  0  0  0  0  0  0  0  0  0  0
   -3.1230   25.6750  -30.7860 H   0  0  0  0  0  0  0  0  0  0  0  0
   -5.0460   26.3111  -29.6247 H   0  0  0  0  0  0  0  0  0  0  0  0
   -5.3652   26.3942  -31.3986 H   0  0  0  0  0  0  0  0  0  0  0  0
   -6.0938   24.0194  -29.6106 H   0  0  0  0  0  0  0  0  0  0  0  0
   -7.2332   25.3207  -30.0989 H   0  0  0  0  0  0  0  0  0  0  0  0
   -8.8808   23.1849  -30.7804 H   0  0  0  0  0  0  0  0  0  0  0  0
   -9.7406   20.8593  -30.9920 H   0  0  0  0  0  0  0  0  0  0  0  0
   -9.4336   18.5472  -31.7320 H   0  0  0  0  0  0  0  0  0  0  0  0
   -8.0171   16.7993  -32.8108 H   0  0  0  0  0  0  0  0  0  0  0  0
   -5.7446   17.3737  -33.6593 H   0  0  0  0  0  0  0  0  0  0  0  0
   -4.8727   19.7026  -33.4394 H   0  0  0  0  0  0  0  0  0  0  0  0
   -5.1801   22.0154  -32.6993 H   0  0  0  0  0  0  0  0  0  0  0  0
  1  2  1  0
  2  3  1  0
  3  4  1  0
  4  5  1  0
  5  6  1  0
  6  7  1  0
  7  8  1  0
  8  9  1  0
  9 10  1  0
 10 11  2  0
 11 12  1  0
 12 13  2  0
 13 14  1  0
 14 15  2  0
 15 16  1  0
 16 17  2  0
 17 18  1  0
 18 19  2  0
 19 10  1  0
 18 13  1  0
  1 20  1  0
  1 21  1  0
  1 22  1  0
  2 23  1  0
  2 24  1  0
  4 25  1  0
  4 26  1  0
  5 27  1  0
  5 28  1  0
  6 29  1  0
  7 30  1  0
  7 31  1  0
  8 32  1  0
  8 33  1  0
 11 34  1  0
 12 35  1  0
 14 36  1  0
 15 37  1  0
 16 38  1  0
 17 39  1  0
 19 40  1  0
M  END
>  <UniqueID>  (1) 
1

>  <SMILES>  (1) 
CCOCCNCCOc1ccc2ccccc2c1

>  <Energy>  (1) 
34.45238954733503

>  <Genealogy>  (1) 
CCOCCNCCOc1ccc2ccccc2c1 (3D coordinates assigned)
CCOCCNCCOc1ccc2ccccc2c1 (optimized conformer: 34.45238954733503 kcal/mol)

>  <smiles>  (1) 
CCOCCNCCOc1ccc2ccccc2c1

>  <score_type>  (1) 
oracle

>  <origin>  (1) 
adg

>  <m_score__min__energy>  (1) 
-8.1300000000000008

>  <m_primary>  (1) 
energy

$$$$
1:0
     RDKit          3D

 73 76  0  0  0  0  0  0  0  0999 V2000
   -6.7570   17.2090  -33.4520 C   0  0  0  0  0  0  0  0  0  0  0  0
   -5.5740   17.5180  -34.3700 C   0  0  0  0  0  0  0  0  0  0  0  0
   -4.3350   17.7710  -33.6030 N   0  0  0  0  0  0  0  0  0  0  0  0
   -3.5560   16.5580  -33.2480 C   0  0  0  0  0  0  0  0  0  0  0  0
   -4.1290   15.2500  -33.8140 C   0  0  0  0  0  0  0  0  0  0  0  0
   -3.4980   18.8330  -34.2080 C   0  0  0  0  0  0  0  0  0  0  0  0
   -3.7400   20.1600  -33.4840 C   0  0  0  0  0  0  0  0  0  0  0  0
   -4.6160   19.9780  -32.3270 N   0  0  0  0  0  0  0  0  0  0  0  0
   -5.2830   21.1060  -31.7450 C   0  0  0  0  0  0  0  0  0  0  0  0
   -6.6850   21.1640  -31.7160 C   0  0  0  0  0  0  0  0  0  0  0  0
   -7.4600   20.0850  -32.1900 C   0  0  0  0  0  0  0  0  0  0  0  0
   -8.8490   20.1230  -32.1160 C   0  0  0  0  0  0  0  0  0  0  0  0
   -9.4870   21.2220  -31.5540 C   0  0  0  0  0  0  0  0  0  0  0  0
   -8.7410   22.3020  -31.0830 C   0  0  0  0  0  0  0  0  0  0  0  0
   -7.3260   22.3140  -31.1840 C   0  0  0  0  0  0  0  0  0  0  0  0
   -6.5730   23.3950  -30.7630 N   0  0  0  0  0  0  0  0  0  0  0  0
   -7.2320   24.6920  -30.4870 C   0  0  0  0  0  0  0  0  0  0  0  0
   -5.2010   23.2730  -30.6280 C   0  0  0  0  0  0  0  0  0  0  0  0
   -4.4240   24.2570  -29.9630 C   0  0  0  0  0  0  0  0  0  0  0  0
   -3.0230   24.1530  -29.8880 C   0  0  0  0  0  0  0  0  0  0  0  0
   -2.2200   25.1130  -29.2490 O   0  0  0  0  0  0  0  0  0  0  0  0
   -0.9450   24.8730  -28.6510 C   0  0  0  0  0  0  0  0  0  0  0  0
   -1.0440   24.4340  -27.1680 C   0  0  0  0  0  0  0  0  0  0  0  0
   -1.3190   25.5090  -26.1620 N   0  0  0  0  0  0  0  0  0  0  0  0
   -2.6680   25.7380  -26.2690 O   0  0  0  0  0  0  0  0  0  0  0  0
   -0.6120   26.7750  -26.5170 C   0  0  0  0  0  0  0  0  0  0  0  0
   -0.8730   27.9130  -25.5090 C   0  0  0  0  0  0  0  0  0  0  0  0
   -0.8450   27.4380  -24.0450 C   0  0  0  0  0  0  0  0  0  0  0  0
   -0.2480   26.0380  -23.9020 C   0  0  0  0  0  0  0  0  0  0  0  0
   -1.0150   25.0230  -24.7690 C   0  0  0  0  0  0  0  0  0  0  0  0
   -2.3910   23.0500  -30.4510 C   0  0  0  0  0  0  0  0  0  0  0  0
   -3.1310   22.0470  -31.0700 C   0  0  0  0  0  0  0  0  0  0  0  0
   -4.5340   22.1350  -31.1510 C   0  0  0  0  0  0  0  0  0  0  0  0
   -6.4382   17.2923  -32.4025 H   0  0  0  0  0  0  0  0  0  0  0  0
   -7.5689   17.9252  -33.6465 H   0  0  0  0  0  0  0  0  0  0  0  0
   -7.1150   16.1872  -33.6465 H   0  0  0  0  0  0  0  0  0  0  0  0
   -5.4095   16.6609  -35.0395 H   0  0  0  0  0  0  0  0  0  0  0  0
   -5.8134   18.4264  -34.9422 H   0  0  0  0  0  0  0  0  0  0  0  0
   -2.5329   16.6808  -33.6330 H   0  0  0  0  0  0  0  0  0  0  0  0
   -3.5930   16.4697  -32.1522 H   0  0  0  0  0  0  0  0  0  0  0  0
   -4.4191   14.5878  -32.9850 H   0  0  0  0  0  0  0  0  0  0  0  0
   -5.0118   15.4732  -34.4312 H   0  0  0  0  0  0  0  0  0  0  0  0
   -3.3664   14.7524  -34.4312 H   0  0  0  0  0  0  0  0  0  0  0  0
   -2.4370   18.5567  -34.1190 H   0  0  0  0  0  0  0  0  0  0  0  0
   -3.7644   18.9447  -35.2694 H   0  0  0  0  0  0  0  0  0  0  0  0
   -2.7753   20.5645  -33.1438 H   0  0  0  0  0  0  0  0  0  0  0  0
   -4.2264   20.8555  -34.1838 H   0  0  0  0  0  0  0  0  0  0  0  0
   -4.6180   19.0770  -31.7970 H   0  0  0  0  0  0  0  0  0  0  0  0
   -6.9615   19.2049  -32.6224 H   0  0  0  0  0  0  0  0  0  0  0  0
   -9.4428   19.2818  -32.5030 H   0  0  0  0  0  0  0  0  0  0  0  0
  -10.5844   21.2402  -31.4804 H   0  0  0  0  0  0  0  0  0  0  0  0
   -9.2581   23.1585  -30.6258 H   0  0  0  0  0  0  0  0  0  0  0  0
   -7.3076   24.8408  -29.3997 H   0  0  0  0  0  0  0  0  0  0  0  0
   -6.6382   25.5062  -30.9281 H   0  0  0  0  0  0  0  0  0  0  0  0
   -8.2397   24.6925  -30.9281 H   0  0  0  0  0  0  0  0  0  0  0  0
   -4.9268   25.1174  -29.4973 H   0  0  0  0  0  0  0  0  0  0  0  0
   -0.4358   24.0798  -29.2180 H   0  0  0  0  0  0  0  0  0  0  0  0
   -0.3862   25.8201  -28.6769 H   0  0  0  0  0  0  0  0  0  0  0  0
   -1.8541   23.6936  -27.0936 H   0  0  0  0  0  0  0  0  0  0  0  0
   -0.0445   24.0512  -26.9140 H   0  0  0  0  0  0  0  0  0  0  0  0
   -2.9280   25.7290  -27.2290 H   0  0  0  0  0  0  0  0  0  0  0  0
    0.4693   26.5758  -26.5487 H   0  0  0  0  0  0  0  0  0  0  0  0
   -0.9971   27.1048  -27.4932 H   0  0  0  0  0  0  0  0  0  0  0  0
   -0.0995   28.6836  -25.6423 H   0  0  0  0  0  0  0  0  0  0  0  0
   -1.8814   28.3045  -25.7086 H   0  0  0  0  0  0  0  0  0  0  0  0
   -0.2399   28.1427  -23.4557 H   0  0  0  0  0  0  0  0  0  0  0  0
   -1.8830   27.4004  -23.6829 H   0  0  0  0  0  0  0  0  0  0  0  0
    0.8046   26.0610  -24.2205 H   0  0  0  0  0  0  0  0  0  0  0  0
   -0.3239   25.7292  -22.8490 H   0  0  0  0  0  0  0  0  0  0  0  0
   -0.4093   24.1081  -24.8469 H   0  0  0  0  0  0  0  0  0  0  0  0
   -1.9827   24.8514  -24.2749 H   0  0  0  0  0  0  0  0  0  0  0  0
   -1.2949   22.9693  -30.4067 H   0  0  0  0  0  0  0  0  0  0  0  0
   -2.6145   21.1764  -31.5005 H   0  0  0  0  0  0  0  0  0  0  0  0
  1  2  1  0
  2  3  1  0
  3  4  1  0
  4  5  1  0
  3  6  1  0
  6  7  1  0
  7  8  1  0
  8  9  1  0
  9 10  2  0
 10 11  1  0
 11 12  2  0
 12 13  1  0
 13 14  2  0
 14 15  1  0
 15 16  2  0
 16 17  1  0
 16 18  1  0
 18 19  2  0
 19 20  1  0
 20 21  1  0
 21 22  1  0
 22 23  1  0
 23 24  1  0
 24 25  1  0
 24 26  1  0
 26 27  1  0
 27 28  1  0
 28 29  1  0
 29 30  1  0
 20 31  2  0
 31 32  1  0
 32 33  2  0
 33  9  1  0
 15 10  1  0
 33 18  1  0
 30 24  1  0
  1 34  1  0
  1 35  1  0
  1 36  1  0
  2 37  1  0
  2 38  1  0
  4 39  1  0
  4 40  1  0
  5 41  1  0
  5 42  1  0
  5 43  1  0
  6 44  1  0
  6 45  1  0
  7 46  1  0
  7 47  1  0
  8 48  1  0
 11 49  1  0
 12 50  1  0
 13 51  1  0
 14 52  1  0
 17 53  1  0
 17 54  1  0
 17 55  1  0
 19 56  1  0
 22 57  1  0
 22 58  1  0
 23 59  1  0
 23 60  1  0
 25 61  1  0
 26 62  1  0
 26 63  1  0
 27 64  1  0
 27 65  1  0
 28 66  1  0
 28 67  1  0
 29 68  1  0
 29 69  1  0
 30 70  1  0
 30 71  1  0
 31 72  1  0
 32 73  1  0
M  CHG  2  16   1  24   1
M  END
>  <UniqueID>  (2) 
2

>  <SMILES>  (2) 
CCN(CC)CCNc1c2ccccc2[n+](C)c2cc(OCC[N+]3(O)CCCCC3)ccc12

>  <Energy>  (2) 
120.40790078868298

>  <Genealogy>  (2) 
CCN(CC)CCNc1c2ccccc2[n+](C)c2cc(OCC[N+]3(O)CCCCC3)ccc12 (protonated)
CCN(CC)CCNc1c2ccccc2[n+](C)c2cc(OCC[N+]3(O)CCCCC3)ccc12 (3D coordinates assigned)
CCN(CC)CCNc1c2ccccc2[n+](C)c2cc(OCC[N+]3(O)CCCCC3)ccc12 (nonaromatic ring conformer: 120.40790078868298 kcal/mol)

>  <smiles>  (2) 
CCN(CC)CCNc1c2ccccc2[n+](C)c2cc(OCC[N+]3([O-])CCCCC3)ccc12

>  <score_type>  (2) 
oracle

>  <origin>  (2) 
adg

>  <m_score__min__energy>  (2) 
-8.3900000000000006

>  <m_primary>  (2) 
energy

$$$$
2:0
     RDKit          3D

 52 55  0  0  0  0  0  0  0  0999 V2000
   -5.7170   16.7150  -32.2580 C   0  0  0  0  0  0  0  0  0  0  0  0
   -6.2440   16.6390  -33.6870 C   0  0  0  0  0  0  0  0  0  0  0  0
   -6.4910   17.9800  -34.2210 N   0  0  0  0  0  0  0  0  0  0  0  0
   -6.3090   19.2050  -33.4830 C   0  0  0  0  0  0  0  0  0  0  0  0
   -5.1580   20.0030  -33.6410 C   0  0  0  0  0  0  0  0  0  0  0  0
   -5.0110   21.1880  -32.9150 C   0  0  0  0  0  0  0  0  0  0  0  0
   -6.0030   21.5960  -32.0150 C   0  0  0  0  0  0  0  0  0  0  0  0
   -5.8510   22.8630  -31.2630 C   0  0  0  0  0  0  0  0  0  0  0  0
   -6.9600   23.7220  -31.1760 C   0  0  0  0  0  0  0  0  0  0  0  0
   -6.8870   24.9090  -30.4430 C   0  0  0  0  0  0  0  0  0  0  0  0
   -5.7060   25.2590  -29.7900 C   0  0  0  0  0  0  0  0  0  0  0  0
   -4.5840   24.4300  -29.8760 C   0  0  0  0  0  0  0  0  0  0  0  0
   -3.4350   24.7930  -29.2480 N   0  0  0  0  0  0  0  0  0  0  0  0
   -2.2960   24.0470  -29.3030 C   0  0  0  0  0  0  0  0  0  0  0  0
   -1.1060   24.4980  -28.6120 N   0  0  0  0  0  0  0  0  0  0  0  0
   -1.0810   25.7900  -27.9110 C   0  0  0  0  0  0  0  0  0  0  0  0
    0.1900   25.9400  -27.0590 C   0  0  0  0  0  0  0  0  0  0  0  0
    0.5100   24.6960  -26.3280 N   0  0  0  0  0  0  0  0  0  0  0  0
   -0.4460   24.4430  -25.2350 C   0  0  0  0  0  0  0  0  0  0  0  0
    0.6710   23.5070  -27.2070 C   0  0  0  0  0  0  0  0  0  0  0  0
    0.1290   23.7020  -28.6350 C   0  0  0  0  0  0  0  0  0  0  0  0
   -2.3060   22.8550  -30.0510 C   0  0  0  0  0  0  0  0  0  0  0  0
   -3.4700   22.4540  -30.7070 C   0  0  0  0  0  0  0  0  0  0  0  0
   -4.6400   23.2280  -30.6190 C   0  0  0  0  0  0  0  0  0  0  0  0
   -7.1590   20.8170  -31.8670 C   0  0  0  0  0  0  0  0  0  0  0  0
   -7.3110   19.6310  -32.5910 C   0  0  0  0  0  0  0  0  0  0  0  0
   -8.4370   18.8940  -32.4170 F   0  0  0  0  0  0  0  0  0  0  0  0
   -6.5522   16.5946  -31.5523 H   0  0  0  0  0  0  0  0  0  0  0  0
   -4.9812   15.9137  -32.0955 H   0  0  0  0  0  0  0  0  0  0  0  0
   -5.2375   17.6916  -32.0955 H   0  0  0  0  0  0  0  0  0  0  0  0
   -5.5012   16.1301  -34.3189 H   0  0  0  0  0  0  0  0  0  0  0  0
   -7.1913   16.0799  -33.6847 H   0  0  0  0  0  0  0  0  0  0  0  0
   -6.8170   18.0360  -35.2130 H   0  0  0  0  0  0  0  0  0  0  0  0
   -4.3693   19.6906  -34.3412 H   0  0  0  0  0  0  0  0  0  0  0  0
   -4.1101   21.8042  -33.0515 H   0  0  0  0  0  0  0  0  0  0  0  0
   -7.8954   23.4568  -31.6905 H   0  0  0  0  0  0  0  0  0  0  0  0
   -7.7643   25.5697  -30.3808 H   0  0  0  0  0  0  0  0  0  0  0  0
   -5.6571   26.1897  -29.2058 H   0  0  0  0  0  0  0  0  0  0  0  0
   -1.1122   26.6010  -28.6535 H   0  0  0  0  0  0  0  0  0  0  0  0
   -1.9538   25.8392  -27.2433 H   0  0  0  0  0  0  0  0  0  0  0  0
    1.0333   26.1924  -27.7187 H   0  0  0  0  0  0  0  0  0  0  0  0
    0.0146   26.7357  -26.3200 H   0  0  0  0  0  0  0  0  0  0  0  0
    0.0596   24.5768  -24.2673 H   0  0  0  0  0  0  0  0  0  0  0  0
   -1.2853   25.1499  -25.3110 H   0  0  0  0  0  0  0  0  0  0  0  0
   -0.8258   23.4134  -25.3110 H   0  0  0  0  0  0  0  0  0  0  0  0
    1.7430   23.2697  -27.2739 H   0  0  0  0  0  0  0  0  0  0  0  0
    0.0834   22.6954  -26.7531 H   0  0  0  0  0  0  0  0  0  0  0  0
    0.8846   24.2234  -29.2410 H   0  0  0  0  0  0  0  0  0  0  0  0
   -0.0911   22.7159  -29.0699 H   0  0  0  0  0  0  0  0  0  0  0  0
   -1.3966   22.2399  -30.1184 H   0  0  0  0  0  0  0  0  0  0  0  0
   -3.4722   21.5257  -31.2972 H   0  0  0  0  0  0  0  0  0  0  0  0
   -7.9517   21.1411  -31.1766 H   0  0  0  0  0  0  0  0  0  0  0  0
  1  2  1  0
  2  3  1  0
  3  4  1  0
  4  5  2  0
  5  6  1  0
  6  7  2  0
  7  8  1  0
  8  9  2  0
  9 10  1  0
 10 11  2  0
 11 12  1  0
 12 13  2  0
 13 14  1  0
 14 15  1  0
 15 16  1  0
 16 17  1  0
 17 18  1  0
 18 19  1  0
 18 20  1  0
 20 21  1  0
 14 22  2  0
 22 23  1  0
 23 24  2  0
  7 25  1  0
 25 26  2  0
 26 27  1  0
 26  4  1  0
 24  8  1  0
 24 12  1  0
 21 15  1  0
  1 28  1  0
  1 29  1  0
  1 30  1  0
  2 31  1  0
  2 32  1  0
  3 33  1  0
  5 34  1  0
  6 35  1  0
  9 36  1  0
 10 37  1  0
 11 38  1  0
 16 39  1  0
 16 40  1  0
 17 41  1  0
 17 42  1  0
 19 43  1  0
 19 44  1  0
 19 45  1  0
 20 46  1  0
 20 47  1  0
 21 48  1  0
 21 49  1  0
 22 50  1  0
 23 51  1  0
 25 52  1  0
M  END
>  <UniqueID>  (3) 
3

>  <SMILES>  (3) 
CCNc1ccc(-c2cccc3nc(N4CCN(C)CC4)ccc23)cc1F

>  <Energy>  (3) 
74.2162465090521

>  <Genealogy>  (3) 
CCNc1ccc(-c2cccc3nc(N4CCN(C)CC4)ccc23)cc1F (3D coordinates assigned)
CCNc1ccc(-c2cccc3nc(N4CCN(C)CC4)ccc23)cc1F (nonaromatic ring conformer: 74.2162465090521 kcal/mol)

>  <smiles>  (3) 
CCNc1ccc(-c2cccc3nc(N4CCN(C)CC4)ccc23)cc1F

>  <score_type>  (3) 
oracle

>  <origin>  (3) 
adg

>  <m_score__min__energy>  (3) 
-8.8300000000000001

>  <m_primary>  (3) 
energy

$$$$
3:0
     RDKit          3D

 35 37  0  0  0  0  0  0  0  0999 V2000
   -4.1223   16.4907  -33.8325 H   0  0  0  0  0  0  0  0  0  0  0  0
   -4.9920   17.0820  -33.5100 C   0  0  0  0  0  0  0  0  0  0  0  0
   -5.7110   16.7030  -32.3750 C   0  0  0  0  0  0  0  0  0  0  0  0
   -5.4055   15.8148  -31.8025 H   0  0  0  0  0  0  0  0  0  0  0  0
   -6.8190   17.4510  -31.9650 C   0  0  0  0  0  0  0  0  0  0  0  0
   -7.3786   17.1511  -31.0667 H   0  0  0  0  0  0  0  0  0  0  0  0
   -7.2230   18.5850  -32.6940 C   0  0  0  0  0  0  0  0  0  0  0  0
   -8.3930   19.3810  -32.2480 C   0  0  0  0  0  0  0  0  0  0  0  0
   -9.4200   18.7890  -31.8230 O   0  0  0  0  0  0  0  0  0  0  0  0
   -8.4260   20.8110  -32.3650 N   0  0  0  0  0  0  0  0  0  0  0  0
   -7.5210   21.6320  -31.9190 C   0  0  0  0  0  0  0  0  0  0  0  0
   -5.8490   21.3270  -31.8350 S   0  0  0  0  0  0  0  0  0  0  0  0
   -5.5420   22.8230  -31.1300 C   0  0  0  0  0  0  0  0  0  0  0  0
   -4.3200   23.3590  -30.7360 C   0  0  0  0  0  0  0  0  0  0  0  0
   -3.3862   22.7943  -30.8741 H   0  0  0  0  0  0  0  0  0  0  0  0
   -4.3080   24.6490  -30.1530 C   0  0  0  0  0  0  0  0  0  0  0  0
   -3.1270   25.2760  -29.7250 O   0  0  0  0  0  0  0  0  0  0  0  0
   -2.2770   24.8150  -28.6760 C   0  0  0  0  0  0  0  0  0  0  0  0
   -1.5291   25.5897  -28.4510 H   0  0  0  0  0  0  0  0  0  0  0  0
   -1.7822   23.8890  -29.0043 H   0  0  0  0  0  0  0  0  0  0  0  0
   -3.0840   24.5180  -27.4160 C   0  0  0  0  0  0  0  0  0  0  0  0
   -2.4741   24.7425  -26.5285 H   0  0  0  0  0  0  0  0  0  0  0  0
   -3.9901   25.1416  -27.4054 H   0  0  0  0  0  0  0  0  0  0  0  0
   -3.3697   23.4558  -27.4054 H   0  0  0  0  0  0  0  0  0  0  0  0
   -5.5240   25.3490  -29.9950 C   0  0  0  0  0  0  0  0  0  0  0  0
   -5.5166   26.3534  -29.5465 H   0  0  0  0  0  0  0  0  0  0  0  0
   -6.7430   24.7820  -30.4020 C   0  0  0  0  0  0  0  0  0  0  0  0
   -7.6869   25.3320  -30.2735 H   0  0  0  0  0  0  0  0  0  0  0  0
   -6.7350   23.5090  -30.9720 C   0  0  0  0  0  0  0  0  0  0  0  0
   -7.8390   22.8450  -31.4060 N   0  0  0  0  0  0  0  0  0  0  0  0
   -8.8110   23.2220  -31.3510 H   0  0  0  0  0  0  0  0  0  0  0  0
   -6.4830   18.9640  -33.8330 C   0  0  0  0  0  0  0  0  0  0  0  0
   -6.8440   20.0480  -34.5680 F   0  0  0  0  0  0  0  0  0  0  0  0
   -5.3760   18.2110  -34.2360 C   0  0  0  0  0  0  0  0  0  0  0  0
   -4.8057   18.5091  -35.1281 H   0  0  0  0  0  0  0  0  0  0  0  0
  1  2  1  0
  2  3  2  0
  3  4  1  0
  3  5  1  0
  5  6  1  0
  5  7  2  0
  7  8  1  0
  8  9  2  0
  8 10  1  0
 10 11  2  0
 11 12  1  0
 12 13  1  0
 13 14  2  0
 14 15  1  0
 14 16  1  0
 16 17  1  0
 17 18  1  0
 18 19  1  0
 18 20  1  0
 18 21  1  0
 21 22  1  0
 21 23  1  0
 21 24  1  0
 16 25  2  0
 25 26  1  0
 25 27  1  0
 27 28  1  0
 27 29  2  0
 29 30  1  0
 30 31  1  0
  7 32  1  0
 32 33  1  0
 32 34  2  0
 34 35  1  0
 34  2  1  0
 30 11  1  0
 29 13  1  0
M  END
>  <UniqueID>  (4) 
4

>  <SMILES>  (4) 
CCOc1ccc2[nH]/c(=N\C(=O)c3ccccc3F)sc2c1

>  <Energy>  (4) 
79.37623333044293

>  <Genealogy>  (4) 
CCOc1ccc2[nH]/c(=N\C(=O)c3ccccc3F)sc2c1 (cis-trans isomerization)
CCOc1ccc2[nH]/c(=N\C(=O)c3ccccc3F)sc2c1 (3D coordinates assigned)
CCOc1ccc2[nH]/c(=N\C(=O)c3ccccc3F)sc2c1 (optimized conformer: 79.37623333044293 kcal/mol)

>  <smiles>  (4) 
CCOc1ccc2[nH]c(=NC(=O)c3ccccc3F)sc2c1

>  <score_type>  (4) 
oracle

>  <origin>  (4) 
adg

>  <m_score__min__energy>  (4) 
-8.2799999999999994

>  <m_primary>  (4) 
energy

$$$$
4:0
     RDKit          3D

 59 63  0  0  0  0  0  0  0  0999 V2000
   -2.2930   19.1790  -33.9520 C   0  0  0  0  0  0  0  0  0  0  0  0
   -3.7380   19.0560  -33.7510 N   0  0  0  0  0  0  0  0  0  0  0  0
   -4.5910   20.0300  -33.3330 C   0  0  0  0  0  0  0  0  0  0  0  0
   -4.3080   21.3550  -32.9800 C   0  0  0  0  0  0  0  0  0  0  0  0
   -5.3230   22.1380  -32.5060 N   0  0  0  0  0  0  0  0  0  0  0  0
   -6.6070   21.6670  -32.3740 C   0  0  0  0  0  0  0  0  0  0  0  0
   -7.6770   22.5180  -31.7580 C   0  0  0  0  0  0  0  0  0  0  0  0
   -7.1130   23.8440  -31.4880 N   0  0  0  0  0  0  0  0  0  0  0  0
   -7.2300   24.2340  -30.0790 C   0  0  0  0  0  0  0  0  0  0  0  0
   -5.8650   24.7030  -29.5680 C   0  0  0  0  0  0  0  0  0  0  0  0
   -4.9360   25.0810  -30.7340 C   0  0  0  0  0  0  0  0  0  0  0  0
   -3.8200   24.1300  -30.8530 N   0  0  0  0  0  0  0  0  0  0  0  0
   -3.8250   23.0900  -29.8090 C   0  0  0  0  0  0  0  0  0  0  0  0
   -2.6350   22.1440  -29.9120 C   0  0  0  0  0  0  0  0  0  0  0  0
   -1.8210   22.2480  -31.0510 C   0  0  0  0  0  0  0  0  0  0  0  0
   -0.7390   21.3890  -31.2260 C   0  0  0  0  0  0  0  0  0  0  0  0
   -0.4680   20.4370  -30.3010 N   0  0  0  0  0  0  0  0  0  0  0  0
   -1.2180   20.2940  -29.1770 C   0  0  0  0  0  0  0  0  0  0  0  0
   -0.8920   19.2860  -28.2620 C   0  0  0  0  0  0  0  0  0  0  0  0
   -1.6310   19.1350  -27.0890 C   0  0  0  0  0  0  0  0  0  0  0  0
   -2.6940   19.9940  -26.8200 C   0  0  0  0  0  0  0  0  0  0  0  0
   -3.0440   20.9950  -27.7320 C   0  0  0  0  0  0  0  0  0  0  0  0
   -2.3190   21.1570  -28.9350 C   0  0  0  0  0  0  0  0  0  0  0  0
   -6.9110   20.3370  -32.7280 C   0  0  0  0  0  0  0  0  0  0  0  0
   -5.8710   19.5510  -33.2040 C   0  0  0  0  0  0  0  0  0  0  0  0
   -5.8270   18.2210  -33.5450 C   0  0  0  0  0  0  0  0  0  0  0  0
   -6.8250   17.2510  -33.5250 C   0  0  0  0  0  0  0  0  0  0  0  0
   -6.4670   15.9390  -33.8580 C   0  0  0  0  0  0  0  0  0  0  0  0
   -5.1360   15.6240  -34.1940 C   0  0  0  0  0  0  0  0  0  0  0  0
   -4.1340   16.6160  -34.2010 C   0  0  0  0  0  0  0  0  0  0  0  0
   -2.3520   16.0640  -34.6390 Br  0  0  0  0  0  0  0  0  0  0  0  0
   -4.5090   17.9360  -33.8690 C   0  0  0  0  0  0  0  0  0  0  0  0
   -1.7893   19.2219  -32.9751 H   0  0  0  0  0  0  0  0  0  0  0  0
   -1.9259   18.3089  -34.5160 H   0  0  0  0  0  0  0  0  0  0  0  0
   -2.0782   20.0987  -34.5160 H   0  0  0  0  0  0  0  0  0  0  0  0
   -3.2894   21.7576  -33.0821 H   0  0  0  0  0  0  0  0  0  0  0  0
   -5.1000   23.1190  -32.2250 H   0  0  0  0  0  0  0  0  0  0  0  0
   -8.5253   22.6091  -32.4523 H   0  0  0  0  0  0  0  0  0  0  0  0
   -8.0334   22.0606  -30.8233 H   0  0  0  0  0  0  0  0  0  0  0  0
   -7.6180   24.5490  -32.0770 H   0  0  0  0  0  0  0  0  0  0  0  0
   -7.9589   25.0523  -29.9837 H   0  0  0  0  0  0  0  0  0  0  0  0
   -7.5691   23.3723  -29.4854 H   0  0  0  0  0  0  0  0  0  0  0  0
   -6.0061   25.5820  -28.9219 H   0  0  0  0  0  0  0  0  0  0  0  0
   -5.4013   23.8793  -29.0054 H   0  0  0  0  0  0  0  0  0  0  0  0
   -5.5139   25.0753  -31.6699 H   0  0  0  0  0  0  0  0  0  0  0  0
   -4.5225   26.0818  -30.5404 H   0  0  0  0  0  0  0  0  0  0  0  0
   -2.9220   24.6640  -30.7910 H   0  0  0  0  0  0  0  0  0  0  0  0
   -3.8001   23.5802  -28.8246 H   0  0  0  0  0  0  0  0  0  0  0  0
   -4.7373   22.4903  -29.9434 H   0  0  0  0  0  0  0  0  0  0  0  0
   -2.0393   23.0132  -31.8104 H   0  0  0  0  0  0  0  0  0  0  0  0
   -0.1024   21.4837  -32.1180 H   0  0  0  0  0  0  0  0  0  0  0  0
   -0.0493   18.6101  -28.4691 H   0  0  0  0  0  0  0  0  0  0  0  0
   -1.3744   18.3375  -26.3762 H   0  0  0  0  0  0  0  0  0  0  0  0
   -3.2618   19.8844  -25.8843 H   0  0  0  0  0  0  0  0  0  0  0  0
   -3.8905   21.6619  -27.5115 H   0  0  0  0  0  0  0  0  0  0  0  0
   -7.9315   19.9381  -32.6309 H   0  0  0  0  0  0  0  0  0  0  0  0
   -7.8606   17.5067  -33.2565 H   0  0  0  0  0  0  0  0  0  0  0  0
   -7.2314   15.1480  -33.8572 H   0  0  0  0  0  0  0  0  0  0  0  0
   -4.8741   14.5880  -34.4550 H   0  0  0  0  0  0  0  0  0  0  0  0
  1  2  1  0
  2  3  1  0
  3  4  2  0
  4  5  1  0
  5  6  2  0
  6  7  1  0
  7  8  1  0
  8  9  1  0
  9 10  1  0
 10 11  1  0
 11 12  1  0
 12 13  1  0
 13 14  1  0
 14 15  2  0
 15 16  1  0
 16 17  2  0
 17 18  1  0
 18 19  2  0
 19 20  1  0
 20 21  2  0
 21 22  1  0
 22 23  2  0
  6 24  1  0
 24 25  2  0
 25 26  1  0
 26 27  2  0
 27 28  1  0
 28 29  2  0
 29 30  1  0
 30 31  1  0
 30 32  2  0
 32  2  1  0
 25  3  1  0
 32 26  1  0
 23 14  1  0
 23 18  1  0
  1 33  1  0
  1 34  1  0
  1 35  1  0
  4 36  1  0
  5 37  1  0
  7 38  1  0
  7 39  1  0
  8 40  1  0
  9 41  1  0
  9 42  1  0
 10 43  1  0
 10 44  1  0
 11 45  1  0
 11 46  1  0
 12 47  1  0
 13 48  1  0
 13 49  1  0
 15 50  1  0
 16 51  1  0
 19 52  1  0
 20 53  1  0
 21 54  1  0
 22 55  1  0
 24 56  1  0
 27 57  1  0
 28 58  1  0
 29 59  1  0
M  CHG  1   5   1
M  END
>  <UniqueID>  (5) 
5

>  <SMILES>  (5) 
Cn1c2c[nH+]c(CNCCCNCc3ccnc4ccccc34)cc2c2cccc(Br)c21

>  <Energy>  (5) 
105.78966667966758

>  <Genealogy>  (5) 
Cn1c2c[nH+]c(CNCCCNCc3ccnc4ccccc34)cc2c2cccc(Br)c21 (protonated)
Cn1c2c[nH+]c(CNCCCNCc3ccnc4ccccc34)cc2c2cccc(Br)c21 (3D coordinates assigned)
Cn1c2c[nH+]c(CNCCCNCc3ccnc4ccccc34)cc2c2cccc(Br)c21 (optimized conformer: 105.78966667966758 kcal/mol)

>  <smiles>  (5) 
Cn1c2cnc(CNCCCNCc3ccnc4ccccc34)cc2c2cccc(Br)c21

>  <score_type>  (5) 
oracle

>  <origin>  (5) 
adg

>  <m_score__min__energy>  (5) 
-10.42

>  <m_primary>  (5) 
energy

$$$$
5:0
     RDKit          3D

 52 54  0  0  1  0  0  0  0  0999 V2000
   -5.7710   17.5790  -34.5890 C   0  0  0  0  0  0  0  0  0  0  0  0
   -6.8290   17.3320  -33.5280 C   0  0  0  0  0  0  0  0  0  0  0  0
   -7.3460   18.5840  -33.1010 N   0  0  0  0  0  0  0  0  0  0  0  0
   -8.3160   18.5210  -32.0670 C   0  0  0  0  0  0  0  0  0  0  0  0
   -9.1980   19.7150  -31.8990 C   0  0  0  0  0  0  0  0  0  0  0  0
   -8.9090   20.8080  -32.7080 O   0  0  0  0  0  0  0  0  0  0  0  0
   -7.9110   21.7070  -32.3270 C   0  0  0  0  0  0  0  0  0  0  0  0
   -6.6010   21.4760  -32.7100 C   0  0  0  0  0  0  0  0  0  0  0  0
   -5.6450   22.3870  -32.3150 C   0  0  0  0  0  0  0  0  0  0  0  0
   -5.9570   23.5090  -31.5570 C   0  0  0  0  0  0  0  0  0  0  0  0
   -4.8830   24.3760  -31.2180 N   0  0  0  0  0  0  0  0  0  0  0  0
   -3.8950   24.0670  -30.4640 C   0  0  0  0  0  0  0  0  0  0  0  0
   -3.1680   22.9900  -30.8060 N   0  0  0  0  0  0  0  0  0  0  0  0
   -2.1230   22.6660  -30.0070 C   0  0  0  0  0  0  0  0  0  0  0  0
   -1.8460   23.4290  -28.9000 C   0  0  0  0  0  0  0  0  0  0  0  0
   -0.7770   23.0680  -28.1150 C   0  0  0  0  0  0  0  0  0  0  0  0
   -0.0390   21.9590  -28.4800 C   0  0  0  0  0  0  0  0  0  0  0  0
   -0.3530   21.2230  -29.5990 C   0  0  0  0  0  0  0  0  0  0  0  0
    0.3420   20.2370  -29.8840 O   0  0  0  0  0  0  0  0  0  0  0  0
   -1.4040   21.5820  -30.3670 N   0  0  0  0  0  0  0  0  0  0  0  0
   -1.7260   20.8020  -31.5390 C   0  0  0  0  0  0  0  0  0  0  0  0
   -1.4460   21.5540  -32.8220 C   0  0  0  0  0  0  0  0  0  0  0  0
   -3.1190   20.2370  -31.5270 C   0  0  0  0  0  0  0  0  0  0  0  0
   -2.6140   24.5480  -28.5570 C   0  0  0  0  0  0  0  0  0  0  0  0
   -3.6420   24.8270  -29.3840 N   0  0  0  0  0  0  0  0  0  0  0  0
   -7.2650   23.7330  -31.1790 C   0  0  0  0  0  0  0  0  0  0  0  0
   -8.2370   22.8230  -31.5700 C   0  0  0  0  0  0  0  0  0  0  0  0
   -4.8099   17.8034  -34.1032 H   0  0  0  0  0  0  0  0  0  0  0  0
   -5.6642   16.6816  -35.2162 H   0  0  0  0  0  0  0  0  0  0  0  0
   -6.0725   18.4309  -35.2162 H   0  0  0  0  0  0  0  0  0  0  0  0
   -7.6405   16.7207  -33.9496 H   0  0  0  0  0  0  0  0  0  0  0  0
   -6.3863   16.7982  -32.6741 H   0  0  0  0  0  0  0  0  0  0  0  0
   -7.5550   19.2550  -33.8600 H   0  0  0  0  0  0  0  0  0  0  0  0
   -8.9631   17.6548  -32.2697 H   0  0  0  0  0  0  0  0  0  0  0  0
   -7.7383   18.4554  -31.1332 H   0  0  0  0  0  0  0  0  0  0  0  0
  -10.2308   19.4025  -32.1127 H   0  0  0  0  0  0  0  0  0  0  0  0
   -9.0347   20.0599  -30.8673 H   0  0  0  0  0  0  0  0  0  0  0  0
   -6.3317   20.5942  -33.3100 H   0  0  0  0  0  0  0  0  0  0  0  0
   -4.5986   22.2200  -32.6101 H   0  0  0  0  0  0  0  0  0  0  0  0
   -0.5156   23.6483  -27.2178 H   0  0  0  0  0  0  0  0  0  0  0  0
    0.8194   21.6574  -27.8618 H   0  0  0  0  0  0  0  0  0  0  0  0
   -1.0475   19.9370  -31.5020 H   0  0  0  0  0  0  0  0  0  0  0  0
   -1.0713   22.5602  -32.5829 H   0  0  0  0  0  0  0  0  0  0  0  0
   -0.6899   21.0108  -33.4078 H   0  0  0  0  0  0  0  0  0  0  0  0
   -2.3733   21.6376  -33.4078 H   0  0  0  0  0  0  0  0  0  0  0  0
   -3.4511   20.1023  -30.4870 H   0  0  0  0  0  0  0  0  0  0  0  0
   -3.8002   20.9299  -32.0426 H   0  0  0  0  0  0  0  0  0  0  0  0
   -3.1250   19.2653  -32.0426 H   0  0  0  0  0  0  0  0  0  0  0  0
   -2.3932   25.1602  -27.6702 H   0  0  0  0  0  0  0  0  0  0  0  0
   -4.2430   25.6510  -29.1710 H   0  0  0  0  0  0  0  0  0  0  0  0
   -7.5321   24.6157  -30.5794 H   0  0  0  0  0  0  0  0  0  0  0  0
   -9.2835   22.9893  -31.2748 H   0  0  0  0  0  0  0  0  0  0  0  0
  1  2  1  0
  2  3  1  0
  3  4  1  0
  4  5  1  0
  5  6  1  0
  6  7  1  0
  7  8  2  0
  8  9  1  0
  9 10  2  0
 10 11  1  0
 11 12  2  0
 12 13  1  0
 13 14  2  0
 14 15  1  0
 15 16  1  0
 16 17  2  0
 17 18  1  0
 18 19  2  0
 18 20  1  0
 20 21  1  0
 21 22  1  0
 21 23  1  0
 15 24  2  0
 24 25  1  0
 10 26  1  0
 26 27  2  0
 27  7  1  0
 25 12  1  0
 20 14  1  0
  1 28  1  0
  1 29  1  0
  1 30  1  0
  2 31  1  0
  2 32  1  0
  3 33  1  0
  4 34  1  0
  4 35  1  0
  5 36  1  0
  5 37  1  0
  8 38  1  0
  9 39  1  0
 16 40  1  0
 17 41  1  0
 21 42  1  0
 22 43  1  0
 22 44  1  0
 22 45  1  0
 23 46  1  0
 23 47  1  0
 23 48  1  0
 24 49  1  0
 25 50  1  0
 26 51  1  0
 27 52  1  0
M  END
>  <smiles>  (6) 
CCNCCOc1ccc(N=c2nc3c(ccc(=O)n3C(C)C)c[nH]2)cc1

>  <score_type>  (6) 
oracle

>  <origin>  (6) 
adg

>  <m_score__min__energy>  (6) 
-8.2200000000000006

>  <m_primary>  (6) 
energy

$$$$
6:0
     RDKit          3D

 28 29  0  0  0  0  0  0  0  0999 V2000
   -5.0510   26.4180  -29.4010 H   0  0  0  0  0  0  0  0  0  0  0  0
   -5.0460   26.0240  -30.3680 N   0  0  0  0  0  0  0  0  0  0  0  0
   -5.3850   24.7950  -30.5880 C   0  0  0  0  0  0  0  0  0  0  0  0
   -5.0010   24.0920  -31.7070 O   0  0  0  0  0  0  0  0  0  0  0  0
   -5.5240   22.7700  -31.6370 C   0  0  0  0  0  0  0  0  0  0  0  0
   -4.7070   22.0337  -31.6197 H   0  0  0  0  0  0  0  0  0  0  0  0
   -6.1510   22.5322  -32.5090 H   0  0  0  0  0  0  0  0  0  0  0  0
   -6.3350   22.7140  -30.3100 C   0  0  2  0  0  0  0  0  0  0  0  0
   -5.9433   21.9174  -29.6604 H   0  0  0  0  0  0  0  0  0  0  0  0
   -7.8190   22.3260  -30.4950 C   0  0  0  0  0  0  0  0  0  0  0  0
   -8.0265   21.4654  -29.8421 H   0  0  0  0  0  0  0  0  0  0  0  0
   -8.3965   23.2281  -30.2445 H   0  0  0  0  0  0  0  0  0  0  0  0
   -8.2410   21.9440  -31.9300 C   0  0  0  0  0  0  0  0  0  0  0  0
   -9.3379   21.9930  -31.9964 H   0  0  0  0  0  0  0  0  0  0  0  0
   -7.7530   22.6542  -32.6138 H   0  0  0  0  0  0  0  0  0  0  0  0
   -7.7980   20.5590  -32.3320 C   0  0  0  0  0  0  0  0  0  0  0  0
   -6.8140   20.3840  -33.3190 C   0  0  0  0  0  0  0  0  0  0  0  0
   -6.3560   21.2631  -33.7960 H   0  0  0  0  0  0  0  0  0  0  0  0
   -6.4130   19.1000  -33.6990 C   0  0  0  0  0  0  0  0  0  0  0  0
   -5.6496   18.9714  -34.4805 H   0  0  0  0  0  0  0  0  0  0  0  0
   -6.9820   17.9780  -33.0860 C   0  0  0  0  0  0  0  0  0  0  0  0
   -6.4780   16.3680  -33.5630 Cl  0  0  0  0  0  0  0  0  0  0  0  0
   -7.9480   18.1440  -32.0880 C   0  0  0  0  0  0  0  0  0  0  0  0
   -8.3898   17.2628  -31.5997 H   0  0  0  0  0  0  0  0  0  0  0  0
   -8.3530   19.4270  -31.7100 C   0  0  0  0  0  0  0  0  0  0  0  0
   -9.1100   19.5518  -30.9217 H   0  0  0  0  0  0  0  0  0  0  0  0
   -6.1910   24.0370  -29.7160 N   0  0  0  0  0  0  0  0  0  0  0  0
   -6.5620   24.3450  -28.7890 H   0  0  0  0  0  0  0  0  0  0  0  0
  1  2  1  0
  2  3  2  0
  3  4  1  0
  4  5  1  0
  5  6  1  0
  5  7  1  0
  5  8  1  0
  8  9  1  1
  8 10  1  0
 10 11  1  0
 10 12  1  0
 10 13  1  0
 13 14  1  0
 13 15  1  0
 13 16  1  0
 16 17  2  0
 17 18  1  0
 17 19  1  0
 19 20  1  0
 19 21  2  0
 21 22  1  0
 21 23  1  0
 23 24  1  0
 23 25  2  0
 25 26  1  0
  8 27  1  0
 27 28  1  0
 27  3  1  0
 25 16  1  0
M  END
>  <UniqueID>  (7) 
6

>  <SMILES>  (7) 
[H]/N=C1\N[C@@H](CCc2ccc(Cl)cc2)CO1

>  <Energy>  (7) 
39.04539083747329

>  <Genealogy>  (7) 
N=C1N[C@@H](CCc2ccc(Cl)cc2)CO1 (chirality)
[H]/N=C1\N[C@@H](CCc2ccc(Cl)cc2)CO1 (cis-trans isomerization)
[H]/N=C1\N[C@@H](CCc2ccc(Cl)cc2)CO1 (3D coordinates assigned)
[H]/N=C1\N[C@@H](CCc2ccc(Cl)cc2)CO1 (nonaromatic ring conformer: 39.04539083747329 kcal/mol)

>  <smiles>  (7) 
N=C1NC(CCc2ccc(Cl)cc2)CO1

>  <score_type>  (7) 
oracle

>  <origin>  (7) 
adg

>  <m_score__min__energy>  (7) 
-7.3200000000000003

>  <m_primary>  (7) 
energy

$$$$
7:0
     RDKit          3D

 55 59  0  0  0  0  0  0  0  0999 V2000
   -8.5370   18.2550  -32.0520 C   0  0  0  0  0  0  0  0  0  0  0  0
   -7.4600   19.1950  -32.3310 N   0  0  0  0  0  0  0  0  0  0  0  0
   -6.3510   19.3860  -31.5980 C   0  0  0  0  0  0  0  0  0  0  0  0
   -5.5790   20.2950  -32.2990 C   0  0  0  0  0  0  0  0  0  0  0  0
   -4.2520   20.8160  -31.9110 C   0  0  0  0  0  0  0  0  0  0  0  0
   -3.9990   22.0620  -31.3410 C   0  0  0  0  0  0  0  0  0  0  0  0
   -4.9600   23.0940  -30.8970 C   0  0  0  0  0  0  0  0  0  0  0  0
   -6.3280   22.7900  -30.8030 C   0  0  0  0  0  0  0  0  0  0  0  0
   -7.2410   23.7660  -30.3900 C   0  0  0  0  0  0  0  0  0  0  0  0
   -6.7960   25.0530  -30.0760 C   0  0  0  0  0  0  0  0  0  0  0  0
   -5.4390   25.3680  -30.1790 C   0  0  0  0  0  0  0  0  0  0  0  0
   -4.5240   24.3950  -30.5930 C   0  0  0  0  0  0  0  0  0  0  0  0
   -2.6300   22.0850  -31.1790 C   0  0  0  0  0  0  0  0  0  0  0  0
   -1.9690   23.0300  -30.6680 O   0  0  0  0  0  0  0  0  0  0  0  0
   -2.0890   20.9290  -31.6120 N   0  0  0  0  0  0  0  0  0  0  0  0
   -3.0710   20.1630  -32.0900 N   0  0  0  0  0  0  0  0  0  0  0  0
   -2.9190   18.8250  -32.6880 C   0  0  0  0  0  0  0  0  0  0  0  0
   -2.0150   18.8700  -33.8590 N   0  0  0  0  0  0  0  0  0  0  0  0
   -2.2750   17.7430  -34.7820 C   0  0  0  0  0  0  0  0  0  0  0  0
   -3.6320   17.1410  -34.5260 C   0  0  0  0  0  0  0  0  0  0  0  0
   -3.7400   15.9180  -33.8450 C   0  0  0  0  0  0  0  0  0  0  0  0
   -4.9980   15.3620  -33.5890 C   0  0  0  0  0  0  0  0  0  0  0  0
   -6.1540   16.0220  -34.0120 C   0  0  0  0  0  0  0  0  0  0  0  0
   -6.0550   17.2410  -34.6890 C   0  0  0  0  0  0  0  0  0  0  0  0
   -4.8000   17.8020  -34.9460 C   0  0  0  0  0  0  0  0  0  0  0  0
   -0.5970   18.8760  -33.4330 C   0  0  0  0  0  0  0  0  0  0  0  0
   -0.1300   20.2650  -32.9790 C   0  0  0  0  0  0  0  0  0  0  0  0
   -0.6530   20.6140  -31.5850 C   0  0  0  0  0  0  0  0  0  0  0  0
   -6.2270   20.6170  -33.4390 N   0  0  0  0  0  0  0  0  0  0  0  0
   -7.3590   19.9290  -33.4270 N   0  0  0  0  0  0  0  0  0  0  0  0
   -8.6585   18.1490  -30.9639 H   0  0  0  0  0  0  0  0  0  0  0  0
   -9.4736   18.6297  -32.4907 H   0  0  0  0  0  0  0  0  0  0  0  0
   -8.2924   17.2764  -32.4907 H   0  0  0  0  0  0  0  0  0  0  0  0
   -6.1060   18.9148  -30.6347 H   0  0  0  0  0  0  0  0  0  0  0  0
   -6.6830   21.7799  -31.0553 H   0  0  0  0  0  0  0  0  0  0  0  0
   -8.3104   23.5202  -30.3123 H   0  0  0  0  0  0  0  0  0  0  0  0
   -7.5146   25.8183  -29.7476 H   0  0  0  0  0  0  0  0  0  0  0  0
   -5.0900   26.3821  -29.9343 H   0  0  0  0  0  0  0  0  0  0  0  0
   -3.4574   24.6492  -30.6812 H   0  0  0  0  0  0  0  0  0  0  0  0
   -2.5006   18.1398  -31.9361 H   0  0  0  0  0  0  0  0  0  0  0  0
   -3.9072   18.4738  -33.0199 H   0  0  0  0  0  0  0  0  0  0  0  0
   -2.2331   18.1092  -35.8184 H   0  0  0  0  0  0  0  0  0  0  0  0
   -1.5104   16.9696  -34.6167 H   0  0  0  0  0  0  0  0  0  0  0  0
   -2.8317   15.3948  -33.5114 H   0  0  0  0  0  0  0  0  0  0  0  0
   -5.0768   14.4041  -33.0540 H   0  0  0  0  0  0  0  0  0  0  0  0
   -7.1424   15.5825  -33.8124 H   0  0  0  0  0  0  0  0  0  0  0  0
   -6.9664   17.7602  -35.0204 H   0  0  0  0  0  0  0  0  0  0  0  0
   -4.7264   18.7621  -35.4777 H   0  0  0  0  0  0  0  0  0  0  0  0
   -0.4761   18.1716  -32.5968 H   0  0  0  0  0  0  0  0  0  0  0  0
    0.0150   18.5820  -34.2984 H   0  0  0  0  0  0  0  0  0  0  0  0
    0.9697   20.2824  -32.9611 H   0  0  0  0  0  0  0  0  0  0  0  0
   -0.5263   21.0069  -33.6879 H   0  0  0  0  0  0  0  0  0  0  0  0
   -0.4876   19.7566  -30.9161 H   0  0  0  0  0  0  0  0  0  0  0  0
   -0.1115   21.5013  -31.2251 H   0  0  0  0  0  0  0  0  0  0  0  0
   -8.0700   19.9580  -34.1920 H   0  0  0  0  0  0  0  0  0  0  0  0
  1  2  1  0
  2  3  1  0
  3  4  2  0
  4  5  1  0
  5  6  2  0
  6  7  1  0
  7  8  2  0
  8  9  1  0
  9 10  2  0
 10 11  1  0
 11 12  2  0
  6 13  1  0
 13 14  2  0
 13 15  1  0
 15 16  1  0
 16 17  1  0
 17 18  1  0
 18 19  1  0
 19 20  1  0
 20 21  2  0
 21 22  1  0
 22 23  2  0
 23 24  1  0
 24 25  2  0
 18 26  1  0
 26 27  1  0
 27 28  1  0
  4 29  1  0
 29 30  2  0
 30  2  1  0
 16  5  1  0
 25 20  1  0
 12  7  1  0
 28 15  1  0
  1 31  1  0
  1 32  1  0
  1 33  1  0
  3 34  1  0
  8 35  1  0
  9 36  1  0
 10 37  1  0
 11 38  1  0
 12 39  1  0
 17 40  1  0
 17 41  1  0
 19 42  1  0
 19 43  1  0
 21 44  1  0
 22 45  1  0
 23 46  1  0
 24 47  1  0
 25 48  1  0
 26 49  1  0
 26 50  1  0
 27 51  1  0
 27 52  1  0
 28 53  1  0
 28 54  1  0
 30 55  1  0
M  CHG  1  30   1
M  END
>  <UniqueID>  (8) 
7

>  <SMILES>  (8) 
Cn1cc(-c2c(-c3ccccc3)c(=O)n3n2CN(Cc2ccccc2)CCC3)n[nH+]1

>  <Energy>  (8) 
144.1437843706833

>  <Genealogy>  (8) 
Cn1cc(-c2c(-c3ccccc3)c(=O)n3n2CN(Cc2ccccc2)CCC3)n[nH+]1 (protonated)
Cn1cc(-c2c(-c3ccccc3)c(=O)n3n2CN(Cc2ccccc2)CCC3)n[nH+]1 (3D coordinates assigned)
Cn1cc(-c2c(-c3ccccc3)c(=O)n3n2CN(Cc2ccccc2)CCC3)n[nH+]1 (nonaromatic ring conformer: 144.1437843706833 kcal/mol)

>  <smiles>  (8) 
Cn1cc(-c2c(-c3ccccc3)c(=O)n3n2CN(Cc2ccccc2)CCC3)nn1

>  <score_type>  (8) 
oracle

>  <origin>  (8) 
adg

>  <m_score__min__energy>  (8) 
-7.6200000000000001

>  <m_primary>  (8) 
energy

$$$$
8:0
     RDKit          3D

 42 43  0  0  0  0  0  0  0  0999 V2000
   -5.2710   25.4950  -30.4580 C   0  0  0  0  0  0  0  0  0  0  0  0
   -3.8810   25.2920  -30.5540 O   0  0  0  0  0  0  0  0  0  0  0  0
   -3.5730   23.9710  -30.1610 C   0  0  0  0  0  0  0  0  0  0  0  0
   -4.8410   23.1170  -30.1750 C   0  0  0  0  0  0  0  0  0  0  0  0
   -4.9060   22.3140  -31.4240 N   0  0  0  0  0  0  0  0  0  0  0  0
   -5.9900   22.7860  -32.3210 C   0  0  0  0  0  0  0  0  0  0  0  0
   -7.2090   21.9070  -32.2080 C   0  0  0  0  0  0  0  0  0  0  0  0
   -7.1790   20.5900  -32.6910 C   0  0  0  0  0  0  0  0  0  0  0  0
   -8.3210   19.7920  -32.5870 C   0  0  0  0  0  0  0  0  0  0  0  0
   -9.4460   20.2830  -32.0020 N   0  0  0  0  0  0  0  0  0  0  0  0
   -9.4940   21.5460  -31.5010 C   0  0  0  0  0  0  0  0  0  0  0  0
   -8.3750   22.3770  -31.5850 C   0  0  0  0  0  0  0  0  0  0  0  0
   -3.5850   22.3050  -32.1000 C   0  0  0  0  0  0  0  0  0  0  0  0
   -3.2050   20.9230  -32.5910 C   0  0  0  0  0  0  0  0  0  0  0  0
   -4.1040   20.2170  -33.4050 C   0  0  0  0  0  0  0  0  0  0  0  0
   -3.8010   18.9280  -33.8360 C   0  0  0  0  0  0  0  0  0  0  0  0
   -2.5940   18.3480  -33.4590 C   0  0  0  0  0  0  0  0  0  0  0  0
   -1.7130   19.0390  -32.6870 N   0  0  0  0  0  0  0  0  0  0  0  0
   -1.9760   20.3060  -32.2470 C   0  0  0  0  0  0  0  0  0  0  0  0
   -0.9450   21.0220  -31.4170 C   0  0  0  0  0  0  0  0  0  0  0  0
   -5.5630   25.5376  -29.3983 H   0  0  0  0  0  0  0  0  0  0  0  0
   -5.5382   26.4417  -30.9503 H   0  0  0  0  0  0  0  0  0  0  0  0
   -5.7978   24.6643  -30.9503 H   0  0  0  0  0  0  0  0  0  0  0  0
   -2.8378   23.5444  -30.8592 H   0  0  0  0  0  0  0  0  0  0  0  0
   -3.1548   23.9831  -29.1437 H   0  0  0  0  0  0  0  0  0  0  0  0
   -4.8326   22.4401  -29.3080 H   0  0  0  0  0  0  0  0  0  0  0  0
   -5.7191   23.7779  -30.1274 H   0  0  0  0  0  0  0  0  0  0  0  0
   -6.2624   23.8153  -32.0446 H   0  0  0  0  0  0  0  0  0  0  0  0
   -5.6265   22.7476  -33.3585 H   0  0  0  0  0  0  0  0  0  0  0  0
   -6.2627   20.1886  -33.1484 H   0  0  0  0  0  0  0  0  0  0  0  0
   -8.3101   18.7643  -32.9792 H   0  0  0  0  0  0  0  0  0  0  0  0
  -10.4166   21.9141  -31.0284 H   0  0  0  0  0  0  0  0  0  0  0  0
   -8.4074   23.3934  -31.1655 H   0  0  0  0  0  0  0  0  0  0  0  0
   -3.6223   22.9892  -32.9605 H   0  0  0  0  0  0  0  0  0  0  0  0
   -2.8281   22.6243  -31.3684 H   0  0  0  0  0  0  0  0  0  0  0  0
   -5.0536   20.6846  -33.7044 H   0  0  0  0  0  0  0  0  0  0  0  0
   -4.5096   18.3734  -34.4688 H   0  0  0  0  0  0  0  0  0  0  0  0
   -2.3512   17.3264  -33.7866 H   0  0  0  0  0  0  0  0  0  0  0  0
   -0.8140   18.5720  -32.4330 H   0  0  0  0  0  0  0  0  0  0  0  0
   -1.1636   20.8702  -30.3497 H   0  0  0  0  0  0  0  0  0  0  0  0
    0.0534   20.6219  -31.6473 H   0  0  0  0  0  0  0  0  0  0  0  0
   -0.9712   22.0973  -31.6473 H   0  0  0  0  0  0  0  0  0  0  0  0
  1  2  1  0
  2  3  1  0
  3  4  1  0
  4  5  1  0
  5  6  1  0
  6  7  1  0
  7  8  2  0
  8  9  1  0
  9 10  2  0
 10 11  1  0
 11 12  2  0
  5 13  1  0
 13 14  1  0
 14 15  2  0
 15 16  1  0
 16 17  2  0
 17 18  1  0
 18 19  2  0
 19 20  1  0
 12  7  1  0
 19 14  1  0
  1 21  1  0
  1 22  1  0
  1 23  1  0
  3 24  1  0
  3 25  1  0
  4 26  1  0
  4 27  1  0
  6 28  1  0
  6 29  1  0
  8 30  1  0
  9 31  1  0
 11 32  1  0
 12 33  1  0
 13 34  1  0
 13 35  1  0
 15 36  1  0
 16 37  1  0
 17 38  1  0
 18 39  1  0
 20 40  1  0
 20 41  1  0
 20 42  1  0
M  CHG  1  18   1
M  END
>  <UniqueID>  (9) 
8

>  <SMILES>  (9) 
COCCN(Cc1ccncc1)Cc1ccc[nH+]c1C

>  <Energy>  (9) 
43.52661729477488

>  <Genealogy>  (9) 
COCCN(Cc1ccncc1)Cc1ccc[nH+]c1C (protonated)
COCCN(Cc1ccncc1)Cc1ccc[nH+]c1C (3D coordinates assigned)
COCCN(Cc1ccncc1)Cc1ccc[nH+]c1C (optimized conformer: 43.52661729477488 kcal/mol)

>  <smiles>  (9) 
COCCN(Cc1ccncc1)Cc1cccnc1C

>  <score_type>  (9) 
oracle

>  <origin>  (9) 
adg

>  <m_score__min__energy>  (9) 
-6.71

>  <m_primary>  (9) 
energy

$$$$
9:0
     RDKit          3D

 50 52  0  0  0  0  0  0  0  0999 V2000
   -3.1480   21.6560  -29.0940 C   0  0  0  0  0  0  0  0  0  0  0  0
   -3.6940   22.2980  -27.8190 C   0  0  0  0  0  0  0  0  0  0  0  0
   -4.1370   23.6880  -28.0740 N   0  0  0  0  0  0  0  0  0  0  0  0
   -3.8790   24.5400  -26.8910 C   0  0  0  0  0  0  0  0  0  0  0  0
   -2.4080   24.9480  -26.8120 C   0  0  0  0  0  0  0  0  0  0  0  0
   -3.5170   24.2480  -29.3040 C   0  0  0  0  0  0  0  0  0  0  0  0
   -4.5690   25.0260  -30.0930 C   0  0  0  0  0  0  0  0  0  0  0  0
   -5.7960   25.1640  -29.2990 N   0  0  0  0  0  0  0  0  0  0  0  0
   -6.9890   24.8370  -30.0930 C   0  0  0  0  0  0  0  0  0  0  0  0
   -6.6320   24.4100  -31.4500 N   0  0  0  0  0  0  0  0  0  0  0  0
   -6.4710   23.0390  -31.8650 C   0  0  0  0  0  0  0  0  0  0  0  0
   -5.2440   22.6300  -32.3970 C   0  0  0  0  0  0  0  0  0  0  0  0
   -5.0430   21.3110  -32.8090 C   0  0  0  0  0  0  0  0  0  0  0  0
   -6.0760   20.3510  -32.7050 C   0  0  0  0  0  0  0  0  0  0  0  0
   -7.3270   20.7750  -32.1750 C   0  0  0  0  0  0  0  0  0  0  0  0
   -8.3870   19.8670  -32.0570 C   0  0  0  0  0  0  0  0  0  0  0  0
   -8.2320   18.5430  -32.4510 C   0  0  0  0  0  0  0  0  0  0  0  0
   -7.0140   18.0960  -32.9730 C   0  0  0  0  0  0  0  0  0  0  0  0
   -6.8810   16.7560  -33.3630 C   0  0  0  0  0  0  0  0  0  0  0  0
   -5.6710   16.3080  -33.8820 C   0  0  0  0  0  0  0  0  0  0  0  0
   -4.6280   17.1640  -34.0080 N   0  0  0  0  0  0  0  0  0  0  0  0
   -4.7150   18.4700  -33.6430 C   0  0  0  0  0  0  0  0  0  0  0  0
   -5.9180   18.9910  -33.1090 C   0  0  0  0  0  0  0  0  0  0  0  0
   -7.5140   22.1050  -31.7670 C   0  0  0  0  0  0  0  0  0  0  0  0
   -2.4565   20.8429  -28.8280 H   0  0  0  0  0  0  0  0  0  0  0  0
   -3.9814   21.2496  -29.6858 H   0  0  0  0  0  0  0  0  0  0  0  0
   -2.6131   22.4134  -29.6858 H   0  0  0  0  0  0  0  0  0  0  0  0
   -4.5491   21.7084  -27.4568 H   0  0  0  0  0  0  0  0  0  0  0  0
   -2.8932   22.3175  -27.0651 H   0  0  0  0  0  0  0  0  0  0  0  0
   -4.4992   25.4459  -26.9595 H   0  0  0  0  0  0  0  0  0  0  0  0
   -4.1294   23.9651  -25.9872 H   0  0  0  0  0  0  0  0  0  0  0  0
   -2.1068   25.0315  -25.7573 H   0  0  0  0  0  0  0  0  0  0  0  0
   -1.7893   24.1876  -27.3109 H   0  0  0  0  0  0  0  0  0  0  0  0
   -2.2694   25.9185  -27.3109 H   0  0  0  0  0  0  0  0  0  0  0  0
   -2.6938   24.9224  -29.0257 H   0  0  0  0  0  0  0  0  0  0  0  0
   -3.1245   23.4283  -29.9237 H   0  0  0  0  0  0  0  0  0  0  0  0
   -4.1774   26.0253  -30.3340 H   0  0  0  0  0  0  0  0  0  0  0  0
   -4.7997   24.4805  -31.0199 H   0  0  0  0  0  0  0  0  0  0  0  0
   -5.7400   24.5150  -28.4810 H   0  0  0  0  0  0  0  0  0  0  0  0
   -7.5376   24.0238  -29.5953 H   0  0  0  0  0  0  0  0  0  0  0  0
   -7.6113   25.7409  -30.1685 H   0  0  0  0  0  0  0  0  0  0  0  0
   -6.4360   25.1660  -32.1470 H   0  0  0  0  0  0  0  0  0  0  0  0
   -4.4251   23.3582  -32.4923 H   0  0  0  0  0  0  0  0  0  0  0  0
   -4.0669   21.0145  -33.2204 H   0  0  0  0  0  0  0  0  0  0  0  0
   -9.3510   20.2048  -31.6488 H   0  0  0  0  0  0  0  0  0  0  0  0
   -9.0736   17.8417  -32.3515 H   0  0  0  0  0  0  0  0  0  0  0  0
   -7.7288   16.0629  -33.2591 H   0  0  0  0  0  0  0  0  0  0  0  0
   -5.5605   15.2579  -34.1905 H   0  0  0  0  0  0  0  0  0  0  0  0
   -3.8423   19.1286  -33.7636 H   0  0  0  0  0  0  0  0  0  0  0  0
   -8.4890   22.4188  -31.3659 H   0  0  0  0  0  0  0  0  0  0  0  0
  1  2  1  0
  2  3  1  0
  3  4  1  0
  4  5  1  0
  3  6  1  0
  6  7  1  0
  7  8  1  0
  8  9  1  0
  9 10  1  0
 10 11  1  0
 11 12  2  0
 12 13  1  0
 13 14  2  0
 14 15  1  0
 15 16  1  0
 16 17  2  0
 17 18  1  0
 18 19  2  0
 19 20  1  0
 20 21  2  0
 21 22  1  0
 22 23  2  0
 15 24  2  0
 24 11  1  0
 23 14  1  0
 23 18  1  0
  1 25  1  0
  1 26  1  0
  1 27  1  0
  2 28  1  0
  2 29  1  0
  4 30  1  0
  4 31  1  0
  5 32  1  0
  5 33  1  0
  5 34  1  0
  6 35  1  0
  6 36  1  0
  7 37  1  0
  7 38  1  0
  8 39  1  0
  9 40  1  0
  9 41  1  0
 10 42  1  0
 12 43  1  0
 13 44  1  0
 16 45  1  0
 17 46  1  0
 19 47  1  0
 20 48  1  0
 22 49  1  0
 24 50  1  0
M  END
>  <UniqueID>  (10) 
9

>  <SMILES>  (10) 
CCN(CC)CCNCNc1ccc2c(ccc3ccncc32)c1

>  <Energy>  (10) 
60.52836101914885

>  <Genealogy>  (10) 
CCN(CC)CCNCNc1ccc2c(ccc3ccncc32)c1 (3D coordinates assigned)
CCN(CC)CCNCNc1ccc2c(ccc3ccncc32)c1 (optimized conformer: 60.52836101914885 kcal/mol)

>  <smiles>  (10) 
CCN(CC)CCNCNc1ccc2c(ccc3ccncc32)c1

>  <score_type>  (10) 
oracle

>  <origin>  (10) 
adg

>  <m_score__min__energy>  (10) 
-8.6799999999999997

>  <m_primary>  (10) 
energy

$$$$
10:0
     RDKit          3D

 73 76  0  0  0  0  0  0  0  0999 V2000
    1.0100   22.6420  -35.8510 C   0  0  0  0  0  0  0  0  0  0  0  0
    0.4400   21.2590  -35.5250 C   0  0  0  0  0  0  0  0  0  0  0  0
   -0.8540   21.3450  -34.8180 N   0  0  0  0  0  0  0  0  0  0  0  0
   -0.7780   20.8620  -33.4260 C   0  0  0  0  0  0  0  0  0  0  0  0
   -2.0540   20.1130  -33.0050 C   0  0  0  0  0  0  0  0  0  0  0  0
   -3.2300   20.6950  -33.6540 N   0  0  0  0  0  0  0  0  0  0  0  0
   -4.5620   20.3000  -33.2790 C   0  0  0  0  0  0  0  0  0  0  0  0
   -5.0360   19.0150  -33.5930 C   0  0  0  0  0  0  0  0  0  0  0  0
   -4.1920   18.0620  -34.2060 C   0  0  0  0  0  0  0  0  0  0  0  0
   -4.6770   16.8080  -34.5670 C   0  0  0  0  0  0  0  0  0  0  0  0
   -6.0070   16.4800  -34.3270 C   0  0  0  0  0  0  0  0  0  0  0  0
   -6.8500   17.3930  -33.6950 C   0  0  0  0  0  0  0  0  0  0  0  0
   -6.3760   18.6620  -33.2730 C   0  0  0  0  0  0  0  0  0  0  0  0
   -7.1800   19.5460  -32.5770 N   0  0  0  0  0  0  0  0  0  0  0  0
   -8.4680   19.0810  -32.0130 C   0  0  0  0  0  0  0  0  0  0  0  0
   -6.7630   20.8480  -32.3710 C   0  0  0  0  0  0  0  0  0  0  0  0
   -7.6460   21.8500  -31.8930 C   0  0  0  0  0  0  0  0  0  0  0  0
   -7.2000   23.1460  -31.6350 C   0  0  0  0  0  0  0  0  0  0  0  0
   -5.8580   23.4850  -31.8440 C   0  0  0  0  0  0  0  0  0  0  0  0
   -5.3510   24.7670  -31.5840 O   0  0  0  0  0  0  0  0  0  0  0  0
   -5.0650   25.2960  -30.2900 C   0  0  0  0  0  0  0  0  0  0  0  0
   -5.1590   24.2110  -29.2060 C   0  0  0  0  0  0  0  0  0  0  0  0
   -4.1560   24.4700  -28.0500 C   0  0  0  0  0  0  0  0  0  0  0  0
   -2.9590   23.5660  -27.9820 N   0  0  0  0  0  0  0  0  0  0  0  0
   -2.1560   23.8850  -26.7700 C   0  0  0  0  0  0  0  0  0  0  0  0
   -3.4760   22.1560  -27.8410 C   0  0  0  0  0  0  0  0  0  0  0  0
   -2.5410   21.0970  -28.4510 C   0  0  0  0  0  0  0  0  0  0  0  0
   -2.3560   21.3250  -29.9620 C   0  0  0  0  0  0  0  0  0  0  0  0
   -2.5130   22.8030  -30.3540 C   0  0  0  0  0  0  0  0  0  0  0  0
   -2.0830   23.7140  -29.1960 C   0  0  0  0  0  0  0  0  0  0  0  0
   -4.9830   22.5250  -32.3430 C   0  0  0  0  0  0  0  0  0  0  0  0
   -5.4240   21.2230  -32.6580 C   0  0  0  0  0  0  0  0  0  0  0  0
    1.2307   23.1774  -34.9158 H   0  0  0  0  0  0  0  0  0  0  0  0
    1.9348   22.5289  -36.4357 H   0  0  0  0  0  0  0  0  0  0  0  0
    0.2741   23.2134  -36.4357 H   0  0  0  0  0  0  0  0  0  0  0  0
    0.2952   20.7045  -36.4639 H   0  0  0  0  0  0  0  0  0  0  0  0
    1.1539   20.7450  -34.8645 H   0  0  0  0  0  0  0  0  0  0  0  0
   -1.1870   22.3370  -34.8150 H   0  0  0  0  0  0  0  0  0  0  0  0
   -1.5710   20.7940  -35.3490 H   0  0  0  0  0  0  0  0  0  0  0  0
    0.0806   20.1808  -33.3329 H   0  0  0  0  0  0  0  0  0  0  0  0
   -0.6652   21.7368  -32.7687 H   0  0  0  0  0  0  0  0  0  0  0  0
   -1.9659   19.0561  -33.2968 H   0  0  0  0  0  0  0  0  0  0  0  0
   -2.1719   20.1978  -31.9146 H   0  0  0  0  0  0  0  0  0  0  0  0
   -3.0900   21.1670  -34.5750 H   0  0  0  0  0  0  0  0  0  0  0  0
   -3.1390   18.3139  -34.4003 H   0  0  0  0  0  0  0  0  0  0  0  0
   -4.0077   16.0760  -35.0425 H   0  0  0  0  0  0  0  0  0  0  0  0
   -6.3946   15.4982  -34.6365 H   0  0  0  0  0  0  0  0  0  0  0  0
   -7.9023   17.1245  -33.5202 H   0  0  0  0  0  0  0  0  0  0  0  0
   -8.4154   19.1000  -30.9144 H   0  0  0  0  0  0  0  0  0  0  0  0
   -9.2776   19.7436  -32.3528 H   0  0  0  0  0  0  0  0  0  0  0  0
   -8.6677   18.0540  -32.3528 H   0  0  0  0  0  0  0  0  0  0  0  0
   -8.7035   21.5999  -31.7224 H   0  0  0  0  0  0  0  0  0  0  0  0
   -7.9056   23.9048  -31.2658 H   0  0  0  0  0  0  0  0  0  0  0  0
   -4.0472   25.7132  -30.2911 H   0  0  0  0  0  0  0  0  0  0  0  0
   -5.8070   26.0759  -30.0637 H   0  0  0  0  0  0  0  0  0  0  0  0
   -6.1802   24.2022  -28.7973 H   0  0  0  0  0  0  0  0  0  0  0  0
   -4.9116   23.2428  -29.6658 H   0  0  0  0  0  0  0  0  0  0  0  0
   -3.7892   25.5020  -28.1516 H   0  0  0  0  0  0  0  0  0  0  0  0
   -4.7208   24.2726  -27.1269 H   0  0  0  0  0  0  0  0  0  0  0  0
   -2.7430   23.6518  -25.8694 H   0  0  0  0  0  0  0  0  0  0  0  0
   -1.2342   23.2848  -26.7724 H   0  0  0  0  0  0  0  0  0  0  0  0
   -1.8974   24.9542  -26.7724 H   0  0  0  0  0  0  0  0  0  0  0  0
   -3.6003   21.9359  -26.7704 H   0  0  0  0  0  0  0  0  0  0  0  0
   -4.4276   22.1032  -28.3903 H   0  0  0  0  0  0  0  0  0  0  0  0
   -1.5604   21.1558  -27.9561 H   0  0  0  0  0  0  0  0  0  0  0  0
   -2.9915   20.1049  -28.3001 H   0  0  0  0  0  0  0  0  0  0  0  0
   -1.3492   20.9881  -30.2496 H   0  0  0  0  0  0  0  0  0  0  0  0
   -3.1366   20.7538  -30.4859 H   0  0  0  0  0  0  0  0  0  0  0  0
   -1.8853   23.0133  -31.2325 H   0  0  0  0  0  0  0  0  0  0  0  0
   -3.5698   22.9991  -30.5878 H   0  0  0  0  0  0  0  0  0  0  0  0
   -1.0493   23.4627  -28.9163 H   0  0  0  0  0  0  0  0  0  0  0  0
   -2.1704   24.7542  -29.5428 H   0  0  0  0  0  0  0  0  0  0  0  0
   -3.9255   22.7870  -32.4949 H   0  0  0  0  0  0  0  0  0  0  0  0
  1  2  1  0
  2  3  1  0
  3  4  1  0
  4  5  1  0
  5  6  1  0
  6  7  1  0
  7  8  2  0
  8  9  1  0
  9 10  2  0
 10 11  1  0
 11 12  2  0
 12 13  1  0
 13 14  2  0
 14 15  1  0
 14 16  1  0
 16 17  2  0
 17 18  1  0
 18 19  2  0
 19 20  1  0
 20 21  1  0
 21 22  1  0
 22 23  1  0
 23 24  1  0
 24 25  1  0
 24 26  1  0
 26 27  1  0
 27 28  1  0
 28 29  1  0
 29 30  1  0
 19 31  1  0
 31 32  2  0
 32  7  1  0
 13  8  1  0
 32 16  1  0
 30 24  1  0
  1 33  1  0
  1 34  1  0
  1 35  1  0
  2 36  1  0
  2 37  1  0
  3 38  1  0
  3 39  1  0
  4 40  1  0
  4 41  1  0
  5 42  1  0
  5 43  1  0
  6 44  1  0
  9 45  1  0
 10 46  1  0
 11 47  1  0
 12 48  1  0
 15 49  1  0
 15 50  1  0
 15 51  1  0
 17 52  1  0
 18 53  1  0
 21 54  1  0
 21 55  1  0
 22 56  1  0
 22 57  1  0
 23 58  1  0
 23 59  1  0
 25 60  1  0
 25 61  1  0
 25 62  1  0
 26 63  1  0
 26 64  1  0
 27 65  1  0
 27 66  1  0
 28 67  1  0
 28 68  1  0
 29 69  1  0
 29 70  1  0
 30 71  1  0
 30 72  1  0
 31 73  1  0
M  CHG  3   3   1  14   1  24   1
M  END
>  <UniqueID>  (11) 
10

>  <SMILES>  (11) 
CC[NH2+]CCNc1c2ccccc2[n+](C)c2ccc(OCCC[N+]3(C)CCCCC3)cc12

>  <Energy>  (11) 
111.48588356183006

>  <Genealogy>  (11) 
CC[NH2+]CCNc1c2ccccc2[n+](C)c2ccc(OCCC[N+]3(C)CCCCC3)cc12 (protonated)
CC[NH2+]CCNc1c2ccccc2[n+](C)c2ccc(OCCC[N+]3(C)CCCCC3)cc12 (3D coordinates assigned)
CC[NH2+]CCNc1c2ccccc2[n+](C)c2ccc(OCCC[N+]3(C)CCCCC3)cc12 (nonaromatic ring conformer: 111.48588356183006 kcal/mol)

>  <smiles>  (11) 
CCNCCNc1c2ccccc2[n+](C)c2ccc(OCCC[N+]3(C)CCCCC3)cc12

>  <score_type>  (11) 
oracle

>  <origin>  (11) 
adg

>  <m_score__min__energy>  (11) 
-8.1699999999999999

>  <m_primary>  (11) 
energy

$$$$
11:0
     RDKit          3D

 55 58  0  0  0  0  0  0  0  0999 V2000
   -0.8520   18.4190  -32.0940 C   0  0  0  0  0  0  0  0  0  0  0  0
   -1.1410   18.7010  -33.5660 C   0  0  0  0  0  0  0  0  0  0  0  0
   -1.6510   20.0810  -33.7380 N   0  0  0  0  0  0  0  0  0  0  0  0
   -0.7410   20.9040  -34.5750 C   0  0  0  0  0  0  0  0  0  0  0  0
    0.6200   21.1920  -33.9270 C   0  0  0  0  0  0  0  0  0  0  0  0
   -1.9940   20.6930  -32.4300 C   0  0  0  0  0  0  0  0  0  0  0  0
   -3.0750   21.7820  -32.5640 C   0  0  0  0  0  0  0  0  0  0  0  0
   -3.9930   21.5260  -33.6920 N   0  0  0  0  0  0  0  0  0  0  0  0
   -5.1800   20.7900  -33.2750 C   0  0  0  0  0  0  0  0  0  0  0  0
   -5.2870   19.3900  -33.4910 C   0  0  0  0  0  0  0  0  0  0  0  0
   -6.4610   18.7110  -33.0990 C   0  0  0  0  0  0  0  0  0  0  0  0
   -7.5080   19.3770  -32.5160 N   0  0  0  0  0  0  0  0  0  0  0  0
   -8.7290   18.6230  -32.1620 C   0  0  0  0  0  0  0  0  0  0  0  0
   -7.4180   20.7270  -32.2480 C   0  0  0  0  0  0  0  0  0  0  0  0
   -8.4710   21.4140  -31.5890 C   0  0  0  0  0  0  0  0  0  0  0  0
   -8.3860   22.7770  -31.3180 C   0  0  0  0  0  0  0  0  0  0  0  0
   -7.2560   23.4890  -31.6880 C   0  0  0  0  0  0  0  0  0  0  0  0
   -6.2020   22.8470  -32.3320 C   0  0  0  0  0  0  0  0  0  0  0  0
   -6.2560   21.4600  -32.6250 C   0  0  0  0  0  0  0  0  0  0  0  0
   -6.5560   17.3240  -33.3110 O   0  0  0  0  0  0  0  0  0  0  0  0
   -5.5340   16.5710  -33.8880 C   0  0  0  0  0  0  0  0  0  0  0  0
   -5.6890   15.1910  -34.0640 C   0  0  0  0  0  0  0  0  0  0  0  0
   -4.6590   14.4420  -34.6400 C   0  0  0  0  0  0  0  0  0  0  0  0
   -3.4750   15.0700  -35.0400 C   0  0  0  0  0  0  0  0  0  0  0  0
   -3.3200   16.4500  -34.8650 C   0  0  0  0  0  0  0  0  0  0  0  0
   -4.3550   17.2020  -34.2890 C   0  0  0  0  0  0  0  0  0  0  0  0
   -4.2240   18.6150  -34.0980 N   0  0  0  0  0  0  0  0  0  0  0  0
   -1.4984   19.0497  -31.4660 H   0  0  0  0  0  0  0  0  0  0  0  0
   -1.0519   17.3592  -31.8776 H   0  0  0  0  0  0  0  0  0  0  0  0
    0.2026   18.6448  -31.8776 H   0  0  0  0  0  0  0  0  0  0  0  0
   -0.2141   18.5824  -34.1463 H   0  0  0  0  0  0  0  0  0  0  0  0
   -1.9035   17.9924  -33.9216 H   0  0  0  0  0  0  0  0  0  0  0  0
   -0.5668   20.3715  -35.5216 H   0  0  0  0  0  0  0  0  0  0  0  0
   -1.2354   21.8762  -34.7181 H   0  0  0  0  0  0  0  0  0  0  0  0
    0.5168   21.1702  -32.8321 H   0  0  0  0  0  0  0  0  0  0  0  0
    1.3453   20.4275  -34.2422 H   0  0  0  0  0  0  0  0  0  0  0  0
    0.9734   22.1848  -34.2422 H   0  0  0  0  0  0  0  0  0  0  0  0
   -2.3651   19.9061  -31.7569 H   0  0  0  0  0  0  0  0  0  0  0  0
   -1.0853   21.1660  -32.0293 H   0  0  0  0  0  0  0  0  0  0  0  0
   -3.6598   21.8161  -31.6330 H   0  0  0  0  0  0  0  0  0  0  0  0
   -2.5665   22.7386  -32.7549 H   0  0  0  0  0  0  0  0  0  0  0  0
   -3.4890   21.0720  -34.4810 H   0  0  0  0  0  0  0  0  0  0  0  0
   -4.2800   22.4380  -34.1140 H   0  0  0  0  0  0  0  0  0  0  0  0
   -8.8206   18.5665  -31.0673 H   0  0  0  0  0  0  0  0  0  0  0  0
   -9.6095   19.1349  -32.5776 H   0  0  0  0  0  0  0  0  0  0  0  0
   -8.6657   17.6065  -32.5776 H   0  0  0  0  0  0  0  0  0  0  0  0
   -9.3713   20.8589  -31.2867 H   0  0  0  0  0  0  0  0  0  0  0  0
   -9.2164   23.2891  -30.8098 H   0  0  0  0  0  0  0  0  0  0  0  0
   -7.1917   24.5657  -31.4719 H   0  0  0  0  0  0  0  0  0  0  0  0
   -5.3114   23.4255  -32.6188 H   0  0  0  0  0  0  0  0  0  0  0  0
   -6.6200   14.6967  -33.7495 H   0  0  0  0  0  0  0  0  0  0  0  0
   -4.7797   13.3575  -34.7789 H   0  0  0  0  0  0  0  0  0  0  0  0
   -2.6651   14.4789  -35.4924 H   0  0  0  0  0  0  0  0  0  0  0  0
   -2.3885   16.9440  -35.1785 H   0  0  0  0  0  0  0  0  0  0  0  0
   -3.3200   19.0370  -34.3900 H   0  0  0  0  0  0  0  0  0  0  0  0
  1  2  1  0
  2  3  1  0
  3  4  1  0
  4  5  1  0
  3  6  1  0
  6  7  1  0
  7  8  1  0
  8  9  1  0
  9 10  2  0
 10 11  1  0
 11 12  2  0
 12 13  1  0
 12 14  1  0
 14 15  2  0
 15 16  1  0
 16 17  2  0
 17 18  1  0
 18 19  2  0
 11 20  1  0
 20 21  1  0
 21 22  2  0
 22 23  1  0
 23 24  2  0
 24 25  1  0
 25 26  2  0
 26 27  1  0
 19  9  1  0
 26 21  1  0
 27 10  1  0
 19 14  1  0
  1 28  1  0
  1 29  1  0
  1 30  1  0
  2 31  1  0
  2 32  1  0
  4 33  1  0
  4 34  1  0
  5 35  1  0
  5 36  1  0
  5 37  1  0
  6 38  1  0
  6 39  1  0
  7 40  1  0
  7 41  1  0
  8 42  1  0
  8 43  1  0
 13 44  1  0
 13 45  1  0
 13 46  1  0
 15 47  1  0
 16 48  1  0
 17 49  1  0
 18 50  1  0
 22 51  1  0
 23 52  1  0
 24 53  1  0
 25 54  1  0
 27 55  1  0
M  CHG  2   8   1  12   1
M  END
>  <UniqueID>  (12) 
11

>  <SMILES>  (12) 
CCN(CC)CC[NH2+]c1c2c([n+](C)c3ccccc13)Oc1ccccc1N2

>  <Energy>  (12) 
78.66724904020072

>  <Genealogy>  (12) 
CCN(CC)CC[NH2+]c1c2c([n+](C)c3ccccc13)Oc1ccccc1N2 (protonated)
CCN(CC)CC[NH2+]c1c2c([n+](C)c3ccccc13)Oc1ccccc1N2 (3D coordinates assigned)
CCN(CC)CC[NH2+]c1c2c([n+](C)c3ccccc13)Oc1ccccc1N2 (nonaromatic ring conformer: 78.66724904020072 kcal/mol)

>  <smiles>  (12) 
CCN(CC)CCNc1c2c([n+](C)c3ccccc13)Oc1ccccc1N2

>  <score_type>  (12) 
oracle

>  <origin>  (12) 
adg

>  <m_score__min__energy>  (12) 
-8.1099999999999994

>  <m_primary>  (12) 
energy

$$$$
12:0
     RDKit          3D

 51 53  0  0  0  0  0  0  0  0999 V2000
    0.0950   19.8110  -33.1300 C   0  0  0  0  0  0  0  0  0  0  0  0
   -0.5970   21.1000  -33.5840 C   0  0  0  0  0  0  0  0  0  0  0  0
   -1.8370   20.8330  -34.3400 N   0  0  0  0  0  0  0  0  0  0  0  0
   -2.5010   19.5800  -33.9320 C   0  0  0  0  0  0  0  0  0  0  0  0
   -3.9950   19.7940  -33.6120 C   0  0  0  0  0  0  0  0  0  0  0  0
   -4.2700   19.7820  -32.1700 N   0  0  0  0  0  0  0  0  0  0  0  0
   -5.0060   20.8280  -31.5150 C   0  0  0  0  0  0  0  0  0  0  0  0
   -6.3940   20.9220  -31.7310 C   0  0  0  0  0  0  0  0  0  0  0  0
   -7.0890   19.9000  -32.4180 C   0  0  0  0  0  0  0  0  0  0  0  0
   -8.4480   20.0200  -32.6880 C   0  0  0  0  0  0  0  0  0  0  0  0
   -9.1380   21.1580  -32.2910 C   0  0  0  0  0  0  0  0  0  0  0  0
   -8.4790   22.1690  -31.5930 C   0  0  0  0  0  0  0  0  0  0  0  0
   -7.1020   22.0570  -31.2640 C   0  0  0  0  0  0  0  0  0  0  0  0
   -6.4470   23.0320  -30.5410 N   0  0  0  0  0  0  0  0  0  0  0  0
   -7.2280   24.0770  -29.8390 C   0  0  0  0  0  0  0  0  0  0  0  0
   -5.0680   23.0120  -30.4330 C   0  0  0  0  0  0  0  0  0  0  0  0
   -4.3580   24.1480  -29.9760 C   0  0  0  0  0  0  0  0  0  0  0  0
   -2.9830   24.1200  -29.7760 C   0  0  0  0  0  0  0  0  0  0  0  0
   -2.3510   25.2960  -29.3400 O   0  0  0  0  0  0  0  0  0  0  0  0
   -1.4840   25.3760  -28.2120 C   0  0  0  0  0  0  0  0  0  0  0  0
   -2.2840   22.9310  -29.9970 C   0  0  0  0  0  0  0  0  0  0  0  0
   -2.9380   21.7870  -30.4740 C   0  0  0  0  0  0  0  0  0  0  0  0
   -2.1160   20.5190  -30.5550 C   0  0  0  0  0  0  0  0  0  0  0  0
   -4.3290   21.8530  -30.8070 C   0  0  0  0  0  0  0  0  0  0  0  0
    0.1153   19.7733  -32.0308 H   0  0  0  0  0  0  0  0  0  0  0  0
   -0.4580   18.9422  -33.5166 H   0  0  0  0  0  0  0  0  0  0  0  0
    1.1247   19.7919  -33.5166 H   0  0  0  0  0  0  0  0  0  0  0  0
   -0.8460   21.6996  -32.6961 H   0  0  0  0  0  0  0  0  0  0  0  0
    0.0945   21.6371  -34.2499 H   0  0  0  0  0  0  0  0  0  0  0  0
   -2.5040   21.6290  -34.2120 H   0  0  0  0  0  0  0  0  0  0  0  0
   -1.6100   20.7930  -35.3610 H   0  0  0  0  0  0  0  0  0  0  0  0
   -2.4143   18.8497  -34.7500 H   0  0  0  0  0  0  0  0  0  0  0  0
   -2.0072   19.2161  -33.0189 H   0  0  0  0  0  0  0  0  0  0  0  0
   -4.3077   20.7655  -34.0224 H   0  0  0  0  0  0  0  0  0  0  0  0
   -4.5555   18.9632  -34.0654 H   0  0  0  0  0  0  0  0  0  0  0  0
   -4.2540   18.8500  -31.6980 H   0  0  0  0  0  0  0  0  0  0  0  0
   -6.5481   18.9990  -32.7429 H   0  0  0  0  0  0  0  0  0  0  0  0
   -8.9767   19.2130  -33.2164 H   0  0  0  0  0  0  0  0  0  0  0  0
  -10.2072   21.2619  -32.5279 H   0  0  0  0  0  0  0  0  0  0  0  0
   -9.0352   23.0690  -31.2919 H   0  0  0  0  0  0  0  0  0  0  0  0
   -7.1271   23.9420  -28.7520 H   0  0  0  0  0  0  0  0  0  0  0  0
   -6.8490   25.0701  -30.1219 H   0  0  0  0  0  0  0  0  0  0  0  0
   -8.2878   23.9948  -30.1219 H   0  0  0  0  0  0  0  0  0  0  0  0
   -4.9094   25.0781  -29.7737 H   0  0  0  0  0  0  0  0  0  0  0  0
   -2.0784   25.3212  -27.2881 H   0  0  0  0  0  0  0  0  0  0  0  0
   -0.7696   24.5400  -28.2386 H   0  0  0  0  0  0  0  0  0  0  0  0
   -0.9347   26.3286  -28.2386 H   0  0  0  0  0  0  0  0  0  0  0  0
   -1.2037   22.8920  -29.7935 H   0  0  0  0  0  0  0  0  0  0  0  0
   -1.8866   20.1652  -29.5390 H   0  0  0  0  0  0  0  0  0  0  0  0
   -2.6856   19.7465  -31.0924 H   0  0  0  0  0  0  0  0  0  0  0  0
   -1.1783   20.7236  -31.0924 H   0  0  0  0  0  0  0  0  0  0  0  0
  1  2  1  0
  2  3  1  0
  3  4  1  0
  4  5  1  0
  5  6  1  0
  6  7  1  0
  7  8  2  0
  8  9  1  0
  9 10  2  0
 10 11  1  0
 11 12  2  0
 12 13  1  0
 13 14  2  0
 14 15  1  0
 14 16  1  0
 16 17  2  0
 17 18  1  0
 18 19  1  0
 19 20  1  0
 18 21  2  0
 21 22  1  0
 22 23  1  0
 22 24  2  0
 24  7  1  0
 13  8  1  0
 24 16  1  0
  1 25  1  0
  1 26  1  0
  1 27  1  0
  2 28  1  0
  2 29  1  0
  3 30  1  0
  3 31  1  0
  4 32  1  0
  4 33  1  0
  5 34  1  0
  5 35  1  0
  6 36  1  0
  9 37  1  0
 10 38  1  0
 11 39  1  0
 12 40  1  0
 15 41  1  0
 15 42  1  0
 15 43  1  0
 17 44  1  0
 20 45  1  0
 20 46  1  0
 20 47  1  0
 21 48  1  0
 23 49  1  0
 23 50  1  0
 23 51  1  0
M  CHG  2   3   1  14   1
M  END
>  <UniqueID>  (13) 
12

>  <SMILES>  (13) 
CC[NH2+]CCNc1c2ccccc2[n+](C)c2cc(OC)cc(C)c12

>  <Energy>  (13) 
85.0713017662617

>  <Genealogy>  (13) 
CC[NH2+]CCNc1c2ccccc2[n+](C)c2cc(OC)cc(C)c12 (protonated)
CC[NH2+]CCNc1c2ccccc2[n+](C)c2cc(OC)cc(C)c12 (3D coordinates assigned)
CC[NH2+]CCNc1c2ccccc2[n+](C)c2cc(OC)cc(C)c12 (optimized conformer: 85.0713017662617 kcal/mol)

>  <smiles>  (13) 
CCNCCNc1c2ccccc2[n+](C)c2cc(OC)cc(C)c12

>  <score_type>  (13) 
oracle

>  <origin>  (13) 
adg

>  <m_score__min__energy>  (13) 
-6.7000000000000002

>  <m_primary>  (13) 
energy

$$$$
13:0
     RDKit          3D

 74 77  0  0  0  0  0  0  0  0999 V2000
   -3.0400   18.9350  -26.3350 C   0  0  0  0  0  0  0  0  0  0  0  0
   -2.7530   20.0700  -27.3200 C   0  0  0  0  0  0  0  0  0  0  0  0
   -1.4400   20.8200  -27.0160 C   0  0  0  0  0  0  0  0  0  0  0  0
   -0.9450   21.6930  -28.1840 C   0  0  0  0  0  0  0  0  0  0  0  0
   -0.6850   20.8830  -29.3980 N   0  0  0  0  0  0  0  0  0  0  0  0
    0.4250   19.9270  -29.1900 C   0  0  0  0  0  0  0  0  0  0  0  0
   -0.0960   18.4910  -29.2050 C   0  0  0  0  0  0  0  0  0  0  0  0
   -0.4910   21.7260  -30.6080 C   0  0  0  0  0  0  0  0  0  0  0  0
   -1.4730   21.2930  -31.7060 C   0  0  0  0  0  0  0  0  0  0  0  0
   -2.3860   20.2350  -31.2260 N   0  0  0  0  0  0  0  0  0  0  0  0
   -3.7810   20.5840  -31.4620 C   0  0  0  0  0  0  0  0  0  0  0  0
   -4.5820   19.8360  -32.3620 C   0  0  0  0  0  0  0  0  0  0  0  0
   -4.1360   18.6040  -32.9010 C   0  0  0  0  0  0  0  0  0  0  0  0
   -4.8820   17.9330  -33.8650 C   0  0  0  0  0  0  0  0  0  0  0  0
   -6.0720   18.4750  -34.3260 C   0  0  0  0  0  0  0  0  0  0  0  0
   -6.5620   19.6550  -33.7740 C   0  0  0  0  0  0  0  0  0  0  0  0
   -5.8660   20.3270  -32.7350 C   0  0  0  0  0  0  0  0  0  0  0  0
   -6.4030   21.4370  -32.1060 N   0  0  0  0  0  0  0  0  0  0  0  0
   -7.8350   21.7750  -32.2950 C   0  0  0  0  0  0  0  0  0  0  0  0
   -5.6290   22.1930  -31.2470 C   0  0  0  0  0  0  0  0  0  0  0  0
   -6.0760   23.4430  -30.7420 C   0  0  0  0  0  0  0  0  0  0  0  0
   -5.3370   24.1560  -29.7990 C   0  0  0  0  0  0  0  0  0  0  0  0
   -4.1220   23.6560  -29.3280 C   0  0  0  0  0  0  0  0  0  0  0  0
   -3.3530   24.3790  -28.2800 C   0  0  0  0  0  0  0  0  0  0  0  0
   -3.8870   24.5540  -26.9920 C   0  0  0  0  0  0  0  0  0  0  0  0
   -3.1450   25.1970  -25.9960 C   0  0  0  0  0  0  0  0  0  0  0  0
   -1.8480   25.6830  -26.2600 C   0  0  0  0  0  0  0  0  0  0  0  0
   -1.0730   26.3420  -25.2250 N   0  0  0  0  0  0  0  0  0  0  0  0
   -0.4940   25.5720  -24.1200 C   0  0  0  0  0  0  0  0  0  0  0  0
   -0.8620   27.7950  -25.2680 C   0  0  0  0  0  0  0  0  0  0  0  0
   -1.3190   25.5070  -27.5560 C   0  0  0  0  0  0  0  0  0  0  0  0
   -2.0640   24.8690  -28.5520 C   0  0  0  0  0  0  0  0  0  0  0  0
   -3.6330   22.4580  -29.8640 C   0  0  0  0  0  0  0  0  0  0  0  0
   -4.3380   21.7430  -30.8580 C   0  0  0  0  0  0  0  0  0  0  0  0
   -2.9451   19.3103  -25.3054 H   0  0  0  0  0  0  0  0  0  0  0  0
   -4.0614   18.5595  -26.4957 H   0  0  0  0  0  0  0  0  0  0  0  0
   -2.3199   18.1192  -26.4957 H   0  0  0  0  0  0  0  0  0  0  0  0
   -2.6870   19.6458  -28.3328 H   0  0  0  0  0  0  0  0  0  0  0  0
   -3.5735   20.7970  -27.2295 H   0  0  0  0  0  0  0  0  0  0  0  0
   -1.6038   21.4680  -26.1424 H   0  0  0  0  0  0  0  0  0  0  0  0
   -0.6680   20.0582  -26.8325 H   0  0  0  0  0  0  0  0  0  0  0  0
   -1.7112   22.4475  -28.4155 H   0  0  0  0  0  0  0  0  0  0  0  0
   -0.0020   22.1713  -27.8808 H   0  0  0  0  0  0  0  0  0  0  0  0
    1.1657   20.0518  -29.9936 H   0  0  0  0  0  0  0  0  0  0  0  0
    0.8886   20.1271  -28.2127 H   0  0  0  0  0  0  0  0  0  0  0  0
   -0.2245   18.1368  -28.1716 H   0  0  0  0  0  0  0  0  0  0  0  0
   -1.0636   18.4574  -29.7271 H   0  0  0  0  0  0  0  0  0  0  0  0
    0.6250   17.8448  -29.7271 H   0  0  0  0  0  0  0  0  0  0  0  0
   -0.6717   22.7803  -30.3514 H   0  0  0  0  0  0  0  0  0  0  0  0
    0.5394   21.6050  -30.9737 H   0  0  0  0  0  0  0  0  0  0  0  0
   -2.0675   22.1642  -32.0183 H   0  0  0  0  0  0  0  0  0  0  0  0
   -0.8932   20.8929  -32.5509 H   0  0  0  0  0  0  0  0  0  0  0  0
   -2.1810   19.3130  -31.6730 H   0  0  0  0  0  0  0  0  0  0  0  0
   -2.1990   20.0400  -30.2180 H   0  0  0  0  0  0  0  0  0  0  0  0
   -3.1864   18.1718  -32.5524 H   0  0  0  0  0  0  0  0  0  0  0  0
   -4.5269   16.9706  -34.2622 H   0  0  0  0  0  0  0  0  0  0  0  0
   -6.6298   17.9716  -35.1294 H   0  0  0  0  0  0  0  0  0  0  0  0
   -7.5066   20.0749  -34.1500 H   0  0  0  0  0  0  0  0  0  0  0  0
   -8.3175   21.8889  -31.3131 H   0  0  0  0  0  0  0  0  0  0  0  0
   -7.9183   22.7175  -32.8560 H   0  0  0  0  0  0  0  0  0  0  0  0
   -8.3310   20.9692  -32.8560 H   0  0  0  0  0  0  0  0  0  0  0  0
   -7.0281   23.8585  -31.1036 H   0  0  0  0  0  0  0  0  0  0  0  0
   -5.7139   25.1189  -29.4237 H   0  0  0  0  0  0  0  0  0  0  0  0
   -4.8971   24.1821  -26.7652 H   0  0  0  0  0  0  0  0  0  0  0  0
   -3.5790   25.3253  -24.9934 H   0  0  0  0  0  0  0  0  0  0  0  0
   -0.8190   26.0042  -23.1621 H   0  0  0  0  0  0  0  0  0  0  0  0
   -0.8321   24.5272  -24.1844 H   0  0  0  0  0  0  0  0  0  0  0  0
    0.6036   25.6068  -24.1844 H   0  0  0  0  0  0  0  0  0  0  0  0
   -0.8050   28.1877  -24.2421 H   0  0  0  0  0  0  0  0  0  0  0  0
    0.0773   28.0136  -25.7971 H   0  0  0  0  0  0  0  0  0  0  0  0
   -1.7003   28.2718  -25.7971 H   0  0  0  0  0  0  0  0  0  0  0  0
   -0.3085   25.8761  -27.7854 H   0  0  0  0  0  0  0  0  0  0  0  0
   -1.6372   24.7492  -29.5587 H   0  0  0  0  0  0  0  0  0  0  0  0
   -2.6729   22.0626  -29.5008 H   0  0  0  0  0  0  0  0  0  0  0  0
  1  2  1  0
  2  3  1  0
  3  4  1  0
  4  5  1  0
  5  6  1  0
  6  7  1  0
  5  8  1  0
  8  9  1  0
  9 10  1  0
 10 11  1  0
 11 12  2  0
 12 13  1  0
 13 14  2  0
 14 15  1  0
 15 16  2  0
 16 17  1  0
 17 18  2  0
 18 19  1  0
 18 20  1  0
 20 21  2  0
 21 22  1  0
 22 23  2  0
 23 24  1  0
 24 25  2  0
 25 26  1  0
 26 27  2  0
 27 28  1  0
 28 29  1  0
 28 30  1  0
 27 31  1  0
 31 32  2  0
 23 33  1  0
 33 34  2  0
 34 11  1  0
 17 12  1  0
 34 20  1  0
 32 24  1  0
  1 35  1  0
  1 36  1  0
  1 37  1  0
  2 38  1  0
  2 39  1  0
  3 40  1  0
  3 41  1  0
  4 42  1  0
  4 43  1  0
  6 44  1  0
  6 45  1  0
  7 46  1  0
  7 47  1  0
  7 48  1  0
  8 49  1  0
  8 50  1  0
  9 51  1  0
  9 52  1  0
 10 53  1  0
 10 54  1  0
 13 55  1  0
 14 56  1  0
 15 57  1  0
 16 58  1  0
 19 59  1  0
 19 60  1  0
 19 61  1  0
 21 62  1  0
 22 63  1  0
 25 64  1  0
 26 65  1  0
 29 66  1  0
 29 67  1  0
 29 68  1  0
 30 69  1  0
 30 70  1  0
 30 71  1  0
 31 72  1  0
 32 73  1  0
 33 74  1  0
M  CHG  2  10   1  18   1
M  END
>  <UniqueID>  (14) 
13

>  <SMILES>  (14) 
CCCCN(CC)CC[NH2+]c1c2ccccc2[n+](C)c2ccc(-c3ccc(N(C)C)cc3)cc12

>  <Energy>  (14) 
108.44759054925734

>  <Genealogy>  (14) 
CCCCN(CC)CC[NH2+]c1c2ccccc2[n+](C)c2ccc(-c3ccc(N(C)C)cc3)cc12 (protonated)
CCCCN(CC)CC[NH2+]c1c2ccccc2[n+](C)c2ccc(-c3ccc(N(C)C)cc3)cc12 (3D coordinates assigned)
CCCCN(CC)CC[NH2+]c1c2ccccc2[n+](C)c2ccc(-c3ccc(N(C)C)cc3)cc12 (optimized conformer: 108.44759054925734 kcal/mol)

>  <smiles>  (14) 
CCCCN(CC)CCNc1c2ccccc2[n+](C)c2ccc(-c3ccc(N(C)C)cc3)cc12

>  <score_type>  (14) 
oracle

>  <origin>  (14) 
adg

>  <m_score__min__energy>  (14) 
-9.3699999999999992

>  <m_primary>  (14) 
energy

$$$$
14:0
     RDKit          3D

 47 50  0  0  0  0  0  0  0  0999 V2000
   -9.1000   19.5170  -32.2510 C   0  0  0  0  0  0  0  0  0  0  0  0
   -7.6880   19.9240  -32.3930 N   0  0  0  0  0  0  0  0  0  0  0  0
   -6.7670   19.0890  -32.9980 C   0  0  0  0  0  0  0  0  0  0  0  0
   -7.1320   17.8020  -33.4670 C   0  0  0  0  0  0  0  0  0  0  0  0
   -6.2030   16.9770  -34.0990 C   0  0  0  0  0  0  0  0  0  0  0  0
   -4.8920   17.4040  -34.2750 C   0  0  0  0  0  0  0  0  0  0  0  0
   -4.4970   18.6580  -33.8180 C   0  0  0  0  0  0  0  0  0  0  0  0
   -5.4140   19.5160  -33.1770 C   0  0  0  0  0  0  0  0  0  0  0  0
   -5.0140   20.7960  -32.7250 C   0  0  0  0  0  0  0  0  0  0  0  0
   -3.7230   21.3170  -33.0720 N   0  0  0  0  0  0  0  0  0  0  0  0
   -2.5680   21.1070  -32.1980 C   0  0  0  0  0  0  0  0  0  0  0  0
   -1.2490   21.4340  -32.9220 C   0  0  0  0  0  0  0  0  0  0  0  0
   -1.1820   20.8580  -34.2900 N   0  0  0  0  0  0  0  0  0  0  0  0
   -1.2060   19.3840  -34.2550 C   0  0  0  0  0  0  0  0  0  0  0  0
    0.0440   21.3130  -34.9700 C   0  0  0  0  0  0  0  0  0  0  0  0
   -5.9440   21.5770  -32.0150 C   0  0  0  0  0  0  0  0  0  0  0  0
   -5.7410   22.8220  -31.3610 C   0  0  0  0  0  0  0  0  0  0  0  0
   -4.5370   23.5200  -31.1530 C   0  0  0  0  0  0  0  0  0  0  0  0
   -4.5600   24.7430  -30.4610 C   0  0  0  0  0  0  0  0  0  0  0  0
   -5.7660   25.2560  -29.9570 C   0  0  0  0  0  0  0  0  0  0  0  0
   -6.9600   24.5430  -30.1220 C   0  0  0  0  0  0  0  0  0  0  0  0
   -6.9180   23.3350  -30.8150 C   0  0  0  0  0  0  0  0  0  0  0  0
   -8.1910   22.2760  -31.0680 S   0  0  0  0  0  0  0  0  0  0  0  0
   -7.2620   21.1290  -31.9010 C   0  0  0  0  0  0  0  0  0  0  0  0
   -9.3548   19.4435  -31.1834 H   0  0  0  0  0  0  0  0  0  0  0  0
   -9.7474   20.2651  -32.7319 H   0  0  0  0  0  0  0  0  0  0  0  0
   -9.2499   18.5391  -32.7319 H   0  0  0  0  0  0  0  0  0  0  0  0
   -8.1647   17.4488  -33.3300 H   0  0  0  0  0  0  0  0  0  0  0  0
   -6.5087   15.9839  -34.4600 H   0  0  0  0  0  0  0  0  0  0  0  0
   -4.1646   16.7490  -34.7769 H   0  0  0  0  0  0  0  0  0  0  0  0
   -3.4559   18.9839  -33.9588 H   0  0  0  0  0  0  0  0  0  0  0  0
   -3.6520   22.0240  -33.8380 H   0  0  0  0  0  0  0  0  0  0  0  0
   -2.6633   21.7579  -31.3164 H   0  0  0  0  0  0  0  0  0  0  0  0
   -2.5466   20.0481  -31.9009 H   0  0  0  0  0  0  0  0  0  0  0  0
   -1.1511   22.5271  -32.9963 H   0  0  0  0  0  0  0  0  0  0  0  0
   -0.4316   20.9886  -32.3359 H   0  0  0  0  0  0  0  0  0  0  0  0
   -1.9970   21.1850  -34.8590 H   0  0  0  0  0  0  0  0  0  0  0  0
   -1.2116   19.0421  -33.2095 H   0  0  0  0  0  0  0  0  0  0  0  0
   -2.1102   19.0198  -34.7647 H   0  0  0  0  0  0  0  0  0  0  0  0
   -0.3141   18.9906  -34.7647 H   0  0  0  0  0  0  0  0  0  0  0  0
    0.7975   21.5927  -34.2190 H   0  0  0  0  0  0  0  0  0  0  0  0
    0.4372   20.5009  -35.5992 H   0  0  0  0  0  0  0  0  0  0  0  0
   -0.1878   22.1850  -35.5992 H   0  0  0  0  0  0  0  0  0  0  0  0
   -3.5868   23.1123  -31.5285 H   0  0  0  0  0  0  0  0  0  0  0  0
   -3.6250   25.3033  -30.3129 H   0  0  0  0  0  0  0  0  0  0  0  0
   -5.7730   26.2218  -29.4305 H   0  0  0  0  0  0  0  0  0  0  0  0
   -7.9070   24.9269  -29.7148 H   0  0  0  0  0  0  0  0  0  0  0  0
  1  2  1  0
  2  3  2  0
  3  4  1  0
  4  5  2  0
  5  6  1  0
  6  7  2  0
  7  8  1  0
  8  9  2  0
  9 10  1  0
 10 11  1  0
 11 12  1  0
 12 13  1  0
 13 14  1  0
 13 15  1  0
  9 16  1  0
 16 17  1  0
 17 18  2  0
 18 19  1  0
 19 20  2  0
 20 21  1  0
 21 22  2  0
 22 23  1  0
 23 24  1  0
 24  2  1  0
  8  3  1  0
 24 16  2  0
 22 17  1  0
  1 25  1  0
  1 26  1  0
  1 27  1  0
  4 28  1  0
  5 29  1  0
  6 30  1  0
  7 31  1  0
 10 32  1  0
 11 33  1  0
 11 34  1  0
 12 35  1  0
 12 36  1  0
 13 37  1  0
 14 38  1  0
 14 39  1  0
 14 40  1  0
 15 41  1  0
 15 42  1  0
 15 43  1  0
 18 44  1  0
 19 45  1  0
 20 46  1  0
 21 47  1  0
M  CHG  2   2   1  13   1
M  END
>  <UniqueID>  (15) 
14

>  <SMILES>  (15) 
C[n+]1c2ccccc2c(NCC[NH+](C)C)c2c3ccccc3sc21

>  <Energy>  (15) 
105.5762390230332

>  <Genealogy>  (15) 
C[n+]1c2ccccc2c(NCC[NH+](C)C)c2c3ccccc3sc21 (protonated)
C[n+]1c2ccccc2c(NCC[NH+](C)C)c2c3ccccc3sc21 (3D coordinates assigned)
C[n+]1c2ccccc2c(NCC[NH+](C)C)c2c3ccccc3sc21 (optimized conformer: 105.5762390230332 kcal/mol)

>  <smiles>  (15) 
CN(C)CCNc1c2ccccc2[n+](C)c2sc3ccccc3c12

>  <score_type>  (15) 
oracle

>  <origin>  (15) 
adg

>  <m_score__min__energy>  (15) 
-8.1300000000000008

>  <m_primary>  (15) 
energy

$$$$
15:0
     RDKit          3D

 51 54  0  0  0  0  0  0  0  0999 V2000
   -6.8560   25.0460  -29.8810 C   0  0  0  0  0  0  0  0  0  0  0  0
   -5.3700   25.2800  -30.1680 C   0  0  0  0  0  0  0  0  0  0  0  0
   -4.8580   24.4210  -31.2490 N   0  0  0  0  0  0  0  0  0  0  0  0
   -4.2580   23.1830  -30.7350 C   0  0  0  0  0  0  0  0  0  0  0  0
   -3.7530   22.3270  -31.9030 C   0  0  0  0  0  0  0  0  0  0  0  0
   -4.7130   22.2740  -33.0240 N   0  0  0  0  0  0  0  0  0  0  0  0
   -5.6540   21.1770  -32.8820 C   0  0  0  0  0  0  0  0  0  0  0  0
   -7.0110   21.4240  -32.5090 C   0  0  0  0  0  0  0  0  0  0  0  0
   -7.4910   22.7370  -32.2710 C   0  0  0  0  0  0  0  0  0  0  0  0
   -8.8250   22.9700  -31.9430 C   0  0  0  0  0  0  0  0  0  0  0  0
   -9.7160   21.9110  -31.8490 C   0  0  0  0  0  0  0  0  0  0  0  0
   -9.2780   20.6070  -32.0580 C   0  0  0  0  0  0  0  0  0  0  0  0
   -7.9230   20.3280  -32.3640 C   0  0  0  0  0  0  0  0  0  0  0  0
   -7.4870   19.0280  -32.5270 N   0  0  0  0  0  0  0  0  0  0  0  0
   -8.2860   17.9090  -31.9900 C   0  0  0  0  0  0  0  0  0  0  0  0
   -6.2400   18.8130  -33.0600 C   0  0  0  0  0  0  0  0  0  0  0  0
   -5.2970   19.8330  -33.1600 C   0  0  0  0  0  0  0  0  0  0  0  0
   -4.1180   19.2020  -33.5970 C   0  0  0  0  0  0  0  0  0  0  0  0
   -2.8000   19.6440  -33.8270 C   0  0  0  0  0  0  0  0  0  0  0  0
   -1.8430   18.7190  -34.2740 C   0  0  0  0  0  0  0  0  0  0  0  0
   -2.1890   17.3760  -34.4840 C   0  0  0  0  0  0  0  0  0  0  0  0
   -3.4960   16.9390  -34.2420 C   0  0  0  0  0  0  0  0  0  0  0  0
   -4.4420   17.8710  -33.7960 C   0  0  0  0  0  0  0  0  0  0  0  0
   -5.7390   17.6270  -33.5100 N   0  0  0  0  0  0  0  0  0  0  0  0
   -6.4550   16.3950  -33.8630 C   0  0  0  0  0  0  0  0  0  0  0  0
   -7.0198   25.0202  -28.7936 H   0  0  0  0  0  0  0  0  0  0  0  0
   -7.4475   25.8621  -30.3216 H   0  0  0  0  0  0  0  0  0  0  0  0
   -7.1681   24.0876  -30.3216 H   0  0  0  0  0  0  0  0  0  0  0  0
   -5.2288   26.3318  -30.4575 H   0  0  0  0  0  0  0  0  0  0  0  0
   -4.8117   25.0315  -29.2534 H   0  0  0  0  0  0  0  0  0  0  0  0
   -5.6460   24.1760  -31.8930 H   0  0  0  0  0  0  0  0  0  0  0  0
   -3.4150   23.4327  -30.0740 H   0  0  0  0  0  0  0  0  0  0  0  0
   -5.0158   22.6185  -30.1718 H   0  0  0  0  0  0  0  0  0  0  0  0
   -2.8071   22.7529  -32.2689 H   0  0  0  0  0  0  0  0  0  0  0  0
   -3.6183   21.3008  -31.5305 H   0  0  0  0  0  0  0  0  0  0  0  0
   -4.2280   22.2590  -33.9370 H   0  0  0  0  0  0  0  0  0  0  0  0
   -5.2360   23.1760  -33.0710 H   0  0  0  0  0  0  0  0  0  0  0  0
   -6.7973   23.5873  -32.3467 H   0  0  0  0  0  0  0  0  0  0  0  0
   -9.1727   23.9971  -31.7580 H   0  0  0  0  0  0  0  0  0  0  0  0
  -10.7721   22.1027  -31.6085 H   0  0  0  0  0  0  0  0  0  0  0  0
   -9.9968   19.7776  -31.9843 H   0  0  0  0  0  0  0  0  0  0  0  0
   -8.2652   17.9381  -30.8906 H   0  0  0  0  0  0  0  0  0  0  0  0
   -9.3250   17.9994  -32.3396 H   0  0  0  0  0  0  0  0  0  0  0  0
   -7.8632   16.9556  -32.3396 H   0  0  0  0  0  0  0  0  0  0  0  0
   -2.5255   20.6959  -33.6592 H   0  0  0  0  0  0  0  0  0  0  0  0
   -0.8112   19.0510  -34.4615 H   0  0  0  0  0  0  0  0  0  0  0  0
   -1.4301   16.6638  -34.8402 H   0  0  0  0  0  0  0  0  0  0  0  0
   -3.7746   15.8865  -34.3986 H   0  0  0  0  0  0  0  0  0  0  0  0
   -6.7591   15.8717  -32.9445 H   0  0  0  0  0  0  0  0  0  0  0  0
   -7.3477   16.6464  -34.4545 H   0  0  0  0  0  0  0  0  0  0  0  0
   -5.7947   15.7438  -34.4545 H   0  0  0  0  0  0  0  0  0  0  0  0
  1  2  1  0
  2  3  1  0
  3  4  1  0
  4  5  1  0
  5  6  1  0
  6  7  1  0
  7  8  2  0
  8  9  1  0
  9 10  2  0
 10 11  1  0
 11 12  2  0
 12 13  1  0
 13 14  2  0
 14 15  1  0
 14 16  1  0
 16 17  2  0
 17 18  1  0
 18 19  2  0
 19 20  1  0
 20 21  2  0
 21 22  1  0
 22 23  2  0
 23 24  1  0
 24 25  1  0
 17  7  1  0
 23 18  1  0
 13  8  1  0
 24 16  1  0
  1 26  1  0
  1 27  1  0
  1 28  1  0
  2 29  1  0
  2 30  1  0
  3 31  1  0
  4 32  1  0
  4 33  1  0
  5 34  1  0
  5 35  1  0
  6 36  1  0
  6 37  1  0
  9 38  1  0
 10 39  1  0
 11 40  1  0
 12 41  1  0
 15 42  1  0
 15 43  1  0
 15 44  1  0
 19 45  1  0
 20 46  1  0
 21 47  1  0
 22 48  1  0
 25 49  1  0
 25 50  1  0
 25 51  1  0
M  CHG  2   6   1  14   1
M  END
>  <UniqueID>  (16) 
15

>  <SMILES>  (16) 
CCNCC[NH2+]c1c2ccccc2[n+](C)c2c1c1ccccc1n2C

>  <Energy>  (16) 
121.73307202955179

>  <Genealogy>  (16) 
CCNCC[NH2+]c1c2ccccc2[n+](C)c2c1c1ccccc1n2C (protonated)
CCNCC[NH2+]c1c2ccccc2[n+](C)c2c1c1ccccc1n2C (3D coordinates assigned)
CCNCC[NH2+]c1c2ccccc2[n+](C)c2c1c1ccccc1n2C (optimized conformer: 121.73307202955179 kcal/mol)

>  <smiles>  (16) 
CCNCCNc1c2ccccc2[n+](C)c2c1c1ccccc1n2C

>  <score_type>  (16) 
oracle

>  <origin>  (16) 
adg

>  <m_score__min__energy>  (16) 
-8.9000000000000004

>  <m_primary>  (16) 
energy

$$$$
16:0
     RDKit          3D

 38 39  0  0  0  0  0  0  0  0999 V2000
   -2.3540   21.1740  -33.4280 C   0  0  0  0  0  0  0  0  0  0  0  0
   -3.7250   20.6080  -33.0790 C   0  0  0  0  0  0  0  0  0  0  0  0
   -4.6760   21.6590  -32.9080 O   0  0  0  0  0  0  0  0  0  0  0  0
   -6.0270   21.4990  -32.5480 C   0  0  0  0  0  0  0  0  0  0  0  0
   -6.7410   20.3170  -32.8280 C   0  0  0  0  0  0  0  0  0  0  0  0
   -8.0780   20.1920  -32.4460 C   0  0  0  0  0  0  0  0  0  0  0  0
   -8.7190   21.2390  -31.7870 C   0  0  0  0  0  0  0  0  0  0  0  0
   -8.0260   22.4180  -31.5070 C   0  0  0  0  0  0  0  0  0  0  0  0
   -6.6760   22.5590  -31.8810 C   0  0  0  0  0  0  0  0  0  0  0  0
   -5.9520   23.7730  -31.5970 N   0  0  0  0  0  0  0  0  0  0  0  0
   -6.4630   24.8600  -30.7610 C   0  0  0  0  0  0  0  0  0  0  0  0
   -5.3640   25.8870  -30.4520 C   0  0  0  0  0  0  0  0  0  0  0  0
   -4.0640   25.3010  -30.5480 O   0  0  0  0  0  0  0  0  0  0  0  0
   -3.6380   24.1420  -29.8840 C   0  0  0  0  0  0  0  0  0  0  0  0
   -3.9880   23.9870  -28.5370 C   0  0  0  0  0  0  0  0  0  0  0  0
   -3.5970   22.8470  -27.8280 C   0  0  0  0  0  0  0  0  0  0  0  0
   -2.8440   21.8540  -28.4600 C   0  0  0  0  0  0  0  0  0  0  0  0
   -2.4810   22.0010  -29.8010 C   0  0  0  0  0  0  0  0  0  0  0  0
   -2.8720   23.1400  -30.5140 C   0  0  0  0  0  0  0  0  0  0  0  0
   -1.8045   21.4008  -32.5025 H   0  0  0  0  0  0  0  0  0  0  0  0
   -1.7911   20.4347  -34.0167 H   0  0  0  0  0  0  0  0  0  0  0  0
   -2.4766   22.0951  -34.0167 H   0  0  0  0  0  0  0  0  0  0  0  0
   -4.0601   19.9464  -33.8915 H   0  0  0  0  0  0  0  0  0  0  0  0
   -3.6461   20.0456  -32.1370 H   0  0  0  0  0  0  0  0  0  0  0  0
   -6.2420   19.4877  -33.3507 H   0  0  0  0  0  0  0  0  0  0  0  0
   -8.6269   19.2644  -32.6659 H   0  0  0  0  0  0  0  0  0  0  0  0
   -9.7723   21.1364  -31.4870 H   0  0  0  0  0  0  0  0  0  0  0  0
   -8.5384   23.2429  -30.9904 H   0  0  0  0  0  0  0  0  0  0  0  0
   -4.9650   23.8600  -31.9290 H   0  0  0  0  0  0  0  0  0  0  0  0
   -7.2857   25.3632  -31.2901 H   0  0  0  0  0  0  0  0  0  0  0  0
   -6.8167   24.4321  -29.8113 H   0  0  0  0  0  0  0  0  0  0  0  0
   -5.4369   26.7169  -31.1703 H   0  0  0  0  0  0  0  0  0  0  0  0
   -5.5065   26.2492  -29.4232 H   0  0  0  0  0  0  0  0  0  0  0  0
   -4.5753   24.7684  -28.0326 H   0  0  0  0  0  0  0  0  0  0  0  0
   -3.8824   22.7318  -26.7719 H   0  0  0  0  0  0  0  0  0  0  0  0
   -2.5372   20.9571  -27.9020 H   0  0  0  0  0  0  0  0  0  0  0  0
   -1.8866   21.2199  -30.2975 H   0  0  0  0  0  0  0  0  0  0  0  0
   -2.5809   23.2538  -31.5687 H   0  0  0  0  0  0  0  0  0  0  0  0
  1  2  1  0
  2  3  1  0
  3  4  1  0
  4  5  2  0
  5  6  1  0
  6  7  2  0
  7  8  1  0
  8  9  2  0
  9 10  1  0
 10 11  1  0
 11 12  1  0
 12 13  1  0
 13 14  1  0
 14 15  2  0
 15 16  1  0
 16 17  2  0
 17 18  1  0
 18 19  2  0
  9  4  1  0
 19 14  1  0
  1 20  1  0
  1 21  1  0
  1 22  1  0
  2 23  1  0
  2 24  1  0
  5 25  1  0
  6 26  1  0
  7 27  1  0
  8 28  1  0
 10 29  1  0
 11 30  1  0
 11 31  1  0
 12 32  1  0
 12 33  1  0
 15 34  1  0
 16 35  1  0
 17 36  1  0
 18 37  1  0
 19 38  1  0
M  END
>  <UniqueID>  (17) 
16

>  <SMILES>  (17) 
CCOc1ccccc1NCCOc1ccccc1

>  <Energy>  (17) 
34.978678943328845

>  <Genealogy>  (17) 
CCOc1ccccc1NCCOc1ccccc1 (3D coordinates assigned)
CCOc1ccccc1NCCOc1ccccc1 (optimized conformer: 34.978678943328845 kcal/mol)

>  <smiles>  (17) 
CCOc1ccccc1NCCOc1ccccc1

>  <score_type>  (17) 
oracle

>  <origin>  (17) 
adg

>  <m_score__min__energy>  (17) 
-6.3499999999999996

>  <m_primary>  (17) 
energy

$$$$
17:0
     RDKit          3D

 49 52  0  0  0  0  0  0  0  0999 V2000
   -4.2620   21.2580  -33.0400 C   0  0  0  0  0  0  0  0  0  0  0  0
   -5.5250   21.8610  -32.7800 O   0  0  0  0  0  0  0  0  0  0  0  0
   -6.7120   21.1530  -32.5270 C   0  0  0  0  0  0  0  0  0  0  0  0
   -6.7960   19.7590  -32.7210 C   0  0  0  0  0  0  0  0  0  0  0  0
   -7.9930   19.0820  -32.4840 C   0  0  0  0  0  0  0  0  0  0  0  0
   -9.1220   19.7840  -32.0630 C   0  0  0  0  0  0  0  0  0  0  0  0
   -9.0530   21.1640  -31.8640 C   0  0  0  0  0  0  0  0  0  0  0  0
   -7.8470   21.8570  -32.0680 C   0  0  0  0  0  0  0  0  0  0  0  0
   -7.8050   23.3550  -31.8480 C   0  0  0  0  0  0  0  0  0  0  0  0
   -7.1960   23.7580  -30.5610 N   0  0  0  0  0  0  0  0  0  0  0  0
   -6.4700   25.0410  -30.5310 C   0  0  0  0  0  0  0  0  0  0  0  0
   -4.9610   24.8760  -30.7410 C   0  0  0  0  0  0  0  0  0  0  0  0
   -4.4320   23.8150  -29.8800 N   0  0  0  0  0  0  0  0  0  0  0  0
   -3.0950   23.9000  -29.3430 C   0  0  0  0  0  0  0  0  0  0  0  0
   -2.7650   24.6870  -28.2940 N   0  0  0  0  0  0  0  0  0  0  0  0
   -1.4450   24.6000  -27.9670 C   0  0  0  0  0  0  0  0  0  0  0  0
   -0.8740   25.3910  -26.8450 C   0  0  0  0  0  0  0  0  0  0  0  0
    0.4530   25.8570  -26.9230 C   0  0  0  0  0  0  0  0  0  0  0  0
    1.0080   26.6040  -25.8790 C   0  0  0  0  0  0  0  0  0  0  0  0
    0.2470   26.9000  -24.7460 C   0  0  0  0  0  0  0  0  0  0  0  0
    1.0060   27.9220  -23.3230 Br  0  0  0  0  0  0  0  0  0  0  0  0
   -1.0730   26.4510  -24.6580 C   0  0  0  0  0  0  0  0  0  0  0  0
   -1.6330   25.7030  -25.6990 C   0  0  0  0  0  0  0  0  0  0  0  0
   -0.7070   23.7290  -28.7750 C   0  0  0  0  0  0  0  0  0  0  0  0
   -1.7510   23.0630  -29.9130 S   0  0  0  0  0  0  0  0  0  0  0  0
   -5.1140   22.5180  -29.9180 C   0  0  0  0  0  0  0  0  0  0  0  0
   -6.6250   22.6900  -29.7200 C   0  0  0  0  0  0  0  0  0  0  0  0
   -3.7657   21.0211  -32.0873 H   0  0  0  0  0  0  0  0  0  0  0  0
   -4.4091   20.3330  -33.6168 H   0  0  0  0  0  0  0  0  0  0  0  0
   -3.6352   21.9540  -33.6168 H   0  0  0  0  0  0  0  0  0  0  0  0
   -5.9114   19.2010  -33.0617 H   0  0  0  0  0  0  0  0  0  0  0  0
   -8.0461   17.9930  -32.6295 H   0  0  0  0  0  0  0  0  0  0  0  0
  -10.0675   19.2500  -31.8876 H   0  0  0  0  0  0  0  0  0  0  0  0
   -9.9504   21.7141  -31.5447 H   0  0  0  0  0  0  0  0  0  0  0  0
   -7.2219   23.8080  -32.6633 H   0  0  0  0  0  0  0  0  0  0  0  0
   -8.8483   23.7030  -31.8289 H   0  0  0  0  0  0  0  0  0  0  0  0
   -6.8668   25.6878  -31.3274 H   0  0  0  0  0  0  0  0  0  0  0  0
   -6.6188   25.4819  -29.5343 H   0  0  0  0  0  0  0  0  0  0  0  0
   -4.7688   24.6172  -31.7927 H   0  0  0  0  0  0  0  0  0  0  0  0
   -4.4623   25.8221  -30.4839 H   0  0  0  0  0  0  0  0  0  0  0  0
    1.0584   25.6313  -27.8133 H   0  0  0  0  0  0  0  0  0  0  0  0
    2.0466   26.9593  -25.9504 H   0  0  0  0  0  0  0  0  0  0  0  0
   -1.6739   26.6864  -23.7672 H   0  0  0  0  0  0  0  0  0  0  0  0
   -2.6739   25.3556  -25.6226 H   0  0  0  0  0  0  0  0  0  0  0  0
    0.3683   23.5167  -28.6824 H   0  0  0  0  0  0  0  0  0  0  0  0
   -4.9300   22.0425  -30.8927 H   0  0  0  0  0  0  0  0  0  0  0  0
   -4.7216   21.8898  -29.1047 H   0  0  0  0  0  0  0  0  0  0  0  0
   -7.1222   21.7416  -29.9716 H   0  0  0  0  0  0  0  0  0  0  0  0
   -6.7902   22.9729  -28.6699 H   0  0  0  0  0  0  0  0  0  0  0  0
  1  2  1  0
  2  3  1  0
  3  4  2  0
  4  5  1  0
  5  6  2  0
  6  7  1  0
  7  8  2  0
  8  9  1  0
  9 10  1  0
 10 11  1  0
 11 12  1  0
 12 13  1  0
 13 14  1  0
 14 15  2  0
 15 16  1  0
 16 17  1  0
 17 18  2  0
 18 19  1  0
 19 20  2  0
 20 21  1  0
 20 22  1  0
 22 23  2  0
 16 24  2  0
 24 25  1  0
 13 26  1  0
 26 27  1  0
  8  3  1  0
 27 10  1  0
 25 14  1  0
 23 17  1  0
  1 28  1  0
  1 29  1  0
  1 30  1  0
  4 31  1  0
  5 32  1  0
  6 33  1  0
  7 34  1  0
  9 35  1  0
  9 36  1  0
 11 37  1  0
 11 38  1  0
 12 39  1  0
 12 40  1  0
 18 41  1  0
 19 42  1  0
 22 43  1  0
 23 44  1  0
 24 45  1  0
 26 46  1  0
 26 47  1  0
 27 48  1  0
 27 49  1  0
M  END
>  <UniqueID>  (18) 
17

>  <SMILES>  (18) 
COc1ccccc1CN1CCN(c2nc(-c3ccc(Br)cc3)cs2)CC1

>  <Energy>  (18) 
93.44007775575716

>  <Genealogy>  (18) 
COc1ccccc1CN1CCN(c2nc(-c3ccc(Br)cc3)cs2)CC1 (3D coordinates assigned)
COc1ccccc1CN1CCN(c2nc(-c3ccc(Br)cc3)cs2)CC1 (nonaromatic ring conformer: 93.44007775575716 kcal/mol)

>  <smiles>  (18) 
COc1ccccc1CN1CCN(c2nc(-c3ccc(Br)cc3)cs2)CC1

>  <score_type>  (18) 
oracle

>  <origin>  (18) 
adg

>  <m_score__min__energy>  (18) 
-9.2100000000000009

>  <m_primary>  (18) 
energy

$$$$
18:0
     RDKit          3D

 42 42  0  0  0  0  0  0  0  0999 V2000
   -3.6120   21.1140  -33.2290 C   0  0  0  0  0  0  0  0  0  0  0  0
   -4.0100   21.2010  -31.7570 C   0  0  0  0  0  0  0  0  0  0  0  0
   -3.6820   22.5270  -31.2110 N   0  0  0  0  0  0  0  0  0  0  0  0
   -2.4020   22.5090  -30.4870 C   0  0  0  0  0  0  0  0  0  0  0  0
   -2.2520   23.7950  -29.6690 C   0  0  0  0  0  0  0  0  0  0  0  0
   -3.6120   24.3970  -29.3040 C   0  0  0  0  0  0  0  0  0  0  0  0
   -4.1910   24.9470  -30.4710 O   0  0  0  0  0  0  0  0  0  0  0  0
   -5.4500   25.5330  -30.1900 C   0  0  0  0  0  0  0  0  0  0  0  0
   -6.5920   24.5600  -30.5280 C   0  0  0  0  0  0  0  0  0  0  0  0
   -6.1270   23.4780  -31.4160 N   0  0  0  0  0  0  0  0  0  0  0  0
   -7.1790   23.0180  -32.3420 C   0  0  0  0  0  0  0  0  0  0  0  0
   -8.2110   22.1060  -31.6560 C   0  0  0  0  0  0  0  0  0  0  0  0
   -7.9960   20.6750  -32.0640 C   0  0  0  0  0  0  0  0  0  0  0  0
   -8.7220   19.6010  -31.5240 C   0  0  0  0  0  0  0  0  0  0  0  0
   -8.3110   18.3590  -31.9890 C   0  0  0  0  0  0  0  0  0  0  0  0
   -7.0400   18.6040  -33.0610 S   0  0  0  0  0  0  0  0  0  0  0  0
   -6.9980   20.2830  -32.9480 C   0  0  0  0  0  0  0  0  0  0  0  0
   -2.5400   20.8797  -33.3057 H   0  0  0  0  0  0  0  0  0  0  0  0
   -4.1965   20.3224  -33.7207 H   0  0  0  0  0  0  0  0  0  0  0  0
   -3.8129   22.0773  -33.7207 H   0  0  0  0  0  0  0  0  0  0  0  0
   -5.0925   21.0292  -31.6641 H   0  0  0  0  0  0  0  0  0  0  0  0
   -3.4545   20.4372  -31.1930 H   0  0  0  0  0  0  0  0  0  0  0  0
   -4.4290   22.7750  -30.5180 H   0  0  0  0  0  0  0  0  0  0  0  0
   -2.3764   21.6412  -29.8115 H   0  0  0  0  0  0  0  0  0  0  0  0
   -1.5760   22.4395  -31.2102 H   0  0  0  0  0  0  0  0  0  0  0  0
   -1.7035   23.5665  -28.7433 H   0  0  0  0  0  0  0  0  0  0  0  0
   -1.7059   24.5283  -30.2806 H   0  0  0  0  0  0  0  0  0  0  0  0
   -4.2680   23.6120  -28.8997 H   0  0  0  0  0  0  0  0  0  0  0  0
   -3.4833   25.1812  -28.5435 H   0  0  0  0  0  0  0  0  0  0  0  0
   -5.4984   25.7888  -29.1213 H   0  0  0  0  0  0  0  0  0  0  0  0
   -5.5634   26.4377  -30.8054 H   0  0  0  0  0  0  0  0  0  0  0  0
   -6.9752   24.1192  -29.5959 H   0  0  0  0  0  0  0  0  0  0  0  0
   -7.3839   25.1199  -31.0471 H   0  0  0  0  0  0  0  0  0  0  0  0
   -5.8500   22.6510  -30.8380 H   0  0  0  0  0  0  0  0  0  0  0  0
   -5.2910   23.7980  -31.9580 H   0  0  0  0  0  0  0  0  0  0  0  0
   -7.7003   23.8973  -32.7483 H   0  0  0  0  0  0  0  0  0  0  0  0
   -6.6923   22.4332  -33.1364 H   0  0  0  0  0  0  0  0  0  0  0  0
   -8.1028   22.1923  -30.5647 H   0  0  0  0  0  0  0  0  0  0  0  0
   -9.2213   22.4168  -31.9604 H   0  0  0  0  0  0  0  0  0  0  0  0
   -9.5399   19.7316  -30.8002 H   0  0  0  0  0  0  0  0  0  0  0  0
   -8.7410   17.3869  -31.7059 H   0  0  0  0  0  0  0  0  0  0  0  0
   -6.3041   20.9510  -33.4793 H   0  0  0  0  0  0  0  0  0  0  0  0
  1  2  1  0
  2  3  1  0
  3  4  1  0
  4  5  1  0
  5  6  1  0
  6  7  1  0
  7  8  1  0
  8  9  1  0
  9 10  1  0
 10 11  1  0
 11 12  1  0
 12 13  1  0
 13 14  1  0
 14 15  2  0
 15 16  1  0
 16 17  1  0
 17 13  2  0
  1 18  1  0
  1 19  1  0
  1 20  1  0
  2 21  1  0
  2 22  1  0
  3 23  1  0
  4 24  1  0
  4 25  1  0
  5 26  1  0
  5 27  1  0
  6 28  1  0
  6 29  1  0
  8 30  1  0
  8 31  1  0
  9 32  1  0
  9 33  1  0
 10 34  1  0
 10 35  1  0
 11 36  1  0
 11 37  1  0
 12 38  1  0
 12 39  1  0
 14 40  1  0
 15 41  1  0
 17 42  1  0
M  CHG  1  10   1
M  END
>  <UniqueID>  (19) 
18

>  <SMILES>  (19) 
CCNCCCOCC[NH2+]CCc1ccsc1

>  <Energy>  (19) 
55.98535606104121

>  <Genealogy>  (19) 
CCNCCCOCC[NH2+]CCc1ccsc1 (protonated)
CCNCCCOCC[NH2+]CCc1ccsc1 (3D coordinates assigned)
CCNCCCOCC[NH2+]CCc1ccsc1 (optimized conformer: 55.98535606104121 kcal/mol)

>  <smiles>  (19) 
CCNCCCOCCNCCc1ccsc1

>  <score_type>  (19) 
oracle

>  <origin>  (19) 
adg

>  <m_score__min__energy>  (19) 
-5.5

>  <m_primary>  (19) 
energy

$$$$
19:0
     RDKit          3D

 43 45  0  0  0  0  0  0  0  0999 V2000
   -5.3770   15.6680  -33.3840 C   0  0  0  0  0  0  0  0  0  0  0  0
   -5.6960   17.0880  -33.1830 N   0  0  0  0  0  0  0  0  0  0  0  0
   -5.1410   17.9060  -34.2890 C   0  0  0  0  0  0  0  0  0  0  0  0
   -5.8220   19.2840  -34.4180 C   0  0  0  0  0  0  0  0  0  0  0  0
   -6.4910   19.6540  -33.1650 N   0  0  0  0  0  0  0  0  0  0  0  0
   -6.2290   20.9220  -32.5350 C   0  0  0  0  0  0  0  0  0  0  0  0
   -4.9080   21.3730  -32.3210 C   0  0  0  0  0  0  0  0  0  0  0  0
   -4.6400   22.6200  -31.6860 C   0  0  0  0  0  0  0  0  0  0  0  0
   -3.2690   23.0640  -31.5690 N   0  0  0  0  0  0  0  0  0  0  0  0
   -2.6850   22.5830  -30.3070 C   0  0  0  0  0  0  0  0  0  0  0  0
   -2.9980   23.5260  -29.1310 C   0  0  0  0  0  0  0  0  0  0  0  0
   -3.0840   24.9270  -29.5430 N   0  0  0  0  0  0  0  0  0  0  0  0
   -5.7360   23.4400  -31.2660 C   0  0  0  0  0  0  0  0  0  0  0  0
   -5.5570   24.7260  -30.6520 N   0  0  0  0  0  0  0  0  0  0  0  0
   -6.2830   25.0830  -29.7030 O   0  0  0  0  0  0  0  0  0  0  0  0
   -4.7350   25.6560  -31.2440 O   0  0  0  0  0  0  0  0  0  0  0  0
   -7.0230   22.9530  -31.5090 C   0  0  0  0  0  0  0  0  0  0  0  0
   -8.2050   23.5210  -31.2240 N   0  0  0  0  0  0  0  0  0  0  0  0
   -9.0950   22.6630  -31.6560 O   0  0  0  0  0  0  0  0  0  0  0  0
   -8.5850   21.5850  -32.1960 N   0  0  0  0  0  0  0  0  0  0  0  0
   -7.2580   21.7570  -32.1020 C   0  0  0  0  0  0  0  0  0  0  0  0
   -7.4280   18.7020  -32.5530 C   0  0  0  0  0  0  0  0  0  0  0  0
   -7.1510   17.2780  -33.0480 C   0  0  0  0  0  0  0  0  0  0  0  0
   -5.2663   15.1752  -32.4068 H   0  0  0  0  0  0  0  0  0  0  0  0
   -6.1892   15.1860  -33.9478 H   0  0  0  0  0  0  0  0  0  0  0  0
   -4.4366   15.5797  -33.9478 H   0  0  0  0  0  0  0  0  0  0  0  0
   -4.0674   18.0610  -34.1061 H   0  0  0  0  0  0  0  0  0  0  0  0
   -5.3224   17.3596  -35.2263 H   0  0  0  0  0  0  0  0  0  0  0  0
   -5.0611   20.0413  -34.6578 H   0  0  0  0  0  0  0  0  0  0  0  0
   -6.5753   19.2316  -35.2178 H   0  0  0  0  0  0  0  0  0  0  0  0
   -4.0663   20.7470  -32.6523 H   0  0  0  0  0  0  0  0  0  0  0  0
   -2.7130   22.7320  -32.3860 H   0  0  0  0  0  0  0  0  0  0  0  0
   -3.2330   24.1110  -31.5880 H   0  0  0  0  0  0  0  0  0  0  0  0
   -3.0949   21.5872  -30.0827 H   0  0  0  0  0  0  0  0  0  0  0  0
   -1.5926   22.5447  -30.4307 H   0  0  0  0  0  0  0  0  0  0  0  0
   -3.9598   23.2292  -28.6874 H   0  0  0  0  0  0  0  0  0  0  0  0
   -2.1746   23.4409  -28.4065 H   0  0  0  0  0  0  0  0  0  0  0  0
   -2.9280   24.9970  -30.5750 H   0  0  0  0  0  0  0  0  0  0  0  0
   -4.0410   25.2900  -29.3320 H   0  0  0  0  0  0  0  0  0  0  0  0
   -7.3125   18.7334  -31.4595 H   0  0  0  0  0  0  0  0  0  0  0  0
   -8.4534   18.9824  -32.8357 H   0  0  0  0  0  0  0  0  0  0  0  0
   -7.5515   16.5524  -32.3248 H   0  0  0  0  0  0  0  0  0  0  0  0
   -7.6365   17.1240  -34.0230 H   0  0  0  0  0  0  0  0  0  0  0  0
  1  2  1  0
  2  3  1  0
  3  4  1  0
  4  5  1  0
  5  6  1  0
  6  7  2  0
  7  8  1  0
  8  9  1  0
  9 10  1  0
 10 11  1  0
 11 12  1  0
  8 13  2  0
 13 14  1  0
 14 15  2  0
 14 16  1  0
 13 17  1  0
 17 18  2  0
 18 19  1  0
 19 20  1  0
 20 21  2  0
  5 22  1  0
 22 23  1  0
 23  2  1  0
 21  6  1  0
 21 17  1  0
  1 24  1  0
  1 25  1  0
  1 26  1  0
  3 27  1  0
  3 28  1  0
  4 29  1  0
  4 30  1  0
  7 31  1  0
  9 32  1  0
  9 33  1  0
 10 34  1  0
 10 35  1  0
 11 36  1  0
 11 37  1  0
 12 38  1  0
 12 39  1  0
 22 40  1  0
 22 41  1  0
 23 42  1  0
 23 43  1  0
M  CHG  3   9   1  14   1  16  -1
M  END
>  <UniqueID>  (20) 
19

>  <SMILES>  (20) 
CN1CCN(c2cc([NH2+]CCN)c([N+](=O)[O-])c3nonc23)CC1

>  <Energy>  (20) 
101.08138417723619

>  <Genealogy>  (20) 
CN1CCN(c2cc([NH2+]CCN)c([N+](=O)[O-])c3nonc23)CC1 (protonated)
CN1CCN(c2cc([NH2+]CCN)c([N+](=O)[O-])c3nonc23)CC1 (3D coordinates assigned)
CN1CCN(c2cc([NH2+]CCN)c([N+](=O)[O-])c3nonc23)CC1 (nonaromatic ring conformer: 101.08138417723619 kcal/mol)

>  <smiles>  (20) 
CN1CCN(c2cc(NCCN)c([N+](=O)[O-])c3nonc23)CC1

>  <score_type>  (20) 
oracle

>  <origin>  (20) 
adg

>  <m_score__min__energy>  (20) 
-7.3200000000000003

>  <m_primary>  (20) 
energy

$$$$
20:0
     RDKit          3D

 53 55  0  0  0  0  0  0  0  0999 V2000
   -4.8287   26.1344  -29.8775 H   0  0  0  0  0  0  0  0  0  0  0  0
   -4.7300   25.0850  -30.1920 C   0  0  0  0  0  0  0  0  0  0  0  0
   -5.3500   24.7130  -31.2770 N   0  0  0  0  0  0  0  0  0  0  0  0
   -5.5970   23.3700  -31.7240 C   0  0  0  0  0  0  0  0  0  0  0  0
   -6.8730   22.7880  -31.6400 C   0  0  0  0  0  0  0  0  0  0  0  0
   -7.7147   23.3715  -31.2387 H   0  0  0  0  0  0  0  0  0  0  0  0
   -7.0790   21.4730  -32.0630 C   0  0  0  0  0  0  0  0  0  0  0  0
   -8.0868   21.0350  -32.0131 H   0  0  0  0  0  0  0  0  0  0  0  0
   -6.0080   20.7050  -32.5520 C   0  0  0  0  0  0  0  0  0  0  0  0
   -6.2270   19.3080  -33.0070 C   0  0  0  0  0  0  0  0  0  0  0  0
   -5.6460   18.8450  -34.2010 C   0  0  0  0  0  0  0  0  0  0  0  0
   -5.0224   19.5217  -34.8036 H   0  0  0  0  0  0  0  0  0  0  0  0
   -5.8560   17.5300  -34.6270 C   0  0  0  0  0  0  0  0  0  0  0  0
   -5.3992   17.1773  -35.5635 H   0  0  0  0  0  0  0  0  0  0  0  0
   -6.6450   16.6620  -33.8660 C   0  0  0  0  0  0  0  0  0  0  0  0
   -6.9180   14.9780  -34.4210 S   0  0  0  0  0  0  0  0  0  0  0  0
   -5.3250   14.3780  -33.7780 C   0  0  0  0  0  0  0  0  0  0  0  0
   -5.3470   14.3863  -32.6783 H   0  0  0  0  0  0  0  0  0  0  0  0
   -5.1491   13.3520  -34.1335 H   0  0  0  0  0  0  0  0  0  0  0  0
   -4.5160   15.0330  -34.1335 H   0  0  0  0  0  0  0  0  0  0  0  0
   -7.2310   17.1140  -32.6810 C   0  0  0  0  0  0  0  0  0  0  0  0
   -7.8581   16.4343  -32.0854 H   0  0  0  0  0  0  0  0  0  0  0  0
   -7.0230   18.4270  -32.2500 C   0  0  0  0  0  0  0  0  0  0  0  0
   -7.4839   18.7744  -31.3136 H   0  0  0  0  0  0  0  0  0  0  0  0
   -4.7250   21.2790  -32.5960 C   0  0  0  0  0  0  0  0  0  0  0  0
   -3.8744   20.6864  -32.9638 H   0  0  0  0  0  0  0  0  0  0  0  0
   -4.5220   22.5970  -32.1760 C   0  0  0  0  0  0  0  0  0  0  0  0
   -3.5107   23.0290  -32.2011 H   0  0  0  0  0  0  0  0  0  0  0  0
   -3.9020   24.1870  -29.3560 C   0  0  0  0  0  0  0  0  0  0  0  0
   -2.5020   24.2950  -29.3300 C   0  0  0  0  0  0  0  0  0  0  0  0
   -2.0016   25.0656  -29.9348 H   0  0  0  0  0  0  0  0  0  0  0  0
   -1.7410   23.4290  -28.5400 C   0  0  0  0  0  0  0  0  0  0  0  0
   -0.6463   23.5328  -28.5126 H   0  0  0  0  0  0  0  0  0  0  0  0
   -2.3670   22.4270  -27.7810 C   0  0  0  0  0  0  0  0  0  0  0  0
   -1.5840   21.5440  -26.9550 N   0  0  0  0  0  0  0  0  0  0  0  0
   -0.8610   22.0800  -25.7940 C   0  0  0  0  0  0  0  0  0  0  0  0
   -0.6583   21.2636  -25.0852 H   0  0  0  0  0  0  0  0  0  0  0  0
   -1.4801   22.8528  -25.3150 H   0  0  0  0  0  0  0  0  0  0  0  0
    0.4600   22.7060  -26.2300 C   0  0  0  0  0  0  0  0  0  0  0  0
    1.0454   22.9834  -25.3410 H   0  0  0  0  0  0  0  0  0  0  0  0
    1.0282   21.9814  -26.8317 H   0  0  0  0  0  0  0  0  0  0  0  0
    0.2590   23.6046  -26.8317 H   0  0  0  0  0  0  0  0  0  0  0  0
   -1.5110   20.1120  -27.2810 C   0  0  0  0  0  0  0  0  0  0  0  0
   -1.8198   19.9628  -28.3262 H   0  0  0  0  0  0  0  0  0  0  0  0
   -0.4762   19.7675  -27.1376 H   0  0  0  0  0  0  0  0  0  0  0  0
   -2.4290   19.3070  -26.3670 C   0  0  0  0  0  0  0  0  0  0  0  0
   -2.1824   19.5232  -25.3170 H   0  0  0  0  0  0  0  0  0  0  0  0
   -3.4755   19.5839  -26.5624 H   0  0  0  0  0  0  0  0  0  0  0  0
   -2.2912   18.2333  -26.5624 H   0  0  0  0  0  0  0  0  0  0  0  0
   -3.7640   22.2970  -27.8370 C   0  0  0  0  0  0  0  0  0  0  0  0
   -4.2633   21.5073  -27.2564 H   0  0  0  0  0  0  0  0  0  0  0  0
   -4.5240   23.1650  -28.6260 C   0  0  0  0  0  0  0  0  0  0  0  0
   -5.6164   23.0453  -28.6743 H   0  0  0  0  0  0  0  0  0  0  0  0
  1  2  1  0
  2  3  2  0
  3  4  1  0
  4  5  2  0
  5  6  1  0
  5  7  1  0
  7  8  1  0
  7  9  2  0
  9 10  1  0
 10 11  2  0
 11 12  1  0
 11 13  1  0
 13 14  1  0
 13 15  2  0
 15 16  1  0
 16 17  1  0
 17 18  1  0
 17 19  1  0
 17 20  1  0
 15 21  1  0
 21 22  1  0
 21 23  2  0
 23 24  1  0
  9 25  1  0
 25 26  1  0
 25 27  2  0
 27 28  1  0
  2 29  1  0
 29 30  2  0
 30 31  1  0
 30 32  1  0
 32 33  1  0
 32 34  2  0
 34 35  1  0
 35 36  1  0
 36 37  1  0
 36 38  1  0
 36 39  1  0
 39 40  1  0
 39 41  1  0
 39 42  1  0
 35 43  1  0
 43 44  1  0
 43 45  1  0
 43 46  1  0
 46 47  1  0
 46 48  1  0
 46 49  1  0
 34 50  1  0
 50 51  1  0
 50 52  2  0
 52 53  1  0
 27  4  1  0
 52 29  1  0
 23 10  1  0
M  END
>  <UniqueID>  (21) 
20

>  <SMILES>  (21) 
CCN(CC)c1ccc(/C=N\c2ccc(-c3ccc(SC)cc3)cc2)cc1

>  <Energy>  (21) 
64.10617742119942

>  <Genealogy>  (21) 
CCN(CC)c1ccc(/C=N\c2ccc(-c3ccc(SC)cc3)cc2)cc1 (cis-trans isomerization)
CCN(CC)c1ccc(/C=N\c2ccc(-c3ccc(SC)cc3)cc2)cc1 (3D coordinates assigned)
CCN(CC)c1ccc(/C=N\c2ccc(-c3ccc(SC)cc3)cc2)cc1 (optimized conformer: 64.10617742119942 kcal/mol)

>  <smiles>  (21) 
CCN(CC)c1ccc(C=Nc2ccc(-c3ccc(SC)cc3)cc2)cc1

>  <score_type>  (21) 
oracle

>  <origin>  (21) 
adg

>  <m_score__min__energy>  (21) 
-8.8599999999999994

>  <m_primary>  (21) 
energy

$$$$
21:0
     RDKit          3D

 48 51  0  0  0  0  0  0  0  0999 V2000
    0.9270   24.8170  -27.4030 C   0  0  0  0  0  0  0  0  0  0  0  0
   -0.5420   24.5890  -27.6340 C   0  0  0  0  0  0  0  0  0  0  0  0
   -0.9590   23.9260  -28.7980 C   0  0  0  0  0  0  0  0  0  0  0  0
   -2.3190   23.7110  -29.0510 C   0  0  0  0  0  0  0  0  0  0  0  0
   -2.7630   23.0470  -30.3290 C   0  0  0  0  0  0  0  0  0  0  0  0
   -3.7000   23.9050  -31.0600 N   0  0  0  0  0  0  0  0  0  0  0  0
   -5.0890   23.5120  -30.7630 C   0  0  1  0  0  0  0  0  0  0  0  0
   -6.1360   24.6040  -30.9850 C   0  0  0  0  0  0  0  0  0  0  0  0
   -5.9900   23.4660  -31.9950 C   0  0  2  0  0  0  0  0  0  0  0  0
   -7.0980   22.4270  -32.0100 C   0  0  0  0  0  0  0  0  0  0  0  0
   -8.4220   22.8790  -31.8760 C   0  0  0  0  0  0  0  0  0  0  0  0
   -9.4890   21.9760  -31.8860 C   0  0  0  0  0  0  0  0  0  0  0  0
   -9.2500   20.6090  -32.0300 C   0  0  0  0  0  0  0  0  0  0  0  0
   -7.9410   20.1410  -32.1640 C   0  0  0  0  0  0  0  0  0  0  0  0
   -6.8690   21.0390  -32.1560 C   0  0  0  0  0  0  0  0  0  0  0  0
   -3.2720   24.1590  -28.1300 C   0  0  0  0  0  0  0  0  0  0  0  0
   -2.8790   24.7930  -26.9410 C   0  0  0  0  0  0  0  0  0  0  0  0
   -3.9310   25.2470  -25.9660 C   0  0  0  0  0  0  0  0  0  0  0  0
   -1.5050   25.0190  -26.6920 C   0  0  0  0  0  0  0  0  0  0  0  0
   -1.0910   25.6860  -25.4900 N   0  0  0  0  0  0  0  0  0  0  0  0
   -1.2260   26.9950  -25.2040 C   0  0  0  0  0  0  0  0  0  0  0  0
   -0.6970   27.2150  -23.9480 C   0  0  0  0  0  0  0  0  0  0  0  0
   -0.2400   26.0440  -23.4640 N   0  0  0  0  0  0  0  0  0  0  0  0
   -0.4900   25.1290  -24.4190 C   0  0  0  0  0  0  0  0  0  0  0  0
    1.1277   24.8481  -26.3219 H   0  0  0  0  0  0  0  0  0  0  0  0
    1.5015   23.9973  -27.8591 H   0  0  0  0  0  0  0  0  0  0  0  0
    1.2260   25.7723  -27.8591 H   0  0  0  0  0  0  0  0  0  0  0  0
   -0.2088   23.5711  -29.5200 H   0  0  0  0  0  0  0  0  0  0  0  0
   -1.8830   22.8535  -30.9600 H   0  0  0  0  0  0  0  0  0  0  0  0
   -3.2689   22.1026  -30.0797 H   0  0  0  0  0  0  0  0  0  0  0  0
   -3.5170   24.8950  -30.7700 H   0  0  0  0  0  0  0  0  0  0  0  0
   -4.8503   22.8291  -29.9344 H   0  0  0  0  0  0  0  0  0  0  0  0
   -7.0240   24.6546  -30.3377 H   0  0  0  0  0  0  0  0  0  0  0  0
   -6.1150   25.7023  -31.0417 H   0  0  0  0  0  0  0  0  0  0  0  0
   -5.8153   23.3986  -33.0790 H   0  0  0  0  0  0  0  0  0  0  0  0
   -8.6207   23.9549  -31.7620 H   0  0  0  0  0  0  0  0  0  0  0  0
  -10.5201   22.3443  -31.7800 H   0  0  0  0  0  0  0  0  0  0  0  0
  -10.0916   19.9007  -32.0380 H   0  0  0  0  0  0  0  0  0  0  0  0
   -7.7527   19.0631  -32.2762 H   0  0  0  0  0  0  0  0  0  0  0  0
   -5.8408   20.6633  -32.2640 H   0  0  0  0  0  0  0  0  0  0  0  0
   -4.3418   24.0127  -28.3401 H   0  0  0  0  0  0  0  0  0  0  0  0
   -3.5703   25.0913  -24.9385 H   0  0  0  0  0  0  0  0  0  0  0  0
   -4.1401   26.3154  -26.1233 H   0  0  0  0  0  0  0  0  0  0  0  0
   -4.8518   24.6662  -26.1233 H   0  0  0  0  0  0  0  0  0  0  0  0
   -1.6786   27.7558  -25.8569 H   0  0  0  0  0  0  0  0  0  0  0  0
   -0.6556   28.1842  -23.4294 H   0  0  0  0  0  0  0  0  0  0  0  0
    0.2140   25.8790  -22.5380 H   0  0  0  0  0  0  0  0  0  0  0  0
   -0.2362   24.0619  -24.3363 H   0  0  0  0  0  0  0  0  0  0  0  0
  1  2  1  0
  2  3  2  0
  3  4  1  0
  4  5  1  0
  5  6  1  0
  6  7  1  0
  7  8  1  0
  8  9  1  0
  9 10  1  0
 10 11  2  0
 11 12  1  0
 12 13  2  0
 13 14  1  0
 14 15  2  0
  4 16  2  0
 16 17  1  0
 17 18  1  0
 17 19  2  0
 19 20  1  0
 20 21  1  0
 21 22  2  0
 22 23  1  0
 23 24  2  0
 19  2  1  0
 24 20  1  0
  9  7  1  0
 15 10  1  0
  1 25  1  0
  1 26  1  0
  1 27  1  0
  3 28  1  0
  5 29  1  0
  5 30  1  0
  6 31  1  0
  7 32  1  1
  8 33  1  0
  8 34  1  0
  9 35  1  6
 11 36  1  0
 12 37  1  0
 13 38  1  0
 14 39  1  0
 15 40  1  0
 16 41  1  0
 18 42  1  0
 18 43  1  0
 18 44  1  0
 21 45  1  0
 22 46  1  0
 23 47  1  0
 24 48  1  0
M  CHG  1  23   1
M  END
>  <UniqueID>  (22) 
21

>  <SMILES>  (22) 
Cc1cc(CN[C@H]2C[C@@H]2c2ccccc2)cc(C)c1-n1cc[nH+]c1

>  <Energy>  (22) 
358.3262011426514

>  <Genealogy>  (22) 
Cc1cc(CNC2CC2c2ccccc2)cc(C)c1-n1cc[nH+]c1 (protonated)
Cc1cc(CN[C@H]2C[C@@H]2c2ccccc2)cc(C)c1-n1cc[nH+]c1 (chirality)
Cc1cc(CN[C@H]2C[C@@H]2c2ccccc2)cc(C)c1-n1cc[nH+]c1 (3D coordinates assigned)
Cc1cc(CN[C@H]2C[C@@H]2c2ccccc2)cc(C)c1-n1cc[nH+]c1 (nonaromatic ring conformer: 358.3262011426514 kcal/mol)

>  <smiles>  (22) 
Cc1cc(CNC2CC2c2ccccc2)cc(C)c1-n1ccnc1

>  <score_type>  (22) 
oracle

>  <origin>  (22) 
adg

>  <m_score__min__energy>  (22) 
-9.2300000000000004

>  <m_primary>  (22) 
energy

$$$$
22:0
     RDKit          3D

 48 50  0  0  0  0  0  0  0  0999 V2000
    0.3260   21.1820  -36.3440 C   0  0  0  0  0  0  0  0  0  0  0  0
    0.1040   21.6290  -34.8910 C   0  0  0  0  0  0  0  0  0  0  0  0
   -0.9210   20.8490  -34.1520 N   0  0  0  0  0  0  0  0  0  0  0  0
   -0.8280   19.4090  -34.4480 C   0  0  0  0  0  0  0  0  0  0  0  0
   -0.9390   21.0760  -32.6900 C   0  0  0  0  0  0  0  0  0  0  0  0
   -2.3650   21.2680  -32.1560 C   0  0  0  0  0  0  0  0  0  0  0  0
   -3.3360   21.2080  -33.2490 N   0  0  0  0  0  0  0  0  0  0  0  0
   -4.6680   20.7080  -33.0440 C   0  0  0  0  0  0  0  0  0  0  0  0
   -5.0170   19.4270  -33.5020 C   0  0  0  0  0  0  0  0  0  0  0  0
   -4.1090   18.6590  -34.2620 C   0  0  0  0  0  0  0  0  0  0  0  0
   -4.4700   17.4040  -34.7450 C   0  0  0  0  0  0  0  0  0  0  0  0
   -5.7400   16.9000  -34.4920 C   0  0  0  0  0  0  0  0  0  0  0  0
   -6.6500   17.6350  -33.7330 C   0  0  0  0  0  0  0  0  0  0  0  0
   -6.2990   18.8980  -33.1920 C   0  0  0  0  0  0  0  0  0  0  0  0
   -7.1680   19.6170  -32.3930 N   0  0  0  0  0  0  0  0  0  0  0  0
   -8.3660   18.9590  -31.8240 C   0  0  0  0  0  0  0  0  0  0  0  0
   -6.9100   20.9460  -32.1130 C   0  0  0  0  0  0  0  0  0  0  0  0
   -7.8940   21.7930  -31.5430 C   0  0  0  0  0  0  0  0  0  0  0  0
   -7.6140   23.1250  -31.2420 C   0  0  0  0  0  0  0  0  0  0  0  0
   -6.3530   23.6640  -31.5200 C   0  0  0  0  0  0  0  0  0  0  0  0
   -6.0360   25.0350  -31.2350 N   0  0  0  0  0  0  0  0  0  0  0  0
   -6.2410   25.5420  -30.1310 N   0  0  0  0  0  0  0  0  0  0  0  0
   -6.4470   26.0490  -29.0300 N   0  0  0  0  0  0  0  0  0  0  0  0
   -5.3810   22.8590  -32.1150 C   0  0  0  0  0  0  0  0  0  0  0  0
   -5.6410   21.5050  -32.4150 C   0  0  0  0  0  0  0  0  0  0  0  0
    0.8153   20.1968  -36.3539 H   0  0  0  0  0  0  0  0  0  0  0  0
   -0.6436   21.1150  -36.8592 H   0  0  0  0  0  0  0  0  0  0  0  0
    0.9652   21.9141  -36.8592 H   0  0  0  0  0  0  0  0  0  0  0  0
    1.0593   21.5351  -34.3538 H   0  0  0  0  0  0  0  0  0  0  0  0
   -0.2664   22.6637  -34.9372 H   0  0  0  0  0  0  0  0  0  0  0  0
   -0.7914   18.8426  -33.5057 H   0  0  0  0  0  0  0  0  0  0  0  0
   -1.7078   19.0967  -35.0297 H   0  0  0  0  0  0  0  0  0  0  0  0
    0.0847   19.2124  -35.0297 H   0  0  0  0  0  0  0  0  0  0  0  0
   -0.4864   20.2070  -32.1900 H   0  0  0  0  0  0  0  0  0  0  0  0
   -0.3713   21.9949  -32.4816 H   0  0  0  0  0  0  0  0  0  0  0  0
   -2.5890   20.4733  -31.4292 H   0  0  0  0  0  0  0  0  0  0  0  0
   -2.4337   22.2544  -31.6740 H   0  0  0  0  0  0  0  0  0  0  0  0
   -3.0350   21.4710  -34.2140 H   0  0  0  0  0  0  0  0  0  0  0  0
   -3.1055   19.0561  -34.4750 H   0  0  0  0  0  0  0  0  0  0  0  0
   -3.7493   16.8110  -35.3273 H   0  0  0  0  0  0  0  0  0  0  0  0
   -6.0287   15.9169  -34.8922 H   0  0  0  0  0  0  0  0  0  0  0  0
   -7.6559   17.2288  -33.5510 H   0  0  0  0  0  0  0  0  0  0  0  0
   -8.3133   18.9879  -30.7256 H   0  0  0  0  0  0  0  0  0  0  0  0
   -9.2698   19.4873  -32.1618 H   0  0  0  0  0  0  0  0  0  0  0  0
   -8.4050   17.9129  -32.1618 H   0  0  0  0  0  0  0  0  0  0  0  0
   -8.8967   21.3916  -31.3345 H   0  0  0  0  0  0  0  0  0  0  0  0
   -8.3892   23.7563  -30.7831 H   0  0  0  0  0  0  0  0  0  0  0  0
   -4.3962   23.2868  -32.3540 H   0  0  0  0  0  0  0  0  0  0  0  0
  1  2  1  0
  2  3  1  0
  3  4  1  0
  3  5  1  0
  5  6  1  0
  6  7  1  0
  7  8  1  0
  8  9  2  0
  9 10  1  0
 10 11  2  0
 11 12  1  0
 12 13  2  0
 13 14  1  0
 14 15  2  0
 15 16  1  0
 15 17  1  0
 17 18  2  0
 18 19  1  0
 19 20  2  0
 20 21  1  0
 21 22  2  0
 22 23  2  0
 20 24  1  0
 24 25  2  0
 25  8  1  0
 14  9  1  0
 25 17  1  0
  1 26  1  0
  1 27  1  0
  1 28  1  0
  2 29  1  0
  2 30  1  0
  4 31  1  0
  4 32  1  0
  4 33  1  0
  5 34  1  0
  5 35  1  0
  6 36  1  0
  6 37  1  0
  7 38  1  0
 10 39  1  0
 11 40  1  0
 12 41  1  0
 13 42  1  0
 16 43  1  0
 16 44  1  0
 16 45  1  0
 18 46  1  0
 19 47  1  0
 24 48  1  0
M  CHG  3  15   1  22   1  23  -1
M  END
>  <UniqueID>  (23) 
22

>  <SMILES>  (23) 
CCN(C)CCNc1c2ccccc2[n+](C)c2ccc(N=[N+]=[N-])cc12

>  <Energy>  (23) 
76.39411509085872

>  <Genealogy>  (23) 
CCN(C)CCNc1c2ccccc2[n+](C)c2ccc(N=[N+]=[N-])cc12 (3D coordinates assigned)
CCN(C)CCNc1c2ccccc2[n+](C)c2ccc(N=[N+]=[N-])cc12 (optimized conformer: 76.39411509085872 kcal/mol)

>  <smiles>  (23) 
CCN(C)CCNc1c2ccccc2[n+](C)c2ccc(N=[N+]=[N-])cc12

>  <score_type>  (23) 
oracle

>  <origin>  (23) 
adg

>  <m_score__min__energy>  (23) 
-8.9800000000000004

>  <m_primary>  (23) 
energy

$$$$
23:0
     RDKit          3D

 64 67  0  0  0  0  0  0  0  0999 V2000
   -2.7430   20.7870  -28.9490 C   0  0  0  0  0  0  0  0  0  0  0  0
   -2.0620   22.0910  -28.8920 N   0  0  0  0  0  0  0  0  0  0  0  0
   -1.1720   22.2770  -30.0480 C   0  0  0  0  0  0  0  0  0  0  0  0
   -3.0000   23.2200  -28.6960 C   0  0  0  0  0  0  0  0  0  0  0  0
   -2.5520   24.5410  -29.3530 C   0  0  0  0  0  0  0  0  0  0  0  0
   -3.4340   24.8860  -30.4210 O   0  0  0  0  0  0  0  0  0  0  0  0
   -4.7890   24.5190  -30.5250 C   0  0  0  0  0  0  0  0  0  0  0  0
   -5.8140   25.3060  -29.9720 C   0  0  0  0  0  0  0  0  0  0  0  0
   -7.1460   24.9180  -30.0860 C   0  0  0  0  0  0  0  0  0  0  0  0
   -7.4870   23.7410  -30.7490 C   0  0  0  0  0  0  0  0  0  0  0  0
   -6.4930   22.9150  -31.3180 C   0  0  0  0  0  0  0  0  0  0  0  0
   -5.1240   23.3210  -31.1960 C   0  0  0  0  0  0  0  0  0  0  0  0
   -4.1150   22.5150  -31.7500 C   0  0  0  0  0  0  0  0  0  0  0  0
   -4.4860   21.3470  -32.3920 C   0  0  0  0  0  0  0  0  0  0  0  0
   -5.8060   20.9710  -32.4990 C   0  0  0  0  0  0  0  0  0  0  0  0
   -6.8170   21.7370  -31.9780 N   0  0  0  0  0  0  0  0  0  0  0  0
   -8.2190   21.3030  -32.1200 C   0  0  0  0  0  0  0  0  0  0  0  0
   -5.9270   19.6560  -33.2280 C   0  0  0  0  0  0  0  0  0  0  0  0
   -4.4840   19.3430  -33.5140 C   0  0  0  0  0  0  0  0  0  0  0  0
   -3.9550   18.2260  -34.1870 C   0  0  0  0  0  0  0  0  0  0  0  0
   -4.8450   17.2010  -34.6820 N   0  0  0  0  0  0  0  0  0  0  0  0
   -5.4350   16.1180  -33.8910 C   0  0  0  0  0  0  0  0  0  0  0  0
   -4.8320   14.7530  -34.2700 C   0  0  0  0  0  0  0  0  0  0  0  0
   -3.9460   14.1970  -33.2090 N   0  0  0  0  0  0  0  0  0  0  0  0
   -4.5960   14.2500  -31.8850 C   0  0  0  0  0  0  0  0  0  0  0  0
   -2.6700   14.9360  -33.1550 C   0  0  0  0  0  0  0  0  0  0  0  0
   -2.5490   18.1660  -34.3430 C   0  0  0  0  0  0  0  0  0  0  0  0
   -1.7240   19.1920  -33.8440 C   0  0  0  0  0  0  0  0  0  0  0  0
   -2.2780   20.2920  -33.1790 C   0  0  0  0  0  0  0  0  0  0  0  0
   -3.6620   20.3400  -33.0280 C   0  0  0  0  0  0  0  0  0  0  0  0
   -2.9312   20.4266  -27.9269 H   0  0  0  0  0  0  0  0  0  0  0  0
   -3.6994   20.8958  -29.4814 H   0  0  0  0  0  0  0  0  0  0  0  0
   -2.1072   20.0643  -29.4814 H   0  0  0  0  0  0  0  0  0  0  0  0
   -0.1522   22.4901  -29.6951 H   0  0  0  0  0  0  0  0  0  0  0  0
   -1.1653   21.3608  -30.6568 H   0  0  0  0  0  0  0  0  0  0  0  0
   -1.5328   23.1191  -30.6568 H   0  0  0  0  0  0  0  0  0  0  0  0
   -3.9736   22.9365  -29.1223 H   0  0  0  0  0  0  0  0  0  0  0  0
   -3.0445   23.4071  -27.6129 H   0  0  0  0  0  0  0  0  0  0  0  0
   -2.5625   25.3428  -28.6000 H   0  0  0  0  0  0  0  0  0  0  0  0
   -1.5356   24.4149  -29.7543 H   0  0  0  0  0  0  0  0  0  0  0  0
   -5.5612   26.2374  -29.4441 H   0  0  0  0  0  0  0  0  0  0  0  0
   -7.9362   25.5461  -29.6488 H   0  0  0  0  0  0  0  0  0  0  0  0
   -8.5450   23.4512  -30.8303 H   0  0  0  0  0  0  0  0  0  0  0  0
   -3.0567   22.8055  -31.6751 H   0  0  0  0  0  0  0  0  0  0  0  0
   -8.6630   21.1655  -31.1230 H   0  0  0  0  0  0  0  0  0  0  0  0
   -8.7855   22.0678  -32.6714 H   0  0  0  0  0  0  0  0  0  0  0  0
   -8.2543   20.3519  -32.6714 H   0  0  0  0  0  0  0  0  0  0  0  0
   -6.3881   18.8848  -32.5934 H   0  0  0  0  0  0  0  0  0  0  0  0
   -6.5653   19.6945  -34.1230 H   0  0  0  0  0  0  0  0  0  0  0  0
   -5.0020   17.1380  -35.7140 H   0  0  0  0  0  0  0  0  0  0  0  0
   -5.2453   16.3094  -32.8245 H   0  0  0  0  0  0  0  0  0  0  0  0
   -6.5153   16.0883  -34.0961 H   0  0  0  0  0  0  0  0  0  0  0  0
   -5.6535   14.0437  -34.4489 H   0  0  0  0  0  0  0  0  0  0  0  0
   -4.2170   14.9017  -35.1698 H   0  0  0  0  0  0  0  0  0  0  0  0
   -3.7100   13.1980  -33.4180 H   0  0  0  0  0  0  0  0  0  0  0  0
   -3.8302   14.1876  -31.0978 H   0  0  0  0  0  0  0  0  0  0  0  0
   -5.1481   15.1961  -31.7852 H   0  0  0  0  0  0  0  0  0  0  0  0
   -5.2941   13.4058  -31.7852 H   0  0  0  0  0  0  0  0  0  0  0  0
   -2.3858   15.1006  -32.1052 H   0  0  0  0  0  0  0  0  0  0  0  0
   -1.8864   14.3519  -33.6598 H   0  0  0  0  0  0  0  0  0  0  0  0
   -2.7866   15.9064  -33.6598 H   0  0  0  0  0  0  0  0  0  0  0  0
   -2.0958   17.3075  -34.8603 H   0  0  0  0  0  0  0  0  0  0  0  0
   -0.6340   19.1285  -33.9780 H   0  0  0  0  0  0  0  0  0  0  0  0
   -1.6383   21.0962  -32.7865 H   0  0  0  0  0  0  0  0  0  0  0  0
  1  2  1  0
  2  3  1  0
  2  4  1  0
  4  5  1  0
  5  6  1  0
  6  7  1  0
  7  8  2  0
  8  9  1  0
  9 10  2  0
 10 11  1  0
 11 12  2  0
 12 13  1  0
 13 14  2  0
 14 15  1  0
 15 16  2  0
 16 17  1  0
 15 18  1  0
 18 19  1  0
 19 20  2  0
 20 21  1  0
 21 22  1  0
 22 23  1  0
 23 24  1  0
 24 25  1  0
 24 26  1  0
 20 27  1  0
 27 28  2  0
 28 29  1  0
 29 30  2  0
 12  7  1  0
 30 14  1  0
 16 11  1  0
 30 19  1  0
  1 31  1  0
  1 32  1  0
  1 33  1  0
  3 34  1  0
  3 35  1  0
  3 36  1  0
  4 37  1  0
  4 38  1  0
  5 39  1  0
  5 40  1  0
  8 41  1  0
  9 42  1  0
 10 43  1  0
 13 44  1  0
 17 45  1  0
 17 46  1  0
 17 47  1  0
 18 48  1  0
 18 49  1  0
 21 50  1  0
 22 51  1  0
 22 52  1  0
 23 53  1  0
 23 54  1  0
 24 55  1  0
 25 56  1  0
 25 57  1  0
 25 58  1  0
 26 59  1  0
 26 60  1  0
 26 61  1  0
 27 62  1  0
 28 63  1  0
 29 64  1  0
M  CHG  2  16   1  24   1
M  END
>  <UniqueID>  (24) 
23

>  <SMILES>  (24) 
CN(C)CCOc1cccc2c1cc1c([n+]2C)Cc2c(NCC[NH+](C)C)cccc2-1

>  <Energy>  (24) 
102.80916480937184

>  <Genealogy>  (24) 
CN(C)CCOc1cccc2c1cc1c([n+]2C)Cc2c(NCC[NH+](C)C)cccc2-1 (protonated)
CN(C)CCOc1cccc2c1cc1c([n+]2C)Cc2c(NCC[NH+](C)C)cccc2-1 (3D coordinates assigned)
CN(C)CCOc1cccc2c1cc1c([n+]2C)Cc2c(NCC[NH+](C)C)cccc2-1 (nonaromatic ring conformer: 102.80916480937184 kcal/mol)

>  <smiles>  (24) 
CN(C)CCNc1cccc2c1Cc1c-2cc2c(OCCN(C)C)cccc2[n+]1C

>  <score_type>  (24) 
oracle

>  <origin>  (24) 
adg

>  <m_score__min__energy>  (24) 
-7.9900000000000002

>  <m_primary>  (24) 
energy

$$$$
24:0
     RDKit          3D

 41 44  0  0  0  0  0  0  0  0999 V2000
   -6.4980   13.2670  -34.2230 C   0  0  0  0  0  0  0  0  0  0  0  0
   -7.2090   14.5660  -34.5810 C   0  0  0  0  0  0  0  0  0  0  0  0
   -6.2980   15.6960  -34.4380 N   0  0  0  0  0  0  0  0  0  0  0  0
   -6.5290   16.8120  -33.7210 C   0  0  0  0  0  0  0  0  0  0  0  0
   -5.4010   17.6030  -33.7880 C   0  0  0  0  0  0  0  0  0  0  0  0
   -5.1840   18.8800  -33.0840 C   0  0  0  0  0  0  0  0  0  0  0  0
   -3.9630   19.3650  -32.6500 C   0  0  0  0  0  0  0  0  0  0  0  0
   -4.1300   20.5840  -32.0860 N   0  0  0  0  0  0  0  0  0  0  0  0
   -5.4580   20.8180  -32.1740 C   0  0  0  0  0  0  0  0  0  0  0  0
   -6.1610   21.9570  -31.7080 C   0  0  0  0  0  0  0  0  0  0  0  0
   -5.5130   23.1040  -31.0680 N   0  0  0  0  0  0  0  0  0  0  0  0
   -6.0820   24.4540  -31.2850 C   0  0  0  0  0  0  0  0  0  0  0  0
   -5.3470   25.5710  -30.5350 C   0  0  0  0  0  0  0  0  0  0  0  0
   -3.9630   25.3250  -30.4770 O   0  0  0  0  0  0  0  0  0  0  0  0
   -3.7490   24.2060  -29.6510 C   0  0  0  0  0  0  0  0  0  0  0  0
   -4.2420   22.9300  -30.3340 C   0  0  0  0  0  0  0  0  0  0  0  0
   -7.5650   21.9220  -31.9110 C   0  0  0  0  0  0  0  0  0  0  0  0
   -8.1830   20.8110  -32.5040 C   0  0  0  0  0  0  0  0  0  0  0  0
   -7.4330   19.7570  -32.9160 N   0  0  0  0  0  0  0  0  0  0  0  0
   -6.1100   19.8040  -32.7690 N   0  0  0  0  0  0  0  0  0  0  0  0
   -4.4960   16.8770  -34.5440 C   0  0  0  0  0  0  0  0  0  0  0  0
   -5.0660   15.7160  -34.9250 N   0  0  0  0  0  0  0  0  0  0  0  0
   -6.4439   13.1681  -33.1288 H   0  0  0  0  0  0  0  0  0  0  0  0
   -7.0562   12.4163  -34.6409 H   0  0  0  0  0  0  0  0  0  0  0  0
   -5.4805   13.2787  -34.6409 H   0  0  0  0  0  0  0  0  0  0  0  0
   -7.5607   14.5125  -35.6219 H   0  0  0  0  0  0  0  0  0  0  0  0
   -8.0631   14.7060  -33.9021 H   0  0  0  0  0  0  0  0  0  0  0  0
   -7.4548   17.0510  -33.1772 H   0  0  0  0  0  0  0  0  0  0  0  0
   -3.0018   18.8393  -32.7485 H   0  0  0  0  0  0  0  0  0  0  0  0
   -6.0424   24.6766  -32.3615 H   0  0  0  0  0  0  0  0  0  0  0  0
   -7.1096   24.4318  -30.8933 H   0  0  0  0  0  0  0  0  0  0  0  0
   -5.5196   26.5250  -31.0548 H   0  0  0  0  0  0  0  0  0  0  0  0
   -5.7351   25.6114  -29.5066 H   0  0  0  0  0  0  0  0  0  0  0  0
   -2.6732   24.1115  -29.4420 H   0  0  0  0  0  0  0  0  0  0  0  0
   -4.3082   24.3451  -28.7140 H   0  0  0  0  0  0  0  0  0  0  0  0
   -3.4723   22.5971  -31.0458 H   0  0  0  0  0  0  0  0  0  0  0  0
   -4.4266   22.1906  -29.5407 H   0  0  0  0  0  0  0  0  0  0  0  0
   -8.1786   22.7798  -31.5984 H   0  0  0  0  0  0  0  0  0  0  0  0
   -9.2750   20.7938  -32.6351 H   0  0  0  0  0  0  0  0  0  0  0  0
   -7.9090   18.9190  -33.3140 H   0  0  0  0  0  0  0  0  0  0  0  0
   -3.4737   17.1969  -34.7941 H   0  0  0  0  0  0  0  0  0  0  0  0
  1  2  1  0
  2  3  1  0
  3  4  1  0
  4  5  2  0
  5  6  1  0
  6  7  2  0
  7  8  1  0
  8  9  2  0
  9 10  1  0
 10 11  1  0
 11 12  1  0
 12 13  1  0
 13 14  1  0
 14 15  1  0
 15 16  1  0
 10 17  2  0
 17 18  1  0
 18 19  2  0
 19 20  1  0
  5 21  1  0
 21 22  2  0
 22  3  1  0
 20  6  1  0
 20  9  1  0
 16 11  1  0
  1 23  1  0
  1 24  1  0
  1 25  1  0
  2 26  1  0
  2 27  1  0
  4 28  1  0
  7 29  1  0
 12 30  1  0
 12 31  1  0
 13 32  1  0
 13 33  1  0
 15 34  1  0
 15 35  1  0
 16 36  1  0
 16 37  1  0
 17 38  1  0
 18 39  1  0
 19 40  1  0
 21 41  1  0
M  CHG  1  19   1
M  END
>  <UniqueID>  (25) 
24

>  <SMILES>  (25) 
CCn1cc(-c2cnc3c(N4CCOCC4)cc[nH+]n23)cn1

>  <Energy>  (25) 
119.61396926764789

>  <Genealogy>  (25) 
CCn1cc(-c2cnc3c(N4CCOCC4)cc[nH+]n23)cn1 (protonated)
CCn1cc(-c2cnc3c(N4CCOCC4)cc[nH+]n23)cn1 (3D coordinates assigned)
CCn1cc(-c2cnc3c(N4CCOCC4)cc[nH+]n23)cn1 (nonaromatic ring conformer: 119.61396926764789 kcal/mol)

>  <smiles>  (25) 
CCn1cc(-c2cnc3c(N4CCOCC4)ccnn23)cn1

>  <score_type>  (25) 
oracle

>  <origin>  (25) 
adg

>  <m_score__min__energy>  (25) 
-6.9500000000000002

>  <m_primary>  (25) 
energy

$$$$
25:0
     RDKit          3D

 72 75  0  0  0  0  0  0  0  0999 V2000
   -3.5510   23.4840  -28.1380 C   0  0  0  0  0  0  0  0  0  0  0  0
   -3.1050   24.5460  -29.1430 C   0  0  0  0  0  0  0  0  0  0  0  0
   -3.8390   24.4180  -30.4250 N   0  0  0  0  0  0  0  0  0  0  0  0
   -5.0020   25.3400  -30.4980 C   0  0  0  0  0  0  0  0  0  0  0  0
   -6.1940   24.7330  -29.7640 C   0  0  0  0  0  0  0  0  0  0  0  0
   -4.2350   23.0090  -30.6560 C   0  0  0  0  0  0  0  0  0  0  0  0
   -3.5430   22.4280  -31.8990 C   0  0  0  0  0  0  0  0  0  0  0  0
   -4.5140   22.1160  -32.9500 N   0  0  0  0  0  0  0  0  0  0  0  0
   -5.5280   21.1180  -32.7370 C   0  0  0  0  0  0  0  0  0  0  0  0
   -6.8420   21.4940  -32.4060 C   0  0  0  0  0  0  0  0  0  0  0  0
   -7.2320   22.8490  -32.3790 C   0  0  0  0  0  0  0  0  0  0  0  0
   -8.5310   23.2100  -32.0300 C   0  0  0  0  0  0  0  0  0  0  0  0
   -9.4660   22.2280  -31.7020 C   0  0  0  0  0  0  0  0  0  0  0  0
   -9.1040   20.8810  -31.7270 C   0  0  0  0  0  0  0  0  0  0  0  0
   -7.7920   20.4860  -32.0910 C   0  0  0  0  0  0  0  0  0  0  0  0
   -7.4330   19.1550  -32.1490 N   0  0  0  0  0  0  0  0  0  0  0  0
   -8.2000   18.1770  -31.3480 C   0  0  0  0  0  0  0  0  0  0  0  0
   -6.2530   18.7870  -32.7720 C   0  0  0  0  0  0  0  0  0  0  0  0
   -5.2310   19.7540  -32.9330 C   0  0  0  0  0  0  0  0  0  0  0  0
   -3.9330   19.3410  -33.2730 C   0  0  0  0  0  0  0  0  0  0  0  0
   -3.6510   18.0030  -33.5240 C   0  0  0  0  0  0  0  0  0  0  0  0
   -4.6800   17.0360  -33.5500 C   0  0  0  0  0  0  0  0  0  0  0  0
   -4.4500   15.6750  -33.9400 C   0  0  0  0  0  0  0  0  0  0  0  0
   -3.1280   15.0890  -34.0890 N   0  0  0  0  0  0  0  0  0  0  0  0
   -3.1950   13.6880  -34.5720 C   0  0  0  0  0  0  0  0  0  0  0  0
   -3.2500   12.6850  -33.4070 C   0  0  0  0  0  0  0  0  0  0  0  0
   -3.1580   13.4020  -32.1100 N   0  0  0  0  0  0  0  0  0  0  0  0
   -4.4200   13.2970  -31.3540 C   0  0  0  0  0  0  0  0  0  0  0  0
   -2.0440   12.8880  -31.2940 C   0  0  0  0  0  0  0  0  0  0  0  0
   -5.5590   14.8760  -34.2740 C   0  0  0  0  0  0  0  0  0  0  0  0
   -6.8550   15.3540  -34.1480 C   0  0  0  0  0  0  0  0  0  0  0  0
   -7.0840   16.6270  -33.6420 C   0  0  0  0  0  0  0  0  0  0  0  0
   -6.0140   17.4670  -33.2700 C   0  0  0  0  0  0  0  0  0  0  0  0
   -3.3940   23.8579  -27.1155 H   0  0  0  0  0  0  0  0  0  0  0  0
   -4.6181   23.2627  -28.2877 H   0  0  0  0  0  0  0  0  0  0  0  0
   -2.9619   22.5672  -28.2877 H   0  0  0  0  0  0  0  0  0  0  0  0
   -3.2959   25.5429  -28.7190 H   0  0  0  0  0  0  0  0  0  0  0  0
   -2.0323   24.4061  -29.3422 H   0  0  0  0  0  0  0  0  0  0  0  0
   -4.7363   26.2997  -30.0307 H   0  0  0  0  0  0  0  0  0  0  0  0
   -5.2703   25.5011  -31.5525 H   0  0  0  0  0  0  0  0  0  0  0  0
   -6.0359   24.8135  -28.6784 H   0  0  0  0  0  0  0  0  0  0  0  0
   -7.1103   25.2743  -30.0422 H   0  0  0  0  0  0  0  0  0  0  0  0
   -6.2952   23.6736  -30.0422 H   0  0  0  0  0  0  0  0  0  0  0  0
   -3.9542   22.4098  -29.7773 H   0  0  0  0  0  0  0  0  0  0  0  0
   -5.3224   22.9776  -30.8190 H   0  0  0  0  0  0  0  0  0  0  0  0
   -2.8214   23.1634  -32.2843 H   0  0  0  0  0  0  0  0  0  0  0  0
   -3.0325   21.4975  -31.6098 H   0  0  0  0  0  0  0  0  0  0  0  0
   -4.3330   22.4250  -33.9310 H   0  0  0  0  0  0  0  0  0  0  0  0
   -6.5015   23.6300  -32.6367 H   0  0  0  0  0  0  0  0  0  0  0  0
   -8.8202   24.2712  -32.0129 H   0  0  0  0  0  0  0  0  0  0  0  0
  -10.4903   22.5163  -31.4232 H   0  0  0  0  0  0  0  0  0  0  0  0
   -9.8469   20.1147  -31.4606 H   0  0  0  0  0  0  0  0  0  0  0  0
   -8.0435   18.3766  -30.2776 H   0  0  0  0  0  0  0  0  0  0  0  0
   -9.2703   18.2677  -31.5852 H   0  0  0  0  0  0  0  0  0  0  0  0
   -7.8568   17.1592  -31.5852 H   0  0  0  0  0  0  0  0  0  0  0  0
   -3.1274   20.0869  -33.3418 H   0  0  0  0  0  0  0  0  0  0  0  0
   -2.6112   17.6930  -33.7050 H   0  0  0  0  0  0  0  0  0  0  0  0
   -2.5890   15.0630  -33.1980 H   0  0  0  0  0  0  0  0  0  0  0  0
   -2.5880   15.7040  -34.7450 H   0  0  0  0  0  0  0  0  0  0  0  0
   -4.0974   13.5668  -35.1893 H   0  0  0  0  0  0  0  0  0  0  0  0
   -2.2860   13.4838  -35.1569 H   0  0  0  0  0  0  0  0  0  0  0  0
   -4.1990   12.1303  -33.4493 H   0  0  0  0  0  0  0  0  0  0  0  0
   -2.4038   11.9874  -33.4930 H   0  0  0  0  0  0  0  0  0  0  0  0
   -4.2040   13.3150  -30.2756 H   0  0  0  0  0  0  0  0  0  0  0  0
   -5.0731   14.1439  -31.6113 H   0  0  0  0  0  0  0  0  0  0  0  0
   -4.9242   12.3538  -31.6113 H   0  0  0  0  0  0  0  0  0  0  0  0
   -2.2883   13.0007  -30.2274 H   0  0  0  0  0  0  0  0  0  0  0  0
   -1.8823   11.8243  -31.5227 H   0  0  0  0  0  0  0  0  0  0  0  0
   -1.1297   13.4553  -31.5227 H   0  0  0  0  0  0  0  0  0  0  0  0
   -5.3950   13.8525  -34.6422 H   0  0  0  0  0  0  0  0  0  0  0  0
   -7.7040   14.7230  -34.4497 H   0  0  0  0  0  0  0  0  0  0  0  0
   -8.1176   16.9862  -33.5295 H   0  0  0  0  0  0  0  0  0  0  0  0
  1  2  1  0
  2  3  1  0
  3  4  1  0
  4  5  1  0
  3  6  1  0
  6  7  1  0
  7  8  1  0
  8  9  1  0
  9 10  2  0
 10 11  1  0
 11 12  2  0
 12 13  1  0
 13 14  2  0
 14 15  1  0
 15 16  2  0
 16 17  1  0
 16 18  1  0
 18 19  2  0
 19 20  1  0
 20 21  2  0
 21 22  1  0
 22 23  2  0
 23 24  1  0
 24 25  1  0
 25 26  1  0
 26 27  1  0
 27 28  1  0
 27 29  1  0
 23 30  1  0
 30 31  2  0
 31 32  1  0
 32 33  2  0
 19  9  1  0
 33 22  1  0
 15 10  1  0
 33 18  1  0
  1 34  1  0
  1 35  1  0
  1 36  1  0
  2 37  1  0
  2 38  1  0
  4 39  1  0
  4 40  1  0
  5 41  1  0
  5 42  1  0
  5 43  1  0
  6 44  1  0
  6 45  1  0
  7 46  1  0
  7 47  1  0
  8 48  1  0
 11 49  1  0
 12 50  1  0
 13 51  1  0
 14 52  1  0
 17 53  1  0
 17 54  1  0
 17 55  1  0
 20 56  1  0
 21 57  1  0
 24 58  1  0
 24 59  1  0
 25 60  1  0
 25 61  1  0
 26 62  1  0
 26 63  1  0
 28 64  1  0
 28 65  1  0
 28 66  1  0
 29 67  1  0
 29 68  1  0
 29 69  1  0
 30 70  1  0
 31 71  1  0
 32 72  1  0
M  CHG  2  16   1  24   1
M  END
>  <UniqueID>  (26) 
25

>  <SMILES>  (26) 
CCN(CC)CCNc1c2ccccc2[n+](C)c2c1ccc1c([NH2+]CCN(C)C)cccc12

>  <Energy>  (26) 
125.73287534609162

>  <Genealogy>  (26) 
CCN(CC)CCNc1c2ccccc2[n+](C)c2c1ccc1c([NH2+]CCN(C)C)cccc12 (protonated)
CCN(CC)CCNc1c2ccccc2[n+](C)c2c1ccc1c([NH2+]CCN(C)C)cccc12 (3D coordinates assigned)
CCN(CC)CCNc1c2ccccc2[n+](C)c2c1ccc1c([NH2+]CCN(C)C)cccc12 (optimized conformer: 125.73287534609162 kcal/mol)

>  <smiles>  (26) 
CCN(CC)CCNc1c2ccccc2[n+](C)c2c1ccc1c(NCCN(C)C)cccc12

>  <score_type>  (26) 
oracle

>  <origin>  (26) 
adg

>  <m_score__min__energy>  (26) 
-8.8900000000000006

>  <m_primary>  (26) 
energy

$$$$
26:0
     RDKit          3D

 47 48  0  0  1  0  0  0  0  0999 V2000
   -2.6740   21.5200  -32.0150 C   0  0  0  0  0  0  0  0  0  0  0  0
   -3.2560   21.2380  -30.6590 C   0  0  0  0  0  0  0  0  0  0  0  0
   -2.5500   21.7680  -29.5480 N   0  0  0  0  0  0  0  0  0  0  0  0
   -3.1080   21.5830  -28.2560 C   0  0  0  0  0  0  0  0  0  0  0  0
   -2.6760   20.3210  -27.5510 C   0  0  0  0  0  0  0  0  0  0  0  0
   -1.8990   23.0160  -29.7910 C   0  0  0  0  0  0  0  0  0  0  0  0
   -2.6990   24.2280  -29.3590 C   0  0  0  0  0  0  0  0  0  0  0  0
   -3.4850   24.7570  -30.4550 N   0  0  0  0  0  0  0  0  0  0  0  0
   -4.7330   24.4640  -30.6190 C   0  0  0  0  0  0  0  0  0  0  0  0
   -5.6070   25.0490  -29.7830 N   0  0  0  0  0  0  0  0  0  0  0  0
   -6.9510   24.8170  -29.8610 C   0  0  0  0  0  0  0  0  0  0  0  0
   -7.4090   23.9510  -30.8320 C   0  0  0  0  0  0  0  0  0  0  0  0
   -6.4800   23.3750  -31.6650 C   0  0  0  0  0  0  0  0  0  0  0  0
   -6.8970   22.5740  -32.5640 N   0  0  0  0  0  0  0  0  0  0  0  0
   -7.1730   21.1900  -32.3730 C   0  0  0  0  0  0  0  0  0  0  0  0
   -6.1530   20.2860  -32.6410 C   0  0  0  0  0  0  0  0  0  0  0  0
   -6.3060   18.9280  -32.4930 C   0  0  0  0  0  0  0  0  0  0  0  0
   -7.5290   18.4350  -32.0580 C   0  0  0  0  0  0  0  0  0  0  0  0
   -8.5290   19.3340  -31.7950 C   0  0  0  0  0  0  0  0  0  0  0  0
   -8.3860   20.7060  -31.9430 C   0  0  0  0  0  0  0  0  0  0  0  0
   -9.5170   21.5840  -31.6350 C   0  0  0  0  0  0  0  0  0  0  0  0
   -5.1890   23.6260  -31.5580 N   0  0  0  0  0  0  0  0  0  0  0  0
   -1.6896   21.9970  -31.8995 H   0  0  0  0  0  0  0  0  0  0  0  0
   -2.5615   20.5765  -32.5692 H   0  0  0  0  0  0  0  0  0  0  0  0
   -3.3448   22.1930  -32.5692 H   0  0  0  0  0  0  0  0  0  0  0  0
   -4.2740   21.6541  -30.6384 H   0  0  0  0  0  0  0  0  0  0  0  0
   -3.2088   20.1453  -30.5416 H   0  0  0  0  0  0  0  0  0  0  0  0
   -2.8154   22.4401  -27.6317 H   0  0  0  0  0  0  0  0  0  0  0  0
   -4.1954   21.4989  -28.3993 H   0  0  0  0  0  0  0  0  0  0  0  0
   -2.7280   20.4728  -26.4628 H   0  0  0  0  0  0  0  0  0  0  0  0
   -3.3423   19.4942  -27.8381 H   0  0  0  0  0  0  0  0  0  0  0  0
   -1.6428   20.0759  -27.8381 H   0  0  0  0  0  0  0  0  0  0  0  0
   -0.9447   23.0196  -29.2439 H   0  0  0  0  0  0  0  0  0  0  0  0
   -1.7661   23.0966  -30.8800 H   0  0  0  0  0  0  0  0  0  0  0  0
   -3.3745   23.9385  -28.5405 H   0  0  0  0  0  0  0  0  0  0  0  0
   -1.9972   25.0072  -29.0268 H   0  0  0  0  0  0  0  0  0  0  0  0
   -5.3340   25.7090  -29.0230 H   0  0  0  0  0  0  0  0  0  0  0  0
   -7.6497   25.3080  -29.1676 H   0  0  0  0  0  0  0  0  0  0  0  0
   -8.4813   23.7290  -30.9361 H   0  0  0  0  0  0  0  0  0  0  0  0
   -5.1827   20.6728  -32.9859 H   0  0  0  0  0  0  0  0  0  0  0  0
   -5.4740   18.2437  -32.7153 H   0  0  0  0  0  0  0  0  0  0  0  0
   -7.6903   17.3546  -31.9284 H   0  0  0  0  0  0  0  0  0  0  0  0
   -9.4982   18.9467  -31.4475 H   0  0  0  0  0  0  0  0  0  0  0  0
   -9.6279   21.6701  -30.5440 H   0  0  0  0  0  0  0  0  0  0  0  0
   -9.3355   22.5801  -32.0648 H   0  0  0  0  0  0  0  0  0  0  0  0
  -10.4371   21.1612  -32.0648 H   0  0  0  0  0  0  0  0  0  0  0  0
   -4.5270   23.1710  -32.2020 H   0  0  0  0  0  0  0  0  0  0  0  0
  1  2  1  0
  2  3  1  0
  3  4  1  0
  4  5  1  0
  3  6  1  0
  6  7  1  0
  7  8  1  0
  8  9  2  0
  9 10  1  0
 10 11  1  0
 11 12  2  0
 12 13  1  0
 13 14  2  0
 14 15  1  0
 15 16  2  0
 16 17  1  0
 17 18  2  0
 18 19  1  0
 19 20  2  0
 20 21  1  0
 13 22  1  0
 22  9  1  0
 20 15  1  0
  1 23  1  0
  1 24  1  0
  1 25  1  0
  2 26  1  0
  2 27  1  0
  4 28  1  0
  4 29  1  0
  5 30  1  0
  5 31  1  0
  5 32  1  0
  6 33  1  0
  6 34  1  0
  7 35  1  0
  7 36  1  0
 10 37  1  0
 11 38  1  0
 12 39  1  0
 16 40  1  0
 17 41  1  0
 18 42  1  0
 19 43  1  0
 21 44  1  0
 21 45  1  0
 21 46  1  0
 22 47  1  0
M  END
>  <smiles>  (27) 
CCN(CC)CCN=c1[nH]ccc(=Nc2ccccc2C)[nH]1

>  <score_type>  (27) 
oracle

>  <origin>  (27) 
adg

>  <m_score__min__energy>  (27) 
-7.4299999999999997

>  <m_primary>  (27) 
energy

$$$$
27:0
     RDKit          3D

 54 57  0  0  0  0  0  0  0  0999 V2000
   -0.7490   22.7670  -30.0120 C   0  0  0  0  0  0  0  0  0  0  0  0
   -2.1410   22.6630  -30.4880 N   0  0  0  0  0  0  0  0  0  0  0  0
   -3.0870   22.7720  -29.3520 C   0  0  0  0  0  0  0  0  0  0  0  0
   -3.6270   24.2000  -29.2500 C   0  0  0  0  0  0  0  0  0  0  0  0
   -3.4900   24.8600  -30.4790 O   0  0  0  0  0  0  0  0  0  0  0  0
   -2.3310   21.4010  -31.2360 C   0  0  0  0  0  0  0  0  0  0  0  0
   -1.7340   21.5260  -32.6470 C   0  0  0  0  0  0  0  0  0  0  0  0
   -2.7580   21.4670  -33.7090 N   0  0  0  0  0  0  0  0  0  0  0  0
   -3.8080   20.5070  -33.4100 C   0  0  0  0  0  0  0  0  0  0  0  0
   -5.0550   20.9650  -32.9540 C   0  0  0  0  0  0  0  0  0  0  0  0
   -6.0980   20.0880  -32.7210 C   0  0  0  0  0  0  0  0  0  0  0  0
   -5.9320   18.7290  -32.7770 N   0  0  0  0  0  0  0  0  0  0  0  0
   -6.9460   17.8390  -32.1880 C   0  0  0  0  0  0  0  0  0  0  0  0
   -4.7610   18.2270  -33.3200 C   0  0  0  0  0  0  0  0  0  0  0  0
   -4.6260   16.8470  -33.6140 C   0  0  0  0  0  0  0  0  0  0  0  0
   -3.4340   16.3300  -34.1120 C   0  0  0  0  0  0  0  0  0  0  0  0
   -2.3500   17.1670  -34.3380 C   0  0  0  0  0  0  0  0  0  0  0  0
   -2.4560   18.5350  -34.0980 C   0  0  0  0  0  0  0  0  0  0  0  0
   -3.6600   19.1020  -33.6150 C   0  0  0  0  0  0  0  0  0  0  0  0
   -7.2870   20.8760  -32.3730 C   0  0  0  0  0  0  0  0  0  0  0  0
   -8.6410   20.5200  -32.2850 C   0  0  0  0  0  0  0  0  0  0  0  0
   -9.5880   21.5240  -32.0290 C   0  0  0  0  0  0  0  0  0  0  0  0
   -9.1870   22.8670  -31.9130 C   0  0  0  0  0  0  0  0  0  0  0  0
   -7.8400   23.2170  -32.0760 C   0  0  0  0  0  0  0  0  0  0  0  0
   -6.9070   22.2060  -32.3150 C   0  0  0  0  0  0  0  0  0  0  0  0
   -5.4570   22.3840  -32.6360 C   0  0  1  0  0  0  0  0  0  0  0  0
   -4.7650   22.8400  -31.5050 O   0  0  0  0  0  0  0  0  0  0  0  0
   -0.7367   22.7679  -28.9121 H   0  0  0  0  0  0  0  0  0  0  0  0
   -0.1691   21.9097  -30.3844 H   0  0  0  0  0  0  0  0  0  0  0  0
   -0.3029   23.7010  -30.3844 H   0  0  0  0  0  0  0  0  0  0  0  0
   -3.9250   22.0769  -29.5089 H   0  0  0  0  0  0  0  0  0  0  0  0
   -2.5598   22.5199  -28.4201 H   0  0  0  0  0  0  0  0  0  0  0  0
   -4.6909   24.1669  -28.9723 H   0  0  0  0  0  0  0  0  0  0  0  0
   -3.0551   24.7454  -28.4848 H   0  0  0  0  0  0  0  0  0  0  0  0
   -3.0940   24.2040  -31.1120 H   0  0  0  0  0  0  0  0  0  0  0  0
   -1.8291   20.5818  -30.7002 H   0  0  0  0  0  0  0  0  0  0  0  0
   -3.4076   21.1911  -31.3188 H   0  0  0  0  0  0  0  0  0  0  0  0
   -1.2058   22.4881  -32.7211 H   0  0  0  0  0  0  0  0  0  0  0  0
   -1.0537   20.6744  -32.7953 H   0  0  0  0  0  0  0  0  0  0  0  0
   -2.2810   21.1760  -34.5930 H   0  0  0  0  0  0  0  0  0  0  0  0
   -3.1270   22.4170  -33.9270 H   0  0  0  0  0  0  0  0  0  0  0  0
   -6.8867   17.8910  -31.0908 H   0  0  0  0  0  0  0  0  0  0  0  0
   -7.9470   18.1555  -32.5165 H   0  0  0  0  0  0  0  0  0  0  0  0
   -6.7620   16.8055  -32.5165 H   0  0  0  0  0  0  0  0  0  0  0  0
   -5.4787   16.1728  -33.4455 H   0  0  0  0  0  0  0  0  0  0  0  0
   -3.3505   15.2545  -34.3273 H   0  0  0  0  0  0  0  0  0  0  0  0
   -1.4028   16.7480  -34.7084 H   0  0  0  0  0  0  0  0  0  0  0  0
   -1.5895   19.1858  -34.2869 H   0  0  0  0  0  0  0  0  0  0  0  0
   -8.9548   19.4736  -32.4142 H   0  0  0  0  0  0  0  0  0  0  0  0
  -10.6498   21.2588  -31.9185 H   0  0  0  0  0  0  0  0  0  0  0  0
   -9.9330   23.6450  -31.6937 H   0  0  0  0  0  0  0  0  0  0  0  0
   -7.5234   24.2688  -32.0168 H   0  0  0  0  0  0  0  0  0  0  0  0
   -5.2501   23.1094  -33.4366 H   0  0  0  0  0  0  0  0  0  0  0  0
   -3.8640   23.1130  -31.8190 H   0  0  0  0  0  0  0  0  0  0  0  0
  1  2  1  0
  2  3  1  0
  3  4  1  0
  4  5  1  0
  2  6  1  0
  6  7  1  0
  7  8  1  0
  8  9  1  0
  9 10  2  0
 10 11  1  0
 11 12  2  0
 12 13  1  0
 12 14  1  0
 14 15  2  0
 15 16  1  0
 16 17  2  0
 17 18  1  0
 18 19  2  0
 11 20  1  0
 20 21  2  0
 21 22  1  0
 22 23  2  0
 23 24  1  0
 24 25  2  0
 25 26  1  0
 26 27  1  0
 19  9  1  0
 25 20  1  0
 26 10  1  0
 19 14  1  0
  1 28  1  0
  1 29  1  0
  1 30  1  0
  3 31  1  0
  3 32  1  0
  4 33  1  0
  4 34  1  0
  5 35  1  0
  6 36  1  0
  6 37  1  0
  7 38  1  0
  7 39  1  0
  8 40  1  0
  8 41  1  0
 13 42  1  0
 13 43  1  0
 13 44  1  0
 15 45  1  0
 16 46  1  0
 17 47  1  0
 18 48  1  0
 21 49  1  0
 22 50  1  0
 23 51  1  0
 24 52  1  0
 26 53  1  6
 27 54  1  0
M  CHG  2   8   1  12   1
M  END
>  <UniqueID>  (28) 
26

>  <SMILES>  (28) 
CN(CCO)CC[NH2+]c1c2c([n+](C)c3ccccc13)-c1ccccc1[C@H]2O

>  <Energy>  (28) 
99.97933656353713

>  <Genealogy>  (28) 
CN(CCO)CC[NH2+]c1c2c([n+](C)c3ccccc13)-c1ccccc1C2O (protonated)
CN(CCO)CC[NH2+]c1c2c([n+](C)c3ccccc13)-c1ccccc1[C@H]2O (chirality)
CN(CCO)CC[NH2+]c1c2c([n+](C)c3ccccc13)-c1ccccc1[C@H]2O (3D coordinates assigned)
CN(CCO)CC[NH2+]c1c2c([n+](C)c3ccccc13)-c1ccccc1[C@H]2O (nonaromatic ring conformer: 99.97933656353713 kcal/mol)

>  <smiles>  (28) 
CN(CCO)CCNc1c2c([n+](C)c3ccccc13)-c1ccccc1C2O

>  <score_type>  (28) 
oracle

>  <origin>  (28) 
adg

>  <m_score__min__energy>  (28) 
-8.0999999999999996

>  <m_primary>  (28) 
energy

$$$$
28:0
     RDKit          3D

 28 30  0  0  0  0  0  0  0  0999 V2000
   -5.5770   26.4815  -30.2708 H   0  0  0  0  0  0  0  0  0  0  0  0
   -5.3650   25.4270  -30.5010 C   0  0  0  0  0  0  0  0  0  0  0  0
   -4.0840   24.9740  -30.4850 N   0  0  0  0  0  0  0  0  0  0  0  0
   -3.7840   23.6790  -30.7650 C   0  0  0  0  0  0  0  0  0  0  0  0
   -2.7372   23.3415  -30.7452 H   0  0  0  0  0  0  0  0  0  0  0  0
   -4.8020   22.7750  -31.0780 C   0  0  0  0  0  0  0  0  0  0  0  0
   -4.5586   21.7260  -31.3026 H   0  0  0  0  0  0  0  0  0  0  0  0
   -6.1380   23.2100  -31.1050 C   0  0  0  0  0  0  0  0  0  0  0  0
   -7.2380   22.2700  -31.4350 C   0  0  0  0  0  0  0  0  0  0  0  0
   -8.5630   22.6760  -31.6220 C   0  0  0  0  0  0  0  0  0  0  0  0
   -8.9357   23.7089  -31.5572 H   0  0  0  0  0  0  0  0  0  0  0  0
   -9.4890   21.3140  -31.9630 S   0  0  0  0  0  0  0  0  0  0  0  0
   -8.1840   20.2660  -31.8710 C   0  0  0  0  0  0  0  0  0  0  0  0
   -8.2990   18.9790  -32.0330 N   0  0  0  0  0  0  0  0  0  0  0  0
   -7.3420   18.0600  -32.5860 C   0  0  0  0  0  0  0  0  0  0  0  0
   -7.6200   16.8420  -32.7440 O   0  0  0  0  0  0  0  0  0  0  0  0
   -5.9920   18.5320  -32.9100 C   0  0  0  0  0  0  0  0  0  0  0  0
   -5.1610   19.0390  -32.0290 O   0  0  0  0  0  0  0  0  0  0  0  0
   -4.0440   19.3600  -32.6410 C   0  0  0  0  0  0  0  0  0  0  0  0
   -3.1631   19.8082  -32.1583 H   0  0  0  0  0  0  0  0  0  0  0  0
   -4.1440   19.0490  -33.9830 C   0  0  0  0  0  0  0  0  0  0  0  0
   -3.3748   19.1984  -34.7550 H   0  0  0  0  0  0  0  0  0  0  0  0
   -5.4010   18.5140  -34.1600 C   0  0  0  0  0  0  0  0  0  0  0  0
   -5.8423   18.1489  -35.0991 H   0  0  0  0  0  0  0  0  0  0  0  0
   -7.0380   20.9270  -31.5700 N   0  0  0  0  0  0  0  0  0  0  0  0
   -6.1160   20.4760  -31.3930 H   0  0  0  0  0  0  0  0  0  0  0  0
   -6.4130   24.5570  -30.8090 C   0  0  0  0  0  0  0  0  0  0  0  0
   -7.4499   24.9240  -30.8200 H   0  0  0  0  0  0  0  0  0  0  0  0
  1  2  1  0
  2  3  2  0
  3  4  1  0
  4  5  1  0
  4  6  2  0
  6  7  1  0
  6  8  1  0
  8  9  1  0
  9 10  2  0
 10 11  1  0
 10 12  1  0
 12 13  1  0
 13 14  2  0
 14 15  1  0
 15 16  2  0
 15 17  1  0
 17 18  1  0
 18 19  1  0
 19 20  1  0
 19 21  2  0
 21 22  1  0
 21 23  1  0
 23 24  1  0
 13 25  1  0
 25 26  1  0
  8 27  2  0
 27 28  1  0
 27  2  1  0
 25  9  1  0
 23 17  2  0
M  END
>  <UniqueID>  (29) 
27

>  <SMILES>  (29) 
O=C(/N=c1\[nH]c(-c2ccncc2)cs1)c1ccco1

>  <Energy>  (29) 
94.43853699537567

>  <Genealogy>  (29) 
O=C(/N=c1\[nH]c(-c2ccncc2)cs1)c1ccco1 (cis-trans isomerization)
O=C(/N=c1\[nH]c(-c2ccncc2)cs1)c1ccco1 (3D coordinates assigned)
O=C(/N=c1\[nH]c(-c2ccncc2)cs1)c1ccco1 (optimized conformer: 94.43853699537567 kcal/mol)

>  <smiles>  (29) 
O=C(N=c1[nH]c(-c2ccncc2)cs1)c1ccco1

>  <score_type>  (29) 
oracle

>  <origin>  (29) 
adg

>  <m_score__min__energy>  (29) 
-7.5599999999999996

>  <m_primary>  (29) 
energy

$$$$
29:0
     RDKit          3D

 71 73  0  0  0  0  0  0  0  0999 V2000
   -3.8330   16.9740  -35.3020 C   0  0  0  0  0  0  0  0  0  0  0  0
   -5.1510   17.7440  -35.2720 C   0  0  0  0  0  0  0  0  0  0  0  0
   -5.6750   17.8180  -33.8900 N   0  0  0  0  0  0  0  0  0  0  0  0
   -6.7710   16.8500  -33.7140 C   0  0  0  0  0  0  0  0  0  0  0  0
   -4.6060   17.5810  -32.8930 C   0  0  0  0  0  0  0  0  0  0  0  0
   -4.0450   18.9160  -32.3950 C   0  0  0  0  0  0  0  0  0  0  0  0
   -4.7240   20.0280  -33.0560 N   0  0  0  0  0  0  0  0  0  0  0  0
   -5.3620   21.0660  -32.2900 C   0  0  0  0  0  0  0  0  0  0  0  0
   -6.7630   21.1150  -32.1960 C   0  0  0  0  0  0  0  0  0  0  0  0
   -7.5610   20.0970  -32.7610 C   0  0  0  0  0  0  0  0  0  0  0  0
   -8.9470   20.1250  -32.6320 C   0  0  0  0  0  0  0  0  0  0  0  0
   -9.5600   21.1490  -31.9190 C   0  0  0  0  0  0  0  0  0  0  0  0
   -8.7920   22.1620  -31.3470 C   0  0  0  0  0  0  0  0  0  0  0  0
   -7.3810   22.1850  -31.4940 C   0  0  0  0  0  0  0  0  0  0  0  0
   -6.6090   23.1990  -30.9600 N   0  0  0  0  0  0  0  0  0  0  0  0
   -7.2510   24.4490  -30.4930 C   0  0  0  0  0  0  0  0  0  0  0  0
   -5.2350   23.0570  -30.8840 C   0  0  0  0  0  0  0  0  0  0  0  0
   -4.4360   23.9360  -30.1100 C   0  0  0  0  0  0  0  0  0  0  0  0
   -3.0380   23.8380  -30.0910 C   0  0  0  0  0  0  0  0  0  0  0  0
   -2.2750   24.7730  -29.3030 N   0  0  0  0  0  0  0  0  0  0  0  0
   -1.8390   24.4990  -27.9300 C   0  0  0  0  0  0  0  0  0  0  0  0
   -2.5840   23.2990  -27.3280 C   0  0  0  0  0  0  0  0  0  0  0  0
   -1.6510   22.0830  -27.1270 C   0  0  0  0  0  0  0  0  0  0  0  0
   -2.0230   20.8950  -27.9350 N   0  0  0  0  0  0  0  0  0  0  0  0
   -0.8410   20.0930  -28.3240 C   0  0  0  0  0  0  0  0  0  0  0  0
   -0.7280   20.0150  -29.8440 C   0  0  0  0  0  0  0  0  0  0  0  0
   -3.0760   20.0500  -27.3220 C   0  0  0  0  0  0  0  0  0  0  0  0
   -2.4890   18.9970  -26.3810 C   0  0  0  0  0  0  0  0  0  0  0  0
   -2.4180   22.8320  -30.8430 C   0  0  0  0  0  0  0  0  0  0  0  0
   -3.1820   21.9250  -31.5720 C   0  0  0  0  0  0  0  0  0  0  0  0
   -4.5880   22.0060  -31.5840 C   0  0  0  0  0  0  0  0  0  0  0  0
   -3.4989   16.7788  -34.2723 H   0  0  0  0  0  0  0  0  0  0  0  0
   -3.9783   16.0187  -35.8276 H   0  0  0  0  0  0  0  0  0  0  0  0
   -3.0722   17.5697  -35.8276 H   0  0  0  0  0  0  0  0  0  0  0  0
   -4.9840   18.7630  -35.6511 H   0  0  0  0  0  0  0  0  0  0  0  0
   -5.8840   17.2206  -35.9035 H   0  0  0  0  0  0  0  0  0  0  0  0
   -6.9510   16.6911  -32.6405 H   0  0  0  0  0  0  0  0  0  0  0  0
   -7.6849   17.2412  -34.1850 H   0  0  0  0  0  0  0  0  0  0  0  0
   -6.4957   15.8948  -34.1850 H   0  0  0  0  0  0  0  0  0  0  0  0
   -5.0201   17.0203  -32.0420 H   0  0  0  0  0  0  0  0  0  0  0  0
   -3.7966   17.0036  -33.3636 H   0  0  0  0  0  0  0  0  0  0  0  0
   -4.1980   18.9914  -31.3083 H   0  0  0  0  0  0  0  0  0  0  0  0
   -2.9709   18.9626  -32.6278 H   0  0  0  0  0  0  0  0  0  0  0  0
   -4.9670   19.9260  -34.0670 H   0  0  0  0  0  0  0  0  0  0  0  0
   -7.0824   19.2722  -33.3094 H   0  0  0  0  0  0  0  0  0  0  0  0
   -9.5578   19.3359  -33.0948 H   0  0  0  0  0  0  0  0  0  0  0  0
  -10.6541   21.1599  -31.8059 H   0  0  0  0  0  0  0  0  0  0  0  0
   -9.2885   22.9573  -30.7717 H   0  0  0  0  0  0  0  0  0  0  0  0
   -7.2605   24.4676  -29.3932 H   0  0  0  0  0  0  0  0  0  0  0  0
   -6.6858   25.3143  -30.8694 H   0  0  0  0  0  0  0  0  0  0  0  0
   -8.2836   24.4937  -30.8694 H   0  0  0  0  0  0  0  0  0  0  0  0
   -4.9263   24.7156  -29.5084 H   0  0  0  0  0  0  0  0  0  0  0  0
   -1.9970   25.6770  -29.7490 H   0  0  0  0  0  0  0  0  0  0  0  0
   -0.7603   24.2835  -27.9345 H   0  0  0  0  0  0  0  0  0  0  0  0
   -2.0608   25.3843  -27.3160 H   0  0  0  0  0  0  0  0  0  0  0  0
   -3.0013   23.5920  -26.3533 H   0  0  0  0  0  0  0  0  0  0  0  0
   -3.3801   23.0058  -28.0282 H   0  0  0  0  0  0  0  0  0  0  0  0
   -0.6290   22.3822  -27.4026 H   0  0  0  0  0  0  0  0  0  0  0  0
   -1.7365   21.7882  -26.0707 H   0  0  0  0  0  0  0  0  0  0  0  0
    0.0661   20.5633  -27.9167 H   0  0  0  0  0  0  0  0  0  0  0  0
   -0.9522   19.0753  -27.9217 H   0  0  0  0  0  0  0  0  0  0  0  0
    0.1492   19.4095  -30.1159 H   0  0  0  0  0  0  0  0  0  0  0  0
   -1.6361   19.5505  -30.2558 H   0  0  0  0  0  0  0  0  0  0  0  0
   -0.6157   21.0288  -30.2558 H   0  0  0  0  0  0  0  0  0  0  0  0
   -3.7609   20.6942  -26.7512 H   0  0  0  0  0  0  0  0  0  0  0  0
   -3.6052   19.5256  -28.1313 H   0  0  0  0  0  0  0  0  0  0  0  0
   -2.6590   19.3019  -25.3379 H   0  0  0  0  0  0  0  0  0  0  0  0
   -2.9774   18.0285  -26.5642 H   0  0  0  0  0  0  0  0  0  0  0  0
   -1.4084   18.9032  -26.5642 H   0  0  0  0  0  0  0  0  0  0  0  0
   -1.3206   22.7582  -30.8576 H   0  0  0  0  0  0  0  0  0  0  0  0
   -2.6800   21.1331  -32.1473 H   0  0  0  0  0  0  0  0  0  0  0  0
  1  2  1  0
  2  3  1  0
  3  4  1  0
  3  5  1  0
  5  6  1  0
  6  7  1  0
  7  8  1  0
  8  9  2  0
  9 10  1  0
 10 11  2  0
 11 12  1  0
 12 13  2  0
 13 14  1  0
 14 15  2  0
 15 16  1  0
 15 17  1  0
 17 18  2  0
 18 19  1  0
 19 20  1  0
 20 21  1  0
 21 22  1  0
 22 23  1  0
 23 24  1  0
 24 25  1  0
 25 26  1  0
 24 27  1  0
 27 28  1  0
 19 29  2  0
 29 30  1  0
 30 31  2  0
 31  8  1  0
 14  9  1  0
 31 17  1  0
  1 32  1  0
  1 33  1  0
  1 34  1  0
  2 35  1  0
  2 36  1  0
  4 37  1  0
  4 38  1  0
  4 39  1  0
  5 40  1  0
  5 41  1  0
  6 42  1  0
  6 43  1  0
  7 44  1  0
 10 45  1  0
 11 46  1  0
 12 47  1  0
 13 48  1  0
 16 49  1  0
 16 50  1  0
 16 51  1  0
 18 52  1  0
 20 53  1  0
 21 54  1  0
 21 55  1  0
 22 56  1  0
 22 57  1  0
 23 58  1  0
 23 59  1  0
 25 60  1  0
 25 61  1  0
 26 62  1  0
 26 63  1  0
 26 64  1  0
 27 65  1  0
 27 66  1  0
 28 67  1  0
 28 68  1  0
 28 69  1  0
 29 70  1  0
 30 71  1  0
M  CHG  1  15   1
M  END
>  <UniqueID>  (30) 
28

>  <SMILES>  (30) 
CCN(C)CCNc1c2ccccc2[n+](C)c2cc(NCCCN(CC)CC)ccc12

>  <Energy>  (30) 
93.09205874558391

>  <Genealogy>  (30) 
CCN(C)CCNc1c2ccccc2[n+](C)c2cc(NCCCN(CC)CC)ccc12 (3D coordinates assigned)
CCN(C)CCNc1c2ccccc2[n+](C)c2cc(NCCCN(CC)CC)ccc12 (optimized conformer: 93.09205874558391 kcal/mol)

>  <smiles>  (30) 
CCN(C)CCNc1c2ccccc2[n+](C)c2cc(NCCCN(CC)CC)ccc12

>  <score_type>  (30) 
oracle

>  <origin>  (30) 
adg

>  <m_score__min__energy>  (30) 
-8.5500000000000007

>  <m_primary>  (30) 
energy

$$$$
30:0
     RDKit          3D

 36 38  0  0  0  0  0  0  0  0999 V2000
    1.3050   25.0230  -27.0580 C   0  0  0  0  0  0  0  0  0  0  0  0
    0.4790   24.7950  -28.1960 O   0  0  0  0  0  0  0  0  0  0  0  0
   -0.8950   24.5210  -28.1350 C   0  0  0  0  0  0  0  0  0  0  0  0
   -1.5660   24.2950  -26.9190 C   0  0  0  0  0  0  0  0  0  0  0  0
   -2.9380   24.0340  -26.9130 C   0  0  0  0  0  0  0  0  0  0  0  0
   -3.6520   23.9900  -28.1130 C   0  0  0  0  0  0  0  0  0  0  0  0
   -2.9930   24.1950  -29.3360 C   0  0  0  0  0  0  0  0  0  0  0  0
   -3.7100   24.1740  -30.5820 N   0  0  0  0  0  0  0  0  0  0  0  0
   -4.7020   23.2160  -30.8800 N   0  0  0  0  0  0  0  0  0  0  0  0
   -4.3570   21.9040  -31.0390 C   0  0  0  0  0  0  0  0  0  0  0  0
   -5.2940   20.9770  -31.3590 N   0  0  0  0  0  0  0  0  0  0  0  0
   -6.5950   21.3200  -31.5430 C   0  0  0  0  0  0  0  0  0  0  0  0
   -7.5530   20.3380  -31.8720 C   0  0  0  0  0  0  0  0  0  0  0  0
   -7.1530   18.8960  -32.0200 C   0  0  0  0  0  0  0  0  0  0  0  0
   -8.8910   20.7190  -32.0650 C   0  0  0  0  0  0  0  0  0  0  0  0
   -9.2730   22.0550  -31.9320 C   0  0  0  0  0  0  0  0  0  0  0  0
   -8.3270   23.0300  -31.6050 C   0  0  0  0  0  0  0  0  0  0  0  0
   -6.9830   22.6700  -31.4080 C   0  0  0  0  0  0  0  0  0  0  0  0
   -5.9950   23.6150  -31.0760 C   0  0  0  0  0  0  0  0  0  0  0  0
   -6.3020   24.8340  -30.9480 O   0  0  0  0  0  0  0  0  0  0  0  0
   -1.6180   24.4750  -29.3340 C   0  0  0  0  0  0  0  0  0  0  0  0
    0.7190   24.8612  -26.1413 H   0  0  0  0  0  0  0  0  0  0  0  0
    2.1559   24.3261  -27.0770 H   0  0  0  0  0  0  0  0  0  0  0  0
    1.6779   26.0577  -27.0770 H   0  0  0  0  0  0  0  0  0  0  0  0
   -1.0087   24.3240  -25.9711 H   0  0  0  0  0  0  0  0  0  0  0  0
   -3.4586   23.8623  -25.9593 H   0  0  0  0  0  0  0  0  0  0  0  0
   -4.7343   23.7941  -28.0998 H   0  0  0  0  0  0  0  0  0  0  0  0
   -3.5070   24.9220  -31.2830 H   0  0  0  0  0  0  0  0  0  0  0  0
   -3.3093   21.5963  -30.9063 H   0  0  0  0  0  0  0  0  0  0  0  0
   -7.0282   18.4460  -31.0240 H   0  0  0  0  0  0  0  0  0  0  0  0
   -7.9346   18.3535  -32.5721 H   0  0  0  0  0  0  0  0  0  0  0  0
   -6.2036   18.8336  -32.5721 H   0  0  0  0  0  0  0  0  0  0  0  0
   -9.6433   19.9591  -32.3228 H   0  0  0  0  0  0  0  0  0  0  0  0
  -10.3239   22.3417  -32.0854 H   0  0  0  0  0  0  0  0  0  0  0  0
   -8.6348   24.0810  -31.5016 H   0  0  0  0  0  0  0  0  0  0  0  0
   -1.1008   24.6609  -30.2869 H   0  0  0  0  0  0  0  0  0  0  0  0
  1  2  1  0
  2  3  1  0
  3  4  2  0
  4  5  1  0
  5  6  2  0
  6  7  1  0
  7  8  1  0
  8  9  1  0
  9 10  1  0
 10 11  2  0
 11 12  1  0
 12 13  2  0
 13 14  1  0
 13 15  1  0
 15 16  2  0
 16 17  1  0
 17 18  2  0
 18 19  1  0
 19 20  2  0
  7 21  2  0
 21  3  1  0
 19  9  1  0
 18 12  1  0
  1 22  1  0
  1 23  1  0
  1 24  1  0
  4 25  1  0
  5 26  1  0
  6 27  1  0
  8 28  1  0
 10 29  1  0
 14 30  1  0
 14 31  1  0
 14 32  1  0
 15 33  1  0
 16 34  1  0
 17 35  1  0
 21 36  1  0
M  END
>  <UniqueID>  (31) 
29

>  <SMILES>  (31) 
COc1cccc(Nn2cnc3c(C)cccc3c2=O)c1

>  <Energy>  (31) 
49.40329134573061

>  <Genealogy>  (31) 
COc1cccc(Nn2cnc3c(C)cccc3c2=O)c1 (3D coordinates assigned)
COc1cccc(Nn2cnc3c(C)cccc3c2=O)c1 (optimized conformer: 49.40329134573061 kcal/mol)

>  <smiles>  (31) 
COc1cccc(Nn2cnc3c(C)cccc3c2=O)c1

>  <score_type>  (31) 
oracle

>  <origin>  (31) 
adg

>  <m_score__min__energy>  (31) 
-7.7599999999999998

>  <m_primary>  (31) 
energy

$$$$
31:0
     RDKit          3D

 47 47  0  0  0  0  0  0  0  0999 V2000
   -1.1690   21.1370  -31.3630 C   0  0  0  0  0  0  0  0  0  0  0  0
   -1.7590   22.4490  -30.8370 C   0  0  0  0  0  0  0  0  0  0  0  0
   -3.0060   22.3240  -30.0330 N   0  0  0  0  0  0  0  0  0  0  0  0
   -3.3680   20.9370  -29.6250 C   0  0  0  0  0  0  0  0  0  0  0  0
   -2.7320   20.4430  -28.3190 C   0  0  0  0  0  0  0  0  0  0  0  0
   -3.2600   23.4100  -29.0360 C   0  0  0  0  0  0  0  0  0  0  0  0
   -4.2560   24.5240  -29.4340 C   0  0  0  0  0  0  0  0  0  0  0  0
   -4.4010   24.6380  -30.8360 O   0  0  0  0  0  0  0  0  0  0  0  0
   -5.7320   24.9650  -31.1790 C   0  0  0  0  0  0  0  0  0  0  0  0
   -6.3510   23.7980  -31.9430 C   0  0  0  0  0  0  0  0  0  0  0  0
   -5.7480   22.5620  -31.5580 O   0  0  0  0  0  0  0  0  0  0  0  0
   -6.1190   21.3280  -32.1100 C   0  0  0  0  0  0  0  0  0  0  0  0
   -5.2440   20.6110  -32.9620 C   0  0  0  0  0  0  0  0  0  0  0  0
   -3.9040   21.1620  -33.3650 C   0  0  0  0  0  0  0  0  0  0  0  0
   -5.6240   19.3460  -33.4350 C   0  0  0  0  0  0  0  0  0  0  0  0
   -6.8710   18.8140  -33.1080 C   0  0  0  0  0  0  0  0  0  0  0  0
   -7.7570   19.5390  -32.3120 C   0  0  0  0  0  0  0  0  0  0  0  0
   -7.3990   20.8060  -31.8250 C   0  0  0  0  0  0  0  0  0  0  0  0
   -8.3540   21.5480  -30.9330 C   0  0  0  0  0  0  0  0  0  0  0  0
   -0.8817   20.4981  -30.5149 H   0  0  0  0  0  0  0  0  0  0  0  0
   -1.9199   20.6170  -31.9759 H   0  0  0  0  0  0  0  0  0  0  0  0
   -0.2817   21.3537  -31.9759 H   0  0  0  0  0  0  0  0  0  0  0  0
   -0.9981   22.9320  -30.2063 H   0  0  0  0  0  0  0  0  0  0  0  0
   -2.0364   23.0299  -31.7290 H   0  0  0  0  0  0  0  0  0  0  0  0
   -3.7390   22.5230  -30.7590 H   0  0  0  0  0  0  0  0  0  0  0  0
   -4.4608   20.8932  -29.5070 H   0  0  0  0  0  0  0  0  0  0  0  0
   -2.9795   20.2793  -30.4166 H   0  0  0  0  0  0  0  0  0  0  0  0
   -3.2772   20.8665  -27.4626 H   0  0  0  0  0  0  0  0  0  0  0  0
   -2.7824   19.3449  -28.2791 H   0  0  0  0  0  0  0  0  0  0  0  0
   -1.6805   20.7635  -28.2791 H   0  0  0  0  0  0  0  0  0  0  0  0
   -3.6449   22.9348  -28.1216 H   0  0  0  0  0  0  0  0  0  0  0  0
   -2.2932   23.9233  -28.9274 H   0  0  0  0  0  0  0  0  0  0  0  0
   -5.2378   24.2944  -28.9943 H   0  0  0  0  0  0  0  0  0  0  0  0
   -3.8609   25.4791  -29.0576 H   0  0  0  0  0  0  0  0  0  0  0  0
   -6.3121   25.1556  -30.2640 H   0  0  0  0  0  0  0  0  0  0  0  0
   -5.7419   25.8672  -31.8082 H   0  0  0  0  0  0  0  0  0  0  0  0
   -7.4286   23.7563  -31.7262 H   0  0  0  0  0  0  0  0  0  0  0  0
   -6.1821   23.9522  -33.0190 H   0  0  0  0  0  0  0  0  0  0  0  0
   -3.3203   21.4020  -32.4641 H   0  0  0  0  0  0  0  0  0  0  0  0
   -3.3642   20.4128  -33.9628 H   0  0  0  0  0  0  0  0  0  0  0  0
   -4.0474   22.0742  -33.9628 H   0  0  0  0  0  0  0  0  0  0  0  0
   -4.9335   18.7697  -34.0683 H   0  0  0  0  0  0  0  0  0  0  0  0
   -7.1567   17.8188  -33.4794 H   0  0  0  0  0  0  0  0  0  0  0  0
   -8.7417   19.1159  -32.0643 H   0  0  0  0  0  0  0  0  0  0  0  0
   -8.1009   21.3514  -29.8807 H   0  0  0  0  0  0  0  0  0  0  0  0
   -8.2790   22.6271  -31.1327 H   0  0  0  0  0  0  0  0  0  0  0  0
   -9.3811   21.2087  -31.1327 H   0  0  0  0  0  0  0  0  0  0  0  0
  1  2  1  0
  2  3  1  0
  3  4  1  0
  4  5  1  0
  3  6  1  0
  6  7  1  0
  7  8  1  0
  8  9  1  0
  9 10  1  0
 10 11  1  0
 11 12  1  0
 12 13  2  0
 13 14  1  0
 13 15  1  0
 15 16  2  0
 16 17  1  0
 17 18  2  0
 18 19  1  0
 18 12  1  0
  1 20  1  0
  1 21  1  0
  1 22  1  0
  2 23  1  0
  2 24  1  0
  3 25  1  0
  4 26  1  0
  4 27  1  0
  5 28  1  0
  5 29  1  0
  5 30  1  0
  6 31  1  0
  6 32  1  0
  7 33  1  0
  7 34  1  0
  9 35  1  0
  9 36  1  0
 10 37  1  0
 10 38  1  0
 14 39  1  0
 14 40  1  0
 14 41  1  0
 15 42  1  0
 16 43  1  0
 17 44  1  0
 19 45  1  0
 19 46  1  0
 19 47  1  0
M  CHG  1   3   1
M  END
>  <UniqueID>  (32) 
30

>  <SMILES>  (32) 
CC[NH+](CC)CCOCCOc1c(C)cccc1C

>  <Energy>  (32) 
65.29152018853306

>  <Genealogy>  (32) 
CC[NH+](CC)CCOCCOc1c(C)cccc1C (protonated)
CC[NH+](CC)CCOCCOc1c(C)cccc1C (3D coordinates assigned)
CC[NH+](CC)CCOCCOc1c(C)cccc1C (optimized conformer: 65.29152018853306 kcal/mol)

>  <smiles>  (32) 
CCN(CC)CCOCCOc1c(C)cccc1C

>  <score_type>  (32) 
oracle

>  <origin>  (32) 
adg

>  <m_score__min__energy>  (32) 
-6.3300000000000001

>  <m_primary>  (32) 
energy

$$$$
