0:0
     RDKit          3D

 52 54  0  0  0  0  0  0  0  0999 V2000
   -6.1790   25.4950  -29.7000 C   0  0  0  0  0  0  0  0  0  0  0  0
   -5.0910   24.8270  -30.4860 C   0  0  0  0  0  0  0  0  0  0  0  0
   -4.2620   24.0580  -29.6110 N   0  0  0  0  0  0  0  0  0  0  0  0
   -4.5850   24.3390  -28.2390 C   0  0  0  0  0  0  0  0  0  0  0  0
   -4.3310   22.6720  -29.9530 C   0  0  0  0  0  0  0  0  0  0  0  0
   -3.0650   22.0710  -30.4740 C   0  0  0  0  0  0  0  0  0  0  0  0
   -2.8600   22.2360  -31.9600 C   0  0  0  0  0  0  0  0  0  0  0  0
   -3.3130   21.0380  -32.7530 C   0  0  0  0  0  0  0  0  0  0  0  0
   -4.5570   21.2100  -33.4650 N   0  0  0  0  0  0  0  0  0  0  0  0
   -5.6650   20.4080  -33.0780 C   0  0  0  0  0  0  0  0  0  0  0  0
   -5.7380   19.0510  -33.2970 C   0  0  0  0  0  0  0  0  0  0  0  0
   -4.6700   18.4070  -33.8860 C   0  0  0  0  0  0  0  0  0  0  0  0
   -4.6770   17.0620  -34.1200 C   0  0  0  0  0  0  0  0  0  0  0  0
   -5.7990   16.3570  -33.7440 C   0  0  0  0  0  0  0  0  0  0  0  0
   -6.8930   16.9590  -33.1490 C   0  0  0  0  0  0  0  0  0  0  0  0
   -6.8670   18.3170  -32.9220 C   0  0  0  0  0  0  0  0  0  0  0  0
   -7.9170   18.9060  -32.3360 N   0  0  0  0  0  0  0  0  0  0  0  0
   -9.1260   18.2440  -31.9290 C   0  0  0  0  0  0  0  0  0  0  0  0
   -7.8520   20.2490  -32.1160 C   0  0  0  0  0  0  0  0  0  0  0  0
   -8.9040   20.9090  -31.5160 C   0  0  0  0  0  0  0  0  0  0  0  0
   -8.8710   22.2850  -31.2720 C   0  0  0  0  0  0  0  0  0  0  0  0
   -7.7630   23.0210  -31.6370 C   0  0  0  0  0  0  0  0  0  0  0  0
   -6.7160   22.3710  -32.2330 C   0  0  0  0  0  0  0  0  0  0  0  0
   -6.7510   21.0030  -32.4740 C   0  0  0  0  0  0  0  0  0  0  0  0
   -5.9817   25.3739  -28.6246 H   0  0  0  0  0  0  0  0  0  0  0  0
   -6.2068   26.5660  -29.9493 H   0  0  0  0  0  0  0  0  0  0  0  0
   -7.1467   25.0352  -29.9493 H   0  0  0  0  0  0  0  0  0  0  0  0
   -5.5400   24.1637  -31.2399 H   0  0  0  0  0  0  0  0  0  0  0  0
   -4.4796   25.5943  -30.9835 H   0  0  0  0  0  0  0  0  0  0  0  0
   -3.9205   23.7609  -27.5801 H   0  0  0  0  0  0  0  0  0  0  0  0
   -4.4514   25.4132  -28.0434 H   0  0  0  0  0  0  0  0  0  0  0  0
   -5.6304   24.0580  -28.0434 H   0  0  0  0  0  0  0  0  0  0  0  0
   -4.6237   22.1150  -29.0507 H   0  0  0  0  0  0  0  0  0  0  0  0
   -5.0583   22.6010  -30.7752 H   0  0  0  0  0  0  0  0  0  0  0  0
   -2.2197   22.5470  -29.9555 H   0  0  0  0  0  0  0  0  0  0  0  0
   -3.1309   20.9893  -30.2852 H   0  0  0  0  0  0  0  0  0  0  0  0
   -3.4290   23.1150  -32.2969 H   0  0  0  0  0  0  0  0  0  0  0  0
   -1.7801   22.3554  -32.1320 H   0  0  0  0  0  0  0  0  0  0  0  0
   -2.5299   20.7997  -33.4878 H   0  0  0  0  0  0  0  0  0  0  0  0
   -3.4868   20.2345  -32.0221 H   0  0  0  0  0  0  0  0  0  0  0  0
   -4.5840   21.9160  -34.2320 H   0  0  0  0  0  0  0  0  0  0  0  0
   -3.7864   18.9945  -34.1758 H   0  0  0  0  0  0  0  0  0  0  0  0
   -3.8189   16.5602  -34.5911 H   0  0  0  0  0  0  0  0  0  0  0  0
   -5.8261   15.2722  -33.9241 H   0  0  0  0  0  0  0  0  0  0  0  0
   -7.7708   16.3618  -32.8614 H   0  0  0  0  0  0  0  0  0  0  0  0
   -9.1768   18.2162  -30.8305 H   0  0  0  0  0  0  0  0  0  0  0  0
   -9.9946   18.7924  -32.3225 H   0  0  0  0  0  0  0  0  0  0  0  0
   -9.1319   17.2168  -32.3225 H   0  0  0  0  0  0  0  0  0  0  0  0
   -9.7952   20.3357  -31.2208 H   0  0  0  0  0  0  0  0  0  0  0  0
   -9.7269   22.7799  -30.7899 H   0  0  0  0  0  0  0  0  0  0  0  0
   -7.7217   24.1048  -31.4535 H   0  0  0  0  0  0  0  0  0  0  0  0
   -5.8256   22.9455  -32.5282 H   0  0  0  0  0  0  0  0  0  0  0  0
  1  2  1  0
  2  3  1  0
  3  4  1  0
  3  5  1  0
  5  6  1  0
  6  7  1  0
  7  8  1  0
  8  9  1  0
  9 10  1  0
 10 11  2  0
 11 12  1  0
 12 13  2  0
 13 14  1  0
 14 15  2  0
 15 16  1  0
 16 17  2  0
 17 18  1  0
 17 19  1  0
 19 20  2  0
 20 21  1  0
 21 22  2  0
 22 23  1  0
 23 24  2  0
 24 10  1  0
 16 11  1  0
 24 19  1  0
  1 25  1  0
  1 26  1  0
  1 27  1  0
  2 28  1  0
  2 29  1  0
  4 30  1  0
  4 31  1  0
  4 32  1  0
  5 33  1  0
  5 34  1  0
  6 35  1  0
  6 36  1  0
  7 37  1  0
  7 38  1  0
  8 39  1  0
  8 40  1  0
  9 41  1  0
 12 42  1  0
 13 43  1  0
 14 44  1  0
 15 45  1  0
 18 46  1  0
 18 47  1  0
 18 48  1  0
 20 49  1  0
 21 50  1  0
 22 51  1  0
 23 52  1  0
M  CHG  1  17   1
M  END
>  <smiles>  (1) 
CCN(C)CCCCNc1c2ccccc2[n+](C)c2ccccc12

>  <score_type>  (1) 
oracle

>  <origin>  (1) 
adg

>  <m_score__min__energy>  (1) 
-8.7200000000000006

>  <m_primary>  (1) 
energy

$$$$
1:0
     RDKit          3D

 59 59  0  0  0  0  0  0  0  0999 V2000
   -6.2240   18.6070  -33.7030 C   0  0  0  0  0  0  0  0  0  0  0  0
   -6.6940   18.1990  -32.3170 C   0  0  0  0  0  0  0  0  0  0  0  0
   -8.0430   17.9320  -32.3870 O   0  0  0  0  0  0  0  0  0  0  0  0
   -8.7580   18.7740  -31.5810 C   0  0  0  0  0  0  0  0  0  0  0  0
   -9.0520   20.0770  -32.2690 C   0  0  0  0  0  0  0  0  0  0  0  0
   -8.4510   21.2280  -31.4830 C   0  0  0  0  0  0  0  0  0  0  0  0
   -7.5070   22.0150  -32.2020 N   0  0  0  0  0  0  0  0  0  0  0  0
   -6.1850   21.6260  -31.6650 C   0  0  0  0  0  0  0  0  0  0  0  0
   -5.2320   22.6080  -32.3660 C   0  0  0  0  0  0  0  0  0  0  0  0
   -5.3460   23.8530  -31.5890 N   0  0  0  0  0  0  0  0  0  0  0  0
   -4.3350   23.7940  -30.5920 C   0  0  0  0  0  0  0  0  0  0  0  0
   -4.5930   24.4700  -29.2930 C   0  0  0  0  0  0  0  0  0  0  0  0
   -3.2670   24.5430  -28.5090 C   0  0  0  0  0  0  0  0  0  0  0  0
   -2.3330   25.2890  -29.1660 O   0  0  0  0  0  0  0  0  0  0  0  0
   -1.0310   24.8970  -28.9370 C   0  0  0  0  0  0  0  0  0  0  0  0
   -0.5010   25.3030  -27.5860 C   0  0  0  0  0  0  0  0  0  0  0  0
   -1.2380   26.3740  -26.9690 N   0  0  0  0  0  0  0  0  0  0  0  0
   -0.4780   27.5940  -26.8820 C   0  0  0  0  0  0  0  0  0  0  0  0
   -1.9260   26.0590  -25.7680 C   0  0  0  0  0  0  0  0  0  0  0  0
   -1.2010   26.5150  -24.5070 C   0  0  0  0  0  0  0  0  0  0  0  0
   -6.6710   24.0700  -31.1410 C   0  0  0  0  0  0  0  0  0  0  0  0
   -7.6640   23.4360  -32.0890 C   0  0  0  0  0  0  0  0  0  0  0  0
   -5.3961   19.3257  -33.6126 H   0  0  0  0  0  0  0  0  0  0  0  0
   -5.8790   17.7171  -34.2499 H   0  0  0  0  0  0  0  0  0  0  0  0
   -7.0566   19.0736  -34.2499 H   0  0  0  0  0  0  0  0  0  0  0  0
   -6.1520   17.2999  -31.9886 H   0  0  0  0  0  0  0  0  0  0  0  0
   -6.5010   19.0061  -31.5949 H   0  0  0  0  0  0  0  0  0  0  0  0
   -9.7082   18.2897  -31.3115 H   0  0  0  0  0  0  0  0  0  0  0  0
   -8.1579   18.9852  -30.6836 H   0  0  0  0  0  0  0  0  0  0  0  0
   -8.6184   20.0609  -33.2798 H   0  0  0  0  0  0  0  0  0  0  0  0
  -10.1417   20.2136  -32.3318 H   0  0  0  0  0  0  0  0  0  0  0  0
   -9.2707   21.8869  -31.1608 H   0  0  0  0  0  0  0  0  0  0  0  0
   -7.9014   20.7759  -30.6442 H   0  0  0  0  0  0  0  0  0  0  0  0
   -6.1487   21.7498  -30.5726 H   0  0  0  0  0  0  0  0  0  0  0  0
   -5.9341   20.5704  -31.8462 H   0  0  0  0  0  0  0  0  0  0  0  0
   -4.1993   22.2296  -32.3443 H   0  0  0  0  0  0  0  0  0  0  0  0
   -5.4871   22.7526  -33.4262 H   0  0  0  0  0  0  0  0  0  0  0  0
   -4.1504   22.7313  -30.3763 H   0  0  0  0  0  0  0  0  0  0  0  0
   -3.4896   24.3480  -31.0260 H   0  0  0  0  0  0  0  0  0  0  0  0
   -4.9746   25.4860  -29.4725 H   0  0  0  0  0  0  0  0  0  0  0  0
   -5.3417   23.9068  -28.7166 H   0  0  0  0  0  0  0  0  0  0  0  0
   -3.4588   24.9972  -27.5257 H   0  0  0  0  0  0  0  0  0  0  0  0
   -2.8755   23.5207  -28.4013 H   0  0  0  0  0  0  0  0  0  0  0  0
   -0.9804   23.8009  -29.0140 H   0  0  0  0  0  0  0  0  0  0  0  0
   -0.4079   25.4018  -29.6899 H   0  0  0  0  0  0  0  0  0  0  0  0
   -0.5401   24.4275  -26.9211 H   0  0  0  0  0  0  0  0  0  0  0  0
    0.5245   25.6691  -27.7419 H   0  0  0  0  0  0  0  0  0  0  0  0
   -0.3176   27.8515  -25.8247 H   0  0  0  0  0  0  0  0  0  0  0  0
    0.4944   27.4564  -27.3774 H   0  0  0  0  0  0  0  0  0  0  0  0
   -1.0302   28.4061  -27.3774 H   0  0  0  0  0  0  0  0  0  0  0  0
   -2.9127   26.5445  -25.7958 H   0  0  0  0  0  0  0  0  0  0  0  0
   -1.9981   24.9625  -25.7178 H   0  0  0  0  0  0  0  0  0  0  0  0
   -1.7528   26.1679  -23.6210 H   0  0  0  0  0  0  0  0  0  0  0  0
   -0.1853   26.0928  -24.4950 H   0  0  0  0  0  0  0  0  0  0  0  0
   -1.1417   27.6133  -24.4950 H   0  0  0  0  0  0  0  0  0  0  0  0
   -6.7918   23.6269  -30.1415 H   0  0  0  0  0  0  0  0  0  0  0  0
   -6.8594   25.1531  -31.1024 H   0  0  0  0  0  0  0  0  0  0  0  0
   -8.6800   23.6479  -31.7246 H   0  0  0  0  0  0  0  0  0  0  0  0
   -7.4855   23.8656  -33.0858 H   0  0  0  0  0  0  0  0  0  0  0  0
  1  2  1  0
  2  3  1  0
  3  4  1  0
  4  5  1  0
  5  6  1  0
  6  7  1  0
  7  8  1  0
  8  9  1  0
  9 10  1  0
 10 11  1  0
 11 12  1  0
 12 13  1  0
 13 14  1  0
 14 15  1  0
 15 16  1  0
 16 17  1  0
 17 18  1  0
 17 19  1  0
 19 20  1  0
 10 21  1  0
 21 22  1  0
 22  7  1  0
  1 23  1  0
  1 24  1  0
  1 25  1  0
  2 26  1  0
  2 27  1  0
  4 28  1  0
  4 29  1  0
  5 30  1  0
  5 31  1  0
  6 32  1  0
  6 33  1  0
  8 34  1  0
  8 35  1  0
  9 36  1  0
  9 37  1  0
 11 38  1  0
 11 39  1  0
 12 40  1  0
 12 41  1  0
 13 42  1  0
 13 43  1  0
 15 44  1  0
 15 45  1  0
 16 46  1  0
 16 47  1  0
 18 48  1  0
 18 49  1  0
 18 50  1  0
 19 51  1  0
 19 52  1  0
 20 53  1  0
 20 54  1  0
 20 55  1  0
 21 56  1  0
 21 57  1  0
 22 58  1  0
 22 59  1  0
M  END
>  <smiles>  (2) 
CCOCCCN1CCN(CCCOCCN(C)CC)CC1

>  <score_type>  (2) 
oracle

>  <origin>  (2) 
adg

>  <m_score__min__energy>  (2) 
-6.8099999999999996

>  <m_primary>  (2) 
energy

$$$$
2:0
     RDKit          3D

 64 66  0  0  0  0  0  0  0  0999 V2000
   -1.8150   25.4790  -26.9150 C   0  0  0  0  0  0  0  0  0  0  0  0
   -1.2520   25.8210  -28.2640 C   0  0  0  0  0  0  0  0  0  0  0  0
   -1.7840   25.0770  -29.2880 O   0  0  0  0  0  0  0  0  0  0  0  0
   -1.2450   23.8230  -29.4100 C   0  0  0  0  0  0  0  0  0  0  0  0
   -2.1050   22.7410  -28.7480 C   0  0  0  0  0  0  0  0  0  0  0  0
   -3.3550   22.6840  -29.2920 O   0  0  0  0  0  0  0  0  0  0  0  0
   -4.3200   23.0900  -28.4090 C   0  0  0  0  0  0  0  0  0  0  0  0
   -4.7570   24.5290  -28.6350 C   0  0  0  0  0  0  0  0  0  0  0  0
   -4.3000   24.9780  -29.9240 N   0  0  0  0  0  0  0  0  0  0  0  0
   -5.3600   25.3340  -30.8320 C   0  0  0  0  0  0  0  0  0  0  0  0
   -5.7500   24.1790  -31.6670 C   0  0  0  0  0  0  0  0  0  0  0  0
   -5.0970   22.9190  -31.3430 N   0  0  0  0  0  0  0  0  0  0  0  0
   -5.3620   21.7010  -31.9980 C   0  0  0  0  0  0  0  0  0  0  0  0
   -6.6730   21.2010  -31.9620 C   0  0  0  0  0  0  0  0  0  0  0  0
   -7.0270   20.0240  -32.5740 C   0  0  0  0  0  0  0  0  0  0  0  0
   -6.0720   19.3040  -33.2510 N   0  0  0  0  0  0  0  0  0  0  0  0
   -6.4220   18.0550  -33.9040 C   0  0  0  0  0  0  0  0  0  0  0  0
   -6.1760   16.8600  -32.9980 C   0  0  0  0  0  0  0  0  0  0  0  0
   -4.7900   19.7720  -33.3010 C   0  0  0  0  0  0  0  0  0  0  0  0
   -3.7940   19.0980  -33.9770 C   0  0  0  0  0  0  0  0  0  0  0  0
   -2.4910   19.5500  -34.0580 C   0  0  0  0  0  0  0  0  0  0  0  0
   -2.1400   20.7310  -33.4440 C   0  0  0  0  0  0  0  0  0  0  0  0
   -3.1320   21.4120  -32.7640 C   0  0  0  0  0  0  0  0  0  0  0  0
   -4.4290   20.9570  -32.6840 C   0  0  0  0  0  0  0  0  0  0  0  0
   -8.3820   19.4390  -32.5780 C   0  0  0  0  0  0  0  0  0  0  0  0
   -9.3610   20.3780  -31.9740 C   0  0  0  0  0  0  0  0  0  0  0  0
   -8.9820   21.8170  -31.9550 C   0  0  0  0  0  0  0  0  0  0  0  0
   -7.6670   22.0460  -31.2050 C   0  0  0  0  0  0  0  0  0  0  0  0
   -1.1560   25.8793  -26.1305 H   0  0  0  0  0  0  0  0  0  0  0  0
   -2.8170   25.9212  -26.8131 H   0  0  0  0  0  0  0  0  0  0  0  0
   -1.8845   24.3859  -26.8131 H   0  0  0  0  0  0  0  0  0  0  0  0
   -1.4535   26.8835  -28.4654 H   0  0  0  0  0  0  0  0  0  0  0  0
   -0.1755   25.5977  -28.2295 H   0  0  0  0  0  0  0  0  0  0  0  0
   -1.1438   23.5863  -30.4794 H   0  0  0  0  0  0  0  0  0  0  0  0
   -0.2703   23.8300  -28.9001 H   0  0  0  0  0  0  0  0  0  0  0  0
   -1.6142   21.7655  -28.8805 H   0  0  0  0  0  0  0  0  0  0  0  0
   -2.2073   22.9905  -27.6816 H   0  0  0  0  0  0  0  0  0  0  0  0
   -5.1965   22.4348  -28.5204 H   0  0  0  0  0  0  0  0  0  0  0  0
   -3.8910   23.0288  -27.3980 H   0  0  0  0  0  0  0  0  0  0  0  0
   -5.8547   24.5883  -28.5952 H   0  0  0  0  0  0  0  0  0  0  0  0
   -4.3239   25.1686  -27.8518 H   0  0  0  0  0  0  0  0  0  0  0  0
   -3.6130   24.3380  -30.3670 H   0  0  0  0  0  0  0  0  0  0  0  0
   -6.2325   25.6704  -30.2527 H   0  0  0  0  0  0  0  0  0  0  0  0
   -5.0024   26.1389  -31.4910 H   0  0  0  0  0  0  0  0  0  0  0  0
   -6.8352   24.0350  -31.5597 H   0  0  0  0  0  0  0  0  0  0  0  0
   -5.4331   24.4274  -32.6907 H   0  0  0  0  0  0  0  0  0  0  0  0
   -4.3700   22.8800  -30.5670 H   0  0  0  0  0  0  0  0  0  0  0  0
   -7.4871   18.0818  -34.1776 H   0  0  0  0  0  0  0  0  0  0  0  0
   -5.7888   17.9451  -34.7967 H   0  0  0  0  0  0  0  0  0  0  0  0
   -6.2413   17.1773  -31.9468 H   0  0  0  0  0  0  0  0  0  0  0  0
   -6.9340   16.0878  -33.1957 H   0  0  0  0  0  0  0  0  0  0  0  0
   -5.1746   16.4500  -33.1957 H   0  0  0  0  0  0  0  0  0  0  0  0
   -4.0504   18.1524  -34.4771 H   0  0  0  0  0  0  0  0  0  0  0  0
   -1.7378   18.9691  -34.6104 H   0  0  0  0  0  0  0  0  0  0  0  0
   -1.1112   21.1173  -33.4926 H   0  0  0  0  0  0  0  0  0  0  0  0
   -2.8743   22.3580  -32.2654 H   0  0  0  0  0  0  0  0  0  0  0  0
   -8.6797   19.2247  -33.6150 H   0  0  0  0  0  0  0  0  0  0  0  0
   -8.3688   18.5124  -31.9854 H   0  0  0  0  0  0  0  0  0  0  0  0
  -10.3010   20.2882  -32.5383 H   0  0  0  0  0  0  0  0  0  0  0  0
   -9.4303   20.0831  -30.9165 H   0  0  0  0  0  0  0  0  0  0  0  0
   -8.8678   22.1693  -32.9908 H   0  0  0  0  0  0  0  0  0  0  0  0
   -9.7752   22.3738  -31.4346 H   0  0  0  0  0  0  0  0  0  0  0  0
   -7.3800   23.1076  -31.2312 H   0  0  0  0  0  0  0  0  0  0  0  0
   -7.7310   21.7783  -30.1400 H   0  0  0  0  0  0  0  0  0  0  0  0
  1  2  1  0
  2  3  1  0
  3  4  1  0
  4  5  1  0
  5  6  1  0
  6  7  1  0
  7  8  1  0
  8  9  1  0
  9 10  1  0
 10 11  1  0
 11 12  1  0
 12 13  1  0
 13 14  2  0
 14 15  1  0
 15 16  2  0
 16 17  1  0
 17 18  1  0
 16 19  1  0
 19 20  2  0
 20 21  1  0
 21 22  2  0
 22 23  1  0
 23 24  2  0
 15 25  1  0
 25 26  1  0
 26 27  1  0
 27 28  1  0
 24 13  1  0
 28 14  1  0
 24 19  1  0
  1 29  1  0
  1 30  1  0
  1 31  1  0
  2 32  1  0
  2 33  1  0
  4 34  1  0
  4 35  1  0
  5 36  1  0
  5 37  1  0
  7 38  1  0
  7 39  1  0
  8 40  1  0
  8 41  1  0
  9 42  1  0
 10 43  1  0
 10 44  1  0
 11 45  1  0
 11 46  1  0
 12 47  1  0
 17 48  1  0
 17 49  1  0
 18 50  1  0
 18 51  1  0
 18 52  1  0
 20 53  1  0
 21 54  1  0
 22 55  1  0
 23 56  1  0
 25 57  1  0
 25 58  1  0
 26 59  1  0
 26 60  1  0
 27 61  1  0
 27 62  1  0
 28 63  1  0
 28 64  1  0
M  CHG  1  16   1
M  END
>  <smiles>  (3) 
CCOCCOCCNCCNc1c2c([n+](CC)c3ccccc13)CCCC2

>  <score_type>  (3) 
oracle

>  <origin>  (3) 
adg

>  <m_score__min__energy>  (3) 
-9.8100000000000005

>  <m_primary>  (3) 
energy

$$$$
3:0
     RDKit          3D

 50 51  0  0  0  0  0  0  0  0999 V2000
    0.0770   23.1340  -26.1520 C   0  0  0  0  0  0  0  0  0  0  0  0
    0.3860   22.9480  -27.6200 C   0  0  0  0  0  0  0  0  0  0  0  0
    0.6330   24.2380  -28.2830 N   0  0  0  0  0  0  0  0  0  0  0  0
    0.5230   25.2460  -27.2420 C   0  0  0  0  0  0  0  0  0  0  0  0
   -0.4710   26.3300  -27.5970 C   0  0  0  0  0  0  0  0  0  0  0  0
   -1.8310   25.6420  -27.7410 C   0  0  0  0  0  0  0  0  0  0  0  0
   -2.0700   25.2460  -29.0320 O   0  0  0  0  0  0  0  0  0  0  0  0
   -2.6730   24.0240  -29.1860 C   0  0  0  0  0  0  0  0  0  0  0  0
   -3.4720   23.9030  -30.4600 C   0  0  0  0  0  0  0  0  0  0  0  0
   -4.1250   25.0520  -30.8380 O   0  0  0  0  0  0  0  0  0  0  0  0
   -5.2140   25.2910  -30.0420 C   0  0  0  0  0  0  0  0  0  0  0  0
   -6.5110   24.7420  -30.5770 C   0  0  0  0  0  0  0  0  0  0  0  0
   -6.2860   23.7520  -31.6060 N   0  0  0  0  0  0  0  0  0  0  0  0
   -6.9860   22.6150  -31.9460 C   0  0  0  0  0  0  0  0  0  0  0  0
   -8.3490   22.4120  -31.7910 C   0  0  0  0  0  0  0  0  0  0  0  0
   -8.9920   21.2360  -32.1110 C   0  0  0  0  0  0  0  0  0  0  0  0
  -10.2470   21.1320  -31.9390 O   0  0  0  0  0  0  0  0  0  0  0  0
   -8.3060   20.2300  -32.5930 O   0  0  0  0  0  0  0  0  0  0  0  0
   -6.9920   20.3310  -32.7760 C   0  0  0  0  0  0  0  0  0  0  0  0
   -6.3690   19.2230  -33.2830 C   0  0  0  0  0  0  0  0  0  0  0  0
   -5.0290   19.2190  -33.5090 C   0  0  0  0  0  0  0  0  0  0  0  0
   -4.3170   20.3590  -33.2140 C   0  0  0  0  0  0  0  0  0  0  0  0
   -4.9580   21.4900  -32.6960 C   0  0  0  0  0  0  0  0  0  0  0  0
   -6.3150   21.4890  -32.4680 C   0  0  0  0  0  0  0  0  0  0  0  0
    0.8649   22.6597  -25.5485 H   0  0  0  0  0  0  0  0  0  0  0  0
    0.0338   24.2083  -25.9196 H   0  0  0  0  0  0  0  0  0  0  0  0
   -0.8926   22.6693  -25.9196 H   0  0  0  0  0  0  0  0  0  0  0  0
    1.2811   22.3166  -27.7204 H   0  0  0  0  0  0  0  0  0  0  0  0
   -0.4822   22.4723  -28.0995 H   0  0  0  0  0  0  0  0  0  0  0  0
   -0.1080   24.3500  -29.0220 H   0  0  0  0  0  0  0  0  0  0  0  0
    0.1982   24.7591  -26.3107 H   0  0  0  0  0  0  0  0  0  0  0  0
    1.5094   25.7184  -27.1246 H   0  0  0  0  0  0  0  0  0  0  0  0
   -0.5101   27.0860  -26.7989 H   0  0  0  0  0  0  0  0  0  0  0  0
   -0.1845   26.8437  -28.5266 H   0  0  0  0  0  0  0  0  0  0  0  0
   -1.8528   24.7572  -27.0879 H   0  0  0  0  0  0  0  0  0  0  0  0
   -2.6102   26.3644  -27.4564 H   0  0  0  0  0  0  0  0  0  0  0  0
   -1.8926   23.2487  -29.1896 H   0  0  0  0  0  0  0  0  0  0  0  0
   -3.3774   23.9033  -28.3498 H   0  0  0  0  0  0  0  0  0  0  0  0
   -2.7849   23.6168  -31.2699 H   0  0  0  0  0  0  0  0  0  0  0  0
   -4.2512   23.1505  -30.2686 H   0  0  0  0  0  0  0  0  0  0  0  0
   -5.0275   24.8350  -29.0585 H   0  0  0  0  0  0  0  0  0  0  0  0
   -5.3327   26.3835  -29.9938 H   0  0  0  0  0  0  0  0  0  0  0  0
   -7.0697   24.2777  -29.7510 H   0  0  0  0  0  0  0  0  0  0  0  0
   -7.0804   25.5733  -31.0182 H   0  0  0  0  0  0  0  0  0  0  0  0
   -5.4070   23.9770  -32.1850 H   0  0  0  0  0  0  0  0  0  0  0  0
   -8.9527   23.2388  -31.3887 H   0  0  0  0  0  0  0  0  0  0  0  0
   -6.9606   18.3240  -33.5105 H   0  0  0  0  0  0  0  0  0  0  0  0
   -4.5273   18.3290  -33.9165 H   0  0  0  0  0  0  0  0  0  0  0  0
   -3.2310   20.3815  -33.3874 H   0  0  0  0  0  0  0  0  0  0  0  0
   -4.3697   22.3911  -32.4682 H   0  0  0  0  0  0  0  0  0  0  0  0
  1  2  1  0
  2  3  1  0
  3  4  1  0
  4  5  1  0
  5  6  1  0
  6  7  1  0
  7  8  1  0
  8  9  1  0
  9 10  1  0
 10 11  1  0
 11 12  1  0
 12 13  1  0
 13 14  1  0
 14 15  2  0
 15 16  1  0
 16 17  2  0
 16 18  1  0
 18 19  1  0
 19 20  2  0
 20 21  1  0
 21 22  2  0
 22 23  1  0
 23 24  2  0
 24 14  1  0
 24 19  1  0
  1 25  1  0
  1 26  1  0
  1 27  1  0
  2 28  1  0
  2 29  1  0
  3 30  1  0
  4 31  1  0
  4 32  1  0
  5 33  1  0
  5 34  1  0
  6 35  1  0
  6 36  1  0
  8 37  1  0
  8 38  1  0
  9 39  1  0
  9 40  1  0
 11 41  1  0
 11 42  1  0
 12 43  1  0
 12 44  1  0
 13 45  1  0
 15 46  1  0
 20 47  1  0
 21 48  1  0
 22 49  1  0
 23 50  1  0
M  END
>  <smiles>  (4) 
CCNCCCOCCOCCNc1cc(=O)oc2ccccc12

>  <score_type>  (4) 
oracle

>  <origin>  (4) 
adg

>  <m_score__min__energy>  (4) 
-7.0800000000000001

>  <m_primary>  (4) 
energy

$$$$
4:0
     RDKit          3D

 66 69  0  0  0  0  0  0  0  0999 V2000
   -1.9290   23.0620  -30.0980 C   0  0  0  0  0  0  0  0  0  0  0  0
   -3.3150   23.0350  -30.7610 C   0  0  0  0  0  0  0  0  0  0  0  0
   -3.8790   24.3520  -30.4940 N   0  0  0  0  0  0  0  0  0  0  0  0
   -3.9950   24.5260  -29.0360 C   0  0  0  0  0  0  0  0  0  0  0  0
   -4.5600   23.2960  -28.3620 C   0  0  0  0  0  0  0  0  0  0  0  0
   -5.1480   24.5800  -31.1230 C   0  0  0  0  0  0  0  0  0  0  0  0
   -5.9610   23.3400  -31.1920 C   0  0  0  0  0  0  0  0  0  0  0  0
   -5.8060   22.6320  -32.4280 N   0  0  0  0  0  0  0  0  0  0  0  0
   -5.9330   21.2590  -32.6450 C   0  0  0  0  0  0  0  0  0  0  0  0
   -4.7830   20.6060  -33.1260 C   0  0  0  0  0  0  0  0  0  0  0  0
   -3.6250   21.3180  -33.3350 C   0  0  0  0  0  0  0  0  0  0  0  0
   -2.4980   20.6710  -33.8100 C   0  0  0  0  0  0  0  0  0  0  0  0
   -1.2760   21.3570  -34.0350 N   0  0  0  0  0  0  0  0  0  0  0  0
    0.0160   20.8340  -33.6190 C   0  0  0  0  0  0  0  0  0  0  0  0
    1.0450   21.2370  -34.6460 C   0  0  0  0  0  0  0  0  0  0  0  0
    1.0780   22.6370  -34.9390 N   0  0  0  0  0  0  0  0  0  0  0  0
    0.2600   23.0000  -36.0770 C   0  0  0  0  0  0  0  0  0  0  0  0
    0.6800   24.4370  -36.3120 C   0  0  0  0  0  0  0  0  0  0  0  0
    2.0590   24.5670  -35.6800 C   0  0  0  0  0  0  0  0  0  0  0  0
    2.3800   23.1000  -35.3980 C   0  0  0  0  0  0  0  0  0  0  0  0
   -2.6230   19.3190  -34.0470 C   0  0  0  0  0  0  0  0  0  0  0  0
   -3.7810   18.6080  -33.8380 C   0  0  0  0  0  0  0  0  0  0  0  0
   -4.9220   19.2630  -33.3560 C   0  0  0  0  0  0  0  0  0  0  0  0
   -6.0310   18.5510  -33.1660 N   0  0  0  0  0  0  0  0  0  0  0  0
   -5.9790   17.1380  -33.4600 C   0  0  0  0  0  0  0  0  0  0  0  0
   -7.1790   19.1620  -32.6970 C   0  0  0  0  0  0  0  0  0  0  0  0
   -8.3630   18.5700  -32.4780 C   0  0  0  0  0  0  0  0  0  0  0  0
   -9.3880   19.3870  -32.0220 C   0  0  0  0  0  0  0  0  0  0  0  0
   -8.6310   21.0380  -31.9060 S   0  0  0  0  0  0  0  0  0  0  0  0
   -7.0640   20.4940  -32.4610 C   0  0  0  0  0  0  0  0  0  0  0  0
   -2.0457   23.0597  -29.0042 H   0  0  0  0  0  0  0  0  0  0  0  0
   -1.3571   22.1748  -30.4076 H   0  0  0  0  0  0  0  0  0  0  0  0
   -1.3921   23.9708  -30.4076 H   0  0  0  0  0  0  0  0  0  0  0  0
   -3.2237   22.8645  -31.8439 H   0  0  0  0  0  0  0  0  0  0  0  0
   -3.9475   22.2245  -30.3699 H   0  0  0  0  0  0  0  0  0  0  0  0
   -2.9966   24.7307  -28.6222 H   0  0  0  0  0  0  0  0  0  0  0  0
   -4.6831   25.3632  -28.8474 H   0  0  0  0  0  0  0  0  0  0  0  0
   -4.5040   23.4178  -27.2702 H   0  0  0  0  0  0  0  0  0  0  0  0
   -5.6096   23.1626  -28.6627 H   0  0  0  0  0  0  0  0  0  0  0  0
   -3.9773   22.4128  -28.6627 H   0  0  0  0  0  0  0  0  0  0  0  0
   -5.7005   25.3361  -30.5459 H   0  0  0  0  0  0  0  0  0  0  0  0
   -4.9625   24.9243  -32.1511 H   0  0  0  0  0  0  0  0  0  0  0  0
   -5.6576   22.6767  -30.3686 H   0  0  0  0  0  0  0  0  0  0  0  0
   -7.0174   23.6368  -31.1153 H   0  0  0  0  0  0  0  0  0  0  0  0
   -5.5650   23.2230  -33.2840 H   0  0  0  0  0  0  0  0  0  0  0  0
   -3.5950   22.3974  -33.1254 H   0  0  0  0  0  0  0  0  0  0  0  0
   -1.3420   22.2940  -34.5320 H   0  0  0  0  0  0  0  0  0  0  0  0
    0.2872   21.2508  -32.6378 H   0  0  0  0  0  0  0  0  0  0  0  0
   -0.0280   19.7379  -33.5375 H   0  0  0  0  0  0  0  0  0  0  0  0
    2.0365   20.9412  -34.2725 H   0  0  0  0  0  0  0  0  0  0  0  0
    0.7670   20.7294  -35.5814 H   0  0  0  0  0  0  0  0  0  0  0  0
    0.4844   22.3689  -36.9496 H   0  0  0  0  0  0  0  0  0  0  0  0
   -0.8196   22.8722  -35.9095 H   0  0  0  0  0  0  0  0  0  0  0  0
    0.7294   24.6516  -37.3897 H   0  0  0  0  0  0  0  0  0  0  0  0
   -0.0371   25.1480  -35.8759 H   0  0  0  0  0  0  0  0  0  0  0  0
    2.7837   25.0140  -36.3765 H   0  0  0  0  0  0  0  0  0  0  0  0
    2.0967   25.2210  -34.7963 H   0  0  0  0  0  0  0  0  0  0  0  0
    2.7036   22.5714  -36.3068 H   0  0  0  0  0  0  0  0  0  0  0  0
    3.2052   22.9354  -34.6895 H   0  0  0  0  0  0  0  0  0  0  0  0
   -1.7441   18.7767  -34.4258 H   0  0  0  0  0  0  0  0  0  0  0  0
   -3.8116   17.5288  -34.0484 H   0  0  0  0  0  0  0  0  0  0  0  0
   -5.9580   16.5683  -32.5193 H   0  0  0  0  0  0  0  0  0  0  0  0
   -6.8672   16.8517  -34.0423 H   0  0  0  0  0  0  0  0  0  0  0  0
   -5.0721   16.9178  -34.0423 H   0  0  0  0  0  0  0  0  0  0  0  0
   -8.5133   17.4941  -32.6507 H   0  0  0  0  0  0  0  0  0  0  0  0
  -10.4234   19.1014  -31.7845 H   0  0  0  0  0  0  0  0  0  0  0  0
  1  2  1  0
  2  3  1  0
  3  4  1  0
  4  5  1  0
  3  6  1  0
  6  7  1  0
  7  8  1  0
  8  9  1  0
  9 10  2  0
 10 11  1  0
 11 12  2  0
 12 13  1  0
 13 14  1  0
 14 15  1  0
 15 16  1  0
 16 17  1  0
 17 18  1  0
 18 19  1  0
 19 20  1  0
 12 21  1  0
 21 22  2  0
 22 23  1  0
 23 24  2  0
 24 25  1  0
 24 26  1  0
 26 27  1  0
 27 28  2  0
 28 29  1  0
 29 30  1  0
 30  9  1  0
 23 10  1  0
 30 26  2  0
 20 16  1  0
  1 31  1  0
  1 32  1  0
  1 33  1  0
  2 34  1  0
  2 35  1  0
  4 36  1  0
  4 37  1  0
  5 38  1  0
  5 39  1  0
  5 40  1  0
  6 41  1  0
  6 42  1  0
  7 43  1  0
  7 44  1  0
  8 45  1  0
 11 46  1  0
 13 47  1  0
 14 48  1  0
 14 49  1  0
 15 50  1  0
 15 51  1  0
 17 52  1  0
 17 53  1  0
 18 54  1  0
 18 55  1  0
 19 56  1  0
 19 57  1  0
 20 58  1  0
 20 59  1  0
 21 60  1  0
 22 61  1  0
 25 62  1  0
 25 63  1  0
 25 64  1  0
 27 65  1  0
 28 66  1  0
M  CHG  1  24   1
M  END
>  <smiles>  (5) 
CCN(CC)CCNc1c2cc(NCCN3CCCC3)ccc2[n+](C)c2ccsc12

>  <score_type>  (5) 
oracle

>  <origin>  (5) 
adg

>  <m_score__min__energy>  (5) 
-9.3599999999999994

>  <m_primary>  (5) 
energy

$$$$
5:0
     RDKit          3D

 32 34  0  0  0  0  0  0  0  0999 V2000
   -1.2780   20.7290  -30.6020 C   0  0  0  0  0  0  0  0  0  0  0  0
   -2.1570   21.9190  -30.5160 C   0  0  0  0  0  0  0  0  0  0  0  0
   -1.8110   23.0320  -29.7780 C   0  0  0  0  0  0  0  0  0  0  0  0
   -2.6590   24.1210  -29.7220 C   0  0  0  0  0  0  0  0  0  0  0  0
   -2.3570   25.1220  -29.0630 O   0  0  0  0  0  0  0  0  0  0  0  0
   -3.8060   24.0260  -30.4140 N   0  0  0  0  0  0  0  0  0  0  0  0
   -4.1590   22.9540  -31.1370 C   0  0  0  0  0  0  0  0  0  0  0  0
   -3.3190   21.8750  -31.1920 N   0  0  0  0  0  0  0  0  0  0  0  0
   -5.3310   23.5540  -31.5050 N   0  0  0  0  0  0  0  0  0  0  0  0
   -6.3890   23.0540  -32.3510 C   0  0  0  0  0  0  0  0  0  0  0  0
   -6.4490   21.5960  -32.4430 C   0  0  0  0  0  0  0  0  0  0  0  0
   -5.4950   20.7920  -33.0250 C   0  0  0  0  0  0  0  0  0  0  0  0
   -4.3980   21.3750  -33.5570 F   0  0  0  0  0  0  0  0  0  0  0  0
   -5.5870   19.4190  -33.0980 C   0  0  0  0  0  0  0  0  0  0  0  0
   -6.7010   18.7870  -32.5570 C   0  0  0  0  0  0  0  0  0  0  0  0
   -7.6810   19.5560  -31.9650 C   0  0  0  0  0  0  0  0  0  0  0  0
   -7.5570   20.9400  -31.9080 C   0  0  0  0  0  0  0  0  0  0  0  0
   -8.8410   21.8530  -31.1400 Cl  0  0  0  0  0  0  0  0  0  0  0  0
   -4.9650   24.5810  -30.7970 N   0  0  0  0  0  0  0  0  0  0  0  0
   -5.5750   25.8650  -30.5160 C   0  0  0  0  0  0  0  0  0  0  0  0
   -1.0248   20.3862  -29.5879 H   0  0  0  0  0  0  0  0  0  0  0  0
   -1.8008   19.9251  -31.1409 H   0  0  0  0  0  0  0  0  0  0  0  0
   -0.3560   20.9924  -31.1409 H   0  0  0  0  0  0  0  0  0  0  0  0
   -0.8562   23.0524  -29.2321 H   0  0  0  0  0  0  0  0  0  0  0  0
   -7.3486   23.4135  -31.9511 H   0  0  0  0  0  0  0  0  0  0  0  0
   -6.1822   23.4249  -33.3657 H   0  0  0  0  0  0  0  0  0  0  0  0
   -4.7903   18.8313  -33.5775 H   0  0  0  0  0  0  0  0  0  0  0  0
   -6.7991   17.6922  -32.6004 H   0  0  0  0  0  0  0  0  0  0  0  0
   -8.5688   19.0702  -31.5340 H   0  0  0  0  0  0  0  0  0  0  0  0
   -5.6431   26.0082  -29.4275 H   0  0  0  0  0  0  0  0  0  0  0  0
   -4.9613   26.6661  -30.9536 H   0  0  0  0  0  0  0  0  0  0  0  0
   -6.5838   25.8953  -30.9536 H   0  0  0  0  0  0  0  0  0  0  0  0
  1  2  1  0
  2  3  2  0
  3  4  1  0
  4  5  2  0
  4  6  1  0
  6  7  1  0
  7  8  2  0
  7  9  1  0
  9 10  1  0
 10 11  1  0
 11 12  2  0
 12 13  1  0
 12 14  1  0
 14 15  2  0
 15 16  1  0
 16 17  2  0
 17 18  1  0
  9 19  1  0
 19 20  1  0
  8  2  1  0
 17 11  1  0
 19  6  1  0
  1 21  1  0
  1 22  1  0
  1 23  1  0
  3 24  1  0
 10 25  1  0
 10 26  1  0
 14 27  1  0
 15 28  1  0
 16 29  1  0
 20 30  1  0
 20 31  1  0
 20 32  1  0
M  END
>  <smiles>  (6) 
Cc1cc(=O)n2c(n1)n(Cc1c(F)cccc1Cl)n2C

>  <score_type>  (6) 
oracle

>  <origin>  (6) 
adg

>  <m_score__min__energy>  (6) 
-7.4000000000000004

>  <m_primary>  (6) 
energy

$$$$
6:0
     RDKit          3D

 45 47  0  0  0  0  0  0  0  0999 V2000
   -3.4450   24.5190  -29.4870 C   0  0  0  0  0  0  0  0  0  0  0  0
   -3.8460   24.9570  -30.7930 N   0  0  0  0  0  0  0  0  0  0  0  0
   -5.2530   25.3400  -30.7560 C   0  0  0  0  0  0  0  0  0  0  0  0
   -6.1020   24.1580  -31.2150 C   0  0  0  0  0  0  0  0  0  0  0  0
   -5.3400   22.9510  -31.1580 N   0  0  0  0  0  0  0  0  0  0  0  0
   -5.7740   21.7880  -31.9510 C   0  0  0  0  0  0  0  0  0  0  0  0
   -4.8740   21.0760  -32.6330 C   0  0  0  0  0  0  0  0  0  0  0  0
   -3.4260   21.2470  -32.7490 C   0  0  0  0  0  0  0  0  0  0  0  0
   -2.9250   22.2650  -32.2600 O   0  0  0  0  0  0  0  0  0  0  0  0
   -2.6570   20.2520  -33.4120 N   0  0  0  0  0  0  0  0  0  0  0  0
   -1.2570   20.3820  -33.5450 C   0  0  0  0  0  0  0  0  0  0  0  0
   -0.8070   21.1590  -34.6210 C   0  0  0  0  0  0  0  0  0  0  0  0
    0.5430   21.3550  -34.8470 C   0  0  0  0  0  0  0  0  0  0  0  0
    1.4720   20.7630  -33.9820 C   0  0  0  0  0  0  0  0  0  0  0  0
    2.7950   20.9900  -34.2550 O   0  0  0  0  0  0  0  0  0  0  0  0
    3.3390   21.5710  -35.3970 C   0  0  0  0  0  0  0  0  0  0  0  0
    2.8260   20.9170  -36.5180 F   0  0  0  0  0  0  0  0  0  0  0  0
    4.7200   21.5900  -35.4310 F   0  0  0  0  0  0  0  0  0  0  0  0
    2.9180   22.8840  -35.4980 F   0  0  0  0  0  0  0  0  0  0  0  0
    1.0320   19.9950  -32.9200 C   0  0  0  0  0  0  0  0  0  0  0  0
   -0.3380   19.8040  -32.7020 C   0  0  0  0  0  0  0  0  0  0  0  0
   -5.7950   19.7900  -33.4370 S   0  0  0  0  0  0  0  0  0  0  0  0
   -7.3830   20.3300  -32.7660 C   0  0  0  0  0  0  0  0  0  0  0  0
   -8.6090   19.8230  -32.9370 N   0  0  0  0  0  0  0  0  0  0  0  0
   -9.7040   20.3750  -32.3420 C   0  0  0  0  0  0  0  0  0  0  0  0
   -9.4490   21.4810  -31.5610 C   0  0  0  0  0  0  0  0  0  0  0  0
   -8.1990   22.0140  -31.3740 C   0  0  0  0  0  0  0  0  0  0  0  0
   -7.0750   21.4280  -32.0000 C   0  0  0  0  0  0  0  0  0  0  0  0
   -3.9800   25.1034  -28.7239 H   0  0  0  0  0  0  0  0  0  0  0  0
   -3.6862   23.4524  -29.3679 H   0  0  0  0  0  0  0  0  0  0  0  0
   -2.3613   24.6654  -29.3679 H   0  0  0  0  0  0  0  0  0  0  0  0
   -3.7710   24.1940  -31.4980 H   0  0  0  0  0  0  0  0  0  0  0  0
   -5.5326   25.6182  -29.7291 H   0  0  0  0  0  0  0  0  0  0  0  0
   -5.4218   26.1994  -31.4215 H   0  0  0  0  0  0  0  0  0  0  0  0
   -6.9798   24.0647  -30.5587 H   0  0  0  0  0  0  0  0  0  0  0  0
   -6.4249   24.3297  -32.2524 H   0  0  0  0  0  0  0  0  0  0  0  0
   -4.4660   22.8410  -30.5710 H   0  0  0  0  0  0  0  0  0  0  0  0
   -3.1020   19.4000  -33.8180 H   0  0  0  0  0  0  0  0  0  0  0  0
   -1.5407   21.6212  -35.2978 H   0  0  0  0  0  0  0  0  0  0  0  0
    0.8829   21.9678  -35.6949 H   0  0  0  0  0  0  0  0  0  0  0  0
    1.7630   19.5308  -32.2417 H   0  0  0  0  0  0  0  0  0  0  0  0
   -0.6792   19.1906  -31.8550 H   0  0  0  0  0  0  0  0  0  0  0  0
  -10.7169   19.9674  -32.4755 H   0  0  0  0  0  0  0  0  0  0  0  0
  -10.2985   21.9655  -31.0574 H   0  0  0  0  0  0  0  0  0  0  0  0
   -8.0708   22.9001  -30.7350 H   0  0  0  0  0  0  0  0  0  0  0  0
  1  2  1  0
  2  3  1  0
  3  4  1  0
  4  5  1  0
  5  6  1  0
  6  7  2  0
  7  8  1  0
  8  9  2  0
  8 10  1  0
 10 11  1  0
 11 12  2  0
 12 13  1  0
 13 14  2  0
 14 15  1  0
 15 16  1  0
 16 17  1  0
 16 18  1  0
 16 19  1  0
 14 20  1  0
 20 21  2  0
  7 22  1  0
 22 23  1  0
 23 24  2  0
 24 25  1  0
 25 26  2  0
 26 27  1  0
 27 28  2  0
 28  6  1  0
 21 11  1  0
 28 23  1  0
  1 29  1  0
  1 30  1  0
  1 31  1  0
  2 32  1  0
  3 33  1  0
  3 34  1  0
  4 35  1  0
  4 36  1  0
  5 37  1  0
 10 38  1  0
 12 39  1  0
 13 40  1  0
 20 41  1  0
 21 42  1  0
 25 43  1  0
 26 44  1  0
 27 45  1  0
M  END
>  <smiles>  (7) 
CNCCNc1c(C(=O)Nc2ccc(OC(F)(F)F)cc2)sc2ncccc12

>  <score_type>  (7) 
oracle

>  <origin>  (7) 
adg

>  <m_score__min__energy>  (7) 
-7.5899999999999999

>  <m_primary>  (7) 
energy

$$$$
7:0
     RDKit          3D

 57 60  0  0  0  0  0  0  0  0999 V2000
   -0.8670   26.7080  -28.0640 C   0  0  0  0  0  0  0  0  0  0  0  0
   -1.3200   25.6540  -28.8770 O   0  0  0  0  0  0  0  0  0  0  0  0
   -0.9220   24.3630  -28.5710 C   0  0  0  0  0  0  0  0  0  0  0  0
    0.3320   24.0300  -28.1190 C   0  0  0  0  0  0  0  0  0  0  0  0
    0.6610   22.7170  -27.8330 C   0  0  0  0  0  0  0  0  0  0  0  0
   -0.2700   21.7080  -28.0000 C   0  0  0  0  0  0  0  0  0  0  0  0
   -1.5240   22.0400  -28.4530 C   0  0  0  0  0  0  0  0  0  0  0  0
   -1.8660   23.3640  -28.7440 C   0  0  0  0  0  0  0  0  0  0  0  0
   -3.1880   23.7090  -29.2250 C   0  0  0  0  0  0  0  0  0  0  0  0
   -3.7850   24.6530  -29.6120 N   0  0  0  0  0  0  0  0  0  0  0  0
   -5.0180   24.7610  -30.0150 C   0  0  0  0  0  0  0  0  0  0  0  0
   -5.6370   26.0560  -30.4840 C   0  0  0  0  0  0  0  0  0  0  0  0
   -5.7470   23.5960  -29.9920 C   0  0  0  0  0  0  0  0  0  0  0  0
   -7.0970   23.2480  -30.3360 C   0  0  0  0  0  0  0  0  0  0  0  0
   -7.4900   23.4790  -31.7540 C   0  0  0  0  0  0  0  0  0  0  0  0
   -8.1390   22.2980  -32.2680 N   0  0  0  0  0  0  0  0  0  0  0  0
   -8.5290   21.3430  -31.2470 C   0  0  0  0  0  0  0  0  0  0  0  0
   -8.9380   20.0550  -31.9090 C   0  0  0  0  0  0  0  0  0  0  0  0
   -8.0610   18.9510  -31.5610 N   0  0  0  0  0  0  0  0  0  0  0  0
   -7.0360   18.4640  -32.4120 C   0  0  0  0  0  0  0  0  0  0  0  0
   -7.1830   17.2530  -33.0700 C   0  0  0  0  0  0  0  0  0  0  0  0
   -6.1840   16.7880  -33.9300 C   0  0  0  0  0  0  0  0  0  0  0  0
   -5.0290   17.4880  -34.1670 C   0  0  0  0  0  0  0  0  0  0  0  0
   -4.8820   18.6980  -33.5110 C   0  0  0  0  0  0  0  0  0  0  0  0
   -3.7280   19.3960  -33.7490 C   0  0  0  0  0  0  0  0  0  0  0  0
   -3.4950   20.6050  -33.1400 C   0  0  0  0  0  0  0  0  0  0  0  0
   -4.4610   21.0850  -32.2900 C   0  0  0  0  0  0  0  0  0  0  0  0
   -5.6380   20.3720  -32.0490 C   0  0  0  0  0  0  0  0  0  0  0  0
   -5.8680   19.1530  -32.6650 C   0  0  0  0  0  0  0  0  0  0  0  0
   -4.5250   22.3860  -29.3540 S   0  0  0  0  0  0  0  0  0  0  0  0
   -0.9857   26.4319  -27.0058 H   0  0  0  0  0  0  0  0  0  0  0  0
    0.1947   26.9037  -28.2751 H   0  0  0  0  0  0  0  0  0  0  0  0
   -1.4556   27.6130  -28.2751 H   0  0  0  0  0  0  0  0  0  0  0  0
    1.0858   24.8194  -27.9824 H   0  0  0  0  0  0  0  0  0  0  0  0
    1.6705   22.4738  -27.4701 H   0  0  0  0  0  0  0  0  0  0  0  0
   -0.0122   20.6626  -27.7751 H   0  0  0  0  0  0  0  0  0  0  0  0
   -2.2745   21.2475  -28.5896 H   0  0  0  0  0  0  0  0  0  0  0  0
   -5.9262   26.6611  -29.6121 H   0  0  0  0  0  0  0  0  0  0  0  0
   -4.9075   26.6125  -31.0908 H   0  0  0  0  0  0  0  0  0  0  0  0
   -6.5282   25.8378  -31.0908 H   0  0  0  0  0  0  0  0  0  0  0  0
   -7.2346   22.1785  -30.1186 H   0  0  0  0  0  0  0  0  0  0  0  0
   -7.7364   23.9148  -29.7388 H   0  0  0  0  0  0  0  0  0  0  0  0
   -8.1824   24.3320  -31.8090 H   0  0  0  0  0  0  0  0  0  0  0  0
   -6.5939   23.6971  -32.3535 H   0  0  0  0  0  0  0  0  0  0  0  0
   -7.6530   21.8700  -33.0580 H   0  0  0  0  0  0  0  0  0  0  0  0
   -7.6801   21.1573  -30.5726 H   0  0  0  0  0  0  0  0  0  0  0  0
   -9.3718   21.7451  -30.6656 H   0  0  0  0  0  0  0  0  0  0  0  0
   -9.9620   19.8055  -31.5941 H   0  0  0  0  0  0  0  0  0  0  0  0
   -8.8758   20.2027  -32.9973 H   0  0  0  0  0  0  0  0  0  0  0  0
   -8.2390   18.5290  -30.6170 H   0  0  0  0  0  0  0  0  0  0  0  0
   -8.0922   16.6537  -32.9143 H   0  0  0  0  0  0  0  0  0  0  0  0
   -6.3301   15.8226  -34.4366 H   0  0  0  0  0  0  0  0  0  0  0  0
   -4.2543   17.1053  -34.8477 H   0  0  0  0  0  0  0  0  0  0  0  0
   -2.9767   18.9824  -34.4379 H   0  0  0  0  0  0  0  0  0  0  0  0
   -2.5686   21.1681  -33.3263 H   0  0  0  0  0  0  0  0  0  0  0  0
   -4.3047   22.0514  -31.7883 H   0  0  0  0  0  0  0  0  0  0  0  0
   -6.3914   20.7839  -31.3615 H   0  0  0  0  0  0  0  0  0  0  0  0
  1  2  1  0
  2  3  1  0
  3  4  2  0
  4  5  1  0
  5  6  2  0
  6  7  1  0
  7  8  2  0
  8  9  1  0
  9 10  2  0
 10 11  1  0
 11 12  1  0
 11 13  2  0
 13 14  1  0
 14 15  1  0
 15 16  1  0
 16 17  1  0
 17 18  1  0
 18 19  1  0
 19 20  1  0
 20 21  2  0
 21 22  1  0
 22 23  2  0
 23 24  1  0
 24 25  2  0
 25 26  1  0
 26 27  2  0
 27 28  1  0
 28 29  2  0
 13 30  1  0
  8  3  1  0
 30  9  1  0
 29 20  1  0
 29 24  1  0
  1 31  1  0
  1 32  1  0
  1 33  1  0
  4 34  1  0
  5 35  1  0
  6 36  1  0
  7 37  1  0
 12 38  1  0
 12 39  1  0
 12 40  1  0
 14 41  1  0
 14 42  1  0
 15 43  1  0
 15 44  1  0
 16 45  1  0
 17 46  1  0
 17 47  1  0
 18 48  1  0
 18 49  1  0
 19 50  1  0
 21 51  1  0
 22 52  1  0
 23 53  1  0
 25 54  1  0
 26 55  1  0
 27 56  1  0
 28 57  1  0
M  END
>  <smiles>  (8) 
COc1ccccc1-c1nc(C)c(CCNCCNc2cccc3ccccc23)s1

>  <score_type>  (8) 
oracle

>  <origin>  (8) 
adg

>  <m_score__min__energy>  (8) 
-10.31

>  <m_primary>  (8) 
energy

$$$$
8:0
     RDKit          3D

 63 66  0  0  0  0  0  0  0  0999 V2000
   -2.3600   21.6640  -28.0460 C   0  0  0  0  0  0  0  0  0  0  0  0
   -3.7720   22.0910  -27.8220 C   0  0  0  0  0  0  0  0  0  0  0  0
   -3.9020   23.5020  -28.1630 N   0  0  0  0  0  0  0  0  0  0  0  0
   -4.9900   23.8910  -28.9960 C   0  0  0  0  0  0  0  0  0  0  0  0
   -4.7380   24.9090  -30.0470 C   0  0  0  0  0  0  0  0  0  0  0  0
   -4.1270   24.2740  -31.1700 O   0  0  0  0  0  0  0  0  0  0  0  0
   -4.1190   22.8950  -30.9790 C   0  0  0  0  0  0  0  0  0  0  0  0
   -2.8940   22.2330  -31.5330 C   0  0  0  0  0  0  0  0  0  0  0  0
   -3.2150   21.3910  -32.7570 C   0  0  0  0  0  0  0  0  0  0  0  0
   -4.5750   21.6230  -33.1870 N   0  0  0  0  0  0  0  0  0  0  0  0
   -5.6680   20.7910  -32.9010 C   0  0  0  0  0  0  0  0  0  0  0  0
   -6.8510   21.3870  -32.4510 C   0  0  0  0  0  0  0  0  0  0  0  0
   -6.8690   22.7660  -32.3190 C   0  0  0  0  0  0  0  0  0  0  0  0
   -7.9870   23.4380  -31.8900 C   0  0  0  0  0  0  0  0  0  0  0  0
   -9.0990   22.6610  -31.5920 C   0  0  0  0  0  0  0  0  0  0  0  0
   -9.0800   21.2740  -31.7230 C   0  0  0  0  0  0  0  0  0  0  0  0
   -7.9520   20.6120  -32.1560 C   0  0  0  0  0  0  0  0  0  0  0  0
   -7.9690   19.2780  -32.2750 N   0  0  0  0  0  0  0  0  0  0  0  0
   -9.0940   18.4380  -31.9660 C   0  0  0  0  0  0  0  0  0  0  0  0
   -6.8210   18.6980  -32.7130 C   0  0  0  0  0  0  0  0  0  0  0  0
   -6.7260   17.3150  -32.8800 C   0  0  0  0  0  0  0  0  0  0  0  0
   -5.5620   16.7130  -33.3300 C   0  0  0  0  0  0  0  0  0  0  0  0
   -4.4500   17.4620  -33.6300 C   0  0  0  0  0  0  0  0  0  0  0  0
   -4.5170   18.8290  -33.4750 C   0  0  0  0  0  0  0  0  0  0  0  0
   -5.6910   19.4230  -33.0220 C   0  0  0  0  0  0  0  0  0  0  0  0
   -2.9290   24.4430  -27.6930 C   0  0  0  0  0  0  0  0  0  0  0  0
   -1.8820   24.8870  -28.4900 C   0  0  0  0  0  0  0  0  0  0  0  0
   -0.9280   25.7830  -28.0290 C   0  0  0  0  0  0  0  0  0  0  0  0
   -0.9750   26.2740  -26.7520 C   0  0  0  0  0  0  0  0  0  0  0  0
   -1.9970   25.8530  -25.9430 C   0  0  0  0  0  0  0  0  0  0  0  0
   -2.9570   24.9520  -26.4040 C   0  0  0  0  0  0  0  0  0  0  0  0
   -1.8640   21.5140  -27.0757 H   0  0  0  0  0  0  0  0  0  0  0  0
   -2.3475   20.7219  -28.6137 H   0  0  0  0  0  0  0  0  0  0  0  0
   -1.8275   22.4413  -28.6137 H   0  0  0  0  0  0  0  0  0  0  0  0
   -4.4427   21.4948  -28.4581 H   0  0  0  0  0  0  0  0  0  0  0  0
   -4.0432   21.9376  -26.7670 H   0  0  0  0  0  0  0  0  0  0  0  0
   -5.3552   22.9844  -29.5006 H   0  0  0  0  0  0  0  0  0  0  0  0
   -5.6995   24.3766  -28.3098 H   0  0  0  0  0  0  0  0  0  0  0  0
   -5.6903   25.3658  -30.3543 H   0  0  0  0  0  0  0  0  0  0  0  0
   -4.0727   25.6923  -29.6547 H   0  0  0  0  0  0  0  0  0  0  0  0
   -4.1697   22.6906  -29.8993 H   0  0  0  0  0  0  0  0  0  0  0  0
   -4.9862   22.4839  -31.5166 H   0  0  0  0  0  0  0  0  0  0  0  0
   -2.1662   23.0083  -31.8145 H   0  0  0  0  0  0  0  0  0  0  0  0
   -2.4828   21.5691  -30.7583 H   0  0  0  0  0  0  0  0  0  0  0  0
   -2.5267   21.6594  -33.5720 H   0  0  0  0  0  0  0  0  0  0  0  0
   -3.0995   20.3281  -32.4985 H   0  0  0  0  0  0  0  0  0  0  0  0
   -4.7800   22.4900  -33.7650 H   0  0  0  0  0  0  0  0  0  0  0  0
   -5.9624   23.3385  -32.5647 H   0  0  0  0  0  0  0  0  0  0  0  0
   -8.0012   24.5332  -31.7878 H   0  0  0  0  0  0  0  0  0  0  0  0
  -10.0187   23.1535  -31.2434 H   0  0  0  0  0  0  0  0  0  0  0  0
   -9.9830   20.6964  -31.4760 H   0  0  0  0  0  0  0  0  0  0  0  0
   -9.2023   18.3571  -30.8743 H   0  0  0  0  0  0  0  0  0  0  0  0
  -10.0076   18.8767  -32.3936 H   0  0  0  0  0  0  0  0  0  0  0  0
   -8.9329   17.4374  -32.3936 H   0  0  0  0  0  0  0  0  0  0  0  0
   -7.5986   16.6866  -32.6481 H   0  0  0  0  0  0  0  0  0  0  0  0
   -5.5277   15.6200  -33.4487 H   0  0  0  0  0  0  0  0  0  0  0  0
   -3.5271   16.9809  -33.9859 H   0  0  0  0  0  0  0  0  0  0  0  0
   -3.6413   19.4520  -33.7096 H   0  0  0  0  0  0  0  0  0  0  0  0
   -1.8063   24.5155  -29.5226 H   0  0  0  0  0  0  0  0  0  0  0  0
   -0.1194   26.1046  -28.7018 H   0  0  0  0  0  0  0  0  0  0  0  0
   -0.2171   26.9831  -26.3876 H   0  0  0  0  0  0  0  0  0  0  0  0
   -2.0618   26.2318  -24.9123 H   0  0  0  0  0  0  0  0  0  0  0  0
   -3.7612   24.6356  -25.7235 H   0  0  0  0  0  0  0  0  0  0  0  0
  1  2  1  0
  2  3  1  0
  3  4  1  0
  4  5  1  0
  5  6  1  0
  6  7  1  0
  7  8  1  0
  8  9  1  0
  9 10  1  0
 10 11  1  0
 11 12  1  0
 12 13  2  0
 13 14  1  0
 14 15  2  0
 15 16  1  0
 16 17  2  0
 17 18  1  0
 18 19  1  0
 18 20  2  0
 20 21  1  0
 21 22  2  0
 22 23  1  0
 23 24  2  0
 24 25  1  0
  3 26  1  0
 26 27  2  0
 27 28  1  0
 28 29  2  0
 29 30  1  0
 30 31  2  0
 25 11  2  0
 31 26  1  0
 17 12  1  0
 25 20  1  0
  1 32  1  0
  1 33  1  0
  1 34  1  0
  2 35  1  0
  2 36  1  0
  4 37  1  0
  4 38  1  0
  5 39  1  0
  5 40  1  0
  7 41  1  0
  7 42  1  0
  8 43  1  0
  8 44  1  0
  9 45  1  0
  9 46  1  0
 10 47  1  0
 13 48  1  0
 14 49  1  0
 15 50  1  0
 16 51  1  0
 19 52  1  0
 19 53  1  0
 19 54  1  0
 21 55  1  0
 22 56  1  0
 23 57  1  0
 24 58  1  0
 27 59  1  0
 28 60  1  0
 29 61  1  0
 30 62  1  0
 31 63  1  0
M  CHG  1  18   1
M  END
>  <smiles>  (9) 
CCN(CCOCCCNc1c2ccccc2[n+](C)c2ccccc12)c1ccccc1

>  <score_type>  (9) 
oracle

>  <origin>  (9) 
adg

>  <m_score__min__energy>  (9) 
-9.6400000000000006

>  <m_primary>  (9) 
energy

$$$$
9:0
     RDKit          3D

 42 44  0  0  0  0  0  0  0  0999 V2000
   -5.0830   15.8160  -32.4400 C   0  0  0  0  0  0  0  0  0  0  0  0
   -5.6390   15.2780  -33.7250 C   0  0  0  0  0  0  0  0  0  0  0  0
   -6.8500   16.0360  -34.1960 C   0  0  0  0  0  0  0  0  0  0  0  0
   -6.8480   17.4240  -33.7750 N   0  0  0  0  0  0  0  0  0  0  0  0
   -7.6060   17.8790  -32.7880 N   0  0  0  0  0  0  0  0  0  0  0  0
   -7.6000   19.1780  -32.3980 C   0  0  0  0  0  0  0  0  0  0  0  0
   -6.7790   20.0810  -33.0400 C   0  0  0  0  0  0  0  0  0  0  0  0
   -5.9900   19.5990  -34.0710 C   0  0  0  0  0  0  0  0  0  0  0  0
   -6.0380   18.2630  -34.4250 C   0  0  0  0  0  0  0  0  0  0  0  0
   -5.3100   17.8460  -35.3670 O   0  0  0  0  0  0  0  0  0  0  0  0
   -6.6830   21.5060  -32.7130 C   0  0  0  0  0  0  0  0  0  0  0  0
   -7.3470   21.7940  -31.4870 N   0  0  0  0  0  0  0  0  0  0  0  0
   -7.3670   23.1710  -31.1130 C   0  0  0  0  0  0  0  0  0  0  0  0
   -6.0220   23.7820  -30.9470 C   0  0  0  0  0  0  0  0  0  0  0  0
   -5.7200   25.1400  -31.0490 C   0  0  0  0  0  0  0  0  0  0  0  0
   -4.4020   25.2680  -30.8320 N   0  0  0  0  0  0  0  0  0  0  0  0
   -3.8640   24.0360  -30.5950 C   0  0  0  0  0  0  0  0  0  0  0  0
   -4.8650   23.1150  -30.6660 N   0  0  0  0  0  0  0  0  0  0  0  0
   -4.6860   21.6860  -30.4710 C   0  0  0  0  0  0  0  0  0  0  0  0
   -8.5850   21.1170  -31.2650 C   0  0  0  0  0  0  0  0  0  0  0  0
   -8.4760   19.6210  -31.2810 C   0  0  0  0  0  0  0  0  0  0  0  0
   -5.5856   15.3297  -31.5909 H   0  0  0  0  0  0  0  0  0  0  0  0
   -4.0033   15.6110  -32.3933 H   0  0  0  0  0  0  0  0  0  0  0  0
   -5.2524   16.9019  -32.3933 H   0  0  0  0  0  0  0  0  0  0  0  0
   -4.8605   15.3421  -34.4995 H   0  0  0  0  0  0  0  0  0  0  0  0
   -5.9478   14.2379  -33.5438 H   0  0  0  0  0  0  0  0  0  0  0  0
   -6.8788   16.0030  -35.2951 H   0  0  0  0  0  0  0  0  0  0  0  0
   -7.7331   15.5572  -33.7479 H   0  0  0  0  0  0  0  0  0  0  0  0
   -5.3204   20.2836  -34.6122 H   0  0  0  0  0  0  0  0  0  0  0  0
   -5.6225   21.7834  -32.6215 H   0  0  0  0  0  0  0  0  0  0  0  0
   -7.1644   22.0831  -33.5163 H   0  0  0  0  0  0  0  0  0  0  0  0
   -7.9056   23.7311  -31.8916 H   0  0  0  0  0  0  0  0  0  0  0  0
   -7.8585   23.2222  -30.1302 H   0  0  0  0  0  0  0  0  0  0  0  0
   -6.4287   25.9527  -31.2663 H   0  0  0  0  0  0  0  0  0  0  0  0
   -2.8056   23.8238  -30.3834 H   0  0  0  0  0  0  0  0  0  0  0  0
   -4.6581   21.4635  -29.3941 H   0  0  0  0  0  0  0  0  0  0  0  0
   -5.5234   21.1448  -30.9357 H   0  0  0  0  0  0  0  0  0  0  0  0
   -3.7410   21.3681  -30.9357 H   0  0  0  0  0  0  0  0  0  0  0  0
   -8.9758   21.4245  -30.2838 H   0  0  0  0  0  0  0  0  0  0  0  0
   -9.2521   21.3955  -32.0941 H   0  0  0  0  0  0  0  0  0  0  0  0
   -8.0486   19.2783  -30.3271 H   0  0  0  0  0  0  0  0  0  0  0  0
   -9.4788   19.1912  -31.4214 H   0  0  0  0  0  0  0  0  0  0  0  0
  1  2  1  0
  2  3  1  0
  3  4  1  0
  4  5  1  0
  5  6  2  0
  6  7  1  0
  7  8  2  0
  8  9  1  0
  9 10  2  0
  7 11  1  0
 11 12  1  0
 12 13  1  0
 13 14  1  0
 14 15  2  0
 15 16  1  0
 16 17  2  0
 17 18  1  0
 18 19  1  0
 12 20  1  0
 20 21  1  0
  9  4  1  0
 18 14  1  0
 21  6  1  0
  1 22  1  0
  1 23  1  0
  1 24  1  0
  2 25  1  0
  2 26  1  0
  3 27  1  0
  3 28  1  0
  8 29  1  0
 11 30  1  0
 11 31  1  0
 13 32  1  0
 13 33  1  0
 15 34  1  0
 17 35  1  0
 19 36  1  0
 19 37  1  0
 19 38  1  0
 20 39  1  0
 20 40  1  0
 21 41  1  0
 21 42  1  0
M  END
>  <smiles>  (10) 
CCCn1nc2c(cc1=O)CN(Cc1cncn1C)CC2

>  <score_type>  (10) 
oracle

>  <origin>  (10) 
adg

>  <m_score__min__energy>  (10) 
-7.7199999999999998

>  <m_primary>  (10) 
energy

$$$$
10:0
     RDKit          3D

 44 47  0  0  1  0  0  0  0  0999 V2000
   -0.6800   28.4150  -25.6970 C   0  0  0  0  0  0  0  0  0  0  0  0
   -0.8480   27.0600  -26.3020 C   0  0  0  0  0  0  0  0  0  0  0  0
    0.2570   26.4570  -26.8990 C   0  0  0  0  0  0  0  0  0  0  0  0
    0.1010   25.2030  -27.4580 C   0  0  0  0  0  0  0  0  0  0  0  0
    1.0670   24.6140  -28.0100 O   0  0  0  0  0  0  0  0  0  0  0  0
   -1.0990   24.5610  -27.4330 N   0  0  0  0  0  0  0  0  0  0  0  0
   -1.2150   23.2450  -28.0340 C   0  0  0  0  0  0  0  0  0  0  0  0
   -2.1590   25.1760  -26.8430 C   0  0  0  0  0  0  0  0  0  0  0  0
   -3.7270   24.3200  -26.8190 S   0  0  0  0  0  0  0  0  0  0  0  0
   -4.1730   23.8320  -28.4940 C   0  0  0  0  0  0  0  0  0  0  0  0
   -4.0350   22.5040  -28.8770 C   0  0  0  0  0  0  0  0  0  0  0  0
   -4.3870   22.1540  -30.1760 C   0  0  0  0  0  0  0  0  0  0  0  0
   -4.8650   23.1200  -31.0650 C   0  0  0  0  0  0  0  0  0  0  0  0
   -5.2100   22.6980  -32.3900 N   0  0  0  0  0  0  0  0  0  0  0  0
   -5.7010   21.5620  -32.6860 C   0  0  0  0  0  0  0  0  0  0  0  0
   -4.9090   20.6250  -33.2340 N   0  0  0  0  0  0  0  0  0  0  0  0
   -5.4700   19.4400  -33.5300 C   0  0  0  0  0  0  0  0  0  0  0  0
   -4.4640   18.1880  -34.2480 Cl  0  0  0  0  0  0  0  0  0  0  0  0
   -6.7700   19.1830  -33.2970 N   0  0  0  0  0  0  0  0  0  0  0  0
   -7.5850   20.1170  -32.7440 C   0  0  0  0  0  0  0  0  0  0  0  0
   -8.9140   19.8150  -32.5200 C   0  0  0  0  0  0  0  0  0  0  0  0
   -9.7150   20.8100  -31.9490 C   0  0  0  0  0  0  0  0  0  0  0  0
   -9.1810   22.0570  -31.6220 C   0  0  0  0  0  0  0  0  0  0  0  0
   -7.8500   22.3260  -31.8600 C   0  0  0  0  0  0  0  0  0  0  0  0
   -7.0370   21.3430  -32.4290 C   0  0  0  0  0  0  0  0  0  0  0  0
   -5.0000   24.4450  -30.6740 C   0  0  0  0  0  0  0  0  0  0  0  0
   -4.6410   24.7690  -29.3680 C   0  0  0  0  0  0  0  0  0  0  0  0
   -2.0200   26.4060  -26.2910 N   0  0  0  0  0  0  0  0  0  0  0  0
   -0.6904   28.3307  -24.6003 H   0  0  0  0  0  0  0  0  0  0  0  0
    0.2784   28.8456  -26.0225 H   0  0  0  0  0  0  0  0  0  0  0  0
   -1.5042   29.0667  -26.0225 H   0  0  0  0  0  0  0  0  0  0  0  0
    1.2311   26.9674  -26.9248 H   0  0  0  0  0  0  0  0  0  0  0  0
   -1.2820   22.4848  -27.2418 H   0  0  0  0  0  0  0  0  0  0  0  0
   -2.1201   23.2053  -28.6578 H   0  0  0  0  0  0  0  0  0  0  0  0
   -0.3308   23.0476  -28.6578 H   0  0  0  0  0  0  0  0  0  0  0  0
   -3.6573   21.7492  -28.1715 H   0  0  0  0  0  0  0  0  0  0  0  0
   -4.2884   21.1093  -30.5059 H   0  0  0  0  0  0  0  0  0  0  0  0
   -3.9100   20.8570  -33.4000 H   0  0  0  0  0  0  0  0  0  0  0  0
   -9.3271   18.8294  -32.7807 H   0  0  0  0  0  0  0  0  0  0  0  0
  -10.7786   20.6068  -31.7555 H   0  0  0  0  0  0  0  0  0  0  0  0
   -9.8242   22.8280  -31.1728 H   0  0  0  0  0  0  0  0  0  0  0  0
   -7.4304   23.3098  -31.6031 H   0  0  0  0  0  0  0  0  0  0  0  0
   -5.3762   25.2100  -31.3692 H   0  0  0  0  0  0  0  0  0  0  0  0
   -4.7377   25.8117  -29.0311 H   0  0  0  0  0  0  0  0  0  0  0  0
  1  2  1  0
  2  3  2  0
  3  4  1  0
  4  5  2  0
  4  6  1  0
  6  7  1  0
  6  8  1  0
  8  9  1  0
  9 10  1  0
 10 11  2  0
 11 12  1  0
 12 13  2  0
 13 14  1  0
 14 15  2  0
 15 16  1  0
 16 17  1  0
 17 18  1  0
 17 19  2  0
 19 20  1  0
 20 21  2  0
 21 22  1  0
 22 23  2  0
 23 24  1  0
 24 25  2  0
 13 26  1  0
 26 27  2  0
  8 28  2  0
 28  2  1  0
 27 10  1  0
 25 15  1  0
 25 20  1  0
  1 29  1  0
  1 30  1  0
  1 31  1  0
  3 32  1  0
  7 33  1  0
  7 34  1  0
  7 35  1  0
 11 36  1  0
 12 37  1  0
 16 38  1  0
 21 39  1  0
 22 40  1  0
 23 41  1  0
 24 42  1  0
 26 43  1  0
 27 44  1  0
M  END
>  <smiles>  (11) 
Cc1cc(=O)n(C)c(Sc2ccc(N=c3[nH]c(Cl)nc4ccccc34)cc2)n1

>  <score_type>  (11) 
oracle

>  <origin>  (11) 
adg

>  <m_score__min__energy>  (11) 
-9.3100000000000005

>  <m_primary>  (11) 
energy

$$$$
11:0
     RDKit          3D

 39 40  0  0  0  0  0  0  0  0999 V2000
   -0.8700   27.9170  -25.4320 C   0  0  0  0  0  0  0  0  0  0  0  0
   -1.0470   26.7150  -24.7210 N   0  0  0  0  0  0  0  0  0  0  0  0
   -0.7410   26.6700  -23.3530 C   0  0  0  0  0  0  0  0  0  0  0  0
   -1.1330   25.5080  -25.4460 C   0  0  0  0  0  0  0  0  0  0  0  0
   -2.1060   25.5240  -26.5990 C   0  0  0  0  0  0  0  0  0  0  0  0
   -1.4380   25.6650  -27.9250 C   0  0  0  0  0  0  0  0  0  0  0  0
   -1.3930   24.1340  -28.8740 S   0  0  0  0  0  0  0  0  0  0  0  0
   -2.9390   23.9180  -29.7780 C   0  0  0  0  0  0  0  0  0  0  0  0
   -3.5050   24.9230  -30.4620 N   0  0  0  0  0  0  0  0  0  0  0  0
   -4.6080   24.4280  -30.9940 N   0  0  0  0  0  0  0  0  0  0  0  0
   -4.7340   23.1250  -30.6470 C   0  0  0  0  0  0  0  0  0  0  0  0
   -5.8550   22.3030  -31.0850 C   0  0  0  0  0  0  0  0  0  0  0  0
   -7.1690   22.5730  -30.7670 C   0  0  0  0  0  0  0  0  0  0  0  0
   -8.1310   21.7010  -31.2550 C   0  0  0  0  0  0  0  0  0  0  0  0
   -7.8120   20.6010  -32.0320 C   0  0  0  0  0  0  0  0  0  0  0  0
   -9.1510   19.4080  -32.7010 Br  0  0  0  0  0  0  0  0  0  0  0  0
   -6.4940   20.3380  -32.3460 C   0  0  0  0  0  0  0  0  0  0  0  0
   -5.5210   21.1930  -31.8700 C   0  0  0  0  0  0  0  0  0  0  0  0
   -3.6810   22.8000  -29.8780 N   0  0  0  0  0  0  0  0  0  0  0  0
   -3.4150   21.5240  -29.2940 C   0  0  0  0  0  0  0  0  0  0  0  0
   -0.7476   28.7483  -24.7221 H   0  0  0  0  0  0  0  0  0  0  0  0
    0.0265   27.8401  -26.0647 H   0  0  0  0  0  0  0  0  0  0  0  0
   -1.7506   28.1018  -26.0647 H   0  0  0  0  0  0  0  0  0  0  0  0
   -1.6618   26.8054  -22.7667 H   0  0  0  0  0  0  0  0  0  0  0  0
   -0.2913   25.6961  -23.1097 H   0  0  0  0  0  0  0  0  0  0  0  0
   -0.0299   27.4732  -23.1097 H   0  0  0  0  0  0  0  0  0  0  0  0
   -0.1343   25.2782  -25.8456 H   0  0  0  0  0  0  0  0  0  0  0  0
   -1.5059   24.7515  -24.7399 H   0  0  0  0  0  0  0  0  0  0  0  0
   -2.6738   24.5819  -26.5913 H   0  0  0  0  0  0  0  0  0  0  0  0
   -2.7591   26.3990  -26.4655 H   0  0  0  0  0  0  0  0  0  0  0  0
   -1.9818   26.4213  -28.5100 H   0  0  0  0  0  0  0  0  0  0  0  0
   -0.3951   25.9568  -27.7323 H   0  0  0  0  0  0  0  0  0  0  0  0
   -7.4429   23.4431  -30.1523 H   0  0  0  0  0  0  0  0  0  0  0  0
   -9.1876   21.8910  -31.0153 H   0  0  0  0  0  0  0  0  0  0  0  0
   -6.2253   19.4668  -32.9616 H   0  0  0  0  0  0  0  0  0  0  0  0
   -4.4655   20.9992  -32.1114 H   0  0  0  0  0  0  0  0  0  0  0  0
   -3.4333   21.6116  -28.1976 H   0  0  0  0  0  0  0  0  0  0  0  0
   -4.1827   20.8056  -29.6173 H   0  0  0  0  0  0  0  0  0  0  0  0
   -2.4242   21.1722  -29.6173 H   0  0  0  0  0  0  0  0  0  0  0  0
  1  2  1  0
  2  3  1  0
  2  4  1  0
  4  5  1  0
  5  6  1  0
  6  7  1  0
  7  8  1  0
  8  9  2  0
  9 10  1  0
 10 11  2  0
 11 12  1  0
 12 13  2  0
 13 14  1  0
 14 15  2  0
 15 16  1  0
 15 17  1  0
 17 18  2  0
 11 19  1  0
 19 20  1  0
 19  8  1  0
 18 12  1  0
  1 21  1  0
  1 22  1  0
  1 23  1  0
  3 24  1  0
  3 25  1  0
  3 26  1  0
  4 27  1  0
  4 28  1  0
  5 29  1  0
  5 30  1  0
  6 31  1  0
  6 32  1  0
 13 33  1  0
 14 34  1  0
 17 35  1  0
 18 36  1  0
 20 37  1  0
 20 38  1  0
 20 39  1  0
M  END
>  <smiles>  (12) 
CN(C)CCCSc1nnc(-c2ccc(Br)cc2)n1C

>  <score_type>  (12) 
oracle

>  <origin>  (12) 
adg

>  <m_score__min__energy>  (12) 
-7.7800000000000002

>  <m_primary>  (12) 
energy

$$$$
13:0
     RDKit          3D

 50 52  0  0  0  0  0  0  0  0999 V2000
    2.1150   22.8600  -35.6940 C   0  0  0  0  0  0  0  0  0  0  0  0
    0.6290   23.1000  -35.8120 C   0  0  0  0  0  0  0  0  0  0  0  0
   -0.1130   22.1550  -34.9820 N   0  0  0  0  0  0  0  0  0  0  0  0
    0.5710   20.9120  -34.9070 C   0  0  0  0  0  0  0  0  0  0  0  0
    0.8560   20.3580  -33.5650 C   0  0  0  0  0  0  0  0  0  0  0  0
    0.4580   21.1270  -32.5170 O   0  0  0  0  0  0  0  0  0  0  0  0
   -0.6290   20.6720  -31.8650 C   0  0  0  0  0  0  0  0  0  0  0  0
   -1.8570   21.6020  -32.0970 C   0  0  0  0  0  0  0  0  0  0  0  0
   -2.4910   21.3150  -33.3600 N   0  0  0  0  0  0  0  0  0  0  0  0
   -3.5750   20.4260  -33.3850 C   0  0  0  0  0  0  0  0  0  0  0  0
   -4.8590   20.7810  -32.9780 C   0  0  0  0  0  0  0  0  0  0  0  0
   -5.0150   22.0790  -32.5460 C   0  0  0  0  0  0  0  0  0  0  0  0
   -6.2300   22.5370  -32.1280 C   0  0  0  0  0  0  0  0  0  0  0  0
   -7.2930   21.6660  -32.1530 C   0  0  0  0  0  0  0  0  0  0  0  0
   -8.8500   22.2640  -31.6140 Cl  0  0  0  0  0  0  0  0  0  0  0  0
   -7.1340   20.3490  -32.5920 C   0  0  0  0  0  0  0  0  0  0  0  0
   -5.9060   19.8680  -33.0190 C   0  0  0  0  0  0  0  0  0  0  0  0
   -5.7360   18.5970  -33.4500 N   0  0  0  0  0  0  0  0  0  0  0  0
   -6.8660   17.7320  -33.4460 C   0  0  0  0  0  0  0  0  0  0  0  0
   -4.4970   18.2630  -33.8410 C   0  0  0  0  0  0  0  0  0  0  0  0
   -4.2590   16.9840  -34.2960 C   0  0  0  0  0  0  0  0  0  0  0  0
   -2.9850   16.6130  -34.7100 C   0  0  0  0  0  0  0  0  0  0  0  0
   -2.6740   14.9780  -35.2930 Cl  0  0  0  0  0  0  0  0  0  0  0  0
   -1.9130   17.4810  -34.6890 C   0  0  0  0  0  0  0  0  0  0  0  0
   -2.1570   18.7580  -34.2330 C   0  0  0  0  0  0  0  0  0  0  0  0
   -3.4230   19.1260  -33.8230 C   0  0  0  0  0  0  0  0  0  0  0  0
    2.3959   22.8146  -34.6314 H   0  0  0  0  0  0  0  0  0  0  0  0
    2.3727   21.9086  -36.1823 H   0  0  0  0  0  0  0  0  0  0  0  0
    2.6591   23.6819  -36.1823 H   0  0  0  0  0  0  0  0  0  0  0  0
    0.4014   24.1250  -35.4840 H   0  0  0  0  0  0  0  0  0  0  0  0
    0.3300   22.9603  -36.8613 H   0  0  0  0  0  0  0  0  0  0  0  0
   -0.2750   22.6310  -34.0900 H   0  0  0  0  0  0  0  0  0  0  0  0
   -0.0376   20.1703  -35.4450 H   0  0  0  0  0  0  0  0  0  0  0  0
    1.5626   21.1167  -35.3370 H   0  0  0  0  0  0  0  0  0  0  0  0
    0.3470   19.3862  -33.4846 H   0  0  0  0  0  0  0  0  0  0  0  0
    1.9516   20.2925  -33.4921 H   0  0  0  0  0  0  0  0  0  0  0  0
   -0.8696   19.6626  -32.2300 H   0  0  0  0  0  0  0  0  0  0  0  0
   -0.4059   20.6528  -30.7880 H   0  0  0  0  0  0  0  0  0  0  0  0
   -2.5839   21.4470  -31.2861 H   0  0  0  0  0  0  0  0  0  0  0  0
   -1.5093   22.6455  -32.1084 H   0  0  0  0  0  0  0  0  0  0  0  0
   -2.1110   21.7910  -34.2310 H   0  0  0  0  0  0  0  0  0  0  0  0
   -4.1480   22.7559  -32.5378 H   0  0  0  0  0  0  0  0  0  0  0  0
   -6.3554   23.5733  -31.7810 H   0  0  0  0  0  0  0  0  0  0  0  0
   -8.0050   19.6772  -32.5989 H   0  0  0  0  0  0  0  0  0  0  0  0
   -7.1548   17.5109  -32.4079 H   0  0  0  0  0  0  0  0  0  0  0  0
   -7.7042   18.2214  -33.9635 H   0  0  0  0  0  0  0  0  0  0  0  0
   -6.6124   16.7951  -33.9635 H   0  0  0  0  0  0  0  0  0  0  0  0
   -5.0808   16.2537  -34.3317 H   0  0  0  0  0  0  0  0  0  0  0  0
   -0.9117   17.1686  -35.0203 H   0  0  0  0  0  0  0  0  0  0  0  0
   -1.3368   19.4900  -34.1953 H   0  0  0  0  0  0  0  0  0  0  0  0
  1  2  1  0
  2  3  1  0
  3  4  1  0
  4  5  1  0
  5  6  1  0
  6  7  1  0
  7  8  1  0
  8  9  1  0
  9 10  1  0
 10 11  2  0
 11 12  1  0
 12 13  2  0
 13 14  1  0
 14 15  1  0
 14 16  2  0
 16 17  1  0
 17 18  2  0
 18 19  1  0
 18 20  1  0
 20 21  2  0
 21 22  1  0
 22 23  1  0
 22 24  2  0
 24 25  1  0
 25 26  2  0
 26 10  1  0
 17 11  1  0
 26 20  1  0
  1 27  1  0
  1 28  1  0
  1 29  1  0
  2 30  1  0
  2 31  1  0
  3 32  1  0
  4 33  1  0
  4 34  1  0
  5 35  1  0
  5 36  1  0
  7 37  1  0
  7 38  1  0
  8 39  1  0
  8 40  1  0
  9 41  1  0
 12 42  1  0
 13 43  1  0
 16 44  1  0
 19 45  1  0
 19 46  1  0
 19 47  1  0
 21 48  1  0
 24 49  1  0
 25 50  1  0
M  CHG  1  18   1
M  END
>  <smiles>  (13) 
CCNCCOCCNc1c2ccc(Cl)cc2[n+](C)c2cc(Cl)ccc12

>  <score_type>  (13) 
oracle

>  <origin>  (13) 
adg

>  <m_score__min__energy>  (13) 
-8.5999999999999996

>  <m_primary>  (13) 
energy

$$$$
14:0
     RDKit          3D

 66 69  0  0  0  0  0  0  0  0999 V2000
   -3.0620   20.8530  -28.1470 C   0  0  0  0  0  0  0  0  0  0  0  0
   -1.7910   21.6550  -28.3930 C   0  0  0  0  0  0  0  0  0  0  0  0
   -1.5460   21.6720  -29.7990 N   0  0  0  0  0  0  0  0  0  0  0  0
   -0.4270   20.8740  -30.2400 C   0  0  0  0  0  0  0  0  0  0  0  0
   -0.8340   19.4610  -30.5870 C   0  0  0  0  0  0  0  0  0  0  0  0
   -1.5990   22.9880  -30.3530 C   0  0  0  0  0  0  0  0  0  0  0  0
   -1.3340   24.0670  -29.3260 C   0  0  0  0  0  0  0  0  0  0  0  0
   -2.3800   24.9610  -29.2400 O   0  0  0  0  0  0  0  0  0  0  0  0
   -3.4850   24.5480  -28.5250 C   0  0  0  0  0  0  0  0  0  0  0  0
   -4.5090   23.9770  -29.4510 C   0  0  0  0  0  0  0  0  0  0  0  0
   -4.4130   24.4150  -30.7690 O   0  0  0  0  0  0  0  0  0  0  0  0
   -5.4650   24.0760  -31.5790 C   0  0  0  0  0  0  0  0  0  0  0  0
   -5.2450   22.9060  -32.4710 C   0  0  0  0  0  0  0  0  0  0  0  0
   -4.2870   21.9190  -32.0530 N   0  0  0  0  0  0  0  0  0  0  0  0
   -4.0810   20.6650  -32.7520 C   0  0  0  0  0  0  0  0  0  0  0  0
   -5.1000   19.7450  -32.7630 C   0  0  0  0  0  0  0  0  0  0  0  0
   -6.4250   19.8010  -32.3090 C   0  0  0  0  0  0  0  0  0  0  0  0
   -7.2080   20.7440  -31.6960 C   0  0  0  0  0  0  0  0  0  0  0  0
   -8.5310   20.5310  -31.3680 C   0  0  0  0  0  0  0  0  0  0  0  0
   -9.1280   19.3290  -31.6540 C   0  0  0  0  0  0  0  0  0  0  0  0
   -8.3740   18.3510  -32.2730 C   0  0  0  0  0  0  0  0  0  0  0  0
   -7.0470   18.5830  -32.5950 C   0  0  0  0  0  0  0  0  0  0  0  0
   -6.1800   17.7600  -33.2130 N   0  0  0  0  0  0  0  0  0  0  0  0
   -6.4250   16.4090  -33.6760 C   0  0  0  0  0  0  0  0  0  0  0  0
   -5.0000   18.4070  -33.3400 C   0  0  0  0  0  0  0  0  0  0  0  0
   -3.4750   18.0350  -34.0340 S   0  0  0  0  0  0  0  0  0  0  0  0
   -2.3710   19.3520  -33.8970 C   0  0  0  0  0  0  0  0  0  0  0  0
   -1.1070   19.2090  -34.4190 C   0  0  0  0  0  0  0  0  0  0  0  0
   -0.2010   20.2430  -34.3370 C   0  0  0  0  0  0  0  0  0  0  0  0
   -0.6230   21.3970  -33.7200 C   0  0  0  0  0  0  0  0  0  0  0  0
   -1.8920   21.5330  -33.2000 C   0  0  0  0  0  0  0  0  0  0  0  0
   -2.8290   20.4860  -33.2730 C   0  0  0  0  0  0  0  0  0  0  0  0
   -3.2263   20.7493  -27.0643 H   0  0  0  0  0  0  0  0  0  0  0  0
   -3.9182   21.3748  -28.5995 H   0  0  0  0  0  0  0  0  0  0  0  0
   -2.9596   19.8556  -28.5995 H   0  0  0  0  0  0  0  0  0  0  0  0
   -1.9210   22.6831  -28.0242 H   0  0  0  0  0  0  0  0  0  0  0  0
   -0.9423   21.1987  -27.8625 H   0  0  0  0  0  0  0  0  0  0  0  0
    0.0140   21.3444  -31.1312 H   0  0  0  0  0  0  0  0  0  0  0  0
    0.2974   20.8231  -29.4137 H   0  0  0  0  0  0  0  0  0  0  0  0
   -0.9987   18.8892  -29.6618 H   0  0  0  0  0  0  0  0  0  0  0  0
   -1.7629   19.4811  -31.1759 H   0  0  0  0  0  0  0  0  0  0  0  0
   -0.0368   18.9839  -31.1759 H   0  0  0  0  0  0  0  0  0  0  0  0
   -0.8424   23.0656  -31.1477 H   0  0  0  0  0  0  0  0  0  0  0  0
   -2.6162   23.1432  -30.7418 H   0  0  0  0  0  0  0  0  0  0  0  0
   -1.1877   23.5948  -28.3433 H   0  0  0  0  0  0  0  0  0  0  0  0
   -0.4359   24.6210  -29.6366 H   0  0  0  0  0  0  0  0  0  0  0  0
   -3.1823   23.7797  -27.7983 H   0  0  0  0  0  0  0  0  0  0  0  0
   -3.9168   25.4112  -27.9974 H   0  0  0  0  0  0  0  0  0  0  0  0
   -4.4027   22.8822  -29.4456 H   0  0  0  0  0  0  0  0  0  0  0  0
   -5.4866   24.3199  -29.0811 H   0  0  0  0  0  0  0  0  0  0  0  0
   -6.3281   23.8517  -30.9350 H   0  0  0  0  0  0  0  0  0  0  0  0
   -5.6167   24.9365  -32.2472 H   0  0  0  0  0  0  0  0  0  0  0  0
   -6.2124   22.3959  -32.5887 H   0  0  0  0  0  0  0  0  0  0  0  0
   -4.8208   23.3335  -33.3915 H   0  0  0  0  0  0  0  0  0  0  0  0
   -3.6750   22.0410  -31.2160 H   0  0  0  0  0  0  0  0  0  0  0  0
   -6.7595   21.7187  -31.4536 H   0  0  0  0  0  0  0  0  0  0  0  0
   -9.1090   21.3270  -30.8758 H   0  0  0  0  0  0  0  0  0  0  0  0
  -10.1821   19.1485  -31.3964 H   0  0  0  0  0  0  0  0  0  0  0  0
   -8.8314   17.3796  -32.5122 H   0  0  0  0  0  0  0  0  0  0  0  0
   -6.5461   15.7411  -32.8104 H   0  0  0  0  0  0  0  0  0  0  0  0
   -7.3412   16.3904  -34.2845 H   0  0  0  0  0  0  0  0  0  0  0  0
   -5.5737   16.0699  -34.2845 H   0  0  0  0  0  0  0  0  0  0  0  0
   -0.8183   18.2649  -34.9041 H   0  0  0  0  0  0  0  0  0  0  0  0
    0.8154   20.1497  -34.7471 H   0  0  0  0  0  0  0  0  0  0  0  0
    0.0771   22.2416  -33.6386 H   0  0  0  0  0  0  0  0  0  0  0  0
   -2.1782   22.4795  -32.7180 H   0  0  0  0  0  0  0  0  0  0  0  0
  1  2  1  0
  2  3  1  0
  3  4  1  0
  4  5  1  0
  3  6  1  0
  6  7  1  0
  7  8  1  0
  8  9  1  0
  9 10  1  0
 10 11  1  0
 11 12  1  0
 12 13  1  0
 13 14  1  0
 14 15  1  0
 15 16  2  0
 16 17  1  0
 17 18  2  0
 18 19  1  0
 19 20  2  0
 20 21  1  0
 21 22  2  0
 22 23  1  0
 23 24  1  0
 23 25  2  0
 25 26  1  0
 26 27  1  0
 27 28  2  0
 28 29  1  0
 29 30  2  0
 30 31  1  0
 31 32  2  0
 32 15  1  0
 25 16  1  0
 32 27  1  0
 22 17  1  0
  1 33  1  0
  1 34  1  0
  1 35  1  0
  2 36  1  0
  2 37  1  0
  4 38  1  0
  4 39  1  0
  5 40  1  0
  5 41  1  0
  5 42  1  0
  6 43  1  0
  6 44  1  0
  7 45  1  0
  7 46  1  0
  9 47  1  0
  9 48  1  0
 10 49  1  0
 10 50  1  0
 12 51  1  0
 12 52  1  0
 13 53  1  0
 13 54  1  0
 14 55  1  0
 18 56  1  0
 19 57  1  0
 20 58  1  0
 21 59  1  0
 24 60  1  0
 24 61  1  0
 24 62  1  0
 28 63  1  0
 29 64  1  0
 30 65  1  0
 31 66  1  0
M  CHG  1  23   1
M  END
>  <smiles>  (14) 
CCN(CC)CCOCCOCCNc1c2c3ccccc3[n+](C)c-2sc2ccccc12

>  <score_type>  (14) 
oracle

>  <origin>  (14) 
adg

>  <m_score__min__energy>  (14) 
-9.9900000000000002

>  <m_primary>  (14) 
energy

$$$$
15:0
     RDKit          3D

 49 50  0  0  1  0  0  0  0  0999 V2000
   -4.1630   23.7620  -29.1000 C   0  0  0  0  0  0  0  0  0  0  0  0
   -4.5700   25.0350  -29.7610 C   0  0  1  0  0  0  0  0  0  0  0  0
   -3.6710   25.2240  -30.8430 O   0  0  0  0  0  0  0  0  0  0  0  0
   -5.9420   25.0760  -30.3230 C   0  0  0  0  0  0  0  0  0  0  0  0
   -6.1320   24.5180  -31.6840 C   0  0  0  0  0  0  0  0  0  0  0  0
   -5.6730   23.1170  -31.8500 C   0  0  0  0  0  0  0  0  0  0  0  0
   -4.6060   22.6140  -32.5650 C   0  0  0  0  0  0  0  0  0  0  0  0
   -4.6280   21.2600  -32.4050 C   0  0  0  0  0  0  0  0  0  0  0  0
   -3.7330   20.2100  -32.9550 C   0  0  0  0  0  0  0  0  0  0  0  0
   -3.9530   18.9070  -32.4170 N   0  0  0  0  0  0  0  0  0  0  0  0
   -4.3280   17.9780  -33.4610 C   0  0  0  0  0  0  0  0  0  0  0  0
   -5.6710   17.3120  -33.2180 C   0  0  0  0  0  0  0  0  0  0  0  0
   -6.5960   18.2650  -32.7300 N   0  0  0  0  0  0  0  0  0  0  0  0
   -7.3370   17.9470  -31.5730 C   0  0  0  0  0  0  0  0  0  0  0  0
   -8.8200   18.2320  -31.6950 C   0  0  0  0  0  0  0  0  0  0  0  0
   -9.1340   19.2740  -32.5260 O   0  0  0  0  0  0  0  0  0  0  0  0
   -8.0830   20.1080  -32.8250 C   0  0  0  0  0  0  0  0  0  0  0  0
   -7.0620   19.2770  -33.5910 C   0  0  0  0  0  0  0  0  0  0  0  0
   -5.6910   20.9550  -31.6040 N   0  0  0  0  0  0  0  0  0  0  0  0
   -6.3000   22.0710  -31.2860 N   0  0  0  0  0  0  0  0  0  0  0  0
   -7.4860   22.1070  -30.4390 C   0  0  0  0  0  0  0  0  0  0  0  0
   -4.2029   23.8869  -28.0078 H   0  0  0  0  0  0  0  0  0  0  0  0
   -4.8484   22.9565  -29.4023 H   0  0  0  0  0  0  0  0  0  0  0  0
   -3.1374   23.5035  -29.4023 H   0  0  0  0  0  0  0  0  0  0  0  0
   -4.5491   25.8099  -28.9806 H   0  0  0  0  0  0  0  0  0  0  0  0
   -4.2000   25.6780  -31.5760 H   0  0  0  0  0  0  0  0  0  0  0  0
   -6.5966   24.5143  -29.6403 H   0  0  0  0  0  0  0  0  0  0  0  0
   -6.1782   26.1461  -30.4188 H   0  0  0  0  0  0  0  0  0  0  0  0
   -7.2048   24.5576  -31.9237 H   0  0  0  0  0  0  0  0  0  0  0  0
   -5.5145   25.1289  -32.3589 H   0  0  0  0  0  0  0  0  0  0  0  0
   -3.8777   23.1935  -33.1513 H   0  0  0  0  0  0  0  0  0  0  0  0
   -3.8858   20.1632  -34.0433 H   0  0  0  0  0  0  0  0  0  0  0  0
   -2.7073   20.4950  -32.6779 H   0  0  0  0  0  0  0  0  0  0  0  0
   -4.7110   18.9710  -31.7040 H   0  0  0  0  0  0  0  0  0  0  0  0
   -4.3768   18.5249  -34.4141 H   0  0  0  0  0  0  0  0  0  0  0  0
   -3.5682   17.1828  -33.4781 H   0  0  0  0  0  0  0  0  0  0  0  0
   -6.0455   16.8895  -34.1621 H   0  0  0  0  0  0  0  0  0  0  0  0
   -5.5499   16.5094  -32.4756 H   0  0  0  0  0  0  0  0  0  0  0  0
   -7.2067   16.8753  -31.3622 H   0  0  0  0  0  0  0  0  0  0  0  0
   -6.9549   18.5867  -30.7638 H   0  0  0  0  0  0  0  0  0  0  0  0
   -9.3129   17.3266  -32.0788 H   0  0  0  0  0  0  0  0  0  0  0  0
   -9.1658   18.5190  -30.6910 H   0  0  0  0  0  0  0  0  0  0  0  0
   -8.4306   20.9466  -33.4462 H   0  0  0  0  0  0  0  0  0  0  0  0
   -7.6412   20.5280  -31.9094 H   0  0  0  0  0  0  0  0  0  0  0  0
   -7.5348   18.8265  -34.4762 H   0  0  0  0  0  0  0  0  0  0  0  0
   -6.2271   19.9094  -33.9272 H   0  0  0  0  0  0  0  0  0  0  0  0
   -7.1820   22.0978  -29.3819 H   0  0  0  0  0  0  0  0  0  0  0  0
   -8.0582   23.0229  -30.6480 H   0  0  0  0  0  0  0  0  0  0  0  0
   -8.1127   21.2275  -30.6480 H   0  0  0  0  0  0  0  0  0  0  0  0
  1  2  1  0
  2  3  1  0
  2  4  1  0
  4  5  1  0
  5  6  1  0
  6  7  2  0
  7  8  1  0
  8  9  1  0
  9 10  1  0
 10 11  1  0
 11 12  1  0
 12 13  1  0
 13 14  1  0
 14 15  1  0
 15 16  1  0
 16 17  1  0
 17 18  1  0
  8 19  2  0
 19 20  1  0
 20 21  1  0
 20  6  1  0
 18 13  1  0
  1 22  1  0
  1 23  1  0
  1 24  1  0
  2 25  1  1
  3 26  1  0
  4 27  1  0
  4 28  1  0
  5 29  1  0
  5 30  1  0
  7 31  1  0
  9 32  1  0
  9 33  1  0
 10 34  1  0
 11 35  1  0
 11 36  1  0
 12 37  1  0
 12 38  1  0
 14 39  1  0
 14 40  1  0
 15 41  1  0
 15 42  1  0
 17 43  1  0
 17 44  1  0
 18 45  1  0
 18 46  1  0
 21 47  1  0
 21 48  1  0
 21 49  1  0
M  END
>  <smiles>  (15) 
CC(O)CCc1cc(CNCCN2CCOCC2)nn1C

>  <score_type>  (15) 
oracle

>  <origin>  (15) 
adg

>  <m_score__min__energy>  (15) 
-8.2799999999999994

>  <m_primary>  (15) 
energy

$$$$
16:0
     RDKit          3D

 49 52  0  0  0  0  0  0  0  0999 V2000
   -0.7650   21.0510  -26.8210 C   0  0  0  0  0  0  0  0  0  0  0  0
   -1.3680   22.3460  -27.1050 N   0  0  0  0  0  0  0  0  0  0  0  0
   -1.2560   23.4590  -26.3600 C   0  0  0  0  0  0  0  0  0  0  0  0
   -0.5730   23.6660  -25.1800 C   0  0  0  0  0  0  0  0  0  0  0  0
   -0.6320   24.9300  -24.6250 C   0  0  0  0  0  0  0  0  0  0  0  0
   -1.3500   25.9520  -25.2300 C   0  0  0  0  0  0  0  0  0  0  0  0
   -2.0370   25.7320  -26.4220 C   0  0  0  0  0  0  0  0  0  0  0  0
   -1.9810   24.4790  -26.9780 C   0  0  0  0  0  0  0  0  0  0  0  0
   -2.5420   23.9600  -28.1260 C   0  0  0  0  0  0  0  0  0  0  0  0
   -3.3530   24.4880  -29.1300 C   0  0  0  0  0  0  0  0  0  0  0  0
   -3.7560   23.6830  -30.1760 C   0  0  0  0  0  0  0  0  0  0  0  0
   -4.5550   24.1050  -31.2160 O   0  0  0  0  0  0  0  0  0  0  0  0
   -5.1350   23.1880  -32.1480 C   0  0  0  0  0  0  0  0  0  0  0  0
   -6.5420   22.9890  -31.8090 C   0  0  0  0  0  0  0  0  0  0  0  0
   -7.2420   23.9510  -31.3620 O   0  0  0  0  0  0  0  0  0  0  0  0
   -7.1570   21.7280  -31.9700 N   0  0  0  0  0  0  0  0  0  0  0  0
   -6.3250   20.6160  -32.4950 C   0  0  0  0  0  0  0  0  0  0  0  0
   -6.6200   19.2590  -31.9920 C   0  0  0  0  0  0  0  0  0  0  0  0
   -7.7170   18.4060  -32.5750 C   0  0  0  0  0  0  0  0  0  0  0  0
   -9.1360   18.9250  -32.1610 C   0  0  0  0  0  0  0  0  0  0  0  0
   -9.0000   20.2820  -31.8550 C   0  0  0  0  0  0  0  0  0  0  0  0
   -8.5930   21.6180  -31.5990 C   0  0  0  0  0  0  0  0  0  0  0  0
   -3.3350   22.3720  -30.1850 C   0  0  0  0  0  0  0  0  0  0  0  0
   -2.5320   21.8330  -29.1990 C   0  0  0  0  0  0  0  0  0  0  0  0
   -2.1290   22.6340  -28.1540 C   0  0  0  0  0  0  0  0  0  0  0  0
   -0.6986   20.9083  -25.7323 H   0  0  0  0  0  0  0  0  0  0  0  0
   -1.3847   20.2542  -27.2581 H   0  0  0  0  0  0  0  0  0  0  0  0
    0.2437   21.0124  -27.2581 H   0  0  0  0  0  0  0  0  0  0  0  0
   -0.0036   22.8567  -24.6995 H   0  0  0  0  0  0  0  0  0  0  0  0
   -0.0987   25.1304  -23.6840 H   0  0  0  0  0  0  0  0  0  0  0  0
   -1.3770   26.9475  -24.7629 H   0  0  0  0  0  0  0  0  0  0  0  0
   -2.6079   26.5397  -26.9034 H   0  0  0  0  0  0  0  0  0  0  0  0
   -3.6698   25.5406  -29.0885 H   0  0  0  0  0  0  0  0  0  0  0  0
   -5.0555   23.5975  -33.1659 H   0  0  0  0  0  0  0  0  0  0  0  0
   -4.6028   22.2264  -32.1023 H   0  0  0  0  0  0  0  0  0  0  0  0
   -6.4475   20.5981  -33.5880 H   0  0  0  0  0  0  0  0  0  0  0  0
   -5.3053   20.8338  -32.1446 H   0  0  0  0  0  0  0  0  0  0  0  0
   -5.6904   18.6817  -32.1039 H   0  0  0  0  0  0  0  0  0  0  0  0
   -7.0055   19.4684  -30.9833 H   0  0  0  0  0  0  0  0  0  0  0  0
   -7.6371   18.4231  -33.6720 H   0  0  0  0  0  0  0  0  0  0  0  0
   -7.5991   17.3834  -32.1873 H   0  0  0  0  0  0  0  0  0  0  0  0
   -9.8439   18.7941  -32.9927 H   0  0  0  0  0  0  0  0  0  0  0  0
   -9.5233   18.3642  -31.2976 H   0  0  0  0  0  0  0  0  0  0  0  0
   -9.7578   20.5879  -32.5913 H   0  0  0  0  0  0  0  0  0  0  0  0
   -8.3904   19.9791  -30.9909 H   0  0  0  0  0  0  0  0  0  0  0  0
   -9.1914   22.3151  -32.2039 H   0  0  0  0  0  0  0  0  0  0  0  0
   -8.7390   21.8705  -30.5384 H   0  0  0  0  0  0  0  0  0  0  0  0
   -3.6528   21.7244  -31.0154 H   0  0  0  0  0  0  0  0  0  0  0  0
   -2.2191   20.7796  -29.2478 H   0  0  0  0  0  0  0  0  0  0  0  0
  1  2  1  0
  2  3  1  0
  3  4  2  0
  4  5  1  0
  5  6  2  0
  6  7  1  0
  7  8  2  0
  8  9  1  0
  9 10  2  0
 10 11  1  0
 11 12  1  0
 12 13  1  0
 13 14  1  0
 14 15  2  0
 14 16  1  0
 16 17  1  0
 17 18  1  0
 18 19  1  0
 19 20  1  0
 20 21  1  0
 21 22  1  0
 11 23  2  0
 23 24  1  0
 24 25  2  0
 25  2  1  0
  8  3  1  0
 25  9  1  0
 22 16  1  0
  1 26  1  0
  1 27  1  0
  1 28  1  0
  4 29  1  0
  5 30  1  0
  6 31  1  0
  7 32  1  0
 10 33  1  0
 13 34  1  0
 13 35  1  0
 17 36  1  0
 17 37  1  0
 18 38  1  0
 18 39  1  0
 19 40  1  0
 19 41  1  0
 20 42  1  0
 20 43  1  0
 21 44  1  0
 21 45  1  0
 22 46  1  0
 22 47  1  0
 23 48  1  0
 24 49  1  0
M  END
>  <smiles>  (16) 
Cn1c2ccccc2c2cc(OCC(=O)N3CCCCCC3)ccc21

>  <score_type>  (16) 
oracle

>  <origin>  (16) 
adg

>  <m_score__min__energy>  (16) 
-7.7400000000000002

>  <m_primary>  (16) 
energy

$$$$
