0:0
     RDKit          3D

 49 51  0  0  0  0  0  0  0  0999 V2000
   -9.5380   20.8610  -32.1420 C   0  0  0  0  0  0  0  0  0  0  0  0
   -9.0970   22.2210  -31.5950 C   0  0  0  0  0  0  0  0  0  0  0  0
   -7.9750   22.1030  -30.5450 C   0  0  0  0  0  0  0  0  0  0  0  0
   -6.6580   22.8270  -30.8290 C   0  0  0  0  0  0  0  0  0  0  0  0
   -6.5350   24.2080  -30.5670 C   0  0  0  0  0  0  0  0  0  0  0  0
   -5.3100   24.8450  -30.7360 C   0  0  0  0  0  0  0  0  0  0  0  0
   -5.1960   26.0700  -30.4710 O   0  0  0  0  0  0  0  0  0  0  0  0
   -4.2580   24.1710  -31.1690 O   0  0  0  0  0  0  0  0  0  0  0  0
   -4.3090   22.8860  -31.4950 C   0  0  0  0  0  0  0  0  0  0  0  0
   -3.1430   22.2770  -31.9580 C   0  0  0  0  0  0  0  0  0  0  0  0
   -3.1470   20.9340  -32.3520 C   0  0  0  0  0  0  0  0  0  0  0  0
   -1.9930   20.2810  -32.8120 O   0  0  0  0  0  0  0  0  0  0  0  0
   -1.2920   20.6240  -34.0030 C   0  0  0  0  0  0  0  0  0  0  0  0
   -4.3390   20.2140  -32.3030 C   0  0  0  0  0  0  0  0  0  0  0  0
   -5.5370   20.8030  -31.8510 C   0  0  0  0  0  0  0  0  0  0  0  0
   -6.7380   20.0770  -31.8950 O   0  0  0  0  0  0  0  0  0  0  0  0
   -6.8810   18.6910  -31.5940 C   0  0  0  0  0  0  0  0  0  0  0  0
   -7.6430   18.0090  -32.7270 C   0  0  0  0  0  0  0  0  0  0  0  0
   -6.7110   17.3900  -33.6900 N   0  0  0  0  0  0  0  0  0  0  0  0
   -5.6080   16.7140  -33.0040 C   0  0  0  0  0  0  0  0  0  0  0  0
   -4.4520   16.6670  -33.9850 C   0  0  0  0  0  0  0  0  0  0  0  0
   -4.7050   17.8100  -34.9530 C   0  0  0  0  0  0  0  0  0  0  0  0
   -6.0710   18.3710  -34.5750 C   0  0  0  0  0  0  0  0  0  0  0  0
   -5.5230   22.1510  -31.3860 C   0  0  0  0  0  0  0  0  0  0  0  0
   -9.7579   20.1827  -31.3044 H   0  0  0  0  0  0  0  0  0  0  0  0
  -10.4408   20.9885  -32.7573 H   0  0  0  0  0  0  0  0  0  0  0  0
   -8.7321   20.4345  -32.7573 H   0  0  0  0  0  0  0  0  0  0  0  0
   -8.7332   22.8358  -32.4315 H   0  0  0  0  0  0  0  0  0  0  0  0
   -9.9670   22.6795  -31.1022 H   0  0  0  0  0  0  0  0  0  0  0  0
   -8.3692   22.4975  -29.5969 H   0  0  0  0  0  0  0  0  0  0  0  0
   -7.7103   21.0354  -30.5391 H   0  0  0  0  0  0  0  0  0  0  0  0
   -7.4099   24.7823  -30.2283 H   0  0  0  0  0  0  0  0  0  0  0  0
   -2.2107   22.8580  -32.0141 H   0  0  0  0  0  0  0  0  0  0  0  0
   -0.3323   21.0936  -33.7413 H   0  0  0  0  0  0  0  0  0  0  0  0
   -1.1063   19.7150  -34.5939 H   0  0  0  0  0  0  0  0  0  0  0  0
   -1.8958   21.3284  -34.5939 H   0  0  0  0  0  0  0  0  0  0  0  0
   -4.3451   19.1620  -32.6244 H   0  0  0  0  0  0  0  0  0  0  0  0
   -5.8866   18.2322  -31.4906 H   0  0  0  0  0  0  0  0  0  0  0  0
   -7.4350   18.5722  -30.6512 H   0  0  0  0  0  0  0  0  0  0  0  0
   -8.2949   17.2300  -32.3049 H   0  0  0  0  0  0  0  0  0  0  0  0
   -8.2417   18.7665  -33.2541 H   0  0  0  0  0  0  0  0  0  0  0  0
   -5.3193   17.2763  -32.1037 H   0  0  0  0  0  0  0  0  0  0  0  0
   -5.8994   15.7023  -32.6852 H   0  0  0  0  0  0  0  0  0  0  0  0
   -3.4954   16.8097  -33.4611 H   0  0  0  0  0  0  0  0  0  0  0  0
   -4.3894   15.6974  -34.5008 H   0  0  0  0  0  0  0  0  0  0  0  0
   -3.9294   18.5827  -34.8462 H   0  0  0  0  0  0  0  0  0  0  0  0
   -4.6789   17.4713  -35.9992 H   0  0  0  0  0  0  0  0  0  0  0  0
   -5.9528   19.3310  -34.0512 H   0  0  0  0  0  0  0  0  0  0  0  0
   -6.6834   18.5474  -35.4716 H   0  0  0  0  0  0  0  0  0  0  0  0
  1  2  1  0
  2  3  1  0
  3  4  1  0
  4  5  2  0
  5  6  1  0
  6  7  2  0
  6  8  1  0
  8  9  1  0
  9 10  2  0
 10 11  1  0
 11 12  1  0
 12 13  1  0
 11 14  2  0
 14 15  1  0
 15 16  1  0
 16 17  1  0
 17 18  1  0
 18 19  1  0
 19 20  1  0
 20 21  1  0
 21 22  1  0
 22 23  1  0
 15 24  2  0
 24  4  1  0
 24  9  1  0
 23 19  1  0
  1 25  1  0
  1 26  1  0
  1 27  1  0
  2 28  1  0
  2 29  1  0
  3 30  1  0
  3 31  1  0
  5 32  1  0
 10 33  1  0
 13 34  1  0
 13 35  1  0
 13 36  1  0
 14 37  1  0
 17 38  1  0
 17 39  1  0
 18 40  1  0
 18 41  1  0
 20 42  1  0
 20 43  1  0
 21 44  1  0
 21 45  1  0
 22 46  1  0
 22 47  1  0
 23 48  1  0
 23 49  1  0
M  END
>  <UniqueID>  (1) 
1

>  <SMILES>  (1) 
CCCc1cc(=O)oc2cc(OC)cc(OCCN3CCCC3)c12

>  <Energy>  (1) 
59.70168489250593

>  <Genealogy>  (1) 
CCCc1cc(=O)oc2cc(OC)cc(OCCN3CCCC3)c12 (3D coordinates assigned)
CCCc1cc(=O)oc2cc(OC)cc(OCCN3CCCC3)c12 (nonaromatic ring conformer: 59.70168489250593 kcal/mol)

>  <smiles>  (1) 
CCCc1cc(=O)oc2cc(OC)cc(OCCN3CCCC3)c12

>  <score_type>  (1) 
oracle

>  <origin>  (1) 
adg

>  <m_score__min__energy>  (1) 
-7.7199999999999998

>  <m_primary>  (1) 
energy

$$$$
1:0
     RDKit          3D

 52 54  0  0  0  0  0  0  0  0999 V2000
   -4.7640   17.3040  -34.1420 C   0  0  0  0  0  0  0  0  0  0  0  0
   -5.6220   18.2760  -33.4430 N   0  0  0  0  0  0  0  0  0  0  0  0
   -5.2300   19.5930  -33.3540 C   0  0  0  0  0  0  0  0  0  0  0  0
   -4.1520   19.9820  -33.8770 O   0  0  0  0  0  0  0  0  0  0  0  0
   -6.0690   20.4910  -32.6990 C   0  0  0  0  0  0  0  0  0  0  0  0
   -7.2650   20.0710  -32.2180 C   0  0  0  0  0  0  0  0  0  0  0  0
   -7.9530   21.0950  -31.6810 N   0  0  0  0  0  0  0  0  0  0  0  0
   -7.1140   22.1480  -31.8500 C   0  0  0  0  0  0  0  0  0  0  0  0
   -7.4870   23.5360  -31.4070 C   0  0  0  0  0  0  0  0  0  0  0  0
   -6.7350   23.9150  -30.1970 N   0  0  0  0  0  0  0  0  0  0  0  0
   -5.7900   22.8470  -29.8150 C   0  0  0  0  0  0  0  0  0  0  0  0
   -4.7520   23.3790  -28.8130 C   0  0  0  0  0  0  0  0  0  0  0  0
   -3.9820   24.4800  -29.2830 O   0  0  0  0  0  0  0  0  0  0  0  0
   -4.5500   25.1370  -30.4060 C   0  0  0  0  0  0  0  0  0  0  0  0
   -6.0820   25.2430  -30.3240 C   0  0  0  0  0  0  0  0  0  0  0  0
   -5.9430   21.8150  -32.4660 N   0  0  0  0  0  0  0  0  0  0  0  0
   -4.7840   22.6860  -32.7150 C   0  0  0  0  0  0  0  0  0  0  0  0
   -3.5440   22.1940  -31.9570 C   0  0  0  0  0  0  0  0  0  0  0  0
   -2.4380   21.8960  -32.8810 N   0  0  0  0  0  0  0  0  0  0  0  0
   -1.7100   20.6880  -32.4700 C   0  0  0  0  0  0  0  0  0  0  0  0
   -0.9350   20.1160  -33.6540 C   0  0  0  0  0  0  0  0  0  0  0  0
   -1.3620   20.7340  -34.8360 O   0  0  0  0  0  0  0  0  0  0  0  0
   -7.6790   18.7790  -32.3150 N   0  0  0  0  0  0  0  0  0  0  0  0
   -9.0040   18.3770  -31.8210 C   0  0  0  0  0  0  0  0  0  0  0  0
   -6.8550   17.8810  -32.9540 C   0  0  0  0  0  0  0  0  0  0  0  0
   -7.2340   16.6850  -33.1030 O   0  0  0  0  0  0  0  0  0  0  0  0
   -4.2247   16.6931  -33.4031 H   0  0  0  0  0  0  0  0  0  0  0  0
   -5.3866   16.6522  -34.7724 H   0  0  0  0  0  0  0  0  0  0  0  0
   -4.0399   17.8409  -34.7724 H   0  0  0  0  0  0  0  0  0  0  0  0
   -7.2558   24.2472  -32.2137 H   0  0  0  0  0  0  0  0  0  0  0  0
   -8.5625   23.5574  -31.1769 H   0  0  0  0  0  0  0  0  0  0  0  0
   -6.3474   22.0187  -29.3533 H   0  0  0  0  0  0  0  0  0  0  0  0
   -5.2666   22.4960  -30.7166 H   0  0  0  0  0  0  0  0  0  0  0  0
   -5.2843   23.6962  -27.9041 H   0  0  0  0  0  0  0  0  0  0  0  0
   -4.0428   22.5574  -28.6345 H   0  0  0  0  0  0  0  0  0  0  0  0
   -4.1305   26.1520  -30.4684 H   0  0  0  0  0  0  0  0  0  0  0  0
   -4.3071   24.5390  -31.2967 H   0  0  0  0  0  0  0  0  0  0  0  0
   -6.3476   25.8526  -29.4477 H   0  0  0  0  0  0  0  0  0  0  0  0
   -6.4370   25.7036  -31.2577 H   0  0  0  0  0  0  0  0  0  0  0  0
   -4.5658   22.6926  -33.7931 H   0  0  0  0  0  0  0  0  0  0  0  0
   -5.0282   23.6985  -32.3612 H   0  0  0  0  0  0  0  0  0  0  0  0
   -3.2218   22.9742  -31.2517 H   0  0  0  0  0  0  0  0  0  0  0  0
   -3.8077   21.2706  -31.4206 H   0  0  0  0  0  0  0  0  0  0  0  0
   -2.8510   21.7090  -33.8250 H   0  0  0  0  0  0  0  0  0  0  0  0
   -1.0067   20.9434  -31.6637 H   0  0  0  0  0  0  0  0  0  0  0  0
   -2.4301   19.9368  -32.1136 H   0  0  0  0  0  0  0  0  0  0  0  0
    0.1400   20.3006  -33.5118 H   0  0  0  0  0  0  0  0  0  0  0  0
   -1.1162   19.0331  -33.7212 H   0  0  0  0  0  0  0  0  0  0  0  0
   -2.3480   20.8250  -34.7570 H   0  0  0  0  0  0  0  0  0  0  0  0
   -9.0010   18.3779  -30.7210 H   0  0  0  0  0  0  0  0  0  0  0  0
   -9.7620   19.0856  -32.1862 H   0  0  0  0  0  0  0  0  0  0  0  0
   -9.2405   17.3667  -32.1862 H   0  0  0  0  0  0  0  0  0  0  0  0
  1  2  1  0
  2  3  1  0
  3  4  2  0
  3  5  1  0
  5  6  2  0
  6  7  1  0
  7  8  2  0
  8  9  1  0
  9 10  1  0
 10 11  1  0
 11 12  1  0
 12 13  1  0
 13 14  1  0
 14 15  1  0
  8 16  1  0
 16 17  1  0
 17 18  1  0
 18 19  1  0
 19 20  1  0
 20 21  1  0
 21 22  1  0
  6 23  1  0
 23 24  1  0
 23 25  1  0
 25 26  2  0
 25  2  1  0
 16  5  1  0
 15 10  1  0
  1 27  1  0
  1 28  1  0
  1 29  1  0
  9 30  1  0
  9 31  1  0
 11 32  1  0
 11 33  1  0
 12 34  1  0
 12 35  1  0
 14 36  1  0
 14 37  1  0
 15 38  1  0
 15 39  1  0
 17 40  1  0
 17 41  1  0
 18 42  1  0
 18 43  1  0
 19 44  1  0
 20 45  1  0
 20 46  1  0
 21 47  1  0
 21 48  1  0
 22 49  1  0
 24 50  1  0
 24 51  1  0
 24 52  1  0
M  END
>  <UniqueID>  (2) 
2

>  <SMILES>  (2) 
Cn1c(=O)c2c(nc(CN3CCOCC3)n2CCNCCO)n(C)c1=O

>  <Energy>  (2) 
105.16678741465815

>  <Genealogy>  (2) 
Cn1c(=O)c2c(nc(CN3CCOCC3)n2CCNCCO)n(C)c1=O (3D coordinates assigned)
Cn1c(=O)c2c(nc(CN3CCOCC3)n2CCNCCO)n(C)c1=O (nonaromatic ring conformer: 105.16678741465815 kcal/mol)

>  <smiles>  (2) 
Cn1c(=O)c2c(nc(CN3CCOCC3)n2CCNCCO)n(C)c1=O

>  <score_type>  (2) 
oracle

>  <origin>  (2) 
adg

>  <m_score__min__energy>  (2) 
-7.5899999999999999

>  <m_primary>  (2) 
energy

$$$$
2:0
     RDKit          3D

 51 54  0  0  0  0  0  0  0  0999 V2000
    0.0850   25.1330  -26.6530 C   0  0  0  0  0  0  0  0  0  0  0  0
   -0.9980   24.4640  -27.4300 C   0  0  0  0  0  0  0  0  0  0  0  0
   -1.4050   23.1980  -27.2000 N   0  0  0  0  0  0  0  0  0  0  0  0
   -2.4600   22.8450  -27.9860 C   0  0  0  0  0  0  0  0  0  0  0  0
   -3.0820   21.4910  -27.8620 C   0  0  0  0  0  0  0  0  0  0  0  0
   -2.9000   23.8510  -28.8600 C   0  0  0  0  0  0  0  0  0  0  0  0
   -4.0200   23.7920  -29.8240 C   0  0  0  0  0  0  0  0  0  0  0  0
   -3.9280   22.9620  -30.9520 C   0  0  0  0  0  0  0  0  0  0  0  0
   -4.9850   22.8840  -31.8640 C   0  0  0  0  0  0  0  0  0  0  0  0
   -6.1530   23.6370  -31.6630 C   0  0  0  0  0  0  0  0  0  0  0  0
   -7.2560   23.5290  -32.5850 N   0  0  0  0  0  0  0  0  0  0  0  0
   -8.3650   22.7950  -31.9590 C   0  0  0  0  0  0  0  0  0  0  0  0
   -8.1400   21.3100  -32.0650 C   0  0  0  0  0  0  0  0  0  0  0  0
   -8.9200   20.4180  -31.3150 C   0  0  0  0  0  0  0  0  0  0  0  0
   -8.7220   19.0410  -31.4320 C   0  0  0  0  0  0  0  0  0  0  0  0
   -7.7630   18.5430  -32.3190 C   0  0  0  0  0  0  0  0  0  0  0  0
   -7.0030   19.4170  -33.1050 C   0  0  0  0  0  0  0  0  0  0  0  0
   -6.0480   18.8790  -33.9800 O   0  0  0  0  0  0  0  0  0  0  0  0
   -4.6590   18.9900  -33.8360 C   0  0  0  0  0  0  0  0  0  0  0  0
   -4.0550   20.1480  -33.3080 C   0  0  0  0  0  0  0  0  0  0  0  0
   -2.6640   20.2240  -33.1870 C   0  0  0  0  0  0  0  0  0  0  0  0
   -1.8660   19.1540  -33.6020 C   0  0  0  0  0  0  0  0  0  0  0  0
   -2.4580   18.0120  -34.1490 C   0  0  0  0  0  0  0  0  0  0  0  0
   -3.8490   17.9340  -34.2710 C   0  0  0  0  0  0  0  0  0  0  0  0
   -7.1860   20.8050  -32.9640 C   0  0  0  0  0  0  0  0  0  0  0  0
   -6.2560   24.4460  -30.5200 C   0  0  0  0  0  0  0  0  0  0  0  0
   -5.2000   24.5230  -29.6080 C   0  0  0  0  0  0  0  0  0  0  0  0
   -1.9470   25.2150  -28.5930 S   0  0  0  0  0  0  0  0  0  0  0  0
   -0.1084   25.0135  -25.5768 H   0  0  0  0  0  0  0  0  0  0  0  0
    1.0531   24.6753  -26.9046 H   0  0  0  0  0  0  0  0  0  0  0  0
    0.1091   26.2036  -26.9046 H   0  0  0  0  0  0  0  0  0  0  0  0
   -3.1986   21.2371  -26.7981 H   0  0  0  0  0  0  0  0  0  0  0  0
   -4.0686   21.4948  -28.3483 H   0  0  0  0  0  0  0  0  0  0  0  0
   -2.4363   20.7450  -28.3483 H   0  0  0  0  0  0  0  0  0  0  0  0
   -3.0173   22.3683  -31.1199 H   0  0  0  0  0  0  0  0  0  0  0  0
   -4.9011   22.2291  -32.7438 H   0  0  0  0  0  0  0  0  0  0  0  0
   -7.5780   24.4870  -32.8630 H   0  0  0  0  0  0  0  0  0  0  0  0
   -6.9440   23.0310  -33.4510 H   0  0  0  0  0  0  0  0  0  0  0  0
   -8.4320   23.0763  -30.8977 H   0  0  0  0  0  0  0  0  0  0  0  0
   -9.3000   23.0514  -32.4787 H   0  0  0  0  0  0  0  0  0  0  0  0
   -9.6907   20.8047  -30.6320 H   0  0  0  0  0  0  0  0  0  0  0  0
   -9.3216   18.3466  -30.8252 H   0  0  0  0  0  0  0  0  0  0  0  0
   -7.6047   17.4575  -32.3997 H   0  0  0  0  0  0  0  0  0  0  0  0
   -4.6799   20.9955  -32.9897 H   0  0  0  0  0  0  0  0  0  0  0  0
   -2.1975   21.1263  -32.7650 H   0  0  0  0  0  0  0  0  0  0  0  0
   -0.7724   19.2107  -33.4981 H   0  0  0  0  0  0  0  0  0  0  0  0
   -1.8292   17.1739  -34.4838 H   0  0  0  0  0  0  0  0  0  0  0  0
   -4.3096   17.0374  -34.7115 H   0  0  0  0  0  0  0  0  0  0  0  0
   -6.5777   21.4996  -33.5620 H   0  0  0  0  0  0  0  0  0  0  0  0
   -7.1749   25.0236  -30.3411 H   0  0  0  0  0  0  0  0  0  0  0  0
   -5.2933   25.1597  -28.7158 H   0  0  0  0  0  0  0  0  0  0  0  0
  1  2  1  0
  2  3  2  0
  3  4  1  0
  4  5  1  0
  4  6  2  0
  6  7  1  0
  7  8  2  0
  8  9  1  0
  9 10  2  0
 10 11  1  0
 11 12  1  0
 12 13  1  0
 13 14  2  0
 14 15  1  0
 15 16  2  0
 16 17  1  0
 17 18  1  0
 18 19  1  0
 19 20  2  0
 20 21  1  0
 21 22  2  0
 22 23  1  0
 23 24  2  0
 17 25  2  0
 10 26  1  0
 26 27  2  0
  6 28  1  0
 28  2  1  0
 27  7  1  0
 25 13  1  0
 24 19  1  0
  1 29  1  0
  1 30  1  0
  1 31  1  0
  5 32  1  0
  5 33  1  0
  5 34  1  0
  8 35  1  0
  9 36  1  0
 11 37  1  0
 11 38  1  0
 12 39  1  0
 12 40  1  0
 14 41  1  0
 15 42  1  0
 16 43  1  0
 20 44  1  0
 21 45  1  0
 22 46  1  0
 23 47  1  0
 24 48  1  0
 25 49  1  0
 26 50  1  0
 27 51  1  0
M  CHG  1  11   1
M  END
>  <UniqueID>  (3) 
3

>  <SMILES>  (3) 
Cc1nc(C)c(-c2ccc([NH2+]Cc3cccc(Oc4ccccc4)c3)cc2)s1

>  <Energy>  (3) 
93.38297911307049

>  <Genealogy>  (3) 
Cc1nc(C)c(-c2ccc([NH2+]Cc3cccc(Oc4ccccc4)c3)cc2)s1 (protonated)
Cc1nc(C)c(-c2ccc([NH2+]Cc3cccc(Oc4ccccc4)c3)cc2)s1 (3D coordinates assigned)
Cc1nc(C)c(-c2ccc([NH2+]Cc3cccc(Oc4ccccc4)c3)cc2)s1 (optimized conformer: 93.38297911307049 kcal/mol)

>  <smiles>  (3) 
Cc1nc(C)c(-c2ccc(NCc3cccc(Oc4ccccc4)c3)cc2)s1

>  <score_type>  (3) 
oracle

>  <origin>  (3) 
adg

>  <m_score__min__energy>  (3) 
-8.8300000000000001

>  <m_primary>  (3) 
energy

$$$$
3:0
     RDKit          3D

 36 37  0  0  0  0  0  0  0  0999 V2000
   -2.9470   23.0660  -30.4750 C   0  0  0  0  0  0  0  0  0  0  0  0
   -3.5370   24.2010  -29.6450 C   0  0  0  0  0  0  0  0  0  0  0  0
   -3.8620   25.2970  -30.4790 O   0  0  0  0  0  0  0  0  0  0  0  0
   -5.2590   25.5010  -30.5110 C   0  0  0  0  0  0  0  0  0  0  0  0
   -5.9660   24.3220  -29.8480 C   0  0  0  0  0  0  0  0  0  0  0  0
   -7.4600   23.8420  -30.7910 S   0  0  0  0  0  0  0  0  0  0  0  0
   -6.6470   22.5520  -31.7420 C   0  0  0  0  0  0  0  0  0  0  0  0
   -5.5500   22.7710  -32.4910 N   0  0  0  0  0  0  0  0  0  0  0  0
   -5.2610   21.6160  -33.0650 N   0  0  0  0  0  0  0  0  0  0  0  0
   -6.1700   20.7050  -32.6690 C   0  0  0  0  0  0  0  0  0  0  0  0
   -6.1660   19.3080  -33.1530 C   0  0  0  0  0  0  0  0  0  0  0  0
   -5.7970   18.8460  -34.4130 C   0  0  0  0  0  0  0  0  0  0  0  0
   -5.9670   17.4650  -34.5710 C   0  0  0  0  0  0  0  0  0  0  0  0
   -6.4830   16.8320  -33.4490 C   0  0  0  0  0  0  0  0  0  0  0  0
   -6.7310   17.9960  -32.2640 S   0  0  0  0  0  0  0  0  0  0  0  0
   -7.0740   21.2720  -31.8340 N   0  0  0  0  0  0  0  0  0  0  0  0
   -8.3030   20.7090  -31.2680 C   0  0  0  0  0  0  0  0  0  0  0  0
   -9.3170   20.4030  -32.3660 C   0  0  0  0  0  0  0  0  0  0  0  0
   -2.5448   22.2922  -29.8046 H   0  0  0  0  0  0  0  0  0  0  0  0
   -3.7322   22.6293  -31.1096 H   0  0  0  0  0  0  0  0  0  0  0  0
   -2.1384   23.4578  -31.1096 H   0  0  0  0  0  0  0  0  0  0  0  0
   -4.4473   23.8465  -29.1393 H   0  0  0  0  0  0  0  0  0  0  0  0
   -2.7955   24.5241  -28.8995 H   0  0  0  0  0  0  0  0  0  0  0  0
   -5.5059   26.4266  -29.9703 H   0  0  0  0  0  0  0  0  0  0  0  0
   -5.5913   25.5842  -31.5563 H   0  0  0  0  0  0  0  0  0  0  0  0
   -5.2764   23.4661  -29.8056 H   0  0  0  0  0  0  0  0  0  0  0  0
   -6.2711   24.6201  -28.8341 H   0  0  0  0  0  0  0  0  0  0  0  0
   -4.4550   21.4650  -33.7120 H   0  0  0  0  0  0  0  0  0  0  0  0
   -5.4097   19.5015  -35.2070 H   0  0  0  0  0  0  0  0  0  0  0  0
   -5.7147   16.9311  -35.4991 H   0  0  0  0  0  0  0  0  0  0  0  0
   -6.6928   15.7565  -33.3527 H   0  0  0  0  0  0  0  0  0  0  0  0
   -8.0601   19.7793  -30.7327 H   0  0  0  0  0  0  0  0  0  0  0  0
   -8.7423   21.4453  -30.5789 H   0  0  0  0  0  0  0  0  0  0  0  0
  -10.2753   20.1138  -31.9099 H   0  0  0  0  0  0  0  0  0  0  0  0
   -9.4629   21.2971  -32.9899 H   0  0  0  0  0  0  0  0  0  0  0  0
   -8.9439   19.5774  -32.9899 H   0  0  0  0  0  0  0  0  0  0  0  0
  1  2  1  0
  2  3  1  0
  3  4  1  0
  4  5  1  0
  5  6  1  0
  6  7  1  0
  7  8  2  0
  8  9  1  0
  9 10  2  0
 10 11  1  0
 11 12  2  0
 12 13  1  0
 13 14  2  0
 14 15  1  0
 10 16  1  0
 16 17  1  0
 17 18  1  0
 16  7  1  0
 15 11  1  0
  1 19  1  0
  1 20  1  0
  1 21  1  0
  2 22  1  0
  2 23  1  0
  4 24  1  0
  4 25  1  0
  5 26  1  0
  5 27  1  0
  9 28  1  0
 12 29  1  0
 13 30  1  0
 14 31  1  0
 17 32  1  0
 17 33  1  0
 18 34  1  0
 18 35  1  0
 18 36  1  0
M  CHG  1   9   1
M  END
>  <UniqueID>  (4) 
4

>  <SMILES>  (4) 
CCOCCSc1n[nH+]c(-c2cccs2)n1CC

>  <Energy>  (4) 
91.69058387183885

>  <Genealogy>  (4) 
CCOCCSc1n[nH+]c(-c2cccs2)n1CC (protonated)
CCOCCSc1n[nH+]c(-c2cccs2)n1CC (3D coordinates assigned)
CCOCCSc1n[nH+]c(-c2cccs2)n1CC (optimized conformer: 91.69058387183885 kcal/mol)

>  <smiles>  (4) 
CCOCCSc1nnc(-c2cccs2)n1CC

>  <score_type>  (4) 
oracle

>  <origin>  (4) 
adg

>  <m_score__min__energy>  (4) 
-6.8600000000000003

>  <m_primary>  (4) 
energy

$$$$
4:0
     RDKit          3D

 86 87  0  0  0  0  0  0  0  0999 V2000
   -0.1120   21.5210  -34.7160 C   0  0  0  0  0  0  0  0  0  0  0  0
   -1.0180   20.3010  -34.4670 C   0  0  0  0  0  0  0  0  0  0  0  0
   -1.9060   20.3880  -33.2560 N   0  0  0  0  0  0  0  0  0  0  0  0
   -2.9000   21.4790  -33.4430 C   0  0  0  0  0  0  0  0  0  0  0  0
   -2.6800   19.1190  -33.0340 C   0  0  0  0  0  0  0  0  0  0  0  0
   -4.0120   19.0200  -33.8020 C   0  0  0  0  0  0  0  0  0  0  0  0
   -1.0790   20.6580  -32.0280 C   0  0  0  0  0  0  0  0  0  0  0  0
    0.1340   19.7220  -31.7630 C   0  0  0  0  0  0  0  0  0  0  0  0
   -0.1100   18.7330  -30.7800 O   0  0  0  0  0  0  0  0  0  0  0  0
    0.8070   17.6570  -30.8690 C   0  0  0  0  0  0  0  0  0  0  0  0
    0.6380   16.6970  -29.6690 C   0  0  0  0  0  0  0  0  0  0  0  0
    1.0560   17.2450  -28.3340 N   0  0  0  0  0  0  0  0  0  0  0  0
    2.3320   17.9750  -28.5540 C   0  0  0  0  0  0  0  0  0  0  0  0
    1.2990   16.1270  -27.3870 C   0  0  0  0  0  0  0  0  0  0  0  0
    0.0060   18.1750  -27.8040 C   0  0  0  0  0  0  0  0  0  0  0  0
    0.2890   19.7040  -27.9440 C   0  0  0  0  0  0  0  0  0  0  0  0
   -0.9510   20.4740  -28.4790 C   0  0  0  0  0  0  0  0  0  0  0  0
   -1.9000   21.0350  -27.4500 N   0  0  0  0  0  0  0  0  0  0  0  0
   -1.2330   21.4000  -26.1710 C   0  0  0  0  0  0  0  0  0  0  0  0
   -2.8810   19.9640  -27.1200 C   0  0  0  0  0  0  0  0  0  0  0  0
   -2.6990   22.1880  -27.9740 C   0  0  0  0  0  0  0  0  0  0  0  0
   -2.0230   23.0320  -29.0780 C   0  0  0  0  0  0  0  0  0  0  0  0
   -2.4000   24.5090  -28.9560 C   0  0  0  0  0  0  0  0  0  0  0  0
   -3.1680   24.9060  -30.0910 O   0  0  0  0  0  0  0  0  0  0  0  0
   -4.4040   24.3510  -30.4470 C   0  0  0  0  0  0  0  0  0  0  0  0
   -5.5640   25.0620  -30.1230 C   0  0  0  0  0  0  0  0  0  0  0  0
   -6.8270   24.5500  -30.4350 C   0  0  0  0  0  0  0  0  0  0  0  0
   -6.9440   23.3120  -31.0780 C   0  0  0  0  0  0  0  0  0  0  0  0
   -8.2070   22.7800  -31.3850 C   0  0  0  0  0  0  0  0  0  0  0  0
   -8.3100   21.5410  -32.0220 C   0  0  0  0  0  0  0  0  0  0  0  0
   -7.1590   20.8240  -32.3600 C   0  0  0  0  0  0  0  0  0  0  0  0
   -5.8950   21.3420  -32.0610 C   0  0  0  0  0  0  0  0  0  0  0  0
   -5.7760   22.5860  -31.4180 C   0  0  0  0  0  0  0  0  0  0  0  0
   -4.5130   23.1110  -31.1050 C   0  0  0  0  0  0  0  0  0  0  0  0
    0.2037   21.9461  -33.7518 H   0  0  0  0  0  0  0  0  0  0  0  0
    0.7748   21.2087  -35.2870 H   0  0  0  0  0  0  0  0  0  0  0  0
   -0.6673   22.2797  -35.2870 H   0  0  0  0  0  0  0  0  0  0  0  0
   -1.6612   20.1712  -35.3498 H   0  0  0  0  0  0  0  0  0  0  0  0
   -0.3398   19.4548  -34.2830 H   0  0  0  0  0  0  0  0  0  0  0  0
   -3.2328   21.8443  -32.4602 H   0  0  0  0  0  0  0  0  0  0  0  0
   -2.4372   22.3046  -34.0035 H   0  0  0  0  0  0  0  0  0  0  0  0
   -3.7650   21.0948  -34.0035 H   0  0  0  0  0  0  0  0  0  0  0  0
   -2.0456   18.2751  -33.3428 H   0  0  0  0  0  0  0  0  0  0  0  0
   -2.9418   19.1041  -31.9657 H   0  0  0  0  0  0  0  0  0  0  0  0
   -4.8445   18.9581  -33.0857 H   0  0  0  0  0  0  0  0  0  0  0  0
   -4.1378   19.9113  -34.4343 H   0  0  0  0  0  0  0  0  0  0  0  0
   -4.0047   18.1199  -34.4343 H   0  0  0  0  0  0  0  0  0  0  0  0
   -0.6922   21.6845  -32.1097 H   0  0  0  0  0  0  0  0  0  0  0  0
   -1.7617   20.4800  -31.1840 H   0  0  0  0  0  0  0  0  0  0  0  0
    0.3947   19.2174  -32.7050 H   0  0  0  0  0  0  0  0  0  0  0  0
    0.9497   20.3552  -31.3840 H   0  0  0  0  0  0  0  0  0  0  0  0
    0.6259   17.1041  -31.8025 H   0  0  0  0  0  0  0  0  0  0  0  0
    1.8300   18.0612  -30.8583 H   0  0  0  0  0  0  0  0  0  0  0  0
   -0.4248   16.4212  -29.6036 H   0  0  0  0  0  0  0  0  0  0  0  0
    1.3073   15.8470  -29.8677 H   0  0  0  0  0  0  0  0  0  0  0  0
    2.7800   18.2313  -27.5826 H   0  0  0  0  0  0  0  0  0  0  0  0
    3.0261   17.3374  -29.1211 H   0  0  0  0  0  0  0  0  0  0  0  0
    2.1341   18.8965  -29.1211 H   0  0  0  0  0  0  0  0  0  0  0  0
    1.2185   16.4972  -26.3543 H   0  0  0  0  0  0  0  0  0  0  0  0
    0.5516   15.3371  -27.5527 H   0  0  0  0  0  0  0  0  0  0  0  0
    2.3069   15.7186  -27.5527 H   0  0  0  0  0  0  0  0  0  0  0  0
   -0.9310   17.9591  -28.3382 H   0  0  0  0  0  0  0  0  0  0  0  0
   -0.0286   17.9852  -26.7211 H   0  0  0  0  0  0  0  0  0  0  0  0
    0.5604   20.1077  -26.9574 H   0  0  0  0  0  0  0  0  0  0  0  0
    1.1099   19.8352  -28.6643 H   0  0  0  0  0  0  0  0  0  0  0  0
   -0.5840   21.3146  -29.0863 H   0  0  0  0  0  0  0  0  0  0  0  0
   -1.5370   19.7258  -29.0329 H   0  0  0  0  0  0  0  0  0  0  0  0
   -1.8507   21.0620  -25.3259 H   0  0  0  0  0  0  0  0  0  0  0  0
   -0.2465   20.9160  -26.1208 H   0  0  0  0  0  0  0  0  0  0  0  0
   -1.1088   22.4918  -26.1208 H   0  0  0  0  0  0  0  0  0  0  0  0
   -2.9673   19.8698  -26.0274 H   0  0  0  0  0  0  0  0  0  0  0  0
   -3.8624   20.2223  -27.5444 H   0  0  0  0  0  0  0  0  0  0  0  0
   -2.5378   19.0090  -27.5444 H   0  0  0  0  0  0  0  0  0  0  0  0
   -3.6386   21.7885  -28.3832 H   0  0  0  0  0  0  0  0  0  0  0  0
   -2.8344   22.8684  -27.1204 H   0  0  0  0  0  0  0  0  0  0  0  0
   -0.9313   22.9320  -28.9878 H   0  0  0  0  0  0  0  0  0  0  0  0
   -2.3674   22.6650  -30.0561 H   0  0  0  0  0  0  0  0  0  0  0  0
   -2.9934   24.6604  -28.0422 H   0  0  0  0  0  0  0  0  0  0  0  0
   -1.4836   25.1154  -28.9068 H   0  0  0  0  0  0  0  0  0  0  0  0
   -5.4817   26.0352  -29.6169 H   0  0  0  0  0  0  0  0  0  0  0  0
   -7.7305   25.1210  -30.1748 H   0  0  0  0  0  0  0  0  0  0  0  0
   -9.1169   23.3400  -31.1234 H   0  0  0  0  0  0  0  0  0  0  0  0
   -9.3016   21.1278  -32.2586 H   0  0  0  0  0  0  0  0  0  0  0  0
   -7.2476   19.8496  -32.8626 H   0  0  0  0  0  0  0  0  0  0  0  0
   -4.9918   20.7745  -32.3297 H   0  0  0  0  0  0  0  0  0  0  0  0
   -3.6049   22.5519  -31.3746 H   0  0  0  0  0  0  0  0  0  0  0  0
  1  2  1  0
  2  3  1  0
  3  4  1  0
  3  5  1  0
  5  6  1  0
  3  7  1  0
  7  8  1  0
  8  9  1  0
  9 10  1  0
 10 11  1  0
 11 12  1  0
 12 13  1  0
 12 14  1  0
 12 15  1  0
 15 16  1  0
 16 17  1  0
 17 18  1  0
 18 19  1  0
 18 20  1  0
 18 21  1  0
 21 22  1  0
 22 23  1  0
 23 24  1  0
 24 25  1  0
 25 26  2  0
 26 27  1  0
 27 28  2  0
 28 29  1  0
 29 30  2  0
 30 31  1  0
 31 32  2  0
 32 33  1  0
 33 34  2  0
 34 25  1  0
 33 28  1  0
  1 35  1  0
  1 36  1  0
  1 37  1  0
  2 38  1  0
  2 39  1  0
  4 40  1  0
  4 41  1  0
  4 42  1  0
  5 43  1  0
  5 44  1  0
  6 45  1  0
  6 46  1  0
  6 47  1  0
  7 48  1  0
  7 49  1  0
  8 50  1  0
  8 51  1  0
 10 52  1  0
 10 53  1  0
 11 54  1  0
 11 55  1  0
 13 56  1  0
 13 57  1  0
 13 58  1  0
 14 59  1  0
 14 60  1  0
 14 61  1  0
 15 62  1  0
 15 63  1  0
 16 64  1  0
 16 65  1  0
 17 66  1  0
 17 67  1  0
 19 68  1  0
 19 69  1  0
 19 70  1  0
 20 71  1  0
 20 72  1  0
 20 73  1  0
 21 74  1  0
 21 75  1  0
 22 76  1  0
 22 77  1  0
 23 78  1  0
 23 79  1  0
 26 80  1  0
 27 81  1  0
 29 82  1  0
 30 83  1  0
 31 84  1  0
 32 85  1  0
 34 86  1  0
M  CHG  3   3   1  12   1  18   1
M  END
>  <UniqueID>  (5) 
5

>  <SMILES>  (5) 
CC[N+](C)(CC)CCOCC[N+](C)(C)CCC[N+](C)(C)CCCOc1ccc2ccccc2c1

>  <Energy>  (5) 
129.65292543696134

>  <Genealogy>  (5) 
CC[N+](C)(CC)CCOCC[N+](C)(C)CCC[N+](C)(C)CCCOc1ccc2ccccc2c1 (3D coordinates assigned)
CC[N+](C)(CC)CCOCC[N+](C)(C)CCC[N+](C)(C)CCCOc1ccc2ccccc2c1 (optimized conformer: 129.65292543696134 kcal/mol)

>  <smiles>  (5) 
CC[N+](C)(CC)CCOCC[N+](C)(C)CCC[N+](C)(C)CCCOc1ccc2ccccc2c1

>  <score_type>  (5) 
oracle

>  <origin>  (5) 
adg

>  <m_score__min__energy>  (5) 
-6.4199999999999999

>  <m_primary>  (5) 
energy

$$$$
5:0
     RDKit          3D

 47 49  0  0  0  0  0  0  0  0999 V2000
   -7.8820   23.2860  -31.2750 C   0  0  0  0  0  0  0  0  0  0  0  0
   -7.2550   23.2390  -29.8870 C   0  0  0  0  0  0  0  0  0  0  0  0
   -6.4330   24.4290  -29.6620 N   0  0  0  0  0  0  0  0  0  0  0  0
   -4.9250   24.3100  -30.5260 S   0  0  0  0  0  0  0  0  0  0  0  0
   -5.1360   23.9550  -31.9710 O   0  0  0  0  0  0  0  0  0  0  0  0
   -4.2550   25.6540  -30.4750 O   0  0  0  0  0  0  0  0  0  0  0  0
   -3.8790   23.0990  -29.7610 C   0  0  0  0  0  0  0  0  0  0  0  0
   -3.3280   23.3790  -28.4980 C   0  0  0  0  0  0  0  0  0  0  0  0
   -2.5120   22.4460  -27.8560 C   0  0  0  0  0  0  0  0  0  0  0  0
   -2.2340   21.2220  -28.4630 C   0  0  0  0  0  0  0  0  0  0  0  0
   -2.7760   20.9260  -29.7140 C   0  0  0  0  0  0  0  0  0  0  0  0
   -3.6030   21.8510  -30.3710 C   0  0  0  0  0  0  0  0  0  0  0  0
   -4.1310   21.5080  -31.6630 N   0  0  0  0  0  0  0  0  0  0  0  0
   -3.2030   21.2350  -32.7680 C   0  0  0  0  0  0  0  0  0  0  0  0
   -3.3620   19.7850  -33.2420 C   0  0  0  0  0  0  0  0  0  0  0  0
   -4.7810   19.4120  -33.3650 N   0  0  0  0  0  0  0  0  0  0  0  0
   -5.1320   18.0430  -33.6430 C   0  0  0  0  0  0  0  0  0  0  0  0
   -6.4710   17.6240  -33.5800 C   0  0  0  0  0  0  0  0  0  0  0  0
   -6.8100   16.2960  -33.8630 C   0  0  0  0  0  0  0  0  0  0  0  0
   -5.8150   15.3790  -34.2160 C   0  0  0  0  0  0  0  0  0  0  0  0
   -4.4820   15.7890  -34.2880 C   0  0  0  0  0  0  0  0  0  0  0  0
   -4.1390   17.1150  -34.0050 C   0  0  0  0  0  0  0  0  0  0  0  0
   -5.8240   20.4140  -33.1070 C   0  0  0  0  0  0  0  0  0  0  0  0
   -5.5450   21.1060  -31.7700 C   0  0  0  0  0  0  0  0  0  0  0  0
   -8.9749   23.3679  -31.1811 H   0  0  0  0  0  0  0  0  0  0  0  0
   -7.4947   24.1576  -31.8230 H   0  0  0  0  0  0  0  0  0  0  0  0
   -7.6290   22.3664  -31.8230 H   0  0  0  0  0  0  0  0  0  0  0  0
   -8.0518   23.1995  -29.1297 H   0  0  0  0  0  0  0  0  0  0  0  0
   -6.6193   22.3445  -29.8109 H   0  0  0  0  0  0  0  0  0  0  0  0
   -6.2080   24.4990  -28.6450 H   0  0  0  0  0  0  0  0  0  0  0  0
   -3.5419   24.3421  -28.0114 H   0  0  0  0  0  0  0  0  0  0  0  0
   -2.0870   22.6772  -26.8681 H   0  0  0  0  0  0  0  0  0  0  0  0
   -1.5879   20.4903  -27.9559 H   0  0  0  0  0  0  0  0  0  0  0  0
   -2.5535   19.9595  -30.1898 H   0  0  0  0  0  0  0  0  0  0  0  0
   -3.4207   21.9170  -33.6032 H   0  0  0  0  0  0  0  0  0  0  0  0
   -2.1713   21.3892  -32.4189 H   0  0  0  0  0  0  0  0  0  0  0  0
   -2.8765   19.6739  -34.2228 H   0  0  0  0  0  0  0  0  0  0  0  0
   -2.8939   19.1243  -32.4974 H   0  0  0  0  0  0  0  0  0  0  0  0
   -7.2572   18.3432  -33.3069 H   0  0  0  0  0  0  0  0  0  0  0  0
   -7.8601   15.9732  -33.8077 H   0  0  0  0  0  0  0  0  0  0  0  0
   -6.0822   14.3351  -34.4369 H   0  0  0  0  0  0  0  0  0  0  0  0
   -3.7002   15.0676  -34.5679 H   0  0  0  0  0  0  0  0  0  0  0  0
   -3.0879   17.4336  -34.0658 H   0  0  0  0  0  0  0  0  0  0  0  0
   -5.8227   21.1612  -33.9143 H   0  0  0  0  0  0  0  0  0  0  0  0
   -6.8061   19.9201  -33.0671 H   0  0  0  0  0  0  0  0  0  0  0  0
   -6.1795   22.0009  -31.6898 H   0  0  0  0  0  0  0  0  0  0  0  0
   -5.7684   20.3983  -30.9581 H   0  0  0  0  0  0  0  0  0  0  0  0
  1  2  1  0
  2  3  1  0
  3  4  1  0
  4  5  2  0
  4  6  2  0
  4  7  1  0
  7  8  2  0
  8  9  1  0
  9 10  2  0
 10 11  1  0
 11 12  2  0
 12 13  1  0
 13 14  1  0
 14 15  1  0
 15 16  1  0
 16 17  1  0
 17 18  2  0
 18 19  1  0
 19 20  2  0
 20 21  1  0
 21 22  2  0
 16 23  1  0
 23 24  1  0
 12  7  1  0
 24 13  1  0
 22 17  1  0
  1 25  1  0
  1 26  1  0
  1 27  1  0
  2 28  1  0
  2 29  1  0
  3 30  1  0
  8 31  1  0
  9 32  1  0
 10 33  1  0
 11 34  1  0
 14 35  1  0
 14 36  1  0
 15 37  1  0
 15 38  1  0
 18 39  1  0
 19 40  1  0
 20 41  1  0
 21 42  1  0
 22 43  1  0
 23 44  1  0
 23 45  1  0
 24 46  1  0
 24 47  1  0
M  END
>  <UniqueID>  (6) 
6

>  <SMILES>  (6) 
CCNS(=O)(=O)c1ccccc1N1CCN(c2ccccc2)CC1

>  <Energy>  (6) 
55.33807439553732

>  <Genealogy>  (6) 
CCNS(=O)(=O)c1ccccc1N1CCN(c2ccccc2)CC1 (3D coordinates assigned)
CCNS(=O)(=O)c1ccccc1N1CCN(c2ccccc2)CC1 (nonaromatic ring conformer: 55.33807439553732 kcal/mol)

>  <smiles>  (6) 
CCNS(=O)(=O)c1ccccc1N1CCN(c2ccccc2)CC1

>  <score_type>  (6) 
oracle

>  <origin>  (6) 
adg

>  <m_score__min__energy>  (6) 
-8.6600000000000001

>  <m_primary>  (6) 
energy

$$$$
6:0
     RDKit          3D

 41 43  0  0  0  0  0  0  0  0999 V2000
   -3.9530   18.1010  -34.5150 C   0  0  0  0  0  0  0  0  0  0  0  0
   -4.9960   17.0230  -34.2440 C   0  0  0  0  0  0  0  0  0  0  0  0
   -6.2960   17.5830  -34.2620 O   0  0  0  0  0  0  0  0  0  0  0  0
   -7.0050   17.2270  -33.0940 C   0  0  0  0  0  0  0  0  0  0  0  0
   -7.9540   18.3710  -32.7190 C   0  0  0  0  0  0  0  0  0  0  0  0
   -7.6550   19.6130  -33.4540 N   0  0  0  0  0  0  0  0  0  0  0  0
   -6.9160   20.5550  -32.6410 C   0  0  0  0  0  0  0  0  0  0  0  0
   -5.5000   20.5300  -32.6790 C   0  0  0  0  0  0  0  0  0  0  0  0
   -4.7890   21.4290  -31.8830 C   0  0  0  0  0  0  0  0  0  0  0  0
   -5.4450   22.3200  -31.0620 C   0  0  0  0  0  0  0  0  0  0  0  0
   -6.8310   22.3790  -30.9920 C   0  0  0  0  0  0  0  0  0  0  0  0
   -7.5780   21.4940  -31.7900 C   0  0  0  0  0  0  0  0  0  0  0  0
   -9.4900   21.6130  -31.6710 Br  0  0  0  0  0  0  0  0  0  0  0  0
   -4.4690   23.0220  -30.3900 C   0  0  0  0  0  0  0  0  0  0  0  0
   -4.5520   24.0190  -29.4220 C   0  0  0  0  0  0  0  0  0  0  0  0
   -3.3500   24.5220  -28.8950 C   0  0  0  0  0  0  0  0  0  0  0  0
   -2.1070   24.0160  -29.3360 C   0  0  0  0  0  0  0  0  0  0  0  0
   -2.0520   23.0040  -30.3130 C   0  0  0  0  0  0  0  0  0  0  0  0
   -3.2590   22.5250  -30.8330 C   0  0  0  0  0  0  0  0  0  0  0  0
   -3.4420   21.5570  -31.7660 N   0  0  0  0  0  0  0  0  0  0  0  0
   -2.4150   20.7390  -32.4120 C   0  0  0  0  0  0  0  0  0  0  0  0
   -3.5739   18.4928  -33.5596 H   0  0  0  0  0  0  0  0  0  0  0  0
   -3.1207   17.6695  -35.0905 H   0  0  0  0  0  0  0  0  0  0  0  0
   -4.4117   18.9186  -35.0905 H   0  0  0  0  0  0  0  0  0  0  0  0
   -4.9247   16.2458  -35.0192 H   0  0  0  0  0  0  0  0  0  0  0  0
   -4.8086   16.5843  -33.2528 H   0  0  0  0  0  0  0  0  0  0  0  0
   -7.5859   16.3116  -33.2797 H   0  0  0  0  0  0  0  0  0  0  0  0
   -6.2984   17.0449  -32.2709 H   0  0  0  0  0  0  0  0  0  0  0  0
   -8.9851   18.0642  -32.9486 H   0  0  0  0  0  0  0  0  0  0  0  0
   -7.8239   18.5766  -31.6462 H   0  0  0  0  0  0  0  0  0  0  0  0
   -8.5360   20.0290  -33.8300 H   0  0  0  0  0  0  0  0  0  0  0  0
   -7.0720   19.3680  -34.2870 H   0  0  0  0  0  0  0  0  0  0  0  0
   -4.9702   19.8143  -33.3248 H   0  0  0  0  0  0  0  0  0  0  0  0
   -7.3318   23.0999  -30.3290 H   0  0  0  0  0  0  0  0  0  0  0  0
   -5.5258   24.4004  -29.0809 H   0  0  0  0  0  0  0  0  0  0  0  0
   -3.3774   25.3154  -28.1336 H   0  0  0  0  0  0  0  0  0  0  0  0
   -1.1741   24.4162  -28.9123 H   0  0  0  0  0  0  0  0  0  0  0  0
   -1.0879   22.6016  -30.6575 H   0  0  0  0  0  0  0  0  0  0  0  0
   -1.7995   20.2488  -31.6433 H   0  0  0  0  0  0  0  0  0  0  0  0
   -2.8963   19.9741  -33.0392 H   0  0  0  0  0  0  0  0  0  0  0  0
   -1.7772   21.3792  -33.0392 H   0  0  0  0  0  0  0  0  0  0  0  0
  1  2  1  0
  2  3  1  0
  3  4  1  0
  4  5  1  0
  5  6  1  0
  6  7  1  0
  7  8  2  0
  8  9  1  0
  9 10  2  0
 10 11  1  0
 11 12  2  0
 12 13  1  0
 10 14  1  0
 14 15  2  0
 15 16  1  0
 16 17  2  0
 17 18  1  0
 18 19  2  0
 19 20  1  0
 20 21  1  0
 12  7  1  0
 19 14  1  0
 20  9  1  0
  1 22  1  0
  1 23  1  0
  1 24  1  0
  2 25  1  0
  2 26  1  0
  4 27  1  0
  4 28  1  0
  5 29  1  0
  5 30  1  0
  6 31  1  0
  6 32  1  0
  8 33  1  0
 11 34  1  0
 15 35  1  0
 16 36  1  0
 17 37  1  0
 18 38  1  0
 21 39  1  0
 21 40  1  0
 21 41  1  0
M  CHG  1   6   1
M  END
>  <UniqueID>  (7) 
7

>  <SMILES>  (7) 
CCOCC[NH2+]c1cc2c(cc1Br)c1ccccc1n2C

>  <Energy>  (7) 
85.05892410541936

>  <Genealogy>  (7) 
CCOCC[NH2+]c1cc2c(cc1Br)c1ccccc1n2C (protonated)
CCOCC[NH2+]c1cc2c(cc1Br)c1ccccc1n2C (3D coordinates assigned)
CCOCC[NH2+]c1cc2c(cc1Br)c1ccccc1n2C (optimized conformer: 85.05892410541936 kcal/mol)

>  <smiles>  (7) 
CCOCCNc1cc2c(cc1Br)c1ccccc1n2C

>  <score_type>  (7) 
oracle

>  <origin>  (7) 
adg

>  <m_score__min__energy>  (7) 
-7.6699999999999999

>  <m_primary>  (7) 
energy

$$$$
7:0
     RDKit          3D

 68 72  0  0  0  0  0  0  0  0999 V2000
   -1.0700   13.9200  -33.1630 C   0  0  0  0  0  0  0  0  0  0  0  0
   -2.3360   13.7150  -32.3260 C   0  0  0  0  0  0  0  0  0  0  0  0
   -3.5660   14.1300  -33.0230 N   0  0  0  0  0  0  0  0  0  0  0  0
   -3.8390   13.3980  -34.2720 C   0  0  0  0  0  0  0  0  0  0  0  0
   -5.3210   13.4580  -34.6640 C   0  0  0  0  0  0  0  0  0  0  0  0
   -6.0560   14.2020  -33.7100 O   0  0  0  0  0  0  0  0  0  0  0  0
   -6.7540   15.2820  -34.3010 C   0  0  0  0  0  0  0  0  0  0  0  0
   -5.8840   16.5510  -34.4090 C   0  0  0  0  0  0  0  0  0  0  0  0
   -4.6260   16.4700  -33.6370 N   0  0  0  0  0  0  0  0  0  0  0  0
   -4.1500   17.7870  -33.2340 C   0  0  0  0  0  0  0  0  0  0  0  0
   -5.0740   18.7600  -32.7650 C   0  0  0  0  0  0  0  0  0  0  0  0
   -4.6460   20.0950  -32.5750 C   0  0  0  0  0  0  0  0  0  0  0  0
   -3.4280   20.4930  -33.0740 N   0  0  0  0  0  0  0  0  0  0  0  0
   -3.1990   21.9060  -33.4410 C   0  0  0  0  0  0  0  0  0  0  0  0
   -2.4530   19.5550  -33.3340 C   0  0  0  0  0  0  0  0  0  0  0  0
   -1.1120   19.9450  -33.5640 C   0  0  0  0  0  0  0  0  0  0  0  0
   -0.1220   19.0020  -33.8180 C   0  0  0  0  0  0  0  0  0  0  0  0
   -0.4370   17.6530  -33.8350 C   0  0  0  0  0  0  0  0  0  0  0  0
   -1.7480   17.2360  -33.6160 C   0  0  0  0  0  0  0  0  0  0  0  0
   -2.7860   18.1720  -33.3810 C   0  0  0  0  0  0  0  0  0  0  0  0
   -5.5890   21.0510  -31.9040 C   0  0  0  0  0  0  0  0  0  0  0  0
   -5.1270   22.1170  -31.1100 C   0  0  0  0  0  0  0  0  0  0  0  0
   -6.0270   23.0190  -30.5400 C   0  0  0  0  0  0  0  0  0  0  0  0
   -7.4000   22.8580  -30.7320 C   0  0  0  0  0  0  0  0  0  0  0  0
   -7.8870   21.7630  -31.4570 C   0  0  0  0  0  0  0  0  0  0  0  0
   -6.9790   20.8210  -31.9840 C   0  0  0  0  0  0  0  0  0  0  0  0
   -7.4640   19.5770  -32.6930 C   0  0  1  0  0  0  0  0  0  0  0  0
   -6.5070   18.4050  -32.3830 C   0  0  0  0  0  0  0  0  0  0  0  0
   -8.8860   19.2560  -32.3940 N   0  0  0  0  0  0  0  0  0  0  0  0
   -9.1100   18.6390  -31.0680 C   0  0  0  0  0  0  0  0  0  0  0  0
   -9.7310   20.4540  -32.5850 C   0  0  0  0  0  0  0  0  0  0  0  0
   -9.3750   21.5730  -31.5900 C   0  0  0  0  0  0  0  0  0  0  0  0
   -0.2074   14.0597  -32.4949 H   0  0  0  0  0  0  0  0  0  0  0  0
   -0.9031   13.0372  -33.7976 H   0  0  0  0  0  0  0  0  0  0  0  0
   -1.1902   14.8104  -33.7976 H   0  0  0  0  0  0  0  0  0  0  0  0
   -2.4199   12.6474  -32.0746 H   0  0  0  0  0  0  0  0  0  0  0  0
   -2.2403   14.3444  -31.4290 H   0  0  0  0  0  0  0  0  0  0  0  0
   -4.3800   13.9960  -32.3780 H   0  0  0  0  0  0  0  0  0  0  0  0
   -3.2399   13.8412  -35.0811 H   0  0  0  0  0  0  0  0  0  0  0  0
   -3.5737   12.3427  -34.1110 H   0  0  0  0  0  0  0  0  0  0  0  0
   -5.4158   13.9384  -35.6490 H   0  0  0  0  0  0  0  0  0  0  0  0
   -5.7210   12.4340  -34.7017 H   0  0  0  0  0  0  0  0  0  0  0  0
   -7.0749   14.9859  -35.3106 H   0  0  0  0  0  0  0  0  0  0  0  0
   -7.6156   15.5178  -33.6592 H   0  0  0  0  0  0  0  0  0  0  0  0
   -5.6332   16.7123  -35.4678 H   0  0  0  0  0  0  0  0  0  0  0  0
   -6.4694   17.3818  -33.9881 H   0  0  0  0  0  0  0  0  0  0  0  0
   -4.7770   15.8850  -32.7850 H   0  0  0  0  0  0  0  0  0  0  0  0
   -3.9380   15.9170  -34.1850 H   0  0  0  0  0  0  0  0  0  0  0  0
   -3.1010   22.5108  -32.5275 H   0  0  0  0  0  0  0  0  0  0  0  0
   -2.2762   21.9858  -34.0344 H   0  0  0  0  0  0  0  0  0  0  0  0
   -4.0494   22.2732  -34.0344 H   0  0  0  0  0  0  0  0  0  0  0  0
   -0.8483   21.0127  -33.5414 H   0  0  0  0  0  0  0  0  0  0  0  0
    0.9119   19.3274  -34.0055 H   0  0  0  0  0  0  0  0  0  0  0  0
    0.3509   16.9085  -34.0221 H   0  0  0  0  0  0  0  0  0  0  0  0
   -1.9818   16.1612  -33.6256 H   0  0  0  0  0  0  0  0  0  0  0  0
   -4.0477   22.2405  -30.9371 H   0  0  0  0  0  0  0  0  0  0  0  0
   -5.6528   23.8597  -29.9374 H   0  0  0  0  0  0  0  0  0  0  0  0
   -8.1021   23.5936  -30.3125 H   0  0  0  0  0  0  0  0  0  0  0  0
   -7.4452   19.7657  -33.7765 H   0  0  0  0  0  0  0  0  0  0  0  0
   -6.5483   18.1808  -31.3069 H   0  0  0  0  0  0  0  0  0  0  0  0
   -6.8213   17.5289  -32.9692 H   0  0  0  0  0  0  0  0  0  0  0  0
   -8.8483   19.3597  -30.2793 H   0  0  0  0  0  0  0  0  0  0  0  0
  -10.1683   18.3558  -30.9694 H   0  0  0  0  0  0  0  0  0  0  0  0
   -8.4799   17.7428  -30.9694 H   0  0  0  0  0  0  0  0  0  0  0  0
   -9.5884   20.8301  -33.6088 H   0  0  0  0  0  0  0  0  0  0  0  0
  -10.7776   20.1638  -32.4109 H   0  0  0  0  0  0  0  0  0  0  0  0
   -9.8225   22.5146  -31.9407 H   0  0  0  0  0  0  0  0  0  0  0  0
   -9.7685   21.2860  -30.6037 H   0  0  0  0  0  0  0  0  0  0  0  0
  1  2  1  0
  2  3  1  0
  3  4  1  0
  4  5  1  0
  5  6  1  0
  6  7  1  0
  7  8  1  0
  8  9  1  0
  9 10  1  0
 10 11  2  0
 11 12  1  0
 12 13  2  0
 13 14  1  0
 13 15  1  0
 15 16  2  0
 16 17  1  0
 17 18  2  0
 18 19  1  0
 19 20  2  0
 12 21  1  0
 21 22  2  0
 22 23  1  0
 23 24  2  0
 24 25  1  0
 25 26  2  0
 26 27  1  0
 27 28  1  0
 27 29  1  0
 29 30  1  0
 29 31  1  0
 31 32  1  0
 20 10  1  0
 26 21  1  0
 28 11  1  0
 20 15  1  0
 32 25  1  0
  1 33  1  0
  1 34  1  0
  1 35  1  0
  2 36  1  0
  2 37  1  0
  3 38  1  0
  4 39  1  0
  4 40  1  0
  5 41  1  0
  5 42  1  0
  7 43  1  0
  7 44  1  0
  8 45  1  0
  8 46  1  0
  9 47  1  0
  9 48  1  0
 14 49  1  0
 14 50  1  0
 14 51  1  0
 16 52  1  0
 17 53  1  0
 18 54  1  0
 19 55  1  0
 22 56  1  0
 23 57  1  0
 24 58  1  0
 27 59  1  6
 28 60  1  0
 28 61  1  0
 30 62  1  0
 30 63  1  0
 30 64  1  0
 31 65  1  0
 31 66  1  0
 32 67  1  0
 32 68  1  0
M  CHG  2   9   1  13   1
M  END
>  <UniqueID>  (8) 
8

>  <SMILES>  (8) 
CCNCCOCC[NH2+]c1c2c([n+](C)c3ccccc13)-c1cccc3c1[C@@H](C2)N(C)CC3

>  <Energy>  (8) 
116.04923012294879

>  <Genealogy>  (8) 
CCNCCOCC[NH2+]c1c2c([n+](C)c3ccccc13)-c1cccc3c1C(C2)N(C)CC3 (protonated)
CCNCCOCC[NH2+]c1c2c([n+](C)c3ccccc13)-c1cccc3c1[C@@H](C2)N(C)CC3 (chirality)
CCNCCOCC[NH2+]c1c2c([n+](C)c3ccccc13)-c1cccc3c1[C@@H](C2)N(C)CC3 (3D coordinates assigned)
CCNCCOCC[NH2+]c1c2c([n+](C)c3ccccc13)-c1cccc3c1[C@@H](C2)N(C)CC3 (nonaromatic ring conformer: 116.04923012294879 kcal/mol)

>  <smiles>  (8) 
CCNCCOCCNc1c2c([n+](C)c3ccccc13)-c1cccc3c1C(C2)N(C)CC3

>  <score_type>  (8) 
oracle

>  <origin>  (8) 
adg

>  <m_score__min__energy>  (8) 
-9.7100000000000009

>  <m_primary>  (8) 
energy

$$$$
8:0
     RDKit          3D

 52 56  0  0  0  0  0  0  0  0999 V2000
   -7.8150   12.9220  -35.7460 C   0  0  0  0  0  0  0  0  0  0  0  0
   -6.9430   12.7400  -34.5070 C   0  0  0  0  0  0  0  0  0  0  0  0
   -5.7880   13.5780  -34.5750 O   0  0  0  0  0  0  0  0  0  0  0  0
   -5.7500   14.9450  -34.2530 C   0  0  0  0  0  0  0  0  0  0  0  0
   -6.8820   15.6580  -33.8140 C   0  0  0  0  0  0  0  0  0  0  0  0
   -6.7840   17.0170  -33.5070 C   0  0  0  0  0  0  0  0  0  0  0  0
   -5.5560   17.6930  -33.6200 C   0  0  0  0  0  0  0  0  0  0  0  0
   -5.4740   19.1400  -33.2960 C   0  0  0  0  0  0  0  0  0  0  0  0
   -6.6080   19.8710  -32.8960 C   0  0  0  0  0  0  0  0  0  0  0  0
   -6.4840   21.2340  -32.6060 C   0  0  0  0  0  0  0  0  0  0  0  0
   -5.2210   21.8570  -32.6990 C   0  0  0  0  0  0  0  0  0  0  0  0
   -4.1240   21.1010  -33.1220 C   0  0  0  0  0  0  0  0  0  0  0  0
   -4.2750   19.7810  -33.4050 N   0  0  0  0  0  0  0  0  0  0  0  0
   -5.0810   23.3380  -32.3950 C   0  0  0  0  0  0  0  0  0  0  0  0
   -6.3180   23.8690  -31.6330 C   0  0  1  0  0  0  0  0  0  0  0  0
   -7.5440   23.3480  -32.3430 C   0  0  0  0  0  0  0  0  0  0  0  0
   -7.6530   22.0330  -32.1520 C   0  0  0  0  0  0  0  0  0  0  0  0
   -8.1400   21.7130  -30.7570 C   0  0  0  0  0  0  0  0  0  0  0  0
   -7.5460   22.7270  -29.7310 C   0  0  0  0  0  0  0  0  0  0  0  0
   -6.2810   23.3490  -30.2260 N   0  0  0  0  0  0  0  0  0  0  0  0
   -5.6750   24.2880  -29.2590 C   0  0  0  0  0  0  0  0  0  0  0  0
   -4.1880   24.1120  -29.1120 C   0  0  0  0  0  0  0  0  0  0  0  0
   -3.5550   23.1160  -28.3940 C   0  0  0  0  0  0  0  0  0  0  0  0
   -2.2050   23.3510  -28.5460 C   0  0  0  0  0  0  0  0  0  0  0  0
   -2.0980   24.4730  -29.3410 C   0  0  0  0  0  0  0  0  0  0  0  0
   -3.2970   24.9040  -29.6620 O   0  0  0  0  0  0  0  0  0  0  0  0
   -4.4290   16.9760  -34.0670 C   0  0  0  0  0  0  0  0  0  0  0  0
   -4.5300   15.6170  -34.3740 C   0  0  0  0  0  0  0  0  0  0  0  0
   -8.8488   13.1378  -35.4383 H   0  0  0  0  0  0  0  0  0  0  0  0
   -7.4289   13.7589  -36.3464 H   0  0  0  0  0  0  0  0  0  0  0  0
   -7.7959   12.0005  -36.3464 H   0  0  0  0  0  0  0  0  0  0  0  0
   -7.5272   13.0022  -33.6126 H   0  0  0  0  0  0  0  0  0  0  0  0
   -6.6163   11.6909  -34.4554 H   0  0  0  0  0  0  0  0  0  0  0  0
   -7.8482   15.1422  -33.7123 H   0  0  0  0  0  0  0  0  0  0  0  0
   -7.6775   17.5648  -33.1730 H   0  0  0  0  0  0  0  0  0  0  0  0
   -7.5857   19.3739  -32.8119 H   0  0  0  0  0  0  0  0  0  0  0  0
   -3.1371   21.5756  -33.2259 H   0  0  0  0  0  0  0  0  0  0  0  0
   -4.1841   23.4949  -31.7778 H   0  0  0  0  0  0  0  0  0  0  0  0
   -4.9957   23.8836  -33.3463 H   0  0  0  0  0  0  0  0  0  0  0  0
   -6.3309   24.9686  -31.6062 H   0  0  0  0  0  0  0  0  0  0  0  0
   -8.2430   23.9616  -32.9302 H   0  0  0  0  0  0  0  0  0  0  0  0
   -9.2381   21.7736  -30.7331 H   0  0  0  0  0  0  0  0  0  0  0  0
   -7.8129   20.6979  -30.4876 H   0  0  0  0  0  0  0  0  0  0  0  0
   -8.2846   23.5215  -29.5488 H   0  0  0  0  0  0  0  0  0  0  0  0
   -7.3151   22.1781  -28.8061 H   0  0  0  0  0  0  0  0  0  0  0  0
   -5.8733   25.3154  -29.5984 H   0  0  0  0  0  0  0  0  0  0  0  0
   -6.1265   24.0820  -28.2773 H   0  0  0  0  0  0  0  0  0  0  0  0
   -4.0288   22.3053  -27.8210 H   0  0  0  0  0  0  0  0  0  0  0  0
   -1.3796   22.7623  -28.1192 H   0  0  0  0  0  0  0  0  0  0  0  0
   -1.1523   24.9367  -29.6582 H   0  0  0  0  0  0  0  0  0  0  0  0
   -3.4624   17.4899  -34.1751 H   0  0  0  0  0  0  0  0  0  0  0  0
   -3.6392   15.0691  -34.7150 H   0  0  0  0  0  0  0  0  0  0  0  0
  1  2  1  0
  2  3  1  0
  3  4  1  0
  4  5  2  0
  5  6  1  0
  6  7  2  0
  7  8  1  0
  8  9  2  0
  9 10  1  0
 10 11  2  0
 11 12  1  0
 12 13  2  0
 11 14  1  0
 14 15  1  0
 15 16  1  0
 16 17  2  0
 17 18  1  0
 18 19  1  0
 19 20  1  0
 20 21  1  0
 21 22  1  0
 22 23  2  0
 23 24  1  0
 24 25  2  0
 25 26  1  0
  7 27  1  0
 27 28  2  0
 28  4  1  0
 13  8  1  0
 20 15  1  0
 26 22  1  0
 17 10  1  0
  1 29  1  0
  1 30  1  0
  1 31  1  0
  2 32  1  0
  2 33  1  0
  5 34  1  0
  6 35  1  0
  9 36  1  0
 12 37  1  0
 14 38  1  0
 14 39  1  0
 15 40  1  1
 16 41  1  0
 18 42  1  0
 18 43  1  0
 19 44  1  0
 19 45  1  0
 21 46  1  0
 21 47  1  0
 23 48  1  0
 24 49  1  0
 25 50  1  0
 27 51  1  0
 28 52  1  0
M  END
>  <UniqueID>  (9) 
9

>  <SMILES>  (9) 
CCOc1ccc(-c2cc3c(cn2)C[C@H]2C=C3CCN2Cc2ccco2)cc1

>  <Energy>  (9) 
144.64999227501033

>  <Genealogy>  (9) 
CCOc1ccc(-c2cc3c(cn2)C[C@H]2C=C3CCN2Cc2ccco2)cc1 (chirality)
CCOc1ccc(-c2cc3c(cn2)C[C@H]2C=C3CCN2Cc2ccco2)cc1 (3D coordinates assigned)
CCOc1ccc(-c2cc3c(cn2)C[C@H]2C=C3CCN2Cc2ccco2)cc1 (nonaromatic ring conformer: 144.64999227501033 kcal/mol)

>  <smiles>  (9) 
CCOc1ccc(-c2cc3c(cn2)CC2C=C3CCN2Cc2ccco2)cc1

>  <score_type>  (9) 
oracle

>  <origin>  (9) 
adg

>  <m_score__min__energy>  (9) 
-8.8000000000000007

>  <m_primary>  (9) 
energy

$$$$
9:0
     RDKit          3D

 53 55  0  0  0  0  0  0  0  0999 V2000
   -2.3940   23.4130  -28.3360 H   0  0  0  0  0  0  0  0  0  0  0  0
   -3.3140   23.1010  -28.8520 C   0  0  0  0  0  0  0  0  0  0  0  0
   -3.2430   22.1680  -29.7540 N   0  0  0  0  0  0  0  0  0  0  0  0
   -2.4950   22.3200  -30.9000 O   0  0  0  0  0  0  0  0  0  0  0  0
   -1.1330   21.9270  -30.9280 C   0  0  0  0  0  0  0  0  0  0  0  0
   -0.5736   22.4903  -30.1666 H   0  0  0  0  0  0  0  0  0  0  0  0
   -0.7127   22.1358  -31.9228 H   0  0  0  0  0  0  0  0  0  0  0  0
   -1.0260   20.4360  -30.6360 C   0  0  0  0  0  0  0  0  0  0  0  0
   -1.0145   20.2754  -29.5479 H   0  0  0  0  0  0  0  0  0  0  0  0
   -1.8890   19.9136  -31.0746 H   0  0  0  0  0  0  0  0  0  0  0  0
   -0.0973   20.0422  -31.0746 H   0  0  0  0  0  0  0  0  0  0  0  0
   -4.6100   23.7670  -28.4910 C   0  0  0  0  0  0  0  0  0  0  0  0
   -5.4193   23.0237  -28.5402 H   0  0  0  0  0  0  0  0  0  0  0  0
   -4.5150   24.1771  -27.4747 H   0  0  0  0  0  0  0  0  0  0  0  0
   -4.9350   24.9190  -29.4440 C   0  0  0  0  0  0  0  0  0  0  0  0
   -5.9814   25.2278  -29.3036 H   0  0  0  0  0  0  0  0  0  0  0  0
   -4.2716   25.7705  -29.2320 H   0  0  0  0  0  0  0  0  0  0  0  0
   -4.7360   24.4730  -30.8340 N   0  0  0  0  0  0  0  0  0  0  0  0
   -4.3230   23.5090  -30.8130 H   0  0  0  0  0  0  0  0  0  0  0  0
   -5.9920   24.3970  -31.5940 C   0  0  0  0  0  0  0  0  0  0  0  0
   -6.8143   24.1508  -30.9061 H   0  0  0  0  0  0  0  0  0  0  0  0
   -6.1700   25.3702  -32.0749 H   0  0  0  0  0  0  0  0  0  0  0  0
   -5.9110   23.3230  -32.6820 C   0  0  0  0  0  0  0  0  0  0  0  0
   -6.9214   22.9410  -32.8899 H   0  0  0  0  0  0  0  0  0  0  0  0
   -5.4802   23.7683  -33.5909 H   0  0  0  0  0  0  0  0  0  0  0  0
   -5.0580   22.2170  -32.2460 N   0  0  0  0  0  0  0  0  0  0  0  0
   -4.4130   22.3720  -31.4370 H   0  0  0  0  0  0  0  0  0  0  0  0
   -5.2990   20.8690  -32.6840 C   0  0  0  0  0  0  0  0  0  0  0  0
   -6.5440   20.2570  -32.4490 C   0  0  0  0  0  0  0  0  0  0  0  0
   -7.5920   20.9660  -31.8240 C   0  0  0  0  0  0  0  0  0  0  0  0
   -7.4537   22.0266  -31.5671 H   0  0  0  0  0  0  0  0  0  0  0  0
   -8.7990   20.3380  -31.5290 C   0  0  0  0  0  0  0  0  0  0  0  0
   -9.6087   20.9038  -31.0450 H   0  0  0  0  0  0  0  0  0  0  0  0
   -8.9820   18.9980  -31.8450 C   0  0  0  0  0  0  0  0  0  0  0  0
   -9.9252   18.4968  -31.5820 H   0  0  0  0  0  0  0  0  0  0  0  0
   -7.9750   18.2860  -32.4940 C   0  0  0  0  0  0  0  0  0  0  0  0
   -8.1315   17.2240  -32.7343 H   0  0  0  0  0  0  0  0  0  0  0  0
   -6.7500   18.9100  -32.8500 C   0  0  0  0  0  0  0  0  0  0  0  0
   -5.7670   18.2370  -33.5520 N   0  0  0  0  0  0  0  0  0  0  0  0
   -6.0790   16.9480  -34.2120 C   0  0  0  0  0  0  0  0  0  0  0  0
   -6.2649   16.1799  -33.4469 H   0  0  0  0  0  0  0  0  0  0  0  0
   -6.9748   17.0648  -34.8396 H   0  0  0  0  0  0  0  0  0  0  0  0
   -5.2289   16.6422  -34.8396 H   0  0  0  0  0  0  0  0  0  0  0  0
   -4.5010   18.7800  -33.6690 C   0  0  0  0  0  0  0  0  0  0  0  0
   -3.4040   18.0230  -34.1540 C   0  0  0  0  0  0  0  0  0  0  0  0
   -3.5492   16.9620  -34.4055 H   0  0  0  0  0  0  0  0  0  0  0  0
   -2.1430   18.6000  -34.3180 C   0  0  0  0  0  0  0  0  0  0  0  0
   -1.3093   17.9943  -34.7027 H   0  0  0  0  0  0  0  0  0  0  0  0
   -1.9370   19.9370  -33.9970 C   0  0  0  0  0  0  0  0  0  0  0  0
   -0.2100   20.7210  -34.2260 Br  0  0  0  0  0  0  0  0  0  0  0  0
   -2.9860   20.6970  -33.4820 C   0  0  0  0  0  0  0  0  0  0  0  0
   -2.8170   21.7537  -33.2273 H   0  0  0  0  0  0  0  0  0  0  0  0
   -4.2640   20.1270  -33.2830 C   0  0  0  0  0  0  0  0  0  0  0  0
  1  2  1  0
  2  3  2  0
  3  4  1  0
  4  5  1  0
  5  6  1  0
  5  7  1  0
  5  8  1  0
  8  9  1  0
  8 10  1  0
  8 11  1  0
  2 12  1  0
 12 13  1  0
 12 14  1  0
 12 15  1  0
 15 16  1  0
 15 17  1  0
 15 18  1  0
 18 19  1  0
 18 20  1  0
 20 21  1  0
 20 22  1  0
 20 23  1  0
 23 24  1  0
 23 25  1  0
 23 26  1  0
 26 27  1  0
 26 28  1  0
 28 29  2  0
 29 30  1  0
 30 31  1  0
 30 32  2  0
 32 33  1  0
 32 34  1  0
 34 35  1  0
 34 36  2  0
 36 37  1  0
 36 38  1  0
 38 39  2  0
 39 40  1  0
 40 41  1  0
 40 42  1  0
 40 43  1  0
 39 44  1  0
 44 45  2  0
 45 46  1  0
 45 47  1  0
 47 48  1  0
 47 49  2  0
 49 50  1  0
 49 51  1  0
 51 52  1  0
 51 53  2  0
 53 28  1  0
 38 29  1  0
 53 44  1  0
M  CHG  1  39   1
M  END
>  <UniqueID>  (10) 
10

>  <SMILES>  (10) 
CCO/N=C\CCNCCNc1c2ccccc2[n+](C)c2ccc(Br)cc12

>  <Energy>  (10) 
65.75669723155428

>  <Genealogy>  (10) 
CCO/N=C\CCNCCNc1c2ccccc2[n+](C)c2ccc(Br)cc12 (cis-trans isomerization)
CCO/N=C\CCNCCNc1c2ccccc2[n+](C)c2ccc(Br)cc12 (3D coordinates assigned)
CCO/N=C\CCNCCNc1c2ccccc2[n+](C)c2ccc(Br)cc12 (optimized conformer: 65.75669723155428 kcal/mol)

>  <smiles>  (10) 
CCON=CCCNCCNc1c2ccccc2[n+](C)c2ccc(Br)cc12

>  <score_type>  (10) 
oracle

>  <origin>  (10) 
adg

>  <m_score__min__energy>  (10) 
-9.6999999999999993

>  <m_primary>  (10) 
energy

$$$$
10:0
     RDKit          3D

 37 37  0  0  0  0  0  0  0  0999 V2000
   -5.8020   24.7460  -30.7160 C   0  0  0  0  0  0  0  0  0  0  0  0
   -6.1540   23.6770  -31.6990 C   0  0  0  0  0  0  0  0  0  0  0  0
   -7.1950   22.7910  -31.2780 N   0  0  0  0  0  0  0  0  0  0  0  0
   -7.2720   22.7040  -29.8680 C   0  0  0  0  0  0  0  0  0  0  0  0
   -8.4320   22.9210  -31.9880 C   0  0  0  0  0  0  0  0  0  0  0  0
   -9.4550   21.9000  -31.6800 C   0  0  0  0  0  0  0  0  0  0  0  0
   -8.8560   20.5130  -31.7290 C   0  0  0  0  0  0  0  0  0  0  0  0
   -8.4640   20.0660  -33.0200 N   0  0  0  0  0  0  0  0  0  0  0  0
   -7.0950   19.7360  -33.2580 C   0  0  0  0  0  0  0  0  0  0  0  0
   -6.6580   18.4830  -33.4720 N   0  0  0  0  0  0  0  0  0  0  0  0
   -5.3400   18.2280  -33.6910 C   0  0  0  0  0  0  0  0  0  0  0  0
   -4.8180   16.8640  -33.9400 C   0  0  0  0  0  0  0  0  0  0  0  0
   -4.4530   19.2950  -33.6880 C   0  0  0  0  0  0  0  0  0  0  0  0
   -4.9170   20.5960  -33.4650 C   0  0  0  0  0  0  0  0  0  0  0  0
   -4.1270   21.6050  -33.4490 N   0  0  0  0  0  0  0  0  0  0  0  0
   -6.2360   20.8010  -33.2540 N   0  0  0  0  0  0  0  0  0  0  0  0
   -5.9290   24.3603  -29.6937 H   0  0  0  0  0  0  0  0  0  0  0  0
   -4.7559   25.0514  -30.8653 H   0  0  0  0  0  0  0  0  0  0  0  0
   -6.4620   25.6132  -30.8653 H   0  0  0  0  0  0  0  0  0  0  0  0
   -6.4755   24.1631  -32.6320 H   0  0  0  0  0  0  0  0  0  0  0  0
   -5.2521   23.0587  -31.8186 H   0  0  0  0  0  0  0  0  0  0  0  0
   -6.6069   23.4554  -29.4174 H   0  0  0  0  0  0  0  0  0  0  0  0
   -8.3070   22.8897  -29.5452 H   0  0  0  0  0  0  0  0  0  0  0  0
   -6.9619   21.6992  -29.5452 H   0  0  0  0  0  0  0  0  0  0  0  0
   -8.8564   23.9077  -31.7507 H   0  0  0  0  0  0  0  0  0  0  0  0
   -8.1842   22.7877  -33.0514 H   0  0  0  0  0  0  0  0  0  0  0  0
   -9.8576   22.0843  -30.6730 H   0  0  0  0  0  0  0  0  0  0  0  0
  -10.2576   21.9657  -32.4293 H   0  0  0  0  0  0  0  0  0  0  0  0
   -7.9667   20.5038  -31.0816 H   0  0  0  0  0  0  0  0  0  0  0  0
   -9.6495   19.8271  -31.3975 H   0  0  0  0  0  0  0  0  0  0  0  0
   -9.1100   19.9480  -33.8500 H   0  0  0  0  0  0  0  0  0  0  0  0
   -4.6265   16.3636  -32.9793 H   0  0  0  0  0  0  0  0  0  0  0  0
   -5.5588   16.2868  -34.5128 H   0  0  0  0  0  0  0  0  0  0  0  0
   -3.8811   16.9288  -34.5128 H   0  0  0  0  0  0  0  0  0  0  0  0
   -3.3814   19.1174  -33.8615 H   0  0  0  0  0  0  0  0  0  0  0  0
   -4.2710   22.3640  -34.1350 H   0  0  0  0  0  0  0  0  0  0  0  0
   -6.5810   21.7770  -33.0860 H   0  0  0  0  0  0  0  0  0  0  0  0
  1  2  1  0
  2  3  1  0
  3  4  1  0
  3  5  1  0
  5  6  1  0
  6  7  1  0
  7  8  1  0
  8  9  1  0
  9 10  2  0
 10 11  1  0
 11 12  1  0
 11 13  2  0
 13 14  1  0
 14 15  2  3
 14 16  1  0
 16  9  1  0
  1 17  1  0
  1 18  1  0
  1 19  1  0
  2 20  1  0
  2 21  1  0
  4 22  1  0
  4 23  1  0
  4 24  1  0
  5 25  1  0
  5 26  1  0
  6 27  1  0
  6 28  1  0
  7 29  1  0
  7 30  1  0
  8 31  1  0
 12 32  1  0
 12 33  1  0
 12 34  1  0
 13 35  1  0
 15 36  1  0
 16 37  1  0
M  END
>  <smiles>  (11) 
CCN(C)CCCNc1nc(C)cc(=N)[nH]1

>  <score_type>  (11) 
oracle

>  <origin>  (11) 
adg

>  <m_score__min__energy>  (11) 
-5.7400000000000002

>  <m_primary>  (11) 
energy

$$$$
11:0
     RDKit          3D

 45 45  0  0  0  0  0  0  0  0999 V2000
   -4.1000   23.5450  -28.6110 C   0  0  0  0  0  0  0  0  0  0  0  0
   -3.4300   24.3740  -29.7090 C   0  0  0  0  0  0  0  0  0  0  0  0
   -4.3520   24.6070  -30.8450 N   0  0  0  0  0  0  0  0  0  0  0  0
   -5.3900   25.6100  -30.5020 C   0  0  0  0  0  0  0  0  0  0  0  0
   -6.6880   24.9140  -30.0890 C   0  0  0  0  0  0  0  0  0  0  0  0
   -4.9570   23.3330  -31.3090 C   0  0  0  0  0  0  0  0  0  0  0  0
   -3.8770   22.4030  -31.8670 C   0  0  0  0  0  0  0  0  0  0  0  0
   -4.4210   21.5320  -32.8410 O   0  0  0  0  0  0  0  0  0  0  0  0
   -3.7710   20.2750  -32.8520 C   0  0  0  0  0  0  0  0  0  0  0  0
   -4.5210   19.2760  -33.7340 C   0  0  0  0  0  0  0  0  0  0  0  0
   -5.6880   19.8780  -34.2400 O   0  0  0  0  0  0  0  0  0  0  0  0
   -6.7160   19.4540  -33.4570 N   0  0  0  0  0  0  0  0  0  0  0  0
   -7.4630   20.3780  -32.6530 C   0  0  0  0  0  0  0  0  0  0  0  0
   -7.2170   21.6430  -32.6240 N   0  0  0  0  0  0  0  0  0  0  0  0
   -8.1590   22.3230  -31.7400 C   0  0  0  0  0  0  0  0  0  0  0  0
   -9.0890   21.2080  -31.2230 C   0  0  0  0  0  0  0  0  0  0  0  0
   -8.5590   20.0010  -31.8400 N   0  0  0  0  0  0  0  0  0  0  0  0
   -9.1050   18.6560  -31.6960 C   0  0  0  0  0  0  0  0  0  0  0  0
   -3.7928   23.9251  -27.6255 H   0  0  0  0  0  0  0  0  0  0  0  0
   -5.1929   23.6215  -28.7091 H   0  0  0  0  0  0  0  0  0  0  0  0
   -3.7959   22.4924  -28.7091 H   0  0  0  0  0  0  0  0  0  0  0  0
   -3.1251   25.3443  -29.2900 H   0  0  0  0  0  0  0  0  0  0  0  0
   -2.5558   23.8184  -30.0793 H   0  0  0  0  0  0  0  0  0  0  0  0
   -5.0314   26.2323  -29.6688 H   0  0  0  0  0  0  0  0  0  0  0  0
   -5.5862   26.2366  -31.3845 H   0  0  0  0  0  0  0  0  0  0  0  0
   -6.7524   24.8795  -28.9914 H   0  0  0  0  0  0  0  0  0  0  0  0
   -7.5470   25.4725  -30.4893 H   0  0  0  0  0  0  0  0  0  0  0  0
   -6.6981   23.8895  -30.4893 H   0  0  0  0  0  0  0  0  0  0  0  0
   -5.4582   22.8402  -30.4629 H   0  0  0  0  0  0  0  0  0  0  0  0
   -5.6855   23.5519  -32.1036 H   0  0  0  0  0  0  0  0  0  0  0  0
   -3.0821   23.0081  -32.3274 H   0  0  0  0  0  0  0  0  0  0  0  0
   -3.4688   21.8003  -31.0423 H   0  0  0  0  0  0  0  0  0  0  0  0
   -2.7499   20.4018  -33.2408 H   0  0  0  0  0  0  0  0  0  0  0  0
   -3.7471   19.8846  -31.8239 H   0  0  0  0  0  0  0  0  0  0  0  0
   -3.8754   18.9686  -34.5699 H   0  0  0  0  0  0  0  0  0  0  0  0
   -4.7941   18.3936  -33.1366 H   0  0  0  0  0  0  0  0  0  0  0  0
   -7.0170   18.4550  -33.5150 H   0  0  0  0  0  0  0  0  0  0  0  0
   -6.4660   22.1170  -33.1700 H   0  0  0  0  0  0  0  0  0  0  0  0
   -7.6287   22.8036  -30.9047 H   0  0  0  0  0  0  0  0  0  0  0  0
   -8.7136   23.1193  -32.2579 H   0  0  0  0  0  0  0  0  0  0  0  0
   -9.0459   21.1389  -30.1260 H   0  0  0  0  0  0  0  0  0  0  0  0
  -10.1456   21.3850  -31.4727 H   0  0  0  0  0  0  0  0  0  0  0  0
   -9.2037   18.4128  -30.6278 H   0  0  0  0  0  0  0  0  0  0  0  0
  -10.0937   18.6083  -32.1758 H   0  0  0  0  0  0  0  0  0  0  0  0
   -8.4293   17.9327  -32.1758 H   0  0  0  0  0  0  0  0  0  0  0  0
  1  2  1  0
  2  3  1  0
  3  4  1  0
  4  5  1  0
  3  6  1  0
  6  7  1  0
  7  8  1  0
  8  9  1  0
  9 10  1  0
 10 11  1  0
 11 12  1  0
 12 13  1  0
 13 14  2  0
 14 15  1  0
 15 16  1  0
 16 17  1  0
 17 18  1  0
 17 13  1  0
  1 19  1  0
  1 20  1  0
  1 21  1  0
  2 22  1  0
  2 23  1  0
  4 24  1  0
  4 25  1  0
  5 26  1  0
  5 27  1  0
  5 28  1  0
  6 29  1  0
  6 30  1  0
  7 31  1  0
  7 32  1  0
  9 33  1  0
  9 34  1  0
 10 35  1  0
 10 36  1  0
 12 37  1  0
 14 38  1  0
 15 39  1  0
 15 40  1  0
 16 41  1  0
 16 42  1  0
 18 43  1  0
 18 44  1  0
 18 45  1  0
M  CHG  1  14   1
M  END
>  <UniqueID>  (12) 
11

>  <SMILES>  (12) 
CCN(CC)CCOCCONC1=[NH+]CCN1C

>  <Energy>  (12) 
47.635295445141615

>  <Genealogy>  (12) 
CCN(CC)CCOCCONC1=[NH+]CCN1C (protonated)
CCN(CC)CCOCCONC1=[NH+]CCN1C (3D coordinates assigned)
CCN(CC)CCOCCONC1=[NH+]CCN1C (nonaromatic ring conformer: 47.635295445141615 kcal/mol)

>  <smiles>  (12) 
CCN(CC)CCOCCONC1=NCCN1C

>  <score_type>  (12) 
oracle

>  <origin>  (12) 
adg

>  <m_score__min__energy>  (12) 
-5.1399999999999997

>  <m_primary>  (12) 
energy

$$$$
12:0
     RDKit          3D

 25 26  0  0  0  0  0  0  0  0999 V2000
   -3.4230   24.2160  -27.4940 C   0  0  0  0  0  0  0  0  0  0  0  0
   -2.4470   24.8880  -28.4460 C   0  0  0  0  0  0  0  0  0  0  0  0
   -3.0700   25.0680  -29.7160 O   0  0  0  0  0  0  0  0  0  0  0  0
   -4.1430   24.3000  -30.1930 C   0  0  0  0  0  0  0  0  0  0  0  0
   -5.4600   24.7930  -30.2270 C   0  0  0  0  0  0  0  0  0  0  0  0
   -6.5010   23.9970  -30.7090 C   0  0  0  0  0  0  0  0  0  0  0  0
   -6.2560   22.6900  -31.1640 C   0  0  0  0  0  0  0  0  0  0  0  0
   -7.3800   21.8600  -31.6730 C   0  0  0  0  0  0  0  0  0  0  0  0
   -8.6850   21.8910  -31.1540 C   0  0  0  0  0  0  0  0  0  0  0  0
   -9.5450   20.7950  -32.0760 S   0  0  0  0  0  0  0  0  0  0  0  0
   -8.3060   20.3280  -33.0650 N   0  0  0  0  0  0  0  0  0  0  0  0
   -7.2100   20.9930  -32.7220 N   0  0  0  0  0  0  0  0  0  0  0  0
   -4.9350   22.2030  -31.1320 C   0  0  0  0  0  0  0  0  0  0  0  0
   -3.8910   22.9990  -30.6490 C   0  0  0  0  0  0  0  0  0  0  0  0
   -2.1120   22.2910  -30.6290 Br  0  0  0  0  0  0  0  0  0  0  0  0
   -3.1234   24.4223  -26.4559 H   0  0  0  0  0  0  0  0  0  0  0  0
   -4.4353   24.6095  -27.6686 H   0  0  0  0  0  0  0  0  0  0  0  0
   -3.4166   23.1300  -27.6686 H   0  0  0  0  0  0  0  0  0  0  0  0
   -2.1534   25.8671  -28.0395 H   0  0  0  0  0  0  0  0  0  0  0  0
   -1.5538   24.2565  -28.5618 H   0  0  0  0  0  0  0  0  0  0  0  0
   -5.6712   25.8123  -29.8715 H   0  0  0  0  0  0  0  0  0  0  0  0
   -7.5252   24.3977  -30.7329 H   0  0  0  0  0  0  0  0  0  0  0  0
   -9.0595   22.5041  -30.3210 H   0  0  0  0  0  0  0  0  0  0  0  0
   -8.3530   19.6300  -33.8400 H   0  0  0  0  0  0  0  0  0  0  0  0
   -4.7217   21.1853  -31.4908 H   0  0  0  0  0  0  0  0  0  0  0  0
  1  2  1  0
  2  3  1  0
  3  4  1  0
  4  5  2  0
  5  6  1  0
  6  7  2  0
  7  8  1  0
  8  9  2  0
  9 10  1  0
 10 11  1  0
 11 12  2  0
  7 13  1  0
 13 14  2  0
 14 15  1  0
 14  4  1  0
 12  8  1  0
  1 16  1  0
  1 17  1  0
  1 18  1  0
  2 19  1  0
  2 20  1  0
  5 21  1  0
  6 22  1  0
  9 23  1  0
 11 24  1  0
 13 25  1  0
M  CHG  1  11   1
M  END
>  <UniqueID>  (13) 
12

>  <SMILES>  (13) 
CCOc1ccc(-c2cs[nH+]n2)cc1Br

>  <Energy>  (13) 
61.33342588024915

>  <Genealogy>  (13) 
CCOc1ccc(-c2cs[nH+]n2)cc1Br (protonated)
CCOc1ccc(-c2cs[nH+]n2)cc1Br (3D coordinates assigned)
CCOc1ccc(-c2cs[nH+]n2)cc1Br (optimized conformer: 61.33342588024915 kcal/mol)

>  <smiles>  (13) 
CCOc1ccc(-c2csnn2)cc1Br

>  <score_type>  (13) 
oracle

>  <origin>  (13) 
adg

>  <m_score__min__energy>  (13) 
-6.9699999999999998

>  <m_primary>  (13) 
energy

$$$$
13:0
     RDKit          3D

 66 68  0  0  0  0  0  0  0  0999 V2000
   -0.6450   22.8840  -28.6510 C   0  0  0  0  0  0  0  0  0  0  0  0
   -1.1820   24.1930  -29.2280 C   0  0  0  0  0  0  0  0  0  0  0  0
   -1.9600   24.9350  -28.2090 N   0  0  0  0  0  0  0  0  0  0  0  0
   -1.1940   26.0830  -27.6920 C   0  0  0  0  0  0  0  0  0  0  0  0
   -2.4010   24.0460  -27.1040 C   0  0  0  0  0  0  0  0  0  0  0  0
   -3.8850   23.7020  -27.2700 C   0  0  0  0  0  0  0  0  0  0  0  0
   -4.6080   24.8140  -27.8880 N   0  0  0  0  0  0  0  0  0  0  0  0
   -4.9690   24.4690  -29.5540 S   0  0  0  0  0  0  0  0  0  0  0  0
   -3.8970   25.0090  -30.4630 O   0  0  0  0  0  0  0  0  0  0  0  0
   -6.2670   25.1380  -29.9100 O   0  0  0  0  0  0  0  0  0  0  0  0
   -5.1800   22.7050  -29.7990 C   0  0  0  0  0  0  0  0  0  0  0  0
   -3.8630   21.9130  -29.8160 C   0  0  0  0  0  0  0  0  0  0  0  0
   -3.0990   22.0710  -31.1460 C   0  0  0  0  0  0  0  0  0  0  0  0
   -2.8540   20.7300  -31.8600 C   0  0  0  0  0  0  0  0  0  0  0  0
   -3.0660   20.7920  -33.3780 C   0  0  0  0  0  0  0  0  0  0  0  0
   -4.4210   21.2340  -33.7110 N   0  0  0  0  0  0  0  0  0  0  0  0
   -5.5830   20.4860  -33.3070 C   0  0  0  0  0  0  0  0  0  0  0  0
   -5.6670   19.1030  -33.5690 C   0  0  0  0  0  0  0  0  0  0  0  0
   -4.6960   18.4560  -34.3640 C   0  0  0  0  0  0  0  0  0  0  0  0
   -4.8030   17.0980  -34.6530 C   0  0  0  0  0  0  0  0  0  0  0  0
   -5.8850   16.3680  -34.1770 C   0  0  0  0  0  0  0  0  0  0  0  0
   -6.8680   16.9880  -33.4120 C   0  0  0  0  0  0  0  0  0  0  0  0
   -6.7710   18.3620  -33.0680 C   0  0  0  0  0  0  0  0  0  0  0  0
   -7.7420   18.9900  -32.3060 N   0  0  0  0  0  0  0  0  0  0  0  0
   -8.7520   18.1920  -31.5730 C   0  0  0  0  0  0  0  0  0  0  0  0
   -7.7700   20.3700  -32.2230 C   0  0  0  0  0  0  0  0  0  0  0  0
   -8.8920   21.0640  -31.6970 C   0  0  0  0  0  0  0  0  0  0  0  0
   -8.8880   22.4540  -31.5720 C   0  0  0  0  0  0  0  0  0  0  0  0
   -7.7850   23.1900  -31.9840 C   0  0  0  0  0  0  0  0  0  0  0  0
   -6.6840   22.5420  -32.5390 C   0  0  0  0  0  0  0  0  0  0  0  0
   -6.6700   21.1380  -32.6930 C   0  0  0  0  0  0  0  0  0  0  0  0
   -0.6648   22.9322  -27.5522 H   0  0  0  0  0  0  0  0  0  0  0  0
   -1.2728   22.0478  -28.9927 H   0  0  0  0  0  0  0  0  0  0  0  0
    0.3891   22.7296  -28.9927 H   0  0  0  0  0  0  0  0  0  0  0  0
   -0.3373   24.8144  -29.5603 H   0  0  0  0  0  0  0  0  0  0  0  0
   -1.8423   23.9606  -30.0765 H   0  0  0  0  0  0  0  0  0  0  0  0
   -1.2054   26.0660  -26.5922 H   0  0  0  0  0  0  0  0  0  0  0  0
   -0.1554   26.0214  -28.0490 H   0  0  0  0  0  0  0  0  0  0  0  0
   -1.6496   27.0184  -28.0490 H   0  0  0  0  0  0  0  0  0  0  0  0
   -1.8079   23.1198  -27.1226 H   0  0  0  0  0  0  0  0  0  0  0  0
   -2.2549   24.5628  -26.1440 H   0  0  0  0  0  0  0  0  0  0  0  0
   -3.9799   22.8108  -27.9078 H   0  0  0  0  0  0  0  0  0  0  0  0
   -4.3163   23.5084  -26.2768 H   0  0  0  0  0  0  0  0  0  0  0  0
   -3.9750   25.6470  -27.8780 H   0  0  0  0  0  0  0  0  0  0  0  0
   -5.8072   22.3154  -28.9836 H   0  0  0  0  0  0  0  0  0  0  0  0
   -5.6418   22.5747  -30.7888 H   0  0  0  0  0  0  0  0  0  0  0  0
   -3.2237   22.2731  -28.9965 H   0  0  0  0  0  0  0  0  0  0  0  0
   -4.1106   20.8480  -29.6960 H   0  0  0  0  0  0  0  0  0  0  0  0
   -3.6851   22.7212  -31.8121 H   0  0  0  0  0  0  0  0  0  0  0  0
   -2.1154   22.5043  -30.9117 H   0  0  0  0  0  0  0  0  0  0  0  0
   -1.8171   20.4179  -31.6666 H   0  0  0  0  0  0  0  0  0  0  0  0
   -3.5887   20.0148  -31.4617 H   0  0  0  0  0  0  0  0  0  0  0  0
   -2.3426   21.4981  -33.8117 H   0  0  0  0  0  0  0  0  0  0  0  0
   -2.9208   19.7821  -33.7891 H   0  0  0  0  0  0  0  0  0  0  0  0
   -4.5490   22.2010  -34.0820 H   0  0  0  0  0  0  0  0  0  0  0  0
   -3.8457   19.0310  -34.7594 H   0  0  0  0  0  0  0  0  0  0  0  0
   -4.0300   16.6027  -35.2589 H   0  0  0  0  0  0  0  0  0  0  0  0
   -5.9649   15.2951  -34.4059 H   0  0  0  0  0  0  0  0  0  0  0  0
   -7.7345   16.4041  -33.0681 H   0  0  0  0  0  0  0  0  0  0  0  0
   -8.5993   18.3126  -30.4903 H   0  0  0  0  0  0  0  0  0  0  0  0
   -9.7602   18.5401  -31.8422 H   0  0  0  0  0  0  0  0  0  0  0  0
   -8.6465   17.1307  -31.8422 H   0  0  0  0  0  0  0  0  0  0  0  0
   -9.7799   20.4958  -31.3826 H   0  0  0  0  0  0  0  0  0  0  0  0
   -9.7618   22.9684  -31.1455 H   0  0  0  0  0  0  0  0  0  0  0  0
   -7.7807   24.2843  -31.8721 H   0  0  0  0  0  0  0  0  0  0  0  0
   -5.8134   23.1318  -32.8618 H   0  0  0  0  0  0  0  0  0  0  0  0
  1  2  1  0
  2  3  1  0
  3  4  1  0
  3  5  1  0
  5  6  1  0
  6  7  1  0
  7  8  1  0
  8  9  2  0
  8 10  2  0
  8 11  1  0
 11 12  1  0
 12 13  1  0
 13 14  1  0
 14 15  1  0
 15 16  1  0
 16 17  1  0
 17 18  2  0
 18 19  1  0
 19 20  2  0
 20 21  1  0
 21 22  2  0
 22 23  1  0
 23 24  2  0
 24 25  1  0
 24 26  1  0
 26 27  2  0
 27 28  1  0
 28 29  2  0
 29 30  1  0
 30 31  2  0
 31 17  1  0
 23 18  1  0
 31 26  1  0
  1 32  1  0
  1 33  1  0
  1 34  1  0
  2 35  1  0
  2 36  1  0
  4 37  1  0
  4 38  1  0
  4 39  1  0
  5 40  1  0
  5 41  1  0
  6 42  1  0
  6 43  1  0
  7 44  1  0
 11 45  1  0
 11 46  1  0
 12 47  1  0
 12 48  1  0
 13 49  1  0
 13 50  1  0
 14 51  1  0
 14 52  1  0
 15 53  1  0
 15 54  1  0
 16 55  1  0
 19 56  1  0
 20 57  1  0
 21 58  1  0
 22 59  1  0
 25 60  1  0
 25 61  1  0
 25 62  1  0
 27 63  1  0
 28 64  1  0
 29 65  1  0
 30 66  1  0
M  CHG  1  24   1
M  END
>  <UniqueID>  (14) 
13

>  <SMILES>  (14) 
CCN(C)CCNS(=O)(=O)CCCCCNc1c2ccccc2[n+](C)c2ccccc12

>  <Energy>  (14) 
79.13266645693466

>  <Genealogy>  (14) 
CCN(C)CCNS(=O)(=O)CCCCCNc1c2ccccc2[n+](C)c2ccccc12 (3D coordinates assigned)
CCN(C)CCNS(=O)(=O)CCCCCNc1c2ccccc2[n+](C)c2ccccc12 (optimized conformer: 79.13266645693466 kcal/mol)

>  <smiles>  (14) 
CCN(C)CCNS(=O)(=O)CCCCCNc1c2ccccc2[n+](C)c2ccccc12

>  <score_type>  (14) 
oracle

>  <origin>  (14) 
adg

>  <m_score__min__energy>  (14) 
-9.8399999999999999

>  <m_primary>  (14) 
energy

$$$$
14:0
     RDKit          3D

 63 66  0  0  0  0  0  0  0  0999 V2000
   -3.4980   18.7000  -26.5280 C   0  0  0  0  0  0  0  0  0  0  0  0
   -2.3730   19.2890  -25.6920 C   0  0  0  0  0  0  0  0  0  0  0  0
   -1.4750   19.9970  -26.5410 O   0  0  0  0  0  0  0  0  0  0  0  0
   -0.8670   19.4630  -27.6870 C   0  0  0  0  0  0  0  0  0  0  0  0
   -0.0970   18.2830  -27.6350 C   0  0  0  0  0  0  0  0  0  0  0  0
    0.4740   17.7580  -28.7950 C   0  0  0  0  0  0  0  0  0  0  0  0
    0.2820   18.3960  -30.0200 C   0  0  0  0  0  0  0  0  0  0  0  0
   -0.4760   19.5660  -30.0880 C   0  0  0  0  0  0  0  0  0  0  0  0
   -1.0490   20.1160  -28.9270 C   0  0  0  0  0  0  0  0  0  0  0  0
   -1.8230   21.3290  -29.0170 N   0  0  0  0  0  0  0  0  0  0  0  0
   -2.8020   21.6580  -27.9740 C   0  0  0  0  0  0  0  0  0  0  0  0
   -3.0580   23.1720  -27.9520 C   0  0  0  0  0  0  0  0  0  0  0  0
   -3.4740   23.7190  -29.2730 N   0  0  0  0  0  0  0  0  0  0  0  0
   -4.9170   24.0410  -29.3150 C   0  0  0  0  0  0  0  0  0  0  0  0
   -5.1980   25.1610  -30.3350 C   0  0  1  0  0  0  0  0  0  0  0  0
   -3.9870   25.6560  -30.8470 O   0  0  0  0  0  0  0  0  0  0  0  0
   -6.0470   24.6240  -31.4950 C   0  0  0  0  0  0  0  0  0  0  0  0
   -5.7780   23.2390  -31.7230 O   0  0  0  0  0  0  0  0  0  0  0  0
   -6.7410   22.2230  -31.8720 C   0  0  0  0  0  0  0  0  0  0  0  0
   -8.0680   22.3910  -31.4230 C   0  0  0  0  0  0  0  0  0  0  0  0
   -9.0090   21.3730  -31.5810 C   0  0  0  0  0  0  0  0  0  0  0  0
   -8.6500   20.1710  -32.1830 C   0  0  0  0  0  0  0  0  0  0  0  0
   -7.3430   19.9720  -32.6320 C   0  0  0  0  0  0  0  0  0  0  0  0
   -7.0230   18.8150  -33.2030 O   0  0  0  0  0  0  0  0  0  0  0  0
   -5.8020   18.5420  -33.6520 C   0  0  0  0  0  0  0  0  0  0  0  0
   -5.5330   17.2160  -34.2950 C   0  0  0  0  0  0  0  0  0  0  0  0
   -6.7060   16.4520  -34.3380 O   0  0  0  0  0  0  0  0  0  0  0  0
   -4.7850   19.4960  -33.5420 C   0  0  0  0  0  0  0  0  0  0  0  0
   -5.0680   20.7310  -32.9540 C   0  0  0  0  0  0  0  0  0  0  0  0
   -4.1450   21.5860  -32.8610 O   0  0  0  0  0  0  0  0  0  0  0  0
   -6.3710   20.9950  -32.4790 C   0  0  0  0  0  0  0  0  0  0  0  0
   -3.0870   22.8820  -30.4350 C   0  0  0  0  0  0  0  0  0  0  0  0
   -1.7460   22.1780  -30.2130 C   0  0  0  0  0  0  0  0  0  0  0  0
   -4.2745   18.2934  -25.8634 H   0  0  0  0  0  0  0  0  0  0  0  0
   -3.9333   19.4859  -27.1627 H   0  0  0  0  0  0  0  0  0  0  0  0
   -3.1001   17.8945  -27.1627 H   0  0  0  0  0  0  0  0  0  0  0  0
   -2.7929   19.9787  -24.9450 H   0  0  0  0  0  0  0  0  0  0  0  0
   -1.8332   18.4795  -25.1789 H   0  0  0  0  0  0  0  0  0  0  0  0
    0.0548   17.7723  -26.6726 H   0  0  0  0  0  0  0  0  0  0  0  0
    1.0766   16.8392  -28.7430 H   0  0  0  0  0  0  0  0  0  0  0  0
    0.7284   17.9767  -30.9337 H   0  0  0  0  0  0  0  0  0  0  0  0
   -0.6266   20.0624  -31.0580 H   0  0  0  0  0  0  0  0  0  0  0  0
   -3.7456   21.1321  -28.1813 H   0  0  0  0  0  0  0  0  0  0  0  0
   -2.4069   21.3446  -26.9964 H   0  0  0  0  0  0  0  0  0  0  0  0
   -3.8535   23.3809  -27.2216 H   0  0  0  0  0  0  0  0  0  0  0  0
   -2.1091   23.6587  -27.6824 H   0  0  0  0  0  0  0  0  0  0  0  0
   -5.4792   23.1407  -29.6039 H   0  0  0  0  0  0  0  0  0  0  0  0
   -5.2308   24.3848  -28.3183 H   0  0  0  0  0  0  0  0  0  0  0  0
   -5.7448   25.9676  -29.8247 H   0  0  0  0  0  0  0  0  0  0  0  0
   -3.4930   24.8800  -31.2200 H   0  0  0  0  0  0  0  0  0  0  0  0
   -7.1121   24.7488  -31.2501 H   0  0  0  0  0  0  0  0  0  0  0  0
   -5.7947   25.1865  -32.4060 H   0  0  0  0  0  0  0  0  0  0  0  0
   -8.3641   23.3354  -30.9429 H   0  0  0  0  0  0  0  0  0  0  0  0
  -10.0401   21.5215  -31.2278 H   0  0  0  0  0  0  0  0  0  0  0  0
   -9.3987   19.3745  -32.3056 H   0  0  0  0  0  0  0  0  0  0  0  0
   -5.1664   17.3768  -35.3196 H   0  0  0  0  0  0  0  0  0  0  0  0
   -4.7761   16.6783  -33.7052 H   0  0  0  0  0  0  0  0  0  0  0  0
   -7.4590   17.0760  -34.1650 H   0  0  0  0  0  0  0  0  0  0  0  0
   -3.7736   19.2761  -33.9144 H   0  0  0  0  0  0  0  0  0  0  0  0
   -3.8645   22.1214  -30.5995 H   0  0  0  0  0  0  0  0  0  0  0  0
   -2.9841   23.5413  -31.3095 H   0  0  0  0  0  0  0  0  0  0  0  0
   -1.5109   21.5552  -31.0887 H   0  0  0  0  0  0  0  0  0  0  0  0
   -0.9579   22.9326  -30.0732 H   0  0  0  0  0  0  0  0  0  0  0  0
  1  2  1  0
  2  3  1  0
  3  4  1  0
  4  5  2  0
  5  6  1  0
  6  7  2  0
  7  8  1  0
  8  9  2  0
  9 10  1  0
 10 11  1  0
 11 12  1  0
 12 13  1  0
 13 14  1  0
 14 15  1  0
 15 16  1  0
 15 17  1  0
 17 18  1  0
 18 19  1  0
 19 20  2  0
 20 21  1  0
 21 22  2  0
 22 23  1  0
 23 24  1  0
 24 25  1  0
 25 26  1  0
 26 27  1  0
 25 28  2  0
 28 29  1  0
 29 30  2  0
 29 31  1  0
 13 32  1  0
 32 33  1  0
  9  4  1  0
 33 10  1  0
 31 19  1  0
 31 23  2  0
  1 34  1  0
  1 35  1  0
  1 36  1  0
  2 37  1  0
  2 38  1  0
  5 39  1  0
  6 40  1  0
  7 41  1  0
  8 42  1  0
 11 43  1  0
 11 44  1  0
 12 45  1  0
 12 46  1  0
 14 47  1  0
 14 48  1  0
 15 49  1  1
 16 50  1  0
 17 51  1  0
 17 52  1  0
 20 53  1  0
 21 54  1  0
 22 55  1  0
 26 56  1  0
 26 57  1  0
 27 58  1  0
 28 59  1  0
 32 60  1  0
 32 61  1  0
 33 62  1  0
 33 63  1  0
M  END
>  <UniqueID>  (15) 
14

>  <SMILES>  (15) 
CCOc1ccccc1N1CCN(C[C@@H](O)COc2cccc3oc(CO)cc(=O)c23)CC1

>  <Energy>  (15) 
77.81984067514495

>  <Genealogy>  (15) 
CCOc1ccccc1N1CCN(C[C@@H](O)COc2cccc3oc(CO)cc(=O)c23)CC1 (chirality)
CCOc1ccccc1N1CCN(C[C@@H](O)COc2cccc3oc(CO)cc(=O)c23)CC1 (3D coordinates assigned)
CCOc1ccccc1N1CCN(C[C@@H](O)COc2cccc3oc(CO)cc(=O)c23)CC1 (nonaromatic ring conformer: 77.81984067514495 kcal/mol)

>  <smiles>  (15) 
CCOc1ccccc1N1CCN(CC(O)COc2cccc3oc(CO)cc(=O)c23)CC1

>  <score_type>  (15) 
oracle

>  <origin>  (15) 
adg

>  <m_score__min__energy>  (15) 
-9.4299999999999997

>  <m_primary>  (15) 
energy

$$$$
15:0
     RDKit          3D

 93 97  0  0  0  0  0  0  0  0999 V2000
   -1.8490   26.2760  -25.1900 C   0  0  0  0  0  0  0  0  0  0  0  0
   -0.9950   26.5090  -23.9400 C   0  0  0  0  0  0  0  0  0  0  0  0
    0.2430   25.6850  -23.9410 N   0  0  0  0  0  0  0  0  0  0  0  0
    1.5120   26.4310  -24.1840 C   0  0  0  0  0  0  0  0  0  0  0  0
    1.7210   27.7030  -23.3460 C   0  0  0  0  0  0  0  0  0  0  0  0
    0.1090   24.4620  -24.7750 C   0  0  0  0  0  0  0  0  0  0  0  0
    0.8670   24.5150  -26.1220 C   0  0  0  0  0  0  0  0  0  0  0  0
    1.3140   23.1230  -26.5930 C   0  0  0  0  0  0  0  0  0  0  0  0
    0.4860   22.5960  -27.7740 C   0  0  0  0  0  0  0  0  0  0  0  0
   -0.9100   22.3990  -27.3550 N   0  0  0  0  0  0  0  0  0  0  0  0
   -1.2340   21.3130  -26.4240 C   0  0  0  0  0  0  0  0  0  0  0  0
   -2.1900   20.3360  -27.1020 C   0  0  0  0  0  0  0  0  0  0  0  0
   -3.4850   21.0480  -27.5100 C   0  0  0  0  0  0  0  0  0  0  0  0
   -3.2330   22.3680  -28.2020 C   0  0  0  0  0  0  0  0  0  0  0  0
   -4.2760   22.9670  -28.9210 C   0  0  0  0  0  0  0  0  0  0  0  0
   -4.1300   24.2550  -29.4550 C   0  0  0  0  0  0  0  0  0  0  0  0
   -5.2690   24.9110  -30.1940 C   0  0  0  0  0  0  0  0  0  0  0  0
   -6.6380   24.1820  -30.0780 C   0  0  0  0  0  0  0  0  0  0  0  0
   -6.9510   23.1250  -31.1100 N   0  0  1  0  0  0  0  0  0  0  0  0
   -8.3300   23.3370  -31.6300 C   0  0  0  0  0  0  0  0  0  0  0  0
   -5.9980   23.2930  -32.2520 C   0  0  0  0  0  0  0  0  0  0  0  0
   -4.6710   22.5540  -32.0090 C   0  0  0  0  0  0  0  0  0  0  0  0
   -4.8390   21.0640  -32.0290 N   0  0  2  0  0  0  0  0  0  0  0  0
   -3.7660   20.4350  -31.1760 C   0  0  0  0  0  0  0  0  0  0  0  0
   -2.3410   21.0120  -31.3240 C   0  0  0  0  0  0  0  0  0  0  0  0
   -4.6810   20.5940  -33.4520 C   0  0  0  0  0  0  0  0  0  0  0  0
   -5.2430   19.2160  -33.6680 C   0  0  0  0  0  0  0  0  0  0  0  0
   -4.5560   18.2250  -34.3830 C   0  0  0  0  0  0  0  0  0  0  0  0
   -5.1590   16.9820  -34.5980 C   0  0  0  0  0  0  0  0  0  0  0  0
   -6.4470   16.7310  -34.1100 C   0  0  0  0  0  0  0  0  0  0  0  0
   -7.1380   17.7240  -33.4060 C   0  0  0  0  0  0  0  0  0  0  0  0
   -6.5320   18.9700  -33.1920 C   0  0  0  0  0  0  0  0  0  0  0  0
   -7.2060   20.0810  -32.4470 C   0  0  0  0  0  0  0  0  0  0  0  0
   -6.1890   20.6630  -31.4310 C   0  0  2  0  0  0  0  0  0  0  0  0
   -6.8230   21.7510  -30.5120 C   0  0  0  0  0  0  0  0  0  0  0  0
   -2.9050   24.9210  -29.3120 C   0  0  0  0  0  0  0  0  0  0  0  0
   -1.8530   24.3240  -28.6210 C   0  0  0  0  0  0  0  0  0  0  0  0
   -2.0010   23.0460  -28.0540 C   0  0  0  0  0  0  0  0  0  0  0  0
   -2.8699   25.9974  -24.8899 H   0  0  0  0  0  0  0  0  0  0  0  0
   -1.8816   27.1981  -25.7889 H   0  0  0  0  0  0  0  0  0  0  0  0
   -1.4088   25.4651  -25.7889 H   0  0  0  0  0  0  0  0  0  0  0  0
   -0.7129   27.5713  -23.8972 H   0  0  0  0  0  0  0  0  0  0  0  0
   -1.5932   26.2168  -23.0643 H   0  0  0  0  0  0  0  0  0  0  0  0
    0.3300   25.3060  -22.9670 H   0  0  0  0  0  0  0  0  0  0  0  0
    2.3485   25.7485  -23.9730 H   0  0  0  0  0  0  0  0  0  0  0  0
    1.4588   26.7713  -25.2287 H   0  0  0  0  0  0  0  0  0  0  0  0
    1.6792   27.4486  -22.2766 H   0  0  0  0  0  0  0  0  0  0  0  0
    2.7029   28.1396  -23.5809 H   0  0  0  0  0  0  0  0  0  0  0  0
    0.9304   28.4309  -23.5809 H   0  0  0  0  0  0  0  0  0  0  0  0
    0.4948   23.6090  -24.1975 H   0  0  0  0  0  0  0  0  0  0  0  0
   -0.9589   24.3684  -25.0217 H   0  0  0  0  0  0  0  0  0  0  0  0
    0.2043   24.9507  -26.8842 H   0  0  0  0  0  0  0  0  0  0  0  0
    1.7691   25.1277  -25.9773 H   0  0  0  0  0  0  0  0  0  0  0  0
    2.3685   23.1788  -26.9011 H   0  0  0  0  0  0  0  0  0  0  0  0
    1.1687   22.4283  -25.7526 H   0  0  0  0  0  0  0  0  0  0  0  0
    0.5207   23.3239  -28.5980 H   0  0  0  0  0  0  0  0  0  0  0  0
    0.9033   21.6354  -28.1103 H   0  0  0  0  0  0  0  0  0  0  0  0
   -0.3115   20.7862  -26.1386 H   0  0  0  0  0  0  0  0  0  0  0  0
   -1.7096   21.7291  -25.5236 H   0  0  0  0  0  0  0  0  0  0  0  0
   -1.7072   19.9206  -27.9989 H   0  0  0  0  0  0  0  0  0  0  0  0
   -2.4349   19.5294  -26.3953 H   0  0  0  0  0  0  0  0  0  0  0  0
   -4.0456   20.3938  -28.1939 H   0  0  0  0  0  0  0  0  0  0  0  0
   -4.0519   21.2580  -26.5910 H   0  0  0  0  0  0  0  0  0  0  0  0
   -5.2194   22.4208  -29.0680 H   0  0  0  0  0  0  0  0  0  0  0  0
   -5.3908   25.9297  -29.7972 H   0  0  0  0  0  0  0  0  0  0  0  0
   -4.9977   24.8853  -31.2597 H   0  0  0  0  0  0  0  0  0  0  0  0
   -6.6723   23.6993  -29.0902 H   0  0  0  0  0  0  0  0  0  0  0  0
   -7.3903   24.9676  -30.2422 H   0  0  0  0  0  0  0  0  0  0  0  0
   -9.0276   23.4442  -30.7863 H   0  0  0  0  0  0  0  0  0  0  0  0
   -8.3541   24.2494  -32.2439 H   0  0  0  0  0  0  0  0  0  0  0  0
   -8.6271   22.4740  -32.2439 H   0  0  0  0  0  0  0  0  0  0  0  0
   -6.4643   22.8946  -33.1651 H   0  0  0  0  0  0  0  0  0  0  0  0
   -5.7758   24.3655  -32.3540 H   0  0  0  0  0  0  0  0  0  0  0  0
   -3.9572   22.8403  -32.7954 H   0  0  0  0  0  0  0  0  0  0  0  0
   -4.3044   22.8386  -31.0117 H   0  0  0  0  0  0  0  0  0  0  0  0
   -4.0654   20.5500  -30.1238 H   0  0  0  0  0  0  0  0  0  0  0  0
   -3.6949   19.3925  -31.5197 H   0  0  0  0  0  0  0  0  0  0  0  0
   -1.9106   21.1863  -30.3268 H   0  0  0  0  0  0  0  0  0  0  0  0
   -1.7117   20.2978  -31.8753 H   0  0  0  0  0  0  0  0  0  0  0  0
   -2.3858   21.9628  -31.8753 H   0  0  0  0  0  0  0  0  0  0  0  0
   -5.2051   21.2970  -34.1162 H   0  0  0  0  0  0  0  0  0  0  0  0
   -3.6043   20.5549  -33.6740 H   0  0  0  0  0  0  0  0  0  0  0  0
   -3.5470   18.4244  -34.7731 H   0  0  0  0  0  0  0  0  0  0  0  0
   -4.6201   16.1993  -35.1520 H   0  0  0  0  0  0  0  0  0  0  0  0
   -6.9170   15.7512  -34.2802 H   0  0  0  0  0  0  0  0  0  0  0  0
   -8.1504   17.5280  -33.0230 H   0  0  0  0  0  0  0  0  0  0  0  0
   -7.5208   20.8654  -33.1510 H   0  0  0  0  0  0  0  0  0  0  0  0
   -8.0967   19.7043  -31.9228 H   0  0  0  0  0  0  0  0  0  0  0  0
   -5.9295   19.8204  -30.7732 H   0  0  0  0  0  0  0  0  0  0  0  0
   -7.8309   21.4102  -30.2326 H   0  0  0  0  0  0  0  0  0  0  0  0
   -6.1335   21.8602  -29.6619 H   0  0  0  0  0  0  0  0  0  0  0  0
   -2.7734   25.9221  -29.7485 H   0  0  0  0  0  0  0  0  0  0  0  0
   -0.8968   24.8579  -28.5179 H   0  0  0  0  0  0  0  0  0  0  0  0
  1  2  1  0
  2  3  1  0
  3  4  1  0
  4  5  1  0
  3  6  1  0
  6  7  1  0
  7  8  1  0
  8  9  1  0
  9 10  1  0
 10 11  1  0
 11 12  1  0
 12 13  1  0
 13 14  1  0
 14 15  2  0
 15 16  1  0
 16 17  1  0
 17 18  1  0
 19 18  1  1
 19 20  1  0
 19 21  1  0
 21 22  1  0
 22 23  1  0
 23 24  1  1
 24 25  1  0
 23 26  1  0
 26 27  1  0
 27 28  2  0
 28 29  1  0
 29 30  2  0
 30 31  1  0
 31 32  2  0
 32 33  1  0
 33 34  1  0
 34 35  1  0
 16 36  2  0
 36 37  1  0
 37 38  2  0
 38 10  1  0
 38 14  1  0
 35 19  1  0
 34 23  1  0
 32 27  1  0
  1 39  1  0
  1 40  1  0
  1 41  1  0
  2 42  1  0
  2 43  1  0
  3 44  1  0
  4 45  1  0
  4 46  1  0
  5 47  1  0
  5 48  1  0
  5 49  1  0
  6 50  1  0
  6 51  1  0
  7 52  1  0
  7 53  1  0
  8 54  1  0
  8 55  1  0
  9 56  1  0
  9 57  1  0
 11 58  1  0
 11 59  1  0
 12 60  1  0
 12 61  1  0
 13 62  1  0
 13 63  1  0
 15 64  1  0
 17 65  1  0
 17 66  1  0
 18 67  1  0
 18 68  1  0
 20 69  1  0
 20 70  1  0
 20 71  1  0
 21 72  1  0
 21 73  1  0
 22 74  1  0
 22 75  1  0
 24 76  1  0
 24 77  1  0
 25 78  1  0
 25 79  1  0
 25 80  1  0
 26 81  1  0
 26 82  1  0
 28 83  1  0
 29 84  1  0
 30 85  1  0
 31 86  1  0
 33 87  1  0
 33 88  1  0
 34 89  1  1
 35 90  1  0
 35 91  1  0
 36 92  1  0
 37 93  1  0
M  CHG  3   3   1  19   1  23   1
M  END
>  <UniqueID>  (16) 
15

>  <SMILES>  (16) 
CC[NH+](CC)CCCCN1CCCc2cc(CC[N@@+]3(C)CC[N@+]4(CC)Cc5ccccc5CC4C3)ccc21

>  <Energy>  (16) 
146.74795296769105

>  <Genealogy>  (16) 
CC[NH+](CC)CCCCN1CCCc2cc(CC[N+]3(C)CC[N+]4(CC)Cc5ccccc5CC4C3)ccc21 (protonated)
CC[NH+](CC)CCCCN1CCCc2cc(CC[N@@+]3(C)CC[N@+]4(CC)Cc5ccccc5CC4C3)ccc21 (chirality)
CC[NH+](CC)CCCCN1CCCc2cc(CC[N@@+]3(C)CC[N@+]4(CC)Cc5ccccc5CC4C3)ccc21 (3D coordinates assigned)
CC[NH+](CC)CCCCN1CCCc2cc(CC[N@@+]3(C)CC[N@+]4(CC)Cc5ccccc5CC4C3)ccc21 (nonaromatic ring conformer: 146.74795296769105 kcal/mol)

>  <smiles>  (16) 
CCN(CC)CCCCN1CCCc2cc(CC[N+]3(C)CC[N+]4(CC)Cc5ccccc5CC4C3)ccc21

>  <score_type>  (16) 
oracle

>  <origin>  (16) 
adg

>  <m_score__min__energy>  (16) 
-9.2799999999999994

>  <m_primary>  (16) 
energy

$$$$
16:0
     RDKit          3D

 63 65  0  0  0  0  0  0  0  0999 V2000
   -3.2630   21.5500  -29.4670 C   0  0  0  0  0  0  0  0  0  0  0  0
   -2.2290   20.7290  -30.2210 C   0  0  0  0  0  0  0  0  0  0  0  0
   -2.8330   20.1490  -31.3590 O   0  0  0  0  0  0  0  0  0  0  0  0
   -3.8350   21.0200  -31.8450 C   0  0  0  0  0  0  0  0  0  0  0  0
   -3.3950   21.6150  -33.1750 C   0  0  0  0  0  0  0  0  0  0  0  0
   -2.5380   20.7030  -33.8360 O   0  0  0  0  0  0  0  0  0  0  0  0
   -1.2070   21.1850  -33.8370 C   0  0  0  0  0  0  0  0  0  0  0  0
   -0.2320   20.0680  -33.4470 C   0  0  0  0  0  0  0  0  0  0  0  0
   -0.9240   19.0270  -32.6670 N   0  0  0  0  0  0  0  0  0  0  0  0
   -0.3080   17.6960  -32.8140 C   0  0  0  0  0  0  0  0  0  0  0  0
   -1.0700   16.7860  -33.7920 C   0  0  0  0  0  0  0  0  0  0  0  0
   -2.1910   17.4950  -34.3200 O   0  0  0  0  0  0  0  0  0  0  0  0
   -3.4960   17.4200  -33.8160 C   0  0  0  0  0  0  0  0  0  0  0  0
   -3.9680   16.2900  -33.0970 C   0  0  0  0  0  0  0  0  0  0  0  0
   -5.2610   16.2830  -32.5470 C   0  0  0  0  0  0  0  0  0  0  0  0
   -6.0850   17.3940  -32.7440 C   0  0  0  0  0  0  0  0  0  0  0  0
   -7.3650   17.5750  -32.2130 C   0  0  0  0  0  0  0  0  0  0  0  0
   -7.9010   18.8210  -32.5430 C   0  0  0  0  0  0  0  0  0  0  0  0
   -9.1630   19.3940  -31.9770 C   0  0  0  0  0  0  0  0  0  0  0  0
   -9.4150   20.7440  -32.5160 N   0  0  0  0  0  0  0  0  0  0  0  0
   -9.5080   21.7720  -31.4640 C   0  0  0  0  0  0  0  0  0  0  0  0
   -8.1750   22.4420  -31.2350 C   0  0  0  0  0  0  0  0  0  0  0  0
   -7.5880   22.4310  -29.9590 C   0  0  0  0  0  0  0  0  0  0  0  0
   -6.4020   23.1320  -29.7240 C   0  0  0  0  0  0  0  0  0  0  0  0
   -5.7760   23.8250  -30.7660 C   0  0  0  0  0  0  0  0  0  0  0  0
   -4.3040   24.7340  -30.4580 Cl  0  0  0  0  0  0  0  0  0  0  0  0
   -6.3270   23.7960  -32.0510 C   0  0  0  0  0  0  0  0  0  0  0  0
   -7.5200   23.1070  -32.2870 C   0  0  0  0  0  0  0  0  0  0  0  0
   -6.8080   19.6720  -33.5170 S   0  0  0  0  0  0  0  0  0  0  0  0
   -5.6320   18.4740  -33.4840 C   0  0  0  0  0  0  0  0  0  0  0  0
   -4.3470   18.5190  -34.0170 C   0  0  0  0  0  0  0  0  0  0  0  0
   -3.1096   21.4282  -28.3846 H   0  0  0  0  0  0  0  0  0  0  0  0
   -3.1553   22.6113  -29.7355 H   0  0  0  0  0  0  0  0  0  0  0  0
   -4.2722   21.2045  -29.7355 H   0  0  0  0  0  0  0  0  0  0  0  0
   -1.4010   21.3809  -30.5364 H   0  0  0  0  0  0  0  0  0  0  0  0
   -1.8392   19.9358  -29.5660 H   0  0  0  0  0  0  0  0  0  0  0  0
   -4.7703   20.4587  -31.9869 H   0  0  0  0  0  0  0  0  0  0  0  0
   -3.9975   21.8302  -31.1189 H   0  0  0  0  0  0  0  0  0  0  0  0
   -4.2786   21.8084  -33.8010 H   0  0  0  0  0  0  0  0  0  0  0  0
   -2.8601   22.5595  -32.9966 H   0  0  0  0  0  0  0  0  0  0  0  0
   -0.9550   21.5506  -34.8434 H   0  0  0  0  0  0  0  0  0  0  0  0
   -1.1236   22.0020  -33.1052 H   0  0  0  0  0  0  0  0  0  0  0  0
    0.1867   19.6182  -34.3594 H   0  0  0  0  0  0  0  0  0  0  0  0
    0.5725   20.4972  -32.8318 H   0  0  0  0  0  0  0  0  0  0  0  0
   -1.9310   18.9780  -32.9430 H   0  0  0  0  0  0  0  0  0  0  0  0
   -0.8690   19.2820  -31.6540 H   0  0  0  0  0  0  0  0  0  0  0  0
    0.7202   17.8244  -33.1833 H   0  0  0  0  0  0  0  0  0  0  0  0
   -0.3321   17.2114  -31.8268 H   0  0  0  0  0  0  0  0  0  0  0  0
   -0.4022   16.4895  -34.6143 H   0  0  0  0  0  0  0  0  0  0  0  0
   -1.4185   15.8866  -33.2632 H   0  0  0  0  0  0  0  0  0  0  0  0
   -3.3162   15.4131  -32.9696 H   0  0  0  0  0  0  0  0  0  0  0  0
   -5.6186   15.4170  -31.9707 H   0  0  0  0  0  0  0  0  0  0  0  0
   -7.8894   16.8228  -31.6054 H   0  0  0  0  0  0  0  0  0  0  0  0
  -10.0061   18.7380  -32.2395 H   0  0  0  0  0  0  0  0  0  0  0  0
   -9.0581   19.4652  -30.8843 H   0  0  0  0  0  0  0  0  0  0  0  0
  -10.3450   20.7100  -32.9970 H   0  0  0  0  0  0  0  0  0  0  0  0
  -10.2434   22.5312  -31.7685 H   0  0  0  0  0  0  0  0  0  0  0  0
   -9.8179   21.2847  -30.5278 H   0  0  0  0  0  0  0  0  0  0  0  0
   -8.0634   21.8687  -29.1418 H   0  0  0  0  0  0  0  0  0  0  0  0
   -5.9594   23.1390  -28.7170 H   0  0  0  0  0  0  0  0  0  0  0  0
   -5.8207   24.3163  -32.8774 H   0  0  0  0  0  0  0  0  0  0  0  0
   -7.9484   23.0848  -33.2999 H   0  0  0  0  0  0  0  0  0  0  0  0
   -4.0050   19.3974  -34.5840 H   0  0  0  0  0  0  0  0  0  0  0  0
  1  2  1  0
  2  3  1  0
  3  4  1  0
  4  5  1  0
  5  6  1  0
  6  7  1  0
  7  8  1  0
  8  9  1  0
  9 10  1  0
 10 11  1  0
 11 12  1  0
 12 13  1  0
 13 14  2  0
 14 15  1  0
 15 16  2  0
 16 17  1  0
 17 18  2  0
 18 19  1  0
 19 20  1  0
 20 21  1  0
 21 22  1  0
 22 23  2  0
 23 24  1  0
 24 25  2  0
 25 26  1  0
 25 27  1  0
 27 28  2  0
 18 29  1  0
 29 30  1  0
 30 31  2  0
 31 13  1  0
 30 16  1  0
 28 22  1  0
  1 32  1  0
  1 33  1  0
  1 34  1  0
  2 35  1  0
  2 36  1  0
  4 37  1  0
  4 38  1  0
  5 39  1  0
  5 40  1  0
  7 41  1  0
  7 42  1  0
  8 43  1  0
  8 44  1  0
  9 45  1  0
  9 46  1  0
 10 47  1  0
 10 48  1  0
 11 49  1  0
 11 50  1  0
 14 51  1  0
 15 52  1  0
 17 53  1  0
 19 54  1  0
 19 55  1  0
 20 56  1  0
 21 57  1  0
 21 58  1  0
 23 59  1  0
 24 60  1  0
 27 61  1  0
 28 62  1  0
 31 63  1  0
M  CHG  1   9   1
M  END
>  <UniqueID>  (17) 
16

>  <SMILES>  (17) 
CCOCCOCC[NH2+]CCOc1ccc2cc(CNCc3ccc(Cl)cc3)sc2c1

>  <Energy>  (17) 
83.18506327892777

>  <Genealogy>  (17) 
CCOCCOCC[NH2+]CCOc1ccc2cc(CNCc3ccc(Cl)cc3)sc2c1 (protonated)
CCOCCOCC[NH2+]CCOc1ccc2cc(CNCc3ccc(Cl)cc3)sc2c1 (3D coordinates assigned)
CCOCCOCC[NH2+]CCOc1ccc2cc(CNCc3ccc(Cl)cc3)sc2c1 (optimized conformer: 83.18506327892777 kcal/mol)

>  <smiles>  (17) 
CCOCCOCCNCCOc1ccc2cc(CNCc3ccc(Cl)cc3)sc2c1

>  <score_type>  (17) 
oracle

>  <origin>  (17) 
adg

>  <m_score__min__energy>  (17) 
-7.3200000000000003

>  <m_primary>  (17) 
energy

$$$$
17:0
     RDKit          3D

 40 43  0  0  0  0  0  0  0  0999 V2000
   -6.4860   25.6750  -29.3330 C   0  0  0  0  0  0  0  0  0  0  0  0
   -5.5740   25.5570  -30.5480 C   0  0  0  0  0  0  0  0  0  0  0  0
   -5.4750   24.1300  -30.9960 C   0  0  0  0  0  0  0  0  0  0  0  0
   -4.2390   23.5560  -31.1540 N   0  0  0  0  0  0  0  0  0  0  0  0
   -4.0810   22.2700  -31.5900 C   0  0  0  0  0  0  0  0  0  0  0  0
   -2.7220   21.7120  -31.7470 C   0  0  0  0  0  0  0  0  0  0  0  0
   -1.9800   21.2930  -30.6320 C   0  0  0  0  0  0  0  0  0  0  0  0
   -0.7060   20.7450  -30.7960 C   0  0  0  0  0  0  0  0  0  0  0  0
   -0.1530   20.5960  -32.0780 C   0  0  0  0  0  0  0  0  0  0  0  0
    1.2180   20.0030  -32.2380 C   0  0  0  0  0  0  0  0  0  0  0  0
   -0.9060   20.9940  -33.2020 C   0  0  0  0  0  0  0  0  0  0  0  0
   -0.2290   20.8050  -34.9870 Br  0  0  0  0  0  0  0  0  0  0  0  0
   -2.1820   21.5410  -33.0310 C   0  0  0  0  0  0  0  0  0  0  0  0
   -5.2420   21.5410  -31.8670 C   0  0  0  0  0  0  0  0  0  0  0  0
   -5.3750   20.2440  -32.2320 N   0  0  0  0  0  0  0  0  0  0  0  0
   -6.7110   20.0490  -32.3220 C   0  0  0  0  0  0  0  0  0  0  0  0
   -7.3680   18.8650  -32.6560 C   0  0  0  0  0  0  0  0  0  0  0  0
   -8.7760   18.8740  -32.6710 C   0  0  0  0  0  0  0  0  0  0  0  0
   -9.4920   20.0500  -32.3520 C   0  0  0  0  0  0  0  0  0  0  0  0
   -8.8090   21.2330  -32.0120 C   0  0  0  0  0  0  0  0  0  0  0  0
   -7.4170   21.1950  -32.0120 C   0  0  0  0  0  0  0  0  0  0  0  0
   -6.4660   22.1400  -31.7160 C   0  0  0  0  0  0  0  0  0  0  0  0
   -6.6070   23.4190  -31.2920 N   0  0  0  0  0  0  0  0  0  0  0  0
   -5.8854   25.5973  -28.4148 H   0  0  0  0  0  0  0  0  0  0  0  0
   -7.0003   26.6472  -29.3536 H   0  0  0  0  0  0  0  0  0  0  0  0
   -7.2308   24.8657  -29.3536 H   0  0  0  0  0  0  0  0  0  0  0  0
   -5.9831   26.1658  -31.3677 H   0  0  0  0  0  0  0  0  0  0  0  0
   -4.5700   25.9134  -30.2741 H   0  0  0  0  0  0  0  0  0  0  0  0
   -2.4045   21.3969  -29.6225 H   0  0  0  0  0  0  0  0  0  0  0  0
   -0.1310   20.4275  -29.9136 H   0  0  0  0  0  0  0  0  0  0  0  0
    1.6540   19.8144  -31.2459 H   0  0  0  0  0  0  0  0  0  0  0  0
    1.1454   19.0559  -32.7926 H   0  0  0  0  0  0  0  0  0  0  0  0
    1.8585   20.7045  -32.7926 H   0  0  0  0  0  0  0  0  0  0  0  0
   -2.7684   21.8403  -33.9123 H   0  0  0  0  0  0  0  0  0  0  0  0
   -4.6260   19.5310  -32.3760 H   0  0  0  0  0  0  0  0  0  0  0  0
   -6.8040   17.9527  -32.9001 H   0  0  0  0  0  0  0  0  0  0  0  0
   -9.3239   17.9570  -32.9335 H   0  0  0  0  0  0  0  0  0  0  0  0
  -10.5918   20.0408  -32.3695 H   0  0  0  0  0  0  0  0  0  0  0  0
   -9.3546   22.1532  -31.7559 H   0  0  0  0  0  0  0  0  0  0  0  0
   -7.5550   23.8440  -31.1830 H   0  0  0  0  0  0  0  0  0  0  0  0
  1  2  1  0
  2  3  1  0
  3  4  2  0
  4  5  1  0
  5  6  1  0
  6  7  2  0
  7  8  1  0
  8  9  2  0
  9 10  1  0
  9 11  1  0
 11 12  1  0
 11 13  2  0
  5 14  2  0
 14 15  1  0
 15 16  1  0
 16 17  2  0
 17 18  1  0
 18 19  2  0
 19 20  1  0
 20 21  2  0
 21 22  1  0
 22 23  2  0
 23  3  1  0
 13  6  1  0
 22 14  1  0
 21 16  1  0
  1 24  1  0
  1 25  1  0
  1 26  1  0
  2 27  1  0
  2 28  1  0
  7 29  1  0
  8 30  1  0
 10 31  1  0
 10 32  1  0
 10 33  1  0
 13 34  1  0
 15 35  1  0
 17 36  1  0
 18 37  1  0
 19 38  1  0
 20 39  1  0
 23 40  1  0
M  CHG  1  23   1
M  END
>  <UniqueID>  (18) 
17

>  <SMILES>  (18) 
CCc1nc(-c2ccc(C)c(Br)c2)c2[nH]c3ccccc3c2[nH+]1

>  <Energy>  (18) 
89.17535456794555

>  <Genealogy>  (18) 
CCc1nc(-c2ccc(C)c(Br)c2)c2[nH]c3ccccc3c2[nH+]1 (protonated)
CCc1nc(-c2ccc(C)c(Br)c2)c2[nH]c3ccccc3c2[nH+]1 (3D coordinates assigned)
CCc1nc(-c2ccc(C)c(Br)c2)c2[nH]c3ccccc3c2[nH+]1 (optimized conformer: 89.17535456794555 kcal/mol)

>  <smiles>  (18) 
CCc1nc(-c2ccc(C)c(Br)c2)c2[nH]c3ccccc3c2n1

>  <score_type>  (18) 
oracle

>  <origin>  (18) 
adg

>  <m_score__min__energy>  (18) 
-8

>  <m_primary>  (18) 
energy

$$$$
18:0
     RDKit          3D

 41 41  0  0  0  0  0  0  0  0999 V2000
   -6.1270   24.9070  -29.7220 C   0  0  0  0  0  0  0  0  0  0  0  0
   -5.2040   25.6480  -30.6830 C   0  0  0  0  0  0  0  0  0  0  0  0
   -3.8610   25.2520  -30.4780 O   0  0  0  0  0  0  0  0  0  0  0  0
   -3.7900   24.2160  -29.5190 C   0  0  0  0  0  0  0  0  0  0  0  0
   -3.0020   23.0370  -30.0900 C   0  0  0  0  0  0  0  0  0  0  0  0
   -3.4410   22.6980  -31.5210 C   0  0  0  0  0  0  0  0  0  0  0  0
   -4.5360   21.7300  -31.4990 N   0  0  0  0  0  0  0  0  0  0  0  0
   -5.8780   22.0830  -31.8760 C   0  0  0  0  0  0  0  0  0  0  0  0
   -6.1080   23.2260  -32.3610 O   0  0  0  0  0  0  0  0  0  0  0  0
   -7.0480   21.1470  -31.6610 C   0  0  1  0  0  0  0  0  0  0  0  0
   -8.4190   21.7860  -31.9810 C   0  0  0  0  0  0  0  0  0  0  0  0
   -9.4140   21.6110  -30.8330 C   0  0  0  0  0  0  0  0  0  0  0  0
   -6.8330   19.8460  -32.4210 C   0  0  0  0  0  0  0  0  0  0  0  0
   -5.9600   19.8290  -33.5260 C   0  0  0  0  0  0  0  0  0  0  0  0
   -5.7390   18.6460  -34.2370 C   0  0  0  0  0  0  0  0  0  0  0  0
   -6.3820   17.4690  -33.8570 C   0  0  0  0  0  0  0  0  0  0  0  0
   -7.2490   17.4690  -32.7620 C   0  0  0  0  0  0  0  0  0  0  0  0
   -7.4760   18.6460  -32.0430 C   0  0  0  0  0  0  0  0  0  0  0  0
   -8.3220   18.6070  -30.9840 F   0  0  0  0  0  0  0  0  0  0  0  0
   -5.8392   25.1380  -28.6858 H   0  0  0  0  0  0  0  0  0  0  0  0
   -7.1661   25.2245  -29.8935 H   0  0  0  0  0  0  0  0  0  0  0  0
   -6.0416   23.8238  -29.8935 H   0  0  0  0  0  0  0  0  0  0  0  0
   -5.4965   25.4168  -31.7179 H   0  0  0  0  0  0  0  0  0  0  0  0
   -5.2901   26.7292  -30.4995 H   0  0  0  0  0  0  0  0  0  0  0  0
   -3.2862   24.5887  -28.6150 H   0  0  0  0  0  0  0  0  0  0  0  0
   -4.8078   23.8847  -29.2653 H   0  0  0  0  0  0  0  0  0  0  0  0
   -1.9324   23.2936  -30.0970 H   0  0  0  0  0  0  0  0  0  0  0  0
   -3.1936   22.1585  -29.4563 H   0  0  0  0  0  0  0  0  0  0  0  0
   -3.7781   23.6161  -32.0244 H   0  0  0  0  0  0  0  0  0  0  0  0
   -2.5888   22.2625  -32.0634 H   0  0  0  0  0  0  0  0  0  0  0  0
   -4.3070   20.7530  -31.2150 H   0  0  0  0  0  0  0  0  0  0  0  0
   -7.0828   20.9226  -30.5847 H   0  0  0  0  0  0  0  0  0  0  0  0
   -8.2755   22.8608  -32.1659 H   0  0  0  0  0  0  0  0  0  0  0  0
   -8.8306   21.2814  -32.8676 H   0  0  0  0  0  0  0  0  0  0  0  0
   -8.8858   21.7039  -29.8726 H   0  0  0  0  0  0  0  0  0  0  0  0
  -10.1915   22.3862  -30.9003 H   0  0  0  0  0  0  0  0  0  0  0  0
   -9.8804   20.6170  -30.9003 H   0  0  0  0  0  0  0  0  0  0  0  0
   -5.4483   20.7535  -33.8318 H   0  0  0  0  0  0  0  0  0  0  0  0
   -5.0556   18.6438  -35.0990 H   0  0  0  0  0  0  0  0  0  0  0  0
   -6.2066   16.5402  -34.4196 H   0  0  0  0  0  0  0  0  0  0  0  0
   -7.7553   16.5389  -32.4642 H   0  0  0  0  0  0  0  0  0  0  0  0
  1  2  1  0
  2  3  1  0
  3  4  1  0
  4  5  1  0
  5  6  1  0
  6  7  1  0
  7  8  1  0
  8  9  2  0
  8 10  1  0
 10 11  1  0
 11 12  1  0
 10 13  1  0
 13 14  2  0
 14 15  1  0
 15 16  2  0
 16 17  1  0
 17 18  2  0
 18 19  1  0
 18 13  1  0
  1 20  1  0
  1 21  1  0
  1 22  1  0
  2 23  1  0
  2 24  1  0
  4 25  1  0
  4 26  1  0
  5 27  1  0
  5 28  1  0
  6 29  1  0
  6 30  1  0
  7 31  1  0
 10 32  1  1
 11 33  1  0
 11 34  1  0
 12 35  1  0
 12 36  1  0
 12 37  1  0
 14 38  1  0
 15 39  1  0
 16 40  1  0
 17 41  1  0
M  END
>  <UniqueID>  (19) 
18

>  <SMILES>  (19) 
CCOCCCNC(=O)[C@@H](CC)c1ccccc1F

>  <Energy>  (19) 
30.245301702393952

>  <Genealogy>  (19) 
CCOCCCNC(=O)[C@@H](CC)c1ccccc1F (chirality)
CCOCCCNC(=O)[C@@H](CC)c1ccccc1F (3D coordinates assigned)
CCOCCCNC(=O)[C@@H](CC)c1ccccc1F (optimized conformer: 30.245301702393952 kcal/mol)

>  <smiles>  (19) 
CCOCCCNC(=O)C(CC)c1ccccc1F

>  <score_type>  (19) 
oracle

>  <origin>  (19) 
adg

>  <m_score__min__energy>  (19) 
-7

>  <m_primary>  (19) 
energy

$$$$
19:0
     RDKit          3D

 56 57  0  0  0  0  0  0  0  0999 V2000
   -2.7960   16.6120  -35.8740 H   0  0  0  0  0  0  0  0  0  0  0  0
   -3.3710   16.8640  -35.1080 O   0  0  0  0  0  0  0  0  0  0  0  0
   -4.5400   17.4180  -35.6470 C   0  0  0  0  0  0  0  0  0  0  0  0
   -5.2154   16.6061  -35.9546 H   0  0  0  0  0  0  0  0  0  0  0  0
   -4.2692   18.0393  -36.5134 H   0  0  0  0  0  0  0  0  0  0  0  0
   -5.2510   18.2990  -34.6130 C   0  0  0  0  0  0  0  0  0  0  0  0
   -6.3300   18.0876  -34.6464 H   0  0  0  0  0  0  0  0  0  0  0  0
   -5.0472   19.3511  -34.8613 H   0  0  0  0  0  0  0  0  0  0  0  0
   -4.7500   18.0420  -33.2290 N   0  0  2  0  0  0  0  0  0  0  0  0
   -3.8950   17.4410  -33.2990 H   0  0  0  0  0  0  0  0  0  0  0  0
   -5.7520   17.2860  -32.4170 C   0  0  0  0  0  0  0  0  0  0  0  0
   -5.2690   16.3676  -32.0518 H   0  0  0  0  0  0  0  0  0  0  0  0
   -6.6058   17.1016  -33.0855 H   0  0  0  0  0  0  0  0  0  0  0  0
   -6.3280   18.0470  -31.1870 C   0  0  0  0  0  0  0  0  0  0  0  0
   -5.6113   17.9506  -30.3581 H   0  0  0  0  0  0  0  0  0  0  0  0
   -7.3052   17.5912  -30.9696 H   0  0  0  0  0  0  0  0  0  0  0  0
   -6.5820   19.4990  -31.4150 N   0  0  0  0  0  0  0  0  0  0  0  0
   -8.0240   19.8830  -31.6430 C   0  0  0  0  0  0  0  0  0  0  0  0
   -9.0090   18.7650  -31.2130 C   0  0  0  0  0  0  0  0  0  0  0  0
   -9.0518   18.7164  -30.1149 H   0  0  0  0  0  0  0  0  0  0  0  0
  -10.0108   18.9865  -31.6095 H   0  0  0  0  0  0  0  0  0  0  0  0
   -8.6630   17.7991  -31.6095 H   0  0  0  0  0  0  0  0  0  0  0  0
   -8.2700   20.1080  -33.1580 C   0  0  0  0  0  0  0  0  0  0  0  0
   -9.0755   20.8448  -33.2932 H   0  0  0  0  0  0  0  0  0  0  0  0
   -7.3483   20.4821  -33.6275 H   0  0  0  0  0  0  0  0  0  0  0  0
   -8.5606   19.1566  -33.6275 H   0  0  0  0  0  0  0  0  0  0  0  0
   -8.4110   21.1640  -30.8720 C   0  0  0  0  0  0  0  0  0  0  0  0
   -8.3532   20.9725  -29.7903 H   0  0  0  0  0  0  0  0  0  0  0  0
   -7.7180   21.9757  -31.1383 H   0  0  0  0  0  0  0  0  0  0  0  0
   -9.4375   21.4562  -31.1383 H   0  0  0  0  0  0  0  0  0  0  0  0
   -5.5250   20.1990  -32.2150 C   0  0  1  0  0  0  0  0  0  0  0  0
   -5.9781   20.4832  -33.1762 H   0  0  0  0  0  0  0  0  0  0  0  0
   -5.0350   21.5120  -31.4890 C   0  0  2  0  0  0  0  0  0  0  0  0
   -5.6567   21.5727  -30.5836 H   0  0  0  0  0  0  0  0  0  0  0  0
   -5.2470   22.7410  -32.3500 C   0  0  0  0  0  0  0  0  0  0  0  0
   -5.2265   22.6357  -33.4448 H   0  0  0  0  0  0  0  0  0  0  0  0
   -5.4520   23.9140  -31.8340 N   0  0  0  0  0  0  0  0  0  0  0  0
   -4.6110   24.4400  -30.8760 O   0  0  0  0  0  0  0  0  0  0  0  0
   -5.0420   24.5710  -29.5310 C   0  0  0  0  0  0  0  0  0  0  0  0
   -4.1947   24.8890  -28.9058 H   0  0  0  0  0  0  0  0  0  0  0  0
   -5.4224   23.6017  -29.1765 H   0  0  0  0  0  0  0  0  0  0  0  0
   -6.1490   25.6050  -29.4420 C   0  0  0  0  0  0  0  0  0  0  0  0
   -6.3720   25.8133  -28.3852 H   0  0  0  0  0  0  0  0  0  0  0  0
   -5.8256   26.5320  -29.9381 H   0  0  0  0  0  0  0  0  0  0  0  0
   -7.0518   25.2193  -29.9381 H   0  0  0  0  0  0  0  0  0  0  0  0
   -3.5550   21.4680  -31.0380 C   0  0  0  0  0  0  0  0  0  0  0  0
   -3.2744   22.4619  -30.6594 H   0  0  0  0  0  0  0  0  0  0  0  0
   -3.4709   20.6935  -30.2614 H   0  0  0  0  0  0  0  0  0  0  0  0
   -2.5850   21.0840  -32.1810 C   0  0  0  0  0  0  0  0  0  0  0  0
   -2.3380   21.9940  -32.7474 H   0  0  0  0  0  0  0  0  0  0  0  0
   -1.7002   20.6284  -31.7125 H   0  0  0  0  0  0  0  0  0  0  0  0
   -3.1640   20.0410  -33.1620 C   0  0  0  0  0  0  0  0  0  0  0  0
   -3.5377   20.5565  -34.0590 H   0  0  0  0  0  0  0  0  0  0  0  0
   -2.3695   19.3309  -33.4351 H   0  0  0  0  0  0  0  0  0  0  0  0
   -4.3230   19.2630  -32.5040 C   0  0  2  0  0  0  0  0  0  0  0  0
   -3.9154   18.8917  -31.5521 H   0  0  0  0  0  0  0  0  0  0  0  0
  1  2  1  0
  2  3  1  0
  3  4  1  0
  3  5  1  0
  3  6  1  0
  6  7  1  0
  6  8  1  0
  6  9  1  0
  9 10  1  6
  9 11  1  0
 11 12  1  0
 11 13  1  0
 11 14  1  0
 14 15  1  0
 14 16  1  0
 14 17  1  0
 17 18  1  0
 18 19  1  0
 19 20  1  0
 19 21  1  0
 19 22  1  0
 18 23  1  0
 23 24  1  0
 23 25  1  0
 23 26  1  0
 18 27  1  0
 27 28  1  0
 27 29  1  0
 27 30  1  0
 17 31  1  0
 31 32  1  6
 31 33  1  0
 33 34  1  1
 33 35  1  0
 35 36  1  0
 35 37  2  0
 37 38  1  0
 38 39  1  0
 39 40  1  0
 39 41  1  0
 39 42  1  0
 42 43  1  0
 42 44  1  0
 42 45  1  0
 33 46  1  0
 46 47  1  0
 46 48  1  0
 46 49  1  0
 49 50  1  0
 49 51  1  0
 49 52  1  0
 52 53  1  0
 52 54  1  0
 52 55  1  0
 55 56  1  1
 55  9  1  0
 55 31  1  0
M  CHG  1   9   1
M  END
>  <UniqueID>  (20) 
19

>  <SMILES>  (20) 
CCO/N=C\[C@@H]1CCC[C@H]2C1N(C(C)(C)C)CC[NH+]2CCO

>  <Energy>  (20) 
86.14631769596205

>  <Genealogy>  (20) 
CCON=CC1CCCC2C1N(C(C)(C)C)CC[NH+]2CCO (protonated)
CCON=C[C@@H]1CCC[C@H]2C1N(C(C)(C)C)CC[NH+]2CCO (chirality)
CCO/N=C\[C@@H]1CCC[C@H]2C1N(C(C)(C)C)CC[NH+]2CCO (cis-trans isomerization)
CCO/N=C\[C@@H]1CCC[C@H]2C1N(C(C)(C)C)CC[NH+]2CCO (3D coordinates assigned)
CCO/N=C\[C@@H]1CCC[C@H]2C1N(C(C)(C)C)CC[NH+]2CCO (nonaromatic ring conformer: 86.14631769596205 kcal/mol)

>  <smiles>  (20) 
CCON=CC1CCCC2C1N(C(C)(C)C)CCN2CCO

>  <score_type>  (20) 
oracle

>  <origin>  (20) 
adg

>  <m_score__min__energy>  (20) 
-6.7300000000000004

>  <m_primary>  (20) 
energy

$$$$
20:0
     RDKit          3D

 35 36  0  0  0  0  0  0  0  0999 V2000
   -4.1268   21.7028  -33.0268 H   0  0  0  0  0  0  0  0  0  0  0  0
   -5.0540   21.1210  -32.9180 C   0  0  0  0  0  0  0  0  0  0  0  0
   -5.0840   19.7950  -33.3450 C   0  0  0  0  0  0  0  0  0  0  0  0
   -3.9140   19.2460  -33.8950 O   0  0  0  0  0  0  0  0  0  0  0  0
   -2.6070   19.7750  -33.6980 C   0  0  0  0  0  0  0  0  0  0  0  0
   -2.4034   19.8574  -32.6202 H   0  0  0  0  0  0  0  0  0  0  0  0
   -1.8669   19.1056  -34.1608 H   0  0  0  0  0  0  0  0  0  0  0  0
   -2.5408   20.7707  -34.1608 H   0  0  0  0  0  0  0  0  0  0  0  0
   -6.2690   19.0560  -33.2110 C   0  0  0  0  0  0  0  0  0  0  0  0
   -6.2929   18.0051  -33.5350 H   0  0  0  0  0  0  0  0  0  0  0  0
   -7.4220   19.6390  -32.6700 C   0  0  0  0  0  0  0  0  0  0  0  0
   -8.6050   18.8370  -32.5560 N   0  0  0  0  0  0  0  0  0  0  0  0
   -8.6350   17.8840  -31.7510 O   0  0  0  0  0  0  0  0  0  0  0  0
   -9.7900   19.3030  -33.0760 O   0  0  0  0  0  0  0  0  0  0  0  0
   -7.3940   20.9910  -32.2400 C   0  0  0  0  0  0  0  0  0  0  0  0
   -6.1890   21.7290  -32.3500 C   0  0  0  0  0  0  0  0  0  0  0  0
   -6.1200   23.1350  -31.8620 C   0  0  0  0  0  0  0  0  0  0  0  0
   -4.9960   23.7850  -31.9210 N   0  0  0  0  0  0  0  0  0  0  0  0
   -4.4860   24.4730  -30.8430 O   0  0  0  0  0  0  0  0  0  0  0  0
   -3.7390   23.7930  -29.8460 C   0  0  0  0  0  0  0  0  0  0  0  0
   -2.8546   24.3907  -29.5805 H   0  0  0  0  0  0  0  0  0  0  0  0
   -3.4205   22.8141  -30.2337 H   0  0  0  0  0  0  0  0  0  0  0  0
   -4.6000   23.5890  -28.6110 C   0  0  0  0  0  0  0  0  0  0  0  0
   -3.9875   23.7341  -27.7089 H   0  0  0  0  0  0  0  0  0  0  0  0
   -5.4250   24.3165  -28.6149 H   0  0  0  0  0  0  0  0  0  0  0  0
   -5.0109   22.5686  -28.6149 H   0  0  0  0  0  0  0  0  0  0  0  0
   -7.3270   23.7650  -31.2070 C   0  0  0  0  0  0  0  0  0  0  0  0
   -7.2566   23.6286  -30.1178 H   0  0  0  0  0  0  0  0  0  0  0  0
   -7.3444   24.8347  -31.4627 H   0  0  0  0  0  0  0  0  0  0  0  0
   -8.6210   23.1260  -31.7070 C   0  0  0  0  0  0  0  0  0  0  0  0
   -9.4683   23.5349  -31.1370 H   0  0  0  0  0  0  0  0  0  0  0  0
   -8.7336   23.3517  -32.7777 H   0  0  0  0  0  0  0  0  0  0  0  0
   -8.5840   21.6080  -31.5290 C   0  0  0  0  0  0  0  0  0  0  0  0
   -8.5182   21.3759  -30.4558 H   0  0  0  0  0  0  0  0  0  0  0  0
   -9.5018   21.1879  -31.9663 H   0  0  0  0  0  0  0  0  0  0  0  0
  1  2  1  0
  2  3  2  0
  3  4  1  0
  4  5  1  0
  5  6  1  0
  5  7  1  0
  5  8  1  0
  3  9  1  0
  9 10  1  0
  9 11  2  0
 11 12  1  0
 12 13  2  0
 12 14  1  0
 11 15  1  0
 15 16  2  0
 16 17  1  0
 17 18  2  0
 18 19  1  0
 19 20  1  0
 20 21  1  0
 20 22  1  0
 20 23  1  0
 23 24  1  0
 23 25  1  0
 23 26  1  0
 17 27  1  0
 27 28  1  0
 27 29  1  0
 27 30  1  0
 30 31  1  0
 30 32  1  0
 30 33  1  0
 33 34  1  0
 33 35  1  0
 16  2  1  0
 33 15  1  0
M  CHG  2  12   1  14  -1
M  END
>  <UniqueID>  (21) 
20

>  <SMILES>  (21) 
CCO/N=C1\CCCc2c1cc(OC)cc2[N+](=O)[O-]

>  <Energy>  (21) 
35.56046444963043

>  <Genealogy>  (21) 
CCO/N=C1\CCCc2c1cc(OC)cc2[N+](=O)[O-] (cis-trans isomerization)
CCO/N=C1\CCCc2c1cc(OC)cc2[N+](=O)[O-] (3D coordinates assigned)
CCO/N=C1\CCCc2c1cc(OC)cc2[N+](=O)[O-] (nonaromatic ring conformer: 35.56046444963043 kcal/mol)

>  <smiles>  (21) 
CCON=C1CCCc2c1cc(OC)cc2[N+](=O)[O-]

>  <score_type>  (21) 
oracle

>  <origin>  (21) 
adg

>  <m_score__min__energy>  (21) 
-7.5300000000000002

>  <m_primary>  (21) 
energy

$$$$
