0:0
     RDKit          3D

 55 56  0  0  0  0  0  0  0  0999 V2000
   -8.6290   21.9410  -31.5720 C   0  0  0  0  0  0  0  0  0  0  0  0
   -7.2180   22.2720  -32.0180 C   0  0  0  0  0  0  0  0  0  0  0  0
   -6.9050   23.7320  -31.7190 C   0  0  0  0  0  0  0  0  0  0  0  0
   -6.4440   23.7980  -30.3010 C   0  0  0  0  0  0  0  0  0  0  0  0
   -5.4900   24.9220  -30.0230 C   0  0  0  0  0  0  0  0  0  0  0  0
   -4.3550   24.9200  -30.8360 O   0  0  0  0  0  0  0  0  0  0  0  0
   -3.5140   23.8120  -30.7700 C   0  0  0  0  0  0  0  0  0  0  0  0
   -3.6620   22.7320  -31.6140 C   0  0  0  0  0  0  0  0  0  0  0  0
   -2.8080   21.6270  -31.5360 C   0  0  0  0  0  0  0  0  0  0  0  0
   -3.0750   20.5310  -32.5030 C   0  0  0  0  0  0  0  0  0  0  0  0
   -4.4530   20.1850  -32.6050 N   0  0  0  0  0  0  0  0  0  0  0  0
   -5.0620   19.7600  -31.3860 C   0  0  0  0  0  0  0  0  0  0  0  0
   -6.1720   18.7600  -31.5830 C   0  0  0  0  0  0  0  0  0  0  0  0
   -6.8710   18.8570  -32.8200 N   0  0  0  0  0  0  0  0  0  0  0  0
   -7.5080   17.5500  -33.0380 C   0  0  0  0  0  0  0  0  0  0  0  0
   -6.0910   19.1610  -33.9740 C   0  0  0  0  0  0  0  0  0  0  0  0
   -4.6280   19.1380  -33.5880 C   0  0  0  0  0  0  0  0  0  0  0  0
   -1.7920   21.5900  -30.6060 C   0  0  0  0  0  0  0  0  0  0  0  0
   -1.6460   22.6750  -29.7610 C   0  0  0  0  0  0  0  0  0  0  0  0
   -2.4880   23.7700  -29.8350 C   0  0  0  0  0  0  0  0  0  0  0  0
   -2.3660   24.8730  -29.0010 O   0  0  0  0  0  0  0  0  0  0  0  0
   -2.4560   24.8010  -27.6000 C   0  0  0  0  0  0  0  0  0  0  0  0
   -3.7860   24.2150  -27.1610 C   0  0  0  0  0  0  0  0  0  0  0  0
   -8.6732   21.9306  -30.4729 H   0  0  0  0  0  0  0  0  0  0  0  0
   -9.3238   22.7005  -31.9598 H   0  0  0  0  0  0  0  0  0  0  0  0
   -8.9135   20.9517  -31.9598 H   0  0  0  0  0  0  0  0  0  0  0  0
   -6.5058   21.6293  -31.4797 H   0  0  0  0  0  0  0  0  0  0  0  0
   -7.1323   22.0993  -33.1010 H   0  0  0  0  0  0  0  0  0  0  0  0
   -6.1128   24.0938  -32.3910 H   0  0  0  0  0  0  0  0  0  0  0  0
   -7.7926   24.3632  -31.8730 H   0  0  0  0  0  0  0  0  0  0  0  0
   -7.3258   23.9248  -29.6558 H   0  0  0  0  0  0  0  0  0  0  0  0
   -5.9025   22.8623  -30.0977 H   0  0  0  0  0  0  0  0  0  0  0  0
   -6.0223   25.8726  -30.1750 H   0  0  0  0  0  0  0  0  0  0  0  0
   -5.1396   24.7924  -28.9884 H   0  0  0  0  0  0  0  0  0  0  0  0
   -4.4673   22.7394  -32.3633 H   0  0  0  0  0  0  0  0  0  0  0  0
   -2.7216   20.8485  -33.4951 H   0  0  0  0  0  0  0  0  0  0  0  0
   -2.5445   19.6400  -32.1360 H   0  0  0  0  0  0  0  0  0  0  0  0
   -4.2887   19.3010  -30.7525 H   0  0  0  0  0  0  0  0  0  0  0  0
   -5.5091   20.6509  -30.9209 H   0  0  0  0  0  0  0  0  0  0  0  0
   -5.7359   17.7522  -31.5181 H   0  0  0  0  0  0  0  0  0  0  0  0
   -6.9136   18.9730  -30.7990 H   0  0  0  0  0  0  0  0  0  0  0  0
   -7.7342   17.0858  -32.0667 H   0  0  0  0  0  0  0  0  0  0  0  0
   -8.4405   17.6866  -33.6052 H   0  0  0  0  0  0  0  0  0  0  0  0
   -6.8258   16.8997  -33.6052 H   0  0  0  0  0  0  0  0  0  0  0  0
   -6.2795   18.4114  -34.7567 H   0  0  0  0  0  0  0  0  0  0  0  0
   -6.3622   20.1549  -34.3596 H   0  0  0  0  0  0  0  0  0  0  0  0
   -4.3629   18.1616  -33.1563 H   0  0  0  0  0  0  0  0  0  0  0  0
   -3.9803   19.2973  -34.4627 H   0  0  0  0  0  0  0  0  0  0  0  0
   -1.1175   20.7238  -30.5377 H   0  0  0  0  0  0  0  0  0  0  0  0
   -0.8407   22.6671  -29.0118 H   0  0  0  0  0  0  0  0  0  0  0  0
   -1.6421   24.1654  -27.2210 H   0  0  0  0  0  0  0  0  0  0  0  0
   -2.3755   25.8204  -27.1945 H   0  0  0  0  0  0  0  0  0  0  0  0
   -3.8328   24.1944  -26.0622 H   0  0  0  0  0  0  0  0  0  0  0  0
   -4.6066   24.8349  -27.5514 H   0  0  0  0  0  0  0  0  0  0  0  0
   -3.8823   23.1911  -27.5514 H   0  0  0  0  0  0  0  0  0  0  0  0
  1  2  1  0
  2  3  1  0
  3  4  1  0
  4  5  1  0
  5  6  1  0
  6  7  1  0
  7  8  2  0
  8  9  1  0
  9 10  1  0
 10 11  1  0
 11 12  1  0
 12 13  1  0
 13 14  1  0
 14 15  1  0
 14 16  1  0
 16 17  1  0
  9 18  2  0
 18 19  1  0
 19 20  2  0
 20 21  1  0
 21 22  1  0
 22 23  1  0
 20  7  1  0
 17 11  1  0
  1 24  1  0
  1 25  1  0
  1 26  1  0
  2 27  1  0
  2 28  1  0
  3 29  1  0
  3 30  1  0
  4 31  1  0
  4 32  1  0
  5 33  1  0
  5 34  1  0
  8 35  1  0
 10 36  1  0
 10 37  1  0
 12 38  1  0
 12 39  1  0
 13 40  1  0
 13 41  1  0
 15 42  1  0
 15 43  1  0
 15 44  1  0
 16 45  1  0
 16 46  1  0
 17 47  1  0
 17 48  1  0
 18 49  1  0
 19 50  1  0
 22 51  1  0
 22 52  1  0
 23 53  1  0
 23 54  1  0
 23 55  1  0
M  END
>  <smiles>  (1) 
CCCCCOc1cc(CN2CCN(C)CC2)ccc1OCC

>  <score_type>  (1) 
oracle

>  <origin>  (1) 
adg

>  <m_score__min__energy>  (1) 
-7.9100000000000001

>  <m_primary>  (1) 
energy

$$$$
1:0
     RDKit          3D

 47 48  0  0  0  0  0  0  0  0999 V2000
   -8.7800   18.6960  -31.7180 C   0  0  0  0  0  0  0  0  0  0  0  0
   -9.2680   20.0150  -32.2420 C   0  0  0  0  0  0  0  0  0  0  0  0
   -9.0700   21.0970  -31.2030 C   0  0  0  0  0  0  0  0  0  0  0  0
   -9.1210   22.4420  -31.9410 C   0  0  0  0  0  0  0  0  0  0  0  0
   -7.7210   23.0610  -31.9780 C   0  0  0  0  0  0  0  0  0  0  0  0
   -6.9460   22.5690  -30.8040 C   0  0  0  0  0  0  0  0  0  0  0  0
   -5.6360   21.9680  -31.1250 C   0  0  0  0  0  0  0  0  0  0  0  0
   -4.4930   22.2630  -30.5250 C   0  0  0  0  0  0  0  0  0  0  0  0
   -4.2400   23.2390  -29.4150 C   0  0  0  0  0  0  0  0  0  0  0  0
   -3.7140   24.5290  -29.9390 C   0  0  0  0  0  0  0  0  0  0  0  0
   -2.5790   24.8910  -29.5300 O   0  0  0  0  0  0  0  0  0  0  0  0
   -4.3720   25.3360  -30.8230 O   0  0  0  0  0  0  0  0  0  0  0  0
   -5.7370   25.6250  -30.8650 C   0  0  0  0  0  0  0  0  0  0  0  0
   -6.2360   25.6860  -29.4250 C   0  0  0  0  0  0  0  0  0  0  0  0
   -3.3740   21.4610  -31.1100 C   0  0  0  0  0  0  0  0  0  0  0  0
   -4.0860   20.6710  -32.1440 C   0  0  0  0  0  0  0  0  0  0  0  0
   -3.5490   19.7410  -33.0230 C   0  0  0  0  0  0  0  0  0  0  0  0
   -4.3410   19.0820  -33.9360 C   0  0  0  0  0  0  0  0  0  0  0  0
   -5.6920   19.3700  -33.9580 C   0  0  0  0  0  0  0  0  0  0  0  0
   -6.2060   20.2970  -33.0770 C   0  0  0  0  0  0  0  0  0  0  0  0
   -5.4320   20.9690  -32.1550 C   0  0  0  0  0  0  0  0  0  0  0  0
   -8.7864   18.7134  -30.6182 H   0  0  0  0  0  0  0  0  0  0  0  0
   -9.4403   17.8923  -32.0759 H   0  0  0  0  0  0  0  0  0  0  0  0
   -7.7556   18.5156  -32.0759 H   0  0  0  0  0  0  0  0  0  0  0  0
   -8.7045   20.2760  -33.1500 H   0  0  0  0  0  0  0  0  0  0  0  0
  -10.3400   19.9337  -32.4749 H   0  0  0  0  0  0  0  0  0  0  0  0
   -9.8703   21.0487  -30.4499 H   0  0  0  0  0  0  0  0  0  0  0  0
   -8.1091   20.9707  -30.6827 H   0  0  0  0  0  0  0  0  0  0  0  0
   -9.4779   22.2821  -32.9691 H   0  0  0  0  0  0  0  0  0  0  0  0
   -9.8072   23.1217  -31.4146 H   0  0  0  0  0  0  0  0  0  0  0  0
   -7.2112   22.7664  -32.9071 H   0  0  0  0  0  0  0  0  0  0  0  0
   -7.7967   24.1578  -31.9422 H   0  0  0  0  0  0  0  0  0  0  0  0
   -6.7741   23.4199  -30.1284 H   0  0  0  0  0  0  0  0  0  0  0  0
   -7.5488   21.7666  -30.3537 H   0  0  0  0  0  0  0  0  0  0  0  0
   -5.1832   23.4270  -28.8811 H   0  0  0  0  0  0  0  0  0  0  0  0
   -3.4888   22.8072  -28.7373 H   0  0  0  0  0  0  0  0  0  0  0  0
   -5.9011   26.5931  -31.3609 H   0  0  0  0  0  0  0  0  0  0  0  0
   -6.2796   24.8536  -31.4312 H   0  0  0  0  0  0  0  0  0  0  0  0
   -5.3841   25.5819  -28.7370 H   0  0  0  0  0  0  0  0  0  0  0  0
   -6.7329   26.6516  -29.2497 H   0  0  0  0  0  0  0  0  0  0  0  0
   -6.9509   24.8686  -29.2497 H   0  0  0  0  0  0  0  0  0  0  0  0
   -2.6061   22.1092  -31.5575 H   0  0  0  0  0  0  0  0  0  0  0  0
   -2.8281   20.8504  -30.3758 H   0  0  0  0  0  0  0  0  0  0  0  0
   -2.4706   19.5265  -32.9896 H   0  0  0  0  0  0  0  0  0  0  0  0
   -3.9095   18.3455  -34.6298 H   0  0  0  0  0  0  0  0  0  0  0  0
   -6.3540   18.8622  -34.6749 H   0  0  0  0  0  0  0  0  0  0  0  0
   -7.2845   20.5107  -33.1111 H   0  0  0  0  0  0  0  0  0  0  0  0
  1  2  1  0
  2  3  1  0
  3  4  1  0
  4  5  1  0
  5  6  1  0
  6  7  1  0
  7  8  2  0
  8  9  1  0
  9 10  1  0
 10 11  2  0
 10 12  1  0
 12 13  1  0
 13 14  1  0
  8 15  1  0
 15 16  1  0
 16 17  2  0
 17 18  1  0
 18 19  2  0
 19 20  1  0
 20 21  2  0
 21  7  1  0
 21 16  1  0
  1 22  1  0
  1 23  1  0
  1 24  1  0
  2 25  1  0
  2 26  1  0
  3 27  1  0
  3 28  1  0
  4 29  1  0
  4 30  1  0
  5 31  1  0
  5 32  1  0
  6 33  1  0
  6 34  1  0
  9 35  1  0
  9 36  1  0
 13 37  1  0
 13 38  1  0
 14 39  1  0
 14 40  1  0
 14 41  1  0
 15 42  1  0
 15 43  1  0
 17 44  1  0
 18 45  1  0
 19 46  1  0
 20 47  1  0
M  END
>  <smiles>  (2) 
CCCCCCC1=C(CC(=O)OCC)Cc2ccccc21

>  <score_type>  (2) 
oracle

>  <origin>  (2) 
adg

>  <m_score__min__energy>  (2) 
-8.4000000000000004

>  <m_primary>  (2) 
energy

$$$$
3:0
     RDKit          3D

 47 50  0  0  1  0  0  0  0  0999 V2000
   -3.4530   25.3000  -30.0140 F   0  0  0  0  0  0  0  0  0  0  0  0
   -4.4610   24.4970  -30.4450 C   0  0  0  0  0  0  0  0  0  0  0  0
   -4.1950   23.1890  -30.8080 C   0  0  0  0  0  0  0  0  0  0  0  0
   -5.2330   22.4120  -31.2370 N   0  0  0  0  0  0  0  0  0  0  0  0
   -6.4850   22.9010  -31.3080 C   0  0  0  0  0  0  0  0  0  0  0  0
   -7.5080   22.0310  -31.7630 N   0  0  0  0  0  0  0  0  0  0  0  0
   -8.9190   22.3020  -31.6140 C   0  0  0  0  0  0  0  0  0  0  0  0
   -9.6300   21.0350  -32.0420 C   0  0  0  0  0  0  0  0  0  0  0  0
   -8.5520   20.0030  -31.8740 C   0  0  1  0  0  0  0  0  0  0  0  0
   -8.8500   18.7760  -32.5860 N   0  0  0  0  0  0  0  0  0  0  0  0
   -7.8120   17.8350  -32.2060 C   0  0  0  0  0  0  0  0  0  0  0  0
   -7.2240   17.1370  -33.4140 C   0  0  0  0  0  0  0  0  0  0  0  0
   -5.9460   17.6830  -33.7830 N   0  0  0  0  0  0  0  0  0  0  0  0
   -5.3610   17.5430  -34.9760 C   0  0  0  0  0  0  0  0  0  0  0  0
   -4.1730   18.1860  -34.9660 N   0  0  0  0  0  0  0  0  0  0  0  0
   -3.9750   18.7570  -33.7450 C   0  0  0  0  0  0  0  0  0  0  0  0
   -2.7860   19.5140  -33.4340 C   0  0  0  0  0  0  0  0  0  0  0  0
   -2.9570   20.7830  -32.9040 C   0  0  0  0  0  0  0  0  0  0  0  0
   -1.8470   21.5650  -32.5820 C   0  0  0  0  0  0  0  0  0  0  0  0
   -0.5580   21.1240  -32.7700 C   0  0  0  0  0  0  0  0  0  0  0  0
   -0.3860   19.8730  -33.2920 C   0  0  0  0  0  0  0  0  0  0  0  0
   -1.4970   19.0920  -33.6140 C   0  0  0  0  0  0  0  0  0  0  0  0
   -1.1650   17.5120  -34.2740 Cl  0  0  0  0  0  0  0  0  0  0  0  0
   -5.0900   18.4300  -33.0320 C   0  0  0  0  0  0  0  0  0  0  0  0
   -7.3590   20.7440  -32.4410 C   0  0  0  0  0  0  0  0  0  0  0  0
   -6.7270   24.1760  -30.9520 N   0  0  0  0  0  0  0  0  0  0  0  0
   -5.7410   25.0130  -30.5130 C   0  0  0  0  0  0  0  0  0  0  0  0
   -3.1734   22.7849  -30.7525 H   0  0  0  0  0  0  0  0  0  0  0  0
   -9.1551   22.5383  -30.5659 H   0  0  0  0  0  0  0  0  0  0  0  0
   -9.2315   23.1658  -32.2192 H   0  0  0  0  0  0  0  0  0  0  0  0
  -10.4926   20.8217  -31.3936 H   0  0  0  0  0  0  0  0  0  0  0  0
  -10.0466   21.0810  -33.0590 H   0  0  0  0  0  0  0  0  0  0  0  0
   -8.4085   19.6541  -30.8407 H   0  0  0  0  0  0  0  0  0  0  0  0
   -8.8430   18.9390  -33.6180 H   0  0  0  0  0  0  0  0  0  0  0  0
   -7.0114   18.3785  -31.6828 H   0  0  0  0  0  0  0  0  0  0  0  0
   -8.2609   17.0726  -31.5524 H   0  0  0  0  0  0  0  0  0  0  0  0
   -7.1001   16.0690  -33.1816 H   0  0  0  0  0  0  0  0  0  0  0  0
   -7.9126   17.2832  -34.2593 H   0  0  0  0  0  0  0  0  0  0  0  0
   -5.7802   16.9917  -35.8306 H   0  0  0  0  0  0  0  0  0  0  0  0
   -3.9710   21.1751  -32.7366 H   0  0  0  0  0  0  0  0  0  0  0  0
   -2.0087   22.5692  -32.1632 H   0  0  0  0  0  0  0  0  0  0  0  0
    0.3039   21.7559  -32.5094 H   0  0  0  0  0  0  0  0  0  0  0  0
    0.6283   19.4813  -33.4585 H   0  0  0  0  0  0  0  0  0  0  0  0
   -5.2737   18.7294  -31.9896 H   0  0  0  0  0  0  0  0  0  0  0  0
   -6.4110   20.2521  -32.1777 H   0  0  0  0  0  0  0  0  0  0  0  0
   -7.3307   20.8014  -33.5391 H   0  0  0  0  0  0  0  0  0  0  0  0
   -5.9565   26.0528  -30.2260 H   0  0  0  0  0  0  0  0  0  0  0  0
  1  2  1  0
  2  3  2  0
  3  4  1  0
  4  5  2  0
  5  6  1  0
  6  7  1  0
  7  8  1  0
  8  9  1  0
  9 10  1  0
 10 11  1  0
 11 12  1  0
 12 13  1  0
 13 14  1  0
 14 15  2  0
 15 16  1  0
 16 17  1  0
 17 18  2  0
 18 19  1  0
 19 20  2  0
 20 21  1  0
 21 22  2  0
 22 23  1  0
 16 24  2  0
  9 25  1  0
  5 26  1  0
 26 27  2  0
 27  2  1  0
 25  6  1  0
 24 13  1  0
 22 17  1  0
  3 28  1  0
  7 29  1  0
  7 30  1  0
  8 31  1  0
  8 32  1  0
  9 33  1  1
 10 34  1  0
 11 35  1  0
 11 36  1  0
 12 37  1  0
 12 38  1  0
 14 39  1  0
 18 40  1  0
 19 41  1  0
 20 42  1  0
 21 43  1  0
 24 44  1  0
 25 45  1  0
 25 46  1  0
 27 47  1  0
M  END
>  <smiles>  (3) 
Fc1cnc(N2CCC(NCCn3cnc(-c4ccccc4Cl)c3)C2)nc1

>  <score_type>  (3) 
oracle

>  <origin>  (3) 
adg

>  <m_score__min__energy>  (3) 
-9.0199999999999996

>  <m_primary>  (3) 
energy

$$$$
4:0
     RDKit          3D

 45 48  0  0  1  0  0  0  0  0999 V2000
   -1.3780   25.9340  -28.9500 O   0  0  0  0  0  0  0  0  0  0  0  0
   -1.4950   24.5860  -28.6310 C   0  0  0  0  0  0  0  0  0  0  0  0
   -2.5490   23.9290  -29.5290 C   0  0  1  0  0  0  0  0  0  0  0  0
   -3.3210   22.8950  -28.7400 C   0  0  0  0  0  0  0  0  0  0  0  0
   -4.7510   23.3730  -28.5920 C   0  0  0  0  0  0  0  0  0  0  0  0
   -5.3320   23.7270  -29.9480 C   0  0  2  0  0  0  0  0  0  0  0  0
   -5.7020   22.5050  -30.5810 N   0  0  0  0  0  0  0  0  0  0  0  0
   -5.0230   21.3780  -30.8450 C   0  0  0  0  0  0  0  0  0  0  0  0
   -5.8090   20.4780  -31.4710 N   0  0  0  0  0  0  0  0  0  0  0  0
   -7.0360   21.0280  -31.6220 C   0  0  0  0  0  0  0  0  0  0  0  0
   -8.2040   20.5550  -32.1850 C   0  0  0  0  0  0  0  0  0  0  0  0
   -8.2660   18.9170  -32.8990 S   0  0  0  0  0  0  0  0  0  0  0  0
   -7.1390   17.8760  -31.9080 C   0  0  0  0  0  0  0  0  0  0  0  0
   -6.0810   17.4180  -32.8430 C   0  0  0  0  0  0  0  0  0  0  0  0
   -5.8280   18.0140  -34.0590 C   0  0  0  0  0  0  0  0  0  0  0  0
   -4.8260   17.5610  -34.9170 C   0  0  0  0  0  0  0  0  0  0  0  0
   -4.0960   16.4640  -34.4660 C   0  0  0  0  0  0  0  0  0  0  0  0
   -4.3480   15.8690  -33.2540 C   0  0  0  0  0  0  0  0  0  0  0  0
   -5.3270   16.3240  -32.4310 C   0  0  0  0  0  0  0  0  0  0  0  0
   -9.2740   21.3810  -32.1700 N   0  0  0  0  0  0  0  0  0  0  0  0
   -9.2080   22.6130  -31.6290 C   0  0  0  0  0  0  0  0  0  0  0  0
   -8.0640   23.0600  -31.0840 N   0  0  0  0  0  0  0  0  0  0  0  0
   -6.9520   22.2750  -31.0690 C   0  0  0  0  0  0  0  0  0  0  0  0
   -4.4080   24.5140  -30.8000 C   0  0  0  0  0  0  0  0  0  0  0  0
   -3.3430   24.9410  -30.0050 O   0  0  0  0  0  0  0  0  0  0  0  0
   -1.6230   26.0470  -29.8910 H   0  0  0  0  0  0  0  0  0  0  0  0
   -0.5253   24.0894  -28.7828 H   0  0  0  0  0  0  0  0  0  0  0  0
   -1.8017   24.4872  -27.5793 H   0  0  0  0  0  0  0  0  0  0  0  0
   -2.1011   23.3905  -30.3772 H   0  0  0  0  0  0  0  0  0  0  0  0
   -3.3046   21.9330  -29.2732 H   0  0  0  0  0  0  0  0  0  0  0  0
   -2.8644   22.7590  -27.7485 H   0  0  0  0  0  0  0  0  0  0  0  0
   -5.3549   22.5747  -28.1359 H   0  0  0  0  0  0  0  0  0  0  0  0
   -4.7642   24.2682  -27.9528 H   0  0  0  0  0  0  0  0  0  0  0  0
   -6.2041   24.3814  -29.8021 H   0  0  0  0  0  0  0  0  0  0  0  0
   -3.9672   21.2106  -30.5857 H   0  0  0  0  0  0  0  0  0  0  0  0
   -6.6978   18.4624  -31.0885 H   0  0  0  0  0  0  0  0  0  0  0  0
   -7.6696   17.0275  -31.4514 H   0  0  0  0  0  0  0  0  0  0  0  0
   -6.4376   18.8774  -34.3639 H   0  0  0  0  0  0  0  0  0  0  0  0
   -4.6253   18.0392  -35.8871 H   0  0  0  0  0  0  0  0  0  0  0  0
   -3.2925   16.0615  -35.1003 H   0  0  0  0  0  0  0  0  0  0  0  0
   -3.7430   15.0045  -32.9433 H   0  0  0  0  0  0  0  0  0  0  0  0
   -5.5193   15.8396  -31.4623 H   0  0  0  0  0  0  0  0  0  0  0  0
  -10.0985   23.2588  -31.6335 H   0  0  0  0  0  0  0  0  0  0  0  0
   -4.0320   23.8861  -31.6212 H   0  0  0  0  0  0  0  0  0  0  0  0
   -4.9318   25.3793  -31.2323 H   0  0  0  0  0  0  0  0  0  0  0  0
  1  2  1  0
  2  3  1  0
  3  4  1  0
  4  5  1  0
  5  6  1  0
  6  7  1  0
  7  8  1  0
  8  9  2  0
  9 10  1  0
 10 11  2  0
 11 12  1  0
 12 13  1  0
 13 14  1  0
 14 15  2  0
 15 16  1  0
 16 17  2  0
 17 18  1  0
 18 19  2  0
 11 20  1  0
 20 21  2  0
 21 22  1  0
 22 23  2  0
  6 24  1  0
 24 25  1  0
 25  3  1  0
 23  7  1  0
 23 10  1  0
 19 14  1  0
  1 26  1  0
  2 27  1  0
  2 28  1  0
  3 29  1  6
  4 30  1  0
  4 31  1  0
  5 32  1  0
  5 33  1  0
  6 34  1  1
  8 35  1  0
 13 36  1  0
 13 37  1  0
 15 38  1  0
 16 39  1  0
 17 40  1  0
 18 41  1  0
 19 42  1  0
 21 43  1  0
 24 44  1  0
 24 45  1  0
M  END
>  <smiles>  (4) 
OCC1CCC(n2cnc3c(SCc4ccccc4)ncnc32)CO1

>  <score_type>  (4) 
oracle

>  <origin>  (4) 
adg

>  <m_score__min__energy>  (4) 
-9

>  <m_primary>  (4) 
energy

$$$$
5:0
     RDKit          3D

 51 54  0  0  0  0  0  0  0  0999 V2000
   -0.5110   21.1230  -27.2210 C   0  0  0  0  0  0  0  0  0  0  0  0
   -0.3530   22.5850  -27.5830 C   0  0  0  0  0  0  0  0  0  0  0  0
   -1.4200   23.4100  -27.0910 N   0  0  0  0  0  0  0  0  0  0  0  0
   -2.7230   22.7870  -27.1790 C   0  0  0  0  0  0  0  0  0  0  0  0
   -3.2100   22.7280  -28.6090 C   0  0  0  0  0  0  0  0  0  0  0  0
   -3.0940   24.0260  -29.2880 N   0  0  0  0  0  0  0  0  0  0  0  0
   -4.0150   24.4410  -30.2880 C   0  0  0  0  0  0  0  0  0  0  0  0
   -3.8630   25.5820  -30.8500 O   0  0  0  0  0  0  0  0  0  0  0  0
   -5.1510   23.6680  -30.7450 C   0  0  0  0  0  0  0  0  0  0  0  0
   -6.4310   24.1400  -30.8730 C   0  0  0  0  0  0  0  0  0  0  0  0
   -7.4690   23.3090  -31.3180 C   0  0  0  0  0  0  0  0  0  0  0  0
   -7.2230   21.9910  -31.6400 C   0  0  0  0  0  0  0  0  0  0  0  0
   -5.9370   21.5090  -31.5130 C   0  0  0  0  0  0  0  0  0  0  0  0
   -4.8920   22.3300  -31.0700 C   0  0  0  0  0  0  0  0  0  0  0  0
   -5.9640   20.0850  -31.9130 C   0  0  0  0  0  0  0  0  0  0  0  0
   -5.0220   19.2740  -31.9480 O   0  0  0  0  0  0  0  0  0  0  0  0
   -7.3030   19.7570  -32.2760 N   0  0  0  0  0  0  0  0  0  0  0  0
   -7.7570   18.4380  -32.7210 C   0  0  0  0  0  0  0  0  0  0  0  0
   -6.6650   17.7300  -33.3990 C   0  0  0  0  0  0  0  0  0  0  0  0
   -6.1870   16.5310  -32.8590 C   0  0  0  0  0  0  0  0  0  0  0  0
   -5.1510   15.8360  -33.4680 C   0  0  0  0  0  0  0  0  0  0  0  0
   -4.5710   16.3210  -34.6250 C   0  0  0  0  0  0  0  0  0  0  0  0
   -5.0480   17.5080  -35.1570 C   0  0  0  0  0  0  0  0  0  0  0  0
   -6.0840   18.2200  -34.5620 C   0  0  0  0  0  0  0  0  0  0  0  0
   -8.1150   20.9280  -32.1160 C   0  0  0  0  0  0  0  0  0  0  0  0
   -9.3430   20.9720  -32.3530 O   0  0  0  0  0  0  0  0  0  0  0  0
   -2.0240   24.9150  -28.9460 C   0  0  0  0  0  0  0  0  0  0  0  0
   -1.4050   24.7430  -27.6130 C   0  0  0  0  0  0  0  0  0  0  0  0
   -0.5226   21.0155  -26.1263 H   0  0  0  0  0  0  0  0  0  0  0  0
   -1.4555   20.7423  -27.6369 H   0  0  0  0  0  0  0  0  0  0  0  0
    0.3304   20.5493  -27.6369 H   0  0  0  0  0  0  0  0  0  0  0  0
    0.5942   22.9494  -27.1588 H   0  0  0  0  0  0  0  0  0  0  0  0
   -0.3684   22.6525  -28.6808 H   0  0  0  0  0  0  0  0  0  0  0  0
   -2.6583   21.7638  -26.7803 H   0  0  0  0  0  0  0  0  0  0  0  0
   -3.4349   23.3888  -26.5951 H   0  0  0  0  0  0  0  0  0  0  0  0
   -2.6105   21.9864  -29.1573 H   0  0  0  0  0  0  0  0  0  0  0  0
   -4.2739   22.4489  -28.5926 H   0  0  0  0  0  0  0  0  0  0  0  0
   -6.6480   25.1889  -30.6223 H   0  0  0  0  0  0  0  0  0  0  0  0
   -8.4883   23.7120  -31.4110 H   0  0  0  0  0  0  0  0  0  0  0  0
   -3.8730   21.9261  -30.9777 H   0  0  0  0  0  0  0  0  0  0  0  0
   -8.0838   17.8526  -31.8489 H   0  0  0  0  0  0  0  0  0  0  0  0
   -8.5945   18.5639  -33.4230 H   0  0  0  0  0  0  0  0  0  0  0  0
   -6.6388   16.1332  -31.9383 H   0  0  0  0  0  0  0  0  0  0  0  0
   -4.7900   14.8949  -33.0276 H   0  0  0  0  0  0  0  0  0  0  0  0
   -3.7489   15.7766  -35.1126 H   0  0  0  0  0  0  0  0  0  0  0  0
   -4.5931   17.8995  -36.0788 H   0  0  0  0  0  0  0  0  0  0  0  0
   -6.4395   19.1609  -35.0074 H   0  0  0  0  0  0  0  0  0  0  0  0
   -1.2321   24.7853  -29.6984 H   0  0  0  0  0  0  0  0  0  0  0  0
   -2.4818   25.9149  -28.9204 H   0  0  0  0  0  0  0  0  0  0  0  0
   -0.3562   25.0674  -27.6826 H   0  0  0  0  0  0  0  0  0  0  0  0
   -2.0116   25.3443  -26.9199 H   0  0  0  0  0  0  0  0  0  0  0  0
  1  2  1  0
  2  3  1  0
  3  4  1  0
  4  5  1  0
  5  6  1  0
  6  7  1  0
  7  8  2  0
  7  9  1  0
  9 10  2  0
 10 11  1  0
 11 12  2  0
 12 13  1  0
 13 14  2  0
 13 15  1  0
 15 16  2  0
 15 17  1  0
 17 18  1  0
 18 19  1  0
 19 20  2  0
 20 21  1  0
 21 22  2  0
 22 23  1  0
 23 24  2  0
 17 25  1  0
 25 26  2  0
  6 27  1  0
 27 28  1  0
 28  3  1  0
 14  9  1  0
 24 19  1  0
 25 12  1  0
  1 29  1  0
  1 30  1  0
  1 31  1  0
  2 32  1  0
  2 33  1  0
  4 34  1  0
  4 35  1  0
  5 36  1  0
  5 37  1  0
 10 38  1  0
 11 39  1  0
 14 40  1  0
 18 41  1  0
 18 42  1  0
 20 43  1  0
 21 44  1  0
 22 45  1  0
 23 46  1  0
 24 47  1  0
 27 48  1  0
 27 49  1  0
 28 50  1  0
 28 51  1  0
M  END
>  <smiles>  (5) 
CCN1CCN(C(=O)c2ccc3c(c2)C(=O)N(Cc2ccccc2)C3=O)CC1

>  <score_type>  (5) 
oracle

>  <origin>  (5) 
adg

>  <m_score__min__energy>  (5) 
-9.5099999999999998

>  <m_primary>  (5) 
energy

$$$$
6:0
     RDKit          3D

 42 44  0  0  1  0  0  0  0  0999 V2000
   -3.1340   23.6920  -28.1250 C   0  0  0  0  0  0  0  0  0  0  0  0
   -4.0920   23.7290  -29.2570 C   0  0  0  0  0  0  0  0  0  0  0  0
   -3.9180   24.4130  -30.4690 C   0  0  0  0  0  0  0  0  0  0  0  0
   -5.0050   24.1800  -31.2130 N   0  0  0  0  0  0  0  0  0  0  0  0
   -5.8520   23.4050  -30.5730 N   0  0  0  0  0  0  0  0  0  0  0  0
   -7.1390   22.8850  -30.9720 C   0  0  1  0  0  0  0  0  0  0  0  0
   -7.5680   23.4500  -32.3220 C   0  0  0  0  0  0  0  0  0  0  0  0
   -9.0820   23.3400  -32.3390 C   0  0  0  0  0  0  0  0  0  0  0  0
   -9.4950   22.0350  -31.6950 C   0  0  0  0  0  0  0  0  0  0  0  0
   -8.4620   21.0210  -31.7350 N   0  0  0  0  0  0  0  0  0  0  0  0
   -8.6760   19.7270  -32.3020 C   0  0  0  0  0  0  0  0  0  0  0  0
   -9.8250   19.2430  -32.4250 O   0  0  0  0  0  0  0  0  0  0  0  0
   -7.4560   19.0240  -32.7300 C   0  0  0  0  0  0  0  0  0  0  0  0
   -7.0030   17.8680  -32.1400 C   0  0  0  0  0  0  0  0  0  0  0  0
   -5.8100   17.2990  -32.5980 C   0  0  0  0  0  0  0  0  0  0  0  0
   -5.1300   17.9210  -33.6280 C   0  0  0  0  0  0  0  0  0  0  0  0
   -3.8410   17.3790  -34.1470 C   0  0  0  0  0  0  0  0  0  0  0  0
   -2.8410   18.3530  -34.0560 F   0  0  0  0  0  0  0  0  0  0  0  0
   -3.4610   16.2790  -33.4050 F   0  0  0  0  0  0  0  0  0  0  0  0
   -3.9050   17.0000  -35.4610 F   0  0  0  0  0  0  0  0  0  0  0  0
   -5.5860   19.0870  -34.2260 C   0  0  0  0  0  0  0  0  0  0  0  0
   -6.7640   19.6410  -33.7690 C   0  0  0  0  0  0  0  0  0  0  0  0
   -7.1680   21.3860  -31.1200 C   0  0  0  0  0  0  0  0  0  0  0  0
   -5.3190   23.1030  -29.3490 C   0  0  0  0  0  0  0  0  0  0  0  0
   -3.6880   23.7134  -27.1749 H   0  0  0  0  0  0  0  0  0  0  0  0
   -2.5365   22.7701  -28.1803 H   0  0  0  0  0  0  0  0  0  0  0  0
   -2.4671   24.5651  -28.1803 H   0  0  0  0  0  0  0  0  0  0  0  0
   -3.0504   25.0261  -30.7543 H   0  0  0  0  0  0  0  0  0  0  0  0
   -7.8167   23.1885  -30.1604 H   0  0  0  0  0  0  0  0  0  0  0  0
   -7.2569   24.5009  -32.4164 H   0  0  0  0  0  0  0  0  0  0  0  0
   -7.1077   22.9055  -33.1596 H   0  0  0  0  0  0  0  0  0  0  0  0
   -9.5179   24.1804  -31.7789 H   0  0  0  0  0  0  0  0  0  0  0  0
   -9.4422   23.3688  -33.3780 H   0  0  0  0  0  0  0  0  0  0  0  0
   -9.7506   22.2309  -30.6432 H   0  0  0  0  0  0  0  0  0  0  0  0
  -10.3517   21.6481  -32.2663 H   0  0  0  0  0  0  0  0  0  0  0  0
   -7.5689   17.3985  -31.3218 H   0  0  0  0  0  0  0  0  0  0  0  0
   -5.4206   16.3743  -32.1471 H   0  0  0  0  0  0  0  0  0  0  0  0
   -5.0221   19.5582  -35.0445 H   0  0  0  0  0  0  0  0  0  0  0  0
   -7.1541   20.5642  -34.2225 H   0  0  0  0  0  0  0  0  0  0  0  0
   -7.0747   20.9100  -30.1327 H   0  0  0  0  0  0  0  0  0  0  0  0
   -6.3323   21.0442  -31.7483 H   0  0  0  0  0  0  0  0  0  0  0  0
   -5.7851   22.4738  -28.5765 H   0  0  0  0  0  0  0  0  0  0  0  0
  1  2  1  0
  2  3  1  0
  3  4  2  0
  4  5  1  0
  5  6  1  0
  6  7  1  0
  7  8  1  0
  8  9  1  0
  9 10  1  0
 10 11  1  0
 11 12  2  0
 11 13  1  0
 13 14  2  0
 14 15  1  0
 15 16  2  0
 16 17  1  0
 17 18  1  0
 17 19  1  0
 17 20  1  0
 16 21  1  0
 21 22  2  0
 10 23  1  0
  5 24  1  0
 24  2  2  0
 23  6  1  0
 22 13  1  0
  1 25  1  0
  1 26  1  0
  1 27  1  0
  3 28  1  0
  6 29  1  1
  7 30  1  0
  7 31  1  0
  8 32  1  0
  8 33  1  0
  9 34  1  0
  9 35  1  0
 14 36  1  0
 15 37  1  0
 21 38  1  0
 22 39  1  0
 23 40  1  0
 23 41  1  0
 24 42  1  0
M  END
>  <smiles>  (6) 
Cc1cnn(C2CCCN(C(=O)c3ccc(C(F)(F)F)cc3)C2)c1

>  <score_type>  (6) 
oracle

>  <origin>  (6) 
adg

>  <m_score__min__energy>  (6) 
-8.0999999999999996

>  <m_primary>  (6) 
energy

$$$$
7:0
     RDKit          3D

 42 44  0  0  0  0  0  0  0  0999 V2000
   -6.8520   25.6490  -29.3450 C   0  0  0  0  0  0  0  0  0  0  0  0
   -5.5610   25.9100  -30.1350 C   0  0  0  0  0  0  0  0  0  0  0  0
   -4.6950   24.6700  -30.1500 C   0  0  0  0  0  0  0  0  0  0  0  0
   -5.0810   23.6680  -31.0670 N   0  0  0  0  0  0  0  0  0  0  0  0
   -6.0160   24.0250  -32.0820 C   0  0  0  0  0  0  0  0  0  0  0  0
   -6.8310   22.7770  -32.3390 C   0  0  0  0  0  0  0  0  0  0  0  0
   -5.9420   21.5770  -32.6990 C   0  0  0  0  0  0  0  0  0  0  0  0
   -6.8020   20.3960  -32.4520 C   0  0  0  0  0  0  0  0  0  0  0  0
   -7.9060   20.4940  -31.6270 C   0  0  0  0  0  0  0  0  0  0  0  0
   -8.7420   19.3960  -31.3840 C   0  0  0  0  0  0  0  0  0  0  0  0
   -8.5030   18.1710  -31.9570 C   0  0  0  0  0  0  0  0  0  0  0  0
   -7.4010   18.0680  -32.7830 C   0  0  0  0  0  0  0  0  0  0  0  0
   -7.1810   16.8230  -33.3500 C   0  0  0  0  0  0  0  0  0  0  0  0
   -6.1070   16.6210  -34.1920 C   0  0  0  0  0  0  0  0  0  0  0  0
   -5.2900   17.7050  -34.4260 C   0  0  0  0  0  0  0  0  0  0  0  0
   -5.5080   18.9450  -33.8600 C   0  0  0  0  0  0  0  0  0  0  0  0
   -6.5760   19.1560  -33.0190 C   0  0  0  0  0  0  0  0  0  0  0  0
   -4.7070   21.4790  -31.8740 C   0  0  0  0  0  0  0  0  0  0  0  0
   -4.0660   22.8390  -31.6140 C   0  0  0  0  0  0  0  0  0  0  0  0
   -6.6373   25.6924  -28.2670 H   0  0  0  0  0  0  0  0  0  0  0  0
   -7.5996   26.4142  -29.6011 H   0  0  0  0  0  0  0  0  0  0  0  0
   -7.2437   24.6535  -29.6011 H   0  0  0  0  0  0  0  0  0  0  0  0
   -5.8175   26.1860  -31.1685 H   0  0  0  0  0  0  0  0  0  0  0  0
   -5.0059   26.7283  -29.6531 H   0  0  0  0  0  0  0  0  0  0  0  0
   -3.6680   24.9773  -30.3967 H   0  0  0  0  0  0  0  0  0  0  0  0
   -4.7964   24.2197  -29.1515 H   0  0  0  0  0  0  0  0  0  0  0  0
   -6.6648   24.8432  -31.7362 H   0  0  0  0  0  0  0  0  0  0  0  0
   -5.5126   24.3782  -32.9941 H   0  0  0  0  0  0  0  0  0  0  0  0
   -7.4059   22.5347  -31.4330 H   0  0  0  0  0  0  0  0  0  0  0  0
   -7.4984   22.9748  -33.1907 H   0  0  0  0  0  0  0  0  0  0  0  0
   -5.5846   21.6657  -33.7355 H   0  0  0  0  0  0  0  0  0  0  0  0
   -8.1344   21.4580  -31.1490 H   0  0  0  0  0  0  0  0  0  0  0  0
   -9.6097   19.5181  -30.7190 H   0  0  0  0  0  0  0  0  0  0  0  0
   -9.1603   17.3098  -31.7664 H   0  0  0  0  0  0  0  0  0  0  0  0
   -7.8661   15.9916  -33.1277 H   0  0  0  0  0  0  0  0  0  0  0  0
   -5.9126   15.6419  -34.6540 H   0  0  0  0  0  0  0  0  0  0  0  0
   -4.4253   17.5768  -35.0937 H   0  0  0  0  0  0  0  0  0  0  0  0
   -4.8201   19.7736  -34.0839 H   0  0  0  0  0  0  0  0  0  0  0  0
   -4.9641   21.0202  -30.9079 H   0  0  0  0  0  0  0  0  0  0  0  0
   -3.9809   20.8695  -32.4320 H   0  0  0  0  0  0  0  0  0  0  0  0
   -3.2345   22.7366  -30.9012 H   0  0  0  0  0  0  0  0  0  0  0  0
   -3.6590   23.2694  -32.5409 H   0  0  0  0  0  0  0  0  0  0  0  0
  1  2  1  0
  2  3  1  0
  3  4  1  0
  4  5  1  0
  5  6  1  0
  6  7  1  0
  7  8  1  0
  8  9  2  0
  9 10  1  0
 10 11  2  0
 11 12  1  0
 12 13  2  0
 13 14  1  0
 14 15  2  0
 15 16  1  0
 16 17  2  0
  7 18  1  0
 18 19  1  0
 19  4  1  0
 17  8  1  0
 17 12  1  0
  1 20  1  0
  1 21  1  0
  1 22  1  0
  2 23  1  0
  2 24  1  0
  3 25  1  0
  3 26  1  0
  5 27  1  0
  5 28  1  0
  6 29  1  0
  6 30  1  0
  7 31  1  0
  9 32  1  0
 10 33  1  0
 11 34  1  0
 13 35  1  0
 14 36  1  0
 15 37  1  0
 16 38  1  0
 18 39  1  0
 18 40  1  0
 19 41  1  0
 19 42  1  0
M  END
>  <smiles>  (7) 
CCCN1CCC(c2cccc3ccccc23)CC1

>  <score_type>  (7) 
oracle

>  <origin>  (7) 
adg

>  <m_score__min__energy>  (7) 
-8.2599999999999998

>  <m_primary>  (7) 
energy

$$$$
8:0
     RDKit          3D

 44 46  0  0  0  0  0  0  0  0999 V2000
   -9.2150   19.6760  -32.7040 C   0  0  0  0  0  0  0  0  0  0  0  0
   -8.2810   18.7570  -31.9450 C   0  0  0  0  0  0  0  0  0  0  0  0
   -7.0020   18.6440  -32.6600 N   0  0  0  0  0  0  0  0  0  0  0  0
   -6.8330   17.4670  -33.4710 C   0  0  0  0  0  0  0  0  0  0  0  0
   -5.7710   16.5360  -32.8880 C   0  0  0  0  0  0  0  0  0  0  0  0
   -6.0350   19.6670  -32.5190 C   0  0  0  0  0  0  0  0  0  0  0  0
   -6.2720   20.8930  -31.9490 C   0  0  0  0  0  0  0  0  0  0  0  0
   -5.3030   21.8640  -31.8300 C   0  0  0  0  0  0  0  0  0  0  0  0
   -5.5410   23.1700  -31.2260 C   0  0  0  0  0  0  0  0  0  0  0  0
   -6.7660   23.6950  -30.9670 C   0  0  0  0  0  0  0  0  0  0  0  0
   -6.8140   24.9340  -30.3950 N   0  0  0  0  0  0  0  0  0  0  0  0
   -5.7450   25.6510  -30.0790 C   0  0  0  0  0  0  0  0  0  0  0  0
   -4.5080   25.1430  -30.3310 N   0  0  0  0  0  0  0  0  0  0  0  0
   -4.4320   23.9390  -30.8870 C   0  0  0  0  0  0  0  0  0  0  0  0
   -4.0740   21.5340  -32.3190 N   0  0  0  0  0  0  0  0  0  0  0  0
   -3.7920   20.3610  -32.8790 C   0  0  0  0  0  0  0  0  0  0  0  0
   -2.4750   20.1030  -33.3660 N   0  0  0  0  0  0  0  0  0  0  0  0
   -1.4450   21.1380  -33.3540 C   0  0  0  0  0  0  0  0  0  0  0  0
   -0.6550   20.8100  -34.6040 C   0  0  0  0  0  0  0  0  0  0  0  0
   -0.6590   19.2980  -34.5840 C   0  0  0  0  0  0  0  0  0  0  0  0
   -1.9490   18.8720  -33.9180 C   0  0  0  0  0  0  0  0  0  0  0  0
   -4.7750   19.4490  -32.9700 N   0  0  0  0  0  0  0  0  0  0  0  0
   -9.8117   20.2631  -31.9904 H   0  0  0  0  0  0  0  0  0  0  0  0
   -8.6260   20.3564  -33.3365 H   0  0  0  0  0  0  0  0  0  0  0  0
   -9.8858   19.0760  -33.3365 H   0  0  0  0  0  0  0  0  0  0  0  0
   -8.1023   19.1672  -30.9401 H   0  0  0  0  0  0  0  0  0  0  0  0
   -8.7399   17.7607  -31.8631 H   0  0  0  0  0  0  0  0  0  0  0  0
   -7.7907   16.9285  -33.5242 H   0  0  0  0  0  0  0  0  0  0  0  0
   -6.5056   17.7811  -34.4730 H   0  0  0  0  0  0  0  0  0  0  0  0
   -5.8137   16.5734  -31.7895 H   0  0  0  0  0  0  0  0  0  0  0  0
   -5.9594   15.5068  -33.2274 H   0  0  0  0  0  0  0  0  0  0  0  0
   -4.7753   16.8575  -33.2274 H   0  0  0  0  0  0  0  0  0  0  0  0
   -7.2817   21.1096  -31.5701 H   0  0  0  0  0  0  0  0  0  0  0  0
   -7.6859   23.1426  -31.2090 H   0  0  0  0  0  0  0  0  0  0  0  0
   -5.8563   26.6440  -29.6189 H   0  0  0  0  0  0  0  0  0  0  0  0
   -3.4334   23.5255  -31.0915 H   0  0  0  0  0  0  0  0  0  0  0  0
   -1.8877   22.1432  -33.4132 H   0  0  0  0  0  0  0  0  0  0  0  0
   -0.8386   21.1499  -32.4363 H   0  0  0  0  0  0  0  0  0  0  0  0
   -1.1508   21.2000  -35.5051 H   0  0  0  0  0  0  0  0  0  0  0  0
    0.3518   21.2528  -34.6239 H   0  0  0  0  0  0  0  0  0  0  0  0
   -0.6157   18.9058  -35.6108 H   0  0  0  0  0  0  0  0  0  0  0  0
    0.2135   18.9086  -34.0389 H   0  0  0  0  0  0  0  0  0  0  0  0
   -2.6461   18.4424  -34.6525 H   0  0  0  0  0  0  0  0  0  0  0  0
   -1.7975   18.0941  -33.1552 H   0  0  0  0  0  0  0  0  0  0  0  0
  1  2  1  0
  2  3  1  0
  3  4  1  0
  4  5  1  0
  3  6  1  0
  6  7  2  0
  7  8  1  0
  8  9  1  0
  9 10  2  0
 10 11  1  0
 11 12  2  0
 12 13  1  0
 13 14  2  0
  8 15  2  0
 15 16  1  0
 16 17  1  0
 17 18  1  0
 18 19  1  0
 19 20  1  0
 20 21  1  0
 16 22  2  0
 22  6  1  0
 14  9  1  0
 21 17  1  0
  1 23  1  0
  1 24  1  0
  1 25  1  0
  2 26  1  0
  2 27  1  0
  4 28  1  0
  4 29  1  0
  5 30  1  0
  5 31  1  0
  5 32  1  0
  7 33  1  0
 10 34  1  0
 12 35  1  0
 14 36  1  0
 18 37  1  0
 18 38  1  0
 19 39  1  0
 19 40  1  0
 20 41  1  0
 20 42  1  0
 21 43  1  0
 21 44  1  0
M  END
>  <smiles>  (8) 
CCN(CC)c1cc(-c2cncnc2)nc(N2CCCC2)n1

>  <score_type>  (8) 
oracle

>  <origin>  (8) 
adg

>  <m_score__min__energy>  (8) 
-6.8300000000000001

>  <m_primary>  (8) 
energy

$$$$
9:0
     RDKit          3D

 40 42  0  0  1  0  0  0  0  0999 V2000
   -3.8800   24.5290  -27.0900 C   0  0  0  0  0  0  0  0  0  0  0  0
   -3.2530   24.5090  -28.3040 O   0  0  0  0  0  0  0  0  0  0  0  0
   -3.5580   23.4280  -29.1090 C   0  0  0  0  0  0  0  0  0  0  0  0
   -3.4620   23.8140  -30.5420 C   0  0  0  0  0  0  0  0  0  0  0  0
   -4.7230   23.9470  -31.2260 N   0  0  0  0  0  0  0  0  0  0  0  0
   -5.6010   24.9380  -30.7330 C   0  0  0  0  0  0  0  0  0  0  0  0
   -6.7080   24.4410  -29.8730 C   0  0  0  0  0  0  0  0  0  0  0  0
   -7.1060   23.0030  -30.1150 C   0  0  0  0  0  0  0  0  0  0  0  0
   -6.7660   22.6010  -31.5340 C   0  0  2  0  0  0  0  0  0  0  0  0
   -5.2700   22.7270  -31.6910 C   0  0  0  0  0  0  0  0  0  0  0  0
   -7.4590   23.4070  -32.4910 N   0  0  0  0  0  0  0  0  0  0  0  0
   -8.8750   23.3870  -32.3170 C   0  0  0  0  0  0  0  0  0  0  0  0
   -9.4970   22.0450  -32.1300 C   0  0  0  0  0  0  0  0  0  0  0  0
   -8.4970   20.9380  -31.9880 C   0  0  0  0  0  0  0  0  0  0  0  0
   -8.6940   19.6130  -32.1070 N   0  0  0  0  0  0  0  0  0  0  0  0
   -7.5100   19.0230  -31.8980 C   0  0  0  0  0  0  0  0  0  0  0  0
   -6.5870   19.9770  -31.6520 N   0  0  0  0  0  0  0  0  0  0  0  0
   -7.1710   21.1890  -31.7000 C   0  0  0  0  0  0  0  0  0  0  0  0
   -3.1274   24.5050  -26.2882 H   0  0  0  0  0  0  0  0  0  0  0  0
   -4.4801   25.4467  -27.0023 H   0  0  0  0  0  0  0  0  0  0  0  0
   -4.5373   23.6514  -27.0023 H   0  0  0  0  0  0  0  0  0  0  0  0
   -2.8505   22.6109  -28.9042 H   0  0  0  0  0  0  0  0  0  0  0  0
   -4.5847   23.0973  -28.8935 H   0  0  0  0  0  0  0  0  0  0  0  0
   -2.9395   24.7802  -30.6002 H   0  0  0  0  0  0  0  0  0  0  0  0
   -2.9266   22.9948  -31.0442 H   0  0  0  0  0  0  0  0  0  0  0  0
   -5.0085   25.6531  -30.1434 H   0  0  0  0  0  0  0  0  0  0  0  0
   -6.0812   25.3833  -31.6168 H   0  0  0  0  0  0  0  0  0  0  0  0
   -6.3942   24.5365  -28.8230 H   0  0  0  0  0  0  0  0  0  0  0  0
   -7.5891   25.0508  -30.1216 H   0  0  0  0  0  0  0  0  0  0  0  0
   -6.5641   22.3524  -29.4128 H   0  0  0  0  0  0  0  0  0  0  0  0
   -8.1902   22.8987  -29.9612 H   0  0  0  0  0  0  0  0  0  0  0  0
   -4.7973   21.9056  -31.1325 H   0  0  0  0  0  0  0  0  0  0  0  0
   -5.0689   22.6906  -32.7718 H   0  0  0  0  0  0  0  0  0  0  0  0
   -7.1730   23.1990  -33.4530 H   0  0  0  0  0  0  0  0  0  0  0  0
   -9.1127   23.9934  -31.4305 H   0  0  0  0  0  0  0  0  0  0  0  0
   -9.2924   23.7761  -33.2574 H   0  0  0  0  0  0  0  0  0  0  0  0
  -10.1177   22.0722  -31.2223 H   0  0  0  0  0  0  0  0  0  0  0  0
  -10.0883   21.8334  -33.0331 H   0  0  0  0  0  0  0  0  0  0  0  0
   -9.5950   19.1510  -32.3230 H   0  0  0  0  0  0  0  0  0  0  0  0
   -7.3208   17.9397  -31.9227 H   0  0  0  0  0  0  0  0  0  0  0  0
  1  2  1  0
  2  3  1  0
  3  4  1  0
  4  5  1  0
  5  6  1  0
  6  7  1  0
  7  8  1  0
  8  9  1  0
  9 10  1  0
  9 11  1  6
 11 12  1  0
 12 13  1  0
 13 14  1  0
 14 15  1  0
 15 16  1  0
 16 17  2  0
 17 18  1  0
 10  5  1  0
 18 14  2  0
 18  9  1  0
  1 19  1  0
  1 20  1  0
  1 21  1  0
  3 22  1  0
  3 23  1  0
  4 24  1  0
  4 25  1  0
  6 26  1  0
  6 27  1  0
  7 28  1  0
  7 29  1  0
  8 30  1  0
  8 31  1  0
 10 32  1  0
 10 33  1  0
 11 34  1  0
 12 35  1  0
 12 36  1  0
 13 37  1  0
 13 38  1  0
 15 39  1  0
 16 40  1  0
M  END
>  <smiles>  (9) 
COCCN1CCCC2(C1)NCCc1[nH]cnc12

>  <score_type>  (9) 
oracle

>  <origin>  (9) 
adg

>  <m_score__min__energy>  (9) 
-7.8399999999999999

>  <m_primary>  (9) 
energy

$$$$
10:0
     RDKit          3D

 49 52  0  0  0  0  0  0  0  0999 V2000
   -2.3170   20.8950  -28.5270 C   0  0  0  0  0  0  0  0  0  0  0  0
   -1.3120   21.4330  -29.3590 O   0  0  0  0  0  0  0  0  0  0  0  0
   -1.4770   21.4470  -30.7370 C   0  0  0  0  0  0  0  0  0  0  0  0
   -2.7980   21.4170  -31.1880 C   0  0  0  0  0  0  0  0  0  0  0  0
   -3.0960   21.4270  -32.5370 C   0  0  0  0  0  0  0  0  0  0  0  0
   -4.4320   21.3980  -33.0180 N   0  0  0  0  0  0  0  0  0  0  0  0
   -5.4870   20.6280  -32.3660 C   0  0  0  0  0  0  0  0  0  0  0  0
   -6.6380   21.4660  -32.0190 C   0  0  0  0  0  0  0  0  0  0  0  0
   -7.9590   21.2000  -32.3940 C   0  0  0  0  0  0  0  0  0  0  0  0
   -8.7630   22.1800  -31.9020 C   0  0  0  0  0  0  0  0  0  0  0  0
   -7.9540   23.0540  -31.2250 C   0  0  0  0  0  0  0  0  0  0  0  0
   -6.6830   22.6050  -31.3090 N   0  0  0  0  0  0  0  0  0  0  0  0
   -5.5910   23.2640  -30.7210 C   0  0  0  0  0  0  0  0  0  0  0  0
   -4.7160   24.1670  -31.2030 N   0  0  0  0  0  0  0  0  0  0  0  0
   -3.8120   24.5890  -30.4060 N   0  0  0  0  0  0  0  0  0  0  0  0
   -3.6430   24.2670  -29.2430 C   0  0  0  0  0  0  0  0  0  0  0  0
   -2.7360   24.5980  -28.2110 N   0  0  0  0  0  0  0  0  0  0  0  0
   -3.1260   24.8030  -26.8360 C   0  0  0  0  0  0  0  0  0  0  0  0
   -2.0550   25.7550  -26.3520 C   0  0  0  0  0  0  0  0  0  0  0  0
   -0.8130   25.2370  -27.0490 C   0  0  0  0  0  0  0  0  0  0  0  0
   -1.3320   24.7740  -28.3760 C   0  0  0  0  0  0  0  0  0  0  0  0
   -0.6740   24.5760  -29.4280 O   0  0  0  0  0  0  0  0  0  0  0  0
   -5.0170   23.0560  -29.0120 S   0  0  0  0  0  0  0  0  0  0  0  0
   -2.0330   21.4680  -33.4430 C   0  0  0  0  0  0  0  0  0  0  0  0
   -0.7200   21.4970  -32.9690 C   0  0  0  0  0  0  0  0  0  0  0  0
    0.2820   21.5370  -33.9320 O   0  0  0  0  0  0  0  0  0  0  0  0
   -0.0010   21.0410  -35.2160 C   0  0  0  0  0  0  0  0  0  0  0  0
   -0.4290   21.4880  -31.6200 C   0  0  0  0  0  0  0  0  0  0  0  0
   -2.0391   21.0438  -27.4731 H   0  0  0  0  0  0  0  0  0  0  0  0
   -3.2715   21.4028  -28.7297 H   0  0  0  0  0  0  0  0  0  0  0  0
   -2.4237   19.8191  -28.7297 H   0  0  0  0  0  0  0  0  0  0  0  0
   -3.6175   21.3848  -30.4549 H   0  0  0  0  0  0  0  0  0  0  0  0
   -4.6520   21.9550  -33.8740 H   0  0  0  0  0  0  0  0  0  0  0  0
   -5.8194   19.8313  -33.0478 H   0  0  0  0  0  0  0  0  0  0  0  0
   -5.0778   20.2074  -31.4356 H   0  0  0  0  0  0  0  0  0  0  0  0
   -8.2932   20.3380  -32.9901 H   0  0  0  0  0  0  0  0  0  0  0  0
   -9.8535   22.2563  -32.0241 H   0  0  0  0  0  0  0  0  0  0  0  0
   -8.2829   23.9646  -30.7029 H   0  0  0  0  0  0  0  0  0  0  0  0
   -4.1261   25.2556  -26.7661 H   0  0  0  0  0  0  0  0  0  0  0  0
   -3.1972   23.8754  -26.2491 H   0  0  0  0  0  0  0  0  0  0  0  0
   -2.2773   26.7893  -26.6534 H   0  0  0  0  0  0  0  0  0  0  0  0
   -1.9607   25.7872  -25.2565 H   0  0  0  0  0  0  0  0  0  0  0  0
   -0.0685   26.0370  -27.1742 H   0  0  0  0  0  0  0  0  0  0  0  0
   -0.3019   24.4428  -26.4851 H   0  0  0  0  0  0  0  0  0  0  0  0
   -2.2298   21.4774  -34.5252 H   0  0  0  0  0  0  0  0  0  0  0  0
   -0.5444   20.0885  -35.1296 H   0  0  0  0  0  0  0  0  0  0  0  0
   -0.6201   21.7682  -35.7617 H   0  0  0  0  0  0  0  0  0  0  0  0
    0.9401   20.8780  -35.7617 H   0  0  0  0  0  0  0  0  0  0  0  0
    0.6116   21.5130  -31.2642 H   0  0  0  0  0  0  0  0  0  0  0  0
  1  2  1  0
  2  3  1  0
  3  4  2  0
  4  5  1  0
  5  6  1  0
  6  7  1  0
  7  8  1  0
  8  9  2  0
  9 10  1  0
 10 11  2  0
 11 12  1  0
 12 13  1  0
 13 14  2  0
 14 15  1  0
 15 16  2  0
 16 17  1  0
 17 18  1  0
 18 19  1  0
 19 20  1  0
 20 21  1  0
 21 22  2  0
 16 23  1  0
  5 24  2  0
 24 25  1  0
 25 26  1  0
 26 27  1  0
 25 28  2  0
 28  3  1  0
 12  8  1  0
 23 13  1  0
 21 17  1  0
  1 29  1  0
  1 30  1  0
  1 31  1  0
  4 32  1  0
  6 33  1  0
  7 34  1  0
  7 35  1  0
  9 36  1  0
 10 37  1  0
 11 38  1  0
 18 39  1  0
 18 40  1  0
 19 41  1  0
 19 42  1  0
 20 43  1  0
 20 44  1  0
 24 45  1  0
 27 46  1  0
 27 47  1  0
 27 48  1  0
 28 49  1  0
M  END
>  <smiles>  (10) 
COc1cc(NCc2cccn2-c2nnc(N3CCCC3=O)s2)cc(OC)c1

>  <score_type>  (10) 
oracle

>  <origin>  (10) 
adg

>  <m_score__min__energy>  (10) 
-8.4800000000000004

>  <m_primary>  (10) 
energy

$$$$
11:0
     RDKit          3D

 50 52  0  0  0  0  0  0  0  0999 V2000
   -9.6360   21.1240  -31.9010 C   0  0  0  0  0  0  0  0  0  0  0  0
   -8.5940   20.1090  -32.0640 C   0  0  0  0  0  0  0  0  0  0  0  0
   -8.8930   18.7930  -32.3400 C   0  0  0  0  0  0  0  0  0  0  0  0
   -7.9470   17.8060  -32.4990 C   0  0  0  0  0  0  0  0  0  0  0  0
   -6.6150   18.1550  -32.3750 C   0  0  0  0  0  0  0  0  0  0  0  0
   -6.2920   19.4650  -32.0990 C   0  0  0  0  0  0  0  0  0  0  0  0
   -7.2590   20.4590  -31.9390 C   0  0  0  0  0  0  0  0  0  0  0  0
   -6.7980   21.7530  -31.6670 N   0  0  0  0  0  0  0  0  0  0  0  0
   -7.0240   22.9070  -32.5480 C   0  0  0  0  0  0  0  0  0  0  0  0
   -6.4880   24.1570  -31.8700 C   0  0  0  0  0  0  0  0  0  0  0  0
   -6.9180   24.3510  -30.5360 N   0  0  0  0  0  0  0  0  0  0  0  0
   -6.0180   25.3200  -29.9000 C   0  0  0  0  0  0  0  0  0  0  0  0
   -4.6500   25.3030  -30.4860 C   0  0  0  0  0  0  0  0  0  0  0  0
   -3.7210   24.4590  -29.8310 N   0  0  0  0  0  0  0  0  0  0  0  0
   -3.9840   24.1800  -28.4560 C   0  0  0  0  0  0  0  0  0  0  0  0
   -2.6660   24.3600  -27.7240 C   0  0  0  0  0  0  0  0  0  0  0  0
   -1.5580   23.9530  -28.6620 C   0  0  0  0  0  0  0  0  0  0  0  0
   -1.9980   22.8760  -29.6570 C   0  0  0  0  0  0  0  0  0  0  0  0
   -3.1240   23.4070  -30.5570 C   0  0  0  0  0  0  0  0  0  0  0  0
   -6.9150   23.1510  -29.7720 C   0  0  0  0  0  0  0  0  0  0  0  0
   -6.0400   22.0920  -30.4430 C   0  0  0  0  0  0  0  0  0  0  0  0
   -9.8143   21.2977  -30.8295 H   0  0  0  0  0  0  0  0  0  0  0  0
   -9.3117   22.0619  -32.3755 H   0  0  0  0  0  0  0  0  0  0  0  0
  -10.5651   20.7752  -32.3755 H   0  0  0  0  0  0  0  0  0  0  0  0
   -9.9524   18.5139  -32.4394 H   0  0  0  0  0  0  0  0  0  0  0  0
   -8.2422   16.7693  -32.7184 H   0  0  0  0  0  0  0  0  0  0  0  0
   -5.8257   17.3983  -32.4949 H   0  0  0  0  0  0  0  0  0  0  0  0
   -5.2311   19.7386  -32.0008 H   0  0  0  0  0  0  0  0  0  0  0  0
   -6.4998   22.7511  -33.5024 H   0  0  0  0  0  0  0  0  0  0  0  0
   -8.1005   23.0215  -32.7430 H   0  0  0  0  0  0  0  0  0  0  0  0
   -5.3896   24.0986  -31.8682 H   0  0  0  0  0  0  0  0  0  0  0  0
   -6.8822   25.0083  -32.4443 H   0  0  0  0  0  0  0  0  0  0  0  0
   -6.4415   26.3276  -30.0238 H   0  0  0  0  0  0  0  0  0  0  0  0
   -5.9287   25.0441  -28.8389 H   0  0  0  0  0  0  0  0  0  0  0  0
   -4.7324   24.9709  -31.5314 H   0  0  0  0  0  0  0  0  0  0  0  0
   -4.2602   26.3259  -30.3776 H   0  0  0  0  0  0  0  0  0  0  0  0
   -4.7365   24.8794  -28.0628 H   0  0  0  0  0  0  0  0  0  0  0  0
   -4.3787   23.1619  -28.3234 H   0  0  0  0  0  0  0  0  0  0  0  0
   -2.5410   25.4131  -27.4320 H   0  0  0  0  0  0  0  0  0  0  0  0
   -2.6448   23.7427  -26.8138 H   0  0  0  0  0  0  0  0  0  0  0  0
   -1.2285   24.8392  -29.2242 H   0  0  0  0  0  0  0  0  0  0  0  0
   -0.7429   23.5334  -28.0542 H   0  0  0  0  0  0  0  0  0  0  0  0
   -1.1400   22.5875  -30.2819 H   0  0  0  0  0  0  0  0  0  0  0  0
   -2.3687   22.0039  -29.0984 H   0  0  0  0  0  0  0  0  0  0  0  0
   -2.7136   23.7798  -31.5070 H   0  0  0  0  0  0  0  0  0  0  0  0
   -3.8507   22.6207  -30.8090 H   0  0  0  0  0  0  0  0  0  0  0  0
   -6.5210   23.3626  -28.7670 H   0  0  0  0  0  0  0  0  0  0  0  0
   -7.9447   22.7704  -29.7029 H   0  0  0  0  0  0  0  0  0  0  0  0
   -5.0493   22.4995  -30.6928 H   0  0  0  0  0  0  0  0  0  0  0  0
   -5.8476   21.2207  -29.7997 H   0  0  0  0  0  0  0  0  0  0  0  0
  1  2  1  0
  2  3  2  0
  3  4  1  0
  4  5  2  0
  5  6  1  0
  6  7  2  0
  7  8  1  0
  8  9  1  0
  9 10  1  0
 10 11  1  0
 11 12  1  0
 12 13  1  0
 13 14  1  0
 14 15  1  0
 15 16  1  0
 16 17  1  0
 17 18  1  0
 18 19  1  0
 11 20  1  0
 20 21  1  0
  7  2  1  0
 21  8  1  0
 19 14  1  0
  1 22  1  0
  1 23  1  0
  1 24  1  0
  3 25  1  0
  4 26  1  0
  5 27  1  0
  6 28  1  0
  9 29  1  0
  9 30  1  0
 10 31  1  0
 10 32  1  0
 12 33  1  0
 12 34  1  0
 13 35  1  0
 13 36  1  0
 15 37  1  0
 15 38  1  0
 16 39  1  0
 16 40  1  0
 17 41  1  0
 17 42  1  0
 18 43  1  0
 18 44  1  0
 19 45  1  0
 19 46  1  0
 20 47  1  0
 20 48  1  0
 21 49  1  0
 21 50  1  0
M  END
>  <smiles>  (11) 
Cc1ccccc1N1CCN(CCN2CCCCC2)CC1

>  <score_type>  (11) 
oracle

>  <origin>  (11) 
adg

>  <m_score__min__energy>  (11) 
-8.1099999999999994

>  <m_primary>  (11) 
energy

$$$$
12:0
     RDKit          3D

 50 53  0  0  1  0  0  0  0  0999 V2000
   -2.2020   16.0840  -34.6410 C   0  0  0  0  0  0  0  0  0  0  0  0
   -3.4320   16.1760  -35.3180 O   0  0  0  0  0  0  0  0  0  0  0  0
   -4.4890   16.7970  -34.6650 C   0  0  0  0  0  0  0  0  0  0  0  0
   -5.5450   16.1020  -34.1100 C   0  0  0  0  0  0  0  0  0  0  0  0
   -6.5300   16.8070  -33.4910 C   0  0  0  0  0  0  0  0  0  0  0  0
   -6.5210   18.2000  -33.3920 C   0  0  0  0  0  0  0  0  0  0  0  0
   -7.5930   18.9300  -32.7220 C   0  0  0  0  0  0  0  0  0  0  0  0
   -8.7560   18.4850  -32.3550 N   0  0  0  0  0  0  0  0  0  0  0  0
   -9.4830   19.4890  -31.7520 O   0  0  0  0  0  0  0  0  0  0  0  0
   -8.9890   20.7020  -32.2910 C   0  0  1  0  0  0  0  0  0  0  0  0
   -9.2610   21.8780  -31.3910 C   0  0  0  0  0  0  0  0  0  0  0  0
   -8.0450   22.6680  -31.3380 N   0  0  0  0  0  0  0  0  0  0  0  0
   -7.6360   23.4450  -32.3590 C   0  0  0  0  0  0  0  0  0  0  0  0
   -6.4430   24.0630  -31.9880 C   0  0  0  0  0  0  0  0  0  0  0  0
   -6.1680   23.6200  -30.7120 C   0  0  0  0  0  0  0  0  0  0  0  0
   -4.9930   24.0370  -29.9540 C   0  0  0  0  0  0  0  0  0  0  0  0
   -4.0940   24.6660  -30.5700 O   0  0  0  0  0  0  0  0  0  0  0  0
   -4.8780   23.7350  -28.5560 N   0  0  0  0  0  0  0  0  0  0  0  0
   -3.7350   24.1430  -27.8280 C   0  0  0  0  0  0  0  0  0  0  0  0
   -3.8240   24.9280  -26.6760 C   0  0  0  0  0  0  0  0  0  0  0  0
   -2.6670   25.3060  -25.9920 C   0  0  0  0  0  0  0  0  0  0  0  0
   -1.4390   24.8730  -26.4980 C   0  0  0  0  0  0  0  0  0  0  0  0
   -1.3560   24.1010  -27.6310 C   0  0  0  0  0  0  0  0  0  0  0  0
   -0.0990   23.6590  -28.1470 N   0  0  0  0  0  0  0  0  0  0  0  0
    0.7570   24.4700  -28.5660 O   0  0  0  0  0  0  0  0  0  0  0  0
    0.1590   22.3120  -28.1760 O   0  0  0  0  0  0  0  0  0  0  0  0
   -2.4950   23.7240  -28.3130 C   0  0  0  0  0  0  0  0  0  0  0  0
   -7.1590   22.7830  -30.3600 N   0  0  0  0  0  0  0  0  0  0  0  0
   -7.5030   20.3660  -32.3440 C   0  0  0  0  0  0  0  0  0  0  0  0
   -5.4610   18.8890  -33.9490 C   0  0  0  0  0  0  0  0  0  0  0  0
   -4.4360   18.1940  -34.5900 C   0  0  0  0  0  0  0  0  0  0  0  0
   -2.3791   16.0972  -33.5554 H   0  0  0  0  0  0  0  0  0  0  0  0
   -1.6996   15.1458  -34.9191 H   0  0  0  0  0  0  0  0  0  0  0  0
   -1.5657   16.9371  -34.9191 H   0  0  0  0  0  0  0  0  0  0  0  0
   -5.5888   15.0044  -34.1670 H   0  0  0  0  0  0  0  0  0  0  0  0
   -7.3720   16.2547  -33.0482 H   0  0  0  0  0  0  0  0  0  0  0  0
   -9.4407   21.0020  -33.2480 H   0  0  0  0  0  0  0  0  0  0  0  0
  -10.0852   22.4818  -31.7985 H   0  0  0  0  0  0  0  0  0  0  0  0
   -9.5518   21.5409  -30.3851 H   0  0  0  0  0  0  0  0  0  0  0  0
   -8.1546   23.5705  -33.3210 H   0  0  0  0  0  0  0  0  0  0  0  0
   -5.8435   24.7614  -32.5903 H   0  0  0  0  0  0  0  0  0  0  0  0
   -5.6290   23.2120  -28.0530 H   0  0  0  0  0  0  0  0  0  0  0  0
   -4.8089   25.2494  -26.3065 H   0  0  0  0  0  0  0  0  0  0  0  0
   -2.7207   25.9247  -25.0841 H   0  0  0  0  0  0  0  0  0  0  0  0
   -0.5140   25.1578  -25.9752 H   0  0  0  0  0  0  0  0  0  0  0  0
   -2.4271   23.1059  -29.2204 H   0  0  0  0  0  0  0  0  0  0  0  0
   -6.9745   20.9589  -33.1050 H   0  0  0  0  0  0  0  0  0  0  0  0
   -6.9413   20.5744  -31.4215 H   0  0  0  0  0  0  0  0  0  0  0  0
   -5.4255   19.9867  -33.8868 H   0  0  0  0  0  0  0  0  0  0  0  0
   -3.5908   18.7402  -35.0341 H   0  0  0  0  0  0  0  0  0  0  0  0
  1  2  1  0
  2  3  1  0
  3  4  2  0
  4  5  1  0
  5  6  2  0
  6  7  1  0
  7  8  2  0
  8  9  1  0
  9 10  1  0
 10 11  1  0
 11 12  1  0
 12 13  1  0
 13 14  2  0
 14 15  1  0
 15 16  1  0
 16 17  2  0
 16 18  1  0
 18 19  1  0
 19 20  2  0
 20 21  1  0
 21 22  2  0
 22 23  1  0
 23 24  1  0
 24 25  2  0
 24 26  1  0
 23 27  2  0
 15 28  2  0
 10 29  1  0
  6 30  1  0
 30 31  2  0
 31  3  1  0
 29  7  1  0
 28 12  1  0
 27 19  1  0
  1 32  1  0
  1 33  1  0
  1 34  1  0
  4 35  1  0
  5 36  1  0
 10 37  1  6
 11 38  1  0
 11 39  1  0
 13 40  1  0
 14 41  1  0
 18 42  1  0
 20 43  1  0
 21 44  1  0
 22 45  1  0
 27 46  1  0
 29 47  1  0
 29 48  1  0
 30 49  1  0
 31 50  1  0
M  CHG  2  24   1  26  -1
M  END
>  <smiles>  (12) 
COc1ccc(C2=NOC(Cn3ccc(C(=O)Nc4cccc([N+](=O)[O-])c4)n3)C2)cc1

>  <score_type>  (12) 
oracle

>  <origin>  (12) 
adg

>  <m_score__min__energy>  (12) 
-10.69

>  <m_primary>  (12) 
energy

$$$$
13:0
     RDKit          3D

 37 39  0  0  0  0  0  0  0  0999 V2000
   -2.9320   19.8400  -33.8440 C   0  0  0  0  0  0  0  0  0  0  0  0
   -4.3700   19.7290  -33.4090 C   0  0  0  0  0  0  0  0  0  0  0  0
   -4.9470   18.4850  -33.3450 C   0  0  0  0  0  0  0  0  0  0  0  0
   -6.2600   18.4100  -32.9450 C   0  0  0  0  0  0  0  0  0  0  0  0
   -6.9410   17.1180  -32.8530 C   0  0  0  0  0  0  0  0  0  0  0  0
   -6.9370   19.5930  -32.6260 C   0  0  0  0  0  0  0  0  0  0  0  0
   -8.1820   19.8790  -32.2150 N   0  0  0  0  0  0  0  0  0  0  0  0
   -8.3290   21.2090  -32.0480 C   0  0  0  0  0  0  0  0  0  0  0  0
   -9.5510   21.9320  -31.6030 C   0  0  0  0  0  0  0  0  0  0  0  0
   -7.1590   21.7900  -32.3570 N   0  0  0  0  0  0  0  0  0  0  0  0
   -6.7890   23.1950  -32.3420 C   0  0  0  0  0  0  0  0  0  0  0  0
   -5.9270   23.5230  -31.1970 C   0  0  0  0  0  0  0  0  0  0  0  0
   -6.4780   24.2460  -30.1410 C   0  0  0  0  0  0  0  0  0  0  0  0
   -5.7200   24.5680  -29.0680 N   0  0  0  0  0  0  0  0  0  0  0  0
   -4.4350   24.2170  -28.9720 C   0  0  0  0  0  0  0  0  0  0  0  0
   -3.7380   24.5450  -27.9270 N   0  0  0  0  0  0  0  0  0  0  0  0
   -3.8850   23.5020  -30.0150 C   0  0  0  0  0  0  0  0  0  0  0  0
   -2.1920   23.0540  -29.8610 Cl  0  0  0  0  0  0  0  0  0  0  0  0
   -4.6030   23.1390  -31.1420 C   0  0  0  0  0  0  0  0  0  0  0  0
   -6.2760   20.8160  -32.7190 C   0  0  0  0  0  0  0  0  0  0  0  0
   -4.9910   20.8630  -33.1120 N   0  0  0  0  0  0  0  0  0  0  0  0
   -2.2834   19.8901  -32.9570 H   0  0  0  0  0  0  0  0  0  0  0  0
   -2.6622   18.9600  -34.4463 H   0  0  0  0  0  0  0  0  0  0  0  0
   -2.8004   20.7510  -34.4463 H   0  0  0  0  0  0  0  0  0  0  0  0
   -4.3785   17.5798  -33.6047 H   0  0  0  0  0  0  0  0  0  0  0  0
   -7.0812   16.8520  -31.7949 H   0  0  0  0  0  0  0  0  0  0  0  0
   -7.9214   17.1842  -33.3475 H   0  0  0  0  0  0  0  0  0  0  0  0
   -6.3323   16.3466  -33.3475 H   0  0  0  0  0  0  0  0  0  0  0  0
   -9.5852   21.9522  -30.5037 H   0  0  0  0  0  0  0  0  0  0  0  0
   -9.5283   22.9621  -31.9882 H   0  0  0  0  0  0  0  0  0  0  0  0
  -10.4429   21.4161  -31.9882 H   0  0  0  0  0  0  0  0  0  0  0  0
   -6.2503   23.4308  -33.2716 H   0  0  0  0  0  0  0  0  0  0  0  0
   -7.7107   23.7892  -32.2559 H   0  0  0  0  0  0  0  0  0  0  0  0
   -7.5327   24.5559  -30.1801 H   0  0  0  0  0  0  0  0  0  0  0  0
   -6.1740   25.1030  -28.3130 H   0  0  0  0  0  0  0  0  0  0  0  0
   -4.0180   25.4580  -27.4690 H   0  0  0  0  0  0  0  0  0  0  0  0
   -4.1373   22.5685  -31.9591 H   0  0  0  0  0  0  0  0  0  0  0  0
  1  2  1  0
  2  3  2  0
  3  4  1  0
  4  5  1  0
  4  6  2  0
  6  7  1  0
  7  8  2  0
  8  9  1  0
  8 10  1  0
 10 11  1  0
 11 12  1  0
 12 13  2  0
 13 14  1  0
 14 15  1  0
 15 16  2  3
 15 17  1  0
 17 18  1  0
 17 19  2  0
 10 20  1  0
 20 21  2  0
 21  2  1  0
 20  6  1  0
 19 12  1  0
  1 22  1  0
  1 23  1  0
  1 24  1  0
  3 25  1  0
  5 26  1  0
  5 27  1  0
  5 28  1  0
  9 29  1  0
  9 30  1  0
  9 31  1  0
 11 32  1  0
 11 33  1  0
 13 34  1  0
 14 35  1  0
 16 36  1  0
 19 37  1  0
M  END
>  <smiles>  (13) 
Cc1cc(C)c2nc(C)n(Cc3c[nH]c(=N)c(Cl)c3)c2n1

>  <score_type>  (13) 
oracle

>  <origin>  (13) 
adg

>  <m_score__min__energy>  (13) 
-8.7300000000000004

>  <m_primary>  (13) 
energy

$$$$
14:0
     RDKit          3D

 22 22  0  0  1  0  0  0  0  0999 V2000
   -5.7430   25.7380  -30.0640 C   0  0  0  0  0  0  0  0  0  0  0  0
   -4.7960   25.0210  -30.8400 O   0  0  0  0  0  0  0  0  0  0  0  0
   -5.0050   23.7030  -31.2280 C   0  0  0  0  0  0  0  0  0  0  0  0
   -4.0400   23.0360  -31.6760 O   0  0  0  0  0  0  0  0  0  0  0  0
   -6.3250   23.1130  -31.1170 C   0  0  0  0  0  0  0  0  0  0  0  0
   -6.9670   22.7040  -32.1470 N   0  0  0  0  0  0  0  0  0  0  0  0
   -6.0200   20.5720  -33.0530 C   0  0  0  0  0  0  0  0  0  0  0  0
   -7.1070   21.3070  -32.3750 C   0  0  0  0  0  0  0  0  0  0  0  0
   -8.3170   19.1990  -32.2340 C   0  0  0  0  0  0  0  0  0  0  0  0
   -9.3460   18.5660  -31.8710 O   0  0  0  0  0  0  0  0  0  0  0  0
   -8.1950   20.6430  -31.9890 C   0  0  0  0  0  0  0  0  0  0  0  0
   -6.1300   19.1320  -33.3030 C   0  0  0  0  0  0  0  0  0  0  0  0
   -7.2250   18.4720  -32.9140 C   0  0  0  0  0  0  0  0  0  0  0  0
   -4.9450   21.1450  -33.4510 N   0  0  0  0  0  0  0  0  0  0  0  0
   -5.5355   25.5809  -28.9952 H   0  0  0  0  0  0  0  0  0  0  0  0
   -5.6717   26.8105  -30.2976 H   0  0  0  0  0  0  0  0  0  0  0  0
   -6.7560   25.3784  -30.2976 H   0  0  0  0  0  0  0  0  0  0  0  0
   -6.7864   23.0143  -30.1234 H   0  0  0  0  0  0  0  0  0  0  0  0
   -5.3136   18.5961  -33.8093 H   0  0  0  0  0  0  0  0  0  0  0  0
   -7.3131   17.3913  -33.0994 H   0  0  0  0  0  0  0  0  0  0  0  0
   -9.0100   21.1804  -31.4820 H   0  0  0  0  0  0  0  0  0  0  0  0
   -4.8890   22.1870  -33.4740 H   0  0  0  0  0  0  0  0  0  0  0  0
  1  2  1  0
  2  3  1  0
  3  4  2  0
  3  5  1  0
  5  6  2  0
  6  7  1  0
  7  8  2  0
  8  9  1  0
  9 10  2  0
  9 11  1  0
 11 12  2  0
 12 13  1  0
 13 14  2  3
 13  7  1  0
  1 15  1  0
  1 16  1  0
  1 17  1  0
  5 18  1  0
  8 19  1  0
 11 20  1  0
 12 21  1  0
 14 22  1  0
M  END
>  <smiles>  (14) 
COC(=O)C=NC1=CC(=O)C=CC1=N

>  <score_type>  (14) 
oracle

>  <origin>  (14) 
adg

>  <m_score__min__energy>  (14) 
-5.7699999999999996

>  <m_primary>  (14) 
energy

$$$$
15:0
     RDKit          3D

 40 42  0  0  1  0  0  0  0  0999 V2000
   -0.8630   26.7440  -27.7600 C   0  0  0  0  0  0  0  0  0  0  0  0
   -1.5790   26.0860  -28.7820 O   0  0  0  0  0  0  0  0  0  0  0  0
   -1.8980   24.7240  -28.6180 C   0  0  0  0  0  0  0  0  0  0  0  0
   -2.7670   24.3640  -27.6060 C   0  0  0  0  0  0  0  0  0  0  0  0
   -3.0930   23.0320  -27.4270 C   0  0  0  0  0  0  0  0  0  0  0  0
   -2.5420   22.0860  -28.2670 C   0  0  0  0  0  0  0  0  0  0  0  0
   -1.6630   22.4790  -29.2830 C   0  0  0  0  0  0  0  0  0  0  0  0
   -1.1520   21.4100  -30.0930 N   0  0  0  0  0  0  0  0  0  0  0  0
   -1.5230   21.2610  -31.3190 C   0  0  0  0  0  0  0  0  0  0  0  0
   -0.6710   20.6680  -32.2290 C   0  0  0  0  0  0  0  0  0  0  0  0
   -1.0410   20.4930  -33.5600 C   0  0  0  0  0  0  0  0  0  0  0  0
   -2.2500   20.9130  -33.9530 N   0  0  0  0  0  0  0  0  0  0  0  0
   -3.0720   21.4850  -33.0760 C   0  0  0  0  0  0  0  0  0  0  0  0
   -4.2380   21.8970  -33.4260 N   0  0  0  0  0  0  0  0  0  0  0  0
   -5.1810   22.4270  -32.5020 C   0  0  0  0  0  0  0  0  0  0  0  0
   -6.4390   21.8390  -32.3470 C   0  0  0  0  0  0  0  0  0  0  0  0
   -7.3650   22.3210  -31.4710 C   0  0  0  0  0  0  0  0  0  0  0  0
   -7.0300   23.4290  -30.7220 C   0  0  0  0  0  0  0  0  0  0  0  0
   -5.7910   23.9830  -30.8960 C   0  0  0  0  0  0  0  0  0  0  0  0
   -5.4290   25.1780  -30.0880 C   0  0  0  0  0  0  0  0  0  0  0  0
   -4.8670   23.5180  -31.7560 N   0  0  0  0  0  0  0  0  0  0  0  0
   -2.7210   21.6580  -31.7840 N   0  0  0  0  0  0  0  0  0  0  0  0
   -1.3340   23.7890  -29.4700 C   0  0  0  0  0  0  0  0  0  0  0  0
   -1.2301   26.4066  -26.7795 H   0  0  0  0  0  0  0  0  0  0  0  0
    0.2074   26.5079  -27.8518 H   0  0  0  0  0  0  0  0  0  0  0  0
   -1.0080   27.8305  -27.8518 H   0  0  0  0  0  0  0  0  0  0  0  0
   -3.1970   25.1323  -26.9466 H   0  0  0  0  0  0  0  0  0  0  0  0
   -3.7829   22.7304  -26.6251 H   0  0  0  0  0  0  0  0  0  0  0  0
   -2.7936   21.0229  -28.1382 H   0  0  0  0  0  0  0  0  0  0  0  0
    0.3203   20.3268  -31.8960 H   0  0  0  0  0  0  0  0  0  0  0  0
   -0.3529   20.0186  -34.2751 H   0  0  0  0  0  0  0  0  0  0  0  0
   -2.5640   20.8000  -34.9410 H   0  0  0  0  0  0  0  0  0  0  0  0
   -6.6907   20.9563  -32.9532 H   0  0  0  0  0  0  0  0  0  0  0  0
   -8.3490   21.8410  -31.3648 H   0  0  0  0  0  0  0  0  0  0  0  0
   -7.7421   23.8576  -30.0014 H   0  0  0  0  0  0  0  0  0  0  0  0
   -5.5031   24.9334  -29.0181 H   0  0  0  0  0  0  0  0  0  0  0  0
   -4.3985   25.4818  -30.3241 H   0  0  0  0  0  0  0  0  0  0  0  0
   -6.1176   26.0026  -30.3241 H   0  0  0  0  0  0  0  0  0  0  0  0
   -3.3840   22.1100  -31.1140 H   0  0  0  0  0  0  0  0  0  0  0  0
   -0.6438   24.0930  -30.2707 H   0  0  0  0  0  0  0  0  0  0  0  0
  1  2  1  0
  2  3  1  0
  3  4  2  0
  4  5  1  0
  5  6  2  0
  6  7  1  0
  7  8  1  0
  8  9  2  0
  9 10  1  0
 10 11  2  0
 11 12  1  0
 12 13  1  0
 13 14  2  0
 14 15  1  0
 15 16  2  0
 16 17  1  0
 17 18  2  0
 18 19  1  0
 19 20  1  0
 19 21  2  0
 13 22  1  0
  7 23  2  0
 23  3  1  0
 22  9  1  0
 21 15  1  0
  1 24  1  0
  1 25  1  0
  1 26  1  0
  4 27  1  0
  5 28  1  0
  6 29  1  0
 10 30  1  0
 11 31  1  0
 12 32  1  0
 16 33  1  0
 17 34  1  0
 18 35  1  0
 20 36  1  0
 20 37  1  0
 20 38  1  0
 22 39  1  0
 23 40  1  0
M  END
>  <smiles>  (15) 
COc1cccc(N=c2cc[nH]c(=Nc3cccc(C)n3)[nH]2)c1

>  <score_type>  (15) 
oracle

>  <origin>  (15) 
adg

>  <m_score__min__energy>  (15) 
-7.8499999999999996

>  <m_primary>  (15) 
energy

$$$$
16:0
     RDKit          3D

 29 31  0  0  1  0  0  0  0  0999 V2000
   -2.5280   18.7440  -33.4970 F   0  0  0  0  0  0  0  0  0  0  0  0
   -2.9130   19.8730  -32.8480 C   0  0  0  0  0  0  0  0  0  0  0  0
   -3.8760   20.6710  -33.4440 C   0  0  0  0  0  0  0  0  0  0  0  0
   -4.2660   21.8170  -32.7850 C   0  0  0  0  0  0  0  0  0  0  0  0
   -3.7170   22.1680  -31.5600 C   0  0  0  0  0  0  0  0  0  0  0  0
   -4.2120   23.4050  -30.9590 C   0  0  0  0  0  0  0  0  0  0  0  0
   -3.4820   24.5240  -30.7920 N   0  0  0  0  0  0  0  0  0  0  0  0
   -4.2540   25.4520  -30.2130 N   0  0  0  0  0  0  0  0  0  0  0  0
   -5.4700   24.9010  -30.0200 C   0  0  0  0  0  0  0  0  0  0  0  0
   -6.7110   25.6850  -29.3430 S   0  0  0  0  0  0  0  0  0  0  0  0
   -5.4610   23.6340  -30.4770 N   0  0  0  0  0  0  0  0  0  0  0  0
   -6.5110   22.7090  -30.4720 N   0  0  0  0  0  0  0  0  0  0  0  0
   -7.2890   22.4950  -31.4770 C   0  0  0  0  0  0  0  0  0  0  0  0
   -7.8280   21.2450  -31.8110 C   0  0  0  0  0  0  0  0  0  0  0  0
   -9.1670   20.8160  -32.0980 C   0  0  0  0  0  0  0  0  0  0  0  0
   -9.3740   19.5630  -32.3830 C   0  0  0  0  0  0  0  0  0  0  0  0
   -8.3390   18.6420  -32.4150 C   0  0  0  0  0  0  0  0  0  0  0  0
   -6.8560   19.6540  -31.9880 S   0  0  0  0  0  0  0  0  0  0  0  0
   -2.7590   21.3780  -30.9600 C   0  0  0  0  0  0  0  0  0  0  0  0
   -2.3590   20.2190  -31.6210 C   0  0  0  0  0  0  0  0  0  0  0  0
   -4.3163   20.3981  -34.4144 H   0  0  0  0  0  0  0  0  0  0  0  0
   -5.0283   22.4668  -33.2396 H   0  0  0  0  0  0  0  0  0  0  0  0
   -3.9140   26.4160  -29.9770 H   0  0  0  0  0  0  0  0  0  0  0  0
   -7.5477   23.3519  -32.1163 H   0  0  0  0  0  0  0  0  0  0  0  0
  -10.0019   21.5319  -32.0775 H   0  0  0  0  0  0  0  0  0  0  0  0
  -10.3975   19.2262  -32.6043 H   0  0  0  0  0  0  0  0  0  0  0  0
   -8.3893   17.5666  -32.6406 H   0  0  0  0  0  0  0  0  0  0  0  0
   -2.3238   21.6549  -29.9885 H   0  0  0  0  0  0  0  0  0  0  0  0
   -1.5958   19.5700  -31.1667 H   0  0  0  0  0  0  0  0  0  0  0  0
  1  2  1  0
  2  3  2  0
  3  4  1  0
  4  5  2  0
  5  6  1  0
  6  7  2  0
  7  8  1  0
  8  9  1  0
  9 10  2  0
  9 11  1  0
 11 12  1  0
 12 13  2  0
 13 14  1  0
 14 15  2  0
 15 16  1  0
 16 17  2  0
 17 18  1  0
  5 19  1  0
 19 20  2  0
 20  2  1  0
 11  6  1  0
 18 14  1  0
  3 21  1  0
  4 22  1  0
  8 23  1  0
 13 24  1  0
 15 25  1  0
 16 26  1  0
 17 27  1  0
 19 28  1  0
 20 29  1  0
M  END
>  <smiles>  (16) 
Fc1ccc(-c2n[nH]c(=S)n2N=Cc2cccs2)cc1

>  <score_type>  (16) 
oracle

>  <origin>  (16) 
adg

>  <m_score__min__energy>  (16) 
-7.7999999999999998

>  <m_primary>  (16) 
energy

$$$$
17:0
     RDKit          3D

 57 60  0  0  1  0  0  0  0  0999 V2000
   -0.9030   24.4870  -28.8410 C   0  0  0  0  0  0  0  0  0  0  0  0
   -2.3720   24.3140  -28.9630 C   0  0  0  0  0  0  0  0  0  0  0  0
   -3.1690   23.4720  -28.2000 C   0  0  0  0  0  0  0  0  0  0  0  0
   -4.4550   23.6850  -28.7090 C   0  0  0  0  0  0  0  0  0  0  0  0
   -4.3800   24.6210  -29.7280 C   0  0  0  0  0  0  0  0  0  0  0  0
   -5.4930   25.1400  -30.5360 C   0  0  0  0  0  0  0  0  0  0  0  0
   -5.8510   24.2320  -31.6650 C   0  0  0  0  0  0  0  0  0  0  0  0
   -6.9880   23.4380  -31.5420 N   0  0  0  0  0  0  0  0  0  0  0  0
   -7.9480   23.3630  -32.5710 C   0  0  0  0  0  0  0  0  0  0  0  0
   -9.2390   22.8680  -31.9500 C   0  0  0  0  0  0  0  0  0  0  0  0
   -9.0150   21.3780  -31.4880 C   0  0  0  0  0  0  0  0  0  0  0  0
   -8.5810   20.8200  -32.7190 N   0  0  0  0  0  0  0  0  0  0  0  0
   -7.4320   20.2700  -32.8340 C   0  0  0  0  0  0  0  0  0  0  0  0
   -6.3110   21.0170  -33.0160 N   0  0  0  0  0  0  0  0  0  0  0  0
   -5.2350   20.2190  -33.1140 C   0  0  0  0  0  0  0  0  0  0  0  0
   -5.7250   18.9360  -32.9870 C   0  0  0  0  0  0  0  0  0  0  0  0
   -4.8060   17.9120  -33.0550 C   0  0  0  0  0  0  0  0  0  0  0  0
   -5.1260   16.7250  -32.9550 O   0  0  0  0  0  0  0  0  0  0  0  0
   -3.4890   18.1870  -33.2400 N   0  0  0  0  0  0  0  0  0  0  0  0
   -2.5220   17.1180  -33.3130 C   0  0  0  0  0  0  0  0  0  0  0  0
   -3.0440   19.4660  -33.3620 C   0  0  0  0  0  0  0  0  0  0  0  0
   -1.8170   19.6680  -33.5310 O   0  0  0  0  0  0  0  0  0  0  0  0
   -3.9290   20.4690  -33.2970 N   0  0  0  0  0  0  0  0  0  0  0  0
   -3.4250   21.8190  -33.4300 C   0  0  0  0  0  0  0  0  0  0  0  0
   -7.0800   18.9730  -32.8130 N   0  0  0  0  0  0  0  0  0  0  0  0
   -7.9680   17.8520  -32.6360 C   0  0  0  0  0  0  0  0  0  0  0  0
   -7.9150   21.5490  -30.4670 C   0  0  0  0  0  0  0  0  0  0  0  0
   -7.4070   22.9430  -30.2930 C   0  0  0  0  0  0  0  0  0  0  0  0
   -3.1110   24.9500  -29.8220 O   0  0  0  0  0  0  0  0  0  0  0  0
   -0.6248   24.5198  -27.7773 H   0  0  0  0  0  0  0  0  0  0  0  0
   -0.3927   23.6427  -29.3277 H   0  0  0  0  0  0  0  0  0  0  0  0
   -0.6028   25.4267  -29.3277 H   0  0  0  0  0  0  0  0  0  0  0  0
   -2.8623   22.7970  -27.3874 H   0  0  0  0  0  0  0  0  0  0  0  0
   -5.3733   23.1912  -28.3583 H   0  0  0  0  0  0  0  0  0  0  0  0
   -6.3734   25.2609  -29.8876 H   0  0  0  0  0  0  0  0  0  0  0  0
   -5.1738   26.1002  -30.9674 H   0  0  0  0  0  0  0  0  0  0  0  0
   -5.9887   24.8610  -32.5569 H   0  0  0  0  0  0  0  0  0  0  0  0
   -5.0212   23.5110  -31.7052 H   0  0  0  0  0  0  0  0  0  0  0  0
   -8.1015   24.3574  -33.0154 H   0  0  0  0  0  0  0  0  0  0  0  0
   -7.6128   22.6812  -33.3665 H   0  0  0  0  0  0  0  0  0  0  0  0
   -9.5002   23.4927  -31.0831 H   0  0  0  0  0  0  0  0  0  0  0  0
  -10.0606   22.9233  -32.6794 H   0  0  0  0  0  0  0  0  0  0  0  0
   -9.8233   20.7748  -31.0490 H   0  0  0  0  0  0  0  0  0  0  0  0
   -6.2500   22.0640  -33.0780 H   0  0  0  0  0  0  0  0  0  0  0  0
   -2.2412   16.8075  -32.2958 H   0  0  0  0  0  0  0  0  0  0  0  0
   -2.9600   16.2634  -33.8494 H   0  0  0  0  0  0  0  0  0  0  0  0
   -1.6279   17.4684  -33.8494 H   0  0  0  0  0  0  0  0  0  0  0  0
   -3.2640   22.2503  -32.4310 H   0  0  0  0  0  0  0  0  0  0  0  0
   -2.4725   21.8023  -33.9801 H   0  0  0  0  0  0  0  0  0  0  0  0
   -4.1554   22.4305  -33.9801 H   0  0  0  0  0  0  0  0  0  0  0  0
   -8.1149   17.6666  -31.5617 H   0  0  0  0  0  0  0  0  0  0  0  0
   -8.9375   18.0745  -33.1056 H   0  0  0  0  0  0  0  0  0  0  0  0
   -7.5295   16.9591  -33.1056 H   0  0  0  0  0  0  0  0  0  0  0  0
   -8.2987   21.2049  -29.4952 H   0  0  0  0  0  0  0  0  0  0  0  0
   -7.0629   20.9627  -30.8416 H   0  0  0  0  0  0  0  0  0  0  0  0
   -8.2096   23.5808  -29.8941 H   0  0  0  0  0  0  0  0  0  0  0  0
   -6.5609   22.9448  -29.5901 H   0  0  0  0  0  0  0  0  0  0  0  0
  1  2  1  0
  2  3  2  0
  3  4  1  0
  4  5  2  0
  5  6  1  0
  6  7  1  0
  7  8  1  0
  8  9  1  0
  9 10  1  0
 10 11  1  0
 11 12  1  0
 12 13  2  0
 13 14  1  0
 14 15  1  0
 15 16  2  0
 16 17  1  0
 17 18  2  0
 17 19  1  0
 19 20  1  0
 19 21  1  0
 21 22  2  0
 21 23  1  0
 23 24  1  0
 16 25  1  0
 25 26  1  0
 11 27  1  0
 27 28  1  0
  5 29  1  0
 29  2  1  0
 28  8  1  0
 25 13  1  0
 23 15  1  0
  1 30  1  0
  1 31  1  0
  1 32  1  0
  3 33  1  0
  4 34  1  0
  6 35  1  0
  6 36  1  0
  7 37  1  0
  7 38  1  0
  9 39  1  0
  9 40  1  0
 10 41  1  0
 10 42  1  0
 11 43  1  0
 14 44  1  0
 20 45  1  0
 20 46  1  0
 20 47  1  0
 24 48  1  0
 24 49  1  0
 24 50  1  0
 26 51  1  0
 26 52  1  0
 26 53  1  0
 27 54  1  0
 27 55  1  0
 28 56  1  0
 28 57  1  0
M  END
>  <smiles>  (17) 
Cc1ccc(CCN2CCC(N=c3[nH]c4c(c(=O)n(C)c(=O)n4C)n3C)CC2)o1

>  <score_type>  (17) 
oracle

>  <origin>  (17) 
adg

>  <m_score__min__energy>  (17) 
-8.9900000000000002

>  <m_primary>  (17) 
energy

$$$$
18:0
     RDKit          3D

 34 34  0  0  0  0  0  0  0  0999 V2000
   -8.7440   18.1780  -31.6240 C   0  0  0  0  0  0  0  0  0  0  0  0
   -8.1370   19.0440  -32.7030 C   0  0  0  0  0  0  0  0  0  0  0  0
   -8.2350   20.4260  -32.2690 N   0  0  0  0  0  0  0  0  0  0  0  0
   -9.5040   21.0880  -32.3240 C   0  0  0  0  0  0  0  0  0  0  0  0
   -9.8330   21.5610  -30.9110 C   0  0  0  0  0  0  0  0  0  0  0  0
   -7.0240   21.0450  -31.8050 C   0  0  0  0  0  0  0  0  0  0  0  0
   -6.0030   20.3140  -31.8330 O   0  0  0  0  0  0  0  0  0  0  0  0
   -6.9620   22.3760  -31.3480 N   0  0  0  0  0  0  0  0  0  0  0  0
   -5.8370   23.0650  -30.8800 C   0  0  0  0  0  0  0  0  0  0  0  0
   -6.0360   24.1770  -30.0710 C   0  0  0  0  0  0  0  0  0  0  0  0
   -4.9830   24.9100  -29.5700 C   0  0  0  0  0  0  0  0  0  0  0  0
   -3.6720   24.5830  -29.8420 C   0  0  0  0  0  0  0  0  0  0  0  0
   -2.5880   25.2990  -29.3540 O   0  0  0  0  0  0  0  0  0  0  0  0
   -1.9760   24.9260  -28.1330 C   0  0  0  0  0  0  0  0  0  0  0  0
   -3.4610   23.4820  -30.6430 C   0  0  0  0  0  0  0  0  0  0  0  0
   -4.5240   22.7480  -31.1450 C   0  0  0  0  0  0  0  0  0  0  0  0
   -8.4662   18.5743  -30.6362 H   0  0  0  0  0  0  0  0  0  0  0  0
   -9.8393   18.1801  -31.7251 H   0  0  0  0  0  0  0  0  0  0  0  0
   -8.3684   17.1491  -31.7251 H   0  0  0  0  0  0  0  0  0  0  0  0
   -7.0815   18.7722  -32.8516 H   0  0  0  0  0  0  0  0  0  0  0  0
   -8.6687   18.9013  -33.6553 H   0  0  0  0  0  0  0  0  0  0  0  0
   -9.4495   21.9495  -33.0058 H   0  0  0  0  0  0  0  0  0  0  0  0
  -10.2824   20.4058  -32.6965 H   0  0  0  0  0  0  0  0  0  0  0  0
   -9.3637   20.8863  -30.1799 H   0  0  0  0  0  0  0  0  0  0  0  0
   -9.4489   22.5817  -30.7673 H   0  0  0  0  0  0  0  0  0  0  0  0
  -10.9236   21.5560  -30.7673 H   0  0  0  0  0  0  0  0  0  0  0  0
   -7.8870   22.9030  -31.3650 H   0  0  0  0  0  0  0  0  0  0  0  0
   -7.0639   24.4806  -29.8236 H   0  0  0  0  0  0  0  0  0  0  0  0
   -5.1946   25.7822  -28.9340 H   0  0  0  0  0  0  0  0  0  0  0  0
   -2.5812   25.2949  -27.2918 H   0  0  0  0  0  0  0  0  0  0  0  0
   -1.9031   23.8297  -28.0793 H   0  0  0  0  0  0  0  0  0  0  0  0
   -0.9682   25.3636  -28.0793 H   0  0  0  0  0  0  0  0  0  0  0  0
   -2.4319   23.1806  -30.8881 H   0  0  0  0  0  0  0  0  0  0  0  0
   -4.3097   21.8766  -31.7811 H   0  0  0  0  0  0  0  0  0  0  0  0
  1  2  1  0
  2  3  1  0
  3  4  1  0
  4  5  1  0
  3  6  1  0
  6  7  2  0
  6  8  1  0
  8  9  1  0
  9 10  2  0
 10 11  1  0
 11 12  2  0
 12 13  1  0
 13 14  1  0
 12 15  1  0
 15 16  2  0
 16  9  1  0
  1 17  1  0
  1 18  1  0
  1 19  1  0
  2 20  1  0
  2 21  1  0
  4 22  1  0
  4 23  1  0
  5 24  1  0
  5 25  1  0
  5 26  1  0
  8 27  1  0
 10 28  1  0
 11 29  1  0
 14 30  1  0
 14 31  1  0
 14 32  1  0
 15 33  1  0
 16 34  1  0
M  END
>  <smiles>  (18) 
CCN(CC)C(=O)Nc1ccc(OC)cc1

>  <score_type>  (18) 
oracle

>  <origin>  (18) 
adg

>  <m_score__min__energy>  (18) 
-5.9299999999999997

>  <m_primary>  (18) 
energy

$$$$
19:0
     RDKit          3D

 48 49  0  0  0  0  0  0  0  0999 V2000
   -9.4600   21.2000  -32.0160 C   0  0  0  0  0  0  0  0  0  0  0  0
   -8.0450   20.7720  -32.1830 C   0  0  0  0  0  0  0  0  0  0  0  0
   -7.8120   19.4810  -32.3240 C   0  0  0  0  0  0  0  0  0  0  0  0
   -6.4580   18.8990  -32.5000 C   0  0  0  0  0  0  0  0  0  0  0  0
   -6.4900   18.1870  -33.8420 C   0  0  0  0  0  0  0  0  0  0  0  0
   -6.2710   17.8940  -31.3680 C   0  0  0  0  0  0  0  0  0  0  0  0
   -5.4220   19.8890  -32.4850 N   0  0  0  0  0  0  0  0  0  0  0  0
   -5.6760   21.2880  -32.3330 C   0  0  0  0  0  0  0  0  0  0  0  0
   -4.3800   22.2740  -32.3320 S   0  0  0  0  0  0  0  0  0  0  0  0
   -7.0090   21.7560  -32.1790 N   0  0  0  0  0  0  0  0  0  0  0  0
   -7.3090   23.1780  -32.0400 C   0  0  0  0  0  0  0  0  0  0  0  0
   -7.2020   23.5540  -30.5980 C   0  0  0  0  0  0  0  0  0  0  0  0
   -6.6730   24.9200  -30.3220 C   0  0  0  0  0  0  0  0  0  0  0  0
   -5.2270   24.9090  -30.1070 C   0  0  0  0  0  0  0  0  0  0  0  0
   -4.3630   25.3200  -30.9320 O   0  0  0  0  0  0  0  0  0  0  0  0
   -4.7300   24.3990  -28.8780 N   0  0  0  0  0  0  0  0  0  0  0  0
   -3.3050   24.3410  -28.5630 C   0  0  0  0  0  0  0  0  0  0  0  0
   -2.7520   22.9600  -28.8170 C   0  0  0  0  0  0  0  0  0  0  0  0
   -2.1860   22.4710  -27.4830 C   0  0  0  0  0  0  0  0  0  0  0  0
   -1.9400   23.7850  -26.7240 C   0  0  0  0  0  0  0  0  0  0  0  0
   -3.2030   24.5270  -27.0690 C   0  0  0  0  0  0  0  0  0  0  0  0
   -9.6973   21.2718  -30.9443 H   0  0  0  0  0  0  0  0  0  0  0  0
   -9.6044   22.1820  -32.4901 H   0  0  0  0  0  0  0  0  0  0  0  0
  -10.1245   20.4627  -32.4901 H   0  0  0  0  0  0  0  0  0  0  0  0
   -8.6721   18.7954  -32.3103 H   0  0  0  0  0  0  0  0  0  0  0  0
   -6.5388   17.1002  -33.6794 H   0  0  0  0  0  0  0  0  0  0  0  0
   -7.3744   18.5130  -34.4091 H   0  0  0  0  0  0  0  0  0  0  0  0
   -5.5799   18.4324  -34.4091 H   0  0  0  0  0  0  0  0  0  0  0  0
   -6.3668   18.4091  -30.4008 H   0  0  0  0  0  0  0  0  0  0  0  0
   -7.0386   17.1097  -31.4434 H   0  0  0  0  0  0  0  0  0  0  0  0
   -5.2727   17.4383  -31.4434 H   0  0  0  0  0  0  0  0  0  0  0  0
   -4.4330   19.5460  -32.5920 H   0  0  0  0  0  0  0  0  0  0  0  0
   -6.5910   23.7667  -32.6298 H   0  0  0  0  0  0  0  0  0  0  0  0
   -8.3262   23.3828  -32.4051 H   0  0  0  0  0  0  0  0  0  0  0  0
   -8.2068   23.4853  -30.1557 H   0  0  0  0  0  0  0  0  0  0  0  0
   -6.4724   22.8567  -30.1605 H   0  0  0  0  0  0  0  0  0  0  0  0
   -6.9005   25.5700  -31.1798 H   0  0  0  0  0  0  0  0  0  0  0  0
   -7.1522   25.2934  -29.4050 H   0  0  0  0  0  0  0  0  0  0  0  0
   -5.3830   24.0390  -28.1400 H   0  0  0  0  0  0  0  0  0  0  0  0
   -2.7670   25.0881  -29.1650 H   0  0  0  0  0  0  0  0  0  0  0  0
   -3.5514   22.2872  -29.1609 H   0  0  0  0  0  0  0  0  0  0  0  0
   -1.9769   22.9775  -29.5973 H   0  0  0  0  0  0  0  0  0  0  0  0
   -2.9106   21.8354  -26.9529 H   0  0  0  0  0  0  0  0  0  0  0  0
   -1.2836   21.8512  -27.5904 H   0  0  0  0  0  0  0  0  0  0  0  0
   -1.8470   23.6193  -25.6405 H   0  0  0  0  0  0  0  0  0  0  0  0
   -1.0089   24.3065  -26.9907 H   0  0  0  0  0  0  0  0  0  0  0  0
   -4.0719   24.0897  -26.5554 H   0  0  0  0  0  0  0  0  0  0  0  0
   -3.1840   25.5833  -26.7628 H   0  0  0  0  0  0  0  0  0  0  0  0
  1  2  1  0
  2  3  2  0
  3  4  1  0
  4  5  1  0
  4  6  1  0
  4  7  1  0
  7  8  1  0
  8  9  2  0
  8 10  1  0
 10 11  1  0
 11 12  1  0
 12 13  1  0
 13 14  1  0
 14 15  2  0
 14 16  1  0
 16 17  1  0
 17 18  1  0
 18 19  1  0
 19 20  1  0
 20 21  1  0
 10  2  1  0
 21 17  1  0
  1 22  1  0
  1 23  1  0
  1 24  1  0
  3 25  1  0
  5 26  1  0
  5 27  1  0
  5 28  1  0
  6 29  1  0
  6 30  1  0
  6 31  1  0
  7 32  1  0
 11 33  1  0
 11 34  1  0
 12 35  1  0
 12 36  1  0
 13 37  1  0
 13 38  1  0
 16 39  1  0
 17 40  1  0
 18 41  1  0
 18 42  1  0
 19 43  1  0
 19 44  1  0
 20 45  1  0
 20 46  1  0
 21 47  1  0
 21 48  1  0
M  END
>  <smiles>  (19) 
CC1=CC(C)(C)NC(=S)N1CCCC(=O)NC1CCCC1

>  <score_type>  (19) 
oracle

>  <origin>  (19) 
adg

>  <m_score__min__energy>  (19) 
-9.0299999999999994

>  <m_primary>  (19) 
energy

$$$$
20:0
     RDKit          3D

 49 52  0  0  1  0  0  0  0  0999 V2000
    0.7260   17.8670  -28.1530 C   0  0  0  0  0  0  0  0  0  0  0  0
    0.9440   19.1450  -28.7410 O   0  0  0  0  0  0  0  0  0  0  0  0
   -0.0610   19.8000  -29.4390 C   0  0  0  0  0  0  0  0  0  0  0  0
   -0.0300   19.7870  -30.8200 C   0  0  0  0  0  0  0  0  0  0  0  0
   -1.0420   20.4450  -31.4820 C   0  0  0  0  0  0  0  0  0  0  0  0
   -1.0550   20.4610  -32.8760 C   0  0  0  0  0  0  0  0  0  0  0  0
    0.0260   19.7650  -33.6380 C   0  0  0  0  0  0  0  0  0  0  0  0
   -2.0390   21.1000  -33.5150 N   0  0  0  0  0  0  0  0  0  0  0  0
   -3.0320   21.7400  -32.8590 C   0  0  0  0  0  0  0  0  0  0  0  0
   -3.9250   22.3200  -33.5300 O   0  0  0  0  0  0  0  0  0  0  0  0
   -3.0430   21.7390  -31.4610 C   0  0  0  0  0  0  0  0  0  0  0  0
   -4.1120   22.4270  -30.7920 N   0  0  0  0  0  0  0  0  0  0  0  0
   -4.4370   23.5610  -31.1990 N   0  0  0  0  0  0  0  0  0  0  0  0
   -5.5150   24.3480  -30.7040 C   0  0  0  0  0  0  0  0  0  0  0  0
   -5.2790   25.1510  -29.7650 O   0  0  0  0  0  0  0  0  0  0  0  0
   -6.8550   24.1770  -31.3220 C   0  0  0  0  0  0  0  0  0  0  0  0
   -7.1410   22.7690  -31.6300 C   0  0  0  0  0  0  0  0  0  0  0  0
   -8.3110   22.1320  -31.3780 N   0  0  0  0  0  0  0  0  0  0  0  0
   -8.1920   20.8640  -31.7970 C   0  0  0  0  0  0  0  0  0  0  0  0
   -9.0650   19.7720  -31.7910 C   0  0  0  0  0  0  0  0  0  0  0  0
   -8.6690   18.5420  -32.3020 C   0  0  0  0  0  0  0  0  0  0  0  0
   -7.4040   18.3610  -32.8300 C   0  0  0  0  0  0  0  0  0  0  0  0
   -6.5330   19.4480  -32.8350 C   0  0  0  0  0  0  0  0  0  0  0  0
   -6.9290   20.6860  -32.3230 C   0  0  0  0  0  0  0  0  0  0  0  0
   -6.3070   21.8650  -32.2090 N   0  0  0  0  0  0  0  0  0  0  0  0
   -2.0420   21.0870  -30.7700 C   0  0  0  0  0  0  0  0  0  0  0  0
   -2.0640   21.0950  -29.3870 C   0  0  0  0  0  0  0  0  0  0  0  0
   -1.0460   20.4330  -28.7110 C   0  0  0  0  0  0  0  0  0  0  0  0
   -0.9950   20.3930  -27.3240 O   0  0  0  0  0  0  0  0  0  0  0  0
   -2.0030   19.6550  -26.6510 C   0  0  0  0  0  0  0  0  0  0  0  0
    0.7419   17.9601  -27.0571 H   0  0  0  0  0  0  0  0  0  0  0  0
   -0.2515   17.4777  -28.4738 H   0  0  0  0  0  0  0  0  0  0  0  0
    1.5192   17.1757  -28.4738 H   0  0  0  0  0  0  0  0  0  0  0  0
    0.7716   19.2713  -31.3690 H   0  0  0  0  0  0  0  0  0  0  0  0
    0.7358   19.3080  -32.9328 H   0  0  0  0  0  0  0  0  0  0  0  0
   -0.4173   18.9822  -34.2710 H   0  0  0  0  0  0  0  0  0  0  0  0
    0.5551   20.4925  -34.2710 H   0  0  0  0  0  0  0  0  0  0  0  0
   -2.0140   21.0900  -34.5580 H   0  0  0  0  0  0  0  0  0  0  0  0
   -7.6188   24.5505  -30.6240 H   0  0  0  0  0  0  0  0  0  0  0  0
   -6.8697   24.7421  -32.2657 H   0  0  0  0  0  0  0  0  0  0  0  0
  -10.0774   19.8879  -31.3768 H   0  0  0  0  0  0  0  0  0  0  0  0
   -9.3740   17.6978  -32.2862 H   0  0  0  0  0  0  0  0  0  0  0  0
   -7.0942   17.3862  -33.2347 H   0  0  0  0  0  0  0  0  0  0  0  0
   -5.5201   19.3301  -33.2475 H   0  0  0  0  0  0  0  0  0  0  0  0
   -5.3140   22.0300  -32.5320 H   0  0  0  0  0  0  0  0  0  0  0  0
   -2.8650   21.6110  -28.8374 H   0  0  0  0  0  0  0  0  0  0  0  0
   -1.8666   19.7549  -25.5641 H   0  0  0  0  0  0  0  0  0  0  0  0
   -2.9925   20.0437  -26.9336 H   0  0  0  0  0  0  0  0  0  0  0  0
   -1.9313   18.5943  -26.9336 H   0  0  0  0  0  0  0  0  0  0  0  0
  1  2  1  0
  2  3  1  0
  3  4  2  0
  4  5  1  0
  5  6  2  0
  6  7  1  0
  6  8  1  0
  8  9  1  0
  9 10  2  0
  9 11  1  0
 11 12  1  0
 12 13  2  0
 13 14  1  0
 14 15  2  0
 14 16  1  0
 16 17  1  0
 17 18  2  0
 18 19  1  0
 19 20  2  0
 20 21  1  0
 21 22  2  0
 22 23  1  0
 23 24  2  0
 24 25  1  0
 11 26  2  0
 26 27  1  0
 27 28  2  0
 28 29  1  0
 29 30  1  0
 28  3  1  0
 26  5  1  0
 25 17  1  0
 24 19  1  0
  1 31  1  0
  1 32  1  0
  1 33  1  0
  4 34  1  0
  7 35  1  0
  7 36  1  0
  7 37  1  0
  8 38  1  0
 16 39  1  0
 16 40  1  0
 20 41  1  0
 21 42  1  0
 22 43  1  0
 23 44  1  0
 25 45  1  0
 27 46  1  0
 30 47  1  0
 30 48  1  0
 30 49  1  0
M  END
>  <smiles>  (20) 
COc1cc2c(C)[nH]c(=O)c(N=NC(=O)Cc3nc4ccccc4[nH]3)c2cc1OC

>  <score_type>  (20) 
oracle

>  <origin>  (20) 
adg

>  <m_score__min__energy>  (20) 
-10.17

>  <m_primary>  (20) 
energy

$$$$
21:0
     RDKit          3D

 35 36  0  0  0  0  0  0  0  0999 V2000
   -3.5770   20.2210  -32.0270 C   0  0  0  0  0  0  0  0  0  0  0  0
   -3.9460   20.7300  -30.7640 O   0  0  0  0  0  0  0  0  0  0  0  0
   -2.9520   21.1010  -29.8770 C   0  0  0  0  0  0  0  0  0  0  0  0
   -2.3480   20.1720  -29.0460 C   0  0  0  0  0  0  0  0  0  0  0  0
   -1.3550   20.5240  -28.1560 C   0  0  0  0  0  0  0  0  0  0  0  0
   -0.5930   19.3520  -27.1050 Cl  0  0  0  0  0  0  0  0  0  0  0  0
   -0.9810   21.8510  -28.1230 C   0  0  0  0  0  0  0  0  0  0  0  0
   -1.5360   22.8230  -28.9190 C   0  0  0  0  0  0  0  0  0  0  0  0
   -1.0690   24.1890  -28.8520 C   0  0  0  0  0  0  0  0  0  0  0  0
   -1.9710   25.2430  -29.1960 N   0  0  0  0  0  0  0  0  0  0  0  0
    0.0850   24.5390  -28.5110 O   0  0  0  0  0  0  0  0  0  0  0  0
   -2.5250   22.4320  -29.7950 C   0  0  0  0  0  0  0  0  0  0  0  0
   -3.1800   23.3400  -30.6700 N   0  0  0  0  0  0  0  0  0  0  0  0
   -4.6840   24.0920  -30.2500 S   0  0  0  0  0  0  0  0  0  0  0  0
   -4.8100   25.4380  -30.8820 O   0  0  0  0  0  0  0  0  0  0  0  0
   -4.7950   24.2320  -28.7610 O   0  0  0  0  0  0  0  0  0  0  0  0
   -6.0390   23.1150  -30.7600 C   0  0  0  0  0  0  0  0  0  0  0  0
   -5.9960   22.5390  -31.9970 C   0  0  0  0  0  0  0  0  0  0  0  0
   -7.0190   21.7500  -32.4850 C   0  0  0  0  0  0  0  0  0  0  0  0
   -8.1410   21.5360  -31.6770 C   0  0  0  0  0  0  0  0  0  0  0  0
   -9.4500   20.5340  -32.2870 Cl  0  0  0  0  0  0  0  0  0  0  0  0
   -8.1870   22.1190  -30.4210 C   0  0  0  0  0  0  0  0  0  0  0  0
   -7.1440   22.9080  -29.9530 C   0  0  0  0  0  0  0  0  0  0  0  0
   -2.9362   19.3370  -31.8931 H   0  0  0  0  0  0  0  0  0  0  0  0
   -4.4807   19.9374  -32.5863 H   0  0  0  0  0  0  0  0  0  0  0  0
   -3.0264   20.9917  -32.5863 H   0  0  0  0  0  0  0  0  0  0  0  0
   -2.6701   19.1215  -29.0975 H   0  0  0  0  0  0  0  0  0  0  0  0
   -0.1914   22.1486  -27.4173 H   0  0  0  0  0  0  0  0  0  0  0  0
   -2.9780   25.2440  -28.9460 H   0  0  0  0  0  0  0  0  0  0  0  0
   -1.6160   26.0820  -29.7360 H   0  0  0  0  0  0  0  0  0  0  0  0
   -2.7370   23.5440  -31.5710 H   0  0  0  0  0  0  0  0  0  0  0  0
   -5.1124   22.7100  -32.6294 H   0  0  0  0  0  0  0  0  0  0  0  0
   -6.9532   21.2999  -33.4865 H   0  0  0  0  0  0  0  0  0  0  0  0
   -9.0669   21.9538  -29.7818 H   0  0  0  0  0  0  0  0  0  0  0  0
   -7.1957   23.3629  -28.9528 H   0  0  0  0  0  0  0  0  0  0  0  0
  1  2  1  0
  2  3  1  0
  3  4  2  0
  4  5  1  0
  5  6  1  0
  5  7  2  0
  7  8  1  0
  8  9  1  0
  9 10  1  0
  9 11  2  0
  8 12  2  0
 12 13  1  0
 13 14  1  0
 14 15  2  0
 14 16  2  0
 14 17  1  0
 17 18  2  0
 18 19  1  0
 19 20  2  0
 20 21  1  0
 20 22  1  0
 22 23  2  0
 12  3  1  0
 23 17  1  0
  1 24  1  0
  1 25  1  0
  1 26  1  0
  4 27  1  0
  7 28  1  0
 10 29  1  0
 10 30  1  0
 13 31  1  0
 18 32  1  0
 19 33  1  0
 22 34  1  0
 23 35  1  0
M  END
>  <smiles>  (21) 
COc1cc(Cl)cc(C(N)=O)c1NS(=O)(=O)c1ccc(Cl)cc1

>  <score_type>  (21) 
oracle

>  <origin>  (21) 
adg

>  <m_score__min__energy>  (21) 
-8.4800000000000004

>  <m_primary>  (21) 
energy

$$$$
22:0
     RDKit          3D

 34 36  0  0  1  0  0  0  0  0999 V2000
   -1.4180   24.8670  -27.1230 C   0  0  0  0  0  0  0  0  0  0  0  0
   -2.3420   24.5930  -28.2580 C   0  0  0  0  0  0  0  0  0  0  0  0
   -3.3840   23.7010  -28.2280 C   0  0  0  0  0  0  0  0  0  0  0  0
   -3.9710   23.7680  -29.4940 C   0  0  0  0  0  0  0  0  0  0  0  0
   -4.9870   23.1030  -29.9270 N   0  0  0  0  0  0  0  0  0  0  0  0
   -5.9750   23.6400  -30.7920 C   0  0  0  0  0  0  0  0  0  0  0  0
   -5.5370   24.1860  -31.8610 O   0  0  0  0  0  0  0  0  0  0  0  0
   -7.4320   23.5940  -30.5200 C   0  0  0  0  0  0  0  0  0  0  0  0
   -8.2390   22.9670  -32.0160 S   0  0  0  0  0  0  0  0  0  0  0  0
   -7.8290   21.2630  -32.3460 C   0  0  0  0  0  0  0  0  0  0  0  0
   -8.6160   20.1740  -32.3540 N   0  0  0  0  0  0  0  0  0  0  0  0
   -7.8820   19.0900  -32.6530 N   0  0  0  0  0  0  0  0  0  0  0  0
   -6.5950   19.4900  -32.8430 C   0  0  0  0  0  0  0  0  0  0  0  0
   -5.4190   18.6300  -33.1950 C   0  0  0  0  0  0  0  0  0  0  0  0
   -5.2940   18.0770  -34.5690 C   0  0  0  0  0  0  0  0  0  0  0  0
   -5.8130   17.1750  -33.5230 C   0  0  0  0  0  0  0  0  0  0  0  0
   -6.5810   20.8150  -32.6510 N   0  0  0  0  0  0  0  0  0  0  0  0
   -5.4580   21.6420  -32.7420 N   0  0  0  0  0  0  0  0  0  0  0  0
   -3.2690   24.6750  -30.2090 N   0  0  0  0  0  0  0  0  0  0  0  0
   -2.3340   25.1290  -29.4540 O   0  0  0  0  0  0  0  0  0  0  0  0
   -1.9484   24.7097  -26.1722 H   0  0  0  0  0  0  0  0  0  0  0  0
   -0.5562   24.1858  -27.1791 H   0  0  0  0  0  0  0  0  0  0  0  0
   -1.0668   25.9079  -27.1791 H   0  0  0  0  0  0  0  0  0  0  0  0
   -3.6925   23.0663  -27.3842 H   0  0  0  0  0  0  0  0  0  0  0  0
   -7.6359   22.9228  -29.6727 H   0  0  0  0  0  0  0  0  0  0  0  0
   -7.8120   24.5935  -30.2620 H   0  0  0  0  0  0  0  0  0  0  0  0
   -4.7222   19.1704  -32.5374 H   0  0  0  0  0  0  0  0  0  0  0  0
   -5.9690   18.4342  -35.3607 H   0  0  0  0  0  0  0  0  0  0  0  0
   -4.4659   18.0096  -35.2899 H   0  0  0  0  0  0  0  0  0  0  0  0
   -6.8716   16.8762  -33.5261 H   0  0  0  0  0  0  0  0  0  0  0  0
   -5.5381   16.1824  -33.1368 H   0  0  0  0  0  0  0  0  0  0  0  0
   -4.9950   22.0770  -31.9060 H   0  0  0  0  0  0  0  0  0  0  0  0
   -4.9980   21.8860  -33.6630 H   0  0  0  0  0  0  0  0  0  0  0  0
   -3.5070   24.9190  -31.2080 H   0  0  0  0  0  0  0  0  0  0  0  0
  1  2  1  0
  2  3  2  0
  3  4  1  0
  4  5  2  0
  5  6  1  0
  6  7  2  0
  6  8  1  0
  8  9  1  0
  9 10  1  0
 10 11  2  0
 11 12  1  0
 12 13  2  0
 13 14  1  0
 14 15  1  0
 15 16  1  0
 13 17  1  0
 17 18  1  0
  4 19  1  0
 19 20  1  0
 20  2  1  0
 17 10  1  0
 16 14  1  0
  1 21  1  0
  1 22  1  0
  1 23  1  0
  3 24  1  0
  8 25  1  0
  8 26  1  0
 14 27  1  0
 15 28  1  0
 15 29  1  0
 16 30  1  0
 16 31  1  0
 18 32  1  0
 18 33  1  0
 19 34  1  0
M  END
>  <smiles>  (22) 
Cc1cc(=NC(=O)CSc2nnc(C3CC3)n2N)[nH]o1

>  <score_type>  (22) 
oracle

>  <origin>  (22) 
adg

>  <m_score__min__energy>  (22) 
-8.3200000000000003

>  <m_primary>  (22) 
energy

$$$$
23:0
     RDKit          3D

 41 44  0  0  0  0  0  0  0  0999 V2000
    1.3410   25.3100  -25.8220 C   0  0  0  0  0  0  0  0  0  0  0  0
    1.1920   25.1910  -27.2220 O   0  0  0  0  0  0  0  0  0  0  0  0
    0.0560   24.6890  -27.8430 C   0  0  0  0  0  0  0  0  0  0  0  0
   -1.2140   24.9830  -27.4540 C   0  0  0  0  0  0  0  0  0  0  0  0
   -2.2920   24.4410  -28.1250 C   0  0  0  0  0  0  0  0  0  0  0  0
   -2.0840   23.5960  -29.1970 C   0  0  0  0  0  0  0  0  0  0  0  0
   -3.2150   23.0520  -29.8700 N   0  0  0  0  0  0  0  0  0  0  0  0
   -3.4770   21.7420  -29.9430 C   0  0  0  0  0  0  0  0  0  0  0  0
   -2.5130   20.8230  -29.2710 C   0  0  0  0  0  0  0  0  0  0  0  0
   -4.5250   21.2000  -30.5640 N   0  0  0  0  0  0  0  0  0  0  0  0
   -5.4610   21.9880  -31.2070 C   0  0  0  0  0  0  0  0  0  0  0  0
   -6.5420   21.6050  -31.8590 C   0  0  0  0  0  0  0  0  0  0  0  0
   -6.9500   20.1690  -32.0160 C   0  0  0  0  0  0  0  0  0  0  0  0
   -6.0280   19.3110  -32.5770 C   0  0  0  0  0  0  0  0  0  0  0  0
   -6.4010   17.9830  -32.7220 C   0  0  0  0  0  0  0  0  0  0  0  0
   -7.6500   17.5550  -32.3150 C   0  0  0  0  0  0  0  0  0  0  0  0
   -8.5700   18.4390  -31.7470 C   0  0  0  0  0  0  0  0  0  0  0  0
   -8.2010   19.7710  -31.6000 C   0  0  0  0  0  0  0  0  0  0  0  0
   -7.3660   22.5610  -32.4430 C   0  0  0  0  0  0  0  0  0  0  0  0
   -6.5200   24.1860  -32.0260 S   0  0  0  0  0  0  0  0  0  0  0  0
   -5.1690   23.3440  -31.1180 C   0  0  0  0  0  0  0  0  0  0  0  0
   -4.0890   23.8760  -30.4770 C   0  0  0  0  0  0  0  0  0  0  0  0
   -3.9430   25.1270  -30.4730 O   0  0  0  0  0  0  0  0  0  0  0  0
   -0.7910   23.2760  -29.6200 C   0  0  0  0  0  0  0  0  0  0  0  0
    0.2590   23.8430  -28.9150 C   0  0  0  0  0  0  0  0  0  0  0  0
    0.5767   24.6996  -25.3187 H   0  0  0  0  0  0  0  0  0  0  0  0
    2.3416   24.9597  -25.5287 H   0  0  0  0  0  0  0  0  0  0  0  0
    1.2207   26.3633  -25.5287 H   0  0  0  0  0  0  0  0  0  0  0  0
   -1.3829   25.6560  -26.6005 H   0  0  0  0  0  0  0  0  0  0  0  0
   -3.3166   24.6823  -27.8056 H   0  0  0  0  0  0  0  0  0  0  0  0
   -2.6142   20.9195  -28.1799 H   0  0  0  0  0  0  0  0  0  0  0  0
   -2.7267   19.7859  -29.5688 H   0  0  0  0  0  0  0  0  0  0  0  0
   -1.4873   21.0860  -29.5688 H   0  0  0  0  0  0  0  0  0  0  0  0
   -5.0369   19.6653  -32.8966 H   0  0  0  0  0  0  0  0  0  0  0  0
   -5.6961   17.2641  -33.1650 H   0  0  0  0  0  0  0  0  0  0  0  0
   -7.9252   16.4974  -32.4408 H   0  0  0  0  0  0  0  0  0  0  0  0
   -9.5619   18.0899  -31.4240 H   0  0  0  0  0  0  0  0  0  0  0  0
   -8.8987   20.4972  -31.1575 H   0  0  0  0  0  0  0  0  0  0  0  0
   -8.2931   22.4033  -33.0137 H   0  0  0  0  0  0  0  0  0  0  0  0
   -0.6147   22.6048  -30.4735 H   0  0  0  0  0  0  0  0  0  0  0  0
    1.2900   23.6109  -29.2202 H   0  0  0  0  0  0  0  0  0  0  0  0
  1  2  1  0
  2  3  1  0
  3  4  2  0
  4  5  1  0
  5  6  2  0
  6  7  1  0
  7  8  1  0
  8  9  1  0
  8 10  2  0
 10 11  1  0
 11 12  1  0
 12 13  1  0
 13 14  2  0
 14 15  1  0
 15 16  2  0
 16 17  1  0
 17 18  2  0
 12 19  2  0
 19 20  1  0
 20 21  1  0
 21 22  1  0
 22 23  2  0
  6 24  1  0
 24 25  2  0
 25  3  1  0
 22  7  1  0
 21 11  2  0
 18 13  1  0
  1 26  1  0
  1 27  1  0
  1 28  1  0
  4 29  1  0
  5 30  1  0
  9 31  1  0
  9 32  1  0
  9 33  1  0
 14 34  1  0
 15 35  1  0
 16 36  1  0
 17 37  1  0
 18 38  1  0
 19 39  1  0
 24 40  1  0
 25 41  1  0
M  END
>  <smiles>  (23) 
COc1ccc(-n2c(C)nc3c(-c4ccccc4)csc3c2=O)cc1

>  <score_type>  (23) 
oracle

>  <origin>  (23) 
adg

>  <m_score__min__energy>  (23) 
-8.2799999999999994

>  <m_primary>  (23) 
energy

$$$$
24:0
     RDKit          3D

 50 51  0  0  1  0  0  0  0  0999 V2000
   -7.2250   17.8790  -31.9650 C   0  0  0  0  0  0  0  0  0  0  0  0
   -8.4730   18.6990  -31.9740 C   0  0  0  0  0  0  0  0  0  0  0  0
   -8.3330   19.9880  -32.7090 C   0  0  0  0  0  0  0  0  0  0  0  0
   -8.8920   21.1770  -31.9990 C   0  0  0  0  0  0  0  0  0  0  0  0
   -7.7830   22.0390  -31.5290 C   0  0  0  0  0  0  0  0  0  0  0  0
   -7.9460   23.3570  -31.2460 C   0  0  0  0  0  0  0  0  0  0  0  0
   -6.8950   24.1310  -30.8130 C   0  0  0  0  0  0  0  0  0  0  0  0
   -5.6070   23.6090  -30.6400 C   0  0  0  0  0  0  0  0  0  0  0  0
   -4.5060   24.4570  -30.1780 C   0  0  0  0  0  0  0  0  0  0  0  0
   -4.0410   25.4080  -30.8530 O   0  0  0  0  0  0  0  0  0  0  0  0
   -3.9630   24.1590  -28.9050 N   0  0  0  0  0  0  0  0  0  0  0  0
   -2.7400   24.3180  -28.6230 C   0  0  0  0  0  0  0  0  0  0  0  0
   -1.7930   25.0600  -29.1810 N   0  0  0  0  0  0  0  0  0  0  0  0
   -0.6390   24.9710  -28.6170 N   0  0  0  0  0  0  0  0  0  0  0  0
   -0.2660   24.3780  -27.7290 C   0  0  0  0  0  0  0  0  0  0  0  0
    0.9700   24.0750  -26.8950 C   0  0  0  0  0  0  0  0  0  0  0  0
    1.0600   25.0820  -25.7630 C   0  0  0  0  0  0  0  0  0  0  0  0
   -0.1490   26.3450  -25.9680 S   0  0  0  0  0  0  0  0  0  0  0  0
   -0.9310   26.9000  -24.4870 C   0  0  0  0  0  0  0  0  0  0  0  0
   -0.1100   26.7490  -23.2660 C   0  0  0  0  0  0  0  0  0  0  0  0
    0.6650   27.9160  -22.9800 N   0  0  0  0  0  0  0  0  0  0  0  0
    2.0660   27.8530  -23.2880 C   0  0  0  0  0  0  0  0  0  0  0  0
    2.4670   26.7510  -23.7920 O   0  0  0  0  0  0  0  0  0  0  0  0
   -1.8760   23.4750  -27.2280 S   0  0  0  0  0  0  0  0  0  0  0  0
   -5.4540   22.2700  -30.9300 C   0  0  0  0  0  0  0  0  0  0  0  0
   -6.5100   21.4810  -31.3680 C   0  0  0  0  0  0  0  0  0  0  0  0
   -6.9238   17.6811  -30.9257 H   0  0  0  0  0  0  0  0  0  0  0  0
   -7.4091   16.9253  -32.4813 H   0  0  0  0  0  0  0  0  0  0  0  0
   -6.4228   18.4266  -32.4813 H   0  0  0  0  0  0  0  0  0  0  0  0
   -9.2719   18.1117  -32.4504 H   0  0  0  0  0  0  0  0  0  0  0  0
   -8.7043   18.9471  -30.9276 H   0  0  0  0  0  0  0  0  0  0  0  0
   -7.2621   20.1669  -32.8854 H   0  0  0  0  0  0  0  0  0  0  0  0
   -8.9134   19.8801  -33.6372 H   0  0  0  0  0  0  0  0  0  0  0  0
   -9.5329   21.7472  -32.6876 H   0  0  0  0  0  0  0  0  0  0  0  0
   -9.4867   20.8423  -31.1362 H   0  0  0  0  0  0  0  0  0  0  0  0
   -8.9390   23.8149  -31.3655 H   0  0  0  0  0  0  0  0  0  0  0  0
   -7.0717   25.1947  -30.5955 H   0  0  0  0  0  0  0  0  0  0  0  0
   -1.9940   25.6740  -30.0290 H   0  0  0  0  0  0  0  0  0  0  0  0
    0.8952   23.0590  -26.4800 H   0  0  0  0  0  0  0  0  0  0  0  0
    1.8694   24.1418  -27.5248 H   0  0  0  0  0  0  0  0  0  0  0  0
    0.8883   24.5678  -24.8059 H   0  0  0  0  0  0  0  0  0  0  0  0
    2.0599   25.5403  -25.7717 H   0  0  0  0  0  0  0  0  0  0  0  0
   -1.1761   27.9657  -24.6065 H   0  0  0  0  0  0  0  0  0  0  0  0
   -1.8197   26.2672  -24.3465 H   0  0  0  0  0  0  0  0  0  0  0  0
   -0.7774   26.5512  -22.4143 H   0  0  0  0  0  0  0  0  0  0  0  0
    0.5889   25.9163  -23.4338 H   0  0  0  0  0  0  0  0  0  0  0  0
    0.3330   28.8140  -22.6040 H   0  0  0  0  0  0  0  0  0  0  0  0
    2.7471   28.6966  -23.1023 H   0  0  0  0  0  0  0  0  0  0  0  0
   -4.4617   21.8106  -30.8105 H   0  0  0  0  0  0  0  0  0  0  0  0
   -6.3452   20.4160  -31.5886 H   0  0  0  0  0  0  0  0  0  0  0  0
  1  2  1  0
  2  3  1  0
  3  4  1  0
  4  5  1  0
  5  6  2  0
  6  7  1  0
  7  8  2  0
  8  9  1  0
  9 10  2  0
  9 11  1  0
 11 12  2  0
 12 13  1  0
 13 14  1  0
 14 15  2  0
 15 16  1  0
 16 17  1  0
 17 18  1  0
 18 19  1  0
 19 20  1  0
 20 21  1  0
 21 22  1  0
 22 23  2  0
 15 24  1  0
  8 25  1  0
 25 26  2  0
 26  5  1  0
 24 12  1  0
  1 27  1  0
  1 28  1  0
  1 29  1  0
  2 30  1  0
  2 31  1  0
  3 32  1  0
  3 33  1  0
  4 34  1  0
  4 35  1  0
  6 36  1  0
  7 37  1  0
 13 38  1  0
 16 39  1  0
 16 40  1  0
 17 41  1  0
 17 42  1  0
 19 43  1  0
 19 44  1  0
 20 45  1  0
 20 46  1  0
 21 47  1  0
 22 48  1  0
 25 49  1  0
 26 50  1  0
M  END
>  <smiles>  (24) 
CCCCc1ccc(C(=O)N=c2[nH]nc(CCSCCNC=O)s2)cc1

>  <score_type>  (24) 
oracle

>  <origin>  (24) 
adg

>  <m_score__min__energy>  (24) 
-9.1300000000000008

>  <m_primary>  (24) 
energy

$$$$
25:0
     RDKit          3D

 37 40  0  0  0  0  0  0  0  0999 V2000
   -7.2470   17.3340  -33.1540 C   0  0  0  0  0  0  0  0  0  0  0  0
   -7.4770   18.7170  -32.7630 N   0  0  0  0  0  0  0  0  0  0  0  0
   -6.5580   19.6480  -32.3970 C   0  0  0  0  0  0  0  0  0  0  0  0
   -7.2480   20.7920  -32.1210 C   0  0  0  0  0  0  0  0  0  0  0  0
   -6.7300   22.0450  -31.6960 N   0  0  0  0  0  0  0  0  0  0  0  0
   -7.2660   23.2550  -31.9330 C   0  0  0  0  0  0  0  0  0  0  0  0
   -6.4840   24.1950  -31.3700 N   0  0  0  0  0  0  0  0  0  0  0  0
   -5.4400   23.5980  -30.7670 C   0  0  0  0  0  0  0  0  0  0  0  0
   -4.3780   24.3060  -30.0480 C   0  0  0  0  0  0  0  0  0  0  0  0
   -3.8820   25.3000  -30.6220 O   0  0  0  0  0  0  0  0  0  0  0  0
   -3.9650   23.8560  -28.7720 N   0  0  0  0  0  0  0  0  0  0  0  0
   -2.9640   24.4350  -27.9720 C   0  0  0  0  0  0  0  0  0  0  0  0
   -3.3290   24.9180  -26.7240 C   0  0  0  0  0  0  0  0  0  0  0  0
   -2.4020   25.4970  -25.8860 C   0  0  0  0  0  0  0  0  0  0  0  0
   -1.0750   25.6270  -26.2370 C   0  0  0  0  0  0  0  0  0  0  0  0
   -0.1550   26.1900  -25.4330 N   0  0  0  0  0  0  0  0  0  0  0  0
    1.1470   26.3150  -25.7830 C   0  0  0  0  0  0  0  0  0  0  0  0
    1.5010   25.8330  -27.0240 C   0  0  0  0  0  0  0  0  0  0  0  0
    0.5930   25.2650  -27.8450 N   0  0  0  0  0  0  0  0  0  0  0  0
   -0.6990   25.1560  -27.4640 C   0  0  0  0  0  0  0  0  0  0  0  0
   -1.6420   24.5690  -28.3100 C   0  0  0  0  0  0  0  0  0  0  0  0
   -5.6090   22.2530  -30.9800 C   0  0  0  0  0  0  0  0  0  0  0  0
   -8.5810   20.5070  -32.3320 C   0  0  0  0  0  0  0  0  0  0  0  0
   -8.6900   19.2430  -32.7200 N   0  0  0  0  0  0  0  0  0  0  0  0
   -7.1434   16.7108  -32.2535 H   0  0  0  0  0  0  0  0  0  0  0  0
   -8.0979   16.9757  -33.7520 H   0  0  0  0  0  0  0  0  0  0  0  0
   -6.3259   17.2703  -33.7520 H   0  0  0  0  0  0  0  0  0  0  0  0
   -5.4688   19.5068  -32.3352 H   0  0  0  0  0  0  0  0  0  0  0  0
   -8.1921   23.4457  -32.4951 H   0  0  0  0  0  0  0  0  0  0  0  0
   -4.4690   23.0050  -28.4060 H   0  0  0  0  0  0  0  0  0  0  0  0
   -4.3765   24.8372  -26.3981 H   0  0  0  0  0  0  0  0  0  0  0  0
   -2.7312   25.8680  -24.9042 H   0  0  0  0  0  0  0  0  0  0  0  0
    1.8844   26.7778  -25.1107 H   0  0  0  0  0  0  0  0  0  0  0  0
    2.5475   25.9129  -27.3532 H   0  0  0  0  0  0  0  0  0  0  0  0
   -1.3097   24.1978  -29.2907 H   0  0  0  0  0  0  0  0  0  0  0  0
   -4.9315   21.4645  -30.6204 H   0  0  0  0  0  0  0  0  0  0  0  0
   -9.4157   21.2113  -32.2003 H   0  0  0  0  0  0  0  0  0  0  0  0
  1  2  1  0
  2  3  1  0
  3  4  2  0
  4  5  1  0
  5  6  1  0
  6  7  2  0
  7  8  1  0
  8  9  1  0
  9 10  2  0
  9 11  1  0
 11 12  1  0
 12 13  2  0
 13 14  1  0
 14 15  2  0
 15 16  1  0
 16 17  2  0
 17 18  1  0
 18 19  2  0
 19 20  1  0
 20 21  2  0
  8 22  2  0
  4 23  1  0
 23 24  2  0
 24  2  1  0
 22  5  1  0
 21 12  1  0
 20 15  1  0
  1 25  1  0
  1 26  1  0
  1 27  1  0
  3 28  1  0
  6 29  1  0
 11 30  1  0
 13 31  1  0
 14 32  1  0
 17 33  1  0
 18 34  1  0
 21 35  1  0
 22 36  1  0
 23 37  1  0
M  END
>  <smiles>  (25) 
Cn1cc(-n2cnc(C(=O)Nc3ccc4nccnc4c3)c2)cn1

>  <score_type>  (25) 
oracle

>  <origin>  (25) 
adg

>  <m_score__min__energy>  (25) 
-8.0600000000000005

>  <m_primary>  (25) 
energy

$$$$
26:0
     RDKit          3D

 51 54  0  0  0  0  0  0  0  0999 V2000
   -2.3230   14.8780  -32.7470 C   0  0  0  0  0  0  0  0  0  0  0  0
   -3.3660   15.8810  -32.8650 N   0  0  0  0  0  0  0  0  0  0  0  0
   -4.5860   15.3600  -32.3330 C   0  0  0  0  0  0  0  0  0  0  0  0
   -5.7100   16.4070  -32.3860 C   0  0  0  0  0  0  0  0  0  0  0  0
   -5.6240   17.1010  -33.6560 N   0  0  0  0  0  0  0  0  0  0  0  0
   -6.2350   18.3530  -33.9200 C   0  0  0  0  0  0  0  0  0  0  0  0
   -6.1070   18.8980  -35.0680 O   0  0  0  0  0  0  0  0  0  0  0  0
   -7.0260   19.0960  -32.9530 C   0  0  0  0  0  0  0  0  0  0  0  0
   -8.3570   18.7480  -32.7250 C   0  0  0  0  0  0  0  0  0  0  0  0
   -9.1490   19.4220  -31.8190 C   0  0  0  0  0  0  0  0  0  0  0  0
   -8.6400   20.4870  -31.0910 C   0  0  0  0  0  0  0  0  0  0  0  0
   -7.3250   20.8360  -31.3110 C   0  0  0  0  0  0  0  0  0  0  0  0
   -6.5390   20.1570  -32.2190 C   0  0  0  0  0  0  0  0  0  0  0  0
   -5.1350   20.5850  -32.4060 C   0  0  0  0  0  0  0  0  0  0  0  0
   -4.1220   19.6570  -32.3300 C   0  0  0  0  0  0  0  0  0  0  0  0
   -2.8160   20.0030  -32.5010 C   0  0  0  0  0  0  0  0  0  0  0  0
   -1.5070   18.8450  -32.4090 Cl  0  0  0  0  0  0  0  0  0  0  0  0
   -2.5220   21.3230  -32.7540 C   0  0  0  0  0  0  0  0  0  0  0  0
   -3.5400   22.2510  -32.8300 C   0  0  0  0  0  0  0  0  0  0  0  0
   -4.8700   21.9460  -32.6660 C   0  0  0  0  0  0  0  0  0  0  0  0
   -5.9220   22.7730  -32.7200 O   0  0  0  0  0  0  0  0  0  0  0  0
   -6.3070   23.8490  -31.9460 C   0  0  0  0  0  0  0  0  0  0  0  0
   -5.4660   24.0420  -30.7450 C   0  0  0  0  0  0  0  0  0  0  0  0
   -5.6760   23.8630  -29.4520 N   0  0  0  0  0  0  0  0  0  0  0  0
   -4.5720   24.1890  -28.7370 C   0  0  0  0  0  0  0  0  0  0  0  0
   -3.6500   24.5880  -29.6850 C   0  0  0  0  0  0  0  0  0  0  0  0
   -4.2200   24.4840  -30.8390 O   0  0  0  0  0  0  0  0  0  0  0  0
   -4.8530   16.4450  -34.6990 C   0  0  0  0  0  0  0  0  0  0  0  0
   -3.4290   16.4050  -34.1890 C   0  0  0  0  0  0  0  0  0  0  0  0
   -2.1203   14.6831  -31.6835 H   0  0  0  0  0  0  0  0  0  0  0  0
   -2.6518   13.9481  -33.2340 H   0  0  0  0  0  0  0  0  0  0  0  0
   -1.4067   15.2428  -33.2340 H   0  0  0  0  0  0  0  0  0  0  0  0
   -4.8871   14.4808  -32.9216 H   0  0  0  0  0  0  0  0  0  0  0  0
   -4.4169   15.0848  -31.2815 H   0  0  0  0  0  0  0  0  0  0  0  0
   -6.6870   15.9090  -32.2993 H   0  0  0  0  0  0  0  0  0  0  0  0
   -5.6038   17.1204  -31.5555 H   0  0  0  0  0  0  0  0  0  0  0  0
   -8.7900   17.9073  -33.2869 H   0  0  0  0  0  0  0  0  0  0  0  0
  -10.1942   19.1119  -31.6725 H   0  0  0  0  0  0  0  0  0  0  0  0
   -9.2620   21.0322  -30.3658 H   0  0  0  0  0  0  0  0  0  0  0  0
   -6.8916   21.6764  -30.7489 H   0  0  0  0  0  0  0  0  0  0  0  0
   -4.3741   18.6060  -32.1254 H   0  0  0  0  0  0  0  0  0  0  0  0
   -1.4775   21.6378  -32.8954 H   0  0  0  0  0  0  0  0  0  0  0  0
   -3.2710   23.2979  -33.0341 H   0  0  0  0  0  0  0  0  0  0  0  0
   -6.2495   24.7590  -32.5613 H   0  0  0  0  0  0  0  0  0  0  0  0
   -7.3299   23.6465  -31.5958 H   0  0  0  0  0  0  0  0  0  0  0  0
   -4.4397   24.1456  -27.6458 H   0  0  0  0  0  0  0  0  0  0  0  0
   -2.6224   24.9303  -29.4928 H   0  0  0  0  0  0  0  0  0  0  0  0
   -5.2283   15.4252  -34.8700 H   0  0  0  0  0  0  0  0  0  0  0  0
   -4.9270   16.9801  -35.6572 H   0  0  0  0  0  0  0  0  0  0  0  0
   -2.8280   15.7684  -34.8550 H   0  0  0  0  0  0  0  0  0  0  0  0
   -3.0374   17.4328  -34.1739 H   0  0  0  0  0  0  0  0  0  0  0  0
  1  2  1  0
  2  3  1  0
  3  4  1  0
  4  5  1  0
  5  6  1  0
  6  7  2  0
  6  8  1  0
  8  9  2  0
  9 10  1  0
 10 11  2  0
 11 12  1  0
 12 13  2  0
 13 14  1  0
 14 15  2  0
 15 16  1  0
 16 17  1  0
 16 18  2  0
 18 19  1  0
 19 20  2  0
 20 21  1  0
 21 22  1  0
 22 23  1  0
 23 24  2  0
 24 25  1  0
 25 26  2  0
 26 27  1  0
  5 28  1  0
 28 29  1  0
 29  2  1  0
 13  8  1  0
 20 14  1  0
 27 23  1  0
  1 30  1  0
  1 31  1  0
  1 32  1  0
  3 33  1  0
  3 34  1  0
  4 35  1  0
  4 36  1  0
  9 37  1  0
 10 38  1  0
 11 39  1  0
 12 40  1  0
 15 41  1  0
 18 42  1  0
 19 43  1  0
 22 44  1  0
 22 45  1  0
 25 46  1  0
 26 47  1  0
 28 48  1  0
 28 49  1  0
 29 50  1  0
 29 51  1  0
M  END
>  <smiles>  (26) 
CN1CCN(C(=O)c2ccccc2-c2cc(Cl)ccc2OCc2ncco2)CC1

>  <score_type>  (26) 
oracle

>  <origin>  (26) 
adg

>  <m_score__min__energy>  (26) 
-8.6199999999999992

>  <m_primary>  (26) 
energy

$$$$
27:0
     RDKit          3D

 50 52  0  0  0  0  0  0  0  0999 V2000
   -5.3630   16.6720  -32.3910 C   0  0  0  0  0  0  0  0  0  0  0  0
   -5.5950   17.9630  -31.8920 O   0  0  0  0  0  0  0  0  0  0  0  0
   -6.8550   18.5320  -32.0520 C   0  0  0  0  0  0  0  0  0  0  0  0
   -7.8800   18.0580  -31.3280 N   0  0  0  0  0  0  0  0  0  0  0  0
   -9.1100   18.5820  -31.4540 C   0  0  0  0  0  0  0  0  0  0  0  0
   -9.3550   19.6140  -32.3260 C   0  0  0  0  0  0  0  0  0  0  0  0
   -8.3260   20.1250  -33.0840 C   0  0  0  0  0  0  0  0  0  0  0  0
   -7.0680   19.5870  -32.9510 C   0  0  0  0  0  0  0  0  0  0  0  0
   -5.8790   20.0380  -33.7050 C   0  0  0  0  0  0  0  0  0  0  0  0
   -5.2790   21.1690  -33.0920 N   0  0  0  0  0  0  0  0  0  0  0  0
   -6.1660   22.0140  -32.3400 C   0  0  0  0  0  0  0  0  0  0  0  0
   -5.3940   23.3200  -32.1120 C   0  0  0  0  0  0  0  0  0  0  0  0
   -4.3470   22.9320  -31.1500 N   0  0  0  0  0  0  0  0  0  0  0  0
   -3.6770   23.9800  -30.4290 C   0  0  0  0  0  0  0  0  0  0  0  0
   -3.9250   25.1890  -30.6440 O   0  0  0  0  0  0  0  0  0  0  0  0
   -2.6960   23.6380  -29.4290 N   0  0  0  0  0  0  0  0  0  0  0  0
   -1.9780   24.6790  -28.6790 C   0  0  0  0  0  0  0  0  0  0  0  0
   -2.5350   24.6440  -27.2800 C   0  0  0  0  0  0  0  0  0  0  0  0
   -1.5880   24.0040  -26.3220 C   0  0  0  0  0  0  0  0  0  0  0  0
   -0.3810   24.7180  -26.4220 O   0  0  0  0  0  0  0  0  0  0  0  0
    0.2450   24.2600  -27.5730 C   0  0  0  0  0  0  0  0  0  0  0  0
   -0.5300   24.4980  -28.8340 C   0  0  0  0  0  0  0  0  0  0  0  0
   -4.0260   21.5330  -30.9910 C   0  0  0  0  0  0  0  0  0  0  0  0
   -4.0580   20.9220  -32.3990 C   0  0  0  0  0  0  0  0  0  0  0  0
   -5.2372   15.9718  -31.5521 H   0  0  0  0  0  0  0  0  0  0  0  0
   -6.2190   16.3573  -33.0060 H   0  0  0  0  0  0  0  0  0  0  0  0
   -4.4510   16.6750  -33.0060 H   0  0  0  0  0  0  0  0  0  0  0  0
   -9.9348   18.1779  -30.8487 H   0  0  0  0  0  0  0  0  0  0  0  0
  -10.3689   20.0304  -32.4184 H   0  0  0  0  0  0  0  0  0  0  0  0
   -8.5077   20.9520  -33.7861 H   0  0  0  0  0  0  0  0  0  0  0  0
   -5.1457   19.2189  -33.7415 H   0  0  0  0  0  0  0  0  0  0  0  0
   -6.1972   20.3204  -34.7194 H   0  0  0  0  0  0  0  0  0  0  0  0
   -7.0876   22.2066  -32.9089 H   0  0  0  0  0  0  0  0  0  0  0  0
   -6.4668   21.5470  -31.3905 H   0  0  0  0  0  0  0  0  0  0  0  0
   -4.9511   23.6848  -33.0505 H   0  0  0  0  0  0  0  0  0  0  0  0
   -6.0317   24.1386  -31.7470 H   0  0  0  0  0  0  0  0  0  0  0  0
   -2.4460   22.6670  -29.1900 H   0  0  0  0  0  0  0  0  0  0  0  0
   -2.1319   25.7017  -29.0537 H   0  0  0  0  0  0  0  0  0  0  0  0
   -2.7331   25.6744  -26.9499 H   0  0  0  0  0  0  0  0  0  0  0  0
   -3.4599   24.0487  -27.2953 H   0  0  0  0  0  0  0  0  0  0  0  0
   -1.9832   24.0660  -25.2973 H   0  0  0  0  0  0  0  0  0  0  0  0
   -1.4425   22.9390  -26.5558 H   0  0  0  0  0  0  0  0  0  0  0  0
    1.2153   24.7703  -27.6636 H   0  0  0  0  0  0  0  0  0  0  0  0
    0.3434   23.1697  -27.4651 H   0  0  0  0  0  0  0  0  0  0  0  0
   -0.1273   25.4044  -29.3096 H   0  0  0  0  0  0  0  0  0  0  0  0
   -0.4096   23.5822  -29.4313 H   0  0  0  0  0  0  0  0  0  0  0  0
   -3.0251   21.4195  -30.5490 H   0  0  0  0  0  0  0  0  0  0  0  0
   -4.7403   21.0321  -30.3210 H   0  0  0  0  0  0  0  0  0  0  0  0
   -3.2311   21.3503  -32.9846 H   0  0  0  0  0  0  0  0  0  0  0  0
   -3.9627   19.8322  -32.2840 H   0  0  0  0  0  0  0  0  0  0  0  0
  1  2  1  0
  2  3  1  0
  3  4  2  0
  4  5  1  0
  5  6  2  0
  6  7  1  0
  7  8  2  0
  8  9  1  0
  9 10  1  0
 10 11  1  0
 11 12  1  0
 12 13  1  0
 13 14  1  0
 14 15  2  0
 14 16  1  0
 16 17  1  0
 17 18  1  0
 18 19  1  0
 19 20  1  0
 20 21  1  0
 21 22  1  0
 13 23  1  0
 23 24  1  0
  8  3  1  0
 24 10  1  0
 22 17  1  0
  1 25  1  0
  1 26  1  0
  1 27  1  0
  5 28  1  0
  6 29  1  0
  7 30  1  0
  9 31  1  0
  9 32  1  0
 11 33  1  0
 11 34  1  0
 12 35  1  0
 12 36  1  0
 16 37  1  0
 17 38  1  0
 18 39  1  0
 18 40  1  0
 19 41  1  0
 19 42  1  0
 21 43  1  0
 21 44  1  0
 22 45  1  0
 22 46  1  0
 23 47  1  0
 23 48  1  0
 24 49  1  0
 24 50  1  0
M  END
>  <smiles>  (27) 
COc1ncccc1CN1CCN(C(=O)NC2CCOCC2)CC1

>  <score_type>  (27) 
oracle

>  <origin>  (27) 
adg

>  <m_score__min__energy>  (27) 
-7.54

>  <m_primary>  (27) 
energy

$$$$
28:0
     RDKit          3D

 25 25  0  0  0  0  0  0  0  0999 V2000
   -4.1800   25.5090  -30.8620 N   0  0  0  0  0  0  0  0  0  0  0  0
   -5.3710   25.1900  -30.0620 C   0  0  0  0  0  0  0  0  0  0  0  0
   -6.1170   24.0970  -30.7840 C   0  0  0  0  0  0  0  0  0  0  0  0
   -5.1590   23.0720  -31.3540 C   0  0  0  0  0  0  0  0  0  0  0  0
   -5.6260   22.5090  -32.5630 N   0  0  0  0  0  0  0  0  0  0  0  0
   -6.5490   21.3980  -32.5460 C   0  0  0  0  0  0  0  0  0  0  0  0
   -7.8090   21.7460  -32.2300 C   0  0  0  0  0  0  0  0  0  0  0  0
   -8.8400   20.7210  -32.1830 C   0  0  0  0  0  0  0  0  0  0  0  0
   -9.9950   21.0820  -31.8850 O   0  0  0  0  0  0  0  0  0  0  0  0
   -8.4850   19.3400  -32.4780 C   0  0  0  0  0  0  0  0  0  0  0  0
   -7.2430   19.0230  -32.7870 C   0  0  0  0  0  0  0  0  0  0  0  0
   -6.8670   17.3240  -33.1380 Cl  0  0  0  0  0  0  0  0  0  0  0  0
   -6.1710   20.0450  -32.8430 C   0  0  0  0  0  0  0  0  0  0  0  0
   -4.9900   19.7280  -33.1380 O   0  0  0  0  0  0  0  0  0  0  0  0
   -4.4540   25.6760  -31.8610 H   0  0  0  0  0  0  0  0  0  0  0  0
   -3.8660   26.4610  -30.5070 H   0  0  0  0  0  0  0  0  0  0  0  0
   -5.0710   24.8437  -29.0620 H   0  0  0  0  0  0  0  0  0  0  0  0
   -6.0067   26.0792  -29.9387 H   0  0  0  0  0  0  0  0  0  0  0  0
   -6.7982   23.5994  -30.0781 H   0  0  0  0  0  0  0  0  0  0  0  0
   -6.6830   24.5471  -31.6129 H   0  0  0  0  0  0  0  0  0  0  0  0
   -4.1914   23.5600  -31.5426 H   0  0  0  0  0  0  0  0  0  0  0  0
   -5.0649   22.2578  -30.6203 H   0  0  0  0  0  0  0  0  0  0  0  0
   -5.3070   22.9020  -33.4760 H   0  0  0  0  0  0  0  0  0  0  0  0
   -8.0573   22.7947  -32.0094 H   0  0  0  0  0  0  0  0  0  0  0  0
   -9.2570   18.5571  -32.4429 H   0  0  0  0  0  0  0  0  0  0  0  0
  1  2  1  0
  2  3  1  0
  3  4  1  0
  4  5  1  0
  5  6  1  0
  6  7  2  0
  7  8  1  0
  8  9  2  0
  8 10  1  0
 10 11  2  0
 11 12  1  0
 11 13  1  0
 13 14  2  0
 13  6  1  0
  1 15  1  0
  1 16  1  0
  2 17  1  0
  2 18  1  0
  3 19  1  0
  3 20  1  0
  4 21  1  0
  4 22  1  0
  5 23  1  0
  7 24  1  0
 10 25  1  0
M  END
>  <smiles>  (28) 
NCCCNC1=CC(=O)C=C(Cl)C1=O

>  <score_type>  (28) 
oracle

>  <origin>  (28) 
adg

>  <m_score__min__energy>  (28) 
-7.2400000000000002

>  <m_primary>  (28) 
energy

$$$$
29:0
     RDKit          3D

 39 41  0  0  0  0  0  0  0  0999 V2000
   -5.6800   18.2150  -34.6650 C   0  0  0  0  0  0  0  0  0  0  0  0
   -5.5140   18.8430  -33.3010 C   0  0  0  0  0  0  0  0  0  0  0  0
   -6.7450   19.4600  -32.8150 N   0  0  0  0  0  0  0  0  0  0  0  0
   -7.9290   18.8060  -32.6680 C   0  0  0  0  0  0  0  0  0  0  0  0
   -8.8900   19.6660  -32.1910 C   0  0  0  0  0  0  0  0  0  0  0  0
   -8.2540   20.8910  -32.0440 C   0  0  0  0  0  0  0  0  0  0  0  0
   -8.7600   22.1070  -31.5970 C   0  0  0  0  0  0  0  0  0  0  0  0
   -7.8820   23.1710  -31.5570 C   0  0  0  0  0  0  0  0  0  0  0  0
   -6.5670   23.0560  -31.9360 C   0  0  0  0  0  0  0  0  0  0  0  0
   -5.7150   24.2730  -31.8510 C   0  0  0  0  0  0  0  0  0  0  0  0
   -4.4870   24.0630  -31.1240 N   0  0  0  0  0  0  0  0  0  0  0  0
   -4.8680   24.0070  -29.7060 C   0  0  0  0  0  0  0  0  0  0  0  0
   -3.7250   24.3850  -28.8370 C   0  0  0  0  0  0  0  0  0  0  0  0
   -3.7970   24.1870  -27.4790 C   0  0  0  0  0  0  0  0  0  0  0  0
   -2.7090   24.5560  -26.7220 C   0  0  0  0  0  0  0  0  0  0  0  0
   -1.5730   25.1110  -27.3140 C   0  0  0  0  0  0  0  0  0  0  0  0
   -1.6040   25.2670  -28.6800 C   0  0  0  0  0  0  0  0  0  0  0  0
   -2.6490   24.9180  -29.4490 N   0  0  0  0  0  0  0  0  0  0  0  0
   -6.0840   21.8350  -32.3800 C   0  0  0  0  0  0  0  0  0  0  0  0
   -6.9390   20.7370  -32.4340 C   0  0  0  0  0  0  0  0  0  0  0  0
   -5.9596   17.1573  -34.5501 H   0  0  0  0  0  0  0  0  0  0  0  0
   -6.4690   18.7447  -35.2190 H   0  0  0  0  0  0  0  0  0  0  0  0
   -4.7323   18.2857  -35.2190 H   0  0  0  0  0  0  0  0  0  0  0  0
   -5.2054   18.0633  -32.5890 H   0  0  0  0  0  0  0  0  0  0  0  0
   -4.7555   19.6349  -33.3881 H   0  0  0  0  0  0  0  0  0  0  0  0
   -8.0936   17.7429  -32.8976 H   0  0  0  0  0  0  0  0  0  0  0  0
   -9.9423   19.4322  -31.9718 H   0  0  0  0  0  0  0  0  0  0  0  0
   -9.8106   22.2155  -31.2898 H   0  0  0  0  0  0  0  0  0  0  0  0
   -8.2491   24.1476  -31.2086 H   0  0  0  0  0  0  0  0  0  0  0  0
   -5.4647   24.5954  -32.8725 H   0  0  0  0  0  0  0  0  0  0  0  0
   -6.2901   25.0344  -31.3038 H   0  0  0  0  0  0  0  0  0  0  0  0
   -3.8970   24.9210  -31.2110 H   0  0  0  0  0  0  0  0  0  0  0  0
   -5.7012   24.7030  -29.5288 H   0  0  0  0  0  0  0  0  0  0  0  0
   -5.1702   22.9777  -29.4628 H   0  0  0  0  0  0  0  0  0  0  0  0
   -4.6925   23.7491  -27.0139 H   0  0  0  0  0  0  0  0  0  0  0  0
   -2.7347   24.4113  -25.6319 H   0  0  0  0  0  0  0  0  0  0  0  0
   -0.6975   25.4084  -26.7181 H   0  0  0  0  0  0  0  0  0  0  0  0
   -0.7218   25.7029  -29.1717 H   0  0  0  0  0  0  0  0  0  0  0  0
   -5.0327   21.7340  -32.6876 H   0  0  0  0  0  0  0  0  0  0  0  0
  1  2  1  0
  2  3  1  0
  3  4  1  0
  4  5  2  0
  5  6  1  0
  6  7  2  0
  7  8  1  0
  8  9  2  0
  9 10  1  0
 10 11  1  0
 11 12  1  0
 12 13  1  0
 13 14  2  0
 14 15  1  0
 15 16  2  0
 16 17  1  0
 17 18  2  0
  9 19  1  0
 19 20  2  0
 20  3  1  0
 20  6  1  0
 18 13  1  0
  1 21  1  0
  1 22  1  0
  1 23  1  0
  2 24  1  0
  2 25  1  0
  4 26  1  0
  5 27  1  0
  7 28  1  0
  8 29  1  0
 10 30  1  0
 10 31  1  0
 11 32  1  0
 12 33  1  0
 12 34  1  0
 14 35  1  0
 15 36  1  0
 16 37  1  0
 17 38  1  0
 19 39  1  0
M  END
>  <smiles>  (29) 
CCn1ccc2ccc(CNCc3ccccn3)cc21

>  <score_type>  (29) 
oracle

>  <origin>  (29) 
adg

>  <m_score__min__energy>  (29) 
-8.1400000000000006

>  <m_primary>  (29) 
energy

$$$$
30:0
     RDKit          3D

 48 50  0  0  1  0  0  0  0  0999 V2000
   -5.2160   25.4280  -30.5920 C   0  0  0  0  0  0  0  0  0  0  0  0
   -3.8000   25.2890  -30.4440 O   0  0  0  0  0  0  0  0  0  0  0  0
   -3.2870   24.2490  -29.6790 C   0  0  0  0  0  0  0  0  0  0  0  0
   -2.9660   24.3890  -28.3470 C   0  0  0  0  0  0  0  0  0  0  0  0
   -2.4550   23.3430  -27.5980 C   0  0  0  0  0  0  0  0  0  0  0  0
   -2.2470   22.0960  -28.1790 C   0  0  0  0  0  0  0  0  0  0  0  0
   -2.5690   21.9520  -29.5200 C   0  0  0  0  0  0  0  0  0  0  0  0
   -3.0840   23.0190  -30.2590 C   0  0  0  0  0  0  0  0  0  0  0  0
   -3.3760   22.7470  -31.6290 N   0  0  0  0  0  0  0  0  0  0  0  0
   -4.5270   21.9150  -31.8710 C   0  0  0  0  0  0  0  0  0  0  0  0
   -5.1790   21.4970  -30.8760 O   0  0  0  0  0  0  0  0  0  0  0  0
   -4.9210   21.5720  -33.1920 N   0  0  0  0  0  0  0  0  0  0  0  0
   -6.0820   20.7310  -33.4690 C   0  0  1  0  0  0  0  0  0  0  0  0
   -5.6780   19.3010  -33.3920 C   0  0  0  0  0  0  0  0  0  0  0  0
   -5.0610   18.8300  -32.3860 O   0  0  0  0  0  0  0  0  0  0  0  0
   -5.9790   18.4260  -34.4550 N   0  0  0  0  0  0  0  0  0  0  0  0
   -5.5910   17.0560  -34.3780 C   0  0  0  0  0  0  0  0  0  0  0  0
   -6.6090   16.1390  -34.1790 C   0  0  0  0  0  0  0  0  0  0  0  0
   -6.3400   14.7800  -34.0890 C   0  0  0  0  0  0  0  0  0  0  0  0
   -5.0140   14.4150  -34.2120 C   0  0  0  0  0  0  0  0  0  0  0  0
   -4.0240   15.3080  -34.4070 N   0  0  0  0  0  0  0  0  0  0  0  0
   -4.2830   16.6370  -34.4940 C   0  0  0  0  0  0  0  0  0  0  0  0
   -7.2400   21.0500  -32.5930 C   0  0  0  0  0  0  0  0  0  0  0  0
   -7.5740   22.3620  -32.3260 C   0  0  0  0  0  0  0  0  0  0  0  0
   -8.6610   22.6160  -31.5030 C   0  0  0  0  0  0  0  0  0  0  0  0
   -9.4160   21.5850  -30.9460 C   0  0  0  0  0  0  0  0  0  0  0  0
   -9.0800   20.2730  -31.2130 C   0  0  0  0  0  0  0  0  0  0  0  0
   -7.9860   20.0020  -32.0420 C   0  0  0  0  0  0  0  0  0  0  0  0
   -5.6857   25.4741  -29.5984 H   0  0  0  0  0  0  0  0  0  0  0  0
   -5.4378   26.3522  -31.1457 H   0  0  0  0  0  0  0  0  0  0  0  0
   -5.6133   24.5645  -31.1457 H   0  0  0  0  0  0  0  0  0  0  0  0
   -3.1208   25.3643  -27.8623 H   0  0  0  0  0  0  0  0  0  0  0  0
   -2.2118   23.4987  -26.5366 H   0  0  0  0  0  0  0  0  0  0  0  0
   -1.8421   21.2555  -27.5962 H   0  0  0  0  0  0  0  0  0  0  0  0
   -2.4159   20.9794  -30.0106 H   0  0  0  0  0  0  0  0  0  0  0  0
   -2.8110   23.1110  -32.4220 H   0  0  0  0  0  0  0  0  0  0  0  0
   -4.3470   21.9430  -34.0010 H   0  0  0  0  0  0  0  0  0  0  0  0
   -6.4354   20.9404  -34.4894 H   0  0  0  0  0  0  0  0  0  0  0  0
   -6.4900   18.7380  -35.3290 H   0  0  0  0  0  0  0  0  0  0  0  0
   -7.6469   16.4926  -34.0909 H   0  0  0  0  0  0  0  0  0  0  0  0
   -7.1361   14.0379  -33.9292 H   0  0  0  0  0  0  0  0  0  0  0  0
   -4.7544   13.3480  -34.1480 H   0  0  0  0  0  0  0  0  0  0  0  0
   -3.4704   17.3611  -34.6529 H   0  0  0  0  0  0  0  0  0  0  0  0
   -6.9904   23.1889  -32.7568 H   0  0  0  0  0  0  0  0  0  0  0  0
   -8.9346   23.6587  -31.2840 H   0  0  0  0  0  0  0  0  0  0  0  0
  -10.2742   21.8155  -30.2977 H   0  0  0  0  0  0  0  0  0  0  0  0
   -9.6660   19.4496  -30.7787 H   0  0  0  0  0  0  0  0  0  0  0  0
   -7.7109   18.9599  -32.2618 H   0  0  0  0  0  0  0  0  0  0  0  0
  1  2  1  0
  2  3  1  0
  3  4  2  0
  4  5  1  0
  5  6  2  0
  6  7  1  0
  7  8  2  0
  8  9  1  0
  9 10  1  0
 10 11  2  0
 10 12  1  0
 12 13  1  0
 13 14  1  0
 14 15  2  0
 14 16  1  0
 16 17  1  0
 17 18  2  0
 18 19  1  0
 19 20  2  0
 20 21  1  0
 21 22  2  0
 13 23  1  0
 23 24  2  0
 24 25  1  0
 25 26  2  0
 26 27  1  0
 27 28  2  0
  8  3  1  0
 22 17  1  0
 28 23  1  0
  1 29  1  0
  1 30  1  0
  1 31  1  0
  4 32  1  0
  5 33  1  0
  6 34  1  0
  7 35  1  0
  9 36  1  0
 12 37  1  0
 13 38  1  6
 16 39  1  0
 18 40  1  0
 19 41  1  0
 20 42  1  0
 22 43  1  0
 24 44  1  0
 25 45  1  0
 26 46  1  0
 27 47  1  0
 28 48  1  0
M  END
>  <smiles>  (30) 
COc1ccccc1NC(=O)NC(C(=O)Nc1cccnc1)c1ccccc1

>  <score_type>  (30) 
oracle

>  <origin>  (30) 
adg

>  <m_score__min__energy>  (30) 
-9.1300000000000008

>  <m_primary>  (30) 
energy

$$$$
31:0
     RDKit          3D

 39 41  0  0  1  0  0  0  0  0999 V2000
   -4.7780   18.6780  -33.3690 C   0  0  0  0  0  0  0  0  0  0  0  0
   -6.1140   18.9830  -32.7440 C   0  0  0  0  0  0  0  0  0  0  0  0
   -6.8540   18.0750  -31.9840 C   0  0  0  0  0  0  0  0  0  0  0  0
   -8.0010   18.7720  -31.6140 C   0  0  0  0  0  0  0  0  0  0  0  0
   -7.8970   20.0420  -32.1600 C   0  0  0  0  0  0  0  0  0  0  0  0
   -8.9430   21.0820  -31.9790 C   0  0  0  0  0  0  0  0  0  0  0  0
   -8.5750   22.1000  -31.0220 N   0  0  0  0  0  0  0  0  0  0  0  0
   -8.7060   23.3880  -31.6280 C   0  0  0  0  0  0  0  0  0  0  0  0
   -7.7170   23.5990  -32.7300 C   0  0  0  0  0  0  0  0  0  0  0  0
   -6.3110   23.2430  -32.3450 C   0  0  0  0  0  0  0  0  0  0  0  0
   -6.1830   22.7430  -30.9510 C   0  0  1  0  0  0  0  0  0  0  0  0
   -4.8950   21.9290  -30.8320 C   0  0  0  0  0  0  0  0  0  0  0  0
   -3.8770   22.9980  -31.1740 C   0  0  0  0  0  0  0  0  0  0  0  0
   -4.4560   24.2280  -30.5380 C   0  0  0  0  0  0  0  0  0  0  0  0
   -3.8650   25.2970  -30.4590 O   0  0  0  0  0  0  0  0  0  0  0  0
   -5.8430   23.9050  -30.0370 C   0  0  0  0  0  0  0  0  0  0  0  0
   -7.2940   21.8990  -30.4360 C   0  0  0  0  0  0  0  0  0  0  0  0
   -6.7610   20.0990  -32.8140 O   0  0  0  0  0  0  0  0  0  0  0  0
   -4.0332   18.5080  -32.5776 H   0  0  0  0  0  0  0  0  0  0  0  0
   -4.8624   17.7760  -33.9929 H   0  0  0  0  0  0  0  0  0  0  0  0
   -4.4626   19.5273  -33.9929 H   0  0  0  0  0  0  0  0  0  0  0  0
   -6.5890   17.0373  -31.7329 H   0  0  0  0  0  0  0  0  0  0  0  0
   -8.8320   18.3879  -31.0042 H   0  0  0  0  0  0  0  0  0  0  0  0
   -9.1270   21.5652  -32.9499 H   0  0  0  0  0  0  0  0  0  0  0  0
   -9.8406   20.5783  -31.5910 H   0  0  0  0  0  0  0  0  0  0  0  0
   -9.7212   23.4835  -32.0405 H   0  0  0  0  0  0  0  0  0  0  0  0
   -8.5146   24.1457  -30.8538 H   0  0  0  0  0  0  0  0  0  0  0  0
   -8.0121   22.9762  -33.5874 H   0  0  0  0  0  0  0  0  0  0  0  0
   -7.7255   24.6718  -32.9730 H   0  0  0  0  0  0  0  0  0  0  0  0
   -5.9508   22.4607  -33.0293 H   0  0  0  0  0  0  0  0  0  0  0  0
   -5.7153   24.1653  -32.4123 H   0  0  0  0  0  0  0  0  0  0  0  0
   -4.7511   21.5388  -29.8137 H   0  0  0  0  0  0  0  0  0  0  0  0
   -4.8542   21.0303  -31.4650 H   0  0  0  0  0  0  0  0  0  0  0  0
   -2.8922   22.7578  -30.7469 H   0  0  0  0  0  0  0  0  0  0  0  0
   -3.7078   23.1067  -32.2555 H   0  0  0  0  0  0  0  0  0  0  0  0
   -5.8362   23.6048  -28.9788 H   0  0  0  0  0  0  0  0  0  0  0  0
   -6.5549   24.7431  -30.0651 H   0  0  0  0  0  0  0  0  0  0  0  0
   -7.0154   20.8471  -30.5969 H   0  0  0  0  0  0  0  0  0  0  0  0
   -7.4107   22.1877  -29.3810 H   0  0  0  0  0  0  0  0  0  0  0  0
  1  2  1  0
  2  3  2  0
  3  4  1  0
  4  5  2  0
  5  6  1  0
  6  7  1  0
  7  8  1  0
  8  9  1  0
  9 10  1  0
 11 10  1  6
 11 12  1  0
 12 13  1  0
 13 14  1  0
 14 15  2  0
 14 16  1  0
 11 17  1  0
  5 18  1  0
 18  2  1  0
 17  7  1  0
 16 11  1  0
  1 19  1  0
  1 20  1  0
  1 21  1  0
  3 22  1  0
  4 23  1  0
  6 24  1  0
  6 25  1  0
  8 26  1  0
  8 27  1  0
  9 28  1  0
  9 29  1  0
 10 30  1  0
 10 31  1  0
 12 32  1  0
 12 33  1  0
 13 34  1  0
 13 35  1  0
 16 36  1  0
 16 37  1  0
 17 38  1  0
 17 39  1  0
M  END
>  <smiles>  (31) 
Cc1ccc(CN2CCCC3(CCC(=O)C3)C2)o1

>  <score_type>  (31) 
oracle

>  <origin>  (31) 
adg

>  <m_score__min__energy>  (31) 
-8.0099999999999998

>  <m_primary>  (31) 
energy

$$$$
32:0
     RDKit          3D

 33 34  0  0  0  0  0  0  0  0999 V2000
   -4.9730   17.3720  -34.6080 C   0  0  0  0  0  0  0  0  0  0  0  0
   -5.1520   17.7500  -33.2590 O   0  0  0  0  0  0  0  0  0  0  0  0
   -6.2130   18.5420  -32.9050 C   0  0  0  0  0  0  0  0  0  0  0  0
   -7.4600   17.9620  -32.7290 C   0  0  0  0  0  0  0  0  0  0  0  0
   -8.5730   18.7200  -32.3670 C   0  0  0  0  0  0  0  0  0  0  0  0
   -8.4480   20.0830  -32.1780 C   0  0  0  0  0  0  0  0  0  0  0  0
   -9.5150   20.7960  -31.8370 N   0  0  0  0  0  0  0  0  0  0  0  0
   -9.4170   22.1150  -31.6520 C   0  0  0  0  0  0  0  0  0  0  0  0
   -8.1760   22.7190  -31.8250 C   0  0  0  0  0  0  0  0  0  0  0  0
   -7.0440   22.0150  -32.1780 C   0  0  0  0  0  0  0  0  0  0  0  0
   -5.7850   22.7380  -32.3470 C   0  0  0  0  0  0  0  0  0  0  0  0
   -5.7890   24.0990  -31.9070 N   0  0  0  0  0  0  0  0  0  0  0  0
   -5.7250   24.1350  -30.4740 C   0  0  0  0  0  0  0  0  0  0  0  0
   -4.4180   24.7210  -29.9760 C   0  0  0  0  0  0  0  0  0  0  0  0
   -3.8680   25.6610  -30.8160 O   0  0  0  0  0  0  0  0  0  0  0  0
   -7.1890   20.6570  -32.3590 C   0  0  0  0  0  0  0  0  0  0  0  0
   -6.1100   19.9020  -32.7120 C   0  0  0  0  0  0  0  0  0  0  0  0
   -4.5026   16.3786  -34.6511 H   0  0  0  0  0  0  0  0  0  0  0  0
   -5.9502   17.3371  -35.1118 H   0  0  0  0  0  0  0  0  0  0  0  0
   -4.3268   18.1059  -35.1118 H   0  0  0  0  0  0  0  0  0  0  0  0
   -7.5740   16.8782  -32.8785 H   0  0  0  0  0  0  0  0  0  0  0  0
   -9.5501   18.2331  -32.2320 H   0  0  0  0  0  0  0  0  0  0  0  0
  -10.2977   22.7103  -31.3692 H   0  0  0  0  0  0  0  0  0  0  0  0
   -8.0940   23.8054  -31.6737 H   0  0  0  0  0  0  0  0  0  0  0  0
   -5.0086   22.2020  -31.7815 H   0  0  0  0  0  0  0  0  0  0  0  0
   -5.6019   22.7732  -33.4311 H   0  0  0  0  0  0  0  0  0  0  0  0
   -5.0140   24.6760  -32.2870 H   0  0  0  0  0  0  0  0  0  0  0  0
   -6.5557   24.7497  -30.0972 H   0  0  0  0  0  0  0  0  0  0  0  0
   -5.7947   23.1008  -30.1057 H   0  0  0  0  0  0  0  0  0  0  0  0
   -4.6013   25.1947  -29.0003 H   0  0  0  0  0  0  0  0  0  0  0  0
   -3.6999   23.8898  -29.9165 H   0  0  0  0  0  0  0  0  0  0  0  0
   -4.2520   25.6740  -31.7170 H   0  0  0  0  0  0  0  0  0  0  0  0
   -5.1337   20.3907  -32.8459 H   0  0  0  0  0  0  0  0  0  0  0  0
  1  2  1  0
  2  3  1  0
  3  4  2  0
  4  5  1  0
  5  6  2  0
  6  7  1  0
  7  8  2  0
  8  9  1  0
  9 10  2  0
 10 11  1  0
 11 12  1  0
 12 13  1  0
 13 14  1  0
 14 15  1  0
 10 16  1  0
 16 17  2  0
 17  3  1  0
 16  6  1  0
  1 18  1  0
  1 19  1  0
  1 20  1  0
  4 21  1  0
  5 22  1  0
  8 23  1  0
  9 24  1  0
 11 25  1  0
 11 26  1  0
 12 27  1  0
 13 28  1  0
 13 29  1  0
 14 30  1  0
 14 31  1  0
 15 32  1  0
 17 33  1  0
M  END
>  <smiles>  (32) 
COc1ccc2nccc(CNCCO)c2c1

>  <score_type>  (32) 
oracle

>  <origin>  (32) 
adg

>  <m_score__min__energy>  (32) 
-7.5300000000000002

>  <m_primary>  (32) 
energy

$$$$
33:0
     RDKit          3D

 67 70  0  0  0  0  0  0  0  0999 V2000
   -0.9500   26.0690  -27.7310 C   0  0  0  0  0  0  0  0  0  0  0  0
   -1.4900   25.6720  -28.9830 O   0  0  0  0  0  0  0  0  0  0  0  0
   -2.2340   24.5190  -29.0960 C   0  0  0  0  0  0  0  0  0  0  0  0
   -1.7600   23.3390  -28.5220 C   0  0  0  0  0  0  0  0  0  0  0  0
   -2.5360   22.2100  -28.6590 C   0  0  0  0  0  0  0  0  0  0  0  0
   -3.7220   22.2640  -29.3330 C   0  0  0  0  0  0  0  0  0  0  0  0
   -4.2240   23.4220  -29.9170 C   0  0  0  0  0  0  0  0  0  0  0  0
   -5.4640   23.4050  -30.6060 N   0  0  0  0  0  0  0  0  0  0  0  0
   -6.7240   23.8220  -30.0360 C   0  0  0  0  0  0  0  0  0  0  0  0
   -7.6350   22.6060  -30.1250 C   0  0  0  0  0  0  0  0  0  0  0  0
   -7.6330   21.9900  -31.4120 N   0  0  0  0  0  0  0  0  0  0  0  0
   -8.9270   21.5430  -31.8000 C   0  0  0  0  0  0  0  0  0  0  0  0
   -9.2100   20.0850  -31.5270 C   0  0  0  0  0  0  0  0  0  0  0  0
   -8.8940   19.2510  -32.7440 C   0  0  0  0  0  0  0  0  0  0  0  0
   -7.4810   18.9920  -32.8850 N   0  0  0  0  0  0  0  0  0  0  0  0
   -6.7620   19.1150  -31.6410 C   0  0  0  0  0  0  0  0  0  0  0  0
   -5.3850   18.5160  -31.8370 C   0  0  0  0  0  0  0  0  0  0  0  0
   -4.6580   19.3070  -32.9070 C   0  0  0  0  0  0  0  0  0  0  0  0
   -3.2870   18.7500  -33.1580 C   0  0  0  0  0  0  0  0  0  0  0  0
   -2.2390   19.6010  -32.5290 C   0  0  0  0  0  0  0  0  0  0  0  0
   -1.0790   19.0130  -32.0590 C   0  0  0  0  0  0  0  0  0  0  0  0
   -0.1300   19.8400  -31.4820 C   0  0  0  0  0  0  0  0  0  0  0  0
   -0.3140   21.2030  -31.3710 C   0  0  0  0  0  0  0  0  0  0  0  0
   -1.4810   21.8050  -31.8420 C   0  0  0  0  0  0  0  0  0  0  0  0
   -2.4200   20.9560  -32.4160 C   0  0  0  0  0  0  0  0  0  0  0  0
   -5.4880   19.2520  -34.1530 C   0  0  0  0  0  0  0  0  0  0  0  0
   -6.8540   19.8730  -33.8460 C   0  0  0  0  0  0  0  0  0  0  0  0
   -6.9550   22.7900  -32.3780 C   0  0  0  0  0  0  0  0  0  0  0  0
   -5.4800   22.9390  -31.9790 C   0  0  0  0  0  0  0  0  0  0  0  0
   -3.4420   24.5500  -29.7770 C   0  0  0  0  0  0  0  0  0  0  0  0
   -1.5472   25.6299  -26.9183 H   0  0  0  0  0  0  0  0  0  0  0  0
    0.0898   25.7187  -27.6525 H   0  0  0  0  0  0  0  0  0  0  0  0
   -0.9742   27.1659  -27.6525 H   0  0  0  0  0  0  0  0  0  0  0  0
   -0.8028   23.3117  -27.9806 H   0  0  0  0  0  0  0  0  0  0  0  0
   -2.1982   21.2584  -28.2226 H   0  0  0  0  0  0  0  0  0  0  0  0
   -4.3133   21.3404  -29.4189 H   0  0  0  0  0  0  0  0  0  0  0  0
   -6.5895   24.1253  -28.9872 H   0  0  0  0  0  0  0  0  0  0  0  0
   -7.1458   24.6869  -30.5690 H   0  0  0  0  0  0  0  0  0  0  0  0
   -7.3015   21.8653  -29.3833 H   0  0  0  0  0  0  0  0  0  0  0  0
   -8.6607   22.9537  -29.9328 H   0  0  0  0  0  0  0  0  0  0  0  0
   -9.6718   22.1423  -31.2559 H   0  0  0  0  0  0  0  0  0  0  0  0
   -8.9787   21.6657  -32.8919 H   0  0  0  0  0  0  0  0  0  0  0  0
   -8.5888   19.7468  -30.6846 H   0  0  0  0  0  0  0  0  0  0  0  0
  -10.2759   19.9683  -31.2814 H   0  0  0  0  0  0  0  0  0  0  0  0
   -9.4221   18.2898  -32.6597 H   0  0  0  0  0  0  0  0  0  0  0  0
   -9.2203   19.8155  -33.6299 H   0  0  0  0  0  0  0  0  0  0  0  0
   -6.6720   20.1760  -31.3648 H   0  0  0  0  0  0  0  0  0  0  0  0
   -7.2969   18.5896  -30.8361 H   0  0  0  0  0  0  0  0  0  0  0  0
   -4.8220   18.5658  -30.8933 H   0  0  0  0  0  0  0  0  0  0  0  0
   -5.4746   17.4638  -32.1449 H   0  0  0  0  0  0  0  0  0  0  0  0
   -4.5235   20.3482  -32.5785 H   0  0  0  0  0  0  0  0  0  0  0  0
   -3.2281   17.7362  -32.7351 H   0  0  0  0  0  0  0  0  0  0  0  0
   -3.1128   18.7267  -34.2439 H   0  0  0  0  0  0  0  0  0  0  0  0
   -0.9161   17.9282  -32.1405 H   0  0  0  0  0  0  0  0  0  0  0  0
    0.8009   19.3959  -31.0997 H   0  0  0  0  0  0  0  0  0  0  0  0
    0.4679   21.8215  -30.9061 H   0  0  0  0  0  0  0  0  0  0  0  0
   -1.6485   22.8893  -31.7636 H   0  0  0  0  0  0  0  0  0  0  0  0
   -3.3545   21.3923  -32.7986 H   0  0  0  0  0  0  0  0  0  0  0  0
   -4.9931   19.8189  -34.9554 H   0  0  0  0  0  0  0  0  0  0  0  0
   -5.6100   18.2096  -34.4825 H   0  0  0  0  0  0  0  0  0  0  0  0
   -6.7300   20.8792  -33.4192 H   0  0  0  0  0  0  0  0  0  0  0  0
   -7.4637   19.9794  -34.7554 H   0  0  0  0  0  0  0  0  0  0  0  0
   -7.0206   22.3072  -33.3642 H   0  0  0  0  0  0  0  0  0  0  0  0
   -7.4236   23.7842  -32.4230 H   0  0  0  0  0  0  0  0  0  0  0  0
   -4.9667   21.9691  -32.0560 H   0  0  0  0  0  0  0  0  0  0  0  0
   -4.9604   23.6460  -32.6425 H   0  0  0  0  0  0  0  0  0  0  0  0
   -3.7853   25.4981  -30.2166 H   0  0  0  0  0  0  0  0  0  0  0  0
  1  2  1  0
  2  3  1  0
  3  4  2  0
  4  5  1  0
  5  6  2  0
  6  7  1  0
  7  8  1  0
  8  9  1  0
  9 10  1  0
 10 11  1  0
 11 12  1  0
 12 13  1  0
 13 14  1  0
 14 15  1  0
 15 16  1  0
 16 17  1  0
 17 18  1  0
 18 19  1  0
 19 20  1  0
 20 21  2  0
 21 22  1  0
 22 23  2  0
 23 24  1  0
 24 25  2  0
 18 26  1  0
 26 27  1  0
 11 28  1  0
 28 29  1  0
  7 30  2  0
 30  3  1  0
 29  8  1  0
 27 15  1  0
 25 20  1  0
  1 31  1  0
  1 32  1  0
  1 33  1  0
  4 34  1  0
  5 35  1  0
  6 36  1  0
  9 37  1  0
  9 38  1  0
 10 39  1  0
 10 40  1  0
 12 41  1  0
 12 42  1  0
 13 43  1  0
 13 44  1  0
 14 45  1  0
 14 46  1  0
 16 47  1  0
 16 48  1  0
 17 49  1  0
 17 50  1  0
 18 51  1  0
 19 52  1  0
 19 53  1  0
 21 54  1  0
 22 55  1  0
 23 56  1  0
 24 57  1  0
 25 58  1  0
 26 59  1  0
 26 60  1  0
 27 61  1  0
 27 62  1  0
 28 63  1  0
 28 64  1  0
 29 65  1  0
 29 66  1  0
 30 67  1  0
M  END
>  <smiles>  (33) 
COc1cccc(N2CCN(CCCN3CCC(Cc4ccccc4)CC3)CC2)c1

>  <score_type>  (33) 
oracle

>  <origin>  (33) 
adg

>  <m_score__min__energy>  (33) 
-9.8000000000000007

>  <m_primary>  (33) 
energy

$$$$
34:0
     RDKit          3D

 48 50  0  0  0  0  0  0  0  0999 V2000
    1.1460   23.4170  -35.9760 C   0  0  0  0  0  0  0  0  0  0  0  0
    0.7050   22.0450  -35.5670 C   0  0  0  0  0  0  0  0  0  0  0  0
    1.0370   21.8720  -34.2170 O   0  0  0  0  0  0  0  0  0  0  0  0
    0.1200   20.9960  -33.6950 C   0  0  0  0  0  0  0  0  0  0  0  0
   -0.8610   20.6530  -34.8120 C   0  0  0  0  0  0  0  0  0  0  0  0
   -1.5810   19.4150  -34.3190 C   0  0  0  0  0  0  0  0  0  0  0  0
   -2.3470   19.8260  -33.1600 N   0  0  0  0  0  0  0  0  0  0  0  0
   -3.7380   19.5370  -33.1710 C   0  0  0  0  0  0  0  0  0  0  0  0
   -4.1760   18.9420  -34.2040 O   0  0  0  0  0  0  0  0  0  0  0  0
   -4.6190   19.8780  -32.1080 N   0  0  0  0  0  0  0  0  0  0  0  0
   -6.0060   19.5630  -32.1750 C   0  0  0  0  0  0  0  0  0  0  0  0
   -6.3050   18.2110  -32.3800 C   0  0  0  0  0  0  0  0  0  0  0  0
   -7.6190   17.8030  -32.4590 C   0  0  0  0  0  0  0  0  0  0  0  0
   -8.6130   18.7560  -32.3310 C   0  0  0  0  0  0  0  0  0  0  0  0
   -8.2950   20.0860  -32.1290 C   0  0  0  0  0  0  0  0  0  0  0  0
   -7.0020   20.5100  -32.0470 C   0  0  0  0  0  0  0  0  0  0  0  0
   -6.5910   21.9230  -31.8310 C   0  0  0  0  0  0  0  0  0  0  0  0
   -7.7200   22.7950  -32.3400 C   0  0  0  0  0  0  0  0  0  0  0  0
   -8.9650   22.4070  -31.5610 C   0  0  0  0  0  0  0  0  0  0  0  0
   -9.4380   21.0430  -32.0020 C   0  0  0  0  0  0  0  0  0  0  0  0
   -1.6590   20.4870  -32.0950 C   0  0  0  0  0  0  0  0  0  0  0  0
   -0.6730   21.5430  -32.5580 C   0  0  0  0  0  0  0  0  0  0  0  0
    1.3406   24.0224  -35.0784 H   0  0  0  0  0  0  0  0  0  0  0  0
    2.0657   23.3432  -36.5750 H   0  0  0  0  0  0  0  0  0  0  0  0
    0.3556   23.8929  -36.5750 H   0  0  0  0  0  0  0  0  0  0  0  0
   -0.3824   21.9464  -35.7003 H   0  0  0  0  0  0  0  0  0  0  0  0
    1.2012   21.2822  -36.1850 H   0  0  0  0  0  0  0  0  0  0  0  0
    0.6802   20.1321  -33.3080 H   0  0  0  0  0  0  0  0  0  0  0  0
   -1.5711   21.4776  -34.9723 H   0  0  0  0  0  0  0  0  0  0  0  0
   -0.3562   20.4871  -35.7751 H   0  0  0  0  0  0  0  0  0  0  0  0
   -2.2509   19.0271  -35.1005 H   0  0  0  0  0  0  0  0  0  0  0  0
   -0.8715   18.6133  -34.0662 H   0  0  0  0  0  0  0  0  0  0  0  0
   -4.2560   20.3610  -31.2730 H   0  0  0  0  0  0  0  0  0  0  0  0
   -5.4928   17.4757  -32.4779 H   0  0  0  0  0  0  0  0  0  0  0  0
   -7.8712   16.7445  -32.6200 H   0  0  0  0  0  0  0  0  0  0  0  0
   -9.6685   18.4522  -32.3906 H   0  0  0  0  0  0  0  0  0  0  0  0
   -6.4240   22.1083  -30.7597 H   0  0  0  0  0  0  0  0  0  0  0  0
   -5.6535   22.1448  -32.3619 H   0  0  0  0  0  0  0  0  0  0  0  0
   -7.4838   23.8560  -32.1711 H   0  0  0  0  0  0  0  0  0  0  0  0
   -7.8714   22.6513  -33.4200 H   0  0  0  0  0  0  0  0  0  0  0  0
   -8.7310   22.3829  -30.4864 H   0  0  0  0  0  0  0  0  0  0  0  0
   -9.7577   23.1458  -31.7505 H   0  0  0  0  0  0  0  0  0  0  0  0
  -10.1506   20.6536  -31.2599 H   0  0  0  0  0  0  0  0  0  0  0  0
   -9.9177   21.1435  -32.9868 H   0  0  0  0  0  0  0  0  0  0  0  0
   -2.4060   20.9711  -31.4487 H   0  0  0  0  0  0  0  0  0  0  0  0
   -1.0764   19.7177  -31.5670 H   0  0  0  0  0  0  0  0  0  0  0  0
   -1.2190   22.4398  -32.8860 H   0  0  0  0  0  0  0  0  0  0  0  0
   -0.0008   21.8142  -31.7306 H   0  0  0  0  0  0  0  0  0  0  0  0
  1  2  1  0
  2  3  1  0
  3  4  1  0
  4  5  1  0
  5  6  1  0
  6  7  1  0
  7  8  1  0
  8  9  2  0
  8 10  1  0
 10 11  1  0
 11 12  2  0
 12 13  1  0
 13 14  2  0
 14 15  1  0
 15 16  2  0
 16 17  1  0
 17 18  1  0
 18 19  1  0
 19 20  1  0
  7 21  1  0
 21 22  1  0
 22  4  1  0
 16 11  1  0
 20 15  1  0
  1 23  1  0
  1 24  1  0
  1 25  1  0
  2 26  1  0
  2 27  1  0
  4 28  1  0
  5 29  1  0
  5 30  1  0
  6 31  1  0
  6 32  1  0
 10 33  1  0
 12 34  1  0
 13 35  1  0
 14 36  1  0
 17 37  1  0
 17 38  1  0
 18 39  1  0
 18 40  1  0
 19 41  1  0
 19 42  1  0
 20 43  1  0
 20 44  1  0
 21 45  1  0
 21 46  1  0
 22 47  1  0
 22 48  1  0
M  END
>  <smiles>  (34) 
CCOC1CCN(C(=O)Nc2cccc3c2CCCC3)CC1

>  <score_type>  (34) 
oracle

>  <origin>  (34) 
adg

>  <m_score__min__energy>  (34) 
-7.7800000000000002

>  <m_primary>  (34) 
energy

$$$$
35:0
     RDKit          3D

 29 31  0  0  0  0  0  0  0  0999 V2000
   -2.2870   24.8760  -28.6830 C   0  0  0  0  0  0  0  0  0  0  0  0
   -3.1160   25.2980  -29.7250 O   0  0  0  0  0  0  0  0  0  0  0  0
   -4.2470   24.6330  -30.1800 C   0  0  0  0  0  0  0  0  0  0  0  0
   -5.4800   25.2770  -30.0670 C   0  0  0  0  0  0  0  0  0  0  0  0
   -6.6440   24.6540  -30.5090 C   0  0  0  0  0  0  0  0  0  0  0  0
   -6.6090   23.3940  -31.0650 C   0  0  0  0  0  0  0  0  0  0  0  0
   -7.5590   22.5810  -31.5620 N   0  0  0  0  0  0  0  0  0  0  0  0
   -7.0180   21.4270  -32.0000 C   0  0  0  0  0  0  0  0  0  0  0  0
   -7.7830   20.3610  -32.5830 C   0  0  0  0  0  0  0  0  0  0  0  0
   -9.0410   20.5390  -32.6850 O   0  0  0  0  0  0  0  0  0  0  0  0
   -7.2400   19.1370  -33.0490 C   0  0  0  0  0  0  0  0  0  0  0  0
   -7.4810   17.8500  -32.6160 C   0  0  0  0  0  0  0  0  0  0  0  0
   -6.8610   16.8380  -33.1960 C   0  0  0  0  0  0  0  0  0  0  0  0
   -5.9810   17.1210  -34.2260 C   0  0  0  0  0  0  0  0  0  0  0  0
   -6.0630   18.9380  -34.3550 S   0  0  0  0  0  0  0  0  0  0  0  0
   -5.6690   21.5450  -31.7580 C   0  0  0  0  0  0  0  0  0  0  0  0
   -5.3860   22.7720  -31.1710 C   0  0  0  0  0  0  0  0  0  0  0  0
   -4.2130   23.3720  -30.7370 C   0  0  0  0  0  0  0  0  0  0  0  0
   -2.7589   25.1162  -27.7188 H   0  0  0  0  0  0  0  0  0  0  0  0
   -2.1321   23.7893  -28.7548 H   0  0  0  0  0  0  0  0  0  0  0  0
   -1.3172   25.3901  -28.7548 H   0  0  0  0  0  0  0  0  0  0  0  0
   -5.5325   26.2833  -29.6259 H   0  0  0  0  0  0  0  0  0  0  0  0
   -7.6073   25.1763  -30.4127 H   0  0  0  0  0  0  0  0  0  0  0  0
   -8.5740   22.8850  -31.5690 H   0  0  0  0  0  0  0  0  0  0  0  0
   -8.1860   17.6671  -31.7917 H   0  0  0  0  0  0  0  0  0  0  0  0
   -7.0386   15.8024  -32.8704 H   0  0  0  0  0  0  0  0  0  0  0  0
   -5.3784   16.4200  -34.8221 H   0  0  0  0  0  0  0  0  0  0  0  0
   -4.9195   20.7758  -31.9959 H   0  0  0  0  0  0  0  0  0  0  0  0
   -3.2547   22.8413  -30.8373 H   0  0  0  0  0  0  0  0  0  0  0  0
  1  2  1  0
  2  3  1  0
  3  4  2  0
  4  5  1  0
  5  6  2  0
  6  7  1  0
  7  8  1  0
  8  9  1  0
  9 10  2  0
  9 11  1  0
 11 12  2  0
 12 13  1  0
 13 14  2  0
 14 15  1  0
  8 16  2  0
 16 17  1  0
 17 18  2  0
 18  3  1  0
 17  6  1  0
 15 11  1  0
  1 19  1  0
  1 20  1  0
  1 21  1  0
  4 22  1  0
  5 23  1  0
  7 24  1  0
 12 25  1  0
 13 26  1  0
 14 27  1  0
 16 28  1  0
 18 29  1  0
M  END
>  <smiles>  (35) 
COc1ccc2[nH]c(C(=O)c3cccs3)cc2c1

>  <score_type>  (35) 
oracle

>  <origin>  (35) 
adg

>  <m_score__min__energy>  (35) 
-7.6100000000000003

>  <m_primary>  (35) 
energy

$$$$
36:0
     RDKit          3D

 30 31  0  0  0  0  0  0  0  0999 V2000
   -4.2630   24.4940  -27.2020 C   0  0  0  0  0  0  0  0  0  0  0  0
   -3.9970   24.0730  -28.5760 N   0  0  0  0  0  0  0  0  0  0  0  0
   -2.9040   23.2150  -28.8870 C   0  0  0  0  0  0  0  0  0  0  0  0
   -3.1420   21.9140  -29.3040 C   0  0  0  0  0  0  0  0  0  0  0  0
   -2.0860   21.0800  -29.6060 C   0  0  0  0  0  0  0  0  0  0  0  0
   -0.7670   21.4760  -29.5160 C   0  0  0  0  0  0  0  0  0  0  0  0
   -0.5280   22.7740  -29.1020 C   0  0  0  0  0  0  0  0  0  0  0  0
   -1.5850   23.6070  -28.8000 C   0  0  0  0  0  0  0  0  0  0  0  0
   -1.1720   25.3820  -28.2350 Br  0  0  0  0  0  0  0  0  0  0  0  0
   -5.0810   24.6760  -29.7840 S   0  0  0  0  0  0  0  0  0  0  0  0
   -4.3020   25.4340  -30.8430 O   0  0  0  0  0  0  0  0  0  0  0  0
   -6.0710   25.6570  -29.2050 O   0  0  0  0  0  0  0  0  0  0  0  0
   -5.9760   23.4220  -30.5790 C   0  0  0  0  0  0  0  0  0  0  0  0
   -7.2140   23.0170  -30.0910 C   0  0  0  0  0  0  0  0  0  0  0  0
   -7.9520   22.0200  -30.7030 C   0  0  0  0  0  0  0  0  0  0  0  0
   -7.4510   21.3990  -31.8350 C   0  0  0  0  0  0  0  0  0  0  0  0
   -8.3420   20.1380  -32.6420 Cl  0  0  0  0  0  0  0  0  0  0  0  0
   -6.2180   21.7840  -32.3430 C   0  0  0  0  0  0  0  0  0  0  0  0
   -5.5010   22.7810  -31.7150 C   0  0  0  0  0  0  0  0  0  0  0  0
   -3.8089   23.7753  -26.5039 H   0  0  0  0  0  0  0  0  0  0  0  0
   -3.8309   25.4915  -27.0340 H   0  0  0  0  0  0  0  0  0  0  0  0
   -5.3494   24.5320  -27.0340 H   0  0  0  0  0  0  0  0  0  0  0  0
   -4.1749   21.5466  -29.3940 H   0  0  0  0  0  0  0  0  0  0  0  0
   -2.3049   20.0529  -29.9334 H   0  0  0  0  0  0  0  0  0  0  0  0
    0.0571   20.7903  -29.7624 H   0  0  0  0  0  0  0  0  0  0  0  0
    0.5049   23.1418  -29.0136 H   0  0  0  0  0  0  0  0  0  0  0  0
   -7.6182   23.5042  -29.1914 H   0  0  0  0  0  0  0  0  0  0  0  0
   -8.9289   21.7228  -30.2939 H   0  0  0  0  0  0  0  0  0  0  0  0
   -5.8144   21.2961  -33.2425 H   0  0  0  0  0  0  0  0  0  0  0  0
   -4.5246   23.0767  -32.1262 H   0  0  0  0  0  0  0  0  0  0  0  0
  1  2  1  0
  2  3  1  0
  3  4  2  0
  4  5  1  0
  5  6  2  0
  6  7  1  0
  7  8  2  0
  8  9  1  0
  2 10  1  0
 10 11  2  0
 10 12  2  0
 10 13  1  0
 13 14  2  0
 14 15  1  0
 15 16  2  0
 16 17  1  0
 16 18  1  0
 18 19  2  0
  8  3  1  0
 19 13  1  0
  1 20  1  0
  1 21  1  0
  1 22  1  0
  4 23  1  0
  5 24  1  0
  6 25  1  0
  7 26  1  0
 14 27  1  0
 15 28  1  0
 18 29  1  0
 19 30  1  0
M  END
>  <smiles>  (36) 
CN(c1ccccc1Br)S(=O)(=O)c1ccc(Cl)cc1

>  <score_type>  (36) 
oracle

>  <origin>  (36) 
adg

>  <m_score__min__energy>  (36) 
-8.0899999999999999

>  <m_primary>  (36) 
energy

$$$$
37:0
     RDKit          3D

 32 34  0  0  0  0  0  0  0  0999 V2000
   -6.8270   15.0050  -34.2210 C   0  0  0  0  0  0  0  0  0  0  0  0
   -5.9800   16.2040  -34.2080 C   0  0  0  0  0  0  0  0  0  0  0  0
   -4.6630   16.2270  -34.6280 C   0  0  0  0  0  0  0  0  0  0  0  0
   -3.9330   17.4030  -34.5820 C   0  0  0  0  0  0  0  0  0  0  0  0
   -4.5110   18.5380  -34.1240 N   0  0  0  0  0  0  0  0  0  0  0  0
   -5.7930   18.5120  -33.7160 C   0  0  0  0  0  0  0  0  0  0  0  0
   -6.3680   19.7410  -33.2350 N   0  0  0  0  0  0  0  0  0  0  0  0
   -7.7860   19.8560  -33.1050 C   0  0  0  0  0  0  0  0  0  0  0  0
   -8.2300   20.4450  -31.7830 C   0  0  0  0  0  0  0  0  0  0  0  0
   -7.3820   21.6320  -31.5000 C   0  0  0  0  0  0  0  0  0  0  0  0
   -7.9210   22.6050  -30.6760 C   0  0  0  0  0  0  0  0  0  0  0  0
   -7.2270   23.7530  -30.3420 C   0  0  0  0  0  0  0  0  0  0  0  0
   -5.9630   23.8950  -30.8680 C   0  0  0  0  0  0  0  0  0  0  0  0
   -5.0230   25.3300  -30.4850 Cl  0  0  0  0  0  0  0  0  0  0  0  0
   -5.4070   22.9370  -31.6930 C   0  0  0  0  0  0  0  0  0  0  0  0
   -6.1160   21.7790  -32.0240 C   0  0  0  0  0  0  0  0  0  0  0  0
   -5.4530   20.8150  -32.9040 C   0  0  0  0  0  0  0  0  0  0  0  0
   -6.4930   17.3660  -33.7640 N   0  0  0  0  0  0  0  0  0  0  0  0
   -7.0438   14.6980  -33.1872 H   0  0  0  0  0  0  0  0  0  0  0  0
   -7.7695   15.2275  -34.7428 H   0  0  0  0  0  0  0  0  0  0  0  0
   -6.3023   14.1911  -34.7428 H   0  0  0  0  0  0  0  0  0  0  0  0
   -4.1921   15.3055  -35.0010 H   0  0  0  0  0  0  0  0  0  0  0  0
   -2.8853   17.4146  -34.9171 H   0  0  0  0  0  0  0  0  0  0  0  0
   -8.1578   20.5008  -33.9149 H   0  0  0  0  0  0  0  0  0  0  0  0
   -8.1973   18.8372  -33.1574 H   0  0  0  0  0  0  0  0  0  0  0  0
   -9.2859   20.7470  -31.8450 H   0  0  0  0  0  0  0  0  0  0  0  0
   -8.1257   19.7011  -30.9795 H   0  0  0  0  0  0  0  0  0  0  0  0
   -8.9345   22.4600  -30.2739 H   0  0  0  0  0  0  0  0  0  0  0  0
   -7.6654   24.5188  -29.6852 H   0  0  0  0  0  0  0  0  0  0  0  0
   -4.3939   23.0873  -32.0944 H   0  0  0  0  0  0  0  0  0  0  0  0
   -5.1357   21.3218  -33.8273 H   0  0  0  0  0  0  0  0  0  0  0  0
   -4.5750   20.3979  -32.3891 H   0  0  0  0  0  0  0  0  0  0  0  0
  1  2  1  0
  2  3  2  0
  3  4  1  0
  4  5  2  0
  5  6  1  0
  6  7  1  0
  7  8  1  0
  8  9  1  0
  9 10  1  0
 10 11  2  0
 11 12  1  0
 12 13  2  0
 13 14  1  0
 13 15  1  0
 15 16  2  0
 16 17  1  0
  6 18  2  0
 18  2  1  0
 17  7  1  0
 16 10  1  0
  1 19  1  0
  1 20  1  0
  1 21  1  0
  3 22  1  0
  4 23  1  0
  8 24  1  0
  8 25  1  0
  9 26  1  0
  9 27  1  0
 11 28  1  0
 12 29  1  0
 15 30  1  0
 17 31  1  0
 17 32  1  0
M  END
>  <smiles>  (37) 
Cc1ccnc(N2CCc3ccc(Cl)cc3C2)n1

>  <score_type>  (37) 
oracle

>  <origin>  (37) 
adg

>  <m_score__min__energy>  (37) 
-7.1500000000000004

>  <m_primary>  (37) 
energy

$$$$
38:0
     RDKit          3D

 51 54  0  0  1  0  0  0  0  0999 V2000
   -3.3950   22.3040  -28.5580 C   0  0  0  0  0  0  0  0  0  0  0  0
   -3.1040   21.2670  -29.5870 C   0  0  0  0  0  0  0  0  0  0  0  0
   -2.0410   21.6130  -30.5810 C   0  0  0  0  0  0  0  0  0  0  0  0
   -2.6420   21.8630  -32.2450 S   0  0  0  0  0  0  0  0  0  0  0  0
   -1.5460   21.1600  -33.4340 C   0  0  0  0  0  0  0  0  0  0  0  0
   -0.6510   21.8400  -34.1650 N   0  0  0  0  0  0  0  0  0  0  0  0
    0.1830   21.3070  -35.0620 C   0  0  0  0  0  0  0  0  0  0  0  0
    0.1530   19.9660  -35.2810 C   0  0  0  0  0  0  0  0  0  0  0  0
   -0.7280   19.2320  -34.5730 N   0  0  0  0  0  0  0  0  0  0  0  0
   -1.5800   19.7770  -33.6570 C   0  0  0  0  0  0  0  0  0  0  0  0
   -2.5320   18.8990  -32.9230 C   0  0  0  0  0  0  0  0  0  0  0  0
   -2.9540   17.8120  -33.9680 C   0  0  0  0  0  0  0  0  0  0  0  0
   -4.2320   18.1870  -34.5990 C   0  0  0  0  0  0  0  0  0  0  0  0
   -5.1900   19.0210  -34.0760 N   0  0  0  0  0  0  0  0  0  0  0  0
   -6.1370   18.9890  -33.2990 C   0  0  0  0  0  0  0  0  0  0  0  0
   -6.9330   17.9160  -33.2260 N   0  0  0  0  0  0  0  0  0  0  0  0
   -7.9760   17.8080  -32.4150 C   0  0  0  0  0  0  0  0  0  0  0  0
   -8.3000   18.8470  -31.5670 C   0  0  0  0  0  0  0  0  0  0  0  0
   -7.5120   19.9700  -31.6050 C   0  0  0  0  0  0  0  0  0  0  0  0
   -7.5180   21.1550  -30.9440 N   0  0  0  0  0  0  0  0  0  0  0  0
   -6.5040   21.9130  -31.3720 C   0  0  0  0  0  0  0  0  0  0  0  0
   -6.1370   23.2610  -30.9320 C   0  0  0  0  0  0  0  0  0  0  0  0
   -7.0350   23.9960  -30.1850 C   0  0  0  0  0  0  0  0  0  0  0  0
   -6.6970   25.2690  -29.7650 C   0  0  0  0  0  0  0  0  0  0  0  0
   -5.4620   25.7950  -30.0960 C   0  0  0  0  0  0  0  0  0  0  0  0
   -4.6010   25.0510  -30.8300 N   0  0  0  0  0  0  0  0  0  0  0  0
   -4.9080   23.7930  -31.2580 C   0  0  0  0  0  0  0  0  0  0  0  0
   -5.8580   21.2250  -32.2930 O   0  0  0  0  0  0  0  0  0  0  0  0
   -6.4270   20.0530  -32.4650 C   0  0  0  0  0  0  0  0  0  0  0  0
   -3.2731   21.8695  -27.5548 H   0  0  0  0  0  0  0  0  0  0  0  0
   -2.6987   23.1468  -28.6796 H   0  0  0  0  0  0  0  0  0  0  0  0
   -4.4282   22.6615  -28.6796 H   0  0  0  0  0  0  0  0  0  0  0  0
   -2.7909   20.3515  -29.0637 H   0  0  0  0  0  0  0  0  0  0  0  0
   -4.0310   21.1567  -30.1688 H   0  0  0  0  0  0  0  0  0  0  0  0
   -1.5485   22.5392  -30.2500 H   0  0  0  0  0  0  0  0  0  0  0  0
   -1.3552   20.7539  -30.6200 H   0  0  0  0  0  0  0  0  0  0  0  0
    0.8858   21.9459  -35.6169 H   0  0  0  0  0  0  0  0  0  0  0  0
    0.8261   19.4950  -36.0125 H   0  0  0  0  0  0  0  0  0  0  0  0
   -2.0411   18.4337  -32.0556 H   0  0  0  0  0  0  0  0  0  0  0  0
   -3.3949   19.4565  -32.5299 H   0  0  0  0  0  0  0  0  0  0  0  0
   -2.1764   17.7295  -34.7417 H   0  0  0  0  0  0  0  0  0  0  0  0
   -3.0748   16.8464  -33.4551 H   0  0  0  0  0  0  0  0  0  0  0  0
   -3.9527   18.6412  -35.5612 H   0  0  0  0  0  0  0  0  0  0  0  0
   -4.7630   17.2272  -34.5165 H   0  0  0  0  0  0  0  0  0  0  0  0
   -6.7080   17.1300  -33.8510 H   0  0  0  0  0  0  0  0  0  0  0  0
   -8.5828   16.8905  -32.4181 H   0  0  0  0  0  0  0  0  0  0  0  0
   -9.1598   18.7777  -30.8844 H   0  0  0  0  0  0  0  0  0  0  0  0
   -8.0156   23.5707  -29.9249 H   0  0  0  0  0  0  0  0  0  0  0  0
   -7.4078   25.8610  -29.1698 H   0  0  0  0  0  0  0  0  0  0  0  0
   -5.1820   26.8065  -29.7668 H   0  0  0  0  0  0  0  0  0  0  0  0
   -4.1873   23.2130  -31.8531 H   0  0  0  0  0  0  0  0  0  0  0  0
  1  2  1  0
  2  3  1  0
  3  4  1  0
  4  5  1  0
  5  6  2  0
  6  7  1  0
  7  8  2  0
  8  9  1  0
  9 10  2  0
 10 11  1  0
 11 12  1  0
 12 13  1  0
 13 14  1  0
 14 15  2  0
 15 16  1  0
 16 17  1  0
 17 18  2  0
 18 19  1  0
 19 20  1  0
 20 21  2  0
 21 22  1  0
 22 23  2  0
 23 24  1  0
 24 25  2  0
 25 26  1  0
 26 27  2  0
 21 28  1  0
 28 29  1  0
 10  5  1  0
 29 15  1  0
 29 19  2  0
 27 22  1  0
  1 30  1  0
  1 31  1  0
  1 32  1  0
  2 33  1  0
  2 34  1  0
  3 35  1  0
  3 36  1  0
  7 37  1  0
  8 38  1  0
 11 39  1  0
 11 40  1  0
 12 41  1  0
 12 42  1  0
 13 43  1  0
 13 44  1  0
 16 45  1  0
 17 46  1  0
 18 47  1  0
 23 48  1  0
 24 49  1  0
 25 50  1  0
 27 51  1  0
M  END
>  <smiles>  (38) 
CCCSc1nccnc1CCCN=c1[nH]ccc2nc(-c3cccnc3)oc12

>  <score_type>  (38) 
oracle

>  <origin>  (38) 
adg

>  <m_score__min__energy>  (38) 
-8.5800000000000001

>  <m_primary>  (38) 
energy

$$$$
39:0
     RDKit          3D

 38 40  0  0  1  0  0  0  0  0999 V2000
   -1.3340   26.5450  -25.1380 C   0  0  0  0  0  0  0  0  0  0  0  0
   -0.9760   26.2310  -26.5530 C   0  0  0  0  0  0  0  0  0  0  0  0
   -1.9740   25.4090  -27.2390 N   0  0  0  0  0  0  0  0  0  0  0  0
   -2.8940   24.7700  -26.4920 C   0  0  0  0  0  0  0  0  0  0  0  0
   -3.8410   23.9910  -27.1310 C   0  0  0  0  0  0  0  0  0  0  0  0
   -3.8470   23.8680  -28.5050 C   0  0  0  0  0  0  0  0  0  0  0  0
   -4.6840   23.1710  -29.1690 N   0  0  0  0  0  0  0  0  0  0  0  0
   -4.9210   23.5250  -30.8300 S   0  0  0  0  0  0  0  0  0  0  0  0
   -3.7880   22.9380  -31.6250 O   0  0  0  0  0  0  0  0  0  0  0  0
   -4.9700   25.0210  -31.0090 O   0  0  0  0  0  0  0  0  0  0  0  0
   -6.4600   22.8810  -31.3980 C   0  0  0  0  0  0  0  0  0  0  0  0
   -7.5850   23.6700  -31.5230 C   0  0  0  0  0  0  0  0  0  0  0  0
   -8.7360   23.0550  -31.9780 C   0  0  0  0  0  0  0  0  0  0  0  0
   -8.7650   21.7190  -32.2940 C   0  0  0  0  0  0  0  0  0  0  0  0
   -7.6290   20.9280  -32.1660 C   0  0  0  0  0  0  0  0  0  0  0  0
   -7.6370   19.5760  -32.4800 C   0  0  0  0  0  0  0  0  0  0  0  0
   -6.4800   18.8200  -32.3390 C   0  0  0  0  0  0  0  0  0  0  0  0
   -5.3080   19.4040  -31.8850 C   0  0  0  0  0  0  0  0  0  0  0  0
   -5.3220   20.7500  -31.5790 C   0  0  0  0  0  0  0  0  0  0  0  0
   -6.4720   21.5290  -31.7130 C   0  0  0  0  0  0  0  0  0  0  0  0
   -2.9000   24.5300  -29.2180 N   0  0  0  0  0  0  0  0  0  0  0  0
   -1.9790   25.2890  -28.5900 C   0  0  0  0  0  0  0  0  0  0  0  0
   -1.1220   25.8830  -29.2910 O   0  0  0  0  0  0  0  0  0  0  0  0
   -0.6830   25.9740  -24.4597 H   0  0  0  0  0  0  0  0  0  0  0  0
   -1.1992   27.6214  -24.9559 H   0  0  0  0  0  0  0  0  0  0  0  0
   -2.3836   26.2710  -24.9559 H   0  0  0  0  0  0  0  0  0  0  0  0
   -0.8670   27.1775  -27.1028 H   0  0  0  0  0  0  0  0  0  0  0  0
   -0.0409   25.6522  -26.5294 H   0  0  0  0  0  0  0  0  0  0  0  0
   -2.8923   24.8657  -25.3962 H   0  0  0  0  0  0  0  0  0  0  0  0
   -4.5999   23.4622  -26.5356 H   0  0  0  0  0  0  0  0  0  0  0  0
   -7.5666   24.7408  -31.2717 H   0  0  0  0  0  0  0  0  0  0  0  0
   -9.6533   23.6516  -32.0900 H   0  0  0  0  0  0  0  0  0  0  0  0
   -9.7014   21.2678  -32.6539 H   0  0  0  0  0  0  0  0  0  0  0  0
   -8.5616   19.1020  -32.8413 H   0  0  0  0  0  0  0  0  0  0  0  0
   -6.4942   17.7491  -32.5898 H   0  0  0  0  0  0  0  0  0  0  0  0
   -4.3894   18.8097  -31.7713 H   0  0  0  0  0  0  0  0  0  0  0  0
   -4.3971   21.2236  -31.2180 H   0  0  0  0  0  0  0  0  0  0  0  0
   -2.8930   24.4450  -30.2780 H   0  0  0  0  0  0  0  0  0  0  0  0
  1  2  1  0
  2  3  1  0
  3  4  1  0
  4  5  2  0
  5  6  1  0
  6  7  2  0
  7  8  1  0
  8  9  2  0
  8 10  2  0
  8 11  1  0
 11 12  2  0
 12 13  1  0
 13 14  2  0
 14 15  1  0
 15 16  2  0
 16 17  1  0
 17 18  2  0
 18 19  1  0
 19 20  2  0
  6 21  1  0
 21 22  1  0
 22 23  2  0
 22  3  1  0
 20 11  1  0
 20 15  1  0
  1 24  1  0
  1 25  1  0
  1 26  1  0
  2 27  1  0
  2 28  1  0
  4 29  1  0
  5 30  1  0
 12 31  1  0
 13 32  1  0
 14 33  1  0
 16 34  1  0
 17 35  1  0
 18 36  1  0
 19 37  1  0
 21 38  1  0
M  END
>  <smiles>  (39) 
CCn1ccc(=NS(=O)(=O)c2cccc3ccccc23)[nH]c1=O

>  <score_type>  (39) 
oracle

>  <origin>  (39) 
adg

>  <m_score__min__energy>  (39) 
-9.4499999999999993

>  <m_primary>  (39) 
energy

$$$$
40:0
     RDKit          3D

 39 41  0  0  1  0  0  0  0  0999 V2000
   -8.2630   23.4270  -32.0380 C   0  0  0  0  0  0  0  0  0  0  0  0
   -6.9820   23.2410  -31.3120 C   0  0  0  0  0  0  0  0  0  0  0  0
   -6.8710   23.8490  -30.0750 C   0  0  0  0  0  0  0  0  0  0  0  0
   -5.6750   23.6810  -29.3890 C   0  0  0  0  0  0  0  0  0  0  0  0
   -4.6290   22.9270  -29.9300 C   0  0  0  0  0  0  0  0  0  0  0  0
   -3.4200   22.8170  -29.1230 C   0  0  0  0  0  0  0  0  0  0  0  0
   -3.2530   21.6110  -28.4360 C   0  0  0  0  0  0  0  0  0  0  0  0
   -2.1470   21.3850  -27.6370 C   0  0  0  0  0  0  0  0  0  0  0  0
   -1.9810   19.7240  -26.7300 Br  0  0  0  0  0  0  0  0  0  0  0  0
   -1.2050   22.3910  -27.5380 C   0  0  0  0  0  0  0  0  0  0  0  0
   -1.3820   23.5830  -28.2250 C   0  0  0  0  0  0  0  0  0  0  0  0
   -2.4810   23.8240  -29.0260 C   0  0  0  0  0  0  0  0  0  0  0  0
   -2.6700   24.9810  -29.7040 F   0  0  0  0  0  0  0  0  0  0  0  0
   -4.7610   22.3350  -31.1540 C   0  0  0  0  0  0  0  0  0  0  0  0
   -3.4610   21.3990  -31.8220 S   0  0  0  0  0  0  0  0  0  0  0  0
   -2.2060   22.2140  -31.8850 O   0  0  0  0  0  0  0  0  0  0  0  0
   -3.2780   20.1390  -30.9890 O   0  0  0  0  0  0  0  0  0  0  0  0
   -3.8520   20.8180  -33.4200 N   0  0  0  0  0  0  0  0  0  0  0  0
   -4.8300   19.9800  -33.5510 C   0  0  0  0  0  0  0  0  0  0  0  0
   -6.0730   20.3630  -33.6660 O   0  0  0  0  0  0  0  0  0  0  0  0
   -6.8760   19.3410  -33.7850 N   0  0  0  0  0  0  0  0  0  0  0  0
   -6.1280   18.2170  -33.7460 C   0  0  0  0  0  0  0  0  0  0  0  0
   -6.6060   16.8300  -33.8430 C   0  0  0  0  0  0  0  0  0  0  0  0
   -4.7980   18.6030  -33.5950 C   0  0  0  0  0  0  0  0  0  0  0  0
   -3.2580   17.5250  -33.4710 Br  0  0  0  0  0  0  0  0  0  0  0  0
   -5.9400   22.4950  -31.8420 C   0  0  0  0  0  0  0  0  0  0  0  0
   -9.0815   23.5459  -31.3128 H   0  0  0  0  0  0  0  0  0  0  0  0
   -8.1994   24.3253  -32.6696 H   0  0  0  0  0  0  0  0  0  0  0  0
   -8.4575   22.5477  -32.6696 H   0  0  0  0  0  0  0  0  0  0  0  0
   -7.6957   24.4412  -29.6518 H   0  0  0  0  0  0  0  0  0  0  0  0
   -5.5483   24.1497  -28.4020 H   0  0  0  0  0  0  0  0  0  0  0  0
   -4.0170   20.8256  -28.5329 H   0  0  0  0  0  0  0  0  0  0  0  0
   -0.3119   22.2462  -26.9124 H   0  0  0  0  0  0  0  0  0  0  0  0
   -0.6168   24.3673  -28.1280 H   0  0  0  0  0  0  0  0  0  0  0  0
   -7.9150   19.3240  -33.8930 H   0  0  0  0  0  0  0  0  0  0  0  0
   -6.7475   16.4194  -32.8324 H   0  0  0  0  0  0  0  0  0  0  0  0
   -7.5632   16.8091  -34.3846 H   0  0  0  0  0  0  0  0  0  0  0  0
   -5.8649   16.2238  -34.3846 H   0  0  0  0  0  0  0  0  0  0  0  0
   -6.0590   22.0238  -32.8288 H   0  0  0  0  0  0  0  0  0  0  0  0
  1  2  1  0
  2  3  2  0
  3  4  1  0
  4  5  2  0
  5  6  1  0
  6  7  2  0
  7  8  1  0
  8  9  1  0
  8 10  2  0
 10 11  1  0
 11 12  2  0
 12 13  1  0
  5 14  1  0
 14 15  1  0
 15 16  2  0
 15 17  2  0
 15 18  1  0
 18 19  2  0
 19 20  1  0
 20 21  1  0
 21 22  1  0
 22 23  1  0
 22 24  2  0
 24 25  1  0
 14 26  2  0
 26  2  1  0
 12  6  1  0
 24 19  1  0
  1 27  1  0
  1 28  1  0
  1 29  1  0
  3 30  1  0
  4 31  1  0
  7 32  1  0
 10 33  1  0
 11 34  1  0
 21 35  1  0
 23 36  1  0
 23 37  1  0
 23 38  1  0
 26 39  1  0
M  END
>  <smiles>  (40) 
Cc1ccc(-c2cc(Br)ccc2F)c(S(=O)(=O)N=c2o[nH]c(C)c2Br)c1

>  <score_type>  (40) 
oracle

>  <origin>  (40) 
adg

>  <m_score__min__energy>  (40) 
-10.470000000000001

>  <m_primary>  (40) 
energy

$$$$
41:0
     RDKit          3D

 46 49  0  0  1  0  0  0  0  0999 V2000
   -5.6250   18.1700  -34.9730 C   0  0  0  0  0  0  0  0  0  0  0  0
   -5.7220   18.1900  -33.5390 O   0  0  0  0  0  0  0  0  0  0  0  0
   -6.6350   19.0800  -32.9410 C   0  0  0  0  0  0  0  0  0  0  0  0
   -7.7280   18.4890  -32.3440 C   0  0  0  0  0  0  0  0  0  0  0  0
   -8.6440   19.3230  -31.7500 C   0  0  0  0  0  0  0  0  0  0  0  0
   -8.4340   20.6710  -31.7800 C   0  0  0  0  0  0  0  0  0  0  0  0
   -7.3460   21.2650  -32.3770 C   0  0  0  0  0  0  0  0  0  0  0  0
   -7.1950   22.5590  -32.4610 N   0  0  0  0  0  0  0  0  0  0  0  0
   -6.5120   23.3070  -31.4720 C   0  0  0  0  0  0  0  0  0  0  0  0
   -7.2170   24.1380  -30.7040 N   0  0  0  0  0  0  0  0  0  0  0  0
   -6.7190   24.9190  -29.7400 C   0  0  0  0  0  0  0  0  0  0  0  0
   -5.3620   24.8710  -29.5110 C   0  0  0  0  0  0  0  0  0  0  0  0
   -4.6180   24.0300  -30.2830 C   0  0  0  0  0  0  0  0  0  0  0  0
   -5.1600   23.2180  -31.2880 C   0  0  0  0  0  0  0  0  0  0  0  0
   -4.2430   22.4100  -32.0310 C   0  0  0  0  0  0  0  0  0  0  0  0
   -4.2380   22.4920  -33.3170 O   0  0  0  0  0  0  0  0  0  0  0  0
   -3.2950   21.4820  -31.5170 N   0  0  0  0  0  0  0  0  0  0  0  0
   -2.5290   20.8060  -32.5300 C   0  0  0  0  0  0  0  0  0  0  0  0
   -2.7700   19.5140  -32.9260 C   0  0  0  0  0  0  0  0  0  0  0  0
   -1.9180   18.9560  -33.8870 C   0  0  0  0  0  0  0  0  0  0  0  0
   -0.8640   19.6870  -34.4200 C   0  0  0  0  0  0  0  0  0  0  0  0
   -0.6180   21.0100  -34.0160 C   0  0  0  0  0  0  0  0  0  0  0  0
   -1.4740   21.5510  -33.0600 C   0  0  0  0  0  0  0  0  0  0  0  0
    0.4340   21.7380  -34.5510 O   0  0  0  0  0  0  0  0  0  0  0  0
    1.3050   21.1680  -35.4920 C   0  0  0  0  0  0  0  0  0  0  0  0
    1.3440   19.6630  -35.2910 C   0  0  0  0  0  0  0  0  0  0  0  0
    0.0060   19.1870  -35.3680 O   0  0  0  0  0  0  0  0  0  0  0  0
   -6.4430   20.4190  -32.9610 N   0  0  0  0  0  0  0  0  0  0  0  0
   -4.5869   17.9560  -35.2673 H   0  0  0  0  0  0  0  0  0  0  0  0
   -6.2883   17.3897  -35.3745 H   0  0  0  0  0  0  0  0  0  0  0  0
   -5.9255   19.1490  -35.3745 H   0  0  0  0  0  0  0  0  0  0  0  0
   -7.8610   17.3971  -32.3433 H   0  0  0  0  0  0  0  0  0  0  0  0
   -9.5357   18.9092  -31.2563 H   0  0  0  0  0  0  0  0  0  0  0  0
   -9.1789   21.3214  -31.2982 H   0  0  0  0  0  0  0  0  0  0  0  0
   -7.3718   25.5783  -29.1491 H   0  0  0  0  0  0  0  0  0  0  0  0
   -4.8945   25.4905  -28.7314 H   0  0  0  0  0  0  0  0  0  0  0  0
   -3.5329   23.9862  -30.1077 H   0  0  0  0  0  0  0  0  0  0  0  0
   -3.1960   21.3370  -30.5110 H   0  0  0  0  0  0  0  0  0  0  0  0
   -3.6047   18.9362  -32.5025 H   0  0  0  0  0  0  0  0  0  0  0  0
   -2.0860   17.9228  -34.2250 H   0  0  0  0  0  0  0  0  0  0  0  0
   -1.3160   22.5839  -32.7163 H   0  0  0  0  0  0  0  0  0  0  0  0
    0.9481   21.3942  -36.5076 H   0  0  0  0  0  0  0  0  0  0  0  0
    2.3146   21.5842  -35.3599 H   0  0  0  0  0  0  0  0  0  0  0  0
    1.9551   19.1948  -36.0767 H   0  0  0  0  0  0  0  0  0  0  0  0
    1.7887   19.4135  -34.3163 H   0  0  0  0  0  0  0  0  0  0  0  0
   -5.5910   20.8140  -33.4260 H   0  0  0  0  0  0  0  0  0  0  0  0
  1  2  1  0
  2  3  1  0
  3  4  2  0
  4  5  1  0
  5  6  2  0
  6  7  1  0
  7  8  2  0
  8  9  1  0
  9 10  2  0
 10 11  1  0
 11 12  2  0
 12 13  1  0
 13 14  2  0
 14 15  1  0
 15 16  2  0
 15 17  1  0
 17 18  1  0
 18 19  2  0
 19 20  1  0
 20 21  2  0
 21 22  1  0
 22 23  2  0
 22 24  1  0
 24 25  1  0
 25 26  1  0
 26 27  1  0
  7 28  1  0
 28  3  1  0
 14  9  1  0
 23 18  1  0
 27 21  1  0
  1 29  1  0
  1 30  1  0
  1 31  1  0
  4 32  1  0
  5 33  1  0
  6 34  1  0
 11 35  1  0
 12 36  1  0
 13 37  1  0
 17 38  1  0
 19 39  1  0
 20 40  1  0
 23 41  1  0
 25 42  1  0
 25 43  1  0
 26 44  1  0
 26 45  1  0
 28 46  1  0
M  END
>  <smiles>  (41) 
COc1cccc(=Nc2ncccc2C(=O)Nc2ccc3c(c2)OCCO3)[nH]1

>  <score_type>  (41) 
oracle

>  <origin>  (41) 
adg

>  <m_score__min__energy>  (41) 
-8.7599999999999998

>  <m_primary>  (41) 
energy

$$$$
42:0
     RDKit          3D

 39 41  0  0  0  0  0  0  0  0999 V2000
   -0.8520   23.2780  -29.0180 O   0  0  0  0  0  0  0  0  0  0  0  0
   -1.8730   23.9820  -28.7170 C   0  0  0  0  0  0  0  0  0  0  0  0
   -1.6790   25.0380  -27.7550 C   0  0  0  0  0  0  0  0  0  0  0  0
   -0.8760   26.1390  -27.9330 C   0  0  0  0  0  0  0  0  0  0  0  0
   -0.7360   27.1270  -26.9480 C   0  0  0  0  0  0  0  0  0  0  0  0
   -1.4160   26.9960  -25.7790 N   0  0  0  0  0  0  0  0  0  0  0  0
   -2.2100   25.9280  -25.5810 C   0  0  0  0  0  0  0  0  0  0  0  0
   -2.3610   24.9460  -26.5380 C   0  0  0  0  0  0  0  0  0  0  0  0
   -3.0830   23.6490  -29.3560 N   0  0  0  0  0  0  0  0  0  0  0  0
   -3.0820   22.5370  -30.2980 C   0  0  0  0  0  0  0  0  0  0  0  0
   -4.4560   22.0260  -30.5980 C   0  0  0  0  0  0  0  0  0  0  0  0
   -5.3990   23.0600  -30.9650 N   0  0  0  0  0  0  0  0  0  0  0  0
   -6.5410   22.7900  -31.7750 C   0  0  0  0  0  0  0  0  0  0  0  0
   -7.3170   23.7590  -32.0480 O   0  0  0  0  0  0  0  0  0  0  0  0
   -6.7560   21.4410  -32.2370 C   0  0  0  0  0  0  0  0  0  0  0  0
   -5.8700   20.7550  -33.0380 C   0  0  0  0  0  0  0  0  0  0  0  0
   -6.1240   19.4510  -33.4600 C   0  0  0  0  0  0  0  0  0  0  0  0
   -7.2730   18.7970  -33.0910 C   0  0  0  0  0  0  0  0  0  0  0  0
   -8.1730   19.4790  -32.2850 C   0  0  0  0  0  0  0  0  0  0  0  0
   -7.9140   20.7740  -31.8690 C   0  0  0  0  0  0  0  0  0  0  0  0
   -9.1060   21.5470  -30.8570 Cl  0  0  0  0  0  0  0  0  0  0  0  0
   -5.1260   24.4020  -30.4630 C   0  0  0  0  0  0  0  0  0  0  0  0
   -4.3440   24.3280  -29.1550 C   0  0  0  0  0  0  0  0  0  0  0  0
   -0.3253   26.2487  -28.8789 H   0  0  0  0  0  0  0  0  0  0  0  0
   -0.0844   27.9965  -27.1194 H   0  0  0  0  0  0  0  0  0  0  0  0
   -2.7539   25.8353  -24.6294 H   0  0  0  0  0  0  0  0  0  0  0  0
   -3.0204   24.0874  -26.3429 H   0  0  0  0  0  0  0  0  0  0  0  0
   -2.6199   22.8737  -31.2378 H   0  0  0  0  0  0  0  0  0  0  0  0
   -2.5175   21.7137  -29.8358 H   0  0  0  0  0  0  0  0  0  0  0  0
   -4.3853   21.3105  -31.4305 H   0  0  0  0  0  0  0  0  0  0  0  0
   -4.8332   21.5632  -29.6741 H   0  0  0  0  0  0  0  0  0  0  0  0
   -4.9386   21.2486  -33.3526 H   0  0  0  0  0  0  0  0  0  0  0  0
   -5.3912   18.9373  -34.0996 H   0  0  0  0  0  0  0  0  0  0  0  0
   -7.4733   17.7676  -33.4229 H   0  0  0  0  0  0  0  0  0  0  0  0
   -9.1045   18.9845  -31.9724 H   0  0  0  0  0  0  0  0  0  0  0  0
   -4.5356   24.9553  -31.2082 H   0  0  0  0  0  0  0  0  0  0  0  0
   -6.0805   24.9175  -30.2811 H   0  0  0  0  0  0  0  0  0  0  0  0
   -4.1518   25.3477  -28.7901 H   0  0  0  0  0  0  0  0  0  0  0  0
   -4.9366   23.7665  -28.4177 H   0  0  0  0  0  0  0  0  0  0  0  0
  1  2  2  0
  2  3  1  0
  3  4  2  0
  4  5  1  0
  5  6  2  0
  6  7  1  0
  7  8  2  0
  2  9  1  0
  9 10  1  0
 10 11  1  0
 11 12  1  0
 12 13  1  0
 13 14  2  0
 13 15  1  0
 15 16  2  0
 16 17  1  0
 17 18  2  0
 18 19  1  0
 19 20  2  0
 20 21  1  0
 12 22  1  0
 22 23  1  0
  8  3  1  0
 23  9  1  0
 20 15  1  0
  4 24  1  0
  5 25  1  0
  7 26  1  0
  8 27  1  0
 10 28  1  0
 10 29  1  0
 11 30  1  0
 11 31  1  0
 16 32  1  0
 17 33  1  0
 18 34  1  0
 19 35  1  0
 22 36  1  0
 22 37  1  0
 23 38  1  0
 23 39  1  0
M  END
>  <smiles>  (42) 
O=C(c1ccncc1)N1CCN(C(=O)c2ccccc2Cl)CC1

>  <score_type>  (42) 
oracle

>  <origin>  (42) 
adg

>  <m_score__min__energy>  (42) 
-7.7999999999999998

>  <m_primary>  (42) 
energy

$$$$
43:0
     RDKit          3D

 57 60  0  0  0  0  0  0  0  0999 V2000
   -6.5020   25.6750  -29.2850 C   0  0  0  0  0  0  0  0  0  0  0  0
   -6.4060   25.3020  -30.6240 O   0  0  0  0  0  0  0  0  0  0  0  0
   -6.4550   23.9790  -31.0620 C   0  0  0  0  0  0  0  0  0  0  0  0
   -7.6560   23.3520  -31.3040 C   0  0  0  0  0  0  0  0  0  0  0  0
   -7.6330   22.0450  -31.7350 C   0  0  0  0  0  0  0  0  0  0  0  0
   -8.8820   21.4720  -31.9950 C   0  0  0  0  0  0  0  0  0  0  0  0
   -8.8620   20.1810  -32.4540 C   0  0  0  0  0  0  0  0  0  0  0  0
   -7.7230   19.5070  -32.6450 N   0  0  0  0  0  0  0  0  0  0  0  0
   -6.4780   20.0140  -32.4080 C   0  0  0  0  0  0  0  0  0  0  0  0
   -5.2640   19.2310  -32.6470 C   0  0  0  0  0  0  0  0  0  0  0  0
   -5.1800   18.6740  -33.9780 N   0  0  0  0  0  0  0  0  0  0  0  0
   -6.0980   17.5870  -34.1890 C   0  0  0  0  0  0  0  0  0  0  0  0
   -3.8740   18.3020  -34.3870 C   0  0  0  0  0  0  0  0  0  0  0  0
   -2.7760   19.0160  -33.6810 C   0  0  0  0  0  0  0  0  0  0  0  0
   -2.2070   20.2420  -33.9540 C   0  0  0  0  0  0  0  0  0  0  0  0
   -1.2710   20.4730  -33.0640 O   0  0  0  0  0  0  0  0  0  0  0  0
   -1.2060   19.4540  -32.2320 C   0  0  0  0  0  0  0  0  0  0  0  0
   -0.3100   19.2730  -31.0820 C   0  0  0  0  0  0  0  0  0  0  0  0
   -0.2460   20.2160  -30.0540 C   0  0  0  0  0  0  0  0  0  0  0  0
    0.5980   20.0490  -28.9720 C   0  0  0  0  0  0  0  0  0  0  0  0
    1.4030   18.9560  -28.8660 C   0  0  0  0  0  0  0  0  0  0  0  0
    2.2350   18.8220  -27.7710 O   0  0  0  0  0  0  0  0  0  0  0  0
    1.3580   18.0150  -29.8650 C   0  0  0  0  0  0  0  0  0  0  0  0
    0.5140   18.1750  -30.9520 C   0  0  0  0  0  0  0  0  0  0  0  0
   -2.1230   18.5560  -32.6000 N   0  0  0  0  0  0  0  0  0  0  0  0
   -6.4750   21.3250  -31.9390 C   0  0  0  0  0  0  0  0  0  0  0  0
   -5.2880   21.9420  -31.6970 C   0  0  0  0  0  0  0  0  0  0  0  0
   -4.0340   21.3710  -31.8350 O   0  0  0  0  0  0  0  0  0  0  0  0
   -3.4140   20.9430  -30.6120 C   0  0  0  0  0  0  0  0  0  0  0  0
   -5.2920   23.2730  -31.2600 C   0  0  0  0  0  0  0  0  0  0  0  0
   -4.0940   23.9440  -31.0030 O   0  0  0  0  0  0  0  0  0  0  0  0
   -3.4940   24.0710  -29.7490 C   0  0  0  0  0  0  0  0  0  0  0  0
   -6.2788   24.8079  -28.6459 H   0  0  0  0  0  0  0  0  0  0  0  0
   -5.7817   26.4796  -29.0760 H   0  0  0  0  0  0  0  0  0  0  0  0
   -7.5213   26.0319  -29.0760 H   0  0  0  0  0  0  0  0  0  0  0  0
   -8.6090   23.8813  -31.1569 H   0  0  0  0  0  0  0  0  0  0  0  0
   -9.8214   22.0230  -31.8407 H   0  0  0  0  0  0  0  0  0  0  0  0
   -9.8171   19.6812  -32.6732 H   0  0  0  0  0  0  0  0  0  0  0  0
   -4.3934   19.8846  -32.4893 H   0  0  0  0  0  0  0  0  0  0  0  0
   -5.2873   18.3832  -31.9465 H   0  0  0  0  0  0  0  0  0  0  0  0
   -6.4302   17.1937  -33.2169 H   0  0  0  0  0  0  0  0  0  0  0  0
   -6.9691   17.9475  -34.7557 H   0  0  0  0  0  0  0  0  0  0  0  0
   -5.5968   16.7885  -34.7557 H   0  0  0  0  0  0  0  0  0  0  0  0
   -3.7527   17.2235  -34.2077 H   0  0  0  0  0  0  0  0  0  0  0  0
   -3.7907   18.5754  -35.4492 H   0  0  0  0  0  0  0  0  0  0  0  0
   -2.4900   20.9129  -34.7785 H   0  0  0  0  0  0  0  0  0  0  0  0
   -0.8817   21.1122  -30.1064 H   0  0  0  0  0  0  0  0  0  0  0  0
    0.6197   20.8137  -28.1816 H   0  0  0  0  0  0  0  0  0  0  0  0
    3.1290   18.3950  -27.8440 H   0  0  0  0  0  0  0  0  0  0  0  0
    1.9996   17.1237  -29.8015 H   0  0  0  0  0  0  0  0  0  0  0  0
    0.5008   17.4027  -31.7351 H   0  0  0  0  0  0  0  0  0  0  0  0
   -3.9824   21.3354  -29.7559 H   0  0  0  0  0  0  0  0  0  0  0  0
   -3.4026   19.8438  -30.5718 H   0  0  0  0  0  0  0  0  0  0  0  0
   -2.3822   21.3221  -30.5718 H   0  0  0  0  0  0  0  0  0  0  0  0
   -4.2478   23.9114  -28.9640 H   0  0  0  0  0  0  0  0  0  0  0  0
   -2.6947   23.3221  -29.6474 H   0  0  0  0  0  0  0  0  0  0  0  0
   -3.0667   25.0795  -29.6474 H   0  0  0  0  0  0  0  0  0  0  0  0
  1  2  1  0
  2  3  1  0
  3  4  2  0
  4  5  1  0
  5  6  2  0
  6  7  1  0
  7  8  2  0
  8  9  1  0
  9 10  1  0
 10 11  1  0
 11 12  1  0
 11 13  1  0
 13 14  1  0
 14 15  2  0
 15 16  1  0
 16 17  1  0
 17 18  1  0
 18 19  2  0
 19 20  1  0
 20 21  2  0
 21 22  1  0
 21 23  1  0
 23 24  2  0
 17 25  2  0
  9 26  2  0
 26 27  1  0
 27 28  1  0
 28 29  1  0
 27 30  2  0
 30 31  1  0
 31 32  1  0
 30  3  1  0
 26  5  1  0
 25 14  1  0
 24 18  1  0
  1 33  1  0
  1 34  1  0
  1 35  1  0
  4 36  1  0
  6 37  1  0
  7 38  1  0
 10 39  1  0
 10 40  1  0
 12 41  1  0
 12 42  1  0
 12 43  1  0
 13 44  1  0
 13 45  1  0
 15 46  1  0
 19 47  1  0
 20 48  1  0
 22 49  1  0
 23 50  1  0
 24 51  1  0
 29 52  1  0
 29 53  1  0
 29 54  1  0
 32 55  1  0
 32 56  1  0
 32 57  1  0
M  END
>  <smiles>  (43) 
COc1cc2ccnc(CN(C)Cc3coc(-c4ccc(O)cc4)n3)c2c(OC)c1OC

>  <score_type>  (43) 
oracle

>  <origin>  (43) 
adg

>  <m_score__min__energy>  (43) 
-8.5800000000000001

>  <m_primary>  (43) 
energy

$$$$
44:0
     RDKit          3D

 27 28  0  0  0  0  0  0  0  0999 V2000
   -2.7620   24.5510  -29.0110 C   0  0  0  0  0  0  0  0  0  0  0  0
   -3.4980   25.1310  -30.0640 O   0  0  0  0  0  0  0  0  0  0  0  0
   -4.5230   24.3890  -30.6380 C   0  0  0  0  0  0  0  0  0  0  0  0
   -5.8140   24.8900  -30.5810 C   0  0  0  0  0  0  0  0  0  0  0  0
   -6.8590   24.1760  -31.1430 C   0  0  0  0  0  0  0  0  0  0  0  0
   -6.6050   22.9700  -31.7560 C   0  0  0  0  0  0  0  0  0  0  0  0
   -7.6650   22.2690  -32.3140 O   0  0  0  0  0  0  0  0  0  0  0  0
   -7.7230   20.8820  -32.3390 C   0  0  0  0  0  0  0  0  0  0  0  0
   -6.8640   20.1230  -33.1270 C   0  0  0  0  0  0  0  0  0  0  0  0
   -6.9440   18.7430  -33.1330 C   0  0  0  0  0  0  0  0  0  0  0  0
   -7.9020   18.1730  -32.3290 C   0  0  0  0  0  0  0  0  0  0  0  0
   -8.7610   18.8970  -31.5440 C   0  0  0  0  0  0  0  0  0  0  0  0
   -8.6770   20.2780  -31.5410 C   0  0  0  0  0  0  0  0  0  0  0  0
   -5.3300   22.4400  -31.8330 C   0  0  0  0  0  0  0  0  0  0  0  0
   -4.3170   23.1750  -31.2650 C   0  0  0  0  0  0  0  0  0  0  0  0
   -3.1791   24.8797  -28.0476 H   0  0  0  0  0  0  0  0  0  0  0  0
   -2.8222   23.4549  -29.0818 H   0  0  0  0  0  0  0  0  0  0  0  0
   -1.7104   24.8658  -29.0818 H   0  0  0  0  0  0  0  0  0  0  0  0
   -6.0085   25.8546  -30.0894 H   0  0  0  0  0  0  0  0  0  0  0  0
   -7.8851   24.5699  -31.0998 H   0  0  0  0  0  0  0  0  0  0  0  0
   -6.1124   20.6267  -33.7526 H   0  0  0  0  0  0  0  0  0  0  0  0
   -6.2726   18.1299  -33.7521 H   0  0  0  0  0  0  0  0  0  0  0  0
   -7.9837   17.0761  -32.3148 H   0  0  0  0  0  0  0  0  0  0  0  0
   -9.5101   18.3850  -30.9222 H   0  0  0  0  0  0  0  0  0  0  0  0
   -9.3536   20.8815  -30.9181 H   0  0  0  0  0  0  0  0  0  0  0  0
   -5.1358   21.4758  -32.3255 H   0  0  0  0  0  0  0  0  0  0  0  0
   -3.2924   22.7775  -31.3118 H   0  0  0  0  0  0  0  0  0  0  0  0
  1  2  1  0
  2  3  1  0
  3  4  2  0
  4  5  1  0
  5  6  2  0
  6  7  1  0
  7  8  1  0
  8  9  2  0
  9 10  1  0
 10 11  2  0
 11 12  1  0
 12 13  2  0
  6 14  1  0
 14 15  2  0
 15  3  1  0
 13  8  1  0
  1 16  1  0
  1 17  1  0
  1 18  1  0
  4 19  1  0
  5 20  1  0
  9 21  1  0
 10 22  1  0
 11 23  1  0
 12 24  1  0
 13 25  1  0
 14 26  1  0
 15 27  1  0
M  END
>  <smiles>  (44) 
COc1ccc(Oc2ccccc2)cc1

>  <score_type>  (44) 
oracle

>  <origin>  (44) 
adg

>  <m_score__min__energy>  (44) 
-6.6699999999999999

>  <m_primary>  (44) 
energy

$$$$
45:0
     RDKit          3D

 43 45  0  0  1  0  0  0  0  0999 V2000
   -4.9720   14.0990  -33.1070 C   0  0  0  0  0  0  0  0  0  0  0  0
   -6.0810   15.0340  -34.2130 S   0  0  0  0  0  0  0  0  0  0  0  0
   -6.1040   16.7220  -33.6550 C   0  0  0  0  0  0  0  0  0  0  0  0
   -6.1310   16.9480  -32.2970 C   0  0  0  0  0  0  0  0  0  0  0  0
   -6.1500   18.2220  -31.8050 C   0  0  0  0  0  0  0  0  0  0  0  0
   -6.1420   19.3540  -32.6310 C   0  0  0  0  0  0  0  0  0  0  0  0
   -6.1620   20.5680  -32.0090 O   0  0  0  0  0  0  0  0  0  0  0  0
   -7.0670   21.5590  -32.3080 C   0  0  1  0  0  0  0  0  0  0  0  0
   -8.4100   21.3420  -31.5720 C   0  0  0  0  0  0  0  0  0  0  0  0
   -9.1120   22.6400  -31.9720 C   0  0  0  0  0  0  0  0  0  0  0  0
   -7.9890   23.6530  -31.7380 C   0  0  0  0  0  0  0  0  0  0  0  0
   -6.7110   22.9500  -31.8380 C   0  0  1  0  0  0  0  0  0  0  0  0
   -5.8580   22.9090  -30.7290 N   0  0  0  0  0  0  0  0  0  0  0  0
   -5.8970   24.0470  -29.8480 C   0  0  0  0  0  0  0  0  0  0  0  0
   -5.3160   25.3050  -30.4570 C   0  0  0  0  0  0  0  0  0  0  0  0
   -3.9510   25.1190  -30.6530 O   0  0  0  0  0  0  0  0  0  0  0  0
   -3.5620   23.8060  -30.4810 C   0  0  0  0  0  0  0  0  0  0  0  0
   -4.4640   22.8030  -31.1680 C   0  0  0  0  0  0  0  0  0  0  0  0
   -6.1140   19.1140  -33.9760 C   0  0  0  0  0  0  0  0  0  0  0  0
   -6.0960   17.8090  -34.4820 C   0  0  0  0  0  0  0  0  0  0  0  0
   -5.2298   14.3164  -32.0600 H   0  0  0  0  0  0  0  0  0  0  0  0
   -5.0876   13.0217  -33.2970 H   0  0  0  0  0  0  0  0  0  0  0  0
   -3.9298   14.3951  -33.2970 H   0  0  0  0  0  0  0  0  0  0  0  0
   -6.1373   16.0951  -31.6024 H   0  0  0  0  0  0  0  0  0  0  0  0
   -6.1725   18.3655  -30.7146 H   0  0  0  0  0  0  0  0  0  0  0  0
   -7.0949   21.4938  -33.4057 H   0  0  0  0  0  0  0  0  0  0  0  0
   -8.9438   20.4536  -31.9404 H   0  0  0  0  0  0  0  0  0  0  0  0
   -8.3332   21.1588  -30.4901 H   0  0  0  0  0  0  0  0  0  0  0  0
   -9.4285   22.6217  -33.0253 H   0  0  0  0  0  0  0  0  0  0  0  0
  -10.0382   22.8484  -31.4164 H   0  0  0  0  0  0  0  0  0  0  0  0
   -8.0383   24.4459  -32.4989 H   0  0  0  0  0  0  0  0  0  0  0  0
   -8.0930   24.1124  -30.7440 H   0  0  0  0  0  0  0  0  0  0  0  0
   -6.0848   23.5371  -32.5258 H   0  0  0  0  0  0  0  0  0  0  0  0
   -6.9455   24.2429  -29.5792 H   0  0  0  0  0  0  0  0  0  0  0  0
   -5.2801   23.7980  -28.9720 H   0  0  0  0  0  0  0  0  0  0  0  0
   -5.8038   25.5081  -31.4218 H   0  0  0  0  0  0  0  0  0  0  0  0
   -5.4841   26.1584  -29.7836 H   0  0  0  0  0  0  0  0  0  0  0  0
   -2.5452   23.6905  -30.8846 H   0  0  0  0  0  0  0  0  0  0  0  0
   -3.6152   23.5964  -29.4025 H   0  0  0  0  0  0  0  0  0  0  0  0
   -4.4219   22.9762  -32.2535 H   0  0  0  0  0  0  0  0  0  0  0  0
   -4.1063   21.7966  -30.9048 H   0  0  0  0  0  0  0  0  0  0  0  0
   -6.1054   19.9633  -34.6750 H   0  0  0  0  0  0  0  0  0  0  0  0
   -6.0749   17.6553  -35.5710 H   0  0  0  0  0  0  0  0  0  0  0  0
  1  2  1  0
  2  3  1  0
  3  4  2  0
  4  5  1  0
  5  6  2  0
  6  7  1  0
  7  8  1  0
  8  9  1  0
  9 10  1  0
 10 11  1  0
 11 12  1  0
 12 13  1  0
 13 14  1  0
 14 15  1  0
 15 16  1  0
 16 17  1  0
 17 18  1  0
  6 19  1  0
 19 20  2  0
 20  3  1  0
 12  8  1  0
 18 13  1  0
  1 21  1  0
  1 22  1  0
  1 23  1  0
  4 24  1  0
  5 25  1  0
  8 26  1  6
  9 27  1  0
  9 28  1  0
 10 29  1  0
 10 30  1  0
 11 31  1  0
 11 32  1  0
 12 33  1  6
 14 34  1  0
 14 35  1  0
 15 36  1  0
 15 37  1  0
 17 38  1  0
 17 39  1  0
 18 40  1  0
 18 41  1  0
 19 42  1  0
 20 43  1  0
M  END
>  <smiles>  (45) 
CSc1ccc(OC2CCCC2N2CCOCC2)cc1

>  <score_type>  (45) 
oracle

>  <origin>  (45) 
adg

>  <m_score__min__energy>  (45) 
-8.1999999999999993

>  <m_primary>  (45) 
energy

$$$$
46:0
     RDKit          3D

 65 66  0  0  1  0  0  0  0  0999 V2000
   -6.5200   25.1730  -29.5860 C   0  0  0  0  0  0  0  0  0  0  0  0
   -6.0350   24.7500  -30.9700 C   0  0  0  0  0  0  0  0  0  0  0  0
   -6.9770   23.6550  -31.4450 C   0  0  0  0  0  0  0  0  0  0  0  0
   -6.9100   22.5390  -30.4130 C   0  0  0  0  0  0  0  0  0  0  0  0
   -6.9400   21.1900  -31.0970 C   0  0  0  0  0  0  0  0  0  0  0  0
   -7.7600   21.1730  -32.3470 C   0  0  0  0  0  0  0  0  0  0  0  0
   -9.1800   20.6580  -32.1420 C   0  0  0  0  0  0  0  0  0  0  0  0
   -9.2200   19.2310  -32.5860 C   0  0  0  0  0  0  0  0  0  0  0  0
   -8.3380   18.3070  -31.8560 C   0  0  0  0  0  0  0  0  0  0  0  0
   -6.9830   17.9990  -32.2980 C   0  0  0  0  0  0  0  0  0  0  0  0
   -6.7090   17.1290  -33.4540 C   0  0  0  0  0  0  0  0  0  0  0  0
   -5.6280   16.1140  -33.3250 C   0  0  0  0  0  0  0  0  0  0  0  0
   -4.2880   16.6100  -33.4710 N   0  0  0  0  0  0  0  0  0  0  0  0
   -3.2760   15.7170  -33.2990 C   0  0  0  0  0  0  0  0  0  0  0  0
   -1.9500   16.0720  -33.4050 C   0  0  0  0  0  0  0  0  0  0  0  0
   -1.5870   17.3730  -33.6960 C   0  0  0  0  0  0  0  0  0  0  0  0
   -2.6180   18.2760  -33.8700 C   0  0  0  0  0  0  0  0  0  0  0  0
   -2.3030   19.7150  -34.1890 C   0  0  0  0  0  0  0  0  0  0  0  0
   -2.4310   20.5010  -32.9810 N   0  0  0  0  0  0  0  0  0  0  0  0
   -3.5050   21.2840  -32.8260 C   0  0  0  0  0  0  0  0  0  0  0  0
   -3.7300   22.0720  -31.7230 C   0  0  0  0  0  0  0  0  0  0  0  0
   -2.8060   22.0870  -30.6700 C   0  0  0  0  0  0  0  0  0  0  0  0
   -3.0810   22.9240  -29.5380 C   0  0  0  0  0  0  0  0  0  0  0  0
   -2.7790   24.1520  -29.3710 N   0  0  0  0  0  0  0  0  0  0  0  0
   -3.3500   25.1330  -30.1150 O   0  0  0  0  0  0  0  0  0  0  0  0
   -1.7120   21.2800  -30.8440 C   0  0  0  0  0  0  0  0  0  0  0  0
   -1.5270   20.4950  -31.9870 C   0  0  0  0  0  0  0  0  0  0  0  0
   -3.9340   17.8630  -33.7510 C   0  0  0  0  0  0  0  0  0  0  0  0
   -5.9278   24.6565  -28.8162 H   0  0  0  0  0  0  0  0  0  0  0  0
   -6.4005   26.2606  -29.4722 H   0  0  0  0  0  0  0  0  0  0  0  0
   -7.5812   24.9068  -29.4722 H   0  0  0  0  0  0  0  0  0  0  0  0
   -6.0678   25.6050  -31.6613 H   0  0  0  0  0  0  0  0  0  0  0  0
   -4.9959   24.3908  -30.9334 H   0  0  0  0  0  0  0  0  0  0  0  0
   -8.0036   24.0434  -31.5165 H   0  0  0  0  0  0  0  0  0  0  0  0
   -6.6867   23.2894  -32.4410 H   0  0  0  0  0  0  0  0  0  0  0  0
   -5.9779   22.6331  -29.8366 H   0  0  0  0  0  0  0  0  0  0  0  0
   -7.7776   22.6195  -29.7416 H   0  0  0  0  0  0  0  0  0  0  0  0
   -5.9085   20.9067  -31.3534 H   0  0  0  0  0  0  0  0  0  0  0  0
   -7.4051   20.4819  -30.3954 H   0  0  0  0  0  0  0  0  0  0  0  0
   -7.8161   22.1991  -32.7394 H   0  0  0  0  0  0  0  0  0  0  0  0
   -7.2656   20.4824  -33.0461 H   0  0  0  0  0  0  0  0  0  0  0  0
   -9.4524   20.7262  -31.0784 H   0  0  0  0  0  0  0  0  0  0  0  0
   -9.8936   21.2603  -32.7234 H   0  0  0  0  0  0  0  0  0  0  0  0
  -10.2533   18.8713  -32.4725 H   0  0  0  0  0  0  0  0  0  0  0  0
   -8.8572   19.2316  -33.6245 H   0  0  0  0  0  0  0  0  0  0  0  0
   -8.2414   18.7168  -30.8398 H   0  0  0  0  0  0  0  0  0  0  0  0
   -8.8475   17.3440  -32.0080 H   0  0  0  0  0  0  0  0  0  0  0  0
   -6.5073   18.9651  -32.5225 H   0  0  0  0  0  0  0  0  0  0  0  0
   -6.6046   17.3917  -31.4625 H   0  0  0  0  0  0  0  0  0  0  0  0
   -7.6391   16.5886  -33.6842 H   0  0  0  0  0  0  0  0  0  0  0  0
   -6.3492   17.8153  -34.2347 H   0  0  0  0  0  0  0  0  0  0  0  0
   -5.7120   15.6554  -32.3287 H   0  0  0  0  0  0  0  0  0  0  0  0
   -5.7787   15.4080  -34.1549 H   0  0  0  0  0  0  0  0  0  0  0  0
   -3.5268   14.6715  -33.0664 H   0  0  0  0  0  0  0  0  0  0  0  0
   -1.1701   15.3106  -33.2562 H   0  0  0  0  0  0  0  0  0  0  0  0
   -0.5327   17.6739  -33.7845 H   0  0  0  0  0  0  0  0  0  0  0  0
   -1.2749   19.7918  -34.5725 H   0  0  0  0  0  0  0  0  0  0  0  0
   -3.0005   20.0890  -34.9530 H   0  0  0  0  0  0  0  0  0  0  0  0
   -4.2541   21.2977  -33.6314 H   0  0  0  0  0  0  0  0  0  0  0  0
   -4.6369   22.6919  -31.6667 H   0  0  0  0  0  0  0  0  0  0  0  0
   -3.6214   22.4457  -28.7078 H   0  0  0  0  0  0  0  0  0  0  0  0
   -3.4770   26.0490  -29.7220 H   0  0  0  0  0  0  0  0  0  0  0  0
   -0.9485   21.2483  -30.0528 H   0  0  0  0  0  0  0  0  0  0  0  0
   -0.6297   19.8646  -32.0731 H   0  0  0  0  0  0  0  0  0  0  0  0
   -4.7293   18.6092  -33.8953 H   0  0  0  0  0  0  0  0  0  0  0  0
  1  2  1  0
  2  3  1  0
  3  4  1  0
  4  5  1  0
  5  6  1  0
  6  7  1  0
  7  8  1  0
  8  9  1  0
  9 10  1  0
 10 11  1  0
 11 12  1  0
 12 13  1  0
 13 14  2  0
 14 15  1  0
 15 16  2  0
 16 17  1  0
 17 18  1  0
 18 19  1  0
 19 20  2  0
 20 21  1  0
 21 22  2  0
 22 23  1  0
 23 24  2  0
 24 25  1  0
 22 26  1  0
 26 27  2  0
 17 28  2  0
 28 13  1  0
 27 19  1  0
  1 29  1  0
  1 30  1  0
  1 31  1  0
  2 32  1  0
  2 33  1  0
  3 34  1  0
  3 35  1  0
  4 36  1  0
  4 37  1  0
  5 38  1  0
  5 39  1  0
  6 40  1  0
  6 41  1  0
  7 42  1  0
  7 43  1  0
  8 44  1  0
  8 45  1  0
  9 46  1  0
  9 47  1  0
 10 48  1  0
 10 49  1  0
 11 50  1  0
 11 51  1  0
 12 52  1  0
 12 53  1  0
 14 54  1  0
 15 55  1  0
 16 56  1  0
 18 57  1  0
 18 58  1  0
 20 59  1  0
 21 60  1  0
 23 61  1  0
 25 62  1  0
 26 63  1  0
 27 64  1  0
 28 65  1  0
M  CHG  2  13   1  19   1
M  END
>  <smiles>  (46) 
CCCCCCCCCCCC[n+]1cccc(C[n+]2ccc(C=NO)cc2)c1

>  <score_type>  (46) 
oracle

>  <origin>  (46) 
adg

>  <m_score__min__energy>  (46) 
-8.2200000000000006

>  <m_primary>  (46) 
energy

$$$$
47:0
     RDKit          3D

 73 76  0  0  0  0  0  0  0  0999 V2000
   -2.0210   24.6990  -28.2070 C   0  0  0  0  0  0  0  0  0  0  0  0
   -2.6920   25.2680  -29.3250 O   0  0  0  0  0  0  0  0  0  0  0  0
   -3.8240   24.6580  -29.8730 C   0  0  0  0  0  0  0  0  0  0  0  0
   -4.7090   25.3100  -30.6960 C   0  0  0  0  0  0  0  0  0  0  0  0
   -5.8200   24.6750  -31.2180 C   0  0  0  0  0  0  0  0  0  0  0  0
   -6.0790   23.3410  -30.9180 C   0  0  0  0  0  0  0  0  0  0  0  0
   -7.2780   22.6930  -31.4840 C   0  0  0  0  0  0  0  0  0  0  0  0
   -7.3470   22.6740  -32.7230 O   0  0  0  0  0  0  0  0  0  0  0  0
   -8.2950   22.1250  -30.6850 N   0  0  0  0  0  0  0  0  0  0  0  0
   -9.4750   21.4660  -31.0660 C   0  0  0  0  0  0  0  0  0  0  0  0
   -9.4880   20.3470  -32.0330 C   0  0  0  0  0  0  0  0  0  0  0  0
   -8.9430   19.0600  -31.5790 C   0  0  0  0  0  0  0  0  0  0  0  0
   -7.7240   18.6730  -32.2850 N   0  0  0  0  0  0  0  0  0  0  0  0
   -6.8620   17.8010  -31.6460 C   0  0  0  0  0  0  0  0  0  0  0  0
   -5.5590   17.6100  -32.3540 C   0  0  0  0  0  0  0  0  0  0  0  0
   -5.6040   17.9900  -33.6990 N   0  0  0  0  0  0  0  0  0  0  0  0
   -5.4090   16.9360  -34.5930 C   0  0  0  0  0  0  0  0  0  0  0  0
   -4.2060   16.0900  -34.4440 C   0  0  0  0  0  0  0  0  0  0  0  0
   -2.9040   16.6950  -34.8940 C   0  0  0  0  0  0  0  0  0  0  0  0
   -2.2710   17.4000  -33.8810 N   0  0  0  0  0  0  0  0  0  0  0  0
   -1.6550   18.0900  -32.8920 C   0  0  0  0  0  0  0  0  0  0  0  0
   -0.6350   17.7890  -32.0440 C   0  0  0  0  0  0  0  0  0  0  0  0
   -0.0880   18.6400  -31.1060 C   0  0  0  0  0  0  0  0  0  0  0  0
    0.9650   18.2070  -30.2900 O   0  0  0  0  0  0  0  0  0  0  0  0
    0.5990   17.6280  -29.0500 C   0  0  0  0  0  0  0  0  0  0  0  0
   -0.6310   19.8980  -31.0290 C   0  0  0  0  0  0  0  0  0  0  0  0
   -1.6530   20.2960  -31.8310 C   0  0  0  0  0  0  0  0  0  0  0  0
   -2.1650   21.5760  -31.7040 C   0  0  0  0  0  0  0  0  0  0  0  0
   -3.2090   22.0020  -32.5040 C   0  0  0  0  0  0  0  0  0  0  0  0
   -3.7020   21.0900  -33.4220 C   0  0  0  0  0  0  0  0  0  0  0  0
   -3.1780   19.8440  -33.5200 N   0  0  0  0  0  0  0  0  0  0  0  0
   -2.1610   19.4270  -32.7430 C   0  0  0  0  0  0  0  0  0  0  0  0
   -6.1740   19.2070  -34.0890 C   0  0  0  0  0  0  0  0  0  0  0  0
   -7.2330   19.7130  -33.1270 C   0  0  0  0  0  0  0  0  0  0  0  0
   -5.1880   22.7070  -30.0980 C   0  0  0  0  0  0  0  0  0  0  0  0
   -4.0750   23.3370  -29.5750 C   0  0  0  0  0  0  0  0  0  0  0  0
   -2.4697   25.0795  -27.2775 H   0  0  0  0  0  0  0  0  0  0  0  0
   -2.1181   23.6038  -28.2395 H   0  0  0  0  0  0  0  0  0  0  0  0
   -0.9564   24.9738  -28.2395 H   0  0  0  0  0  0  0  0  0  0  0  0
   -4.5289   26.3658  -30.9465 H   0  0  0  0  0  0  0  0  0  0  0  0
   -6.5055   25.2288  -31.8763 H   0  0  0  0  0  0  0  0  0  0  0  0
   -8.1160   22.2180  -29.6260 H   0  0  0  0  0  0  0  0  0  0  0  0
   -9.9171   21.0725  -30.1388 H   0  0  0  0  0  0  0  0  0  0  0  0
   -9.9992   22.2531  -31.6278 H   0  0  0  0  0  0  0  0  0  0  0  0
  -10.5338   20.1775  -32.3288 H   0  0  0  0  0  0  0  0  0  0  0  0
   -8.8192   20.6670  -32.8456 H   0  0  0  0  0  0  0  0  0  0  0  0
   -8.7169   19.1348  -30.5051 H   0  0  0  0  0  0  0  0  0  0  0  0
   -9.7012   18.2908  -31.7876 H   0  0  0  0  0  0  0  0  0  0  0  0
   -6.6551   18.1938  -30.6396 H   0  0  0  0  0  0  0  0  0  0  0  0
   -7.3594   16.8202  -31.6223 H   0  0  0  0  0  0  0  0  0  0  0  0
   -4.7926   18.2133  -31.8454 H   0  0  0  0  0  0  0  0  0  0  0  0
   -5.3245   16.5357  -32.3246 H   0  0  0  0  0  0  0  0  0  0  0  0
   -6.2829   16.2735  -34.5075 H   0  0  0  0  0  0  0  0  0  0  0  0
   -5.2663   17.4332  -35.5638 H   0  0  0  0  0  0  0  0  0  0  0  0
   -4.1061   15.8346  -33.3787 H   0  0  0  0  0  0  0  0  0  0  0  0
   -4.3716   15.2267  -35.1053 H   0  0  0  0  0  0  0  0  0  0  0  0
   -2.2376   15.8879  -35.2325 H   0  0  0  0  0  0  0  0  0  0  0  0
   -3.1257   17.4020  -35.7070 H   0  0  0  0  0  0  0  0  0  0  0  0
   -3.4490   17.9590  -33.5930 H   0  0  0  0  0  0  0  0  0  0  0  0
   -0.2084   16.7774  -32.1122 H   0  0  0  0  0  0  0  0  0  0  0  0
    0.9893   18.2455  -28.2276 H   0  0  0  0  0  0  0  0  0  0  0  0
   -0.4974   17.5744  -28.9798 H   0  0  0  0  0  0  0  0  0  0  0  0
    1.0209   16.6146  -28.9798 H   0  0  0  0  0  0  0  0  0  0  0  0
   -0.2252   20.6080  -30.2933 H   0  0  0  0  0  0  0  0  0  0  0  0
   -1.7364   22.2617  -30.9583 H   0  0  0  0  0  0  0  0  0  0  0  0
   -3.6274   23.0155  -32.4156 H   0  0  0  0  0  0  0  0  0  0  0  0
   -4.5322   21.3815  -34.0822 H   0  0  0  0  0  0  0  0  0  0  0  0
   -5.3753   19.9604  -34.1559 H   0  0  0  0  0  0  0  0  0  0  0  0
   -6.6689   19.0381  -35.0568 H   0  0  0  0  0  0  0  0  0  0  0  0
   -6.7952   20.5028  -32.4988 H   0  0  0  0  0  0  0  0  0  0  0  0
   -8.0756   20.1000  -33.7189 H   0  0  0  0  0  0  0  0  0  0  0  0
   -5.3643   21.6514  -29.8439 H   0  0  0  0  0  0  0  0  0  0  0  0
   -3.3879   22.7822  -28.9192 H   0  0  0  0  0  0  0  0  0  0  0  0
  1  2  1  0
  2  3  1  0
  3  4  2  0
  4  5  1  0
  5  6  2  0
  6  7  1  0
  7  8  2  0
  7  9  1  0
  9 10  1  0
 10 11  1  0
 11 12  1  0
 12 13  1  0
 13 14  1  0
 14 15  1  0
 15 16  1  0
 16 17  1  0
 17 18  1  0
 18 19  1  0
 19 20  1  0
 20 21  1  0
 21 22  2  0
 22 23  1  0
 23 24  1  0
 24 25  1  0
 23 26  2  0
 26 27  1  0
 27 28  2  0
 28 29  1  0
 29 30  2  0
 30 31  1  0
 31 32  2  0
 16 33  1  0
 33 34  1  0
  6 35  1  0
 35 36  2  0
 36  3  1  0
 34 13  1  0
 32 21  1  0
 32 27  1  0
  1 37  1  0
  1 38  1  0
  1 39  1  0
  4 40  1  0
  5 41  1  0
  9 42  1  0
 10 43  1  0
 10 44  1  0
 11 45  1  0
 11 46  1  0
 12 47  1  0
 12 48  1  0
 14 49  1  0
 14 50  1  0
 15 51  1  0
 15 52  1  0
 17 53  1  0
 17 54  1  0
 18 55  1  0
 18 56  1  0
 19 57  1  0
 19 58  1  0
 20 59  1  0
 22 60  1  0
 25 61  1  0
 25 62  1  0
 25 63  1  0
 26 64  1  0
 28 65  1  0
 29 66  1  0
 30 67  1  0
 33 68  1  0
 33 69  1  0
 34 70  1  0
 34 71  1  0
 35 72  1  0
 36 73  1  0
M  END
>  <smiles>  (47) 
COc1ccc(C(=O)NCCCN2CCN(CCCNc3cc(OC)cc4cccnc34)CC2)cc1

>  <score_type>  (47) 
oracle

>  <origin>  (47) 
adg

>  <m_score__min__energy>  (47) 
-10.140000000000001

>  <m_primary>  (47) 
energy

$$$$
48:0
     RDKit          3D

 46 48  0  0  0  0  0  0  0  0999 V2000
   -9.8550   21.1100  -31.9800 C   0  0  0  0  0  0  0  0  0  0  0  0
   -8.6040   22.3560  -31.4990 S   0  0  0  0  0  0  0  0  0  0  0  0
   -7.0200   21.6980  -32.0630 C   0  0  0  0  0  0  0  0  0  0  0  0
   -6.9670   20.4230  -32.4910 N   0  0  0  0  0  0  0  0  0  0  0  0
   -5.8210   19.8630  -32.9270 C   0  0  0  0  0  0  0  0  0  0  0  0
   -5.7840   18.5160  -33.3740 N   0  0  0  0  0  0  0  0  0  0  0  0
   -6.4220   17.4220  -32.6670 C   0  0  0  0  0  0  0  0  0  0  0  0
   -6.8130   16.3960  -33.7400 C   0  0  0  0  0  0  0  0  0  0  0  0
   -5.6460   15.7770  -34.3100 N   0  0  0  0  0  0  0  0  0  0  0  0
   -5.1870   14.7460  -33.4110 C   0  0  0  0  0  0  0  0  0  0  0  0
   -4.6190   16.7310  -34.5820 C   0  0  0  0  0  0  0  0  0  0  0  0
   -5.0800   18.1670  -34.6030 C   0  0  0  0  0  0  0  0  0  0  0  0
   -4.6650   20.6150  -32.9380 C   0  0  0  0  0  0  0  0  0  0  0  0
   -4.7250   21.9240  -32.4980 C   0  0  0  0  0  0  0  0  0  0  0  0
   -5.8840   22.5190  -32.0480 C   0  0  0  0  0  0  0  0  0  0  0  0
   -5.9670   23.8580  -31.6010 N   0  0  0  0  0  0  0  0  0  0  0  0
   -5.0560   24.5490  -30.3420 S   0  0  0  0  0  0  0  0  0  0  0  0
   -5.9370   25.1600  -29.2940 O   0  0  0  0  0  0  0  0  0  0  0  0
   -4.1840   25.6770  -30.8500 O   0  0  0  0  0  0  0  0  0  0  0  0
   -3.9980   23.4180  -29.5460 C   0  0  0  0  0  0  0  0  0  0  0  0
   -2.7680   23.1810  -30.1080 C   0  0  0  0  0  0  0  0  0  0  0  0
   -1.9120   22.2790  -29.4930 C   0  0  0  0  0  0  0  0  0  0  0  0
   -2.2400   21.6240  -28.3610 N   0  0  0  0  0  0  0  0  0  0  0  0
   -3.4530   21.8440  -27.7880 C   0  0  0  0  0  0  0  0  0  0  0  0
   -4.3150   22.7420  -28.3940 C   0  0  0  0  0  0  0  0  0  0  0  0
  -10.2988   20.6680  -31.0757 H   0  0  0  0  0  0  0  0  0  0  0  0
  -10.6429   21.5929  -32.5767 H   0  0  0  0  0  0  0  0  0  0  0  0
   -9.3753   20.3202  -32.5767 H   0  0  0  0  0  0  0  0  0  0  0  0
   -5.7228   16.9734  -31.9459 H   0  0  0  0  0  0  0  0  0  0  0  0
   -7.2993   17.7660  -32.0996 H   0  0  0  0  0  0  0  0  0  0  0  0
   -7.4448   15.6202  -33.2829 H   0  0  0  0  0  0  0  0  0  0  0  0
   -7.3602   16.9162  -34.5399 H   0  0  0  0  0  0  0  0  0  0  0  0
   -5.3332   15.0743  -32.3714 H   0  0  0  0  0  0  0  0  0  0  0  0
   -5.7595   13.8235  -33.5881 H   0  0  0  0  0  0  0  0  0  0  0  0
   -4.1184   14.5541  -33.5881 H   0  0  0  0  0  0  0  0  0  0  0  0
   -3.8450   16.6312  -33.8067 H   0  0  0  0  0  0  0  0  0  0  0  0
   -4.2500   16.5091  -35.5942 H   0  0  0  0  0  0  0  0  0  0  0  0
   -4.2038   18.8230  -34.7126 H   0  0  0  0  0  0  0  0  0  0  0  0
   -5.7719   18.2971  -35.4482 H   0  0  0  0  0  0  0  0  0  0  0  0
   -3.7164   20.1828  -33.2891 H   0  0  0  0  0  0  0  0  0  0  0  0
   -3.8011   22.5210  -32.5075 H   0  0  0  0  0  0  0  0  0  0  0  0
   -6.6650   24.4830  -32.1030 H   0  0  0  0  0  0  0  0  0  0  0  0
   -2.4662   23.6979  -31.0309 H   0  0  0  0  0  0  0  0  0  0  0  0
   -0.9276   22.0909  -29.9464 H   0  0  0  0  0  0  0  0  0  0  0  0
   -3.7427   21.3209  -26.8647 H   0  0  0  0  0  0  0  0  0  0  0  0
   -5.2970   22.9217  -27.9321 H   0  0  0  0  0  0  0  0  0  0  0  0
  1  2  1  0
  2  3  1  0
  3  4  2  0
  4  5  1  0
  5  6  1  0
  6  7  1  0
  7  8  1  0
  8  9  1  0
  9 10  1  0
  9 11  1  0
 11 12  1  0
  5 13  2  0
 13 14  1  0
 14 15  2  0
 15 16  1  0
 16 17  1  0
 17 18  2  0
 17 19  2  0
 17 20  1  0
 20 21  2  0
 21 22  1  0
 22 23  2  0
 23 24  1  0
 24 25  2  0
 15  3  1  0
 25 20  1  0
 12  6  1  0
  1 26  1  0
  1 27  1  0
  1 28  1  0
  7 29  1  0
  7 30  1  0
  8 31  1  0
  8 32  1  0
 10 33  1  0
 10 34  1  0
 10 35  1  0
 11 36  1  0
 11 37  1  0
 12 38  1  0
 12 39  1  0
 13 40  1  0
 14 41  1  0
 16 42  1  0
 21 43  1  0
 22 44  1  0
 24 45  1  0
 25 46  1  0
M  END
>  <smiles>  (48) 
CSc1nc(N2CCN(C)CC2)ccc1NS(=O)(=O)c1ccncc1

>  <score_type>  (48) 
oracle

>  <origin>  (48) 
adg

>  <m_score__min__energy>  (48) 
-8.3800000000000008

>  <m_primary>  (48) 
energy

$$$$
