0:0
     RDKit          3D

 63 65  0  0  0  0  0  0  0  0999 V2000
   -1.6270   21.1460  -28.8390 C   0  0  0  0  0  0  0  0  0  0  0  0
   -1.8320   21.8290  -30.0720 O   0  0  0  0  0  0  0  0  0  0  0  0
   -3.0990   22.2560  -30.4790 C   0  0  0  0  0  0  0  0  0  0  0  0
   -3.6520   23.4430  -29.9570 C   0  0  0  0  0  0  0  0  0  0  0  0
   -2.9380   24.1940  -28.9630 N   0  0  0  0  0  0  0  0  0  0  0  0
   -1.7090   24.7380  -29.0790 C   0  0  0  0  0  0  0  0  0  0  0  0
   -1.3060   25.3520  -27.9450 N   0  0  0  0  0  0  0  0  0  0  0  0
   -2.3440   25.1890  -27.1000 C   0  0  0  0  0  0  0  0  0  0  0  0
   -2.3490   25.6560  -25.6840 C   0  0  0  0  0  0  0  0  0  0  0  0
   -3.3450   24.4670  -27.7130 C   0  0  0  0  0  0  0  0  0  0  0  0
   -4.9290   23.8550  -30.3800 C   0  0  0  0  0  0  0  0  0  0  0  0
   -5.6940   25.2960  -29.7200 Cl  0  0  0  0  0  0  0  0  0  0  0  0
   -5.6460   23.0870  -31.2990 C   0  0  0  0  0  0  0  0  0  0  0  0
   -5.1060   21.8930  -31.8100 C   0  0  0  0  0  0  0  0  0  0  0  0
   -5.8150   21.0890  -32.7170 C   0  0  0  0  0  0  0  0  0  0  0  0
   -6.9740   21.4420  -33.0790 O   0  0  0  0  0  0  0  0  0  0  0  0
   -5.2620   19.9270  -33.2080 N   0  0  0  0  0  0  0  0  0  0  0  0
   -6.0540   19.1320  -34.1780 C   0  0  0  0  0  0  0  0  0  0  0  0
   -6.8710   18.0470  -33.4640 C   0  0  0  0  0  0  0  0  0  0  0  0
   -7.0700   18.4060  -32.0410 N   0  0  0  0  0  0  0  0  0  0  0  0
   -6.4190   17.4330  -31.1500 C   0  0  0  0  0  0  0  0  0  0  0  0
   -8.5010   18.5050  -31.7120 C   0  0  0  0  0  0  0  0  0  0  0  0
   -3.9830   19.5680  -32.8210 C   0  0  0  0  0  0  0  0  0  0  0  0
   -3.2860   18.3050  -33.3040 C   0  0  0  0  0  0  0  0  0  0  0  0
   -2.0680   18.6260  -34.1820 C   0  0  0  0  0  0  0  0  0  0  0  0
   -0.8150   18.9650  -33.3590 C   0  0  0  0  0  0  0  0  0  0  0  0
   -0.7680   20.4150  -33.0650 N   0  0  0  0  0  0  0  0  0  0  0  0
   -0.4320   21.1700  -34.2830 C   0  0  0  0  0  0  0  0  0  0  0  0
    0.2300   20.7090  -32.0210 C   0  0  0  0  0  0  0  0  0  0  0  0
   -3.3000   20.3430  -31.9280 N   0  0  0  0  0  0  0  0  0  0  0  0
   -3.8270   21.4820  -31.4070 C   0  0  0  0  0  0  0  0  0  0  0  0
   -1.8323   21.8300  -28.0024 H   0  0  0  0  0  0  0  0  0  0  0  0
   -2.3054   20.2821  -28.7812 H   0  0  0  0  0  0  0  0  0  0  0  0
   -0.5850   20.7984  -28.7812 H   0  0  0  0  0  0  0  0  0  0  0  0
   -1.1023   24.6873  -29.9952 H   0  0  0  0  0  0  0  0  0  0  0  0
   -2.3397   24.7860  -25.0109 H   0  0  0  0  0  0  0  0  0  0  0  0
   -1.4574   26.2729  -25.4982 H   0  0  0  0  0  0  0  0  0  0  0  0
   -3.2536   26.2537  -25.4982 H   0  0  0  0  0  0  0  0  0  0  0  0
   -4.3024   24.1689  -27.2609 H   0  0  0  0  0  0  0  0  0  0  0  0
   -6.6424   23.4186  -31.6265 H   0  0  0  0  0  0  0  0  0  0  0  0
   -6.7398   19.8021  -34.7171 H   0  0  0  0  0  0  0  0  0  0  0  0
   -5.3610   18.6439  -34.8791 H   0  0  0  0  0  0  0  0  0  0  0  0
   -7.8510   17.9493  -33.9540 H   0  0  0  0  0  0  0  0  0  0  0  0
   -6.3251   17.0936  -33.5194 H   0  0  0  0  0  0  0  0  0  0  0  0
   -6.6060   17.7125  -30.1027 H   0  0  0  0  0  0  0  0  0  0  0  0
   -6.8286   16.4300  -31.3406 H   0  0  0  0  0  0  0  0  0  0  0  0
   -5.3356   17.4289  -31.3406 H   0  0  0  0  0  0  0  0  0  0  0  0
   -8.6262   18.5137  -30.6192 H   0  0  0  0  0  0  0  0  0  0  0  0
   -8.9112   19.4337  -32.1355 H   0  0  0  0  0  0  0  0  0  0  0  0
   -9.0352   17.6417  -32.1355 H   0  0  0  0  0  0  0  0  0  0  0  0
   -2.9523   17.7261  -32.4302 H   0  0  0  0  0  0  0  0  0  0  0  0
   -4.0018   17.7298  -33.9095 H   0  0  0  0  0  0  0  0  0  0  0  0
   -1.8487   17.7517  -34.8125 H   0  0  0  0  0  0  0  0  0  0  0  0
   -2.3180   19.5110  -34.7855 H   0  0  0  0  0  0  0  0  0  0  0  0
   -0.8398   18.4039  -32.4132 H   0  0  0  0  0  0  0  0  0  0  0  0
    0.0783   18.6891  -33.9386 H   0  0  0  0  0  0  0  0  0  0  0  0
    0.0006   22.1421  -34.0041 H   0  0  0  0  0  0  0  0  0  0  0  0
    0.2978   20.6009  -34.8776 H   0  0  0  0  0  0  0  0  0  0  0  0
   -1.3433   21.3312  -34.8776 H   0  0  0  0  0  0  0  0  0  0  0  0
   -0.2264   20.5746  -31.0292 H   0  0  0  0  0  0  0  0  0  0  0  0
    1.0844   20.0244  -32.1273 H   0  0  0  0  0  0  0  0  0  0  0  0
    0.5768   21.7475  -32.1273 H   0  0  0  0  0  0  0  0  0  0  0  0
   -2.3410   20.0430  -31.6430 H   0  0  0  0  0  0  0  0  0  0  0  0
  1  2  1  0
  2  3  1  0
  3  4  2  0
  4  5  1  0
  5  6  1  0
  6  7  2  0
  7  8  1  0
  8  9  1  0
  8 10  2  0
  4 11  1  0
 11 12  1  0
 11 13  2  0
 13 14  1  0
 14 15  1  0
 15 16  2  0
 15 17  1  0
 17 18  1  0
 18 19  1  0
 19 20  1  0
 20 21  1  0
 20 22  1  0
 17 23  1  0
 23 24  1  0
 24 25  1  0
 25 26  1  0
 26 27  1  0
 27 28  1  0
 27 29  1  0
 23 30  2  0
 30 31  1  0
 31  3  1  0
 10  5  1  0
 31 14  2  0
  1 32  1  0
  1 33  1  0
  1 34  1  0
  6 35  1  0
  9 36  1  0
  9 37  1  0
  9 38  1  0
 10 39  1  0
 13 40  1  0
 18 41  1  0
 18 42  1  0
 19 43  1  0
 19 44  1  0
 21 45  1  0
 21 46  1  0
 21 47  1  0
 22 48  1  0
 22 49  1  0
 22 50  1  0
 24 51  1  0
 24 52  1  0
 25 53  1  0
 25 54  1  0
 26 55  1  0
 26 56  1  0
 28 57  1  0
 28 58  1  0
 28 59  1  0
 29 60  1  0
 29 61  1  0
 29 62  1  0
 30 63  1  0
M  CHG  1  30   1
M  END
>  <UniqueID>  (1) 
1

>  <SMILES>  (1) 
COc1c(-n2cnc(C)c2)c(Cl)cc2c(=O)n(CCN(C)C)c(CCCN(C)C)[nH+]c12

>  <Energy>  (1) 
111.63412198580112

>  <Genealogy>  (1) 
COc1c(-n2cnc(C)c2)c(Cl)cc2c(=O)n(CCN(C)C)c(CCCN(C)C)[nH+]c12 (protonated)
COc1c(-n2cnc(C)c2)c(Cl)cc2c(=O)n(CCN(C)C)c(CCCN(C)C)[nH+]c12 (3D coordinates assigned)
COc1c(-n2cnc(C)c2)c(Cl)cc2c(=O)n(CCN(C)C)c(CCCN(C)C)[nH+]c12 (optimized conformer: 111.63412198580112 kcal/mol)

>  <smiles>  (1) 
COc1c(-n2cnc(C)c2)c(Cl)cc2c(=O)n(CCN(C)C)c(CCCN(C)C)nc12

>  <score_type>  (1) 
oracle

>  <origin>  (1) 
adg

>  <m_score__min__energy>  (1) 
-6.6299999999999999

>  <m_primary>  (1) 
energy

$$$$
1:0
     RDKit          3D

 37 40  0  0  0  0  0  0  0  0999 V2000
   -4.6490   22.3750  -32.8260 N   0  0  0  0  0  0  0  0  0  0  0  0
   -5.8690   22.5140  -32.1430 N   0  0  0  0  0  0  0  0  0  0  0  0
   -6.1850   23.4310  -31.1910 C   0  0  0  0  0  0  0  0  0  0  0  0
   -5.2460   24.4920  -30.6880 C   0  0  0  0  0  0  0  0  0  0  0  0
   -3.8900   24.0460  -30.7360 O   0  0  0  0  0  0  0  0  0  0  0  0
   -3.2090   23.4160  -29.6800 C   0  0  0  0  0  0  0  0  0  0  0  0
   -3.4920   22.1020  -29.2700 C   0  0  0  0  0  0  0  0  0  0  0  0
   -2.7670   21.5360  -28.2180 C   0  0  0  0  0  0  0  0  0  0  0  0
   -3.0120   20.2270  -27.7780 C   0  0  0  0  0  0  0  0  0  0  0  0
   -2.2640   19.6950  -26.7220 C   0  0  0  0  0  0  0  0  0  0  0  0
   -1.2750   20.4660  -26.1030 C   0  0  0  0  0  0  0  0  0  0  0  0
   -1.0260   21.7720  -26.5360 C   0  0  0  0  0  0  0  0  0  0  0  0
   -1.7670   22.3120  -27.5920 C   0  0  0  0  0  0  0  0  0  0  0  0
   -1.5290   23.5540  -28.0050 O   0  0  0  0  0  0  0  0  0  0  0  0
   -2.2000   24.1200  -29.0050 C   0  0  0  0  0  0  0  0  0  0  0  0
   -1.9200   25.2990  -29.3440 O   0  0  0  0  0  0  0  0  0  0  0  0
   -7.4380   23.2420  -30.7020 N   0  0  0  0  0  0  0  0  0  0  0  0
   -7.9120   22.1870  -31.3900 C   0  0  0  0  0  0  0  0  0  0  0  0
   -9.1590   21.5750  -31.2780 C   0  0  0  0  0  0  0  0  0  0  0  0
   -9.4180   20.4670  -32.1070 C   0  0  0  0  0  0  0  0  0  0  0  0
   -8.4360   20.0040  -33.0130 C   0  0  0  0  0  0  0  0  0  0  0  0
   -7.1840   20.6430  -33.1000 C   0  0  0  0  0  0  0  0  0  0  0  0
   -6.9620   21.7410  -32.2670 C   0  0  0  0  0  0  0  0  0  0  0  0
   -4.6250   22.1140  -33.8350 H   0  0  0  0  0  0  0  0  0  0  0  0
   -3.7420   22.5520  -32.3420 H   0  0  0  0  0  0  0  0  0  0  0  0
   -5.3508   25.3902  -31.3143 H   0  0  0  0  0  0  0  0  0  0  0  0
   -5.5021   24.7167  -29.6421 H   0  0  0  0  0  0  0  0  0  0  0  0
   -4.2794   21.5225  -29.7741 H   0  0  0  0  0  0  0  0  0  0  0  0
   -3.7909   19.6197  -28.2623 H   0  0  0  0  0  0  0  0  0  0  0  0
   -2.4543   18.6677  -26.3778 H   0  0  0  0  0  0  0  0  0  0  0  0
   -0.6907   20.0434  -25.2723 H   0  0  0  0  0  0  0  0  0  0  0  0
   -0.2472   22.3748  -26.0460 H   0  0  0  0  0  0  0  0  0  0  0  0
   -7.9280   23.7850  -29.9550 H   0  0  0  0  0  0  0  0  0  0  0  0
   -9.9134   21.9442  -30.5677 H   0  0  0  0  0  0  0  0  0  0  0  0
  -10.3913   19.9578  -32.0495 H   0  0  0  0  0  0  0  0  0  0  0  0
   -8.6518   19.1374  -33.6552 H   0  0  0  0  0  0  0  0  0  0  0  0
   -6.4103   20.2903  -33.7979 H   0  0  0  0  0  0  0  0  0  0  0  0
  1  2  1  0
  2  3  1  0
  3  4  1  0
  4  5  1  0
  5  6  1  0
  6  7  2  0
  7  8  1  0
  8  9  2  0
  9 10  1  0
 10 11  2  0
 11 12  1  0
 12 13  2  0
 13 14  1  0
 14 15  1  0
 15 16  2  0
  3 17  2  0
 17 18  1  0
 18 19  2  0
 19 20  1  0
 20 21  2  0
 21 22  1  0
 22 23  2  0
 23  2  1  0
 15  6  1  0
 23 18  1  0
 13  8  1  0
  1 24  1  0
  1 25  1  0
  4 26  1  0
  4 27  1  0
  7 28  1  0
  9 29  1  0
 10 30  1  0
 11 31  1  0
 12 32  1  0
 17 33  1  0
 19 34  1  0
 20 35  1  0
 21 36  1  0
 22 37  1  0
M  CHG  1  17   1
M  END
>  <UniqueID>  (2) 
2

>  <SMILES>  (2) 
Nn1c(COc2cc3ccccc3oc2=O)[nH+]c2ccccc21

>  <Energy>  (2) 
85.30918938187237

>  <Genealogy>  (2) 
Nn1c(COc2cc3ccccc3oc2=O)[nH+]c2ccccc21 (protonated)
Nn1c(COc2cc3ccccc3oc2=O)[nH+]c2ccccc21 (3D coordinates assigned)
Nn1c(COc2cc3ccccc3oc2=O)[nH+]c2ccccc21 (optimized conformer: 85.30918938187237 kcal/mol)

>  <smiles>  (2) 
Nn1c(COc2cc3ccccc3oc2=O)nc2ccccc21

>  <score_type>  (2) 
oracle

>  <origin>  (2) 
adg

>  <m_score__min__energy>  (2) 
-7.6600000000000001

>  <m_primary>  (2) 
energy

$$$$
2:0
     RDKit          3D

 54 54  0  0  0  0  0  0  0  0999 V2000
  -10.0212   18.1361  -31.9798 H   0  0  0  0  0  0  0  0  0  0  0  0
   -9.1360   18.7890  -31.9910 C   0  0  0  0  0  0  0  0  0  0  0  0
   -7.9140   18.1550  -31.8850 C   0  0  0  0  0  0  0  0  0  0  0  0
   -7.9590   17.0999  -31.5774 H   0  0  0  0  0  0  0  0  0  0  0  0
   -6.6200   18.6580  -32.1120 C   0  0  0  0  0  0  0  0  0  0  0  0
   -5.5860   17.6380  -32.2360 N   0  0  0  0  0  0  0  0  0  0  0  0
   -5.3030   17.2390  -31.3120 H   0  0  0  0  0  0  0  0  0  0  0  0
   -4.7030   18.0620  -32.6090 H   0  0  0  0  0  0  0  0  0  0  0  0
   -6.0190   16.5790  -33.1600 C   0  0  0  0  0  0  0  0  0  0  0  0
   -7.0155   16.2241  -32.8584 H   0  0  0  0  0  0  0  0  0  0  0  0
   -5.2879   15.7582  -33.1185 H   0  0  0  0  0  0  0  0  0  0  0  0
   -6.0870   17.0970  -34.5960 C   0  0  0  0  0  0  0  0  0  0  0  0
   -6.2302   18.1876  -34.5860 H   0  0  0  0  0  0  0  0  0  0  0  0
   -5.1494   16.8550  -35.1179 H   0  0  0  0  0  0  0  0  0  0  0  0
   -6.9304   16.6212  -35.1179 H   0  0  0  0  0  0  0  0  0  0  0  0
   -6.2570   20.0430  -32.1790 C   0  0  0  0  0  0  0  0  0  0  0  0
   -4.8820   20.3270  -32.6730 C   0  0  0  0  0  0  0  0  0  0  0  0
   -4.5900   20.0160  -33.8620 O   0  0  0  0  0  0  0  0  0  0  0  0
   -3.9000   21.0030  -31.8500 N   0  0  0  0  0  0  0  0  0  0  0  0
   -2.6250   21.4320  -32.4490 C   0  0  0  0  0  0  0  0  0  0  0  0
   -2.8318   22.0097  -33.3620 H   0  0  0  0  0  0  0  0  0  0  0  0
   -2.0831   22.0508  -31.7187 H   0  0  0  0  0  0  0  0  0  0  0  0
   -1.7610   20.2270  -32.8050 C   0  0  0  0  0  0  0  0  0  0  0  0
   -1.4122   19.7405  -31.8822 H   0  0  0  0  0  0  0  0  0  0  0  0
   -2.3537   19.5123  -33.3948 H   0  0  0  0  0  0  0  0  0  0  0  0
   -0.8939   20.5590  -33.3948 H   0  0  0  0  0  0  0  0  0  0  0  0
   -4.1810   21.3690  -30.4550 C   0  0  0  0  0  0  0  0  0  0  0  0
   -4.7262   22.3242  -30.4357 H   0  0  0  0  0  0  0  0  0  0  0  0
   -4.7864   20.5729  -29.9970 H   0  0  0  0  0  0  0  0  0  0  0  0
   -2.8870   21.5160  -29.6620 C   0  0  0  0  0  0  0  0  0  0  0  0
   -3.1118   21.4905  -28.5855 H   0  0  0  0  0  0  0  0  0  0  0  0
   -2.2065   20.6894  -29.9142 H   0  0  0  0  0  0  0  0  0  0  0  0
   -2.4092   22.4742  -29.9142 H   0  0  0  0  0  0  0  0  0  0  0  0
   -7.0900   21.1580  -31.8350 C   0  0  0  0  0  0  0  0  0  0  0  0
   -6.6010   22.3160  -31.4600 N   0  0  0  0  0  0  0  0  0  0  0  0
   -6.7800   23.6680  -31.9850 C   0  0  0  0  0  0  0  0  0  0  0  0
   -6.6644   23.6553  -33.0788 H   0  0  0  0  0  0  0  0  0  0  0  0
   -7.7856   24.0320  -31.7278 H   0  0  0  0  0  0  0  0  0  0  0  0
   -5.7280   24.5950  -31.3710 C   0  0  0  0  0  0  0  0  0  0  0  0
   -4.7296   24.2802  -31.7089 H   0  0  0  0  0  0  0  0  0  0  0  0
   -5.9364   25.6255  -31.6945 H   0  0  0  0  0  0  0  0  0  0  0  0
   -5.7770   24.5450  -29.8940 N   0  0  0  0  0  0  0  0  0  0  0  0
   -4.4080   24.5190  -29.3460 C   0  0  0  0  0  0  0  0  0  0  0  0
   -4.4529   24.5199  -28.2469 H   0  0  0  0  0  0  0  0  0  0  0  0
   -3.8921   23.6109  -29.6912 H   0  0  0  0  0  0  0  0  0  0  0  0
   -3.8579   25.4069  -29.6912 H   0  0  0  0  0  0  0  0  0  0  0  0
   -6.5010   25.7040  -29.3440 C   0  0  0  0  0  0  0  0  0  0  0  0
   -6.4761   25.6641  -28.2450 H   0  0  0  0  0  0  0  0  0  0  0  0
   -6.0221   26.6325  -29.6881 H   0  0  0  0  0  0  0  0  0  0  0  0
   -7.5455   25.6809  -29.6881 H   0  0  0  0  0  0  0  0  0  0  0  0
   -8.4860   21.1740  -31.9270 C   0  0  0  0  0  0  0  0  0  0  0  0
   -8.9434   22.1707  -31.8406 H   0  0  0  0  0  0  0  0  0  0  0  0
   -9.3820   20.1380  -32.1090 C   0  0  0  0  0  0  0  0  0  0  0  0
  -10.4092   20.4241  -32.3790 H   0  0  0  0  0  0  0  0  0  0  0  0
  1  2  1  0
  2  3  2  0
  3  4  1  0
  3  5  1  0
  5  6  1  0
  6  7  1  0
  6  8  1  0
  6  9  1  0
  9 10  1  0
  9 11  1  0
  9 12  1  0
 12 13  1  0
 12 14  1  0
 12 15  1  0
  5 16  2  0
 16 17  1  0
 17 18  2  0
 17 19  1  0
 19 20  1  0
 20 21  1  0
 20 22  1  0
 20 23  1  0
 23 24  1  0
 23 25  1  0
 23 26  1  0
 19 27  1  0
 27 28  1  0
 27 29  1  0
 27 30  1  0
 30 31  1  0
 30 32  1  0
 30 33  1  0
 16 34  1  0
 34 35  2  0
 35 36  1  0
 36 37  1  0
 36 38  1  0
 36 39  1  0
 39 40  1  0
 39 41  1  0
 39 42  1  0
 42 43  1  0
 43 44  1  0
 43 45  1  0
 43 46  1  0
 42 47  1  0
 47 48  1  0
 47 49  1  0
 47 50  1  0
 34 51  1  0
 51 52  1  0
 51 53  2  0
 53 54  1  0
 53  2  1  0
M  CHG  1   6   1
M  END
>  <UniqueID>  (3) 
3

>  <SMILES>  (3) 
CC[NH2+]c1cccc/c(=N/CCN(C)C)c1C(=O)N(CC)CC

>  <Energy>  (3) 
87.29894413632697

>  <Genealogy>  (3) 
CC[NH2+]c1ccccc(=NCCN(C)C)c1C(=O)N(CC)CC (protonated)
CC[NH2+]c1cccc/c(=N/CCN(C)C)c1C(=O)N(CC)CC (cis-trans isomerization)
CC[NH2+]c1cccc/c(=N/CCN(C)C)c1C(=O)N(CC)CC (3D coordinates assigned)
CC[NH2+]c1cccc/c(=N/CCN(C)C)c1C(=O)N(CC)CC (optimized conformer: 87.29894413632697 kcal/mol)

>  <smiles>  (3) 
CCNc1ccccc(=NCCN(C)C)c1C(=O)N(CC)CC

>  <score_type>  (3) 
oracle

>  <origin>  (3) 
adg

>  <m_score__min__energy>  (3) 
-6.0099999999999998

>  <m_primary>  (3) 
energy

$$$$
3:0
     RDKit          3D

 47 50  0  0  0  0  0  0  0  0999 V2000
   -2.8840   16.4030  -33.9270 C   0  0  0  0  0  0  0  0  0  0  0  0
   -3.1530   14.9490  -33.5500 C   0  0  0  0  0  0  0  0  0  0  0  0
   -4.5480   14.7900  -33.0810 N   0  0  0  0  0  0  0  0  0  0  0  0
   -4.7310   13.4880  -32.4170 C   0  0  0  0  0  0  0  0  0  0  0  0
   -5.5300   14.9650  -34.1790 C   0  0  0  0  0  0  0  0  0  0  0  0
   -6.2910   16.2800  -33.9970 C   0  0  0  0  0  0  0  0  0  0  0  0
   -6.0260   16.8750  -32.6860 N   0  0  0  0  0  0  0  0  0  0  0  0
   -5.9150   18.2980  -32.4740 C   0  0  0  0  0  0  0  0  0  0  0  0
   -4.6550   18.9110  -32.5030 C   0  0  0  0  0  0  0  0  0  0  0  0
   -4.5010   20.2750  -32.2550 C   0  0  0  0  0  0  0  0  0  0  0  0
   -2.7720   21.0020  -32.6830 Br  0  0  0  0  0  0  0  0  0  0  0  0
   -5.6210   21.0610  -31.8790 C   0  0  0  0  0  0  0  0  0  0  0  0
   -6.9140   20.4920  -32.0170 C   0  0  0  0  0  0  0  0  0  0  0  0
   -8.0690   21.3110  -31.9530 C   0  0  0  0  0  0  0  0  0  0  0  0
   -9.3430   20.7370  -32.0700 C   0  0  0  0  0  0  0  0  0  0  0  0
   -9.4830   19.3660  -32.2600 C   0  0  0  0  0  0  0  0  0  0  0  0
   -8.3580   18.5530  -32.3680 C   0  0  0  0  0  0  0  0  0  0  0  0
   -7.0620   19.0980  -32.2720 C   0  0  0  0  0  0  0  0  0  0  0  0
   -7.9260   22.7740  -31.8080 C   0  0  0  0  0  0  0  0  0  0  0  0
   -8.9210   23.5340  -31.9640 O   0  0  0  0  0  0  0  0  0  0  0  0
   -6.6150   23.3300  -31.4330 C   0  0  0  0  0  0  0  0  0  0  0  0
   -6.5000   24.6710  -31.0250 C   0  0  0  0  0  0  0  0  0  0  0  0
   -5.3060   25.1390  -30.4770 C   0  0  0  0  0  0  0  0  0  0  0  0
   -4.2380   24.2640  -30.2910 C   0  0  0  0  0  0  0  0  0  0  0  0
   -4.3400   22.9340  -30.7090 C   0  0  0  0  0  0  0  0  0  0  0  0
   -5.4950   22.4710  -31.3720 C   0  0  0  0  0  0  0  0  0  0  0  0
   -2.7728   17.0043  -33.0126 H   0  0  0  0  0  0  0  0  0  0  0  0
   -1.9595   16.4630  -34.5201 H   0  0  0  0  0  0  0  0  0  0  0  0
   -3.7258   16.7898  -34.5201 H   0  0  0  0  0  0  0  0  0  0  0  0
   -2.9910   14.3098  -34.4305 H   0  0  0  0  0  0  0  0  0  0  0  0
   -2.4677   14.6563  -32.7409 H   0  0  0  0  0  0  0  0  0  0  0  0
   -4.7115   13.6269  -31.3260 H   0  0  0  0  0  0  0  0  0  0  0  0
   -5.6985   13.0574  -32.7146 H   0  0  0  0  0  0  0  0  0  0  0  0
   -3.9197   12.8074  -32.7146 H   0  0  0  0  0  0  0  0  0  0  0  0
   -4.9997   14.9816  -35.1426 H   0  0  0  0  0  0  0  0  0  0  0  0
   -6.2447   14.1290  -34.1604 H   0  0  0  0  0  0  0  0  0  0  0  0
   -5.9775   16.9860  -34.7801 H   0  0  0  0  0  0  0  0  0  0  0  0
   -7.3681   16.0688  -34.0693 H   0  0  0  0  0  0  0  0  0  0  0  0
   -5.6890   16.2400  -31.9280 H   0  0  0  0  0  0  0  0  0  0  0  0
   -3.7666   18.3021  -32.7266 H   0  0  0  0  0  0  0  0  0  0  0  0
  -10.2373   21.3748  -32.0112 H   0  0  0  0  0  0  0  0  0  0  0  0
  -10.4874   18.9222  -32.3252 H   0  0  0  0  0  0  0  0  0  0  0  0
   -8.4823   17.4721  -32.5302 H   0  0  0  0  0  0  0  0  0  0  0  0
   -7.3552   25.3534  -31.1386 H   0  0  0  0  0  0  0  0  0  0  0  0
   -5.2077   26.1969  -30.1922 H   0  0  0  0  0  0  0  0  0  0  0  0
   -3.3129   24.6203  -29.8144 H   0  0  0  0  0  0  0  0  0  0  0  0
   -3.5084   22.2397  -30.5182 H   0  0  0  0  0  0  0  0  0  0  0  0
  1  2  1  0
  2  3  1  0
  3  4  1  0
  3  5  1  0
  5  6  1  0
  6  7  1  0
  7  8  1  0
  8  9  2  0
  9 10  1  0
 10 11  1  0
 10 12  2  0
 12 13  1  0
 13 14  2  0
 14 15  1  0
 15 16  2  0
 16 17  1  0
 17 18  2  0
 14 19  1  0
 19 20  2  0
 19 21  1  0
 21 22  2  0
 22 23  1  0
 23 24  2  0
 24 25  1  0
 25 26  2  0
 18  8  1  0
 26 21  1  0
 26 12  1  0
 18 13  1  0
  1 27  1  0
  1 28  1  0
  1 29  1  0
  2 30  1  0
  2 31  1  0
  4 32  1  0
  4 33  1  0
  4 34  1  0
  5 35  1  0
  5 36  1  0
  6 37  1  0
  6 38  1  0
  7 39  1  0
  9 40  1  0
 15 41  1  0
 16 42  1  0
 17 43  1  0
 22 44  1  0
 23 45  1  0
 24 46  1  0
 25 47  1  0
M  END
>  <UniqueID>  (4) 
4

>  <SMILES>  (4) 
CCN(C)CCNc1cc(Br)c2c3c(cccc13)C(=O)c1ccccc1-2

>  <Energy>  (4) 
75.78393239970278

>  <Genealogy>  (4) 
CCN(C)CCNc1cc(Br)c2c3c(cccc13)C(=O)c1ccccc1-2 (3D coordinates assigned)
CCN(C)CCNc1cc(Br)c2c3c(cccc13)C(=O)c1ccccc1-2 (nonaromatic ring conformer: 75.78393239970278 kcal/mol)

>  <smiles>  (4) 
CCN(C)CCNc1cc(Br)c2c3c(cccc13)C(=O)c1ccccc1-2

>  <score_type>  (4) 
oracle

>  <origin>  (4) 
adg

>  <m_score__min__energy>  (4) 
-10.029999999999999

>  <m_primary>  (4) 
energy

$$$$
4:0
     RDKit          3D

 22 22  0  0  0  0  0  0  0  0999 V2000
   -6.1360   25.8940  -29.7270 C   0  0  0  0  0  0  0  0  0  0  0  0
   -5.9470   24.5770  -30.4300 C   0  0  0  0  0  0  0  0  0  0  0  0
   -7.0660   23.8060  -30.7770 C   0  0  0  0  0  0  0  0  0  0  0  0
   -6.9080   22.5950  -31.4500 C   0  0  0  0  0  0  0  0  0  0  0  0
   -5.6310   22.1330  -31.7700 C   0  0  0  0  0  0  0  0  0  0  0  0
   -4.4940   22.8780  -31.4210 C   0  0  0  0  0  0  0  0  0  0  0  0
   -3.1350   22.3190  -31.7450 C   0  0  0  0  0  0  0  0  0  0  0  0
   -4.6550   24.1330  -30.7840 C   0  0  0  0  0  0  0  0  0  0  0  0
   -3.5210   24.9470  -30.4490 N   0  0  0  0  0  0  0  0  0  0  0  0
   -2.6790   24.7150  -29.3170 C   0  0  0  0  0  0  0  0  0  0  0  0
   -1.6790   25.6700  -28.9790 N   0  0  0  0  0  0  0  0  0  0  0  0
   -2.7970   23.6610  -28.6350 O   0  0  0  0  0  0  0  0  0  0  0  0
   -6.1132   25.7353  -28.6387 H   0  0  0  0  0  0  0  0  0  0  0  0
   -5.3274   26.5823  -30.0142 H   0  0  0  0  0  0  0  0  0  0  0  0
   -7.1055   26.3271  -30.0142 H   0  0  0  0  0  0  0  0  0  0  0  0
   -8.0748   24.1589  -30.5166 H   0  0  0  0  0  0  0  0  0  0  0  0
   -7.7919   22.0028  -31.7292 H   0  0  0  0  0  0  0  0  0  0  0  0
   -5.5143   21.1765  -32.3005 H   0  0  0  0  0  0  0  0  0  0  0  0
   -2.5973   22.0978  -30.8112 H   0  0  0  0  0  0  0  0  0  0  0  0
   -3.2488   21.3946  -32.3303 H   0  0  0  0  0  0  0  0  0  0  0  0
   -2.5654   23.0559  -32.3303 H   0  0  0  0  0  0  0  0  0  0  0  0
   -1.2300   26.2600  -29.7140 H   0  0  0  0  0  0  0  0  0  0  0  0
  1  2  1  0
  2  3  2  0
  3  4  1  0
  4  5  2  0
  5  6  1  0
  6  7  1  0
  6  8  2  0
  8  9  1  0
  9 10  1  0
 10 11  1  0
 10 12  2  0
  8  2  1  0
  1 13  1  0
  1 14  1  0
  1 15  1  0
  3 16  1  0
  4 17  1  0
  5 18  1  0
  7 19  1  0
  7 20  1  0
  7 21  1  0
 11 22  1  0
M  CHG  2   9  -1  11  -1
M  END
>  <UniqueID>  (5) 
5

>  <SMILES>  (5) 
Cc1cccc(C)c1[N-]C([NH-])=O

>  <Energy>  (5) 
26.251571623464116

>  <Genealogy>  (5) 
Cc1cccc(C)c1[N-]C([NH-])=O (protonated)
Cc1cccc(C)c1[N-]C([NH-])=O (3D coordinates assigned)
Cc1cccc(C)c1[N-]C([NH-])=O (optimized conformer: 26.251571623464116 kcal/mol)

>  <smiles>  (5) 
Cc1cccc(C)c1NC(N)=O

>  <score_type>  (5) 
oracle

>  <origin>  (5) 
adg

>  <m_score__min__energy>  (5) 
-9.6199999999999992

>  <m_primary>  (5) 
energy

$$$$
5:0
     RDKit          3D

 33 33  0  0  0  0  0  0  0  0999 V2000
   -6.1130   25.6740  -29.7150 C   0  0  0  0  0  0  0  0  0  0  0  0
   -4.8210   24.9270  -30.0370 C   0  0  0  0  0  0  0  0  0  0  0  0
   -4.9970   24.0840  -31.2420 N   0  0  0  0  0  0  0  0  0  0  0  0
   -4.3490   22.7640  -31.0710 C   0  0  0  0  0  0  0  0  0  0  0  0
   -4.0140   22.1540  -32.4310 C   0  0  0  0  0  0  0  0  0  0  0  0
   -6.4270   23.9530  -31.6220 C   0  0  0  0  0  0  0  0  0  0  0  0
   -7.0760   22.8130  -30.8330 C   0  0  0  0  0  0  0  0  0  0  0  0
   -8.6540   22.2710  -31.5850 S   0  0  0  0  0  0  0  0  0  0  0  0
   -8.0250   20.6920  -32.1650 C   0  0  0  0  0  0  0  0  0  0  0  0
   -8.6020   19.5010  -31.7090 C   0  0  0  0  0  0  0  0  0  0  0  0
   -8.1120   18.2690  -32.1530 C   0  0  0  0  0  0  0  0  0  0  0  0
   -7.0390   18.2230  -33.0500 C   0  0  0  0  0  0  0  0  0  0  0  0
   -6.3690   16.5410  -33.6560 Br  0  0  0  0  0  0  0  0  0  0  0  0
   -6.4530   19.4130  -33.4980 C   0  0  0  0  0  0  0  0  0  0  0  0
   -6.9430   20.6450  -33.0540 C   0  0  0  0  0  0  0  0  0  0  0  0
   -6.2339   25.7439  -28.6239 H   0  0  0  0  0  0  0  0  0  0  0  0
   -6.0684   26.6857  -30.1445 H   0  0  0  0  0  0  0  0  0  0  0  0
   -6.9675   25.1306  -30.1445 H   0  0  0  0  0  0  0  0  0  0  0  0
   -4.0171   25.6555  -30.2189 H   0  0  0  0  0  0  0  0  0  0  0  0
   -4.5612   24.2812  -29.1853 H   0  0  0  0  0  0  0  0  0  0  0  0
   -3.4224   22.8877  -30.4913 H   0  0  0  0  0  0  0  0  0  0  0  0
   -5.0408   22.0934  -30.5402 H   0  0  0  0  0  0  0  0  0  0  0  0
   -3.4892   21.1984  -32.2850 H   0  0  0  0  0  0  0  0  0  0  0  0
   -4.9430   21.9799  -32.9936 H   0  0  0  0  0  0  0  0  0  0  0  0
   -3.3686   22.8445  -32.9936 H   0  0  0  0  0  0  0  0  0  0  0  0
   -6.9508   24.8944  -31.3995 H   0  0  0  0  0  0  0  0  0  0  0  0
   -6.4961   23.7329  -32.6975 H   0  0  0  0  0  0  0  0  0  0  0  0
   -6.3830   21.9592  -30.8074 H   0  0  0  0  0  0  0  0  0  0  0  0
   -7.2913   23.1809  -29.8190 H   0  0  0  0  0  0  0  0  0  0  0  0
   -9.4424   19.5343  -31.0001 H   0  0  0  0  0  0  0  0  0  0  0  0
   -8.5706   17.3348  -31.7967 H   0  0  0  0  0  0  0  0  0  0  0  0
   -5.6066   19.3787  -34.1997 H   0  0  0  0  0  0  0  0  0  0  0  0
   -6.4783   21.5789  -33.4032 H   0  0  0  0  0  0  0  0  0  0  0  0
  1  2  1  0
  2  3  1  0
  3  4  1  0
  4  5  1  0
  3  6  1  0
  6  7  1  0
  7  8  1  0
  8  9  1  0
  9 10  2  0
 10 11  1  0
 11 12  2  0
 12 13  1  0
 12 14  1  0
 14 15  2  0
 15  9  1  0
  1 16  1  0
  1 17  1  0
  1 18  1  0
  2 19  1  0
  2 20  1  0
  4 21  1  0
  4 22  1  0
  5 23  1  0
  5 24  1  0
  5 25  1  0
  6 26  1  0
  6 27  1  0
  7 28  1  0
  7 29  1  0
 10 30  1  0
 11 31  1  0
 14 32  1  0
 15 33  1  0
M  END
>  <UniqueID>  (6) 
6

>  <SMILES>  (6) 
CCN(CC)CCSc1ccc(Br)cc1

>  <Energy>  (6) 
25.455048676189833

>  <Genealogy>  (6) 
CCN(CC)CCSc1ccc(Br)cc1 (3D coordinates assigned)
CCN(CC)CCSc1ccc(Br)cc1 (optimized conformer: 25.455048676189833 kcal/mol)

>  <smiles>  (6) 
CCN(CC)CCSc1ccc(Br)cc1

>  <score_type>  (6) 
oracle

>  <origin>  (6) 
adg

>  <m_score__min__energy>  (6) 
-6.9199999999999999

>  <m_primary>  (6) 
energy

$$$$
6:0
     RDKit          3D

 50 52  0  0  0  0  0  0  0  0999 V2000
    0.6730   22.1670  -35.9880 C   0  0  0  0  0  0  0  0  0  0  0  0
    0.5380   21.5510  -34.5930 C   0  0  0  0  0  0  0  0  0  0  0  0
   -0.6450   20.6590  -34.4690 N   0  0  0  0  0  0  0  0  0  0  0  0
   -0.4210   19.3210  -35.0870 C   0  0  0  0  0  0  0  0  0  0  0  0
   -1.0020   18.1810  -34.2450 C   0  0  0  0  0  0  0  0  0  0  0  0
   -1.1170   20.5520  -33.0590 C   0  0  0  0  0  0  0  0  0  0  0  0
   -2.1930   21.5740  -32.6220 C   0  0  0  0  0  0  0  0  0  0  0  0
   -3.3920   21.5420  -33.4690 N   0  0  0  0  0  0  0  0  0  0  0  0
   -4.6690   21.0490  -33.0000 C   0  0  0  0  0  0  0  0  0  0  0  0
   -5.5210   21.8710  -32.2320 C   0  0  0  0  0  0  0  0  0  0  0  0
   -5.0580   23.0680  -31.6410 C   0  0  0  0  0  0  0  0  0  0  0  0
   -5.9140   23.8730  -30.8930 C   0  0  0  0  0  0  0  0  0  0  0  0
   -7.2350   23.4940  -30.6980 C   0  0  0  0  0  0  0  0  0  0  0  0
   -7.7140   22.3100  -31.2560 C   0  0  0  0  0  0  0  0  0  0  0  0
   -6.8780   21.4840  -32.0490 C   0  0  0  0  0  0  0  0  0  0  0  0
   -7.3500   20.3210  -32.6260 N   0  0  0  0  0  0  0  0  0  0  0  0
   -8.8050   20.0760  -32.7200 C   0  0  0  0  0  0  0  0  0  0  0  0
   -6.4560   19.3840  -33.1030 C   0  0  0  0  0  0  0  0  0  0  0  0
   -6.8560   18.0520  -33.3810 C   0  0  0  0  0  0  0  0  0  0  0  0
   -5.9390   17.1070  -33.8450 C   0  0  0  0  0  0  0  0  0  0  0  0
   -6.5070   15.3190  -34.2040 Br  0  0  0  0  0  0  0  0  0  0  0  0
   -4.6040   17.4560  -34.0120 C   0  0  0  0  0  0  0  0  0  0  0  0
   -4.1790   18.7510  -33.7260 C   0  0  0  0  0  0  0  0  0  0  0  0
   -5.0940   19.7350  -33.2970 C   0  0  0  0  0  0  0  0  0  0  0  0
    0.9076   23.2376  -35.8949 H   0  0  0  0  0  0  0  0  0  0  0  0
    1.4815   21.6607  -36.5357 H   0  0  0  0  0  0  0  0  0  0  0  0
   -0.2731   22.0453  -36.5357 H   0  0  0  0  0  0  0  0  0  0  0  0
    1.4439   20.9651  -34.3783 H   0  0  0  0  0  0  0  0  0  0  0  0
    0.4068   22.3764  -33.8778 H   0  0  0  0  0  0  0  0  0  0  0  0
   -1.4350   21.1330  -34.9710 H   0  0  0  0  0  0  0  0  0  0  0  0
   -0.8980   19.3059  -36.0781 H   0  0  0  0  0  0  0  0  0  0  0  0
    0.6653   19.1636  -35.1584 H   0  0  0  0  0  0  0  0  0  0  0  0
   -0.8822   18.4160  -33.1771 H   0  0  0  0  0  0  0  0  0  0  0  0
   -2.0707   18.0620  -34.4766 H   0  0  0  0  0  0  0  0  0  0  0  0
   -0.4703   17.2463  -34.4766 H   0  0  0  0  0  0  0  0  0  0  0  0
   -1.5348   19.5440  -32.9201 H   0  0  0  0  0  0  0  0  0  0  0  0
   -0.2362   20.7656  -32.4356 H   0  0  0  0  0  0  0  0  0  0  0  0
   -2.4892   21.3501  -31.5866 H   0  0  0  0  0  0  0  0  0  0  0  0
   -1.7511   22.5771  -32.7148 H   0  0  0  0  0  0  0  0  0  0  0  0
   -3.2990   21.9080  -34.4410 H   0  0  0  0  0  0  0  0  0  0  0  0
   -4.0080   23.3680  -31.7733 H   0  0  0  0  0  0  0  0  0  0  0  0
   -5.5422   24.8114  -30.4557 H   0  0  0  0  0  0  0  0  0  0  0  0
   -7.9057   24.1298  -30.1014 H   0  0  0  0  0  0  0  0  0  0  0  0
   -8.7577   22.0116  -31.0782 H   0  0  0  0  0  0  0  0  0  0  0  0
   -9.2309   20.0043  -31.7083 H   0  0  0  0  0  0  0  0  0  0  0  0
   -9.2825   20.9064  -33.2608 H   0  0  0  0  0  0  0  0  0  0  0  0
   -8.9842   19.1350  -33.2608 H   0  0  0  0  0  0  0  0  0  0  0  0
   -7.9052   17.7589  -33.2286 H   0  0  0  0  0  0  0  0  0  0  0  0
   -3.8818   16.7079  -34.3708 H   0  0  0  0  0  0  0  0  0  0  0  0
   -3.1156   19.0099  -33.8361 H   0  0  0  0  0  0  0  0  0  0  0  0
  1  2  1  0
  2  3  1  0
  3  4  1  0
  4  5  1  0
  3  6  1  0
  6  7  1  0
  7  8  1  0
  8  9  1  0
  9 10  2  0
 10 11  1  0
 11 12  2  0
 12 13  1  0
 13 14  2  0
 14 15  1  0
 15 16  2  0
 16 17  1  0
 16 18  1  0
 18 19  2  0
 19 20  1  0
 20 21  1  0
 20 22  2  0
 22 23  1  0
 23 24  2  0
 24  9  1  0
 15 10  1  0
 24 18  1  0
  1 25  1  0
  1 26  1  0
  1 27  1  0
  2 28  1  0
  2 29  1  0
  3 30  1  0
  4 31  1  0
  4 32  1  0
  5 33  1  0
  5 34  1  0
  5 35  1  0
  6 36  1  0
  6 37  1  0
  7 38  1  0
  7 39  1  0
  8 40  1  0
 11 41  1  0
 12 42  1  0
 13 43  1  0
 14 44  1  0
 17 45  1  0
 17 46  1  0
 17 47  1  0
 19 48  1  0
 22 49  1  0
 23 50  1  0
M  CHG  2   3   1  16   1
M  END
>  <UniqueID>  (7) 
7

>  <SMILES>  (7) 
CC[NH+](CC)CCNc1c2ccccc2[n+](C)c2cc(Br)ccc12

>  <Energy>  (7) 
84.25304297231382

>  <Genealogy>  (7) 
CC[NH+](CC)CCNc1c2ccccc2[n+](C)c2cc(Br)ccc12 (protonated)
CC[NH+](CC)CCNc1c2ccccc2[n+](C)c2cc(Br)ccc12 (3D coordinates assigned)
CC[NH+](CC)CCNc1c2ccccc2[n+](C)c2cc(Br)ccc12 (optimized conformer: 84.25304297231382 kcal/mol)

>  <smiles>  (7) 
CCN(CC)CCNc1c2ccccc2[n+](C)c2cc(Br)ccc12

>  <score_type>  (7) 
oracle

>  <origin>  (7) 
adg

>  <m_score__min__energy>  (7) 
-7.0800000000000001

>  <m_primary>  (7) 
energy

$$$$
7:0
     RDKit          3D

 34 33  0  0  0  0  0  0  0  0999 V2000
   -9.4860   21.9930  -31.7190 C   0  0  0  0  0  0  0  0  0  0  0  0
   -8.3130   21.5080  -30.8710 C   0  0  0  0  0  0  0  0  0  0  0  0
   -7.3150   20.8100  -31.7100 N   0  0  0  0  0  0  0  0  0  0  0  0
   -7.8480   19.6740  -32.4910 C   0  0  0  0  0  0  0  0  0  0  0  0
   -8.6220   18.6620  -31.6450 C   0  0  0  0  0  0  0  0  0  0  0  0
   -6.2780   21.6280  -32.3950 C   0  0  0  0  0  0  0  0  0  0  0  0
   -6.3260   23.1420  -32.1230 C   0  0  0  0  0  0  0  0  0  0  0  0
   -5.0230   23.6550  -31.8830 O   0  0  0  0  0  0  0  0  0  0  0  0
   -4.7140   24.4640  -30.7870 C   0  0  0  0  0  0  0  0  0  0  0  0
   -3.7480   25.2750  -30.8400 O   0  0  0  0  0  0  0  0  0  0  0  0
   -5.5170   24.3240  -29.5260 C   0  0  0  0  0  0  0  0  0  0  0  0
   -6.4340   25.5330  -29.3210 C   0  0  0  0  0  0  0  0  0  0  0  0
   -4.5870   24.1270  -28.3250 C   0  0  0  0  0  0  0  0  0  0  0  0
  -10.3002   22.3296  -31.0603 H   0  0  0  0  0  0  0  0  0  0  0  0
   -9.1584   22.8294  -32.3539 H   0  0  0  0  0  0  0  0  0  0  0  0
   -9.8447   21.1694  -32.3539 H   0  0  0  0  0  0  0  0  0  0  0  0
   -7.8360   22.3726  -30.3863 H   0  0  0  0  0  0  0  0  0  0  0  0
   -8.6909   20.8061  -30.1130 H   0  0  0  0  0  0  0  0  0  0  0  0
   -8.5226   20.0694  -33.2647 H   0  0  0  0  0  0  0  0  0  0  0  0
   -6.9854   19.1439  -32.9210 H   0  0  0  0  0  0  0  0  0  0  0  0
   -8.4590   18.8751  -30.5782 H   0  0  0  0  0  0  0  0  0  0  0  0
   -9.6952   18.7372  -31.8742 H   0  0  0  0  0  0  0  0  0  0  0  0
   -8.2684   17.6459  -31.8742 H   0  0  0  0  0  0  0  0  0  0  0  0
   -5.2924   21.2594  -32.0745 H   0  0  0  0  0  0  0  0  0  0  0  0
   -6.4726   21.5134  -33.4716 H   0  0  0  0  0  0  0  0  0  0  0  0
   -6.7585   23.6515  -32.9967 H   0  0  0  0  0  0  0  0  0  0  0  0
   -6.9438   23.3195  -31.2304 H   0  0  0  0  0  0  0  0  0  0  0  0
   -6.1575   23.4345  -29.6182 H   0  0  0  0  0  0  0  0  0  0  0  0
   -6.5697   25.7119  -28.2442 H   0  0  0  0  0  0  0  0  0  0  0  0
   -5.9799   26.4206  -29.7858 H   0  0  0  0  0  0  0  0  0  0  0  0
   -7.4111   25.3351  -29.7858 H   0  0  0  0  0  0  0  0  0  0  0  0
   -5.1599   24.2484  -27.3938 H   0  0  0  0  0  0  0  0  0  0  0  0
   -4.1527   23.1169  -28.3593 H   0  0  0  0  0  0  0  0  0  0  0  0
   -3.7805   24.8742  -28.3593 H   0  0  0  0  0  0  0  0  0  0  0  0
  1  2  1  0
  2  3  1  0
  3  4  1  0
  4  5  1  0
  3  6  1  0
  6  7  1  0
  7  8  1  0
  8  9  1  0
  9 10  2  0
  9 11  1  0
 11 12  1  0
 11 13  1  0
  1 14  1  0
  1 15  1  0
  1 16  1  0
  2 17  1  0
  2 18  1  0
  4 19  1  0
  4 20  1  0
  5 21  1  0
  5 22  1  0
  5 23  1  0
  6 24  1  0
  6 25  1  0
  7 26  1  0
  7 27  1  0
 11 28  1  0
 12 29  1  0
 12 30  1  0
 12 31  1  0
 13 32  1  0
 13 33  1  0
 13 34  1  0
M  END
>  <UniqueID>  (8) 
8

>  <SMILES>  (8) 
CCN(CC)CCOC(=O)C(C)C

>  <Energy>  (8) 
27.185884172127132

>  <Genealogy>  (8) 
CCN(CC)CCOC(=O)C(C)C (3D coordinates assigned)
CCN(CC)CCOC(=O)C(C)C (optimized conformer: 27.185884172127132 kcal/mol)

>  <smiles>  (8) 
CCN(CC)CCOC(=O)C(C)C

>  <score_type>  (8) 
oracle

>  <origin>  (8) 
adg

>  <m_score__min__energy>  (8) 
-5.2599999999999998

>  <m_primary>  (8) 
energy

$$$$
8:0
     RDKit          3D

 55 58  0  0  0  0  0  0  0  0999 V2000
   -3.0310   24.1600  -28.2400 C   0  0  0  0  0  0  0  0  0  0  0  0
   -2.9720   24.5770  -29.7070 C   0  0  0  0  0  0  0  0  0  0  0  0
   -4.2720   24.3460  -30.3790 N   0  0  0  0  0  0  0  0  0  0  0  0
   -5.0320   25.6110  -30.5190 C   0  0  0  0  0  0  0  0  0  0  0  0
   -6.3190   25.5660  -29.6960 C   0  0  0  0  0  0  0  0  0  0  0  0
   -5.0690   23.2950  -29.6930 C   0  0  0  0  0  0  0  0  0  0  0  0
   -4.7100   21.9150  -30.2490 C   0  0  0  0  0  0  0  0  0  0  0  0
   -4.3360   21.9870  -31.6610 N   0  0  0  0  0  0  0  0  0  0  0  0
   -4.4580   20.8310  -32.5030 C   0  0  0  0  0  0  0  0  0  0  0  0
   -3.2970   20.2830  -33.0720 C   0  0  0  0  0  0  0  0  0  0  0  0
   -2.0830   21.0040  -33.0840 C   0  0  0  0  0  0  0  0  0  0  0  0
   -0.9530   20.4830  -33.7110 C   0  0  0  0  0  0  0  0  0  0  0  0
   -1.0140   19.2440  -34.3360 C   0  0  0  0  0  0  0  0  0  0  0  0
   -2.1910   18.4980  -34.3000 C   0  0  0  0  0  0  0  0  0  0  0  0
   -3.3420   18.9820  -33.6260 C   0  0  0  0  0  0  0  0  0  0  0  0
   -4.4770   18.2120  -33.4720 N   0  0  0  0  0  0  0  0  0  0  0  0
   -4.4060   16.7480  -33.6920 C   0  0  0  0  0  0  0  0  0  0  0  0
   -5.6700   18.8030  -33.0940 C   0  0  0  0  0  0  0  0  0  0  0  0
   -6.8840   18.0750  -33.1230 C   0  0  0  0  0  0  0  0  0  0  0  0
   -8.0780   18.6370  -32.6980 C   0  0  0  0  0  0  0  0  0  0  0  0
   -8.1400   19.9820  -32.3460 C   0  0  0  0  0  0  0  0  0  0  0  0
   -9.3830   20.5440  -32.0090 C   0  0  0  0  0  0  0  0  0  0  0  0
   -9.4960   21.9130  -31.7820 C   0  0  0  0  0  0  0  0  0  0  0  0
   -8.3830   22.7340  -31.9260 C   0  0  0  0  0  0  0  0  0  0  0  0
   -7.1400   22.1860  -32.2510 C   0  0  0  0  0  0  0  0  0  0  0  0
   -6.9700   20.7850  -32.3910 C   0  0  0  0  0  0  0  0  0  0  0  0
   -5.7010   20.1640  -32.6630 C   0  0  0  0  0  0  0  0  0  0  0  0
   -2.9055   25.0468  -27.6014 H   0  0  0  0  0  0  0  0  0  0  0  0
   -4.0043   23.6921  -28.0307 H   0  0  0  0  0  0  0  0  0  0  0  0
   -2.2257   23.4405  -28.0307 H   0  0  0  0  0  0  0  0  0  0  0  0
   -2.7215   25.6464  -29.7669 H   0  0  0  0  0  0  0  0  0  0  0  0
   -2.2048   23.9718  -30.2121 H   0  0  0  0  0  0  0  0  0  0  0  0
   -4.4087   26.4467  -30.1680 H   0  0  0  0  0  0  0  0  0  0  0  0
   -5.2959   25.7479  -31.5781 H   0  0  0  0  0  0  0  0  0  0  0  0
   -6.0696   25.5747  -28.6247 H   0  0  0  0  0  0  0  0  0  0  0  0
   -6.9382   26.4430  -29.9355 H   0  0  0  0  0  0  0  0  0  0  0  0
   -6.8755   24.6478  -29.9355 H   0  0  0  0  0  0  0  0  0  0  0  0
   -4.8527   23.3202  -28.6148 H   0  0  0  0  0  0  0  0  0  0  0  0
   -6.1387   23.4850  -29.8650 H   0  0  0  0  0  0  0  0  0  0  0  0
   -3.8644   21.5075  -29.6755 H   0  0  0  0  0  0  0  0  0  0  0  0
   -5.5934   21.2659  -30.1585 H   0  0  0  0  0  0  0  0  0  0  0  0
   -3.8570   22.8330  -32.0430 H   0  0  0  0  0  0  0  0  0  0  0  0
   -2.0288   21.9870  -32.5934 H   0  0  0  0  0  0  0  0  0  0  0  0
   -0.0123   21.0531  -33.7110 H   0  0  0  0  0  0  0  0  0  0  0  0
   -0.1310   18.8504  -34.8608 H   0  0  0  0  0  0  0  0  0  0  0  0
   -2.2280   17.5197  -34.8015 H   0  0  0  0  0  0  0  0  0  0  0  0
   -4.3810   16.2321  -32.7208 H   0  0  0  0  0  0  0  0  0  0  0  0
   -5.2893   16.4192  -34.2592 H   0  0  0  0  0  0  0  0  0  0  0  0
   -3.4951   16.5062  -34.2592 H   0  0  0  0  0  0  0  0  0  0  0  0
   -6.8797   17.0386  -33.4916 H   0  0  0  0  0  0  0  0  0  0  0  0
   -8.9833   18.0150  -32.6386 H   0  0  0  0  0  0  0  0  0  0  0  0
  -10.2705   19.8997  -31.9242 H   0  0  0  0  0  0  0  0  0  0  0  0
  -10.4645   22.3446  -31.4891 H   0  0  0  0  0  0  0  0  0  0  0  0
   -8.4819   23.8202  -31.7833 H   0  0  0  0  0  0  0  0  0  0  0  0
   -6.2780   22.8527  -32.4010 H   0  0  0  0  0  0  0  0  0  0  0  0
  1  2  1  0
  2  3  1  0
  3  4  1  0
  4  5  1  0
  3  6  1  0
  6  7  1  0
  7  8  1  0
  8  9  1  0
  9 10  2  0
 10 11  1  0
 11 12  2  0
 12 13  1  0
 13 14  2  0
 14 15  1  0
 15 16  2  0
 16 17  1  0
 16 18  1  0
 18 19  2  0
 19 20  1  0
 20 21  2  0
 21 22  1  0
 22 23  2  0
 23 24  1  0
 24 25  2  0
 25 26  1  0
 26 27  2  0
 27  9  1  0
 15 10  1  0
 27 18  1  0
 26 21  1  0
  1 28  1  0
  1 29  1  0
  1 30  1  0
  2 31  1  0
  2 32  1  0
  4 33  1  0
  4 34  1  0
  5 35  1  0
  5 36  1  0
  5 37  1  0
  6 38  1  0
  6 39  1  0
  7 40  1  0
  7 41  1  0
  8 42  1  0
 11 43  1  0
 12 44  1  0
 13 45  1  0
 14 46  1  0
 17 47  1  0
 17 48  1  0
 17 49  1  0
 19 50  1  0
 20 51  1  0
 22 52  1  0
 23 53  1  0
 24 54  1  0
 25 55  1  0
M  CHG  1  16   1
M  END
>  <UniqueID>  (9) 
9

>  <SMILES>  (9) 
CCN(CC)CCNc1c2ccccc2[n+](C)c2ccc3ccccc3c12

>  <Energy>  (9) 
98.20385256355625

>  <Genealogy>  (9) 
CCN(CC)CCNc1c2ccccc2[n+](C)c2ccc3ccccc3c12 (3D coordinates assigned)
CCN(CC)CCNc1c2ccccc2[n+](C)c2ccc3ccccc3c12 (optimized conformer: 98.20385256355625 kcal/mol)

>  <smiles>  (9) 
CCN(CC)CCNc1c2ccccc2[n+](C)c2ccc3ccccc3c12

>  <score_type>  (9) 
oracle

>  <origin>  (9) 
adg

>  <m_score__min__energy>  (9) 
-9.3900000000000006

>  <m_primary>  (9) 
energy

$$$$
9:0
     RDKit          3D

 55 59  0  0  0  0  0  0  0  0999 V2000
    1.1840   17.0960  -28.4080 C   0  0  0  0  0  0  0  0  0  0  0  0
    1.3520   18.0380  -29.4750 O   0  0  0  0  0  0  0  0  0  0  0  0
    0.4330   19.0940  -29.5900 C   0  0  0  0  0  0  0  0  0  0  0  0
    0.5670   20.0700  -30.5560 C   0  0  0  0  0  0  0  0  0  0  0  0
   -0.3370   21.1060  -30.6670 C   0  0  0  0  0  0  0  0  0  0  0  0
   -1.3940   21.1840  -29.8120 C   0  0  0  0  0  0  0  0  0  0  0  0
   -2.4050   22.2360  -29.8420 C   0  0  0  0  0  0  0  0  0  0  0  0
   -2.3040   23.2430  -28.8870 C   0  0  0  0  0  0  0  0  0  0  0  0
   -1.2180   23.2180  -27.9080 C   0  0  0  0  0  0  0  0  0  0  0  0
   -1.5030   22.6220  -26.6900 C   0  0  0  0  0  0  0  0  0  0  0  0
   -0.5470   22.5390  -25.6770 C   0  0  0  0  0  0  0  0  0  0  0  0
    0.6930   23.0770  -25.9460 C   0  0  0  0  0  0  0  0  0  0  0  0
    0.9860   23.6730  -27.1570 C   0  0  0  0  0  0  0  0  0  0  0  0
    0.0300   23.7500  -28.1570 C   0  0  0  0  0  0  0  0  0  0  0  0
   -3.2190   24.2550  -28.8660 N   0  0  0  0  0  0  0  0  0  0  0  0
   -4.2160   24.2720  -29.7700 C   0  0  0  0  0  0  0  0  0  0  0  0
   -5.1170   25.2930  -29.7350 N   0  0  0  0  0  0  0  0  0  0  0  0
   -6.1090   25.3030  -30.6490 C   0  0  0  0  0  0  0  0  0  0  0  0
   -6.2470   24.3590  -31.5840 N   0  0  0  0  0  0  0  0  0  0  0  0
   -5.3650   23.3480  -31.6280 C   0  0  0  0  0  0  0  0  0  0  0  0
   -5.5210   22.4630  -32.5420 N   0  0  0  0  0  0  0  0  0  0  0  0
   -4.3350   23.2810  -30.7280 C   0  0  0  0  0  0  0  0  0  0  0  0
   -3.4360   22.2400  -30.7880 C   0  0  0  0  0  0  0  0  0  0  0  0
   -3.4970   21.1650  -31.7660 C   0  0  0  0  0  0  0  0  0  0  0  0
   -2.7160   21.2550  -32.8860 C   0  0  0  0  0  0  0  0  0  0  0  0
   -2.7210   20.2450  -33.8500 C   0  0  0  0  0  0  0  0  0  0  0  0
   -3.5230   19.1400  -33.6770 C   0  0  0  0  0  0  0  0  0  0  0  0
   -3.5960   18.0910  -34.5770 O   0  0  0  0  0  0  0  0  0  0  0  0
   -4.7720   17.4310  -34.9390 C   0  0  0  0  0  0  0  0  0  0  0  0
   -4.3190   19.0410  -32.5460 C   0  0  0  0  0  0  0  0  0  0  0  0
   -4.3110   20.0410  -31.5960 C   0  0  0  0  0  0  0  0  0  0  0  0
   -1.5350   20.2040  -28.8380 C   0  0  0  0  0  0  0  0  0  0  0  0
   -0.6430   19.1820  -28.7280 C   0  0  0  0  0  0  0  0  0  0  0  0
    1.2766   17.6151  -27.4426 H   0  0  0  0  0  0  0  0  0  0  0  0
    0.1890   16.6326  -28.4812 H   0  0  0  0  0  0  0  0  0  0  0  0
    1.9574   16.3173  -28.4812 H   0  0  0  0  0  0  0  0  0  0  0  0
    1.4153   20.0208  -31.2546 H   0  0  0  0  0  0  0  0  0  0  0  0
   -0.2039   21.8700  -31.4471 H   0  0  0  0  0  0  0  0  0  0  0  0
   -2.5061   22.2047  -26.5177 H   0  0  0  0  0  0  0  0  0  0  0  0
   -0.7724   22.0665  -24.7095 H   0  0  0  0  0  0  0  0  0  0  0  0
    1.4735   23.0303  -25.1723 H   0  0  0  0  0  0  0  0  0  0  0  0
    1.9888   24.0909  -27.3294 H   0  0  0  0  0  0  0  0  0  0  0  0
    0.2601   24.2226  -29.1233 H   0  0  0  0  0  0  0  0  0  0  0  0
   -5.0300   26.0480  -29.0090 H   0  0  0  0  0  0  0  0  0  0  0  0
   -6.8379   26.1264  -30.6232 H   0  0  0  0  0  0  0  0  0  0  0  0
   -5.0750   22.5820  -33.4760 H   0  0  0  0  0  0  0  0  0  0  0  0
   -2.0742   22.1368  -33.0291 H   0  0  0  0  0  0  0  0  0  0  0  0
   -2.0864   20.3321  -34.7443 H   0  0  0  0  0  0  0  0  0  0  0  0
   -5.3153   17.1261  -34.0324 H   0  0  0  0  0  0  0  0  0  0  0  0
   -5.4032   18.1067  -35.5349 H   0  0  0  0  0  0  0  0  0  0  0  0
   -4.5240   16.5403  -35.5349 H   0  0  0  0  0  0  0  0  0  0  0  0
   -4.9612   18.1590  -32.4054 H   0  0  0  0  0  0  0  0  0  0  0  0
   -4.9466   19.9540  -30.7024 H   0  0  0  0  0  0  0  0  0  0  0  0
   -2.3848   20.2549  -28.1414 H   0  0  0  0  0  0  0  0  0  0  0  0
   -0.7799   18.4200  -27.9466 H   0  0  0  0  0  0  0  0  0  0  0  0
  1  2  1  0
  2  3  1  0
  3  4  2  0
  4  5  1  0
  5  6  2  0
  6  7  1  0
  7  8  1  0
  8  9  1  0
  9 10  2  0
 10 11  1  0
 11 12  2  0
 12 13  1  0
 13 14  2  0
  8 15  2  0
 15 16  1  0
 16 17  1  0
 17 18  1  0
 18 19  2  0
 19 20  1  0
 20 21  2  3
 20 22  1  0
 22 23  1  0
 23 24  1  0
 24 25  2  0
 25 26  1  0
 26 27  2  0
 27 28  1  0
 28 29  1  0
 27 30  1  0
 30 31  2  0
  6 32  1  0
 32 33  2  0
 33  3  1  0
 23  7  2  0
 31 24  1  0
 14  9  1  0
 22 16  2  0
  1 34  1  0
  1 35  1  0
  1 36  1  0
  4 37  1  0
  5 38  1  0
 10 39  1  0
 11 40  1  0
 12 41  1  0
 13 42  1  0
 14 43  1  0
 17 44  1  0
 18 45  1  0
 21 46  1  0
 25 47  1  0
 26 48  1  0
 29 49  1  0
 29 50  1  0
 29 51  1  0
 30 52  1  0
 31 53  1  0
 32 54  1  0
 33 55  1  0
M  END
>  <smiles>  (10) 
COc1ccc(-c2c(-c3ccccc3)nc3[nH]cnc(=N)c3c2-c2ccc(OC)cc2)cc1

>  <score_type>  (10) 
oracle

>  <origin>  (10) 
adg

>  <m_score__min__energy>  (10) 
-8.6600000000000001

>  <m_primary>  (10) 
energy

$$$$
10:0
     RDKit          3D

 40 41  0  0  0  0  0  0  0  0999 V2000
   -3.2220   21.3930  -33.0800 C   0  0  0  0  0  0  0  0  0  0  0  0
   -4.7260   20.4320  -33.4380 S   0  0  0  0  0  0  0  0  0  0  0  0
   -5.8110   21.5810  -32.5760 C   0  0  0  0  0  0  0  0  0  0  0  0
   -5.2360   22.7240  -32.0030 C   0  0  0  0  0  0  0  0  0  0  0  0
   -6.0250   23.6710  -31.3340 C   0  0  0  0  0  0  0  0  0  0  0  0
   -5.4220   24.8390  -30.7460 N   0  0  0  0  0  0  0  0  0  0  0  0
   -6.1190   25.6820  -30.1450 O   0  0  0  0  0  0  0  0  0  0  0  0
   -4.0640   25.0460  -30.8380 O   0  0  0  0  0  0  0  0  0  0  0  0
   -7.4110   23.4600  -31.2480 C   0  0  0  0  0  0  0  0  0  0  0  0
   -7.9930   22.3280  -31.8200 C   0  0  0  0  0  0  0  0  0  0  0  0
   -7.2080   21.3730  -32.4930 C   0  0  0  0  0  0  0  0  0  0  0  0
   -7.8130   20.2010  -33.0800 N   0  0  0  0  0  0  0  0  0  0  0  0
   -8.5550   19.2090  -32.2980 C   0  0  0  0  0  0  0  0  0  0  0  0
   -7.8000   17.8650  -32.2110 C   0  0  0  0  0  0  0  0  0  0  0  0
   -6.4120   17.9340  -32.7370 N   0  0  0  0  0  0  0  0  0  0  0  0
   -5.5180   17.0180  -31.9780 C   0  0  0  0  0  0  0  0  0  0  0  0
   -5.3130   15.6810  -32.7130 C   0  0  0  0  0  0  0  0  0  0  0  0
   -4.7290   15.8240  -34.0030 O   0  0  0  0  0  0  0  0  0  0  0  0
   -5.0160   17.0690  -34.6230 C   0  0  0  0  0  0  0  0  0  0  0  0
   -6.3690   17.6670  -34.2000 C   0  0  0  0  0  0  0  0  0  0  0  0
   -3.0909   21.4767  -31.9911 H   0  0  0  0  0  0  0  0  0  0  0  0
   -2.3495   20.8846  -33.5163 H   0  0  0  0  0  0  0  0  0  0  0  0
   -3.3167   22.3983  -33.5163 H   0  0  0  0  0  0  0  0  0  0  0  0
   -4.1498   22.8804  -32.0793 H   0  0  0  0  0  0  0  0  0  0  0  0
   -8.0429   24.1932  -30.7254 H   0  0  0  0  0  0  0  0  0  0  0  0
   -9.0803   22.1800  -31.7439 H   0  0  0  0  0  0  0  0  0  0  0  0
   -7.7160   20.0430  -34.1070 H   0  0  0  0  0  0  0  0  0  0  0  0
   -8.7064   19.5987  -31.2805 H   0  0  0  0  0  0  0  0  0  0  0  0
   -9.5171   19.0285  -32.7999 H   0  0  0  0  0  0  0  0  0  0  0  0
   -7.7584   17.5558  -31.1562 H   0  0  0  0  0  0  0  0  0  0  0  0
   -8.3484   17.1430  -32.8339 H   0  0  0  0  0  0  0  0  0  0  0  0
   -6.0520   18.9050  -32.5810 H   0  0  0  0  0  0  0  0  0  0  0  0
   -4.5405   17.5044  -31.8442 H   0  0  0  0  0  0  0  0  0  0  0  0
   -5.9900   16.8059  -31.0073 H   0  0  0  0  0  0  0  0  0  0  0  0
   -4.6552   15.0455  -32.1019 H   0  0  0  0  0  0  0  0  0  0  0  0
   -6.3086   15.2359  -32.8570 H   0  0  0  0  0  0  0  0  0  0  0  0
   -4.2217   17.7819  -34.3570 H   0  0  0  0  0  0  0  0  0  0  0  0
   -5.0669   16.8870  -35.7066 H   0  0  0  0  0  0  0  0  0  0  0  0
   -6.5273   18.6117  -34.7408 H   0  0  0  0  0  0  0  0  0  0  0  0
   -7.1589   16.9408  -34.4423 H   0  0  0  0  0  0  0  0  0  0  0  0
  1  2  1  0
  2  3  1  0
  3  4  2  0
  4  5  1  0
  5  6  1  0
  6  7  2  0
  6  8  1  0
  5  9  2  0
  9 10  1  0
 10 11  2  0
 11 12  1  0
 12 13  1  0
 13 14  1  0
 14 15  1  0
 15 16  1  0
 16 17  1  0
 17 18  1  0
 18 19  1  0
 19 20  1  0
 11  3  1  0
 20 15  1  0
  1 21  1  0
  1 22  1  0
  1 23  1  0
  4 24  1  0
  9 25  1  0
 10 26  1  0
 12 27  1  0
 13 28  1  0
 13 29  1  0
 14 30  1  0
 14 31  1  0
 15 32  1  0
 16 33  1  0
 16 34  1  0
 17 35  1  0
 17 36  1  0
 19 37  1  0
 19 38  1  0
 20 39  1  0
 20 40  1  0
M  CHG  3   6   1   8  -1  15   1
M  END
>  <UniqueID>  (11) 
10

>  <SMILES>  (11) 
CSc1cc([N+](=O)[O-])ccc1NCC[NH+]1CCOCC1

>  <Energy>  (11) 
51.75756028931995

>  <Genealogy>  (11) 
CSc1cc([N+](=O)[O-])ccc1NCC[NH+]1CCOCC1 (protonated)
CSc1cc([N+](=O)[O-])ccc1NCC[NH+]1CCOCC1 (3D coordinates assigned)
CSc1cc([N+](=O)[O-])ccc1NCC[NH+]1CCOCC1 (nonaromatic ring conformer: 51.75756028931995 kcal/mol)

>  <smiles>  (11) 
CSc1cc([N+](=O)[O-])ccc1NCCN1CCOCC1

>  <score_type>  (11) 
oracle

>  <origin>  (11) 
adg

>  <m_score__min__energy>  (11) 
-6.9699999999999998

>  <m_primary>  (11) 
energy

$$$$
11:0
     RDKit          3D

 36 38  0  0  0  0  0  0  0  0999 V2000
   -1.7080   21.1570  -32.7450 C   0  0  0  0  0  0  0  0  0  0  0  0
   -2.1130   21.4770  -31.3420 C   0  0  0  0  0  0  0  0  0  0  0  0
   -2.3060   20.4510  -30.4090 C   0  0  0  0  0  0  0  0  0  0  0  0
   -2.7030   20.7720  -29.1100 C   0  0  0  0  0  0  0  0  0  0  0  0
   -2.9040   22.1070  -28.7550 C   0  0  0  0  0  0  0  0  0  0  0  0
   -2.6960   23.1120  -29.7100 C   0  0  0  0  0  0  0  0  0  0  0  0
   -2.9400   24.5480  -29.3720 C   0  0  0  0  0  0  0  0  0  0  0  0
   -3.6410   25.1920  -30.4760 N   0  0  0  0  0  0  0  0  0  0  0  0
   -5.0630   25.1930  -30.6550 C   0  0  0  0  0  0  0  0  0  0  0  0
   -5.6960   26.2640  -30.4670 O   0  0  0  0  0  0  0  0  0  0  0  0
   -5.8040   23.9940  -31.0940 C   0  0  0  0  0  0  0  0  0  0  0  0
   -7.1910   23.9090  -30.9120 C   0  0  0  0  0  0  0  0  0  0  0  0
   -7.8790   22.7770  -31.3480 C   0  0  0  0  0  0  0  0  0  0  0  0
   -7.1850   21.7390  -31.9760 C   0  0  0  0  0  0  0  0  0  0  0  0
   -7.8510   20.5880  -32.4240 C   0  0  0  0  0  0  0  0  0  0  0  0
   -7.1360   19.5670  -33.0570 C   0  0  0  0  0  0  0  0  0  0  0  0
   -5.7560   19.6880  -33.2460 C   0  0  0  0  0  0  0  0  0  0  0  0
   -5.0830   20.8310  -32.8040 C   0  0  0  0  0  0  0  0  0  0  0  0
   -5.7900   21.8640  -32.1670 C   0  0  0  0  0  0  0  0  0  0  0  0
   -5.1410   22.9840  -31.7320 N   0  0  0  0  0  0  0  0  0  0  0  0
   -2.3200   22.7720  -30.9740 N   0  0  0  0  0  0  0  0  0  0  0  0
   -0.8450   20.4751  -32.7310 H   0  0  0  0  0  0  0  0  0  0  0  0
   -2.5473   20.6755  -33.2682 H   0  0  0  0  0  0  0  0  0  0  0  0
   -1.4337   22.0849  -33.2682 H   0  0  0  0  0  0  0  0  0  0  0  0
   -2.1462   19.4015  -30.6972 H   0  0  0  0  0  0  0  0  0  0  0  0
   -2.8571   19.9749  -28.3678 H   0  0  0  0  0  0  0  0  0  0  0  0
   -3.2227   22.3681  -27.7351 H   0  0  0  0  0  0  0  0  0  0  0  0
   -3.5530   24.6117  -28.4608 H   0  0  0  0  0  0  0  0  0  0  0  0
   -1.9784   25.0543  -29.2016 H   0  0  0  0  0  0  0  0  0  0  0  0
   -7.7353   24.7326  -30.4268 H   0  0  0  0  0  0  0  0  0  0  0  0
   -8.9661   22.7012  -31.1979 H   0  0  0  0  0  0  0  0  0  0  0  0
   -8.9366   20.4890  -32.2770 H   0  0  0  0  0  0  0  0  0  0  0  0
   -7.6606   18.6659  -33.4074 H   0  0  0  0  0  0  0  0  0  0  0  0
   -5.1980   18.8814  -33.7440 H   0  0  0  0  0  0  0  0  0  0  0  0
   -3.9972   20.9215  -32.9555 H   0  0  0  0  0  0  0  0  0  0  0  0
   -4.1080   23.0680  -31.8750 H   0  0  0  0  0  0  0  0  0  0  0  0
  1  2  1  0
  2  3  2  0
  3  4  1  0
  4  5  2  0
  5  6  1  0
  6  7  1  0
  7  8  1  0
  8  9  1  0
  9 10  2  0
  9 11  1  0
 11 12  2  0
 12 13  1  0
 13 14  2  0
 14 15  1  0
 15 16  2  0
 16 17  1  0
 17 18  2  0
 18 19  1  0
 19 20  2  0
  6 21  2  0
 21  2  1  0
 20 11  1  0
 19 14  1  0
  1 22  1  0
  1 23  1  0
  1 24  1  0
  3 25  1  0
  4 26  1  0
  5 27  1  0
  7 28  1  0
  7 29  1  0
 12 30  1  0
 13 31  1  0
 15 32  1  0
 16 33  1  0
 17 34  1  0
 18 35  1  0
 20 36  1  0
M  CHG  2   8  -1  20   1
M  END
>  <UniqueID>  (12) 
11

>  <SMILES>  (12) 
Cc1cccc(C[N-]C(=O)c2ccc3ccccc3[nH+]2)n1

>  <Energy>  (12) 
43.90603359736977

>  <Genealogy>  (12) 
Cc1cccc(C[N-]C(=O)c2ccc3ccccc3[nH+]2)n1 (protonated)
Cc1cccc(C[N-]C(=O)c2ccc3ccccc3[nH+]2)n1 (3D coordinates assigned)
Cc1cccc(C[N-]C(=O)c2ccc3ccccc3[nH+]2)n1 (optimized conformer: 43.90603359736977 kcal/mol)

>  <smiles>  (12) 
Cc1cccc(CNC(=O)c2ccc3ccccc3n2)n1

>  <score_type>  (12) 
oracle

>  <origin>  (12) 
adg

>  <m_score__min__energy>  (12) 
-8.3200000000000003

>  <m_primary>  (12) 
energy

$$$$
12:0
     RDKit          3D

 54 57  0  0  0  0  0  0  0  0999 V2000
    3.1190   22.3070  -35.4400 C   0  0  0  0  0  0  0  0  0  0  0  0
    2.7560   21.1900  -34.6350 O   0  0  0  0  0  0  0  0  0  0  0  0
    1.4640   20.9550  -34.1430 C   0  0  0  0  0  0  0  0  0  0  0  0
    1.1950   19.9940  -33.1510 C   0  0  0  0  0  0  0  0  0  0  0  0
   -0.1120   19.7950  -32.6970 C   0  0  0  0  0  0  0  0  0  0  0  0
   -1.1720   20.5450  -33.2330 C   0  0  0  0  0  0  0  0  0  0  0  0
   -2.5610   20.3300  -32.7600 C   0  0  0  0  0  0  0  0  0  0  0  0
   -3.3870   19.4420  -33.4660 C   0  0  0  0  0  0  0  0  0  0  0  0
   -4.7310   19.2750  -33.1050 C   0  0  0  0  0  0  0  0  0  0  0  0
   -5.2330   20.0040  -32.0140 C   0  0  0  0  0  0  0  0  0  0  0  0
   -4.4190   20.8560  -31.3390 N   0  0  0  0  0  0  0  0  0  0  0  0
   -3.1080   21.0300  -31.6560 C   0  0  0  0  0  0  0  0  0  0  0  0
   -2.3020   21.9380  -30.8080 C   0  0  0  0  0  0  0  0  0  0  0  0
   -1.0300   21.5600  -30.3490 C   0  0  0  0  0  0  0  0  0  0  0  0
   -0.2820   22.4240  -29.5450 C   0  0  0  0  0  0  0  0  0  0  0  0
   -0.8040   23.6770  -29.1710 C   0  0  0  0  0  0  0  0  0  0  0  0
   -0.0910   24.5810  -28.3700 O   0  0  0  0  0  0  0  0  0  0  0  0
   -0.5260   25.0400  -27.0950 C   0  0  0  0  0  0  0  0  0  0  0  0
   -2.0820   24.0410  -29.6110 C   0  0  0  0  0  0  0  0  0  0  0  0
   -2.8290   23.1780  -30.4160 C   0  0  0  0  0  0  0  0  0  0  0  0
   -6.6840   19.9120  -31.6190 C   0  0  0  0  0  0  0  0  0  0  0  0
   -7.3120   18.5350  -31.9620 C   0  0  0  0  0  0  0  0  0  0  0  0
   -6.7130   17.4300  -31.0610 C   0  0  0  0  0  0  0  0  0  0  0  0
   -8.8320   18.5990  -31.7100 C   0  0  0  0  0  0  0  0  0  0  0  0
   -7.0630   18.2070  -33.4580 C   0  0  0  0  0  0  0  0  0  0  0  0
   -5.6110   18.3350  -33.8330 C   0  0  0  0  0  0  0  0  0  0  0  0
   -5.1670   17.6650  -34.8050 O   0  0  0  0  0  0  0  0  0  0  0  0
   -0.9010   21.5110  -34.2130 C   0  0  0  0  0  0  0  0  0  0  0  0
    0.4070   21.7100  -34.6650 C   0  0  0  0  0  0  0  0  0  0  0  0
    3.3937   23.1522  -34.7918 H   0  0  0  0  0  0  0  0  0  0  0  0
    3.9760   22.0382  -36.0750 H   0  0  0  0  0  0  0  0  0  0  0  0
    2.2677   22.5934  -36.0750 H   0  0  0  0  0  0  0  0  0  0  0  0
    2.0173   19.3964  -32.7307 H   0  0  0  0  0  0  0  0  0  0  0  0
   -0.3116   19.0469  -31.9156 H   0  0  0  0  0  0  0  0  0  0  0  0
   -2.9755   18.8711  -34.3114 H   0  0  0  0  0  0  0  0  0  0  0  0
   -0.6196   20.5772  -30.6242 H   0  0  0  0  0  0  0  0  0  0  0  0
    0.7194   22.1238  -29.2027 H   0  0  0  0  0  0  0  0  0  0  0  0
    0.0010   24.4839  -26.3057 H   0  0  0  0  0  0  0  0  0  0  0  0
   -0.3057   26.1132  -26.9969 H   0  0  0  0  0  0  0  0  0  0  0  0
   -1.6095   24.8776  -26.9969 H   0  0  0  0  0  0  0  0  0  0  0  0
   -2.5017   25.0153  -29.3202 H   0  0  0  0  0  0  0  0  0  0  0  0
   -3.8367   23.4722  -30.7447 H   0  0  0  0  0  0  0  0  0  0  0  0
   -6.7644   20.0750  -30.5341 H   0  0  0  0  0  0  0  0  0  0  0  0
   -7.2322   20.6779  -32.1872 H   0  0  0  0  0  0  0  0  0  0  0  0
   -6.8589   17.6992  -30.0045 H   0  0  0  0  0  0  0  0  0  0  0  0
   -7.2166   16.4744  -31.2688 H   0  0  0  0  0  0  0  0  0  0  0  0
   -5.6374   17.3304  -31.2688 H   0  0  0  0  0  0  0  0  0  0  0  0
   -9.0241   18.6071  -30.6269 H   0  0  0  0  0  0  0  0  0  0  0  0
   -9.2403   19.5151  -32.1617 H   0  0  0  0  0  0  0  0  0  0  0  0
   -9.3159   17.7204  -32.1617 H   0  0  0  0  0  0  0  0  0  0  0  0
   -7.3900   17.1751  -33.6538 H   0  0  0  0  0  0  0  0  0  0  0  0
   -7.6330   18.9285  -34.0618 H   0  0  0  0  0  0  0  0  0  0  0  0
   -1.7214   22.1149  -34.6280 H   0  0  0  0  0  0  0  0  0  0  0  0
    0.6074   22.4667  -35.4378 H   0  0  0  0  0  0  0  0  0  0  0  0
  1  2  1  0
  2  3  1  0
  3  4  2  0
  4  5  1  0
  5  6  2  0
  6  7  1  0
  7  8  2  0
  8  9  1  0
  9 10  2  0
 10 11  1  0
 11 12  2  0
 12 13  1  0
 13 14  2  0
 14 15  1  0
 15 16  2  0
 16 17  1  0
 17 18  1  0
 16 19  1  0
 19 20  2  0
 10 21  1  0
 21 22  1  0
 22 23  1  0
 22 24  1  0
 22 25  1  0
 25 26  1  0
 26 27  2  0
  6 28  1  0
 28 29  2  0
 29  3  1  0
 12  7  1  0
 20 13  1  0
 26  9  1  0
  1 30  1  0
  1 31  1  0
  1 32  1  0
  4 33  1  0
  5 34  1  0
  8 35  1  0
 14 36  1  0
 15 37  1  0
 18 38  1  0
 18 39  1  0
 18 40  1  0
 19 41  1  0
 20 42  1  0
 21 43  1  0
 21 44  1  0
 23 45  1  0
 23 46  1  0
 23 47  1  0
 24 48  1  0
 24 49  1  0
 24 50  1  0
 25 51  1  0
 25 52  1  0
 28 53  1  0
 29 54  1  0
M  END
>  <UniqueID>  (13) 
12

>  <SMILES>  (13) 
COc1ccc(-c2cc3c(nc2-c2ccc(OC)cc2)CC(C)(C)CC3=O)cc1

>  <Energy>  (13) 
67.27211364184609

>  <Genealogy>  (13) 
COc1ccc(-c2cc3c(nc2-c2ccc(OC)cc2)CC(C)(C)CC3=O)cc1 (3D coordinates assigned)
COc1ccc(-c2cc3c(nc2-c2ccc(OC)cc2)CC(C)(C)CC3=O)cc1 (nonaromatic ring conformer: 67.27211364184609 kcal/mol)

>  <smiles>  (13) 
COc1ccc(-c2cc3c(nc2-c2ccc(OC)cc2)CC(C)(C)CC3=O)cc1

>  <score_type>  (13) 
oracle

>  <origin>  (13) 
adg

>  <m_score__min__energy>  (13) 
-7.8799999999999999

>  <m_primary>  (13) 
energy

$$$$
13:0
     RDKit          3D

 45 46  0  0  0  0  0  0  0  0999 V2000
   -3.0980   22.2080  -32.2270 C   0  0  0  0  0  0  0  0  0  0  0  0
   -3.6010   21.6200  -30.9750 N   0  0  0  0  0  0  0  0  0  0  0  0
   -3.9070   20.1940  -31.1890 C   0  0  0  0  0  0  0  0  0  0  0  0
   -2.6120   21.7950  -29.8880 C   0  0  0  0  0  0  0  0  0  0  0  0
   -2.2720   23.2780  -29.6870 C   0  0  0  0  0  0  0  0  0  0  0  0
   -3.4140   24.0040  -29.1060 N   0  0  0  0  0  0  0  0  0  0  0  0
   -3.4790   24.1890  -27.6520 C   0  0  0  0  0  0  0  0  0  0  0  0
   -4.4940   24.5140  -29.9210 C   0  0  0  0  0  0  0  0  0  0  0  0
   -4.2320   25.3230  -30.8540 O   0  0  0  0  0  0  0  0  0  0  0  0
   -5.9210   24.0560  -29.7170 C   0  0  0  0  0  0  0  0  0  0  0  0
   -6.8260   24.3560  -30.9180 C   0  0  0  0  0  0  0  0  0  0  0  0
   -7.2720   23.0820  -31.5620 C   0  0  0  0  0  0  0  0  0  0  0  0
   -6.4520   22.0830  -31.9270 N   0  0  0  0  0  0  0  0  0  0  0  0
   -7.3060   21.1570  -32.4100 C   0  0  0  0  0  0  0  0  0  0  0  0
   -6.8900   19.8510  -32.9780 C   0  0  0  0  0  0  0  0  0  0  0  0
   -5.7750   19.8050  -33.8370 C   0  0  0  0  0  0  0  0  0  0  0  0
   -5.3640   18.5970  -34.4070 C   0  0  0  0  0  0  0  0  0  0  0  0
   -6.0570   17.4200  -34.1260 C   0  0  0  0  0  0  0  0  0  0  0  0
   -7.1600   17.4460  -33.2710 C   0  0  0  0  0  0  0  0  0  0  0  0
   -7.5840   18.6500  -32.6940 C   0  0  0  0  0  0  0  0  0  0  0  0
   -8.9470   18.5820  -31.5790 Cl  0  0  0  0  0  0  0  0  0  0  0  0
   -8.5840   21.5870  -32.3410 N   0  0  0  0  0  0  0  0  0  0  0  0
   -8.5230   22.7720  -31.8090 O   0  0  0  0  0  0  0  0  0  0  0  0
   -2.3992   23.0249  -31.9937 H   0  0  0  0  0  0  0  0  0  0  0  0
   -2.5769   21.4355  -32.8115 H   0  0  0  0  0  0  0  0  0  0  0  0
   -3.9419   22.6031  -32.8115 H   0  0  0  0  0  0  0  0  0  0  0  0
   -4.0147   19.6921  -30.2161 H   0  0  0  0  0  0  0  0  0  0  0  0
   -4.8455   20.1013  -31.7553 H   0  0  0  0  0  0  0  0  0  0  0  0
   -3.0892   19.7245  -31.7553 H   0  0  0  0  0  0  0  0  0  0  0  0
   -3.0295   21.3918  -28.9536 H   0  0  0  0  0  0  0  0  0  0  0  0
   -1.6916   21.2586  -30.1620 H   0  0  0  0  0  0  0  0  0  0  0  0
   -1.4096   23.3613  -29.0093 H   0  0  0  0  0  0  0  0  0  0  0  0
   -2.0350   23.7204  -30.6658 H   0  0  0  0  0  0  0  0  0  0  0  0
   -3.1545   23.2656  -27.1500 H   0  0  0  0  0  0  0  0  0  0  0  0
   -2.8182   25.0178  -27.3579 H   0  0  0  0  0  0  0  0  0  0  0  0
   -4.5130   24.4223  -27.3579 H   0  0  0  0  0  0  0  0  0  0  0  0
   -5.9187   22.9699  -29.5429 H   0  0  0  0  0  0  0  0  0  0  0  0
   -6.3236   24.6099  -28.8562 H   0  0  0  0  0  0  0  0  0  0  0  0
   -7.7077   24.9182  -30.5767 H   0  0  0  0  0  0  0  0  0  0  0  0
   -6.2617   24.9499  -31.6521 H   0  0  0  0  0  0  0  0  0  0  0  0
   -5.4130   22.0350  -31.8320 H   0  0  0  0  0  0  0  0  0  0  0  0
   -5.2221   20.7291  -34.0615 H   0  0  0  0  0  0  0  0  0  0  0  0
   -4.4928   18.5746  -35.0781 H   0  0  0  0  0  0  0  0  0  0  0  0
   -5.7343   16.4707  -34.5783 H   0  0  0  0  0  0  0  0  0  0  0  0
   -7.7004   16.5140  -33.0486 H   0  0  0  0  0  0  0  0  0  0  0  0
  1  2  1  0
  2  3  1  0
  2  4  1  0
  4  5  1  0
  5  6  1  0
  6  7  1  0
  6  8  1  0
  8  9  2  0
  8 10  1  0
 10 11  1  0
 11 12  1  0
 12 13  2  0
 13 14  1  0
 14 15  1  0
 15 16  2  0
 16 17  1  0
 17 18  2  0
 18 19  1  0
 19 20  2  0
 20 21  1  0
 14 22  2  0
 22 23  1  0
 23 12  1  0
 20 15  1  0
  1 24  1  0
  1 25  1  0
  1 26  1  0
  3 27  1  0
  3 28  1  0
  3 29  1  0
  4 30  1  0
  4 31  1  0
  5 32  1  0
  5 33  1  0
  7 34  1  0
  7 35  1  0
  7 36  1  0
 10 37  1  0
 10 38  1  0
 11 39  1  0
 11 40  1  0
 13 41  1  0
 16 42  1  0
 17 43  1  0
 18 44  1  0
 19 45  1  0
M  CHG  1  13   1
M  END
>  <UniqueID>  (14) 
13

>  <SMILES>  (14) 
CN(C)CCN(C)C(=O)CCc1[nH+]c(-c2ccccc2Cl)no1

>  <Energy>  (14) 
78.66115966471061

>  <Genealogy>  (14) 
CN(C)CCN(C)C(=O)CCc1[nH+]c(-c2ccccc2Cl)no1 (protonated)
CN(C)CCN(C)C(=O)CCc1[nH+]c(-c2ccccc2Cl)no1 (3D coordinates assigned)
CN(C)CCN(C)C(=O)CCc1[nH+]c(-c2ccccc2Cl)no1 (optimized conformer: 78.66115966471061 kcal/mol)

>  <smiles>  (14) 
CN(C)CCN(C)C(=O)CCc1nc(-c2ccccc2Cl)no1

>  <score_type>  (14) 
oracle

>  <origin>  (14) 
adg

>  <m_score__min__energy>  (14) 
-7.6100000000000003

>  <m_primary>  (14) 
energy

$$$$
14:0
     RDKit          3D

 59 61  0  0  0  0  0  0  0  0999 V2000
   -2.3750   19.1710  -26.4820 C   0  0  0  0  0  0  0  0  0  0  0  0
   -1.0180   19.6250  -26.8230 N   0  0  0  0  0  0  0  0  0  0  0  0
   -0.6750   19.1630  -28.1800 C   0  0  0  0  0  0  0  0  0  0  0  0
   -0.9340   21.0990  -26.7240 C   0  0  0  0  0  0  0  0  0  0  0  0
    0.4390   21.5990  -27.1950 C   0  0  0  0  0  0  0  0  0  0  0  0
    0.2890   22.7360  -28.1050 N   0  0  0  0  0  0  0  0  0  0  0  0
   -0.9400   23.1050  -28.7640 C   0  0  0  0  0  0  0  0  0  0  0  0
   -1.7140   24.1990  -28.3420 C   0  0  0  0  0  0  0  0  0  0  0  0
   -2.8990   24.5240  -29.0050 C   0  0  0  0  0  0  0  0  0  0  0  0
   -3.3430   23.7630  -30.0990 C   0  0  0  0  0  0  0  0  0  0  0  0
   -2.5590   22.6870  -30.5470 C   0  0  0  0  0  0  0  0  0  0  0  0
   -1.3710   22.3580  -29.8700 C   0  0  0  0  0  0  0  0  0  0  0  0
   -3.0180   21.8530  -31.7030 C   0  0  0  0  0  0  0  0  0  0  0  0
   -4.2620   21.0660  -31.2880 C   0  0  0  0  0  0  0  0  0  0  0  0
   -5.5590   21.8460  -31.3910 C   0  0  0  0  0  0  0  0  0  0  0  0
   -6.7110   21.0880  -31.6820 C   0  0  0  0  0  0  0  0  0  0  0  0
   -7.9690   21.6780  -31.8010 C   0  0  0  0  0  0  0  0  0  0  0  0
   -9.0630   20.8500  -32.1080 O   0  0  0  0  0  0  0  0  0  0  0  0
   -8.9950   19.6240  -32.8360 C   0  0  0  0  0  0  0  0  0  0  0  0
   -8.6940   18.4530  -31.8930 C   0  0  0  0  0  0  0  0  0  0  0  0
   -7.4370   17.7790  -32.2850 N   0  0  0  0  0  0  0  0  0  0  0  0
   -6.4660   17.7870  -31.1750 C   0  0  0  0  0  0  0  0  0  0  0  0
   -6.8420   18.4460  -33.4550 C   0  0  0  0  0  0  0  0  0  0  0  0
   -8.0920   23.0600  -31.6200 C   0  0  0  0  0  0  0  0  0  0  0  0
   -6.9730   23.8290  -31.3070 C   0  0  0  0  0  0  0  0  0  0  0  0
   -5.6930   23.2510  -31.1700 C   0  0  0  0  0  0  0  0  0  0  0  0
   -4.5750   24.1780  -30.8040 C   0  0  0  0  0  0  0  0  0  0  0  0
   -4.7060   25.4090  -31.0530 O   0  0  0  0  0  0  0  0  0  0  0  0
   -2.4853   19.1341  -25.3882 H   0  0  0  0  0  0  0  0  0  0  0  0
   -3.1122   19.8714  -26.9014 H   0  0  0  0  0  0  0  0  0  0  0  0
   -2.5423   18.1680  -26.9014 H   0  0  0  0  0  0  0  0  0  0  0  0
   -0.0205   18.2815  -28.1127 H   0  0  0  0  0  0  0  0  0  0  0  0
   -1.5954   18.8960  -28.7200 H   0  0  0  0  0  0  0  0  0  0  0  0
   -0.1531   19.9668  -28.7200 H   0  0  0  0  0  0  0  0  0  0  0  0
   -1.7167   21.5480  -27.3531 H   0  0  0  0  0  0  0  0  0  0  0  0
   -1.0741   21.3906  -25.6726 H   0  0  0  0  0  0  0  0  0  0  0  0
    1.0294   21.9110  -26.3209 H   0  0  0  0  0  0  0  0  0  0  0  0
    0.9498   20.7834  -27.7278 H   0  0  0  0  0  0  0  0  0  0  0  0
    1.1350   23.3290  -28.2650 H   0  0  0  0  0  0  0  0  0  0  0  0
   -1.3843   24.8032  -27.4839 H   0  0  0  0  0  0  0  0  0  0  0  0
   -3.4921   25.3864  -28.6665 H   0  0  0  0  0  0  0  0  0  0  0  0
   -0.7710   21.5022  -30.2130 H   0  0  0  0  0  0  0  0  0  0  0  0
   -3.2617   22.5055  -32.5544 H   0  0  0  0  0  0  0  0  0  0  0  0
   -2.2195   21.1564  -31.9982 H   0  0  0  0  0  0  0  0  0  0  0  0
   -4.3407   20.1801  -31.9353 H   0  0  0  0  0  0  0  0  0  0  0  0
   -4.1324   20.8102  -30.2260 H   0  0  0  0  0  0  0  0  0  0  0  0
   -6.6152   20.0008  -31.8191 H   0  0  0  0  0  0  0  0  0  0  0  0
   -9.9583   19.4468  -33.3366 H   0  0  0  0  0  0  0  0  0  0  0  0
   -8.1878   19.6972  -33.5797 H   0  0  0  0  0  0  0  0  0  0  0  0
   -8.5954   18.8325  -30.8653 H   0  0  0  0  0  0  0  0  0  0  0  0
   -9.5190   17.7279  -31.9533 H   0  0  0  0  0  0  0  0  0  0  0  0
   -7.0051   17.7826  -30.2162 H   0  0  0  0  0  0  0  0  0  0  0  0
   -5.8269   16.8941  -31.2404 H   0  0  0  0  0  0  0  0  0  0  0  0
   -5.8417   18.6903  -31.2404 H   0  0  0  0  0  0  0  0  0  0  0  0
   -6.1452   19.2271  -33.1168 H   0  0  0  0  0  0  0  0  0  0  0  0
   -6.2979   17.7067  -34.0612 H   0  0  0  0  0  0  0  0  0  0  0  0
   -7.6384   18.9025  -34.0612 H   0  0  0  0  0  0  0  0  0  0  0  0
   -9.0756   23.5411  -31.7252 H   0  0  0  0  0  0  0  0  0  0  0  0
   -7.0903   24.9132  -31.1632 H   0  0  0  0  0  0  0  0  0  0  0  0
  1  2  1  0
  2  3  1  0
  2  4  1  0
  4  5  1  0
  5  6  1  0
  6  7  1  0
  7  8  2  0
  8  9  1  0
  9 10  2  0
 10 11  1  0
 11 12  2  0
 11 13  1  0
 13 14  1  0
 14 15  1  0
 15 16  2  0
 16 17  1  0
 17 18  1  0
 18 19  1  0
 19 20  1  0
 20 21  1  0
 21 22  1  0
 21 23  1  0
 17 24  2  0
 24 25  1  0
 25 26  2  0
 26 27  1  0
 27 28  2  0
 12  7  1  0
 26 15  1  0
 27 10  1  0
  1 29  1  0
  1 30  1  0
  1 31  1  0
  3 32  1  0
  3 33  1  0
  3 34  1  0
  4 35  1  0
  4 36  1  0
  5 37  1  0
  5 38  1  0
  6 39  1  0
  8 40  1  0
  9 41  1  0
 12 42  1  0
 13 43  1  0
 13 44  1  0
 14 45  1  0
 14 46  1  0
 16 47  1  0
 19 48  1  0
 19 49  1  0
 20 50  1  0
 20 51  1  0
 22 52  1  0
 22 53  1  0
 22 54  1  0
 23 55  1  0
 23 56  1  0
 23 57  1  0
 24 58  1  0
 25 59  1  0
M  END
>  <UniqueID>  (15) 
14

>  <SMILES>  (15) 
CN(C)CCNc1ccc2c(c1)CCc1cc(OCCN(C)C)ccc1C2=O

>  <Energy>  (15) 
74.36476942315338

>  <Genealogy>  (15) 
CN(C)CCNc1ccc2c(c1)CCc1cc(OCCN(C)C)ccc1C2=O (3D coordinates assigned)
CN(C)CCNc1ccc2c(c1)CCc1cc(OCCN(C)C)ccc1C2=O (nonaromatic ring conformer: 74.36476942315338 kcal/mol)

>  <smiles>  (15) 
CN(C)CCNc1ccc2c(c1)CCc1cc(OCCN(C)C)ccc1C2=O

>  <score_type>  (15) 
oracle

>  <origin>  (15) 
adg

>  <m_score__min__energy>  (15) 
-7.4199999999999999

>  <m_primary>  (15) 
energy

$$$$
15:0
     RDKit          3D

 66 69  0  0  0  0  0  0  0  0999 V2000
   -2.4450   19.3280  -26.8380 C   0  0  0  0  0  0  0  0  0  0  0  0
   -2.1810   20.3610  -27.9260 C   0  0  0  0  0  0  0  0  0  0  0  0
   -0.7880   20.2280  -28.4090 N   0  0  0  0  0  0  0  0  0  0  0  0
   -0.2490   18.8840  -28.1390 C   0  0  0  0  0  0  0  0  0  0  0  0
   -0.5720   20.6380  -29.8220 C   0  0  0  0  0  0  0  0  0  0  0  0
   -0.9140   22.1380  -30.0350 C   0  0  0  0  0  0  0  0  0  0  0  0
   -2.2870   22.4460  -30.6850 C   0  0  0  0  0  0  0  0  0  0  0  0
   -2.8410   21.3670  -31.5470 N   0  0  0  0  0  0  0  0  0  0  0  0
   -3.6450   21.9080  -32.6720 C   0  0  0  0  0  0  0  0  0  0  0  0
   -5.1020   21.3690  -32.7020 C   0  0  1  0  0  0  0  0  0  0  0  0
   -5.4310   20.1520  -31.8380 C   0  0  0  0  0  0  0  0  0  0  0  0
   -6.8790   20.1950  -31.5510 N   0  0  0  0  0  0  0  0  0  0  0  0
   -7.6050   19.0260  -32.0820 C   0  0  0  0  0  0  0  0  0  0  0  0
   -6.6340   18.0580  -32.7030 C   0  0  0  0  0  0  0  0  0  0  0  0
   -6.1050   17.0090  -31.9330 C   0  0  0  0  0  0  0  0  0  0  0  0
   -5.1880   16.1150  -32.4940 C   0  0  0  0  0  0  0  0  0  0  0  0
   -4.7900   16.2650  -33.8250 C   0  0  0  0  0  0  0  0  0  0  0  0
   -5.3080   17.3100  -34.5970 C   0  0  0  0  0  0  0  0  0  0  0  0
   -4.9190   17.4550  -35.8880 F   0  0  0  0  0  0  0  0  0  0  0  0
   -6.2260   18.2050  -34.0390 C   0  0  0  0  0  0  0  0  0  0  0  0
   -7.3990   21.4610  -32.1010 C   0  0  0  0  0  0  0  0  0  0  0  0
   -6.2010   22.3730  -32.3630 C   0  0  1  0  0  0  0  0  0  0  0  0
   -5.8810   23.2840  -31.1800 C   0  0  0  0  0  0  0  0  0  0  0  0
   -6.1070   24.6760  -31.2180 C   0  0  0  0  0  0  0  0  0  0  0  0
   -5.7720   25.4770  -30.1240 C   0  0  0  0  0  0  0  0  0  0  0  0
   -5.2420   24.9040  -28.9680 C   0  0  0  0  0  0  0  0  0  0  0  0
   -5.0310   23.5260  -28.9090 C   0  0  0  0  0  0  0  0  0  0  0  0
   -5.3460   22.7190  -30.0070 C   0  0  0  0  0  0  0  0  0  0  0  0
   -1.7910   20.4570  -32.0400 C   0  0  0  0  0  0  0  0  0  0  0  0
   -1.2240   19.6840  -30.8560 C   0  0  0  0  0  0  0  0  0  0  0  0
   -2.3251   19.7970  -25.8502 H   0  0  0  0  0  0  0  0  0  0  0  0
   -3.4704   18.9429  -26.9391 H   0  0  0  0  0  0  0  0  0  0  0  0
   -1.7301   18.4981  -26.9391 H   0  0  0  0  0  0  0  0  0  0  0  0
   -2.8759   20.1972  -28.7628 H   0  0  0  0  0  0  0  0  0  0  0  0
   -2.3307   21.3705  -27.5155 H   0  0  0  0  0  0  0  0  0  0  0  0
   -0.1856   18.7259  -27.0523 H   0  0  0  0  0  0  0  0  0  0  0  0
   -0.9131   18.1269  -28.5816 H   0  0  0  0  0  0  0  0  0  0  0  0
    0.7542   18.7955  -28.5816 H   0  0  0  0  0  0  0  0  0  0  0  0
    0.5047   20.5355  -30.0223 H   0  0  0  0  0  0  0  0  0  0  0  0
   -0.8917   22.6294  -29.0511 H   0  0  0  0  0  0  0  0  0  0  0  0
   -0.1632   22.5107  -30.7473 H   0  0  0  0  0  0  0  0  0  0  0  0
   -3.0088   22.6399  -29.8779 H   0  0  0  0  0  0  0  0  0  0  0  0
   -2.1223   23.3087  -31.3472 H   0  0  0  0  0  0  0  0  0  0  0  0
   -3.6800   23.0037  -32.5807 H   0  0  0  0  0  0  0  0  0  0  0  0
   -3.1591   21.5847  -33.6044 H   0  0  0  0  0  0  0  0  0  0  0  0
   -5.1054   21.0940  -33.7671 H   0  0  0  0  0  0  0  0  0  0  0  0
   -5.1820   19.2275  -32.3796 H   0  0  0  0  0  0  0  0  0  0  0  0
   -4.8486   20.1682  -30.9049 H   0  0  0  0  0  0  0  0  0  0  0  0
   -8.1428   18.5275  -31.2621 H   0  0  0  0  0  0  0  0  0  0  0  0
   -8.3209   19.3614  -32.8469 H   0  0  0  0  0  0  0  0  0  0  0  0
   -6.4136   16.8903  -30.8839 H   0  0  0  0  0  0  0  0  0  0  0  0
   -4.7797   15.2933  -31.8873 H   0  0  0  0  0  0  0  0  0  0  0  0
   -4.0690   15.5609  -34.2659 H   0  0  0  0  0  0  0  0  0  0  0  0
   -6.6300   19.0269  -34.6483 H   0  0  0  0  0  0  0  0  0  0  0  0
   -7.9379   21.2693  -33.0406 H   0  0  0  0  0  0  0  0  0  0  0  0
   -8.0984   21.9325  -31.3949 H   0  0  0  0  0  0  0  0  0  0  0  0
   -6.3629   23.1046  -33.1683 H   0  0  0  0  0  0  0  0  0  0  0  0
   -6.5499   25.1335  -32.1150 H   0  0  0  0  0  0  0  0  0  0  0  0
   -5.9269   26.5649  -30.1743 H   0  0  0  0  0  0  0  0  0  0  0  0
   -4.9908   25.5373  -28.1044 H   0  0  0  0  0  0  0  0  0  0  0  0
   -4.6158   23.0732  -27.9965 H   0  0  0  0  0  0  0  0  0  0  0  0
   -5.1742   21.6338  -29.9535 H   0  0  0  0  0  0  0  0  0  0  0  0
   -2.2213   19.7549  -32.7693 H   0  0  0  0  0  0  0  0  0  0  0  0
   -0.9927   21.0339  -32.5297 H   0  0  0  0  0  0  0  0  0  0  0  0
   -2.0381   19.1283  -30.3676 H   0  0  0  0  0  0  0  0  0  0  0  0
   -0.4518   18.9948  -31.2284 H   0  0  0  0  0  0  0  0  0  0  0  0
  1  2  1  0
  2  3  1  0
  3  4  1  0
  3  5  1  0
  5  6  1  0
  6  7  1  0
  7  8  1  0
  8  9  1  0
  9 10  1  0
 10 11  1  0
 11 12  1  0
 12 13  1  0
 13 14  1  0
 14 15  2  0
 15 16  1  0
 16 17  2  0
 17 18  1  0
 18 19  1  0
 18 20  2  0
 12 21  1  0
 21 22  1  0
 22 23  1  0
 23 24  2  0
 24 25  1  0
 25 26  2  0
 26 27  1  0
 27 28  2  0
  8 29  1  0
 29 30  1  0
 30  5  1  0
 22 10  1  0
 28 23  1  0
 20 14  1  0
  1 31  1  0
  1 32  1  0
  1 33  1  0
  2 34  1  0
  2 35  1  0
  4 36  1  0
  4 37  1  0
  4 38  1  0
  5 39  1  0
  6 40  1  0
  6 41  1  0
  7 42  1  0
  7 43  1  0
  9 44  1  0
  9 45  1  0
 10 46  1  6
 11 47  1  0
 11 48  1  0
 13 49  1  0
 13 50  1  0
 15 51  1  0
 16 52  1  0
 17 53  1  0
 20 54  1  0
 21 55  1  0
 21 56  1  0
 22 57  1  6
 24 58  1  0
 25 59  1  0
 26 60  1  0
 27 61  1  0
 28 62  1  0
 29 63  1  0
 29 64  1  0
 30 65  1  0
 30 66  1  0
M  END
>  <UniqueID>  (16) 
15

>  <SMILES>  (16) 
CCN(C)C1CCN(C[C@H]2CN(Cc3cccc(F)c3)C[C@H]2c2ccccc2)CC1

>  <Energy>  (16) 
91.26372186769804

>  <Genealogy>  (16) 
CCN(C)C1CCN(C[C@H]2CN(Cc3cccc(F)c3)C[C@H]2c2ccccc2)CC1 (chirality)
CCN(C)C1CCN(C[C@H]2CN(Cc3cccc(F)c3)C[C@H]2c2ccccc2)CC1 (3D coordinates assigned)
CCN(C)C1CCN(C[C@H]2CN(Cc3cccc(F)c3)C[C@H]2c2ccccc2)CC1 (nonaromatic ring conformer: 91.26372186769804 kcal/mol)

>  <smiles>  (16) 
CCN(C)C1CCN(CC2CN(Cc3cccc(F)c3)CC2c2ccccc2)CC1

>  <score_type>  (16) 
oracle

>  <origin>  (16) 
adg

>  <m_score__min__energy>  (16) 
-8.9900000000000002

>  <m_primary>  (16) 
energy

$$$$
16:0
     RDKit          3D

 48 51  0  0  0  0  0  0  0  0999 V2000
   -8.6750   18.2940  -31.9070 C   0  0  0  0  0  0  0  0  0  0  0  0
   -7.6810   19.2470  -32.4310 N   0  0  0  0  0  0  0  0  0  0  0  0
   -7.8180   20.6170  -32.2500 C   0  0  0  0  0  0  0  0  0  0  0  0
   -9.0380   21.1920  -31.8190 C   0  0  0  0  0  0  0  0  0  0  0  0
   -9.1510   22.5660  -31.6100 C   0  0  0  0  0  0  0  0  0  0  0  0
   -8.0650   23.4050  -31.8390 C   0  0  0  0  0  0  0  0  0  0  0  0
   -6.8600   22.8820  -32.3000 C   0  0  0  0  0  0  0  0  0  0  0  0
   -6.7160   21.4980  -32.5260 C   0  0  0  0  0  0  0  0  0  0  0  0
   -5.5130   20.9710  -33.0520 C   0  0  0  0  0  0  0  0  0  0  0  0
   -4.3830   21.8060  -33.3450 N   0  0  0  0  0  0  0  0  0  0  0  0
   -3.2490   21.8980  -32.4280 C   0  0  0  0  0  0  0  0  0  0  0  0
   -2.3230   20.6810  -32.6190 C   0  0  0  0  0  0  0  0  0  0  0  0
   -1.5300   20.7000  -33.8730 N   0  0  0  0  0  0  0  0  0  0  0  0
   -0.2960   21.4970  -33.7530 C   0  0  0  0  0  0  0  0  0  0  0  0
   -1.2350   19.3470  -34.3780 C   0  0  0  0  0  0  0  0  0  0  0  0
   -5.4700   19.6070  -33.3170 C   0  0  0  0  0  0  0  0  0  0  0  0
   -4.4350   18.9140  -33.8400 N   0  0  0  0  0  0  0  0  0  0  0  0
   -4.8800   17.6470  -33.9500 C   0  0  0  0  0  0  0  0  0  0  0  0
   -4.1810   16.5700  -34.4920 C   0  0  0  0  0  0  0  0  0  0  0  0
   -4.8380   15.3330  -34.5860 C   0  0  0  0  0  0  0  0  0  0  0  0
   -6.1760   15.2030  -34.1590 C   0  0  0  0  0  0  0  0  0  0  0  0
   -6.8660   16.3030  -33.6180 C   0  0  0  0  0  0  0  0  0  0  0  0
   -6.1790   17.5170  -33.4910 C   0  0  0  0  0  0  0  0  0  0  0  0
   -6.5470   18.7890  -33.0500 C   0  0  0  0  0  0  0  0  0  0  0  0
   -8.6561   18.3121  -30.8073 H   0  0  0  0  0  0  0  0  0  0  0  0
   -9.6771   18.5775  -32.2612 H   0  0  0  0  0  0  0  0  0  0  0  0
   -8.4339   17.2809  -32.2612 H   0  0  0  0  0  0  0  0  0  0  0  0
   -9.9104   20.5446  -31.6463 H   0  0  0  0  0  0  0  0  0  0  0  0
  -10.1048   22.9893  -31.2619 H   0  0  0  0  0  0  0  0  0  0  0  0
   -8.1589   24.4855  -31.6551 H   0  0  0  0  0  0  0  0  0  0  0  0
   -6.0114   23.5557  -32.4899 H   0  0  0  0  0  0  0  0  0  0  0  0
   -4.2360   22.1180  -34.3320 H   0  0  0  0  0  0  0  0  0  0  0  0
   -2.6866   22.8206  -32.6341 H   0  0  0  0  0  0  0  0  0  0  0  0
   -3.6197   21.9133  -31.3925 H   0  0  0  0  0  0  0  0  0  0  0  0
   -1.6233   20.6456  -31.7709 H   0  0  0  0  0  0  0  0  0  0  0  0
   -2.9761   19.7977  -32.6761 H   0  0  0  0  0  0  0  0  0  0  0  0
   -2.1270   21.1710  -34.5960 H   0  0  0  0  0  0  0  0  0  0  0  0
   -0.0599   21.6495  -32.6895 H   0  0  0  0  0  0  0  0  0  0  0  0
    0.5337   20.9637  -34.2400 H   0  0  0  0  0  0  0  0  0  0  0  0
   -0.4408   22.4726  -34.2400 H   0  0  0  0  0  0  0  0  0  0  0  0
   -1.0859   18.6633  -33.5293 H   0  0  0  0  0  0  0  0  0  0  0  0
   -2.0770   18.9927  -34.9908 H   0  0  0  0  0  0  0  0  0  0  0  0
   -0.3219   19.3753  -34.9908 H   0  0  0  0  0  0  0  0  0  0  0  0
   -3.4960   19.2750  -34.1190 H   0  0  0  0  0  0  0  0  0  0  0  0
   -3.1429   16.6861  -34.8367 H   0  0  0  0  0  0  0  0  0  0  0  0
   -4.3067   14.4608  -34.9947 H   0  0  0  0  0  0  0  0  0  0  0  0
   -6.6848   14.2320  -34.2499 H   0  0  0  0  0  0  0  0  0  0  0  0
   -7.9161   16.2123  -33.3034 H   0  0  0  0  0  0  0  0  0  0  0  0
  1  2  1  0
  2  3  2  0
  3  4  1  0
  4  5  2  0
  5  6  1  0
  6  7  2  0
  7  8  1  0
  8  9  2  0
  9 10  1  0
 10 11  1  0
 11 12  1  0
 12 13  1  0
 13 14  1  0
 13 15  1  0
  9 16  1  0
 16 17  1  0
 17 18  1  0
 18 19  2  0
 19 20  1  0
 20 21  2  0
 21 22  1  0
 22 23  2  0
 23 24  1  0
 24  2  1  0
  8  3  1  0
 24 16  2  0
 23 18  1  0
  1 25  1  0
  1 26  1  0
  1 27  1  0
  4 28  1  0
  5 29  1  0
  6 30  1  0
  7 31  1  0
 10 32  1  0
 11 33  1  0
 11 34  1  0
 12 35  1  0
 12 36  1  0
 13 37  1  0
 14 38  1  0
 14 39  1  0
 14 40  1  0
 15 41  1  0
 15 42  1  0
 15 43  1  0
 17 44  1  0
 19 45  1  0
 20 46  1  0
 21 47  1  0
 22 48  1  0
M  CHG  2   2   1  13   1
M  END
>  <UniqueID>  (17) 
16

>  <SMILES>  (17) 
C[n+]1c2ccccc2c(NCC[NH+](C)C)c2[nH]c3ccccc3c21

>  <Energy>  (17) 
113.02049458036154

>  <Genealogy>  (17) 
C[n+]1c2ccccc2c(NCC[NH+](C)C)c2[nH]c3ccccc3c21 (protonated)
C[n+]1c2ccccc2c(NCC[NH+](C)C)c2[nH]c3ccccc3c21 (3D coordinates assigned)
C[n+]1c2ccccc2c(NCC[NH+](C)C)c2[nH]c3ccccc3c21 (optimized conformer: 113.02049458036154 kcal/mol)

>  <smiles>  (17) 
CN(C)CCNc1c2ccccc2[n+](C)c2c1[nH]c1ccccc12

>  <score_type>  (17) 
oracle

>  <origin>  (17) 
adg

>  <m_score__min__energy>  (17) 
-7.2400000000000002

>  <m_primary>  (17) 
energy

$$$$
17:0
     RDKit          3D

 30 31  0  0  0  0  0  0  0  0999 V2000
   -2.5560   24.6640  -28.9430 C   0  0  0  0  0  0  0  0  0  0  0  0
   -3.3650   24.9250  -30.0830 O   0  0  0  0  0  0  0  0  0  0  0  0
   -4.3670   24.0390  -30.4880 C   0  0  0  0  0  0  0  0  0  0  0  0
   -5.7160   24.3800  -30.3270 C   0  0  0  0  0  0  0  0  0  0  0  0
   -6.1150   25.6950  -29.7310 C   0  0  0  0  0  0  0  0  0  0  0  0
   -6.6790   23.5200  -30.7470 N   0  0  0  0  0  0  0  0  0  0  0  0
   -6.3720   22.3210  -31.3110 C   0  0  0  0  0  0  0  0  0  0  0  0
   -7.4600   21.4180  -31.7590 C   0  0  0  0  0  0  0  0  0  0  0  0
   -8.8100   21.8020  -31.6610 C   0  0  0  0  0  0  0  0  0  0  0  0
   -9.8080   20.9250  -32.0930 C   0  0  0  0  0  0  0  0  0  0  0  0
   -9.4620   19.6800  -32.6170 C   0  0  0  0  0  0  0  0  0  0  0  0
   -8.1140   19.3280  -32.7020 C   0  0  0  0  0  0  0  0  0  0  0  0
   -7.1560   20.1940  -32.2770 N   0  0  0  0  0  0  0  0  0  0  0  0
   -5.0620   21.9650  -31.4580 N   0  0  0  0  0  0  0  0  0  0  0  0
   -4.0550   22.7860  -31.0430 C   0  0  0  0  0  0  0  0  0  0  0  0
   -2.6270   22.3580  -31.2290 C   0  0  0  0  0  0  0  0  0  0  0  0
   -3.1386   24.8520  -28.0291 H   0  0  0  0  0  0  0  0  0  0  0  0
   -2.2275   23.6143  -28.9590 H   0  0  0  0  0  0  0  0  0  0  0  0
   -1.6760   25.3238  -28.9590 H   0  0  0  0  0  0  0  0  0  0  0  0
   -6.0929   25.6220  -28.6336 H   0  0  0  0  0  0  0  0  0  0  0  0
   -5.4131   26.4751  -30.0608 H   0  0  0  0  0  0  0  0  0  0  0  0
   -7.1320   25.9536  -30.0608 H   0  0  0  0  0  0  0  0  0  0  0  0
   -9.0777   22.7855  -31.2473 H   0  0  0  0  0  0  0  0  0  0  0  0
  -10.8662   21.2165  -32.0198 H   0  0  0  0  0  0  0  0  0  0  0  0
  -10.2418   18.9838  -32.9592 H   0  0  0  0  0  0  0  0  0  0  0  0
   -7.8265   18.3491  -33.1132 H   0  0  0  0  0  0  0  0  0  0  0  0
   -4.8180   21.0460  -31.8930 H   0  0  0  0  0  0  0  0  0  0  0  0
   -2.1555   22.2167  -30.2453 H   0  0  0  0  0  0  0  0  0  0  0  0
   -2.5978   21.4116  -31.7890 H   0  0  0  0  0  0  0  0  0  0  0  0
   -2.0821   23.1323  -31.7890 H   0  0  0  0  0  0  0  0  0  0  0  0
  1  2  1  0
  2  3  1  0
  3  4  2  0
  4  5  1  0
  4  6  1  0
  6  7  2  0
  7  8  1  0
  8  9  2  0
  9 10  1  0
 10 11  2  0
 11 12  1  0
 12 13  2  0
  7 14  1  0
 14 15  2  0
 15 16  1  0
 15  3  1  0
 13  8  1  0
  1 17  1  0
  1 18  1  0
  1 19  1  0
  5 20  1  0
  5 21  1  0
  5 22  1  0
  9 23  1  0
 10 24  1  0
 11 25  1  0
 12 26  1  0
 14 27  1  0
 16 28  1  0
 16 29  1  0
 16 30  1  0
M  CHG  1  14   1
M  END
>  <UniqueID>  (18) 
17

>  <SMILES>  (18) 
COc1c(C)nc(-c2ccccn2)[nH+]c1C

>  <Energy>  (18) 
37.231199071902246

>  <Genealogy>  (18) 
COc1c(C)nc(-c2ccccn2)[nH+]c1C (protonated)
COc1c(C)nc(-c2ccccn2)[nH+]c1C (3D coordinates assigned)
COc1c(C)nc(-c2ccccn2)[nH+]c1C (optimized conformer: 37.231199071902246 kcal/mol)

>  <smiles>  (18) 
COc1c(C)nc(-c2ccccn2)nc1C

>  <score_type>  (18) 
oracle

>  <origin>  (18) 
adg

>  <m_score__min__energy>  (18) 
-5.8399999999999999

>  <m_primary>  (18) 
energy

$$$$
18:0
     RDKit          3D

 33 35  0  0  0  0  0  0  0  0999 V2000
   -7.2270   23.4390  -32.4030 C   0  0  0  0  0  0  0  0  0  0  0  0
   -6.7320   22.6330  -31.2880 N   0  0  0  0  0  0  0  0  0  0  0  0
   -7.6610   22.2790  -30.2150 C   0  0  0  0  0  0  0  0  0  0  0  0
   -5.3200   22.5890  -31.0250 C   0  0  0  0  0  0  0  0  0  0  0  0
   -4.7620   23.4400  -30.0580 C   0  0  0  0  0  0  0  0  0  0  0  0
   -3.3840   23.4060  -29.7800 C   0  0  0  0  0  0  0  0  0  0  0  0
   -2.7750   24.2940  -28.7620 C   0  0  0  0  0  0  0  0  0  0  0  0
   -2.9570   24.2240  -27.3770 C   0  0  0  0  0  0  0  0  0  0  0  0
   -2.1900   25.2520  -26.8790 C   0  0  0  0  0  0  0  0  0  0  0  0
   -1.9740   25.6760  -25.5700 C   0  0  0  0  0  0  0  0  0  0  0  0
   -1.1220   26.7790  -25.3720 C   0  0  0  0  0  0  0  0  0  0  0  0
   -0.5130   27.4210  -26.4760 C   0  0  0  0  0  0  0  0  0  0  0  0
    0.6410   28.9150  -26.1890 Br  0  0  0  0  0  0  0  0  0  0  0  0
   -0.7540   26.9630  -27.7860 C   0  0  0  0  0  0  0  0  0  0  0  0
   -1.6030   25.8710  -27.9470 C   0  0  0  0  0  0  0  0  0  0  0  0
   -1.9590   25.2910  -29.0650 O   0  0  0  0  0  0  0  0  0  0  0  0
   -2.5700   22.5050  -30.4880 C   0  0  0  0  0  0  0  0  0  0  0  0
   -3.1210   21.6600  -31.4530 C   0  0  0  0  0  0  0  0  0  0  0  0
   -4.4910   21.6970  -31.7270 C   0  0  0  0  0  0  0  0  0  0  0  0
   -5.1930   20.5500  -33.0920 Br  0  0  0  0  0  0  0  0  0  0  0  0
   -7.7650   24.3150  -32.0117 H   0  0  0  0  0  0  0  0  0  0  0  0
   -6.3789   23.7742  -33.0181 H   0  0  0  0  0  0  0  0  0  0  0  0
   -7.9095   22.8341  -33.0181 H   0  0  0  0  0  0  0  0  0  0  0  0
   -7.1830   22.4612  -29.2412 H   0  0  0  0  0  0  0  0  0  0  0  0
   -8.5691   22.8941  -30.2985 H   0  0  0  0  0  0  0  0  0  0  0  0
   -7.9295   21.2155  -30.2985 H   0  0  0  0  0  0  0  0  0  0  0  0
   -5.4099   24.1412  -29.5117 H   0  0  0  0  0  0  0  0  0  0  0  0
   -3.5739   23.5087  -26.8133 H   0  0  0  0  0  0  0  0  0  0  0  0
   -2.4525   25.1667  -24.7205 H   0  0  0  0  0  0  0  0  0  0  0  0
   -0.9285   27.1441  -24.3525 H   0  0  0  0  0  0  0  0  0  0  0  0
   -0.2868   27.4520  -28.6536 H   0  0  0  0  0  0  0  0  0  0  0  0
   -1.4905   22.4654  -30.2801 H   0  0  0  0  0  0  0  0  0  0  0  0
   -2.4727   20.9606  -32.0012 H   0  0  0  0  0  0  0  0  0  0  0  0
  1  2  1  0
  2  3  1  0
  2  4  1  0
  4  5  2  0
  5  6  1  0
  6  7  1  0
  7  8  2  0
  8  9  1  0
  9 10  2  0
 10 11  1  0
 11 12  2  0
 12 13  1  0
 12 14  1  0
 14 15  2  0
 15 16  1  0
  6 17  2  0
 17 18  1  0
 18 19  2  0
 19 20  1  0
 19  4  1  0
 16  7  1  0
 15  9  1  0
  1 21  1  0
  1 22  1  0
  1 23  1  0
  3 24  1  0
  3 25  1  0
  3 26  1  0
  5 27  1  0
  8 28  1  0
 10 29  1  0
 11 30  1  0
 14 31  1  0
 17 32  1  0
 18 33  1  0
M  END
>  <UniqueID>  (19) 
18

>  <SMILES>  (19) 
CN(C)c1cc(-c2cc3ccc(Br)cc3o2)ccc1Br

>  <Energy>  (19) 
74.23953575335392

>  <Genealogy>  (19) 
CN(C)c1cc(-c2cc3ccc(Br)cc3o2)ccc1Br (3D coordinates assigned)
CN(C)c1cc(-c2cc3ccc(Br)cc3o2)ccc1Br (optimized conformer: 74.23953575335392 kcal/mol)

>  <smiles>  (19) 
CN(C)c1cc(-c2cc3ccc(Br)cc3o2)ccc1Br

>  <score_type>  (19) 
oracle

>  <origin>  (19) 
adg

>  <m_score__min__energy>  (19) 
-7.3099999999999996

>  <m_primary>  (19) 
energy

$$$$
19:0
     RDKit          3D

 47 49  0  0  0  0  0  0  0  0999 V2000
   -0.9520   26.4020  -28.2000 C   0  0  0  0  0  0  0  0  0  0  0  0
   -1.7780   25.4430  -28.8510 O   0  0  0  0  0  0  0  0  0  0  0  0
   -1.7970   24.0710  -28.5490 C   0  0  0  0  0  0  0  0  0  0  0  0
   -0.6200   23.3650  -28.2260 C   0  0  0  0  0  0  0  0  0  0  0  0
   -0.6730   22.0030  -27.9260 C   0  0  0  0  0  0  0  0  0  0  0  0
   -1.8950   21.3280  -27.9430 C   0  0  0  0  0  0  0  0  0  0  0  0
   -3.0680   22.0140  -28.2620 C   0  0  0  0  0  0  0  0  0  0  0  0
   -3.0290   23.3850  -28.5700 C   0  0  0  0  0  0  0  0  0  0  0  0
   -4.3080   24.1180  -28.8960 C   0  0  0  0  0  0  0  0  0  0  0  0
   -4.3390   24.5050  -30.3250 N   0  0  0  0  0  0  0  0  0  0  0  0
   -5.5020   25.3500  -30.6670 C   0  0  0  0  0  0  0  0  0  0  0  0
   -6.8270   24.5550  -30.7140 C   0  0  0  0  0  0  0  0  0  0  0  0
   -6.6410   23.1370  -31.1150 N   0  0  0  0  0  0  0  0  0  0  0  0
   -7.8760   22.5320  -31.6750 C   0  0  0  0  0  0  0  0  0  0  0  0
   -7.7840   21.0410  -31.9420 C   0  0  0  0  0  0  0  0  0  0  0  0
   -6.8930   20.5420  -32.9100 C   0  0  0  0  0  0  0  0  0  0  0  0
   -6.8200   19.1690  -33.1650 C   0  0  0  0  0  0  0  0  0  0  0  0
   -7.6450   18.2830  -32.4670 C   0  0  0  0  0  0  0  0  0  0  0  0
   -7.5740   16.9520  -32.7170 F   0  0  0  0  0  0  0  0  0  0  0  0
   -8.5510   18.7690  -31.5220 C   0  0  0  0  0  0  0  0  0  0  0  0
   -8.6260   20.1420  -31.2640 C   0  0  0  0  0  0  0  0  0  0  0  0
   -5.4680   22.9660  -31.9930 C   0  0  0  0  0  0  0  0  0  0  0  0
   -4.1730   23.3520  -31.2490 C   0  0  0  0  0  0  0  0  0  0  0  0
   -1.0488   26.2896  -27.1100 H   0  0  0  0  0  0  0  0  0  0  0  0
    0.0961   26.2426  -28.4934 H   0  0  0  0  0  0  0  0  0  0  0  0
   -1.2649   27.4149  -28.4934 H   0  0  0  0  0  0  0  0  0  0  0  0
    0.3460   23.8910  -28.2104 H   0  0  0  0  0  0  0  0  0  0  0  0
    0.2503   21.4600  -27.6755 H   0  0  0  0  0  0  0  0  0  0  0  0
   -1.9334   20.2548  -27.7048 H   0  0  0  0  0  0  0  0  0  0  0  0
   -4.0288   21.4785  -28.2724 H   0  0  0  0  0  0  0  0  0  0  0  0
   -5.1649   23.4627  -28.6806 H   0  0  0  0  0  0  0  0  0  0  0  0
   -4.3605   25.0288  -28.2814 H   0  0  0  0  0  0  0  0  0  0  0  0
   -5.5947   26.1432  -29.9105 H   0  0  0  0  0  0  0  0  0  0  0  0
   -5.3275   25.7626  -31.6716 H   0  0  0  0  0  0  0  0  0  0  0  0
   -7.2855   24.5790  -29.7144 H   0  0  0  0  0  0  0  0  0  0  0  0
   -7.4677   25.0292  -31.4721 H   0  0  0  0  0  0  0  0  0  0  0  0
   -6.4450   22.5910  -30.2410 H   0  0  0  0  0  0  0  0  0  0  0  0
   -8.6957   22.7029  -30.9616 H   0  0  0  0  0  0  0  0  0  0  0  0
   -8.0448   23.0134  -32.6496 H   0  0  0  0  0  0  0  0  0  0  0  0
   -6.2496   21.2366  -33.4699 H   0  0  0  0  0  0  0  0  0  0  0  0
   -6.1127   18.7862  -33.9155 H   0  0  0  0  0  0  0  0  0  0  0  0
   -9.2064   18.0715  -30.9799 H   0  0  0  0  0  0  0  0  0  0  0  0
   -9.3484   20.5206  -30.5259 H   0  0  0  0  0  0  0  0  0  0  0  0
   -5.4035   21.9145  -32.3096 H   0  0  0  0  0  0  0  0  0  0  0  0
   -5.5823   23.6206  -32.8696 H   0  0  0  0  0  0  0  0  0  0  0  0
   -3.8357   22.4835  -30.6643 H   0  0  0  0  0  0  0  0  0  0  0  0
   -3.4398   23.6527  -32.0119 H   0  0  0  0  0  0  0  0  0  0  0  0
  1  2  1  0
  2  3  1  0
  3  4  2  0
  4  5  1  0
  5  6  2  0
  6  7  1  0
  7  8  2  0
  8  9  1  0
  9 10  1  0
 10 11  1  0
 11 12  1  0
 12 13  1  0
 13 14  1  0
 14 15  1  0
 15 16  2  0
 16 17  1  0
 17 18  2  0
 18 19  1  0
 18 20  1  0
 20 21  2  0
 13 22  1  0
 22 23  1  0
  8  3  1  0
 23 10  1  0
 21 15  1  0
  1 24  1  0
  1 25  1  0
  1 26  1  0
  4 27  1  0
  5 28  1  0
  6 29  1  0
  7 30  1  0
  9 31  1  0
  9 32  1  0
 11 33  1  0
 11 34  1  0
 12 35  1  0
 12 36  1  0
 13 37  1  0
 14 38  1  0
 14 39  1  0
 16 40  1  0
 17 41  1  0
 20 42  1  0
 21 43  1  0
 22 44  1  0
 22 45  1  0
 23 46  1  0
 23 47  1  0
M  CHG  1  13   1
M  END
>  <UniqueID>  (20) 
19

>  <SMILES>  (20) 
COc1ccccc1CN1CC[NH+](Cc2ccc(F)cc2)CC1

>  <Energy>  (20) 
64.44045827412137

>  <Genealogy>  (20) 
COc1ccccc1CN1CC[NH+](Cc2ccc(F)cc2)CC1 (protonated)
COc1ccccc1CN1CC[NH+](Cc2ccc(F)cc2)CC1 (3D coordinates assigned)
COc1ccccc1CN1CC[NH+](Cc2ccc(F)cc2)CC1 (nonaromatic ring conformer: 64.44045827412137 kcal/mol)

>  <smiles>  (20) 
COc1ccccc1CN1CCN(Cc2ccc(F)cc2)CC1

>  <score_type>  (20) 
oracle

>  <origin>  (20) 
adg

>  <m_score__min__energy>  (20) 
-7.6200000000000001

>  <m_primary>  (20) 
energy

$$$$
20:0
     RDKit          3D

 76 77  0  0  0  0  0  0  0  0999 V2000
   -3.9040   20.4530  -33.0030 C   0  0  0  0  0  0  0  0  0  0  0  0
   -4.1140   18.9340  -33.1060 C   0  0  0  0  0  0  0  0  0  0  0  0
   -5.5050   18.4840  -33.4540 N   0  0  0  0  0  0  0  0  0  0  0  0
   -6.2200   19.5700  -34.1820 C   0  0  0  0  0  0  0  0  0  0  0  0
   -5.3970   17.3500  -34.4380 C   0  0  0  0  0  0  0  0  0  0  0  0
   -6.3390   16.1540  -34.1870 C   0  0  0  0  0  0  0  0  0  0  0  0
   -6.2670   18.0110  -32.2410 C   0  0  0  0  0  0  0  0  0  0  0  0
   -7.2060   19.0450  -31.5600 C   0  0  0  0  0  0  0  0  0  0  0  0
   -8.6860   18.6150  -31.6220 C   0  0  0  0  0  0  0  0  0  0  0  0
   -9.4840   19.6000  -32.2520 O   0  0  0  0  0  0  0  0  0  0  0  0
   -8.7690   20.8080  -32.4150 C   0  0  0  0  0  0  0  0  0  0  0  0
   -8.9770   21.7000  -31.1860 C   0  0  0  0  0  0  0  0  0  0  0  0
   -7.9840   22.8720  -31.1070 C   0  0  0  0  0  0  0  0  0  0  0  0
   -6.5830   22.4990  -31.6240 C   0  0  0  0  0  0  0  0  0  0  0  0
   -5.6480   23.7160  -31.7230 C   0  0  0  0  0  0  0  0  0  0  0  0
   -5.1650   24.2280  -30.3590 C   0  0  0  0  0  0  0  0  0  0  0  0
   -3.7520   24.6440  -30.4370 N   0  0  0  0  0  0  0  0  0  0  0  0
   -2.8420   23.5500  -30.0660 C   0  0  0  0  0  0  0  0  0  0  0  0
   -2.9180   23.2490  -28.5510 C   0  0  0  0  0  0  0  0  0  0  0  0
   -2.3690   21.8790  -28.1660 C   0  0  0  0  0  0  0  0  0  0  0  0
   -1.0230   21.5250  -28.3880 C   0  0  0  0  0  0  0  0  0  0  0  0
   -0.5460   20.2690  -28.0010 C   0  0  0  0  0  0  0  0  0  0  0  0
   -1.3990   19.3570  -27.3780 C   0  0  0  0  0  0  0  0  0  0  0  0
   -0.9330   18.1410  -27.0010 F   0  0  0  0  0  0  0  0  0  0  0  0
   -2.7300   19.7020  -27.1340 C   0  0  0  0  0  0  0  0  0  0  0  0
   -3.2120   20.9560  -27.5190 C   0  0  0  0  0  0  0  0  0  0  0  0
   -2.2970   24.3850  -27.7530 C   0  0  0  0  0  0  0  0  0  0  0  0
   -1.2400   25.1740  -28.2530 C   0  0  0  0  0  0  0  0  0  0  0  0
   -0.7330   26.2400  -27.5040 C   0  0  0  0  0  0  0  0  0  0  0  0
   -1.2800   26.5440  -26.2570 C   0  0  0  0  0  0  0  0  0  0  0  0
   -0.7910   27.5840  -25.5360 F   0  0  0  0  0  0  0  0  0  0  0  0
   -2.3380   25.7830  -25.7550 C   0  0  0  0  0  0  0  0  0  0  0  0
   -2.8440   24.7130  -26.4970 C   0  0  0  0  0  0  0  0  0  0  0  0
   -3.8634   20.7465  -31.9437 H   0  0  0  0  0  0  0  0  0  0  0  0
   -2.9595   20.7268  -33.4958 H   0  0  0  0  0  0  0  0  0  0  0  0
   -4.7388   20.9728  -33.4958 H   0  0  0  0  0  0  0  0  0  0  0  0
   -3.4328   18.5517  -33.8805 H   0  0  0  0  0  0  0  0  0  0  0  0
   -3.9172   18.5381  -32.0987 H   0  0  0  0  0  0  0  0  0  0  0  0
   -6.6745   20.2604  -33.4562 H   0  0  0  0  0  0  0  0  0  0  0  0
   -5.5065   20.1195  -34.8136 H   0  0  0  0  0  0  0  0  0  0  0  0
   -7.0068   19.1317  -34.8136 H   0  0  0  0  0  0  0  0  0  0  0  0
   -5.6171   17.7492  -35.4391 H   0  0  0  0  0  0  0  0  0  0  0  0
   -4.3760   16.9553  -34.3295 H   0  0  0  0  0  0  0  0  0  0  0  0
   -6.4585   16.0023  -33.1041 H   0  0  0  0  0  0  0  0  0  0  0  0
   -7.3206   16.3592  -34.6390 H   0  0  0  0  0  0  0  0  0  0  0  0
   -5.9095   15.2478  -34.6390 H   0  0  0  0  0  0  0  0  0  0  0  0
   -6.8829   17.1529  -32.5480 H   0  0  0  0  0  0  0  0  0  0  0  0
   -5.4984   17.7791  -31.4890 H   0  0  0  0  0  0  0  0  0  0  0  0
   -6.9114   19.1508  -30.5055 H   0  0  0  0  0  0  0  0  0  0  0  0
   -7.1077   19.9984  -32.0999 H   0  0  0  0  0  0  0  0  0  0  0  0
   -8.7624   17.6758  -32.1895 H   0  0  0  0  0  0  0  0  0  0  0  0
   -9.0507   18.4800  -30.5930 H   0  0  0  0  0  0  0  0  0  0  0  0
   -7.6976   20.5864  -32.5291 H   0  0  0  0  0  0  0  0  0  0  0  0
   -9.1351   21.3305  -33.3111 H   0  0  0  0  0  0  0  0  0  0  0  0
   -9.9974   22.1093  -31.2208 H   0  0  0  0  0  0  0  0  0  0  0  0
   -8.8107   21.0730  -30.2976 H   0  0  0  0  0  0  0  0  0  0  0  0
   -8.3726   23.7040  -31.7126 H   0  0  0  0  0  0  0  0  0  0  0  0
   -7.8838   23.1520  -30.0480 H   0  0  0  0  0  0  0  0  0  0  0  0
   -6.1366   21.7663  -30.9356 H   0  0  0  0  0  0  0  0  0  0  0  0
   -6.6999   22.0844  -32.6361 H   0  0  0  0  0  0  0  0  0  0  0  0
   -4.7687   23.4322  -32.3199 H   0  0  0  0  0  0  0  0  0  0  0  0
   -6.2231   24.5295  -32.1894 H   0  0  0  0  0  0  0  0  0  0  0  0
   -5.7800   25.0883  -30.0563 H   0  0  0  0  0  0  0  0  0  0  0  0
   -5.2583   23.4182  -29.6204 H   0  0  0  0  0  0  0  0  0  0  0  0
   -3.5480   24.9210  -31.4270 H   0  0  0  0  0  0  0  0  0  0  0  0
   -3.1213   22.6454  -30.6260 H   0  0  0  0  0  0  0  0  0  0  0  0
   -1.8135   23.8547  -30.3095 H   0  0  0  0  0  0  0  0  0  0  0  0
   -3.9843   23.1924  -28.2868 H   0  0  0  0  0  0  0  0  0  0  0  0
   -0.3424   22.2425  -28.8695 H   0  0  0  0  0  0  0  0  0  0  0  0
    0.5039   19.9991  -28.1880 H   0  0  0  0  0  0  0  0  0  0  0  0
   -3.4006   18.9851  -26.6376 H   0  0  0  0  0  0  0  0  0  0  0  0
   -4.2591   21.2240  -27.3147 H   0  0  0  0  0  0  0  0  0  0  0  0
   -0.8111   24.9486  -29.2405 H   0  0  0  0  0  0  0  0  0  0  0  0
    0.0995   26.8408  -27.8989 H   0  0  0  0  0  0  0  0  0  0  0  0
   -2.7732   26.0264  -24.7745 H   0  0  0  0  0  0  0  0  0  0  0  0
   -3.6791   24.1199  -26.0959 H   0  0  0  0  0  0  0  0  0  0  0  0
  1  2  1  0
  2  3  1  0
  3  4  1  0
  3  5  1  0
  5  6  1  0
  3  7  1  0
  7  8  1  0
  8  9  1  0
  9 10  1  0
 10 11  1  0
 11 12  1  0
 12 13  1  0
 13 14  1  0
 14 15  1  0
 15 16  1  0
 16 17  1  0
 17 18  1  0
 18 19  1  0
 19 20  1  0
 20 21  2  0
 21 22  1  0
 22 23  2  0
 23 24  1  0
 23 25  1  0
 25 26  2  0
 19 27  1  0
 27 28  2  0
 28 29  1  0
 29 30  2  0
 30 31  1  0
 30 32  1  0
 32 33  2  0
 26 20  1  0
 33 27  1  0
  1 34  1  0
  1 35  1  0
  1 36  1  0
  2 37  1  0
  2 38  1  0
  4 39  1  0
  4 40  1  0
  4 41  1  0
  5 42  1  0
  5 43  1  0
  6 44  1  0
  6 45  1  0
  6 46  1  0
  7 47  1  0
  7 48  1  0
  8 49  1  0
  8 50  1  0
  9 51  1  0
  9 52  1  0
 11 53  1  0
 11 54  1  0
 12 55  1  0
 12 56  1  0
 13 57  1  0
 13 58  1  0
 14 59  1  0
 14 60  1  0
 15 61  1  0
 15 62  1  0
 16 63  1  0
 16 64  1  0
 17 65  1  0
 18 66  1  0
 18 67  1  0
 19 68  1  0
 21 69  1  0
 22 70  1  0
 25 71  1  0
 26 72  1  0
 28 73  1  0
 29 74  1  0
 32 75  1  0
 33 76  1  0
M  CHG  1   3   1
M  END
>  <UniqueID>  (21) 
20

>  <SMILES>  (21) 
CC[N+](C)(CC)CCCOCCCCCCNCC(c1ccc(F)cc1)c1ccc(F)cc1

>  <Energy>  (21) 
84.4328077179256

>  <Genealogy>  (21) 
CC[N+](C)(CC)CCCOCCCCCCNCC(c1ccc(F)cc1)c1ccc(F)cc1 (3D coordinates assigned)
CC[N+](C)(CC)CCCOCCCCCCNCC(c1ccc(F)cc1)c1ccc(F)cc1 (optimized conformer: 84.4328077179256 kcal/mol)

>  <smiles>  (21) 
CC[N+](C)(CC)CCCOCCCCCCNCC(c1ccc(F)cc1)c1ccc(F)cc1

>  <score_type>  (21) 
oracle

>  <origin>  (21) 
adg

>  <m_score__min__energy>  (21) 
-8.4499999999999993

>  <m_primary>  (21) 
energy

$$$$
21:0
     RDKit          3D

 63 66  0  0  0  0  0  0  0  0999 V2000
   -7.1140   19.9880  -32.8810 C   0  0  0  0  0  0  0  0  0  0  0  0
   -6.7430   21.4430  -32.6610 C   0  0  0  0  0  0  0  0  0  0  0  0
   -7.3180   21.9710  -31.4070 N   0  0  0  0  0  0  0  0  0  0  0  0
   -8.4610   21.1750  -30.9490 C   0  0  0  0  0  0  0  0  0  0  0  0
   -9.7990   21.5530  -31.6210 C   0  0  0  0  0  0  0  0  0  0  0  0
   -7.6260   23.4240  -31.4530 C   0  0  0  0  0  0  0  0  0  0  0  0
   -6.7840   24.1700  -30.4180 C   0  0  0  0  0  0  0  0  0  0  0  0
   -6.0650   23.2160  -29.5700 N   0  0  0  0  0  0  0  0  0  0  0  0
   -4.6370   23.0420  -29.7180 C   0  0  0  0  0  0  0  0  0  0  0  0
   -4.1650   22.4550  -30.8350 N   0  0  0  0  0  0  0  0  0  0  0  0
   -2.8040   22.3980  -31.0840 C   0  0  0  0  0  0  0  0  0  0  0  0
   -2.3380   21.8190  -32.3110 N   0  0  0  0  0  0  0  0  0  0  0  0
   -3.3370   21.5420  -33.3220 C   0  0  0  0  0  0  0  0  0  0  0  0
   -3.7140   20.0950  -33.0440 C   0  0  0  0  0  0  0  0  0  0  0  0
   -2.4330   19.4760  -32.4460 C   0  0  0  0  0  0  0  0  0  0  0  0
   -1.4780   20.6540  -32.2550 C   0  0  0  0  0  0  0  0  0  0  0  0
   -1.9450   23.0330  -30.2460 N   0  0  0  0  0  0  0  0  0  0  0  0
   -2.3920   23.6360  -29.1280 C   0  0  0  0  0  0  0  0  0  0  0  0
   -1.5140   24.3000  -28.3150 N   0  0  0  0  0  0  0  0  0  0  0  0
   -1.9190   24.9270  -27.1890 C   0  0  0  0  0  0  0  0  0  0  0  0
   -0.9560   25.6590  -26.4200 N   0  0  0  0  0  0  0  0  0  0  0  0
   -0.8250   27.1170  -26.4770 C   0  0  0  0  0  0  0  0  0  0  0  0
   -0.6520   27.6660  -25.0450 C   0  0  0  0  0  0  0  0  0  0  0  0
   -1.2560   26.7930  -24.1020 O   0  0  0  0  0  0  0  0  0  0  0  0
   -0.5680   25.5520  -24.0240 C   0  0  0  0  0  0  0  0  0  0  0  0
   -0.1690   24.9830  -25.4050 C   0  0  0  0  0  0  0  0  0  0  0  0
   -3.2530   24.8130  -26.7460 C   0  0  0  0  0  0  0  0  0  0  0  0
   -4.1830   24.1920  -27.5870 C   0  0  0  0  0  0  0  0  0  0  0  0
   -3.7560   23.6530  -28.8030 C   0  0  0  0  0  0  0  0  0  0  0  0
   -7.2408   19.4908  -31.9080 H   0  0  0  0  0  0  0  0  0  0  0  0
   -8.0554   19.9312  -33.4472 H   0  0  0  0  0  0  0  0  0  0  0  0
   -6.3148   19.4874  -33.4472 H   0  0  0  0  0  0  0  0  0  0  0  0
   -5.6473   21.5281  -32.6141 H   0  0  0  0  0  0  0  0  0  0  0  0
   -7.1491   22.0302  -33.4978 H   0  0  0  0  0  0  0  0  0  0  0  0
   -8.2533   20.1162  -31.1632 H   0  0  0  0  0  0  0  0  0  0  0  0
   -8.5774   21.3745  -29.8735 H   0  0  0  0  0  0  0  0  0  0  0  0
  -10.5510   21.7654  -30.8468 H   0  0  0  0  0  0  0  0  0  0  0  0
   -9.6554   22.4457  -32.2474 H   0  0  0  0  0  0  0  0  0  0  0  0
  -10.1437   20.7171  -32.2474 H   0  0  0  0  0  0  0  0  0  0  0  0
   -7.3985   23.8130  -32.4565 H   0  0  0  0  0  0  0  0  0  0  0  0
   -8.6921   23.5744  -31.2274 H   0  0  0  0  0  0  0  0  0  0  0  0
   -6.0586   24.8147  -30.9358 H   0  0  0  0  0  0  0  0  0  0  0  0
   -7.4470   24.7818  -29.7886 H   0  0  0  0  0  0  0  0  0  0  0  0
   -6.6080   22.3980  -29.1780 H   0  0  0  0  0  0  0  0  0  0  0  0
   -4.8310   22.0370  -31.5180 H   0  0  0  0  0  0  0  0  0  0  0  0
   -4.2071   22.2056  -33.2101 H   0  0  0  0  0  0  0  0  0  0  0  0
   -2.9730   21.7056  -34.3470 H   0  0  0  0  0  0  0  0  0  0  0  0
   -4.5454   20.0399  -32.3259 H   0  0  0  0  0  0  0  0  0  0  0  0
   -4.0535   19.5678  -33.9478 H   0  0  0  0  0  0  0  0  0  0  0  0
   -2.6502   18.9938  -31.4815 H   0  0  0  0  0  0  0  0  0  0  0  0
   -2.0062   18.6988  -33.0970 H   0  0  0  0  0  0  0  0  0  0  0  0
   -0.9694   20.5905  -31.2817 H   0  0  0  0  0  0  0  0  0  0  0  0
   -0.6823   20.6798  -33.0141 H   0  0  0  0  0  0  0  0  0  0  0  0
    0.0537   27.3843  -27.0824 H   0  0  0  0  0  0  0  0  0  0  0  0
   -1.7262   27.5520  -26.9338 H   0  0  0  0  0  0  0  0  0  0  0  0
    0.4207   27.7568  -24.8191 H   0  0  0  0  0  0  0  0  0  0  0  0
   -1.1375   28.6509  -24.9802 H   0  0  0  0  0  0  0  0  0  0  0  0
    0.3460   25.6969  -23.4293 H   0  0  0  0  0  0  0  0  0  0  0  0
   -1.2551   24.8285  -23.5610 H   0  0  0  0  0  0  0  0  0  0  0  0
    0.9016   25.1599  -25.5852 H   0  0  0  0  0  0  0  0  0  0  0  0
   -0.3574   23.8997  -25.4379 H   0  0  0  0  0  0  0  0  0  0  0  0
   -3.5552   25.2029  -25.7628 H   0  0  0  0  0  0  0  0  0  0  0  0
   -5.2412   24.1288  -27.2932 H   0  0  0  0  0  0  0  0  0  0  0  0
  1  2  1  0
  2  3  1  0
  3  4  1  0
  4  5  1  0
  3  6  1  0
  6  7  1  0
  7  8  1  0
  8  9  1  0
  9 10  2  0
 10 11  1  0
 11 12  1  0
 12 13  1  0
 13 14  1  0
 14 15  1  0
 15 16  1  0
 11 17  2  0
 17 18  1  0
 18 19  2  0
 19 20  1  0
 20 21  1  0
 21 22  1  0
 22 23  1  0
 23 24  1  0
 24 25  1  0
 25 26  1  0
 20 27  2  0
 27 28  1  0
 28 29  2  0
 29  9  1  0
 16 12  1  0
 29 18  1  0
 26 21  1  0
  1 30  1  0
  1 31  1  0
  1 32  1  0
  2 33  1  0
  2 34  1  0
  4 35  1  0
  4 36  1  0
  5 37  1  0
  5 38  1  0
  5 39  1  0
  6 40  1  0
  6 41  1  0
  7 42  1  0
  7 43  1  0
  8 44  1  0
 10 45  1  0
 13 46  1  0
 13 47  1  0
 14 48  1  0
 14 49  1  0
 15 50  1  0
 15 51  1  0
 16 52  1  0
 16 53  1  0
 22 54  1  0
 22 55  1  0
 23 56  1  0
 23 57  1  0
 25 58  1  0
 25 59  1  0
 26 60  1  0
 26 61  1  0
 27 62  1  0
 28 63  1  0
M  CHG  1  10   1
M  END
>  <UniqueID>  (22) 
21

>  <SMILES>  (22) 
CCN(CC)CCNc1[nH+]c(N2CCCC2)nc2nc(N3CCOCC3)ccc12

>  <Energy>  (22) 
108.94249536220397

>  <Genealogy>  (22) 
CCN(CC)CCNc1[nH+]c(N2CCCC2)nc2nc(N3CCOCC3)ccc12 (protonated)
CCN(CC)CCNc1[nH+]c(N2CCCC2)nc2nc(N3CCOCC3)ccc12 (3D coordinates assigned)
CCN(CC)CCNc1[nH+]c(N2CCCC2)nc2nc(N3CCOCC3)ccc12 (nonaromatic ring conformer: 108.94249536220397 kcal/mol)

>  <smiles>  (22) 
CCN(CC)CCNc1nc(N2CCCC2)nc2nc(N3CCOCC3)ccc12

>  <score_type>  (22) 
oracle

>  <origin>  (22) 
adg

>  <m_score__min__energy>  (22) 
-7.3099999999999996

>  <m_primary>  (22) 
energy

$$$$
22:0
     RDKit          3D

 50 53  0  0  0  0  0  0  0  0999 V2000
   -5.0680   25.1570  -30.4230 C   0  0  0  0  0  0  0  0  0  0  0  0
   -3.8280   24.3620  -30.4510 N   0  0  0  0  0  0  0  0  0  0  0  0
   -3.1010   24.5530  -29.1840 C   0  0  0  0  0  0  0  0  0  0  0  0
   -4.1410   22.9340  -30.6730 C   0  0  0  0  0  0  0  0  0  0  0  0
   -3.4850   22.4330  -31.9660 C   0  0  0  0  0  0  0  0  0  0  0  0
   -4.4930   22.1280  -32.9840 N   0  0  0  0  0  0  0  0  0  0  0  0
   -5.5110   21.1360  -32.7710 C   0  0  0  0  0  0  0  0  0  0  0  0
   -5.2100   19.7750  -32.9530 C   0  0  0  0  0  0  0  0  0  0  0  0
   -6.2370   18.8090  -32.8660 C   0  0  0  0  0  0  0  0  0  0  0  0
   -7.4780   19.1780  -32.3770 N   0  0  0  0  0  0  0  0  0  0  0  0
   -8.3980   18.1590  -31.8320 C   0  0  0  0  0  0  0  0  0  0  0  0
   -7.8210   20.5150  -32.2970 C   0  0  0  0  0  0  0  0  0  0  0  0
   -9.1580   20.9290  -32.0720 C   0  0  0  0  0  0  0  0  0  0  0  0
   -9.4760   22.2780  -31.9160 C   0  0  0  0  0  0  0  0  0  0  0  0
   -8.4790   23.2430  -31.9810 C   0  0  0  0  0  0  0  0  0  0  0  0
   -7.1640   22.8700  -32.2460 C   0  0  0  0  0  0  0  0  0  0  0  0
   -6.8260   21.5150  -32.4540 C   0  0  0  0  0  0  0  0  0  0  0  0
   -5.9370   17.4280  -33.4010 C   0  0  0  0  0  0  0  0  0  0  0  0
   -6.8720   16.4350  -33.3730 N   0  0  0  0  0  0  0  0  0  0  0  0
   -6.6490   15.1970  -33.8830 C   0  0  0  0  0  0  0  0  0  0  0  0
   -5.4310   14.9030  -34.4910 C   0  0  0  0  0  0  0  0  0  0  0  0
   -4.4600   15.8960  -34.5800 C   0  0  0  0  0  0  0  0  0  0  0  0
   -4.6990   17.1670  -34.0380 C   0  0  0  0  0  0  0  0  0  0  0  0
   -3.7030   18.2680  -34.2620 C   0  0  0  0  0  0  0  0  0  0  0  0
   -3.7840   19.3080  -33.1500 C   0  0  0  0  0  0  0  0  0  0  0  0
   -5.3600   25.3442  -29.3791 H   0  0  0  0  0  0  0  0  0  0  0  0
   -4.9002   26.1163  -30.9345 H   0  0  0  0  0  0  0  0  0  0  0  0
   -5.8697   24.6041  -30.9345 H   0  0  0  0  0  0  0  0  0  0  0  0
   -3.7827   24.3739  -28.3395 H   0  0  0  0  0  0  0  0  0  0  0  0
   -2.2605   23.8452  -29.1332 H   0  0  0  0  0  0  0  0  0  0  0  0
   -2.7169   25.5825  -29.1332 H   0  0  0  0  0  0  0  0  0  0  0  0
   -3.7636   22.3448  -29.8242 H   0  0  0  0  0  0  0  0  0  0  0  0
   -5.2315   22.8191  -30.7606 H   0  0  0  0  0  0  0  0  0  0  0  0
   -2.8093   23.2110  -32.3510 H   0  0  0  0  0  0  0  0  0  0  0  0
   -2.9260   21.5128  -31.7407 H   0  0  0  0  0  0  0  0  0  0  0  0
   -4.5170   22.6940  -33.8620 H   0  0  0  0  0  0  0  0  0  0  0  0
   -8.3699   18.1901  -30.7328 H   0  0  0  0  0  0  0  0  0  0  0  0
   -9.4212   18.3659  -32.1787 H   0  0  0  0  0  0  0  0  0  0  0  0
   -8.0880   17.1622  -32.1787 H   0  0  0  0  0  0  0  0  0  0  0  0
   -9.9569   20.1747  -32.0196 H   0  0  0  0  0  0  0  0  0  0  0  0
  -10.5195   22.5787  -31.7410 H   0  0  0  0  0  0  0  0  0  0  0  0
   -8.7285   24.3026  -31.8230 H   0  0  0  0  0  0  0  0  0  0  0  0
   -6.3796   23.6397  -32.2939 H   0  0  0  0  0  0  0  0  0  0  0  0
   -7.4305   14.4258  -33.8161 H   0  0  0  0  0  0  0  0  0  0  0  0
   -5.2389   13.8984  -34.8958 H   0  0  0  0  0  0  0  0  0  0  0  0
   -3.5021   15.6832  -35.0771 H   0  0  0  0  0  0  0  0  0  0  0  0
   -2.6902   17.8393  -34.2813 H   0  0  0  0  0  0  0  0  0  0  0  0
   -3.9303   18.7586  -35.2199 H   0  0  0  0  0  0  0  0  0  0  0  0
   -3.4176   18.8632  -32.2130 H   0  0  0  0  0  0  0  0  0  0  0  0
   -3.1655   20.1732  -33.4310 H   0  0  0  0  0  0  0  0  0  0  0  0
  1  2  1  0
  2  3  1  0
  2  4  1  0
  4  5  1  0
  5  6  1  0
  6  7  1  0
  7  8  2  0
  8  9  1  0
  9 10  2  0
 10 11  1  0
 10 12  1  0
 12 13  2  0
 13 14  1  0
 14 15  2  0
 15 16  1  0
 16 17  2  0
  9 18  1  0
 18 19  2  0
 19 20  1  0
 20 21  2  0
 21 22  1  0
 22 23  2  0
 23 24  1  0
 24 25  1  0
 17  7  1  0
 23 18  1  0
 25  8  1  0
 17 12  1  0
  1 26  1  0
  1 27  1  0
  1 28  1  0
  3 29  1  0
  3 30  1  0
  3 31  1  0
  4 32  1  0
  4 33  1  0
  5 34  1  0
  5 35  1  0
  6 36  1  0
 11 37  1  0
 11 38  1  0
 11 39  1  0
 13 40  1  0
 14 41  1  0
 15 42  1  0
 16 43  1  0
 20 44  1  0
 21 45  1  0
 22 46  1  0
 24 47  1  0
 24 48  1  0
 25 49  1  0
 25 50  1  0
M  CHG  1  10   1
M  END
>  <UniqueID>  (23) 
22

>  <SMILES>  (23) 
CN(C)CCNc1c2c([n+](C)c3ccccc13)-c1ncccc1CC2

>  <Energy>  (23) 
83.83315926788727

>  <Genealogy>  (23) 
CN(C)CCNc1c2c([n+](C)c3ccccc13)-c1ncccc1CC2 (3D coordinates assigned)
CN(C)CCNc1c2c([n+](C)c3ccccc13)-c1ncccc1CC2 (nonaromatic ring conformer: 83.83315926788727 kcal/mol)

>  <smiles>  (23) 
CN(C)CCNc1c2c([n+](C)c3ccccc13)-c1ncccc1CC2

>  <score_type>  (23) 
oracle

>  <origin>  (23) 
adg

>  <m_score__min__energy>  (23) 
-8.7899999999999991

>  <m_primary>  (23) 
energy

$$$$
23:0
     RDKit          3D

 77 79  0  0  0  0  0  0  0  0999 V2000
    0.2210   17.8850  -27.9290 C   0  0  0  0  0  0  0  0  0  0  0  0
    0.5980   19.2230  -28.5590 C   0  0  0  0  0  0  0  0  0  0  0  0
   -0.5450   20.1660  -28.5050 N   0  0  0  0  0  0  0  0  0  0  0  0
   -1.6450   19.6300  -27.6700 C   0  0  0  0  0  0  0  0  0  0  0  0
   -2.7540   20.6880  -27.5100 C   0  0  0  0  0  0  0  0  0  0  0  0
   -2.5640   21.8240  -28.4410 N   0  0  0  0  0  0  0  0  0  0  0  0
   -3.7300   22.7380  -28.3590 C   0  0  0  0  0  0  0  0  0  0  0  0
   -3.3280   24.2000  -28.0750 C   0  0  0  0  0  0  0  0  0  0  0  0
   -2.7740   24.9200  -29.2720 C   0  0  0  0  0  0  0  0  0  0  0  0
   -1.5550   25.2470  -29.3350 O   0  0  0  0  0  0  0  0  0  0  0  0
   -3.6630   25.2930  -30.3280 N   0  0  0  0  0  0  0  0  0  0  0  0
   -4.8420   24.5530  -30.6570 C   0  0  0  0  0  0  0  0  0  0  0  0
   -6.0900   25.0180  -30.2310 C   0  0  0  0  0  0  0  0  0  0  0  0
   -7.2410   24.2810  -30.5050 C   0  0  0  0  0  0  0  0  0  0  0  0
   -7.1560   23.0640  -31.1860 C   0  0  0  0  0  0  0  0  0  0  0  0
   -5.9020   22.5580  -31.5860 C   0  0  0  0  0  0  0  0  0  0  0  0
   -5.7880   21.2160  -32.2200 C   0  0  0  0  0  0  0  0  0  0  0  0
   -6.9330   20.4650  -32.5320 C   0  0  0  0  0  0  0  0  0  0  0  0
   -6.8190   19.2480  -33.2060 C   0  0  0  0  0  0  0  0  0  0  0  0
   -5.5540   18.7540  -33.5820 C   0  0  0  0  0  0  0  0  0  0  0  0
   -5.3970   17.5660  -34.3150 O   0  0  0  0  0  0  0  0  0  0  0  0
   -4.6420   17.4300  -35.5190 C   0  0  0  0  0  0  0  0  0  0  0  0
   -3.5430   16.3690  -35.3450 C   0  0  0  0  0  0  0  0  0  0  0  0
   -3.0830   16.2260  -33.9370 N   0  0  0  0  0  0  0  0  0  0  0  0
   -3.6840   15.0810  -33.1980 C   0  0  0  0  0  0  0  0  0  0  0  0
   -4.8910   15.4340  -32.3220 C   0  0  0  0  0  0  0  0  0  0  0  0
   -1.6010   16.3100  -33.7810 C   0  0  0  0  0  0  0  0  0  0  0  0
   -1.1110   16.7690  -32.3990 C   0  0  0  0  0  0  0  0  0  0  0  0
   -4.4020   19.4710  -33.2340 C   0  0  0  0  0  0  0  0  0  0  0  0
   -3.1520   18.9350  -33.5810 O   0  0  0  0  0  0  0  0  0  0  0  0
   -1.9900   19.7140  -33.8450 C   0  0  0  0  0  0  0  0  0  0  0  0
   -4.5260   20.7040  -32.5670 C   0  0  0  0  0  0  0  0  0  0  0  0
   -4.7510   23.3250  -31.3290 C   0  0  0  0  0  0  0  0  0  0  0  0
   -2.3480   21.3150  -29.8110 C   0  0  0  0  0  0  0  0  0  0  0  0
   -1.0610   20.4530  -29.8640 C   0  0  0  0  0  0  0  0  0  0  0  0
    0.2465   17.9756  -26.8330 H   0  0  0  0  0  0  0  0  0  0  0  0
   -0.7921   17.6011  -28.2499 H   0  0  0  0  0  0  0  0  0  0  0  0
    0.9369   17.1139  -28.2499 H   0  0  0  0  0  0  0  0  0  0  0  0
    1.4484   19.6540  -28.0104 H   0  0  0  0  0  0  0  0  0  0  0  0
    0.8698   19.0552  -29.6116 H   0  0  0  0  0  0  0  0  0  0  0  0
   -2.0639   18.7342  -28.1518 H   0  0  0  0  0  0  0  0  0  0  0  0
   -1.2491   19.3711  -26.6769 H   0  0  0  0  0  0  0  0  0  0  0  0
   -3.7274   20.2182  -27.7144 H   0  0  0  0  0  0  0  0  0  0  0  0
   -2.7126   21.0761  -26.4816 H   0  0  0  0  0  0  0  0  0  0  0  0
   -4.2718   22.7025  -29.3157 H   0  0  0  0  0  0  0  0  0  0  0  0
   -4.3566   22.3992  -27.5208 H   0  0  0  0  0  0  0  0  0  0  0  0
   -4.2185   24.7429  -27.7252 H   0  0  0  0  0  0  0  0  0  0  0  0
   -2.5287   24.1716  -27.3199 H   0  0  0  0  0  0  0  0  0  0  0  0
   -6.1636   25.9666  -29.6790 H   0  0  0  0  0  0  0  0  0  0  0  0
   -8.2222   24.6599  -30.1831 H   0  0  0  0  0  0  0  0  0  0  0  0
   -8.0718   22.4978  -31.4112 H   0  0  0  0  0  0  0  0  0  0  0  0
   -7.9266   20.8384  -32.2432 H   0  0  0  0  0  0  0  0  0  0  0  0
   -7.7238   18.6700  -33.4455 H   0  0  0  0  0  0  0  0  0  0  0  0
   -5.3134   17.1259  -36.3355 H   0  0  0  0  0  0  0  0  0  0  0  0
   -4.1716   18.3956  -35.7564 H   0  0  0  0  0  0  0  0  0  0  0  0
   -3.9364   15.3994  -35.6843 H   0  0  0  0  0  0  0  0  0  0  0  0
   -2.6771   16.6950  -35.9400 H   0  0  0  0  0  0  0  0  0  0  0  0
   -3.4420   17.0840  -33.4440 H   0  0  0  0  0  0  0  0  0  0  0  0
   -4.0059   14.3309  -33.9353 H   0  0  0  0  0  0  0  0  0  0  0  0
   -2.9047   14.7158  -32.5129 H   0  0  0  0  0  0  0  0  0  0  0  0
   -4.6108   15.3521  -31.2614 H   0  0  0  0  0  0  0  0  0  0  0  0
   -5.2121   16.4637  -32.5379 H   0  0  0  0  0  0  0  0  0  0  0  0
   -5.7164   14.7396  -32.5379 H   0  0  0  0  0  0  0  0  0  0  0  0
   -1.1817   15.3119  -33.9759 H   0  0  0  0  0  0  0  0  0  0  0  0
   -1.2632   17.0769  -34.4935 H   0  0  0  0  0  0  0  0  0  0  0  0
   -1.6749   16.2408  -31.6160 H   0  0  0  0  0  0  0  0  0  0  0  0
   -0.0397   16.5419  -32.2958 H   0  0  0  0  0  0  0  0  0  0  0  0
   -1.2677   17.8529  -32.2958 H   0  0  0  0  0  0  0  0  0  0  0  0
   -1.5310   20.0217  -32.8939 H   0  0  0  0  0  0  0  0  0  0  0  0
   -1.2705   19.1151  -34.4225 H   0  0  0  0  0  0  0  0  0  0  0  0
   -2.2707   20.6071  -34.4225 H   0  0  0  0  0  0  0  0  0  0  0  0
   -3.6212   21.2758  -32.3133 H   0  0  0  0  0  0  0  0  0  0  0  0
   -3.7681   22.9575  -31.6589 H   0  0  0  0  0  0  0  0  0  0  0  0
   -3.2097   20.7004  -30.1105 H   0  0  0  0  0  0  0  0  0  0  0  0
   -2.2382   22.1672  -30.4978 H   0  0  0  0  0  0  0  0  0  0  0  0
   -1.2878   19.5023  -30.3687 H   0  0  0  0  0  0  0  0  0  0  0  0
   -0.2915   21.0140  -30.4147 H   0  0  0  0  0  0  0  0  0  0  0  0
  1  2  1  0
  2  3  1  0
  3  4  1  0
  4  5  1  0
  5  6  1  0
  6  7  1  0
  7  8  1  0
  8  9  1  0
  9 10  2  0
  9 11  1  0
 11 12  1  0
 12 13  2  0
 13 14  1  0
 14 15  2  0
 15 16  1  0
 16 17  1  0
 17 18  2  0
 18 19  1  0
 19 20  2  0
 20 21  1  0
 21 22  1  0
 22 23  1  0
 23 24  1  0
 24 25  1  0
 25 26  1  0
 24 27  1  0
 27 28  1  0
 20 29  1  0
 29 30  1  0
 30 31  1  0
 29 32  2  0
 16 33  2  0
  6 34  1  0
 34 35  1  0
 35  3  1  0
 33 12  1  0
 32 17  1  0
  1 36  1  0
  1 37  1  0
  1 38  1  0
  2 39  1  0
  2 40  1  0
  4 41  1  0
  4 42  1  0
  5 43  1  0
  5 44  1  0
  7 45  1  0
  7 46  1  0
  8 47  1  0
  8 48  1  0
 13 49  1  0
 14 50  1  0
 15 51  1  0
 18 52  1  0
 19 53  1  0
 22 54  1  0
 22 55  1  0
 23 56  1  0
 23 57  1  0
 24 58  1  0
 25 59  1  0
 25 60  1  0
 26 61  1  0
 26 62  1  0
 26 63  1  0
 27 64  1  0
 27 65  1  0
 28 66  1  0
 28 67  1  0
 28 68  1  0
 31 69  1  0
 31 70  1  0
 31 71  1  0
 32 72  1  0
 33 73  1  0
 34 74  1  0
 34 75  1  0
 35 76  1  0
 35 77  1  0
M  CHG  2  11  -1  24   1
M  END
>  <UniqueID>  (24) 
23

>  <SMILES>  (24) 
CCN1CCN(CCC(=O)[N-]c2cccc(-c3ccc(OCC[NH+](CC)CC)c(OC)c3)c2)CC1

>  <Energy>  (24) 
99.4226166164722

>  <Genealogy>  (24) 
CCN1CCN(CCC(=O)[N-]c2cccc(-c3ccc(OCC[NH+](CC)CC)c(OC)c3)c2)CC1 (protonated)
CCN1CCN(CCC(=O)[N-]c2cccc(-c3ccc(OCC[NH+](CC)CC)c(OC)c3)c2)CC1 (3D coordinates assigned)
CCN1CCN(CCC(=O)[N-]c2cccc(-c3ccc(OCC[NH+](CC)CC)c(OC)c3)c2)CC1 (nonaromatic ring conformer: 99.4226166164722 kcal/mol)

>  <smiles>  (24) 
CCN(CC)CCOc1ccc(-c2cccc(NC(=O)CCN3CCN(CC)CC3)c2)cc1OC

>  <score_type>  (24) 
oracle

>  <origin>  (24) 
adg

>  <m_score__min__energy>  (24) 
-9.5800000000000001

>  <m_primary>  (24) 
energy

$$$$
24:0
     RDKit          3D

 39 40  0  0  0  0  0  0  0  0999 V2000
   -1.1620   22.4090  -30.1750 C   0  0  0  0  0  0  0  0  0  0  0  0
   -2.3520   23.0180  -29.5550 N   0  0  0  0  0  0  0  0  0  0  0  0
   -3.5130   22.9270  -30.4710 C   0  0  0  0  0  0  0  0  0  0  0  0
   -4.3830   24.1560  -30.3680 C   0  0  0  0  0  0  0  0  0  0  0  0
   -3.8470   25.2930  -30.4890 O   0  0  0  0  0  0  0  0  0  0  0  0
   -5.7920   24.0630  -30.0620 N   0  0  0  0  0  0  0  0  0  0  0  0
   -6.4180   22.7670  -29.7790 C   0  0  0  0  0  0  0  0  0  0  0  0
   -6.5920   25.2910  -30.0140 C   0  0  0  0  0  0  0  0  0  0  0  0
   -2.6400   22.3550  -28.2660 C   0  0  0  0  0  0  0  0  0  0  0  0
   -1.9480   23.0740  -27.1380 C   0  0  0  0  0  0  0  0  0  0  0  0
   -1.0360   22.3970  -26.3110 C   0  0  0  0  0  0  0  0  0  0  0  0
   -0.4060   23.0630  -25.2570 C   0  0  0  0  0  0  0  0  0  0  0  0
   -0.6800   24.4160  -25.0110 C   0  0  0  0  0  0  0  0  0  0  0  0
   -0.0710   25.0730  -23.9820 N   0  0  0  0  0  0  0  0  0  0  0  0
   -0.3250   26.3870  -23.7280 C   0  0  0  0  0  0  0  0  0  0  0  0
   -1.2260   27.0980  -24.5240 C   0  0  0  0  0  0  0  0  0  0  0  0
   -1.8650   26.4530  -25.5840 C   0  0  0  0  0  0  0  0  0  0  0  0
   -1.5980   25.1030  -25.8390 C   0  0  0  0  0  0  0  0  0  0  0  0
   -2.2260   24.4290  -26.8970 C   0  0  0  0  0  0  0  0  0  0  0  0
   -0.4775   22.0587  -29.3884 H   0  0  0  0  0  0  0  0  0  0  0  0
   -1.4693   21.5573  -30.7997 H   0  0  0  0  0  0  0  0  0  0  0  0
   -0.6509   23.1564  -30.7997 H   0  0  0  0  0  0  0  0  0  0  0  0
   -3.1487   22.8301  -31.5044 H   0  0  0  0  0  0  0  0  0  0  0  0
   -4.1130   22.0492  -30.1890 H   0  0  0  0  0  0  0  0  0  0  0  0
   -6.4875   22.6232  -28.6907 H   0  0  0  0  0  0  0  0  0  0  0  0
   -7.4267   22.7436  -30.2171 H   0  0  0  0  0  0  0  0  0  0  0  0
   -5.8093   21.9623  -30.2171 H   0  0  0  0  0  0  0  0  0  0  0  0
   -6.7735   25.5696  -28.9655 H   0  0  0  0  0  0  0  0  0  0  0  0
   -6.0488   26.1025  -30.5203 H   0  0  0  0  0  0  0  0  0  0  0  0
   -7.5538   25.1220  -30.5203 H   0  0  0  0  0  0  0  0  0  0  0  0
   -3.7256   22.3635  -28.0890 H   0  0  0  0  0  0  0  0  0  0  0  0
   -2.2712   21.3195  -28.3078 H   0  0  0  0  0  0  0  0  0  0  0  0
   -0.8165   21.3349  -26.4948 H   0  0  0  0  0  0  0  0  0  0  0  0
    0.3081   22.5237  -24.6173 H   0  0  0  0  0  0  0  0  0  0  0  0
    0.6090   24.5700  -23.3660 H   0  0  0  0  0  0  0  0  0  0  0  0
    0.1820   26.8907  -22.8918 H   0  0  0  0  0  0  0  0  0  0  0  0
   -1.4305   28.1588  -24.3169 H   0  0  0  0  0  0  0  0  0  0  0  0
   -2.5762   27.0039  -26.2170 H   0  0  0  0  0  0  0  0  0  0  0  0
   -2.9394   24.9645  -27.5407 H   0  0  0  0  0  0  0  0  0  0  0  0
  1  2  1  0
  2  3  1  0
  3  4  1  0
  4  5  2  0
  4  6  1  0
  6  7  1  0
  6  8  1  0
  2  9  1  0
  9 10  1  0
 10 11  2  0
 11 12  1  0
 12 13  2  0
 13 14  1  0
 14 15  2  0
 15 16  1  0
 16 17  2  0
 17 18  1  0
 18 19  2  0
 19 10  1  0
 18 13  1  0
  1 20  1  0
  1 21  1  0
  1 22  1  0
  3 23  1  0
  3 24  1  0
  7 25  1  0
  7 26  1  0
  7 27  1  0
  8 28  1  0
  8 29  1  0
  8 30  1  0
  9 31  1  0
  9 32  1  0
 11 33  1  0
 12 34  1  0
 14 35  1  0
 15 36  1  0
 16 37  1  0
 17 38  1  0
 19 39  1  0
M  CHG  1  14   1
M  END
>  <UniqueID>  (25) 
24

>  <SMILES>  (25) 
CN(CC(=O)N(C)C)Cc1ccc2[nH+]cccc2c1

>  <Energy>  (25) 
40.34593670867824

>  <Genealogy>  (25) 
CN(CC(=O)N(C)C)Cc1ccc2[nH+]cccc2c1 (protonated)
CN(CC(=O)N(C)C)Cc1ccc2[nH+]cccc2c1 (3D coordinates assigned)
CN(CC(=O)N(C)C)Cc1ccc2[nH+]cccc2c1 (optimized conformer: 40.34593670867824 kcal/mol)

>  <smiles>  (25) 
CN(CC(=O)N(C)C)Cc1ccc2ncccc2c1

>  <score_type>  (25) 
oracle

>  <origin>  (25) 
adg

>  <m_score__min__energy>  (25) 
-7.2300000000000004

>  <m_primary>  (25) 
energy

$$$$
25:0
     RDKit          3D

 58 61  0  0  0  0  0  0  0  0999 V2000
   -0.7040   18.5860  -34.6560 C   0  0  0  0  0  0  0  0  0  0  0  0
   -0.0190   19.8120  -35.2770 C   0  0  0  0  0  0  0  0  0  0  0  0
   -0.4780   21.1010  -34.7090 N   0  0  0  0  0  0  0  0  0  0  0  0
    0.1740   22.2610  -35.3590 C   0  0  0  0  0  0  0  0  0  0  0  0
    1.6950   22.1420  -35.3100 C   0  0  0  0  0  0  0  0  0  0  0  0
   -0.4090   21.1330  -33.2260 C   0  0  0  0  0  0  0  0  0  0  0  0
   -1.7720   20.7770  -32.6230 C   0  0  0  0  0  0  0  0  0  0  0  0
   -2.8210   20.7710  -33.6420 N   0  0  0  0  0  0  0  0  0  0  0  0
   -4.1710   20.4440  -33.2820 C   0  0  0  0  0  0  0  0  0  0  0  0
   -4.7520   19.2480  -33.7270 C   0  0  0  0  0  0  0  0  0  0  0  0
   -4.0640   18.3910  -34.6110 C   0  0  0  0  0  0  0  0  0  0  0  0
   -4.6430   17.1970  -35.0350 C   0  0  0  0  0  0  0  0  0  0  0  0
   -5.9130   16.8410  -34.5910 C   0  0  0  0  0  0  0  0  0  0  0  0
   -6.6090   17.6750  -33.7160 C   0  0  0  0  0  0  0  0  0  0  0  0
   -6.0420   18.8910  -33.2620 C   0  0  0  0  0  0  0  0  0  0  0  0
   -6.7120   19.7150  -32.3810 N   0  0  0  0  0  0  0  0  0  0  0  0
   -7.7590   19.1280  -31.5190 C   0  0  0  0  0  0  0  0  0  0  0  0
   -6.2680   21.0090  -32.1670 C   0  0  0  0  0  0  0  0  0  0  0  0
   -7.0980   22.0320  -31.6090 C   0  0  0  0  0  0  0  0  0  0  0  0
   -8.6070   21.9710  -31.7430 C   0  0  0  0  0  0  0  0  0  0  0  0
   -6.5000   23.2100  -31.0860 C   0  0  0  0  0  0  0  0  0  0  0  0
   -7.2370   24.1560  -30.3370 C   0  0  0  0  0  0  0  0  0  0  0  0
   -6.6250   25.3130  -29.8510 C   0  0  0  0  0  0  0  0  0  0  0  0
   -5.2740   25.5510  -30.0990 C   0  0  0  0  0  0  0  0  0  0  0  0
   -4.5270   24.6300  -30.8330 C   0  0  0  0  0  0  0  0  0  0  0  0
   -5.1280   23.4580  -31.3230 C   0  0  0  0  0  0  0  0  0  0  0  0
   -4.3780   22.5560  -32.0760 C   0  0  0  0  0  0  0  0  0  0  0  0
   -4.9330   21.3430  -32.5120 C   0  0  0  0  0  0  0  0  0  0  0  0
   -0.6630   18.6594  -33.5592 H   0  0  0  0  0  0  0  0  0  0  0  0
   -1.7539   18.5483  -34.9820 H   0  0  0  0  0  0  0  0  0  0  0  0
   -0.1858   17.6721  -34.9820 H   0  0  0  0  0  0  0  0  0  0  0  0
    1.0650   19.7256  -35.1111 H   0  0  0  0  0  0  0  0  0  0  0  0
   -0.2803   19.8199  -36.3455 H   0  0  0  0  0  0  0  0  0  0  0  0
   -0.1478   22.3105  -36.4097 H   0  0  0  0  0  0  0  0  0  0  0  0
   -0.1204   23.1726  -34.8183 H   0  0  0  0  0  0  0  0  0  0  0  0
    2.0272   22.1160  -34.2617 H   0  0  0  0  0  0  0  0  0  0  0  0
    2.0069   21.2167  -35.8165 H   0  0  0  0  0  0  0  0  0  0  0  0
    2.1470   23.0075  -35.8165 H   0  0  0  0  0  0  0  0  0  0  0  0
    0.3413   20.4060  -32.8818 H   0  0  0  0  0  0  0  0  0  0  0  0
   -0.1279   22.1460  -32.9024 H   0  0  0  0  0  0  0  0  0  0  0  0
   -1.7113   19.7783  -32.1659 H   0  0  0  0  0  0  0  0  0  0  0  0
   -2.0261   21.5365  -31.8690 H   0  0  0  0  0  0  0  0  0  0  0  0
   -2.6540   21.1920  -34.5830 H   0  0  0  0  0  0  0  0  0  0  0  0
   -3.0613   18.6679  -34.9688 H   0  0  0  0  0  0  0  0  0  0  0  0
   -4.0956   16.5346  -35.7217 H   0  0  0  0  0  0  0  0  0  0  0  0
   -6.3691   15.8995  -34.9310 H   0  0  0  0  0  0  0  0  0  0  0  0
   -7.6130   17.3841  -33.3735 H   0  0  0  0  0  0  0  0  0  0  0  0
   -7.4911   19.2782  -30.4627 H   0  0  0  0  0  0  0  0  0  0  0  0
   -8.7218   19.6179  -31.7263 H   0  0  0  0  0  0  0  0  0  0  0  0
   -7.8434   18.0510  -31.7263 H   0  0  0  0  0  0  0  0  0  0  0  0
   -9.0635   21.9525  -30.7424 H   0  0  0  0  0  0  0  0  0  0  0  0
   -8.9624   22.8555  -32.2919 H   0  0  0  0  0  0  0  0  0  0  0  0
   -8.8899   21.0607  -32.2919 H   0  0  0  0  0  0  0  0  0  0  0  0
   -8.3037   23.9786  -30.1351 H   0  0  0  0  0  0  0  0  0  0  0  0
   -7.2114   26.0399  -29.2699 H   0  0  0  0  0  0  0  0  0  0  0  0
   -4.7972   26.4652  -29.7158 H   0  0  0  0  0  0  0  0  0  0  0  0
   -3.4618   24.8220  -31.0294 H   0  0  0  0  0  0  0  0  0  0  0  0
   -3.3361   22.7985  -32.3322 H   0  0  0  0  0  0  0  0  0  0  0  0
  1  2  1  0
  2  3  1  0
  3  4  1  0
  4  5  1  0
  3  6  1  0
  6  7  1  0
  7  8  1  0
  8  9  1  0
  9 10  2  0
 10 11  1  0
 11 12  2  0
 12 13  1  0
 13 14  2  0
 14 15  1  0
 15 16  2  0
 16 17  1  0
 16 18  1  0
 18 19  2  0
 19 20  1  0
 19 21  1  0
 21 22  2  0
 22 23  1  0
 23 24  2  0
 24 25  1  0
 25 26  2  0
 26 27  1  0
 27 28  2  0
 28  9  1  0
 15 10  1  0
 28 18  1  0
 26 21  1  0
  1 29  1  0
  1 30  1  0
  1 31  1  0
  2 32  1  0
  2 33  1  0
  4 34  1  0
  4 35  1  0
  5 36  1  0
  5 37  1  0
  5 38  1  0
  6 39  1  0
  6 40  1  0
  7 41  1  0
  7 42  1  0
  8 43  1  0
 11 44  1  0
 12 45  1  0
 13 46  1  0
 14 47  1  0
 17 48  1  0
 17 49  1  0
 17 50  1  0
 20 51  1  0
 20 52  1  0
 20 53  1  0
 22 54  1  0
 23 55  1  0
 24 56  1  0
 25 57  1  0
 27 58  1  0
M  CHG  1  16   1
M  END
>  <UniqueID>  (26) 
25

>  <SMILES>  (26) 
CCN(CC)CCNc1c2ccccc2[n+](C)c2c(C)c3ccccc3cc12

>  <Energy>  (26) 
102.48620877687935

>  <Genealogy>  (26) 
CCN(CC)CCNc1c2ccccc2[n+](C)c2c(C)c3ccccc3cc12 (3D coordinates assigned)
CCN(CC)CCNc1c2ccccc2[n+](C)c2c(C)c3ccccc3cc12 (optimized conformer: 102.48620877687935 kcal/mol)

>  <smiles>  (26) 
CCN(CC)CCNc1c2ccccc2[n+](C)c2c(C)c3ccccc3cc12

>  <score_type>  (26) 
oracle

>  <origin>  (26) 
adg

>  <m_score__min__energy>  (26) 
-9.1300000000000008

>  <m_primary>  (26) 
energy

$$$$
26:0
     RDKit          3D

 41 41  0  0  0  0  0  0  0  0999 V2000
   -6.3020   24.7490  -30.1930 C   0  0  0  0  0  0  0  0  0  0  0  0
   -5.7540   24.3650  -31.5730 C   0  0  0  0  0  0  0  0  0  0  0  0
   -6.2500   23.0480  -32.0530 N   0  0  1  0  0  0  0  0  0  0  0  0
   -5.8030   21.9150  -31.1810 C   0  0  0  0  0  0  0  0  0  0  0  0
   -4.2970   21.5200  -31.2230 C   0  0  0  0  0  0  0  0  0  0  0  0
   -3.7340   21.0790  -32.5850 C   0  0  0  0  0  0  0  0  0  0  0  0
   -3.8640   22.1130  -33.6140 N   0  0  0  0  0  0  0  0  0  0  0  0
   -7.7220   23.0450  -32.2820 C   0  0  0  0  0  0  0  0  0  0  0  0
   -8.4600   21.9690  -31.4410 C   0  0  0  0  0  0  0  0  0  0  0  0
   -9.0720   20.8410  -32.2880 C   0  0  0  0  0  0  0  0  0  0  0  0
   -8.0730   19.7670  -32.6330 C   0  0  0  0  0  0  0  0  0  0  0  0
   -8.1520   18.5010  -32.0280 C   0  0  0  0  0  0  0  0  0  0  0  0
   -7.2240   17.5060  -32.3510 C   0  0  0  0  0  0  0  0  0  0  0  0
   -6.2120   17.7670  -33.2800 C   0  0  0  0  0  0  0  0  0  0  0  0
   -6.1230   19.0250  -33.8810 C   0  0  0  0  0  0  0  0  0  0  0  0
   -7.0460   20.0240  -33.5560 C   0  0  0  0  0  0  0  0  0  0  0  0
   -5.6688   24.3053  -29.4106 H   0  0  0  0  0  0  0  0  0  0  0  0
   -6.2997   25.8441  -30.0893 H   0  0  0  0  0  0  0  0  0  0  0  0
   -7.3305   24.3730  -30.0893 H   0  0  0  0  0  0  0  0  0  0  0  0
   -6.0553   25.1371  -32.2963 H   0  0  0  0  0  0  0  0  0  0  0  0
   -4.6604   24.2896  -31.4817 H   0  0  0  0  0  0  0  0  0  0  0  0
   -5.7950   22.8830  -32.9830 H   0  0  0  0  0  0  0  0  0  0  0  0
   -6.0429   22.1855  -30.1421 H   0  0  0  0  0  0  0  0  0  0  0  0
   -6.3324   21.0350  -31.5752 H   0  0  0  0  0  0  0  0  0  0  0  0
   -3.7148   22.3913  -30.8885 H   0  0  0  0  0  0  0  0  0  0  0  0
   -4.2133   20.6342  -30.5762 H   0  0  0  0  0  0  0  0  0  0  0  0
   -2.6680   20.8366  -32.4629 H   0  0  0  0  0  0  0  0  0  0  0  0
   -4.3153   20.2061  -32.9170 H   0  0  0  0  0  0  0  0  0  0  0  0
   -4.7140   21.9180  -34.1920 H   0  0  0  0  0  0  0  0  0  0  0  0
   -3.0320   22.0900  -34.2430 H   0  0  0  0  0  0  0  0  0  0  0  0
   -8.1212   24.0346  -32.0147 H   0  0  0  0  0  0  0  0  0  0  0  0
   -7.8914   22.8093  -33.3430 H   0  0  0  0  0  0  0  0  0  0  0  0
   -7.7415   21.5246  -30.7365 H   0  0  0  0  0  0  0  0  0  0  0  0
   -9.2908   22.4743  -30.9268 H   0  0  0  0  0  0  0  0  0  0  0  0
   -9.8983   20.3850  -31.7229 H   0  0  0  0  0  0  0  0  0  0  0  0
   -9.4218   21.2855  -33.2314 H   0  0  0  0  0  0  0  0  0  0  0  0
   -8.9472   18.2919  -31.2973 H   0  0  0  0  0  0  0  0  0  0  0  0
   -7.2902   16.5171  -31.8738 H   0  0  0  0  0  0  0  0  0  0  0  0
   -5.4860   16.9818  -33.5376 H   0  0  0  0  0  0  0  0  0  0  0  0
   -5.3259   19.2300  -34.6108 H   0  0  0  0  0  0  0  0  0  0  0  0
   -6.9673   21.0157  -34.0254 H   0  0  0  0  0  0  0  0  0  0  0  0
  1  2  1  0
  2  3  1  0
  3  4  1  0
  4  5  1  0
  5  6  1  0
  6  7  1  0
  3  8  1  0
  8  9  1  0
  9 10  1  0
 10 11  1  0
 11 12  2  0
 12 13  1  0
 13 14  2  0
 14 15  1  0
 15 16  2  0
 16 11  1  0
  1 17  1  0
  1 18  1  0
  1 19  1  0
  2 20  1  0
  2 21  1  0
  3 22  1  6
  4 23  1  0
  4 24  1  0
  5 25  1  0
  5 26  1  0
  6 27  1  0
  6 28  1  0
  7 29  1  0
  7 30  1  0
  8 31  1  0
  8 32  1  0
  9 33  1  0
  9 34  1  0
 10 35  1  0
 10 36  1  0
 12 37  1  0
 13 38  1  0
 14 39  1  0
 15 40  1  0
 16 41  1  0
M  CHG  1   3   1
M  END
>  <UniqueID>  (27) 
26

>  <SMILES>  (27) 
CC[N@@H+](CCCN)CCCc1ccccc1

>  <Energy>  (27) 
43.95202179503073

>  <Genealogy>  (27) 
CC[NH+](CCCN)CCCc1ccccc1 (protonated)
CC[N@@H+](CCCN)CCCc1ccccc1 (chirality)
CC[N@@H+](CCCN)CCCc1ccccc1 (3D coordinates assigned)
CC[N@@H+](CCCN)CCCc1ccccc1 (optimized conformer: 43.95202179503073 kcal/mol)

>  <smiles>  (27) 
CCN(CCCN)CCCc1ccccc1

>  <score_type>  (27) 
oracle

>  <origin>  (27) 
adg

>  <m_score__min__energy>  (27) 
-6.29

>  <m_primary>  (27) 
energy

$$$$
27:0
     RDKit          3D

 31 33  0  0  0  0  0  0  0  0999 V2000
   -3.1870   21.1640  -33.4640 C   0  0  0  0  0  0  0  0  0  0  0  0
   -4.6490   21.1580  -33.3560 N   0  0  0  0  0  0  0  0  0  0  0  0
   -5.1330   20.9010  -31.9790 C   0  0  1  0  0  0  0  0  0  0  0  0
   -4.4130   21.8850  -31.0000 C   0  0  0  0  0  0  0  0  0  0  0  0
   -5.0830   23.2520  -31.1240 C   0  0  2  0  0  0  0  0  0  0  0  0
   -4.5170   24.4600  -30.3870 C   0  0  0  0  0  0  0  0  0  0  0  0
   -5.7580   25.2990  -30.2400 C   0  0  0  0  0  0  0  0  0  0  0  0
   -6.8650   24.5760  -30.4250 C   0  0  0  0  0  0  0  0  0  0  0  0
   -6.4850   23.1440  -30.5660 C   0  0  1  0  0  0  0  0  0  0  0  0
   -7.2990   22.2170  -31.4120 C   0  0  0  0  0  0  0  0  0  0  0  0
   -8.6530   22.3360  -31.4360 N   0  0  0  0  0  0  0  0  0  0  0  0
   -9.4480   21.3710  -31.9680 C   0  0  0  0  0  0  0  0  0  0  0  0
   -8.8850   20.1860  -32.4410 C   0  0  0  0  0  0  0  0  0  0  0  0
   -7.5000   20.0170  -32.3980 C   0  0  0  0  0  0  0  0  0  0  0  0
   -6.6730   21.0430  -31.9170 C   0  0  0  0  0  0  0  0  0  0  0  0
   -2.7449   21.1658  -32.4567 H   0  0  0  0  0  0  0  0  0  0  0  0
   -2.8558   20.2672  -34.0082 H   0  0  0  0  0  0  0  0  0  0  0  0
   -2.8632   22.0635  -34.0082 H   0  0  0  0  0  0  0  0  0  0  0  0
   -4.9590   22.1160  -33.6460 H   0  0  0  0  0  0  0  0  0  0  0  0
   -4.8935   19.8710  -31.6762 H   0  0  0  0  0  0  0  0  0  0  0  0
   -4.5045   21.5172  -29.9674 H   0  0  0  0  0  0  0  0  0  0  0  0
   -3.3448   21.9597  -31.2517 H   0  0  0  0  0  0  0  0  0  0  0  0
   -4.9488   23.4518  -32.1974 H   0  0  0  0  0  0  0  0  0  0  0  0
   -4.0985   24.1795  -29.4092 H   0  0  0  0  0  0  0  0  0  0  0  0
   -3.6836   24.9611  -30.9012 H   0  0  0  0  0  0  0  0  0  0  0  0
   -5.7534   26.3744  -30.0088 H   0  0  0  0  0  0  0  0  0  0  0  0
   -7.8898   24.9735  -30.4664 H   0  0  0  0  0  0  0  0  0  0  0  0
   -6.6332   22.6621  -29.5883 H   0  0  0  0  0  0  0  0  0  0  0  0
  -10.5357   21.5245  -32.0256 H   0  0  0  0  0  0  0  0  0  0  0  0
   -9.5278   19.3901  -32.8451 H   0  0  0  0  0  0  0  0  0  0  0  0
   -7.0540   19.0728  -32.7437 H   0  0  0  0  0  0  0  0  0  0  0  0
  1  2  1  0
  2  3  1  0
  3  4  1  0
  4  5  1  0
  5  6  1  0
  6  7  1  0
  7  8  2  0
  8  9  1  0
  9 10  1  0
 10 11  2  0
 11 12  1  0
 12 13  2  0
 13 14  1  0
 14 15  2  0
 15  3  1  0
  9  5  1  0
 15 10  1  0
  1 16  1  0
  1 17  1  0
  1 18  1  0
  2 19  1  0
  3 20  1  1
  4 21  1  0
  4 22  1  0
  5 23  1  6
  6 24  1  0
  6 25  1  0
  7 26  1  0
  8 27  1  0
  9 28  1  1
 12 29  1  0
 13 30  1  0
 14 31  1  0
M  END
>  <UniqueID>  (28) 
27

>  <SMILES>  (28) 
CN[C@H]1C[C@@H]2CC=CC2c2ncccc21

>  <Energy>  (28) 
57.92602559829804

>  <Genealogy>  (28) 
CN[C@H]1C[C@@H]2CC=CC2c2ncccc21 (chirality)
CN[C@H]1C[C@@H]2CC=CC2c2ncccc21 (3D coordinates assigned)
CN[C@H]1C[C@@H]2CC=CC2c2ncccc21 (nonaromatic ring conformer: 57.92602559829804 kcal/mol)

>  <smiles>  (28) 
CNC1CC2CC=CC2c2ncccc21

>  <score_type>  (28) 
oracle

>  <origin>  (28) 
adg

>  <m_score__min__energy>  (28) 
-6.9800000000000004

>  <m_primary>  (28) 
energy

$$$$
28:0
     RDKit          3D

 44 46  0  0  0  0  0  0  0  0999 V2000
   -2.8850   22.6170  -30.7800 C   0  0  0  0  0  0  0  0  0  0  0  0
   -3.8860   23.5320  -31.2170 O   0  0  0  0  0  0  0  0  0  0  0  0
   -5.2450   23.2140  -31.3530 C   0  0  0  0  0  0  0  0  0  0  0  0
   -6.2670   24.1380  -31.0700 C   0  0  0  0  0  0  0  0  0  0  0  0
   -7.6070   23.7770  -31.2200 C   0  0  0  0  0  0  0  0  0  0  0  0
   -7.9500   22.4890  -31.6540 C   0  0  0  0  0  0  0  0  0  0  0  0
   -9.2970   22.1300  -31.8050 C   0  0  0  0  0  0  0  0  0  0  0  0
   -9.6390   20.8480  -32.2360 C   0  0  0  0  0  0  0  0  0  0  0  0
   -8.6430   19.9140  -32.5220 C   0  0  0  0  0  0  0  0  0  0  0  0
   -7.2900   20.2490  -32.3810 C   0  0  0  0  0  0  0  0  0  0  0  0
   -6.2990   19.2570  -32.6810 N   0  0  0  0  0  0  0  0  0  0  0  0
   -5.7460   18.4330  -31.6040 C   0  0  0  0  0  0  0  0  0  0  0  0
   -5.5200   16.9690  -32.0540 C   0  0  0  0  0  0  0  0  0  0  0  0
   -5.4320   16.7780  -33.5300 N   0  0  0  0  0  0  0  0  0  0  0  0
   -6.7450   16.3640  -34.0960 C   0  0  0  0  0  0  0  0  0  0  0  0
   -6.9000   14.8390  -34.2320 C   0  0  0  0  0  0  0  0  0  0  0  0
   -5.7050   14.1930  -33.8910 O   0  0  0  0  0  0  0  0  0  0  0  0
   -4.8410   17.9650  -34.1930 C   0  0  0  0  0  0  0  0  0  0  0  0
   -5.7220   19.2100  -34.0260 C   0  0  0  0  0  0  0  0  0  0  0  0
   -6.9300   21.5460  -31.9430 C   0  0  0  0  0  0  0  0  0  0  0  0
   -5.5830   21.9270  -31.7870 C   0  0  0  0  0  0  0  0  0  0  0  0
   -2.8622   22.5961  -29.6804 H   0  0  0  0  0  0  0  0  0  0  0  0
   -3.1160   21.6113  -31.1611 H   0  0  0  0  0  0  0  0  0  0  0  0
   -1.9041   22.9372  -31.1611 H   0  0  0  0  0  0  0  0  0  0  0  0
   -6.0087   25.1512  -30.7284 H   0  0  0  0  0  0  0  0  0  0  0  0
   -8.3984   24.5075  -30.9963 H   0  0  0  0  0  0  0  0  0  0  0  0
  -10.0873   22.8622  -31.5827 H   0  0  0  0  0  0  0  0  0  0  0  0
  -10.6978   20.5726  -32.3507 H   0  0  0  0  0  0  0  0  0  0  0  0
   -8.9225   18.9056  -32.8612 H   0  0  0  0  0  0  0  0  0  0  0  0
   -4.7830   18.8605  -31.2881 H   0  0  0  0  0  0  0  0  0  0  0  0
   -6.4687   18.4267  -30.7747 H   0  0  0  0  0  0  0  0  0  0  0  0
   -4.5803   16.6139  -31.6058 H   0  0  0  0  0  0  0  0  0  0  0  0
   -6.4006   16.4013  -31.7190 H   0  0  0  0  0  0  0  0  0  0  0  0
   -4.7700   15.9810  -33.6890 H   0  0  0  0  0  0  0  0  0  0  0  0
   -7.5421   16.7378  -33.4365 H   0  0  0  0  0  0  0  0  0  0  0  0
   -6.8094   16.7879  -35.1090 H   0  0  0  0  0  0  0  0  0  0  0  0
   -7.7016   14.4952  -33.5617 H   0  0  0  0  0  0  0  0  0  0  0  0
   -7.1498   14.5981  -35.2758 H   0  0  0  0  0  0  0  0  0  0  0  0
   -5.7580   13.2860  -34.2910 H   0  0  0  0  0  0  0  0  0  0  0  0
   -3.8542   18.1654  -33.7503 H   0  0  0  0  0  0  0  0  0  0  0  0
   -4.7560   17.7486  -35.2682 H   0  0  0  0  0  0  0  0  0  0  0  0
   -5.1106   20.1099  -34.1886 H   0  0  0  0  0  0  0  0  0  0  0  0
   -6.5393   19.1670  -34.7610 H   0  0  0  0  0  0  0  0  0  0  0  0
   -4.7854   21.2028  -32.0094 H   0  0  0  0  0  0  0  0  0  0  0  0
  1  2  1  0
  2  3  1  0
  3  4  2  0
  4  5  1  0
  5  6  2  0
  6  7  1  0
  7  8  2  0
  8  9  1  0
  9 10  2  0
 10 11  1  0
 11 12  1  0
 12 13  1  0
 13 14  1  0
 14 15  1  0
 15 16  1  0
 16 17  1  0
 14 18  1  0
 18 19  1  0
 10 20  1  0
 20 21  2  0
 21  3  1  0
 20  6  1  0
 19 11  1  0
  1 22  1  0
  1 23  1  0
  1 24  1  0
  4 25  1  0
  5 26  1  0
  7 27  1  0
  8 28  1  0
  9 29  1  0
 12 30  1  0
 12 31  1  0
 13 32  1  0
 13 33  1  0
 14 34  1  0
 15 35  1  0
 15 36  1  0
 16 37  1  0
 16 38  1  0
 17 39  1  0
 18 40  1  0
 18 41  1  0
 19 42  1  0
 19 43  1  0
 21 44  1  0
M  CHG  1  14   1
M  END
>  <UniqueID>  (29) 
28

>  <SMILES>  (29) 
COc1ccc2cccc(N3CC[NH+](CCO)CC3)c2c1

>  <Energy>  (29) 
62.93098566572734

>  <Genealogy>  (29) 
COc1ccc2cccc(N3CC[NH+](CCO)CC3)c2c1 (protonated)
COc1ccc2cccc(N3CC[NH+](CCO)CC3)c2c1 (3D coordinates assigned)
COc1ccc2cccc(N3CC[NH+](CCO)CC3)c2c1 (nonaromatic ring conformer: 62.93098566572734 kcal/mol)

>  <smiles>  (29) 
COc1ccc2cccc(N3CCN(CCO)CC3)c2c1

>  <score_type>  (29) 
oracle

>  <origin>  (29) 
adg

>  <m_score__min__energy>  (29) 
-6.9699999999999998

>  <m_primary>  (29) 
energy

$$$$
29:0
     RDKit          3D

 49 51  0  0  0  0  0  0  0  0999 V2000
   -5.4730   18.1490  -34.7260 C   0  0  0  0  0  0  0  0  0  0  0  0
   -5.7210   17.7220  -33.2850 C   0  0  0  0  0  0  0  0  0  0  0  0
   -6.9430   18.3400  -32.7790 N   0  0  0  0  0  0  0  0  0  0  0  0
   -7.3810   19.5780  -33.0720 C   0  0  0  0  0  0  0  0  0  0  0  0
   -8.5340   19.8010  -32.3490 C   0  0  0  0  0  0  0  0  0  0  0  0
   -9.3810   21.0470  -32.3410 C   0  0  0  0  0  0  0  0  0  0  0  0
   -8.9370   22.0550  -31.3550 N   0  0  0  0  0  0  0  0  0  0  0  0
   -8.6870   23.4010  -31.9270 C   0  0  0  0  0  0  0  0  0  0  0  0
   -7.1860   23.7370  -31.9910 C   0  0  0  0  0  0  0  0  0  0  0  0
   -6.5160   23.6350  -30.6660 N   0  0  0  0  0  0  0  0  0  0  0  0
   -6.2770   24.9580  -30.0520 C   0  0  0  0  0  0  0  0  0  0  0  0
   -5.2030   25.7230  -30.8330 C   0  0  0  0  0  0  0  0  0  0  0  0
   -3.8980   25.2670  -30.4730 O   0  0  0  0  0  0  0  0  0  0  0  0
   -3.5330   23.9310  -30.2430 C   0  0  0  0  0  0  0  0  0  0  0  0
   -3.0620   23.4690  -28.9960 C   0  0  0  0  0  0  0  0  0  0  0  0
   -2.7160   22.1240  -28.8290 C   0  0  0  0  0  0  0  0  0  0  0  0
   -2.8370   21.2310  -29.8950 C   0  0  0  0  0  0  0  0  0  0  0  0
   -3.3070   21.6780  -31.1330 C   0  0  0  0  0  0  0  0  0  0  0  0
   -3.4730   20.4550  -32.5900 Br  0  0  0  0  0  0  0  0  0  0  0  0
   -3.6530   23.0220  -31.3040 C   0  0  0  0  0  0  0  0  0  0  0  0
   -7.2060   22.7280  -29.7190 C   0  0  0  0  0  0  0  0  0  0  0  0
   -7.8720   21.5620  -30.4560 C   0  0  0  0  0  0  0  0  0  0  0  0
   -8.7310   18.6450  -31.6140 C   0  0  0  0  0  0  0  0  0  0  0  0
   -7.7440   17.7700  -31.8910 N   0  0  0  0  0  0  0  0  0  0  0  0
   -4.9206   19.1002  -34.7367 H   0  0  0  0  0  0  0  0  0  0  0  0
   -4.8830   17.3765  -35.2410 H   0  0  0  0  0  0  0  0  0  0  0  0
   -6.4363   18.2787  -35.2410 H   0  0  0  0  0  0  0  0  0  0  0  0
   -5.8230   16.6276  -33.2428 H   0  0  0  0  0  0  0  0  0  0  0  0
   -4.8722   18.0444  -32.6641 H   0  0  0  0  0  0  0  0  0  0  0  0
   -6.9041   20.2865  -33.7652 H   0  0  0  0  0  0  0  0  0  0  0  0
   -9.3438   21.4998  -33.3428 H   0  0  0  0  0  0  0  0  0  0  0  0
  -10.3999   20.7441  -32.0579 H   0  0  0  0  0  0  0  0  0  0  0  0
   -9.1013   23.4355  -32.9454 H   0  0  0  0  0  0  0  0  0  0  0  0
   -9.1707   24.1409  -31.2723 H   0  0  0  0  0  0  0  0  0  0  0  0
   -6.6985   23.0378  -32.6863 H   0  0  0  0  0  0  0  0  0  0  0  0
   -7.0938   24.7795  -32.3298 H   0  0  0  0  0  0  0  0  0  0  0  0
   -7.2127   25.5362  -30.0611 H   0  0  0  0  0  0  0  0  0  0  0  0
   -5.9317   24.8143  -29.0175 H   0  0  0  0  0  0  0  0  0  0  0  0
   -5.3571   25.5634  -31.9104 H   0  0  0  0  0  0  0  0  0  0  0  0
   -5.2837   26.7930  -30.5911 H   0  0  0  0  0  0  0  0  0  0  0  0
   -2.9666   24.1686  -28.1525 H   0  0  0  0  0  0  0  0  0  0  0  0
   -2.3476   21.7691  -27.8552 H   0  0  0  0  0  0  0  0  0  0  0  0
   -2.5622   20.1744  -29.7605 H   0  0  0  0  0  0  0  0  0  0  0  0
   -4.0228   23.3695  -32.2800 H   0  0  0  0  0  0  0  0  0  0  0  0
   -6.4712   22.3284  -29.0046 H   0  0  0  0  0  0  0  0  0  0  0  0
   -7.9855   23.2995  -29.1939 H   0  0  0  0  0  0  0  0  0  0  0  0
   -7.1145   21.0302  -31.0505 H   0  0  0  0  0  0  0  0  0  0  0  0
   -8.3195   20.8833  -29.7149 H   0  0  0  0  0  0  0  0  0  0  0  0
   -9.5615   18.4683  -30.9146 H   0  0  0  0  0  0  0  0  0  0  0  0
  1  2  1  0
  2  3  1  0
  3  4  1  0
  4  5  2  0
  5  6  1  0
  6  7  1  0
  7  8  1  0
  8  9  1  0
  9 10  1  0
 10 11  1  0
 11 12  1  0
 12 13  1  0
 13 14  1  0
 14 15  2  0
 15 16  1  0
 16 17  2  0
 17 18  1  0
 18 19  1  0
 18 20  2  0
 10 21  1  0
 21 22  1  0
  5 23  1  0
 23 24  2  0
 24  3  1  0
 22  7  1  0
 20 14  1  0
  1 25  1  0
  1 26  1  0
  1 27  1  0
  2 28  1  0
  2 29  1  0
  4 30  1  0
  6 31  1  0
  6 32  1  0
  8 33  1  0
  8 34  1  0
  9 35  1  0
  9 36  1  0
 11 37  1  0
 11 38  1  0
 12 39  1  0
 12 40  1  0
 15 41  1  0
 16 42  1  0
 17 43  1  0
 20 44  1  0
 21 45  1  0
 21 46  1  0
 22 47  1  0
 22 48  1  0
 23 49  1  0
M  END
>  <UniqueID>  (30) 
29

>  <SMILES>  (30) 
CCn1cc(CN2CCN(CCOc3cccc(Br)c3)CC2)cn1

>  <Energy>  (30) 
89.37303672807091

>  <Genealogy>  (30) 
CCn1cc(CN2CCN(CCOc3cccc(Br)c3)CC2)cn1 (3D coordinates assigned)
CCn1cc(CN2CCN(CCOc3cccc(Br)c3)CC2)cn1 (nonaromatic ring conformer: 89.37303672807091 kcal/mol)

>  <smiles>  (30) 
CCn1cc(CN2CCN(CCOc3cccc(Br)c3)CC2)cn1

>  <score_type>  (30) 
oracle

>  <origin>  (30) 
adg

>  <m_score__min__energy>  (30) 
-8.7799999999999994

>  <m_primary>  (30) 
energy

$$$$
30:0
     RDKit          3D

 53 56  0  0  0  0  0  0  0  0999 V2000
   -2.0440   20.4720  -29.4180 C   0  0  0  0  0  0  0  0  0  0  0  0
   -3.3570   21.1370  -29.8520 C   0  0  0  0  0  0  0  0  0  0  0  0
   -3.1490   22.4960  -30.4180 N   0  0  2  0  0  0  0  0  0  0  0  0
   -1.7910   22.9860  -30.1070 C   0  0  0  0  0  0  0  0  0  0  0  0
   -4.1510   23.4530  -29.8790 C   0  0  0  0  0  0  0  0  0  0  0  0
   -5.6030   22.9580  -30.0720 C   0  0  0  0  0  0  0  0  0  0  0  0
   -6.3560   23.7310  -31.1660 C   0  0  0  0  0  0  0  0  0  0  0  0
   -6.1540   23.1250  -32.4830 N   0  0  0  0  0  0  0  0  0  0  0  0
   -5.9670   21.7150  -32.6780 C   0  0  0  0  0  0  0  0  0  0  0  0
   -7.0270   20.7910  -32.5110 C   0  0  0  0  0  0  0  0  0  0  0  0
   -8.3210   21.2320  -32.1710 C   0  0  0  0  0  0  0  0  0  0  0  0
   -9.3530   20.3180  -31.9660 C   0  0  0  0  0  0  0  0  0  0  0  0
   -9.1130   18.9540  -32.0870 C   0  0  0  0  0  0  0  0  0  0  0  0
   -7.8490   18.4870  -32.4510 C   0  0  0  0  0  0  0  0  0  0  0  0
   -6.7880   19.3880  -32.7140 C   0  0  0  0  0  0  0  0  0  0  0  0
   -5.5430   18.9430  -33.1390 N   0  0  0  0  0  0  0  0  0  0  0  0
   -5.3260   17.5650  -33.6090 C   0  0  0  0  0  0  0  0  0  0  0  0
   -4.5160   19.8510  -33.1760 C   0  0  0  0  0  0  0  0  0  0  0  0
   -4.7140   21.2000  -32.9810 C   0  0  0  0  0  0  0  0  0  0  0  0
   -3.5850   21.8690  -33.0920 O   0  0  0  0  0  0  0  0  0  0  0  0
   -2.6410   20.9890  -33.3380 C   0  0  0  0  0  0  0  0  0  0  0  0
   -1.2830   21.2510  -33.5030 C   0  0  0  0  0  0  0  0  0  0  0  0
   -0.4190   20.1610  -33.6990 C   0  0  0  0  0  0  0  0  0  0  0  0
   -0.9230   18.8430  -33.7080 C   0  0  0  0  0  0  0  0  0  0  0  0
   -2.2980   18.6010  -33.5410 C   0  0  0  0  0  0  0  0  0  0  0  0
   -3.1480   19.7050  -33.3910 C   0  0  0  0  0  0  0  0  0  0  0  0
   -1.9919   20.4456  -28.3195 H   0  0  0  0  0  0  0  0  0  0  0  0
   -2.0052   19.4456  -29.8117 H   0  0  0  0  0  0  0  0  0  0  0  0
   -1.1936   21.0481  -29.8117 H   0  0  0  0  0  0  0  0  0  0  0  0
   -3.8357   20.5066  -30.6158 H   0  0  0  0  0  0  0  0  0  0  0  0
   -3.9894   21.2413  -28.9580 H   0  0  0  0  0  0  0  0  0  0  0  0
   -3.2390   22.4600  -31.4610 H   0  0  0  0  0  0  0  0  0  0  0  0
   -1.6593   23.0335  -29.0160 H   0  0  0  0  0  0  0  0  0  0  0  0
   -1.0463   22.2999  -30.5367 H   0  0  0  0  0  0  0  0  0  0  0  0
   -1.6559   23.9896  -30.5367 H   0  0  0  0  0  0  0  0  0  0  0  0
   -3.9649   23.5908  -28.8037 H   0  0  0  0  0  0  0  0  0  0  0  0
   -4.0429   24.3980  -30.4315 H   0  0  0  0  0  0  0  0  0  0  0  0
   -5.5775   21.8935  -30.3482 H   0  0  0  0  0  0  0  0  0  0  0  0
   -6.1370   23.1214  -29.1243 H   0  0  0  0  0  0  0  0  0  0  0  0
   -7.4307   23.7276  -30.9315 H   0  0  0  0  0  0  0  0  0  0  0  0
   -5.9660   24.7592  -31.1944 H   0  0  0  0  0  0  0  0  0  0  0  0
   -6.1000   23.7600  -33.3120 H   0  0  0  0  0  0  0  0  0  0  0  0
   -8.5190   22.3090  -32.0662 H   0  0  0  0  0  0  0  0  0  0  0  0
  -10.3602   20.6769  -31.7077 H   0  0  0  0  0  0  0  0  0  0  0  0
   -9.9252   18.2375  -31.8945 H   0  0  0  0  0  0  0  0  0  0  0  0
   -7.6743   17.4042  -32.5348 H   0  0  0  0  0  0  0  0  0  0  0  0
   -5.2204   16.8947  -32.7433 H   0  0  0  0  0  0  0  0  0  0  0  0
   -6.1849   17.2456  -34.2175 H   0  0  0  0  0  0  0  0  0  0  0  0
   -4.4105   17.5250  -34.2175 H   0  0  0  0  0  0  0  0  0  0  0  0
   -0.8984   22.2813  -33.4805 H   0  0  0  0  0  0  0  0  0  0  0  0
    0.6570   20.3359  -33.8464 H   0  0  0  0  0  0  0  0  0  0  0  0
   -0.2338   17.9970  -33.8470 H   0  0  0  0  0  0  0  0  0  0  0  0
   -2.6948   17.5752  -33.5285 H   0  0  0  0  0  0  0  0  0  0  0  0
  1  2  1  0
  2  3  1  0
  3  4  1  0
  3  5  1  0
  5  6  1  0
  6  7  1  0
  7  8  1  0
  8  9  1  0
  9 10  2  0
 10 11  1  0
 11 12  2  0
 12 13  1  0
 13 14  2  0
 14 15  1  0
 15 16  2  0
 16 17  1  0
 16 18  1  0
 18 19  2  0
 19 20  1  0
 20 21  1  0
 21 22  2  0
 22 23  1  0
 23 24  2  0
 24 25  1  0
 25 26  2  0
 19  9  1  0
 26 21  1  0
 15 10  1  0
 26 18  1  0
  1 27  1  0
  1 28  1  0
  1 29  1  0
  2 30  1  0
  2 31  1  0
  3 32  1  6
  4 33  1  0
  4 34  1  0
  4 35  1  0
  5 36  1  0
  5 37  1  0
  6 38  1  0
  6 39  1  0
  7 40  1  0
  7 41  1  0
  8 42  1  0
 11 43  1  0
 12 44  1  0
 13 45  1  0
 14 46  1  0
 17 47  1  0
 17 48  1  0
 17 49  1  0
 22 50  1  0
 23 51  1  0
 24 52  1  0
 25 53  1  0
M  CHG  2   3   1  16   1
M  END
>  <UniqueID>  (31) 
30

>  <SMILES>  (31) 
CC[N@H+](C)CCCNc1c2ccccc2[n+](C)c2c1oc1ccccc12

>  <Energy>  (31) 
114.89008041380234

>  <Genealogy>  (31) 
CC[NH+](C)CCCNc1c2ccccc2[n+](C)c2c1oc1ccccc12 (protonated)
CC[N@H+](C)CCCNc1c2ccccc2[n+](C)c2c1oc1ccccc12 (chirality)
CC[N@H+](C)CCCNc1c2ccccc2[n+](C)c2c1oc1ccccc12 (3D coordinates assigned)
CC[N@H+](C)CCCNc1c2ccccc2[n+](C)c2c1oc1ccccc12 (optimized conformer: 114.89008041380234 kcal/mol)

>  <smiles>  (31) 
CCN(C)CCCNc1c2ccccc2[n+](C)c2c1oc1ccccc12

>  <score_type>  (31) 
oracle

>  <origin>  (31) 
adg

>  <m_score__min__energy>  (31) 
-6.6100000000000003

>  <m_primary>  (31) 
energy

$$$$
31:0
     RDKit          3D

 42 44  0  0  0  0  0  0  0  0999 V2000
   -1.9630   24.9320  -28.3700 C   0  0  0  0  0  0  0  0  0  0  0  0
   -2.1280   23.7550  -29.2930 C   0  0  0  0  0  0  0  0  0  0  0  0
   -1.3420   22.6050  -29.1110 C   0  0  0  0  0  0  0  0  0  0  0  0
   -1.4960   21.5020  -29.9540 C   0  0  0  0  0  0  0  0  0  0  0  0
   -2.4410   21.5320  -30.9800 C   0  0  0  0  0  0  0  0  0  0  0  0
   -3.2310   22.6670  -31.1720 C   0  0  0  0  0  0  0  0  0  0  0  0
   -3.0740   23.7940  -30.3410 C   0  0  0  0  0  0  0  0  0  0  0  0
   -3.8990   24.9580  -30.5000 N   0  0  0  0  0  0  0  0  0  0  0  0
   -5.3320   24.9910  -30.5310 C   0  0  0  0  0  0  0  0  0  0  0  0
   -5.9910   25.3570  -29.5200 O   0  0  0  0  0  0  0  0  0  0  0  0
   -6.0530   24.5530  -31.7670 C   0  0  0  0  0  0  0  0  0  0  0  0
   -6.6120   23.1750  -31.5830 C   0  0  0  0  0  0  0  0  0  0  0  0
   -7.7290   22.9060  -30.7940 C   0  0  0  0  0  0  0  0  0  0  0  0
   -8.0630   21.2640  -30.9170 S   0  0  0  0  0  0  0  0  0  0  0  0
   -6.7810   20.9660  -31.9710 C   0  0  0  0  0  0  0  0  0  0  0  0
   -6.4460   19.6900  -32.5520 N   0  0  0  0  0  0  0  0  0  0  0  0
   -5.7380   19.6670  -33.8420 C   0  0  0  0  0  0  0  0  0  0  0  0
   -5.3040   18.2490  -34.2270 C   0  0  0  0  0  0  0  0  0  0  0  0
   -6.4750   17.2660  -34.1260 C   0  0  0  0  0  0  0  0  0  0  0  0
   -7.2580   17.3710  -32.7980 C   0  0  0  0  0  0  0  0  0  0  0  0
   -6.7050   18.4300  -31.8360 C   0  0  0  0  0  0  0  0  0  0  0  0
   -6.0940   22.1000  -32.2370 N   0  0  0  0  0  0  0  0  0  0  0  0
   -2.0111   24.5888  -27.3260 H   0  0  0  0  0  0  0  0  0  0  0  0
   -0.9892   25.4091  -28.5546 H   0  0  0  0  0  0  0  0  0  0  0  0
   -2.7681   25.6585  -28.5546 H   0  0  0  0  0  0  0  0  0  0  0  0
   -0.6004   22.5729  -28.2992 H   0  0  0  0  0  0  0  0  0  0  0  0
   -0.8713   20.6083  -29.8088 H   0  0  0  0  0  0  0  0  0  0  0  0
   -2.5638   20.6598  -31.6389 H   0  0  0  0  0  0  0  0  0  0  0  0
   -3.9806   22.6815  -31.9769 H   0  0  0  0  0  0  0  0  0  0  0  0
   -6.8754   25.2534  -31.9746 H   0  0  0  0  0  0  0  0  0  0  0  0
   -5.3452   24.5422  -32.6089 H   0  0  0  0  0  0  0  0  0  0  0  0
   -8.2919   23.6385  -30.1969 H   0  0  0  0  0  0  0  0  0  0  0  0
   -6.4068   20.0590  -34.6224 H   0  0  0  0  0  0  0  0  0  0  0  0
   -4.8347   20.2875  -33.7476 H   0  0  0  0  0  0  0  0  0  0  0  0
   -4.9297   18.2565  -35.2613 H   0  0  0  0  0  0  0  0  0  0  0  0
   -4.5153   17.9247  -33.5321 H   0  0  0  0  0  0  0  0  0  0  0  0
   -7.1691   17.4656  -34.9557 H   0  0  0  0  0  0  0  0  0  0  0  0
   -6.0501   16.2524  -34.1707 H   0  0  0  0  0  0  0  0  0  0  0  0
   -8.3027   17.6252  -33.0304 H   0  0  0  0  0  0  0  0  0  0  0  0
   -7.1640   16.3985  -32.2926 H   0  0  0  0  0  0  0  0  0  0  0  0
   -7.4386   18.6117  -31.0367 H   0  0  0  0  0  0  0  0  0  0  0  0
   -5.7608   18.0634  -31.4070 H   0  0  0  0  0  0  0  0  0  0  0  0
  1  2  1  0
  2  3  2  0
  3  4  1  0
  4  5  2  0
  5  6  1  0
  6  7  2  0
  7  8  1  0
  8  9  1  0
  9 10  2  0
  9 11  1  0
 11 12  1  0
 12 13  2  0
 13 14  1  0
 14 15  1  0
 15 16  1  0
 16 17  1  0
 17 18  1  0
 18 19  1  0
 19 20  1  0
 20 21  1  0
 15 22  2  0
  7  2  1  0
 22 12  1  0
 21 16  1  0
  1 23  1  0
  1 24  1  0
  1 25  1  0
  3 26  1  0
  4 27  1  0
  5 28  1  0
  6 29  1  0
 11 30  1  0
 11 31  1  0
 13 32  1  0
 17 33  1  0
 17 34  1  0
 18 35  1  0
 18 36  1  0
 19 37  1  0
 19 38  1  0
 20 39  1  0
 20 40  1  0
 21 41  1  0
 21 42  1  0
M  CHG  1   8  -1
M  END
>  <UniqueID>  (32) 
31

>  <SMILES>  (32) 
Cc1ccccc1[N-]C(=O)Cc1csc(N2CCCCC2)n1

>  <Energy>  (32) 
74.60985240993719

>  <Genealogy>  (32) 
Cc1ccccc1[N-]C(=O)Cc1csc(N2CCCCC2)n1 (protonated)
Cc1ccccc1[N-]C(=O)Cc1csc(N2CCCCC2)n1 (3D coordinates assigned)
Cc1ccccc1[N-]C(=O)Cc1csc(N2CCCCC2)n1 (nonaromatic ring conformer: 74.60985240993719 kcal/mol)

>  <smiles>  (32) 
Cc1ccccc1NC(=O)Cc1csc(N2CCCCC2)n1

>  <score_type>  (32) 
oracle

>  <origin>  (32) 
adg

>  <m_score__min__energy>  (32) 
-10.119999999999999

>  <m_primary>  (32) 
energy

$$$$
32:0
     RDKit          3D

 80 82  0  0  0  0  0  0  0  0999 V2000
    1.0630   19.5210  -32.2010 C   0  0  0  0  0  0  0  0  0  0  0  0
    0.6320   20.8580  -32.3150 O   0  0  0  0  0  0  0  0  0  0  0  0
    0.2140   21.1100  -33.6410 C   0  0  0  0  0  0  0  0  0  0  0  0
   -1.3160   21.1240  -33.7180 C   0  0  0  0  0  0  0  0  0  0  0  0
   -1.9270   20.8260  -32.4180 N   0  0  0  0  0  0  0  0  0  0  0  0
   -2.8490   21.7040  -31.7510 C   0  0  0  0  0  0  0  0  0  0  0  0
   -4.1960   21.6610  -32.1420 C   0  0  0  0  0  0  0  0  0  0  0  0
   -5.1380   22.5250  -31.5730 C   0  0  0  0  0  0  0  0  0  0  0  0
   -6.4860   22.4710  -31.9620 C   0  0  0  0  0  0  0  0  0  0  0  0
   -7.4250   23.3500  -31.4080 C   0  0  0  0  0  0  0  0  0  0  0  0
   -8.7570   23.2570  -31.8460 O   0  0  0  0  0  0  0  0  0  0  0  0
   -9.4780   22.0420  -32.0450 C   0  0  0  0  0  0  0  0  0  0  0  0
   -9.0700   21.0000  -30.9980 C   0  0  0  0  0  0  0  0  0  0  0  0
   -8.4010   19.8430  -31.6290 N   0  0  0  0  0  0  0  0  0  0  0  0
   -9.0520   18.5650  -31.2860 C   0  0  0  0  0  0  0  0  0  0  0  0
   -8.2080   20.0140  -33.0910 C   0  0  0  0  0  0  0  0  0  0  0  0
   -6.7880   19.6860  -33.6120 C   0  0  0  0  0  0  0  0  0  0  0  0
   -6.2200   18.5020  -32.9290 N   0  0  0  0  0  0  0  0  0  0  0  0
   -4.7540   18.4570  -33.0690 C   0  0  0  0  0  0  0  0  0  0  0  0
   -6.8090   17.2600  -33.4590 C   0  0  0  0  0  0  0  0  0  0  0  0
   -7.0060   24.2820  -30.4390 C   0  0  0  0  0  0  0  0  0  0  0  0
   -5.6670   24.3420  -30.0470 C   0  0  0  0  0  0  0  0  0  0  0  0
   -4.7260   23.4680  -30.6100 C   0  0  0  0  0  0  0  0  0  0  0  0
   -3.3820   23.5300  -30.2310 C   0  0  0  0  0  0  0  0  0  0  0  0
   -2.4300   22.6470  -30.7760 C   0  0  0  0  0  0  0  0  0  0  0  0
   -1.0450   22.7710  -30.3680 N   0  0  0  0  0  0  0  0  0  0  0  0
   -0.8280   22.3200  -28.9790 C   0  0  0  0  0  0  0  0  0  0  0  0
   -0.8730   23.4600  -27.9890 C   0  0  0  0  0  0  0  0  0  0  0  0
   -0.7480   23.2110  -26.6170 C   0  0  0  0  0  0  0  0  0  0  0  0
   -0.7460   24.2680  -25.7030 C   0  0  0  0  0  0  0  0  0  0  0  0
   -0.8710   25.6040  -26.1410 C   0  0  0  0  0  0  0  0  0  0  0  0
   -0.8660   26.7040  -25.1930 N   0  0  0  0  0  0  0  0  0  0  0  0
   -0.8720   26.4440  -23.7490 C   0  0  0  0  0  0  0  0  0  0  0  0
   -0.8600   28.0940  -25.6650 C   0  0  0  0  0  0  0  0  0  0  0  0
   -0.9950   25.8420  -27.5260 C   0  0  0  0  0  0  0  0  0  0  0  0
   -0.9970   24.7820  -28.4370 C   0  0  0  0  0  0  0  0  0  0  0  0
    1.1494   19.2530  -31.1376 H   0  0  0  0  0  0  0  0  0  0  0  0
    0.3332   18.8577  -32.6882 H   0  0  0  0  0  0  0  0  0  0  0  0
    2.0428   19.4088  -32.6882 H   0  0  0  0  0  0  0  0  0  0  0  0
    0.6034   22.0862  -33.9657 H   0  0  0  0  0  0  0  0  0  0  0  0
    0.5998   20.3156  -34.2968 H   0  0  0  0  0  0  0  0  0  0  0  0
   -1.6473   22.1197  -34.0479 H   0  0  0  0  0  0  0  0  0  0  0  0
   -1.6308   20.3478  -34.4311 H   0  0  0  0  0  0  0  0  0  0  0  0
   -1.4460   20.1060  -31.8320 H   0  0  0  0  0  0  0  0  0  0  0  0
   -4.5158   20.9378  -32.9066 H   0  0  0  0  0  0  0  0  0  0  0  0
   -6.8078   21.7308  -32.7094 H   0  0  0  0  0  0  0  0  0  0  0  0
  -10.5561   22.2418  -31.9563 H   0  0  0  0  0  0  0  0  0  0  0  0
   -9.2468   21.6503  -33.0466 H   0  0  0  0  0  0  0  0  0  0  0  0
   -8.3800   21.4651  -30.2786 H   0  0  0  0  0  0  0  0  0  0  0  0
   -9.9776   20.6431  -30.4892 H   0  0  0  0  0  0  0  0  0  0  0  0
   -9.1044   18.4622  -30.1921 H   0  0  0  0  0  0  0  0  0  0  0  0
  -10.0689   18.5474  -31.7050 H   0  0  0  0  0  0  0  0  0  0  0  0
   -8.4683   17.7321  -31.7050 H   0  0  0  0  0  0  0  0  0  0  0  0
   -8.9206   19.3543  -33.6076 H   0  0  0  0  0  0  0  0  0  0  0  0
   -8.3690   21.0825  -33.2968 H   0  0  0  0  0  0  0  0  0  0  0  0
   -6.8412   19.4844  -34.6921 H   0  0  0  0  0  0  0  0  0  0  0  0
   -6.1370   20.5485  -33.4064 H   0  0  0  0  0  0  0  0  0  0  0  0
   -4.2907   18.4428  -32.0714 H   0  0  0  0  0  0  0  0  0  0  0  0
   -4.4660   17.5496  -33.6200 H   0  0  0  0  0  0  0  0  0  0  0  0
   -4.4109   19.3450  -33.6200 H   0  0  0  0  0  0  0  0  0  0  0  0
   -7.1155   16.6138  -32.6233 H   0  0  0  0  0  0  0  0  0  0  0  0
   -7.6872   17.5043  -34.0747 H   0  0  0  0  0  0  0  0  0  0  0  0
   -6.0641   16.7346  -34.0747 H   0  0  0  0  0  0  0  0  0  0  0  0
   -7.7385   24.9675  -29.9878 H   0  0  0  0  0  0  0  0  0  0  0  0
   -5.3492   25.0778  -29.2936 H   0  0  0  0  0  0  0  0  0  0  0  0
   -3.0624   24.2816  -29.4942 H   0  0  0  0  0  0  0  0  0  0  0  0
   -0.4280   22.2200  -31.0060 H   0  0  0  0  0  0  0  0  0  0  0  0
   -0.7390   23.7670  -30.4710 H   0  0  0  0  0  0  0  0  0  0  0  0
   -1.6115   21.5937  -28.7171 H   0  0  0  0  0  0  0  0  0  0  0  0
    0.1740   21.8693  -28.9257 H   0  0  0  0  0  0  0  0  0  0  0  0
   -0.6507   22.1765  -26.2561 H   0  0  0  0  0  0  0  0  0  0  0  0
   -0.6457   24.0562  -24.6283 H   0  0  0  0  0  0  0  0  0  0  0  0
   -0.8500   27.3994  -23.2043 H   0  0  0  0  0  0  0  0  0  0  0  0
   -1.7832   25.8895  -23.4801 H   0  0  0  0  0  0  0  0  0  0  0  0
    0.0126   25.8481  -23.4801 H   0  0  0  0  0  0  0  0  0  0  0  0
   -0.8571   28.7746  -24.8009 H   0  0  0  0  0  0  0  0  0  0  0  0
    0.0389   28.2706  -26.2739 H   0  0  0  0  0  0  0  0  0  0  0  0
   -1.7574   28.2783  -26.2739 H   0  0  0  0  0  0  0  0  0  0  0  0
   -1.0913   26.8743  -27.8934 H   0  0  0  0  0  0  0  0  0  0  0  0
   -1.0966   24.9869  -29.5131 H   0  0  0  0  0  0  0  0  0  0  0  0
  1  2  1  0
  2  3  1  0
  3  4  1  0
  4  5  1  0
  5  6  1  0
  6  7  2  0
  7  8  1  0
  8  9  2  0
  9 10  1  0
 10 11  1  0
 11 12  1  0
 12 13  1  0
 13 14  1  0
 14 15  1  0
 14 16  1  0
 16 17  1  0
 17 18  1  0
 18 19  1  0
 18 20  1  0
 10 21  2  0
 21 22  1  0
 22 23  2  0
 23 24  1  0
 24 25  2  0
 25 26  1  0
 26 27  1  0
 27 28  1  0
 28 29  2  0
 29 30  1  0
 30 31  2  0
 31 32  1  0
 32 33  1  0
 32 34  1  0
 31 35  1  0
 35 36  2  0
 25  6  1  0
 36 28  1  0
 23  8  1  0
  1 37  1  0
  1 38  1  0
  1 39  1  0
  3 40  1  0
  3 41  1  0
  4 42  1  0
  4 43  1  0
  5 44  1  0
  7 45  1  0
  9 46  1  0
 12 47  1  0
 12 48  1  0
 13 49  1  0
 13 50  1  0
 15 51  1  0
 15 52  1  0
 15 53  1  0
 16 54  1  0
 16 55  1  0
 17 56  1  0
 17 57  1  0
 19 58  1  0
 19 59  1  0
 19 60  1  0
 20 61  1  0
 20 62  1  0
 20 63  1  0
 21 64  1  0
 22 65  1  0
 24 66  1  0
 26 67  1  0
 26 68  1  0
 27 69  1  0
 27 70  1  0
 29 71  1  0
 30 72  1  0
 33 73  1  0
 33 74  1  0
 33 75  1  0
 34 76  1  0
 34 77  1  0
 34 78  1  0
 35 79  1  0
 36 80  1  0
M  CHG  1  26   1
M  END
>  <UniqueID>  (33) 
32

>  <SMILES>  (33) 
COCCNc1cc2cc(OCCN(C)CCN(C)C)ccc2cc1[NH2+]Cc1ccc(N(C)C)cc1

>  <Energy>  (33) 
92.65322192849433

>  <Genealogy>  (33) 
COCCNc1cc2cc(OCCN(C)CCN(C)C)ccc2cc1[NH2+]Cc1ccc(N(C)C)cc1 (protonated)
COCCNc1cc2cc(OCCN(C)CCN(C)C)ccc2cc1[NH2+]Cc1ccc(N(C)C)cc1 (3D coordinates assigned)
COCCNc1cc2cc(OCCN(C)CCN(C)C)ccc2cc1[NH2+]Cc1ccc(N(C)C)cc1 (optimized conformer: 92.65322192849433 kcal/mol)

>  <smiles>  (33) 
COCCNc1cc2cc(OCCN(C)CCN(C)C)ccc2cc1NCc1ccc(N(C)C)cc1

>  <score_type>  (33) 
oracle

>  <origin>  (33) 
adg

>  <m_score__min__energy>  (33) 
-8.0199999999999996

>  <m_primary>  (33) 
energy

$$$$
33:0
     RDKit          3D

 42 44  0  0  0  0  0  0  0  0999 V2000
   -6.5410   16.2750  -33.7580 C   0  0  0  0  0  0  0  0  0  0  0  0
   -6.6490   17.7390  -33.4510 C   0  0  0  0  0  0  0  0  0  0  0  0
   -5.6740   18.6410  -33.9420 C   0  0  0  0  0  0  0  0  0  0  0  0
   -5.7480   20.0070  -33.6260 C   0  0  0  0  0  0  0  0  0  0  0  0
   -6.7900   20.4350  -32.8060 C   0  0  0  0  0  0  0  0  0  0  0  0
   -7.7300   19.5760  -32.3190 C   0  0  0  0  0  0  0  0  0  0  0  0
   -7.6840   18.2130  -32.6180 C   0  0  0  0  0  0  0  0  0  0  0  0
   -8.7250   20.3080  -31.4730 C   0  0  0  0  0  0  0  0  0  0  0  0
   -8.2720   21.7290  -31.4610 N   0  0  1  0  0  0  0  0  0  0  0  0
   -8.0870   22.2980  -30.0950 C   0  0  0  0  0  0  0  0  0  0  0  0
   -6.7610   23.0550  -29.7280 C   0  0  0  0  0  0  0  0  0  0  0  0
   -6.6950   24.4860  -30.3040 C   0  0  0  0  0  0  0  0  0  0  0  0
   -5.3580   25.1340  -29.9210 C   0  0  0  0  0  0  0  0  0  0  0  0
   -4.1930   24.4170  -30.4970 N   0  0  0  0  0  0  0  0  0  0  0  0
   -3.0120   24.5550  -29.6310 C   0  0  0  0  0  0  0  0  0  0  0  0
   -4.4450   22.9990  -30.8510 C   0  0  0  0  0  0  0  0  0  0  0  0
   -5.4120   22.2970  -29.8810 C   0  0  0  0  0  0  0  0  0  0  0  0
   -7.1130   21.7460  -32.3100 C   0  0  0  0  0  0  0  0  0  0  0  0
   -6.5800   22.8070  -32.7330 O   0  0  0  0  0  0  0  0  0  0  0  0
   -6.4990   15.7054  -32.8179 H   0  0  0  0  0  0  0  0  0  0  0  0
   -7.4181   15.9569  -34.3406 H   0  0  0  0  0  0  0  0  0  0  0  0
   -5.6267   16.0890  -34.3406 H   0  0  0  0  0  0  0  0  0  0  0  0
   -4.8542   18.2694  -34.5744 H   0  0  0  0  0  0  0  0  0  0  0  0
   -5.0048   20.7188  -34.0146 H   0  0  0  0  0  0  0  0  0  0  0  0
   -8.4389   17.5233  -32.2125 H   0  0  0  0  0  0  0  0  0  0  0  0
   -9.7317   20.2295  -31.9093 H   0  0  0  0  0  0  0  0  0  0  0  0
   -8.7816   19.8900  -30.4571 H   0  0  0  0  0  0  0  0  0  0  0  0
   -9.0090   22.2980  -31.9430 H   0  0  0  0  0  0  0  0  0  0  0  0
   -8.9119   23.0075  -29.9331 H   0  0  0  0  0  0  0  0  0  0  0  0
   -8.0516   21.4048  -29.4539 H   0  0  0  0  0  0  0  0  0  0  0  0
   -6.8632   23.1212  -28.6348 H   0  0  0  0  0  0  0  0  0  0  0  0
   -6.7807   24.4438  -31.3998 H   0  0  0  0  0  0  0  0  0  0  0  0
   -7.5217   25.0838  -29.8927 H   0  0  0  0  0  0  0  0  0  0  0  0
   -5.3507   26.1709  -30.2880 H   0  0  0  0  0  0  0  0  0  0  0  0
   -5.2680   25.0920  -28.8255 H   0  0  0  0  0  0  0  0  0  0  0  0
   -3.3241   24.5185  -28.5768 H   0  0  0  0  0  0  0  0  0  0  0  0
   -2.3102   23.7328  -29.8343 H   0  0  0  0  0  0  0  0  0  0  0  0
   -2.5186   25.5169  -29.8343 H   0  0  0  0  0  0  0  0  0  0  0  0
   -4.8756   22.9619  -31.8625 H   0  0  0  0  0  0  0  0  0  0  0  0
   -3.4819   22.4706  -30.7936 H   0  0  0  0  0  0  0  0  0  0  0  0
   -5.6176   21.2849  -30.2596 H   0  0  0  0  0  0  0  0  0  0  0  0
   -4.9309   22.2705  -28.8922 H   0  0  0  0  0  0  0  0  0  0  0  0
  1  2  1  0
  2  3  2  0
  3  4  1  0
  4  5  2  0
  5  6  1  0
  6  7  2  0
  6  8  1  0
  8  9  1  0
  9 10  1  0
 10 11  1  0
 11 12  1  0
 12 13  1  0
 13 14  1  0
 14 15  1  0
 14 16  1  0
 16 17  1  0
  9 18  1  0
 18 19  2  0
  7  2  1  0
 17 11  1  0
 18  5  1  0
  1 20  1  0
  1 21  1  0
  1 22  1  0
  3 23  1  0
  4 24  1  0
  7 25  1  0
  8 26  1  0
  8 27  1  0
  9 28  1  6
 10 29  1  0
 10 30  1  0
 11 31  1  0
 12 32  1  0
 12 33  1  0
 13 34  1  0
 13 35  1  0
 15 36  1  0
 15 37  1  0
 15 38  1  0
 16 39  1  0
 16 40  1  0
 17 41  1  0
 17 42  1  0
M  CHG  1   9   1
M  END
>  <UniqueID>  (34) 
33

>  <SMILES>  (34) 
Cc1ccc2c(c1)C[N@@H+](CC1CCN(C)CC1)C2=O

>  <Energy>  (34) 
82.79471414860197

>  <Genealogy>  (34) 
Cc1ccc2c(c1)C[NH+](CC1CCN(C)CC1)C2=O (protonated)
Cc1ccc2c(c1)C[N@@H+](CC1CCN(C)CC1)C2=O (chirality)
Cc1ccc2c(c1)C[N@@H+](CC1CCN(C)CC1)C2=O (3D coordinates assigned)
Cc1ccc2c(c1)C[N@@H+](CC1CCN(C)CC1)C2=O (nonaromatic ring conformer: 82.79471414860197 kcal/mol)

>  <smiles>  (34) 
Cc1ccc2c(c1)CN(CC1CCN(C)CC1)C2=O

>  <score_type>  (34) 
oracle

>  <origin>  (34) 
adg

>  <m_score__min__energy>  (34) 
-7.4000000000000004

>  <m_primary>  (34) 
energy

$$$$
34:0
     RDKit          3D

 42 44  0  0  0  0  0  0  0  0999 V2000
   -2.4470   19.5410  -33.6490 C   0  0  0  0  0  0  0  0  0  0  0  0
   -3.6620   19.2910  -32.7490 C   0  0  0  0  0  0  0  0  0  0  0  0
   -4.4820   20.5140  -32.5390 N   0  0  0  0  0  0  0  0  0  0  0  0
   -3.6770   21.7690  -32.5200 C   0  0  0  0  0  0  0  0  0  0  0  0
   -4.0310   22.7180  -31.3890 C   0  0  0  0  0  0  0  0  0  0  0  0
   -4.8850   23.7520  -31.5610 N   0  0  0  0  0  0  0  0  0  0  0  0
   -4.9410   24.3560  -30.3590 C   0  0  0  0  0  0  0  0  0  0  0  0
   -4.1170   23.6950  -29.4820 C   0  0  0  0  0  0  0  0  0  0  0  0
   -3.8720   24.1500  -27.6400 Br  0  0  0  0  0  0  0  0  0  0  0  0
   -3.5230   22.6760  -30.1320 N   0  0  0  0  0  0  0  0  0  0  0  0
   -2.5830   21.7170  -29.5540 C   0  0  0  0  0  0  0  0  0  0  0  0
   -5.6710   20.6380  -33.4380 C   0  0  1  0  0  0  0  0  0  0  0  0
   -6.1100   19.3200  -34.1340 C   0  0  0  0  0  0  0  0  0  0  0  0
   -6.6230   18.2280  -33.1580 C   0  0  0  0  0  0  0  0  0  0  0  0
   -7.0430   18.7490  -31.7650 C   0  0  0  0  0  0  0  0  0  0  0  0
   -7.5400   20.1670  -31.8230 C   0  0  0  0  0  0  0  0  0  0  0  0
   -8.6320   20.5970  -31.0580 C   0  0  0  0  0  0  0  0  0  0  0  0
   -9.0510   21.9270  -31.1340 C   0  0  0  0  0  0  0  0  0  0  0  0
   -8.3670   22.8140  -31.9700 C   0  0  0  0  0  0  0  0  0  0  0  0
   -7.3000   22.3840  -32.6930 N   0  0  0  0  0  0  0  0  0  0  0  0
   -6.8650   21.0960  -32.6320 C   0  0  0  0  0  0  0  0  0  0  0  0
   -1.5598   19.7236  -33.0249 H   0  0  0  0  0  0  0  0  0  0  0  0
   -2.2736   18.6597  -34.2840 H   0  0  0  0  0  0  0  0  0  0  0  0
   -2.6356   20.4192  -34.2840 H   0  0  0  0  0  0  0  0  0  0  0  0
   -4.2929   18.5201  -33.2156 H   0  0  0  0  0  0  0  0  0  0  0  0
   -3.2870   18.9696  -31.7661 H   0  0  0  0  0  0  0  0  0  0  0  0
   -2.6157   21.4967  -32.4225 H   0  0  0  0  0  0  0  0  0  0  0  0
   -3.8962   22.2996  -33.4583 H   0  0  0  0  0  0  0  0  0  0  0  0
   -5.5505   25.2393  -30.1178 H   0  0  0  0  0  0  0  0  0  0  0  0
   -2.6343   21.7693  -28.4564 H   0  0  0  0  0  0  0  0  0  0  0  0
   -2.8451   20.7014  -29.8853 H   0  0  0  0  0  0  0  0  0  0  0  0
   -1.5623   21.9588  -29.8853 H   0  0  0  0  0  0  0  0  0  0  0  0
   -5.3566   21.3497  -34.2156 H   0  0  0  0  0  0  0  0  0  0  0  0
   -6.9171   19.5561  -34.8431 H   0  0  0  0  0  0  0  0  0  0  0  0
   -5.2169   18.9096  -34.6278 H   0  0  0  0  0  0  0  0  0  0  0  0
   -7.4950   17.7402  -33.6181 H   0  0  0  0  0  0  0  0  0  0  0  0
   -5.7798   17.5417  -32.9905 H   0  0  0  0  0  0  0  0  0  0  0  0
   -7.8451   18.1069  -31.3722 H   0  0  0  0  0  0  0  0  0  0  0  0
   -6.1589   18.7242  -31.1110 H   0  0  0  0  0  0  0  0  0  0  0  0
   -9.1575   19.8895  -30.3998 H   0  0  0  0  0  0  0  0  0  0  0  0
   -9.9109   22.2731  -30.5417 H   0  0  0  0  0  0  0  0  0  0  0  0
   -8.6931   23.8620  -32.0427 H   0  0  0  0  0  0  0  0  0  0  0  0
  1  2  1  0
  2  3  1  0
  3  4  1  0
  4  5  1  0
  5  6  2  0
  6  7  1  0
  7  8  2  0
  8  9  1  0
  8 10  1  0
 10 11  1  0
  3 12  1  0
 12 13  1  0
 13 14  1  0
 14 15  1  0
 15 16  1  0
 16 17  2  0
 17 18  1  0
 18 19  2  0
 19 20  1  0
 20 21  2  0
 10  5  1  0
 21 12  1  0
 21 16  1  0
  1 22  1  0
  1 23  1  0
  1 24  1  0
  2 25  1  0
  2 26  1  0
  4 27  1  0
  4 28  1  0
  7 29  1  0
 11 30  1  0
 11 31  1  0
 11 32  1  0
 12 33  1  6
 13 34  1  0
 13 35  1  0
 14 36  1  0
 14 37  1  0
 15 38  1  0
 15 39  1  0
 17 40  1  0
 18 41  1  0
 19 42  1  0
M  END
>  <UniqueID>  (35) 
34

>  <SMILES>  (35) 
CCN(Cc1ncc(Br)n1C)[C@H]1CCCc2cccnc21

>  <Energy>  (35) 
88.90732421549279

>  <Genealogy>  (35) 
CCN(Cc1ncc(Br)n1C)[C@H]1CCCc2cccnc21 (chirality)
CCN(Cc1ncc(Br)n1C)[C@H]1CCCc2cccnc21 (3D coordinates assigned)
CCN(Cc1ncc(Br)n1C)[C@H]1CCCc2cccnc21 (nonaromatic ring conformer: 88.90732421549279 kcal/mol)

>  <smiles>  (35) 
CCN(Cc1ncc(Br)n1C)C1CCCc2cccnc21

>  <score_type>  (35) 
oracle

>  <origin>  (35) 
adg

>  <m_score__min__energy>  (35) 
-7.7300000000000004

>  <m_primary>  (35) 
energy

$$$$
35:0
     RDKit          3D

 44 46  0  0  0  0  0  0  0  0999 V2000
   -1.7710   21.9440  -29.8160 C   0  0  0  0  0  0  0  0  0  0  0  0
   -2.9420   22.7720  -30.2510 C   0  0  0  0  0  0  0  0  0  0  0  0
   -3.7180   22.6060  -31.3900 C   0  0  0  0  0  0  0  0  0  0  0  0
   -3.5500   21.5500  -32.4510 C   0  0  0  0  0  0  0  0  0  0  0  0
   -4.6290   21.5900  -33.4580 N   0  0  0  0  0  0  0  0  0  0  0  0
   -5.5000   20.3970  -33.4360 C   0  0  0  0  0  0  0  0  0  0  0  0
   -6.8500   20.6760  -32.8180 C   0  0  0  0  0  0  0  0  0  0  0  0
   -7.1330   21.9360  -32.2650 C   0  0  0  0  0  0  0  0  0  0  0  0
   -8.3630   22.1750  -31.6460 C   0  0  0  0  0  0  0  0  0  0  0  0
   -9.3210   21.1600  -31.5760 C   0  0  0  0  0  0  0  0  0  0  0  0
   -9.0540   19.9080  -32.1380 C   0  0  0  0  0  0  0  0  0  0  0  0
   -7.8270   19.6670  -32.7630 C   0  0  0  0  0  0  0  0  0  0  0  0
   -4.6720   23.5590  -31.4270 N   0  0  0  0  0  0  0  0  0  0  0  0
   -4.5020   24.3450  -30.3750 N   0  0  0  0  0  0  0  0  0  0  0  0
   -5.3220   25.5260  -30.1300 C   0  0  0  0  0  0  0  0  0  0  0  0
   -3.4600   23.9020  -29.6350 C   0  0  0  0  0  0  0  0  0  0  0  0
   -2.9410   24.5560  -28.4150 C   0  0  0  0  0  0  0  0  0  0  0  0
   -1.6940   25.2020  -28.4300 C   0  0  0  0  0  0  0  0  0  0  0  0
   -1.2030   25.8140  -27.2730 C   0  0  0  0  0  0  0  0  0  0  0  0
   -1.9530   25.7880  -26.0940 C   0  0  0  0  0  0  0  0  0  0  0  0
   -3.1970   25.1520  -26.0730 C   0  0  0  0  0  0  0  0  0  0  0  0
   -3.6920   24.5390  -27.2280 C   0  0  0  0  0  0  0  0  0  0  0  0
   -1.7303   21.9152  -28.7171 H   0  0  0  0  0  0  0  0  0  0  0  0
   -1.8801   20.9212  -30.2058 H   0  0  0  0  0  0  0  0  0  0  0  0
   -0.8431   22.3879  -30.2058 H   0  0  0  0  0  0  0  0  0  0  0  0
   -2.5869   21.7084  -32.9582 H   0  0  0  0  0  0  0  0  0  0  0  0
   -3.5874   20.5679  -31.9569 H   0  0  0  0  0  0  0  0  0  0  0  0
   -5.2320   22.4170  -33.2370 H   0  0  0  0  0  0  0  0  0  0  0  0
   -4.2410   21.7500  -34.4160 H   0  0  0  0  0  0  0  0  0  0  0  0
   -5.6501   20.0510  -34.4693 H   0  0  0  0  0  0  0  0  0  0  0  0
   -5.0031   19.6324  -32.8209 H   0  0  0  0  0  0  0  0  0  0  0  0
   -6.3827   22.7385  -32.3195 H   0  0  0  0  0  0  0  0  0  0  0  0
   -8.5773   23.1634  -31.2133 H   0  0  0  0  0  0  0  0  0  0  0  0
  -10.2846   21.3460  -31.0790 H   0  0  0  0  0  0  0  0  0  0  0  0
   -9.8107   19.1112  -32.0883 H   0  0  0  0  0  0  0  0  0  0  0  0
   -7.6253   18.6839  -33.2135 H   0  0  0  0  0  0  0  0  0  0  0  0
   -5.4288   25.6798  -29.0461 H   0  0  0  0  0  0  0  0  0  0  0  0
   -4.8401   26.4067  -30.5796 H   0  0  0  0  0  0  0  0  0  0  0  0
   -6.3156   25.3822  -30.5796 H   0  0  0  0  0  0  0  0  0  0  0  0
   -1.1011   25.2265  -29.3562 H   0  0  0  0  0  0  0  0  0  0  0  0
   -0.2248   26.3168  -27.2906 H   0  0  0  0  0  0  0  0  0  0  0  0
   -1.5644   26.2677  -25.1836 H   0  0  0  0  0  0  0  0  0  0  0  0
   -3.7883   25.1336  -25.1456 H   0  0  0  0  0  0  0  0  0  0  0  0
   -4.6729   24.0417  -27.2071 H   0  0  0  0  0  0  0  0  0  0  0  0
  1  2  1  0
  2  3  1  0
  3  4  1  0
  4  5  1  0
  5  6  1  0
  6  7  1  0
  7  8  2  0
  8  9  1  0
  9 10  2  0
 10 11  1  0
 11 12  2  0
  3 13  2  0
 13 14  1  0
 14 15  1  0
 14 16  1  0
 16 17  1  0
 17 18  2  0
 18 19  1  0
 19 20  2  0
 20 21  1  0
 21 22  2  0
 16  2  2  0
 22 17  1  0
 12  7  1  0
  1 23  1  0
  1 24  1  0
  1 25  1  0
  4 26  1  0
  4 27  1  0
  5 28  1  0
  5 29  1  0
  6 30  1  0
  6 31  1  0
  8 32  1  0
  9 33  1  0
 10 34  1  0
 11 35  1  0
 12 36  1  0
 15 37  1  0
 15 38  1  0
 15 39  1  0
 18 40  1  0
 19 41  1  0
 20 42  1  0
 21 43  1  0
 22 44  1  0
M  CHG  1   5   1
M  END
>  <UniqueID>  (36) 
35

>  <SMILES>  (36) 
Cc1c(C[NH2+]Cc2ccccc2)nn(C)c1-c1ccccc1

>  <Energy>  (36) 
77.18750893417449

>  <Genealogy>  (36) 
Cc1c(C[NH2+]Cc2ccccc2)nn(C)c1-c1ccccc1 (protonated)
Cc1c(C[NH2+]Cc2ccccc2)nn(C)c1-c1ccccc1 (3D coordinates assigned)
Cc1c(C[NH2+]Cc2ccccc2)nn(C)c1-c1ccccc1 (optimized conformer: 77.18750893417449 kcal/mol)

>  <smiles>  (36) 
Cc1c(CNCc2ccccc2)nn(C)c1-c1ccccc1

>  <score_type>  (36) 
oracle

>  <origin>  (36) 
adg

>  <m_score__min__energy>  (36) 
-8.0500000000000007

>  <m_primary>  (36) 
energy

$$$$
36:0
     RDKit          3D

 70 73  0  0  0  0  0  0  0  0999 V2000
   -7.1660   24.0660  -29.7510 C   0  0  0  0  0  0  0  0  0  0  0  0
   -6.3740   23.0530  -30.4830 N   0  0  0  0  0  0  0  0  0  0  0  0
   -7.0150   22.0840  -31.2350 C   0  0  0  0  0  0  0  0  0  0  0  0
   -8.3940   22.1760  -31.5570 C   0  0  0  0  0  0  0  0  0  0  0  0
   -9.0320   21.1700  -32.2830 C   0  0  0  0  0  0  0  0  0  0  0  0
   -8.3210   20.0590  -32.7200 C   0  0  0  0  0  0  0  0  0  0  0  0
   -6.9570   19.9620  -32.4590 C   0  0  0  0  0  0  0  0  0  0  0  0
   -6.2850   20.9720  -31.7360 C   0  0  0  0  0  0  0  0  0  0  0  0
   -4.9000   20.9010  -31.5260 C   0  0  0  0  0  0  0  0  0  0  0  0
   -4.1410   19.8300  -32.1080 N   0  0  0  0  0  0  0  0  0  0  0  0
   -3.7900   19.8350  -33.5280 C   0  0  0  0  0  0  0  0  0  0  0  0
   -2.3180   19.4120  -33.7120 C   0  0  0  0  0  0  0  0  0  0  0  0
   -1.4040   20.5060  -34.1210 N   0  0  0  0  0  0  0  0  0  0  0  0
   -0.3840   20.0600  -35.0860 C   0  0  0  0  0  0  0  0  0  0  0  0
   -0.7770   21.1830  -32.9690 C   0  0  0  0  0  0  0  0  0  0  0  0
   -4.2400   21.9630  -30.8860 C   0  0  0  0  0  0  0  0  0  0  0  0
   -2.8380   21.9480  -30.7320 C   0  0  0  0  0  0  0  0  0  0  0  0
   -2.1750   23.0270  -30.1550 C   0  0  0  0  0  0  0  0  0  0  0  0
   -2.8920   24.1590  -29.7460 C   0  0  0  0  0  0  0  0  0  0  0  0
   -2.2660   25.2960  -29.2110 O   0  0  0  0  0  0  0  0  0  0  0  0
   -0.9710   25.3010  -28.6060 C   0  0  0  0  0  0  0  0  0  0  0  0
   -1.0280   24.6060  -27.2220 C   0  0  0  0  0  0  0  0  0  0  0  0
   -1.5750   25.4250  -26.0880 N   0  0  0  0  0  0  0  0  0  0  0  0
   -3.0630   25.3240  -26.0630 C   0  0  0  0  0  0  0  0  0  0  0  0
   -1.2120   26.8640  -26.3590 C   0  0  0  0  0  0  0  0  0  0  0  0
   -1.0070   27.6900  -25.0810 C   0  0  0  0  0  0  0  0  0  0  0  0
    0.1670   27.1330  -24.2590 C   0  0  0  0  0  0  0  0  0  0  0  0
    0.3060   25.6070  -24.3920 C   0  0  0  0  0  0  0  0  0  0  0  0
   -1.0370   24.9570  -24.7650 C   0  0  0  0  0  0  0  0  0  0  0  0
   -4.2840   24.1750  -29.8780 C   0  0  0  0  0  0  0  0  0  0  0  0
   -4.9920   23.0660  -30.4060 C   0  0  0  0  0  0  0  0  0  0  0  0
   -7.0462   23.9128  -28.6683 H   0  0  0  0  0  0  0  0  0  0  0  0
   -6.8127   25.0723  -30.0202 H   0  0  0  0  0  0  0  0  0  0  0  0
   -8.2278   23.9659  -30.0202 H   0  0  0  0  0  0  0  0  0  0  0  0
   -8.9690   23.0545  -31.2289 H   0  0  0  0  0  0  0  0  0  0  0  0
  -10.1046   21.2568  -32.5109 H   0  0  0  0  0  0  0  0  0  0  0  0
   -8.8349   19.2577  -33.2711 H   0  0  0  0  0  0  0  0  0  0  0  0
   -6.3957   19.0878  -32.8204 H   0  0  0  0  0  0  0  0  0  0  0  0
   -3.7830   19.0860  -31.4690 H   0  0  0  0  0  0  0  0  0  0  0  0
   -4.4410   19.1303  -34.0661 H   0  0  0  0  0  0  0  0  0  0  0  0
   -3.9254   20.8505  -33.9286 H   0  0  0  0  0  0  0  0  0  0  0  0
   -1.9571   19.0036  -32.7565 H   0  0  0  0  0  0  0  0  0  0  0  0
   -2.3066   18.6764  -34.5298 H   0  0  0  0  0  0  0  0  0  0  0  0
   -1.9950   21.2190  -34.6110 H   0  0  0  0  0  0  0  0  0  0  0  0
    0.4923   19.6769  -34.5425 H   0  0  0  0  0  0  0  0  0  0  0  0
   -0.8012   19.2622  -35.7180 H   0  0  0  0  0  0  0  0  0  0  0  0
   -0.0815   20.9080  -35.7180 H   0  0  0  0  0  0  0  0  0  0  0  0
   -1.1713   20.7573  -32.0345 H   0  0  0  0  0  0  0  0  0  0  0  0
    0.3127   21.0378  -33.0070 H   0  0  0  0  0  0  0  0  0  0  0  0
   -1.0052   22.2584  -33.0070 H   0  0  0  0  0  0  0  0  0  0  0  0
   -2.2626   21.0742  -31.0716 H   0  0  0  0  0  0  0  0  0  0  0  0
   -1.0840   22.9909  -30.0196 H   0  0  0  0  0  0  0  0  0  0  0  0
   -0.2641   24.7629  -29.2547 H   0  0  0  0  0  0  0  0  0  0  0  0
   -0.6392   26.3413  -28.4734 H   0  0  0  0  0  0  0  0  0  0  0  0
   -1.6581   23.7100  -27.3227 H   0  0  0  0  0  0  0  0  0  0  0  0
    0.0186   24.3977  -26.9551 H   0  0  0  0  0  0  0  0  0  0  0  0
   -3.4114   25.3003  -25.0199 H   0  0  0  0  0  0  0  0  0  0  0  0
   -3.4983   26.1947  -26.5753 H   0  0  0  0  0  0  0  0  0  0  0  0
   -3.3766   24.4025  -26.5753 H   0  0  0  0  0  0  0  0  0  0  0  0
   -0.2792   26.8849  -26.9416 H   0  0  0  0  0  0  0  0  0  0  0  0
   -2.0530   27.3145  -26.9065 H   0  0  0  0  0  0  0  0  0  0  0  0
   -0.7932   28.7335  -25.3554 H   0  0  0  0  0  0  0  0  0  0  0  0
   -1.9224   27.6362  -24.4734 H   0  0  0  0  0  0  0  0  0  0  0  0
    1.0976   27.6040  -24.6086 H   0  0  0  0  0  0  0  0  0  0  0  0
   -0.0278   27.3604  -23.2005 H   0  0  0  0  0  0  0  0  0  0  0  0
    1.0441   25.3808  -25.1756 H   0  0  0  0  0  0  0  0  0  0  0  0
    0.6325   25.2011  -23.4232 H   0  0  0  0  0  0  0  0  0  0  0  0
   -0.8969   23.8669  -24.8106 H   0  0  0  0  0  0  0  0  0  0  0  0
   -1.7660   25.2485  -23.9945 H   0  0  0  0  0  0  0  0  0  0  0  0
   -4.8429   25.0692  -29.5648 H   0  0  0  0  0  0  0  0  0  0  0  0
  1  2  1  0
  2  3  2  0
  3  4  1  0
  4  5  2  0
  5  6  1  0
  6  7  2  0
  7  8  1  0
  8  9  2  0
  9 10  1  0
 10 11  1  0
 11 12  1  0
 12 13  1  0
 13 14  1  0
 13 15  1  0
  9 16  1  0
 16 17  2  0
 17 18  1  0
 18 19  2  0
 19 20  1  0
 20 21  1  0
 21 22  1  0
 22 23  1  0
 23 24  1  0
 23 25  1  0
 25 26  1  0
 26 27  1  0
 27 28  1  0
 28 29  1  0
 19 30  1  0
 30 31  2  0
 31  2  1  0
  8  3  1  0
 31 16  1  0
 29 23  1  0
  1 32  1  0
  1 33  1  0
  1 34  1  0
  4 35  1  0
  5 36  1  0
  6 37  1  0
  7 38  1  0
 10 39  1  0
 11 40  1  0
 11 41  1  0
 12 42  1  0
 12 43  1  0
 13 44  1  0
 14 45  1  0
 14 46  1  0
 14 47  1  0
 15 48  1  0
 15 49  1  0
 15 50  1  0
 17 51  1  0
 18 52  1  0
 21 53  1  0
 21 54  1  0
 22 55  1  0
 22 56  1  0
 24 57  1  0
 24 58  1  0
 24 59  1  0
 25 60  1  0
 25 61  1  0
 26 62  1  0
 26 63  1  0
 27 64  1  0
 27 65  1  0
 28 66  1  0
 28 67  1  0
 29 68  1  0
 29 69  1  0
 30 70  1  0
M  CHG  3   2   1  13   1  23   1
M  END
>  <UniqueID>  (37) 
36

>  <SMILES>  (37) 
C[n+]1c2ccccc2c(NCC[NH+](C)C)c2ccc(OCC[N+]3(C)CCCCC3)cc21

>  <Energy>  (37) 
118.23595782986283

>  <Genealogy>  (37) 
C[n+]1c2ccccc2c(NCC[NH+](C)C)c2ccc(OCC[N+]3(C)CCCCC3)cc21 (protonated)
C[n+]1c2ccccc2c(NCC[NH+](C)C)c2ccc(OCC[N+]3(C)CCCCC3)cc21 (3D coordinates assigned)
C[n+]1c2ccccc2c(NCC[NH+](C)C)c2ccc(OCC[N+]3(C)CCCCC3)cc21 (nonaromatic ring conformer: 118.23595782986283 kcal/mol)

>  <smiles>  (37) 
CN(C)CCNc1c2ccccc2[n+](C)c2cc(OCC[N+]3(C)CCCCC3)ccc12

>  <score_type>  (37) 
oracle

>  <origin>  (37) 
adg

>  <m_score__min__energy>  (37) 
-7.4000000000000004

>  <m_primary>  (37) 
energy

$$$$
37:0
     RDKit          3D

 57 59  0  0  0  0  0  0  0  0999 V2000
   -2.4210   23.0400  -27.7000 C   0  0  0  0  0  0  0  0  0  0  0  0
   -3.0420   21.7760  -28.2830 C   0  0  0  0  0  0  0  0  0  0  0  0
   -1.9690   20.8730  -28.7690 N   0  0  0  0  0  0  0  0  0  0  0  0
   -1.8180   19.6660  -27.9230 C   0  0  0  0  0  0  0  0  0  0  0  0
   -2.9710   19.4560  -26.9280 C   0  0  0  0  0  0  0  0  0  0  0  0
   -0.6850   21.5610  -29.0380 C   0  0  0  0  0  0  0  0  0  0  0  0
   -0.5950   22.0100  -30.4990 C   0  0  0  0  0  0  0  0  0  0  0  0
   -1.8710   21.9740  -31.1020 O   0  0  0  0  0  0  0  0  0  0  0  0
   -1.8290   21.2570  -32.3230 C   0  0  0  0  0  0  0  0  0  0  0  0
   -3.1690   20.5460  -32.5680 C   0  0  0  0  0  0  0  0  0  0  0  0
   -3.9210   20.3090  -31.3220 N   0  0  0  0  0  0  0  0  0  0  0  0
   -5.2440   20.9260  -31.3530 C   0  0  0  0  0  0  0  0  0  0  0  0
   -6.3960   20.1350  -31.6320 C   0  0  0  0  0  0  0  0  0  0  0  0
   -6.3060   18.7360  -31.8670 C   0  0  0  0  0  0  0  0  0  0  0  0
   -7.4460   17.9640  -32.0760 C   0  0  0  0  0  0  0  0  0  0  0  0
   -8.7000   18.5530  -32.0410 C   0  0  0  0  0  0  0  0  0  0  0  0
   -8.8220   19.9240  -31.8370 C   0  0  0  0  0  0  0  0  0  0  0  0
   -7.6780   20.7500  -31.6810 C   0  0  0  0  0  0  0  0  0  0  0  0
   -7.7990   22.1200  -31.5750 N   0  0  0  0  0  0  0  0  0  0  0  0
   -9.0670   22.7810  -31.9660 C   0  0  0  0  0  0  0  0  0  0  0  0
   -6.7300   22.8810  -31.1470 C   0  0  0  0  0  0  0  0  0  0  0  0
   -6.9080   24.2360  -30.7600 C   0  0  0  0  0  0  0  0  0  0  0  0
   -5.8270   25.0330  -30.4010 C   0  0  0  0  0  0  0  0  0  0  0  0
   -4.5440   24.5090  -30.4100 C   0  0  0  0  0  0  0  0  0  0  0  0
   -3.4890   25.2930  -30.0780 F   0  0  0  0  0  0  0  0  0  0  0  0
   -4.3380   23.1710  -30.7410 C   0  0  0  0  0  0  0  0  0  0  0  0
   -5.4220   22.3160  -31.0780 C   0  0  0  0  0  0  0  0  0  0  0  0
   -2.4465   22.9880  -26.6015 H   0  0  0  0  0  0  0  0  0  0  0  0
   -1.3780   23.1260  -28.0389 H   0  0  0  0  0  0  0  0  0  0  0  0
   -2.9903   23.9181  -28.0389 H   0  0  0  0  0  0  0  0  0  0  0  0
   -3.6276   21.2636  -27.5055 H   0  0  0  0  0  0  0  0  0  0  0  0
   -3.7005   22.0457  -29.1219 H   0  0  0  0  0  0  0  0  0  0  0  0
   -1.7635   18.7862  -28.5810 H   0  0  0  0  0  0  0  0  0  0  0  0
   -0.9033   19.8049  -27.3280 H   0  0  0  0  0  0  0  0  0  0  0  0
   -2.5856   19.5262  -25.9001 H   0  0  0  0  0  0  0  0  0  0  0  0
   -3.7371   20.2294  -27.0860 H   0  0  0  0  0  0  0  0  0  0  0  0
   -3.4152   18.4622  -27.0860 H   0  0  0  0  0  0  0  0  0  0  0  0
   -0.6067   22.4432  -28.3857 H   0  0  0  0  0  0  0  0  0  0  0  0
    0.1366   20.8576  -28.8377 H   0  0  0  0  0  0  0  0  0  0  0  0
   -0.2033   23.0371  -30.5395 H   0  0  0  0  0  0  0  0  0  0  0  0
    0.0768   21.3289  -31.0420 H   0  0  0  0  0  0  0  0  0  0  0  0
   -1.6329   21.9569  -33.1487 H   0  0  0  0  0  0  0  0  0  0  0  0
   -1.0283   20.5047  -32.2698 H   0  0  0  0  0  0  0  0  0  0  0  0
   -3.7816   21.1692  -33.2361 H   0  0  0  0  0  0  0  0  0  0  0  0
   -2.9491   19.5658  -33.0161 H   0  0  0  0  0  0  0  0  0  0  0  0
   -4.0120   19.2790  -31.1670 H   0  0  0  0  0  0  0  0  0  0  0  0
   -3.3460   20.5900  -30.5010 H   0  0  0  0  0  0  0  0  0  0  0  0
   -5.3173   18.2541  -31.8841 H   0  0  0  0  0  0  0  0  0  0  0  0
   -7.3510   16.8853  -32.2691 H   0  0  0  0  0  0  0  0  0  0  0  0
   -9.6005   17.9356  -32.1747 H   0  0  0  0  0  0  0  0  0  0  0  0
   -9.8238   20.3764  -31.7958 H   0  0  0  0  0  0  0  0  0  0  0  0
   -9.6232   23.0709  -31.0623 H   0  0  0  0  0  0  0  0  0  0  0  0
   -8.8442   23.6777  -32.5629 H   0  0  0  0  0  0  0  0  0  0  0  0
   -9.6745   22.0848  -32.5629 H   0  0  0  0  0  0  0  0  0  0  0  0
   -7.9215   24.6633  -30.7440 H   0  0  0  0  0  0  0  0  0  0  0  0
   -5.9902   26.0810  -30.1094 H   0  0  0  0  0  0  0  0  0  0  0  0
   -3.3144   22.7681  -30.7414 H   0  0  0  0  0  0  0  0  0  0  0  0
  1  2  1  0
  2  3  1  0
  3  4  1  0
  4  5  1  0
  3  6  1  0
  6  7  1  0
  7  8  1  0
  8  9  1  0
  9 10  1  0
 10 11  1  0
 11 12  1  0
 12 13  2  0
 13 14  1  0
 14 15  2  0
 15 16  1  0
 16 17  2  0
 17 18  1  0
 18 19  2  0
 19 20  1  0
 19 21  1  0
 21 22  2  0
 22 23  1  0
 23 24  2  0
 24 25  1  0
 24 26  1  0
 26 27  2  0
 27 12  1  0
 18 13  1  0
 27 21  1  0
  1 28  1  0
  1 29  1  0
  1 30  1  0
  2 31  1  0
  2 32  1  0
  4 33  1  0
  4 34  1  0
  5 35  1  0
  5 36  1  0
  5 37  1  0
  6 38  1  0
  6 39  1  0
  7 40  1  0
  7 41  1  0
  9 42  1  0
  9 43  1  0
 10 44  1  0
 10 45  1  0
 11 46  1  0
 11 47  1  0
 14 48  1  0
 15 49  1  0
 16 50  1  0
 17 51  1  0
 20 52  1  0
 20 53  1  0
 20 54  1  0
 22 55  1  0
 23 56  1  0
 26 57  1  0
M  CHG  2  11   1  19   1
M  END
>  <UniqueID>  (38) 
37

>  <SMILES>  (38) 
CCN(CC)CCOCC[NH2+]c1c2ccccc2[n+](C)c2ccc(F)cc12

>  <Energy>  (38) 
89.35596771835178

>  <Genealogy>  (38) 
CCN(CC)CCOCC[NH2+]c1c2ccccc2[n+](C)c2ccc(F)cc12 (protonated)
CCN(CC)CCOCC[NH2+]c1c2ccccc2[n+](C)c2ccc(F)cc12 (3D coordinates assigned)
CCN(CC)CCOCC[NH2+]c1c2ccccc2[n+](C)c2ccc(F)cc12 (optimized conformer: 89.35596771835178 kcal/mol)

>  <smiles>  (38) 
CCN(CC)CCOCCNc1c2ccccc2[n+](C)c2ccc(F)cc12

>  <score_type>  (38) 
oracle

>  <origin>  (38) 
adg

>  <m_score__min__energy>  (38) 
-7.7699999999999996

>  <m_primary>  (38) 
energy

$$$$
38:0
     RDKit          3D

 44 44  0  0  0  0  0  0  0  0999 V2000
   -4.2810   21.9530  -32.9200 C   0  0  0  0  0  0  0  0  0  0  0  0
   -5.1680   22.1410  -31.6940 C   0  0  0  0  0  0  0  0  0  0  0  0
   -5.5020   23.5700  -31.5220 N   0  0  0  0  0  0  0  0  0  0  0  0
   -6.9670   23.7880  -31.4870 C   0  0  0  0  0  0  0  0  0  0  0  0
   -7.7190   22.4620  -31.6530 C   0  0  0  0  0  0  0  0  0  0  0  0
   -4.7330   24.1960  -30.0740 S   0  0  0  0  0  0  0  0  0  0  0  0
   -5.6550   25.1650  -29.3870 O   0  0  0  0  0  0  0  0  0  0  0  0
   -3.4820   24.9290  -30.4660 O   0  0  0  0  0  0  0  0  0  0  0  0
   -4.3070   22.8770  -28.9280 C   0  0  0  0  0  0  0  0  0  0  0  0
   -3.0610   23.2120  -28.0960 C   0  0  0  0  0  0  0  0  0  0  0  0
   -3.0480   24.6150  -27.6450 N   0  0  0  0  0  0  0  0  0  0  0  0
   -1.7020   25.2120  -27.5840 C   0  0  0  0  0  0  0  0  0  0  0  0
   -1.2790   25.5400  -26.1710 C   0  0  0  0  0  0  0  0  0  0  0  0
   -1.6110   26.7870  -25.6200 C   0  0  0  0  0  0  0  0  0  0  0  0
   -1.2140   27.1100  -24.3250 C   0  0  0  0  0  0  0  0  0  0  0  0
   -0.4800   26.1850  -23.5840 C   0  0  0  0  0  0  0  0  0  0  0  0
   -0.1510   24.9790  -24.1230 N   0  0  0  0  0  0  0  0  0  0  0  0
   -0.5230   24.6340  -25.3950 C   0  0  0  0  0  0  0  0  0  0  0  0
   -0.1550   23.3990  -25.9510 O   0  0  0  0  0  0  0  0  0  0  0  0
   -0.8310   22.1710  -25.7030 C   0  0  0  0  0  0  0  0  0  0  0  0
   -3.2520   21.7349  -32.5981 H   0  0  0  0  0  0  0  0  0  0  0  0
   -4.6618   21.1156  -33.5231 H   0  0  0  0  0  0  0  0  0  0  0  0
   -4.2893   22.8729  -33.5231 H   0  0  0  0  0  0  0  0  0  0  0  0
   -6.0954   21.5639  -31.8242 H   0  0  0  0  0  0  0  0  0  0  0  0
   -4.6289   21.7879  -30.8026 H   0  0  0  0  0  0  0  0  0  0  0  0
   -7.2414   24.2399  -30.5224 H   0  0  0  0  0  0  0  0  0  0  0  0
   -7.2439   24.4565  -32.3156 H   0  0  0  0  0  0  0  0  0  0  0  0
   -7.9542   22.0473  -30.6617 H   0  0  0  0  0  0  0  0  0  0  0  0
   -8.6524   22.6368  -32.2082 H   0  0  0  0  0  0  0  0  0  0  0  0
   -7.0899   21.7507  -32.2082 H   0  0  0  0  0  0  0  0  0  0  0  0
   -5.1545   22.7125  -28.2463 H   0  0  0  0  0  0  0  0  0  0  0  0
   -4.0869   21.9750  -29.5178 H   0  0  0  0  0  0  0  0  0  0  0  0
   -3.0391   22.5567  -27.2128 H   0  0  0  0  0  0  0  0  0  0  0  0
   -2.1791   23.0565  -28.7347 H   0  0  0  0  0  0  0  0  0  0  0  0
   -3.6410   25.1800  -28.2950 H   0  0  0  0  0  0  0  0  0  0  0  0
   -0.9806   24.5005  -28.0122 H   0  0  0  0  0  0  0  0  0  0  0  0
   -1.7273   26.1532  -28.1528 H   0  0  0  0  0  0  0  0  0  0  0  0
   -2.1871   27.5123  -26.2134 H   0  0  0  0  0  0  0  0  0  0  0  0
   -1.4771   28.0858  -23.8908 H   0  0  0  0  0  0  0  0  0  0  0  0
   -0.1652   26.4308  -22.5590 H   0  0  0  0  0  0  0  0  0  0  0  0
    0.4060   24.3230  -23.5330 H   0  0  0  0  0  0  0  0  0  0  0  0
   -0.9180   22.0130  -24.6179 H   0  0  0  0  0  0  0  0  0  0  0  0
   -1.8355   22.2087  -26.1497 H   0  0  0  0  0  0  0  0  0  0  0  0
   -0.2619   21.3424  -26.1497 H   0  0  0  0  0  0  0  0  0  0  0  0
  1  2  1  0
  2  3  1  0
  3  4  1  0
  4  5  1  0
  3  6  1  0
  6  7  2  0
  6  8  2  0
  6  9  1  0
  9 10  1  0
 10 11  1  0
 11 12  1  0
 12 13  1  0
 13 14  2  0
 14 15  1  0
 15 16  2  0
 16 17  1  0
 17 18  2  0
 18 19  1  0
 19 20  1  0
 18 13  1  0
  1 21  1  0
  1 22  1  0
  1 23  1  0
  2 24  1  0
  2 25  1  0
  4 26  1  0
  4 27  1  0
  5 28  1  0
  5 29  1  0
  5 30  1  0
  9 31  1  0
  9 32  1  0
 10 33  1  0
 10 34  1  0
 11 35  1  0
 12 36  1  0
 12 37  1  0
 14 38  1  0
 15 39  1  0
 16 40  1  0
 17 41  1  0
 20 42  1  0
 20 43  1  0
 20 44  1  0
M  CHG  1  17   1
M  END
>  <UniqueID>  (39) 
38

>  <SMILES>  (39) 
CCN(CC)S(=O)(=O)CCNCc1ccc[nH+]c1OC

>  <Energy>  (39) 
33.257597266911915

>  <Genealogy>  (39) 
CCN(CC)S(=O)(=O)CCNCc1ccc[nH+]c1OC (protonated)
CCN(CC)S(=O)(=O)CCNCc1ccc[nH+]c1OC (3D coordinates assigned)
CCN(CC)S(=O)(=O)CCNCc1ccc[nH+]c1OC (optimized conformer: 33.257597266911915 kcal/mol)

>  <smiles>  (39) 
CCN(CC)S(=O)(=O)CCNCc1cccnc1OC

>  <score_type>  (39) 
oracle

>  <origin>  (39) 
adg

>  <m_score__min__energy>  (39) 
-7.0899999999999999

>  <m_primary>  (39) 
energy

$$$$
