0:0
     RDKit          3D

 27 27  0  0  0  0  0  0  0  0999 V2000
   -8.6320   18.2500  -31.6280 C   0  0  0  0  0  0  0  0  0  0  0  0
   -9.0740   19.6000  -32.1810 C   0  0  0  0  0  0  0  0  0  0  0  0
   -8.0620   20.1300  -33.0950 N   0  0  0  0  0  0  0  0  0  0  0  0
   -6.8740   20.8270  -32.6680 C   0  0  0  0  0  0  0  0  0  0  0  0
   -6.9740   22.0010  -31.8970 C   0  0  0  0  0  0  0  0  0  0  0  0
   -5.8280   22.7270  -31.5300 C   0  0  0  0  0  0  0  0  0  0  0  0
   -5.9600   24.0110  -30.7480 C   0  0  0  0  0  0  0  0  0  0  0  0
   -5.7090   23.7950  -29.4030 F   0  0  0  0  0  0  0  0  0  0  0  0
   -5.0520   24.9330  -31.2340 F   0  0  0  0  0  0  0  0  0  0  0  0
   -7.2380   24.5270  -30.8700 F   0  0  0  0  0  0  0  0  0  0  0  0
   -4.5740   22.2990  -31.9870 C   0  0  0  0  0  0  0  0  0  0  0  0
   -4.4600   21.1370  -32.7490 C   0  0  0  0  0  0  0  0  0  0  0  0
   -5.5940   20.3820  -33.0830 C   0  0  0  0  0  0  0  0  0  0  0  0
   -5.4070   19.1270  -33.8460 C   0  0  0  0  0  0  0  0  0  0  0  0
   -6.1170   18.9170  -35.0670 N   0  0  0  0  0  0  0  0  0  0  0  0
   -4.2350   18.0680  -33.4060 S   0  0  0  0  0  0  0  0  0  0  0  0
   -8.6427   18.2828  -30.5285 H   0  0  0  0  0  0  0  0  0  0  0  0
   -9.3207   17.4670  -31.9782 H   0  0  0  0  0  0  0  0  0  0  0  0
   -7.6136   18.0260  -31.9782 H   0  0  0  0  0  0  0  0  0  0  0  0
  -10.0235   19.4771  -32.7227 H   0  0  0  0  0  0  0  0  0  0  0  0
   -9.2053   20.3034  -31.3455 H   0  0  0  0  0  0  0  0  0  0  0  0
   -8.2470   20.0210  -34.1170 H   0  0  0  0  0  0  0  0  0  0  0  0
   -7.9649   22.3555  -31.5769 H   0  0  0  0  0  0  0  0  0  0  0  0
   -3.6745   22.8833  -31.7430 H   0  0  0  0  0  0  0  0  0  0  0  0
   -3.4682   20.8081  -33.0926 H   0  0  0  0  0  0  0  0  0  0  0  0
   -6.8540   19.5890  -35.3780 H   0  0  0  0  0  0  0  0  0  0  0  0
   -5.9350   18.0720  -35.6510 H   0  0  0  0  0  0  0  0  0  0  0  0
  1  2  1  0
  2  3  1  0
  3  4  1  0
  4  5  2  0
  5  6  1  0
  6  7  1  0
  7  8  1  0
  7  9  1  0
  7 10  1  0
  6 11  2  0
 11 12  1  0
 12 13  2  0
 13 14  1  0
 14 15  1  0
 14 16  2  0
 13  4  1  0
  1 17  1  0
  1 18  1  0
  1 19  1  0
  2 20  1  0
  2 21  1  0
  3 22  1  0
  5 23  1  0
 11 24  1  0
 12 25  1  0
 15 26  1  0
 15 27  1  0
M  END
>  <UniqueID>  (1) 
1

>  <SMILES>  (1) 
CCNc1cc(C(F)(F)F)ccc1C(N)=S

>  <Energy>  (1) 
29.60652823979051

>  <Genealogy>  (1) 
CCNc1cc(C(F)(F)F)ccc1C(N)=S (3D coordinates assigned)
CCNc1cc(C(F)(F)F)ccc1C(N)=S (optimized conformer: 29.60652823979051 kcal/mol)

>  <smiles>  (1) 
CCNc1cc(C(F)(F)F)ccc1C(N)=S

>  <score_type>  (1) 
oracle

>  <origin>  (1) 
adg

>  <m_score__min__energy>  (1) 
-6.0599999999999996

>  <m_primary>  (1) 
energy

$$$$
1:0
     RDKit          3D

 38 40  0  0  0  0  0  0  0  0999 V2000
   -5.3660   26.3650  -30.3960 O   0  0  0  0  0  0  0  0  0  0  0  0
   -4.9230   25.1990  -30.5670 C   0  0  0  0  0  0  0  0  0  0  0  0
   -3.5080   24.9810  -30.4760 N   0  0  0  0  0  0  0  0  0  0  0  0
   -2.8510   23.7800  -29.9660 C   0  0  0  0  0  0  0  0  0  0  0  0
   -3.1450   23.5880  -28.4760 C   0  0  0  0  0  0  0  0  0  0  0  0
   -2.4280   24.6290  -27.6590 C   0  0  0  0  0  0  0  0  0  0  0  0
   -2.8770   24.9440  -26.3650 C   0  0  0  0  0  0  0  0  0  0  0  0
   -2.1920   25.8870  -25.5930 C   0  0  0  0  0  0  0  0  0  0  0  0
   -1.0510   26.5130  -26.1020 C   0  0  0  0  0  0  0  0  0  0  0  0
   -0.5900   26.1940  -27.3820 C   0  0  0  0  0  0  0  0  0  0  0  0
   -1.2720   25.2510  -28.1580 C   0  0  0  0  0  0  0  0  0  0  0  0
   -5.8830   24.1100  -30.8230 C   0  0  0  0  0  0  0  0  0  0  0  0
   -7.2130   24.0580  -30.4590 C   0  0  0  0  0  0  0  0  0  0  0  0
   -7.6870   22.8960  -30.8430 O   0  0  0  0  0  0  0  0  0  0  0  0
   -6.7040   22.2310  -31.4120 C   0  0  0  0  0  0  0  0  0  0  0  0
   -6.8630   20.8690  -31.9760 C   0  0  0  0  0  0  0  0  0  0  0  0
   -8.0110   20.0940  -31.7240 C   0  0  0  0  0  0  0  0  0  0  0  0
   -8.1330   18.8120  -32.2690 C   0  0  0  0  0  0  0  0  0  0  0  0
   -7.1150   18.2890  -33.0680 C   0  0  0  0  0  0  0  0  0  0  0  0
   -7.2370   17.0450  -33.5940 F   0  0  0  0  0  0  0  0  0  0  0  0
   -5.9720   19.0480  -33.3250 C   0  0  0  0  0  0  0  0  0  0  0  0
   -5.8440   20.3310  -32.7840 C   0  0  0  0  0  0  0  0  0  0  0  0
   -5.5570   22.9450  -31.4100 N   0  0  0  0  0  0  0  0  0  0  0  0
   -3.2189   22.9047  -30.5215 H   0  0  0  0  0  0  0  0  0  0  0  0
   -1.7646   23.8902  -30.0987 H   0  0  0  0  0  0  0  0  0  0  0  0
   -4.2281   23.6774  -28.3063 H   0  0  0  0  0  0  0  0  0  0  0  0
   -2.7942   22.5915  -28.1696 H   0  0  0  0  0  0  0  0  0  0  0  0
   -3.7701   24.4470  -25.9584 H   0  0  0  0  0  0  0  0  0  0  0  0
   -2.5516   26.1365  -24.5838 H   0  0  0  0  0  0  0  0  0  0  0  0
   -0.5154   27.2574  -25.4946 H   0  0  0  0  0  0  0  0  0  0  0  0
    0.3103   26.6851  -27.7798 H   0  0  0  0  0  0  0  0  0  0  0  0
   -0.9018   24.9959  -29.1619 H   0  0  0  0  0  0  0  0  0  0  0  0
   -7.7750   24.8485  -29.9402 H   0  0  0  0  0  0  0  0  0  0  0  0
   -8.8169   20.4994  -31.0946 H   0  0  0  0  0  0  0  0  0  0  0  0
   -9.0339   18.2139  -32.0674 H   0  0  0  0  0  0  0  0  0  0  0  0
   -5.1699   18.6357  -33.9548 H   0  0  0  0  0  0  0  0  0  0  0  0
   -4.9409   20.9237  -32.9913 H   0  0  0  0  0  0  0  0  0  0  0  0
   -4.6200   22.6760  -31.7810 H   0  0  0  0  0  0  0  0  0  0  0  0
  1  2  2  0
  2  3  1  0
  3  4  1  0
  4  5  1  0
  5  6  1  0
  6  7  2  0
  7  8  1  0
  8  9  2  0
  9 10  1  0
 10 11  2  0
  2 12  1  0
 12 13  2  0
 13 14  1  0
 14 15  1  0
 15 16  1  0
 16 17  2  0
 17 18  1  0
 18 19  2  0
 19 20  1  0
 19 21  1  0
 21 22  2  0
 15 23  2  0
 11  6  1  0
 23 12  1  0
 22 16  1  0
  4 24  1  0
  4 25  1  0
  5 26  1  0
  5 27  1  0
  7 28  1  0
  8 29  1  0
  9 30  1  0
 10 31  1  0
 11 32  1  0
 13 33  1  0
 17 34  1  0
 18 35  1  0
 21 36  1  0
 22 37  1  0
 23 38  1  0
M  CHG  2   3  -1  23   1
M  END
>  <UniqueID>  (2) 
2

>  <SMILES>  (2) 
O=C([N-]CCc1ccccc1)c1coc(-c2ccc(F)cc2)[nH+]1

>  <Energy>  (2) 
72.31396871448176

>  <Genealogy>  (2) 
O=C([N-]CCc1ccccc1)c1coc(-c2ccc(F)cc2)[nH+]1 (protonated)
O=C([N-]CCc1ccccc1)c1coc(-c2ccc(F)cc2)[nH+]1 (3D coordinates assigned)
O=C([N-]CCc1ccccc1)c1coc(-c2ccc(F)cc2)[nH+]1 (optimized conformer: 72.31396871448176 kcal/mol)

>  <smiles>  (2) 
O=C(NCCc1ccccc1)c1coc(-c2ccc(F)cc2)n1

>  <score_type>  (2) 
oracle

>  <origin>  (2) 
adg

>  <m_score__min__energy>  (2) 
-8.4900000000000002

>  <m_primary>  (2) 
energy

$$$$
2:0
     RDKit          3D

 56 58  0  0  0  0  0  0  0  0999 V2000
   -6.4690   25.3190  -29.7230 C   0  0  0  0  0  0  0  0  0  0  0  0
   -5.0800   24.8960  -30.2010 C   0  0  0  0  0  0  0  0  0  0  0  0
   -4.5800   23.7550  -29.4020 N   0  0  0  0  0  0  0  0  0  0  0  0
   -4.2470   24.1680  -28.0180 C   0  0  0  0  0  0  0  0  0  0  0  0
   -2.7410   24.3720  -27.8630 C   0  0  0  0  0  0  0  0  0  0  0  0
   -3.4430   23.0650  -30.0650 C   0  0  0  0  0  0  0  0  0  0  0  0
   -3.9310   21.7690  -30.7180 C   0  0  0  0  0  0  0  0  0  0  0  0
   -3.4240   21.6220  -32.1740 C   0  0  0  0  0  0  0  0  0  0  0  0
   -4.4800   21.5990  -33.2220 N   0  0  0  0  0  0  0  0  0  0  0  0
   -5.6450   20.7810  -32.9250 C   0  0  0  0  0  0  0  0  0  0  0  0
   -6.8510   21.3930  -32.4670 C   0  0  0  0  0  0  0  0  0  0  0  0
   -6.9920   22.8030  -32.4230 C   0  0  0  0  0  0  0  0  0  0  0  0
   -8.1720   23.3970  -31.9850 C   0  0  0  0  0  0  0  0  0  0  0  0
   -9.2430   22.6120  -31.5850 C   0  0  0  0  0  0  0  0  0  0  0  0
   -9.1430   21.2240  -31.6200 C   0  0  0  0  0  0  0  0  0  0  0  0
   -7.9550   20.5830  -32.0540 C   0  0  0  0  0  0  0  0  0  0  0  0
   -7.8580   19.2080  -32.0840 N   0  0  0  0  0  0  0  0  0  0  0  0
   -8.9670   18.3610  -31.5980 C   0  0  0  0  0  0  0  0  0  0  0  0
   -6.7300   18.6340  -32.6060 C   0  0  0  0  0  0  0  0  0  0  0  0
   -6.4620   16.9870  -32.8210 S   0  0  0  0  0  0  0  0  0  0  0  0
   -4.9400   17.1390  -33.4910 C   0  0  0  0  0  0  0  0  0  0  0  0
   -4.1240   15.9690  -33.9470 C   0  0  0  0  0  0  0  0  0  0  0  0
   -4.6060   18.4980  -33.5960 C   0  0  0  0  0  0  0  0  0  0  0  0
   -3.2980   18.9070  -34.2330 C   0  0  0  0  0  0  0  0  0  0  0  0
   -5.6220   19.3610  -33.0550 C   0  0  0  0  0  0  0  0  0  0  0  0
   -6.4919   25.3260  -28.6233 H   0  0  0  0  0  0  0  0  0  0  0  0
   -6.6956   26.3269  -30.1009 H   0  0  0  0  0  0  0  0  0  0  0  0
   -7.2189   24.6085  -30.1009 H   0  0  0  0  0  0  0  0  0  0  0  0
   -5.1363   24.5996  -31.2588 H   0  0  0  0  0  0  0  0  0  0  0  0
   -4.3896   25.7437  -30.0799 H   0  0  0  0  0  0  0  0  0  0  0  0
   -4.7647   25.1110  -27.7881 H   0  0  0  0  0  0  0  0  0  0  0  0
   -4.5698   23.3767  -27.3254 H   0  0  0  0  0  0  0  0  0  0  0  0
   -2.4838   24.4068  -26.7941 H   0  0  0  0  0  0  0  0  0  0  0  0
   -2.2068   23.5380  -28.3417 H   0  0  0  0  0  0  0  0  0  0  0  0
   -2.4479   25.3180  -28.3417 H   0  0  0  0  0  0  0  0  0  0  0  0
   -3.0156   23.7235  -30.8355 H   0  0  0  0  0  0  0  0  0  0  0  0
   -2.6758   22.8261  -29.3138 H   0  0  0  0  0  0  0  0  0  0  0  0
   -3.5662   20.9155  -30.1277 H   0  0  0  0  0  0  0  0  0  0  0  0
   -5.0304   21.7964  -30.7438 H   0  0  0  0  0  0  0  0  0  0  0  0
   -2.7544   22.4684  -32.3865 H   0  0  0  0  0  0  0  0  0  0  0  0
   -2.9290   20.6409  -32.2232 H   0  0  0  0  0  0  0  0  0  0  0  0
   -4.0570   21.2770  -34.1220 H   0  0  0  0  0  0  0  0  0  0  0  0
   -4.7630   22.5640  -33.4750 H   0  0  0  0  0  0  0  0  0  0  0  0
   -6.1531   23.4395  -32.7410 H   0  0  0  0  0  0  0  0  0  0  0  0
   -8.2554   24.4934  -31.9560 H   0  0  0  0  0  0  0  0  0  0  0  0
  -10.1731   23.0870  -31.2395 H   0  0  0  0  0  0  0  0  0  0  0  0
  -10.0017   20.6130  -31.3051 H   0  0  0  0  0  0  0  0  0  0  0  0
   -8.9711   18.3579  -30.4980 H   0  0  0  0  0  0  0  0  0  0  0  0
   -9.9229   18.7611  -31.9671 H   0  0  0  0  0  0  0  0  0  0  0  0
   -8.8326   17.3335  -31.9671 H   0  0  0  0  0  0  0  0  0  0  0  0
   -3.7436   15.4235  -33.0708 H   0  0  0  0  0  0  0  0  0  0  0  0
   -4.7512   15.2983  -34.5526 H   0  0  0  0  0  0  0  0  0  0  0  0
   -3.2779   16.3258  -34.5526 H   0  0  0  0  0  0  0  0  0  0  0  0
   -2.5634   19.1367  -33.4471 H   0  0  0  0  0  0  0  0  0  0  0  0
   -2.9212   18.0838  -34.8578 H   0  0  0  0  0  0  0  0  0  0  0  0
   -3.4573   19.7982  -34.8578 H   0  0  0  0  0  0  0  0  0  0  0  0
  1  2  1  0
  2  3  1  0
  3  4  1  0
  4  5  1  0
  3  6  1  0
  6  7  1  0
  7  8  1  0
  8  9  1  0
  9 10  1  0
 10 11  2  0
 11 12  1  0
 12 13  2  0
 13 14  1  0
 14 15  2  0
 15 16  1  0
 16 17  2  0
 17 18  1  0
 17 19  1  0
 19 20  1  0
 20 21  1  0
 21 22  1  0
 21 23  2  0
 23 24  1  0
 23 25  1  0
 25 10  1  0
 16 11  1  0
 25 19  2  0
  1 26  1  0
  1 27  1  0
  1 28  1  0
  2 29  1  0
  2 30  1  0
  4 31  1  0
  4 32  1  0
  5 33  1  0
  5 34  1  0
  5 35  1  0
  6 36  1  0
  6 37  1  0
  7 38  1  0
  7 39  1  0
  8 40  1  0
  8 41  1  0
  9 42  1  0
  9 43  1  0
 12 44  1  0
 13 45  1  0
 14 46  1  0
 15 47  1  0
 18 48  1  0
 18 49  1  0
 18 50  1  0
 22 51  1  0
 22 52  1  0
 22 53  1  0
 24 54  1  0
 24 55  1  0
 24 56  1  0
M  CHG  2   9   1  17   1
M  END
>  <UniqueID>  (3) 
3

>  <SMILES>  (3) 
CCN(CC)CCC[NH2+]c1c2ccccc2[n+](C)c2sc(C)c(C)c12

>  <Energy>  (3) 
111.68989000561986

>  <Genealogy>  (3) 
CCN(CC)CCC[NH2+]c1c2ccccc2[n+](C)c2sc(C)c(C)c12 (protonated)
CCN(CC)CCC[NH2+]c1c2ccccc2[n+](C)c2sc(C)c(C)c12 (3D coordinates assigned)
CCN(CC)CCC[NH2+]c1c2ccccc2[n+](C)c2sc(C)c(C)c12 (optimized conformer: 111.68989000561986 kcal/mol)

>  <smiles>  (3) 
CCN(CC)CCCNc1c2ccccc2[n+](C)c2sc(C)c(C)c12

>  <score_type>  (3) 
oracle

>  <origin>  (3) 
adg

>  <m_score__min__energy>  (3) 
-8.5800000000000001

>  <m_primary>  (3) 
energy

$$$$
3:0
     RDKit          3D

 64 66  0  0  0  0  0  0  0  0999 V2000
   -3.4250   21.1710  -29.8470 C   0  0  0  0  0  0  0  0  0  0  0  0
   -2.6410   21.3010  -28.5440 C   0  0  0  0  0  0  0  0  0  0  0  0
   -1.2770   21.8110  -28.8050 N   0  0  0  0  0  0  0  0  0  0  0  0
   -0.8940   21.7410  -30.2340 C   0  0  0  0  0  0  0  0  0  0  0  0
   -0.1530   20.4500  -30.6170 C   0  0  0  0  0  0  0  0  0  0  0  0
   -1.0210   23.1420  -28.2050 C   0  0  0  0  0  0  0  0  0  0  0  0
   -0.9110   24.1830  -29.3200 C   0  0  0  0  0  0  0  0  0  0  0  0
   -2.0450   25.0330  -29.3250 O   0  0  0  0  0  0  0  0  0  0  0  0
   -3.0390   24.5470  -28.4460 C   0  0  0  0  0  0  0  0  0  0  0  0
   -4.3780   24.5070  -29.1830 C   0  0  0  0  0  0  0  0  0  0  0  0
   -4.2220   24.9400  -30.5230 O   0  0  0  0  0  0  0  0  0  0  0  0
   -5.3990   24.7080  -31.2750 C   0  0  0  0  0  0  0  0  0  0  0  0
   -5.7330   23.2040  -31.3270 C   0  0  0  0  0  0  0  0  0  0  0  0
   -5.6790   22.6980  -32.7080 N   0  0  0  0  0  0  0  0  0  0  0  0
   -5.6220   21.2440  -32.7310 C   0  0  0  0  0  0  0  0  0  0  0  0
   -6.7900   20.4700  -32.4960 C   0  0  0  0  0  0  0  0  0  0  0  0
   -7.9980   21.0660  -32.0510 C   0  0  0  0  0  0  0  0  0  0  0  0
   -9.1590   20.3120  -31.9040 C   0  0  0  0  0  0  0  0  0  0  0  0
   -9.1520   18.9600  -32.2110 C   0  0  0  0  0  0  0  0  0  0  0  0
   -7.9730   18.3400  -32.6150 C   0  0  0  0  0  0  0  0  0  0  0  0
   -6.7560   19.0640  -32.7130 C   0  0  0  0  0  0  0  0  0  0  0  0
   -5.5690   18.4310  -33.0340 N   0  0  0  0  0  0  0  0  0  0  0  0
   -5.4900   16.9500  -33.0030 C   0  0  0  0  0  0  0  0  0  0  0  0
   -4.4430   19.1740  -33.3330 C   0  0  0  0  0  0  0  0  0  0  0  0
   -3.2840   18.5710  -33.8930 C   0  0  0  0  0  0  0  0  0  0  0  0
   -2.1130   19.2970  -34.0830 C   0  0  0  0  0  0  0  0  0  0  0  0
   -2.0590   20.6380  -33.7230 C   0  0  0  0  0  0  0  0  0  0  0  0
   -0.5640   21.5360  -33.9150 Cl  0  0  0  0  0  0  0  0  0  0  0  0
   -3.2000   21.2770  -33.2410 C   0  0  0  0  0  0  0  0  0  0  0  0
   -4.4230   20.5760  -33.0970 C   0  0  0  0  0  0  0  0  0  0  0  0
   -4.4868   20.9949  -29.6200 H   0  0  0  0  0  0  0  0  0  0  0  0
   -3.3235   22.0982  -30.4300 H   0  0  0  0  0  0  0  0  0  0  0  0
   -3.0297   20.3261  -30.4300 H   0  0  0  0  0  0  0  0  0  0  0  0
   -3.1657   21.9985  -27.8746 H   0  0  0  0  0  0  0  0  0  0  0  0
   -2.5647   20.3085  -28.0758 H   0  0  0  0  0  0  0  0  0  0  0  0
   -1.8085   21.8088  -30.8415 H   0  0  0  0  0  0  0  0  0  0  0  0
   -0.2009   22.5746  -30.4203 H   0  0  0  0  0  0  0  0  0  0  0  0
    0.1524   19.9179  -29.7040 H   0  0  0  0  0  0  0  0  0  0  0  0
   -0.8195   19.8070  -31.2106 H   0  0  0  0  0  0  0  0  0  0  0  0
    0.7384   20.7012  -31.2106 H   0  0  0  0  0  0  0  0  0  0  0  0
   -1.8503   23.4085  -27.5333 H   0  0  0  0  0  0  0  0  0  0  0  0
   -0.0831   23.1146  -27.6309 H   0  0  0  0  0  0  0  0  0  0  0  0
   -0.0065   24.7885  -29.1608 H   0  0  0  0  0  0  0  0  0  0  0  0
   -0.8556   23.6613  -30.2868 H   0  0  0  0  0  0  0  0  0  0  0  0
   -2.7719   23.5339  -28.1110 H   0  0  0  0  0  0  0  0  0  0  0  0
   -3.1162   25.2079  -27.5701 H   0  0  0  0  0  0  0  0  0  0  0  0
   -4.7627   23.4765  -29.1784 H   0  0  0  0  0  0  0  0  0  0  0  0
   -5.0841   25.1787  -28.6729 H   0  0  0  0  0  0  0  0  0  0  0  0
   -6.2366   25.2467  -30.8078 H   0  0  0  0  0  0  0  0  0  0  0  0
   -5.2355   25.0667  -32.3019 H   0  0  0  0  0  0  0  0  0  0  0  0
   -5.0053   22.6527  -30.7134 H   0  0  0  0  0  0  0  0  0  0  0  0
   -6.7525   23.0584  -30.9406 H   0  0  0  0  0  0  0  0  0  0  0  0
   -4.8670   23.1090  -33.2180 H   0  0  0  0  0  0  0  0  0  0  0  0
   -6.4990   23.0460  -33.2510 H   0  0  0  0  0  0  0  0  0  0  0  0
   -8.0176   22.1410  -31.8184 H   0  0  0  0  0  0  0  0  0  0  0  0
  -10.0824   20.7892  -31.5441 H   0  0  0  0  0  0  0  0  0  0  0  0
  -10.0808   18.3756  -32.1351 H   0  0  0  0  0  0  0  0  0  0  0  0
   -7.9846   17.2684  -32.8631 H   0  0  0  0  0  0  0  0  0  0  0  0
   -5.4716   16.6056  -31.9585 H   0  0  0  0  0  0  0  0  0  0  0  0
   -6.3668   16.5253  -33.5138 H   0  0  0  0  0  0  0  0  0  0  0  0
   -4.5730   16.6210  -33.5138 H   0  0  0  0  0  0  0  0  0  0  0  0
   -3.3138   17.5100  -34.1816 H   0  0  0  0  0  0  0  0  0  0  0  0
   -1.2287   18.8091  -34.5187 H   0  0  0  0  0  0  0  0  0  0  0  0
   -3.1504   22.3415  -32.9683 H   0  0  0  0  0  0  0  0  0  0  0  0
  1  2  1  0
  2  3  1  0
  3  4  1  0
  4  5  1  0
  3  6  1  0
  6  7  1  0
  7  8  1  0
  8  9  1  0
  9 10  1  0
 10 11  1  0
 11 12  1  0
 12 13  1  0
 13 14  1  0
 14 15  1  0
 15 16  2  0
 16 17  1  0
 17 18  2  0
 18 19  1  0
 19 20  2  0
 20 21  1  0
 21 22  2  0
 22 23  1  0
 22 24  1  0
 24 25  2  0
 25 26  1  0
 26 27  2  0
 27 28  1  0
 27 29  1  0
 29 30  2  0
 30 15  1  0
 21 16  1  0
 30 24  1  0
  1 31  1  0
  1 32  1  0
  1 33  1  0
  2 34  1  0
  2 35  1  0
  4 36  1  0
  4 37  1  0
  5 38  1  0
  5 39  1  0
  5 40  1  0
  6 41  1  0
  6 42  1  0
  7 43  1  0
  7 44  1  0
  9 45  1  0
  9 46  1  0
 10 47  1  0
 10 48  1  0
 12 49  1  0
 12 50  1  0
 13 51  1  0
 13 52  1  0
 14 53  1  0
 14 54  1  0
 17 55  1  0
 18 56  1  0
 19 57  1  0
 20 58  1  0
 23 59  1  0
 23 60  1  0
 23 61  1  0
 25 62  1  0
 26 63  1  0
 29 64  1  0
M  CHG  2  14   1  22   1
M  END
>  <UniqueID>  (4) 
4

>  <SMILES>  (4) 
CCN(CC)CCOCCOCC[NH2+]c1c2ccccc2[n+](C)c2ccc(Cl)cc12

>  <Energy>  (4) 
98.02051460512017

>  <Genealogy>  (4) 
CCN(CC)CCOCCOCC[NH2+]c1c2ccccc2[n+](C)c2ccc(Cl)cc12 (protonated)
CCN(CC)CCOCCOCC[NH2+]c1c2ccccc2[n+](C)c2ccc(Cl)cc12 (3D coordinates assigned)
CCN(CC)CCOCCOCC[NH2+]c1c2ccccc2[n+](C)c2ccc(Cl)cc12 (optimized conformer: 98.02051460512017 kcal/mol)

>  <smiles>  (4) 
CCN(CC)CCOCCOCCNc1c2ccccc2[n+](C)c2ccc(Cl)cc12

>  <score_type>  (4) 
oracle

>  <origin>  (4) 
adg

>  <m_score__min__energy>  (4) 
-8.3399999999999999

>  <m_primary>  (4) 
energy

$$$$
4:0
     RDKit          3D

 83 86  0  0  0  0  0  0  0  0999 V2000
    0.6270   23.6130  -36.0630 C   0  0  0  0  0  0  0  0  0  0  0  0
    0.7930   22.0950  -36.0100 C   0  0  0  0  0  0  0  0  0  0  0  0
    0.8420   21.5520  -34.5740 C   0  0  0  0  0  0  0  0  0  0  0  0
    0.4760   20.0640  -34.4980 C   0  0  0  0  0  0  0  0  0  0  0  0
   -0.9770   19.8940  -34.1810 C   0  0  0  0  0  0  0  0  0  0  0  0
   -1.7340   20.9700  -33.8640 N   0  0  0  0  0  0  0  0  0  0  0  0
   -3.0530   20.8550  -33.5590 C   0  0  0  0  0  0  0  0  0  0  0  0
   -3.7850   22.1130  -33.1910 C   0  0  0  0  0  0  0  0  0  0  0  0
   -3.6740   19.5750  -33.5760 C   0  0  0  0  0  0  0  0  0  0  0  0
   -5.1390   19.3970  -33.1510 C   0  0  0  0  0  0  0  0  0  0  0  0
   -6.0190   18.7000  -34.2230 C   0  0  0  0  0  0  0  0  0  0  0  0
   -6.8920   17.5800  -33.6270 C   0  0  0  0  0  0  0  0  0  0  0  0
   -7.5970   18.0060  -32.3950 N   0  0  0  0  0  0  0  0  0  0  0  0
   -8.7690   18.8580  -32.6940 C   0  0  0  0  0  0  0  0  0  0  0  0
   -9.1140   19.7360  -31.4860 C   0  0  0  0  0  0  0  0  0  0  0  0
   -9.0370   21.2370  -31.8180 C   0  0  0  0  0  0  0  0  0  0  0  0
   -7.6530   21.6880  -31.7900 N   0  0  0  0  0  0  0  0  0  0  0  0
   -7.2750   23.0510  -32.0090 C   0  0  0  0  0  0  0  0  0  0  0  0
   -8.0000   23.7980  -32.7250 O   0  0  0  0  0  0  0  0  0  0  0  0
   -5.9570   23.5400  -31.4560 C   0  0  1  0  0  0  0  0  0  0  0  0
   -6.0780   25.0190  -31.0140 C   0  0  0  0  0  0  0  0  0  0  0  0
   -6.1430   25.1510  -29.4950 C   0  0  0  0  0  0  0  0  0  0  0  0
   -4.8910   24.5410  -28.8340 C   0  0  0  0  0  0  0  0  0  0  0  0
   -4.3850   23.3090  -29.5060 N   0  0  0  0  0  0  0  0  0  0  0  0
   -3.1300   23.5340  -30.2570 C   0  0  0  0  0  0  0  0  0  0  0  0
   -1.9190   23.3160  -29.3440 C   0  0  0  0  0  0  0  0  0  0  0  0
   -1.3560   21.9330  -29.5320 C   0  0  0  0  0  0  0  0  0  0  0  0
   -0.8500   21.5420  -30.7830 C   0  0  0  0  0  0  0  0  0  0  0  0
   -0.3530   20.2490  -30.9710 C   0  0  0  0  0  0  0  0  0  0  0  0
   -0.3620   19.3370  -29.9120 C   0  0  0  0  0  0  0  0  0  0  0  0
   -0.8730   19.7150  -28.6670 C   0  0  0  0  0  0  0  0  0  0  0  0
   -1.3750   21.0060  -28.4750 C   0  0  0  0  0  0  0  0  0  0  0  0
   -5.4160   22.6300  -30.3170 C   0  0  0  0  0  0  0  0  0  0  0  0
   -6.7090   18.5950  -31.3520 C   0  0  0  0  0  0  0  0  0  0  0  0
   -5.2380   18.7220  -31.7730 C   0  0  0  0  0  0  0  0  0  0  0  0
   -2.8510   18.4710  -33.9270 C   0  0  0  0  0  0  0  0  0  0  0  0
   -3.4290   16.8110  -33.9860 Cl  0  0  0  0  0  0  0  0  0  0  0  0
   -1.5420   18.6650  -34.2210 N   0  0  0  0  0  0  0  0  0  0  0  0
    0.5833   24.0130  -35.0393 H   0  0  0  0  0  0  0  0  0  0  0  0
    1.4819   24.0570  -36.5940 H   0  0  0  0  0  0  0  0  0  0  0  0
   -0.3037   23.8618  -36.5940 H   0  0  0  0  0  0  0  0  0  0  0  0
   -0.0558   21.6300  -36.5329 H   0  0  0  0  0  0  0  0  0  0  0  0
    1.7517   21.8494  -36.4901 H   0  0  0  0  0  0  0  0  0  0  0  0
    1.8604   21.6857  -34.1804 H   0  0  0  0  0  0  0  0  0  0  0  0
    0.1034   22.1096  -33.9794 H   0  0  0  0  0  0  0  0  0  0  0  0
    0.6928   19.5886  -35.4660 H   0  0  0  0  0  0  0  0  0  0  0  0
    1.0702   19.5931  -33.7010 H   0  0  0  0  0  0  0  0  0  0  0  0
   -3.8359   22.2005  -32.0957 H   0  0  0  0  0  0  0  0  0  0  0  0
   -3.2514   22.9818  -33.6038 H   0  0  0  0  0  0  0  0  0  0  0  0
   -4.8040   22.0784  -33.6038 H   0  0  0  0  0  0  0  0  0  0  0  0
   -5.5616   20.4083  -33.0578 H   0  0  0  0  0  0  0  0  0  0  0  0
   -6.6756   19.4521  -34.6847 H   0  0  0  0  0  0  0  0  0  0  0  0
   -5.3466   18.2432  -34.9641 H   0  0  0  0  0  0  0  0  0  0  0  0
   -7.6399   17.2793  -34.3755 H   0  0  0  0  0  0  0  0  0  0  0  0
   -6.2283   16.7442  -33.3607 H   0  0  0  0  0  0  0  0  0  0  0  0
   -8.5387   19.5016  -33.5558 H   0  0  0  0  0  0  0  0  0  0  0  0
   -9.6298   18.2127  -32.9233 H   0  0  0  0  0  0  0  0  0  0  0  0
  -10.1358   19.4982  -31.1554 H   0  0  0  0  0  0  0  0  0  0  0  0
   -8.3787   19.5267  -30.6951 H   0  0  0  0  0  0  0  0  0  0  0  0
   -9.4550   21.4092  -32.8208 H   0  0  0  0  0  0  0  0  0  0  0  0
   -9.6131   21.8002  -31.0691 H   0  0  0  0  0  0  0  0  0  0  0  0
   -5.2112   23.4827  -32.2626 H   0  0  0  0  0  0  0  0  0  0  0  0
   -5.2028   25.5740  -31.3829 H   0  0  0  0  0  0  0  0  0  0  0  0
   -7.0093   25.4271  -31.4337 H   0  0  0  0  0  0  0  0  0  0  0  0
   -6.2075   26.2164  -29.2288 H   0  0  0  0  0  0  0  0  0  0  0  0
   -7.0296   24.6094  -29.1335 H   0  0  0  0  0  0  0  0  0  0  0  0
   -4.0907   25.2955  -28.8484 H   0  0  0  0  0  0  0  0  0  0  0  0
   -5.1819   24.2487  -27.8142 H   0  0  0  0  0  0  0  0  0  0  0  0
   -3.0803   22.8296  -31.1004 H   0  0  0  0  0  0  0  0  0  0  0  0
   -3.1161   24.5688  -30.6297 H   0  0  0  0  0  0  0  0  0  0  0  0
   -1.1443   24.0579  -29.5878 H   0  0  0  0  0  0  0  0  0  0  0  0
   -2.2388   23.4295  -28.2976 H   0  0  0  0  0  0  0  0  0  0  0  0
   -0.8449   22.2570  -31.6189 H   0  0  0  0  0  0  0  0  0  0  0  0
    0.0449   19.9496  -31.9518 H   0  0  0  0  0  0  0  0  0  0  0  0
    0.0333   18.3210  -30.0583 H   0  0  0  0  0  0  0  0  0  0  0  0
   -0.8803   18.9947  -27.8357 H   0  0  0  0  0  0  0  0  0  0  0  0
   -1.7850   21.2965  -27.4965 H   0  0  0  0  0  0  0  0  0  0  0  0
   -4.9772   21.7256  -30.7637 H   0  0  0  0  0  0  0  0  0  0  0  0
   -6.2577   22.3797  -29.6545 H   0  0  0  0  0  0  0  0  0  0  0  0
   -7.0850   19.5992  -31.1064 H   0  0  0  0  0  0  0  0  0  0  0  0
   -6.7327   17.9079  -30.4934 H   0  0  0  0  0  0  0  0  0  0  0  0
   -4.6983   19.3288  -31.0310 H   0  0  0  0  0  0  0  0  0  0  0  0
   -4.7922   17.7180  -31.8311 H   0  0  0  0  0  0  0  0  0  0  0  0
  1  2  1  0
  2  3  1  0
  3  4  1  0
  4  5  1  0
  5  6  2  0
  6  7  1  0
  7  8  1  0
  7  9  2  0
  9 10  1  0
 10 11  1  0
 11 12  1  0
 12 13  1  0
 13 14  1  0
 14 15  1  0
 15 16  1  0
 16 17  1  0
 17 18  1  0
 18 19  2  0
 18 20  1  0
 20 21  1  0
 21 22  1  0
 22 23  1  0
 23 24  1  0
 24 25  1  0
 25 26  1  0
 26 27  1  0
 27 28  2  0
 28 29  1  0
 29 30  2  0
 30 31  1  0
 31 32  2  0
 24 33  1  0
 13 34  1  0
 34 35  1  0
  9 36  1  0
 36 37  1  0
 36 38  2  0
 38  5  1  0
 35 10  1  0
 33 20  1  0
 32 27  1  0
  1 39  1  0
  1 40  1  0
  1 41  1  0
  2 42  1  0
  2 43  1  0
  3 44  1  0
  3 45  1  0
  4 46  1  0
  4 47  1  0
  8 48  1  0
  8 49  1  0
  8 50  1  0
 10 51  1  0
 11 52  1  0
 11 53  1  0
 12 54  1  0
 12 55  1  0
 14 56  1  0
 14 57  1  0
 15 58  1  0
 15 59  1  0
 16 60  1  0
 16 61  1  0
 20 62  1  6
 21 63  1  0
 21 64  1  0
 22 65  1  0
 22 66  1  0
 23 67  1  0
 23 68  1  0
 25 69  1  0
 25 70  1  0
 26 71  1  0
 26 72  1  0
 28 73  1  0
 29 74  1  0
 30 75  1  0
 31 76  1  0
 32 77  1  0
 33 78  1  0
 33 79  1  0
 34 80  1  0
 34 81  1  0
 35 82  1  0
 35 83  1  0
M  CHG  1  17  -1
M  END
>  <UniqueID>  (5) 
5

>  <SMILES>  (5) 
CCCCc1nc(C)c(C2CCN(CCC[N-]C(=O)[C@H]3CCCN(CCc4ccccc4)C3)CC2)c(Cl)n1

>  <Energy>  (5) 
99.78110633111513

>  <Genealogy>  (5) 
CCCCc1nc(C)c(C2CCN(CCC[N-]C(=O)C3CCCN(CCc4ccccc4)C3)CC2)c(Cl)n1 (protonated)
CCCCc1nc(C)c(C2CCN(CCC[N-]C(=O)[C@H]3CCCN(CCc4ccccc4)C3)CC2)c(Cl)n1 (chirality)
CCCCc1nc(C)c(C2CCN(CCC[N-]C(=O)[C@H]3CCCN(CCc4ccccc4)C3)CC2)c(Cl)n1 (3D coordinates assigned)
CCCCc1nc(C)c(C2CCN(CCC[N-]C(=O)[C@H]3CCCN(CCc4ccccc4)C3)CC2)c(Cl)n1 (nonaromatic ring conformer: 99.78110633111513 kcal/mol)

>  <smiles>  (5) 
CCCCc1nc(C)c(C2CCN(CCCNC(=O)C3CCCN(CCc4ccccc4)C3)CC2)c(Cl)n1

>  <score_type>  (5) 
oracle

>  <origin>  (5) 
adg

>  <m_score__min__energy>  (5) 
-11.529999999999999

>  <m_primary>  (5) 
energy

$$$$
5:0
     RDKit          3D

 33 34  0  0  0  0  0  0  0  0999 V2000
   -6.8460   18.1010  -33.0580 C   0  0  0  0  0  0  0  0  0  0  0  0
   -8.1390   18.5980  -32.4050 C   0  0  0  0  0  0  0  0  0  0  0  0
   -8.6030   19.8840  -32.9600 N   0  0  0  0  0  0  0  0  0  0  0  0
   -9.4490   20.6830  -32.0520 C   0  0  0  0  0  0  0  0  0  0  0  0
   -8.8250   22.0340  -31.6710 C   0  0  0  0  0  0  0  0  0  0  0  0
   -7.6290   22.2510  -32.4150 O   0  0  0  0  0  0  0  0  0  0  0  0
   -6.4810   22.8850  -31.9120 C   0  0  0  0  0  0  0  0  0  0  0  0
   -6.5330   24.1510  -31.3070 C   0  0  0  0  0  0  0  0  0  0  0  0
   -5.3560   24.7310  -30.8260 C   0  0  0  0  0  0  0  0  0  0  0  0
   -5.3910   25.8650  -30.2820 O   0  0  0  0  0  0  0  0  0  0  0  0
   -4.1960   24.0920  -30.9380 O   0  0  0  0  0  0  0  0  0  0  0  0
   -4.0900   22.8930  -31.5010 C   0  0  0  0  0  0  0  0  0  0  0  0
   -2.8370   22.2770  -31.5880 C   0  0  0  0  0  0  0  0  0  0  0  0
   -2.7150   21.0170  -32.1810 C   0  0  0  0  0  0  0  0  0  0  0  0
   -3.8420   20.3670  -32.6890 C   0  0  0  0  0  0  0  0  0  0  0  0
   -5.1000   20.9730  -32.6080 C   0  0  0  0  0  0  0  0  0  0  0  0
   -5.2360   22.2400  -32.0120 C   0  0  0  0  0  0  0  0  0  0  0  0
   -6.1236   17.8233  -32.2763 H   0  0  0  0  0  0  0  0  0  0  0  0
   -7.0650   17.2230  -33.6834 H   0  0  0  0  0  0  0  0  0  0  0  0
   -6.4206   18.8997  -33.6834 H   0  0  0  0  0  0  0  0  0  0  0  0
   -8.9242   17.8438  -32.5620 H   0  0  0  0  0  0  0  0  0  0  0  0
   -7.9309   18.7547  -31.3363 H   0  0  0  0  0  0  0  0  0  0  0  0
   -9.1420   19.6980  -33.8370 H   0  0  0  0  0  0  0  0  0  0  0  0
   -7.7660   20.4500  -33.2310 H   0  0  0  0  0  0  0  0  0  0  0  0
  -10.4127   20.8711  -32.5480 H   0  0  0  0  0  0  0  0  0  0  0  0
   -9.5663   20.1051  -31.1234 H   0  0  0  0  0  0  0  0  0  0  0  0
   -9.5409   22.8398  -31.8907 H   0  0  0  0  0  0  0  0  0  0  0  0
   -8.5840   22.0281  -30.5977 H   0  0  0  0  0  0  0  0  0  0  0  0
   -7.4919   24.6817  -31.2124 H   0  0  0  0  0  0  0  0  0  0  0  0
   -1.9465   22.7849  -31.1892 H   0  0  0  0  0  0  0  0  0  0  0  0
   -1.7281   20.5358  -32.2478 H   0  0  0  0  0  0  0  0  0  0  0  0
   -3.7400   19.3755  -33.1542 H   0  0  0  0  0  0  0  0  0  0  0  0
   -5.9845   20.4580  -33.0110 H   0  0  0  0  0  0  0  0  0  0  0  0
  1  2  1  0
  2  3  1  0
  3  4  1  0
  4  5  1  0
  5  6  1  0
  6  7  1  0
  7  8  2  0
  8  9  1  0
  9 10  2  0
  9 11  1  0
 11 12  1  0
 12 13  2  0
 13 14  1  0
 14 15  2  0
 15 16  1  0
 16 17  2  0
 17  7  1  0
 17 12  1  0
  1 18  1  0
  1 19  1  0
  1 20  1  0
  2 21  1  0
  2 22  1  0
  3 23  1  0
  3 24  1  0
  4 25  1  0
  4 26  1  0
  5 27  1  0
  5 28  1  0
  8 29  1  0
 13 30  1  0
 14 31  1  0
 15 32  1  0
 16 33  1  0
M  CHG  1   3   1
M  END
>  <UniqueID>  (6) 
6

>  <SMILES>  (6) 
CC[NH2+]CCOc1cc(=O)oc2ccccc12

>  <Energy>  (6) 
35.24090920012951

>  <Genealogy>  (6) 
CC[NH2+]CCOc1cc(=O)oc2ccccc12 (protonated)
CC[NH2+]CCOc1cc(=O)oc2ccccc12 (3D coordinates assigned)
CC[NH2+]CCOc1cc(=O)oc2ccccc12 (optimized conformer: 35.24090920012951 kcal/mol)

>  <smiles>  (6) 
CCNCCOc1cc(=O)oc2ccccc12

>  <score_type>  (6) 
oracle

>  <origin>  (6) 
adg

>  <m_score__min__energy>  (6) 
-5.6399999999999997

>  <m_primary>  (6) 
energy

$$$$
6:0
     RDKit          3D

 57 59  0  0  0  0  0  0  0  0999 V2000
   -0.5510   20.9000  -32.7620 C   0  0  0  0  0  0  0  0  0  0  0  0
   -0.7750   20.8290  -34.2700 C   0  0  0  0  0  0  0  0  0  0  0  0
   -2.1160   20.4300  -34.5650 O   0  0  0  0  0  0  0  0  0  0  0  0
   -2.7550   19.2430  -34.1620 C   0  0  0  0  0  0  0  0  0  0  0  0
   -2.0430   18.0320  -34.2120 C   0  0  0  0  0  0  0  0  0  0  0  0
   -2.6440   16.8360  -33.8740 C   0  0  0  0  0  0  0  0  0  0  0  0
   -3.9860   16.8050  -33.5470 C   0  0  0  0  0  0  0  0  0  0  0  0
   -4.7670   17.9850  -33.5230 C   0  0  0  0  0  0  0  0  0  0  0  0
   -4.1260   19.2490  -33.7140 C   0  0  0  0  0  0  0  0  0  0  0  0
   -4.8820   20.4460  -33.4390 C   0  0  0  0  0  0  0  0  0  0  0  0
   -4.2440   21.7600  -33.4660 N   0  0  0  0  0  0  0  0  0  0  0  0
   -3.7200   22.1750  -32.1460 C   0  0  0  0  0  0  0  0  0  0  0  0
   -4.7300   22.9950  -31.3160 C   0  0  0  0  0  0  0  0  0  0  0  0
   -4.1270   24.2640  -30.8420 N   0  0  0  0  0  0  0  0  0  0  0  0
   -5.1420   25.2850  -30.4800 C   0  0  0  0  0  0  0  0  0  0  0  0
   -6.5300   24.6570  -30.4630 C   0  0  0  0  0  0  0  0  0  0  0  0
   -3.1160   24.0670  -29.7750 C   0  0  0  0  0  0  0  0  0  0  0  0
   -3.6770   24.1750  -28.3460 C   0  0  0  0  0  0  0  0  0  0  0  0
   -6.2490   20.3170  -33.0240 C   0  0  0  0  0  0  0  0  0  0  0  0
   -7.0680   21.4380  -32.6930 C   0  0  0  0  0  0  0  0  0  0  0  0
   -8.3740   21.2800  -32.2390 C   0  0  0  0  0  0  0  0  0  0  0  0
   -8.9110   20.0150  -32.0850 C   0  0  0  0  0  0  0  0  0  0  0  0
   -8.1540   18.8990  -32.4160 C   0  0  0  0  0  0  0  0  0  0  0  0
   -6.8350   19.0220  -32.9290 C   0  0  0  0  0  0  0  0  0  0  0  0
   -6.1240   17.9070  -33.3060 N   0  0  0  0  0  0  0  0  0  0  0  0
   -6.8320   16.6220  -33.5220 C   0  0  0  0  0  0  0  0  0  0  0  0
   -1.4740   20.6074  -32.2400 H   0  0  0  0  0  0  0  0  0  0  0  0
    0.2626   20.2157  -32.4795 H   0  0  0  0  0  0  0  0  0  0  0  0
   -0.2801   21.9280  -32.4795 H   0  0  0  0  0  0  0  0  0  0  0  0
   -0.5884   21.8200  -34.7095 H   0  0  0  0  0  0  0  0  0  0  0  0
   -0.0841   20.0860  -34.6949 H   0  0  0  0  0  0  0  0  0  0  0  0
   -0.9887   18.0374  -34.5259 H   0  0  0  0  0  0  0  0  0  0  0  0
   -2.0543   15.9075  -33.8650 H   0  0  0  0  0  0  0  0  0  0  0  0
   -4.4576   15.8424  -33.3000 H   0  0  0  0  0  0  0  0  0  0  0  0
   -3.4960   21.7840  -34.1890 H   0  0  0  0  0  0  0  0  0  0  0  0
   -4.8500   22.5200  -33.8280 H   0  0  0  0  0  0  0  0  0  0  0  0
   -3.4529   21.2721  -31.5773 H   0  0  0  0  0  0  0  0  0  0  0  0
   -2.8501   22.8224  -32.3308 H   0  0  0  0  0  0  0  0  0  0  0  0
   -5.6056   23.2249  -31.9409 H   0  0  0  0  0  0  0  0  0  0  0  0
   -5.0257   22.4002  -30.4392 H   0  0  0  0  0  0  0  0  0  0  0  0
   -4.9127   25.6890  -29.4829 H   0  0  0  0  0  0  0  0  0  0  0  0
   -5.1211   26.0946  -31.2244 H   0  0  0  0  0  0  0  0  0  0  0  0
   -6.8535   24.5106  -29.4219 H   0  0  0  0  0  0  0  0  0  0  0  0
   -7.2396   25.3218  -30.9774 H   0  0  0  0  0  0  0  0  0  0  0  0
   -6.4991   23.6852  -30.9774 H   0  0  0  0  0  0  0  0  0  0  0  0
   -2.6754   23.0666  -29.8978 H   0  0  0  0  0  0  0  0  0  0  0  0
   -2.3777   24.8748  -29.8864 H   0  0  0  0  0  0  0  0  0  0  0  0
   -2.8650   24.0187  -27.6205 H   0  0  0  0  0  0  0  0  0  0  0  0
   -4.1137   25.1737  -28.1980 H   0  0  0  0  0  0  0  0  0  0  0  0
   -4.4533   23.4098  -28.1980 H   0  0  0  0  0  0  0  0  0  0  0  0
   -6.6565   22.4526  -32.7994 H   0  0  0  0  0  0  0  0  0  0  0  0
   -8.9819   22.1655  -32.0015 H   0  0  0  0  0  0  0  0  0  0  0  0
   -9.9347   19.8932  -31.7014 H   0  0  0  0  0  0  0  0  0  0  0  0
   -8.5856   17.8967  -32.2778 H   0  0  0  0  0  0  0  0  0  0  0  0
   -7.0800   16.1720  -32.5494 H   0  0  0  0  0  0  0  0  0  0  0  0
   -7.7573   16.8038  -34.0884 H   0  0  0  0  0  0  0  0  0  0  0  0
   -6.1840   15.9370  -34.0884 H   0  0  0  0  0  0  0  0  0  0  0  0
  1  2  1  0
  2  3  1  0
  3  4  1  0
  4  5  2  0
  5  6  1  0
  6  7  2  0
  7  8  1  0
  8  9  2  0
  9 10  1  0
 10 11  1  0
 11 12  1  0
 12 13  1  0
 13 14  1  0
 14 15  1  0
 15 16  1  0
 14 17  1  0
 17 18  1  0
 10 19  2  0
 19 20  1  0
 20 21  2  0
 21 22  1  0
 22 23  2  0
 23 24  1  0
 24 25  2  0
 25 26  1  0
  9  4  1  0
 24 19  1  0
 25  8  1  0
  1 27  1  0
  1 28  1  0
  1 29  1  0
  2 30  1  0
  2 31  1  0
  5 32  1  0
  6 33  1  0
  7 34  1  0
 11 35  1  0
 11 36  1  0
 12 37  1  0
 12 38  1  0
 13 39  1  0
 13 40  1  0
 15 41  1  0
 15 42  1  0
 16 43  1  0
 16 44  1  0
 16 45  1  0
 17 46  1  0
 17 47  1  0
 18 48  1  0
 18 49  1  0
 18 50  1  0
 20 51  1  0
 21 52  1  0
 22 53  1  0
 23 54  1  0
 26 55  1  0
 26 56  1  0
 26 57  1  0
M  CHG  2  11   1  25   1
M  END
>  <UniqueID>  (7) 
7

>  <SMILES>  (7) 
CCOc1cccc2c1c([NH2+]CCN(CC)CC)c1ccccc1[n+]2C

>  <Energy>  (7) 
94.32758464156083

>  <Genealogy>  (7) 
CCOc1cccc2c1c([NH2+]CCN(CC)CC)c1ccccc1[n+]2C (protonated)
CCOc1cccc2c1c([NH2+]CCN(CC)CC)c1ccccc1[n+]2C (3D coordinates assigned)
CCOc1cccc2c1c([NH2+]CCN(CC)CC)c1ccccc1[n+]2C (optimized conformer: 94.32758464156083 kcal/mol)

>  <smiles>  (7) 
CCOc1cccc2c1c(NCCN(CC)CC)c1ccccc1[n+]2C

>  <score_type>  (7) 
oracle

>  <origin>  (7) 
adg

>  <m_score__min__energy>  (7) 
-7.6699999999999999

>  <m_primary>  (7) 
energy

$$$$
7:0
     RDKit          3D

 47 50  0  0  0  0  0  0  0  0999 V2000
   -1.9460   21.0890  -33.0280 C   0  0  0  0  0  0  0  0  0  0  0  0
   -2.6720   21.8700  -32.0160 N   0  0  0  0  0  0  0  0  0  0  0  0
   -1.9740   22.2900  -30.9160 C   0  0  0  0  0  0  0  0  0  0  0  0
   -2.5950   22.9980  -29.8950 C   0  0  0  0  0  0  0  0  0  0  0  0
   -3.9510   23.2940  -29.9900 C   0  0  0  0  0  0  0  0  0  0  0  0
   -4.6790   22.8850  -31.1160 C   0  0  0  0  0  0  0  0  0  0  0  0
   -4.0140   22.1770  -32.1590 C   0  0  0  0  0  0  0  0  0  0  0  0
   -4.7530   21.7530  -33.3380 N   0  0  0  0  0  0  0  0  0  0  0  0
   -5.1410   20.3490  -33.3150 C   0  0  0  0  0  0  0  0  0  0  0  0
   -4.2730   19.3520  -33.7950 C   0  0  0  0  0  0  0  0  0  0  0  0
   -4.6250   18.0110  -33.7310 C   0  0  0  0  0  0  0  0  0  0  0  0
   -5.8330   17.6190  -33.2280 N   0  0  0  0  0  0  0  0  0  0  0  0
   -6.1170   16.1760  -33.1680 C   0  0  0  0  0  0  0  0  0  0  0  0
   -6.7560   18.5590  -32.8220 C   0  0  0  0  0  0  0  0  0  0  0  0
   -8.0360   18.1760  -32.3540 C   0  0  0  0  0  0  0  0  0  0  0  0
   -8.9800   19.1330  -31.9870 C   0  0  0  0  0  0  0  0  0  0  0  0
   -8.6810   20.4860  -32.0870 C   0  0  0  0  0  0  0  0  0  0  0  0
   -7.4280   20.8960  -32.5370 C   0  0  0  0  0  0  0  0  0  0  0  0
   -6.4360   19.9490  -32.8860 C   0  0  0  0  0  0  0  0  0  0  0  0
   -6.1750   23.1400  -31.0880 C   0  0  0  0  0  0  0  0  0  0  0  0
   -6.4900   24.5710  -30.6150 C   0  0  0  0  0  0  0  0  0  0  0  0
   -5.6160   25.0690  -29.4370 C   0  0  0  0  0  0  0  0  0  0  0  0
   -4.6650   24.0040  -28.8710 C   0  0  0  0  0  0  0  0  0  0  0  0
   -1.2789   20.3713  -32.5282 H   0  0  0  0  0  0  0  0  0  0  0  0
   -2.6658   20.5442  -33.6565 H   0  0  0  0  0  0  0  0  0  0  0  0
   -1.3501   21.7672  -33.6565 H   0  0  0  0  0  0  0  0  0  0  0  0
   -0.9005   22.0624  -30.8391 H   0  0  0  0  0  0  0  0  0  0  0  0
   -2.0180   23.3227  -29.0165 H   0  0  0  0  0  0  0  0  0  0  0  0
   -5.5900   22.3730  -33.3930 H   0  0  0  0  0  0  0  0  0  0  0  0
   -4.2320   21.9310  -34.2230 H   0  0  0  0  0  0  0  0  0  0  0  0
   -3.3027   19.6387  -34.2267 H   0  0  0  0  0  0  0  0  0  0  0  0
   -3.9180   17.2496  -34.0921 H   0  0  0  0  0  0  0  0  0  0  0  0
   -6.1796   15.8580  -32.1168 H   0  0  0  0  0  0  0  0  0  0  0  0
   -7.0731   15.9692  -33.6712 H   0  0  0  0  0  0  0  0  0  0  0  0
   -5.3106   15.6224  -33.6712 H   0  0  0  0  0  0  0  0  0  0  0  0
   -8.2889   17.1081  -32.2790 H   0  0  0  0  0  0  0  0  0  0  0  0
   -9.9660   18.8159  -31.6166 H   0  0  0  0  0  0  0  0  0  0  0  0
   -9.4363   21.2362  -31.8099 H   0  0  0  0  0  0  0  0  0  0  0  0
   -7.2067   21.9701  -32.6222 H   0  0  0  0  0  0  0  0  0  0  0  0
   -6.5814   22.9997  -32.1005 H   0  0  0  0  0  0  0  0  0  0  0  0
   -6.6346   22.4321  -30.3825 H   0  0  0  0  0  0  0  0  0  0  0  0
   -6.3414   25.2535  -31.4647 H   0  0  0  0  0  0  0  0  0  0  0  0
   -7.5271   24.5566  -30.2487 H   0  0  0  0  0  0  0  0  0  0  0  0
   -5.0132   25.9192  -29.7888 H   0  0  0  0  0  0  0  0  0  0  0  0
   -6.3043   25.3452  -28.6246 H   0  0  0  0  0  0  0  0  0  0  0  0
   -3.9245   24.4889  -28.2179 H   0  0  0  0  0  0  0  0  0  0  0  0
   -5.2501   23.2702  -28.2972 H   0  0  0  0  0  0  0  0  0  0  0  0
  1  2  1  0
  2  3  2  0
  3  4  1  0
  4  5  2  0
  5  6  1  0
  6  7  2  0
  7  8  1  0
  8  9  1  0
  9 10  2  0
 10 11  1  0
 11 12  2  0
 12 13  1  0
 12 14  1  0
 14 15  2  0
 15 16  1  0
 16 17  2  0
 17 18  1  0
 18 19  2  0
  6 20  1  0
 20 21  1  0
 21 22  1  0
 22 23  1  0
  7  2  1  0
 19  9  1  0
 23  5  1  0
 19 14  1  0
  1 24  1  0
  1 25  1  0
  1 26  1  0
  3 27  1  0
  4 28  1  0
  8 29  1  0
  8 30  1  0
 10 31  1  0
 11 32  1  0
 13 33  1  0
 13 34  1  0
 13 35  1  0
 15 36  1  0
 16 37  1  0
 17 38  1  0
 18 39  1  0
 20 40  1  0
 20 41  1  0
 21 42  1  0
 21 43  1  0
 22 44  1  0
 22 45  1  0
 23 46  1  0
 23 47  1  0
M  CHG  3   2   1   8   1  12   1
M  END
>  <UniqueID>  (8) 
8

>  <SMILES>  (8) 
C[n+]1ccc2c(c1[NH2+]c1cc[n+](C)c3ccccc13)CCCC2

>  <Energy>  (8) 
76.91923944012261

>  <Genealogy>  (8) 
C[n+]1ccc2c(c1[NH2+]c1cc[n+](C)c3ccccc13)CCCC2 (protonated)
C[n+]1ccc2c(c1[NH2+]c1cc[n+](C)c3ccccc13)CCCC2 (3D coordinates assigned)
C[n+]1ccc2c(c1[NH2+]c1cc[n+](C)c3ccccc13)CCCC2 (nonaromatic ring conformer: 76.91923944012261 kcal/mol)

>  <smiles>  (8) 
C[n+]1ccc2c(c1Nc1cc[n+](C)c3ccccc13)CCCC2

>  <score_type>  (8) 
oracle

>  <origin>  (8) 
adg

>  <m_score__min__energy>  (8) 
-7.6299999999999999

>  <m_primary>  (8) 
energy

$$$$
8:0
     RDKit          3D

 24 26  0  0  0  0  0  0  0  0999 V2000
   -6.1270   24.9790  -30.1340 Br  0  0  0  0  0  0  0  0  0  0  0  0
   -6.3820   23.4000  -31.1770 C   0  0  0  0  0  0  0  0  0  0  0  0
   -7.6690   23.0280  -31.5780 C   0  0  0  0  0  0  0  0  0  0  0  0
   -7.8620   21.8730  -32.3410 C   0  0  0  0  0  0  0  0  0  0  0  0
   -6.7660   21.0780  -32.7110 C   0  0  0  0  0  0  0  0  0  0  0  0
   -6.9500   19.9490  -33.4560 N   0  0  0  0  0  0  0  0  0  0  0  0
   -5.8990   19.1610  -33.8280 C   0  0  0  0  0  0  0  0  0  0  0  0
   -6.1110   18.0040  -34.5960 C   0  0  0  0  0  0  0  0  0  0  0  0
   -5.0310   17.2010  -34.9720 C   0  0  0  0  0  0  0  0  0  0  0  0
   -3.7330   17.5440  -34.5880 C   0  0  0  0  0  0  0  0  0  0  0  0
   -3.5050   18.6930  -33.8240 C   0  0  0  0  0  0  0  0  0  0  0  0
   -4.5820   19.5060  -33.4410 C   0  0  0  0  0  0  0  0  0  0  0  0
   -4.3750   20.6590  -32.6760 C   0  0  0  0  0  0  0  0  0  0  0  0
   -5.4650   21.4550  -32.3050 C   0  0  0  0  0  0  0  0  0  0  0  0
   -5.2810   22.6160  -31.5380 C   0  0  0  0  0  0  0  0  0  0  0  0
   -8.5325   23.6465  -31.2919 H   0  0  0  0  0  0  0  0  0  0  0  0
   -8.8770   21.5858  -32.6528 H   0  0  0  0  0  0  0  0  0  0  0  0
   -7.9180   19.6820  -33.7510 H   0  0  0  0  0  0  0  0  0  0  0  0
   -7.1310   17.7291  -34.9025 H   0  0  0  0  0  0  0  0  0  0  0  0
   -5.2039   16.2957  -35.5725 H   0  0  0  0  0  0  0  0  0  0  0  0
   -2.8868   16.9082  -34.8875 H   0  0  0  0  0  0  0  0  0  0  0  0
   -2.4809   18.9592  -33.5234 H   0  0  0  0  0  0  0  0  0  0  0  0
   -3.3574   20.9395  -32.3666 H   0  0  0  0  0  0  0  0  0  0  0  0
   -4.2697   22.9098  -31.2203 H   0  0  0  0  0  0  0  0  0  0  0  0
  1  2  1  0
  2  3  2  0
  3  4  1  0
  4  5  2  0
  5  6  1  0
  6  7  2  0
  7  8  1  0
  8  9  2  0
  9 10  1  0
 10 11  2  0
 11 12  1  0
 12 13  2  0
 13 14  1  0
 14 15  2  0
 15  2  1  0
 14  5  1  0
 12  7  1  0
  3 16  1  0
  4 17  1  0
  6 18  1  0
  8 19  1  0
  9 20  1  0
 10 21  1  0
 11 22  1  0
 13 23  1  0
 15 24  1  0
M  CHG  1   6   1
M  END
>  <UniqueID>  (9) 
9

>  <SMILES>  (9) 
Brc1ccc2[nH+]c3ccccc3cc2c1

>  <Energy>  (9) 
32.77768228568444

>  <Genealogy>  (9) 
Brc1ccc2[nH+]c3ccccc3cc2c1 (protonated)
Brc1ccc2[nH+]c3ccccc3cc2c1 (3D coordinates assigned)
Brc1ccc2[nH+]c3ccccc3cc2c1 (optimized conformer: 32.77768228568444 kcal/mol)

>  <smiles>  (9) 
Brc1ccc2nc3ccccc3cc2c1

>  <score_type>  (9) 
oracle

>  <origin>  (9) 
adg

>  <m_score__min__energy>  (9) 
-6.71

>  <m_primary>  (9) 
energy

$$$$
9:0
     RDKit          3D

 56 59  0  0  0  0  0  0  0  0999 V2000
    0.6280   24.2120  -36.0930 C   0  0  0  0  0  0  0  0  0  0  0  0
    0.9760   22.7320  -36.0000 C   0  0  0  0  0  0  0  0  0  0  0  0
    0.6690   22.2250  -34.6550 N   0  0  0  0  0  0  0  0  0  0  0  0
    0.7540   20.7550  -34.5690 C   0  0  0  0  0  0  0  0  0  0  0  0
   -0.2850   20.1600  -33.6040 C   0  0  0  0  0  0  0  0  0  0  0  0
   -1.1850   21.2010  -33.1040 N   0  0  0  0  0  0  0  0  0  0  0  0
   -2.5900   20.9820  -32.8840 C   0  0  0  0  0  0  0  0  0  0  0  0
   -3.2400   19.9740  -33.5920 C   0  0  0  0  0  0  0  0  0  0  0  0
   -4.5950   19.7470  -33.4150 C   0  0  0  0  0  0  0  0  0  0  0  0
   -5.3650   20.5460  -32.5540 C   0  0  0  0  0  0  0  0  0  0  0  0
   -4.7550   21.6720  -31.9070 C   0  0  0  0  0  0  0  0  0  0  0  0
   -5.4760   22.6570  -31.1520 C   0  0  0  0  0  0  0  0  0  0  0  0
   -4.7740   23.5650  -30.3180 C   0  0  0  0  0  0  0  0  0  0  0  0
   -5.5410   24.4150  -29.4910 O   0  0  0  0  0  0  0  0  0  0  0  0
   -6.1200   25.6650  -29.8400 C   0  0  0  0  0  0  0  0  0  0  0  0
   -3.3650   23.5990  -30.3380 C   0  0  0  0  0  0  0  0  0  0  0  0
   -2.6730   24.4790  -29.4890 O   0  0  0  0  0  0  0  0  0  0  0  0
   -2.6610   24.4150  -28.0690 C   0  0  0  0  0  0  0  0  0  0  0  0
   -2.6720   22.7590  -31.2130 C   0  0  0  0  0  0  0  0  0  0  0  0
   -3.3370   21.8160  -32.0120 C   0  0  0  0  0  0  0  0  0  0  0  0
   -6.9900   22.8480  -31.2190 C   0  0  0  0  0  0  0  0  0  0  0  0
   -7.5820   22.4030  -32.4870 N   0  0  0  0  0  0  0  0  0  0  0  0
   -7.8440   20.9960  -32.3940 C   0  0  0  0  0  0  0  0  0  0  0  0
   -9.1610   20.5320  -32.2200 C   0  0  0  0  0  0  0  0  0  0  0  0
   -9.4100   19.1770  -31.9970 C   0  0  0  0  0  0  0  0  0  0  0  0
   -8.3470   18.2790  -31.9200 C   0  0  0  0  0  0  0  0  0  0  0  0
   -7.0370   18.7320  -32.0780 C   0  0  0  0  0  0  0  0  0  0  0  0
   -6.7680   20.0960  -32.3220 C   0  0  0  0  0  0  0  0  0  0  0  0
    0.5297   24.6299  -35.0802 H   0  0  0  0  0  0  0  0  0  0  0  0
    1.4258   24.7430  -36.6330 H   0  0  0  0  0  0  0  0  0  0  0  0
   -0.3228   24.3319  -36.6330 H   0  0  0  0  0  0  0  0  0  0  0  0
    0.3882   22.1726  -36.7427 H   0  0  0  0  0  0  0  0  0  0  0  0
    2.0502   22.6014  -36.1977 H   0  0  0  0  0  0  0  0  0  0  0  0
    1.3220   22.6630  -33.9630 H   0  0  0  0  0  0  0  0  0  0  0  0
    0.5871   20.3329  -35.5710 H   0  0  0  0  0  0  0  0  0  0  0  0
    1.7523   20.5001  -34.1836 H   0  0  0  0  0  0  0  0  0  0  0  0
   -0.8746   19.3974  -34.1340 H   0  0  0  0  0  0  0  0  0  0  0  0
    0.2431   19.7101  -32.7503 H   0  0  0  0  0  0  0  0  0  0  0  0
   -0.8040   22.1710  -33.0090 H   0  0  0  0  0  0  0  0  0  0  0  0
   -2.6716   19.3518  -34.2989 H   0  0  0  0  0  0  0  0  0  0  0  0
   -5.0784   18.9232  -33.9606 H   0  0  0  0  0  0  0  0  0  0  0  0
   -6.3764   26.2186  -28.9247 H   0  0  0  0  0  0  0  0  0  0  0  0
   -5.4009   26.2495  -30.4327 H   0  0  0  0  0  0  0  0  0  0  0  0
   -7.0308   25.4945  -30.4327 H   0  0  0  0  0  0  0  0  0  0  0  0
   -2.8488   25.4168  -27.6552 H   0  0  0  0  0  0  0  0  0  0  0  0
   -3.4452   23.7238  -27.7265 H   0  0  0  0  0  0  0  0  0  0  0  0
   -1.6797   24.0549  -27.7265 H   0  0  0  0  0  0  0  0  0  0  0  0
   -1.5768   22.8387  -31.2775 H   0  0  0  0  0  0  0  0  0  0  0  0
   -7.4496   22.2749  -30.4003 H   0  0  0  0  0  0  0  0  0  0  0  0
   -7.1836   23.9274  -31.1333 H   0  0  0  0  0  0  0  0  0  0  0  0
   -6.9510   22.6080  -33.2980 H   0  0  0  0  0  0  0  0  0  0  0  0
   -8.4740   22.9280  -32.6520 H   0  0  0  0  0  0  0  0  0  0  0  0
  -10.0001   21.2422  -32.2600 H   0  0  0  0  0  0  0  0  0  0  0  0
  -10.4435   18.8184  -31.8822 H   0  0  0  0  0  0  0  0  0  0  0  0
   -8.5410   17.2123  -31.7345 H   0  0  0  0  0  0  0  0  0  0  0  0
   -6.2034   18.0174  -32.0116 H   0  0  0  0  0  0  0  0  0  0  0  0
  1  2  1  0
  2  3  1  0
  3  4  1  0
  4  5  1  0
  5  6  1  0
  6  7  1  0
  7  8  2  0
  8  9  1  0
  9 10  2  0
 10 11  1  0
 11 12  2  0
 12 13  1  0
 13 14  1  0
 14 15  1  0
 13 16  2  0
 16 17  1  0
 17 18  1  0
 16 19  1  0
 19 20  2  0
 12 21  1  0
 21 22  1  0
 22 23  1  0
 23 24  2  0
 24 25  1  0
 25 26  2  0
 26 27  1  0
 27 28  2  0
 20  7  1  0
 28 23  1  0
 28 10  1  0
 20 11  1  0
  1 29  1  0
  1 30  1  0
  1 31  1  0
  2 32  1  0
  2 33  1  0
  3 34  1  0
  4 35  1  0
  4 36  1  0
  5 37  1  0
  5 38  1  0
  6 39  1  0
  8 40  1  0
  9 41  1  0
 15 42  1  0
 15 43  1  0
 15 44  1  0
 18 45  1  0
 18 46  1  0
 18 47  1  0
 19 48  1  0
 21 49  1  0
 21 50  1  0
 22 51  1  0
 22 52  1  0
 24 53  1  0
 25 54  1  0
 26 55  1  0
 27 56  1  0
M  CHG  1  22   1
M  END
>  <UniqueID>  (10) 
10

>  <SMILES>  (10) 
CCNCCNc1ccc2c3c(c(OC)c(OC)cc13)C[NH2+]c1ccccc1-2

>  <Energy>  (10) 
92.37410744045921

>  <Genealogy>  (10) 
CCNCCNc1ccc2c3c(c(OC)c(OC)cc13)C[NH2+]c1ccccc1-2 (protonated)
CCNCCNc1ccc2c3c(c(OC)c(OC)cc13)C[NH2+]c1ccccc1-2 (3D coordinates assigned)
CCNCCNc1ccc2c3c(c(OC)c(OC)cc13)C[NH2+]c1ccccc1-2 (nonaromatic ring conformer: 92.37410744045921 kcal/mol)

>  <smiles>  (10) 
CCNCCNc1ccc2c3c(c(OC)c(OC)cc13)CNc1ccccc1-2

>  <score_type>  (10) 
oracle

>  <origin>  (10) 
adg

>  <m_score__min__energy>  (10) 
-8.1999999999999993

>  <m_primary>  (10) 
energy

$$$$
10:0
     RDKit          3D

 75 78  0  0  0  0  0  0  0  0999 V2000
    1.7900   22.8670  -35.6450 C   0  0  0  0  0  0  0  0  0  0  0  0
    0.2940   22.5440  -35.7660 C   0  0  0  0  0  0  0  0  0  0  0  0
   -0.1610   21.3990  -34.9380 N   0  0  0  0  0  0  0  0  0  0  0  0
   -0.1170   20.1300  -35.6840 C   0  0  0  0  0  0  0  0  0  0  0  0
    0.5270   21.2600  -33.6350 C   0  0  0  0  0  0  0  0  0  0  0  0
   -0.3040   20.4470  -32.6320 C   0  0  0  0  0  0  0  0  0  0  0  0
   -1.6230   21.1530  -32.3000 C   0  0  0  0  0  0  0  0  0  0  0  0
   -2.5630   21.0510  -33.4170 N   0  0  0  0  0  0  0  0  0  0  0  0
   -3.9020   20.5540  -33.2430 C   0  0  0  0  0  0  0  0  0  0  0  0
   -4.2250   19.2500  -33.6560 C   0  0  0  0  0  0  0  0  0  0  0  0
   -3.2360   18.3990  -34.1960 C   0  0  0  0  0  0  0  0  0  0  0  0
   -3.5700   17.1390  -34.6820 C   0  0  0  0  0  0  0  0  0  0  0  0
   -4.8910   16.7070  -34.6470 C   0  0  0  0  0  0  0  0  0  0  0  0
   -5.8810   17.5200  -34.0940 C   0  0  0  0  0  0  0  0  0  0  0  0
   -5.5650   18.7920  -33.5490 C   0  0  0  0  0  0  0  0  0  0  0  0
   -6.5240   19.5840  -32.9450 N   0  0  0  0  0  0  0  0  0  0  0  0
   -7.8410   19.0060  -32.5870 C   0  0  0  0  0  0  0  0  0  0  0  0
   -6.2410   20.9020  -32.6340 C   0  0  0  0  0  0  0  0  0  0  0  0
   -7.2520   21.8080  -32.2270 C   0  0  0  0  0  0  0  0  0  0  0  0
   -6.9420   23.1080  -31.8300 C   0  0  0  0  0  0  0  0  0  0  0  0
   -5.6130   23.5500  -31.8310 C   0  0  0  0  0  0  0  0  0  0  0  0
   -5.2390   24.8370  -31.4080 O   0  0  0  0  0  0  0  0  0  0  0  0
   -5.1690   25.2840  -30.0530 C   0  0  0  0  0  0  0  0  0  0  0  0
   -5.3060   24.1100  -29.0510 C   0  0  0  0  0  0  0  0  0  0  0  0
   -4.0990   23.8260  -28.2040 N   0  0  0  0  0  0  0  0  0  0  0  0
   -4.2030   24.5660  -26.9190 C   0  0  0  0  0  0  0  0  0  0  0  0
   -2.8850   24.3440  -28.9320 C   0  0  0  0  0  0  0  0  0  0  0  0
   -2.2520   23.2970  -29.8620 C   0  0  0  0  0  0  0  0  0  0  0  0
   -1.7490   22.0860  -29.0600 C   0  0  0  0  0  0  0  0  0  0  0  0
   -2.5450   21.8690  -27.7640 C   0  0  0  0  0  0  0  0  0  0  0  0
   -3.9950   22.3510  -27.9260 C   0  0  0  0  0  0  0  0  0  0  0  0
   -4.6110   22.6920  -32.2810 C   0  0  0  0  0  0  0  0  0  0  0  0
   -4.9100   21.3860  -32.7250 C   0  0  0  0  0  0  0  0  0  0  0  0
    2.0674   22.9269  -34.5822 H   0  0  0  0  0  0  0  0  0  0  0  0
    2.3768   22.0749  -36.1330 H   0  0  0  0  0  0  0  0  0  0  0  0
    1.9977   23.8307  -36.1330 H   0  0  0  0  0  0  0  0  0  0  0  0
   -0.2749   23.4349  -35.4614 H   0  0  0  0  0  0  0  0  0  0  0  0
    0.1210   22.2584  -36.8141 H   0  0  0  0  0  0  0  0  0  0  0  0
   -0.0878   19.2890  -34.9755 H   0  0  0  0  0  0  0  0  0  0  0  0
   -1.0128   20.0454  -36.3168 H   0  0  0  0  0  0  0  0  0  0  0  0
    0.7825   20.1077  -36.3168 H   0  0  0  0  0  0  0  0  0  0  0  0
    1.4896   20.7518  -33.7936 H   0  0  0  0  0  0  0  0  0  0  0  0
    0.6740   22.2673  -33.2182 H   0  0  0  0  0  0  0  0  0  0  0  0
   -0.5249   19.4607  -33.0660 H   0  0  0  0  0  0  0  0  0  0  0  0
    0.2770   20.3426  -31.7038 H   0  0  0  0  0  0  0  0  0  0  0  0
   -2.0685   20.6847  -31.4099 H   0  0  0  0  0  0  0  0  0  0  0  0
   -1.4154   22.2164  -32.1101 H   0  0  0  0  0  0  0  0  0  0  0  0
   -2.2780   21.4080  -34.3570 H   0  0  0  0  0  0  0  0  0  0  0  0
   -2.1896   18.7362  -34.2328 H   0  0  0  0  0  0  0  0  0  0  0  0
   -2.7883   16.4840  -35.0943 H   0  0  0  0  0  0  0  0  0  0  0  0
   -5.1565   15.7212  -35.0565 H   0  0  0  0  0  0  0  0  0  0  0  0
   -6.9235   17.1694  -34.0802 H   0  0  0  0  0  0  0  0  0  0  0  0
   -7.9374   18.9637  -31.4921 H   0  0  0  0  0  0  0  0  0  0  0  0
   -8.6424   19.6351  -33.0016 H   0  0  0  0  0  0  0  0  0  0  0  0
   -7.9206   17.9902  -33.0016 H   0  0  0  0  0  0  0  0  0  0  0  0
   -8.3017   21.4791  -32.2243 H   0  0  0  0  0  0  0  0  0  0  0  0
   -7.7453   23.7900  -31.5144 H   0  0  0  0  0  0  0  0  0  0  0  0
   -4.2000   25.7788  -29.8911 H   0  0  0  0  0  0  0  0  0  0  0  0
   -6.0028   25.9801  -29.8795 H   0  0  0  0  0  0  0  0  0  0  0  0
   -6.1446   24.3385  -28.3768 H   0  0  0  0  0  0  0  0  0  0  0  0
   -5.4565   23.2103  -29.6657 H   0  0  0  0  0  0  0  0  0  0  0  0
   -4.1039   23.8607  -26.0807 H   0  0  0  0  0  0  0  0  0  0  0  0
   -3.4016   25.3174  -26.8627 H   0  0  0  0  0  0  0  0  0  0  0  0
   -5.1804   25.0674  -26.8627 H   0  0  0  0  0  0  0  0  0  0  0  0
   -3.1825   25.2146  -29.5350 H   0  0  0  0  0  0  0  0  0  0  0  0
   -2.1336   24.6082  -28.1734 H   0  0  0  0  0  0  0  0  0  0  0  0
   -3.0044   22.9598  -30.5901 H   0  0  0  0  0  0  0  0  0  0  0  0
   -1.3969   23.7566  -30.3793 H   0  0  0  0  0  0  0  0  0  0  0  0
   -1.8404   21.1857  -29.6854 H   0  0  0  0  0  0  0  0  0  0  0  0
   -0.7025   22.2797  -28.7819 H   0  0  0  0  0  0  0  0  0  0  0  0
   -2.5469   20.7970  -27.5173 H   0  0  0  0  0  0  0  0  0  0  0  0
   -2.0697   22.4470  -26.9578 H   0  0  0  0  0  0  0  0  0  0  0  0
   -4.4544   21.8039  -28.7624 H   0  0  0  0  0  0  0  0  0  0  0  0
   -4.5127   22.1592  -26.9746 H   0  0  0  0  0  0  0  0  0  0  0  0
   -3.5673   23.0393  -32.2903 H   0  0  0  0  0  0  0  0  0  0  0  0
  1  2  1  0
  2  3  1  0
  3  4  1  0
  3  5  1  0
  5  6  1  0
  6  7  1  0
  7  8  1  0
  8  9  1  0
  9 10  2  0
 10 11  1  0
 11 12  2  0
 12 13  1  0
 13 14  2  0
 14 15  1  0
 15 16  2  0
 16 17  1  0
 16 18  1  0
 18 19  2  0
 19 20  1  0
 20 21  2  0
 21 22  1  0
 22 23  1  0
 23 24  1  0
 24 25  1  0
 25 26  1  0
 25 27  1  0
 27 28  1  0
 28 29  1  0
 29 30  1  0
 30 31  1  0
 21 32  1  0
 32 33  2  0
 33  9  1  0
 15 10  1  0
 33 18  1  0
 31 25  1  0
  1 34  1  0
  1 35  1  0
  1 36  1  0
  2 37  1  0
  2 38  1  0
  4 39  1  0
  4 40  1  0
  4 41  1  0
  5 42  1  0
  5 43  1  0
  6 44  1  0
  6 45  1  0
  7 46  1  0
  7 47  1  0
  8 48  1  0
 11 49  1  0
 12 50  1  0
 13 51  1  0
 14 52  1  0
 17 53  1  0
 17 54  1  0
 17 55  1  0
 19 56  1  0
 20 57  1  0
 23 58  1  0
 23 59  1  0
 24 60  1  0
 24 61  1  0
 26 62  1  0
 26 63  1  0
 26 64  1  0
 27 65  1  0
 27 66  1  0
 28 67  1  0
 28 68  1  0
 29 69  1  0
 29 70  1  0
 30 71  1  0
 30 72  1  0
 31 73  1  0
 31 74  1  0
 32 75  1  0
M  CHG  2  16   1  25   1
M  END
>  <UniqueID>  (11) 
11

>  <SMILES>  (11) 
CCN(C)CCCNc1c2ccccc2[n+](C)c2ccc(OCC[N+]3(C)CCCCC3)cc12

>  <Energy>  (11) 
118.0571006798372

>  <Genealogy>  (11) 
CCN(C)CCCNc1c2ccccc2[n+](C)c2ccc(OCC[N+]3(C)CCCCC3)cc12 (3D coordinates assigned)
CCN(C)CCCNc1c2ccccc2[n+](C)c2ccc(OCC[N+]3(C)CCCCC3)cc12 (nonaromatic ring conformer: 118.0571006798372 kcal/mol)

>  <smiles>  (11) 
CCN(C)CCCNc1c2ccccc2[n+](C)c2ccc(OCC[N+]3(C)CCCCC3)cc12

>  <score_type>  (11) 
oracle

>  <origin>  (11) 
adg

>  <m_score__min__energy>  (11) 
-8.6400000000000006

>  <m_primary>  (11) 
energy

$$$$
11:0
     RDKit          3D

 40 40  0  0  0  0  0  0  0  0999 V2000
   -4.7280   21.2880  -32.0920 C   0  0  0  0  0  0  0  0  0  0  0  0
   -5.1400   22.5720  -31.4280 C   0  0  0  0  0  0  0  0  0  0  0  0
   -4.1700   23.4070  -30.8490 C   0  0  0  0  0  0  0  0  0  0  0  0
   -4.5450   24.6060  -30.2400 C   0  0  0  0  0  0  0  0  0  0  0  0
   -5.8870   24.9830  -30.2080 C   0  0  0  0  0  0  0  0  0  0  0  0
   -6.8610   24.1670  -30.7890 C   0  0  0  0  0  0  0  0  0  0  0  0
   -6.4970   22.9530  -31.4060 C   0  0  0  0  0  0  0  0  0  0  0  0
   -7.4460   22.0980  -31.9940 O   0  0  0  0  0  0  0  0  0  0  0  0
   -8.8630   22.2620  -31.9390 C   0  0  0  0  0  0  0  0  0  0  0  0
   -9.5840   20.9590  -32.3120 C   0  0  0  0  0  0  0  0  0  0  0  0
   -8.6270   19.9390  -32.7750 N   0  0  0  0  0  0  0  0  0  0  0  0
   -8.8730   18.6170  -32.1640 C   0  0  0  0  0  0  0  0  0  0  0  0
   -7.5870   17.9360  -31.6730 C   0  0  0  0  0  0  0  0  0  0  0  0
   -6.4620   18.7190  -32.0110 O   0  0  0  0  0  0  0  0  0  0  0  0
   -5.6920   18.0430  -32.9830 C   0  0  0  0  0  0  0  0  0  0  0  0
   -5.5200   18.9350  -34.2160 C   0  0  0  0  0  0  0  0  0  0  0  0
   -6.4820   20.0350  -34.2310 N   0  0  0  0  0  0  0  0  0  0  0  0
   -4.4875   20.5386  -31.3236 H   0  0  0  0  0  0  0  0  0  0  0  0
   -5.5527   20.9185  -32.7192 H   0  0  0  0  0  0  0  0  0  0  0  0
   -3.8423   21.4673  -32.7192 H   0  0  0  0  0  0  0  0  0  0  0  0
   -3.1099   23.1147  -30.8756 H   0  0  0  0  0  0  0  0  0  0  0  0
   -3.7812   25.2538  -29.7851 H   0  0  0  0  0  0  0  0  0  0  0  0
   -6.1799   25.9262  -29.7236 H   0  0  0  0  0  0  0  0  0  0  0  0
   -7.9172   24.4735  -30.7648 H   0  0  0  0  0  0  0  0  0  0  0  0
   -9.1518   22.5531  -30.9183 H   0  0  0  0  0  0  0  0  0  0  0  0
   -9.1532   23.0410  -32.6594 H   0  0  0  0  0  0  0  0  0  0  0  0
  -10.1169   20.5774  -31.4286 H   0  0  0  0  0  0  0  0  0  0  0  0
  -10.2912   21.1713  -33.1273 H   0  0  0  0  0  0  0  0  0  0  0  0
   -7.6620   20.2440  -32.4990 H   0  0  0  0  0  0  0  0  0  0  0  0
   -8.6510   19.8680  -33.8190 H   0  0  0  0  0  0  0  0  0  0  0  0
   -9.5503   18.7471  -31.3070 H   0  0  0  0  0  0  0  0  0  0  0  0
   -9.3123   17.9720  -32.9393 H   0  0  0  0  0  0  0  0  0  0  0  0
   -7.6326   17.8179  -30.5803 H   0  0  0  0  0  0  0  0  0  0  0  0
   -7.4963   16.9506  -32.1534 H   0  0  0  0  0  0  0  0  0  0  0  0
   -4.7035   17.8029  -32.5644 H   0  0  0  0  0  0  0  0  0  0  0  0
   -6.2052   17.1144  -33.2735 H   0  0  0  0  0  0  0  0  0  0  0  0
   -4.5023   19.3525  -34.2138 H   0  0  0  0  0  0  0  0  0  0  0  0
   -5.6934   18.3181  -35.1101 H   0  0  0  0  0  0  0  0  0  0  0  0
   -7.4300   19.6560  -34.4570 H   0  0  0  0  0  0  0  0  0  0  0  0
   -6.5250   20.4610  -33.2770 H   0  0  0  0  0  0  0  0  0  0  0  0
  1  2  1  0
  2  3  2  0
  3  4  1  0
  4  5  2  0
  5  6  1  0
  6  7  2  0
  7  8  1  0
  8  9  1  0
  9 10  1  0
 10 11  1  0
 11 12  1  0
 12 13  1  0
 13 14  1  0
 14 15  1  0
 15 16  1  0
 16 17  1  0
  7  2  1  0
  1 18  1  0
  1 19  1  0
  1 20  1  0
  3 21  1  0
  4 22  1  0
  5 23  1  0
  6 24  1  0
  9 25  1  0
  9 26  1  0
 10 27  1  0
 10 28  1  0
 11 29  1  0
 11 30  1  0
 12 31  1  0
 12 32  1  0
 13 33  1  0
 13 34  1  0
 15 35  1  0
 15 36  1  0
 16 37  1  0
 16 38  1  0
 17 39  1  0
 17 40  1  0
M  CHG  1  11   1
M  END
>  <UniqueID>  (12) 
12

>  <SMILES>  (12) 
Cc1ccccc1OCC[NH2+]CCOCCN

>  <Energy>  (12) 
31.11213767549711

>  <Genealogy>  (12) 
Cc1ccccc1OCC[NH2+]CCOCCN (protonated)
Cc1ccccc1OCC[NH2+]CCOCCN (3D coordinates assigned)
Cc1ccccc1OCC[NH2+]CCOCCN (optimized conformer: 31.11213767549711 kcal/mol)

>  <smiles>  (12) 
Cc1ccccc1OCCNCCOCCN

>  <score_type>  (12) 
oracle

>  <origin>  (12) 
adg

>  <m_score__min__energy>  (12) 
-3.9500000000000002

>  <m_primary>  (12) 
energy

$$$$
12:0
     RDKit          3D

 42 44  0  0  0  0  0  0  0  0999 V2000
   -4.9992   24.4341  -27.7922 H   0  0  0  0  0  0  0  0  0  0  0  0
   -4.1530   24.1520  -28.4360 C   0  0  0  0  0  0  0  0  0  0  0  0
   -4.3250   24.2810  -29.8990 C   0  0  0  0  0  0  0  0  0  0  0  0
   -3.8650   25.3000  -30.4840 O   0  0  0  0  0  0  0  0  0  0  0  0
   -5.0850   23.2720  -30.6800 C   0  0  0  0  0  0  0  0  0  0  0  0
   -4.4170   22.4630  -31.6190 C   0  0  0  0  0  0  0  0  0  0  0  0
   -3.3361   22.5927  -31.7768 H   0  0  0  0  0  0  0  0  0  0  0  0
   -5.1110   21.4970  -32.3530 C   0  0  0  0  0  0  0  0  0  0  0  0
   -4.5750   20.8759  -33.0858 H   0  0  0  0  0  0  0  0  0  0  0  0
   -6.4860   21.3170  -32.1590 C   0  0  0  0  0  0  0  0  0  0  0  0
   -7.1900   20.3500  -32.8920 C   0  0  0  0  0  0  0  0  0  0  0  0
   -6.6606   19.7255  -33.6267 H   0  0  0  0  0  0  0  0  0  0  0  0
   -8.5630   20.1780  -32.6910 C   0  0  0  0  0  0  0  0  0  0  0  0
   -9.1114   19.4195  -33.2690 H   0  0  0  0  0  0  0  0  0  0  0  0
   -9.2400   20.9670  -31.7580 C   0  0  0  0  0  0  0  0  0  0  0  0
  -10.3203   20.8283  -31.6043 H   0  0  0  0  0  0  0  0  0  0  0  0
   -8.5500   21.9320  -31.0190 C   0  0  0  0  0  0  0  0  0  0  0  0
   -9.0878   22.5480  -30.2833 H   0  0  0  0  0  0  0  0  0  0  0  0
   -7.1700   22.1170  -31.2140 C   0  0  0  0  0  0  0  0  0  0  0  0
   -6.4660   23.0850  -30.4790 C   0  0  0  0  0  0  0  0  0  0  0  0
   -6.9981   23.7022  -29.7401 H   0  0  0  0  0  0  0  0  0  0  0  0
   -3.0340   23.7140  -27.8430 C   0  0  0  0  0  0  0  0  0  0  0  0
   -2.7147   22.6783  -28.0311 H   0  0  0  0  0  0  0  0  0  0  0  0
   -2.2290   24.5290  -26.9730 N   0  0  0  0  0  0  0  0  0  0  0  0
   -2.9020   25.3350  -25.9510 C   0  0  0  0  0  0  0  0  0  0  0  0
   -3.4384   24.6690  -25.2591 H   0  0  0  0  0  0  0  0  0  0  0  0
   -3.6103   26.0174  -26.4436 H   0  0  0  0  0  0  0  0  0  0  0  0
   -1.8780   26.1630  -25.1640 C   0  0  0  0  0  0  0  0  0  0  0  0
   -2.4000   26.7036  -24.3607 H   0  0  0  0  0  0  0  0  0  0  0  0
   -1.3948   26.8610  -25.8635 H   0  0  0  0  0  0  0  0  0  0  0  0
   -0.8210   25.3110  -24.5610 N   0  0  0  0  0  0  0  0  0  0  0  0
   -1.2210   24.8920  -23.6870 H   0  0  0  0  0  0  0  0  0  0  0  0
    0.3150   26.1520  -24.1430 C   0  0  0  0  0  0  0  0  0  0  0  0
    0.3612   26.1862  -23.0445 H   0  0  0  0  0  0  0  0  0  0  0  0
    1.2502   25.7269  -24.5363 H   0  0  0  0  0  0  0  0  0  0  0  0
    0.1814   27.1706  -24.5363 H   0  0  0  0  0  0  0  0  0  0  0  0
   -0.3590   24.1880  -25.4310 C   0  0  0  0  0  0  0  0  0  0  0  0
   -0.7865   23.2500  -25.0470 H   0  0  0  0  0  0  0  0  0  0  0  0
    0.7406   24.1842  -25.4022 H   0  0  0  0  0  0  0  0  0  0  0  0
   -0.7750   24.3480  -26.8990 C   0  0  0  0  0  0  0  0  0  0  0  0
   -0.4874   23.4483  -27.4628 H   0  0  0  0  0  0  0  0  0  0  0  0
   -0.2716   25.2252  -27.3316 H   0  0  0  0  0  0  0  0  0  0  0  0
  1  2  1  0
  2  3  1  0
  3  4  2  0
  3  5  1  0
  5  6  2  0
  6  7  1  0
  6  8  1  0
  8  9  1  0
  8 10  2  0
 10 11  1  0
 11 12  1  0
 11 13  2  0
 13 14  1  0
 13 15  1  0
 15 16  1  0
 15 17  2  0
 17 18  1  0
 17 19  1  0
 19 20  2  0
 20 21  1  0
  2 22  2  0
 22 23  1  0
 22 24  1  0
 24 25  1  0
 25 26  1  0
 25 27  1  0
 25 28  1  0
 28 29  1  0
 28 30  1  0
 28 31  1  0
 31 32  1  0
 31 33  1  0
 33 34  1  0
 33 35  1  0
 33 36  1  0
 31 37  1  0
 37 38  1  0
 37 39  1  0
 37 40  1  0
 40 41  1  0
 40 42  1  0
 20  5  1  0
 40 24  1  0
 19 10  1  0
M  CHG  1  31   1
M  END
>  <UniqueID>  (13) 
13

>  <SMILES>  (13) 
C[NH+]1CCN(/C=C\C(=O)c2ccc3ccccc3c2)CC1

>  <Energy>  (13) 
61.22662073356591

>  <Genealogy>  (13) 
C[NH+]1CCN(C=CC(=O)c2ccc3ccccc3c2)CC1 (protonated)
C[NH+]1CCN(/C=C\C(=O)c2ccc3ccccc3c2)CC1 (cis-trans isomerization)
C[NH+]1CCN(/C=C\C(=O)c2ccc3ccccc3c2)CC1 (3D coordinates assigned)
C[NH+]1CCN(/C=C\C(=O)c2ccc3ccccc3c2)CC1 (nonaromatic ring conformer: 61.22662073356591 kcal/mol)

>  <smiles>  (13) 
CN1CCN(C=CC(=O)c2ccc3ccccc3c2)CC1

>  <score_type>  (13) 
oracle

>  <origin>  (13) 
adg

>  <m_score__min__energy>  (13) 
-8.1199999999999992

>  <m_primary>  (13) 
energy

$$$$
13:0
     RDKit          3D

 50 51  0  0  0  0  0  0  0  0999 V2000
   -9.0590   18.9230  -31.9850 C   0  0  0  0  0  0  0  0  0  0  0  0
   -8.6120   20.3370  -32.3330 C   0  0  0  0  0  0  0  0  0  0  0  0
   -7.3090   20.2910  -33.0470 N   0  0  0  0  0  0  0  0  0  0  0  0
   -6.7870   18.9070  -33.1390 C   0  0  0  0  0  0  0  0  0  0  0  0
   -5.8200   18.7570  -34.3130 C   0  0  0  0  0  0  0  0  0  0  0  0
   -6.3030   21.1750  -32.4140 C   0  0  0  0  0  0  0  0  0  0  0  0
   -6.9240   22.0040  -31.2830 C   0  0  0  0  0  0  0  0  0  0  0  0
   -7.0210   23.7650  -31.7840 S   0  0  0  0  0  0  0  0  0  0  0  0
   -6.5320   24.5250  -30.1890 C   0  0  0  0  0  0  0  0  0  0  0  0
   -5.5940   25.7160  -30.4000 C   0  0  0  0  0  0  0  0  0  0  0  0
   -4.2280   25.2530  -30.6630 N   0  0  0  0  0  0  0  0  0  0  0  0
   -4.1630   23.7880  -30.7230 C   0  0  0  0  0  0  0  0  0  0  0  0
   -2.9420   23.3120  -29.9690 C   0  0  0  0  0  0  0  0  0  0  0  0
   -2.1570   22.3090  -30.5620 C   0  0  0  0  0  0  0  0  0  0  0  0
   -1.0630   21.7650  -29.8960 C   0  0  0  0  0  0  0  0  0  0  0  0
   -0.7280   22.1950  -28.6130 C   0  0  0  0  0  0  0  0  0  0  0  0
    0.6550   21.4310  -27.8300 Cl  0  0  0  0  0  0  0  0  0  0  0  0
   -1.5020   23.1900  -27.9810 C   0  0  0  0  0  0  0  0  0  0  0  0
   -1.2070   23.6270  -26.6780 C   0  0  0  0  0  0  0  0  0  0  0  0
   -2.0010   24.5920  -26.0660 C   0  0  0  0  0  0  0  0  0  0  0  0
   -3.0870   25.1230  -26.7530 C   0  0  0  0  0  0  0  0  0  0  0  0
   -3.3750   24.7060  -28.0140 N   0  0  0  0  0  0  0  0  0  0  0  0
   -2.6200   23.7570  -28.6560 C   0  0  0  0  0  0  0  0  0  0  0  0
   -9.0952   18.8085  -30.8916 H   0  0  0  0  0  0  0  0  0  0  0  0
  -10.0587   18.7404  -32.4061 H   0  0  0  0  0  0  0  0  0  0  0  0
   -8.3459   18.1990  -32.4061 H   0  0  0  0  0  0  0  0  0  0  0  0
   -9.3662   20.8099  -32.9792 H   0  0  0  0  0  0  0  0  0  0  0  0
   -8.4990   20.9206  -31.4075 H   0  0  0  0  0  0  0  0  0  0  0  0
   -6.2594   18.6599  -32.2060 H   0  0  0  0  0  0  0  0  0  0  0  0
   -7.6353   18.2250  -33.2977 H   0  0  0  0  0  0  0  0  0  0  0  0
   -4.8008   18.5989  -33.9306 H   0  0  0  0  0  0  0  0  0  0  0  0
   -6.1193   17.8945  -34.9267 H   0  0  0  0  0  0  0  0  0  0  0  0
   -5.8439   19.6696  -34.9267 H   0  0  0  0  0  0  0  0  0  0  0  0
   -5.4916   20.5572  -32.0018 H   0  0  0  0  0  0  0  0  0  0  0  0
   -5.9162   21.8648  -33.1786 H   0  0  0  0  0  0  0  0  0  0  0  0
   -7.9357   21.6291  -31.0687 H   0  0  0  0  0  0  0  0  0  0  0  0
   -6.2977   21.9167  -30.3829 H   0  0  0  0  0  0  0  0  0  0  0  0
   -7.4358   24.8700  -29.6654 H   0  0  0  0  0  0  0  0  0  0  0  0
   -6.0003   23.7677  -29.5942 H   0  0  0  0  0  0  0  0  0  0  0  0
   -5.9472   26.3076  -31.2575 H   0  0  0  0  0  0  0  0  0  0  0  0
   -5.5916   26.3329  -29.4892 H   0  0  0  0  0  0  0  0  0  0  0  0
   -3.9330   25.6350  -31.5920 H   0  0  0  0  0  0  0  0  0  0  0  0
   -5.0675   23.3608  -30.2654 H   0  0  0  0  0  0  0  0  0  0  0  0
   -4.0983   23.4641  -31.7722 H   0  0  0  0  0  0  0  0  0  0  0  0
   -2.4114   21.9478  -31.5694 H   0  0  0  0  0  0  0  0  0  0  0  0
   -0.4572   20.9888  -30.3863 H   0  0  0  0  0  0  0  0  0  0  0  0
   -0.3454   23.2046  -26.1402 H   0  0  0  0  0  0  0  0  0  0  0  0
   -1.7711   24.9325  -25.0456 H   0  0  0  0  0  0  0  0  0  0  0  0
   -3.7173   25.8858  -26.2726 H   0  0  0  0  0  0  0  0  0  0  0  0
   -4.2060   25.1440  -28.4670 H   0  0  0  0  0  0  0  0  0  0  0  0
  1  2  1  0
  2  3  1  0
  3  4  1  0
  4  5  1  0
  3  6  1  0
  6  7  1  0
  7  8  1  0
  8  9  1  0
  9 10  1  0
 10 11  1  0
 11 12  1  0
 12 13  1  0
 13 14  2  0
 14 15  1  0
 15 16  2  0
 16 17  1  0
 16 18  1  0
 18 19  2  0
 19 20  1  0
 20 21  2  0
 21 22  1  0
 22 23  2  0
 23 13  1  0
 23 18  1  0
  1 24  1  0
  1 25  1  0
  1 26  1  0
  2 27  1  0
  2 28  1  0
  4 29  1  0
  4 30  1  0
  5 31  1  0
  5 32  1  0
  5 33  1  0
  6 34  1  0
  6 35  1  0
  7 36  1  0
  7 37  1  0
  9 38  1  0
  9 39  1  0
 10 40  1  0
 10 41  1  0
 11 42  1  0
 12 43  1  0
 12 44  1  0
 14 45  1  0
 15 46  1  0
 19 47  1  0
 20 48  1  0
 21 49  1  0
 22 50  1  0
M  CHG  1  22   1
M  END
>  <UniqueID>  (14) 
14

>  <SMILES>  (14) 
CCN(CC)CCSCCNCc1ccc(Cl)c2ccc[nH+]c12

>  <Energy>  (14) 
44.68907205290406

>  <Genealogy>  (14) 
CCN(CC)CCSCCNCc1ccc(Cl)c2ccc[nH+]c12 (protonated)
CCN(CC)CCSCCNCc1ccc(Cl)c2ccc[nH+]c12 (3D coordinates assigned)
CCN(CC)CCSCCNCc1ccc(Cl)c2ccc[nH+]c12 (optimized conformer: 44.68907205290406 kcal/mol)

>  <smiles>  (14) 
CCN(CC)CCSCCNCc1ccc(Cl)c2cccnc12

>  <score_type>  (14) 
oracle

>  <origin>  (14) 
adg

>  <m_score__min__energy>  (14) 
-7.3099999999999996

>  <m_primary>  (14) 
energy

$$$$
14:0
     RDKit          3D

 40 42  0  0  0  0  0  0  0  0999 V2000
    0.0420   20.9150  -34.8840 C   0  0  0  0  0  0  0  0  0  0  0  0
    0.9860   22.0180  -35.3710 C   0  0  0  0  0  0  0  0  0  0  0  0
    0.2700   23.2700  -35.6790 N   0  0  0  0  0  0  0  0  0  0  0  0
    1.0780   24.2030  -36.4790 C   0  0  0  0  0  0  0  0  0  0  0  0
    1.2990   25.5090  -35.6920 C   0  0  0  0  0  0  0  0  0  0  0  0
    0.4160   26.7150  -36.1270 C   0  0  1  0  0  0  0  0  0  0  0  0
    1.2650   27.6180  -37.0720 C   0  0  0  0  0  0  0  0  0  0  0  0
    0.4430   28.8350  -37.5460 C   0  0  2  0  0  0  0  0  0  0  0  0
    0.0060   29.6650  -36.3200 C   0  0  0  0  0  0  0  0  0  0  0  0
   -0.8580   28.7900  -35.3880 C   0  0  1  0  0  0  0  0  0  0  0  0
   -2.1060   28.2990  -36.1550 C   0  0  0  0  0  0  0  0  0  0  0  0
   -1.6670   27.4680  -37.3810 C   0  0  1  0  0  0  0  0  0  0  0  0
   -0.8030   28.3440  -38.3120 C   0  0  0  0  0  0  0  0  0  0  0  0
   -0.8480   26.2460  -36.9090 C   0  0  0  0  0  0  0  0  0  0  0  0
   -0.0370   27.5720  -34.9090 C   0  0  0  0  0  0  0  0  0  0  0  0
    0.0304   20.9015  -33.7841 H   0  0  0  0  0  0  0  0  0  0  0  0
   -0.9736   21.1096  -35.2590 H   0  0  0  0  0  0  0  0  0  0  0  0
    0.3911   19.9416  -35.2590 H   0  0  0  0  0  0  0  0  0  0  0  0
    1.7298   22.2195  -34.5860 H   0  0  0  0  0  0  0  0  0  0  0  0
    1.4651   21.6671  -36.2969 H   0  0  0  0  0  0  0  0  0  0  0  0
   -0.6160   23.0510  -36.1930 H   0  0  0  0  0  0  0  0  0  0  0  0
    2.0515   23.7429  -36.7038 H   0  0  0  0  0  0  0  0  0  0  0  0
    0.5496   24.4291  -37.4169 H   0  0  0  0  0  0  0  0  0  0  0  0
    1.0925   25.3038  -34.6312 H   0  0  0  0  0  0  0  0  0  0  0  0
    2.3379   25.8091  -35.8934 H   0  0  0  0  0  0  0  0  0  0  0  0
    1.5783   27.0305  -37.9476 H   0  0  0  0  0  0  0  0  0  0  0  0
    2.1454   27.9788  -36.5200 H   0  0  0  0  0  0  0  0  0  0  0  0
    1.0564   29.4607  -38.2109 H   0  0  0  0  0  0  0  0  0  0  0  0
   -0.5802   30.5334  -36.6551 H   0  0  0  0  0  0  0  0  0  0  0  0
    0.8967   30.0119  -35.7757 H   0  0  0  0  0  0  0  0  0  0  0  0
   -1.1706   29.3842  -34.5167 H   0  0  0  0  0  0  0  0  0  0  0  0
   -2.6934   29.1660  -36.4917 H   0  0  0  0  0  0  0  0  0  0  0  0
   -2.7204   27.6735  -35.4907 H   0  0  0  0  0  0  0  0  0  0  0  0
   -2.5560   27.1208  -37.9279 H   0  0  0  0  0  0  0  0  0  0  0  0
   -1.3907   29.2103  -38.6499 H   0  0  0  0  0  0  0  0  0  0  0  0
   -0.4877   27.7522  -39.1840 H   0  0  0  0  0  0  0  0  0  0  0  0
   -0.5361   25.6575  -37.7844 H   0  0  0  0  0  0  0  0  0  0  0  0
   -1.4725   25.6298  -36.2455 H   0  0  0  0  0  0  0  0  0  0  0  0
    0.8504   27.9243  -34.3627 H   0  0  0  0  0  0  0  0  0  0  0  0
   -0.6640   26.9541  -34.2493 H   0  0  0  0  0  0  0  0  0  0  0  0
  1  2  1  0
  2  3  1  0
  3  4  1  0
  4  5  1  0
  6  5  1  1
  6  7  1  0
  7  8  1  0
  8  9  1  0
  9 10  1  0
 10 11  1  0
 11 12  1  0
 12 13  1  0
 12 14  1  0
 10 15  1  0
 14  6  1  0
 15  6  1  0
 13  8  1  0
  1 16  1  0
  1 17  1  0
  1 18  1  0
  2 19  1  0
  2 20  1  0
  3 21  1  0
  4 22  1  0
  4 23  1  0
  5 24  1  0
  5 25  1  0
  7 26  1  0
  7 27  1  0
  8 28  1  6
  9 29  1  0
  9 30  1  0
 10 31  1  1
 11 32  1  0
 11 33  1  0
 12 34  1  6
 13 35  1  0
 13 36  1  0
 14 37  1  0
 14 38  1  0
 15 39  1  0
 15 40  1  0
M  END
>  <UniqueID>  (15) 
15

>  <SMILES>  (15) 
CCNCCC12CC3CC(CC(C3)C1)C2

>  <Energy>  (15) 
35.4116066151561

>  <Genealogy>  (15) 
CCNCCC12CC3CC(CC(C3)C1)C2 (3D coordinates assigned)
CCNCCC12CC3CC(CC(C3)C1)C2 (nonaromatic ring conformer: 35.4116066151561 kcal/mol)

>  <smiles>  (15) 
CCNCCC12CC3CC(CC(C3)C1)C2

>  <score_type>  (15) 
oracle

>  <origin>  (15) 
adg

>  <m_score__min__energy>  (15) 
-6.9100000000000001

>  <m_primary>  (15) 
energy

$$$$
15:0
     RDKit          3D

 73 75  0  0  0  0  0  0  0  0999 V2000
   -0.8850   22.8200  -28.5580 C   0  0  0  0  0  0  0  0  0  0  0  0
   -0.8230   24.1650  -29.2830 C   0  0  0  0  0  0  0  0  0  0  0  0
   -1.8910   25.0720  -28.8070 N   0  0  0  0  0  0  0  0  0  0  0  0
   -1.4020   25.9020  -27.6830 C   0  0  0  0  0  0  0  0  0  0  0  0
   -2.0780   25.5050  -26.3700 C   0  0  0  0  0  0  0  0  0  0  0  0
   -3.1280   24.3290  -28.4480 C   0  0  0  0  0  0  0  0  0  0  0  0
   -3.9130   23.9960  -29.7170 C   0  0  0  0  0  0  0  0  0  0  0  0
   -3.9870   25.1380  -30.5510 O   0  0  0  0  0  0  0  0  0  0  0  0
   -5.2990   25.6630  -30.5580 C   0  0  0  0  0  0  0  0  0  0  0  0
   -6.2410   24.6580  -29.9120 C   0  0  0  0  0  0  0  0  0  0  0  0
   -7.0010   23.9940  -30.9210 O   0  0  0  0  0  0  0  0  0  0  0  0
   -6.8350   22.6460  -31.2730 C   0  0  0  0  0  0  0  0  0  0  0  0
   -7.9630   21.9110  -31.6500 C   0  0  0  0  0  0  0  0  0  0  0  0
   -7.8520   20.5570  -31.9830 C   0  0  0  0  0  0  0  0  0  0  0  0
   -6.6000   19.9210  -31.9650 C   0  0  0  0  0  0  0  0  0  0  0  0
   -6.4810   18.4430  -32.2810 C   0  0  0  0  0  0  0  0  0  0  0  0
   -6.7230   18.1090  -33.7020 N   0  0  0  0  0  0  0  0  0  0  0  0
   -6.8200   16.6640  -33.9780 C   0  0  0  0  0  0  0  0  0  0  0  0
   -5.5380   15.9800  -33.5140 C   0  0  0  0  0  0  0  0  0  0  0  0
   -4.2700   16.5380  -34.1810 C   0  0  0  0  0  0  0  0  0  0  0  0
   -3.7490   17.7880  -33.5810 N   0  0  0  0  0  0  0  0  0  0  0  0
   -2.2830   17.8690  -33.4160 C   0  0  0  0  0  0  0  0  0  0  0  0
   -1.8790   19.2290  -32.8990 C   0  0  0  0  0  0  0  0  0  0  0  0
   -2.4930   19.7450  -31.7440 C   0  0  0  0  0  0  0  0  0  0  0  0
   -2.1620   21.0180  -31.2710 C   0  0  0  0  0  0  0  0  0  0  0  0
   -1.2140   21.7900  -31.9440 C   0  0  0  0  0  0  0  0  0  0  0  0
   -0.5930   21.2890  -33.0920 C   0  0  0  0  0  0  0  0  0  0  0  0
   -0.9170   20.0140  -33.5750 C   0  0  0  0  0  0  0  0  0  0  0  0
   -0.1060   19.4360  -35.0280 Cl  0  0  0  0  0  0  0  0  0  0  0  0
   -4.3900   19.0170  -34.0940 C   0  0  0  0  0  0  0  0  0  0  0  0
   -5.8320   18.8400  -34.6250 C   0  0  0  0  0  0  0  0  0  0  0  0
   -5.4660   20.6590  -31.5870 C   0  0  0  0  0  0  0  0  0  0  0  0
   -5.5800   22.0090  -31.2460 C   0  0  0  0  0  0  0  0  0  0  0  0
   -0.8772   22.9887  -27.4710 H   0  0  0  0  0  0  0  0  0  0  0  0
   -1.8084   22.2933  -28.8407 H   0  0  0  0  0  0  0  0  0  0  0  0
   -0.0140   22.2106  -28.8407 H   0  0  0  0  0  0  0  0  0  0  0  0
    0.1555   24.6308  -29.0945 H   0  0  0  0  0  0  0  0  0  0  0  0
   -0.9647   23.9903  -30.3598 H   0  0  0  0  0  0  0  0  0  0  0  0
   -0.3150   25.7663  -27.5827 H   0  0  0  0  0  0  0  0  0  0  0  0
   -1.6426   26.9541  -27.8954 H   0  0  0  0  0  0  0  0  0  0  0  0
   -1.4723   25.8607  -25.5235 H   0  0  0  0  0  0  0  0  0  0  0  0
   -3.0788   25.9588  -26.3210 H   0  0  0  0  0  0  0  0  0  0  0  0
   -2.1692   24.4099  -26.3210 H   0  0  0  0  0  0  0  0  0  0  0  0
   -2.8579   23.3972  -27.9296 H   0  0  0  0  0  0  0  0  0  0  0  0
   -3.7491   24.9515  -27.7871 H   0  0  0  0  0  0  0  0  0  0  0  0
   -3.4061   23.1824  -30.2566 H   0  0  0  0  0  0  0  0  0  0  0  0
   -4.9306   23.6818  -29.4416 H   0  0  0  0  0  0  0  0  0  0  0  0
   -5.3215   26.6057  -29.9916 H   0  0  0  0  0  0  0  0  0  0  0  0
   -5.6157   25.8550  -31.5938 H   0  0  0  0  0  0  0  0  0  0  0  0
   -5.6548   23.9170  -29.3487 H   0  0  0  0  0  0  0  0  0  0  0  0
   -6.9237   25.1851  -29.2293 H   0  0  0  0  0  0  0  0  0  0  0  0
   -8.9467   22.4020  -31.6851 H   0  0  0  0  0  0  0  0  0  0  0  0
   -8.7508   19.9869  -32.2607 H   0  0  0  0  0  0  0  0  0  0  0  0
   -5.4653   18.1136  -32.0166 H   0  0  0  0  0  0  0  0  0  0  0  0
   -7.2589   17.9295  -31.6969 H   0  0  0  0  0  0  0  0  0  0  0  0
   -7.6794   16.2424  -33.4360 H   0  0  0  0  0  0  0  0  0  0  0  0
   -6.9571   16.5013  -35.0572 H   0  0  0  0  0  0  0  0  0  0  0  0
   -5.4465   16.1129  -32.4259 H   0  0  0  0  0  0  0  0  0  0  0  0
   -5.6146   14.9205  -33.7995 H   0  0  0  0  0  0  0  0  0  0  0  0
   -3.4830   15.7724  -34.1133 H   0  0  0  0  0  0  0  0  0  0  0  0
   -4.5487   16.7851  -35.2160 H   0  0  0  0  0  0  0  0  0  0  0  0
   -1.9569   17.0993  -32.7010 H   0  0  0  0  0  0  0  0  0  0  0  0
   -1.8072   17.7067  -34.3944 H   0  0  0  0  0  0  0  0  0  0  0  0
   -3.2404   19.1416  -31.2080 H   0  0  0  0  0  0  0  0  0  0  0  0
   -2.6495   21.4119  -30.3670 H   0  0  0  0  0  0  0  0  0  0  0  0
   -0.9555   22.7922  -31.5714 H   0  0  0  0  0  0  0  0  0  0  0  0
    0.1547   21.8995  -33.6195 H   0  0  0  0  0  0  0  0  0  0  0  0
   -4.4171   19.7525  -33.2765 H   0  0  0  0  0  0  0  0  0  0  0  0
   -3.7863   19.3371  -34.9560 H   0  0  0  0  0  0  0  0  0  0  0  0
   -6.2605   19.8373  -34.8031 H   0  0  0  0  0  0  0  0  0  0  0  0
   -5.7627   18.2403  -35.5445 H   0  0  0  0  0  0  0  0  0  0  0  0
   -4.4809   20.1703  -31.5593 H   0  0  0  0  0  0  0  0  0  0  0  0
   -4.6843   22.5772  -30.9548 H   0  0  0  0  0  0  0  0  0  0  0  0
  1  2  1  0
  2  3  1  0
  3  4  1  0
  4  5  1  0
  3  6  1  0
  6  7  1  0
  7  8  1  0
  8  9  1  0
  9 10  1  0
 10 11  1  0
 11 12  1  0
 12 13  2  0
 13 14  1  0
 14 15  2  0
 15 16  1  0
 16 17  1  0
 17 18  1  0
 18 19  1  0
 19 20  1  0
 20 21  1  0
 21 22  1  0
 22 23  1  0
 23 24  2  0
 24 25  1  0
 25 26  2  0
 26 27  1  0
 27 28  2  0
 28 29  1  0
 21 30  1  0
 30 31  1  0
 15 32  1  0
 32 33  2  0
 33 12  1  0
 31 17  1  0
 28 23  1  0
  1 34  1  0
  1 35  1  0
  1 36  1  0
  2 37  1  0
  2 38  1  0
  4 39  1  0
  4 40  1  0
  5 41  1  0
  5 42  1  0
  5 43  1  0
  6 44  1  0
  6 45  1  0
  7 46  1  0
  7 47  1  0
  9 48  1  0
  9 49  1  0
 10 50  1  0
 10 51  1  0
 13 52  1  0
 14 53  1  0
 16 54  1  0
 16 55  1  0
 18 56  1  0
 18 57  1  0
 19 58  1  0
 19 59  1  0
 20 60  1  0
 20 61  1  0
 22 62  1  0
 22 63  1  0
 24 64  1  0
 25 65  1  0
 26 66  1  0
 27 67  1  0
 30 68  1  0
 30 69  1  0
 31 70  1  0
 31 71  1  0
 32 72  1  0
 33 73  1  0
M  END
>  <UniqueID>  (16) 
16

>  <SMILES>  (16) 
CCN(CC)CCOCCOc1ccc(CN2CCCN(Cc3ccccc3Cl)CC2)cc1

>  <Energy>  (16) 
87.51359528759365

>  <Genealogy>  (16) 
CCN(CC)CCOCCOc1ccc(CN2CCCN(Cc3ccccc3Cl)CC2)cc1 (3D coordinates assigned)
CCN(CC)CCOCCOc1ccc(CN2CCCN(Cc3ccccc3Cl)CC2)cc1 (nonaromatic ring conformer: 87.51359528759365 kcal/mol)

>  <smiles>  (16) 
CCN(CC)CCOCCOc1ccc(CN2CCCN(Cc3ccccc3Cl)CC2)cc1

>  <score_type>  (16) 
oracle

>  <origin>  (16) 
adg

>  <m_score__min__energy>  (16) 
-6.9299999999999997

>  <m_primary>  (16) 
energy

$$$$
16:0
     RDKit          3D

 53 54  0  0  0  0  0  0  0  0999 V2000
   -3.2633   20.0610  -33.0865 H   0  0  0  0  0  0  0  0  0  0  0  0
   -4.3630   20.0670  -33.0630 C   0  0  0  0  0  0  0  0  0  0  0  0
   -5.0780   19.0770  -33.7410 C   0  0  0  0  0  0  0  0  0  0  0  0
   -4.2210   17.8300  -34.6270 Cl  0  0  0  0  0  0  0  0  0  0  0  0
   -6.4760   19.0800  -33.7130 C   0  0  0  0  0  0  0  0  0  0  0  0
   -7.0355   18.2987  -34.2483 H   0  0  0  0  0  0  0  0  0  0  0  0
   -7.1690   20.0740  -33.0060 C   0  0  0  0  0  0  0  0  0  0  0  0
   -6.4490   21.0830  -32.3160 C   0  0  0  0  0  0  0  0  0  0  0  0
   -5.0380   21.0650  -32.3550 C   0  0  0  0  0  0  0  0  0  0  0  0
   -4.4664   21.8411  -31.8250 H   0  0  0  0  0  0  0  0  0  0  0  0
   -7.1630   22.0800  -31.6100 C   0  0  0  0  0  0  0  0  0  0  0  0
   -6.5060   23.0120  -30.9720 N   0  0  0  0  0  0  0  0  0  0  0  0
   -5.8020   24.1640  -31.5370 C   0  0  0  0  0  0  0  0  0  0  0  0
   -6.4753   24.6958  -32.2254 H   0  0  0  0  0  0  0  0  0  0  0  0
   -4.9115   23.8043  -32.0734 H   0  0  0  0  0  0  0  0  0  0  0  0
   -5.3550   25.1220  -30.4340 C   0  0  0  0  0  0  0  0  0  0  0  0
   -5.6209   24.7037  -29.4520 H   0  0  0  0  0  0  0  0  0  0  0  0
   -5.8555   26.0934  -30.5598 H   0  0  0  0  0  0  0  0  0  0  0  0
   -3.9570   25.2920  -30.5130 O   0  0  0  0  0  0  0  0  0  0  0  0
   -3.3090   24.1570  -29.9760 C   0  0  0  0  0  0  0  0  0  0  0  0
   -2.2271   24.2293  -30.1612 H   0  0  0  0  0  0  0  0  0  0  0  0
   -3.7002   23.2474  -30.4552 H   0  0  0  0  0  0  0  0  0  0  0  0
   -3.5670   24.0950  -28.4690 C   0  0  0  0  0  0  0  0  0  0  0  0
   -4.4620   24.6900  -28.2347 H   0  0  0  0  0  0  0  0  0  0  0  0
   -2.6837   24.4962  -27.9506 H   0  0  0  0  0  0  0  0  0  0  0  0
   -3.7720   22.7650  -28.0330 O   0  0  0  0  0  0  0  0  0  0  0  0
   -3.0850   21.8230  -28.8420 C   0  0  0  0  0  0  0  0  0  0  0  0
   -2.0482   22.1590  -28.9910 H   0  0  0  0  0  0  0  0  0  0  0  0
   -3.5955   21.7423  -29.8130 H   0  0  0  0  0  0  0  0  0  0  0  0
   -3.0800   20.4490  -28.1620 C   0  0  0  0  0  0  0  0  0  0  0  0
   -3.2635   19.6734  -28.9201 H   0  0  0  0  0  0  0  0  0  0  0  0
   -3.8687   20.4383  -27.3953 H   0  0  0  0  0  0  0  0  0  0  0  0
   -1.7820   20.1800  -27.5010 N   0  0  0  0  0  0  0  0  0  0  0  0
   -1.3860   21.3210  -26.6450 C   0  0  0  0  0  0  0  0  0  0  0  0
   -1.2556   20.9672  -25.6117 H   0  0  0  0  0  0  0  0  0  0  0  0
   -2.1749   22.0860  -26.6938 H   0  0  0  0  0  0  0  0  0  0  0  0
   -0.0760   21.9410  -27.1300 C   0  0  0  0  0  0  0  0  0  0  0  0
    0.5358   22.2305  -26.2629 H   0  0  0  0  0  0  0  0  0  0  0  0
    0.4738   21.2075  -27.7381 H   0  0  0  0  0  0  0  0  0  0  0  0
   -0.2947   22.8312  -27.7381 H   0  0  0  0  0  0  0  0  0  0  0  0
   -1.8030   18.9000  -26.7460 C   0  0  0  0  0  0  0  0  0  0  0  0
   -1.6652   18.0609  -27.4438 H   0  0  0  0  0  0  0  0  0  0  0  0
   -0.9902   18.8993  -26.0048 H   0  0  0  0  0  0  0  0  0  0  0  0
   -3.1410   18.7510  -26.0310 C   0  0  0  0  0  0  0  0  0  0  0  0
   -2.9794   18.7690  -24.9431 H   0  0  0  0  0  0  0  0  0  0  0  0
   -3.8040   19.5809  -26.3170 H   0  0  0  0  0  0  0  0  0  0  0  0
   -3.6052   17.7956  -26.3170 H   0  0  0  0  0  0  0  0  0  0  0  0
   -8.5720   22.0310  -31.6130 C   0  0  0  0  0  0  0  0  0  0  0  0
   -9.1499   22.7918  -31.0679 H   0  0  0  0  0  0  0  0  0  0  0  0
   -9.2330   21.0180  -32.3070 C   0  0  0  0  0  0  0  0  0  0  0  0
  -10.3325   20.9855  -32.3070 H   0  0  0  0  0  0  0  0  0  0  0  0
   -8.5320   20.0710  -32.9830 N   0  0  0  0  0  0  0  0  0  0  0  0
   -9.0650   19.3290  -33.4900 H   0  0  0  0  0  0  0  0  0  0  0  0
  1  2  1  0
  2  3  2  0
  3  4  1  0
  3  5  1  0
  5  6  1  0
  5  7  2  0
  7  8  1  0
  8  9  2  0
  9 10  1  0
  8 11  1  0
 11 12  2  0
 12 13  1  0
 13 14  1  0
 13 15  1  0
 13 16  1  0
 16 17  1  0
 16 18  1  0
 16 19  1  0
 19 20  1  0
 20 21  1  0
 20 22  1  0
 20 23  1  0
 23 24  1  0
 23 25  1  0
 23 26  1  0
 26 27  1  0
 27 28  1  0
 27 29  1  0
 27 30  1  0
 30 31  1  0
 30 32  1  0
 30 33  1  0
 33 34  1  0
 34 35  1  0
 34 36  1  0
 34 37  1  0
 37 38  1  0
 37 39  1  0
 37 40  1  0
 33 41  1  0
 41 42  1  0
 41 43  1  0
 41 44  1  0
 44 45  1  0
 44 46  1  0
 44 47  1  0
 11 48  1  0
 48 49  1  0
 48 50  2  0
 50 51  1  0
 50 52  1  0
 52 53  1  0
  9  2  1  0
 52  7  1  0
M  END
>  <UniqueID>  (17) 
17

>  <SMILES>  (17) 
CCN(CC)CCOCCOCC/N=c1\cc[nH]c2cc(Cl)ccc12

>  <Energy>  (17) 
56.57582772262895

>  <Genealogy>  (17) 
CCN(CC)CCOCCOCC/N=c1\cc[nH]c2cc(Cl)ccc12 (cis-trans isomerization)
CCN(CC)CCOCCOCC/N=c1\cc[nH]c2cc(Cl)ccc12 (3D coordinates assigned)
CCN(CC)CCOCCOCC/N=c1\cc[nH]c2cc(Cl)ccc12 (optimized conformer: 56.57582772262895 kcal/mol)

>  <smiles>  (17) 
CCN(CC)CCOCCOCCN=c1cc[nH]c2cc(Cl)ccc12

>  <score_type>  (17) 
oracle

>  <origin>  (17) 
adg

>  <m_score__min__energy>  (17) 
-8.6799999999999997

>  <m_primary>  (17) 
energy

$$$$
17:0
     RDKit          3D

 53 55  0  0  0  0  0  0  0  0999 V2000
   -0.5480   21.3750  -29.6790 C   0  0  0  0  0  0  0  0  0  0  0  0
   -1.4810   22.4960  -29.5640 C   0  0  0  0  0  0  0  0  0  0  0  0
   -2.2500   23.4210  -29.4710 C   0  0  0  0  0  0  0  0  0  0  0  0
   -3.1920   24.5410  -29.3620 C   0  0  0  0  0  0  0  0  0  0  0  0
   -3.9720   24.6510  -30.5510 O   0  0  0  0  0  0  0  0  0  0  0  0
   -5.0760   23.8450  -30.8760 C   0  0  0  0  0  0  0  0  0  0  0  0
   -6.3580   24.3750  -31.1230 C   0  0  0  0  0  0  0  0  0  0  0  0
   -7.4230   23.5260  -31.4370 C   0  0  0  0  0  0  0  0  0  0  0  0
   -7.2260   22.1420  -31.5080 C   0  0  0  0  0  0  0  0  0  0  0  0
   -8.5850   21.0850  -31.8830 S   0  0  0  0  0  0  0  0  0  0  0  0
   -9.7640   21.9020  -32.3390 O   0  0  0  0  0  0  0  0  0  0  0  0
   -8.9700   20.3390  -30.6360 O   0  0  0  0  0  0  0  0  0  0  0  0
   -8.1330   19.9520  -33.1360 N   0  0  0  0  0  0  0  0  0  0  0  0
   -6.8180   20.3260  -33.7030 C   0  0  0  0  0  0  0  0  0  0  0  0
   -6.1240   19.1120  -34.3280 C   0  0  0  0  0  0  0  0  0  0  0  0
   -5.7700   18.1070  -33.2940 N   0  0  0  0  0  0  0  0  0  0  0  0
   -5.4230   16.7630  -33.8480 C   0  0  0  0  0  0  0  0  0  0  0  0
   -4.4780   16.8120  -35.0770 C   0  0  0  0  0  0  0  0  0  0  0  0
   -3.0750   17.3410  -34.6980 C   0  0  0  0  0  0  0  0  0  0  0  0
   -2.8520   17.3650  -33.2980 O   0  0  0  0  0  0  0  0  0  0  0  0
   -3.1950   16.1170  -32.7320 C   0  0  0  0  0  0  0  0  0  0  0  0
   -4.7200   15.8920  -32.7680 C   0  0  0  0  0  0  0  0  0  0  0  0
   -6.7980   18.0220  -32.2130 C   0  0  0  0  0  0  0  0  0  0  0  0
   -8.1810   18.5530  -32.6380 C   0  0  0  0  0  0  0  0  0  0  0  0
   -5.9510   21.6120  -31.2660 C   0  0  0  0  0  0  0  0  0  0  0  0
   -4.8850   22.4610  -30.9550 C   0  0  0  0  0  0  0  0  0  0  0  0
   -0.2620   21.0314  -28.6739 H   0  0  0  0  0  0  0  0  0  0  0  0
   -1.0306   20.5508  -30.2248 H   0  0  0  0  0  0  0  0  0  0  0  0
    0.3501   21.6999  -30.2248 H   0  0  0  0  0  0  0  0  0  0  0  0
   -3.8598   24.3710  -28.5046 H   0  0  0  0  0  0  0  0  0  0  0  0
   -2.6245   25.4725  -29.2196 H   0  0  0  0  0  0  0  0  0  0  0  0
   -6.5213   25.4614  -31.0685 H   0  0  0  0  0  0  0  0  0  0  0  0
   -8.4207   23.9475  -31.6292 H   0  0  0  0  0  0  0  0  0  0  0  0
   -8.8470   20.0430  -33.8950 H   0  0  0  0  0  0  0  0  0  0  0  0
   -6.9652   21.0939  -34.4767 H   0  0  0  0  0  0  0  0  0  0  0  0
   -6.1839   20.7128  -32.8916 H   0  0  0  0  0  0  0  0  0  0  0  0
   -6.8008   18.6495  -35.0615 H   0  0  0  0  0  0  0  0  0  0  0  0
   -5.1986   19.4517  -34.8160 H   0  0  0  0  0  0  0  0  0  0  0  0
   -6.3847   16.3328  -34.1643 H   0  0  0  0  0  0  0  0  0  0  0  0
   -4.3770   15.7975  -35.4899 H   0  0  0  0  0  0  0  0  0  0  0  0
   -4.9145   17.4973  -35.8185 H   0  0  0  0  0  0  0  0  0  0  0  0
   -2.3182   16.6917  -35.1625 H   0  0  0  0  0  0  0  0  0  0  0  0
   -3.0049   18.3772  -35.0604 H   0  0  0  0  0  0  0  0  0  0  0  0
   -2.7001   15.3162  -33.3010 H   0  0  0  0  0  0  0  0  0  0  0  0
   -2.8647   16.1064  -31.6828 H   0  0  0  0  0  0  0  0  0  0  0  0
   -4.9155   14.8319  -32.9871 H   0  0  0  0  0  0  0  0  0  0  0  0
   -5.1249   16.1825  -31.7874 H   0  0  0  0  0  0  0  0  0  0  0  0
   -6.9055   16.9682  -31.9166 H   0  0  0  0  0  0  0  0  0  0  0  0
   -6.4490   18.6546  -31.3836 H   0  0  0  0  0  0  0  0  0  0  0  0
   -8.5741   17.9085  -33.4381 H   0  0  0  0  0  0  0  0  0  0  0  0
   -8.8280   18.5404  -31.7485 H   0  0  0  0  0  0  0  0  0  0  0  0
   -5.7890   20.5254  -31.3210 H   0  0  0  0  0  0  0  0  0  0  0  0
   -3.8868   22.0373  -30.7707 H   0  0  0  0  0  0  0  0  0  0  0  0
  1  2  1  0
  2  3  3  0
  3  4  1  0
  4  5  1  0
  5  6  1  0
  6  7  2  0
  7  8  1  0
  8  9  2  0
  9 10  1  0
 10 11  2  0
 10 12  2  0
 10 13  1  0
 13 14  1  0
 14 15  1  0
 15 16  1  0
 16 17  1  0
 17 18  1  0
 18 19  1  0
 19 20  1  0
 20 21  1  0
 21 22  1  0
 16 23  1  0
 23 24  1  0
  9 25  1  0
 25 26  2  0
 26  6  1  0
 24 13  1  0
 22 17  1  0
  1 27  1  0
  1 28  1  0
  1 29  1  0
  4 30  1  0
  4 31  1  0
  7 32  1  0
  8 33  1  0
 13 34  1  0
 14 35  1  0
 14 36  1  0
 15 37  1  0
 15 38  1  0
 17 39  1  0
 18 40  1  0
 18 41  1  0
 19 42  1  0
 19 43  1  0
 21 44  1  0
 21 45  1  0
 22 46  1  0
 22 47  1  0
 23 48  1  0
 23 49  1  0
 24 50  1  0
 24 51  1  0
 25 52  1  0
 26 53  1  0
M  CHG  1  13   1
M  END
>  <UniqueID>  (18) 
18

>  <SMILES>  (18) 
CC#CCOc1ccc(S(=O)(=O)[NH+]2CCN(C3CCOCC3)CC2)cc1

>  <Energy>  (18) 
72.34812648958872

>  <Genealogy>  (18) 
CC#CCOc1ccc(S(=O)(=O)[NH+]2CCN(C3CCOCC3)CC2)cc1 (protonated)
CC#CCOc1ccc(S(=O)(=O)[NH+]2CCN(C3CCOCC3)CC2)cc1 (3D coordinates assigned)
CC#CCOc1ccc(S(=O)(=O)[NH+]2CCN(C3CCOCC3)CC2)cc1 (nonaromatic ring conformer: 72.34812648958872 kcal/mol)

>  <smiles>  (18) 
CC#CCOc1ccc(S(=O)(=O)N2CCN(C3CCOCC3)CC2)cc1

>  <score_type>  (18) 
oracle

>  <origin>  (18) 
adg

>  <m_score__min__energy>  (18) 
-8.1799999999999997

>  <m_primary>  (18) 
energy

$$$$
18:0
     RDKit          3D

 43 45  0  0  0  0  0  0  0  0999 V2000
   -6.6440   16.7380  -33.8270 C   0  0  0  0  0  0  0  0  0  0  0  0
   -5.9800   17.1700  -32.5850 N   0  0  0  0  0  0  0  0  0  0  0  0
   -5.3100   16.0170  -31.9620 C   0  0  0  0  0  0  0  0  0  0  0  0
   -6.9500   17.7700  -31.6430 C   0  0  0  0  0  0  0  0  0  0  0  0
   -8.3380   17.8760  -32.2920 C   0  0  0  0  0  0  0  0  0  0  0  0
   -8.8630   19.3160  -32.2920 C   0  0  0  0  0  0  0  0  0  0  0  0
   -8.0060   20.1770  -33.1090 N   0  0  0  0  0  0  0  0  0  0  0  0
   -7.0680   21.1060  -32.5350 C   0  0  0  0  0  0  0  0  0  0  0  0
   -7.5510   22.1860  -31.8080 C   0  0  0  0  0  0  0  0  0  0  0  0
   -6.6770   23.1190  -31.2620 C   0  0  0  0  0  0  0  0  0  0  0  0
   -7.1970   24.1890  -30.5170 C   0  0  0  0  0  0  0  0  0  0  0  0
   -6.3460   25.1270  -29.9410 C   0  0  0  0  0  0  0  0  0  0  0  0
   -4.9720   25.0010  -30.0980 C   0  0  0  0  0  0  0  0  0  0  0  0
   -4.4350   23.9450  -30.8400 C   0  0  0  0  0  0  0  0  0  0  0  0
   -5.2770   22.9780  -31.4610 C   0  0  0  0  0  0  0  0  0  0  0  0
   -4.7920   21.9190  -32.2230 N   0  0  0  0  0  0  0  0  0  0  0  0
   -3.4450   21.7780  -32.4920 C   0  0  0  0  0  0  0  0  0  0  0  0
   -2.9500   20.6920  -33.2110 C   0  0  0  0  0  0  0  0  0  0  0  0
   -3.8200   19.7250  -33.6810 C   0  0  0  0  0  0  0  0  0  0  0  0
   -5.1800   19.8610  -33.4520 C   0  0  0  0  0  0  0  0  0  0  0  0
   -5.6750   20.9750  -32.7390 C   0  0  0  0  0  0  0  0  0  0  0  0
   -7.5422   16.1536  -33.5784 H   0  0  0  0  0  0  0  0  0  0  0  0
   -6.9326   17.6217  -34.4150 H   0  0  0  0  0  0  0  0  0  0  0  0
   -5.9530   16.1161  -34.4150 H   0  0  0  0  0  0  0  0  0  0  0  0
   -5.3636   16.1093  -30.8672 H   0  0  0  0  0  0  0  0  0  0  0  0
   -5.8094   15.0887  -32.2766 H   0  0  0  0  0  0  0  0  0  0  0  0
   -4.2563   15.9913  -32.2766 H   0  0  0  0  0  0  0  0  0  0  0  0
   -7.0183   17.1398  -30.7440 H   0  0  0  0  0  0  0  0  0  0  0  0
   -6.6058   18.7796  -31.3743 H   0  0  0  0  0  0  0  0  0  0  0  0
   -8.2721   17.5220  -33.3314 H   0  0  0  0  0  0  0  0  0  0  0  0
   -9.0354   17.2599  -31.7055 H   0  0  0  0  0  0  0  0  0  0  0  0
   -9.8838   19.3286  -32.7017 H   0  0  0  0  0  0  0  0  0  0  0  0
   -8.8629   19.6934  -31.2588 H   0  0  0  0  0  0  0  0  0  0  0  0
   -8.0260   20.0430  -34.1450 H   0  0  0  0  0  0  0  0  0  0  0  0
   -8.6349   22.3043  -31.6628 H   0  0  0  0  0  0  0  0  0  0  0  0
   -8.2850   24.2866  -30.3877 H   0  0  0  0  0  0  0  0  0  0  0  0
   -6.7604   25.9661  -29.3629 H   0  0  0  0  0  0  0  0  0  0  0  0
   -4.3004   25.7386  -29.6345 H   0  0  0  0  0  0  0  0  0  0  0  0
   -3.3435   23.8592  -30.9462 H   0  0  0  0  0  0  0  0  0  0  0  0
   -2.7438   22.5438  -32.1288 H   0  0  0  0  0  0  0  0  0  0  0  0
   -1.8707   20.6040  -33.4042 H   0  0  0  0  0  0  0  0  0  0  0  0
   -3.4353   18.8544  -34.2325 H   0  0  0  0  0  0  0  0  0  0  0  0
   -5.8773   19.0976  -33.8274 H   0  0  0  0  0  0  0  0  0  0  0  0
  1  2  1  0
  2  3  1  0
  2  4  1  0
  4  5  1  0
  5  6  1  0
  6  7  1  0
  7  8  1  0
  8  9  2  0
  9 10  1  0
 10 11  2  0
 11 12  1  0
 12 13  2  0
 13 14  1  0
 14 15  2  0
 15 16  1  0
 16 17  2  0
 17 18  1  0
 18 19  2  0
 19 20  1  0
 20 21  2  0
 21  8  1  0
 15 10  1  0
 21 16  1  0
  1 22  1  0
  1 23  1  0
  1 24  1  0
  3 25  1  0
  3 26  1  0
  3 27  1  0
  4 28  1  0
  4 29  1  0
  5 30  1  0
  5 31  1  0
  6 32  1  0
  6 33  1  0
  7 34  1  0
  9 35  1  0
 11 36  1  0
 12 37  1  0
 13 38  1  0
 14 39  1  0
 17 40  1  0
 18 41  1  0
 19 42  1  0
 20 43  1  0
M  CHG  1  16   1
M  END
>  <UniqueID>  (19) 
19

>  <SMILES>  (19) 
CN(C)CCCNc1cc2ccccc2[n+]2ccccc12

>  <Energy>  (19) 
61.397292118577056

>  <Genealogy>  (19) 
CN(C)CCCNc1cc2ccccc2[n+]2ccccc12 (3D coordinates assigned)
CN(C)CCCNc1cc2ccccc2[n+]2ccccc12 (optimized conformer: 61.397292118577056 kcal/mol)

>  <smiles>  (19) 
CN(C)CCCNc1cc2ccccc2[n+]2ccccc12

>  <score_type>  (19) 
oracle

>  <origin>  (19) 
adg

>  <m_score__min__energy>  (19) 
-7.6399999999999997

>  <m_primary>  (19) 
energy

$$$$
19:0
     RDKit          3D

 37 38  0  0  0  0  0  0  0  0999 V2000
   -7.5080   22.6850  -29.7490 C   0  0  0  0  0  0  0  0  0  0  0  0
   -6.7490   22.8090  -31.0060 N   0  0  0  0  0  0  0  0  0  0  0  0
   -7.5740   22.5000  -32.1910 C   0  0  0  0  0  0  0  0  0  0  0  0
   -7.7250   21.0100  -32.3460 C   0  0  0  0  0  0  0  0  0  0  0  0
   -8.8690   20.3530  -31.8620 C   0  0  0  0  0  0  0  0  0  0  0  0
   -8.9900   18.9660  -31.9890 C   0  0  0  0  0  0  0  0  0  0  0  0
   -7.9700   18.2260  -32.5910 C   0  0  0  0  0  0  0  0  0  0  0  0
   -6.8250   18.8720  -33.0670 C   0  0  0  0  0  0  0  0  0  0  0  0
   -6.7000   20.2590  -32.9430 C   0  0  0  0  0  0  0  0  0  0  0  0
   -6.0180   24.0940  -31.1170 C   0  0  0  0  0  0  0  0  0  0  0  0
   -4.5520   24.0590  -30.5990 C   0  0  2  0  0  0  0  0  0  0  0  0
   -3.8940   25.2880  -30.7880 O   0  0  0  0  0  0  0  0  0  0  0  0
   -3.7680   22.9420  -31.2630 C   0  0  0  0  0  0  0  0  0  0  0  0
   -4.2100   22.3650  -32.4700 C   0  0  0  0  0  0  0  0  0  0  0  0
   -3.4810   21.3340  -33.0700 C   0  0  0  0  0  0  0  0  0  0  0  0
   -2.3050   20.8660  -32.4760 C   0  0  0  0  0  0  0  0  0  0  0  0
   -1.3930   19.5720  -33.2320 Cl  0  0  0  0  0  0  0  0  0  0  0  0
   -1.8580   21.4310  -31.2780 C   0  0  0  0  0  0  0  0  0  0  0  0
   -2.5840   22.4610  -30.6730 C   0  0  0  0  0  0  0  0  0  0  0  0
   -6.8238   22.7968  -28.8950 H   0  0  0  0  0  0  0  0  0  0  0  0
   -8.2782   23.4692  -29.7069 H   0  0  0  0  0  0  0  0  0  0  0  0
   -7.9886   21.6964  -29.7069 H   0  0  0  0  0  0  0  0  0  0  0  0
   -8.5681   22.9552  -32.0703 H   0  0  0  0  0  0  0  0  0  0  0  0
   -7.0811   22.9057  -33.0868 H   0  0  0  0  0  0  0  0  0  0  0  0
   -9.6717   20.9318  -31.3817 H   0  0  0  0  0  0  0  0  0  0  0  0
   -9.8901   18.4567  -31.6142 H   0  0  0  0  0  0  0  0  0  0  0  0
   -8.0674   17.1349  -32.6907 H   0  0  0  0  0  0  0  0  0  0  0  0
   -6.0214   18.2882  -33.5397 H   0  0  0  0  0  0  0  0  0  0  0  0
   -5.7957   20.7634  -33.3144 H   0  0  0  0  0  0  0  0  0  0  0  0
   -5.9991   24.3861  -32.1773 H   0  0  0  0  0  0  0  0  0  0  0  0
   -6.5545   24.8108  -30.4780 H   0  0  0  0  0  0  0  0  0  0  0  0
   -4.6018   23.8676  -29.5169 H   0  0  0  0  0  0  0  0  0  0  0  0
   -4.2090   25.6790  -31.6440 H   0  0  0  0  0  0  0  0  0  0  0  0
   -5.1343   22.7280  -32.9431 H   0  0  0  0  0  0  0  0  0  0  0  0
   -3.8337   20.8896  -34.0124 H   0  0  0  0  0  0  0  0  0  0  0  0
   -0.9325   21.0641  -30.8102 H   0  0  0  0  0  0  0  0  0  0  0  0
   -2.2274   22.8988  -29.7290 H   0  0  0  0  0  0  0  0  0  0  0  0
  1  2  1  0
  2  3  1  0
  3  4  1  0
  4  5  2  0
  5  6  1  0
  6  7  2  0
  7  8  1  0
  8  9  2  0
  2 10  1  0
 10 11  1  0
 11 12  1  0
 11 13  1  0
 13 14  2  0
 14 15  1  0
 15 16  2  0
 16 17  1  0
 16 18  1  0
 18 19  2  0
  9  4  1  0
 19 13  1  0
  1 20  1  0
  1 21  1  0
  1 22  1  0
  3 23  1  0
  3 24  1  0
  5 25  1  0
  6 26  1  0
  7 27  1  0
  8 28  1  0
  9 29  1  0
 10 30  1  0
 10 31  1  0
 11 32  1  1
 12 33  1  0
 14 34  1  0
 15 35  1  0
 18 36  1  0
 19 37  1  0
M  END
>  <UniqueID>  (20) 
20

>  <SMILES>  (20) 
CN(Cc1ccccc1)C[C@H](O)c1ccc(Cl)cc1

>  <Energy>  (20) 
42.490523320139495

>  <Genealogy>  (20) 
CN(Cc1ccccc1)C[C@H](O)c1ccc(Cl)cc1 (chirality)
CN(Cc1ccccc1)C[C@H](O)c1ccc(Cl)cc1 (3D coordinates assigned)
CN(Cc1ccccc1)C[C@H](O)c1ccc(Cl)cc1 (optimized conformer: 42.490523320139495 kcal/mol)

>  <smiles>  (20) 
CN(Cc1ccccc1)CC(O)c1ccc(Cl)cc1

>  <score_type>  (20) 
oracle

>  <origin>  (20) 
adg

>  <m_score__min__energy>  (20) 
-8.1899999999999995

>  <m_primary>  (20) 
energy

$$$$
20:0
     RDKit          3D

 69 72  0  0  0  0  0  0  0  0999 V2000
    0.3060   22.1110  -35.3540 C   0  0  0  0  0  0  0  0  0  0  0  0
   -0.5540   21.0900  -34.7280 N   0  0  0  0  0  0  0  0  0  0  0  0
   -0.1090   19.7530  -35.1620 C   0  0  0  0  0  0  0  0  0  0  0  0
   -0.5020   21.1600  -33.2500 C   0  0  0  0  0  0  0  0  0  0  0  0
   -1.8740   20.9020  -32.6050 C   0  0  0  0  0  0  0  0  0  0  0  0
   -2.9190   20.7170  -33.6180 N   0  0  0  0  0  0  0  0  0  0  0  0
   -4.2500   20.3080  -33.2510 C   0  0  0  0  0  0  0  0  0  0  0  0
   -4.7180   19.0310  -33.5990 C   0  0  0  0  0  0  0  0  0  0  0  0
   -3.8400   18.0680  -34.1450 C   0  0  0  0  0  0  0  0  0  0  0  0
   -4.3010   16.8020  -34.4900 C   0  0  0  0  0  0  0  0  0  0  0  0
   -5.6380   16.4740  -34.3120 C   0  0  0  0  0  0  0  0  0  0  0  0
   -6.5210   17.4080  -33.7760 C   0  0  0  0  0  0  0  0  0  0  0  0
   -6.0800   18.7030  -33.3800 C   0  0  0  0  0  0  0  0  0  0  0  0
   -6.9450   19.6300  -32.8140 N   0  0  0  0  0  0  0  0  0  0  0  0
   -8.3190   19.1990  -32.4690 C   0  0  0  0  0  0  0  0  0  0  0  0
   -6.5030   20.9130  -32.5360 C   0  0  0  0  0  0  0  0  0  0  0  0
   -7.3880   21.9650  -32.1660 C   0  0  0  0  0  0  0  0  0  0  0  0
   -6.9060   23.2210  -31.7960 C   0  0  0  0  0  0  0  0  0  0  0  0
   -5.5300   23.4730  -31.7840 C   0  0  0  0  0  0  0  0  0  0  0  0
   -4.9860   24.6920  -31.3590 O   0  0  0  0  0  0  0  0  0  0  0  0
   -5.1950   25.2930  -30.0800 C   0  0  0  0  0  0  0  0  0  0  0  0
   -5.2770   24.2160  -28.9730 C   0  0  0  0  0  0  0  0  0  0  0  0
   -3.9860   23.8530  -28.2990 N   0  0  0  0  0  0  0  0  0  0  0  0
   -3.8870   24.5310  -26.9760 C   0  0  0  0  0  0  0  0  0  0  0  0
   -2.8680   24.3710  -29.1690 C   0  0  0  0  0  0  0  0  0  0  0  0
   -1.5820   23.5400  -29.0640 C   0  0  0  0  0  0  0  0  0  0  0  0
   -1.8260   22.0880  -29.5240 C   0  0  0  0  0  0  0  0  0  0  0  0
   -3.2770   21.6350  -29.2850 C   0  0  0  0  0  0  0  0  0  0  0  0
   -3.8790   22.3690  -28.0830 C   0  0  0  0  0  0  0  0  0  0  0  0
   -4.6520   22.4880  -32.2200 C   0  0  0  0  0  0  0  0  0  0  0  0
   -5.1250   21.2320  -32.6580 C   0  0  0  0  0  0  0  0  0  0  0  0
    0.8035   22.7017  -34.5707 H   0  0  0  0  0  0  0  0  0  0  0  0
    1.0650   21.6179  -35.9792 H   0  0  0  0  0  0  0  0  0  0  0  0
   -0.3089   22.7751  -35.9792 H   0  0  0  0  0  0  0  0  0  0  0  0
    0.0981   19.1309  -34.2788 H   0  0  0  0  0  0  0  0  0  0  0  0
   -0.8987   19.2817  -35.7655 H   0  0  0  0  0  0  0  0  0  0  0  0
    0.8056   19.8490  -35.7655 H   0  0  0  0  0  0  0  0  0  0  0  0
    0.2084   20.4037  -32.8848 H   0  0  0  0  0  0  0  0  0  0  0  0
   -0.1852   22.1761  -32.9721 H   0  0  0  0  0  0  0  0  0  0  0  0
   -1.8126   19.9953  -31.9853 H   0  0  0  0  0  0  0  0  0  0  0  0
   -2.1377   21.7776  -31.9936 H   0  0  0  0  0  0  0  0  0  0  0  0
   -2.7880   21.1890  -34.5370 H   0  0  0  0  0  0  0  0  0  0  0  0
   -2.7809   18.3222  -34.2988 H   0  0  0  0  0  0  0  0  0  0  0  0
   -3.6043   16.0587  -34.9050 H   0  0  0  0  0  0  0  0  0  0  0  0
   -6.0006   15.4747  -34.5948 H   0  0  0  0  0  0  0  0  0  0  0  0
   -7.5811   17.1400  -33.6560 H   0  0  0  0  0  0  0  0  0  0  0  0
   -8.4287   19.1646  -31.3750 H   0  0  0  0  0  0  0  0  0  0  0  0
   -9.0433   19.9131  -32.8878 H   0  0  0  0  0  0  0  0  0  0  0  0
   -8.5057   18.1991  -32.8878 H   0  0  0  0  0  0  0  0  0  0  0  0
   -8.4730   21.7841  -32.1719 H   0  0  0  0  0  0  0  0  0  0  0  0
   -7.6109   24.0164  -31.5125 H   0  0  0  0  0  0  0  0  0  0  0  0
   -4.3587   25.9729  -29.8602 H   0  0  0  0  0  0  0  0  0  0  0  0
   -6.1445   25.8480  -30.1025 H   0  0  0  0  0  0  0  0  0  0  0  0
   -5.9670   24.5833  -28.1991 H   0  0  0  0  0  0  0  0  0  0  0  0
   -5.6096   23.2989  -29.4812 H   0  0  0  0  0  0  0  0  0  0  0  0
   -3.9957   23.7866  -26.1735 H   0  0  0  0  0  0  0  0  0  0  0  0
   -2.9074   25.0237  -26.8889 H   0  0  0  0  0  0  0  0  0  0  0  0
   -4.6848   25.2833  -26.8889 H   0  0  0  0  0  0  0  0  0  0  0  0
   -3.2063   24.3599  -30.2156 H   0  0  0  0  0  0  0  0  0  0  0  0
   -2.6287   25.3868  -28.8214 H   0  0  0  0  0  0  0  0  0  0  0  0
   -0.8071   23.9937  -29.6994 H   0  0  0  0  0  0  0  0  0  0  0  0
   -1.2574   23.5260  -28.0131 H   0  0  0  0  0  0  0  0  0  0  0  0
   -1.6056   22.0160  -30.5993 H   0  0  0  0  0  0  0  0  0  0  0  0
   -1.1679   21.4333  -28.9339 H   0  0  0  0  0  0  0  0  0  0  0  0
   -3.8767   21.8550  -30.1805 H   0  0  0  0  0  0  0  0  0  0  0  0
   -3.2823   20.5543  -29.0800 H   0  0  0  0  0  0  0  0  0  0  0  0
   -4.8858   21.9680  -27.8948 H   0  0  0  0  0  0  0  0  0  0  0  0
   -3.2079   22.2070  -27.2266 H   0  0  0  0  0  0  0  0  0  0  0  0
   -3.5708   22.6903  -32.2239 H   0  0  0  0  0  0  0  0  0  0  0  0
  1  2  1  0
  2  3  1  0
  2  4  1  0
  4  5  1  0
  5  6  1  0
  6  7  1  0
  7  8  2  0
  8  9  1  0
  9 10  2  0
 10 11  1  0
 11 12  2  0
 12 13  1  0
 13 14  2  0
 14 15  1  0
 14 16  1  0
 16 17  2  0
 17 18  1  0
 18 19  2  0
 19 20  1  0
 20 21  1  0
 21 22  1  0
 22 23  1  0
 23 24  1  0
 23 25  1  0
 25 26  1  0
 26 27  1  0
 27 28  1  0
 28 29  1  0
 19 30  1  0
 30 31  2  0
 31  7  1  0
 13  8  1  0
 31 16  1  0
 29 23  1  0
  1 32  1  0
  1 33  1  0
  1 34  1  0
  3 35  1  0
  3 36  1  0
  3 37  1  0
  4 38  1  0
  4 39  1  0
  5 40  1  0
  5 41  1  0
  6 42  1  0
  9 43  1  0
 10 44  1  0
 11 45  1  0
 12 46  1  0
 15 47  1  0
 15 48  1  0
 15 49  1  0
 17 50  1  0
 18 51  1  0
 21 52  1  0
 21 53  1  0
 22 54  1  0
 22 55  1  0
 24 56  1  0
 24 57  1  0
 24 58  1  0
 25 59  1  0
 25 60  1  0
 26 61  1  0
 26 62  1  0
 27 63  1  0
 27 64  1  0
 28 65  1  0
 28 66  1  0
 29 67  1  0
 29 68  1  0
 30 69  1  0
M  CHG  2  14   1  23   1
M  END
>  <UniqueID>  (21) 
21

>  <SMILES>  (21) 
CN(C)CCNc1c2ccccc2[n+](C)c2ccc(OCC[N+]3(C)CCCCC3)cc12

>  <Energy>  (21) 
119.1700339464797

>  <Genealogy>  (21) 
CN(C)CCNc1c2ccccc2[n+](C)c2ccc(OCC[N+]3(C)CCCCC3)cc12 (3D coordinates assigned)
CN(C)CCNc1c2ccccc2[n+](C)c2ccc(OCC[N+]3(C)CCCCC3)cc12 (nonaromatic ring conformer: 119.1700339464797 kcal/mol)

>  <smiles>  (21) 
CN(C)CCNc1c2ccccc2[n+](C)c2ccc(OCC[N+]3(C)CCCCC3)cc12

>  <score_type>  (21) 
oracle

>  <origin>  (21) 
adg

>  <m_score__min__energy>  (21) 
-8.0800000000000001

>  <m_primary>  (21) 
energy

$$$$
21:0
     RDKit          3D

 49 51  0  0  0  0  0  0  0  0999 V2000
   -9.5140   21.7490  -31.9930 C   0  0  0  0  0  0  0  0  0  0  0  0
   -8.8060   20.4900  -31.5060 C   0  0  0  0  0  0  0  0  0  0  0  0
   -9.1090   19.3490  -32.3820 N   0  0  0  0  0  0  0  0  0  0  0  0
   -8.3100   18.1650  -32.0240 C   0  0  0  0  0  0  0  0  0  0  0  0
   -7.2600   17.8570  -33.1080 C   0  0  0  0  0  0  0  0  0  0  0  0
   -6.8050   19.0480  -33.8520 N   0  0  0  0  0  0  0  0  0  0  0  0
   -5.4320   19.4100  -33.5450 C   0  0  0  0  0  0  0  0  0  0  0  0
   -5.0630   20.5970  -32.8420 C   0  0  0  0  0  0  0  0  0  0  0  0
   -6.0220   21.5450  -32.4160 C   0  0  0  0  0  0  0  0  0  0  0  0
   -5.6430   22.7350  -31.7750 C   0  0  0  0  0  0  0  0  0  0  0  0
   -6.5860   23.6820  -31.3380 O   0  0  0  0  0  0  0  0  0  0  0  0
   -7.2360   23.6590  -30.0710 C   0  0  0  0  0  0  0  0  0  0  0  0
   -4.2940   23.0060  -31.5560 C   0  0  0  0  0  0  0  0  0  0  0  0
   -3.9550   24.2190  -30.9350 O   0  0  0  0  0  0  0  0  0  0  0  0
   -4.0880   24.4860  -29.5430 C   0  0  0  0  0  0  0  0  0  0  0  0
   -3.3230   22.0740  -31.9530 C   0  0  0  0  0  0  0  0  0  0  0  0
   -3.6770   20.8460  -32.5640 C   0  0  0  0  0  0  0  0  0  0  0  0
   -2.7090   19.9100  -32.9000 N   0  0  0  0  0  0  0  0  0  0  0  0
   -1.3090   20.0640  -32.4510 C   0  0  0  0  0  0  0  0  0  0  0  0
   -3.0670   18.8260  -33.6620 C   0  0  0  0  0  0  0  0  0  0  0  0
   -2.1890   17.8750  -34.2280 C   0  0  0  0  0  0  0  0  0  0  0  0
   -2.8410   16.8780  -34.9440 C   0  0  0  0  0  0  0  0  0  0  0  0
   -4.4950   17.1750  -34.8960 S   0  0  0  0  0  0  0  0  0  0  0  0
   -4.3930   18.5740  -33.9640 C   0  0  0  0  0  0  0  0  0  0  0  0
   -9.8467   22.3407  -31.1274 H   0  0  0  0  0  0  0  0  0  0  0  0
   -8.8203   22.3477  -32.6015 H   0  0  0  0  0  0  0  0  0  0  0  0
  -10.3860   21.4672  -32.6015 H   0  0  0  0  0  0  0  0  0  0  0  0
   -7.7200   20.6648  -31.5041 H   0  0  0  0  0  0  0  0  0  0  0  0
   -9.1582   20.2579  -30.4901 H   0  0  0  0  0  0  0  0  0  0  0  0
   -8.8440   19.6260  -33.3570 H   0  0  0  0  0  0  0  0  0  0  0  0
   -7.7966   18.3531  -31.0695 H   0  0  0  0  0  0  0  0  0  0  0  0
   -8.9852   17.3011  -31.9358 H   0  0  0  0  0  0  0  0  0  0  0  0
   -6.3865   17.3959  -32.6238 H   0  0  0  0  0  0  0  0  0  0  0  0
   -7.7393   17.1874  -33.8373 H   0  0  0  0  0  0  0  0  0  0  0  0
   -7.4830   19.8290  -33.7300 H   0  0  0  0  0  0  0  0  0  0  0  0
   -6.8660   18.8250  -34.8720 H   0  0  0  0  0  0  0  0  0  0  0  0
   -7.0895   21.3453  -32.5909 H   0  0  0  0  0  0  0  0  0  0  0  0
   -6.4813   23.6857  -29.2712 H   0  0  0  0  0  0  0  0  0  0  0  0
   -7.8961   24.5344  -29.9816 H   0  0  0  0  0  0  0  0  0  0  0  0
   -7.8326   22.7392  -29.9816 H   0  0  0  0  0  0  0  0  0  0  0  0
   -3.6701   23.6471  -28.9672 H   0  0  0  0  0  0  0  0  0  0  0  0
   -3.5444   25.4091  -29.2931 H   0  0  0  0  0  0  0  0  0  0  0  0
   -5.1523   24.6082  -29.2931 H   0  0  0  0  0  0  0  0  0  0  0  0
   -2.2602   22.3027  -31.7855 H   0  0  0  0  0  0  0  0  0  0  0  0
   -1.2749   20.0678  -31.3515 H   0  0  0  0  0  0  0  0  0  0  0  0
   -0.7070   19.2267  -32.8337 H   0  0  0  0  0  0  0  0  0  0  0  0
   -0.9034   21.0122  -32.8337 H   0  0  0  0  0  0  0  0  0  0  0  0
   -1.0959   17.9192  -34.1132 H   0  0  0  0  0  0  0  0  0  0  0  0
   -2.3554   16.0347  -35.4569 H   0  0  0  0  0  0  0  0  0  0  0  0
  1  2  1  0
  2  3  1  0
  3  4  1  0
  4  5  1  0
  5  6  1  0
  6  7  1  0
  7  8  2  0
  8  9  1  0
  9 10  2  0
 10 11  1  0
 11 12  1  0
 10 13  1  0
 13 14  1  0
 14 15  1  0
 13 16  2  0
 16 17  1  0
 17 18  2  0
 18 19  1  0
 18 20  1  0
 20 21  1  0
 21 22  2  0
 22 23  1  0
 23 24  1  0
 24  7  1  0
 17  8  1  0
 24 20  2  0
  1 25  1  0
  1 26  1  0
  1 27  1  0
  2 28  1  0
  2 29  1  0
  3 30  1  0
  4 31  1  0
  4 32  1  0
  5 33  1  0
  5 34  1  0
  6 35  1  0
  6 36  1  0
  9 37  1  0
 12 38  1  0
 12 39  1  0
 12 40  1  0
 15 41  1  0
 15 42  1  0
 15 43  1  0
 16 44  1  0
 19 45  1  0
 19 46  1  0
 19 47  1  0
 21 48  1  0
 22 49  1  0
M  CHG  2   6   1  18   1
M  END
>  <UniqueID>  (22) 
22

>  <SMILES>  (22) 
CCNCC[NH2+]c1c2cc(OC)c(OC)cc2[n+](C)c2ccsc12

>  <Energy>  (22) 
92.41209957627443

>  <Genealogy>  (22) 
CCNCC[NH2+]c1c2cc(OC)c(OC)cc2[n+](C)c2ccsc12 (protonated)
CCNCC[NH2+]c1c2cc(OC)c(OC)cc2[n+](C)c2ccsc12 (3D coordinates assigned)
CCNCC[NH2+]c1c2cc(OC)c(OC)cc2[n+](C)c2ccsc12 (optimized conformer: 92.41209957627443 kcal/mol)

>  <smiles>  (22) 
CCNCCNc1c2cc(OC)c(OC)cc2[n+](C)c2ccsc12

>  <score_type>  (22) 
oracle

>  <origin>  (22) 
adg

>  <m_score__min__energy>  (22) 
-7.0300000000000002

>  <m_primary>  (22) 
energy

$$$$
22:0
     RDKit          3D

 41 43  0  0  0  0  0  0  0  0999 V2000
   -1.2670   21.4020  -32.6140 C   0  0  0  0  0  0  0  0  0  0  0  0
   -2.2360   21.1800  -33.7060 N   0  0  0  0  0  0  0  0  0  0  0  0
   -2.5190   19.7380  -33.8290 C   0  0  0  0  0  0  0  0  0  0  0  0
   -3.4950   21.9260  -33.4690 C   0  0  0  0  0  0  0  0  0  0  0  0
   -4.2560   21.4140  -32.2170 C   0  0  0  0  0  0  0  0  0  0  0  0
   -5.6820   21.8250  -32.2100 N   0  0  0  0  0  0  0  0  0  0  0  0
   -6.7160   20.9230  -32.4240 C   0  0  0  0  0  0  0  0  0  0  0  0
   -8.0270   21.2570  -32.0080 C   0  0  0  0  0  0  0  0  0  0  0  0
   -8.3100   22.5580  -31.5980 C   0  0  0  0  0  0  0  0  0  0  0  0
   -7.2860   23.4880  -31.5090 C   0  0  0  0  0  0  0  0  0  0  0  0
   -5.9730   23.1010  -31.7720 C   0  0  0  0  0  0  0  0  0  0  0  0
   -5.0520   23.9410  -31.5710 O   0  0  0  0  0  0  0  0  0  0  0  0
   -9.1160   20.2100  -31.9950 C   0  0  0  0  0  0  0  0  0  0  0  0
   -8.5280   18.8360  -31.6400 C   0  0  0  0  0  0  0  0  0  0  0  0
   -7.3970   18.5140  -32.5810 C   0  0  0  0  0  0  0  0  0  0  0  0
   -7.2420   17.2150  -33.0900 C   0  0  0  0  0  0  0  0  0  0  0  0
   -6.2930   16.9610  -34.0810 C   0  0  0  0  0  0  0  0  0  0  0  0
   -5.5250   18.0070  -34.5920 C   0  0  0  0  0  0  0  0  0  0  0  0
   -5.6590   19.2980  -34.0740 C   0  0  0  0  0  0  0  0  0  0  0  0
   -6.5300   19.5500  -32.9990 C   0  0  0  0  0  0  0  0  0  0  0  0
   -1.7739   21.2859  -31.6447 H   0  0  0  0  0  0  0  0  0  0  0  0
   -0.4521   20.6673  -32.6919 H   0  0  0  0  0  0  0  0  0  0  0  0
   -0.8532   22.4182  -32.6919 H   0  0  0  0  0  0  0  0  0  0  0  0
   -1.8060   21.4960  -34.6080 H   0  0  0  0  0  0  0  0  0  0  0  0
   -2.6060   19.2946  -32.8261 H   0  0  0  0  0  0  0  0  0  0  0  0
   -3.4624   19.5949  -34.3763 H   0  0  0  0  0  0  0  0  0  0  0  0
   -1.6997   19.2489  -34.3763 H   0  0  0  0  0  0  0  0  0  0  0  0
   -3.2544   22.9898  -33.3262 H   0  0  0  0  0  0  0  0  0  0  0  0
   -4.1453   21.7751  -34.3433 H   0  0  0  0  0  0  0  0  0  0  0  0
   -4.2056   20.3153  -32.1986 H   0  0  0  0  0  0  0  0  0  0  0  0
   -3.7768   21.8562  -31.3311 H   0  0  0  0  0  0  0  0  0  0  0  0
   -9.3413   22.8459  -31.3461 H   0  0  0  0  0  0  0  0  0  0  0  0
   -7.5090   24.5288  -31.2315 H   0  0  0  0  0  0  0  0  0  0  0  0
   -9.8748   20.4845  -31.2474 H   0  0  0  0  0  0  0  0  0  0  0  0
   -9.5741   20.1568  -32.9937 H   0  0  0  0  0  0  0  0  0  0  0  0
   -8.1510   18.8547  -30.6068 H   0  0  0  0  0  0  0  0  0  0  0  0
   -9.3104   18.0682  -31.7318 H   0  0  0  0  0  0  0  0  0  0  0  0
   -7.8693   16.3965  -32.7073 H   0  0  0  0  0  0  0  0  0  0  0  0
   -6.1509   15.9376  -34.4585 H   0  0  0  0  0  0  0  0  0  0  0  0
   -4.8107   17.8150  -35.4062 H   0  0  0  0  0  0  0  0  0  0  0  0
   -5.0784   20.1239  -34.5107 H   0  0  0  0  0  0  0  0  0  0  0  0
  1  2  1  0
  2  3  1  0
  2  4  1  0
  4  5  1  0
  5  6  1  0
  6  7  1  0
  7  8  2  0
  8  9  1  0
  9 10  2  0
 10 11  1  0
 11 12  2  0
  8 13  1  0
 13 14  1  0
 14 15  1  0
 15 16  2  0
 16 17  1  0
 17 18  2  0
 18 19  1  0
 19 20  2  0
 11  6  1  0
 20 15  1  0
 20  7  1  0
  1 21  1  0
  1 22  1  0
  1 23  1  0
  2 24  1  0
  3 25  1  0
  3 26  1  0
  3 27  1  0
  4 28  1  0
  4 29  1  0
  5 30  1  0
  5 31  1  0
  9 32  1  0
 10 33  1  0
 13 34  1  0
 13 35  1  0
 14 36  1  0
 14 37  1  0
 16 38  1  0
 17 39  1  0
 18 40  1  0
 19 41  1  0
M  CHG  1   2   1
M  END
>  <UniqueID>  (23) 
23

>  <SMILES>  (23) 
C[NH+](C)CCn1c2c(ccc1=O)CCc1ccccc1-2

>  <Energy>  (23) 
63.489506184570935

>  <Genealogy>  (23) 
C[NH+](C)CCn1c2c(ccc1=O)CCc1ccccc1-2 (protonated)
C[NH+](C)CCn1c2c(ccc1=O)CCc1ccccc1-2 (3D coordinates assigned)
C[NH+](C)CCn1c2c(ccc1=O)CCc1ccccc1-2 (nonaromatic ring conformer: 63.489506184570935 kcal/mol)

>  <smiles>  (23) 
CN(C)CCn1c2c(ccc1=O)CCc1ccccc1-2

>  <score_type>  (23) 
oracle

>  <origin>  (23) 
adg

>  <m_score__min__energy>  (23) 
-8.0899999999999999

>  <m_primary>  (23) 
energy

$$$$
23:0
     RDKit          3D

 54 56  0  0  0  0  0  0  0  0999 V2000
    1.3590   20.8840  -34.5420 C   0  0  0  0  0  0  0  0  0  0  0  0
    0.0360   21.5910  -34.8620 C   0  0  0  0  0  0  0  0  0  0  0  0
   -1.1440   20.8620  -34.3080 N   0  0  0  0  0  0  0  0  0  0  0  0
   -1.0960   19.3990  -34.5630 C   0  0  0  0  0  0  0  0  0  0  0  0
   -0.9580   18.5790  -33.2780 C   0  0  0  0  0  0  0  0  0  0  0  0
   -1.3270   21.1360  -32.8580 C   0  0  0  0  0  0  0  0  0  0  0  0
   -2.7190   21.7060  -32.4870 C   0  0  0  0  0  0  0  0  0  0  0  0
   -3.7350   21.3170  -33.4680 N   0  0  0  0  0  0  0  0  0  0  0  0
   -4.9990   20.7550  -33.0690 C   0  0  0  0  0  0  0  0  0  0  0  0
   -6.0070   21.5880  -32.5510 C   0  0  0  0  0  0  0  0  0  0  0  0
   -5.7760   22.9660  -32.3530 C   0  0  0  0  0  0  0  0  0  0  0  0
   -6.8020   23.8080  -31.9320 C   0  0  0  0  0  0  0  0  0  0  0  0
   -8.0770   23.2960  -31.7160 C   0  0  0  0  0  0  0  0  0  0  0  0
   -8.3230   21.9330  -31.8800 C   0  0  0  0  0  0  0  0  0  0  0  0
   -7.2860   21.0400  -32.2550 C   0  0  0  0  0  0  0  0  0  0  0  0
   -7.5020   19.6780  -32.3570 N   0  0  0  0  0  0  0  0  0  0  0  0
   -8.7270   19.0780  -31.7800 C   0  0  0  0  0  0  0  0  0  0  0  0
   -6.5550   18.8700  -32.9580 C   0  0  0  0  0  0  0  0  0  0  0  0
   -6.8310   17.5200  -33.2910 C   0  0  0  0  0  0  0  0  0  0  0  0
   -5.8440   16.6900  -33.8280 C   0  0  0  0  0  0  0  0  0  0  0  0
   -6.2180   14.9800  -34.2180 S   0  0  0  0  0  0  0  0  0  0  0  0
   -4.9860   14.3180  -33.0550 C   0  0  0  0  0  0  0  0  0  0  0  0
   -4.5620   17.1850  -34.0430 C   0  0  0  0  0  0  0  0  0  0  0  0
   -4.2750   18.5190  -33.7690 C   0  0  0  0  0  0  0  0  0  0  0  0
   -5.2690   19.3870  -33.2720 C   0  0  0  0  0  0  0  0  0  0  0  0
    1.4844   20.8170  -33.4512 H   0  0  0  0  0  0  0  0  0  0  0  0
    1.3474   19.8719  -34.9726 H   0  0  0  0  0  0  0  0  0  0  0  0
    2.1940   21.4561  -34.9726 H   0  0  0  0  0  0  0  0  0  0  0  0
    0.0618   22.6024  -34.4302 H   0  0  0  0  0  0  0  0  0  0  0  0
   -0.0720   21.6243  -35.9562 H   0  0  0  0  0  0  0  0  0  0  0  0
   -2.0200   21.2220  -34.7630 H   0  0  0  0  0  0  0  0  0  0  0  0
   -2.0237   19.1002  -35.0731 H   0  0  0  0  0  0  0  0  0  0  0  0
   -0.2087   19.1988  -35.1815 H   0  0  0  0  0  0  0  0  0  0  0  0
   -1.0694   19.2412  -32.4067 H   0  0  0  0  0  0  0  0  0  0  0  0
   -1.7384   17.8042  -33.2519 H   0  0  0  0  0  0  0  0  0  0  0  0
    0.0330   18.1023  -33.2519 H   0  0  0  0  0  0  0  0  0  0  0  0
   -1.1830   20.1939  -32.3086 H   0  0  0  0  0  0  0  0  0  0  0  0
   -0.5894   21.9059  -32.5876 H   0  0  0  0  0  0  0  0  0  0  0  0
   -3.0108   21.3223  -31.4983 H   0  0  0  0  0  0  0  0  0  0  0  0
   -2.6515   22.8039  -32.4755 H   0  0  0  0  0  0  0  0  0  0  0  0
   -3.4890   21.3430  -34.4840 H   0  0  0  0  0  0  0  0  0  0  0  0
   -4.7730   23.3801  -32.5335 H   0  0  0  0  0  0  0  0  0  0  0  0
   -6.6042   24.8779  -31.7703 H   0  0  0  0  0  0  0  0  0  0  0  0
   -8.8940   23.9682  -31.4149 H   0  0  0  0  0  0  0  0  0  0  0  0
   -9.3385   21.5435  -31.7158 H   0  0  0  0  0  0  0  0  0  0  0  0
   -8.6674   19.1072  -30.6820 H   0  0  0  0  0  0  0  0  0  0  0  0
   -9.6068   19.6472  -32.1147 H   0  0  0  0  0  0  0  0  0  0  0  0
   -8.8166   18.0340  -32.1147 H   0  0  0  0  0  0  0  0  0  0  0  0
   -7.8413   17.1185  -33.1234 H   0  0  0  0  0  0  0  0  0  0  0  0
   -5.3218   14.4984  -32.0232 H   0  0  0  0  0  0  0  0  0  0  0  0
   -4.8707   13.2365  -33.2193 H   0  0  0  0  0  0  0  0  0  0  0  0
   -4.0205   14.8188  -33.2193 H   0  0  0  0  0  0  0  0  0  0  0  0
   -3.7744   16.5216  -34.4299 H   0  0  0  0  0  0  0  0  0  0  0  0
   -3.2584   18.9017  -33.9426 H   0  0  0  0  0  0  0  0  0  0  0  0
  1  2  1  0
  2  3  1  0
  3  4  1  0
  4  5  1  0
  3  6  1  0
  6  7  1  0
  7  8  1  0
  8  9  1  0
  9 10  2  0
 10 11  1  0
 11 12  2  0
 12 13  1  0
 13 14  2  0
 14 15  1  0
 15 16  2  0
 16 17  1  0
 16 18  1  0
 18 19  2  0
 19 20  1  0
 20 21  1  0
 21 22  1  0
 20 23  2  0
 23 24  1  0
 24 25  2  0
 25  9  1  0
 15 10  1  0
 25 18  1  0
  1 26  1  0
  1 27  1  0
  1 28  1  0
  2 29  1  0
  2 30  1  0
  3 31  1  0
  4 32  1  0
  4 33  1  0
  5 34  1  0
  5 35  1  0
  5 36  1  0
  6 37  1  0
  6 38  1  0
  7 39  1  0
  7 40  1  0
  8 41  1  0
 11 42  1  0
 12 43  1  0
 13 44  1  0
 14 45  1  0
 17 46  1  0
 17 47  1  0
 17 48  1  0
 19 49  1  0
 22 50  1  0
 22 51  1  0
 22 52  1  0
 23 53  1  0
 24 54  1  0
M  CHG  2   3   1  16   1
M  END
>  <UniqueID>  (24) 
24

>  <SMILES>  (24) 
CC[NH+](CC)CCNc1c2ccccc2[n+](C)c2cc(SC)ccc12

>  <Energy>  (24) 
81.76167211025839

>  <Genealogy>  (24) 
CC[NH+](CC)CCNc1c2ccccc2[n+](C)c2cc(SC)ccc12 (protonated)
CC[NH+](CC)CCNc1c2ccccc2[n+](C)c2cc(SC)ccc12 (3D coordinates assigned)
CC[NH+](CC)CCNc1c2ccccc2[n+](C)c2cc(SC)ccc12 (optimized conformer: 81.76167211025839 kcal/mol)

>  <smiles>  (24) 
CCN(CC)CCNc1c2ccccc2[n+](C)c2cc(SC)ccc12

>  <score_type>  (24) 
oracle

>  <origin>  (24) 
adg

>  <m_score__min__energy>  (24) 
-7.2400000000000002

>  <m_primary>  (24) 
energy

$$$$
24:0
     RDKit          3D

 31 34  0  0  0  0  0  0  0  0999 V2000
   -6.4570   20.4080  -33.2800 C   0  0  0  0  0  0  0  0  0  0  0  0
   -6.3970   21.6460  -32.4300 C   0  0  0  0  0  0  0  0  0  0  0  0
   -7.5350   22.4600  -32.2900 C   0  0  0  0  0  0  0  0  0  0  0  0
   -7.4940   23.6150  -31.5010 C   0  0  0  0  0  0  0  0  0  0  0  0
   -6.3190   23.9780  -30.8390 C   0  0  0  0  0  0  0  0  0  0  0  0
   -5.1760   23.1810  -30.9670 C   0  0  0  0  0  0  0  0  0  0  0  0
   -5.2060   22.0040  -31.7660 C   0  0  0  0  0  0  0  0  0  0  0  0
   -4.0790   21.2290  -31.8830 N   0  0  0  0  0  0  0  0  0  0  0  0
   -2.9080   21.5460  -31.2550 C   0  0  0  0  0  0  0  0  0  0  0  0
   -2.8750   22.6950  -30.4730 C   0  0  0  0  0  0  0  0  0  0  0  0
   -1.8440   23.1900  -29.7740 N   0  0  0  0  0  0  0  0  0  0  0  0
   -2.3820   24.3070  -29.2170 C   0  0  0  0  0  0  0  0  0  0  0  0
   -1.6170   25.2040  -28.3440 C   0  0  0  0  0  0  0  0  0  0  0  0
   -1.3370   24.9140  -27.1220 N   0  0  0  0  0  0  0  0  0  0  0  0
   -0.5710   26.0010  -26.5230 C   0  0  0  0  0  0  0  0  0  0  0  0
   -0.4260   27.0510  -27.6370 C   0  0  0  0  0  0  0  0  0  0  0  0
   -1.1230   26.4610  -28.7610 N   0  0  0  0  0  0  0  0  0  0  0  0
   -3.6860   24.5260  -29.5350 N   0  0  0  0  0  0  0  0  0  0  0  0
   -3.9690   23.4850  -30.3340 C   0  0  0  0  0  0  0  0  0  0  0  0
   -6.5000   19.5201  -32.6321 H   0  0  0  0  0  0  0  0  0  0  0  0
   -7.3545   20.4424  -33.9150 H   0  0  0  0  0  0  0  0  0  0  0  0
   -5.5603   20.3554  -33.9150 H   0  0  0  0  0  0  0  0  0  0  0  0
   -8.4670   22.1861  -32.8060 H   0  0  0  0  0  0  0  0  0  0  0  0
   -8.3930   24.2410  -31.4015 H   0  0  0  0  0  0  0  0  0  0  0  0
   -6.2922   24.8866  -30.2196 H   0  0  0  0  0  0  0  0  0  0  0  0
   -2.0169   20.9105  -31.3649 H   0  0  0  0  0  0  0  0  0  0  0  0
   -1.1092   26.4237  -25.6618 H   0  0  0  0  0  0  0  0  0  0  0  0
    0.4056   25.6595  -26.1492 H   0  0  0  0  0  0  0  0  0  0  0  0
   -0.8929   28.0023  -27.3420 H   0  0  0  0  0  0  0  0  0  0  0  0
    0.6239   27.2877  -27.8643 H   0  0  0  0  0  0  0  0  0  0  0  0
   -1.2350   26.8890  -29.7080 H   0  0  0  0  0  0  0  0  0  0  0  0
  1  2  1  0
  2  3  2  0
  3  4  1  0
  4  5  2  0
  5  6  1  0
  6  7  2  0
  7  8  1  0
  8  9  2  0
  9 10  1  0
 10 11  1  0
 11 12  1  0
 12 13  1  0
 13 14  2  0
 14 15  1  0
 15 16  1  0
 16 17  1  0
 12 18  2  0
 18 19  1  0
  7  2  1  0
 19 10  2  0
 19  6  1  0
 17 13  1  0
  1 20  1  0
  1 21  1  0
  1 22  1  0
  3 23  1  0
  4 24  1  0
  5 25  1  0
  9 26  1  0
 15 27  1  0
 15 28  1  0
 16 29  1  0
 16 30  1  0
 17 31  1  0
M  CHG  1  11  -1
M  END
>  <UniqueID>  (25) 
25

>  <SMILES>  (25) 
Cc1cccc2c1ncc1[n-]c(C3=NCCN3)nc12

>  <Energy>  (25) 
84.18111252759593

>  <Genealogy>  (25) 
Cc1cccc2c1ncc1[n-]c(C3=NCCN3)nc12 (protonated)
Cc1cccc2c1ncc1[n-]c(C3=NCCN3)nc12 (3D coordinates assigned)
Cc1cccc2c1ncc1[n-]c(C3=NCCN3)nc12 (nonaromatic ring conformer: 84.18111252759593 kcal/mol)

>  <smiles>  (25) 
Cc1cccc2c1ncc1[nH]c(C3=NCCN3)nc12

>  <score_type>  (25) 
oracle

>  <origin>  (25) 
adg

>  <m_score__min__energy>  (25) 
-7.9800000000000004

>  <m_primary>  (25) 
energy

$$$$
25:0
     RDKit          3D

 39 41  0  0  0  0  0  0  0  0999 V2000
   -8.2410   18.6780  -32.3360 C   0  0  0  0  0  0  0  0  0  0  0  0
   -6.7740   18.4280  -32.6710 C   0  0  0  0  0  0  0  0  0  0  0  0
   -6.2870   19.3740  -33.7750 C   0  0  0  0  0  0  0  0  0  0  0  0
   -5.3310   20.3550  -33.2300 N   0  0  0  0  0  0  0  0  0  0  0  0
   -3.9950   20.1460  -33.4570 C   0  0  0  0  0  0  0  0  0  0  0  0
   -3.0160   21.0360  -32.9700 C   0  0  0  0  0  0  0  0  0  0  0  0
   -1.5700   20.8170  -33.2260 C   0  0  0  0  0  0  0  0  0  0  0  0
   -0.6960   20.5860  -32.1470 C   0  0  0  0  0  0  0  0  0  0  0  0
    0.6670   20.3700  -32.3720 C   0  0  0  0  0  0  0  0  0  0  0  0
    1.1730   20.3740  -33.6720 C   0  0  0  0  0  0  0  0  0  0  0  0
    0.3150   20.5890  -34.7540 C   0  0  0  0  0  0  0  0  0  0  0  0
   -1.0490   20.8070  -34.5360 C   0  0  0  0  0  0  0  0  0  0  0  0
   -3.4020   22.1310  -32.2650 N   0  0  0  0  0  0  0  0  0  0  0  0
   -4.7060   22.3760  -31.9970 C   0  0  0  0  0  0  0  0  0  0  0  0
   -5.1090   23.4860  -31.2610 C   0  0  0  0  0  0  0  0  0  0  0  0
   -4.2400   24.3090  -30.8610 O   0  0  0  0  0  0  0  0  0  0  0  0
   -6.4370   23.6760  -30.9780 N   0  0  0  0  0  0  0  0  0  0  0  0
   -6.8590   24.8680  -30.2200 C   0  0  0  0  0  0  0  0  0  0  0  0
   -7.3870   22.8000  -31.4540 C   0  0  0  0  0  0  0  0  0  0  0  0
   -8.6110   23.0040  -31.2240 O   0  0  0  0  0  0  0  0  0  0  0  0
   -7.0330   21.7020  -32.1810 N   0  0  0  0  0  0  0  0  0  0  0  0
   -5.7290   21.4420  -32.4850 C   0  0  0  0  0  0  0  0  0  0  0  0
   -8.3691   18.6998  -31.2437 H   0  0  0  0  0  0  0  0  0  0  0  0
   -8.5550   19.6426  -32.7614 H   0  0  0  0  0  0  0  0  0  0  0  0
   -8.8568   17.8718  -32.7614 H   0  0  0  0  0  0  0  0  0  0  0  0
   -6.1674   18.5889  -31.7676 H   0  0  0  0  0  0  0  0  0  0  0  0
   -6.6706   17.3931  -33.0292 H   0  0  0  0  0  0  0  0  0  0  0  0
   -5.7932   18.7867  -34.5631 H   0  0  0  0  0  0  0  0  0  0  0  0
   -7.1521   19.9126  -34.1891 H   0  0  0  0  0  0  0  0  0  0  0  0
   -3.6797   19.2632  -34.0326 H   0  0  0  0  0  0  0  0  0  0  0  0
   -1.0882   20.5753  -31.1193 H   0  0  0  0  0  0  0  0  0  0  0  0
    1.3424   20.1964  -31.5213 H   0  0  0  0  0  0  0  0  0  0  0  0
    2.2465   20.2081  -33.8453 H   0  0  0  0  0  0  0  0  0  0  0  0
    0.7134   20.5867  -35.7793 H   0  0  0  0  0  0  0  0  0  0  0  0
   -1.7197   20.9717  -35.3921 H   0  0  0  0  0  0  0  0  0  0  0  0
   -6.7860   24.6618  -29.1420 H   0  0  0  0  0  0  0  0  0  0  0  0
   -6.2063   25.7155  -30.4762 H   0  0  0  0  0  0  0  0  0  0  0  0
   -7.8996   25.1160  -30.4762 H   0  0  0  0  0  0  0  0  0  0  0  0
   -7.8000   21.0680  -32.4920 H   0  0  0  0  0  0  0  0  0  0  0  0
  1  2  1  0
  2  3  1  0
  3  4  1  0
  4  5  1  0
  5  6  2  0
  6  7  1  0
  7  8  2  0
  8  9  1  0
  9 10  2  0
 10 11  1  0
 11 12  2  0
  6 13  1  0
 13 14  2  0
 14 15  1  0
 15 16  2  0
 15 17  1  0
 17 18  1  0
 17 19  1  0
 19 20  2  0
 19 21  1  0
 21 22  2  0
 22  4  1  0
 12  7  1  0
 22 14  1  0
  1 23  1  0
  1 24  1  0
  1 25  1  0
  2 26  1  0
  2 27  1  0
  3 28  1  0
  3 29  1  0
  5 30  1  0
  8 31  1  0
  9 32  1  0
 10 33  1  0
 11 34  1  0
 12 35  1  0
 18 36  1  0
 18 37  1  0
 18 38  1  0
 21 39  1  0
M  CHG  1  21   1
M  END
>  <UniqueID>  (26) 
26

>  <SMILES>  (26) 
CCCn1cc(-c2ccccc2)nc2c(=O)n(C)c(=O)[nH+]c1-2

>  <Energy>  (26) 
51.17809194537047

>  <Genealogy>  (26) 
CCCn1cc(-c2ccccc2)nc2c(=O)n(C)c(=O)[nH+]c1-2 (protonated)
CCCn1cc(-c2ccccc2)nc2c(=O)n(C)c(=O)[nH+]c1-2 (3D coordinates assigned)
CCCn1cc(-c2ccccc2)nc2c(=O)n(C)c(=O)[nH+]c1-2 (optimized conformer: 51.17809194537047 kcal/mol)

>  <smiles>  (26) 
CCCn1cc(-c2ccccc2)nc2c(=O)n(C)c(=O)nc1-2

>  <score_type>  (26) 
oracle

>  <origin>  (26) 
adg

>  <m_score__min__energy>  (26) 
-6.6600000000000001

>  <m_primary>  (26) 
energy

$$$$
