0:0
     RDKit          3D

 39 41  0  0  0  0  0  0  0  0999 V2000
   -3.3300   24.5480  -29.3820 C   0  0  0  0  0  0  0  0  0  0  0  0
   -3.8620   25.2920  -30.4580 O   0  0  0  0  0  0  0  0  0  0  0  0
   -5.1450   24.8060  -30.8000 C   0  0  0  0  0  0  0  0  0  0  0  0
   -5.0500   23.4080  -31.3390 C   0  0  0  0  0  0  0  0  0  0  0  0
   -6.1730   22.5760  -31.3660 C   0  0  0  0  0  0  0  0  0  0  0  0
   -6.0360   21.2680  -31.8570 C   0  0  0  0  0  0  0  0  0  0  0  0
   -7.1580   20.3600  -31.9200 N   0  0  0  0  0  0  0  0  0  0  0  0
   -8.5210   20.9080  -31.9530 C   0  0  0  0  0  0  0  0  0  0  0  0
   -9.4750   19.9230  -32.6330 C   0  0  0  0  0  0  0  0  0  0  0  0
   -9.3650   18.6390  -32.0550 O   0  0  0  0  0  0  0  0  0  0  0  0
   -8.0820   18.1100  -32.3230 C   0  0  0  0  0  0  0  0  0  0  0  0
   -6.9950   18.9310  -31.6220 C   0  0  0  0  0  0  0  0  0  0  0  0
   -4.8140   20.8540  -32.2890 N   0  0  0  0  0  0  0  0  0  0  0  0
   -3.7230   21.6680  -32.2520 C   0  0  0  0  0  0  0  0  0  0  0  0
   -2.4060   21.1760  -32.7250 C   0  0  0  0  0  0  0  0  0  0  0  0
   -2.3110   20.3710  -33.8740 C   0  0  0  0  0  0  0  0  0  0  0  0
   -1.0610   19.9200  -34.3030 C   0  0  0  0  0  0  0  0  0  0  0  0
    0.0600   20.2570  -33.6140 N   0  0  0  0  0  0  0  0  0  0  0  0
    0.0040   21.0340  -32.5010 C   0  0  0  0  0  0  0  0  0  0  0  0
   -1.2260   21.5070  -32.0360 C   0  0  0  0  0  0  0  0  0  0  0  0
   -3.8530   22.9350  -31.7740 N   0  0  0  0  0  0  0  0  0  0  0  0
   -3.6515   24.9976  -28.4309 H   0  0  0  0  0  0  0  0  0  0  0  0
   -3.6926   23.5110  -29.4385 H   0  0  0  0  0  0  0  0  0  0  0  0
   -2.2315   24.5559  -29.4385 H   0  0  0  0  0  0  0  0  0  0  0  0
   -5.7831   24.8061  -29.9040 H   0  0  0  0  0  0  0  0  0  0  0  0
   -5.5782   25.4573  -31.5734 H   0  0  0  0  0  0  0  0  0  0  0  0
   -7.1475   22.9400  -31.0086 H   0  0  0  0  0  0  0  0  0  0  0  0
   -8.8628   21.0920  -30.9238 H   0  0  0  0  0  0  0  0  0  0  0  0
   -8.5138   21.8491  -32.5224 H   0  0  0  0  0  0  0  0  0  0  0  0
  -10.5079   20.2832  -32.5177 H   0  0  0  0  0  0  0  0  0  0  0  0
   -9.2105   19.8541  -33.6985 H   0  0  0  0  0  0  0  0  0  0  0  0
   -8.0380   17.0717  -31.9624 H   0  0  0  0  0  0  0  0  0  0  0  0
   -7.9059   18.1475  -33.4082 H   0  0  0  0  0  0  0  0  0  0  0  0
   -7.0691   18.7770  -30.5354 H   0  0  0  0  0  0  0  0  0  0  0  0
   -6.0103   18.6016  -31.9851 H   0  0  0  0  0  0  0  0  0  0  0  0
   -3.2181   20.0975  -34.4329 H   0  0  0  0  0  0  0  0  0  0  0  0
   -0.9839   19.2900  -35.2015 H   0  0  0  0  0  0  0  0  0  0  0  0
    0.9291   21.2914  -31.9645 H   0  0  0  0  0  0  0  0  0  0  0  0
   -1.2708   22.1358  -31.1345 H   0  0  0  0  0  0  0  0  0  0  0  0
  1  2  1  0
  2  3  1  0
  3  4  1  0
  4  5  2  0
  5  6  1  0
  6  7  1  0
  7  8  1  0
  8  9  1  0
  9 10  1  0
 10 11  1  0
 11 12  1  0
  6 13  2  0
 13 14  1  0
 14 15  1  0
 15 16  2  0
 16 17  1  0
 17 18  2  0
 18 19  1  0
 19 20  2  0
 14 21  2  0
 21  4  1  0
 12  7  1  0
 20 15  1  0
  1 22  1  0
  1 23  1  0
  1 24  1  0
  3 25  1  0
  3 26  1  0
  5 27  1  0
  8 28  1  0
  8 29  1  0
  9 30  1  0
  9 31  1  0
 11 32  1  0
 11 33  1  0
 12 34  1  0
 12 35  1  0
 16 36  1  0
 17 37  1  0
 19 38  1  0
 20 39  1  0
M  END
>  <UniqueID>  (1) 
1

>  <SMILES>  (1) 
COCc1cc(N2CCOCC2)nc(-c2ccncc2)n1

>  <Energy>  (1) 
47.94403168754683

>  <Genealogy>  (1) 
COCc1cc(N2CCOCC2)nc(-c2ccncc2)n1 (3D coordinates assigned)
COCc1cc(N2CCOCC2)nc(-c2ccncc2)n1 (nonaromatic ring conformer: 47.94403168754683 kcal/mol)

>  <smiles>  (1) 
COCc1cc(N2CCOCC2)nc(-c2ccncc2)n1

>  <score_type>  (1) 
oracle

>  <origin>  (1) 
adg

>  <m_score__min__energy>  (1) 
-7.3700000000000001

>  <m_primary>  (1) 
energy

$$$$
1:0
     RDKit          3D

 38 40  0  0  0  0  0  0  0  0999 V2000
   -5.3790   25.8310  -30.4730 C   0  0  0  0  0  0  0  0  0  0  0  0
   -4.1540   25.1590  -30.7470 O   0  0  0  0  0  0  0  0  0  0  0  0
   -3.9520   23.7820  -30.5760 C   0  0  0  0  0  0  0  0  0  0  0  0
   -3.4220   23.3330  -29.3610 C   0  0  0  0  0  0  0  0  0  0  0  0
   -3.1920   21.9720  -29.1480 C   0  0  0  0  0  0  0  0  0  0  0  0
   -3.4830   21.0460  -30.1510 C   0  0  0  0  0  0  0  0  0  0  0  0
   -4.0080   21.4750  -31.3810 C   0  0  0  0  0  0  0  0  0  0  0  0
   -4.3040   20.4900  -32.4530 C   0  0  0  0  0  0  0  0  0  0  0  0
   -3.2500   19.7340  -32.9900 C   0  0  0  0  0  0  0  0  0  0  0  0
   -3.5000   18.7330  -33.9350 C   0  0  0  0  0  0  0  0  0  0  0  0
   -2.3710   17.9440  -34.5280 C   0  0  0  0  0  0  0  0  0  0  0  0
   -4.8170   18.5180  -34.3550 C   0  0  0  0  0  0  0  0  0  0  0  0
   -5.8280   19.2650  -33.8440 N   0  0  0  0  0  0  0  0  0  0  0  0
   -5.6190   20.2440  -32.9200 C   0  0  0  0  0  0  0  0  0  0  0  0
   -6.7860   21.0320  -32.4650 C   0  0  0  0  0  0  0  0  0  0  0  0
   -7.8300   20.3960  -31.7770 C   0  0  0  0  0  0  0  0  0  0  0  0
   -8.9180   21.1470  -31.3310 C   0  0  0  0  0  0  0  0  0  0  0  0
   -8.9650   22.5180  -31.5820 C   0  0  0  0  0  0  0  0  0  0  0  0
   -7.9200   23.1190  -32.2880 C   0  0  0  0  0  0  0  0  0  0  0  0
   -6.8660   22.3740  -32.7180 N   0  0  0  0  0  0  0  0  0  0  0  0
   -4.2580   22.8440  -31.5810 C   0  0  0  0  0  0  0  0  0  0  0  0
   -5.5195   25.9081  -29.3847 H   0  0  0  0  0  0  0  0  0  0  0  0
   -5.3500   26.8395  -30.9113 H   0  0  0  0  0  0  0  0  0  0  0  0
   -6.2139   25.2646  -30.9113 H   0  0  0  0  0  0  0  0  0  0  0  0
   -3.1848   24.0574  -28.5679 H   0  0  0  0  0  0  0  0  0  0  0  0
   -2.7805   21.6290  -28.1873 H   0  0  0  0  0  0  0  0  0  0  0  0
   -3.3003   19.9753  -29.9773 H   0  0  0  0  0  0  0  0  0  0  0  0
   -2.2177   19.9305  -32.6647 H   0  0  0  0  0  0  0  0  0  0  0  0
   -1.7588   17.5162  -33.7204 H   0  0  0  0  0  0  0  0  0  0  0  0
   -2.7775   17.1324  -35.1493 H   0  0  0  0  0  0  0  0  0  0  0  0
   -1.7485   18.6047  -35.1493 H   0  0  0  0  0  0  0  0  0  0  0  0
   -5.0338   17.7405  -35.1023 H   0  0  0  0  0  0  0  0  0  0  0  0
   -7.7911   19.3126  -31.5904 H   0  0  0  0  0  0  0  0  0  0  0  0
   -9.7370   20.6587  -30.7825 H   0  0  0  0  0  0  0  0  0  0  0  0
   -9.8153   23.1194  -31.2281 H   0  0  0  0  0  0  0  0  0  0  0  0
   -7.9495   24.1986  -32.4970 H   0  0  0  0  0  0  0  0  0  0  0  0
   -6.1130   22.8500  -33.2640 H   0  0  0  0  0  0  0  0  0  0  0  0
   -4.6963   23.1854  -32.5304 H   0  0  0  0  0  0  0  0  0  0  0  0
  1  2  1  0
  2  3  1  0
  3  4  2  0
  4  5  1  0
  5  6  2  0
  6  7  1  0
  7  8  1  0
  8  9  2  0
  9 10  1  0
 10 11  1  0
 10 12  2  0
 12 13  1  0
 13 14  2  0
 14 15  1  0
 15 16  2  0
 16 17  1  0
 17 18  2  0
 18 19  1  0
 19 20  2  0
  7 21  2  0
 21  3  1  0
 14  8  1  0
 20 15  1  0
  1 22  1  0
  1 23  1  0
  1 24  1  0
  4 25  1  0
  5 26  1  0
  6 27  1  0
  9 28  1  0
 11 29  1  0
 11 30  1  0
 11 31  1  0
 12 32  1  0
 16 33  1  0
 17 34  1  0
 18 35  1  0
 19 36  1  0
 20 37  1  0
 21 38  1  0
M  CHG  1  20   1
M  END
>  <UniqueID>  (2) 
2

>  <SMILES>  (2) 
COc1cccc(-c2cc(C)cnc2-c2cccc[nH+]2)c1

>  <Energy>  (2) 
50.87272503644782

>  <Genealogy>  (2) 
COc1cccc(-c2cc(C)cnc2-c2cccc[nH+]2)c1 (protonated)
COc1cccc(-c2cc(C)cnc2-c2cccc[nH+]2)c1 (3D coordinates assigned)
COc1cccc(-c2cc(C)cnc2-c2cccc[nH+]2)c1 (optimized conformer: 50.87272503644782 kcal/mol)

>  <smiles>  (2) 
COc1cccc(-c2cc(C)cnc2-c2ccccn2)c1

>  <score_type>  (2) 
oracle

>  <origin>  (2) 
adg

>  <m_score__min__energy>  (2) 
-7.4299999999999997

>  <m_primary>  (2) 
energy

$$$$
2:0
     RDKit          3D

 65 70  0  0  0  0  0  0  0  0999 V2000
   -6.8710   25.2720  -29.7460 C   0  0  0  0  0  0  0  0  0  0  0  0
   -5.5030   25.3180  -29.3520 O   0  0  0  0  0  0  0  0  0  0  0  0
   -4.5840   24.2750  -29.5520 C   0  0  0  0  0  0  0  0  0  0  0  0
   -5.0660   22.9570  -29.5560 C   0  0  0  0  0  0  0  0  0  0  0  0
   -4.1930   21.8830  -29.7580 C   0  0  0  0  0  0  0  0  0  0  0  0
   -2.8220   22.1140  -29.9580 C   0  0  0  0  0  0  0  0  0  0  0  0
   -1.9170   21.0040  -30.1230 N   0  0  0  0  0  0  0  0  0  0  0  0
   -1.5070   20.6000  -31.3750 C   0  0  0  0  0  0  0  0  0  0  0  0
   -1.9870   21.2650  -32.6420 C   0  0  0  0  0  0  0  0  0  0  0  0
   -3.3640   20.8680  -32.9320 N   0  0  0  0  0  0  0  0  0  0  0  0
   -4.4150   21.5960  -32.5770 N   0  0  0  0  0  0  0  0  0  0  0  0
   -5.5340   20.9060  -32.8850 C   0  0  0  0  0  0  0  0  0  0  0  0
   -6.8910   21.3640  -32.4990 C   0  0  0  0  0  0  0  0  0  0  0  0
   -7.1310   22.7420  -32.3360 C   0  0  0  0  0  0  0  0  0  0  0  0
   -8.3970   23.2040  -31.9530 C   0  0  0  0  0  0  0  0  0  0  0  0
   -9.4390   22.2970  -31.7400 C   0  0  0  0  0  0  0  0  0  0  0  0
   -9.2170   20.9270  -31.9200 C   0  0  0  0  0  0  0  0  0  0  0  0
   -7.9530   20.4630  -32.3040 C   0  0  0  0  0  0  0  0  0  0  0  0
   -5.1630   19.6890  -33.4480 C   0  0  0  0  0  0  0  0  0  0  0  0
   -3.7900   19.7050  -33.4650 C   0  0  0  0  0  0  0  0  0  0  0  0
   -2.9670   18.4860  -33.7460 C   0  0  0  0  0  0  0  0  0  0  0  0
   -3.7720   17.4990  -34.6000 C   0  0  0  0  0  0  0  0  0  0  0  0
   -5.1250   17.2970  -34.0400 N   0  0  0  0  0  0  0  0  0  0  0  0
   -5.7130   15.9750  -34.0580 C   0  0  0  0  0  0  0  0  0  0  0  0
   -4.8950   14.7460  -33.7900 C   0  0  0  0  0  0  0  0  0  0  0  0
   -6.9470   15.8320  -34.2910 O   0  0  0  0  0  0  0  0  0  0  0  0
   -5.9850   18.4800  -33.7990 C   0  0  0  0  0  0  0  0  0  0  0  0
   -0.6850   19.5270  -31.5030 N   0  0  0  0  0  0  0  0  0  0  0  0
   -0.2140   18.8530  -30.4270 C   0  0  0  0  0  0  0  0  0  0  0  0
    0.6450   17.7620  -30.6130 C   0  0  0  0  0  0  0  0  0  0  0  0
    1.1570   17.0810  -29.5080 C   0  0  0  0  0  0  0  0  0  0  0  0
    0.8060   17.4800  -28.2160 C   0  0  0  0  0  0  0  0  0  0  0  0
   -0.0610   18.5610  -28.0170 C   0  0  0  0  0  0  0  0  0  0  0  0
   -0.3730   18.9220  -26.7460 F   0  0  0  0  0  0  0  0  0  0  0  0
   -0.5820   19.2600  -29.1290 C   0  0  0  0  0  0  0  0  0  0  0  0
   -1.4580   20.3570  -29.0040 C   0  0  0  0  0  0  0  0  0  0  0  0
   -1.8210   20.7500  -27.8590 O   0  0  0  0  0  0  0  0  0  0  0  0
   -2.3310   23.4280  -29.9350 C   0  0  0  0  0  0  0  0  0  0  0  0
   -3.2050   24.5040  -29.7450 C   0  0  0  0  0  0  0  0  0  0  0  0
   -7.5099   25.2505  -28.8508 H   0  0  0  0  0  0  0  0  0  0  0  0
   -7.1100   26.1626  -30.3457 H   0  0  0  0  0  0  0  0  0  0  0  0
   -7.0496   24.3673  -30.3457 H   0  0  0  0  0  0  0  0  0  0  0  0
   -6.1381   22.7672  -29.3991 H   0  0  0  0  0  0  0  0  0  0  0  0
   -4.5815   20.8539  -29.7602 H   0  0  0  0  0  0  0  0  0  0  0  0
   -1.9424   22.3571  -32.5182 H   0  0  0  0  0  0  0  0  0  0  0  0
   -1.3412   20.9542  -33.4765 H   0  0  0  0  0  0  0  0  0  0  0  0
   -6.3177   23.4617  -32.5108 H   0  0  0  0  0  0  0  0  0  0  0  0
   -8.5712   24.2819  -31.8197 H   0  0  0  0  0  0  0  0  0  0  0  0
  -10.4309   22.6591  -31.4317 H   0  0  0  0  0  0  0  0  0  0  0  0
  -10.0379   20.2126  -31.7593 H   0  0  0  0  0  0  0  0  0  0  0  0
   -7.7894   19.3857  -32.4543 H   0  0  0  0  0  0  0  0  0  0  0  0
   -2.0554   18.7782  -34.2879 H   0  0  0  0  0  0  0  0  0  0  0  0
   -2.6957   18.0047  -32.7948 H   0  0  0  0  0  0  0  0  0  0  0  0
   -3.8610   17.8964  -35.6218 H   0  0  0  0  0  0  0  0  0  0  0  0
   -3.2473   16.5322  -34.6076 H   0  0  0  0  0  0  0  0  0  0  0  0
   -4.7977   14.5999  -32.7041 H   0  0  0  0  0  0  0  0  0  0  0  0
   -5.3915   13.8709  -34.2347 H   0  0  0  0  0  0  0  0  0  0  0  0
   -3.8961   14.8662  -34.2347 H   0  0  0  0  0  0  0  0  0  0  0  0
   -6.5653   18.6928  -34.7089 H   0  0  0  0  0  0  0  0  0  0  0  0
   -6.6541   18.2573  -32.9547 H   0  0  0  0  0  0  0  0  0  0  0  0
    0.9158   17.4423  -31.6301 H   0  0  0  0  0  0  0  0  0  0  0  0
    1.8376   16.2293  -29.6543 H   0  0  0  0  0  0  0  0  0  0  0  0
    1.2140   16.9407  -27.3484 H   0  0  0  0  0  0  0  0  0  0  0  0
   -1.2547   23.6131  -30.0668 H   0  0  0  0  0  0  0  0  0  0  0  0
   -2.8155   25.5327  -29.7461 H   0  0  0  0  0  0  0  0  0  0  0  0
  1  2  1  0
  2  3  1  0
  3  4  2  0
  4  5  1  0
  5  6  2  0
  6  7  1  0
  7  8  1  0
  8  9  1  0
  9 10  1  0
 10 11  1  0
 11 12  2  0
 12 13  1  0
 13 14  2  0
 14 15  1  0
 15 16  2  0
 16 17  1  0
 17 18  2  0
 12 19  1  0
 19 20  2  0
 20 21  1  0
 21 22  1  0
 22 23  1  0
 23 24  1  0
 24 25  1  0
 24 26  2  0
 23 27  1  0
  8 28  2  0
 28 29  1  0
 29 30  2  0
 30 31  1  0
 31 32  2  0
 32 33  1  0
 33 34  1  0
 33 35  2  0
 35 36  1  0
 36 37  2  0
  6 38  1  0
 38 39  2  0
 39  3  1  0
 36  7  1  0
 20 10  1  0
 35 29  1  0
 18 13  1  0
 27 19  1  0
  1 40  1  0
  1 41  1  0
  1 42  1  0
  4 43  1  0
  5 44  1  0
  9 45  1  0
  9 46  1  0
 14 47  1  0
 15 48  1  0
 16 49  1  0
 17 50  1  0
 18 51  1  0
 21 52  1  0
 21 53  1  0
 22 54  1  0
 22 55  1  0
 25 56  1  0
 25 57  1  0
 25 58  1  0
 27 59  1  0
 27 60  1  0
 30 61  1  0
 31 62  1  0
 32 63  1  0
 38 64  1  0
 39 65  1  0
M  END
>  <UniqueID>  (3) 
3

>  <SMILES>  (3) 
COc1ccc(-n2c(Cn3nc(-c4ccccc4)c4c3CCN(C(C)=O)C4)nc3cccc(F)c3c2=O)cc1

>  <Energy>  (3) 
122.09808319316743

>  <Genealogy>  (3) 
COc1ccc(-n2c(Cn3nc(-c4ccccc4)c4c3CCN(C(C)=O)C4)nc3cccc(F)c3c2=O)cc1 (3D coordinates assigned)
COc1ccc(-n2c(Cn3nc(-c4ccccc4)c4c3CCN(C(C)=O)C4)nc3cccc(F)c3c2=O)cc1 (nonaromatic ring conformer: 122.09808319316743 kcal/mol)

>  <smiles>  (3) 
COc1ccc(-n2c(Cn3nc(-c4ccccc4)c4c3CCN(C(C)=O)C4)nc3cccc(F)c3c2=O)cc1

>  <score_type>  (3) 
oracle

>  <origin>  (3) 
adg

>  <m_score__min__energy>  (3) 
-9.6999999999999993

>  <m_primary>  (3) 
energy

$$$$
3:0
     RDKit          3D

 46 47  0  0  0  0  0  0  0  0999 V2000
   -5.3920   16.3840  -31.9820 C   0  0  0  0  0  0  0  0  0  0  0  0
   -6.2120   17.4120  -31.1930 C   0  0  0  0  0  0  0  0  0  0  0  0
   -6.9520   18.3520  -32.0800 N   0  0  0  0  0  0  0  0  0  0  0  0
   -8.3540   18.5260  -31.6220 C   0  0  0  0  0  0  0  0  0  0  0  0
   -9.0730   19.6730  -32.3400 C   0  0  0  0  0  0  0  0  0  0  0  0
   -6.8430   17.9500  -33.5110 C   0  0  0  0  0  0  0  0  0  0  0  0
   -5.7560   18.6880  -34.3180 C   0  0  0  0  0  0  0  0  0  0  0  0
   -4.8840   19.4080  -33.4530 O   0  0  0  0  0  0  0  0  0  0  0  0
   -5.1300   20.7330  -33.0790 C   0  0  0  0  0  0  0  0  0  0  0  0
   -6.2880   21.0950  -32.7330 O   0  0  0  0  0  0  0  0  0  0  0  0
   -4.0320   21.7470  -33.1370 C   0  0  0  0  0  0  0  0  0  0  0  0
   -3.8210   22.3620  -31.8220 N   0  0  0  0  0  0  0  0  0  0  0  0
   -2.7460   22.1920  -31.0080 C   0  0  0  0  0  0  0  0  0  0  0  0
   -1.5740   21.3150  -31.3220 C   0  0  0  0  0  0  0  0  0  0  0  0
   -2.8800   22.9450  -29.8450 C   0  0  0  0  0  0  0  0  0  0  0  0
   -4.0820   23.6050  -29.9810 C   0  0  0  0  0  0  0  0  0  0  0  0
   -4.7050   24.5170  -29.1330 C   0  0  0  0  0  0  0  0  0  0  0  0
   -5.9250   25.0760  -29.5520 C   0  0  0  0  0  0  0  0  0  0  0  0
   -6.4850   24.7170  -30.7970 C   0  0  0  0  0  0  0  0  0  0  0  0
   -5.8330   23.7920  -31.6340 C   0  0  0  0  0  0  0  0  0  0  0  0
   -4.6250   23.2440  -31.1900 C   0  0  0  0  0  0  0  0  0  0  0  0
   -4.8632   15.7211  -31.2814 H   0  0  0  0  0  0  0  0  0  0  0  0
   -6.0644   15.7867  -32.6153 H   0  0  0  0  0  0  0  0  0  0  0  0
   -4.6602   16.9068  -32.6153 H   0  0  0  0  0  0  0  0  0  0  0  0
   -6.9373   16.8763  -30.5630 H   0  0  0  0  0  0  0  0  0  0  0  0
   -5.5112   18.0052  -30.5872 H   0  0  0  0  0  0  0  0  0  0  0  0
   -6.4810   19.2860  -32.0150 H   0  0  0  0  0  0  0  0  0  0  0  0
   -8.9044   17.5925  -31.8112 H   0  0  0  0  0  0  0  0  0  0  0  0
   -8.3252   18.7714  -30.5501 H   0  0  0  0  0  0  0  0  0  0  0  0
   -9.5031   20.3592  -31.5956 H   0  0  0  0  0  0  0  0  0  0  0  0
   -8.3550   20.2186  -32.9699 H   0  0  0  0  0  0  0  0  0  0  0  0
   -9.8770   19.2646  -32.9699 H   0  0  0  0  0  0  0  0  0  0  0  0
   -6.6211   16.8732  -33.5463 H   0  0  0  0  0  0  0  0  0  0  0  0
   -7.8032   18.2156  -33.9772 H   0  0  0  0  0  0  0  0  0  0  0  0
   -5.1704   17.9531  -34.8899 H   0  0  0  0  0  0  0  0  0  0  0  0
   -6.2453   19.4011  -34.9978 H   0  0  0  0  0  0  0  0  0  0  0  0
   -3.1025   21.2541  -33.4579 H   0  0  0  0  0  0  0  0  0  0  0  0
   -4.3153   22.5330  -33.8525 H   0  0  0  0  0  0  0  0  0  0  0  0
   -1.1128   20.9699  -30.3849 H   0  0  0  0  0  0  0  0  0  0  0  0
   -1.9121   20.4463  -31.9059 H   0  0  0  0  0  0  0  0  0  0  0  0
   -0.8359   21.8845  -31.9059 H   0  0  0  0  0  0  0  0  0  0  0  0
   -2.1781   23.0011  -28.9999 H   0  0  0  0  0  0  0  0  0  0  0  0
   -4.2570   24.7912  -28.1665 H   0  0  0  0  0  0  0  0  0  0  0  0
   -6.4463   25.7975  -28.9057 H   0  0  0  0  0  0  0  0  0  0  0  0
   -7.4384   25.1636  -31.1156 H   0  0  0  0  0  0  0  0  0  0  0  0
   -6.2603   23.5088  -32.6073 H   0  0  0  0  0  0  0  0  0  0  0  0
  1  2  1  0
  2  3  1  0
  3  4  1  0
  4  5  1  0
  3  6  1  0
  6  7  1  0
  7  8  1  0
  8  9  1  0
  9 10  2  0
  9 11  1  0
 11 12  1  0
 12 13  1  0
 13 14  1  0
 13 15  2  0
 15 16  1  0
 16 17  2  0
 17 18  1  0
 18 19  2  0
 19 20  1  0
 20 21  2  0
 21 12  1  0
 21 16  1  0
  1 22  1  0
  1 23  1  0
  1 24  1  0
  2 25  1  0
  2 26  1  0
  3 27  1  0
  4 28  1  0
  4 29  1  0
  5 30  1  0
  5 31  1  0
  5 32  1  0
  6 33  1  0
  6 34  1  0
  7 35  1  0
  7 36  1  0
 11 37  1  0
 11 38  1  0
 14 39  1  0
 14 40  1  0
 14 41  1  0
 15 42  1  0
 17 43  1  0
 18 44  1  0
 19 45  1  0
 20 46  1  0
M  CHG  1   3   1
M  END
>  <UniqueID>  (4) 
4

>  <SMILES>  (4) 
CC[NH+](CC)CCOC(=O)Cn1c(C)cc2ccccc21

>  <Energy>  (4) 
73.45897951694765

>  <Genealogy>  (4) 
CC[NH+](CC)CCOC(=O)Cn1c(C)cc2ccccc21 (protonated)
CC[NH+](CC)CCOC(=O)Cn1c(C)cc2ccccc21 (3D coordinates assigned)
CC[NH+](CC)CCOC(=O)Cn1c(C)cc2ccccc21 (optimized conformer: 73.45897951694765 kcal/mol)

>  <smiles>  (4) 
CCN(CC)CCOC(=O)Cn1c(C)cc2ccccc21

>  <score_type>  (4) 
oracle

>  <origin>  (4) 
adg

>  <m_score__min__energy>  (4) 
-5.96

>  <m_primary>  (4) 
energy

$$$$
4:0
     RDKit          3D

 49 51  0  0  0  0  0  0  0  0999 V2000
   -4.3520   17.2460  -34.9670 C   0  0  0  0  0  0  0  0  0  0  0  0
   -5.5810   16.9810  -34.3000 O   0  0  0  0  0  0  0  0  0  0  0  0
   -6.3260   17.9420  -33.6010 C   0  0  0  0  0  0  0  0  0  0  0  0
   -7.2830   17.5950  -32.6290 C   0  0  0  0  0  0  0  0  0  0  0  0
   -8.0010   18.5890  -31.9580 C   0  0  0  0  0  0  0  0  0  0  0  0
   -7.7800   19.9510  -32.2420 C   0  0  0  0  0  0  0  0  0  0  0  0
   -8.5320   21.0250  -31.5370 C   0  0  0  0  0  0  0  0  0  0  0  0
   -9.7470   21.2210  -31.8150 O   0  0  0  0  0  0  0  0  0  0  0  0
   -7.8900   21.9140  -30.5030 C   0  0  0  0  0  0  0  0  0  0  0  0
   -7.8080   23.3160  -30.9730 N   0  0  0  0  0  0  0  0  0  0  0  0
   -7.2390   23.4140  -32.3420 C   0  0  0  0  0  0  0  0  0  0  0  0
   -5.7440   23.7970  -32.3770 C   0  0  0  0  0  0  0  0  0  0  0  0
   -5.0810   23.4120  -31.1280 N   0  0  0  0  0  0  0  0  0  0  0  0
   -3.8450   22.6780  -31.1490 C   0  0  0  0  0  0  0  0  0  0  0  0
   -3.7470   21.4960  -31.8990 C   0  0  0  0  0  0  0  0  0  0  0  0
   -2.5490   20.7750  -31.9290 C   0  0  0  0  0  0  0  0  0  0  0  0
   -2.4410   19.2930  -32.8610 Cl  0  0  0  0  0  0  0  0  0  0  0  0
   -1.4410   21.2340  -31.2140 C   0  0  0  0  0  0  0  0  0  0  0  0
   -1.5230   22.4150  -30.4740 C   0  0  0  0  0  0  0  0  0  0  0  0
   -2.7230   23.1530  -30.4400 C   0  0  0  0  0  0  0  0  0  0  0  0
   -2.8320   24.3610  -29.7320 O   0  0  0  0  0  0  0  0  0  0  0  0
   -2.7290   24.4820  -28.3180 C   0  0  0  0  0  0  0  0  0  0  0  0
   -5.6410   23.8700  -29.8540 C   0  0  0  0  0  0  0  0  0  0  0  0
   -7.1300   24.2190  -30.0150 C   0  0  0  0  0  0  0  0  0  0  0  0
   -6.8220   20.2870  -33.2170 C   0  0  0  0  0  0  0  0  0  0  0  0
   -6.1060   19.2920  -33.8860 C   0  0  0  0  0  0  0  0  0  0  0  0
   -3.5603   17.4167  -34.2227 H   0  0  0  0  0  0  0  0  0  0  0  0
   -4.0836   16.3851  -35.5969 H   0  0  0  0  0  0  0  0  0  0  0  0
   -4.4622   18.1410  -35.5969 H   0  0  0  0  0  0  0  0  0  0  0  0
   -7.4669   16.5358  -32.3961 H   0  0  0  0  0  0  0  0  0  0  0  0
   -8.7462   18.3048  -31.2004 H   0  0  0  0  0  0  0  0  0  0  0  0
   -8.4882   21.8800  -29.5805 H   0  0  0  0  0  0  0  0  0  0  0  0
   -6.8685   21.5498  -30.3190 H   0  0  0  0  0  0  0  0  0  0  0  0
   -7.3573   22.4383  -32.8360 H   0  0  0  0  0  0  0  0  0  0  0  0
   -7.7849   24.2191  -32.8556 H   0  0  0  0  0  0  0  0  0  0  0  0
   -5.2584   23.2800  -33.2178 H   0  0  0  0  0  0  0  0  0  0  0  0
   -5.6611   24.8870  -32.4999 H   0  0  0  0  0  0  0  0  0  0  0  0
   -4.6173   21.1346  -32.4665 H   0  0  0  0  0  0  0  0  0  0  0  0
   -0.5008   20.6634  -31.2338 H   0  0  0  0  0  0  0  0  0  0  0  0
   -0.6458   22.7715  -29.9142 H   0  0  0  0  0  0  0  0  0  0  0  0
   -3.3705   23.7284  -27.8378 H   0  0  0  0  0  0  0  0  0  0  0  0
   -1.6845   24.3234  -28.0115 H   0  0  0  0  0  0  0  0  0  0  0  0
   -3.0524   25.4877  -28.0115 H   0  0  0  0  0  0  0  0  0  0  0  0
   -5.5352   23.0721  -29.1043 H   0  0  0  0  0  0  0  0  0  0  0  0
   -5.0977   24.7697  -29.5293 H   0  0  0  0  0  0  0  0  0  0  0  0
   -7.6233   24.1335  -29.0355 H   0  0  0  0  0  0  0  0  0  0  0  0
   -7.1995   25.2449  -30.4056 H   0  0  0  0  0  0  0  0  0  0  0  0
   -6.6353   21.3447  -33.4545 H   0  0  0  0  0  0  0  0  0  0  0  0
   -5.3613   19.5739  -34.6450 H   0  0  0  0  0  0  0  0  0  0  0  0
  1  2  1  0
  2  3  1  0
  3  4  2  0
  4  5  1  0
  5  6  2  0
  6  7  1  0
  7  8  2  0
  7  9  1  0
  9 10  1  0
 10 11  1  0
 11 12  1  0
 12 13  1  0
 13 14  1  0
 14 15  2  0
 15 16  1  0
 16 17  1  0
 16 18  2  0
 18 19  1  0
 19 20  2  0
 20 21  1  0
 21 22  1  0
 13 23  1  0
 23 24  1  0
  6 25  1  0
 25 26  2  0
 26  3  1  0
 24 10  1  0
 20 14  1  0
  1 27  1  0
  1 28  1  0
  1 29  1  0
  4 30  1  0
  5 31  1  0
  9 32  1  0
  9 33  1  0
 11 34  1  0
 11 35  1  0
 12 36  1  0
 12 37  1  0
 15 38  1  0
 18 39  1  0
 19 40  1  0
 22 41  1  0
 22 42  1  0
 22 43  1  0
 23 44  1  0
 23 45  1  0
 24 46  1  0
 24 47  1  0
 25 48  1  0
 26 49  1  0
M  END
>  <UniqueID>  (5) 
5

>  <SMILES>  (5) 
COc1ccc(C(=O)CN2CCN(c3cc(Cl)ccc3OC)CC2)cc1

>  <Energy>  (5) 
62.95001245415198

>  <Genealogy>  (5) 
COc1ccc(C(=O)CN2CCN(c3cc(Cl)ccc3OC)CC2)cc1 (3D coordinates assigned)
COc1ccc(C(=O)CN2CCN(c3cc(Cl)ccc3OC)CC2)cc1 (nonaromatic ring conformer: 62.95001245415198 kcal/mol)

>  <smiles>  (5) 
COc1ccc(C(=O)CN2CCN(c3cc(Cl)ccc3OC)CC2)cc1

>  <score_type>  (5) 
oracle

>  <origin>  (5) 
adg

>  <m_score__min__energy>  (5) 
-8.3599999999999994

>  <m_primary>  (5) 
energy

$$$$
5:0
     RDKit          3D

 51 53  0  0  0  0  0  0  0  0999 V2000
   -9.8550   21.1660  -31.9780 C   0  0  0  0  0  0  0  0  0  0  0  0
   -9.1440   19.9580  -32.5740 C   0  0  0  0  0  0  0  0  0  0  0  0
   -8.1030   19.4840  -31.6520 N   0  0  0  0  0  0  0  0  0  0  0  0
   -7.5990   18.1600  -32.0480 C   0  0  0  0  0  0  0  0  0  0  0  0
   -6.3490   18.3130  -32.9410 C   0  0  0  0  0  0  0  0  0  0  0  0
   -5.5340   19.5110  -32.6420 N   0  0  0  0  0  0  0  0  0  0  0  0
   -4.4200   19.7300  -33.5830 C   0  0  0  0  0  0  0  0  0  0  0  0
   -3.9010   21.1760  -33.4710 C   0  0  0  0  0  0  0  0  0  0  0  0
   -4.0480   21.7650  -32.0430 C   0  0  0  0  0  0  0  0  0  0  0  0
   -5.2560   22.6030  -31.8810 N   0  0  0  0  0  0  0  0  0  0  0  0
   -6.5140   22.3110  -32.2890 C   0  0  0  0  0  0  0  0  0  0  0  0
   -7.4050   23.2540  -31.8230 C   0  0  0  0  0  0  0  0  0  0  0  0
   -6.6750   24.1550  -31.0830 C   0  0  0  0  0  0  0  0  0  0  0  0
   -5.3610   23.7280  -31.1290 C   0  0  0  0  0  0  0  0  0  0  0  0
   -4.2430   24.4070  -30.4370 C   0  0  0  0  0  0  0  0  0  0  0  0
   -3.9810   25.6050  -30.7260 O   0  0  0  0  0  0  0  0  0  0  0  0
   -3.4500   23.7210  -29.3860 C   0  0  0  0  0  0  0  0  0  0  0  0
   -4.0670   22.8590  -28.4590 C   0  0  0  0  0  0  0  0  0  0  0  0
   -3.3060   22.2090  -27.4830 C   0  0  0  0  0  0  0  0  0  0  0  0
   -1.9240   22.4040  -27.4250 C   0  0  0  0  0  0  0  0  0  0  0  0
   -1.2990   23.2460  -28.3480 C   0  0  0  0  0  0  0  0  0  0  0  0
   -2.0560   23.8990  -29.3260 C   0  0  0  0  0  0  0  0  0  0  0  0
   -4.0230   20.6480  -30.9840 C   0  0  0  0  0  0  0  0  0  0  0  0
   -5.1250   19.5960  -31.2220 C   0  0  0  0  0  0  0  0  0  0  0  0
   -9.8203   21.1071  -30.8801 H   0  0  0  0  0  0  0  0  0  0  0  0
   -9.3551   22.0872  -32.3117 H   0  0  0  0  0  0  0  0  0  0  0  0
  -10.9031   21.1761  -32.3117 H   0  0  0  0  0  0  0  0  0  0  0  0
   -9.8739   19.1529  -32.7446 H   0  0  0  0  0  0  0  0  0  0  0  0
   -8.6782   20.2467  -33.5278 H   0  0  0  0  0  0  0  0  0  0  0  0
   -7.3030   20.1600  -31.7070 H   0  0  0  0  0  0  0  0  0  0  0  0
   -7.3344   17.5871  -31.1470 H   0  0  0  0  0  0  0  0  0  0  0  0
   -8.3815   17.6310  -32.6118 H   0  0  0  0  0  0  0  0  0  0  0  0
   -5.7170   17.4230  -32.8054 H   0  0  0  0  0  0  0  0  0  0  0  0
   -6.7099   18.4255  -33.9740 H   0  0  0  0  0  0  0  0  0  0  0  0
   -3.6032   19.0321  -33.3469 H   0  0  0  0  0  0  0  0  0  0  0  0
   -4.7790   19.5574  -34.6084 H   0  0  0  0  0  0  0  0  0  0  0  0
   -2.8363   21.1885  -33.7473 H   0  0  0  0  0  0  0  0  0  0  0  0
   -4.5083   21.7964  -34.1465 H   0  0  0  0  0  0  0  0  0  0  0  0
   -3.1818   22.4261  -31.8922 H   0  0  0  0  0  0  0  0  0  0  0  0
   -6.7868   21.4423  -32.9063 H   0  0  0  0  0  0  0  0  0  0  0  0
   -8.4892   23.2808  -32.0071 H   0  0  0  0  0  0  0  0  0  0  0  0
   -7.0610   25.0411  -30.5578 H   0  0  0  0  0  0  0  0  0  0  0  0
   -5.1540   22.6962  -28.5031 H   0  0  0  0  0  0  0  0  0  0  0  0
   -3.7968   21.5422  -26.7588 H   0  0  0  0  0  0  0  0  0  0  0  0
   -1.3283   21.8949  -26.6531 H   0  0  0  0  0  0  0  0  0  0  0  0
   -0.2100   23.3956  -28.3055 H   0  0  0  0  0  0  0  0  0  0  0  0
   -1.5577   24.5565  -30.0535 H   0  0  0  0  0  0  0  0  0  0  0  0
   -3.0433   20.1490  -31.0183 H   0  0  0  0  0  0  0  0  0  0  0  0
   -4.2026   21.1094  -30.0017 H   0  0  0  0  0  0  0  0  0  0  0  0
   -4.7477   18.6127  -30.9046 H   0  0  0  0  0  0  0  0  0  0  0  0
   -6.0069   19.8998  -30.6390 H   0  0  0  0  0  0  0  0  0  0  0  0
  1  2  1  0
  2  3  1  0
  3  4  1  0
  4  5  1  0
  5  6  1  0
  6  7  1  0
  7  8  1  0
  8  9  1  0
  9 10  1  0
 10 11  1  0
 11 12  2  0
 12 13  1  0
 13 14  2  0
 14 15  1  0
 15 16  2  0
 15 17  1  0
 17 18  2  0
 18 19  1  0
 19 20  2  0
 20 21  1  0
 21 22  2  0
  9 23  1  0
 23 24  1  0
 24  6  1  0
 14 10  1  0
 22 17  1  0
  1 25  1  0
  1 26  1  0
  1 27  1  0
  2 28  1  0
  2 29  1  0
  3 30  1  0
  4 31  1  0
  4 32  1  0
  5 33  1  0
  5 34  1  0
  7 35  1  0
  7 36  1  0
  8 37  1  0
  8 38  1  0
  9 39  1  0
 11 40  1  0
 12 41  1  0
 13 42  1  0
 18 43  1  0
 19 44  1  0
 20 45  1  0
 21 46  1  0
 22 47  1  0
 23 48  1  0
 23 49  1  0
 24 50  1  0
 24 51  1  0
M  END
>  <UniqueID>  (6) 
6

>  <SMILES>  (6) 
CCNCCN1CCC(n2cccc2C(=O)c2ccccc2)CC1

>  <Energy>  (6) 
90.22603147422576

>  <Genealogy>  (6) 
CCNCCN1CCC(n2cccc2C(=O)c2ccccc2)CC1 (3D coordinates assigned)
CCNCCN1CCC(n2cccc2C(=O)c2ccccc2)CC1 (nonaromatic ring conformer: 90.22603147422576 kcal/mol)

>  <smiles>  (6) 
CCNCCN1CCC(n2cccc2C(=O)c2ccccc2)CC1

>  <score_type>  (6) 
oracle

>  <origin>  (6) 
adg

>  <m_score__min__energy>  (6) 
-8.8399999999999999

>  <m_primary>  (6) 
energy

$$$$
6:0
     RDKit          3D

 49 52  0  0  0  0  0  0  0  0999 V2000
    2.2140   25.7240  -27.0020 C   0  0  0  0  0  0  0  0  0  0  0  0
    1.3260   24.6470  -26.7280 O   0  0  0  0  0  0  0  0  0  0  0  0
    0.1780   24.3400  -27.4800 C   0  0  0  0  0  0  0  0  0  0  0  0
    0.2680   23.7260  -28.7420 C   0  0  0  0  0  0  0  0  0  0  0  0
   -0.8830   23.4300  -29.4720 C   0  0  0  0  0  0  0  0  0  0  0  0
   -2.1470   23.7370  -28.9560 C   0  0  0  0  0  0  0  0  0  0  0  0
   -3.3340   23.4180  -29.7050 N   0  0  0  0  0  0  0  0  0  0  0  0
   -4.1010   24.2890  -30.4010 C   0  0  0  0  0  0  0  0  0  0  0  0
   -3.8650   25.6590  -30.4760 O   0  0  0  0  0  0  0  0  0  0  0  0
   -5.1250   23.6260  -31.0420 C   0  0  0  0  0  0  0  0  0  0  0  0
   -4.9900   22.2980  -30.7310 C   0  0  0  0  0  0  0  0  0  0  0  0
   -3.8930   22.1960  -29.8980 C   0  0  0  0  0  0  0  0  0  0  0  0
   -3.4630   21.0080  -29.3050 O   0  0  0  0  0  0  0  0  0  0  0  0
   -5.9160   21.2310  -31.2100 C   0  0  0  0  0  0  0  0  0  0  0  0
   -6.8840   21.7580  -32.2530 C   0  0  0  0  0  0  0  0  0  0  0  0
   -7.0240   23.0690  -32.5530 C   0  0  0  0  0  0  0  0  0  0  0  0
   -6.2320   24.1770  -31.8830 C   0  0  0  0  0  0  0  0  0  0  0  0
   -2.2440   24.3300  -27.6880 C   0  0  0  0  0  0  0  0  0  0  0  0
   -1.0940   24.6510  -26.9550 C   0  0  0  0  0  0  0  0  0  0  0  0
   -1.2740   25.4510  -25.3820 S   0  0  0  0  0  0  0  0  0  0  0  0
   -0.9930   24.4490  -24.3010 O   0  0  0  0  0  0  0  0  0  0  0  0
   -2.6890   25.9190  -25.2070 O   0  0  0  0  0  0  0  0  0  0  0  0
   -0.2070   26.8240  -25.2100 N   0  0  0  0  0  0  0  0  0  0  0  0
   -0.7970   28.0260  -25.8320 C   0  0  0  0  0  0  0  0  0  0  0  0
    0.0610   29.2710  -25.5180 C   0  0  0  0  0  0  0  0  0  0  0  0
    1.3010   28.9030  -24.9270 O   0  0  0  0  0  0  0  0  0  0  0  0
    1.0680   28.2840  -23.6720 C   0  0  0  0  0  0  0  0  0  0  0  0
    0.1020   27.0840  -23.7910 C   0  0  0  0  0  0  0  0  0  0  0  0
    2.5700   26.1557  -26.0550 H   0  0  0  0  0  0  0  0  0  0  0  0
    3.0723   25.3532  -27.5815 H   0  0  0  0  0  0  0  0  0  0  0  0
    1.6864   26.4959  -27.5815 H   0  0  0  0  0  0  0  0  0  0  0  0
    1.2556   23.4768  -29.1574 H   0  0  0  0  0  0  0  0  0  0  0  0
   -0.7967   22.9524  -30.4591 H   0  0  0  0  0  0  0  0  0  0  0  0
   -3.5070   20.8620  -28.3040 H   0  0  0  0  0  0  0  0  0  0  0  0
   -5.3236   20.4164  -31.6521 H   0  0  0  0  0  0  0  0  0  0  0  0
   -6.4996   20.8706  -30.3501 H   0  0  0  0  0  0  0  0  0  0  0  0
   -7.5073   21.0322  -32.7959 H   0  0  0  0  0  0  0  0  0  0  0  0
   -7.7538   23.3486  -33.3271 H   0  0  0  0  0  0  0  0  0  0  0  0
   -5.8021   24.8284  -32.6581 H   0  0  0  0  0  0  0  0  0  0  0  0
   -6.9131   24.7429  -31.2305 H   0  0  0  0  0  0  0  0  0  0  0  0
   -3.2358   24.5456  -27.2640 H   0  0  0  0  0  0  0  0  0  0  0  0
   -0.8444   27.8840  -26.9218 H   0  0  0  0  0  0  0  0  0  0  0  0
   -1.8081   28.1779  -25.4262 H   0  0  0  0  0  0  0  0  0  0  0  0
    0.2566   29.8174  -26.4525 H   0  0  0  0  0  0  0  0  0  0  0  0
   -0.4900   29.9046  -24.8075 H   0  0  0  0  0  0  0  0  0  0  0  0
    2.0273   27.9293  -23.2670 H   0  0  0  0  0  0  0  0  0  0  0  0
    0.6066   29.0279  -23.0058 H   0  0  0  0  0  0  0  0  0  0  0  0
    0.5728   26.1923  -23.3514 H   0  0  0  0  0  0  0  0  0  0  0  0
   -0.8301   27.3162  -23.2551 H   0  0  0  0  0  0  0  0  0  0  0  0
  1  2  1  0
  2  3  1  0
  3  4  2  0
  4  5  1  0
  5  6  2  0
  6  7  1  0
  7  8  1  0
  8  9  1  0
  8 10  2  0
 10 11  1  0
 11 12  2  0
 12 13  1  0
 11 14  1  0
 14 15  1  0
 15 16  2  0
 16 17  1  0
  6 18  1  0
 18 19  2  0
 19 20  1  0
 20 21  2  0
 20 22  2  0
 20 23  1  0
 23 24  1  0
 24 25  1  0
 25 26  1  0
 26 27  1  0
 27 28  1  0
 19  3  1  0
 28 23  1  0
 12  7  1  0
 17 10  1  0
  1 29  1  0
  1 30  1  0
  1 31  1  0
  4 32  1  0
  5 33  1  0
 13 34  1  0
 14 35  1  0
 14 36  1  0
 15 37  1  0
 16 38  1  0
 17 39  1  0
 17 40  1  0
 18 41  1  0
 24 42  1  0
 24 43  1  0
 25 44  1  0
 25 45  1  0
 27 46  1  0
 27 47  1  0
 28 48  1  0
 28 49  1  0
M  CHG  1   9  -1
M  END
>  <UniqueID>  (7) 
7

>  <SMILES>  (7) 
COc1ccc(-n2c([O-])c3c(c2O)CC=CC3)cc1S(=O)(=O)N1CCOCC1

>  <Energy>  (7) 
98.02700671545969

>  <Genealogy>  (7) 
COc1ccc(-n2c([O-])c3c(c2O)CC=CC3)cc1S(=O)(=O)N1CCOCC1 (protonated)
COc1ccc(-n2c([O-])c3c(c2O)CC=CC3)cc1S(=O)(=O)N1CCOCC1 (3D coordinates assigned)
COc1ccc(-n2c([O-])c3c(c2O)CC=CC3)cc1S(=O)(=O)N1CCOCC1 (nonaromatic ring conformer: 98.02700671545969 kcal/mol)

>  <smiles>  (7) 
COc1ccc(-n2c(O)c3c(c2O)CC=CC3)cc1S(=O)(=O)N1CCOCC1

>  <score_type>  (7) 
oracle

>  <origin>  (7) 
adg

>  <m_score__min__energy>  (7) 
-10.69

>  <m_primary>  (7) 
energy

$$$$
7:0
     RDKit          3D

 44 47  0  0  0  0  0  0  0  0999 V2000
    0.4760   22.9310  -24.1030 C   0  0  0  0  0  0  0  0  0  0  0  0
   -0.2850   24.1610  -24.5190 C   0  0  0  0  0  0  0  0  0  0  0  0
   -0.0910   25.3090  -23.7890 N   0  0  0  0  0  0  0  0  0  0  0  0
   -0.7240   26.4840  -24.0800 C   0  0  0  0  0  0  0  0  0  0  0  0
   -1.6130   26.5610  -25.1530 C   0  0  0  0  0  0  0  0  0  0  0  0
   -1.8250   25.4060  -25.8890 C   0  0  0  0  0  0  0  0  0  0  0  0
   -2.6210   25.2940  -26.9540 N   0  0  0  0  0  0  0  0  0  0  0  0
   -2.4810   24.0000  -27.3180 C   0  0  0  0  0  0  0  0  0  0  0  0
   -3.1980   23.5090  -28.4980 C   0  0  0  0  0  0  0  0  0  0  0  0
   -4.6010   23.5490  -28.5350 C   0  0  0  0  0  0  0  0  0  0  0  0
   -5.2830   23.1890  -29.7020 C   0  0  0  0  0  0  0  0  0  0  0  0
   -4.5680   22.8270  -30.8480 C   0  0  0  0  0  0  0  0  0  0  0  0
   -3.1700   22.8410  -30.8340 C   0  0  0  0  0  0  0  0  0  0  0  0
   -2.4770   22.5210  -31.9540 F   0  0  0  0  0  0  0  0  0  0  0  0
   -2.4850   23.2010  -29.6680 C   0  0  0  0  0  0  0  0  0  0  0  0
   -1.6320   23.2810  -26.5100 N   0  0  0  0  0  0  0  0  0  0  0  0
   -1.1890   21.8670  -26.6220 C   0  0  0  0  0  0  0  0  0  0  0  0
   -2.3070   20.8290  -26.9480 C   0  0  0  0  0  0  0  0  0  0  0  0
   -2.3530   20.3030  -28.3960 C   0  0  0  0  0  0  0  0  0  0  0  0
   -0.9640   20.0290  -28.9590 C   0  0  0  0  0  0  0  0  0  0  0  0
   -0.1210   21.2970  -28.9080 C   0  0  0  0  0  0  0  0  0  0  0  0
    0.1070   21.7310  -27.4610 C   0  0  0  0  0  0  0  0  0  0  0  0
   -1.2070   24.2170  -25.6060 C   0  0  0  0  0  0  0  0  0  0  0  0
    0.5106   22.8751  -23.0050 H   0  0  0  0  0  0  0  0  0  0  0  0
   -0.0270   22.0369  -24.5000 H   0  0  0  0  0  0  0  0  0  0  0  0
    1.5006   22.9820  -24.5000 H   0  0  0  0  0  0  0  0  0  0  0  0
    0.5650   25.3050  -22.9760 H   0  0  0  0  0  0  0  0  0  0  0  0
   -0.5318   27.3752  -23.4646 H   0  0  0  0  0  0  0  0  0  0  0  0
   -2.1253   27.5014  -25.4047 H   0  0  0  0  0  0  0  0  0  0  0  0
   -5.1649   23.8640  -27.6446 H   0  0  0  0  0  0  0  0  0  0  0  0
   -6.3829   23.1906  -29.7183 H   0  0  0  0  0  0  0  0  0  0  0  0
   -5.1057   22.5311  -31.7609 H   0  0  0  0  0  0  0  0  0  0  0  0
   -1.3858   23.2428  -29.6679 H   0  0  0  0  0  0  0  0  0  0  0  0
   -0.9184   21.5663  -25.5991 H   0  0  0  0  0  0  0  0  0  0  0  0
   -2.1656   19.9647  -26.2824 H   0  0  0  0  0  0  0  0  0  0  0  0
   -3.2558   21.3661  -26.8021 H   0  0  0  0  0  0  0  0  0  0  0  0
   -2.9322   19.3680  -28.4139 H   0  0  0  0  0  0  0  0  0  0  0  0
   -2.8206   21.0789  -29.0199 H   0  0  0  0  0  0  0  0  0  0  0  0
   -0.4773   19.2439  -28.3617 H   0  0  0  0  0  0  0  0  0  0  0  0
   -1.0569   19.6993  -30.0043 H   0  0  0  0  0  0  0  0  0  0  0  0
    0.8511   21.1047  -29.3856 H   0  0  0  0  0  0  0  0  0  0  0  0
   -0.6532   22.0993  -29.4401 H   0  0  0  0  0  0  0  0  0  0  0  0
    0.7542   20.9854  -26.9760 H   0  0  0  0  0  0  0  0  0  0  0  0
    0.5616   22.7319  -27.5012 H   0  0  0  0  0  0  0  0  0  0  0  0
  1  2  1  0
  2  3  2  0
  3  4  1  0
  4  5  2  0
  5  6  1  0
  6  7  1  0
  7  8  2  0
  8  9  1  0
  9 10  2  0
 10 11  1  0
 11 12  2  0
 12 13  1  0
 13 14  1  0
 13 15  2  0
  8 16  1  0
 16 17  1  0
 17 18  1  0
 18 19  1  0
 19 20  1  0
 20 21  1  0
 21 22  1  0
 16 23  1  0
 23  2  1  0
 23  6  2  0
 15  9  1  0
 22 17  1  0
  1 24  1  0
  1 25  1  0
  1 26  1  0
  3 27  1  0
  4 28  1  0
  5 29  1  0
 10 30  1  0
 11 31  1  0
 12 32  1  0
 15 33  1  0
 17 34  1  0
 18 35  1  0
 18 36  1  0
 19 37  1  0
 19 38  1  0
 20 39  1  0
 20 40  1  0
 21 41  1  0
 21 42  1  0
 22 43  1  0
 22 44  1  0
M  CHG  1   3   1
M  END
>  <UniqueID>  (8) 
8

>  <SMILES>  (8) 
Cc1[nH+]ccc2nc(-c3cccc(F)c3)n(C3CCCCC3)c12

>  <Energy>  (8) 
104.7330381521154

>  <Genealogy>  (8) 
Cc1[nH+]ccc2nc(-c3cccc(F)c3)n(C3CCCCC3)c12 (protonated)
Cc1[nH+]ccc2nc(-c3cccc(F)c3)n(C3CCCCC3)c12 (3D coordinates assigned)
Cc1[nH+]ccc2nc(-c3cccc(F)c3)n(C3CCCCC3)c12 (nonaromatic ring conformer: 104.7330381521154 kcal/mol)

>  <smiles>  (8) 
Cc1nccc2nc(-c3cccc(F)c3)n(C3CCCCC3)c12

>  <score_type>  (8) 
oracle

>  <origin>  (8) 
adg

>  <m_score__min__energy>  (8) 
-7.3499999999999996

>  <m_primary>  (8) 
energy

$$$$
8:0
     RDKit          3D

 49 51  0  0  0  0  0  0  0  0999 V2000
   -6.5210   25.1190  -29.7080 C   0  0  0  0  0  0  0  0  0  0  0  0
   -5.3330   25.7660  -30.4120 C   0  0  0  0  0  0  0  0  0  0  0  0
   -4.4060   24.7730  -30.8530 O   0  0  0  0  0  0  0  0  0  0  0  0
   -4.7200   23.4400  -31.1720 C   0  0  0  0  0  0  0  0  0  0  0  0
   -5.8160   23.1000  -31.9920 C   0  0  0  0  0  0  0  0  0  0  0  0
   -6.0940   21.7630  -32.2830 C   0  0  0  0  0  0  0  0  0  0  0  0
   -5.2890   20.7500  -31.7630 C   0  0  0  0  0  0  0  0  0  0  0  0
   -4.2010   21.0700  -30.9480 C   0  0  0  0  0  0  0  0  0  0  0  0
   -3.9100   22.4110  -30.6460 C   0  0  0  0  0  0  0  0  0  0  0  0
   -2.7210   22.7440  -29.7790 C   0  0  0  0  0  0  0  0  0  0  0  0
   -2.0830   21.5050  -29.2820 N   0  0  0  0  0  0  0  0  0  0  0  0
   -2.5970   21.0930  -27.9470 C   0  0  0  0  0  0  0  0  0  0  0  0
   -1.6010   21.3130  -26.7920 C   0  0  0  0  0  0  0  0  0  0  0  0
   -0.7700   22.4900  -27.0480 N   0  0  0  0  0  0  0  0  0  0  0  0
   -0.7930   23.6020  -26.1420 C   0  0  0  0  0  0  0  0  0  0  0  0
   -0.3900   23.4270  -24.8180 C   0  0  0  0  0  0  0  0  0  0  0  0
   -0.4240   24.4730  -23.9520 N   0  0  0  0  0  0  0  0  0  0  0  0
   -0.8410   25.6900  -24.3310 N   0  0  0  0  0  0  0  0  0  0  0  0
   -0.8500   26.7870  -23.3570 C   0  0  0  0  0  0  0  0  0  0  0  0
   -1.2280   25.9200  -25.6250 C   0  0  0  0  0  0  0  0  0  0  0  0
   -1.5970   27.0720  -25.9870 O   0  0  0  0  0  0  0  0  0  0  0  0
   -1.2110   24.8730  -26.5560 C   0  0  0  0  0  0  0  0  0  0  0  0
   -1.6550   25.1790  -28.2330 Cl  0  0  0  0  0  0  0  0  0  0  0  0
   -0.0620   22.6050  -28.3270 C   0  0  0  0  0  0  0  0  0  0  0  0
   -0.6070   21.5850  -29.3390 C   0  0  0  0  0  0  0  0  0  0  0  0
   -6.3862   25.1924  -28.6188 H   0  0  0  0  0  0  0  0  0  0  0  0
   -7.4464   25.6377  -29.9987 H   0  0  0  0  0  0  0  0  0  0  0  0
   -6.5873   24.0602  -29.9987 H   0  0  0  0  0  0  0  0  0  0  0  0
   -5.6943   26.3344  -31.2817 H   0  0  0  0  0  0  0  0  0  0  0  0
   -4.8237   26.4357  -29.7034 H   0  0  0  0  0  0  0  0  0  0  0  0
   -6.4561   23.8935  -32.4051 H   0  0  0  0  0  0  0  0  0  0  0  0
   -6.9505   21.5080  -32.9243 H   0  0  0  0  0  0  0  0  0  0  0  0
   -5.5112   19.6979  -31.9950 H   0  0  0  0  0  0  0  0  0  0  0  0
   -3.5684   20.2678  -30.5403 H   0  0  0  0  0  0  0  0  0  0  0  0
   -1.9905   23.3163  -30.3696 H   0  0  0  0  0  0  0  0  0  0  0  0
   -3.0615   23.3400  -28.9194 H   0  0  0  0  0  0  0  0  0  0  0  0
   -3.5068   21.6733  -27.7334 H   0  0  0  0  0  0  0  0  0  0  0  0
   -2.7851   20.0105  -28.0007 H   0  0  0  0  0  0  0  0  0  0  0  0
   -2.1594   21.4610  -25.8559 H   0  0  0  0  0  0  0  0  0  0  0  0
   -0.9506   20.4296  -26.7104 H   0  0  0  0  0  0  0  0  0  0  0  0
   -0.0443   22.4407  -24.4748 H   0  0  0  0  0  0  0  0  0  0  0  0
   -0.1150   24.3030  -22.9680 H   0  0  0  0  0  0  0  0  0  0  0  0
   -0.8466   26.3727  -22.3380 H   0  0  0  0  0  0  0  0  0  0  0  0
    0.0430   27.4128  -23.5013 H   0  0  0  0  0  0  0  0  0  0  0  0
   -1.7532   27.3981  -23.5013 H   0  0  0  0  0  0  0  0  0  0  0  0
   -0.2000   23.6204  -28.7268 H   0  0  0  0  0  0  0  0  0  0  0  0
    1.0067   22.4042  -28.1607 H   0  0  0  0  0  0  0  0  0  0  0  0
   -0.3037   21.8885  -30.3519 H   0  0  0  0  0  0  0  0  0  0  0  0
   -0.1964   20.5956  -29.0890 H   0  0  0  0  0  0  0  0  0  0  0  0
  1  2  1  0
  2  3  1  0
  3  4  1  0
  4  5  2  0
  5  6  1  0
  6  7  2  0
  7  8  1  0
  8  9  2  0
  9 10  1  0
 10 11  1  0
 11 12  1  0
 12 13  1  0
 13 14  1  0
 14 15  1  0
 15 16  1  0
 16 17  2  0
 17 18  1  0
 18 19  1  0
 18 20  1  0
 20 21  2  0
 20 22  1  0
 22 23  1  0
 14 24  1  0
 24 25  1  0
  9  4  1  0
 25 11  1  0
 22 15  2  0
  1 26  1  0
  1 27  1  0
  1 28  1  0
  2 29  1  0
  2 30  1  0
  5 31  1  0
  6 32  1  0
  7 33  1  0
  8 34  1  0
 10 35  1  0
 10 36  1  0
 12 37  1  0
 12 38  1  0
 13 39  1  0
 13 40  1  0
 16 41  1  0
 17 42  1  0
 19 43  1  0
 19 44  1  0
 19 45  1  0
 24 46  1  0
 24 47  1  0
 25 48  1  0
 25 49  1  0
M  CHG  1  17   1
M  END
>  <UniqueID>  (9) 
9

>  <SMILES>  (9) 
CCOc1ccccc1CN1CCN(c2c[nH+]n(C)c(=O)c2Cl)CC1

>  <Energy>  (9) 
63.49029525847842

>  <Genealogy>  (9) 
CCOc1ccccc1CN1CCN(c2c[nH+]n(C)c(=O)c2Cl)CC1 (protonated)
CCOc1ccccc1CN1CCN(c2c[nH+]n(C)c(=O)c2Cl)CC1 (3D coordinates assigned)
CCOc1ccccc1CN1CCN(c2c[nH+]n(C)c(=O)c2Cl)CC1 (nonaromatic ring conformer: 63.49029525847842 kcal/mol)

>  <smiles>  (9) 
CCOc1ccccc1CN1CCN(c2cnn(C)c(=O)c2Cl)CC1

>  <score_type>  (9) 
oracle

>  <origin>  (9) 
adg

>  <m_score__min__energy>  (9) 
-8.4800000000000004

>  <m_primary>  (9) 
energy

$$$$
9:0
     RDKit          3D

 40 42  0  0  0  0  0  0  0  0999 V2000
   -6.4770   24.1880  -30.9800 C   0  0  0  0  0  0  0  0  0  0  0  0
   -6.5460   23.2890  -32.0820 O   0  0  0  0  0  0  0  0  0  0  0  0
   -7.3160   22.1150  -32.1060 C   0  0  0  0  0  0  0  0  0  0  0  0
   -8.7160   22.1430  -31.9670 C   0  0  0  0  0  0  0  0  0  0  0  0
   -9.4470   20.9570  -31.9430 C   0  0  0  0  0  0  0  0  0  0  0  0
   -8.7980   19.7300  -32.0590 C   0  0  0  0  0  0  0  0  0  0  0  0
   -7.4060   19.6740  -32.2200 C   0  0  0  0  0  0  0  0  0  0  0  0
   -6.7570   18.3540  -32.3510 C   0  0  0  0  0  0  0  0  0  0  0  0
   -6.5450   17.7790  -33.6120 C   0  0  0  0  0  0  0  0  0  0  0  0
   -5.9190   16.5370  -33.7140 C   0  0  0  0  0  0  0  0  0  0  0  0
   -5.5190   15.8740  -32.5520 C   0  0  0  0  0  0  0  0  0  0  0  0
   -5.7430   16.4350  -31.3330 N   0  0  0  0  0  0  0  0  0  0  0  0
   -6.3510   17.6470  -31.2100 C   0  0  0  0  0  0  0  0  0  0  0  0
   -6.6580   20.8770  -32.2500 C   0  0  0  0  0  0  0  0  0  0  0  0
   -5.2210   20.8480  -32.3480 N   0  0  0  0  0  0  0  0  0  0  0  0
   -4.3980   21.4110  -31.2730 C   0  0  0  0  0  0  0  0  0  0  0  0
   -3.2310   22.2420  -31.8470 C   0  0  0  0  0  0  0  0  0  0  0  0
   -2.7500   21.7860  -33.1680 N   0  0  0  0  0  0  0  0  0  0  0  0
   -3.0620   20.3780  -33.4400 C   0  0  0  0  0  0  0  0  0  0  0  0
   -4.5780   20.1680  -33.4790 C   0  0  0  0  0  0  0  0  0  0  0  0
   -6.5207   23.6192  -30.0395 H   0  0  0  0  0  0  0  0  0  0  0  0
   -5.5330   24.7509  -31.0246 H   0  0  0  0  0  0  0  0  0  0  0  0
   -7.3240   24.8884  -31.0246 H   0  0  0  0  0  0  0  0  0  0  0  0
   -9.2368   23.1077  -31.8767 H   0  0  0  0  0  0  0  0  0  0  0  0
  -10.5409   20.9898  -31.8320 H   0  0  0  0  0  0  0  0  0  0  0  0
   -9.3815   18.7982  -32.0241 H   0  0  0  0  0  0  0  0  0  0  0  0
   -6.8721   18.3069  -34.5199 H   0  0  0  0  0  0  0  0  0  0  0  0
   -5.7420   16.0839  -34.7006 H   0  0  0  0  0  0  0  0  0  0  0  0
   -5.0214   14.8955  -32.6224 H   0  0  0  0  0  0  0  0  0  0  0  0
   -5.4410   15.9250  -30.4730 H   0  0  0  0  0  0  0  0  0  0  0  0
   -6.5245   18.0736  -30.2110 H   0  0  0  0  0  0  0  0  0  0  0  0
   -5.0244   22.0586  -30.6420 H   0  0  0  0  0  0  0  0  0  0  0  0
   -3.9807   20.5831  -30.6810 H   0  0  0  0  0  0  0  0  0  0  0  0
   -3.5663   23.2852  -31.9440 H   0  0  0  0  0  0  0  0  0  0  0  0
   -2.3891   22.1260  -31.1486 H   0  0  0  0  0  0  0  0  0  0  0  0
   -3.2000   22.3730  -33.9120 H   0  0  0  0  0  0  0  0  0  0  0  0
   -2.6308   20.0917  -34.4106 H   0  0  0  0  0  0  0  0  0  0  0  0
   -2.6349   19.7557  -32.6398 H   0  0  0  0  0  0  0  0  0  0  0  0
   -4.9757   20.5758  -34.4200 H   0  0  0  0  0  0  0  0  0  0  0  0
   -4.7895   19.0905  -33.4129 H   0  0  0  0  0  0  0  0  0  0  0  0
  1  2  1  0
  2  3  1  0
  3  4  2  0
  4  5  1  0
  5  6  2  0
  6  7  1  0
  7  8  1  0
  8  9  2  0
  9 10  1  0
 10 11  2  0
 11 12  1  0
 12 13  2  0
  7 14  2  0
 14 15  1  0
 15 16  1  0
 16 17  1  0
 17 18  1  0
 18 19  1  0
 19 20  1  0
 14  3  1  0
 20 15  1  0
 13  8  1  0
  1 21  1  0
  1 22  1  0
  1 23  1  0
  4 24  1  0
  5 25  1  0
  6 26  1  0
  9 27  1  0
 10 28  1  0
 11 29  1  0
 12 30  1  0
 13 31  1  0
 16 32  1  0
 16 33  1  0
 17 34  1  0
 17 35  1  0
 18 36  1  0
 19 37  1  0
 19 38  1  0
 20 39  1  0
 20 40  1  0
M  CHG  1  12   1
M  END
>  <UniqueID>  (10) 
10

>  <SMILES>  (10) 
COc1cccc(-c2ccc[nH+]c2)c1N1CCNCC1

>  <Energy>  (10) 
56.320023607474866

>  <Genealogy>  (10) 
COc1cccc(-c2ccc[nH+]c2)c1N1CCNCC1 (protonated)
COc1cccc(-c2ccc[nH+]c2)c1N1CCNCC1 (3D coordinates assigned)
COc1cccc(-c2ccc[nH+]c2)c1N1CCNCC1 (nonaromatic ring conformer: 56.320023607474866 kcal/mol)

>  <smiles>  (10) 
COc1cccc(-c2cccnc2)c1N1CCNCC1

>  <score_type>  (10) 
oracle

>  <origin>  (10) 
adg

>  <m_score__min__energy>  (10) 
-6.8200000000000003

>  <m_primary>  (10) 
energy

$$$$
10:0
     RDKit          3D

 47 49  0  0  0  0  0  0  0  0999 V2000
   -2.8430   21.8300  -33.3620 C   0  0  0  0  0  0  0  0  0  0  0  0
   -3.8610   21.6250  -32.3190 N   0  0  0  0  0  0  0  0  0  0  0  0
   -3.9590   20.1910  -31.9480 C   0  0  0  0  0  0  0  0  0  0  0  0
   -4.0710   19.3310  -33.2100 C   0  0  0  0  0  0  0  0  0  0  0  0
   -5.3520   19.4820  -33.8220 O   0  0  0  0  0  0  0  0  0  0  0  0
   -6.5870   19.5310  -33.1500 C   0  0  0  0  0  0  0  0  0  0  0  0
   -7.2820   20.7410  -32.9520 C   0  0  0  0  0  0  0  0  0  0  0  0
   -8.5200   20.7500  -32.3060 C   0  0  0  0  0  0  0  0  0  0  0  0
   -9.0840   19.5570  -31.8570 C   0  0  0  0  0  0  0  0  0  0  0  0
   -8.4110   18.3500  -32.0480 C   0  0  0  0  0  0  0  0  0  0  0  0
   -7.1590   18.3240  -32.6870 C   0  0  0  0  0  0  0  0  0  0  0  0
   -6.4610   17.0280  -32.8640 C   0  0  0  0  0  0  0  0  0  0  0  0
   -6.6820   16.2570  -34.0190 C   0  0  0  0  0  0  0  0  0  0  0  0
   -6.0330   15.0300  -34.1840 C   0  0  0  0  0  0  0  0  0  0  0  0
   -5.1630   14.5590  -33.1970 C   0  0  0  0  0  0  0  0  0  0  0  0
   -4.9450   15.3140  -32.0410 C   0  0  0  0  0  0  0  0  0  0  0  0
   -5.5890   16.5430  -31.8730 C   0  0  0  0  0  0  0  0  0  0  0  0
   -3.5720   22.4870  -31.1530 C   0  0  0  0  0  0  0  0  0  0  0  0
   -4.7990   23.2670  -30.7490 C   0  0  0  0  0  0  0  0  0  0  0  0
   -6.0550   22.6390  -30.7160 C   0  0  0  0  0  0  0  0  0  0  0  0
   -7.1990   23.3690  -30.3790 C   0  0  0  0  0  0  0  0  0  0  0  0
   -7.1000   24.7280  -30.0760 C   0  0  0  0  0  0  0  0  0  0  0  0
   -5.8550   25.3630  -30.1090 C   0  0  0  0  0  0  0  0  0  0  0  0
   -4.7060   24.6390  -30.4460 C   0  0  0  0  0  0  0  0  0  0  0  0
   -3.4760   25.2890  -30.4770 O   0  0  0  0  0  0  0  0  0  0  0  0
   -1.8689   22.0262  -32.8901 H   0  0  0  0  0  0  0  0  0  0  0  0
   -2.7723   20.9281  -33.9877 H   0  0  0  0  0  0  0  0  0  0  0  0
   -3.1269   22.6890  -33.9877 H   0  0  0  0  0  0  0  0  0  0  0  0
   -3.0602   19.8978  -31.3857 H   0  0  0  0  0  0  0  0  0  0  0  0
   -4.8536   20.0388  -31.3263 H   0  0  0  0  0  0  0  0  0  0  0  0
   -3.2930   19.6381  -33.9244 H   0  0  0  0  0  0  0  0  0  0  0  0
   -3.9408   18.2760  -32.9270 H   0  0  0  0  0  0  0  0  0  0  0  0
   -6.8459   21.6856  -33.3091 H   0  0  0  0  0  0  0  0  0  0  0  0
   -9.0513   21.7007  -32.1511 H   0  0  0  0  0  0  0  0  0  0  0  0
  -10.0609   19.5672  -31.3515 H   0  0  0  0  0  0  0  0  0  0  0  0
   -8.8635   17.4113  -31.6959 H   0  0  0  0  0  0  0  0  0  0  0  0
   -7.3692   16.6214  -34.7968 H   0  0  0  0  0  0  0  0  0  0  0  0
   -6.2074   14.4343  -35.0921 H   0  0  0  0  0  0  0  0  0  0  0  0
   -4.6502   13.5949  -33.3297 H   0  0  0  0  0  0  0  0  0  0  0  0
   -4.2649   14.9399  -31.2616 H   0  0  0  0  0  0  0  0  0  0  0  0
   -5.4130   17.1334  -30.9617 H   0  0  0  0  0  0  0  0  0  0  0  0
   -3.2502   21.8580  -30.3099 H   0  0  0  0  0  0  0  0  0  0  0  0
   -2.7764   23.1959  -31.4259 H   0  0  0  0  0  0  0  0  0  0  0  0
   -6.1390   21.5688  -30.9562 H   0  0  0  0  0  0  0  0  0  0  0  0
   -8.1795   22.8711  -30.3526 H   0  0  0  0  0  0  0  0  0  0  0  0
   -8.0019   25.2994  -29.8112 H   0  0  0  0  0  0  0  0  0  0  0  0
   -5.7785   26.4339  -29.8696 H   0  0  0  0  0  0  0  0  0  0  0  0
  1  2  1  0
  2  3  1  0
  3  4  1  0
  4  5  1  0
  5  6  1  0
  6  7  2  0
  7  8  1  0
  8  9  2  0
  9 10  1  0
 10 11  2  0
 11 12  1  0
 12 13  2  0
 13 14  1  0
 14 15  2  0
 15 16  1  0
 16 17  2  0
  2 18  1  0
 18 19  1  0
 19 20  2  0
 20 21  1  0
 21 22  2  0
 22 23  1  0
 23 24  2  0
 24 25  1  0
 11  6  1  0
 17 12  1  0
 24 19  1  0
  1 26  1  0
  1 27  1  0
  1 28  1  0
  3 29  1  0
  3 30  1  0
  4 31  1  0
  4 32  1  0
  7 33  1  0
  8 34  1  0
  9 35  1  0
 10 36  1  0
 13 37  1  0
 14 38  1  0
 15 39  1  0
 16 40  1  0
 17 41  1  0
 18 42  1  0
 18 43  1  0
 20 44  1  0
 21 45  1  0
 22 46  1  0
 23 47  1  0
M  CHG  1  25  -1
M  END
>  <UniqueID>  (11) 
11

>  <SMILES>  (11) 
CN(CCOc1ccccc1-c1ccccc1)Cc1ccccc1[O-]

>  <Energy>  (11) 
54.921119576961644

>  <Genealogy>  (11) 
CN(CCOc1ccccc1-c1ccccc1)Cc1ccccc1[O-] (protonated)
CN(CCOc1ccccc1-c1ccccc1)Cc1ccccc1[O-] (3D coordinates assigned)
CN(CCOc1ccccc1-c1ccccc1)Cc1ccccc1[O-] (optimized conformer: 54.921119576961644 kcal/mol)

>  <smiles>  (11) 
CN(CCOc1ccccc1-c1ccccc1)Cc1ccccc1O

>  <score_type>  (11) 
oracle

>  <origin>  (11) 
adg

>  <m_score__min__energy>  (11) 
-11.77

>  <m_primary>  (11) 
energy

$$$$
11:0
     RDKit          3D

 45 47  0  0  0  0  0  0  0  0999 V2000
    1.2730   24.7390  -26.6190 C   0  0  0  0  0  0  0  0  0  0  0  0
    1.0580   24.4550  -27.9980 O   0  0  0  0  0  0  0  0  0  0  0  0
   -0.1950   24.1670  -28.5610 C   0  0  0  0  0  0  0  0  0  0  0  0
   -0.4170   23.0400  -29.3740 C   0  0  0  0  0  0  0  0  0  0  0  0
   -1.6840   22.7980  -29.9140 C   0  0  0  0  0  0  0  0  0  0  0  0
   -2.7450   23.6840  -29.6610 C   0  0  0  0  0  0  0  0  0  0  0  0
   -4.0630   23.4460  -30.1840 N   0  0  0  0  0  0  0  0  0  0  0  0
   -4.8640   24.4420  -30.8410 C   0  0  0  0  0  0  0  0  0  0  0  0
   -4.5240   25.6560  -30.8250 O   0  0  0  0  0  0  0  0  0  0  0  0
   -6.1530   24.0460  -31.4950 C   0  0  0  0  0  0  0  0  0  0  0  0
   -6.3350   22.5790  -31.4370 N   0  0  0  0  0  0  0  0  0  0  0  0
   -5.8920   21.9220  -32.6820 C   0  0  0  0  0  0  0  0  0  0  0  0
   -4.5390   21.3130  -32.4850 C   0  0  0  0  0  0  0  0  0  0  0  0
   -3.5680   21.1660  -33.4550 C   0  0  0  0  0  0  0  0  0  0  0  0
   -2.4980   20.5750  -32.8190 C   0  0  0  0  0  0  0  0  0  0  0  0
   -2.8820   20.3970  -31.5050 C   0  0  0  0  0  0  0  0  0  0  0  0
   -4.1040   20.8480  -31.3380 O   0  0  0  0  0  0  0  0  0  0  0  0
   -7.7080   22.1770  -31.0450 C   0  0  0  0  0  0  0  0  0  0  0  0
   -8.1450   20.8580  -31.6310 C   0  0  0  0  0  0  0  0  0  0  0  0
   -9.3470   20.6140  -32.2840 C   0  0  0  0  0  0  0  0  0  0  0  0
   -9.4830   19.2880  -32.7120 C   0  0  0  0  0  0  0  0  0  0  0  0
   -8.3950   18.4840  -32.3960 C   0  0  0  0  0  0  0  0  0  0  0  0
   -7.2640   19.4260  -31.5800 S   0  0  0  0  0  0  0  0  0  0  0  0
   -2.5260   24.7920  -28.8320 C   0  0  0  0  0  0  0  0  0  0  0  0
   -1.2590   25.0350  -28.2930 C   0  0  0  0  0  0  0  0  0  0  0  0
    0.7223   24.0115  -26.0046 H   0  0  0  0  0  0  0  0  0  0  0  0
    2.3475   24.6703  -26.3937 H   0  0  0  0  0  0  0  0  0  0  0  0
    0.9153   25.7545  -26.3937 H   0  0  0  0  0  0  0  0  0  0  0  0
    0.4100   22.3462  -29.5857 H   0  0  0  0  0  0  0  0  0  0  0  0
   -1.8510   21.9092  -30.5402 H   0  0  0  0  0  0  0  0  0  0  0  0
   -4.5040   22.5160  -29.9980 H   0  0  0  0  0  0  0  0  0  0  0  0
   -6.9887   24.5352  -30.9733 H   0  0  0  0  0  0  0  0  0  0  0  0
   -6.1278   24.3596  -32.5490 H   0  0  0  0  0  0  0  0  0  0  0  0
   -6.6101   21.1343  -32.9538 H   0  0  0  0  0  0  0  0  0  0  0  0
   -5.8378   22.6706  -33.4862 H   0  0  0  0  0  0  0  0  0  0  0  0
   -3.6344   21.4590  -34.5132 H   0  0  0  0  0  0  0  0  0  0  0  0
   -1.5321   20.3003  -33.2680 H   0  0  0  0  0  0  0  0  0  0  0  0
   -2.2595   19.9462  -30.7181 H   0  0  0  0  0  0  0  0  0  0  0  0
   -7.7473   22.0997  -29.9484 H   0  0  0  0  0  0  0  0  0  0  0  0
   -8.3915   22.9446  -31.4369 H   0  0  0  0  0  0  0  0  0  0  0  0
  -10.1143   21.3849  -32.4481 H   0  0  0  0  0  0  0  0  0  0  0  0
  -10.3688   18.9173  -33.2485 H   0  0  0  0  0  0  0  0  0  0  0  0
   -8.2907   17.4159  -32.6375 H   0  0  0  0  0  0  0  0  0  0  0  0
   -3.3569   25.4757  -28.6035 H   0  0  0  0  0  0  0  0  0  0  0  0
   -1.0975   25.9153  -27.6534 H   0  0  0  0  0  0  0  0  0  0  0  0
  1  2  1  0
  2  3  1  0
  3  4  2  0
  4  5  1  0
  5  6  2  0
  6  7  1  0
  7  8  1  0
  8  9  2  0
  8 10  1  0
 10 11  1  0
 11 12  1  0
 12 13  1  0
 13 14  2  0
 14 15  1  0
 15 16  2  0
 16 17  1  0
 11 18  1  0
 18 19  1  0
 19 20  2  0
 20 21  1  0
 21 22  2  0
 22 23  1  0
  6 24  1  0
 24 25  2  0
 25  3  1  0
 17 13  1  0
 23 19  1  0
  1 26  1  0
  1 27  1  0
  1 28  1  0
  4 29  1  0
  5 30  1  0
  7 31  1  0
 10 32  1  0
 10 33  1  0
 12 34  1  0
 12 35  1  0
 14 36  1  0
 15 37  1  0
 16 38  1  0
 18 39  1  0
 18 40  1  0
 20 41  1  0
 21 42  1  0
 22 43  1  0
 24 44  1  0
 25 45  1  0
M  END
>  <UniqueID>  (12) 
12

>  <SMILES>  (12) 
COc1ccc(NC(=O)CN(Cc2ccco2)Cc2cccs2)cc1

>  <Energy>  (12) 
102.29924032768888

>  <Genealogy>  (12) 
COc1ccc(NC(=O)CN(Cc2ccco2)Cc2cccs2)cc1 (3D coordinates assigned)
COc1ccc(NC(=O)CN(Cc2ccco2)Cc2cccs2)cc1 (optimized conformer: 102.29924032768888 kcal/mol)

>  <smiles>  (12) 
COc1ccc(NC(=O)CN(Cc2ccco2)Cc2cccs2)cc1

>  <score_type>  (12) 
oracle

>  <origin>  (12) 
adg

>  <m_score__min__energy>  (12) 
-8.5099999999999998

>  <m_primary>  (12) 
energy

$$$$
12:0
     RDKit          3D

 45 47  0  0  0  0  0  0  0  0999 V2000
   -2.8030   20.2750  -33.8240 C   0  0  0  0  0  0  0  0  0  0  0  0
   -3.6600   21.1070  -32.9260 C   0  0  0  0  0  0  0  0  0  0  0  0
   -3.0850   21.9200  -31.9450 C   0  0  0  0  0  0  0  0  0  0  0  0
   -3.9270   22.6730  -31.1220 C   0  0  0  0  0  0  0  0  0  0  0  0
   -3.3540   23.5660  -30.0670 C   0  0  0  0  0  0  0  0  0  0  0  0
   -5.2730   22.6120  -31.3000 N   0  0  0  0  0  0  0  0  0  0  0  0
   -5.8230   21.8280  -32.2670 C   0  0  0  0  0  0  0  0  0  0  0  0
   -7.3270   21.7730  -32.4170 C   0  0  2  0  0  0  0  0  0  0  0  0
   -8.1070   22.5740  -31.3810 C   0  0  0  0  0  0  0  0  0  0  0  0
   -9.4880   21.9430  -31.3880 C   0  0  0  0  0  0  0  0  0  0  0  0
   -9.3270   20.5900  -32.0840 C   0  0  0  0  0  0  0  0  0  0  0  0
   -7.9080   20.4150  -32.4360 N   0  0  0  0  0  0  0  0  0  0  0  0
   -7.2360   19.3670  -31.6210 C   0  0  0  0  0  0  0  0  0  0  0  0
   -6.4420   18.3570  -32.4120 C   0  0  0  0  0  0  0  0  0  0  0  0
   -6.1610   17.0480  -32.0500 C   0  0  0  0  0  0  0  0  0  0  0  0
   -5.4130   16.5530  -33.1040 C   0  0  0  0  0  0  0  0  0  0  0  0
   -4.8700   15.1630  -33.2140 C   0  0  0  0  0  0  0  0  0  0  0  0
   -5.3020   17.5080  -34.0500 N   0  0  0  0  0  0  0  0  0  0  0  0
   -4.5670   17.4160  -35.3090 C   0  0  0  0  0  0  0  0  0  0  0  0
   -5.9240   18.5980  -33.6320 N   0  0  0  0  0  0  0  0  0  0  0  0
   -5.0120   21.0700  -33.0560 N   0  0  0  0  0  0  0  0  0  0  0  0
   -2.1456   19.6367  -33.2154 H   0  0  0  0  0  0  0  0  0  0  0  0
   -3.4419   19.6435  -34.4588 H   0  0  0  0  0  0  0  0  0  0  0  0
   -2.1907   20.9323  -34.4588 H   0  0  0  0  0  0  0  0  0  0  0  0
   -1.9927   21.9661  -31.8233 H   0  0  0  0  0  0  0  0  0  0  0  0
   -3.6085   23.1694  -29.0730 H   0  0  0  0  0  0  0  0  0  0  0  0
   -2.2602   23.6075  -30.1762 H   0  0  0  0  0  0  0  0  0  0  0  0
   -3.7720   24.5776  -30.1762 H   0  0  0  0  0  0  0  0  0  0  0  0
   -7.4426   22.2356  -33.4083 H   0  0  0  0  0  0  0  0  0  0  0  0
   -7.6422   22.4853  -30.3880 H   0  0  0  0  0  0  0  0  0  0  0  0
   -8.1330   23.6494  -31.6109 H   0  0  0  0  0  0  0  0  0  0  0  0
   -9.8501   21.8032  -30.3587 H   0  0  0  0  0  0  0  0  0  0  0  0
  -10.2203   22.5794  -31.9064 H   0  0  0  0  0  0  0  0  0  0  0  0
   -9.6440   19.7835  -31.4064 H   0  0  0  0  0  0  0  0  0  0  0  0
   -9.9487   20.5548  -32.9908 H   0  0  0  0  0  0  0  0  0  0  0  0
   -6.5510   19.8665  -30.9201 H   0  0  0  0  0  0  0  0  0  0  0  0
   -8.0382   18.8045  -31.1208 H   0  0  0  0  0  0  0  0  0  0  0  0
   -6.4641   16.5221  -31.1326 H   0  0  0  0  0  0  0  0  0  0  0  0
   -4.7092   14.7514  -32.2067 H   0  0  0  0  0  0  0  0  0  0  0  0
   -5.5874   14.5311  -33.7581 H   0  0  0  0  0  0  0  0  0  0  0  0
   -3.9142   15.1847  -33.7581 H   0  0  0  0  0  0  0  0  0  0  0  0
   -3.4956   17.2819  -35.0991 H   0  0  0  0  0  0  0  0  0  0  0  0
   -4.9375   16.5572  -35.8880 H   0  0  0  0  0  0  0  0  0  0  0  0
   -4.7144   18.3396  -35.8880 H   0  0  0  0  0  0  0  0  0  0  0  0
   -6.0020   19.4860  -34.1750 H   0  0  0  0  0  0  0  0  0  0  0  0
  1  2  1  0
  2  3  2  0
  3  4  1  0
  4  5  1  0
  4  6  2  0
  6  7  1  0
  7  8  1  0
  8  9  1  0
  9 10  1  0
 10 11  1  0
 11 12  1  0
 12 13  1  0
 13 14  1  0
 14 15  1  0
 15 16  2  0
 16 17  1  0
 16 18  1  0
 18 19  1  0
 18 20  1  0
  7 21  2  0
 21  2  1  0
 12  8  1  0
 20 14  2  0
  1 22  1  0
  1 23  1  0
  1 24  1  0
  3 25  1  0
  5 26  1  0
  5 27  1  0
  5 28  1  0
  8 29  1  6
  9 30  1  0
  9 31  1  0
 10 32  1  0
 10 33  1  0
 11 34  1  0
 11 35  1  0
 13 36  1  0
 13 37  1  0
 15 38  1  0
 17 39  1  0
 17 40  1  0
 17 41  1  0
 19 42  1  0
 19 43  1  0
 19 44  1  0
 20 45  1  0
M  CHG  1  20   1
M  END
>  <UniqueID>  (13) 
13

>  <SMILES>  (13) 
Cc1cc(C)nc([C@@H]2CCCN2Cc2cc(C)n(C)[nH+]2)n1

>  <Energy>  (13) 
81.1283078916086

>  <Genealogy>  (13) 
Cc1cc(C)nc(C2CCCN2Cc2cc(C)n(C)[nH+]2)n1 (protonated)
Cc1cc(C)nc([C@@H]2CCCN2Cc2cc(C)n(C)[nH+]2)n1 (chirality)
Cc1cc(C)nc([C@@H]2CCCN2Cc2cc(C)n(C)[nH+]2)n1 (3D coordinates assigned)
Cc1cc(C)nc([C@@H]2CCCN2Cc2cc(C)n(C)[nH+]2)n1 (nonaromatic ring conformer: 81.1283078916086 kcal/mol)

>  <smiles>  (13) 
Cc1cc(C)nc(C2CCCN2Cc2cc(C)n(C)n2)n1

>  <score_type>  (13) 
oracle

>  <origin>  (13) 
adg

>  <m_score__min__energy>  (13) 
-6.6799999999999997

>  <m_primary>  (13) 
energy

$$$$
13:0
     RDKit          3D

 47 49  0  0  0  0  0  0  0  0999 V2000
   -6.1520   17.1460  -31.5420 C   0  0  0  0  0  0  0  0  0  0  0  0
   -5.1700   16.9840  -32.7000 C   0  0  0  0  0  0  0  0  0  0  0  0
   -4.8720   18.2910  -33.3330 N   0  0  0  0  0  0  0  0  0  0  0  0
   -3.5230   18.2930  -33.9410 C   0  0  0  0  0  0  0  0  0  0  0  0
   -2.8730   19.6740  -33.8340 C   0  0  0  0  0  0  0  0  0  0  0  0
   -5.9160   18.6710  -34.3220 C   0  0  0  0  0  0  0  0  0  0  0  0
   -6.6970   19.8870  -33.8200 C   0  0  0  0  0  0  0  0  0  0  0  0
   -6.3110   20.2410  -32.4520 N   0  0  0  0  0  0  0  0  0  0  0  0
   -6.1410   21.6080  -32.0230 C   0  0  0  0  0  0  0  0  0  0  0  0
   -7.1410   22.5440  -32.3460 C   0  0  0  0  0  0  0  0  0  0  0  0
   -6.9860   23.8910  -32.0510 C   0  0  0  0  0  0  0  0  0  0  0  0
   -5.8240   24.3440  -31.4450 C   0  0  0  0  0  0  0  0  0  0  0  0
   -4.7960   23.4470  -31.1030 C   0  0  0  0  0  0  0  0  0  0  0  0
   -3.6260   23.9350  -30.4970 C   0  0  0  0  0  0  0  0  0  0  0  0
   -3.4930   25.3000  -30.2450 O   0  0  0  0  0  0  0  0  0  0  0  0
   -2.5850   23.0610  -30.1520 C   0  0  0  0  0  0  0  0  0  0  0  0
   -1.4010   23.5650  -29.5780 C   0  0  0  0  0  0  0  0  0  0  0  0
   -0.3530   22.7090  -29.2480 C   0  0  0  0  0  0  0  0  0  0  0  0
   -0.4660   21.3440  -29.4920 C   0  0  0  0  0  0  0  0  0  0  0  0
   -1.6330   20.8240  -30.0550 C   0  0  0  0  0  0  0  0  0  0  0  0
   -2.7220   21.6670  -30.3790 C   0  0  0  0  0  0  0  0  0  0  0  0
   -3.9300   21.1600  -30.9310 C   0  0  0  0  0  0  0  0  0  0  0  0
   -4.1570   19.7830  -31.0110 O   0  0  0  0  0  0  0  0  0  0  0  0
   -4.9490   22.0540  -31.3650 C   0  0  0  0  0  0  0  0  0  0  0  0
   -5.6118   17.0569  -30.5879 H   0  0  0  0  0  0  0  0  0  0  0  0
   -6.6296   18.1351  -31.6019 H   0  0  0  0  0  0  0  0  0  0  0  0
   -6.9220   16.3627  -31.6019 H   0  0  0  0  0  0  0  0  0  0  0  0
   -4.2348   16.5473  -32.3197 H   0  0  0  0  0  0  0  0  0  0  0  0
   -5.6249   16.3256  -33.4547 H   0  0  0  0  0  0  0  0  0  0  0  0
   -2.8927   17.5578  -33.4193 H   0  0  0  0  0  0  0  0  0  0  0  0
   -3.6191   18.0334  -35.0056 H   0  0  0  0  0  0  0  0  0  0  0  0
   -2.7481   19.9393  -32.7738 H   0  0  0  0  0  0  0  0  0  0  0  0
   -1.8892   19.6553  -34.3256 H   0  0  0  0  0  0  0  0  0  0  0  0
   -3.5144   20.4202  -34.3256 H   0  0  0  0  0  0  0  0  0  0  0  0
   -5.4366   18.9169  -35.2810 H   0  0  0  0  0  0  0  0  0  0  0  0
   -6.6094   17.8276  -34.4560 H   0  0  0  0  0  0  0  0  0  0  0  0
   -6.4935   20.7416  -34.4820 H   0  0  0  0  0  0  0  0  0  0  0  0
   -7.7682   19.6371  -33.8244 H   0  0  0  0  0  0  0  0  0  0  0  0
   -5.8440   19.4970  -31.8870 H   0  0  0  0  0  0  0  0  0  0  0  0
   -8.0618   22.2018  -32.8411 H   0  0  0  0  0  0  0  0  0  0  0  0
   -7.7879   24.6020  -32.2988 H   0  0  0  0  0  0  0  0  0  0  0  0
   -5.7049   25.4161  -31.2295 H   0  0  0  0  0  0  0  0  0  0  0  0
   -1.3035   24.6442  -29.3888 H   0  0  0  0  0  0  0  0  0  0  0  0
    0.5643   23.1123  -28.7943 H   0  0  0  0  0  0  0  0  0  0  0  0
    0.3675   20.6717  -29.2403 H   0  0  0  0  0  0  0  0  0  0  0  0
   -1.7068   19.7438  -30.2494 H   0  0  0  0  0  0  0  0  0  0  0  0
   -3.8430   19.1850  -31.7600 H   0  0  0  0  0  0  0  0  0  0  0  0
  1  2  1  0
  2  3  1  0
  3  4  1  0
  4  5  1  0
  3  6  1  0
  6  7  1  0
  7  8  1  0
  8  9  1  0
  9 10  2  0
 10 11  1  0
 11 12  2  0
 12 13  1  0
 13 14  2  0
 14 15  1  0
 14 16  1  0
 16 17  2  0
 17 18  1  0
 18 19  2  0
 19 20  1  0
 20 21  2  0
 21 22  1  0
 22 23  1  0
 22 24  2  0
 24  9  1  0
 24 13  1  0
 21 16  1  0
  1 25  1  0
  1 26  1  0
  1 27  1  0
  2 28  1  0
  2 29  1  0
  4 30  1  0
  4 31  1  0
  5 32  1  0
  5 33  1  0
  5 34  1  0
  6 35  1  0
  6 36  1  0
  7 37  1  0
  7 38  1  0
  8 39  1  0
 10 40  1  0
 11 41  1  0
 12 42  1  0
 17 43  1  0
 18 44  1  0
 19 45  1  0
 20 46  1  0
 23 47  1  0
M  CHG  1  15  -1
M  END
>  <UniqueID>  (14) 
14

>  <SMILES>  (14) 
CCN(CC)CCNc1cccc2c([O-])c3ccccc3c(O)c12

>  <Energy>  (14) 
68.20548773878198

>  <Genealogy>  (14) 
CCN(CC)CCNc1cccc2c([O-])c3ccccc3c(O)c12 (protonated)
CCN(CC)CCNc1cccc2c([O-])c3ccccc3c(O)c12 (3D coordinates assigned)
CCN(CC)CCNc1cccc2c([O-])c3ccccc3c(O)c12 (optimized conformer: 68.20548773878198 kcal/mol)

>  <smiles>  (14) 
CCN(CC)CCNc1cccc2c(O)c3ccccc3c(O)c12

>  <score_type>  (14) 
oracle

>  <origin>  (14) 
adg

>  <m_score__min__energy>  (14) 
-9.1500000000000004

>  <m_primary>  (14) 
energy

$$$$
14:0
     RDKit          3D

 28 28  0  0  0  0  0  0  0  0999 V2000
   -9.1010   18.5760  -31.5970 C   0  0  0  0  0  0  0  0  0  0  0  0
   -8.1420   19.6810  -31.7520 N   0  0  0  0  0  0  0  0  0  0  0  0
   -7.1990   19.3930  -32.8470 C   0  0  0  0  0  0  0  0  0  0  0  0
   -6.3880   20.6380  -33.2780 C   0  0  0  0  0  0  0  0  0  0  0  0
   -6.4780   21.7890  -32.3430 N   0  0  0  0  0  0  0  0  0  0  0  0
   -5.4790   21.7500  -31.2420 C   0  0  0  0  0  0  0  0  0  0  0  0
   -4.5900   22.9970  -31.1240 C   0  0  0  0  0  0  0  0  0  0  0  0
   -5.3250   24.1610  -31.5960 N   0  0  0  0  0  0  0  0  0  0  0  0
   -5.5410   25.1120  -30.8450 N   0  0  0  0  0  0  0  0  0  0  0  0
   -5.7580   26.0630  -30.0950 N   0  0  0  0  0  0  0  0  0  0  0  0
   -7.8610   22.1150  -31.8910 C   0  0  0  0  0  0  0  0  0  0  0  0
   -8.8440   20.9410  -32.0120 C   0  0  0  0  0  0  0  0  0  0  0  0
   -9.2684   18.3831  -30.5271 H   0  0  0  0  0  0  0  0  0  0  0  0
  -10.0541   18.8481  -32.0740 H   0  0  0  0  0  0  0  0  0  0  0  0
   -8.6975   17.6707  -32.0740 H   0  0  0  0  0  0  0  0  0  0  0  0
   -6.4977   18.6145  -32.5121 H   0  0  0  0  0  0  0  0  0  0  0  0
   -7.7881   19.0628  -33.7152 H   0  0  0  0  0  0  0  0  0  0  0  0
   -5.3307   20.3464  -33.3624 H   0  0  0  0  0  0  0  0  0  0  0  0
   -6.8197   20.9765  -34.2315 H   0  0  0  0  0  0  0  0  0  0  0  0
   -6.1750   22.6150  -32.9150 H   0  0  0  0  0  0  0  0  0  0  0  0
   -6.0221   21.6278  -30.2933 H   0  0  0  0  0  0  0  0  0  0  0  0
   -4.8033   20.9128  -31.4711 H   0  0  0  0  0  0  0  0  0  0  0  0
   -4.3037   23.1454  -30.0723 H   0  0  0  0  0  0  0  0  0  0  0  0
   -3.6847   22.8619  -31.7340 H   0  0  0  0  0  0  0  0  0  0  0  0
   -7.8176   22.4241  -30.8362 H   0  0  0  0  0  0  0  0  0  0  0  0
   -8.2334   22.9146  -32.5482 H   0  0  0  0  0  0  0  0  0  0  0  0
   -9.6549   21.0659  -31.2793 H   0  0  0  0  0  0  0  0  0  0  0  0
   -9.2647   20.9210  -33.0282 H   0  0  0  0  0  0  0  0  0  0  0  0
  1  2  1  0
  2  3  1  0
  3  4  1  0
  4  5  1  0
  5  6  1  0
  6  7  1  0
  7  8  1  0
  8  9  2  0
  9 10  2  0
  5 11  1  0
 11 12  1  0
 12  2  1  0
  1 13  1  0
  1 14  1  0
  1 15  1  0
  3 16  1  0
  3 17  1  0
  4 18  1  0
  4 19  1  0
  5 20  1  0
  6 21  1  0
  6 22  1  0
  7 23  1  0
  7 24  1  0
 11 25  1  0
 11 26  1  0
 12 27  1  0
 12 28  1  0
M  CHG  3   5   1   9   1  10  -1
M  END
>  <UniqueID>  (15) 
15

>  <SMILES>  (15) 
CN1CC[NH+](CCN=[N+]=[N-])CC1

>  <Energy>  (15) 
37.231612184776054

>  <Genealogy>  (15) 
CN1CC[NH+](CCN=[N+]=[N-])CC1 (protonated)
CN1CC[NH+](CCN=[N+]=[N-])CC1 (3D coordinates assigned)
CN1CC[NH+](CCN=[N+]=[N-])CC1 (nonaromatic ring conformer: 37.231612184776054 kcal/mol)

>  <smiles>  (15) 
CN1CCN(CCN=[N+]=[N-])CC1

>  <score_type>  (15) 
oracle

>  <origin>  (15) 
adg

>  <m_score__min__energy>  (15) 
-4.3200000000000003

>  <m_primary>  (15) 
energy

$$$$
15:0
     RDKit          3D

 29 30  0  0  0  0  0  0  0  0999 V2000
   -2.4940   24.5310  -29.3400 C   0  0  0  0  0  0  0  0  0  0  0  0
   -3.4700   24.9770  -30.2760 O   0  0  0  0  0  0  0  0  0  0  0  0
   -4.6390   24.2700  -30.5980 C   0  0  0  0  0  0  0  0  0  0  0  0
   -4.5190   23.0920  -31.3430 C   0  0  0  0  0  0  0  0  0  0  0  0
   -5.6530   22.3520  -31.6900 C   0  0  0  0  0  0  0  0  0  0  0  0
   -6.9260   22.7880  -31.2940 C   0  0  0  0  0  0  0  0  0  0  0  0
   -8.3640   21.8550  -31.7060 S   0  0  0  0  0  0  0  0  0  0  0  0
   -8.8900   21.2210  -30.4490 O   0  0  0  0  0  0  0  0  0  0  0  0
   -9.4260   22.7650  -32.2600 O   0  0  0  0  0  0  0  0  0  0  0  0
   -7.9610   20.6030  -32.8640 N   0  0  0  0  0  0  0  0  0  0  0  0
   -9.0880   19.6930  -33.0820 C   0  0  0  0  0  0  0  0  0  0  0  0
   -9.1210   18.6420  -31.9850 C   0  0  0  0  0  0  0  0  0  0  0  0
   -7.4280   18.3910  -31.3990 S   0  0  0  0  0  0  0  0  0  0  0  0
   -6.8310   19.8000  -32.3870 C   0  0  0  0  0  0  0  0  0  0  0  0
   -7.0520   23.9630  -30.5450 C   0  0  0  0  0  0  0  0  0  0  0  0
   -5.9180   24.7030  -30.1990 C   0  0  0  0  0  0  0  0  0  0  0  0
   -2.8627   24.6995  -28.3174 H   0  0  0  0  0  0  0  0  0  0  0  0
   -2.3059   23.4576  -29.4898 H   0  0  0  0  0  0  0  0  0  0  0  0
   -1.5594   25.0914  -29.4898 H   0  0  0  0  0  0  0  0  0  0  0  0
   -3.5239   22.7452  -31.6584 H   0  0  0  0  0  0  0  0  0  0  0  0
   -5.5469   21.4262  -32.2746 H   0  0  0  0  0  0  0  0  0  0  0  0
  -10.0273   20.2652  -33.0678 H   0  0  0  0  0  0  0  0  0  0  0  0
   -8.9707   19.1969  -34.0567 H   0  0  0  0  0  0  0  0  0  0  0  0
   -9.7555   18.9880  -31.1557 H   0  0  0  0  0  0  0  0  0  0  0  0
   -9.5349   17.6991  -32.3719 H   0  0  0  0  0  0  0  0  0  0  0  0
   -6.1767   20.4282  -31.7646 H   0  0  0  0  0  0  0  0  0  0  0  0
   -6.2729   19.4175  -33.2543 H   0  0  0  0  0  0  0  0  0  0  0  0
   -8.0477   24.3058  -30.2271 H   0  0  0  0  0  0  0  0  0  0  0  0
   -6.0251   25.6275  -29.6126 H   0  0  0  0  0  0  0  0  0  0  0  0
  1  2  1  0
  2  3  1  0
  3  4  2  0
  4  5  1  0
  5  6  2  0
  6  7  1  0
  7  8  2  0
  7  9  2  0
  7 10  1  0
 10 11  1  0
 11 12  1  0
 12 13  1  0
 13 14  1  0
  6 15  1  0
 15 16  2  0
 16  3  1  0
 14 10  1  0
  1 17  1  0
  1 18  1  0
  1 19  1  0
  4 20  1  0
  5 21  1  0
 11 22  1  0
 11 23  1  0
 12 24  1  0
 12 25  1  0
 14 26  1  0
 14 27  1  0
 15 28  1  0
 16 29  1  0
M  END
>  <UniqueID>  (16) 
16

>  <SMILES>  (16) 
COc1ccc(S(=O)(=O)N2CCSC2)cc1

>  <Energy>  (16) 
25.39729157706648

>  <Genealogy>  (16) 
COc1ccc(S(=O)(=O)N2CCSC2)cc1 (3D coordinates assigned)
COc1ccc(S(=O)(=O)N2CCSC2)cc1 (nonaromatic ring conformer: 25.39729157706648 kcal/mol)

>  <smiles>  (16) 
COc1ccc(S(=O)(=O)N2CCSC2)cc1

>  <score_type>  (16) 
oracle

>  <origin>  (16) 
adg

>  <m_score__min__energy>  (16) 
-7.0899999999999999

>  <m_primary>  (16) 
energy

$$$$
16:0
     RDKit          3D

 43 45  0  0  0  0  0  0  0  0999 V2000
    0.9945   26.0223  -26.7936 H   0  0  0  0  0  0  0  0  0  0  0  0
    0.2960   25.5200  -27.4790 C   0  0  0  0  0  0  0  0  0  0  0  0
    0.6640   24.3780  -28.1170 N   0  0  0  0  0  0  0  0  0  0  0  0
   -0.1850   23.7420  -28.9670 C   0  0  0  0  0  0  0  0  0  0  0  0
    0.1292   22.8175  -29.4736 H   0  0  0  0  0  0  0  0  0  0  0  0
   -1.4610   24.2700  -29.1940 C   0  0  0  0  0  0  0  0  0  0  0  0
   -2.3530   23.5900  -30.0950 N   0  0  0  0  0  0  0  0  0  0  0  0
   -3.5410   23.9700  -30.4680 C   0  0  0  0  0  0  0  0  0  0  0  0
   -4.4310   23.0330  -30.8890 N   0  0  0  0  0  0  0  0  0  0  0  0
   -5.6870   23.3760  -31.2830 C   0  0  0  0  0  0  0  0  0  0  0  0
   -6.6270   22.3130  -31.7770 C   0  0  0  0  0  0  0  0  0  0  0  0
   -6.5718   22.2628  -32.8745 H   0  0  0  0  0  0  0  0  0  0  0  0
   -7.6491   22.5670  -31.4594 H   0  0  0  0  0  0  0  0  0  0  0  0
   -6.2670   21.0050  -31.2150 N   0  0  0  0  0  0  0  0  0  0  0  0
   -5.4600   21.1080  -30.5550 H   0  0  0  0  0  0  0  0  0  0  0  0
   -7.0740   20.6260  -30.6650 H   0  0  0  0  0  0  0  0  0  0  0  0
   -5.9220   20.0860  -32.2740 C   0  0  0  0  0  0  0  0  0  0  0  0
   -4.6730   20.1910  -32.9110 C   0  0  0  0  0  0  0  0  0  0  0  0
   -3.9750   20.9870  -32.6124 H   0  0  0  0  0  0  0  0  0  0  0  0
   -4.3100   19.2970  -33.9170 C   0  0  0  0  0  0  0  0  0  0  0  0
   -3.3321   19.3963  -34.4109 H   0  0  0  0  0  0  0  0  0  0  0  0
   -5.1870   18.2700  -34.3030 C   0  0  0  0  0  0  0  0  0  0  0  0
   -4.8680   17.3470  -35.3120 O   0  0  0  0  0  0  0  0  0  0  0  0
   -3.7000   16.5340  -35.3170 C   0  0  0  0  0  0  0  0  0  0  0  0
   -3.3961   16.3224  -34.2812 H   0  0  0  0  0  0  0  0  0  0  0  0
   -3.9137   15.5884  -35.8368 H   0  0  0  0  0  0  0  0  0  0  0  0
   -2.8875   17.0627  -35.8368 H   0  0  0  0  0  0  0  0  0  0  0  0
   -6.4250   18.1510  -33.6640 C   0  0  0  0  0  0  0  0  0  0  0  0
   -7.1137   17.3466  -33.9617 H   0  0  0  0  0  0  0  0  0  0  0  0
   -6.8030   19.0470  -32.6440 C   0  0  0  0  0  0  0  0  0  0  0  0
   -8.0350   18.9350  -31.9790 O   0  0  0  0  0  0  0  0  0  0  0  0
   -9.2700   19.4450  -32.4710 C   0  0  0  0  0  0  0  0  0  0  0  0
   -9.9193   19.7131  -31.6245 H   0  0  0  0  0  0  0  0  0  0  0  0
   -9.0796   20.3381  -33.0843 H   0  0  0  0  0  0  0  0  0  0  0  0
   -9.7652   18.6778  -33.0843 H   0  0  0  0  0  0  0  0  0  0  0  0
   -6.0690   24.7210  -31.2770 C   0  0  0  0  0  0  0  0  0  0  0  0
   -7.0741   25.0221  -31.6073 H   0  0  0  0  0  0  0  0  0  0  0  0
   -5.1470   25.6710  -30.8430 C   0  0  0  0  0  0  0  0  0  0  0  0
   -5.4229   26.7356  -30.8204 H   0  0  0  0  0  0  0  0  0  0  0  0
   -3.9080   25.2820  -30.4480 N   0  0  0  0  0  0  0  0  0  0  0  0
   -1.8240   25.4140  -28.5510 N   0  0  0  0  0  0  0  0  0  0  0  0
   -0.9760   26.0500  -27.7010 C   0  0  0  0  0  0  0  0  0  0  0  0
   -1.2890   26.9739  -27.1926 H   0  0  0  0  0  0  0  0  0  0  0  0
  1  2  1  0
  2  3  2  0
  3  4  1  0
  4  5  1  0
  4  6  2  0
  6  7  1  0
  7  8  2  0
  8  9  1  0
  9 10  2  0
 10 11  1  0
 11 12  1  0
 11 13  1  0
 11 14  1  0
 14 15  1  0
 14 16  1  0
 14 17  1  0
 17 18  2  0
 18 19  1  0
 18 20  1  0
 20 21  1  0
 20 22  2  0
 22 23  1  0
 23 24  1  0
 24 25  1  0
 24 26  1  0
 24 27  1  0
 22 28  1  0
 28 29  1  0
 28 30  2  0
 30 31  1  0
 31 32  1  0
 32 33  1  0
 32 34  1  0
 32 35  1  0
 10 36  1  0
 36 37  1  0
 36 38  2  0
 38 39  1  0
 38 40  1  0
  6 41  1  0
 41 42  2  0
 42 43  1  0
 42  2  1  0
 40  8  1  0
 30 17  1  0
M  CHG  2  14   1  40  -1
M  END
>  <UniqueID>  (17) 
17

>  <SMILES>  (17) 
COc1ccc([NH2+]Cc2cc[n-]/c(=N\c3cnccn3)n2)c(OC)c1

>  <Energy>  (17) 
50.233132978004534

>  <Genealogy>  (17) 
COc1ccc([NH2+]Cc2cc[n-]c(=Nc3cnccn3)n2)c(OC)c1 (protonated)
COc1ccc([NH2+]Cc2cc[n-]/c(=N\c3cnccn3)n2)c(OC)c1 (cis-trans isomerization)
COc1ccc([NH2+]Cc2cc[n-]/c(=N\c3cnccn3)n2)c(OC)c1 (3D coordinates assigned)
COc1ccc([NH2+]Cc2cc[n-]/c(=N\c3cnccn3)n2)c(OC)c1 (optimized conformer: 50.233132978004534 kcal/mol)

>  <smiles>  (17) 
COc1ccc(NCc2cc[nH]c(=Nc3cnccn3)n2)c(OC)c1

>  <score_type>  (17) 
oracle

>  <origin>  (17) 
adg

>  <m_score__min__energy>  (17) 
-8.2400000000000002

>  <m_primary>  (17) 
energy

$$$$
17:0
     RDKit          3D

 51 53  0  0  0  0  0  0  0  0999 V2000
   -2.6340   23.0430  -30.1010 C   0  0  0  0  0  0  0  0  0  0  0  0
   -2.6480   21.7880  -30.9640 C   0  0  0  0  0  0  0  0  0  0  0  0
   -3.3870   22.0080  -32.2180 N   0  0  0  0  0  0  0  0  0  0  0  0
   -2.7620   21.5390  -33.4690 C   0  0  0  0  0  0  0  0  0  0  0  0
   -1.3050   21.1020  -33.2920 C   0  0  0  0  0  0  0  0  0  0  0  0
   -4.8180   22.1380  -32.1320 C   0  0  0  0  0  0  0  0  0  0  0  0
   -5.3680   23.4180  -31.9770 C   0  0  0  0  0  0  0  0  0  0  0  0
   -6.7470   23.6010  -31.9060 C   0  0  0  0  0  0  0  0  0  0  0  0
   -7.6080   22.5010  -31.9880 C   0  0  0  0  0  0  0  0  0  0  0  0
   -8.9960   22.6770  -31.8950 C   0  0  0  0  0  0  0  0  0  0  0  0
   -9.8500   21.5740  -31.9540 C   0  0  0  0  0  0  0  0  0  0  0  0
   -9.3290   20.2880  -32.1100 C   0  0  0  0  0  0  0  0  0  0  0  0
   -7.9430   20.0940  -32.2170 C   0  0  0  0  0  0  0  0  0  0  0  0
   -7.0730   21.2000  -32.1530 C   0  0  0  0  0  0  0  0  0  0  0  0
   -5.6740   21.0110  -32.2160 C   0  0  0  0  0  0  0  0  0  0  0  0
   -5.1640   19.6160  -32.3680 C   0  0  0  0  0  0  0  0  0  0  0  0
   -3.9680   19.3380  -32.0830 O   0  0  0  0  0  0  0  0  0  0  0  0
   -6.0230   18.5760  -32.8910 N   0  0  2  0  0  0  0  0  0  0  0  0
   -5.9910   18.6190  -34.3710 C   0  0  0  0  0  0  0  0  0  0  0  0
   -5.1530   17.4760  -34.9740 C   0  0  0  0  0  0  0  0  0  0  0  0
   -4.7610   16.5140  -33.9190 N   0  0  0  0  0  0  0  0  0  0  0  0
   -5.7090   15.3870  -33.8500 C   0  0  0  0  0  0  0  0  0  0  0  0
   -3.4070   15.9960  -34.1700 C   0  0  0  0  0  0  0  0  0  0  0  0
   -7.3710   18.7400  -32.3950 C   0  0  0  0  0  0  0  0  0  0  0  0
   -8.0750   17.7220  -32.1430 O   0  0  0  0  0  0  0  0  0  0  0  0
   -2.6372   22.7575  -29.0387 H   0  0  0  0  0  0  0  0  0  0  0  0
   -1.7293   23.6289  -30.3205 H   0  0  0  0  0  0  0  0  0  0  0  0
   -3.5254   23.6489  -30.3205 H   0  0  0  0  0  0  0  0  0  0  0  0
   -1.6119   21.5066  -31.2036 H   0  0  0  0  0  0  0  0  0  0  0  0
   -3.1496   20.9864  -30.4020 H   0  0  0  0  0  0  0  0  0  0  0  0
   -3.3395   20.6830  -33.8482 H   0  0  0  0  0  0  0  0  0  0  0  0
   -2.7650   22.3853  -34.1717 H   0  0  0  0  0  0  0  0  0  0  0  0
   -1.0710   21.0318  -32.2195 H   0  0  0  0  0  0  0  0  0  0  0  0
   -1.1568   20.1199  -33.7647 H   0  0  0  0  0  0  0  0  0  0  0  0
   -0.6407   21.8404  -33.7647 H   0  0  0  0  0  0  0  0  0  0  0  0
   -4.7011   24.2903  -31.9105 H   0  0  0  0  0  0  0  0  0  0  0  0
   -7.1604   24.6132  -31.7851 H   0  0  0  0  0  0  0  0  0  0  0  0
   -9.4135   23.6876  -31.7751 H   0  0  0  0  0  0  0  0  0  0  0  0
  -10.9377   21.7187  -31.8773 H   0  0  0  0  0  0  0  0  0  0  0  0
  -10.0077   19.4232  -32.1492 H   0  0  0  0  0  0  0  0  0  0  0  0
   -5.6540   17.6510  -32.5630 H   0  0  0  0  0  0  0  0  0  0  0  0
   -7.0209   18.5392  -34.7490 H   0  0  0  0  0  0  0  0  0  0  0  0
   -5.5246   19.5697  -34.6687 H   0  0  0  0  0  0  0  0  0  0  0  0
   -5.7478   16.9541  -35.7381 H   0  0  0  0  0  0  0  0  0  0  0  0
   -4.2446   17.8993  -35.4275 H   0  0  0  0  0  0  0  0  0  0  0  0
   -5.9135   15.1439  -32.7969 H   0  0  0  0  0  0  0  0  0  0  0  0
   -6.6477   15.6663  -34.3508 H   0  0  0  0  0  0  0  0  0  0  0  0
   -5.2731   14.5100  -34.3508 H   0  0  0  0  0  0  0  0  0  0  0  0
   -2.9043   15.8037  -33.2107 H   0  0  0  0  0  0  0  0  0  0  0  0
   -3.4731   15.0597  -34.7435 H   0  0  0  0  0  0  0  0  0  0  0  0
   -2.8313   16.7374  -34.7435 H   0  0  0  0  0  0  0  0  0  0  0  0
  1  2  1  0
  2  3  1  0
  3  4  1  0
  4  5  1  0
  3  6  1  0
  6  7  2  0
  7  8  1  0
  8  9  2  0
  9 10  1  0
 10 11  2  0
 11 12  1  0
 12 13  2  0
 13 14  1  0
 14 15  2  0
 15 16  1  0
 16 17  2  0
 16 18  1  0
 18 19  1  0
 19 20  1  0
 20 21  1  0
 21 22  1  0
 21 23  1  0
 18 24  1  0
 24 25  2  0
 15  6  1  0
 14  9  1  0
 24 13  1  0
  1 26  1  0
  1 27  1  0
  1 28  1  0
  2 29  1  0
  2 30  1  0
  4 31  1  0
  4 32  1  0
  5 33  1  0
  5 34  1  0
  5 35  1  0
  7 36  1  0
  8 37  1  0
 10 38  1  0
 11 39  1  0
 12 40  1  0
 18 41  1  6
 19 42  1  0
 19 43  1  0
 20 44  1  0
 20 45  1  0
 22 46  1  0
 22 47  1  0
 22 48  1  0
 23 49  1  0
 23 50  1  0
 23 51  1  0
M  CHG  1  18   1
M  END
>  <UniqueID>  (18) 
18

>  <SMILES>  (18) 
CCN(CC)c1ccc2cccc3c2c1C(=O)[N@H+](CCN(C)C)C3=O

>  <Energy>  (18) 
65.4627094260952

>  <Genealogy>  (18) 
CCN(CC)c1ccc2cccc3c2c1C(=O)[NH+](CCN(C)C)C3=O (protonated)
CCN(CC)c1ccc2cccc3c2c1C(=O)[N@H+](CCN(C)C)C3=O (chirality)
CCN(CC)c1ccc2cccc3c2c1C(=O)[N@H+](CCN(C)C)C3=O (3D coordinates assigned)
CCN(CC)c1ccc2cccc3c2c1C(=O)[N@H+](CCN(C)C)C3=O (nonaromatic ring conformer: 65.4627094260952 kcal/mol)

>  <smiles>  (18) 
CCN(CC)c1ccc2cccc3c2c1C(=O)N(CCN(C)C)C3=O

>  <score_type>  (18) 
oracle

>  <origin>  (18) 
adg

>  <m_score__min__energy>  (18) 
-7.2300000000000004

>  <m_primary>  (18) 
energy

$$$$
18:0
     RDKit          3D

 60 62  0  0  0  0  0  0  0  0999 V2000
   -1.9210   19.5810  -33.8830 C   0  0  0  0  0  0  0  0  0  0  0  0
   -3.4090   19.2600  -33.8430 C   0  0  0  0  0  0  0  0  0  0  0  0
   -3.6320   17.8720  -34.3270 N   0  0  0  0  0  0  0  0  0  0  0  0
   -3.4450   16.8760  -33.2460 C   0  0  0  0  0  0  0  0  0  0  0  0
   -4.1920   15.5800  -33.5600 C   0  0  0  0  0  0  0  0  0  0  0  0
   -4.9660   17.7170  -34.9510 C   0  0  0  0  0  0  0  0  0  0  0  0
   -5.9760   18.6990  -34.3410 C   0  0  0  0  0  0  0  0  0  0  0  0
   -6.3980   18.2330  -33.0010 N   0  0  0  0  0  0  0  0  0  0  0  0
   -7.2550   17.0380  -33.0910 C   0  0  0  0  0  0  0  0  0  0  0  0
   -6.9460   19.3250  -32.1470 C   0  0  2  0  0  0  0  0  0  0  0  0
   -8.3780   18.9830  -31.6600 C   0  0  0  0  0  0  0  0  0  0  0  0
   -9.4410   19.9240  -32.2360 C   0  0  0  0  0  0  0  0  0  0  0  0
   -9.0920   21.4090  -31.9970 C   0  0  0  0  0  0  0  0  0  0  0  0
   -7.6320   21.6770  -31.9400 N   0  0  0  0  0  0  0  0  0  0  0  0
   -7.3280   23.0770  -32.3040 C   0  0  0  0  0  0  0  0  0  0  0  0
   -6.3880   23.7000  -31.2940 C   0  0  0  0  0  0  0  0  0  0  0  0
   -6.8810   24.7020  -30.4420 C   0  0  0  0  0  0  0  0  0  0  0  0
   -6.0460   25.2850  -29.4900 C   0  0  0  0  0  0  0  0  0  0  0  0
   -4.7550   24.8840  -29.3780 N   0  0  0  0  0  0  0  0  0  0  0  0
   -4.2330   23.9130  -30.1730 C   0  0  0  0  0  0  0  0  0  0  0  0
   -2.8950   23.5350  -30.0120 C   0  0  0  0  0  0  0  0  0  0  0  0
   -2.3460   22.5350  -30.8160 C   0  0  0  0  0  0  0  0  0  0  0  0
   -3.1310   21.9030  -31.7820 C   0  0  0  0  0  0  0  0  0  0  0  0
   -4.4690   22.2710  -31.9560 C   0  0  0  0  0  0  0  0  0  0  0  0
   -5.0400   23.2850  -31.1560 C   0  0  0  0  0  0  0  0  0  0  0  0
   -6.8690   20.7380  -32.7820 C   0  0  0  0  0  0  0  0  0  0  0  0
   -1.5361   19.6640  -32.8559 H   0  0  0  0  0  0  0  0  0  0  0  0
   -1.3866   18.7775  -34.4110 H   0  0  0  0  0  0  0  0  0  0  0  0
   -1.7654   20.5334  -34.4110 H   0  0  0  0  0  0  0  0  0  0  0  0
   -3.7757   19.3510  -32.8099 H   0  0  0  0  0  0  0  0  0  0  0  0
   -3.9526   19.9646  -34.4896 H   0  0  0  0  0  0  0  0  0  0  0  0
   -2.3723   16.6564  -33.1408 H   0  0  0  0  0  0  0  0  0  0  0  0
   -3.8463   17.2941  -32.3110 H   0  0  0  0  0  0  0  0  0  0  0  0
   -4.4776   15.0845  -32.6204 H   0  0  0  0  0  0  0  0  0  0  0  0
   -5.0961   15.8099  -34.1428 H   0  0  0  0  0  0  0  0  0  0  0  0
   -3.5399   14.9129  -34.1428 H   0  0  0  0  0  0  0  0  0  0  0  0
   -4.8829   17.9108  -36.0306 H   0  0  0  0  0  0  0  0  0  0  0  0
   -5.3207   16.6917  -34.7698 H   0  0  0  0  0  0  0  0  0  0  0  0
   -5.5089   19.6907  -34.2502 H   0  0  0  0  0  0  0  0  0  0  0  0
   -6.8588   18.7576  -34.9947 H   0  0  0  0  0  0  0  0  0  0  0  0
   -7.5052   16.6891  -32.0782 H   0  0  0  0  0  0  0  0  0  0  0  0
   -8.1797   17.2898  -33.6310 H   0  0  0  0  0  0  0  0  0  0  0  0
   -6.7200   16.2429  -33.6310 H   0  0  0  0  0  0  0  0  0  0  0  0
   -6.2827   19.3802  -31.2712 H   0  0  0  0  0  0  0  0  0  0  0  0
   -8.6168   17.9537  -31.9657 H   0  0  0  0  0  0  0  0  0  0  0  0
   -8.3921   19.0971  -30.5660 H   0  0  0  0  0  0  0  0  0  0  0  0
   -9.5212   19.7482  -33.3189 H   0  0  0  0  0  0  0  0  0  0  0  0
  -10.3926   19.7131  -31.7262 H   0  0  0  0  0  0  0  0  0  0  0  0
   -9.5225   22.0033  -32.8164 H   0  0  0  0  0  0  0  0  0  0  0  0
   -9.5080   21.6835  -31.0164 H   0  0  0  0  0  0  0  0  0  0  0  0
   -6.8560   23.0976  -33.2974 H   0  0  0  0  0  0  0  0  0  0  0  0
   -8.2661   23.6513  -32.3155 H   0  0  0  0  0  0  0  0  0  0  0  0
   -7.9284   25.0274  -30.5262 H   0  0  0  0  0  0  0  0  0  0  0  0
   -6.4351   26.0724  -28.8278 H   0  0  0  0  0  0  0  0  0  0  0  0
   -2.2741   24.0277  -29.2493 H   0  0  0  0  0  0  0  0  0  0  0  0
   -1.2928   22.2443  -30.6883 H   0  0  0  0  0  0  0  0  0  0  0  0
   -2.6950   21.1116  -32.4094 H   0  0  0  0  0  0  0  0  0  0  0  0
   -5.0798   21.7679  -32.7201 H   0  0  0  0  0  0  0  0  0  0  0  0
   -7.3007   20.7132  -33.7935 H   0  0  0  0  0  0  0  0  0  0  0  0
   -5.8200   21.0621  -32.8488 H   0  0  0  0  0  0  0  0  0  0  0  0
  1  2  1  0
  2  3  1  0
  3  4  1  0
  4  5  1  0
  3  6  1  0
  6  7  1  0
  7  8  1  0
  8  9  1  0
  8 10  1  0
 10 11  1  0
 11 12  1  0
 12 13  1  0
 13 14  1  0
 14 15  1  0
 15 16  1  0
 16 17  2  0
 17 18  1  0
 18 19  2  0
 19 20  1  0
 20 21  2  0
 21 22  1  0
 22 23  2  0
 23 24  1  0
 24 25  2  0
 14 26  1  0
 26 10  1  0
 25 16  1  0
 25 20  1  0
  1 27  1  0
  1 28  1  0
  1 29  1  0
  2 30  1  0
  2 31  1  0
  4 32  1  0
  4 33  1  0
  5 34  1  0
  5 35  1  0
  5 36  1  0
  6 37  1  0
  6 38  1  0
  7 39  1  0
  7 40  1  0
  9 41  1  0
  9 42  1  0
  9 43  1  0
 10 44  1  1
 11 45  1  0
 11 46  1  0
 12 47  1  0
 12 48  1  0
 13 49  1  0
 13 50  1  0
 15 51  1  0
 15 52  1  0
 17 53  1  0
 18 54  1  0
 21 55  1  0
 22 56  1  0
 23 57  1  0
 24 58  1  0
 26 59  1  0
 26 60  1  0
M  END
>  <UniqueID>  (19) 
19

>  <SMILES>  (19) 
CCN(CC)CCN(C)[C@@H]1CCCN(Cc2ccnc3ccccc23)C1

>  <Energy>  (19) 
77.41350251950605

>  <Genealogy>  (19) 
CCN(CC)CCN(C)[C@@H]1CCCN(Cc2ccnc3ccccc23)C1 (chirality)
CCN(CC)CCN(C)[C@@H]1CCCN(Cc2ccnc3ccccc23)C1 (3D coordinates assigned)
CCN(CC)CCN(C)[C@@H]1CCCN(Cc2ccnc3ccccc23)C1 (nonaromatic ring conformer: 77.41350251950605 kcal/mol)

>  <smiles>  (19) 
CCN(CC)CCN(C)C1CCCN(Cc2ccnc3ccccc23)C1

>  <score_type>  (19) 
oracle

>  <origin>  (19) 
adg

>  <m_score__min__energy>  (19) 
-8.3900000000000006

>  <m_primary>  (19) 
energy

$$$$
19:0
     RDKit          3D

 49 51  0  0  0  0  0  0  0  0999 V2000
    0.4960   26.9280  -26.8030 C   0  0  0  0  0  0  0  0  0  0  0  0
   -0.0400   26.0850  -27.8180 O   0  0  0  0  0  0  0  0  0  0  0  0
   -1.2720   25.4210  -27.7280 C   0  0  0  0  0  0  0  0  0  0  0  0
   -2.0270   25.5780  -26.5610 C   0  0  0  0  0  0  0  0  0  0  0  0
   -3.2580   24.9330  -26.4190 C   0  0  0  0  0  0  0  0  0  0  0  0
   -3.7470   24.1240  -27.4470 C   0  0  0  0  0  0  0  0  0  0  0  0
   -3.0090   23.9590  -28.6280 C   0  0  0  0  0  0  0  0  0  0  0  0
   -3.5340   23.0700  -29.7270 C   0  0  0  0  0  0  0  0  0  0  0  0
   -4.0520   23.8720  -30.8580 N   0  0  0  0  0  0  0  0  0  0  0  0
   -4.6950   23.0250  -31.8950 C   0  0  0  0  0  0  0  0  0  0  0  0
   -6.1650   23.3910  -32.1760 C   0  0  0  0  0  0  0  0  0  0  0  0
   -6.9380   23.5860  -30.9310 N   0  0  0  0  0  0  0  0  0  0  0  0
   -7.3070   22.3130  -30.2720 C   0  0  0  0  0  0  0  0  0  0  0  0
   -8.0450   21.3970  -31.2240 C   0  0  0  0  0  0  0  0  0  0  0  0
   -9.4140   21.6070  -31.4520 C   0  0  0  0  0  0  0  0  0  0  0  0
  -10.1200   20.7680  -32.3110 C   0  0  0  0  0  0  0  0  0  0  0  0
   -9.4560   19.7170  -32.9400 C   0  0  0  0  0  0  0  0  0  0  0  0
   -8.1300   19.5140  -32.7170 N   0  0  0  0  0  0  0  0  0  0  0  0
   -7.4050   20.3180  -31.8830 C   0  0  0  0  0  0  0  0  0  0  0  0
   -5.9390   20.0350  -31.6770 C   0  0  0  0  0  0  0  0  0  0  0  0
   -6.3040   24.5440  -29.9890 C   0  0  0  0  0  0  0  0  0  0  0  0
   -4.9000   25.0040  -30.4230 C   0  0  0  0  0  0  0  0  0  0  0  0
   -1.7690   24.6070  -28.7660 C   0  0  0  0  0  0  0  0  0  0  0  0
    0.2374   26.5213  -25.8142 H   0  0  0  0  0  0  0  0  0  0  0  0
    1.5902   26.9750  -26.9054 H   0  0  0  0  0  0  0  0  0  0  0  0
    0.0744   27.9388  -26.9054 H   0  0  0  0  0  0  0  0  0  0  0  0
   -1.6482   26.2149  -25.7480 H   0  0  0  0  0  0  0  0  0  0  0  0
   -3.8428   25.0625  -25.4964 H   0  0  0  0  0  0  0  0  0  0  0  0
   -4.7147   23.6143  -27.3299 H   0  0  0  0  0  0  0  0  0  0  0  0
   -2.7193   22.4247  -30.0873 H   0  0  0  0  0  0  0  0  0  0  0  0
   -4.3573   22.4629  -29.3226 H   0  0  0  0  0  0  0  0  0  0  0  0
   -4.1265   23.1315  -32.8307 H   0  0  0  0  0  0  0  0  0  0  0  0
   -4.6900   21.9934  -31.5132 H   0  0  0  0  0  0  0  0  0  0  0  0
   -6.1930   24.3226  -32.7603 H   0  0  0  0  0  0  0  0  0  0  0  0
   -6.6212   22.5577  -32.7306 H   0  0  0  0  0  0  0  0  0  0  0  0
   -6.3920   21.8095  -29.9267 H   0  0  0  0  0  0  0  0  0  0  0  0
   -7.9692   22.5396  -29.4234 H   0  0  0  0  0  0  0  0  0  0  0  0
   -9.9316   22.4378  -30.9501 H   0  0  0  0  0  0  0  0  0  0  0  0
  -11.1924   20.9338  -32.4912 H   0  0  0  0  0  0  0  0  0  0  0  0
  -10.0062   19.0492  -33.6192 H   0  0  0  0  0  0  0  0  0  0  0  0
   -7.6680   18.7150  -33.2060 H   0  0  0  0  0  0  0  0  0  0  0  0
   -5.7215   19.9930  -30.5995 H   0  0  0  0  0  0  0  0  0  0  0  0
   -5.6830   19.0709  -32.1406 H   0  0  0  0  0  0  0  0  0  0  0  0
   -5.3425   20.8346  -32.1406 H   0  0  0  0  0  0  0  0  0  0  0  0
   -6.9502   25.4306  -29.9085 H   0  0  0  0  0  0  0  0  0  0  0  0
   -6.1873   24.0201  -29.0288 H   0  0  0  0  0  0  0  0  0  0  0  0
   -5.0015   25.7124  -31.2584 H   0  0  0  0  0  0  0  0  0  0  0  0
   -4.4154   25.4759  -29.5555 H   0  0  0  0  0  0  0  0  0  0  0  0
   -1.1838   24.4782  -29.6885 H   0  0  0  0  0  0  0  0  0  0  0  0
  1  2  1  0
  2  3  1  0
  3  4  2  0
  4  5  1  0
  5  6  2  0
  6  7  1  0
  7  8  1  0
  8  9  1  0
  9 10  1  0
 10 11  1  0
 11 12  1  0
 12 13  1  0
 13 14  1  0
 14 15  2  0
 15 16  1  0
 16 17  2  0
 17 18  1  0
 18 19  2  0
 19 20  1  0
 12 21  1  0
 21 22  1  0
  7 23  2  0
 23  3  1  0
 22  9  1  0
 19 14  1  0
  1 24  1  0
  1 25  1  0
  1 26  1  0
  4 27  1  0
  5 28  1  0
  6 29  1  0
  8 30  1  0
  8 31  1  0
 10 32  1  0
 10 33  1  0
 11 34  1  0
 11 35  1  0
 13 36  1  0
 13 37  1  0
 15 38  1  0
 16 39  1  0
 17 40  1  0
 18 41  1  0
 20 42  1  0
 20 43  1  0
 20 44  1  0
 21 45  1  0
 21 46  1  0
 22 47  1  0
 22 48  1  0
 23 49  1  0
M  CHG  1  18   1
M  END
>  <UniqueID>  (20) 
20

>  <SMILES>  (20) 
COc1cccc(CN2CCN(Cc3ccc[nH+]c3C)CC2)c1

>  <Energy>  (20) 
65.6024326029566

>  <Genealogy>  (20) 
COc1cccc(CN2CCN(Cc3ccc[nH+]c3C)CC2)c1 (protonated)
COc1cccc(CN2CCN(Cc3ccc[nH+]c3C)CC2)c1 (3D coordinates assigned)
COc1cccc(CN2CCN(Cc3ccc[nH+]c3C)CC2)c1 (nonaromatic ring conformer: 65.6024326029566 kcal/mol)

>  <smiles>  (20) 
COc1cccc(CN2CCN(Cc3cccnc3C)CC2)c1

>  <score_type>  (20) 
oracle

>  <origin>  (20) 
adg

>  <m_score__min__energy>  (20) 
-8.1400000000000006

>  <m_primary>  (20) 
energy

$$$$
20:0
     RDKit          3D

 54 56  0  0  0  0  0  0  0  0999 V2000
    2.4130   24.5660  -27.7850 C   0  0  0  0  0  0  0  0  0  0  0  0
    1.0310   24.7220  -28.0910 O   0  0  0  0  0  0  0  0  0  0  0  0
    0.0360   25.0380  -27.1520 C   0  0  0  0  0  0  0  0  0  0  0  0
    0.3550   25.4470  -25.8410 C   0  0  0  0  0  0  0  0  0  0  0  0
   -0.6570   25.7690  -24.9350 C   0  0  0  0  0  0  0  0  0  0  0  0
   -1.9950   25.6930  -25.3220 C   0  0  0  0  0  0  0  0  0  0  0  0
   -2.3270   25.2890  -26.6160 C   0  0  0  0  0  0  0  0  0  0  0  0
   -1.3200   24.9460  -27.5350 C   0  0  0  0  0  0  0  0  0  0  0  0
   -1.6940   24.5420  -28.9340 C   0  0  0  0  0  0  0  0  0  0  0  0
   -2.8760   25.2850  -29.3500 N   0  0  0  0  0  0  0  0  0  0  0  0
   -4.0100   24.7030  -30.0050 C   0  0  0  0  0  0  0  0  0  0  0  0
   -3.8630   24.2120  -31.1550 O   0  0  0  0  0  0  0  0  0  0  0  0
   -5.3600   24.6590  -29.3570 C   0  0  0  0  0  0  0  0  0  0  0  0
   -5.9850   23.4130  -29.6440 O   0  0  0  0  0  0  0  0  0  0  0  0
   -6.8130   23.2100  -30.7510 C   0  0  0  0  0  0  0  0  0  0  0  0
   -7.6110   24.1210  -31.1090 O   0  0  0  0  0  0  0  0  0  0  0  0
   -6.7860   21.9190  -31.4830 C   0  0  0  0  0  0  0  0  0  0  0  0
   -7.9940   21.4040  -31.9960 C   0  0  0  0  0  0  0  0  0  0  0  0
   -8.0300   20.1580  -32.6240 C   0  0  0  0  0  0  0  0  0  0  0  0
   -6.8660   19.4010  -32.7440 C   0  0  0  0  0  0  0  0  0  0  0  0
   -5.6590   19.8960  -32.2560 C   0  0  0  0  0  0  0  0  0  0  0  0
   -5.5960   21.1590  -31.6490 C   0  0  0  0  0  0  0  0  0  0  0  0
   -4.3110   21.6410  -31.2270 N   0  0  0  0  0  0  0  0  0  0  0  0
   -3.0540   21.2880  -31.8400 C   0  0  0  0  0  0  0  0  0  0  0  0
   -3.0420   21.0090  -33.2170 C   0  0  0  0  0  0  0  0  0  0  0  0
   -1.8640   20.6280  -33.8580 C   0  0  0  0  0  0  0  0  0  0  0  0
   -0.6770   20.5290  -33.1360 C   0  0  0  0  0  0  0  0  0  0  0  0
   -0.6610   20.8250  -31.7710 C   0  0  0  0  0  0  0  0  0  0  0  0
   -1.8420   21.2190  -31.1080 C   0  0  0  0  0  0  0  0  0  0  0  0
   -1.8320   21.5610  -29.7470 O   0  0  0  0  0  0  0  0  0  0  0  0
   -2.6470   20.9550  -28.7490 C   0  0  0  0  0  0  0  0  0  0  0  0
    2.5474   24.5508  -26.6933 H   0  0  0  0  0  0  0  0  0  0  0  0
    2.7788   23.6209  -28.2126 H   0  0  0  0  0  0  0  0  0  0  0  0
    2.9803   25.4058  -28.2126 H   0  0  0  0  0  0  0  0  0  0  0  0
    1.4081   25.5128  -25.5301 H   0  0  0  0  0  0  0  0  0  0  0  0
   -0.3986   26.0835  -23.9131 H   0  0  0  0  0  0  0  0  0  0  0  0
   -2.7894   25.9518  -24.6065 H   0  0  0  0  0  0  0  0  0  0  0  0
   -3.3833   25.2387  -26.9187 H   0  0  0  0  0  0  0  0  0  0  0  0
   -0.8606   24.7655  -29.6162 H   0  0  0  0  0  0  0  0  0  0  0  0
   -1.9083   23.4634  -28.9612 H   0  0  0  0  0  0  0  0  0  0  0  0
   -5.2477   24.7705  -28.2684 H   0  0  0  0  0  0  0  0  0  0  0  0
   -5.9807   25.4786  -29.7481 H   0  0  0  0  0  0  0  0  0  0  0  0
   -8.9192   21.9912  -31.9002 H   0  0  0  0  0  0  0  0  0  0  0  0
   -8.9791   19.7727  -33.0250 H   0  0  0  0  0  0  0  0  0  0  0  0
   -6.9005   18.4120  -33.2244 H   0  0  0  0  0  0  0  0  0  0  0  0
   -4.7455   19.2901  -32.3476 H   0  0  0  0  0  0  0  0  0  0  0  0
   -4.2910   22.2310  -30.3650 H   0  0  0  0  0  0  0  0  0  0  0  0
   -3.9734   21.0922  -33.7963 H   0  0  0  0  0  0  0  0  0  0  0  0
   -1.8720   20.4053  -34.9352 H   0  0  0  0  0  0  0  0  0  0  0  0
    0.2490   20.2173  -33.6414 H   0  0  0  0  0  0  0  0  0  0  0  0
    0.2811   20.7502  -31.2080 H   0  0  0  0  0  0  0  0  0  0  0  0
   -2.2736   21.2327  -27.7523 H   0  0  0  0  0  0  0  0  0  0  0  0
   -3.6844   21.3028  -28.8619 H   0  0  0  0  0  0  0  0  0  0  0  0
   -2.6126   19.8613  -28.8619 H   0  0  0  0  0  0  0  0  0  0  0  0
  1  2  1  0
  2  3  1  0
  3  4  2  0
  4  5  1  0
  5  6  2  0
  6  7  1  0
  7  8  2  0
  8  9  1  0
  9 10  1  0
 10 11  1  0
 11 12  2  0
 11 13  1  0
 13 14  1  0
 14 15  1  0
 15 16  2  0
 15 17  1  0
 17 18  2  0
 18 19  1  0
 19 20  2  0
 20 21  1  0
 21 22  2  0
 22 23  1  0
 23 24  1  0
 24 25  2  0
 25 26  1  0
 26 27  2  0
 27 28  1  0
 28 29  2  0
 29 30  1  0
 30 31  1  0
  8  3  1  0
 22 17  1  0
 29 24  1  0
  1 32  1  0
  1 33  1  0
  1 34  1  0
  4 35  1  0
  5 36  1  0
  6 37  1  0
  7 38  1  0
  9 39  1  0
  9 40  1  0
 13 41  1  0
 13 42  1  0
 18 43  1  0
 19 44  1  0
 20 45  1  0
 21 46  1  0
 23 47  1  0
 25 48  1  0
 26 49  1  0
 27 50  1  0
 28 51  1  0
 31 52  1  0
 31 53  1  0
 31 54  1  0
M  CHG  1  10  -1
M  END
>  <UniqueID>  (21) 
21

>  <SMILES>  (21) 
COc1ccccc1C[N-]C(=O)COC(=O)c1ccccc1Nc1ccccc1OC

>  <Energy>  (21) 
57.56456221471527

>  <Genealogy>  (21) 
COc1ccccc1C[N-]C(=O)COC(=O)c1ccccc1Nc1ccccc1OC (protonated)
COc1ccccc1C[N-]C(=O)COC(=O)c1ccccc1Nc1ccccc1OC (3D coordinates assigned)
COc1ccccc1C[N-]C(=O)COC(=O)c1ccccc1Nc1ccccc1OC (optimized conformer: 57.56456221471527 kcal/mol)

>  <smiles>  (21) 
COc1ccccc1CNC(=O)COC(=O)c1ccccc1Nc1ccccc1OC

>  <score_type>  (21) 
oracle

>  <origin>  (21) 
adg

>  <m_score__min__energy>  (21) 
-11.08

>  <m_primary>  (21) 
energy

$$$$
21:0
     RDKit          3D

 60 63  0  0  0  0  0  0  0  0999 V2000
   -0.9870   18.6450  -27.4060 C   0  0  0  0  0  0  0  0  0  0  0  0
   -2.0870   19.5420  -27.0220 N   0  0  0  0  0  0  0  0  0  0  0  0
   -3.0840   18.8390  -26.1980 C   0  0  0  0  0  0  0  0  0  0  0  0
   -1.6160   20.8030  -26.4090 C   0  0  0  0  0  0  0  0  0  0  0  0
   -1.8120   22.0530  -27.2950 C   0  0  0  0  0  0  0  0  0  0  0  0
   -0.7120   22.1680  -28.3570 C   0  0  0  0  0  0  0  0  0  0  0  0
   -1.2130   22.9120  -29.5340 N   0  0  0  0  0  0  0  0  0  0  0  0
   -0.9900   22.2790  -30.8530 C   0  0  0  0  0  0  0  0  0  0  0  0
   -2.1290   21.3430  -31.3350 C   0  0  1  0  0  0  0  0  0  0  0  0
   -2.8390   20.5900  -30.1970 C   0  0  0  0  0  0  0  0  0  0  0  0
   -3.8550   21.4860  -29.4610 C   0  0  0  0  0  0  0  0  0  0  0  0
   -3.7480   22.9770  -29.8630 C   0  0  1  0  0  0  0  0  0  0  0  0
   -2.4700   23.6640  -29.3290 C   0  0  0  0  0  0  0  0  0  0  0  0
   -3.8380   23.1830  -31.3340 N   0  0  0  0  0  0  0  0  0  0  0  0
   -5.2260   23.4280  -31.7770 C   0  0  0  0  0  0  0  0  0  0  0  0
   -5.9630   22.1270  -31.9600 C   0  0  0  0  0  0  0  0  0  0  0  0
   -5.6320   21.2340  -32.9250 N   0  0  0  0  0  0  0  0  0  0  0  0
   -6.4630   20.2000  -32.7220 C   0  0  0  0  0  0  0  0  0  0  0  0
   -6.5260   18.9980  -33.4240 C   0  0  0  0  0  0  0  0  0  0  0  0
   -7.4740   18.0470  -33.0060 C   0  0  0  0  0  0  0  0  0  0  0  0
   -8.3200   18.3150  -31.9070 C   0  0  0  0  0  0  0  0  0  0  0  0
   -8.2280   19.5380  -31.2160 C   0  0  0  0  0  0  0  0  0  0  0  0
   -7.2820   20.4670  -31.6600 C   0  0  0  0  0  0  0  0  0  0  0  0
   -6.9870   21.6900  -31.1740 N   0  0  0  0  0  0  0  0  0  0  0  0
   -7.5640   22.3610  -30.0080 C   0  0  0  0  0  0  0  0  0  0  0  0
   -3.1840   22.1200  -32.1380 C   0  0  0  0  0  0  0  0  0  0  0  0
   -0.5028   18.2502  -26.5007 H   0  0  0  0  0  0  0  0  0  0  0  0
   -1.3852   17.8108  -28.0023 H   0  0  0  0  0  0  0  0  0  0  0  0
   -0.2500   19.2030  -28.0023 H   0  0  0  0  0  0  0  0  0  0  0  0
   -2.8579   18.9984  -25.1334 H   0  0  0  0  0  0  0  0  0  0  0  0
   -4.0871   19.2307  -26.4225 H   0  0  0  0  0  0  0  0  0  0  0  0
   -3.0520   17.7626  -26.4225 H   0  0  0  0  0  0  0  0  0  0  0  0
   -2.1678   20.9565  -25.4699 H   0  0  0  0  0  0  0  0  0  0  0  0
   -0.5324   20.6928  -26.2553 H   0  0  0  0  0  0  0  0  0  0  0  0
   -2.7882   21.9853  -27.7975 H   0  0  0  0  0  0  0  0  0  0  0  0
   -1.7638   22.9433  -26.6508 H   0  0  0  0  0  0  0  0  0  0  0  0
    0.1505   22.7011  -27.9304 H   0  0  0  0  0  0  0  0  0  0  0  0
   -0.4110   21.1581  -28.6725 H   0  0  0  0  0  0  0  0  0  0  0  0
   -0.8678   23.0787  -31.5984 H   0  0  0  0  0  0  0  0  0  0  0  0
   -0.0987   21.6441  -30.7412 H   0  0  0  0  0  0  0  0  0  0  0  0
   -1.6306   20.5967  -31.9711 H   0  0  0  0  0  0  0  0  0  0  0  0
   -3.3694   19.7242  -30.6201 H   0  0  0  0  0  0  0  0  0  0  0  0
   -2.0764   20.2718  -29.4710 H   0  0  0  0  0  0  0  0  0  0  0  0
   -4.8696   21.1315  -29.6955 H   0  0  0  0  0  0  0  0  0  0  0  0
   -3.6352   21.4183  -28.3853 H   0  0  0  0  0  0  0  0  0  0  0  0
   -4.6175   23.4516  -29.3847 H   0  0  0  0  0  0  0  0  0  0  0  0
   -2.3705   24.6358  -29.8347 H   0  0  0  0  0  0  0  0  0  0  0  0
   -2.6013   23.7440  -28.2398 H   0  0  0  0  0  0  0  0  0  0  0  0
   -5.7452   24.0339  -31.0199 H   0  0  0  0  0  0  0  0  0  0  0  0
   -5.2018   23.9596  -32.7397 H   0  0  0  0  0  0  0  0  0  0  0  0
   -4.8790   21.3190  -33.6450 H   0  0  0  0  0  0  0  0  0  0  0  0
   -5.8578   18.7999  -34.2751 H   0  0  0  0  0  0  0  0  0  0  0  0
   -7.5572   17.0881  -33.5384 H   0  0  0  0  0  0  0  0  0  0  0  0
   -9.0563   17.5623  -31.5887 H   0  0  0  0  0  0  0  0  0  0  0  0
   -8.8783   19.7555  -30.3559 H   0  0  0  0  0  0  0  0  0  0  0  0
   -7.1699   21.9027  -29.0889 H   0  0  0  0  0  0  0  0  0  0  0  0
   -7.2969   23.4279  -30.0294 H   0  0  0  0  0  0  0  0  0  0  0  0
   -8.6588   22.2567  -30.0294 H   0  0  0  0  0  0  0  0  0  0  0  0
   -3.9540   21.4150  -32.4844 H   0  0  0  0  0  0  0  0  0  0  0  0
   -2.6723   22.6052  -32.9823 H   0  0  0  0  0  0  0  0  0  0  0  0
  1  2  1  0
  2  3  1  0
  2  4  1  0
  4  5  1  0
  5  6  1  0
  6  7  1  0
  7  8  1  0
  8  9  1  0
  9 10  1  0
 10 11  1  0
 11 12  1  0
 12 13  1  0
 12 14  1  0
 14 15  1  0
 15 16  1  0
 16 17  2  0
 17 18  1  0
 18 19  2  0
 19 20  1  0
 20 21  2  0
 21 22  1  0
 22 23  2  0
 23 24  1  0
 24 25  1  0
 14 26  1  0
 13  7  1  0
 24 16  1  0
 26  9  1  0
 23 18  1  0
  1 27  1  0
  1 28  1  0
  1 29  1  0
  3 30  1  0
  3 31  1  0
  3 32  1  0
  4 33  1  0
  4 34  1  0
  5 35  1  0
  5 36  1  0
  6 37  1  0
  6 38  1  0
  8 39  1  0
  8 40  1  0
  9 41  1  6
 10 42  1  0
 10 43  1  0
 11 44  1  0
 11 45  1  0
 12 46  1  1
 13 47  1  0
 13 48  1  0
 15 49  1  0
 15 50  1  0
 17 51  1  0
 19 52  1  0
 20 53  1  0
 21 54  1  0
 22 55  1  0
 25 56  1  0
 25 57  1  0
 25 58  1  0
 26 59  1  0
 26 60  1  0
M  CHG  1  17   1
M  END
>  <UniqueID>  (22) 
22

>  <SMILES>  (22) 
CN(C)CCCN1C[C@H]2CC[C@@H](C1)N(Cc1[nH+]c3ccccc3n1C)C2

>  <Energy>  (22) 
126.9248514254417

>  <Genealogy>  (22) 
CN(C)CCCN1CC2CCC(C1)N(Cc1[nH+]c3ccccc3n1C)C2 (protonated)
CN(C)CCCN1C[C@H]2CC[C@@H](C1)N(Cc1[nH+]c3ccccc3n1C)C2 (chirality)
CN(C)CCCN1C[C@H]2CC[C@@H](C1)N(Cc1[nH+]c3ccccc3n1C)C2 (3D coordinates assigned)
CN(C)CCCN1C[C@H]2CC[C@@H](C1)N(Cc1[nH+]c3ccccc3n1C)C2 (nonaromatic ring conformer: 126.9248514254417 kcal/mol)

>  <smiles>  (22) 
CN(C)CCCN1CC2CCC(C1)N(Cc1nc3ccccc3n1C)C2

>  <score_type>  (22) 
oracle

>  <origin>  (22) 
adg

>  <m_score__min__energy>  (22) 
-6.29

>  <m_primary>  (22) 
energy

$$$$
22:0
     RDKit          3D

 42 44  0  0  0  0  0  0  0  0999 V2000
   -6.7850   17.4680  -32.6640 C   0  0  0  0  0  0  0  0  0  0  0  0
   -6.3760   18.3640  -33.8360 C   0  0  0  0  0  0  0  0  0  0  0  0
   -7.1320   19.6280  -33.8630 N   0  0  0  0  0  0  0  0  0  0  0  0
   -6.5720   20.6020  -32.9550 C   0  0  0  0  0  0  0  0  0  0  0  0
   -7.4030   21.3430  -32.1060 C   0  0  0  0  0  0  0  0  0  0  0  0
   -6.8620   22.2990  -31.2490 C   0  0  0  0  0  0  0  0  0  0  0  0
   -5.4780   22.5360  -31.2120 C   0  0  0  0  0  0  0  0  0  0  0  0
   -4.6210   21.7830  -32.0580 C   0  0  0  0  0  0  0  0  0  0  0  0
   -5.1890   20.8340  -32.9270 C   0  0  0  0  0  0  0  0  0  0  0  0
   -3.1830   21.9290  -32.0780 N   0  0  0  0  0  0  0  0  0  0  0  0
   -2.3360   22.4870  -31.0190 C   0  0  0  0  0  0  0  0  0  0  0  0
   -2.8590   22.1410  -29.6100 C   0  0  0  0  0  0  0  0  0  0  0  0
   -3.7060   23.1980  -29.0180 N   0  0  0  0  0  0  0  0  0  0  0  0
   -2.9230   24.2930  -28.4140 C   0  0  0  0  0  0  0  0  0  0  0  0
   -2.8380   24.0950  -26.8940 C   0  0  0  0  0  0  0  0  0  0  0  0
   -1.8820   25.0240  -26.1610 C   0  0  0  0  0  0  0  0  0  0  0  0
   -3.3840   25.2440  -26.0610 C   0  0  0  0  0  0  0  0  0  0  0  0
   -4.8790   23.8200  -30.1560 S   0  0  0  0  0  0  0  0  0  0  0  0
   -4.2820   24.9110  -31.0020 O   0  0  0  0  0  0  0  0  0  0  0  0
   -6.0190   24.4060  -29.3700 O   0  0  0  0  0  0  0  0  0  0  0  0
   -6.5533   17.9757  -31.7161 H   0  0  0  0  0  0  0  0  0  0  0  0
   -7.8649   17.2652  -32.7169 H   0  0  0  0  0  0  0  0  0  0  0  0
   -6.2308   16.5193  -32.7169 H   0  0  0  0  0  0  0  0  0  0  0  0
   -5.3041   18.5946  -33.7478 H   0  0  0  0  0  0  0  0  0  0  0  0
   -6.5945   17.8209  -34.7673 H   0  0  0  0  0  0  0  0  0  0  0  0
   -8.1200   19.4320  -33.5790 H   0  0  0  0  0  0  0  0  0  0  0  0
   -7.1640   20.0050  -34.8400 H   0  0  0  0  0  0  0  0  0  0  0  0
   -8.4892   21.1694  -32.1157 H   0  0  0  0  0  0  0  0  0  0  0  0
   -7.5285   22.8767  -30.5917 H   0  0  0  0  0  0  0  0  0  0  0  0
   -4.5339   20.2610  -33.5997 H   0  0  0  0  0  0  0  0  0  0  0  0
   -2.6680   21.4640  -32.8600 H   0  0  0  0  0  0  0  0  0  0  0  0
   -1.3192   22.0819  -31.1286 H   0  0  0  0  0  0  0  0  0  0  0  0
   -2.3446   23.5821  -31.1223 H   0  0  0  0  0  0  0  0  0  0  0  0
   -3.4516   21.2166  -29.6761 H   0  0  0  0  0  0  0  0  0  0  0  0
   -1.9803   22.0283  -28.9580 H   0  0  0  0  0  0  0  0  0  0  0  0
   -1.9086   24.2942  -28.8393 H   0  0  0  0  0  0  0  0  0  0  0  0
   -3.4160   25.2528  -28.6281 H   0  0  0  0  0  0  0  0  0  0  0  0
   -2.9938   23.0065  -26.9228 H   0  0  0  0  0  0  0  0  0  0  0  0
   -1.3203   24.6585  -25.2887 H   0  0  0  0  0  0  0  0  0  0  0  0
   -1.0226   25.6449  -26.4541 H   0  0  0  0  0  0  0  0  0  0  0  0
   -3.9083   25.0377  -25.1163 H   0  0  0  0  0  0  0  0  0  0  0  0
   -4.0605   26.0901  -26.2518 H   0  0  0  0  0  0  0  0  0  0  0  0
  1  2  1  0
  2  3  1  0
  3  4  1  0
  4  5  2  0
  5  6  1  0
  6  7  2  0
  7  8  1  0
  8  9  2  0
  8 10  1  0
 10 11  1  0
 11 12  1  0
 12 13  1  0
 13 14  1  0
 14 15  1  0
 15 16  1  0
 16 17  1  0
 13 18  1  0
 18 19  2  0
 18 20  2  0
  9  4  1  0
 17 15  1  0
 18  7  1  0
  1 21  1  0
  1 22  1  0
  1 23  1  0
  2 24  1  0
  2 25  1  0
  3 26  1  0
  3 27  1  0
  5 28  1  0
  6 29  1  0
  9 30  1  0
 10 31  1  0
 11 32  1  0
 11 33  1  0
 12 34  1  0
 12 35  1  0
 14 36  1  0
 14 37  1  0
 15 38  1  0
 16 39  1  0
 16 40  1  0
 17 41  1  0
 17 42  1  0
M  CHG  1   3   1
M  END
>  <UniqueID>  (23) 
23

>  <SMILES>  (23) 
CC[NH2+]c1ccc2c(c1)NCCN(CC1CC1)S2(=O)=O

>  <Energy>  (23) 
317.6555639697466

>  <Genealogy>  (23) 
CC[NH2+]c1ccc2c(c1)NCCN(CC1CC1)S2(=O)=O (protonated)
CC[NH2+]c1ccc2c(c1)NCCN(CC1CC1)S2(=O)=O (3D coordinates assigned)
CC[NH2+]c1ccc2c(c1)NCCN(CC1CC1)S2(=O)=O (nonaromatic ring conformer: 317.6555639697466 kcal/mol)

>  <smiles>  (23) 
CCNc1ccc2c(c1)NCCN(CC1CC1)S2(=O)=O

>  <score_type>  (23) 
oracle

>  <origin>  (23) 
adg

>  <m_score__min__energy>  (23) 
-5.6600000000000001

>  <m_primary>  (23) 
energy

$$$$
23:0
     RDKit          3D

 46 48  0  0  0  0  0  0  0  0999 V2000
   -7.5550   19.7380  -32.6830 C   0  0  0  0  0  0  0  0  0  0  0  0
   -8.3720   20.9770  -32.3500 C   0  0  0  0  0  0  0  0  0  0  0  0
   -7.5020   22.0470  -31.7690 C   0  0  0  0  0  0  0  0  0  0  0  0
   -7.8520   23.3800  -31.6000 C   0  0  0  0  0  0  0  0  0  0  0  0
   -6.7950   24.1740  -31.1330 C   0  0  0  0  0  0  0  0  0  0  0  0
   -5.6140   23.4640  -30.9430 C   0  0  0  0  0  0  0  0  0  0  0  0
   -4.3210   24.0390  -30.5330 C   0  0  0  0  0  0  0  0  0  0  0  0
   -4.0440   25.2300  -30.8380 O   0  0  0  0  0  0  0  0  0  0  0  0
   -3.3570   23.2500  -29.8150 N   0  0  0  0  0  0  0  0  0  0  0  0
   -3.8400   22.1210  -29.0000 C   0  0  0  0  0  0  0  0  0  0  0  0
   -4.1660   22.5180  -27.5500 C   0  0  0  0  0  0  0  0  0  0  0  0
   -3.7080   23.9450  -27.2000 C   0  0  0  0  0  0  0  0  0  0  0  0
   -2.2420   24.0820  -27.1660 N   0  0  0  0  0  0  0  0  0  0  0  0
   -1.6310   24.8550  -26.1100 C   0  0  0  0  0  0  0  0  0  0  0  0
   -1.8340   26.2020  -26.0590 N   0  0  0  0  0  0  0  0  0  0  0  0
   -1.2970   26.9610  -25.0710 C   0  0  0  0  0  0  0  0  0  0  0  0
   -0.5120   26.3640  -24.0800 C   0  0  0  0  0  0  0  0  0  0  0  0
    0.0630   27.1830  -22.9610 C   0  0  0  0  0  0  0  0  0  0  0  0
   -0.3430   24.9770  -24.1220 C   0  0  0  0  0  0  0  0  0  0  0  0
   -0.8940   24.2510  -25.1310 N   0  0  0  0  0  0  0  0  0  0  0  0
   -1.4200   23.4860  -28.2320 C   0  0  0  0  0  0  0  0  0  0  0  0
   -1.9960   23.7810  -29.6390 C   0  0  0  0  0  0  0  0  0  0  0  0
   -5.8800   21.8580  -31.3720 S   0  0  0  0  0  0  0  0  0  0  0  0
   -7.2331   19.2498  -31.7513 H   0  0  0  0  0  0  0  0  0  0  0  0
   -8.1703   19.0397  -33.2692 H   0  0  0  0  0  0  0  0  0  0  0  0
   -6.6707   20.0285  -33.2692 H   0  0  0  0  0  0  0  0  0  0  0  0
   -8.8441   21.3553  -33.2687 H   0  0  0  0  0  0  0  0  0  0  0  0
   -9.1387   20.7052  -31.6095 H   0  0  0  0  0  0  0  0  0  0  0  0
   -8.8573   23.7734  -31.8112 H   0  0  0  0  0  0  0  0  0  0  0  0
   -6.8902   25.2521  -30.9363 H   0  0  0  0  0  0  0  0  0  0  0  0
   -4.7514   21.7180  -29.4657 H   0  0  0  0  0  0  0  0  0  0  0  0
   -3.0321   21.3755  -28.9617 H   0  0  0  0  0  0  0  0  0  0  0  0
   -5.2545   22.4538  -27.4052 H   0  0  0  0  0  0  0  0  0  0  0  0
   -3.6225   21.8265  -26.8893 H   0  0  0  0  0  0  0  0  0  0  0  0
   -4.1082   24.6376  -27.9550 H   0  0  0  0  0  0  0  0  0  0  0  0
   -4.0855   24.1762  -26.1930 H   0  0  0  0  0  0  0  0  0  0  0  0
   -1.4791   28.0456  -25.0496 H   0  0  0  0  0  0  0  0  0  0  0  0
   -0.2408   26.7503  -21.9964 H   0  0  0  0  0  0  0  0  0  0  0  0
    1.1606   27.1833  -23.0333 H   0  0  0  0  0  0  0  0  0  0  0  0
   -0.3095   28.2155  -23.0333 H   0  0  0  0  0  0  0  0  0  0  0  0
    0.2375   24.4713  -23.3363 H   0  0  0  0  0  0  0  0  0  0  0  0
   -0.7690   23.2160  -25.1200 H   0  0  0  0  0  0  0  0  0  0  0  0
   -0.4028   23.9001  -28.1702 H   0  0  0  0  0  0  0  0  0  0  0  0
   -1.4138   22.3955  -28.0881 H   0  0  0  0  0  0  0  0  0  0  0  0
   -2.0207   24.8705  -29.7884 H   0  0  0  0  0  0  0  0  0  0  0  0
   -1.3467   23.2855  -30.3759 H   0  0  0  0  0  0  0  0  0  0  0  0
  1  2  1  0
  2  3  1  0
  3  4  2  0
  4  5  1  0
  5  6  2  0
  6  7  1  0
  7  8  2  0
  7  9  1  0
  9 10  1  0
 10 11  1  0
 11 12  1  0
 12 13  1  0
 13 14  1  0
 14 15  2  0
 15 16  1  0
 16 17  2  0
 17 18  1  0
 17 19  1  0
 19 20  2  0
 13 21  1  0
 21 22  1  0
  6 23  1  0
 23  3  1  0
 22  9  1  0
 20 14  1  0
  1 24  1  0
  1 25  1  0
  1 26  1  0
  2 27  1  0
  2 28  1  0
  4 29  1  0
  5 30  1  0
 10 31  1  0
 10 32  1  0
 11 33  1  0
 11 34  1  0
 12 35  1  0
 12 36  1  0
 16 37  1  0
 18 38  1  0
 18 39  1  0
 18 40  1  0
 19 41  1  0
 20 42  1  0
 21 43  1  0
 21 44  1  0
 22 45  1  0
 22 46  1  0
M  CHG  1  20   1
M  END
>  <UniqueID>  (24) 
24

>  <SMILES>  (24) 
CCc1ccc(C(=O)N2CCCN(c3ncc(C)c[nH+]3)CC2)s1

>  <Energy>  (24) 
75.92285064886583

>  <Genealogy>  (24) 
CCc1ccc(C(=O)N2CCCN(c3ncc(C)c[nH+]3)CC2)s1 (protonated)
CCc1ccc(C(=O)N2CCCN(c3ncc(C)c[nH+]3)CC2)s1 (3D coordinates assigned)
CCc1ccc(C(=O)N2CCCN(c3ncc(C)c[nH+]3)CC2)s1 (nonaromatic ring conformer: 75.92285064886583 kcal/mol)

>  <smiles>  (24) 
CCc1ccc(C(=O)N2CCCN(c3ncc(C)cn3)CC2)s1

>  <score_type>  (24) 
oracle

>  <origin>  (24) 
adg

>  <m_score__min__energy>  (24) 
-5.3099999999999996

>  <m_primary>  (24) 
energy

$$$$
24:0
     RDKit          3D

 40 42  0  0  0  0  0  0  0  0999 V2000
   -2.0490   26.0600  -25.3930 C   0  0  0  0  0  0  0  0  0  0  0  0
   -2.2220   25.2160  -26.6590 C   0  0  0  0  0  0  0  0  0  0  0  0
   -3.5930   24.6900  -26.7970 N   0  0  0  0  0  0  0  0  0  0  0  0
   -3.6760   23.4910  -27.6470 C   0  0  0  0  0  0  0  0  0  0  0  0
   -4.3400   23.7790  -28.9710 C   0  0  0  0  0  0  0  0  0  0  0  0
   -3.9970   24.9160  -29.7130 C   0  0  0  0  0  0  0  0  0  0  0  0
   -4.6210   25.1780  -30.8900 N   0  0  0  0  0  0  0  0  0  0  0  0
   -5.5860   24.3620  -31.3890 C   0  0  0  0  0  0  0  0  0  0  0  0
   -5.9740   23.2090  -30.6850 C   0  0  0  0  0  0  0  0  0  0  0  0
   -7.0420   22.3200  -31.2090 C   0  0  0  0  0  0  0  0  0  0  0  0
   -8.3430   22.8240  -31.4700 C   0  0  0  0  0  0  0  0  0  0  0  0
   -9.3550   21.9820  -31.9600 C   0  0  0  0  0  0  0  0  0  0  0  0
   -9.0290   20.6480  -32.1780 C   0  0  0  0  0  0  0  0  0  0  0  0
   -9.8500   19.6800  -32.6250 N   0  0  0  0  0  0  0  0  0  0  0  0
   -9.1230   18.5670  -32.6650 N   0  0  0  0  0  0  0  0  0  0  0  0
   -7.8740   18.8830  -32.2500 C   0  0  0  0  0  0  0  0  0  0  0  0
   -6.7640   17.8850  -32.1000 C   0  0  0  0  0  0  0  0  0  0  0  0
   -6.4460   17.2280  -33.4380 C   0  0  0  0  0  0  0  0  0  0  0  0
   -7.7990   20.1870  -31.9310 N   0  0  0  0  0  0  0  0  0  0  0  0
   -6.7850   20.9540  -31.4550 C   0  0  0  0  0  0  0  0  0  0  0  0
   -5.3340   22.9250  -29.4670 C   0  0  0  0  0  0  0  0  0  0  0  0
   -2.1797   25.4222  -24.5064 H   0  0  0  0  0  0  0  0  0  0  0  0
   -1.0416   26.5017  -25.3816 H   0  0  0  0  0  0  0  0  0  0  0  0
   -2.8013   26.8624  -25.3816 H   0  0  0  0  0  0  0  0  0  0  0  0
   -1.9928   25.8407  -27.5349 H   0  0  0  0  0  0  0  0  0  0  0  0
   -1.5375   24.3579  -26.5880 H   0  0  0  0  0  0  0  0  0  0  0  0
   -4.2580   25.4240  -27.1390 H   0  0  0  0  0  0  0  0  0  0  0  0
   -2.6583   23.1178  -27.8343 H   0  0  0  0  0  0  0  0  0  0  0  0
   -4.2845   22.7424  -27.1185 H   0  0  0  0  0  0  0  0  0  0  0  0
   -3.2193   25.5992  -29.3410 H   0  0  0  0  0  0  0  0  0  0  0  0
   -6.0659   24.6049  -32.3485 H   0  0  0  0  0  0  0  0  0  0  0  0
   -8.5613   23.8864  -31.2864 H   0  0  0  0  0  0  0  0  0  0  0  0
  -10.3665   22.3633  -32.1634 H   0  0  0  0  0  0  0  0  0  0  0  0
   -5.8653   18.3979  -31.7269 H   0  0  0  0  0  0  0  0  0  0  0  0
   -7.0815   17.1068  -31.3904 H   0  0  0  0  0  0  0  0  0  0  0  0
   -5.9729   16.2505  -33.2632 H   0  0  0  0  0  0  0  0  0  0  0  0
   -7.3762   17.0884  -34.0082 H   0  0  0  0  0  0  0  0  0  0  0  0
   -5.7594   17.8710  -34.0082 H   0  0  0  0  0  0  0  0  0  0  0  0
   -5.7907   20.5229  -31.2663 H   0  0  0  0  0  0  0  0  0  0  0  0
   -5.6152   22.0260  -28.8988 H   0  0  0  0  0  0  0  0  0  0  0  0
  1  2  1  0
  2  3  1  0
  3  4  1  0
  4  5  1  0
  5  6  2  0
  6  7  1  0
  7  8  2  0
  8  9  1  0
  9 10  1  0
 10 11  1  0
 11 12  2  0
 12 13  1  0
 13 14  2  0
 14 15  1  0
 15 16  2  0
 16 17  1  0
 17 18  1  0
 16 19  1  0
 19 20  1  0
  9 21  2  0
 21  5  1  0
 20 10  2  0
 19 13  1  0
  1 22  1  0
  1 23  1  0
  1 24  1  0
  2 25  1  0
  2 26  1  0
  3 27  1  0
  4 28  1  0
  4 29  1  0
  6 30  1  0
  8 31  1  0
 11 32  1  0
 12 33  1  0
 17 34  1  0
 17 35  1  0
 18 36  1  0
 18 37  1  0
 18 38  1  0
 20 39  1  0
 21 40  1  0
M  END
>  <UniqueID>  (25) 
25

>  <SMILES>  (25) 
CCNCc1cncc(-c2ccc3nnc(CC)n3c2)c1

>  <Energy>  (25) 
83.82161755297714

>  <Genealogy>  (25) 
CCNCc1cncc(-c2ccc3nnc(CC)n3c2)c1 (3D coordinates assigned)
CCNCc1cncc(-c2ccc3nnc(CC)n3c2)c1 (optimized conformer: 83.82161755297714 kcal/mol)

>  <smiles>  (25) 
CCNCc1cncc(-c2ccc3nnc(CC)n3c2)c1

>  <score_type>  (25) 
oracle

>  <origin>  (25) 
adg

>  <m_score__min__energy>  (25) 
-8.3000000000000007

>  <m_primary>  (25) 
energy

$$$$
25:0
     RDKit          3D

 50 52  0  0  0  0  0  0  0  0999 V2000
   -8.9520   23.3750  -32.0030 C   0  0  0  0  0  0  0  0  0  0  0  0
   -7.5430   23.4380  -32.5820 C   0  0  0  0  0  0  0  0  0  0  0  0
   -6.6290   22.5720  -31.8260 N   0  0  0  0  0  0  0  0  0  0  0  0
   -5.9290   23.0750  -30.6390 C   0  0  0  0  0  0  0  0  0  0  0  0
   -5.6350   24.5710  -30.7870 C   0  0  0  0  0  0  0  0  0  0  0  0
   -4.2380   24.7940  -30.8240 O   0  0  0  0  0  0  0  0  0  0  0  0
   -3.6120   24.1770  -29.7200 C   0  0  0  0  0  0  0  0  0  0  0  0
   -6.4020   21.2170  -32.2550 C   0  0  0  0  0  0  0  0  0  0  0  0
   -7.3510   20.1970  -32.1980 C   0  0  0  0  0  0  0  0  0  0  0  0
   -8.7570   20.2830  -31.6940 C   0  0  0  0  0  0  0  0  0  0  0  0
   -6.7490   19.1080  -32.8000 C   0  0  0  0  0  0  0  0  0  0  0  0
   -7.2360   17.8270  -33.0580 C   0  0  0  0  0  0  0  0  0  0  0  0
   -6.3870   16.9220  -33.7190 C   0  0  0  0  0  0  0  0  0  0  0  0
   -5.0890   17.3140  -34.1100 C   0  0  0  0  0  0  0  0  0  0  0  0
   -4.6260   18.6150  -33.8440 C   0  0  0  0  0  0  0  0  0  0  0  0
   -5.4860   19.4950  -33.1780 C   0  0  0  0  0  0  0  0  0  0  0  0
   -5.2580   20.7860  -32.8460 N   0  0  0  0  0  0  0  0  0  0  0  0
   -4.0520   21.5690  -33.1390 C   0  0  0  0  0  0  0  0  0  0  0  0
   -3.0000   21.3780  -32.0750 C   0  0  0  0  0  0  0  0  0  0  0  0
   -3.3830   21.0110  -30.7730 C   0  0  0  0  0  0  0  0  0  0  0  0
   -2.4170   20.7990  -29.7840 C   0  0  0  0  0  0  0  0  0  0  0  0
   -1.0590   20.9380  -30.0890 C   0  0  0  0  0  0  0  0  0  0  0  0
    0.1510   20.6680  -28.8490 Cl  0  0  0  0  0  0  0  0  0  0  0  0
   -0.6670   21.2870  -31.3850 C   0  0  0  0  0  0  0  0  0  0  0  0
   -1.6310   21.5000  -32.3750 C   0  0  0  0  0  0  0  0  0  0  0  0
   -8.8974   23.3774  -30.9044 H   0  0  0  0  0  0  0  0  0  0  0  0
   -9.5277   24.2483  -32.3434 H   0  0  0  0  0  0  0  0  0  0  0  0
   -9.4475   22.4538  -32.3434 H   0  0  0  0  0  0  0  0  0  0  0  0
   -7.5689   23.1067  -33.6306 H   0  0  0  0  0  0  0  0  0  0  0  0
   -7.1811   24.4747  -32.5167 H   0  0  0  0  0  0  0  0  0  0  0  0
   -6.5592   22.9154  -29.7517 H   0  0  0  0  0  0  0  0  0  0  0  0
   -4.9779   22.5334  -30.5291 H   0  0  0  0  0  0  0  0  0  0  0  0
   -6.0864   24.9393  -31.7200 H   0  0  0  0  0  0  0  0  0  0  0  0
   -6.0610   25.1070  -29.9261 H   0  0  0  0  0  0  0  0  0  0  0  0
   -4.0272   24.5862  -28.7872 H   0  0  0  0  0  0  0  0  0  0  0  0
   -3.7909   23.0922  -29.7561 H   0  0  0  0  0  0  0  0  0  0  0  0
   -2.5299   24.3716  -29.7561 H   0  0  0  0  0  0  0  0  0  0  0  0
   -8.7529   20.2827  -30.5940 H   0  0  0  0  0  0  0  0  0  0  0  0
   -9.2211   21.2112  -32.0587 H   0  0  0  0  0  0  0  0  0  0  0  0
   -9.3308   19.4183  -32.0587 H   0  0  0  0  0  0  0  0  0  0  0  0
   -8.2518   17.5340  -32.7541 H   0  0  0  0  0  0  0  0  0  0  0  0
   -6.7370   15.9013  -33.9329 H   0  0  0  0  0  0  0  0  0  0  0  0
   -4.4345   16.5966  -34.6267 H   0  0  0  0  0  0  0  0  0  0  0  0
   -3.6180   18.9313  -34.1504 H   0  0  0  0  0  0  0  0  0  0  0  0
   -3.6432   21.2475  -34.1083 H   0  0  0  0  0  0  0  0  0  0  0  0
   -4.3282   22.6334  -33.1657 H   0  0  0  0  0  0  0  0  0  0  0  0
   -4.4491   20.8898  -30.5306 H   0  0  0  0  0  0  0  0  0  0  0  0
   -2.7256   20.5226  -28.7650 H   0  0  0  0  0  0  0  0  0  0  0  0
    0.4009   21.3941  -31.6259 H   0  0  0  0  0  0  0  0  0  0  0  0
   -1.3169   21.7648  -33.3954 H   0  0  0  0  0  0  0  0  0  0  0  0
  1  2  1  0
  2  3  1  0
  3  4  1  0
  4  5  1  0
  5  6  1  0
  6  7  1  0
  3  8  1  0
  8  9  2  0
  9 10  1  0
  9 11  1  0
 11 12  2  0
 12 13  1  0
 13 14  2  0
 14 15  1  0
 15 16  2  0
 16 17  1  0
 17 18  1  0
 18 19  1  0
 19 20  2  0
 20 21  1  0
 21 22  2  0
 22 23  1  0
 22 24  1  0
 24 25  2  0
 17  8  1  0
 25 19  1  0
 16 11  1  0
  1 26  1  0
  1 27  1  0
  1 28  1  0
  2 29  1  0
  2 30  1  0
  4 31  1  0
  4 32  1  0
  5 33  1  0
  5 34  1  0
  7 35  1  0
  7 36  1  0
  7 37  1  0
 10 38  1  0
 10 39  1  0
 10 40  1  0
 12 41  1  0
 13 42  1  0
 14 43  1  0
 15 44  1  0
 18 45  1  0
 18 46  1  0
 20 47  1  0
 21 48  1  0
 24 49  1  0
 25 50  1  0
M  END
>  <UniqueID>  (26) 
26

>  <SMILES>  (26) 
CCN(CCOC)c1c(C)c2ccccc2n1Cc1ccc(Cl)cc1

>  <Energy>  (26) 
83.47375818265306

>  <Genealogy>  (26) 
CCN(CCOC)c1c(C)c2ccccc2n1Cc1ccc(Cl)cc1 (3D coordinates assigned)
CCN(CCOC)c1c(C)c2ccccc2n1Cc1ccc(Cl)cc1 (optimized conformer: 83.47375818265306 kcal/mol)

>  <smiles>  (26) 
CCN(CCOC)c1c(C)c2ccccc2n1Cc1ccc(Cl)cc1

>  <score_type>  (26) 
oracle

>  <origin>  (26) 
adg

>  <m_score__min__energy>  (26) 
-8.3200000000000003

>  <m_primary>  (26) 
energy

$$$$
26:0
     RDKit          3D

 59 61  0  0  0  0  0  0  0  0999 V2000
   -1.1600   26.0010  -28.2860 C   0  0  0  0  0  0  0  0  0  0  0  0
   -1.9470   25.2710  -29.2220 O   0  0  0  0  0  0  0  0  0  0  0  0
   -2.1280   23.8730  -29.1990 C   0  0  0  0  0  0  0  0  0  0  0  0
   -1.1840   23.0120  -28.6030 C   0  0  0  0  0  0  0  0  0  0  0  0
   -1.4050   21.6320  -28.5640 C   0  0  0  0  0  0  0  0  0  0  0  0
   -2.5640   21.0920  -29.1220 C   0  0  0  0  0  0  0  0  0  0  0  0
   -3.5030   21.9280  -29.7280 C   0  0  0  0  0  0  0  0  0  0  0  0
   -3.2900   23.3190  -29.7820 C   0  0  0  0  0  0  0  0  0  0  0  0
   -4.3400   24.2020  -30.4100 C   0  0  0  0  0  0  0  0  0  0  0  0
   -5.6970   23.4890  -30.4420 C   0  0  0  0  0  0  0  0  0  0  0  0
   -6.0440   23.0690  -31.8170 N   0  0  0  0  0  0  0  0  0  0  0  0
   -7.4980   23.1380  -32.0830 C   0  0  0  0  0  0  0  0  0  0  0  0
   -8.2840   21.8590  -31.7340 C   0  0  0  0  0  0  0  0  0  0  0  0
   -8.0850   20.6380  -32.6520 C   0  0  0  0  0  0  0  0  0  0  0  0
   -6.8990   19.8000  -32.3270 N   0  0  2  0  0  0  0  0  0  0  0  0
   -7.3050   18.5850  -31.5660 C   0  0  0  0  0  0  0  0  0  0  0  0
   -6.1710   17.5370  -31.4320 C   0  0  0  0  0  0  0  0  0  0  0  0
   -5.6300   17.0800  -32.7330 N   0  0  0  0  0  0  0  0  0  0  0  0
   -4.2360   17.4870  -33.0040 C   0  0  0  0  0  0  0  0  0  0  0  0
   -4.1320   18.8110  -33.8000 C   0  0  0  0  0  0  0  0  0  0  0  0
   -5.3480   19.2250  -34.3940 O   0  0  0  0  0  0  0  0  0  0  0  0
   -6.0010   18.1240  -34.9800 C   0  0  0  0  0  0  0  0  0  0  0  0
   -6.5590   17.2120  -33.8800 C   0  0  0  0  0  0  0  0  0  0  0  0
   -5.8220   20.5240  -31.5800 C   0  0  0  0  0  0  0  0  0  0  0  0
   -5.3380   21.8310  -32.2510 C   0  0  0  0  0  0  0  0  0  0  0  0
   -1.4571   25.7254  -27.2634 H   0  0  0  0  0  0  0  0  0  0  0  0
   -0.0967   25.7622  -28.4359 H   0  0  0  0  0  0  0  0  0  0  0  0
   -1.3183   27.0792  -28.4359 H   0  0  0  0  0  0  0  0  0  0  0  0
   -0.2655   23.4296  -28.1648 H   0  0  0  0  0  0  0  0  0  0  0  0
   -0.6634   20.9706  -28.0923 H   0  0  0  0  0  0  0  0  0  0  0  0
   -2.7379   20.0065  -29.0843 H   0  0  0  0  0  0  0  0  0  0  0  0
   -4.4155   21.4975  -30.1663 H   0  0  0  0  0  0  0  0  0  0  0  0
   -4.4319   25.1277  -29.8230 H   0  0  0  0  0  0  0  0  0  0  0  0
   -4.0371   24.4338  -31.4418 H   0  0  0  0  0  0  0  0  0  0  0  0
   -5.6515   22.6003  -29.7953 H   0  0  0  0  0  0  0  0  0  0  0  0
   -6.4679   24.1875  -30.0844 H   0  0  0  0  0  0  0  0  0  0  0  0
   -7.9144   23.9668  -31.4916 H   0  0  0  0  0  0  0  0  0  0  0  0
   -7.6062   23.2795  -33.1685 H   0  0  0  0  0  0  0  0  0  0  0  0
   -7.9930   21.5590  -30.7165 H   0  0  0  0  0  0  0  0  0  0  0  0
   -9.3421   22.1347  -31.8542 H   0  0  0  0  0  0  0  0  0  0  0  0
   -8.9817   20.0051  -32.5789 H   0  0  0  0  0  0  0  0  0  0  0  0
   -7.9157   21.0353  -33.6637 H   0  0  0  0  0  0  0  0  0  0  0  0
   -6.4810   19.4770  -33.2330 H   0  0  0  0  0  0  0  0  0  0  0  0
   -7.6165   18.8931  -30.5570 H   0  0  0  0  0  0  0  0  0  0  0  0
   -8.1236   18.1089  -32.1257 H   0  0  0  0  0  0  0  0  0  0  0  0
   -5.3505   17.9845  -30.8519 H   0  0  0  0  0  0  0  0  0  0  0  0
   -6.6027   16.6560  -30.9344 H   0  0  0  0  0  0  0  0  0  0  0  0
   -3.7158   17.6147  -32.0432 H   0  0  0  0  0  0  0  0  0  0  0  0
   -3.7785   16.6983  -33.6194 H   0  0  0  0  0  0  0  0  0  0  0  0
   -3.7964   19.6017  -33.1129 H   0  0  0  0  0  0  0  0  0  0  0  0
   -3.4223   18.6325  -34.6213 H   0  0  0  0  0  0  0  0  0  0  0  0
   -6.8266   18.4821  -35.6125 H   0  0  0  0  0  0  0  0  0  0  0  0
   -5.2848   17.5591  -35.5947 H   0  0  0  0  0  0  0  0  0  0  0  0
   -7.5087   17.6336  -33.5191 H   0  0  0  0  0  0  0  0  0  0  0  0
   -6.7023   16.2112  -34.3135 H   0  0  0  0  0  0  0  0  0  0  0  0
   -6.2068   20.7740  -30.5803 H   0  0  0  0  0  0  0  0  0  0  0  0
   -4.9543   19.8485  -31.5527 H   0  0  0  0  0  0  0  0  0  0  0  0
   -4.2684   21.9530  -32.0252 H   0  0  0  0  0  0  0  0  0  0  0  0
   -5.5521   21.7192  -33.3242 H   0  0  0  0  0  0  0  0  0  0  0  0
  1  2  1  0
  2  3  1  0
  3  4  2  0
  4  5  1  0
  5  6  2  0
  6  7  1  0
  7  8  2  0
  8  9  1  0
  9 10  1  0
 10 11  1  0
 11 12  1  0
 12 13  1  0
 13 14  1  0
 14 15  1  0
 15 16  1  0
 16 17  1  0
 17 18  1  0
 18 19  1  0
 19 20  1  0
 20 21  1  0
 21 22  1  0
 22 23  1  0
 15 24  1  0
 24 25  1  0
  8  3  1  0
 25 11  1  0
 23 18  1  0
  1 26  1  0
  1 27  1  0
  1 28  1  0
  4 29  1  0
  5 30  1  0
  6 31  1  0
  7 32  1  0
  9 33  1  0
  9 34  1  0
 10 35  1  0
 10 36  1  0
 12 37  1  0
 12 38  1  0
 13 39  1  0
 13 40  1  0
 14 41  1  0
 14 42  1  0
 15 43  1  6
 16 44  1  0
 16 45  1  0
 17 46  1  0
 17 47  1  0
 19 48  1  0
 19 49  1  0
 20 50  1  0
 20 51  1  0
 22 52  1  0
 22 53  1  0
 23 54  1  0
 23 55  1  0
 24 56  1  0
 24 57  1  0
 25 58  1  0
 25 59  1  0
M  CHG  1  15   1
M  END
>  <UniqueID>  (27) 
27

>  <SMILES>  (27) 
COc1ccccc1CCN1CCC[N@H+](CCN2CCOCC2)CC1

>  <Energy>  (27) 
97.48236069629799

>  <Genealogy>  (27) 
COc1ccccc1CCN1CCC[NH+](CCN2CCOCC2)CC1 (protonated)
COc1ccccc1CCN1CCC[N@H+](CCN2CCOCC2)CC1 (chirality)
COc1ccccc1CCN1CCC[N@H+](CCN2CCOCC2)CC1 (3D coordinates assigned)
COc1ccccc1CCN1CCC[N@H+](CCN2CCOCC2)CC1 (nonaromatic ring conformer: 97.48236069629799 kcal/mol)

>  <smiles>  (27) 
COc1ccccc1CCN1CCCN(CCN2CCOCC2)CC1

>  <score_type>  (27) 
oracle

>  <origin>  (27) 
adg

>  <m_score__min__energy>  (27) 
-5.3399999999999999

>  <m_primary>  (27) 
energy

$$$$
27:0
     RDKit          3D

 46 49  0  0  0  0  0  0  0  0999 V2000
   -9.3603   23.7088  -31.9311 H   0  0  0  0  0  0  0  0  0  0  0  0
   -9.0210   22.6630  -31.9640 C   0  0  0  0  0  0  0  0  0  0  0  0
   -9.8120   21.6390  -31.8360 N   0  0  0  0  0  0  0  0  0  0  0  0
   -8.9850   20.4870  -31.9390 C   0  0  0  0  0  0  0  0  0  0  0  0
   -9.4180   19.2020  -31.8910 N   0  0  0  0  0  0  0  0  0  0  0  0
   -8.5190   18.1850  -32.0340 C   0  0  0  0  0  0  0  0  0  0  0  0
   -8.8634   17.1413  -31.9891 H   0  0  0  0  0  0  0  0  0  0  0  0
   -7.1510   18.4630  -32.2390 C   0  0  0  0  0  0  0  0  0  0  0  0
   -6.4318   17.6390  -32.3561 H   0  0  0  0  0  0  0  0  0  0  0  0
   -6.7110   19.7950  -32.2930 C   0  0  0  0  0  0  0  0  0  0  0  0
   -5.6505   20.0375  -32.4559 H   0  0  0  0  0  0  0  0  0  0  0  0
   -7.6650   20.8010  -32.1330 C   0  0  0  0  0  0  0  0  0  0  0  0
   -7.6190   22.2600  -32.1580 C   0  0  0  0  0  0  0  0  0  0  0  0
   -6.5950   23.0970  -32.3600 C   0  0  0  0  0  0  0  0  0  0  0  0
   -6.6833   23.8483  -33.1585 H   0  0  0  0  0  0  0  0  0  0  0  0
   -5.3620   23.0620  -31.5700 C   0  0  0  0  0  0  0  0  0  0  0  0
   -5.2120   23.6960  -30.0110 S   0  0  0  0  0  0  0  0  0  0  0  0
   -3.5840   23.3160  -29.8540 C   0  0  0  0  0  0  0  0  0  0  0  0
   -2.7580   23.5420  -28.7570 C   0  0  0  0  0  0  0  0  0  0  0  0
   -3.1442   24.0336  -27.8519 H   0  0  0  0  0  0  0  0  0  0  0  0
   -1.4210   23.1270  -28.8350 C   0  0  0  0  0  0  0  0  0  0  0  0
   -0.7455   23.2935  -27.9830 H   0  0  0  0  0  0  0  0  0  0  0  0
   -0.9390   22.4980  -29.9990 C   0  0  0  0  0  0  0  0  0  0  0  0
    0.1113   22.1750  -30.0500 H   0  0  0  0  0  0  0  0  0  0  0  0
   -1.7890   22.2800  -31.0950 C   0  0  0  0  0  0  0  0  0  0  0  0
   -1.4129   21.7881  -32.0041 H   0  0  0  0  0  0  0  0  0  0  0  0
   -3.1250   22.6990  -31.0130 C   0  0  0  0  0  0  0  0  0  0  0  0
   -4.1220   22.5680  -32.0000 C   0  0  0  0  0  0  0  0  0  0  0  0
   -3.9230   21.9210  -33.2740 N   0  0  0  0  0  0  0  0  0  0  0  0
   -4.7300   22.1380  -33.9050 H   0  0  0  0  0  0  0  0  0  0  0  0
   -3.0590   22.2930  -33.7310 H   0  0  0  0  0  0  0  0  0  0  0  0
   -3.8070   20.4660  -33.0900 C   0  0  0  0  0  0  0  0  0  0  0  0
   -4.6886   19.9781  -33.5312 H   0  0  0  0  0  0  0  0  0  0  0  0
   -3.7440   20.2574  -32.0118 H   0  0  0  0  0  0  0  0  0  0  0  0
   -2.5350   19.9120  -33.7670 C   0  0  0  0  0  0  0  0  0  0  0  0
   -2.8223   19.3490  -34.6672 H   0  0  0  0  0  0  0  0  0  0  0  0
   -2.0144   19.2564  -33.0534 H   0  0  0  0  0  0  0  0  0  0  0  0
   -1.6270   21.0030  -34.1510 N   0  0  0  0  0  0  0  0  0  0  0  0
   -1.7360   21.1590  -35.1820 H   0  0  0  0  0  0  0  0  0  0  0  0
   -0.2240   20.6410  -33.9030 C   0  0  0  0  0  0  0  0  0  0  0  0
   -0.0621   19.5912  -34.1888 H   0  0  0  0  0  0  0  0  0  0  0  0
    0.0012   20.7742  -32.8346 H   0  0  0  0  0  0  0  0  0  0  0  0
    0.6950   21.5360  -34.7250 C   0  0  0  0  0  0  0  0  0  0  0  0
    1.3170   22.1418  -34.0496 H   0  0  0  0  0  0  0  0  0  0  0  0
    1.3424   20.9128  -35.3594 H   0  0  0  0  0  0  0  0  0  0  0  0
    0.0891   22.1996  -35.3594 H   0  0  0  0  0  0  0  0  0  0  0  0
  1  2  1  0
  2  3  2  0
  3  4  1  0
  4  5  2  0
  5  6  1  0
  6  7  1  0
  6  8  2  0
  8  9  1  0
  8 10  1  0
 10 11  1  0
 10 12  2  0
 12 13  1  0
 13 14  2  0
 14 15  1  0
 14 16  1  0
 16 17  1  0
 17 18  1  0
 18 19  2  0
 19 20  1  0
 19 21  1  0
 21 22  1  0
 21 23  2  0
 23 24  1  0
 23 25  1  0
 25 26  1  0
 25 27  2  0
 27 28  1  0
 28 29  1  0
 29 30  1  0
 29 31  1  0
 29 32  1  0
 32 33  1  0
 32 34  1  0
 32 35  1  0
 35 36  1  0
 35 37  1  0
 35 38  1  0
 38 39  1  0
 38 40  1  0
 40 41  1  0
 40 42  1  0
 40 43  1  0
 43 44  1  0
 43 45  1  0
 43 46  1  0
 13  2  1  0
 28 16  2  0
 12  4  1  0
 27 18  1  0
M  CHG  1  29   1
M  END
>  <UniqueID>  (28) 
28

>  <SMILES>  (28) 
CCNCC[NH2+]c1c(/C=C2/C=Nc3ncccc32)sc2ccccc12

>  <Energy>  (28) 
115.87366277989615

>  <Genealogy>  (28) 
CCNCC[NH2+]c1c(C=C2C=Nc3ncccc32)sc2ccccc12 (protonated)
CCNCC[NH2+]c1c(/C=C2/C=Nc3ncccc32)sc2ccccc12 (cis-trans isomerization)
CCNCC[NH2+]c1c(/C=C2/C=Nc3ncccc32)sc2ccccc12 (3D coordinates assigned)
CCNCC[NH2+]c1c(/C=C2/C=Nc3ncccc32)sc2ccccc12 (nonaromatic ring conformer: 115.87366277989615 kcal/mol)

>  <smiles>  (28) 
CCNCCNc1c(C=C2C=Nc3ncccc32)sc2ccccc12

>  <score_type>  (28) 
oracle

>  <origin>  (28) 
adg

>  <m_score__min__energy>  (28) 
-9.1600000000000001

>  <m_primary>  (28) 
energy

$$$$
28:0
     RDKit          3D

 76 76  0  0  0  0  0  0  0  0999 V2000
   -6.5820   24.6290  -30.4280 C   0  0  0  0  0  0  0  0  0  0  0  0
   -7.2440   23.2530  -30.5190 C   0  0  0  0  0  0  0  0  0  0  0  0
   -7.9710   23.0300  -31.8550 C   0  0  0  0  0  0  0  0  0  0  0  0
   -9.1260   22.0190  -31.7310 C   0  0  0  0  0  0  0  0  0  0  0  0
   -8.6440   20.6220  -31.3100 C   0  0  0  0  0  0  0  0  0  0  0  0
   -9.1660   19.5080  -32.2340 C   0  0  0  0  0  0  0  0  0  0  0  0
   -8.0510   18.5590  -32.7100 C   0  0  0  0  0  0  0  0  0  0  0  0
   -6.9930   18.2240  -31.6430 C   0  0  0  0  0  0  0  0  0  0  0  0
   -5.8350   19.2380  -31.6090 C   0  0  0  0  0  0  0  0  0  0  0  0
   -4.8620   19.0640  -32.7880 C   0  0  0  0  0  0  0  0  0  0  0  0
   -4.1710   20.3810  -33.1820 C   0  0  0  0  0  0  0  0  0  0  0  0
   -4.9350   21.6310  -32.7050 C   0  0  0  0  0  0  0  0  0  0  0  0
   -4.1530   22.5560  -31.7530 C   0  0  0  0  0  0  0  0  0  0  0  0
   -3.7200   21.8570  -30.4500 C   0  0  0  0  0  0  0  0  0  0  0  0
   -4.1220   22.6590  -29.1910 C   0  0  0  0  0  0  0  0  0  0  0  0
   -2.9610   22.8950  -28.2080 C   0  0  0  0  0  0  0  0  0  0  0  0
   -3.0390   24.2620  -27.5110 C   0  0  0  0  0  0  0  0  0  0  0  0
   -1.8490   25.1510  -27.7870 C   0  0  0  0  0  0  0  0  0  0  0  0
   -1.7120   25.6670  -28.9340 O   0  0  0  0  0  0  0  0  0  0  0  0
   -0.8810   25.4360  -26.7470 N   0  0  0  0  0  0  0  0  0  0  0  0
    0.2240   26.3710  -26.9970 C   0  0  0  0  0  0  0  0  0  0  0  0
    0.5290   27.2590  -25.7660 C   0  0  0  0  0  0  0  0  0  0  0  0
    0.1210   26.6730  -24.4490 N   0  0  0  0  0  0  0  0  0  0  0  0
   -1.2300   27.1630  -24.0640 C   0  0  0  0  0  0  0  0  0  0  0  0
    1.0770   27.1160  -23.4030 C   0  0  0  0  0  0  0  0  0  0  0  0
    0.1430   25.1830  -24.4960 C   0  0  0  0  0  0  0  0  0  0  0  0
   -0.8520   24.6200  -25.5240 C   0  0  0  0  0  0  0  0  0  0  0  0
   -6.4501   24.9032  -29.3709 H   0  0  0  0  0  0  0  0  0  0  0  0
   -5.6006   24.5972  -30.9238 H   0  0  0  0  0  0  0  0  0  0  0  0
   -7.2193   25.3760  -30.9238 H   0  0  0  0  0  0  0  0  0  0  0  0
   -6.4679   22.4814  -30.4079 H   0  0  0  0  0  0  0  0  0  0  0  0
   -7.9959   23.1931  -29.7183 H   0  0  0  0  0  0  0  0  0  0  0  0
   -8.3783   23.9915  -32.2007 H   0  0  0  0  0  0  0  0  0  0  0  0
   -7.2420   22.6216  -32.5704 H   0  0  0  0  0  0  0  0  0  0  0  0
   -9.8382   22.3879  -30.9782 H   0  0  0  0  0  0  0  0  0  0  0  0
   -9.5956   21.9256  -32.7213 H   0  0  0  0  0  0  0  0  0  0  0  0
   -7.5443   20.6088  -31.3300 H   0  0  0  0  0  0  0  0  0  0  0  0
   -9.0360   20.4264  -30.3010 H   0  0  0  0  0  0  0  0  0  0  0  0
   -9.9181   18.9207  -31.6868 H   0  0  0  0  0  0  0  0  0  0  0  0
   -9.5950   19.9896  -33.1251 H   0  0  0  0  0  0  0  0  0  0  0  0
   -8.5180   17.6182  -33.0368 H   0  0  0  0  0  0  0  0  0  0  0  0
   -7.5213   19.0829  -33.5193 H   0  0  0  0  0  0  0  0  0  0  0  0
   -7.4800   18.2141  -30.6567 H   0  0  0  0  0  0  0  0  0  0  0  0
   -6.5656   17.2431  -31.8982 H   0  0  0  0  0  0  0  0  0  0  0  0
   -6.2551   20.2540  -31.6458 H   0  0  0  0  0  0  0  0  0  0  0  0
   -5.2689   19.0666  -30.6815 H   0  0  0  0  0  0  0  0  0  0  0  0
   -4.0911   18.3326  -32.5040 H   0  0  0  0  0  0  0  0  0  0  0  0
   -5.4458   18.7209  -33.6549 H   0  0  0  0  0  0  0  0  0  0  0  0
   -3.1649   20.3950  -32.7376 H   0  0  0  0  0  0  0  0  0  0  0  0
   -4.1366   20.4172  -34.2809 H   0  0  0  0  0  0  0  0  0  0  0  0
   -5.2169   22.2165  -33.5926 H   0  0  0  0  0  0  0  0  0  0  0  0
   -5.7966   21.2605  -32.1302 H   0  0  0  0  0  0  0  0  0  0  0  0
   -3.2527   22.9139  -32.2740 H   0  0  0  0  0  0  0  0  0  0  0  0
   -4.8239   23.3820  -31.4743 H   0  0  0  0  0  0  0  0  0  0  0  0
   -4.1962   20.8664  -30.4051 H   0  0  0  0  0  0  0  0  0  0  0  0
   -2.6230   21.7760  -30.4607 H   0  0  0  0  0  0  0  0  0  0  0  0
   -4.5091   23.6374  -29.5119 H   0  0  0  0  0  0  0  0  0  0  0  0
   -4.8767   22.0620  -28.6582 H   0  0  0  0  0  0  0  0  0  0  0  0
   -2.9848   22.1074  -27.4405 H   0  0  0  0  0  0  0  0  0  0  0  0
   -2.0265   22.8719  -28.7878 H   0  0  0  0  0  0  0  0  0  0  0  0
   -3.9464   24.7780  -27.8581 H   0  0  0  0  0  0  0  0  0  0  0  0
   -3.0544   24.0711  -26.4278 H   0  0  0  0  0  0  0  0  0  0  0  0
    1.1258   25.7941  -27.2497 H   0  0  0  0  0  0  0  0  0  0  0  0
   -0.0737   27.0318  -27.8245 H   0  0  0  0  0  0  0  0  0  0  0  0
    1.6132   27.4425  -25.7372 H   0  0  0  0  0  0  0  0  0  0  0  0
   -0.0646   28.1764  -25.8927 H   0  0  0  0  0  0  0  0  0  0  0  0
   -1.3107   27.1923  -22.9674 H   0  0  0  0  0  0  0  0  0  0  0  0
   -1.3829   28.1738  -24.4700 H   0  0  0  0  0  0  0  0  0  0  0  0
   -1.9953   26.4852  -24.4700 H   0  0  0  0  0  0  0  0  0  0  0  0
    0.6502   26.9182  -22.4087 H   0  0  0  0  0  0  0  0  0  0  0  0
    2.0222   26.5641  -23.5127 H   0  0  0  0  0  0  0  0  0  0  0  0
    1.2670   28.1939  -23.5127 H   0  0  0  0  0  0  0  0  0  0  0  0
    1.1567   24.8520  -24.7659 H   0  0  0  0  0  0  0  0  0  0  0  0
   -0.1490   24.8093  -23.5035 H   0  0  0  0  0  0  0  0  0  0  0  0
   -0.5539   23.5940  -25.7856 H   0  0  0  0  0  0  0  0  0  0  0  0
   -1.8565   24.6330  -25.0759 H   0  0  0  0  0  0  0  0  0  0  0  0
  1  2  1  0
  2  3  1  0
  3  4  1  0
  4  5  1  0
  5  6  1  0
  6  7  1  0
  7  8  1  0
  8  9  1  0
  9 10  1  0
 10 11  1  0
 11 12  1  0
 12 13  1  0
 13 14  1  0
 14 15  1  0
 15 16  1  0
 16 17  1  0
 17 18  1  0
 18 19  2  0
 18 20  1  0
 20 21  1  0
 21 22  1  0
 22 23  1  0
 23 24  1  0
 23 25  1  0
 23 26  1  0
 26 27  1  0
 27 20  1  0
  1 28  1  0
  1 29  1  0
  1 30  1  0
  2 31  1  0
  2 32  1  0
  3 33  1  0
  3 34  1  0
  4 35  1  0
  4 36  1  0
  5 37  1  0
  5 38  1  0
  6 39  1  0
  6 40  1  0
  7 41  1  0
  7 42  1  0
  8 43  1  0
  8 44  1  0
  9 45  1  0
  9 46  1  0
 10 47  1  0
 10 48  1  0
 11 49  1  0
 11 50  1  0
 12 51  1  0
 12 52  1  0
 13 53  1  0
 13 54  1  0
 14 55  1  0
 14 56  1  0
 15 57  1  0
 15 58  1  0
 16 59  1  0
 16 60  1  0
 17 61  1  0
 17 62  1  0
 21 63  1  0
 21 64  1  0
 22 65  1  0
 22 66  1  0
 24 67  1  0
 24 68  1  0
 24 69  1  0
 25 70  1  0
 25 71  1  0
 25 72  1  0
 26 73  1  0
 26 74  1  0
 27 75  1  0
 27 76  1  0
M  CHG  1  23   1
M  END
>  <UniqueID>  (29) 
29

>  <SMILES>  (29) 
CCCCCCCCCCCCCCCCCC(=O)N1CC[N+](C)(C)CC1

>  <Energy>  (29) 
58.814652722475444

>  <Genealogy>  (29) 
CCCCCCCCCCCCCCCCCC(=O)N1CC[N+](C)(C)CC1 (3D coordinates assigned)
CCCCCCCCCCCCCCCCCC(=O)N1CC[N+](C)(C)CC1 (nonaromatic ring conformer: 58.814652722475444 kcal/mol)

>  <smiles>  (29) 
CCCCCCCCCCCCCCCCCC(=O)N1CC[N+](C)(C)CC1

>  <score_type>  (29) 
oracle

>  <origin>  (29) 
adg

>  <m_score__min__energy>  (29) 
-7.8099999999999996

>  <m_primary>  (29) 
energy

$$$$
29:0
     RDKit          3D

 48 50  0  0  0  0  0  0  0  0999 V2000
   -9.5750   21.7530  -31.8410 C   0  0  0  0  0  0  0  0  0  0  0  0
   -8.7280   21.7620  -30.5740 C   0  0  0  0  0  0  0  0  0  0  0  0
   -7.3140   21.5440  -30.9140 N   0  0  0  0  0  0  0  0  0  0  0  0
   -7.0190   21.9070  -32.3180 C   0  0  1  0  0  0  0  0  0  0  0  0
   -5.9790   23.0590  -32.3390 C   0  0  0  0  0  0  0  0  0  0  0  0
   -4.6130   22.6340  -31.9720 N   0  0  0  0  0  0  0  0  0  0  0  0
   -4.0290   23.0810  -30.7280 C   0  0  0  0  0  0  0  0  0  0  0  0
   -3.6510   22.1750  -29.7280 C   0  0  0  0  0  0  0  0  0  0  0  0
   -3.0840   22.6500  -28.5470 C   0  0  0  0  0  0  0  0  0  0  0  0
   -2.9060   24.0310  -28.3750 C   0  0  0  0  0  0  0  0  0  0  0  0
   -2.3250   24.5820  -27.1760 N   0  0  0  0  0  0  0  0  0  0  0  0
   -1.1830   24.1570  -26.5950 C   0  0  0  0  0  0  0  0  0  0  0  0
   -0.9400   24.9280  -25.4750 C   0  0  0  0  0  0  0  0  0  0  0  0
   -1.9890   25.8260  -25.4270 C   0  0  0  0  0  0  0  0  0  0  0  0
   -2.8090   25.5920  -26.4670 N   0  0  0  0  0  0  0  0  0  0  0  0
   -3.2930   24.8660  -29.3770 N   0  0  0  0  0  0  0  0  0  0  0  0
   -3.8340   24.4100  -30.5080 N   0  0  0  0  0  0  0  0  0  0  0  0
   -3.8500   21.7200  -32.8390 C   0  0  0  0  0  0  0  0  0  0  0  0
   -4.0310   20.2370  -32.4440 C   0  0  0  0  0  0  0  0  0  0  0  0
   -5.4960   19.7790  -32.3270 C   0  0  0  0  0  0  0  0  0  0  0  0
   -6.5120   20.6570  -33.0990 C   0  0  1  0  0  0  0  0  0  0  0  0
   -7.6310   19.8550  -33.4530 O   0  0  0  0  0  0  0  0  0  0  0  0
   -7.7310   18.7300  -32.6070 C   0  0  0  0  0  0  0  0  0  0  0  0
  -10.6409   21.7417  -31.5694 H   0  0  0  0  0  0  0  0  0  0  0  0
   -9.3573   22.6535  -32.4340 H   0  0  0  0  0  0  0  0  0  0  0  0
   -9.3382   20.8573  -32.4340 H   0  0  0  0  0  0  0  0  0  0  0  0
   -8.8361   22.7339  -30.0702 H   0  0  0  0  0  0  0  0  0  0  0  0
   -9.0676   20.9565  -29.9063 H   0  0  0  0  0  0  0  0  0  0  0  0
   -7.1300   20.5220  -30.7720 H   0  0  0  0  0  0  0  0  0  0  0  0
   -7.9343   22.2578  -32.8172 H   0  0  0  0  0  0  0  0  0  0  0  0
   -5.9499   23.4819  -33.3541 H   0  0  0  0  0  0  0  0  0  0  0  0
   -6.2994   23.7944  -31.5863 H   0  0  0  0  0  0  0  0  0  0  0  0
   -3.8010   21.0952  -29.8744 H   0  0  0  0  0  0  0  0  0  0  0  0
   -2.7787   21.9485  -27.7567 H   0  0  0  0  0  0  0  0  0  0  0  0
   -0.5500   23.3323  -26.9544 H   0  0  0  0  0  0  0  0  0  0  0  0
   -0.0960   24.8452  -24.7745 H   0  0  0  0  0  0  0  0  0  0  0  0
   -2.1303   26.6048  -24.6632 H   0  0  0  0  0  0  0  0  0  0  0  0
   -3.6750   26.1350  -26.6780 H   0  0  0  0  0  0  0  0  0  0  0  0
   -4.1904   21.8523  -33.8766 H   0  0  0  0  0  0  0  0  0  0  0  0
   -2.7839   21.9669  -32.7273 H   0  0  0  0  0  0  0  0  0  0  0  0
   -3.5373   19.6163  -33.2062 H   0  0  0  0  0  0  0  0  0  0  0  0
   -3.5885   20.1248  -31.4432 H   0  0  0  0  0  0  0  0  0  0  0  0
   -5.5660   18.7521  -32.7151 H   0  0  0  0  0  0  0  0  0  0  0  0
   -5.7624   19.8584  -31.2627 H   0  0  0  0  0  0  0  0  0  0  0  0
   -5.9766   21.0429  -33.9790 H   0  0  0  0  0  0  0  0  0  0  0  0
   -7.7019   19.0570  -31.5571 H   0  0  0  0  0  0  0  0  0  0  0  0
   -8.6791   18.2076  -32.8022 H   0  0  0  0  0  0  0  0  0  0  0  0
   -6.8899   18.0485  -32.8022 H   0  0  0  0  0  0  0  0  0  0  0  0
  1  2  1  0
  2  3  1  0
  3  4  1  0
  4  5  1  0
  5  6  1  0
  6  7  1  0
  7  8  2  0
  8  9  1  0
  9 10  2  0
 10 11  1  0
 11 12  1  0
 12 13  2  0
 13 14  1  0
 14 15  2  0
 10 16  1  0
 16 17  2  0
  6 18  1  0
 18 19  1  0
 19 20  1  0
 20 21  1  0
 21 22  1  0
 22 23  1  0
 21  4  1  0
 17  7  1  0
 15 11  1  0
  1 24  1  0
  1 25  1  0
  1 26  1  0
  2 27  1  0
  2 28  1  0
  3 29  1  0
  4 30  1  6
  5 31  1  0
  5 32  1  0
  8 33  1  0
  9 34  1  0
 12 35  1  0
 13 36  1  0
 14 37  1  0
 15 38  1  0
 18 39  1  0
 18 40  1  0
 19 41  1  0
 19 42  1  0
 20 43  1  0
 20 44  1  0
 21 45  1  6
 23 46  1  0
 23 47  1  0
 23 48  1  0
M  CHG  1  15   1
M  END
>  <UniqueID>  (30) 
30

>  <SMILES>  (30) 
CCN[C@H]1CN(c2ccc(-n3ccc[nH+]3)nn2)CCC[C@H]1OC

>  <Energy>  (30) 
92.36745123726972

>  <Genealogy>  (30) 
CCNC1CN(c2ccc(-n3ccc[nH+]3)nn2)CCCC1OC (protonated)
CCN[C@H]1CN(c2ccc(-n3ccc[nH+]3)nn2)CCC[C@H]1OC (chirality)
CCN[C@H]1CN(c2ccc(-n3ccc[nH+]3)nn2)CCC[C@H]1OC (3D coordinates assigned)
CCN[C@H]1CN(c2ccc(-n3ccc[nH+]3)nn2)CCC[C@H]1OC (nonaromatic ring conformer: 92.36745123726972 kcal/mol)

>  <smiles>  (30) 
CCNC1CN(c2ccc(-n3cccn3)nn2)CCCC1OC

>  <score_type>  (30) 
oracle

>  <origin>  (30) 
adg

>  <m_score__min__energy>  (30) 
-6.2699999999999996

>  <m_primary>  (30) 
energy

$$$$
30:0
     RDKit          3D

 64 66  0  0  0  0  0  0  0  0999 V2000
   -5.3647   25.7021  -31.1774 H   0  0  0  0  0  0  0  0  0  0  0  0
   -4.6450   24.9370  -30.8510 C   0  0  0  0  0  0  0  0  0  0  0  0
   -3.5750   25.2960  -30.0950 N   0  0  0  0  0  0  0  0  0  0  0  0
   -2.6730   24.3820  -29.6550 C   0  0  0  0  0  0  0  0  0  0  0  0
   -1.5740   24.8020  -28.8970 C   0  0  0  0  0  0  0  0  0  0  0  0
   -1.4466   25.8683  -28.6589 H   0  0  0  0  0  0  0  0  0  0  0  0
   -0.6380   23.8690  -28.4420 C   0  0  0  0  0  0  0  0  0  0  0  0
    0.7530   24.4000  -27.5160 Cl  0  0  0  0  0  0  0  0  0  0  0  0
   -0.8050   22.5120  -28.7260 C   0  0  0  0  0  0  0  0  0  0  0  0
   -0.0765   21.7790  -28.3491 H   0  0  0  0  0  0  0  0  0  0  0  0
   -1.8940   22.0830  -29.4870 C   0  0  0  0  0  0  0  0  0  0  0  0
   -2.0188   21.0126  -29.7074 H   0  0  0  0  0  0  0  0  0  0  0  0
   -2.8350   23.0130  -29.9750 C   0  0  0  0  0  0  0  0  0  0  0  0
   -3.9190   22.6230  -30.7970 C   0  0  0  0  0  0  0  0  0  0  0  0
   -4.0250   21.3770  -31.1660 N   0  0  0  0  0  0  0  0  0  0  0  0
   -3.2210   20.6550  -32.1560 C   0  0  0  0  0  0  0  0  0  0  0  0
   -2.2362   20.4256  -31.7230 H   0  0  0  0  0  0  0  0  0  0  0  0
   -3.1083   21.2880  -33.0486 H   0  0  0  0  0  0  0  0  0  0  0  0
   -3.9140   19.3350  -32.5680 C   0  0  0  0  0  0  0  0  0  0  0  0
   -3.4624   18.5101  -31.9974 H   0  0  0  0  0  0  0  0  0  0  0  0
   -3.7703   19.2146  -33.6519 H   0  0  0  0  0  0  0  0  0  0  0  0
   -5.3790   19.3390  -32.3140 N   0  0  2  0  0  0  0  0  0  0  0  0
   -5.5840   20.1350  -31.6640 H   0  0  0  0  0  0  0  0  0  0  0  0
   -5.8220   18.0980  -31.6240 C   0  0  0  0  0  0  0  0  0  0  0  0
   -5.1520   17.9098  -30.7721 H   0  0  0  0  0  0  0  0  0  0  0  0
   -6.8607   18.2510  -31.2960 H   0  0  0  0  0  0  0  0  0  0  0  0
   -5.8010   16.8890  -32.5340 C   0  0  0  0  0  0  0  0  0  0  0  0
   -6.8800   16.6220  -33.3910 C   0  0  0  0  0  0  0  0  0  0  0  0
   -7.7397   17.3077  -33.4172 H   0  0  0  0  0  0  0  0  0  0  0  0
   -6.8690   15.4880  -34.2130 C   0  0  0  0  0  0  0  0  0  0  0  0
   -7.7211   15.2841  -34.8781 H   0  0  0  0  0  0  0  0  0  0  0  0
   -5.7680   14.6070  -34.1900 C   0  0  0  0  0  0  0  0  0  0  0  0
   -5.7000   13.4610  -34.9970 O   0  0  0  0  0  0  0  0  0  0  0  0
   -6.8110   12.6220  -35.3030 C   0  0  0  0  0  0  0  0  0  0  0  0
   -7.2744   12.2720  -34.3688 H   0  0  0  0  0  0  0  0  0  0  0  0
   -7.5492   13.1900  -35.8882 H   0  0  0  0  0  0  0  0  0  0  0  0
   -6.4667   11.7565  -35.8882 H   0  0  0  0  0  0  0  0  0  0  0  0
   -4.6950   14.8770  -33.3340 C   0  0  0  0  0  0  0  0  0  0  0  0
   -3.8315   14.1959  -33.3109 H   0  0  0  0  0  0  0  0  0  0  0  0
   -4.7100   16.0040  -32.5080 C   0  0  0  0  0  0  0  0  0  0  0  0
   -3.8631   16.1994  -31.8338 H   0  0  0  0  0  0  0  0  0  0  0  0
   -6.1950   19.5770  -33.5380 C   0  0  0  0  0  0  0  0  0  0  0  0
   -6.4820   18.5999  -33.9538 H   0  0  0  0  0  0  0  0  0  0  0  0
   -5.5672   20.1698  -34.2195 H   0  0  0  0  0  0  0  0  0  0  0  0
   -7.4920   20.4040  -33.3040 C   0  0  0  0  0  0  0  0  0  0  0  0
   -8.3530   19.8020  -33.6302 H   0  0  0  0  0  0  0  0  0  0  0  0
   -7.3924   21.3346  -33.8820 H   0  0  0  0  0  0  0  0  0  0  0  0
   -7.6970   20.7880  -31.8900 N   0  0  0  0  0  0  0  0  0  0  0  0
   -7.8720   22.2500  -31.7170 C   0  0  0  0  0  0  0  0  0  0  0  0
   -8.8933   22.5342  -32.0106 H   0  0  0  0  0  0  0  0  0  0  0  0
   -7.1467   22.7832  -32.3491 H   0  0  0  0  0  0  0  0  0  0  0  0
   -7.6420   22.6200  -30.2590 C   0  0  0  0  0  0  0  0  0  0  0  0
   -8.1112   21.8652  -29.6108 H   0  0  0  0  0  0  0  0  0  0  0  0
   -6.5615   22.6570  -30.0561 H   0  0  0  0  0  0  0  0  0  0  0  0
   -8.0871   23.6053  -30.0561 H   0  0  0  0  0  0  0  0  0  0  0  0
   -8.7430   19.9890  -31.2230 C   0  0  0  0  0  0  0  0  0  0  0  0
   -8.3643   19.6357  -30.2526 H   0  0  0  0  0  0  0  0  0  0  0  0
   -9.6324   20.6197  -31.0776 H   0  0  0  0  0  0  0  0  0  0  0  0
   -9.1280   18.7850  -32.0800 C   0  0  0  0  0  0  0  0  0  0  0  0
   -9.3977   17.9416  -31.4274 H   0  0  0  0  0  0  0  0  0  0  0  0
   -9.9873   19.0466  -32.7150 H   0  0  0  0  0  0  0  0  0  0  0  0
   -8.2763   18.4995  -32.7150 H   0  0  0  0  0  0  0  0  0  0  0  0
   -4.8370   23.6050  -31.2160 C   0  0  0  0  0  0  0  0  0  0  0  0
   -5.7044   23.3218  -31.8304 H   0  0  0  0  0  0  0  0  0  0  0  0
  1  2  1  0
  2  3  1  0
  3  4  1  0
  4  5  2  0
  5  6  1  0
  5  7  1  0
  7  8  1  0
  7  9  2  0
  9 10  1  0
  9 11  1  0
 11 12  1  0
 11 13  2  0
 13 14  1  0
 14 15  2  0
 15 16  1  0
 16 17  1  0
 16 18  1  0
 16 19  1  0
 19 20  1  0
 19 21  1  0
 19 22  1  0
 22 23  1  1
 22 24  1  0
 24 25  1  0
 24 26  1  0
 24 27  1  0
 27 28  2  0
 28 29  1  0
 28 30  1  0
 30 31  1  0
 30 32  2  0
 32 33  1  0
 33 34  1  0
 34 35  1  0
 34 36  1  0
 34 37  1  0
 32 38  1  0
 38 39  1  0
 38 40  2  0
 40 41  1  0
 22 42  1  0
 42 43  1  0
 42 44  1  0
 42 45  1  0
 45 46  1  0
 45 47  1  0
 45 48  1  0
 48 49  1  0
 49 50  1  0
 49 51  1  0
 49 52  1  0
 52 53  1  0
 52 54  1  0
 52 55  1  0
 48 56  1  0
 56 57  1  0
 56 58  1  0
 56 59  1  0
 59 60  1  0
 59 61  1  0
 59 62  1  0
 14 63  1  0
 63 64  1  0
 63  2  2  0
 13  4  1  0
 40 27  1  0
M  CHG  2   3  -1  22   1
M  END
>  <UniqueID>  (31) 
31

>  <SMILES>  (31) 
CCN(CC)CC[N@H+](CC/N=c1\cc[n-]c2cc(Cl)ccc12)Cc1ccc(OC)cc1

>  <Energy>  (31) 
79.39279963576051

>  <Genealogy>  (31) 
CCN(CC)CC[NH+](CCN=c1cc[n-]c2cc(Cl)ccc12)Cc1ccc(OC)cc1 (protonated)
CCN(CC)CC[N@H+](CCN=c1cc[n-]c2cc(Cl)ccc12)Cc1ccc(OC)cc1 (chirality)
CCN(CC)CC[N@H+](CC/N=c1\cc[n-]c2cc(Cl)ccc12)Cc1ccc(OC)cc1 (cis-trans isomerization)
CCN(CC)CC[N@H+](CC/N=c1\cc[n-]c2cc(Cl)ccc12)Cc1ccc(OC)cc1 (3D coordinates assigned)
CCN(CC)CC[N@H+](CC/N=c1\cc[n-]c2cc(Cl)ccc12)Cc1ccc(OC)cc1 (optimized conformer: 79.39279963576051 kcal/mol)

>  <smiles>  (31) 
CCN(CC)CCN(CCN=c1cc[nH]c2cc(Cl)ccc12)Cc1ccc(OC)cc1

>  <score_type>  (31) 
oracle

>  <origin>  (31) 
adg

>  <m_score__min__energy>  (31) 
-8.9399999999999995

>  <m_primary>  (31) 
energy

$$$$
31:0
     RDKit          3D

 51 53  0  0  0  0  0  0  0  0999 V2000
   -1.1930   27.4400  -24.9020 C   0  0  0  0  0  0  0  0  0  0  0  0
   -0.4680   27.1340  -23.5900 C   0  0  0  0  0  0  0  0  0  0  0  0
   -0.1080   25.7100  -23.4650 N   0  0  0  0  0  0  0  0  0  0  0  0
   -0.5780   24.8850  -24.6030 C   0  0  0  0  0  0  0  0  0  0  0  0
   -0.3410   23.3810  -24.3830 C   0  0  0  0  0  0  0  0  0  0  0  0
   -0.1500   22.6590  -25.6890 C   0  0  0  0  0  0  0  0  0  0  0  0
    1.0160   22.5640  -26.1600 O   0  0  0  0  0  0  0  0  0  0  0  0
   -1.2650   22.0920  -26.4040 N   0  0  0  0  0  0  0  0  0  0  0  0
   -1.6280   20.6710  -26.3810 C   0  0  0  0  0  0  0  0  0  0  0  0
   -2.6780   20.4740  -27.4980 C   0  0  0  0  0  0  0  0  0  0  0  0
   -2.8680   21.8450  -28.0380 C   0  0  0  0  0  0  0  0  0  0  0  0
   -3.7500   22.2530  -29.0410 C   0  0  0  0  0  0  0  0  0  0  0  0
   -3.8030   23.6160  -29.3800 C   0  0  0  0  0  0  0  0  0  0  0  0
   -4.9180   24.1580  -30.6300 S   0  0  0  0  0  0  0  0  0  0  0  0
   -4.6060   23.4460  -31.9160 O   0  0  0  0  0  0  0  0  0  0  0  0
   -4.7670   25.6390  -30.8460 O   0  0  0  0  0  0  0  0  0  0  0  0
   -6.5880   23.7950  -30.1190 C   0  0  0  0  0  0  0  0  0  0  0  0
   -7.1400   22.6440  -30.9100 C   0  0  0  0  0  0  0  0  0  0  0  0
   -8.4840   22.6450  -31.3190 C   0  0  0  0  0  0  0  0  0  0  0  0
   -9.0060   21.5570  -32.0270 C   0  0  0  0  0  0  0  0  0  0  0  0
   -8.1930   20.4600  -32.3240 C   0  0  0  0  0  0  0  0  0  0  0  0
   -6.8580   20.4470  -31.9110 C   0  0  0  0  0  0  0  0  0  0  0  0
   -6.3330   21.5310  -31.2020 C   0  0  0  0  0  0  0  0  0  0  0  0
   -2.9880   24.5410  -28.6940 C   0  0  0  0  0  0  0  0  0  0  0  0
   -2.1090   24.1050  -27.6910 C   0  0  0  0  0  0  0  0  0  0  0  0
   -2.0540   22.7370  -27.3950 C   0  0  0  0  0  0  0  0  0  0  0  0
   -2.1861   27.8592  -24.6830 H   0  0  0  0  0  0  0  0  0  0  0  0
   -0.6078   28.1679  -25.4832 H   0  0  0  0  0  0  0  0  0  0  0  0
   -1.3063   26.5130  -25.4832 H   0  0  0  0  0  0  0  0  0  0  0  0
    0.4517   27.7359  -23.5460 H   0  0  0  0  0  0  0  0  0  0  0  0
   -1.1514   27.3806  -22.7641 H   0  0  0  0  0  0  0  0  0  0  0  0
    0.9240   25.6250  -23.3150 H   0  0  0  0  0  0  0  0  0  0  0  0
   -0.5650   25.3510  -22.5930 H   0  0  0  0  0  0  0  0  0  0  0  0
   -1.6561   25.0552  -24.7396 H   0  0  0  0  0  0  0  0  0  0  0  0
   -0.0033   25.1857  -25.4914 H   0  0  0  0  0  0  0  0  0  0  0  0
    0.5591   23.2471  -23.7650 H   0  0  0  0  0  0  0  0  0  0  0  0
   -1.2250   22.9608  -23.8810 H   0  0  0  0  0  0  0  0  0  0  0  0
   -0.7425   20.0484  -26.5764 H   0  0  0  0  0  0  0  0  0  0  0  0
   -2.0278   20.3761  -25.3996 H   0  0  0  0  0  0  0  0  0  0  0  0
   -2.3020   19.7932  -28.2759 H   0  0  0  0  0  0  0  0  0  0  0  0
   -3.6127   20.0226  -27.1338 H   0  0  0  0  0  0  0  0  0  0  0  0
   -4.3908   21.5219  -29.5557 H   0  0  0  0  0  0  0  0  0  0  0  0
   -6.5914   23.5348  -29.0502 H   0  0  0  0  0  0  0  0  0  0  0  0
   -7.2151   24.6815  -30.2946 H   0  0  0  0  0  0  0  0  0  0  0  0
   -9.1283   23.5044  -31.0817 H   0  0  0  0  0  0  0  0  0  0  0  0
  -10.0574   21.5652  -32.3502 H   0  0  0  0  0  0  0  0  0  0  0  0
   -8.6039   19.6064  -32.8830 H   0  0  0  0  0  0  0  0  0  0  0  0
   -6.2194   19.5823  -32.1443 H   0  0  0  0  0  0  0  0  0  0  0  0
   -5.2841   21.5130  -30.8712 H   0  0  0  0  0  0  0  0  0  0  0  0
   -3.0420   25.6102  -28.9469 H   0  0  0  0  0  0  0  0  0  0  0  0
   -1.4762   24.8227  -27.1483 H   0  0  0  0  0  0  0  0  0  0  0  0
  1  2  1  0
  2  3  1  0
  3  4  1  0
  4  5  1  0
  5  6  1  0
  6  7  2  0
  6  8  1  0
  8  9  1  0
  9 10  1  0
 10 11  1  0
 11 12  2  0
 12 13  1  0
 13 14  1  0
 14 15  2  0
 14 16  2  0
 14 17  1  0
 17 18  1  0
 18 19  2  0
 19 20  1  0
 20 21  2  0
 21 22  1  0
 22 23  2  0
 13 24  2  0
 24 25  1  0
 25 26  2  0
 26  8  1  0
 26 11  1  0
 23 18  1  0
  1 27  1  0
  1 28  1  0
  1 29  1  0
  2 30  1  0
  2 31  1  0
  3 32  1  0
  3 33  1  0
  4 34  1  0
  4 35  1  0
  5 36  1  0
  5 37  1  0
  9 38  1  0
  9 39  1  0
 10 40  1  0
 10 41  1  0
 12 42  1  0
 17 43  1  0
 17 44  1  0
 19 45  1  0
 20 46  1  0
 21 47  1  0
 22 48  1  0
 23 49  1  0
 24 50  1  0
 25 51  1  0
M  CHG  1   3   1
M  END
>  <UniqueID>  (32) 
32

>  <SMILES>  (32) 
CC[NH2+]CCC(=O)N1CCc2cc(S(=O)(=O)Cc3ccccc3)ccc21

>  <Energy>  (32) 
63.393850120215994

>  <Genealogy>  (32) 
CC[NH2+]CCC(=O)N1CCc2cc(S(=O)(=O)Cc3ccccc3)ccc21 (protonated)
CC[NH2+]CCC(=O)N1CCc2cc(S(=O)(=O)Cc3ccccc3)ccc21 (3D coordinates assigned)
CC[NH2+]CCC(=O)N1CCc2cc(S(=O)(=O)Cc3ccccc3)ccc21 (nonaromatic ring conformer: 63.393850120215994 kcal/mol)

>  <smiles>  (32) 
CCNCCC(=O)N1CCc2cc(S(=O)(=O)Cc3ccccc3)ccc21

>  <score_type>  (32) 
oracle

>  <origin>  (32) 
adg

>  <m_score__min__energy>  (32) 
-9.3900000000000006

>  <m_primary>  (32) 
energy

$$$$
32:0
     RDKit          3D

 44 46  0  0  0  0  0  0  0  0999 V2000
   -6.1370   25.3490  -29.3670 C   0  0  0  0  0  0  0  0  0  0  0  0
   -5.3520   25.4390  -30.6790 C   0  0  0  0  0  0  0  0  0  0  0  0
   -3.9000   25.3100  -30.4710 N   0  0  0  0  0  0  0  0  0  0  0  0
   -3.5590   24.4610  -29.3160 C   0  0  0  0  0  0  0  0  0  0  0  0
   -3.4260   22.9980  -29.7510 C   0  0  0  0  0  0  0  0  0  0  0  0
   -3.2920   22.8820  -31.2100 N   0  0  0  0  0  0  0  0  0  0  0  0
   -4.5960   22.6880  -31.8570 C   0  0  0  0  0  0  0  0  0  0  0  0
   -4.4600   21.6890  -33.0050 C   0  0  0  0  0  0  0  0  0  0  0  0
   -5.5130   20.6730  -32.9170 N   0  0  0  0  0  0  0  0  0  0  0  0
   -6.8100   20.8610  -32.5580 C   0  0  0  0  0  0  0  0  0  0  0  0
   -7.4270   22.0470  -32.1490 C   0  0  0  0  0  0  0  0  0  0  0  0
   -8.8000   22.0070  -31.8420 C   0  0  0  0  0  0  0  0  0  0  0  0
   -9.5270   20.8000  -31.9530 C   0  0  0  0  0  0  0  0  0  0  0  0
   -8.8910   19.6200  -32.3750 C   0  0  0  0  0  0  0  0  0  0  0  0
   -7.5300   19.6870  -32.6700 C   0  0  0  0  0  0  0  0  0  0  0  0
   -6.6490   18.7370  -33.1300 C   0  0  0  0  0  0  0  0  0  0  0  0
   -6.8100   17.3940  -33.4560 C   0  0  0  0  0  0  0  0  0  0  0  0
   -5.7260   16.7120  -33.9310 N   0  0  0  0  0  0  0  0  0  0  0  0
   -4.5060   17.3160  -34.0960 C   0  0  0  0  0  0  0  0  0  0  0  0
   -4.3280   18.6740  -33.7750 C   0  0  0  0  0  0  0  0  0  0  0  0
   -5.4340   19.3680  -33.2800 C   0  0  0  0  0  0  0  0  0  0  0  0
   -5.4423   25.4286  -28.5179 H   0  0  0  0  0  0  0  0  0  0  0  0
   -6.8686   26.1692  -29.3204 H   0  0  0  0  0  0  0  0  0  0  0  0
   -6.6640   24.3846  -29.3204 H   0  0  0  0  0  0  0  0  0  0  0  0
   -5.6867   24.6322  -31.3476 H   0  0  0  0  0  0  0  0  0  0  0  0
   -5.5425   26.4294  -31.1181 H   0  0  0  0  0  0  0  0  0  0  0  0
   -3.4560   24.9200  -31.3370 H   0  0  0  0  0  0  0  0  0  0  0  0
   -2.6048   24.7997  -28.8860 H   0  0  0  0  0  0  0  0  0  0  0  0
   -4.3598   24.5394  -28.5660 H   0  0  0  0  0  0  0  0  0  0  0  0
   -2.5355   22.5625  -29.2741 H   0  0  0  0  0  0  0  0  0  0  0  0
   -4.3357   22.4615  -29.4433 H   0  0  0  0  0  0  0  0  0  0  0  0
   -2.8950   23.7840  -31.5650 H   0  0  0  0  0  0  0  0  0  0  0  0
   -5.3156   22.3018  -31.1201 H   0  0  0  0  0  0  0  0  0  0  0  0
   -4.9520   23.6505  -32.2531 H   0  0  0  0  0  0  0  0  0  0  0  0
   -4.5480   22.2220  -33.9632 H   0  0  0  0  0  0  0  0  0  0  0  0
   -3.4786   21.1966  -32.9390 H   0  0  0  0  0  0  0  0  0  0  0  0
   -6.8562   22.9839  -32.0695 H   0  0  0  0  0  0  0  0  0  0  0  0
   -9.3118   22.9233  -31.5127 H   0  0  0  0  0  0  0  0  0  0  0  0
  -10.5991   20.7841  -31.7071 H   0  0  0  0  0  0  0  0  0  0  0  0
   -9.4478   18.6760  -32.4693 H   0  0  0  0  0  0  0  0  0  0  0  0
   -7.7830   16.8954  -33.3346 H   0  0  0  0  0  0  0  0  0  0  0  0
   -5.8310   15.7030  -34.1800 H   0  0  0  0  0  0  0  0  0  0  0  0
   -3.6577   16.7326  -34.4834 H   0  0  0  0  0  0  0  0  0  0  0  0
   -3.3553   19.1700  -33.9087 H   0  0  0  0  0  0  0  0  0  0  0  0
  1  2  1  0
  2  3  1  0
  3  4  1  0
  4  5  1  0
  5  6  1  0
  6  7  1  0
  7  8  1  0
  8  9  1  0
  9 10  1  0
 10 11  2  0
 11 12  1  0
 12 13  2  0
 13 14  1  0
 14 15  2  0
 15 16  1  0
 16 17  2  0
 17 18  1  0
 18 19  2  0
 19 20  1  0
 20 21  2  0
 21  9  1  0
 15 10  1  0
 21 16  1  0
  1 22  1  0
  1 23  1  0
  1 24  1  0
  2 25  1  0
  2 26  1  0
  3 27  1  0
  4 28  1  0
  4 29  1  0
  5 30  1  0
  5 31  1  0
  6 32  1  0
  7 33  1  0
  7 34  1  0
  8 35  1  0
  8 36  1  0
 11 37  1  0
 12 38  1  0
 13 39  1  0
 14 40  1  0
 17 41  1  0
 18 42  1  0
 19 43  1  0
 20 44  1  0
M  CHG  1  18   1
M  END
>  <UniqueID>  (33) 
33

>  <SMILES>  (33) 
CCNCCNCCn1c2ccccc2c2c[nH+]ccc21

>  <Energy>  (33) 
81.5185529523456

>  <Genealogy>  (33) 
CCNCCNCCn1c2ccccc2c2c[nH+]ccc21 (protonated)
CCNCCNCCn1c2ccccc2c2c[nH+]ccc21 (3D coordinates assigned)
CCNCCNCCn1c2ccccc2c2c[nH+]ccc21 (optimized conformer: 81.5185529523456 kcal/mol)

>  <smiles>  (33) 
CCNCCNCCn1c2ccccc2c2cnccc21

>  <score_type>  (33) 
oracle

>  <origin>  (33) 
adg

>  <m_score__min__energy>  (33) 
-7.75

>  <m_primary>  (33) 
energy

$$$$
33:0
     RDKit          3D

 42 45  0  0  0  0  0  0  0  0999 V2000
   -4.7150   12.7250  -32.2940 C   0  0  0  0  0  0  0  0  0  0  0  0
   -4.5700   14.0260  -31.7340 O   0  0  0  0  0  0  0  0  0  0  0  0
   -4.8010   15.2190  -32.4340 C   0  0  0  0  0  0  0  0  0  0  0  0
   -4.4300   15.3900  -33.7820 C   0  0  0  0  0  0  0  0  0  0  0  0
   -4.6820   16.5990  -34.4350 C   0  0  0  0  0  0  0  0  0  0  0  0
   -5.3000   17.6580  -33.7530 C   0  0  0  0  0  0  0  0  0  0  0  0
   -5.6130   18.9410  -34.4730 C   0  0  0  0  0  0  0  0  0  0  0  0
   -6.3250   19.8500  -33.5790 N   0  0  0  0  0  0  0  0  0  0  0  0
   -7.6390   19.8480  -33.3880 N   0  0  0  0  0  0  0  0  0  0  0  0
   -7.8760   20.7400  -32.4100 C   0  0  0  0  0  0  0  0  0  0  0  0
   -9.0840   21.0060  -31.8580 N   0  0  0  0  0  0  0  0  0  0  0  0
   -9.1500   21.8970  -30.8280 C   0  0  0  0  0  0  0  0  0  0  0  0
   -7.9840   22.5220  -30.3420 C   0  0  0  0  0  0  0  0  0  0  0  0
   -6.7460   22.2230  -30.9400 C   0  0  0  0  0  0  0  0  0  0  0  0
   -5.5090   22.8850  -30.4750 C   0  0  0  0  0  0  0  0  0  0  0  0
   -5.3800   24.2810  -30.5490 C   0  0  0  0  0  0  0  0  0  0  0  0
   -4.2170   24.9070  -30.0890 C   0  0  0  0  0  0  0  0  0  0  0  0
   -3.1800   24.1440  -29.5410 C   0  0  0  0  0  0  0  0  0  0  0  0
   -1.7220   24.9300  -28.9640 Cl  0  0  0  0  0  0  0  0  0  0  0  0
   -3.3090   22.7540  -29.4500 C   0  0  0  0  0  0  0  0  0  0  0  0
   -4.4710   22.1260  -29.9100 C   0  0  0  0  0  0  0  0  0  0  0  0
   -6.7510   21.3220  -31.9640 N   0  0  0  0  0  0  0  0  0  0  0  0
   -5.7880   20.7300  -32.7020 C   0  0  0  0  0  0  0  0  0  0  0  0
   -4.5510   20.9270  -32.5640 O   0  0  0  0  0  0  0  0  0  0  0  0
   -5.6830   17.4840  -32.4160 C   0  0  0  0  0  0  0  0  0  0  0  0
   -5.4300   16.2750  -31.7620 C   0  0  0  0  0  0  0  0  0  0  0  0
   -4.7975   11.9846  -31.4847 H   0  0  0  0  0  0  0  0  0  0  0  0
   -5.6224   12.6921  -32.9150 H   0  0  0  0  0  0  0  0  0  0  0  0
   -3.8371   12.4932  -32.9150 H   0  0  0  0  0  0  0  0  0  0  0  0
   -3.9394   14.5675  -34.3232 H   0  0  0  0  0  0  0  0  0  0  0  0
   -4.3943   16.7214  -35.4896 H   0  0  0  0  0  0  0  0  0  0  0  0
   -4.6755   19.4128  -34.8023 H   0  0  0  0  0  0  0  0  0  0  0  0
   -6.2450   18.7221  -35.3463 H   0  0  0  0  0  0  0  0  0  0  0  0
   -8.3280   19.2340  -33.8790 H   0  0  0  0  0  0  0  0  0  0  0  0
  -10.1233   22.1304  -30.3717 H   0  0  0  0  0  0  0  0  0  0  0  0
   -8.0411   23.2345  -29.5058 H   0  0  0  0  0  0  0  0  0  0  0  0
   -6.1970   24.8850  -30.9705 H   0  0  0  0  0  0  0  0  0  0  0  0
   -4.1174   26.0003  -30.1581 H   0  0  0  0  0  0  0  0  0  0  0  0
   -2.4955   22.1541  -29.0161 H   0  0  0  0  0  0  0  0  0  0  0  0
   -4.5723   21.0337  -29.8290 H   0  0  0  0  0  0  0  0  0  0  0  0
   -6.1849   18.3025  -31.8791 H   0  0  0  0  0  0  0  0  0  0  0  0
   -5.7275   16.1516  -30.7102 H   0  0  0  0  0  0  0  0  0  0  0  0
  1  2  1  0
  2  3  1  0
  3  4  2  0
  4  5  1  0
  5  6  2  0
  6  7  1  0
  7  8  1  0
  8  9  1  0
  9 10  2  0
 10 11  1  0
 11 12  2  0
 12 13  1  0
 13 14  2  0
 14 15  1  0
 15 16  2  0
 16 17  1  0
 17 18  2  0
 18 19  1  0
 18 20  1  0
 20 21  2  0
 14 22  1  0
 22 23  1  0
 23 24  2  0
  6 25  1  0
 25 26  2  0
 26  3  1  0
 23  8  1  0
 22 10  1  0
 21 15  1  0
  1 27  1  0
  1 28  1  0
  1 29  1  0
  4 30  1  0
  5 31  1  0
  7 32  1  0
  7 33  1  0
  9 34  1  0
 12 35  1  0
 13 36  1  0
 16 37  1  0
 17 38  1  0
 20 39  1  0
 21 40  1  0
 25 41  1  0
 26 42  1  0
M  CHG  1   9   1
M  END
>  <UniqueID>  (34) 
34

>  <SMILES>  (34) 
COc1ccc(Cn2[nH+]c3nccc(-c4ccc(Cl)cc4)n3c2=O)cc1

>  <Energy>  (34) 
97.93435588707902

>  <Genealogy>  (34) 
COc1ccc(Cn2[nH+]c3nccc(-c4ccc(Cl)cc4)n3c2=O)cc1 (protonated)
COc1ccc(Cn2[nH+]c3nccc(-c4ccc(Cl)cc4)n3c2=O)cc1 (3D coordinates assigned)
COc1ccc(Cn2[nH+]c3nccc(-c4ccc(Cl)cc4)n3c2=O)cc1 (optimized conformer: 97.93435588707902 kcal/mol)

>  <smiles>  (34) 
COc1ccc(Cn2nc3nccc(-c4ccc(Cl)cc4)n3c2=O)cc1

>  <score_type>  (34) 
oracle

>  <origin>  (34) 
adg

>  <m_score__min__energy>  (34) 
-8.1300000000000008

>  <m_primary>  (34) 
energy

$$$$
34:0
     RDKit          3D

 39 41  0  0  0  0  0  0  0  0999 V2000
   -2.2450   24.1750  -29.3080 C   0  0  0  0  0  0  0  0  0  0  0  0
   -3.1670   24.9240  -30.0930 O   0  0  0  0  0  0  0  0  0  0  0  0
   -4.4950   24.5430  -30.3370 C   0  0  0  0  0  0  0  0  0  0  0  0
   -5.5180   25.2630  -29.7100 C   0  0  0  0  0  0  0  0  0  0  0  0
   -6.8550   24.9180  -29.9170 C   0  0  0  0  0  0  0  0  0  0  0  0
   -7.1840   23.8500  -30.7540 C   0  0  0  0  0  0  0  0  0  0  0  0
   -6.1740   23.1190  -31.3990 C   0  0  0  0  0  0  0  0  0  0  0  0
   -6.5090   22.0100  -32.2550 N   0  0  0  0  0  0  0  0  0  0  0  0
   -5.4730   21.3390  -33.0530 C   0  0  0  0  0  0  0  0  0  0  0  0
   -5.4890   19.8360  -32.7550 C   0  0  0  0  0  0  0  0  0  0  0  0
   -6.8630   19.3090  -32.7320 N   0  0  0  0  0  0  0  0  0  0  0  0
   -7.1120   18.0100  -32.1670 C   0  0  0  0  0  0  0  0  0  0  0  0
   -7.9910   17.8810  -31.2720 O   0  0  0  0  0  0  0  0  0  0  0  0
   -6.3580   16.8250  -32.6050 C   0  0  0  0  0  0  0  0  0  0  0  0
   -5.3070   16.2150  -31.9270 C   0  0  0  0  0  0  0  0  0  0  0  0
   -4.7550   15.1320  -32.6230 C   0  0  0  0  0  0  0  0  0  0  0  0
   -5.3570   14.8920  -33.8510 C   0  0  0  0  0  0  0  0  0  0  0  0
   -6.5740   16.0310  -34.0730 S   0  0  0  0  0  0  0  0  0  0  0  0
   -7.9910   20.1890  -33.0640 C   0  0  0  0  0  0  0  0  0  0  0  0
   -7.8880   21.4950  -32.2680 C   0  0  0  0  0  0  0  0  0  0  0  0
   -4.8290   23.4670  -31.1820 C   0  0  0  0  0  0  0  0  0  0  0  0
   -2.4514   24.3426  -28.2406 H   0  0  0  0  0  0  0  0  0  0  0  0
   -2.3520   23.1047  -29.5385 H   0  0  0  0  0  0  0  0  0  0  0  0
   -1.2194   24.4990  -29.5385 H   0  0  0  0  0  0  0  0  0  0  0  0
   -5.2672   26.1063  -29.0497 H   0  0  0  0  0  0  0  0  0  0  0  0
   -7.6520   25.4896  -29.4189 H   0  0  0  0  0  0  0  0  0  0  0  0
   -8.2391   23.5803  -30.9086 H   0  0  0  0  0  0  0  0  0  0  0  0
   -5.6714   21.5025  -34.1226 H   0  0  0  0  0  0  0  0  0  0  0  0
   -4.4871   21.7526  -32.7944 H   0  0  0  0  0  0  0  0  0  0  0  0
   -4.9168   19.3104  -33.5337 H   0  0  0  0  0  0  0  0  0  0  0  0
   -5.0389   19.6741  -31.7645 H   0  0  0  0  0  0  0  0  0  0  0  0
   -4.9460   16.5497  -30.9433 H   0  0  0  0  0  0  0  0  0  0  0  0
   -3.9224   14.5281  -32.2332 H   0  0  0  0  0  0  0  0  0  0  0  0
   -5.0846   14.0939  -34.5573 H   0  0  0  0  0  0  0  0  0  0  0  0
   -7.9719   20.4157  -34.1402 H   0  0  0  0  0  0  0  0  0  0  0  0
   -8.9327   19.6822  -32.8066 H   0  0  0  0  0  0  0  0  0  0  0  0
   -8.5463   22.2469  -32.7276 H   0  0  0  0  0  0  0  0  0  0  0  0
   -8.1911   21.2922  -31.2302 H   0  0  0  0  0  0  0  0  0  0  0  0
   -4.0309   22.8939  -31.6765 H   0  0  0  0  0  0  0  0  0  0  0  0
  1  2  1  0
  2  3  1  0
  3  4  2  0
  4  5  1  0
  5  6  2  0
  6  7  1  0
  7  8  1  0
  8  9  1  0
  9 10  1  0
 10 11  1  0
 11 12  1  0
 12 13  2  0
 12 14  1  0
 14 15  2  0
 15 16  1  0
 16 17  2  0
 17 18  1  0
 11 19  1  0
 19 20  1  0
  7 21  2  0
 21  3  1  0
 20  8  1  0
 18 14  1  0
  1 22  1  0
  1 23  1  0
  1 24  1  0
  4 25  1  0
  5 26  1  0
  6 27  1  0
  9 28  1  0
  9 29  1  0
 10 30  1  0
 10 31  1  0
 15 32  1  0
 16 33  1  0
 17 34  1  0
 19 35  1  0
 19 36  1  0
 20 37  1  0
 20 38  1  0
 21 39  1  0
M  END
>  <UniqueID>  (35) 
35

>  <SMILES>  (35) 
COc1cccc(N2CCN(C(=O)c3cccs3)CC2)c1

>  <Energy>  (35) 
74.32099590650816

>  <Genealogy>  (35) 
COc1cccc(N2CCN(C(=O)c3cccs3)CC2)c1 (3D coordinates assigned)
COc1cccc(N2CCN(C(=O)c3cccs3)CC2)c1 (nonaromatic ring conformer: 74.32099590650816 kcal/mol)

>  <smiles>  (35) 
COc1cccc(N2CCN(C(=O)c3cccs3)CC2)c1

>  <score_type>  (35) 
oracle

>  <origin>  (35) 
adg

>  <m_score__min__energy>  (35) 
-7.8300000000000001

>  <m_primary>  (35) 
energy

$$$$
35:0
     RDKit          3D

 70 74  0  0  0  0  0  0  0  0999 V2000
    0.0961   23.7101  -26.0944 H   0  0  0  0  0  0  0  0  0  0  0  0
   -0.5850   23.8290  -26.9500 C   0  0  0  0  0  0  0  0  0  0  0  0
   -1.8780   24.3260  -26.7520 C   0  0  0  0  0  0  0  0  0  0  0  0
   -2.2187   24.5838  -25.7384 H   0  0  0  0  0  0  0  0  0  0  0  0
   -2.7370   24.4950  -27.8420 C   0  0  0  0  0  0  0  0  0  0  0  0
   -3.7586   24.8698  -27.6809 H   0  0  0  0  0  0  0  0  0  0  0  0
   -2.3010   24.1880  -29.1440 C   0  0  0  0  0  0  0  0  0  0  0  0
   -3.1560   24.3490  -30.2860 N   0  0  0  0  0  0  0  0  0  0  0  0
   -3.7550   23.3900  -30.9290 C   0  0  0  0  0  0  0  0  0  0  0  0
   -3.1110   22.6740  -31.8500 O   0  0  0  0  0  0  0  0  0  0  0  0
   -3.6570   21.6420  -32.4910 C   0  0  0  0  0  0  0  0  0  0  0  0
   -2.9090   20.9370  -33.4590 C   0  0  0  0  0  0  0  0  0  0  0  0
   -1.5550   21.3310  -33.7940 N   0  0  0  0  0  0  0  0  0  0  0  0
   -1.1300   20.6960  -34.5080 H   0  0  0  0  0  0  0  0  0  0  0  0
   -1.5890   22.2870  -34.2170 H   0  0  0  0  0  0  0  0  0  0  0  0
   -0.6720   21.3770  -32.6140 C   0  0  0  0  0  0  0  0  0  0  0  0
   -1.1383   22.0166  -31.8502 H   0  0  0  0  0  0  0  0  0  0  0  0
    0.2993   21.7764  -32.9411 H   0  0  0  0  0  0  0  0  0  0  0  0
   -0.4210   19.9830  -32.0040 C   0  0  0  0  0  0  0  0  0  0  0  0
   -0.0191   19.3194  -32.7838 H   0  0  0  0  0  0  0  0  0  0  0  0
   -1.3766   19.6003  -31.6162 H   0  0  0  0  0  0  0  0  0  0  0  0
    0.5750   20.0460  -30.8440 C   0  0  0  0  0  0  0  0  0  0  0  0
    1.1249   20.9978  -30.8856 H   0  0  0  0  0  0  0  0  0  0  0  0
    1.2818   19.2070  -30.9249 H   0  0  0  0  0  0  0  0  0  0  0  0
   -0.1510   19.9530  -29.5570 N   0  0  0  0  0  0  0  0  0  0  0  0
   -1.5850   20.2620  -29.7070 C   0  0  0  0  0  0  0  0  0  0  0  0
   -2.0588   19.4888  -30.3296 H   0  0  0  0  0  0  0  0  0  0  0  0
   -1.6888   21.2481  -30.1832 H   0  0  0  0  0  0  0  0  0  0  0  0
   -2.2770   20.2980  -28.3270 C   0  0  0  0  0  0  0  0  0  0  0  0
   -3.1606   19.6433  -28.3528 H   0  0  0  0  0  0  0  0  0  0  0  0
   -2.5665   21.3373  -28.1126 H   0  0  0  0  0  0  0  0  0  0  0  0
   -1.3670   19.8370  -27.2520 N   0  0  0  0  0  0  0  0  0  0  0  0
   -2.0820   19.7770  -25.9590 C   0  0  0  0  0  0  0  0  0  0  0  0
   -2.5383   20.7564  -25.7527 H   0  0  0  0  0  0  0  0  0  0  0  0
   -1.3626   19.5175  -25.1684 H   0  0  0  0  0  0  0  0  0  0  0  0
   -3.1770   18.7110  -25.9970 C   0  0  0  0  0  0  0  0  0  0  0  0
   -3.4581   18.4373  -24.9693 H   0  0  0  0  0  0  0  0  0  0  0  0
   -4.0569   19.1078  -26.5245 H   0  0  0  0  0  0  0  0  0  0  0  0
   -2.8039   17.8208  -26.5245 H   0  0  0  0  0  0  0  0  0  0  0  0
   -0.7930   18.5240  -27.6140 C   0  0  0  0  0  0  0  0  0  0  0  0
   -1.6086   17.8003  -27.7592 H   0  0  0  0  0  0  0  0  0  0  0  0
   -0.1293   18.1906  -26.8026 H   0  0  0  0  0  0  0  0  0  0  0  0
    0.0280   18.6320  -28.9170 C   0  0  0  0  0  0  0  0  0  0  0  0
   -0.3022   17.8482  -29.6146 H   0  0  0  0  0  0  0  0  0  0  0  0
    1.0923   18.5082  -28.6680 H   0  0  0  0  0  0  0  0  0  0  0  0
   -3.4870   19.8240  -34.0900 C   0  0  0  0  0  0  0  0  0  0  0  0
   -2.9044   19.2570  -34.8310 H   0  0  0  0  0  0  0  0  0  0  0  0
   -4.7890   19.4280  -33.7900 C   0  0  0  0  0  0  0  0  0  0  0  0
   -5.2253   18.5609  -34.3074 H   0  0  0  0  0  0  0  0  0  0  0  0
   -5.5490   20.1190  -32.8390 C   0  0  0  0  0  0  0  0  0  0  0  0
   -6.8980   19.6050  -32.5140 C   0  0  0  0  0  0  0  0  0  0  0  0
   -8.0320   20.4010  -32.7500 C   0  0  0  0  0  0  0  0  0  0  0  0
   -7.9142   21.4158  -33.1578 H   0  0  0  0  0  0  0  0  0  0  0  0
   -9.3100   19.9070  -32.4680 C   0  0  0  0  0  0  0  0  0  0  0  0
  -10.1937   20.5379  -32.6442 H   0  0  0  0  0  0  0  0  0  0  0  0
   -9.4660   18.6140  -31.9630 C   0  0  0  0  0  0  0  0  0  0  0  0
  -10.4718   18.2286  -31.7400 H   0  0  0  0  0  0  0  0  0  0  0  0
   -8.3450   17.8100  -31.7410 C   0  0  0  0  0  0  0  0  0  0  0  0
   -8.4688   16.7902  -31.3477 H   0  0  0  0  0  0  0  0  0  0  0  0
   -7.0650   18.3020  -32.0190 C   0  0  0  0  0  0  0  0  0  0  0  0
   -6.1849   17.6644  -31.8488 H   0  0  0  0  0  0  0  0  0  0  0  0
   -4.9860   21.2470  -32.1910 C   0  0  0  0  0  0  0  0  0  0  0  0
   -5.7010   22.0170  -31.2570 C   0  0  0  0  0  0  0  0  0  0  0  0
   -6.7500   21.7744  -31.0316 H   0  0  0  0  0  0  0  0  0  0  0  0
   -5.0810   23.0860  -30.6180 C   0  0  0  0  0  0  0  0  0  0  0  0
   -5.6297   23.6848  -29.8761 H   0  0  0  0  0  0  0  0  0  0  0  0
   -1.0170   23.6540  -29.3270 C   0  0  0  0  0  0  0  0  0  0  0  0
   -0.6823   23.3674  -30.3349 H   0  0  0  0  0  0  0  0  0  0  0  0
   -0.1600   23.4840  -28.2350 C   0  0  0  0  0  0  0  0  0  0  0  0
    0.8507   23.0778  -28.3884 H   0  0  0  0  0  0  0  0  0  0  0  0
  1  2  1  0
  2  3  2  0
  3  4  1  0
  3  5  1  0
  5  6  1  0
  5  7  2  0
  7  8  1  0
  8  9  2  0
  9 10  1  0
 10 11  1  0
 11 12  2  0
 12 13  1  0
 13 14  1  0
 13 15  1  0
 13 16  1  0
 16 17  1  0
 16 18  1  0
 16 19  1  0
 19 20  1  0
 19 21  1  0
 19 22  1  0
 22 23  1  0
 22 24  1  0
 22 25  1  0
 25 26  1  0
 26 27  1  0
 26 28  1  0
 26 29  1  0
 29 30  1  0
 29 31  1  0
 29 32  1  0
 32 33  1  0
 33 34  1  0
 33 35  1  0
 33 36  1  0
 36 37  1  0
 36 38  1  0
 36 39  1  0
 32 40  1  0
 40 41  1  0
 40 42  1  0
 40 43  1  0
 43 44  1  0
 43 45  1  0
 12 46  1  0
 46 47  1  0
 46 48  2  0
 48 49  1  0
 48 50  1  0
 50 51  1  0
 51 52  2  0
 52 53  1  0
 52 54  1  0
 54 55  1  0
 54 56  2  0
 56 57  1  0
 56 58  1  0
 58 59  1  0
 58 60  2  0
 60 61  1  0
 50 62  2  0
 62 63  1  0
 63 64  1  0
 63 65  2  0
 65 66  1  0
  7 67  1  0
 67 68  1  0
 67 69  2  0
 69 70  1  0
 69  2  1  0
 65  9  1  0
 62 11  1  0
 43 25  1  0
 60 51  1  0
M  CHG  1  13   1
M  END
>  <UniqueID>  (36) 
36

>  <SMILES>  (36) 
CCN1CCN(CCC[NH2+]c2ccc(-c3ccccc3)c3cc/c(=N/c4ccccc4)oc23)CC1

>  <Energy>  (36) 
98.95342516319798

>  <Genealogy>  (36) 
CCN1CCN(CCC[NH2+]c2ccc(-c3ccccc3)c3ccc(=Nc4ccccc4)oc23)CC1 (protonated)
CCN1CCN(CCC[NH2+]c2ccc(-c3ccccc3)c3cc/c(=N/c4ccccc4)oc23)CC1 (cis-trans isomerization)
CCN1CCN(CCC[NH2+]c2ccc(-c3ccccc3)c3cc/c(=N/c4ccccc4)oc23)CC1 (3D coordinates assigned)
CCN1CCN(CCC[NH2+]c2ccc(-c3ccccc3)c3cc/c(=N/c4ccccc4)oc23)CC1 (nonaromatic ring conformer: 98.95342516319798 kcal/mol)

>  <smiles>  (36) 
CCN1CCN(CCCNc2ccc(-c3ccccc3)c3ccc(=Nc4ccccc4)oc23)CC1

>  <score_type>  (36) 
oracle

>  <origin>  (36) 
adg

>  <m_score__min__energy>  (36) 
-9.8499999999999996

>  <m_primary>  (36) 
energy

$$$$
36:0
     RDKit          3D

 45 48  0  0  0  0  0  0  0  0999 V2000
   -3.9220   21.4640  -31.3570 C   0  0  0  0  0  0  0  0  0  0  0  0
   -5.0880   20.8810  -31.6180 C   0  0  0  0  0  0  0  0  0  0  0  0
   -4.9510   19.7320  -32.6040 C   0  0  0  0  0  0  0  0  0  0  0  0
   -5.3730   18.3820  -31.9620 C   0  0  0  0  0  0  0  0  0  0  0  0
   -6.6700   17.8110  -32.5670 C   0  0  0  0  0  0  0  0  0  0  0  0
   -7.7070   18.8450  -32.7880 N   0  0  0  0  0  0  0  0  0  0  0  0
   -8.3670   19.2830  -31.5350 C   0  0  0  0  0  0  0  0  0  0  0  0
   -9.1270   20.6030  -31.7490 C   0  0  0  0  0  0  0  0  0  0  0  0
   -8.9570   21.5690  -30.5690 C   0  0  0  0  0  0  0  0  0  0  0  0
   -7.8670   22.5680  -30.8230 C   0  0  0  0  0  0  0  0  0  0  0  0
   -6.9870   23.0720  -29.8740 C   0  0  0  0  0  0  0  0  0  0  0  0
   -6.0330   23.9420  -30.4160 C   0  0  0  0  0  0  0  0  0  0  0  0
   -6.1570   24.1190  -31.7890 C   0  0  0  0  0  0  0  0  0  0  0  0
   -7.4500   23.1900  -32.3290 S   0  0  0  0  0  0  0  0  0  0  0  0
   -7.2580   19.9770  -33.6480 C   0  0  0  0  0  0  0  0  0  0  0  0
   -5.7380   20.0260  -33.8950 C   0  0  0  0  0  0  0  0  0  0  0  0
   -3.4700   19.7850  -32.8580 C   0  0  0  0  0  0  0  0  0  0  0  0
   -2.6930   18.9840  -33.7020 C   0  0  0  0  0  0  0  0  0  0  0  0
   -1.3120   19.2300  -33.7790 C   0  0  0  0  0  0  0  0  0  0  0  0
   -0.7310   20.2660  -33.0200 C   0  0  0  0  0  0  0  0  0  0  0  0
   -1.5280   21.0610  -32.1810 C   0  0  0  0  0  0  0  0  0  0  0  0
   -2.8960   20.7940  -32.1230 C   0  0  0  0  0  0  0  0  0  0  0  0
   -3.7650   22.3120  -30.6742 H   0  0  0  0  0  0  0  0  0  0  0  0
   -6.0431   21.1944  -31.1713 H   0  0  0  0  0  0  0  0  0  0  0  0
   -4.5637   17.6526  -32.1141 H   0  0  0  0  0  0  0  0  0  0  0  0
   -5.5603   18.5680  -30.8942 H   0  0  0  0  0  0  0  0  0  0  0  0
   -6.4301   17.3425  -33.5329 H   0  0  0  0  0  0  0  0  0  0  0  0
   -7.0768   17.0837  -31.8490 H   0  0  0  0  0  0  0  0  0  0  0  0
   -9.0763   18.5072  -31.2111 H   0  0  0  0  0  0  0  0  0  0  0  0
   -7.5952   19.4416  -30.7674 H   0  0  0  0  0  0  0  0  0  0  0  0
   -8.7462   21.0870  -32.6604 H   0  0  0  0  0  0  0  0  0  0  0  0
  -10.1972   20.3652  -31.8385 H   0  0  0  0  0  0  0  0  0  0  0  0
   -9.9033   22.1066  -30.4091 H   0  0  0  0  0  0  0  0  0  0  0  0
   -8.6832   20.9808  -29.6807 H   0  0  0  0  0  0  0  0  0  0  0  0
   -7.0346   22.8141  -28.8057 H   0  0  0  0  0  0  0  0  0  0  0  0
   -5.2588   24.4383  -29.8124 H   0  0  0  0  0  0  0  0  0  0  0  0
   -5.5178   24.7582  -32.4157 H   0  0  0  0  0  0  0  0  0  0  0  0
   -7.7620   19.8899  -34.6219 H   0  0  0  0  0  0  0  0  0  0  0  0
   -7.5183   20.9011  -33.1110 H   0  0  0  0  0  0  0  0  0  0  0  0
   -5.4741   19.2751  -34.6543 H   0  0  0  0  0  0  0  0  0  0  0  0
   -5.4748   21.0371  -34.2392 H   0  0  0  0  0  0  0  0  0  0  0  0
   -3.1538   18.1786  -34.2928 H   0  0  0  0  0  0  0  0  0  0  0  0
   -0.6813   18.6114  -34.4345 H   0  0  0  0  0  0  0  0  0  0  0  0
    0.3511   20.4523  -33.0853 H   0  0  0  0  0  0  0  0  0  0  0  0
   -1.0855   21.8729  -31.5852 H   0  0  0  0  0  0  0  0  0  0  0  0
  1  2  2  0
  2  3  1  0
  3  4  1  0
  4  5  1  0
  5  6  1  0
  6  7  1  0
  7  8  1  0
  8  9  1  0
  9 10  1  0
 10 11  2  0
 11 12  1  0
 12 13  2  0
 13 14  1  0
  6 15  1  0
 15 16  1  0
  3 17  1  0
 17 18  2  0
 18 19  1  0
 19 20  2  0
 20 21  1  0
 21 22  2  0
 22  1  1  0
 16  3  1  0
 22 17  1  0
 14 10  1  0
  1 23  1  0
  2 24  1  0
  4 25  1  0
  4 26  1  0
  5 27  1  0
  5 28  1  0
  7 29  1  0
  7 30  1  0
  8 31  1  0
  8 32  1  0
  9 33  1  0
  9 34  1  0
 11 35  1  0
 12 36  1  0
 13 37  1  0
 15 38  1  0
 15 39  1  0
 16 40  1  0
 16 41  1  0
 18 42  1  0
 19 43  1  0
 20 44  1  0
 21 45  1  0
M  END
>  <UniqueID>  (37) 
37

>  <SMILES>  (37) 
C1=CC2(CCN(CCCc3cccs3)CC2)c2ccccc21

>  <Energy>  (37) 
98.82631792395415

>  <Genealogy>  (37) 
C1=CC2(CCN(CCCc3cccs3)CC2)c2ccccc21 (3D coordinates assigned)
C1=CC2(CCN(CCCc3cccs3)CC2)c2ccccc21 (nonaromatic ring conformer: 98.82631792395415 kcal/mol)

>  <smiles>  (37) 
C1=CC2(CCN(CCCc3cccs3)CC2)c2ccccc21

>  <score_type>  (37) 
oracle

>  <origin>  (37) 
adg

>  <m_score__min__energy>  (37) 
-8.4800000000000004

>  <m_primary>  (37) 
energy

$$$$
37:0
     RDKit          3D

 43 44  0  0  0  0  0  0  0  0999 V2000
    0.1570   21.6900  -35.5330 C   0  0  0  0  0  0  0  0  0  0  0  0
   -0.5040   20.4180  -34.9920 C   0  0  0  0  0  0  0  0  0  0  0  0
   -1.5430   20.7080  -33.9890 N   0  0  0  0  0  0  0  0  0  0  0  0
   -1.0380   21.5570  -32.8940 C   0  0  0  0  0  0  0  0  0  0  0  0
   -1.3550   20.9720  -31.5050 C   0  0  0  0  0  0  0  0  0  0  0  0
   -2.8520   20.8920  -31.1500 C   0  0  0  0  0  0  0  0  0  0  0  0
   -3.6020   19.7370  -31.8360 C   0  0  0  0  0  0  0  0  0  0  0  0
   -4.0050   20.0990  -33.2140 N   0  0  0  0  0  0  0  0  0  0  0  0
   -4.4430   18.9970  -34.1010 C   0  0  0  0  0  0  0  0  0  0  0  0
   -5.9550   18.7560  -34.0900 C   0  0  0  0  0  0  0  0  0  0  0  0
   -6.5370   18.6830  -32.3780 S   0  0  0  0  0  0  0  0  0  0  0  0
   -6.9450   20.4360  -32.2620 C   0  0  0  0  0  0  0  0  0  0  0  0
   -8.2180   20.7280  -31.7500 C   0  0  0  0  0  0  0  0  0  0  0  0
   -8.6120   22.0440  -31.5190 C   0  0  0  0  0  0  0  0  0  0  0  0
   -7.7420   23.0910  -31.8080 C   0  0  0  0  0  0  0  0  0  0  0  0
   -6.4810   22.8250  -32.3420 C   0  0  0  0  0  0  0  0  0  0  0  0
   -6.0490   21.5030  -32.5780 C   0  0  0  0  0  0  0  0  0  0  0  0
   -4.7460   21.3660  -33.3650 C   0  0  0  0  0  0  0  0  0  0  0  0
    0.4840   22.3193  -34.6922 H   0  0  0  0  0  0  0  0  0  0  0  0
    1.0277   21.4178  -36.1476 H   0  0  0  0  0  0  0  0  0  0  0  0
   -0.5662   22.2461  -36.1476 H   0  0  0  0  0  0  0  0  0  0  0  0
   -0.9643   19.8751  -35.8306 H   0  0  0  0  0  0  0  0  0  0  0  0
    0.2763   19.8169  -34.5023 H   0  0  0  0  0  0  0  0  0  0  0  0
   -2.3270   21.2080  -34.4710 H   0  0  0  0  0  0  0  0  0  0  0  0
   -1.9100   19.8060  -33.6090 H   0  0  0  0  0  0  0  0  0  0  0  0
    0.0530   21.6538  -32.9962 H   0  0  0  0  0  0  0  0  0  0  0  0
   -1.5376   22.5341  -32.9689 H   0  0  0  0  0  0  0  0  0  0  0  0
   -0.9409   19.9538  -31.4626 H   0  0  0  0  0  0  0  0  0  0  0  0
   -0.9058   21.6615  -30.7750 H   0  0  0  0  0  0  0  0  0  0  0  0
   -2.9419   20.7633  -30.0613 H   0  0  0  0  0  0  0  0  0  0  0  0
   -3.3121   21.8247  -31.5084 H   0  0  0  0  0  0  0  0  0  0  0  0
   -2.9444   18.8561  -31.8750 H   0  0  0  0  0  0  0  0  0  0  0  0
   -4.5104   19.5199  -31.2549 H   0  0  0  0  0  0  0  0  0  0  0  0
   -4.1382   19.2385  -35.1300 H   0  0  0  0  0  0  0  0  0  0  0  0
   -3.9702   18.0775  -33.7255 H   0  0  0  0  0  0  0  0  0  0  0  0
   -6.4620   19.5786  -34.6156 H   0  0  0  0  0  0  0  0  0  0  0  0
   -6.1802   17.8058  -34.5964 H   0  0  0  0  0  0  0  0  0  0  0  0
   -8.9148   19.9063  -31.5278 H   0  0  0  0  0  0  0  0  0  0  0  0
   -9.6103   22.2555  -31.1084 H   0  0  0  0  0  0  0  0  0  0  0  0
   -8.0490   24.1295  -31.6151 H   0  0  0  0  0  0  0  0  0  0  0  0
   -5.8103   23.6626  -32.5838 H   0  0  0  0  0  0  0  0  0  0  0  0
   -4.9879   21.4844  -34.4315 H   0  0  0  0  0  0  0  0  0  0  0  0
   -4.0799   22.1386  -32.9535 H   0  0  0  0  0  0  0  0  0  0  0  0
  1  2  1  0
  2  3  1  0
  3  4  1  0
  4  5  1  0
  5  6  1  0
  6  7  1  0
  7  8  1  0
  8  9  1  0
  9 10  1  0
 10 11  1  0
 11 12  1  0
 12 13  2  0
 13 14  1  0
 14 15  2  0
 15 16  1  0
 16 17  2  0
 17 18  1  0
 18  8  1  0
 17 12  1  0
  1 19  1  0
  1 20  1  0
  1 21  1  0
  2 22  1  0
  2 23  1  0
  3 24  1  0
  3 25  1  0
  4 26  1  0
  4 27  1  0
  5 28  1  0
  5 29  1  0
  6 30  1  0
  6 31  1  0
  7 32  1  0
  7 33  1  0
  9 34  1  0
  9 35  1  0
 10 36  1  0
 10 37  1  0
 13 38  1  0
 14 39  1  0
 15 40  1  0
 16 41  1  0
 18 42  1  0
 18 43  1  0
M  CHG  1   3   1
M  END
>  <UniqueID>  (38) 
38

>  <SMILES>  (38) 
CC[NH2+]CCCCN1CCSc2ccccc2C1

>  <Energy>  (38) 
57.37164535671024

>  <Genealogy>  (38) 
CC[NH2+]CCCCN1CCSc2ccccc2C1 (protonated)
CC[NH2+]CCCCN1CCSc2ccccc2C1 (3D coordinates assigned)
CC[NH2+]CCCCN1CCSc2ccccc2C1 (nonaromatic ring conformer: 57.37164535671024 kcal/mol)

>  <smiles>  (38) 
CCNCCCCN1CCSc2ccccc2C1

>  <score_type>  (38) 
oracle

>  <origin>  (38) 
adg

>  <m_score__min__energy>  (38) 
-4.9199999999999999

>  <m_primary>  (38) 
energy

$$$$
38:0
     RDKit          3D

 54 57  0  0  0  0  0  0  0  0999 V2000
   -6.0500   25.5020  -30.0340 C   0  0  0  0  0  0  0  0  0  0  0  0
   -5.4060   25.0080  -31.2070 O   0  0  0  0  0  0  0  0  0  0  0  0
   -5.2020   23.6480  -31.4890 C   0  0  0  0  0  0  0  0  0  0  0  0
   -6.1440   22.8830  -32.2040 C   0  0  0  0  0  0  0  0  0  0  0  0
   -5.9130   21.5260  -32.4870 C   0  0  0  0  0  0  0  0  0  0  0  0
   -6.9350   20.7410  -33.3050 C   0  0  1  0  0  0  0  0  0  0  0  0
   -6.2890   19.8740  -34.2460 O   0  0  0  0  0  0  0  0  0  0  0  0
   -5.9460   18.5450  -33.9620 C   0  0  0  0  0  0  0  0  0  0  0  0
   -5.0930   17.8520  -34.8280 C   0  0  0  0  0  0  0  0  0  0  0  0
   -4.6960   16.5430  -34.5260 C   0  0  0  0  0  0  0  0  0  0  0  0
   -3.8710   15.8930  -35.3420 O   0  0  0  0  0  0  0  0  0  0  0  0
   -3.4580   14.6480  -35.1010 C   0  0  0  0  0  0  0  0  0  0  0  0
   -2.6790   14.0860  -35.9130 O   0  0  0  0  0  0  0  0  0  0  0  0
   -3.8840   13.9690  -33.9560 C   0  0  0  0  0  0  0  0  0  0  0  0
   -4.7490   14.6120  -33.0730 C   0  0  0  0  0  0  0  0  0  0  0  0
   -5.1690   15.9190  -33.3510 C   0  0  0  0  0  0  0  0  0  0  0  0
   -6.0430   16.6060  -32.4950 C   0  0  0  0  0  0  0  0  0  0  0  0
   -6.4410   17.9170  -32.8020 C   0  0  0  0  0  0  0  0  0  0  0  0
   -7.3830   18.6630  -31.9430 C   0  0  0  0  0  0  0  0  0  0  0  0
   -7.7700   18.1790  -30.8440 O   0  0  0  0  0  0  0  0  0  0  0  0
   -7.9580   19.9680  -32.4320 C   0  0  1  0  0  0  0  0  0  0  0  0
   -8.3710   20.7650  -31.3500 O   0  0  0  0  0  0  0  0  0  0  0  0
   -4.7310   20.9310  -32.0040 C   0  0  0  0  0  0  0  0  0  0  0  0
   -3.7960   21.6800  -31.2880 C   0  0  0  0  0  0  0  0  0  0  0  0
   -4.0060   23.0530  -31.0490 C   0  0  0  0  0  0  0  0  0  0  0  0
   -3.0620   23.8630  -30.3920 O   0  0  0  0  0  0  0  0  0  0  0  0
   -1.9720   23.3920  -29.5960 C   0  0  0  0  0  0  0  0  0  0  0  0
   -2.3910   23.3500  -28.1230 C   0  0  0  0  0  0  0  0  0  0  0  0
   -2.9010   24.6750  -27.6950 N   0  0  0  0  0  0  0  0  0  0  0  0
   -4.2280   24.5430  -27.0700 C   0  0  0  0  0  0  0  0  0  0  0  0
   -1.9690   25.3140  -26.7450 C   0  0  0  0  0  0  0  0  0  0  0  0
   -5.5389   25.1099  -29.1424 H   0  0  0  0  0  0  0  0  0  0  0  0
   -6.0072   26.6012  -30.0275 H   0  0  0  0  0  0  0  0  0  0  0  0
   -7.1005   25.1759  -30.0275 H   0  0  0  0  0  0  0  0  0  0  0  0
   -7.0763   23.3557  -32.5467 H   0  0  0  0  0  0  0  0  0  0  0  0
   -7.5184   21.4867  -33.8649 H   0  0  0  0  0  0  0  0  0  0  0  0
   -4.7334   18.3361  -35.7479 H   0  0  0  0  0  0  0  0  0  0  0  0
   -3.5417   12.9431  -33.7551 H   0  0  0  0  0  0  0  0  0  0  0  0
   -5.0989   14.0978  -32.1657 H   0  0  0  0  0  0  0  0  0  0  0  0
   -6.4165   16.1173  -31.5830 H   0  0  0  0  0  0  0  0  0  0  0  0
   -8.8340   19.7340  -33.0548 H   0  0  0  0  0  0  0  0  0  0  0  0
   -8.4890   20.1590  -30.5710 H   0  0  0  0  0  0  0  0  0  0  0  0
   -4.5428   19.8639  -32.1933 H   0  0  0  0  0  0  0  0  0  0  0  0
   -2.8860   21.1938  -30.9064 H   0  0  0  0  0  0  0  0  0  0  0  0
   -1.6886   22.3813  -29.9248 H   0  0  0  0  0  0  0  0  0  0  0  0
   -1.1147   24.0713  -29.7124 H   0  0  0  0  0  0  0  0  0  0  0  0
   -3.1822   22.5971  -27.9921 H   0  0  0  0  0  0  0  0  0  0  0  0
   -1.5163   23.0881  -27.5095 H   0  0  0  0  0  0  0  0  0  0  0  0
   -4.1204   24.5537  -25.9753 H   0  0  0  0  0  0  0  0  0  0  0  0
   -4.8663   25.3821  -27.3839 H   0  0  0  0  0  0  0  0  0  0  0  0
   -4.6885   23.5946  -27.3839 H   0  0  0  0  0  0  0  0  0  0  0  0
   -2.2879   25.0953  -25.7152 H   0  0  0  0  0  0  0  0  0  0  0  0
   -0.9544   24.9206  -26.9060 H   0  0  0  0  0  0  0  0  0  0  0  0
   -1.9702   26.4022  -26.9060 H   0  0  0  0  0  0  0  0  0  0  0  0
  1  2  1  0
  2  3  1  0
  3  4  2  0
  4  5  1  0
  5  6  1  0
  6  7  1  0
  7  8  1  0
  8  9  2  0
  9 10  1  0
 10 11  1  0
 11 12  1  0
 12 13  2  0
 12 14  1  0
 14 15  2  0
 15 16  1  0
 16 17  1  0
 17 18  2  0
 18 19  1  0
 19 20  2  0
 19 21  1  0
 21 22  1  0
  5 23  2  0
 23 24  1  0
 24 25  2  0
 25 26  1  0
 26 27  1  0
 27 28  1  0
 28 29  1  0
 29 30  1  0
 29 31  1  0
 25  3  1  0
 21  6  1  0
 18  8  1  0
 16 10  2  0
  1 32  1  0
  1 33  1  0
  1 34  1  0
  4 35  1  0
  6 36  1  6
  9 37  1  0
 14 38  1  0
 15 39  1  0
 17 40  1  0
 21 41  1  6
 22 42  1  0
 23 43  1  0
 24 44  1  0
 27 45  1  0
 27 46  1  0
 28 47  1  0
 28 48  1  0
 30 49  1  0
 30 50  1  0
 30 51  1  0
 31 52  1  0
 31 53  1  0
 31 54  1  0
M  END
>  <UniqueID>  (39) 
39

>  <SMILES>  (39) 
COc1cc([C@H]2Oc3cc4oc(=O)ccc4cc3C(=O)[C@H]2O)ccc1OCCN(C)C

>  <Energy>  (39) 
67.54239253574653

>  <Genealogy>  (39) 
COc1cc([C@H]2Oc3cc4oc(=O)ccc4cc3C(=O)[C@H]2O)ccc1OCCN(C)C (chirality)
COc1cc([C@H]2Oc3cc4oc(=O)ccc4cc3C(=O)[C@H]2O)ccc1OCCN(C)C (3D coordinates assigned)
COc1cc([C@H]2Oc3cc4oc(=O)ccc4cc3C(=O)[C@H]2O)ccc1OCCN(C)C (nonaromatic ring conformer: 67.54239253574653 kcal/mol)

>  <smiles>  (39) 
COc1cc(C2Oc3cc4oc(=O)ccc4cc3C(=O)C2O)ccc1OCCN(C)C

>  <score_type>  (39) 
oracle

>  <origin>  (39) 
adg

>  <m_score__min__energy>  (39) 
-8.6300000000000008

>  <m_primary>  (39) 
energy

$$$$
39:0
     RDKit          3D

 51 53  0  0  0  0  0  0  0  0999 V2000
   -5.9190   13.5970  -33.9260 C   0  0  0  0  0  0  0  0  0  0  0  0
   -6.2420   15.0500  -34.2720 C   0  0  0  0  0  0  0  0  0  0  0  0
   -5.0300   15.9440  -34.1720 C   0  0  0  0  0  0  0  0  0  0  0  0
   -3.9430   15.5720  -34.6960 O   0  0  0  0  0  0  0  0  0  0  0  0
   -5.0740   17.1840  -33.4330 N   0  0  0  0  0  0  0  0  0  0  0  0
   -6.0770   17.3690  -32.3680 C   0  0  0  0  0  0  0  0  0  0  0  0
   -5.7310   18.5570  -31.4650 C   0  0  0  0  0  0  0  0  0  0  0  0
   -5.4070   19.7270  -32.2840 N   0  0  0  0  0  0  0  0  0  0  0  0
   -5.9060   21.0150  -31.9060 C   0  0  0  0  0  0  0  0  0  0  0  0
   -7.2240   21.2880  -32.0830 N   0  0  0  0  0  0  0  0  0  0  0  0
   -7.7530   22.4880  -31.7330 C   0  0  0  0  0  0  0  0  0  0  0  0
   -9.5020   22.7880  -31.9810 S   0  0  0  0  0  0  0  0  0  0  0  0
   -9.8750   21.0320  -32.2750 C   0  0  0  0  0  0  0  0  0  0  0  0
   -6.9610   23.4530  -31.1950 N   0  0  0  0  0  0  0  0  0  0  0  0
   -5.6300   23.2330  -30.9910 C   0  0  0  0  0  0  0  0  0  0  0  0
   -4.8250   24.2300  -30.4260 C   0  0  0  0  0  0  0  0  0  0  0  0
   -3.4540   24.0050  -30.2040 C   0  0  0  0  0  0  0  0  0  0  0  0
   -2.6190   24.9820  -29.6360 O   0  0  0  0  0  0  0  0  0  0  0  0
   -1.9740   24.8590  -28.3730 C   0  0  0  0  0  0  0  0  0  0  0  0
   -2.8870   22.7690  -30.5510 C   0  0  0  0  0  0  0  0  0  0  0  0
   -1.5160   22.5760  -30.3170 O   0  0  0  0  0  0  0  0  0  0  0  0
   -0.8180   21.3590  -30.5590 C   0  0  0  0  0  0  0  0  0  0  0  0
   -3.6940   21.7650  -31.1190 C   0  0  0  0  0  0  0  0  0  0  0  0
   -5.0630   21.9920  -31.3430 C   0  0  0  0  0  0  0  0  0  0  0  0
   -4.5710   19.6030  -33.4820 C   0  0  0  0  0  0  0  0  0  0  0  0
   -4.0120   18.1840  -33.6290 C   0  0  0  0  0  0  0  0  0  0  0  0
   -5.8925   13.4776  -32.8328 H   0  0  0  0  0  0  0  0  0  0  0  0
   -6.6928   12.9389  -34.3481 H   0  0  0  0  0  0  0  0  0  0  0  0
   -4.9393   13.3287  -34.3481 H   0  0  0  0  0  0  0  0  0  0  0  0
   -6.6285   15.0914  -35.3010 H   0  0  0  0  0  0  0  0  0  0  0  0
   -6.9880   15.4111  -33.5487 H   0  0  0  0  0  0  0  0  0  0  0  0
   -7.0593   17.5466  -32.8302 H   0  0  0  0  0  0  0  0  0  0  0  0
   -6.0917   16.4600  -31.7487 H   0  0  0  0  0  0  0  0  0  0  0  0
   -6.5924   18.7893  -30.8216 H   0  0  0  0  0  0  0  0  0  0  0  0
   -4.8616   18.2982  -30.8428 H   0  0  0  0  0  0  0  0  0  0  0  0
   -9.9850   20.5141  -31.3108 H   0  0  0  0  0  0  0  0  0  0  0  0
  -10.8113   20.9466  -32.8460 H   0  0  0  0  0  0  0  0  0  0  0  0
   -9.0542   20.5734  -32.8460 H   0  0  0  0  0  0  0  0  0  0  0  0
   -7.3890   24.3700  -30.9300 H   0  0  0  0  0  0  0  0  0  0  0  0
   -5.2690   25.1987  -30.1531 H   0  0  0  0  0  0  0  0  0  0  0  0
   -2.7117   24.9997  -27.5693 H   0  0  0  0  0  0  0  0  0  0  0  0
   -1.5242   23.8589  -28.2869 H   0  0  0  0  0  0  0  0  0  0  0  0
   -1.1877   25.6234  -28.2869 H   0  0  0  0  0  0  0  0  0  0  0  0
   -0.5505   20.8926  -29.5993 H   0  0  0  0  0  0  0  0  0  0  0  0
   -1.4612   20.6752  -31.1323 H   0  0  0  0  0  0  0  0  0  0  0  0
    0.0970   21.5689  -31.1323 H   0  0  0  0  0  0  0  0  0  0  0  0
   -3.2499   20.7957  -31.3895 H   0  0  0  0  0  0  0  0  0  0  0  0
   -5.1774   19.8424  -34.3680 H   0  0  0  0  0  0  0  0  0  0  0  0
   -3.7254   20.3002  -33.3879 H   0  0  0  0  0  0  0  0  0  0  0  0
   -3.5864   18.0661  -34.6364 H   0  0  0  0  0  0  0  0  0  0  0  0
   -3.2349   18.0290  -32.8660 H   0  0  0  0  0  0  0  0  0  0  0  0
  1  2  1  0
  2  3  1  0
  3  4  2  0
  3  5  1  0
  5  6  1  0
  6  7  1  0
  7  8  1  0
  8  9  1  0
  9 10  2  0
 10 11  1  0
 11 12  1  0
 12 13  1  0
 11 14  2  0
 14 15  1  0
 15 16  2  0
 16 17  1  0
 17 18  1  0
 18 19  1  0
 17 20  2  0
 20 21  1  0
 21 22  1  0
 20 23  1  0
 23 24  2  0
  8 25  1  0
 25 26  1  0
 26  5  1  0
 24  9  1  0
 24 15  1  0
  1 27  1  0
  1 28  1  0
  1 29  1  0
  2 30  1  0
  2 31  1  0
  6 32  1  0
  6 33  1  0
  7 34  1  0
  7 35  1  0
 13 36  1  0
 13 37  1  0
 13 38  1  0
 14 39  1  0
 16 40  1  0
 19 41  1  0
 19 42  1  0
 19 43  1  0
 22 44  1  0
 22 45  1  0
 22 46  1  0
 23 47  1  0
 25 48  1  0
 25 49  1  0
 26 50  1  0
 26 51  1  0
M  CHG  1  14   1
M  END
>  <UniqueID>  (40) 
40

>  <SMILES>  (40) 
CCC(=O)N1CCN(c2nc(SC)[nH+]c3cc(OC)c(OC)cc23)CC1

>  <Energy>  (40) 
53.89016923079682

>  <Genealogy>  (40) 
CCC(=O)N1CCN(c2nc(SC)[nH+]c3cc(OC)c(OC)cc23)CC1 (protonated)
CCC(=O)N1CCN(c2nc(SC)[nH+]c3cc(OC)c(OC)cc23)CC1 (3D coordinates assigned)
CCC(=O)N1CCN(c2nc(SC)[nH+]c3cc(OC)c(OC)cc23)CC1 (nonaromatic ring conformer: 53.89016923079682 kcal/mol)

>  <smiles>  (40) 
CCC(=O)N1CCN(c2nc(SC)nc3cc(OC)c(OC)cc23)CC1

>  <score_type>  (40) 
oracle

>  <origin>  (40) 
adg

>  <m_score__min__energy>  (40) 
-6.8600000000000003

>  <m_primary>  (40) 
energy

$$$$
40:0
     RDKit          3D

 42 43  0  0  0  0  0  0  0  0999 V2000
   -9.4480   21.5650  -30.5620 C   0  0  0  0  0  0  0  0  0  0  0  0
   -8.8810   22.3550  -31.7400 C   0  0  0  0  0  0  0  0  0  0  0  0
   -7.4090   22.4990  -31.6460 N   0  0  0  0  0  0  0  0  0  0  0  0
   -6.9310   23.9010  -31.5430 C   0  0  0  0  0  0  0  0  0  0  0  0
   -6.6710   24.3900  -30.1060 C   0  0  0  0  0  0  0  0  0  0  0  0
   -5.3990   23.9410  -29.6510 O   0  0  0  0  0  0  0  0  0  0  0  0
   -4.2230   24.1220  -30.3880 C   0  0  0  0  0  0  0  0  0  0  0  0
   -3.9060   25.2730  -30.7990 O   0  0  0  0  0  0  0  0  0  0  0  0
   -3.3520   22.9630  -30.6780 C   0  0  0  0  0  0  0  0  0  0  0  0
   -2.4280   22.5000  -29.7230 C   0  0  0  0  0  0  0  0  0  0  0  0
   -1.6120   21.4000  -30.0030 C   0  0  0  0  0  0  0  0  0  0  0  0
   -1.7090   20.7500  -31.2360 C   0  0  0  0  0  0  0  0  0  0  0  0
   -2.6250   21.1990  -32.1920 C   0  0  0  0  0  0  0  0  0  0  0  0
   -2.7480   20.3810  -33.7390 Cl  0  0  0  0  0  0  0  0  0  0  0  0
   -3.4430   22.3000  -31.9160 C   0  0  0  0  0  0  0  0  0  0  0  0
   -6.7200   21.7460  -32.7180 C   0  0  0  0  0  0  0  0  0  0  0  0
   -6.7850   20.2700  -32.4330 C   0  0  0  0  0  0  0  0  0  0  0  0
   -5.6780   19.5940  -31.8910 C   0  0  0  0  0  0  0  0  0  0  0  0
   -5.7450   18.2190  -31.6450 C   0  0  0  0  0  0  0  0  0  0  0  0
   -6.9120   17.5100  -31.9400 C   0  0  0  0  0  0  0  0  0  0  0  0
   -8.0150   18.1740  -32.4840 C   0  0  0  0  0  0  0  0  0  0  0  0
   -7.9540   19.5490  -32.7300 C   0  0  0  0  0  0  0  0  0  0  0  0
   -9.1178   22.0251  -29.6190 H   0  0  0  0  0  0  0  0  0  0  0  0
  -10.5469   21.5742  -30.6093 H   0  0  0  0  0  0  0  0  0  0  0  0
   -9.0876   20.5268  -30.6093 H   0  0  0  0  0  0  0  0  0  0  0  0
   -9.1288   21.8294  -32.6740 H   0  0  0  0  0  0  0  0  0  0  0  0
   -9.3256   23.3610  -31.7238 H   0  0  0  0  0  0  0  0  0  0  0  0
   -5.9911   23.9847  -32.1084 H   0  0  0  0  0  0  0  0  0  0  0  0
   -7.7364   24.5334  -31.9447 H   0  0  0  0  0  0  0  0  0  0  0  0
   -6.6950   25.4896  -30.0875 H   0  0  0  0  0  0  0  0  0  0  0  0
   -7.4502   23.9835  -29.4445 H   0  0  0  0  0  0  0  0  0  0  0  0
   -2.3473   23.0068  -28.7500 H   0  0  0  0  0  0  0  0  0  0  0  0
   -0.8919   21.0454  -29.2509 H   0  0  0  0  0  0  0  0  0  0  0  0
   -1.0650   19.8854  -31.4544 H   0  0  0  0  0  0  0  0  0  0  0  0
   -4.1619   22.6497  -32.6716 H   0  0  0  0  0  0  0  0  0  0  0  0
   -7.2095   21.9530  -33.6811 H   0  0  0  0  0  0  0  0  0  0  0  0
   -5.6665   22.0597  -32.7601 H   0  0  0  0  0  0  0  0  0  0  0  0
   -4.7564   20.1482  -31.6597 H   0  0  0  0  0  0  0  0  0  0  0  0
   -4.8772   17.6947  -31.2184 H   0  0  0  0  0  0  0  0  0  0  0  0
   -6.9628   16.4288  -31.7441 H   0  0  0  0  0  0  0  0  0  0  0  0
   -8.9322   17.6141  -32.7189 H   0  0  0  0  0  0  0  0  0  0  0  0
   -8.8243   20.0683  -33.1576 H   0  0  0  0  0  0  0  0  0  0  0  0
  1  2  1  0
  2  3  1  0
  3  4  1  0
  4  5  1  0
  5  6  1  0
  6  7  1  0
  7  8  2  0
  7  9  1  0
  9 10  2  0
 10 11  1  0
 11 12  2  0
 12 13  1  0
 13 14  1  0
 13 15  2  0
  3 16  1  0
 16 17  1  0
 17 18  2  0
 18 19  1  0
 19 20  2  0
 20 21  1  0
 21 22  2  0
 15  9  1  0
 22 17  1  0
  1 23  1  0
  1 24  1  0
  1 25  1  0
  2 26  1  0
  2 27  1  0
  4 28  1  0
  4 29  1  0
  5 30  1  0
  5 31  1  0
 10 32  1  0
 11 33  1  0
 12 34  1  0
 15 35  1  0
 16 36  1  0
 16 37  1  0
 18 38  1  0
 19 39  1  0
 20 40  1  0
 21 41  1  0
 22 42  1  0
M  END
>  <UniqueID>  (41) 
41

>  <SMILES>  (41) 
CCN(CCOC(=O)c1cccc(Cl)c1)Cc1ccccc1

>  <Energy>  (41) 
42.00570917175089

>  <Genealogy>  (41) 
CCN(CCOC(=O)c1cccc(Cl)c1)Cc1ccccc1 (3D coordinates assigned)
CCN(CCOC(=O)c1cccc(Cl)c1)Cc1ccccc1 (optimized conformer: 42.00570917175089 kcal/mol)

>  <smiles>  (41) 
CCN(CCOC(=O)c1cccc(Cl)c1)Cc1ccccc1

>  <score_type>  (41) 
oracle

>  <origin>  (41) 
adg

>  <m_score__min__energy>  (41) 
-8.25

>  <m_primary>  (41) 
energy

$$$$
41:0
     RDKit          3D

 38 41  0  0  0  0  0  0  0  0999 V2000
   -9.6810   21.2880  -32.2120 C   0  0  0  0  0  0  0  0  0  0  0  0
   -8.6860   20.1660  -32.1740 C   0  0  0  0  0  0  0  0  0  0  0  0
   -9.1140   18.8490  -31.9490 C   0  0  0  0  0  0  0  0  0  0  0  0
   -8.1910   17.7990  -31.9540 C   0  0  0  0  0  0  0  0  0  0  0  0
   -6.8400   18.0540  -32.1940 C   0  0  0  0  0  0  0  0  0  0  0  0
   -6.4010   19.3640  -32.4390 C   0  0  0  0  0  0  0  0  0  0  0  0
   -5.0130   19.6260  -32.7090 N   0  0  0  0  0  0  0  0  0  0  0  0
   -4.3010   20.7650  -32.4590 C   0  0  0  0  0  0  0  0  0  0  0  0
   -4.8050   21.9340  -31.7040 C   0  0  0  0  0  0  0  0  0  0  0  0
   -5.5500   22.9260  -32.3640 C   0  0  0  0  0  0  0  0  0  0  0  0
   -6.0270   24.0360  -31.6600 C   0  0  0  0  0  0  0  0  0  0  0  0
   -5.7550   24.1710  -30.2960 C   0  0  0  0  0  0  0  0  0  0  0  0
   -6.4070   25.6890  -29.3360 Br  0  0  0  0  0  0  0  0  0  0  0  0
   -4.9980   23.1980  -29.6360 C   0  0  0  0  0  0  0  0  0  0  0  0
   -4.5210   22.0870  -30.3360 C   0  0  0  0  0  0  0  0  0  0  0  0
   -3.0390   20.7030  -32.9560 N   0  0  0  0  0  0  0  0  0  0  0  0
   -2.9660   19.4910  -33.5270 C   0  0  0  0  0  0  0  0  0  0  0  0
   -1.9030   18.9160  -34.2120 C   0  0  0  0  0  0  0  0  0  0  0  0
   -2.0850   17.6720  -34.7480 N   0  0  0  0  0  0  0  0  0  0  0  0
   -3.2740   16.9970  -34.6310 C   0  0  0  0  0  0  0  0  0  0  0  0
   -4.3580   17.5750  -33.9440 C   0  0  0  0  0  0  0  0  0  0  0  0
   -4.1530   18.8380  -33.3840 C   0  0  0  0  0  0  0  0  0  0  0  0
   -7.3300   20.4170  -32.4340 C   0  0  0  0  0  0  0  0  0  0  0  0
   -9.9416   21.5819  -31.1845 H   0  0  0  0  0  0  0  0  0  0  0  0
   -9.2435   22.1483  -32.7397 H   0  0  0  0  0  0  0  0  0  0  0  0
  -10.5875   20.9565  -32.7397 H   0  0  0  0  0  0  0  0  0  0  0  0
  -10.1791   18.6419  -31.7681 H   0  0  0  0  0  0  0  0  0  0  0  0
   -8.5304   16.7693  -31.7683 H   0  0  0  0  0  0  0  0  0  0  0  0
   -6.1168   17.2251  -32.1911 H   0  0  0  0  0  0  0  0  0  0  0  0
   -5.7589   22.8289  -33.4396 H   0  0  0  0  0  0  0  0  0  0  0  0
   -6.6174   24.8043  -32.1808 H   0  0  0  0  0  0  0  0  0  0  0  0
   -4.7777   23.3075  -28.5639 H   0  0  0  0  0  0  0  0  0  0  0  0
   -3.9200   21.3280  -29.8138 H   0  0  0  0  0  0  0  0  0  0  0  0
   -2.2880   21.4270  -32.9010 H   0  0  0  0  0  0  0  0  0  0  0  0
   -0.9448   19.4454  -34.3196 H   0  0  0  0  0  0  0  0  0  0  0  0
   -3.3807   15.9972  -35.0772 H   0  0  0  0  0  0  0  0  0  0  0  0
   -5.3232   17.0554  -33.8523 H   0  0  0  0  0  0  0  0  0  0  0  0
   -6.9929   21.4446  -32.6350 H   0  0  0  0  0  0  0  0  0  0  0  0
  1  2  1  0
  2  3  2  0
  3  4  1  0
  4  5  2  0
  5  6  1  0
  6  7  1  0
  7  8  1  0
  8  9  1  0
  9 10  2  0
 10 11  1  0
 11 12  2  0
 12 13  1  0
 12 14  1  0
 14 15  2  0
  8 16  2  0
 16 17  1  0
 17 18  2  0
 18 19  1  0
 19 20  2  0
 20 21  1  0
 21 22  2  0
  6 23  2  0
 23  2  1  0
 22  7  1  0
 15  9  1  0
 22 17  1  0
  1 24  1  0
  1 25  1  0
  1 26  1  0
  3 27  1  0
  4 28  1  0
  5 29  1  0
 10 30  1  0
 11 31  1  0
 14 32  1  0
 15 33  1  0
 16 34  1  0
 18 35  1  0
 20 36  1  0
 21 37  1  0
 23 38  1  0
M  CHG  1  16   1
M  END
>  <UniqueID>  (42) 
42

>  <SMILES>  (42) 
Cc1cccc(-n2c(-c3ccc(Br)cc3)[nH+]c3cnccc32)c1

>  <Energy>  (42) 
91.87097512873977

>  <Genealogy>  (42) 
Cc1cccc(-n2c(-c3ccc(Br)cc3)[nH+]c3cnccc32)c1 (protonated)
Cc1cccc(-n2c(-c3ccc(Br)cc3)[nH+]c3cnccc32)c1 (3D coordinates assigned)
Cc1cccc(-n2c(-c3ccc(Br)cc3)[nH+]c3cnccc32)c1 (optimized conformer: 91.87097512873977 kcal/mol)

>  <smiles>  (42) 
Cc1cccc(-n2c(-c3ccc(Br)cc3)nc3cnccc32)c1

>  <score_type>  (42) 
oracle

>  <origin>  (42) 
adg

>  <m_score__min__energy>  (42) 
-7.8799999999999999

>  <m_primary>  (42) 
energy

$$$$
42:0
     RDKit          3D

 41 43  0  0  0  0  0  0  0  0999 V2000
   -6.9600   12.9600  -34.6210 C   0  0  0  0  0  0  0  0  0  0  0  0
   -6.4110   14.2740  -34.1470 C   0  0  0  0  0  0  0  0  0  0  0  0
   -6.9870   15.4780  -34.5810 C   0  0  0  0  0  0  0  0  0  0  0  0
   -6.4530   16.7030  -34.1710 C   0  0  0  0  0  0  0  0  0  0  0  0
   -5.3240   16.7420  -33.3360 C   0  0  0  0  0  0  0  0  0  0  0  0
   -4.7400   18.0580  -32.8940 C   0  0  0  0  0  0  0  0  0  0  0  0
   -5.8050   19.0230  -32.6010 N   0  0  0  0  0  0  0  0  0  0  0  0
   -7.0460   18.6850  -32.1750 C   0  0  0  0  0  0  0  0  0  0  0  0
   -7.7440   19.8380  -31.9200 C   0  0  0  0  0  0  0  0  0  0  0  0
   -8.9980   19.9720  -31.4300 N   0  0  0  0  0  0  0  0  0  0  0  0
   -9.4750   21.2310  -31.2080 C   0  0  0  0  0  0  0  0  0  0  0  0
   -8.6980   22.3240  -31.4760 N   0  0  0  0  0  0  0  0  0  0  0  0
   -7.4320   22.2010  -31.9750 C   0  0  0  0  0  0  0  0  0  0  0  0
   -6.4860   23.6840  -32.3350 S   0  0  0  0  0  0  0  0  0  0  0  0
   -5.3320   23.4820  -30.9320 C   0  0  0  0  0  0  0  0  0  0  0  0
   -5.0400   24.7980  -30.2830 C   0  0  0  0  0  0  0  0  0  0  0  0
   -5.6800   25.1630  -29.0600 N   0  0  0  0  0  0  0  0  0  0  0  0
   -4.2430   25.6030  -30.8340 O   0  0  0  0  0  0  0  0  0  0  0  0
   -6.9400   20.9080  -32.1920 C   0  0  0  0  0  0  0  0  0  0  0  0
   -5.7230   20.3840  -32.6140 C   0  0  0  0  0  0  0  0  0  0  0  0
   -4.4840   21.1710  -32.9310 C   0  0  0  0  0  0  0  0  0  0  0  0
   -4.7460   15.5360  -32.9090 C   0  0  0  0  0  0  0  0  0  0  0  0
   -5.2800   14.3110  -33.3200 C   0  0  0  0  0  0  0  0  0  0  0  0
   -7.2204   12.3368  -33.7528 H   0  0  0  0  0  0  0  0  0  0  0  0
   -7.8597   13.1363  -35.2288 H   0  0  0  0  0  0  0  0  0  0  0  0
   -6.2023   12.4438  -35.2288 H   0  0  0  0  0  0  0  0  0  0  0  0
   -7.8625   15.4576  -35.2467 H   0  0  0  0  0  0  0  0  0  0  0  0
   -6.9195   17.6418  -34.5041 H   0  0  0  0  0  0  0  0  0  0  0  0
   -4.1364   17.8996  -31.9881 H   0  0  0  0  0  0  0  0  0  0  0  0
   -4.1125   18.4575  -33.7043 H   0  0  0  0  0  0  0  0  0  0  0  0
   -7.4285   17.6607  -32.0542 H   0  0  0  0  0  0  0  0  0  0  0  0
  -10.4916   21.3677  -30.8107 H   0  0  0  0  0  0  0  0  0  0  0  0
   -5.7832   22.8073  -30.1896 H   0  0  0  0  0  0  0  0  0  0  0  0
   -4.3890   23.0622  -31.3121 H   0  0  0  0  0  0  0  0  0  0  0  0
   -5.4950   26.0950  -28.6270 H   0  0  0  0  0  0  0  0  0  0  0  0
   -6.3410   24.5080  -28.5860 H   0  0  0  0  0  0  0  0  0  0  0  0
   -3.9967   21.4805  -31.9947 H   0  0  0  0  0  0  0  0  0  0  0  0
   -3.7923   20.5463  -33.5153 H   0  0  0  0  0  0  0  0  0  0  0  0
   -4.7554   22.0626  -33.5153 H   0  0  0  0  0  0  0  0  0  0  0  0
   -3.8677   15.5550  -32.2471 H   0  0  0  0  0  0  0  0  0  0  0  0
   -4.8103   13.3717  -32.9927 H   0  0  0  0  0  0  0  0  0  0  0  0
  1  2  1  0
  2  3  2  0
  3  4  1  0
  4  5  2  0
  5  6  1  0
  6  7  1  0
  7  8  1  0
  8  9  2  0
  9 10  1  0
 10 11  2  0
 11 12  1  0
 12 13  2  0
 13 14  1  0
 14 15  1  0
 15 16  1  0
 16 17  1  0
 16 18  2  0
 13 19  1  0
 19 20  2  0
 20 21  1  0
  5 22  1  0
 22 23  2  0
 23  2  1  0
 20  7  1  0
 19  9  1  0
  1 24  1  0
  1 25  1  0
  1 26  1  0
  3 27  1  0
  4 28  1  0
  6 29  1  0
  6 30  1  0
  8 31  1  0
 11 32  1  0
 15 33  1  0
 15 34  1  0
 17 35  1  0
 17 36  1  0
 21 37  1  0
 21 38  1  0
 21 39  1  0
 22 40  1  0
 23 41  1  0
M  END
>  <UniqueID>  (43) 
43

>  <SMILES>  (43) 
Cc1ccc(Cn2cc3ncnc(SCC(N)=O)c3c2C)cc1

>  <Energy>  (43) 
72.730597562052

>  <Genealogy>  (43) 
Cc1ccc(Cn2cc3ncnc(SCC(N)=O)c3c2C)cc1 (3D coordinates assigned)
Cc1ccc(Cn2cc3ncnc(SCC(N)=O)c3c2C)cc1 (optimized conformer: 72.730597562052 kcal/mol)

>  <smiles>  (43) 
Cc1ccc(Cn2cc3ncnc(SCC(N)=O)c3c2C)cc1

>  <score_type>  (43) 
oracle

>  <origin>  (43) 
adg

>  <m_score__min__energy>  (43) 
-9.2200000000000006

>  <m_primary>  (43) 
energy

$$$$
43:0
     RDKit          3D

 34 37  0  0  0  0  0  0  0  0999 V2000
   -8.2670   17.8940  -32.0710 C   0  0  0  0  0  0  0  0  0  0  0  0
   -6.8990   18.0900  -32.2580 C   0  0  0  0  0  0  0  0  0  0  0  0
   -6.3700   19.3800  -32.3120 C   0  0  0  0  0  0  0  0  0  0  0  0
   -7.2100   20.5090  -32.1780 C   0  0  0  0  0  0  0  0  0  0  0  0
   -6.7080   21.8390  -32.2260 C   0  0  0  0  0  0  0  0  0  0  0  0
   -5.2430   22.1520  -32.4370 C   0  0  0  0  0  0  0  0  0  0  0  0
   -4.8030   23.2390  -31.5080 C   0  0  0  0  0  0  0  0  0  0  0  0
   -5.2140   24.5190  -31.5920 N   0  0  0  0  0  0  0  0  0  0  0  0
   -4.6060   25.1660  -30.6100 N   0  0  0  0  0  0  0  0  0  0  0  0
   -3.8470   24.2570  -29.9690 C   0  0  0  0  0  0  0  0  0  0  0  0
   -3.0030   24.5600  -28.8040 C   0  0  0  0  0  0  0  0  0  0  0  0
   -3.3550   24.1180  -27.5210 C   0  0  0  0  0  0  0  0  0  0  0  0
   -2.5500   24.4180  -26.4670 N   0  0  0  0  0  0  0  0  0  0  0  0
   -1.4100   25.1370  -26.6330 C   0  0  0  0  0  0  0  0  0  0  0  0
   -1.0570   25.5790  -27.9100 C   0  0  0  0  0  0  0  0  0  0  0  0
   -1.8600   25.2800  -28.9650 N   0  0  0  0  0  0  0  0  0  0  0  0
   -3.9620   23.0710  -30.5170 O   0  0  0  0  0  0  0  0  0  0  0  0
   -7.6080   22.9140  -32.1160 C   0  0  0  0  0  0  0  0  0  0  0  0
   -8.9720   22.6920  -31.9370 C   0  0  0  0  0  0  0  0  0  0  0  0
   -9.4700   21.3930  -31.8730 C   0  0  0  0  0  0  0  0  0  0  0  0
   -8.6050   20.2980  -31.9940 C   0  0  0  0  0  0  0  0  0  0  0  0
   -9.1180   18.9920  -31.9410 C   0  0  0  0  0  0  0  0  0  0  0  0
   -8.6752   16.8735  -32.0260 H   0  0  0  0  0  0  0  0  0  0  0  0
   -6.2323   17.2215  -32.3637 H   0  0  0  0  0  0  0  0  0  0  0  0
   -5.2890   19.5198  -32.4603 H   0  0  0  0  0  0  0  0  0  0  0  0
   -4.6476   21.2474  -32.2442 H   0  0  0  0  0  0  0  0  0  0  0  0
   -5.0955   22.4875  -33.4741 H   0  0  0  0  0  0  0  0  0  0  0  0
   -4.2743   23.5336  -27.3683 H   0  0  0  0  0  0  0  0  0  0  0  0
   -0.7700   25.3693  -25.7690 H   0  0  0  0  0  0  0  0  0  0  0  0
   -0.1375   26.1637  -28.0605 H   0  0  0  0  0  0  0  0  0  0  0  0
   -7.2296   23.9454  -32.1721 H   0  0  0  0  0  0  0  0  0  0  0  0
   -9.6585   23.5467  -31.8458 H   0  0  0  0  0  0  0  0  0  0  0  0
  -10.5474   21.2262  -31.7268 H   0  0  0  0  0  0  0  0  0  0  0  0
  -10.1969   18.8337  -31.7962 H   0  0  0  0  0  0  0  0  0  0  0  0
  1  2  2  0
  2  3  1  0
  3  4  2  0
  4  5  1  0
  5  6  1  0
  6  7  1  0
  7  8  2  0
  8  9  1  0
  9 10  2  0
 10 11  1  0
 11 12  2  0
 12 13  1  0
 13 14  2  0
 14 15  1  0
 15 16  2  0
 10 17  1  0
  5 18  2  0
 18 19  1  0
 19 20  2  0
 20 21  1  0
 21 22  2  0
 22  1  1  0
 21  4  1  0
 17  7  1  0
 16 11  1  0
  1 23  1  0
  2 24  1  0
  3 25  1  0
  6 26  1  0
  6 27  1  0
 12 28  1  0
 14 29  1  0
 15 30  1  0
 18 31  1  0
 19 32  1  0
 20 33  1  0
 22 34  1  0
M  END
>  <UniqueID>  (44) 
44

>  <SMILES>  (44) 
c1ccc2c(Cc3nnc(-c4cnccn4)o3)cccc2c1

>  <Energy>  (44) 
78.67789328742496

>  <Genealogy>  (44) 
c1ccc2c(Cc3nnc(-c4cnccn4)o3)cccc2c1 (3D coordinates assigned)
c1ccc2c(Cc3nnc(-c4cnccn4)o3)cccc2c1 (optimized conformer: 78.67789328742496 kcal/mol)

>  <smiles>  (44) 
c1ccc2c(Cc3nnc(-c4cnccn4)o3)cccc2c1

>  <score_type>  (44) 
oracle

>  <origin>  (44) 
adg

>  <m_score__min__energy>  (44) 
-9.0999999999999996

>  <m_primary>  (44) 
energy

$$$$
44:0
     RDKit          3D

 37 38  0  0  0  0  0  0  0  0999 V2000
   -3.2450   24.5240  -29.1450 C   0  0  0  0  0  0  0  0  0  0  0  0
   -3.8670   24.5840  -30.4790 N   0  0  0  0  0  0  0  0  0  0  0  0
   -3.8640   23.2410  -31.0830 C   0  0  0  0  0  0  0  0  0  0  0  0
   -5.2450   25.1140  -30.4020 C   0  0  0  0  0  0  0  0  0  0  0  0
   -6.1920   24.3490  -31.3380 C   0  0  0  0  0  0  0  0  0  0  0  0
   -6.9860   23.3690  -30.5940 N   0  0  0  0  0  0  0  0  0  0  0  0
   -7.7040   22.3030  -31.2320 C   0  0  0  0  0  0  0  0  0  0  0  0
   -9.1030   22.2840  -31.2270 C   0  0  0  0  0  0  0  0  0  0  0  0
   -9.7630   21.2650  -31.8390 N   0  0  0  0  0  0  0  0  0  0  0  0
   -9.0880   20.2550  -32.4500 C   0  0  0  0  0  0  0  0  0  0  0  0
   -7.6830   20.2560  -32.4480 C   0  0  0  0  0  0  0  0  0  0  0  0
   -6.8910   19.1830  -33.0920 C   0  0  0  0  0  0  0  0  0  0  0  0
   -5.7390   19.5220  -33.8240 C   0  0  0  0  0  0  0  0  0  0  0  0
   -4.9640   18.5300  -34.4300 C   0  0  0  0  0  0  0  0  0  0  0  0
   -5.3230   17.1860  -34.3040 C   0  0  0  0  0  0  0  0  0  0  0  0
   -6.4540   16.8330  -33.5650 C   0  0  0  0  0  0  0  0  0  0  0  0
   -7.2350   17.8200  -32.9550 C   0  0  0  0  0  0  0  0  0  0  0  0
   -8.2900   17.4360  -32.1930 F   0  0  0  0  0  0  0  0  0  0  0  0
   -7.0360   21.2920  -31.8510 N   0  0  0  0  0  0  0  0  0  0  0  0
   -4.0250   24.5992  -28.3730 H   0  0  0  0  0  0  0  0  0  0  0  0
   -2.7090   23.5700  -29.0329 H   0  0  0  0  0  0  0  0  0  0  0  0
   -2.5365   25.3580  -29.0329 H   0  0  0  0  0  0  0  0  0  0  0  0
   -3.8623   22.4812  -30.2876 H   0  0  0  0  0  0  0  0  0  0  0  0
   -4.7619   23.1173  -31.7063 H   0  0  0  0  0  0  0  0  0  0  0  0
   -2.9656   23.1213  -31.7063 H   0  0  0  0  0  0  0  0  0  0  0  0
   -5.6084   25.0176  -29.3682 H   0  0  0  0  0  0  0  0  0  0  0  0
   -5.2283   26.1690  -30.7128 H   0  0  0  0  0  0  0  0  0  0  0  0
   -6.8696   25.0642  -31.8273 H   0  0  0  0  0  0  0  0  0  0  0  0
   -5.5889   23.8154  -32.0873 H   0  0  0  0  0  0  0  0  0  0  0  0
   -7.0640   23.4860  -29.5580 H   0  0  0  0  0  0  0  0  0  0  0  0
   -9.6655   23.0887  -30.7309 H   0  0  0  0  0  0  0  0  0  0  0  0
  -10.8070   21.2610  -31.8450 H   0  0  0  0  0  0  0  0  0  0  0  0
   -9.6393   19.4411  -32.9435 H   0  0  0  0  0  0  0  0  0  0  0  0
   -5.4455   20.5777  -33.9203 H   0  0  0  0  0  0  0  0  0  0  0  0
   -4.0698   18.8078  -35.0072 H   0  0  0  0  0  0  0  0  0  0  0  0
   -4.7153   16.4063  -34.7865 H   0  0  0  0  0  0  0  0  0  0  0  0
   -6.7320   15.7737  -33.4621 H   0  0  0  0  0  0  0  0  0  0  0  0
  1  2  1  0
  2  3  1  0
  2  4  1  0
  4  5  1  0
  5  6  1  0
  6  7  1  0
  7  8  2  0
  8  9  1  0
  9 10  2  0
 10 11  1  0
 11 12  1  0
 12 13  2  0
 13 14  1  0
 14 15  2  0
 15 16  1  0
 16 17  2  0
 17 18  1  0
 11 19  2  0
 19  7  1  0
 17 12  1  0
  1 20  1  0
  1 21  1  0
  1 22  1  0
  3 23  1  0
  3 24  1  0
  3 25  1  0
  4 26  1  0
  4 27  1  0
  5 28  1  0
  5 29  1  0
  6 30  1  0
  8 31  1  0
  9 32  1  0
 10 33  1  0
 13 34  1  0
 14 35  1  0
 15 36  1  0
 16 37  1  0
M  CHG  1   9   1
M  END
>  <UniqueID>  (45) 
45

>  <SMILES>  (45) 
CN(C)CCNc1c[nH+]cc(-c2ccccc2F)n1

>  <Energy>  (45) 
38.76669150560527

>  <Genealogy>  (45) 
CN(C)CCNc1c[nH+]cc(-c2ccccc2F)n1 (protonated)
CN(C)CCNc1c[nH+]cc(-c2ccccc2F)n1 (3D coordinates assigned)
CN(C)CCNc1c[nH+]cc(-c2ccccc2F)n1 (optimized conformer: 38.76669150560527 kcal/mol)

>  <smiles>  (45) 
CN(C)CCNc1cncc(-c2ccccc2F)n1

>  <score_type>  (45) 
oracle

>  <origin>  (45) 
adg

>  <m_score__min__energy>  (45) 
-6.0999999999999996

>  <m_primary>  (45) 
energy

$$$$
45:0
     RDKit          3D

 47 50  0  0  0  0  0  0  0  0999 V2000
   -6.1660   25.7390  -29.3690 C   0  0  0  0  0  0  0  0  0  0  0  0
   -5.9800   24.5070  -30.2130 C   0  0  0  0  0  0  0  0  0  0  0  0
   -7.0820   23.6710  -30.4480 C   0  0  0  0  0  0  0  0  0  0  0  0
   -6.9510   22.5240  -31.2330 C   0  0  0  0  0  0  0  0  0  0  0  0
   -5.7150   22.1900  -31.8080 C   0  0  0  0  0  0  0  0  0  0  0  0
   -5.5700   20.9560  -32.6200 C   0  0  0  0  0  0  0  0  0  0  0  0
   -6.6600   20.2010  -33.0920 C   0  0  0  0  0  0  0  0  0  0  0  0
   -6.2910   19.0780  -33.8190 C   0  0  0  0  0  0  0  0  0  0  0  0
   -4.6140   19.0200  -33.8740 S   0  0  0  0  0  0  0  0  0  0  0  0
   -4.3360   20.4150  -32.9830 C   0  0  0  0  0  0  0  0  0  0  0  0
   -4.6100   23.0260  -31.5750 C   0  0  0  0  0  0  0  0  0  0  0  0
   -4.7220   24.1550  -30.7550 C   0  0  0  0  0  0  0  0  0  0  0  0
   -3.5370   24.9090  -30.4670 N   0  0  0  0  0  0  0  0  0  0  0  0
   -2.5530   24.5520  -29.4850 C   0  0  0  0  0  0  0  0  0  0  0  0
   -2.1380   25.4390  -28.6930 O   0  0  0  0  0  0  0  0  0  0  0  0
   -1.9970   23.1850  -29.3910 C   0  0  0  0  0  0  0  0  0  0  0  0
   -1.7380   22.3400  -30.4530 C   0  0  0  0  0  0  0  0  0  0  0  0
   -1.2510   21.1850  -29.9590 N   0  0  0  0  0  0  0  0  0  0  0  0
   -0.8400   20.0180  -30.7340 C   0  0  0  0  0  0  0  0  0  0  0  0
   -1.2110   21.3450  -28.6160 C   0  0  0  0  0  0  0  0  0  0  0  0
   -0.7710   20.2900  -27.6320 C   0  0  2  0  0  0  0  0  0  0  0  0
   -1.5760   19.0090  -27.8050 C   0  0  0  0  0  0  0  0  0  0  0  0
   -2.6030   19.0990  -26.7200 C   0  0  0  0  0  0  0  0  0  0  0  0
   -1.9400   19.9930  -25.6920 C   0  0  0  0  0  0  0  0  0  0  0  0
   -0.9490   20.7770  -26.3180 O   0  0  0  0  0  0  0  0  0  0  0  0
   -1.6840   22.5490  -28.2440 N   0  0  0  0  0  0  0  0  0  0  0  0
   -6.1245   25.4641  -28.3047 H   0  0  0  0  0  0  0  0  0  0  0  0
   -5.3667   26.4608  -29.5927 H   0  0  0  0  0  0  0  0  0  0  0  0
   -7.1428   26.1927  -29.5927 H   0  0  0  0  0  0  0  0  0  0  0  0
   -8.0590   23.9218  -30.0093 H   0  0  0  0  0  0  0  0  0  0  0  0
   -7.8240   21.8765  -31.4023 H   0  0  0  0  0  0  0  0  0  0  0  0
   -7.7081   20.4758  -32.9021 H   0  0  0  0  0  0  0  0  0  0  0  0
   -6.9777   18.3522  -34.2791 H   0  0  0  0  0  0  0  0  0  0  0  0
   -3.3501   20.8314  -32.7288 H   0  0  0  0  0  0  0  0  0  0  0  0
   -3.6432   22.7900  -32.0436 H   0  0  0  0  0  0  0  0  0  0  0  0
   -1.9010   22.5701  -31.5163 H   0  0  0  0  0  0  0  0  0  0  0  0
   -0.5539   19.2056  -30.0497 H   0  0  0  0  0  0  0  0  0  0  0  0
   -1.6754   19.6862  -31.3681 H   0  0  0  0  0  0  0  0  0  0  0  0
    0.0189   20.2829  -31.3681 H   0  0  0  0  0  0  0  0  0  0  0  0
    0.2894   20.0625  -27.8160 H   0  0  0  0  0  0  0  0  0  0  0  0
   -2.0519   18.9734  -28.7961 H   0  0  0  0  0  0  0  0  0  0  0  0
   -0.9591   18.1006  -27.7397 H   0  0  0  0  0  0  0  0  0  0  0  0
   -3.5339   19.5502  -27.0939 H   0  0  0  0  0  0  0  0  0  0  0  0
   -2.8927   18.1175  -26.3166 H   0  0  0  0  0  0  0  0  0  0  0  0
   -2.6951   20.6513  -25.2375 H   0  0  0  0  0  0  0  0  0  0  0  0
   -1.4764   19.3719  -24.9114 H   0  0  0  0  0  0  0  0  0  0  0  0
   -1.8150   22.8870  -27.2660 H   0  0  0  0  0  0  0  0  0  0  0  0
  1  2  1  0
  2  3  2  0
  3  4  1  0
  4  5  2  0
  5  6  1  0
  6  7  1  0
  7  8  2  0
  8  9  1  0
  9 10  1  0
  5 11  1  0
 11 12  2  0
 12 13  1  0
 13 14  1  0
 14 15  2  0
 14 16  1  0
 16 17  2  0
 17 18  1  0
 18 19  1  0
 18 20  1  0
 20 21  1  0
 21 22  1  0
 22 23  1  0
 23 24  1  0
 24 25  1  0
 20 26  2  0
 12  2  1  0
 26 16  1  0
 10  6  2  0
 25 21  1  0
  1 27  1  0
  1 28  1  0
  1 29  1  0
  3 30  1  0
  4 31  1  0
  7 32  1  0
  8 33  1  0
 10 34  1  0
 11 35  1  0
 17 36  1  0
 19 37  1  0
 19 38  1  0
 19 39  1  0
 21 40  1  6
 22 41  1  0
 22 42  1  0
 23 43  1  0
 23 44  1  0
 24 45  1  0
 24 46  1  0
 26 47  1  0
M  CHG  2  13  -1  26   1
M  END
>  <UniqueID>  (46) 
46

>  <SMILES>  (46) 
Cc1ccc(-c2ccsc2)cc1[N-]C(=O)c1cn(C)c([C@@H]2CCCO2)[nH+]1

>  <Energy>  (46) 
114.137279098344

>  <Genealogy>  (46) 
Cc1ccc(-c2ccsc2)cc1[N-]C(=O)c1cn(C)c(C2CCCO2)[nH+]1 (protonated)
Cc1ccc(-c2ccsc2)cc1[N-]C(=O)c1cn(C)c([C@@H]2CCCO2)[nH+]1 (chirality)
Cc1ccc(-c2ccsc2)cc1[N-]C(=O)c1cn(C)c([C@@H]2CCCO2)[nH+]1 (3D coordinates assigned)
Cc1ccc(-c2ccsc2)cc1[N-]C(=O)c1cn(C)c([C@@H]2CCCO2)[nH+]1 (nonaromatic ring conformer: 114.137279098344 kcal/mol)

>  <smiles>  (46) 
Cc1ccc(-c2ccsc2)cc1NC(=O)c1cn(C)c(C2CCCO2)n1

>  <score_type>  (46) 
oracle

>  <origin>  (46) 
adg

>  <m_score__min__energy>  (46) 
-9.3000000000000007

>  <m_primary>  (46) 
energy

$$$$
46:0
     RDKit          3D

 60 62  0  0  0  0  0  0  0  0999 V2000
   -5.4080   16.3140  -31.9550 C   0  0  0  0  0  0  0  0  0  0  0  0
   -6.3970   17.4150  -31.5880 C   0  0  0  0  0  0  0  0  0  0  0  0
   -7.2920   17.6860  -32.7210 N   0  0  0  0  0  0  0  0  0  0  0  0
   -8.4320   18.5330  -32.3290 C   0  0  0  0  0  0  0  0  0  0  0  0
   -8.1920   20.0170  -32.6480 C   0  0  0  0  0  0  0  0  0  0  0  0
   -6.7620   20.2710  -32.8180 N   0  0  0  0  0  0  0  0  0  0  0  0
   -6.0750   21.4200  -32.2850 C   0  0  0  0  0  0  0  0  0  0  0  0
   -6.7110   22.2880  -31.3810 C   0  0  0  0  0  0  0  0  0  0  0  0
   -6.0130   23.3420  -30.7800 C   0  0  0  0  0  0  0  0  0  0  0  0
   -6.9180   24.4170  -29.7150 Cl  0  0  0  0  0  0  0  0  0  0  0  0
   -4.6450   23.5380  -31.0700 C   0  0  0  0  0  0  0  0  0  0  0  0
   -3.8410   24.6040  -30.4300 C   0  0  0  0  0  0  0  0  0  0  0  0
   -4.2320   25.8000  -30.4990 O   0  0  0  0  0  0  0  0  0  0  0  0
   -2.6270   24.2780  -29.7400 N   0  0  0  0  0  0  0  0  0  0  0  0
   -2.1470   22.9650  -29.4070 C   0  0  0  0  0  0  0  0  0  0  0  0
   -1.0030   22.4230  -30.0250 C   0  0  0  0  0  0  0  0  0  0  0  0
   -0.5640   21.1390  -29.6980 C   0  0  0  0  0  0  0  0  0  0  0  0
   -1.2620   20.3710  -28.7650 C   0  0  0  0  0  0  0  0  0  0  0  0
   -0.8090   19.0930  -28.4480 O   0  0  0  0  0  0  0  0  0  0  0  0
   -2.4160   20.8880  -28.1640 C   0  0  0  0  0  0  0  0  0  0  0  0
   -2.8730   22.1770  -28.4900 C   0  0  0  0  0  0  0  0  0  0  0  0
   -4.1140   22.7180  -27.8330 C   0  0  0  0  0  0  0  0  0  0  0  0
   -4.0210   22.6900  -31.9990 C   0  0  0  0  0  0  0  0  0  0  0  0
   -4.7240   21.6530  -32.6190 C   0  0  0  0  0  0  0  0  0  0  0  0
   -4.0430   20.8580  -33.5520 O   0  0  0  0  0  0  0  0  0  0  0  0
   -3.1060   19.8620  -33.2290 C   0  0  0  0  0  0  0  0  0  0  0  0
   -1.8700   20.1720  -32.6310 C   0  0  0  0  0  0  0  0  0  0  0  0
   -0.9590   19.1600  -32.3270 C   0  0  0  0  0  0  0  0  0  0  0  0
   -1.2750   17.8280  -32.6030 C   0  0  0  0  0  0  0  0  0  0  0  0
   -0.1270   16.5600  -32.2190 Cl  0  0  0  0  0  0  0  0  0  0  0  0
   -2.5080   17.5070  -33.1770 C   0  0  0  0  0  0  0  0  0  0  0  0
   -3.4340   18.5220  -33.4910 C   0  0  0  0  0  0  0  0  0  0  0  0
   -4.6840   18.2420  -34.0660 O   0  0  0  0  0  0  0  0  0  0  0  0
   -4.8740   17.4450  -35.2310 C   0  0  0  0  0  0  0  0  0  0  0  0
   -5.0034   15.8635  -31.0366 H   0  0  0  0  0  0  0  0  0  0  0  0
   -5.9217   15.5419  -32.5466 H   0  0  0  0  0  0  0  0  0  0  0  0
   -4.5854   16.7423  -32.5466 H   0  0  0  0  0  0  0  0  0  0  0  0
   -6.9937   17.0943  -30.7213 H   0  0  0  0  0  0  0  0  0  0  0  0
   -5.8410   18.3313  -31.3404 H   0  0  0  0  0  0  0  0  0  0  0  0
   -6.7490   18.1560  -33.4860 H   0  0  0  0  0  0  0  0  0  0  0  0
   -9.3272   18.1947  -32.8714 H   0  0  0  0  0  0  0  0  0  0  0  0
   -8.5627   18.4393  -31.2408 H   0  0  0  0  0  0  0  0  0  0  0  0
   -8.7207   20.2795  -33.5762 H   0  0  0  0  0  0  0  0  0  0  0  0
   -8.5693   20.6291  -31.8156 H   0  0  0  0  0  0  0  0  0  0  0  0
   -6.2140   19.5560  -33.3460 H   0  0  0  0  0  0  0  0  0  0  0  0
   -7.7740   22.1367  -31.1420 H   0  0  0  0  0  0  0  0  0  0  0  0
   -0.4520   23.0156  -30.7702 H   0  0  0  0  0  0  0  0  0  0  0  0
    0.3372   20.7302  -30.1784 H   0  0  0  0  0  0  0  0  0  0  0  0
   -0.4800   18.4540  -29.1620 H   0  0  0  0  0  0  0  0  0  0  0  0
   -2.9690   20.2815  -27.4316 H   0  0  0  0  0  0  0  0  0  0  0  0
   -4.0013   22.6689  -26.7399 H   0  0  0  0  0  0  0  0  0  0  0  0
   -4.2650   23.7636  -28.1394 H   0  0  0  0  0  0  0  0  0  0  0  0
   -4.9828   22.1170  -28.1394 H   0  0  0  0  0  0  0  0  0  0  0  0
   -2.9597   22.8445  -32.2433 H   0  0  0  0  0  0  0  0  0  0  0  0
   -1.6208   21.2186  -32.4020 H   0  0  0  0  0  0  0  0  0  0  0  0
    0.0092   19.4115  -31.8694 H   0  0  0  0  0  0  0  0  0  0  0  0
   -2.7573   16.4560  -33.3850 H   0  0  0  0  0  0  0  0  0  0  0  0
   -5.1196   16.4146  -34.9343 H   0  0  0  0  0  0  0  0  0  0  0  0
   -5.6982   17.8607  -35.8292 H   0  0  0  0  0  0  0  0  0  0  0  0
   -3.9509   17.4441  -35.8292 H   0  0  0  0  0  0  0  0  0  0  0  0
  1  2  1  0
  2  3  1  0
  3  4  1  0
  4  5  1  0
  5  6  1  0
  6  7  1  0
  7  8  2  0
  8  9  1  0
  9 10  1  0
  9 11  2  0
 11 12  1  0
 12 13  2  0
 12 14  1  0
 14 15  1  0
 15 16  2  0
 16 17  1  0
 17 18  2  0
 18 19  1  0
 18 20  1  0
 20 21  2  0
 21 22  1  0
 11 23  1  0
 23 24  2  0
 24 25  1  0
 25 26  1  0
 26 27  2  0
 27 28  1  0
 28 29  2  0
 29 30  1  0
 29 31  1  0
 31 32  2  0
 32 33  1  0
 33 34  1  0
 24  7  1  0
 32 26  1  0
 21 15  1  0
  1 35  1  0
  1 36  1  0
  1 37  1  0
  2 38  1  0
  2 39  1  0
  3 40  1  0
  4 41  1  0
  4 42  1  0
  5 43  1  0
  5 44  1  0
  6 45  1  0
  8 46  1  0
 16 47  1  0
 17 48  1  0
 19 49  1  0
 20 50  1  0
 22 51  1  0
 22 52  1  0
 22 53  1  0
 23 54  1  0
 27 55  1  0
 28 56  1  0
 31 57  1  0
 34 58  1  0
 34 59  1  0
 34 60  1  0
M  CHG  1  14  -1
M  END
>  <UniqueID>  (47) 
47

>  <SMILES>  (47) 
CCNCCNc1cc(Cl)c(C(=O)[N-]c2ccc(O)cc2C)cc1Oc1ccc(Cl)cc1OC

>  <Energy>  (47) 
74.19191653020432

>  <Genealogy>  (47) 
CCNCCNc1cc(Cl)c(C(=O)[N-]c2ccc(O)cc2C)cc1Oc1ccc(Cl)cc1OC (protonated)
CCNCCNc1cc(Cl)c(C(=O)[N-]c2ccc(O)cc2C)cc1Oc1ccc(Cl)cc1OC (3D coordinates assigned)
CCNCCNc1cc(Cl)c(C(=O)[N-]c2ccc(O)cc2C)cc1Oc1ccc(Cl)cc1OC (optimized conformer: 74.19191653020432 kcal/mol)

>  <smiles>  (47) 
CCNCCNc1cc(Cl)c(C(=O)Nc2ccc(O)cc2C)cc1Oc1ccc(Cl)cc1OC

>  <score_type>  (47) 
oracle

>  <origin>  (47) 
adg

>  <m_score__min__energy>  (47) 
-9.2799999999999994

>  <m_primary>  (47) 
energy

$$$$
47:0
     RDKit          3D

 38 40  0  0  0  0  0  0  0  0999 V2000
   -6.8850   24.3490  -29.7750 O   0  0  0  0  0  0  0  0  0  0  0  0
   -6.0970   24.5160  -30.7440 C   0  0  0  0  0  0  0  0  0  0  0  0
   -5.0990   25.6230  -30.7020 C   0  0  0  0  0  0  0  0  0  0  0  0
   -3.8110   25.0800  -30.4240 O   0  0  0  0  0  0  0  0  0  0  0  0
   -3.5860   23.9120  -29.6810 C   0  0  0  0  0  0  0  0  0  0  0  0
   -2.7140   22.9510  -30.2010 C   0  0  0  0  0  0  0  0  0  0  0  0
   -2.4540   21.7690  -29.5000 C   0  0  0  0  0  0  0  0  0  0  0  0
   -3.0680   21.5300  -28.2570 C   0  0  0  0  0  0  0  0  0  0  0  0
   -2.8110   20.2870  -27.4930 C   0  0  0  0  0  0  0  0  0  0  0  0
   -3.6610   19.7000  -26.6290 N   0  0  0  0  0  0  0  0  0  0  0  0
   -3.0660   18.6170  -26.1580 N   0  0  0  0  0  0  0  0  0  0  0  0
   -1.8590   18.5760  -26.7540 C   0  0  0  0  0  0  0  0  0  0  0  0
   -1.7000   19.5930  -27.5710 O   0  0  0  0  0  0  0  0  0  0  0  0
   -3.9440   22.4950  -27.7360 C   0  0  0  0  0  0  0  0  0  0  0  0
   -4.2020   23.6760  -28.4380 C   0  0  0  0  0  0  0  0  0  0  0  0
   -6.0720   23.5910  -31.8390 N   0  0  0  0  0  0  0  0  0  0  0  0
   -6.8850   22.4140  -31.9830 C   0  0  0  0  0  0  0  0  0  0  0  0
   -8.2730   22.4580  -31.7590 C   0  0  0  0  0  0  0  0  0  0  0  0
   -9.0540   21.3120  -31.9230 C   0  0  0  0  0  0  0  0  0  0  0  0
   -8.4640   20.1150  -32.3250 C   0  0  0  0  0  0  0  0  0  0  0  0
   -7.0920   20.0600  -32.5740 C   0  0  0  0  0  0  0  0  0  0  0  0
   -6.2870   21.2060  -32.4150 C   0  0  0  0  0  0  0  0  0  0  0  0
   -4.7990   21.1470  -32.6900 C   0  0  0  0  0  0  0  0  0  0  0  0
   -4.3550   22.3910  -33.0990 F   0  0  0  0  0  0  0  0  0  0  0  0
   -4.4930   20.2280  -33.6780 F   0  0  0  0  0  0  0  0  0  0  0  0
   -4.1300   20.7850  -31.5350 F   0  0  0  0  0  0  0  0  0  0  0  0
   -5.0795   26.1383  -31.6736 H   0  0  0  0  0  0  0  0  0  0  0  0
   -5.3756   26.3414  -29.9162 H   0  0  0  0  0  0  0  0  0  0  0  0
   -2.2272   23.1263  -31.1717 H   0  0  0  0  0  0  0  0  0  0  0  0
   -1.7658   21.0223  -29.9228 H   0  0  0  0  0  0  0  0  0  0  0  0
   -4.6190   20.0080  -26.3540 H   0  0  0  0  0  0  0  0  0  0  0  0
   -1.1053   17.7940  -26.5798 H   0  0  0  0  0  0  0  0  0  0  0  0
   -4.4322   22.3203  -26.7659 H   0  0  0  0  0  0  0  0  0  0  0  0
   -4.8896   24.4242  -28.0169 H   0  0  0  0  0  0  0  0  0  0  0  0
   -8.7468   23.4022  -31.4524 H   0  0  0  0  0  0  0  0  0  0  0  0
  -10.1369   21.3541  -31.7345 H   0  0  0  0  0  0  0  0  0  0  0  0
   -9.0808   19.2123  -32.4462 H   0  0  0  0  0  0  0  0  0  0  0  0
   -6.6345   19.1134  -32.8974 H   0  0  0  0  0  0  0  0  0  0  0  0
  1  2  2  0
  2  3  1  0
  3  4  1  0
  4  5  1  0
  5  6  2  0
  6  7  1  0
  7  8  2  0
  8  9  1  0
  9 10  2  0
 10 11  1  0
 11 12  2  0
 12 13  1  0
  8 14  1  0
 14 15  2  0
  2 16  1  0
 16 17  1  0
 17 18  2  0
 18 19  1  0
 19 20  2  0
 20 21  1  0
 21 22  2  0
 22 23  1  0
 23 24  1  0
 23 25  1  0
 23 26  1  0
 15  5  1  0
 22 17  1  0
 13  9  1  0
  3 27  1  0
  3 28  1  0
  6 29  1  0
  7 30  1  0
 10 31  1  0
 12 32  1  0
 14 33  1  0
 15 34  1  0
 18 35  1  0
 19 36  1  0
 20 37  1  0
 21 38  1  0
M  CHG  2  10   1  16  -1
M  END
>  <UniqueID>  (48) 
48

>  <SMILES>  (48) 
O=C(COc1ccc(-c2[nH+]nco2)cc1)[N-]c1ccccc1C(F)(F)F

>  <Energy>  (48) 
80.2137718462801

>  <Genealogy>  (48) 
O=C(COc1ccc(-c2[nH+]nco2)cc1)[N-]c1ccccc1C(F)(F)F (protonated)
O=C(COc1ccc(-c2[nH+]nco2)cc1)[N-]c1ccccc1C(F)(F)F (3D coordinates assigned)
O=C(COc1ccc(-c2[nH+]nco2)cc1)[N-]c1ccccc1C(F)(F)F (optimized conformer: 80.2137718462801 kcal/mol)

>  <smiles>  (48) 
O=C(COc1ccc(-c2nnco2)cc1)Nc1ccccc1C(F)(F)F

>  <score_type>  (48) 
oracle

>  <origin>  (48) 
adg

>  <m_score__min__energy>  (48) 
-9.4100000000000001

>  <m_primary>  (48) 
energy

$$$$
