0:0
     RDKit          3D

 72 75  0  0  0  0  0  0  0  0999 V2000
    0.2410   25.2730  -36.1080 C   0  0  0  0  0  0  0  0  0  0  0  0
    0.9330   23.9190  -36.2530 C   0  0  0  0  0  0  0  0  0  0  0  0
    0.2800   22.9990  -35.3670 N   0  0  0  0  0  0  0  0  0  0  0  0
    0.7940   21.6710  -35.5720 C   0  0  0  0  0  0  0  0  0  0  0  0
   -0.0480   20.5920  -34.9580 C   0  0  0  0  0  0  0  0  0  0  0  0
   -1.2210   21.0470  -34.3060 N   0  0  0  0  0  0  0  0  0  0  0  0
   -1.2090   21.0120  -32.8980 C   0  0  0  0  0  0  0  0  0  0  0  0
   -2.6050   20.8030  -32.2980 C   0  0  0  0  0  0  0  0  0  0  0  0
   -3.5930   21.0380  -33.3360 N   0  0  0  0  0  0  0  0  0  0  0  0
   -4.8930   20.5600  -33.1030 C   0  0  0  0  0  0  0  0  0  0  0  0
   -5.7740   21.5190  -32.5600 C   0  0  0  0  0  0  0  0  0  0  0  0
   -5.3140   22.8220  -32.3450 C   0  0  0  0  0  0  0  0  0  0  0  0
   -6.0900   23.8180  -31.8210 C   0  0  0  0  0  0  0  0  0  0  0  0
   -7.3870   23.5170  -31.4910 C   0  0  0  0  0  0  0  0  0  0  0  0
   -7.8720   22.2160  -31.6960 C   0  0  0  0  0  0  0  0  0  0  0  0
   -7.0700   21.2240  -32.2280 C   0  0  0  0  0  0  0  0  0  0  0  0
   -7.5390   19.9810  -32.4190 N   0  0  0  0  0  0  0  0  0  0  0  0
   -8.8780   19.5980  -32.1060 C   0  0  0  0  0  0  0  0  0  0  0  0
   -6.7110   19.0720  -32.9340 C   0  0  0  0  0  0  0  0  0  0  0  0
   -7.2310   17.7830  -33.1000 C   0  0  0  0  0  0  0  0  0  0  0  0
   -6.4320   16.7900  -33.6130 C   0  0  0  0  0  0  0  0  0  0  0  0
   -5.1280   17.0800  -33.9550 C   0  0  0  0  0  0  0  0  0  0  0  0
   -4.5660   18.3410  -33.8070 C   0  0  0  0  0  0  0  0  0  0  0  0
   -3.2620   18.5370  -34.3000 N   0  0  0  0  0  0  0  0  0  0  0  0
   -2.4780   17.3630  -34.7500 C   0  0  0  0  0  0  0  0  0  0  0  0
   -1.0330   17.6550  -34.9320 C   0  0  0  0  0  0  0  0  0  0  0  0
   -0.1590   16.8560  -33.9710 C   0  0  0  0  0  0  0  0  0  0  0  0
    0.2490   17.6990  -32.8460 N   0  0  0  0  0  0  0  0  0  0  0  0
   -0.5430   17.7600  -31.7600 C   0  0  0  0  0  0  0  0  0  0  0  0
   -0.1440   18.5580  -30.7040 C   0  0  0  0  0  0  0  0  0  0  0  0
    1.0410   19.2820  -30.7500 C   0  0  0  0  0  0  0  0  0  0  0  0
    1.8360   19.1960  -31.8900 C   0  0  0  0  0  0  0  0  0  0  0  0
    1.4040   18.3890  -32.9210 C   0  0  0  0  0  0  0  0  0  0  0  0
   -5.3880   19.3120  -33.2900 C   0  0  0  0  0  0  0  0  0  0  0  0
    0.1197   25.5104  -35.0408 H   0  0  0  0  0  0  0  0  0  0  0  0
    0.8522   26.0506  -36.5894 H   0  0  0  0  0  0  0  0  0  0  0  0
   -0.7473   25.2331  -36.5894 H   0  0  0  0  0  0  0  0  0  0  0  0
    0.8483   23.5641  -37.2907 H   0  0  0  0  0  0  0  0  0  0  0  0
    2.0009   24.0031  -36.0028 H   0  0  0  0  0  0  0  0  0  0  0  0
   -0.7450   23.0450  -35.4190 H   0  0  0  0  0  0  0  0  0  0  0  0
    0.8570   21.4873  -36.6547 H   0  0  0  0  0  0  0  0  0  0  0  0
    1.7763   21.6291  -35.0788 H   0  0  0  0  0  0  0  0  0  0  0  0
   -0.3487   19.8977  -35.7564 H   0  0  0  0  0  0  0  0  0  0  0  0
    0.5729   20.1213  -34.1815 H   0  0  0  0  0  0  0  0  0  0  0  0
   -1.4370   21.9910  -34.7160 H   0  0  0  0  0  0  0  0  0  0  0  0
   -0.5590   20.1865  -32.5722 H   0  0  0  0  0  0  0  0  0  0  0  0
   -0.8386   21.9858  -32.5451 H   0  0  0  0  0  0  0  0  0  0  0  0
   -2.6976   19.7727  -31.9241 H   0  0  0  0  0  0  0  0  0  0  0  0
   -2.7639   21.4999  -31.4619 H   0  0  0  0  0  0  0  0  0  0  0  0
   -3.3800   21.5800  -34.2220 H   0  0  0  0  0  0  0  0  0  0  0  0
   -4.2732   23.0579  -32.6115 H   0  0  0  0  0  0  0  0  0  0  0  0
   -5.6867   24.8300  -31.6686 H   0  0  0  0  0  0  0  0  0  0  0  0
   -8.0437   24.2914  -31.0678 H   0  0  0  0  0  0  0  0  0  0  0  0
   -8.9125   21.9809  -31.4276 H   0  0  0  0  0  0  0  0  0  0  0  0
   -9.0033   19.5622  -31.0137 H   0  0  0  0  0  0  0  0  0  0  0  0
   -9.5783   20.3319  -32.5315 H   0  0  0  0  0  0  0  0  0  0  0  0
   -9.0843   18.6048  -32.5315 H   0  0  0  0  0  0  0  0  0  0  0  0
   -8.2729   17.5665  -32.8214 H   0  0  0  0  0  0  0  0  0  0  0  0
   -6.8288   15.7732  -33.7496 H   0  0  0  0  0  0  0  0  0  0  0  0
   -4.5027   16.2732  -34.3650 H   0  0  0  0  0  0  0  0  0  0  0  0
   -2.7450   19.4100  -34.4350 H   0  0  0  0  0  0  0  0  0  0  0  0
   -2.5810   16.5659  -33.9990 H   0  0  0  0  0  0  0  0  0  0  0  0
   -2.8754   17.0630  -35.7308 H   0  0  0  0  0  0  0  0  0  0  0  0
   -0.7477   17.4024  -35.9639 H   0  0  0  0  0  0  0  0  0  0  0  0
   -0.8752   18.7235  -34.7235 H   0  0  0  0  0  0  0  0  0  0  0  0
   -0.7278   15.9939  -33.5926 H   0  0  0  0  0  0  0  0  0  0  0  0
    0.7376   16.5068  -34.5041 H   0  0  0  0  0  0  0  0  0  0  0  0
   -1.4828   17.1902  -31.7137 H   0  0  0  0  0  0  0  0  0  0  0  0
   -0.7786   18.6212  -29.8077 H   0  0  0  0  0  0  0  0  0  0  0  0
    1.3457   19.9118  -29.9011 H   0  0  0  0  0  0  0  0  0  0  0  0
    2.7803   19.7551  -31.9657 H   0  0  0  0  0  0  0  0  0  0  0  0
    2.0188   18.3062  -33.8294 H   0  0  0  0  0  0  0  0  0  0  0  0
  1  2  1  0
  2  3  1  0
  3  4  1  0
  4  5  1  0
  5  6  1  0
  6  7  1  0
  7  8  1  0
  8  9  1  0
  9 10  1  0
 10 11  2  0
 11 12  1  0
 12 13  2  0
 13 14  1  0
 14 15  2  0
 15 16  1  0
 16 17  2  0
 17 18  1  0
 17 19  1  0
 19 20  2  0
 20 21  1  0
 21 22  2  0
 22 23  1  0
 23 24  1  0
 24 25  1  0
 25 26  1  0
 26 27  1  0
 27 28  1  0
 28 29  2  0
 29 30  1  0
 30 31  2  0
 31 32  1  0
 32 33  2  0
 23 34  2  0
 34 10  1  0
 16 11  1  0
 34 19  1  0
 33 28  1  0
  1 35  1  0
  1 36  1  0
  1 37  1  0
  2 38  1  0
  2 39  1  0
  3 40  1  0
  4 41  1  0
  4 42  1  0
  5 43  1  0
  5 44  1  0
  6 45  1  0
  7 46  1  0
  7 47  1  0
  8 48  1  0
  8 49  1  0
  9 50  1  0
 12 51  1  0
 13 52  1  0
 14 53  1  0
 15 54  1  0
 18 55  1  0
 18 56  1  0
 18 57  1  0
 20 58  1  0
 21 59  1  0
 22 60  1  0
 24 61  1  0
 25 62  1  0
 25 63  1  0
 26 64  1  0
 26 65  1  0
 27 66  1  0
 27 67  1  0
 29 68  1  0
 30 69  1  0
 31 70  1  0
 32 71  1  0
 33 72  1  0
M  CHG  2  17   1  28   1
M  END
>  <smiles>  (1) 
CCNCCNCCNc1c2ccccc2[n+](C)c2cccc(NCCC[n+]3ccccc3)c12

>  <score_type>  (1) 
oracle

>  <origin>  (1) 
adg

>  <m_score__min__energy>  (1) 
-9.5600000000000005

>  <m_primary>  (1) 
energy

$$$$
1:0
     RDKit          3D

 24 24  0  0  0  0  0  0  0  0999 V2000
   -7.6350   18.9210  -31.9700 C   0  0  0  0  0  0  0  0  0  0  0  0
   -7.9460   20.0480  -32.8980 C   0  0  0  0  0  0  0  0  0  0  0  0
   -6.8760   21.0150  -33.0500 N   0  0  0  0  0  0  0  0  0  0  0  0
   -6.6880   22.1100  -32.1620 C   0  0  0  0  0  0  0  0  0  0  0  0
   -7.6820   22.5150  -31.2950 C   0  0  0  0  0  0  0  0  0  0  0  0
   -7.5120   23.5590  -30.4440 N   0  0  0  0  0  0  0  0  0  0  0  0
   -6.3870   24.2510  -30.3900 N   0  0  0  0  0  0  0  0  0  0  0  0
   -6.1620   25.3610  -29.5050 C   0  0  0  0  0  0  0  0  0  0  0  0
   -5.3950   23.8870  -31.2150 C   0  0  0  0  0  0  0  0  0  0  0  0
   -4.2890   24.5170  -31.2080 O   0  0  0  0  0  0  0  0  0  0  0  0
   -5.5020   22.8340  -32.1090 C   0  0  0  0  0  0  0  0  0  0  0  0
   -4.4250   22.4770  -32.9720 N   0  0  0  0  0  0  0  0  0  0  0  0
   -7.7301   19.2657  -30.9297 H   0  0  0  0  0  0  0  0  0  0  0  0
   -8.3386   18.0945  -32.1482 H   0  0  0  0  0  0  0  0  0  0  0  0
   -6.6071   18.5723  -32.1482 H   0  0  0  0  0  0  0  0  0  0  0  0
   -8.1704   19.6254  -33.8885 H   0  0  0  0  0  0  0  0  0  0  0  0
   -8.7967   20.5894  -32.4584 H   0  0  0  0  0  0  0  0  0  0  0  0
   -6.1870   20.9320  -33.8470 H   0  0  0  0  0  0  0  0  0  0  0  0
   -8.6408   21.9759  -31.2933 H   0  0  0  0  0  0  0  0  0  0  0  0
   -6.2315   25.0183  -28.4620 H   0  0  0  0  0  0  0  0  0  0  0  0
   -5.1609   25.7787  -29.6878 H   0  0  0  0  0  0  0  0  0  0  0  0
   -6.9214   26.1355  -29.6878 H   0  0  0  0  0  0  0  0  0  0  0  0
   -4.6110   21.9450  -33.8490 H   0  0  0  0  0  0  0  0  0  0  0  0
   -3.4720   22.7800  -32.6690 H   0  0  0  0  0  0  0  0  0  0  0  0
  1  2  1  0
  2  3  1  0
  3  4  1  0
  4  5  1  0
  5  6  2  0
  6  7  1  0
  7  8  1  0
  7  9  1  0
  9 10  2  0
  9 11  1  0
 11 12  1  0
 11  4  2  0
  1 13  1  0
  1 14  1  0
  1 15  1  0
  2 16  1  0
  2 17  1  0
  3 18  1  0
  5 19  1  0
  8 20  1  0
  8 21  1  0
  8 22  1  0
 12 23  1  0
 12 24  1  0
M  END
>  <smiles>  (2) 
CCNc1cnn(C)c(=O)c1N

>  <score_type>  (2) 
oracle

>  <origin>  (2) 
adg

>  <m_score__min__energy>  (2) 
-4.6200000000000001

>  <m_primary>  (2) 
energy

$$$$
2:0
     RDKit          3D

 60 62  0  0  0  0  0  0  0  0999 V2000
    0.6200   23.5570  -25.6490 C   0  0  0  0  0  0  0  0  0  0  0  0
    1.2550   24.1030  -26.8860 C   0  0  0  0  0  0  0  0  0  0  0  0
    0.4130   24.6120  -27.8880 N   0  0  0  0  0  0  0  0  0  0  0  0
    0.0170   23.7520  -28.9430 C   0  0  0  0  0  0  0  0  0  0  0  0
   -1.3720   23.2120  -28.6580 C   0  0  0  0  0  0  0  0  0  0  0  0
   -2.2780   24.3260  -28.6710 N   0  0  0  0  0  0  0  0  0  0  0  0
   -3.6550   23.9660  -28.5130 C   0  0  0  0  0  0  0  0  0  0  0  0
   -4.5160   24.3240  -29.6700 C   0  0  0  0  0  0  0  0  0  0  0  0
   -4.0700   24.4050  -30.8430 O   0  0  0  0  0  0  0  0  0  0  0  0
   -5.8910   24.5760  -29.3940 N   0  0  0  0  0  0  0  0  0  0  0  0
   -6.8140   24.9280  -30.4270 C   0  0  0  0  0  0  0  0  0  0  0  0
   -7.5350   23.7620  -31.0250 C   0  0  0  0  0  0  0  0  0  0  0  0
   -6.6250   22.7160  -31.4620 N   0  0  0  0  0  0  0  0  0  0  0  0
   -7.1560   21.4370  -31.7700 C   0  0  0  0  0  0  0  0  0  0  0  0
   -8.5130   21.2310  -31.8020 C   0  0  0  0  0  0  0  0  0  0  0  0
   -9.1050   20.0190  -32.0800 C   0  0  0  0  0  0  0  0  0  0  0  0
   -8.2660   18.9570  -32.3400 C   0  0  0  0  0  0  0  0  0  0  0  0
   -6.8970   19.1340  -32.3150 C   0  0  0  0  0  0  0  0  0  0  0  0
   -6.3210   20.3780  -32.0290 C   0  0  0  0  0  0  0  0  0  0  0  0
   -4.9120   20.4410  -32.0430 N   0  0  0  0  0  0  0  0  0  0  0  0
   -4.0770   20.4910  -30.8560 C   0  0  0  0  0  0  0  0  0  0  0  0
   -2.9380   21.4820  -31.1630 C   0  0  0  0  0  0  0  0  0  0  0  0
   -3.3200   22.3640  -32.1400 O   0  0  0  0  0  0  0  0  0  0  0  0
   -3.5270   21.8330  -33.3880 C   0  0  0  0  0  0  0  0  0  0  0  0
   -4.1790   20.4680  -33.3230 C   0  0  0  0  0  0  0  0  0  0  0  0
   -1.9510   25.3110  -27.6530 C   0  0  0  0  0  0  0  0  0  0  0  0
   -0.5010   25.6400  -27.5850 C   0  0  0  0  0  0  0  0  0  0  0  0
    1.1153   23.9829  -24.7640 H   0  0  0  0  0  0  0  0  0  0  0  0
   -0.4470   23.8240  -25.6361 H   0  0  0  0  0  0  0  0  0  0  0  0
    0.7241   22.4620  -25.6361 H   0  0  0  0  0  0  0  0  0  0  0  0
    1.9262   24.9180  -26.5771 H   0  0  0  0  0  0  0  0  0  0  0  0
    1.7432   23.2341  -27.3516 H   0  0  0  0  0  0  0  0  0  0  0  0
    0.0058   24.3129  -29.8892 H   0  0  0  0  0  0  0  0  0  0  0  0
    0.7274   22.9159  -29.0220 H   0  0  0  0  0  0  0  0  0  0  0  0
   -1.6588   22.4853  -29.4323 H   0  0  0  0  0  0  0  0  0  0  0  0
   -1.3977   22.7024  -27.6835 H   0  0  0  0  0  0  0  0  0  0  0  0
   -3.7119   22.8775  -28.3647 H   0  0  0  0  0  0  0  0  0  0  0  0
   -4.0329   24.5347  -27.6505 H   0  0  0  0  0  0  0  0  0  0  0  0
   -6.2450   24.5020  -28.3940 H   0  0  0  0  0  0  0  0  0  0  0  0
   -7.5608   25.6156  -30.0034 H   0  0  0  0  0  0  0  0  0  0  0  0
   -6.2255   25.3858  -31.2358 H   0  0  0  0  0  0  0  0  0  0  0  0
   -8.2184   23.3441  -30.2711 H   0  0  0  0  0  0  0  0  0  0  0  0
   -8.0830   24.1220  -31.9082 H   0  0  0  0  0  0  0  0  0  0  0  0
   -5.6220   22.9740  -31.5200 H   0  0  0  0  0  0  0  0  0  0  0  0
   -9.1692   22.0886  -31.5922 H   0  0  0  0  0  0  0  0  0  0  0  0
  -10.1989   19.9037  -32.0939 H   0  0  0  0  0  0  0  0  0  0  0  0
   -8.6877   17.9669  -32.5678 H   0  0  0  0  0  0  0  0  0  0  0  0
   -6.2418   18.2758  -32.5251 H   0  0  0  0  0  0  0  0  0  0  0  0
   -4.6632   20.8413  -29.9936 H   0  0  0  0  0  0  0  0  0  0  0  0
   -3.6812   19.4955  -30.6062 H   0  0  0  0  0  0  0  0  0  0  0  0
   -2.6877   22.0404  -30.2489 H   0  0  0  0  0  0  0  0  0  0  0  0
   -2.0613   20.9186  -31.5151 H   0  0  0  0  0  0  0  0  0  0  0  0
   -4.1787   22.5110  -33.9587 H   0  0  0  0  0  0  0  0  0  0  0  0
   -2.5474   21.7186  -33.8752 H   0  0  0  0  0  0  0  0  0  0  0  0
   -4.8726   20.3329  -34.1660 H   0  0  0  0  0  0  0  0  0  0  0  0
   -3.4370   19.6583  -33.3851 H   0  0  0  0  0  0  0  0  0  0  0  0
   -2.5071   26.2346  -27.8716 H   0  0  0  0  0  0  0  0  0  0  0  0
   -2.2284   24.8750  -26.6819 H   0  0  0  0  0  0  0  0  0  0  0  0
   -0.3164   26.4637  -28.2902 H   0  0  0  0  0  0  0  0  0  0  0  0
   -0.3162   25.8770  -26.5268 H   0  0  0  0  0  0  0  0  0  0  0  0
  1  2  1  0
  2  3  1  0
  3  4  1  0
  4  5  1  0
  5  6  1  0
  6  7  1  0
  7  8  1  0
  8  9  2  0
  8 10  1  0
 10 11  1  0
 11 12  1  0
 12 13  1  0
 13 14  1  0
 14 15  2  0
 15 16  1  0
 16 17  2  0
 17 18  1  0
 18 19  2  0
 19 20  1  0
 20 21  1  0
 21 22  1  0
 22 23  1  0
 23 24  1  0
 24 25  1  0
  6 26  1  0
 26 27  1  0
 27  3  1  0
 19 14  1  0
 25 20  1  0
  1 28  1  0
  1 29  1  0
  1 30  1  0
  2 31  1  0
  2 32  1  0
  4 33  1  0
  4 34  1  0
  5 35  1  0
  5 36  1  0
  7 37  1  0
  7 38  1  0
 10 39  1  0
 11 40  1  0
 11 41  1  0
 12 42  1  0
 12 43  1  0
 13 44  1  0
 15 45  1  0
 16 46  1  0
 17 47  1  0
 18 48  1  0
 21 49  1  0
 21 50  1  0
 22 51  1  0
 22 52  1  0
 24 53  1  0
 24 54  1  0
 25 55  1  0
 25 56  1  0
 26 57  1  0
 26 58  1  0
 27 59  1  0
 27 60  1  0
M  END
>  <smiles>  (3) 
CCN1CCN(CC(=O)NCCNc2ccccc2N2CCOCC2)CC1

>  <score_type>  (3) 
oracle

>  <origin>  (3) 
adg

>  <m_score__min__energy>  (3) 
-8.8100000000000005

>  <m_primary>  (3) 
energy

$$$$
3:0
     RDKit          3D

 48 50  0  0  0  0  0  0  0  0999 V2000
   -3.6800   20.5600  -32.5810 C   0  0  0  0  0  0  0  0  0  0  0  0
   -5.0360   20.8640  -33.1260 C   0  0  0  0  0  0  0  0  0  0  0  0
   -5.8950   19.5890  -33.2270 C   0  0  0  0  0  0  0  0  0  0  0  0
   -7.1760   19.9440  -33.6460 N   0  0  0  0  0  0  0  0  0  0  0  0
   -8.2660   20.0800  -32.7830 C   0  0  0  0  0  0  0  0  0  0  0  0
   -8.0940   20.6060  -31.4040 C   0  0  0  0  0  0  0  0  0  0  0  0
   -8.7000   21.9470  -31.1650 C   0  0  0  0  0  0  0  0  0  0  0  0
   -7.8800   23.0390  -31.5210 O   0  0  0  0  0  0  0  0  0  0  0  0
   -6.6780   23.4000  -31.0130 C   0  0  0  0  0  0  0  0  0  0  0  0
   -6.1070   24.6430  -30.9960 C   0  0  0  0  0  0  0  0  0  0  0  0
   -4.8460   24.8930  -30.4410 C   0  0  0  0  0  0  0  0  0  0  0  0
   -4.1190   23.8670  -29.8780 C   0  0  0  0  0  0  0  0  0  0  0  0
   -2.8830   24.1400  -29.3400 C   0  0  0  0  0  0  0  0  0  0  0  0
   -2.3960   25.2910  -29.3450 O   0  0  0  0  0  0  0  0  0  0  0  0
   -2.2030   23.0600  -28.7880 C   0  0  0  0  0  0  0  0  0  0  0  0
   -2.7880   21.8110  -28.8090 C   0  0  0  0  0  0  0  0  0  0  0  0
   -2.1340   20.6330  -28.2490 C   0  0  0  0  0  0  0  0  0  0  0  0
   -2.7440   19.9540  -27.2180 C   0  0  0  0  0  0  0  0  0  0  0  0
   -2.2110   18.8320  -26.6190 C   0  0  0  0  0  0  0  0  0  0  0  0
   -0.9930   18.3520  -27.0720 C   0  0  0  0  0  0  0  0  0  0  0  0
   -0.3880   19.0360  -28.1050 C   0  0  0  0  0  0  0  0  0  0  0  0
   -0.9210   20.1540  -28.7000 C   0  0  0  0  0  0  0  0  0  0  0  0
   -3.9740   21.6390  -29.3440 O   0  0  0  0  0  0  0  0  0  0  0  0
   -4.6750   22.6080  -29.8840 C   0  0  0  0  0  0  0  0  0  0  0  0
   -5.9140   22.3720  -30.4310 C   0  0  0  0  0  0  0  0  0  0  0  0
   -3.7164   20.5682  -31.4816 H   0  0  0  0  0  0  0  0  0  0  0  0
   -3.3587   19.5675  -32.9299 H   0  0  0  0  0  0  0  0  0  0  0  0
   -2.9657   21.3203  -32.9299 H   0  0  0  0  0  0  0  0  0  0  0  0
   -5.5372   21.5825  -32.4607 H   0  0  0  0  0  0  0  0  0  0  0  0
   -4.9191   21.2859  -34.1351 H   0  0  0  0  0  0  0  0  0  0  0  0
   -5.4461   18.8972  -33.9549 H   0  0  0  0  0  0  0  0  0  0  0  0
   -5.9459   19.0933  -32.2464 H   0  0  0  0  0  0  0  0  0  0  0  0
   -7.3610   20.0450  -34.6620 H   0  0  0  0  0  0  0  0  0  0  0  0
   -8.9800   20.7492  -33.2853 H   0  0  0  0  0  0  0  0  0  0  0  0
   -8.5641   19.0360  -32.6063 H   0  0  0  0  0  0  0  0  0  0  0  0
   -8.5561   19.8926  -30.7058 H   0  0  0  0  0  0  0  0  0  0  0  0
   -7.0111   20.7245  -31.2512 H   0  0  0  0  0  0  0  0  0  0  0  0
   -9.6292   22.0118  -31.7501 H   0  0  0  0  0  0  0  0  0  0  0  0
   -8.8640   22.0237  -30.0800 H   0  0  0  0  0  0  0  0  0  0  0  0
   -6.6630   25.4831  -31.4378 H   0  0  0  0  0  0  0  0  0  0  0  0
   -4.4341   25.9129  -30.4546 H   0  0  0  0  0  0  0  0  0  0  0  0
   -1.2086   23.2002  -28.3391 H   0  0  0  0  0  0  0  0  0  0  0  0
   -3.7114   20.3278  -26.8514 H   0  0  0  0  0  0  0  0  0  0  0  0
   -2.7423   18.3283  -25.7980 H   0  0  0  0  0  0  0  0  0  0  0  0
   -0.5273   17.4610  -26.6255 H   0  0  0  0  0  0  0  0  0  0  0  0
    0.5791   18.6645  -28.4749 H   0  0  0  0  0  0  0  0  0  0  0  0
   -0.3903   20.6581  -29.5211 H   0  0  0  0  0  0  0  0  0  0  0  0
   -6.3198   21.3497  -30.4131 H   0  0  0  0  0  0  0  0  0  0  0  0
  1  2  1  0
  2  3  1  0
  3  4  1  0
  4  5  1  0
  5  6  1  0
  6  7  1  0
  7  8  1  0
  8  9  1  0
  9 10  2  0
 10 11  1  0
 11 12  2  0
 12 13  1  0
 13 14  2  0
 13 15  1  0
 15 16  2  0
 16 17  1  0
 17 18  2  0
 18 19  1  0
 19 20  2  0
 20 21  1  0
 21 22  2  0
 16 23  1  0
 23 24  1  0
 24 25  2  0
 25  9  1  0
 24 12  1  0
 22 17  1  0
  1 26  1  0
  1 27  1  0
  1 28  1  0
  2 29  1  0
  2 30  1  0
  3 31  1  0
  3 32  1  0
  4 33  1  0
  5 34  1  0
  5 35  1  0
  6 36  1  0
  6 37  1  0
  7 38  1  0
  7 39  1  0
 10 40  1  0
 11 41  1  0
 15 42  1  0
 18 43  1  0
 19 44  1  0
 20 45  1  0
 21 46  1  0
 22 47  1  0
 25 48  1  0
M  END
>  <smiles>  (4) 
CCCNCCCOc1ccc2c(=O)cc(-c3ccccc3)oc2c1

>  <score_type>  (4) 
oracle

>  <origin>  (4) 
adg

>  <m_score__min__energy>  (4) 
-9.0099999999999998

>  <m_primary>  (4) 
energy

$$$$
4:0
     RDKit          3D

 45 46  0  0  0  0  0  0  0  0999 V2000
   -3.0290   22.3430  -30.1000 C   0  0  0  0  0  0  0  0  0  0  0  0
   -3.4740   23.7380  -29.7280 C   0  0  0  0  0  0  0  0  0  0  0  0
   -3.9850   24.4310  -30.8150 O   0  0  0  0  0  0  0  0  0  0  0  0
   -5.3030   24.7460  -30.6220 N   0  0  0  0  0  0  0  0  0  0  0  0
   -5.7300   26.0180  -30.0900 C   0  0  0  0  0  0  0  0  0  0  0  0
   -6.2520   23.7490  -30.9740 C   0  0  0  0  0  0  0  0  0  0  0  0
   -7.2010   23.2650  -30.0890 C   0  0  0  0  0  0  0  0  0  0  0  0
   -8.1220   22.2970  -30.4310 C   0  0  0  0  0  0  0  0  0  0  0  0
   -8.0990   21.7850  -31.7130 C   0  0  0  0  0  0  0  0  0  0  0  0
   -9.1040   20.7380  -32.0590 C   0  0  0  0  0  0  0  0  0  0  0  0
   -8.5340   19.7640  -32.9880 N   0  0  0  0  0  0  0  0  0  0  0  0
   -8.6200   18.4830  -32.3490 C   0  0  0  0  0  0  0  0  0  0  0  0
   -7.3780   18.1690  -31.5280 C   0  0  0  0  0  0  0  0  0  0  0  0
   -6.2170   18.5970  -32.3550 C   0  0  0  0  0  0  0  0  0  0  0  0
   -5.9750   18.0630  -33.5990 C   0  0  0  0  0  0  0  0  0  0  0  0
   -4.8690   18.5240  -34.2940 C   0  0  0  0  0  0  0  0  0  0  0  0
   -4.0290   19.4890  -33.7650 C   0  0  0  0  0  0  0  0  0  0  0  0
   -4.2830   20.0190  -32.5150 C   0  0  0  0  0  0  0  0  0  0  0  0
   -5.3890   19.5740  -31.7900 C   0  0  0  0  0  0  0  0  0  0  0  0
   -7.1650   22.2390  -32.6380 C   0  0  0  0  0  0  0  0  0  0  0  0
   -6.2550   23.2200  -32.2400 C   0  0  0  0  0  0  0  0  0  0  0  0
   -2.8434   21.7611  -29.1851 H   0  0  0  0  0  0  0  0  0  0  0  0
   -3.8155   21.8531  -30.6929 H   0  0  0  0  0  0  0  0  0  0  0  0
   -2.1041   22.3990  -30.6929 H   0  0  0  0  0  0  0  0  0  0  0  0
   -4.2531   23.6671  -28.9547 H   0  0  0  0  0  0  0  0  0  0  0  0
   -2.5945   24.2867  -29.3602 H   0  0  0  0  0  0  0  0  0  0  0  0
   -5.7168   25.9787  -28.9908 H   0  0  0  0  0  0  0  0  0  0  0  0
   -5.0478   26.8081  -30.4369 H   0  0  0  0  0  0  0  0  0  0  0  0
   -6.7507   26.2365  -30.4369 H   0  0  0  0  0  0  0  0  0  0  0  0
   -7.2211   23.6711  -29.0669 H   0  0  0  0  0  0  0  0  0  0  0  0
   -8.8598   21.9402  -29.6973 H   0  0  0  0  0  0  0  0  0  0  0  0
   -9.4178   20.2206  -31.1404 H   0  0  0  0  0  0  0  0  0  0  0  0
   -9.9684   21.2210  -32.5381 H   0  0  0  0  0  0  0  0  0  0  0  0
   -9.1650   19.7550  -33.8270 H   0  0  0  0  0  0  0  0  0  0  0  0
   -9.4960   18.4764  -31.6838 H   0  0  0  0  0  0  0  0  0  0  0  0
   -8.7097   17.7179  -33.1342 H   0  0  0  0  0  0  0  0  0  0  0  0
   -7.3967   18.7256  -30.5794 H   0  0  0  0  0  0  0  0  0  0  0  0
   -7.3211   17.0991  -31.2788 H   0  0  0  0  0  0  0  0  0  0  0  0
   -6.6370   17.2961  -34.0274 H   0  0  0  0  0  0  0  0  0  0  0  0
   -4.6527   18.1131  -35.2912 H   0  0  0  0  0  0  0  0  0  0  0  0
   -3.1578   19.8342  -34.3411 H   0  0  0  0  0  0  0  0  0  0  0  0
   -3.6176   20.7870  -32.0938 H   0  0  0  0  0  0  0  0  0  0  0  0
   -5.6063   19.9835  -30.7925 H   0  0  0  0  0  0  0  0  0  0  0  0
   -7.1438   21.8341  -33.6605 H   0  0  0  0  0  0  0  0  0  0  0  0
   -5.5136   23.5819  -32.9676 H   0  0  0  0  0  0  0  0  0  0  0  0
  1  2  1  0
  2  3  1  0
  3  4  1  0
  4  5  1  0
  4  6  1  0
  6  7  2  0
  7  8  1  0
  8  9  2  0
  9 10  1  0
 10 11  1  0
 11 12  1  0
 12 13  1  0
 13 14  1  0
 14 15  2  0
 15 16  1  0
 16 17  2  0
 17 18  1  0
 18 19  2  0
  9 20  1  0
 20 21  2  0
 21  6  1  0
 19 14  1  0
  1 22  1  0
  1 23  1  0
  1 24  1  0
  2 25  1  0
  2 26  1  0
  5 27  1  0
  5 28  1  0
  5 29  1  0
  7 30  1  0
  8 31  1  0
 10 32  1  0
 10 33  1  0
 11 34  1  0
 12 35  1  0
 12 36  1  0
 13 37  1  0
 13 38  1  0
 15 39  1  0
 16 40  1  0
 17 41  1  0
 18 42  1  0
 19 43  1  0
 20 44  1  0
 21 45  1  0
M  END
>  <smiles>  (5) 
CCON(C)c1ccc(CNCCc2ccccc2)cc1

>  <score_type>  (5) 
oracle

>  <origin>  (5) 
adg

>  <m_score__min__energy>  (5) 
-7.8600000000000003

>  <m_primary>  (5) 
energy

$$$$
5:0
     RDKit          3D

 47 50  0  0  1  0  0  0  0  0999 V2000
   -6.8600   25.3010  -29.7280 C   0  0  0  0  0  0  0  0  0  0  0  0
   -5.9820   24.5610  -30.6060 N   0  0  0  0  0  0  0  0  0  0  0  0
   -4.6510   24.6140  -30.6510 N   0  0  0  0  0  0  0  0  0  0  0  0
   -4.2780   23.7840  -31.5880 N   0  0  0  0  0  0  0  0  0  0  0  0
   -5.3000   23.1830  -32.1620 N   0  0  0  0  0  0  0  0  0  0  0  0
   -6.4060   23.6700  -31.5430 C   0  0  0  0  0  0  0  0  0  0  0  0
   -8.0740   23.1880  -31.9400 S   0  0  0  0  0  0  0  0  0  0  0  0
   -8.5820   21.7000  -31.0450 C   0  0  0  0  0  0  0  0  0  0  0  0
   -8.9410   20.5820  -32.0370 C   0  0  0  0  0  0  0  0  0  0  0  0
   -8.0270   19.4490  -31.7530 C   0  0  0  0  0  0  0  0  0  0  0  0
   -6.8910   19.2850  -32.5620 N   0  0  0  0  0  0  0  0  0  0  0  0
   -6.1350   18.1090  -32.4570 C   0  0  0  0  0  0  0  0  0  0  0  0
   -4.7350   18.1600  -32.9400 C   0  0  0  0  0  0  0  0  0  0  0  0
   -4.0860   19.5020  -32.9480 C   0  0  2  0  0  0  0  0  0  0  0  0
   -2.7560   19.5490  -33.5940 C   0  0  0  0  0  0  0  0  0  0  0  0
   -2.1150   18.3630  -33.9540 C   0  0  0  0  0  0  0  0  0  0  0  0
   -0.8730   18.3580  -34.5590 C   0  0  0  0  0  0  0  0  0  0  0  0
   -0.2160   19.5420  -34.8320 C   0  0  0  0  0  0  0  0  0  0  0  0
   -0.8310   20.7270  -34.4850 C   0  0  0  0  0  0  0  0  0  0  0  0
   -0.2240   21.9440  -34.7330 O   0  0  0  0  0  0  0  0  0  0  0  0
   -2.0820   20.7180  -33.8760 C   0  0  0  0  0  0  0  0  0  0  0  0
   -4.3580   20.3750  -31.7730 C   0  0  0  0  0  0  0  0  0  0  0  0
   -4.9710   20.6490  -33.0900 C   0  0  2  0  0  0  0  0  0  0  0  0
   -6.4280   20.3590  -33.3400 C   0  0  0  0  0  0  0  0  0  0  0  0
   -6.6010   25.0827  -28.6814 H   0  0  0  0  0  0  0  0  0  0  0  0
   -6.7447   26.3785  -29.9172 H   0  0  0  0  0  0  0  0  0  0  0  0
   -7.9024   25.0049  -29.9172 H   0  0  0  0  0  0  0  0  0  0  0  0
   -7.7562   21.3633  -30.4010 H   0  0  0  0  0  0  0  0  0  0  0  0
   -9.4647   21.9333  -30.4315 H   0  0  0  0  0  0  0  0  0  0  0  0
   -9.9863   20.2704  -31.8947 H   0  0  0  0  0  0  0  0  0  0  0  0
   -8.8329   20.9260  -33.0762 H   0  0  0  0  0  0  0  0  0  0  0  0
   -7.6740   19.5682  -30.7180 H   0  0  0  0  0  0  0  0  0  0  0  0
   -8.6346   18.5552  -31.9580 H   0  0  0  0  0  0  0  0  0  0  0  0
   -6.1086   17.8260  -31.3943 H   0  0  0  0  0  0  0  0  0  0  0  0
   -6.6377   17.3881  -33.1185 H   0  0  0  0  0  0  0  0  0  0  0  0
   -4.1343   17.5014  -32.2955 H   0  0  0  0  0  0  0  0  0  0  0  0
   -4.7777   17.8493  -33.9944 H   0  0  0  0  0  0  0  0  0  0  0  0
   -2.6133   17.4038  -33.7501 H   0  0  0  0  0  0  0  0  0  0  0  0
   -0.4021   17.4005  -34.8263 H   0  0  0  0  0  0  0  0  0  0  0  0
    0.7728   19.5400  -35.3140 H   0  0  0  0  0  0  0  0  0  0  0  0
   -0.5990   22.6380  -35.3390 H   0  0  0  0  0  0  0  0  0  0  0  0
   -2.5497   21.6775  -33.6102 H   0  0  0  0  0  0  0  0  0  0  0  0
   -4.9759   20.0064  -30.9409 H   0  0  0  0  0  0  0  0  0  0  0  0
   -3.7445   20.9440  -31.0590 H   0  0  0  0  0  0  0  0  0  0  0  0
   -5.0137   21.5471  -33.7237 H   0  0  0  0  0  0  0  0  0  0  0  0
   -7.0160   21.2555  -33.0939 H   0  0  0  0  0  0  0  0  0  0  0  0
   -6.5436   20.0863  -34.3994 H   0  0  0  0  0  0  0  0  0  0  0  0
  1  2  1  0
  2  3  1  0
  3  4  2  0
  4  5  1  0
  5  6  2  0
  6  7  1  0
  7  8  1  0
  8  9  1  0
  9 10  1  0
 10 11  1  0
 11 12  1  0
 12 13  1  0
 13 14  1  0
 14 15  1  6
 15 16  2  0
 16 17  1  0
 17 18  2  0
 18 19  1  0
 19 20  1  0
 19 21  2  0
 14 22  1  0
 22 23  1  0
 23 24  1  0
  6  2  1  0
 24 11  1  0
 23 14  1  0
 21 15  1  0
  1 25  1  0
  1 26  1  0
  1 27  1  0
  8 28  1  0
  8 29  1  0
  9 30  1  0
  9 31  1  0
 10 32  1  0
 10 33  1  0
 12 34  1  0
 12 35  1  0
 13 36  1  0
 13 37  1  0
 16 38  1  0
 17 39  1  0
 18 40  1  0
 20 41  1  0
 21 42  1  0
 22 43  1  0
 22 44  1  0
 23 45  1  6
 24 46  1  0
 24 47  1  0
M  END
>  <smiles>  (6) 
Cn1nnnc1SCCCN1CCC2(c3cccc(O)c3)CC2C1

>  <score_type>  (6) 
oracle

>  <origin>  (6) 
adg

>  <m_score__min__energy>  (6) 
-9.5700000000000003

>  <m_primary>  (6) 
energy

$$$$
6:0
     RDKit          3D

 33 33  0  0  0  0  0  0  0  0999 V2000
   -6.4400   17.7980  -31.6030 C   0  0  0  0  0  0  0  0  0  0  0  0
   -7.4960   18.7730  -31.8420 C   0  0  0  0  0  0  0  0  0  0  0  0
   -8.3700   19.5730  -32.0600 C   0  0  0  0  0  0  0  0  0  0  0  0
   -9.4300   20.5700  -32.3440 C   0  0  0  0  0  0  0  0  0  0  0  0
   -9.2710   21.7690  -31.4430 C   0  0  0  0  0  0  0  0  0  0  0  0
   -7.9940   22.4360  -31.5700 N   0  0  0  0  0  0  0  0  0  0  0  0
   -7.2240   22.2320  -30.3910 C   0  0  0  0  0  0  0  0  0  0  0  0
   -6.1110   23.2310  -30.1830 C   0  0  0  0  0  0  0  0  0  0  0  0
   -4.8430   22.9060  -30.9000 C   0  0  0  0  0  0  0  0  0  0  0  0
   -3.8150   23.9460  -30.5060 C   0  0  0  0  0  0  0  0  0  0  0  0
   -4.2520   25.2950  -30.6770 N   0  0  0  0  0  0  0  0  0  0  0  0
   -5.5400   25.5720  -30.1140 C   0  0  0  0  0  0  0  0  0  0  0  0
   -6.5630   24.5980  -30.6750 C   0  0  0  0  0  0  0  0  0  0  0  0
   -6.2992   17.6680  -30.5198 H   0  0  0  0  0  0  0  0  0  0  0  0
   -6.7210   16.8350  -32.0544 H   0  0  0  0  0  0  0  0  0  0  0  0
   -5.5025   18.1548  -32.0544 H   0  0  0  0  0  0  0  0  0  0  0  0
   -9.3551   20.8913  -33.3933 H   0  0  0  0  0  0  0  0  0  0  0  0
  -10.4130   20.1112  -32.1615 H   0  0  0  0  0  0  0  0  0  0  0  0
  -10.0641   22.4915  -31.6858 H   0  0  0  0  0  0  0  0  0  0  0  0
   -9.3355   21.4002  -30.4087 H   0  0  0  0  0  0  0  0  0  0  0  0
   -8.1860   23.4540  -31.7130 H   0  0  0  0  0  0  0  0  0  0  0  0
   -7.9009   22.2883  -29.5258 H   0  0  0  0  0  0  0  0  0  0  0  0
   -6.7425   21.2491  -30.5009 H   0  0  0  0  0  0  0  0  0  0  0  0
   -5.8994   23.2091  -29.1038 H   0  0  0  0  0  0  0  0  0  0  0  0
   -4.4937   21.9043  -30.6092 H   0  0  0  0  0  0  0  0  0  0  0  0
   -5.0019   22.9127  -31.9884 H   0  0  0  0  0  0  0  0  0  0  0  0
   -3.5623   23.7970  -29.4459 H   0  0  0  0  0  0  0  0  0  0  0  0
   -2.9519   23.8062  -31.1735 H   0  0  0  0  0  0  0  0  0  0  0  0
   -4.1050   25.6800  -31.6260 H   0  0  0  0  0  0  0  0  0  0  0  0
   -5.4924   25.4631  -29.0204 H   0  0  0  0  0  0  0  0  0  0  0  0
   -5.8365   26.6000  -30.3696 H   0  0  0  0  0  0  0  0  0  0  0  0
   -7.5690   24.8325  -30.2968 H   0  0  0  0  0  0  0  0  0  0  0  0
   -6.6219   24.6450  -31.7724 H   0  0  0  0  0  0  0  0  0  0  0  0
  1  2  1  0
  2  3  3  0
  3  4  1  0
  4  5  1  0
  5  6  1  0
  6  7  1  0
  7  8  1  0
  8  9  1  0
  9 10  1  0
 10 11  1  0
 11 12  1  0
 12 13  1  0
 13  8  1  0
  1 14  1  0
  1 15  1  0
  1 16  1  0
  4 17  1  0
  4 18  1  0
  5 19  1  0
  5 20  1  0
  6 21  1  0
  7 22  1  0
  7 23  1  0
  8 24  1  0
  9 25  1  0
  9 26  1  0
 10 27  1  0
 10 28  1  0
 11 29  1  0
 12 30  1  0
 12 31  1  0
 13 32  1  0
 13 33  1  0
M  END
>  <smiles>  (7) 
CC#CCCNCC1CCNCC1

>  <score_type>  (7) 
oracle

>  <origin>  (7) 
adg

>  <m_score__min__energy>  (7) 
-6.1200000000000001

>  <m_primary>  (7) 
energy

$$$$
7:0
     RDKit          3D

 87 89  0  0  0  0  0  0  0  0999 V2000
   -0.9730   26.7870  -24.1810 C   0  0  0  0  0  0  0  0  0  0  0  0
   -1.2420   25.3650  -24.6710 C   0  0  0  0  0  0  0  0  0  0  0  0
   -1.8380   25.3420  -25.9730 N   0  0  0  0  0  0  0  0  0  0  0  0
   -3.2650   25.3070  -25.9990 C   0  0  0  0  0  0  0  0  0  0  0  0
   -1.2320   26.1780  -26.9330 C   0  0  0  0  0  0  0  0  0  0  0  0
   -0.0340   25.6620  -27.6570 C   0  0  0  0  0  0  0  0  0  0  0  0
   -0.0680   24.5650  -28.3090 O   0  0  0  0  0  0  0  0  0  0  0  0
    0.1360   23.3000  -28.2730 C   0  0  0  0  0  0  0  0  0  0  0  0
   -0.4110   22.4290  -27.1510 C   0  0  0  0  0  0  0  0  0  0  0  0
   -0.2350   21.0970  -27.3870 O   0  0  0  0  0  0  0  0  0  0  0  0
   -1.3020   20.3280  -27.4250 N   0  0  0  0  0  0  0  0  0  0  0  0
   -1.1310   18.9410  -27.5230 C   0  0  0  0  0  0  0  0  0  0  0  0
   -2.5340   20.9430  -27.6590 C   0  0  0  0  0  0  0  0  0  0  0  0
   -3.1110   20.9580  -29.0220 C   0  0  0  0  0  0  0  0  0  0  0  0
   -3.2560   22.1290  -29.7610 N   0  0  0  0  0  0  0  0  0  0  0  0
   -2.1850   22.7130  -30.4570 C   0  0  0  0  0  0  0  0  0  0  0  0
   -4.0170   23.1130  -29.0500 C   0  0  0  0  0  0  0  0  0  0  0  0
   -3.5250   24.5320  -29.2290 C   0  0  0  0  0  0  0  0  0  0  0  0
   -4.2320   25.0910  -30.4430 C   0  0  0  0  0  0  0  0  0  0  0  0
   -5.0510   24.1580  -31.1440 N   0  0  0  0  0  0  0  0  0  0  0  0
   -6.4650   24.2470  -30.8170 C   0  0  0  0  0  0  0  0  0  0  0  0
   -7.1760   23.2920  -31.7320 C   0  0  0  0  0  0  0  0  0  0  0  0
   -6.2410   22.6000  -32.5820 N   0  0  0  0  0  0  0  0  0  0  0  0
   -6.0740   21.2020  -32.6390 C   0  0  0  0  0  0  0  0  0  0  0  0
   -4.7910   20.7130  -32.9180 C   0  0  0  0  0  0  0  0  0  0  0  0
   -3.7710   21.6210  -33.1280 C   0  0  0  0  0  0  0  0  0  0  0  0
   -2.4750   21.1970  -33.4120 C   0  0  0  0  0  0  0  0  0  0  0  0
   -2.2700   19.8420  -33.4720 C   0  0  0  0  0  0  0  0  0  0  0  0
   -3.3010   18.9340  -33.2600 C   0  0  0  0  0  0  0  0  0  0  0  0
   -4.5800   19.3480  -32.9800 C   0  0  0  0  0  0  0  0  0  0  0  0
   -5.5250   18.4320  -32.7910 N   0  0  0  0  0  0  0  0  0  0  0  0
   -5.3700   17.0170  -32.8390 C   0  0  0  0  0  0  0  0  0  0  0  0
   -6.7840   18.8980  -32.5190 C   0  0  0  0  0  0  0  0  0  0  0  0
   -7.8270   17.9870  -32.3290 C   0  0  0  0  0  0  0  0  0  0  0  0
   -9.1190   18.3890  -32.0710 C   0  0  0  0  0  0  0  0  0  0  0  0
   -9.3410   19.7490  -32.0080 C   0  0  0  0  0  0  0  0  0  0  0  0
   -8.3250   20.6600  -32.1930 C   0  0  0  0  0  0  0  0  0  0  0  0
   -7.0460   20.2600  -32.4470 C   0  0  0  0  0  0  0  0  0  0  0  0
   -0.9703   26.8014  -23.0811 H   0  0  0  0  0  0  0  0  0  0  0  0
    0.0050   27.1247  -24.5546 H   0  0  0  0  0  0  0  0  0  0  0  0
   -1.7600   27.4586  -24.5546 H   0  0  0  0  0  0  0  0  0  0  0  0
   -0.2886   24.8176  -24.7087 H   0  0  0  0  0  0  0  0  0  0  0  0
   -1.9476   24.8954  -23.9698 H   0  0  0  0  0  0  0  0  0  0  0  0
   -3.6504   25.2975  -24.9688 H   0  0  0  0  0  0  0  0  0  0  0  0
   -3.6441   26.1961  -26.5241 H   0  0  0  0  0  0  0  0  0  0  0  0
   -3.6000   24.4004  -26.5241 H   0  0  0  0  0  0  0  0  0  0  0  0
   -1.9949   26.4132  -27.6897 H   0  0  0  0  0  0  0  0  0  0  0  0
   -0.8543   27.0327  -26.3526 H   0  0  0  0  0  0  0  0  0  0  0  0
    0.2524   26.4421  -28.3777 H   0  0  0  0  0  0  0  0  0  0  0  0
    0.6552   25.4250  -26.8331 H   0  0  0  0  0  0  0  0  0  0  0  0
   -0.2775   22.8942  -29.2081 H   0  0  0  0  0  0  0  0  0  0  0  0
    1.2212   23.2446  -28.1019 H   0  0  0  0  0  0  0  0  0  0  0  0
    0.1061   22.6925  -26.2166 H   0  0  0  0  0  0  0  0  0  0  0  0
   -1.4930   22.6149  -27.0825 H   0  0  0  0  0  0  0  0  0  0  0  0
   -1.0774   18.5060  -26.5141 H   0  0  0  0  0  0  0  0  0  0  0  0
   -1.9821   18.5041  -28.0659 H   0  0  0  0  0  0  0  0  0  0  0  0
   -0.1993   18.7239  -28.0659 H   0  0  0  0  0  0  0  0  0  0  0  0
   -3.2669   20.4409  -27.0103 H   0  0  0  0  0  0  0  0  0  0  0  0
   -2.3255   22.0051  -27.4630 H   0  0  0  0  0  0  0  0  0  0  0  0
   -2.4803   20.2908  -29.6279 H   0  0  0  0  0  0  0  0  0  0  0  0
   -4.1583   20.6844  -28.8260 H   0  0  0  0  0  0  0  0  0  0  0  0
   -1.4542   23.1115  -29.7379 H   0  0  0  0  0  0  0  0  0  0  0  0
   -1.7010   21.9539  -31.0891 H   0  0  0  0  0  0  0  0  0  0  0  0
   -2.5610   23.5310  -31.0891 H   0  0  0  0  0  0  0  0  0  0  0  0
   -5.0581   23.0629  -29.4015 H   0  0  0  0  0  0  0  0  0  0  0  0
   -3.9139   22.8773  -27.9805 H   0  0  0  0  0  0  0  0  0  0  0  0
   -3.7683   25.1319  -28.3397 H   0  0  0  0  0  0  0  0  0  0  0  0
   -2.4334   24.5568  -29.3624 H   0  0  0  0  0  0  0  0  0  0  0  0
   -4.8693   25.9247  -30.1133 H   0  0  0  0  0  0  0  0  0  0  0  0
   -3.4428   25.3971  -31.1455 H   0  0  0  0  0  0  0  0  0  0  0  0
   -4.7280   23.1860  -31.0750 H   0  0  0  0  0  0  0  0  0  0  0  0
   -6.6308   23.9622  -29.7675 H   0  0  0  0  0  0  0  0  0  0  0  0
   -6.8388   25.2735  -30.9456 H   0  0  0  0  0  0  0  0  0  0  0  0
   -7.7256   22.5557  -31.1271 H   0  0  0  0  0  0  0  0  0  0  0  0
   -7.8696   23.8640  -32.3659 H   0  0  0  0  0  0  0  0  0  0  0  0
   -5.6430   23.1860  -33.2040 H   0  0  0  0  0  0  0  0  0  0  0  0
   -3.9863   22.6982  -33.0699 H   0  0  0  0  0  0  0  0  0  0  0  0
   -1.6569   21.9129  -33.5798 H   0  0  0  0  0  0  0  0  0  0  0  0
   -1.2614   19.4633  -33.6941 H   0  0  0  0  0  0  0  0  0  0  0  0
   -3.0869   17.8566  -33.3180 H   0  0  0  0  0  0  0  0  0  0  0  0
   -5.3263   16.6180  -31.8149 H   0  0  0  0  0  0  0  0  0  0  0  0
   -6.2248   16.5723  -33.3696 H   0  0  0  0  0  0  0  0  0  0  0  0
   -4.4392   16.7679  -33.3696 H   0  0  0  0  0  0  0  0  0  0  0  0
   -7.6082   16.9106  -32.3876 H   0  0  0  0  0  0  0  0  0  0  0  0
   -9.9319   17.6629  -31.9228 H   0  0  0  0  0  0  0  0  0  0  0  0
  -10.3578   20.1160  -31.8043 H   0  0  0  0  0  0  0  0  0  0  0  0
   -8.5501   21.7351  -32.1346 H   0  0  0  0  0  0  0  0  0  0  0  0
  1  2  1  0
  2  3  1  0
  3  4  1  0
  3  5  1  0
  5  6  1  0
  6  7  1  0
  7  8  1  0
  8  9  1  0
  9 10  1  0
 10 11  1  0
 11 12  1  0
 11 13  1  0
 13 14  1  0
 14 15  1  0
 15 16  1  0
 15 17  1  0
 17 18  1  0
 18 19  1  0
 19 20  1  0
 20 21  1  0
 21 22  1  0
 22 23  1  0
 23 24  1  0
 24 25  2  0
 25 26  1  0
 26 27  2  0
 27 28  1  0
 28 29  2  0
 29 30  1  0
 30 31  2  0
 31 32  1  0
 31 33  1  0
 33 34  2  0
 34 35  1  0
 35 36  2  0
 36 37  1  0
 37 38  2  0
 38 24  1  0
 30 25  1  0
 38 33  1  0
  1 39  1  0
  1 40  1  0
  1 41  1  0
  2 42  1  0
  2 43  1  0
  4 44  1  0
  4 45  1  0
  4 46  1  0
  5 47  1  0
  5 48  1  0
  6 49  1  0
  6 50  1  0
  8 51  1  0
  8 52  1  0
  9 53  1  0
  9 54  1  0
 12 55  1  0
 12 56  1  0
 12 57  1  0
 13 58  1  0
 13 59  1  0
 14 60  1  0
 14 61  1  0
 16 62  1  0
 16 63  1  0
 16 64  1  0
 17 65  1  0
 17 66  1  0
 18 67  1  0
 18 68  1  0
 19 69  1  0
 19 70  1  0
 20 71  1  0
 21 72  1  0
 21 73  1  0
 22 74  1  0
 22 75  1  0
 23 76  1  0
 26 77  1  0
 27 78  1  0
 28 79  1  0
 29 80  1  0
 32 81  1  0
 32 82  1  0
 32 83  1  0
 34 84  1  0
 35 85  1  0
 36 86  1  0
 37 87  1  0
M  CHG  1  31   1
M  END
>  <smiles>  (8) 
CCN(C)CCOCCON(C)CCN(C)CCCNCCNc1c2ccccc2[n+](C)c2ccccc12

>  <score_type>  (8) 
oracle

>  <origin>  (8) 
adg

>  <m_score__min__energy>  (8) 
-10.119999999999999

>  <m_primary>  (8) 
energy

$$$$
8:0
     RDKit          3D

 65 66  0  0  0  0  0  0  0  0999 V2000
   -6.4930   23.6880  -32.0440 C   0  0  0  0  0  0  0  0  0  0  0  0
   -6.8780   23.8050  -30.6050 C   0  0  0  0  0  0  0  0  0  0  0  0
   -6.2800   25.0420  -29.9760 C   0  0  0  0  0  0  0  0  0  0  0  0
   -5.1600   25.5450  -30.8420 C   0  0  0  0  0  0  0  0  0  0  0  0
   -3.9320   25.2460  -30.3130 O   0  0  0  0  0  0  0  0  0  0  0  0
   -3.9730   24.5060  -29.1260 C   0  0  0  0  0  0  0  0  0  0  0  0
   -2.5470   24.2200  -28.7170 C   0  0  0  0  0  0  0  0  0  0  0  0
   -1.6840   23.8230  -29.7160 O   0  0  0  0  0  0  0  0  0  0  0  0
   -1.5500   22.6580  -30.3890 C   0  0  0  0  0  0  0  0  0  0  0  0
   -0.5020   21.7750  -30.3360 C   0  0  0  0  0  0  0  0  0  0  0  0
   -0.4600   20.5950  -31.0750 C   0  0  0  0  0  0  0  0  0  0  0  0
   -1.5030   20.2790  -31.9040 C   0  0  0  0  0  0  0  0  0  0  0  0
   -1.6960   19.2290  -32.7220 N   0  0  0  0  0  0  0  0  0  0  0  0
   -2.8750   19.3870  -33.3380 C   0  0  0  0  0  0  0  0  0  0  0  0
   -3.4540   20.5610  -32.9080 C   0  0  0  0  0  0  0  0  0  0  0  0
   -4.7610   21.1380  -33.2930 C   0  0  0  0  0  0  0  0  0  0  0  0
   -5.8620   20.1560  -32.9680 C   0  0  0  0  0  0  0  0  0  0  0  0
   -6.4620   19.6680  -34.1950 N   0  0  0  0  0  0  0  0  0  0  0  0
   -5.7160   18.5370  -34.7050 C   0  0  0  0  0  0  0  0  0  0  0  0
   -6.2490   17.2440  -34.1470 C   0  0  0  0  0  0  0  0  0  0  0  0
   -7.2210   17.2160  -33.2730 O   0  0  0  0  0  0  0  0  0  0  0  0
   -7.2950   17.4350  -31.9700 C   0  0  0  0  0  0  0  0  0  0  0  0
   -8.3440   18.4100  -31.5690 C   0  0  0  0  0  0  0  0  0  0  0  0
   -8.9780   19.1860  -32.5640 N   0  0  0  0  0  0  0  0  0  0  0  0
   -9.2160   20.5540  -32.3760 C   0  0  0  0  0  0  0  0  0  0  0  0
   -8.8090   21.0840  -31.0340 C   0  0  0  0  0  0  0  0  0  0  0  0
   -2.5700   21.1360  -31.9850 C   0  0  0  0  0  0  0  0  0  0  0  0
   -2.6000   22.2970  -31.2490 C   0  0  0  0  0  0  0  0  0  0  0  0
   -5.4429   23.3689  -32.1178 H   0  0  0  0  0  0  0  0  0  0  0  0
   -7.1375   22.9452  -32.5368 H   0  0  0  0  0  0  0  0  0  0  0  0
   -6.6152   24.6638  -32.5368 H   0  0  0  0  0  0  0  0  0  0  0  0
   -7.9741   23.8592  -30.5305 H   0  0  0  0  0  0  0  0  0  0  0  0
   -6.4949   22.9234  -30.0701 H   0  0  0  0  0  0  0  0  0  0  0  0
   -7.0531   25.8194  -29.8862 H   0  0  0  0  0  0  0  0  0  0  0  0
   -5.8924   24.7974  -28.9760 H   0  0  0  0  0  0  0  0  0  0  0  0
   -5.2421   25.0800  -31.8355 H   0  0  0  0  0  0  0  0  0  0  0  0
   -5.2454   26.6397  -30.9085 H   0  0  0  0  0  0  0  0  0  0  0  0
   -4.4797   25.0853  -28.3401 H   0  0  0  0  0  0  0  0  0  0  0  0
   -4.5281   23.5680  -29.2743 H   0  0  0  0  0  0  0  0  0  0  0  0
   -2.1384   25.1377  -28.2688 H   0  0  0  0  0  0  0  0  0  0  0  0
   -2.6095   23.3621  -28.0313 H   0  0  0  0  0  0  0  0  0  0  0  0
    0.3472   22.0102  -29.6775 H   0  0  0  0  0  0  0  0  0  0  0  0
    0.4056   19.9212  -30.9931 H   0  0  0  0  0  0  0  0  0  0  0  0
   -0.9990   18.4470  -32.8180 H   0  0  0  0  0  0  0  0  0  0  0  0
   -3.3110   18.6910  -34.0698 H   0  0  0  0  0  0  0  0  0  0  0  0
   -4.9273   22.0722  -32.7366 H   0  0  0  0  0  0  0  0  0  0  0  0
   -4.7647   21.3479  -34.3728 H   0  0  0  0  0  0  0  0  0  0  0  0
   -5.4420   19.3095  -32.4049 H   0  0  0  0  0  0  0  0  0  0  0  0
   -6.6305   20.6588  -32.3624 H   0  0  0  0  0  0  0  0  0  0  0  0
   -7.4600   19.4060  -34.0940 H   0  0  0  0  0  0  0  0  0  0  0  0
   -5.7983   18.5167  -35.8017 H   0  0  0  0  0  0  0  0  0  0  0  0
   -4.6646   18.6438  -34.3997 H   0  0  0  0  0  0  0  0  0  0  0  0
   -6.5933   16.6548  -35.0097 H   0  0  0  0  0  0  0  0  0  0  0  0
   -5.3962   16.8778  -33.5565 H   0  0  0  0  0  0  0  0  0  0  0  0
   -7.5069   16.4775  -31.4718 H   0  0  0  0  0  0  0  0  0  0  0  0
   -6.3306   17.8707  -31.6698 H   0  0  0  0  0  0  0  0  0  0  0  0
   -9.1321   17.8410  -31.0541 H   0  0  0  0  0  0  0  0  0  0  0  0
   -7.7971   19.1509  -30.9674 H   0  0  0  0  0  0  0  0  0  0  0  0
   -8.4740   19.0350  -33.4680 H   0  0  0  0  0  0  0  0  0  0  0  0
   -8.6584   21.1074  -33.1460 H   0  0  0  0  0  0  0  0  0  0  0  0
  -10.3051   20.6915  -32.4461 H   0  0  0  0  0  0  0  0  0  0  0  0
   -9.2749   20.4773  -30.2435 H   0  0  0  0  0  0  0  0  0  0  0  0
   -7.7144   21.0348  -30.9369 H   0  0  0  0  0  0  0  0  0  0  0  0
   -9.1391   22.1288  -30.9369 H   0  0  0  0  0  0  0  0  0  0  0  0
   -3.4716   22.9623  -31.3363 H   0  0  0  0  0  0  0  0  0  0  0  0
  1  2  1  0
  2  3  1  0
  3  4  1  0
  4  5  1  0
  5  6  1  0
  6  7  1  0
  7  8  1  0
  8  9  1  0
  9 10  2  0
 10 11  1  0
 11 12  2  0
 12 13  1  0
 13 14  1  0
 14 15  2  0
 15 16  1  0
 16 17  1  0
 17 18  1  0
 18 19  1  0
 19 20  1  0
 20 21  1  0
 21 22  1  0
 22 23  1  0
 23 24  1  0
 24 25  1  0
 25 26  1  0
 15 27  1  0
 27 28  2  0
 28  9  1  0
 27 12  1  0
  1 29  1  0
  1 30  1  0
  1 31  1  0
  2 32  1  0
  2 33  1  0
  3 34  1  0
  3 35  1  0
  4 36  1  0
  4 37  1  0
  6 38  1  0
  6 39  1  0
  7 40  1  0
  7 41  1  0
 10 42  1  0
 11 43  1  0
 13 44  1  0
 14 45  1  0
 16 46  1  0
 16 47  1  0
 17 48  1  0
 17 49  1  0
 18 50  1  0
 19 51  1  0
 19 52  1  0
 20 53  1  0
 20 54  1  0
 22 55  1  0
 22 56  1  0
 23 57  1  0
 23 58  1  0
 24 59  1  0
 25 60  1  0
 25 61  1  0
 26 62  1  0
 26 63  1  0
 26 64  1  0
 28 65  1  0
M  END
>  <smiles>  (9) 
CCCCOCCOc1ccc2[nH]cc(CCNCCOCCNCC)c2c1

>  <score_type>  (9) 
oracle

>  <origin>  (9) 
adg

>  <m_score__min__energy>  (9) 
-7.5899999999999999

>  <m_primary>  (9) 
energy

$$$$
10:0
     RDKit          3D

 43 46  0  0  0  0  0  0  0  0999 V2000
   -9.1200   18.2920  -31.7890 C   0  0  0  0  0  0  0  0  0  0  0  0
   -7.7180   18.4870  -32.2340 C   0  0  0  0  0  0  0  0  0  0  0  0
   -6.9190   17.4360  -32.6230 C   0  0  0  0  0  0  0  0  0  0  0  0
   -5.6550   17.6150  -33.0240 N   0  0  0  0  0  0  0  0  0  0  0  0
   -5.1800   18.8720  -33.0360 C   0  0  0  0  0  0  0  0  0  0  0  0
   -5.9420   19.9690  -32.6530 C   0  0  0  0  0  0  0  0  0  0  0  0
   -7.2440   19.7960  -32.2390 C   0  0  0  0  0  0  0  0  0  0  0  0
   -5.4320   21.2580  -32.6730 C   0  0  0  0  0  0  0  0  0  0  0  0
   -6.2250   22.4210  -32.2710 C   0  0  0  0  0  0  0  0  0  0  0  0
   -5.3750   23.4970  -31.7310 N   0  0  0  0  0  0  0  0  0  0  0  0
   -6.2170   24.4760  -31.0430 C   0  0  0  0  0  0  0  0  0  0  0  0
   -5.2990   25.6720  -30.7760 C   0  0  0  0  0  0  0  0  0  0  0  0
   -3.9190   25.3010  -30.7570 N   0  0  0  0  0  0  0  0  0  0  0  0
   -3.6230   24.0240  -30.1870 C   0  0  0  0  0  0  0  0  0  0  0  0
   -4.5430   22.9380  -30.6550 C   0  0  0  0  0  0  0  0  0  0  0  0
   -4.1170   21.3860  -33.0960 C   0  0  0  0  0  0  0  0  0  0  0  0
   -3.3470   20.3060  -33.4790 C   0  0  0  0  0  0  0  0  0  0  0  0
   -2.0540   20.5810  -33.8790 C   0  0  0  0  0  0  0  0  0  0  0  0
   -1.2390   19.5150  -34.2740 C   0  0  0  0  0  0  0  0  0  0  0  0
   -1.7680   18.2290  -34.2490 C   0  0  0  0  0  0  0  0  0  0  0  0
   -3.0790   17.9920  -33.8390 C   0  0  0  0  0  0  0  0  0  0  0  0
   -3.8730   19.0500  -33.4510 C   0  0  0  0  0  0  0  0  0  0  0  0
   -9.1584   18.2867  -30.6897 H   0  0  0  0  0  0  0  0  0  0  0  0
   -9.7442   19.1120  -32.1737 H   0  0  0  0  0  0  0  0  0  0  0  0
   -9.4968   17.3328  -32.1737 H   0  0  0  0  0  0  0  0  0  0  0  0
   -7.3325   16.4169  -32.6036 H   0  0  0  0  0  0  0  0  0  0  0  0
   -7.8734   20.6435  -31.9300 H   0  0  0  0  0  0  0  0  0  0  0  0
   -6.7694   22.8021  -33.1476 H   0  0  0  0  0  0  0  0  0  0  0  0
   -6.9230   22.1052  -31.4817 H   0  0  0  0  0  0  0  0  0  0  0  0
   -7.0633   24.7731  -31.6798 H   0  0  0  0  0  0  0  0  0  0  0  0
   -6.6472   24.0708  -30.1153 H   0  0  0  0  0  0  0  0  0  0  0  0
   -5.4535   26.4205  -31.5671 H   0  0  0  0  0  0  0  0  0  0  0  0
   -5.5529   26.0774  -29.7854 H   0  0  0  0  0  0  0  0  0  0  0  0
   -3.3680   25.5260  -31.5940 H   0  0  0  0  0  0  0  0  0  0  0  0
   -2.5930   23.7504  -30.4595 H   0  0  0  0  0  0  0  0  0  0  0  0
   -3.7538   24.1150  -29.0986 H   0  0  0  0  0  0  0  0  0  0  0  0
   -3.9577   22.0881  -31.0358 H   0  0  0  0  0  0  0  0  0  0  0  0
   -5.1710   22.5784  -29.8266 H   0  0  0  0  0  0  0  0  0  0  0  0
   -3.6690   22.3901  -33.1276 H   0  0  0  0  0  0  0  0  0  0  0  0
   -1.6743   21.6134  -33.8868 H   0  0  0  0  0  0  0  0  0  0  0  0
   -0.2023   19.6900  -34.5974 H   0  0  0  0  0  0  0  0  0  0  0  0
   -1.1390   17.3816  -34.5591 H   0  0  0  0  0  0  0  0  0  0  0  0
   -3.4776   16.9669  -33.8251 H   0  0  0  0  0  0  0  0  0  0  0  0
  1  2  1  0
  2  3  2  0
  3  4  1  0
  4  5  2  0
  5  6  1  0
  6  7  2  0
  6  8  1  0
  8  9  1  0
  9 10  1  0
 10 11  1  0
 11 12  1  0
 12 13  1  0
 13 14  1  0
 14 15  1  0
  8 16  2  0
 16 17  1  0
 17 18  2  0
 18 19  1  0
 19 20  2  0
 20 21  1  0
 21 22  2  0
  7  2  1  0
 15 10  1  0
 22 17  1  0
 22  5  1  0
  1 23  1  0
  1 24  1  0
  1 25  1  0
  3 26  1  0
  7 27  1  0
  9 28  1  0
  9 29  1  0
 11 30  1  0
 11 31  1  0
 12 32  1  0
 12 33  1  0
 13 34  1  0
 14 35  1  0
 14 36  1  0
 15 37  1  0
 15 38  1  0
 16 39  1  0
 18 40  1  0
 19 41  1  0
 20 42  1  0
 21 43  1  0
M  END
>  <smiles>  (10) 
Cc1cnc2c(c1)c(CN1CCNCC1)cc1ccccc12

>  <score_type>  (10) 
oracle

>  <origin>  (10) 
adg

>  <m_score__min__energy>  (10) 
-9.7300000000000004

>  <m_primary>  (10) 
energy

$$$$
11:0
     RDKit          3D

 33 34  0  0  0  0  0  0  0  0999 V2000
   -3.5480   21.9150  -32.7320 C   0  0  0  0  0  0  0  0  0  0  0  0
   -3.5230   22.6810  -31.4310 C   0  0  0  0  0  0  0  0  0  0  0  0
   -4.8390   23.1860  -31.0530 N   0  0  0  0  0  0  0  0  0  0  0  0
   -5.9040   22.4020  -30.9870 N   0  0  0  0  0  0  0  0  0  0  0  0
   -7.1030   22.9080  -30.6330 C   0  0  0  0  0  0  0  0  0  0  0  0
   -8.3360   22.0820  -30.5410 C   0  0  0  0  0  0  0  0  0  0  0  0
   -8.7590   21.6780  -31.9510 C   0  0  0  0  0  0  0  0  0  0  0  0
   -8.1360   20.3530  -32.2970 C   0  0  0  0  0  0  0  0  0  0  0  0
   -8.6550   19.1610  -31.8370 C   0  0  0  0  0  0  0  0  0  0  0  0
   -7.9740   18.0090  -32.2370 C   0  0  0  0  0  0  0  0  0  0  0  0
   -6.8620   18.0650  -33.0360 C   0  0  0  0  0  0  0  0  0  0  0  0
   -6.3570   19.2750  -33.4890 C   0  0  0  0  0  0  0  0  0  0  0  0
   -7.0120   20.4210  -33.1060 C   0  0  0  0  0  0  0  0  0  0  0  0
   -7.1900   24.2730  -30.3380 C   0  0  0  0  0  0  0  0  0  0  0  0
   -6.0930   25.0960  -30.4020 C   0  0  0  0  0  0  0  0  0  0  0  0
   -4.8940   24.5140  -30.7720 C   0  0  0  0  0  0  0  0  0  0  0  0
   -3.8810   25.2550  -30.8340 O   0  0  0  0  0  0  0  0  0  0  0  0
   -3.5832   20.8359  -32.5215 H   0  0  0  0  0  0  0  0  0  0  0  0
   -4.4372   22.2048  -33.3111 H   0  0  0  0  0  0  0  0  0  0  0  0
   -2.6418   22.1462  -33.3111 H   0  0  0  0  0  0  0  0  0  0  0  0
   -3.1598   22.0134  -30.6358 H   0  0  0  0  0  0  0  0  0  0  0  0
   -2.8594   23.5477  -31.5668 H   0  0  0  0  0  0  0  0  0  0  0  0
   -8.1347   21.1814  -29.9423 H   0  0  0  0  0  0  0  0  0  0  0  0
   -9.1391   22.6587  -30.0589 H   0  0  0  0  0  0  0  0  0  0  0  0
   -9.8547   21.5915  -31.9952 H   0  0  0  0  0  0  0  0  0  0  0  0
   -8.4240   22.4412  -32.6689 H   0  0  0  0  0  0  0  0  0  0  0  0
   -9.5481   19.1201  -31.1961 H   0  0  0  0  0  0  0  0  0  0  0  0
   -8.3410   17.0280  -31.9008 H   0  0  0  0  0  0  0  0  0  0  0  0
   -6.3590   17.1302  -33.3244 H   0  0  0  0  0  0  0  0  0  0  0  0
   -5.4649   19.3158  -34.1313 H   0  0  0  0  0  0  0  0  0  0  0  0
   -6.6415   21.4000  -33.4440 H   0  0  0  0  0  0  0  0  0  0  0  0
   -8.1623   24.6976  -30.0474 H   0  0  0  0  0  0  0  0  0  0  0  0
   -6.1643   26.1688  -30.1697 H   0  0  0  0  0  0  0  0  0  0  0  0
  1  2  1  0
  2  3  1  0
  3  4  1  0
  4  5  2  0
  5  6  1  0
  6  7  1  0
  7  8  1  0
  8  9  2  0
  9 10  1  0
 10 11  2  0
 11 12  1  0
 12 13  2  0
  5 14  1  0
 14 15  2  0
 15 16  1  0
 16 17  2  0
 16  3  1  0
 13  8  1  0
  1 18  1  0
  1 19  1  0
  1 20  1  0
  2 21  1  0
  2 22  1  0
  6 23  1  0
  6 24  1  0
  7 25  1  0
  7 26  1  0
  9 27  1  0
 10 28  1  0
 11 29  1  0
 12 30  1  0
 13 31  1  0
 14 32  1  0
 15 33  1  0
M  END
>  <smiles>  (11) 
CCn1nc(CCc2ccccc2)ccc1=O

>  <score_type>  (11) 
oracle

>  <origin>  (11) 
adg

>  <m_score__min__energy>  (11) 
-7.6500000000000004

>  <m_primary>  (11) 
energy

$$$$
13:0
     RDKit          3D

 70 73  0  0  1  0  0  0  0  0999 V2000
   -6.5000   25.3280  -29.7220 C   0  0  0  0  0  0  0  0  0  0  0  0
   -5.0590   24.9520  -29.6150 C   0  0  0  0  0  0  0  0  0  0  0  0
   -4.4760   24.5210  -30.8480 N   0  0  0  0  0  0  0  0  0  0  0  0
   -5.3670   23.8790  -31.7610 C   0  0  0  0  0  0  0  0  0  0  0  0
   -5.3940   22.3640  -31.6250 C   0  0  0  0  0  0  0  0  0  0  0  0
   -5.1880   21.7340  -32.9380 N   0  0  0  0  0  0  0  0  0  0  0  0
   -5.2860   20.3330  -33.0590 C   0  0  0  0  0  0  0  0  0  0  0  0
   -6.5470   19.8010  -32.7810 C   0  0  0  0  0  0  0  0  0  0  0  0
   -7.5710   20.6690  -32.3830 C   0  0  0  0  0  0  0  0  0  0  0  0
   -8.8410   20.2440  -32.0890 C   0  0  0  0  0  0  0  0  0  0  0  0
   -9.1200   18.9060  -32.1890 C   0  0  0  0  0  0  0  0  0  0  0  0
   -8.1070   18.0260  -32.5860 C   0  0  0  0  0  0  0  0  0  0  0  0
   -6.8450   18.4770  -32.8730 C   0  0  0  0  0  0  0  0  0  0  0  0
   -5.8710   17.6350  -33.2550 N   0  0  0  0  0  0  0  0  0  0  0  0
   -6.0690   16.2130  -33.3720 C   0  0  0  0  0  0  0  0  0  0  0  0
   -4.6330   18.1060  -33.5340 C   0  0  0  0  0  0  0  0  0  0  0  0
   -3.6730   17.1960  -33.9310 C   0  0  0  0  0  0  0  0  0  0  0  0
   -2.4100   17.6470  -34.2290 C   0  0  0  0  0  0  0  0  0  0  0  0
   -2.1250   18.9850  -34.1270 C   0  0  0  0  0  0  0  0  0  0  0  0
   -3.0680   19.9430  -33.7270 C   0  0  0  0  0  0  0  0  0  0  0  0
   -2.6200   21.2600  -33.5980 N   0  0  0  0  0  0  0  0  0  0  0  0
   -1.7770   21.5820  -32.4180 C   0  0  0  0  0  0  0  0  0  0  0  0
   -2.5230   21.1810  -31.2010 C   0  0  0  0  0  0  0  0  0  0  0  0
   -2.5300   22.0740  -30.1070 N   0  0  0  0  0  0  0  0  0  0  0  0
   -3.5460   21.8390  -29.1380 C   0  0  0  0  0  0  0  0  0  0  0  0
   -2.8860   21.4650  -27.8380 C   0  0  0  0  0  0  0  0  0  0  0  0
   -1.4490   21.8670  -27.9870 C   0  0  0  0  0  0  0  0  0  0  0  0
   -1.2760   22.2590  -29.4110 C   0  0  2  0  0  0  0  0  0  0  0  0
   -0.9360   23.7240  -29.4890 C   0  0  0  0  0  0  0  0  0  0  0  0
   -2.0480   24.4930  -29.3050 O   0  0  0  0  0  0  0  0  0  0  0  0
   -2.1790   24.9660  -28.0220 C   0  0  0  0  0  0  0  0  0  0  0  0
   -4.3160   19.4650  -33.4410 C   0  0  0  0  0  0  0  0  0  0  0  0
   -6.9258   25.4391  -28.7139 H   0  0  0  0  0  0  0  0  0  0  0  0
   -6.5912   26.2800  -30.2655 H   0  0  0  0  0  0  0  0  0  0  0  0
   -7.0447   24.5419  -30.2655 H   0  0  0  0  0  0  0  0  0  0  0  0
   -4.4990   25.8278  -29.2554 H   0  0  0  0  0  0  0  0  0  0  0  0
   -5.0037   24.0994  -28.9222 H   0  0  0  0  0  0  0  0  0  0  0  0
   -3.6910   23.8830  -30.6360 H   0  0  0  0  0  0  0  0  0  0  0  0
   -6.3826   24.2620  -31.5825 H   0  0  0  0  0  0  0  0  0  0  0  0
   -5.0059   24.1046  -32.7753 H   0  0  0  0  0  0  0  0  0  0  0  0
   -4.5945   22.0461  -30.9397 H   0  0  0  0  0  0  0  0  0  0  0  0
   -6.3725   22.0560  -31.2279 H   0  0  0  0  0  0  0  0  0  0  0  0
   -4.9350   22.3130  -33.7910 H   0  0  0  0  0  0  0  0  0  0  0  0
   -7.3460   21.7427  -32.3024 H   0  0  0  0  0  0  0  0  0  0  0  0
   -9.6172   20.9597  -31.7803 H   0  0  0  0  0  0  0  0  0  0  0  0
  -10.1275   18.5285  -31.9601 H   0  0  0  0  0  0  0  0  0  0  0  0
   -8.3278   16.9516  -32.6693 H   0  0  0  0  0  0  0  0  0  0  0  0
   -6.1310   15.7676  -32.3681 H   0  0  0  0  0  0  0  0  0  0  0  0
   -7.0032   16.0166  -33.9186 H   0  0  0  0  0  0  0  0  0  0  0  0
   -5.2240   15.7689  -33.9186 H   0  0  0  0  0  0  0  0  0  0  0  0
   -3.9160   16.1259  -34.0075 H   0  0  0  0  0  0  0  0  0  0  0  0
   -1.6311   16.9387  -34.5478 H   0  0  0  0  0  0  0  0  0  0  0  0
   -1.1070   19.3231  -34.3709 H   0  0  0  0  0  0  0  0  0  0  0  0
   -2.7930   22.0860  -34.1720 H   0  0  0  0  0  0  0  0  0  0  0  0
   -0.8283   21.0280  -32.4742 H   0  0  0  0  0  0  0  0  0  0  0  0
   -1.5509   22.6582  -32.3912 H   0  0  0  0  0  0  0  0  0  0  0  0
   -3.5697   21.0173  -31.4972 H   0  0  0  0  0  0  0  0  0  0  0  0
   -1.9895   20.2936  -30.8298 H   0  0  0  0  0  0  0  0  0  0  0  0
   -4.1465   22.7504  -29.0010 H   0  0  0  0  0  0  0  0  0  0  0  0
   -4.2072   21.0264  -29.4734 H   0  0  0  0  0  0  0  0  0  0  0  0
   -3.3516   22.0061  -27.0010 H   0  0  0  0  0  0  0  0  0  0  0  0
   -2.9888   20.3912  -27.6227 H   0  0  0  0  0  0  0  0  0  0  0  0
   -1.2197   22.7163  -27.3267 H   0  0  0  0  0  0  0  0  0  0  0  0
   -0.7712   21.0457  -27.7111 H   0  0  0  0  0  0  0  0  0  0  0  0
   -0.4785   21.6472  -29.8578 H   0  0  0  0  0  0  0  0  0  0  0  0
   -0.1988   23.9645  -28.7088 H   0  0  0  0  0  0  0  0  0  0  0  0
   -0.5235   23.9361  -30.4864 H   0  0  0  0  0  0  0  0  0  0  0  0
   -1.9554   24.1588  -27.3090 H   0  0  0  0  0  0  0  0  0  0  0  0
   -1.4777   25.7987  -27.8648 H   0  0  0  0  0  0  0  0  0  0  0  0
   -3.2088   25.3193  -27.8648 H   0  0  0  0  0  0  0  0  0  0  0  0
  1  2  1  0
  2  3  1  0
  3  4  1  0
  4  5  1  0
  5  6  1  0
  6  7  1  0
  7  8  2  0
  8  9  1  0
  9 10  2  0
 10 11  1  0
 11 12  2  0
 12 13  1  0
 13 14  2  0
 14 15  1  0
 14 16  1  0
 16 17  2  0
 17 18  1  0
 18 19  2  0
 19 20  1  0
 20 21  1  0
 21 22  1  0
 22 23  1  0
 23 24  1  0
 24 25  1  0
 25 26  1  0
 26 27  1  0
 27 28  1  0
 28 29  1  0
 29 30  1  0
 30 31  1  0
 20 32  2  0
 32  7  1  0
 13  8  1  0
 32 16  1  0
 28 24  1  0
  1 33  1  0
  1 34  1  0
  1 35  1  0
  2 36  1  0
  2 37  1  0
  3 38  1  0
  4 39  1  0
  4 40  1  0
  5 41  1  0
  5 42  1  0
  6 43  1  0
  9 44  1  0
 10 45  1  0
 11 46  1  0
 12 47  1  0
 15 48  1  0
 15 49  1  0
 15 50  1  0
 17 51  1  0
 18 52  1  0
 19 53  1  0
 21 54  1  0
 22 55  1  0
 22 56  1  0
 23 57  1  0
 23 58  1  0
 25 59  1  0
 25 60  1  0
 26 61  1  0
 26 62  1  0
 27 63  1  0
 27 64  1  0
 28 65  1  6
 29 66  1  0
 29 67  1  0
 31 68  1  0
 31 69  1  0
 31 70  1  0
M  CHG  1  14   1
M  END
>  <smiles>  (12) 
CCNCCNc1c2ccccc2[n+](C)c2cccc(NCCN3CCCC3COC)c12

>  <score_type>  (12) 
oracle

>  <origin>  (12) 
adg

>  <m_score__min__energy>  (12) 
-10.359999999999999

>  <m_primary>  (12) 
energy

$$$$
14:0
     RDKit          3D

 77 79  0  0  0  0  0  0  0  0999 V2000
   -5.5190   23.8300  -31.7890 C   0  0  0  0  0  0  0  0  0  0  0  0
   -4.7250   24.6020  -30.8510 N   0  0  0  0  0  0  0  0  0  0  0  0
   -5.5490   25.6720  -30.2790 C   0  0  0  0  0  0  0  0  0  0  0  0
   -4.3150   23.7180  -29.7480 C   0  0  0  0  0  0  0  0  0  0  0  0
   -4.1430   24.5170  -28.4990 C   0  0  0  0  0  0  0  0  0  0  0  0
   -3.3340   23.8750  -27.5720 O   0  0  0  0  0  0  0  0  0  0  0  0
   -2.2940   24.6440  -27.1140 C   0  0  0  0  0  0  0  0  0  0  0  0
   -1.6480   25.2950  -28.3510 C   0  0  0  0  0  0  0  0  0  0  0  0
   -0.4860   24.6030  -28.6120 O   0  0  0  0  0  0  0  0  0  0  0  0
   -0.5860   23.2750  -28.2810 C   0  0  0  0  0  0  0  0  0  0  0  0
   -1.3420   22.4800  -29.3130 C   0  0  0  0  0  0  0  0  0  0  0  0
   -1.9580   21.2650  -28.6460 C   0  0  0  0  0  0  0  0  0  0  0  0
   -1.7120   21.2850  -27.1280 C   0  0  0  0  0  0  0  0  0  0  0  0
   -1.2780   19.9010  -26.7580 C   0  0  0  0  0  0  0  0  0  0  0  0
   -1.0000   18.9780  -27.8770 C   0  0  0  0  0  0  0  0  0  0  0  0
    0.3490   18.8160  -28.4330 C   0  0  0  0  0  0  0  0  0  0  0  0
    0.5530   18.5560  -29.8710 C   0  0  0  0  0  0  0  0  0  0  0  0
   -0.4830   19.2390  -30.7600 C   0  0  0  0  0  0  0  0  0  0  0  0
    0.2250   20.3330  -31.5180 C   0  0  0  0  0  0  0  0  0  0  0  0
   -0.7040   21.3130  -31.9110 O   0  0  0  0  0  0  0  0  0  0  0  0
   -1.4030   21.1930  -33.0810 C   0  0  0  0  0  0  0  0  0  0  0  0
   -0.9340   21.5520  -34.1990 O   0  0  0  0  0  0  0  0  0  0  0  0
   -2.7190   20.6390  -33.0560 C   0  0  0  0  0  0  0  0  0  0  0  0
   -3.9280   21.0370  -32.5400 C   0  0  0  0  0  0  0  0  0  0  0  0
   -5.0000   20.2580  -32.7000 C   0  0  0  0  0  0  0  0  0  0  0  0
   -6.3740   20.2690  -32.3560 C   0  0  0  0  0  0  0  0  0  0  0  0
   -7.1870   21.1430  -31.6790 C   0  0  0  0  0  0  0  0  0  0  0  0
   -8.5310   20.9190  -31.4710 C   0  0  0  0  0  0  0  0  0  0  0  0
   -9.0550   19.7520  -31.9800 C   0  0  0  0  0  0  0  0  0  0  0  0
   -8.3010   18.8270  -32.6700 C   0  0  0  0  0  0  0  0  0  0  0  0
   -6.9590   19.1170  -32.8420 C   0  0  0  0  0  0  0  0  0  0  0  0
   -6.0270   18.3960  -33.4640 N   0  0  0  0  0  0  0  0  0  0  0  0
   -6.2040   17.1220  -34.1160 C   0  0  0  0  0  0  0  0  0  0  0  0
   -4.8750   19.0730  -33.3780 C   0  0  0  0  0  0  0  0  0  0  0  0
   -3.1240   18.9830  -33.8590 S   0  0  0  0  0  0  0  0  0  0  0  0
   -6.2002   23.1677  -31.2346 H   0  0  0  0  0  0  0  0  0  0  0  0
   -6.1054   24.5125  -32.4217 H   0  0  0  0  0  0  0  0  0  0  0  0
   -4.8532   23.2246  -32.4217 H   0  0  0  0  0  0  0  0  0  0  0  0
   -5.5082   25.6190  -29.1810 H   0  0  0  0  0  0  0  0  0  0  0  0
   -5.1668   26.6477  -30.6135 H   0  0  0  0  0  0  0  0  0  0  0  0
   -6.5900   25.5517  -30.6135 H   0  0  0  0  0  0  0  0  0  0  0  0
   -5.0872   22.9512  -29.5879 H   0  0  0  0  0  0  0  0  0  0  0  0
   -3.3610   23.2343  -30.0048 H   0  0  0  0  0  0  0  0  0  0  0  0
   -3.6869   25.4841  -28.7574 H   0  0  0  0  0  0  0  0  0  0  0  0
   -5.1359   24.6506  -28.0448 H   0  0  0  0  0  0  0  0  0  0  0  0
   -2.6684   25.4193  -26.4294 H   0  0  0  0  0  0  0  0  0  0  0  0
   -1.5644   24.0344  -26.5608 H   0  0  0  0  0  0  0  0  0  0  0  0
   -2.3291   25.2273  -29.2121 H   0  0  0  0  0  0  0  0  0  0  0  0
   -1.4376   26.3592  -28.1687 H   0  0  0  0  0  0  0  0  0  0  0  0
    0.4273   22.8575  -28.1865 H   0  0  0  0  0  0  0  0  0  0  0  0
   -1.1408   23.2070  -27.3336 H   0  0  0  0  0  0  0  0  0  0  0  0
   -2.1362   23.1033  -29.7498 H   0  0  0  0  0  0  0  0  0  0  0  0
   -0.6560   22.1585  -30.1105 H   0  0  0  0  0  0  0  0  0  0  0  0
   -3.0417   21.2619  -28.8347 H   0  0  0  0  0  0  0  0  0  0  0  0
   -1.4911   20.3612  -29.0646 H   0  0  0  0  0  0  0  0  0  0  0  0
   -0.9243   22.0113  -26.8787 H   0  0  0  0  0  0  0  0  0  0  0  0
   -2.6176   21.5819  -26.5786 H   0  0  0  0  0  0  0  0  0  0  0  0
   -0.3592   19.9873  -26.1594 H   0  0  0  0  0  0  0  0  0  0  0  0
   -2.1318   19.4609  -26.2219 H   0  0  0  0  0  0  0  0  0  0  0  0
   -1.3161   17.9800  -27.5392 H   0  0  0  0  0  0  0  0  0  0  0  0
   -1.5381   19.4546  -28.7096 H   0  0  0  0  0  0  0  0  0  0  0  0
    0.8955   19.7424  -28.2023 H   0  0  0  0  0  0  0  0  0  0  0  0
    0.6913   17.8800  -27.9674 H   0  0  0  0  0  0  0  0  0  0  0  0
    1.5513   18.9213  -30.1539 H   0  0  0  0  0  0  0  0  0  0  0  0
    0.4502   17.4716  -30.0242 H   0  0  0  0  0  0  0  0  0  0  0  0
   -0.9128   18.5112  -31.4640 H   0  0  0  0  0  0  0  0  0  0  0  0
   -1.3022   19.6535  -30.1541 H   0  0  0  0  0  0  0  0  0  0  0  0
    0.9886   20.7908  -30.8719 H   0  0  0  0  0  0  0  0  0  0  0  0
    0.7053   19.9064  -32.4109 H   0  0  0  0  0  0  0  0  0  0  0  0
   -4.0123   21.9909  -31.9988 H   0  0  0  0  0  0  0  0  0  0  0  0
   -6.7440   22.0685  -31.2826 H   0  0  0  0  0  0  0  0  0  0  0  0
   -9.1563   21.6396  -30.9234 H   0  0  0  0  0  0  0  0  0  0  0  0
  -10.1254   19.5482  -31.8290 H   0  0  0  0  0  0  0  0  0  0  0  0
   -8.7454   17.9017  -33.0653 H   0  0  0  0  0  0  0  0  0  0  0  0
   -6.3135   16.3336  -33.3567 H   0  0  0  0  0  0  0  0  0  0  0  0
   -7.1063   17.1539  -34.7443 H   0  0  0  0  0  0  0  0  0  0  0  0
   -5.3271   16.9067  -34.7443 H   0  0  0  0  0  0  0  0  0  0  0  0
  1  2  1  0
  2  3  1  0
  2  4  1  0
  4  5  1  0
  5  6  1  0
  6  7  1  0
  7  8  1  0
  8  9  1  0
  9 10  1  0
 10 11  1  0
 11 12  1  0
 12 13  1  0
 13 14  1  0
 14 15  1  0
 15 16  1  0
 16 17  1  0
 17 18  1  0
 18 19  1  0
 19 20  1  0
 20 21  1  0
 21 22  2  0
 21 23  1  0
 23 24  2  0
 24 25  1  0
 25 26  1  0
 26 27  2  0
 27 28  1  0
 28 29  2  0
 29 30  1  0
 30 31  2  0
 31 32  1  0
 32 33  1  0
 32 34  1  0
 34 35  1  0
 35 23  1  0
 34 25  2  0
 31 26  1  0
  1 36  1  0
  1 37  1  0
  1 38  1  0
  3 39  1  0
  3 40  1  0
  3 41  1  0
  4 42  1  0
  4 43  1  0
  5 44  1  0
  5 45  1  0
  7 46  1  0
  7 47  1  0
  8 48  1  0
  8 49  1  0
 10 50  1  0
 10 51  1  0
 11 52  1  0
 11 53  1  0
 12 54  1  0
 12 55  1  0
 13 56  1  0
 13 57  1  0
 14 58  1  0
 14 59  1  0
 15 60  1  0
 15 61  1  0
 16 62  1  0
 16 63  1  0
 17 64  1  0
 17 65  1  0
 18 66  1  0
 18 67  1  0
 19 68  1  0
 19 69  1  0
 24 70  1  0
 27 71  1  0
 28 72  1  0
 29 73  1  0
 30 74  1  0
 33 75  1  0
 33 76  1  0
 33 77  1  0
M  END
>  <smiles>  (13) 
CN(C)CCOCCOCCCCCCCCCCOC(=O)c1cc2c3ccccc3n(C)c2s1

>  <score_type>  (13) 
oracle

>  <origin>  (13) 
adg

>  <m_score__min__energy>  (13) 
-10.24

>  <m_primary>  (13) 
energy

$$$$
15:0
     RDKit          3D

 49 51  0  0  0  0  0  0  0  0999 V2000
   -6.4820   25.2970  -29.7180 C   0  0  0  0  0  0  0  0  0  0  0  0
   -5.4040   26.0520  -30.4900 C   0  0  0  0  0  0  0  0  0  0  0  0
   -4.2180   25.2580  -30.7020 N   0  0  0  0  0  0  0  0  0  0  0  0
   -4.4680   23.8760  -30.6220 C   0  0  0  0  0  0  0  0  0  0  0  0
   -3.7240   22.9920  -31.5970 C   0  0  0  0  0  0  0  0  0  0  0  0
   -4.5620   22.5520  -32.6890 N   0  0  0  0  0  0  0  0  0  0  0  0
   -5.3370   21.3790  -32.7190 C   0  0  0  0  0  0  0  0  0  0  0  0
   -6.6900   21.5830  -32.3450 C   0  0  0  0  0  0  0  0  0  0  0  0
   -7.1130   22.8740  -32.0050 C   0  0  0  0  0  0  0  0  0  0  0  0
   -8.4150   23.1540  -31.6510 C   0  0  0  0  0  0  0  0  0  0  0  0
   -9.3110   22.1170  -31.6380 C   0  0  0  0  0  0  0  0  0  0  0  0
   -8.8950   20.8300  -31.9760 C   0  0  0  0  0  0  0  0  0  0  0  0
   -7.5880   20.5430  -32.3300 C   0  0  0  0  0  0  0  0  0  0  0  0
   -7.2010   19.2800  -32.6760 N   0  0  0  0  0  0  0  0  0  0  0  0
   -8.1830   18.2430  -32.5370 C   0  0  0  0  0  0  0  0  0  0  0  0
   -5.9150   19.0650  -33.0420 C   0  0  0  0  0  0  0  0  0  0  0  0
   -5.5540   17.7730  -33.4250 C   0  0  0  0  0  0  0  0  0  0  0  0
   -6.4450   16.6340  -33.4910 C   0  0  0  0  0  0  0  0  0  0  0  0
   -4.2210   17.5860  -33.8210 C   0  0  0  0  0  0  0  0  0  0  0  0
   -3.3120   18.6140  -33.8350 C   0  0  0  0  0  0  0  0  0  0  0  0
   -3.6730   19.9070  -33.4570 C   0  0  0  0  0  0  0  0  0  0  0  0
   -2.6070   20.9180  -33.5090 C   0  0  0  0  0  0  0  0  0  0  0  0
   -4.9720   20.1140  -33.0660 C   0  0  0  0  0  0  0  0  0  0  0  0
   -6.3113   25.4166  -28.6379 H   0  0  0  0  0  0  0  0  0  0  0  0
   -7.4712   25.7007  -29.9798 H   0  0  0  0  0  0  0  0  0  0  0  0
   -6.4407   24.2294  -29.9798 H   0  0  0  0  0  0  0  0  0  0  0  0
   -5.8113   26.3460  -31.4686 H   0  0  0  0  0  0  0  0  0  0  0  0
   -5.1166   26.9291  -29.8917 H   0  0  0  0  0  0  0  0  0  0  0  0
   -3.7740   25.5740  -31.5870 H   0  0  0  0  0  0  0  0  0  0  0  0
   -4.2029   23.5480  -29.6061 H   0  0  0  0  0  0  0  0  0  0  0  0
   -5.5308   23.7599  -30.8808 H   0  0  0  0  0  0  0  0  0  0  0  0
   -2.8742   23.5564  -32.0086 H   0  0  0  0  0  0  0  0  0  0  0  0
   -3.3867   22.0986  -31.0510 H   0  0  0  0  0  0  0  0  0  0  0  0
   -4.6230   23.2140  -33.5270 H   0  0  0  0  0  0  0  0  0  0  0  0
   -6.3797   23.6938  -32.0211 H   0  0  0  0  0  0  0  0  0  0  0  0
   -8.7249   24.1760  -31.3876 H   0  0  0  0  0  0  0  0  0  0  0  0
  -10.3595   22.3004  -31.3606 H   0  0  0  0  0  0  0  0  0  0  0  0
   -9.6318   20.0134  -31.9608 H   0  0  0  0  0  0  0  0  0  0  0  0
   -8.3649   18.0510  -31.4693 H   0  0  0  0  0  0  0  0  0  0  0  0
   -9.1206   18.5591  -33.0176 H   0  0  0  0  0  0  0  0  0  0  0  0
   -7.8163   17.3240  -33.0176 H   0  0  0  0  0  0  0  0  0  0  0  0
   -6.6998   16.3083  -32.4717 H   0  0  0  0  0  0  0  0  0  0  0  0
   -7.3635   16.9175  -34.0257 H   0  0  0  0  0  0  0  0  0  0  0  0
   -5.9487   15.8107  -34.0257 H   0  0  0  0  0  0  0  0  0  0  0  0
   -3.8938   16.5824  -34.1304 H   0  0  0  0  0  0  0  0  0  0  0  0
   -2.2775   18.4141  -34.1508 H   0  0  0  0  0  0  0  0  0  0  0  0
   -2.3145   21.1954  -32.4855 H   0  0  0  0  0  0  0  0  0  0  0  0
   -1.7364   20.5059  -34.0402 H   0  0  0  0  0  0  0  0  0  0  0  0
   -2.9725   21.8092  -34.0402 H   0  0  0  0  0  0  0  0  0  0  0  0
  1  2  1  0
  2  3  1  0
  3  4  1  0
  4  5  1  0
  5  6  1  0
  6  7  1  0
  7  8  2  0
  8  9  1  0
  9 10  2  0
 10 11  1  0
 11 12  2  0
 12 13  1  0
 13 14  2  0
 14 15  1  0
 14 16  1  0
 16 17  2  0
 17 18  1  0
 17 19  1  0
 19 20  2  0
 20 21  1  0
 21 22  1  0
 21 23  2  0
 23  7  1  0
 13  8  1  0
 23 16  1  0
  1 24  1  0
  1 25  1  0
  1 26  1  0
  2 27  1  0
  2 28  1  0
  3 29  1  0
  4 30  1  0
  4 31  1  0
  5 32  1  0
  5 33  1  0
  6 34  1  0
  9 35  1  0
 10 36  1  0
 11 37  1  0
 12 38  1  0
 15 39  1  0
 15 40  1  0
 15 41  1  0
 18 42  1  0
 18 43  1  0
 18 44  1  0
 19 45  1  0
 20 46  1  0
 22 47  1  0
 22 48  1  0
 22 49  1  0
M  CHG  1  14   1
M  END
>  <smiles>  (14) 
CCNCCNc1c2ccccc2[n+](C)c2c(C)ccc(C)c12

>  <score_type>  (14) 
oracle

>  <origin>  (14) 
adg

>  <m_score__min__energy>  (14) 
-9.4800000000000004

>  <m_primary>  (14) 
energy

$$$$
16:0
     RDKit          3D

 66 70  0  0  1  0  0  0  0  0999 V2000
   -8.8560   19.5240  -32.0970 C   0  0  0  0  0  0  0  0  0  0  0  0
   -7.7390   18.5480  -31.8330 C   0  0  0  0  0  0  0  0  0  0  0  0
   -6.5690   18.8530  -32.4860 O   0  0  0  0  0  0  0  0  0  0  0  0
   -6.4790   18.2380  -33.7180 C   0  0  0  0  0  0  0  0  0  0  0  0
   -5.1300   18.4360  -34.3780 C   0  0  0  0  0  0  0  0  0  0  0  0
   -4.1370   18.2370  -33.4560 O   0  0  0  0  0  0  0  0  0  0  0  0
   -2.8480   18.3590  -33.9170 C   0  0  0  0  0  0  0  0  0  0  0  0
   -2.3590   19.7790  -33.8980 C   0  0  0  0  0  0  0  0  0  0  0  0
   -2.3900   20.3260  -32.5630 N   0  0  0  0  0  0  0  0  0  0  0  0
   -3.4510   21.2200  -32.1400 C   0  0  0  0  0  0  0  0  0  0  0  0
   -4.7790   21.3510  -32.4970 C   0  0  0  0  0  0  0  0  0  0  0  0
   -5.5920   22.3050  -31.9190 C   0  0  0  0  0  0  0  0  0  0  0  0
   -6.9020   22.3770  -32.3200 C   0  0  0  0  0  0  0  0  0  0  0  0
   -7.7380   23.3260  -31.7540 C   0  0  0  0  0  0  0  0  0  0  0  0
   -7.1940   24.1570  -30.8020 C   0  0  0  0  0  0  0  0  0  0  0  0
   -5.8770   24.0860  -30.3960 C   0  0  0  0  0  0  0  0  0  0  0  0
   -5.0380   23.1380  -30.9610 C   0  0  0  0  0  0  0  0  0  0  0  0
   -3.7090   23.0150  -30.5960 C   0  0  0  0  0  0  0  0  0  0  0  0
   -2.8770   22.0590  -31.1690 C   0  0  0  0  0  0  0  0  0  0  0  0
   -1.4540   21.6710  -31.0200 C   0  0  1  0  0  0  0  0  0  0  0  0
   -0.9130   21.7060  -29.6390 C   0  0  0  0  0  0  0  0  0  0  0  0
   -0.4260   20.4330  -29.2700 N   0  0  0  0  0  0  0  0  0  0  0  0
   -0.5460   20.0010  -27.9470 C   0  0  0  0  0  0  0  0  0  0  0  0
   -1.6910   20.6090  -27.1620 C   0  0  0  0  0  0  0  0  0  0  0  0
   -3.0080   20.1400  -27.7430 C   0  0  0  0  0  0  0  0  0  0  0  0
   -3.0090   18.9700  -26.8070 C   0  0  0  0  0  0  0  0  0  0  0  0
   -1.9790   19.7000  -25.9710 C   0  0  0  0  0  0  0  0  0  0  0  0
    0.4260   19.7470  -30.1650 C   0  0  0  0  0  0  0  0  0  0  0  0
   -0.1640   19.7300  -31.5920 C   0  0  0  0  0  0  0  0  0  0  0  0
   -1.5500   20.1870  -31.4330 C   0  0  2  0  0  0  0  0  0  0  0  0
   -9.2647   19.8811  -31.1402 H   0  0  0  0  0  0  0  0  0  0  0  0
   -8.4685   20.3781  -32.6718 H   0  0  0  0  0  0  0  0  0  0  0  0
   -9.6504   19.0254  -32.6718 H   0  0  0  0  0  0  0  0  0  0  0  0
   -7.5389   18.5344  -30.7514 H   0  0  0  0  0  0  0  0  0  0  0  0
   -8.0718   17.5706  -32.2124 H   0  0  0  0  0  0  0  0  0  0  0  0
   -6.6500   17.1595  -33.5853 H   0  0  0  0  0  0  0  0  0  0  0  0
   -7.2367   18.6950  -34.3715 H   0  0  0  0  0  0  0  0  0  0  0  0
   -5.0155   17.7157  -35.2015 H   0  0  0  0  0  0  0  0  0  0  0  0
   -5.0625   19.4599  -34.7743 H   0  0  0  0  0  0  0  0  0  0  0  0
   -2.1877   17.7506  -33.2815 H   0  0  0  0  0  0  0  0  0  0  0  0
   -2.8345   18.0163  -34.9622 H   0  0  0  0  0  0  0  0  0  0  0  0
   -1.3252   19.8071  -34.2729 H   0  0  0  0  0  0  0  0  0  0  0  0
   -3.0208   20.3829  -34.5363 H   0  0  0  0  0  0  0  0  0  0  0  0
   -5.1986   20.6790  -33.2601 H   0  0  0  0  0  0  0  0  0  0  0  0
   -7.2859   21.6864  -33.0853 H   0  0  0  0  0  0  0  0  0  0  0  0
   -8.7930   23.4114  -32.0534 H   0  0  0  0  0  0  0  0  0  0  0  0
   -7.8420   24.9169  -30.3409 H   0  0  0  0  0  0  0  0  0  0  0  0
   -5.4956   24.7767  -29.6295 H   0  0  0  0  0  0  0  0  0  0  0  0
   -3.2993   23.6918  -29.8318 H   0  0  0  0  0  0  0  0  0  0  0  0
   -0.7955   22.3483  -31.5836 H   0  0  0  0  0  0  0  0  0  0  0  0
   -0.0922   22.4367  -29.5894 H   0  0  0  0  0  0  0  0  0  0  0  0
   -1.7178   21.9951  -28.9471 H   0  0  0  0  0  0  0  0  0  0  0  0
   -0.6850   18.9099  -27.9583 H   0  0  0  0  0  0  0  0  0  0  0  0
    0.3739   20.3264  -27.4391 H   0  0  0  0  0  0  0  0  0  0  0  0
   -1.4434   21.6762  -27.0631 H   0  0  0  0  0  0  0  0  0  0  0  0
   -3.8419   20.8402  -27.5866 H   0  0  0  0  0  0  0  0  0  0  0  0
   -3.1127   19.9842  -28.8269 H   0  0  0  0  0  0  0  0  0  0  0  0
   -3.9681   18.7939  -26.2979 H   0  0  0  0  0  0  0  0  0  0  0  0
   -2.8318   17.9466  -27.1691 H   0  0  0  0  0  0  0  0  0  0  0  0
   -2.3935   20.2199  -25.0947 H   0  0  0  0  0  0  0  0  0  0  0  0
   -1.1675   19.1520  -25.4699 H   0  0  0  0  0  0  0  0  0  0  0  0
    1.4041   20.2499  -30.1867 H   0  0  0  0  0  0  0  0  0  0  0  0
    0.5328   18.7084  -29.8188 H   0  0  0  0  0  0  0  0  0  0  0  0
    0.3951   20.4114  -32.2501 H   0  0  0  0  0  0  0  0  0  0  0  0
   -0.1070   18.7324  -32.0519 H   0  0  0  0  0  0  0  0  0  0  0  0
   -1.9752   19.4156  -30.7741 H   0  0  0  0  0  0  0  0  0  0  0  0
  1  2  1  0
  2  3  1  0
  3  4  1  0
  4  5  1  0
  5  6  1  0
  6  7  1  0
  7  8  1  0
  8  9  1  0
  9 10  1  0
 10 11  2  0
 11 12  1  0
 12 13  2  0
 13 14  1  0
 14 15  2  0
 15 16  1  0
 16 17  2  0
 17 18  1  0
 18 19  2  0
 19 20  1  0
 20 21  1  0
 21 22  1  0
 22 23  1  0
 23 24  1  0
 24 25  1  0
 25 26  1  0
 26 27  1  0
 22 28  1  0
 28 29  1  0
 29 30  1  0
 30  9  1  0
 19 10  1  0
 30 20  1  0
 17 12  1  0
 27 24  1  0
  1 31  1  0
  1 32  1  0
  1 33  1  0
  2 34  1  0
  2 35  1  0
  4 36  1  0
  4 37  1  0
  5 38  1  0
  5 39  1  0
  7 40  1  0
  7 41  1  0
  8 42  1  0
  8 43  1  0
 11 44  1  0
 13 45  1  0
 14 46  1  0
 15 47  1  0
 16 48  1  0
 18 49  1  0
 20 50  1  6
 21 51  1  0
 21 52  1  0
 23 53  1  0
 23 54  1  0
 24 55  1  0
 25 56  1  0
 25 57  1  0
 26 58  1  0
 26 59  1  0
 27 60  1  0
 27 61  1  0
 28 62  1  0
 28 63  1  0
 29 64  1  0
 29 65  1  0
 30 66  1  1
M  END
>  <smiles>  (15) 
CCOCCOCCN1c2cc3ccccc3cc2C2CN(CC3CCC3)CCC21

>  <score_type>  (15) 
oracle

>  <origin>  (15) 
adg

>  <m_score__min__energy>  (15) 
-10.609999999999999

>  <m_primary>  (15) 
energy

$$$$
17:0
     RDKit          3D

 29 30  0  0  0  0  0  0  0  0999 V2000
   -4.5410   20.9250  -31.4860 C   0  0  0  0  0  0  0  0  0  0  0  0
   -5.3930   21.5720  -32.5580 C   0  0  0  0  0  0  0  0  0  0  0  0
   -6.7740   21.2480  -32.3520 N   0  0  0  0  0  0  0  0  0  0  0  0
   -7.7350   22.0830  -31.8610 C   0  0  0  0  0  0  0  0  0  0  0  0
   -7.5050   23.7940  -31.3580 S   0  0  0  0  0  0  0  0  0  0  0  0
   -6.3020   23.8390  -29.9890 C   0  0  0  0  0  0  0  0  0  0  0  0
   -5.1580   24.6410  -30.4700 C   0  0  0  0  0  0  0  0  0  0  0  0
   -4.2550   25.2680  -30.8460 N   0  0  0  0  0  0  0  0  0  0  0  0
   -8.8940   21.3880  -31.8260 N   0  0  0  0  0  0  0  0  0  0  0  0
   -8.6700   20.1540  -32.2790 N   0  0  0  0  0  0  0  0  0  0  0  0
   -7.3510   20.0630  -32.6080 C   0  0  0  0  0  0  0  0  0  0  0  0
   -6.7800   18.8330  -33.1360 C   0  0  0  0  0  0  0  0  0  0  0  0
   -6.8740   17.6130  -32.5150 C   0  0  0  0  0  0  0  0  0  0  0  0
   -6.2990   16.4870  -33.0860 C   0  0  0  0  0  0  0  0  0  0  0  0
   -5.6270   16.6270  -34.3020 C   0  0  0  0  0  0  0  0  0  0  0  0
   -5.5180   17.8420  -34.9450 C   0  0  0  0  0  0  0  0  0  0  0  0
   -6.1000   18.9480  -34.3550 C   0  0  0  0  0  0  0  0  0  0  0  0
   -4.9193   21.2123  -30.4939 H   0  0  0  0  0  0  0  0  0  0  0  0
   -4.5856   19.8311  -31.5928 H   0  0  0  0  0  0  0  0  0  0  0  0
   -3.4992   21.2617  -31.5928 H   0  0  0  0  0  0  0  0  0  0  0  0
   -5.2651   22.6637  -32.5148 H   0  0  0  0  0  0  0  0  0  0  0  0
   -5.0783   21.1969  -33.5430 H   0  0  0  0  0  0  0  0  0  0  0  0
   -6.7513   24.3097  -29.1021 H   0  0  0  0  0  0  0  0  0  0  0  0
   -5.9869   22.8256  -29.6995 H   0  0  0  0  0  0  0  0  0  0  0  0
   -7.4090   17.5272  -31.5577 H   0  0  0  0  0  0  0  0  0  0  0  0
   -6.3708   15.5066  -32.5923 H   0  0  0  0  0  0  0  0  0  0  0  0
   -5.1695   15.7388  -34.7622 H   0  0  0  0  0  0  0  0  0  0  0  0
   -4.9822   17.9286  -35.9018 H   0  0  0  0  0  0  0  0  0  0  0  0
   -6.0284   19.9288  -34.8479 H   0  0  0  0  0  0  0  0  0  0  0  0
  1  2  1  0
  2  3  1  0
  3  4  1  0
  4  5  1  0
  5  6  1  0
  6  7  1  0
  7  8  3  0
  4  9  2  0
  9 10  1  0
 10 11  2  0
 11 12  1  0
 12 13  2  0
 13 14  1  0
 14 15  2  0
 15 16  1  0
 16 17  2  0
 11  3  1  0
 17 12  1  0
  1 18  1  0
  1 19  1  0
  1 20  1  0
  2 21  1  0
  2 22  1  0
  6 23  1  0
  6 24  1  0
 13 25  1  0
 14 26  1  0
 15 27  1  0
 16 28  1  0
 17 29  1  0
M  END
>  <smiles>  (16) 
CCn1c(SCC#N)nnc1-c1ccccc1

>  <score_type>  (16) 
oracle

>  <origin>  (16) 
adg

>  <m_score__min__energy>  (16) 
-7.0300000000000002

>  <m_primary>  (16) 
energy

$$$$
