0:0
     RDKit          3D

 43 45  0  0  0  0  0  0  0  0999 V2000
   -6.9380   17.1470  -33.4890 C   0  0  0  0  0  0  0  0  0  0  0  0
   -6.6220   18.4850  -32.8880 C   0  0  0  0  0  0  0  0  0  0  0  0
   -5.4280   18.6780  -32.1780 C   0  0  0  0  0  0  0  0  0  0  0  0
   -5.1160   19.9330  -31.6510 C   0  0  0  0  0  0  0  0  0  0  0  0
   -5.9930   21.0150  -31.8230 C   0  0  0  0  0  0  0  0  0  0  0  0
   -5.6480   22.3060  -31.2930 N   0  0  0  0  0  0  0  0  0  0  0  0
   -6.5520   23.1420  -30.8000 N   0  0  0  0  0  0  0  0  0  0  0  0
   -5.9120   24.2510  -30.3780 C   0  0  0  0  0  0  0  0  0  0  0  0
   -6.6060   25.3840  -29.6910 C   0  0  0  0  0  0  0  0  0  0  0  0
   -4.5580   24.1190  -30.6460 C   0  0  0  0  0  0  0  0  0  0  0  0
   -3.4860   25.0070  -30.3110 N   0  0  0  0  0  0  0  0  0  0  0  0
   -2.4680   24.7500  -29.3360 C   0  0  0  0  0  0  0  0  0  0  0  0
   -1.6890   25.6780  -28.9840 O   0  0  0  0  0  0  0  0  0  0  0  0
   -2.2940   23.3870  -28.7830 C   0  0  0  0  0  0  0  0  0  0  0  0
   -3.3300   22.7760  -28.0570 C   0  0  0  0  0  0  0  0  0  0  0  0
   -3.1670   21.4900  -27.5370 C   0  0  0  0  0  0  0  0  0  0  0  0
   -1.9720   20.7970  -27.7350 C   0  0  0  0  0  0  0  0  0  0  0  0
   -0.9200   21.3840  -28.4580 C   0  0  0  0  0  0  0  0  0  0  0  0
    0.3120   20.6670  -28.6610 N   0  0  0  0  0  0  0  0  0  0  0  0
    0.4620   19.9250  -29.6530 O   0  0  0  0  0  0  0  0  0  0  0  0
    1.3470   20.7880  -27.7610 O   0  0  0  0  0  0  0  0  0  0  0  0
   -1.0900   22.6810  -28.9800 C   0  0  0  0  0  0  0  0  0  0  0  0
   -4.4190   22.8700  -31.2140 C   0  0  0  0  0  0  0  0  0  0  0  0
   -3.1320   22.2610  -31.6840 C   0  0  0  0  0  0  0  0  0  0  0  0
   -7.1700   20.8310  -32.5680 C   0  0  0  0  0  0  0  0  0  0  0  0
   -7.4820   19.5740  -33.0970 C   0  0  0  0  0  0  0  0  0  0  0  0
   -7.1107   16.4157  -32.6856 H   0  0  0  0  0  0  0  0  0  0  0  0
   -7.8416   17.2286  -34.1110 H   0  0  0  0  0  0  0  0  0  0  0  0
   -6.0934   16.8157  -34.1110 H   0  0  0  0  0  0  0  0  0  0  0  0
   -4.7339   17.8366  -32.0356 H   0  0  0  0  0  0  0  0  0  0  0  0
   -4.1762   20.0745  -31.0972 H   0  0  0  0  0  0  0  0  0  0  0  0
   -6.5273   25.2555  -28.6014 H   0  0  0  0  0  0  0  0  0  0  0  0
   -6.1346   26.3340  -29.9832 H   0  0  0  0  0  0  0  0  0  0  0  0
   -7.6664   25.3957  -29.9832 H   0  0  0  0  0  0  0  0  0  0  0  0
   -4.2760   23.3141  -27.8970 H   0  0  0  0  0  0  0  0  0  0  0  0
   -3.9841   21.0214  -26.9689 H   0  0  0  0  0  0  0  0  0  0  0  0
   -1.8529   19.7844  -27.3222 H   0  0  0  0  0  0  0  0  0  0  0  0
   -0.2729   23.1490  -29.5486 H   0  0  0  0  0  0  0  0  0  0  0  0
   -2.5234   21.9730  -30.8141 H   0  0  0  0  0  0  0  0  0  0  0  0
   -3.3484   21.3698  -32.2913 H   0  0  0  0  0  0  0  0  0  0  0  0
   -2.5800   22.9934  -32.2913 H   0  0  0  0  0  0  0  0  0  0  0  0
   -7.8495   21.6795  -32.7361 H   0  0  0  0  0  0  0  0  0  0  0  0
   -8.4054   19.4387  -33.6793 H   0  0  0  0  0  0  0  0  0  0  0  0
  1  2  1  0
  2  3  2  0
  3  4  1  0
  4  5  2  0
  5  6  1  0
  6  7  1  0
  7  8  2  0
  8  9  1  0
  8 10  1  0
 10 11  1  0
 11 12  1  0
 12 13  2  0
 12 14  1  0
 14 15  2  0
 15 16  1  0
 16 17  2  0
 17 18  1  0
 18 19  1  0
 19 20  2  0
 19 21  1  0
 18 22  2  0
 10 23  2  0
 23 24  1  0
  5 25  1  0
 25 26  2  0
 26  2  1  0
 23  6  1  0
 22 14  1  0
  1 27  1  0
  1 28  1  0
  1 29  1  0
  3 30  1  0
  4 31  1  0
  9 32  1  0
  9 33  1  0
  9 34  1  0
 15 35  1  0
 16 36  1  0
 17 37  1  0
 22 38  1  0
 24 39  1  0
 24 40  1  0
 24 41  1  0
 25 42  1  0
 26 43  1  0
M  CHG  3  11  -1  19   1  21  -1
M  END
>  <UniqueID>  (1) 
1

>  <SMILES>  (1) 
Cc1ccc(-n2nc(C)c([N-]C(=O)c3cccc([N+](=O)[O-])c3)c2C)cc1

>  <Energy>  (1) 
86.34752923331669

>  <Genealogy>  (1) 
Cc1ccc(-n2nc(C)c([N-]C(=O)c3cccc([N+](=O)[O-])c3)c2C)cc1 (protonated)
Cc1ccc(-n2nc(C)c([N-]C(=O)c3cccc([N+](=O)[O-])c3)c2C)cc1 (3D coordinates assigned)
Cc1ccc(-n2nc(C)c([N-]C(=O)c3cccc([N+](=O)[O-])c3)c2C)cc1 (optimized conformer: 86.34752923331669 kcal/mol)

>  <smiles>  (1) 
Cc1ccc(-n2nc(C)c(NC(=O)c3cccc([N+](=O)[O-])c3)c2C)cc1

>  <score_type>  (1) 
oracle

>  <origin>  (1) 
adg

>  <m_score__min__energy>  (1) 
-10.24

>  <m_primary>  (1) 
energy

$$$$
1:0
     RDKit          3D

 66 70  0  0  0  0  0  0  0  0999 V2000
    0.6130   24.5530  -27.0500 C   0  0  0  0  0  0  0  0  0  0  0  0
   -0.0870   24.9410  -28.2290 O   0  0  0  0  0  0  0  0  0  0  0  0
   -1.3090   24.3710  -28.6060 C   0  0  0  0  0  0  0  0  0  0  0  0
   -1.5960   23.0490  -28.2500 C   0  0  0  0  0  0  0  0  0  0  0  0
   -2.8080   22.4750  -28.6460 C   0  0  0  0  0  0  0  0  0  0  0  0
   -3.7340   23.2180  -29.4010 C   0  0  0  0  0  0  0  0  0  0  0  0
   -5.0360   22.5670  -29.8710 C   0  0  1  0  0  0  0  0  0  0  0  0
   -6.1890   23.6050  -29.9590 C   0  0  0  0  0  0  0  0  0  0  0  0
   -6.6960   23.8240  -31.3920 C   0  0  0  0  0  0  0  0  0  0  0  0
   -5.5670   23.9040  -32.3210 N   0  0  0  0  0  0  0  0  0  0  0  0
   -4.8450   22.6230  -32.4590 C   0  0  0  0  0  0  0  0  0  0  0  0
   -4.9140   21.7340  -31.1880 C   0  0  1  0  0  0  0  0  0  0  0  0
   -3.7860   20.7080  -31.1730 C   0  0  0  0  0  0  0  0  0  0  0  0
   -3.5420   20.0990  -30.0950 O   0  0  0  0  0  0  0  0  0  0  0  0
   -2.9460   20.4540  -32.3310 N   0  0  0  0  0  0  0  0  0  0  0  0
   -3.5750   20.0690  -33.6080 C   0  0  0  0  0  0  0  0  0  0  0  0
   -4.5920   18.9530  -33.4330 C   0  0  0  0  0  0  0  0  0  0  0  0
   -5.9200   19.2640  -33.0760 C   0  0  0  0  0  0  0  0  0  0  0  0
   -6.8990   18.2620  -32.9810 C   0  0  0  0  0  0  0  0  0  0  0  0
   -8.3240   18.6260  -32.6460 C   0  0  0  0  0  0  0  0  0  0  0  0
   -8.6130   20.0040  -33.0630 N   0  0  0  0  0  0  0  0  0  0  0  0
   -9.4860   20.6360  -32.0580 C   0  0  0  0  0  0  0  0  0  0  0  0
   -9.3740   22.1510  -31.9470 C   0  0  0  0  0  0  0  0  0  0  0  0
   -8.7380   21.2580  -30.8850 C   0  0  0  0  0  0  0  0  0  0  0  0
   -6.5410   16.9250  -33.2020 C   0  0  0  0  0  0  0  0  0  0  0  0
   -5.2340   16.6000  -33.5650 C   0  0  0  0  0  0  0  0  0  0  0  0
   -4.2630   17.6030  -33.7040 C   0  0  0  0  0  0  0  0  0  0  0  0
   -2.6430   17.1020  -34.1920 Cl  0  0  0  0  0  0  0  0  0  0  0  0
   -1.5340   20.8750  -32.3350 C   0  0  0  0  0  0  0  0  0  0  0  0
   -0.6050   19.8750  -33.0060 C   0  0  0  0  0  0  0  0  0  0  0  0
   -0.9350   21.1820  -33.7040 C   0  0  0  0  0  0  0  0  0  0  0  0
   -3.4120   24.5560  -29.7090 C   0  0  0  0  0  0  0  0  0  0  0  0
   -2.2220   25.0880  -29.3180 N   0  0  0  0  0  0  0  0  0  0  0  0
    0.0426   24.8691  -26.1642 H   0  0  0  0  0  0  0  0  0  0  0  0
    0.7329   23.4596  -27.0379 H   0  0  0  0  0  0  0  0  0  0  0  0
    1.6038   25.0307  -27.0379 H   0  0  0  0  0  0  0  0  0  0  0  0
   -0.8728   22.4646  -27.6622 H   0  0  0  0  0  0  0  0  0  0  0  0
   -3.0388   21.4367  -28.3657 H   0  0  0  0  0  0  0  0  0  0  0  0
   -5.2822   21.8298  -29.0926 H   0  0  0  0  0  0  0  0  0  0  0  0
   -7.0274   23.2498  -29.3417 H   0  0  0  0  0  0  0  0  0  0  0  0
   -5.7920   24.5666  -29.6016 H   0  0  0  0  0  0  0  0  0  0  0  0
   -7.3449   22.9839  -31.6802 H   0  0  0  0  0  0  0  0  0  0  0  0
   -7.2617   24.7665  -31.4325 H   0  0  0  0  0  0  0  0  0  0  0  0
   -5.9290   24.1830  -33.2640 H   0  0  0  0  0  0  0  0  0  0  0  0
   -5.2839   22.0645  -33.2989 H   0  0  0  0  0  0  0  0  0  0  0  0
   -3.7853   22.8650  -32.6278 H   0  0  0  0  0  0  0  0  0  0  0  0
   -5.8511   21.1598  -31.2328 H   0  0  0  0  0  0  0  0  0  0  0  0
   -4.0828   20.9478  -34.0321 H   0  0  0  0  0  0  0  0  0  0  0  0
   -2.7831   19.7026  -34.2778 H   0  0  0  0  0  0  0  0  0  0  0  0
   -6.1937   20.3090  -32.8684 H   0  0  0  0  0  0  0  0  0  0  0  0
   -9.0058   17.9389  -33.1685 H   0  0  0  0  0  0  0  0  0  0  0  0
   -8.4660   18.5457  -31.5582 H   0  0  0  0  0  0  0  0  0  0  0  0
   -9.0800   19.9720  -34.0000 H   0  0  0  0  0  0  0  0  0  0  0  0
  -10.3228   19.9315  -32.1742 H   0  0  0  0  0  0  0  0  0  0  0  0
   -8.7376   22.7085  -32.6500 H   0  0  0  0  0  0  0  0  0  0  0  0
  -10.0908   22.9853  -31.9344 H   0  0  0  0  0  0  0  0  0  0  0  0
   -7.6432   21.1716  -30.8225 H   0  0  0  0  0  0  0  0  0  0  0  0
   -8.8062   21.1815  -29.7898 H   0  0  0  0  0  0  0  0  0  0  0  0
   -7.2927   16.1299  -33.0889 H   0  0  0  0  0  0  0  0  0  0  0  0
   -4.9625   15.5491  -33.7437 H   0  0  0  0  0  0  0  0  0  0  0  0
   -1.5665   21.4089  -31.3738 H   0  0  0  0  0  0  0  0  0  0  0  0
    0.4047   19.7072  -32.6030 H   0  0  0  0  0  0  0  0  0  0  0  0
   -0.6749   18.8111  -33.2768 H   0  0  0  0  0  0  0  0  0  0  0  0
   -0.1651   21.9611  -33.8054 H   0  0  0  0  0  0  0  0  0  0  0  0
   -1.3430   21.4573  -34.6878 H   0  0  0  0  0  0  0  0  0  0  0  0
   -4.1283   25.1745  -30.2697 H   0  0  0  0  0  0  0  0  0  0  0  0
  1  2  1  0
  2  3  1  0
  3  4  2  0
  4  5  1  0
  5  6  2  0
  6  7  1  0
  7  8  1  0
  8  9  1  0
  9 10  1  0
 10 11  1  0
 11 12  1  0
 12 13  1  0
 13 14  2  0
 13 15  1  0
 15 16  1  0
 16 17  1  0
 17 18  2  0
 18 19  1  0
 19 20  1  0
 20 21  1  0
 21 22  1  0
 22 23  1  0
 23 24  1  0
 19 25  2  0
 25 26  1  0
 26 27  2  0
 27 28  1  0
 15 29  1  0
 29 30  1  0
 30 31  1  0
  6 32  1  0
 32 33  2  0
 33  3  1  0
 12  7  1  0
 27 17  1  0
 31 29  1  0
 24 22  1  0
  1 34  1  0
  1 35  1  0
  1 36  1  0
  4 37  1  0
  5 38  1  0
  7 39  1  1
  8 40  1  0
  8 41  1  0
  9 42  1  0
  9 43  1  0
 10 44  1  0
 11 45  1  0
 11 46  1  0
 12 47  1  6
 16 48  1  0
 16 49  1  0
 18 50  1  0
 20 51  1  0
 20 52  1  0
 21 53  1  0
 22 54  1  0
 23 55  1  0
 23 56  1  0
 24 57  1  0
 24 58  1  0
 25 59  1  0
 26 60  1  0
 29 61  1  0
 30 62  1  0
 30 63  1  0
 31 64  1  0
 31 65  1  0
 32 66  1  0
M  END
>  <UniqueID>  (2) 
2

>  <SMILES>  (2) 
COc1ccc([C@H]2CCNC[C@H]2C(=O)N(Cc2cc(CNC3CC3)ccc2Cl)C2CC2)cn1

>  <Energy>  (2) 
611.2009355839843

>  <Genealogy>  (2) 
COc1ccc([C@H]2CCNC[C@H]2C(=O)N(Cc2cc(CNC3CC3)ccc2Cl)C2CC2)cn1 (chirality)
COc1ccc([C@H]2CCNC[C@H]2C(=O)N(Cc2cc(CNC3CC3)ccc2Cl)C2CC2)cn1 (3D coordinates assigned)
COc1ccc([C@H]2CCNC[C@H]2C(=O)N(Cc2cc(CNC3CC3)ccc2Cl)C2CC2)cn1 (nonaromatic ring conformer: 611.2009355839843 kcal/mol)

>  <smiles>  (2) 
COc1ccc(C2CCNCC2C(=O)N(Cc2cc(CNC3CC3)ccc2Cl)C2CC2)cn1

>  <score_type>  (2) 
oracle

>  <origin>  (2) 
adg

>  <m_score__min__energy>  (2) 
-10.16

>  <m_primary>  (2) 
energy

$$$$
2:0
     RDKit          3D

 44 47  0  0  0  0  0  0  0  0999 V2000
   -1.8570   25.1540  -28.1320 C   0  0  0  0  0  0  0  0  0  0  0  0
   -2.5940   25.2800  -29.3450 O   0  0  0  0  0  0  0  0  0  0  0  0
   -3.2460   24.2190  -29.9880 C   0  0  0  0  0  0  0  0  0  0  0  0
   -2.5670   23.0680  -30.4240 C   0  0  0  0  0  0  0  0  0  0  0  0
   -3.2560   22.0420  -31.0770 C   0  0  0  0  0  0  0  0  0  0  0  0
   -4.6350   22.1580  -31.3390 C   0  0  0  0  0  0  0  0  0  0  0  0
   -5.3300   23.2750  -30.8190 C   0  0  0  0  0  0  0  0  0  0  0  0
   -4.6280   24.3090  -30.1820 C   0  0  0  0  0  0  0  0  0  0  0  0
   -6.8360   23.3340  -30.9180 C   0  0  0  0  0  0  0  0  0  0  0  0
   -7.4060   21.9210  -30.7450 C   0  0  1  0  0  0  0  0  0  0  0  0
   -8.8870   21.9660  -30.7160 N   0  0  0  0  0  0  0  0  0  0  0  0
   -9.5290   21.5450  -31.9660 C   0  0  0  0  0  0  0  0  0  0  0  0
   -9.0870   20.1340  -32.3470 C   0  0  0  0  0  0  0  0  0  0  0  0
   -7.6000   20.1210  -32.5350 C   0  0  0  0  0  0  0  0  0  0  0  0
   -7.0160   19.2520  -33.4570 C   0  0  0  0  0  0  0  0  0  0  0  0
   -5.6440   19.3250  -33.7510 C   0  0  0  0  0  0  0  0  0  0  0  0
   -5.0660   18.4530  -34.6870 O   0  0  0  0  0  0  0  0  0  0  0  0
   -5.0020   17.0360  -34.5580 C   0  0  0  0  0  0  0  0  0  0  0  0
   -4.8430   20.3020  -33.1010 C   0  0  0  0  0  0  0  0  0  0  0  0
   -3.5060   20.5510  -33.4700 O   0  0  0  0  0  0  0  0  0  0  0  0
   -2.4420   19.6090  -33.5360 C   0  0  0  0  0  0  0  0  0  0  0  0
   -5.4120   21.0990  -32.0710 C   0  0  0  0  0  0  0  0  0  0  0  0
   -6.7980   21.0060  -31.8040 C   0  0  0  0  0  0  0  0  0  0  0  0
   -2.5376   25.2704  -27.2757 H   0  0  0  0  0  0  0  0  0  0  0  0
   -1.3836   24.1619  -28.0920 H   0  0  0  0  0  0  0  0  0  0  0  0
   -1.0809   25.9325  -28.0920 H   0  0  0  0  0  0  0  0  0  0  0  0
   -1.4849   22.9740  -30.2499 H   0  0  0  0  0  0  0  0  0  0  0  0
   -2.7163   21.1357  -31.3891 H   0  0  0  0  0  0  0  0  0  0  0  0
   -5.1701   25.1997  -29.8315 H   0  0  0  0  0  0  0  0  0  0  0  0
   -7.2316   23.9900  -30.1286 H   0  0  0  0  0  0  0  0  0  0  0  0
   -7.1274   23.7334  -31.9006 H   0  0  0  0  0  0  0  0  0  0  0  0
   -7.1235   21.4869  -29.7746 H   0  0  0  0  0  0  0  0  0  0  0  0
   -9.2300   21.3400  -29.9480 H   0  0  0  0  0  0  0  0  0  0  0  0
  -10.6210   21.5588  -31.8343 H   0  0  0  0  0  0  0  0  0  0  0  0
   -9.2342   22.2381  -32.7677 H   0  0  0  0  0  0  0  0  0  0  0  0
   -9.3634   19.4324  -31.5462 H   0  0  0  0  0  0  0  0  0  0  0  0
   -9.5818   19.8297  -33.2811 H   0  0  0  0  0  0  0  0  0  0  0  0
   -7.6389   18.4985  -33.9613 H   0  0  0  0  0  0  0  0  0  0  0  0
   -4.9898   16.7651  -33.4920 H   0  0  0  0  0  0  0  0  0  0  0  0
   -5.8806   16.5838  -35.0412 H   0  0  0  0  0  0  0  0  0  0  0  0
   -4.0862   16.6648  -35.0412 H   0  0  0  0  0  0  0  0  0  0  0  0
   -2.1317   19.3343  -32.5170 H   0  0  0  0  0  0  0  0  0  0  0  0
   -2.7811   18.7097  -34.0710 H   0  0  0  0  0  0  0  0  0  0  0  0
   -1.5904   20.0546  -34.0710 H   0  0  0  0  0  0  0  0  0  0  0  0
  1  2  1  0
  2  3  1  0
  3  4  2  0
  4  5  1  0
  5  6  2  0
  6  7  1  0
  7  8  2  0
  7  9  1  0
  9 10  1  0
 10 11  1  0
 11 12  1  0
 12 13  1  0
 13 14  1  0
 14 15  1  0
 15 16  2  0
 16 17  1  0
 17 18  1  0
 16 19  1  0
 19 20  1  0
 20 21  1  0
 19 22  2  0
 22 23  1  0
  8  3  1  0
 23 10  1  0
 22  6  1  0
 23 14  2  0
  1 24  1  0
  1 25  1  0
  1 26  1  0
  4 27  1  0
  5 28  1  0
  8 29  1  0
  9 30  1  0
  9 31  1  0
 10 32  1  1
 11 33  1  0
 12 34  1  0
 12 35  1  0
 13 36  1  0
 13 37  1  0
 15 38  1  0
 18 39  1  0
 18 40  1  0
 18 41  1  0
 21 42  1  0
 21 43  1  0
 21 44  1  0
M  END
>  <UniqueID>  (3) 
3

>  <SMILES>  (3) 
COc1ccc2c(c1)C[C@H]1NCCc3cc(OC)c(OC)c-2c31

>  <Energy>  (3) 
65.79597651146071

>  <Genealogy>  (3) 
COc1ccc2c(c1)C[C@H]1NCCc3cc(OC)c(OC)c-2c31 (chirality)
COc1ccc2c(c1)C[C@H]1NCCc3cc(OC)c(OC)c-2c31 (3D coordinates assigned)
COc1ccc2c(c1)C[C@H]1NCCc3cc(OC)c(OC)c-2c31 (nonaromatic ring conformer: 65.79597651146071 kcal/mol)

>  <smiles>  (3) 
COc1ccc2c(c1)CC1NCCc3cc(OC)c(OC)c-2c31

>  <score_type>  (3) 
oracle

>  <origin>  (3) 
adg

>  <m_score__min__energy>  (3) 
-8.5500000000000007

>  <m_primary>  (3) 
energy

$$$$
3:0
     RDKit          3D

 37 38  0  0  0  0  0  0  0  0999 V2000
   -2.9770   24.5160  -27.1730 C   0  0  0  0  0  0  0  0  0  0  0  0
   -3.4870   24.1570  -28.5600 C   0  0  0  0  0  0  0  0  0  0  0  0
   -4.8930   24.1680  -28.5500 O   0  0  0  0  0  0  0  0  0  0  0  0
   -5.4420   24.8080  -30.0210 S   0  0  0  0  0  0  0  0  0  0  0  0
   -6.3140   26.0050  -29.7620 O   0  0  0  0  0  0  0  0  0  0  0  0
   -4.2570   25.2420  -30.8360 O   0  0  0  0  0  0  0  0  0  0  0  0
   -6.3410   23.5970  -30.9330 C   0  0  0  0  0  0  0  0  0  0  0  0
   -7.6100   23.7810  -31.3450 N   0  0  0  0  0  0  0  0  0  0  0  0
   -7.9570   22.6410  -31.9680 C   0  0  0  0  0  0  0  0  0  0  0  0
   -6.8870   21.7680  -31.9170 C   0  0  0  0  0  0  0  0  0  0  0  0
   -6.8840   20.3910  -32.4580 C   0  0  0  0  0  0  0  0  0  0  0  0
   -7.6920   19.4060  -31.8690 C   0  0  0  0  0  0  0  0  0  0  0  0
   -7.6830   18.0970  -32.3600 C   0  0  0  0  0  0  0  0  0  0  0  0
   -6.8620   17.7460  -33.4370 C   0  0  0  0  0  0  0  0  0  0  0  0
   -6.8960   16.4180  -33.8910 O   0  0  0  0  0  0  0  0  0  0  0  0
   -5.8030   15.5020  -33.8420 C   0  0  0  0  0  0  0  0  0  0  0  0
   -4.7690   15.9500  -34.6430 F   0  0  0  0  0  0  0  0  0  0  0  0
   -6.2120   14.2480  -34.2570 F   0  0  0  0  0  0  0  0  0  0  0  0
   -5.3510   15.4140  -32.5400 F   0  0  0  0  0  0  0  0  0  0  0  0
   -6.0360   18.7280  -34.0180 C   0  0  0  0  0  0  0  0  0  0  0  0
   -6.0460   20.0370  -33.5260 C   0  0  0  0  0  0  0  0  0  0  0  0
   -5.8610   22.3820  -31.2810 N   0  0  0  0  0  0  0  0  0  0  0  0
   -4.5200   21.8570  -31.0160 C   0  0  0  0  0  0  0  0  0  0  0  0
   -3.6275   24.0581  -26.4133 H   0  0  0  0  0  0  0  0  0  0  0  0
   -1.9503   24.1404  -27.0512 H   0  0  0  0  0  0  0  0  0  0  0  0
   -2.9843   25.6092  -27.0512 H   0  0  0  0  0  0  0  0  0  0  0  0
   -3.1180   24.8925  -29.2900 H   0  0  0  0  0  0  0  0  0  0  0  0
   -3.1261   23.1564  -28.8402 H   0  0  0  0  0  0  0  0  0  0  0  0
   -8.2080   24.6240  -31.2020 H   0  0  0  0  0  0  0  0  0  0  0  0
   -8.9298   22.4374  -32.4394 H   0  0  0  0  0  0  0  0  0  0  0  0
   -8.3362   19.6655  -31.0160 H   0  0  0  0  0  0  0  0  0  0  0  0
   -8.3273   17.3362  -31.8953 H   0  0  0  0  0  0  0  0  0  0  0  0
   -5.3810   18.4644  -34.8615 H   0  0  0  0  0  0  0  0  0  0  0  0
   -5.3914   20.7954  -33.9802 H   0  0  0  0  0  0  0  0  0  0  0  0
   -4.3590   21.7940  -29.9297 H   0  0  0  0  0  0  0  0  0  0  0  0
   -4.4242   20.8550  -31.4596 H   0  0  0  0  0  0  0  0  0  0  0  0
   -3.7694   22.5277  -31.4596 H   0  0  0  0  0  0  0  0  0  0  0  0
  1  2  1  0
  2  3  1  0
  3  4  1  0
  4  5  2  0
  4  6  2  0
  4  7  1  0
  7  8  2  0
  8  9  1  0
  9 10  2  0
 10 11  1  0
 11 12  2  0
 12 13  1  0
 13 14  2  0
 14 15  1  0
 15 16  1  0
 16 17  1  0
 16 18  1  0
 16 19  1  0
 14 20  1  0
 20 21  2  0
 10 22  1  0
 22 23  1  0
 22  7  1  0
 21 11  1  0
  1 24  1  0
  1 25  1  0
  1 26  1  0
  2 27  1  0
  2 28  1  0
  8 29  1  0
  9 30  1  0
 12 31  1  0
 13 32  1  0
 20 33  1  0
 21 34  1  0
 23 35  1  0
 23 36  1  0
 23 37  1  0
M  CHG  1   8   1
M  END
>  <UniqueID>  (4) 
4

>  <SMILES>  (4) 
CCOS(=O)(=O)c1[nH+]cc(-c2ccc(OC(F)(F)F)cc2)n1C

>  <Energy>  (4) 
70.86147616680857

>  <Genealogy>  (4) 
CCOS(=O)(=O)c1[nH+]cc(-c2ccc(OC(F)(F)F)cc2)n1C (protonated)
CCOS(=O)(=O)c1[nH+]cc(-c2ccc(OC(F)(F)F)cc2)n1C (3D coordinates assigned)
CCOS(=O)(=O)c1[nH+]cc(-c2ccc(OC(F)(F)F)cc2)n1C (optimized conformer: 70.86147616680857 kcal/mol)

>  <smiles>  (4) 
CCOS(=O)(=O)c1ncc(-c2ccc(OC(F)(F)F)cc2)n1C

>  <score_type>  (4) 
oracle

>  <origin>  (4) 
adg

>  <m_score__min__energy>  (4) 
-6.5199999999999996

>  <m_primary>  (4) 
energy

$$$$
4:0
     RDKit          3D

 29 30  0  0  0  0  0  0  0  0999 V2000
   -4.2200   25.6530  -30.7020 O   0  0  0  0  0  0  0  0  0  0  0  0
   -5.5250   25.1630  -30.8590 C   0  0  0  0  0  0  0  0  0  0  0  0
   -5.5190   23.8390  -31.6430 C   0  0  2  0  0  0  0  0  0  0  0  0
   -6.8530   23.2280  -31.6170 N   0  0  0  0  0  0  0  0  0  0  0  0
   -7.0480   21.8040  -31.5910 C   0  0  0  0  0  0  0  0  0  0  0  0
   -8.3920   21.2910  -31.5350 N   0  0  0  0  0  0  0  0  0  0  0  0
   -8.7100   19.8650  -31.5040 C   0  0  0  0  0  0  0  0  0  0  0  0
   -8.0400   19.0610  -32.6060 C   0  0  0  0  0  0  0  0  0  0  0  0
   -9.5180   19.4050  -32.7060 C   0  0  0  0  0  0  0  0  0  0  0  0
   -6.0180   21.0000  -31.5810 N   0  0  0  0  0  0  0  0  0  0  0  0
   -4.6420   21.4840  -31.7150 C   0  0  0  0  0  0  0  0  0  0  0  0
   -4.4800   22.8600  -31.0550 C   0  0  1  0  0  0  0  0  0  0  0  0
   -3.1680   23.3390  -31.2220 O   0  0  0  0  0  0  0  0  0  0  0  0
   -3.7780   25.5710  -31.5870 H   0  0  0  0  0  0  0  0  0  0  0  0
   -5.9685   24.9930  -29.8668 H   0  0  0  0  0  0  0  0  0  0  0  0
   -6.1152   25.9029  -31.4196 H   0  0  0  0  0  0  0  0  0  0  0  0
   -5.2435   24.0571  -32.6854 H   0  0  0  0  0  0  0  0  0  0  0  0
   -7.6900   23.8400  -31.7490 H   0  0  0  0  0  0  0  0  0  0  0  0
   -9.1840   21.9700  -31.6030 H   0  0  0  0  0  0  0  0  0  0  0  0
   -8.8000   19.7627  -30.4125 H   0  0  0  0  0  0  0  0  0  0  0  0
   -7.3158   19.5452  -33.2776 H   0  0  0  0  0  0  0  0  0  0  0  0
   -7.4533   18.1313  -32.6439 H   0  0  0  0  0  0  0  0  0  0  0  0
   -9.8630   20.1381  -33.4500 H   0  0  0  0  0  0  0  0  0  0  0  0
  -10.4434   18.8272  -32.8463 H   0  0  0  0  0  0  0  0  0  0  0  0
   -6.1480   19.9650  -31.5430 H   0  0  0  0  0  0  0  0  0  0  0  0
   -3.9599   20.7696  -31.2309 H   0  0  0  0  0  0  0  0  0  0  0  0
   -4.4041   21.5767  -32.7850 H   0  0  0  0  0  0  0  0  0  0  0  0
   -4.6594   22.7692  -29.9735 H   0  0  0  0  0  0  0  0  0  0  0  0
   -3.2270   24.2660  -31.5700 H   0  0  0  0  0  0  0  0  0  0  0  0
  1  2  1  0
  2  3  1  0
  3  4  1  0
  4  5  1  0
  5  6  1  0
  6  7  1  0
  7  8  1  0
  8  9  1  0
  5 10  2  0
 10 11  1  0
 11 12  1  0
 12 13  1  0
 12  3  1  0
  9  7  1  0
  1 14  1  0
  2 15  1  0
  2 16  1  0
  3 17  1  6
  4 18  1  0
  6 19  1  0
  7 20  1  0
  8 21  1  0
  8 22  1  0
  9 23  1  0
  9 24  1  0
 10 25  1  0
 11 26  1  0
 11 27  1  0
 12 28  1  1
 13 29  1  0
M  CHG  1  10   1
M  END
>  <UniqueID>  (5) 
5

>  <SMILES>  (5) 
OC[C@@H]1NC(NC2CC2)=[NH+]C[C@H]1O

>  <Energy>  (5) 
288.6366587962868

>  <Genealogy>  (5) 
OCC1NC(NC2CC2)=[NH+]CC1O (protonated)
OC[C@@H]1NC(NC2CC2)=[NH+]C[C@H]1O (chirality)
OC[C@@H]1NC(NC2CC2)=[NH+]C[C@H]1O (3D coordinates assigned)
OC[C@@H]1NC(NC2CC2)=[NH+]C[C@H]1O (nonaromatic ring conformer: 288.6366587962868 kcal/mol)

>  <smiles>  (5) 
OCC1NC(NC2CC2)=NCC1O

>  <score_type>  (5) 
oracle

>  <origin>  (5) 
adg

>  <m_score__min__energy>  (5) 
-5.2999999999999998

>  <m_primary>  (5) 
energy

$$$$
5:0
     RDKit          3D

 53 56  0  0  0  0  0  0  0  0999 V2000
   -9.8978   19.3588  -33.1221 H   0  0  0  0  0  0  0  0  0  0  0  0
   -9.1310   20.0300  -32.7080 C   0  0  0  0  0  0  0  0  0  0  0  0
   -9.4820   20.9840  -31.7560 C   0  0  0  0  0  0  0  0  0  0  0  0
  -10.5264   21.0614  -31.4196 H   0  0  0  0  0  0  0  0  0  0  0  0
   -8.5160   21.8440  -31.2250 C   0  0  0  0  0  0  0  0  0  0  0  0
   -8.8071   22.5941  -30.4749 H   0  0  0  0  0  0  0  0  0  0  0  0
   -7.1670   21.7580  -31.6440 C   0  0  0  0  0  0  0  0  0  0  0  0
   -6.8280   20.7780  -32.6160 C   0  0  0  0  0  0  0  0  0  0  0  0
   -5.5460   20.6550  -33.0500 N   0  0  0  0  0  0  0  0  0  0  0  0
   -4.5490   21.4460  -32.5880 C   0  0  0  0  0  0  0  0  0  0  0  0
   -3.5247   21.3132  -32.9663 H   0  0  0  0  0  0  0  0  0  0  0  0
   -4.8150   22.4280  -31.6350 C   0  0  0  0  0  0  0  0  0  0  0  0
   -3.8020   23.2130  -31.1830 N   0  0  0  0  0  0  0  0  0  0  0  0
   -3.9990   24.1870  -30.2530 C   0  0  0  0  0  0  0  0  0  0  0  0
   -3.0110   24.9230  -29.8390 N   0  0  0  0  0  0  0  0  0  0  0  0
   -1.9560   24.4500  -28.9450 C   0  0  0  0  0  0  0  0  0  0  0  0
   -1.0630   24.2004  -29.5369 H   0  0  0  0  0  0  0  0  0  0  0  0
   -2.3128   23.5581  -28.4091 H   0  0  0  0  0  0  0  0  0  0  0  0
   -1.6000   25.5360  -27.9260 C   0  0  0  0  0  0  0  0  0  0  0  0
   -2.4797   26.1763  -27.7644 H   0  0  0  0  0  0  0  0  0  0  0  0
   -0.7576   26.1199  -28.3252 H   0  0  0  0  0  0  0  0  0  0  0  0
   -1.1680   24.9260  -26.5730 C   0  0  0  0  0  0  0  0  0  0  0  0
   -0.3536   24.2111  -26.7616 H   0  0  0  0  0  0  0  0  0  0  0  0
   -2.0616   24.4514  -26.1414 H   0  0  0  0  0  0  0  0  0  0  0  0
   -0.6940   25.9180  -25.5820 N   0  0  0  0  0  0  0  0  0  0  0  0
   -0.4770   25.3420  -24.2390 C   0  0  0  0  0  0  0  0  0  0  0  0
    0.4241   24.7115  -24.2628 H   0  0  0  0  0  0  0  0  0  0  0  0
   -1.3649   24.7502  -23.9719 H   0  0  0  0  0  0  0  0  0  0  0  0
   -0.2910   26.4410  -23.1700 C   0  0  0  0  0  0  0  0  0  0  0  0
    0.4252   26.0826  -22.4159 H   0  0  0  0  0  0  0  0  0  0  0  0
   -1.2760   26.6462  -22.7254 H   0  0  0  0  0  0  0  0  0  0  0  0
    0.2180   27.7090  -23.7450 N   0  0  0  0  0  0  0  0  0  0  0  0
    0.2560   28.4070  -22.9640 H   0  0  0  0  0  0  0  0  0  0  0  0
    1.5960   27.5970  -24.2960 C   0  0  0  0  0  0  0  0  0  0  0  0
    1.9978   28.6102  -24.4441 H   0  0  0  0  0  0  0  0  0  0  0  0
    1.5281   27.0402  -25.2422 H   0  0  0  0  0  0  0  0  0  0  0  0
    2.5470   26.8240  -23.3760 C   0  0  0  0  0  0  0  0  0  0  0  0
    2.2914   27.0318  -22.3265 H   0  0  0  0  0  0  0  0  0  0  0  0
    2.4496   25.7457  -23.5706 H   0  0  0  0  0  0  0  0  0  0  0  0
    3.5826   27.1396  -23.5706 H   0  0  0  0  0  0  0  0  0  0  0  0
   -0.7300   28.2490  -24.7600 C   0  0  0  0  0  0  0  0  0  0  0  0
   -0.1608   28.8553  -25.4800 H   0  0  0  0  0  0  0  0  0  0  0  0
   -1.4816   28.8412  -24.2174 H   0  0  0  0  0  0  0  0  0  0  0  0
   -1.4910   27.1530  -25.5380 C   0  0  0  0  0  0  0  0  0  0  0  0
   -1.6803   27.5005  -26.5644 H   0  0  0  0  0  0  0  0  0  0  0  0
   -2.4449   26.9477  -25.0301 H   0  0  0  0  0  0  0  0  0  0  0  0
   -5.2780   24.3990  -29.7390 C   0  0  0  0  0  0  0  0  0  0  0  0
   -5.4480   25.1848  -28.9882 H   0  0  0  0  0  0  0  0  0  0  0  0
   -6.3420   23.6100  -30.1810 C   0  0  0  0  0  0  0  0  0  0  0  0
   -7.3506   23.7767  -29.7750 H   0  0  0  0  0  0  0  0  0  0  0  0
   -6.1330   22.6000  -31.1450 C   0  0  0  0  0  0  0  0  0  0  0  0
   -7.8070   19.9250  -33.1370 C   0  0  0  0  0  0  0  0  0  0  0  0
   -7.5323   19.1690  -33.8873 H   0  0  0  0  0  0  0  0  0  0  0  0
  1  2  1  0
  2  3  2  0
  3  4  1  0
  3  5  1  0
  5  6  1  0
  5  7  2  0
  7  8  1  0
  8  9  1  0
  9 10  2  0
 10 11  1  0
 10 12  1  0
 12 13  1  0
 13 14  1  0
 14 15  2  0
 15 16  1  0
 16 17  1  0
 16 18  1  0
 16 19  1  0
 19 20  1  0
 19 21  1  0
 19 22  1  0
 22 23  1  0
 22 24  1  0
 22 25  1  0
 25 26  1  0
 26 27  1  0
 26 28  1  0
 26 29  1  0
 29 30  1  0
 29 31  1  0
 29 32  1  0
 32 33  1  0
 32 34  1  0
 34 35  1  0
 34 36  1  0
 34 37  1  0
 37 38  1  0
 37 39  1  0
 37 40  1  0
 32 41  1  0
 41 42  1  0
 41 43  1  0
 41 44  1  0
 44 45  1  0
 44 46  1  0
 14 47  1  0
 47 48  1  0
 47 49  2  0
 49 50  1  0
 49 51  1  0
  8 52  2  0
 52 53  1  0
 52  2  1  0
 51  7  1  0
 51 12  2  0
 44 25  1  0
M  CHG  2  13  -1  32   1
M  END
>  <UniqueID>  (6) 
6

>  <SMILES>  (6) 
CC[NH+]1CCN(CCC/N=c2/ccc3c(cnc4ccccc43)[n-]2)CC1

>  <Energy>  (6) 
77.00224368491624

>  <Genealogy>  (6) 
CC[NH+]1CCN(CCCN=c2ccc3c(cnc4ccccc43)[n-]2)CC1 (protonated)
CC[NH+]1CCN(CCC/N=c2/ccc3c(cnc4ccccc43)[n-]2)CC1 (cis-trans isomerization)
CC[NH+]1CCN(CCC/N=c2/ccc3c(cnc4ccccc43)[n-]2)CC1 (3D coordinates assigned)
CC[NH+]1CCN(CCC/N=c2/ccc3c(cnc4ccccc43)[n-]2)CC1 (nonaromatic ring conformer: 77.00224368491624 kcal/mol)

>  <smiles>  (6) 
CCN1CCN(CCCN=c2ccc3c(cnc4ccccc43)[nH]2)CC1

>  <score_type>  (6) 
oracle

>  <origin>  (6) 
adg

>  <m_score__min__energy>  (6) 
-10.77

>  <m_primary>  (6) 
energy

$$$$
6:0
     RDKit          3D

 47 49  0  0  0  0  0  0  0  0999 V2000
   -9.0650   20.3080  -31.9730 C   0  0  0  0  0  0  0  0  0  0  0  0
   -7.8300   21.1970  -32.1020 C   0  0  0  0  0  0  0  0  0  0  0  0
   -8.0810   22.6450  -31.6480 C   0  0  0  0  0  0  0  0  0  0  0  0
   -7.0450   23.6520  -32.1930 C   0  0  0  0  0  0  0  0  0  0  0  0
   -6.0630   24.1180  -31.1070 C   0  0  0  0  0  0  0  0  0  0  0  0
   -5.6490   22.9900  -30.1410 C   0  0  0  0  0  0  0  0  0  0  0  0
   -4.1340   22.9170  -29.9400 C   0  0  0  0  0  0  0  0  0  0  0  0
   -3.5080   23.5240  -28.8050 C   0  0  0  0  0  0  0  0  0  0  0  0
   -4.2280   24.1670  -27.7710 C   0  0  0  0  0  0  0  0  0  0  0  0
   -3.5670   24.7530  -26.6890 C   0  0  0  0  0  0  0  0  0  0  0  0
   -2.1700   24.7170  -26.5950 C   0  0  0  0  0  0  0  0  0  0  0  0
   -1.4940   25.3260  -25.4750 N   0  0  0  0  0  0  0  0  0  0  0  0
   -1.6500   26.5850  -25.0130 C   0  0  0  0  0  0  0  0  0  0  0  0
   -0.8170   26.7570  -23.9290 C   0  0  0  0  0  0  0  0  0  0  0  0
   -0.1450   25.6110  -23.7180 N   0  0  0  0  0  0  0  0  0  0  0  0
   -0.5720   24.7580  -24.6670 C   0  0  0  0  0  0  0  0  0  0  0  0
   -1.4430   24.0750  -27.6070 C   0  0  0  0  0  0  0  0  0  0  0  0
   -2.0970   23.4820  -28.6980 C   0  0  0  0  0  0  0  0  0  0  0  0
   -1.3470   22.8420  -29.6800 C   0  0  0  0  0  0  0  0  0  0  0  0
   -1.9850   22.2440  -30.7550 C   0  0  0  0  0  0  0  0  0  0  0  0
   -3.3450   22.2830  -30.8880 N   0  0  0  0  0  0  0  0  0  0  0  0
   -3.9280   21.5680  -32.0370 C   0  0  0  0  0  0  0  0  0  0  0  0
   -9.2904   20.1457  -30.9086 H   0  0  0  0  0  0  0  0  0  0  0  0
   -9.9218   20.7979  -32.4587 H   0  0  0  0  0  0  0  0  0  0  0  0
   -8.8724   19.3400  -32.4587 H   0  0  0  0  0  0  0  0  0  0  0  0
   -7.0254   20.7707  -31.4848 H   0  0  0  0  0  0  0  0  0  0  0  0
   -7.5577   21.2290  -33.1673 H   0  0  0  0  0  0  0  0  0  0  0  0
   -9.0790   22.9504  -31.9955 H   0  0  0  0  0  0  0  0  0  0  0  0
   -7.9978   22.6583  -30.5512 H   0  0  0  0  0  0  0  0  0  0  0  0
   -6.4761   23.1719  -33.0029 H   0  0  0  0  0  0  0  0  0  0  0  0
   -7.5908   24.5351  -32.5568 H   0  0  0  0  0  0  0  0  0  0  0  0
   -5.1589   24.5086  -31.5969 H   0  0  0  0  0  0  0  0  0  0  0  0
   -6.5745   24.8884  -30.5113 H   0  0  0  0  0  0  0  0  0  0  0  0
   -6.1260   23.1679  -29.1659 H   0  0  0  0  0  0  0  0  0  0  0  0
   -5.9738   22.0362  -30.5823 H   0  0  0  0  0  0  0  0  0  0  0  0
   -5.3262   24.2062  -27.8198 H   0  0  0  0  0  0  0  0  0  0  0  0
   -4.1514   25.2494  -25.9002 H   0  0  0  0  0  0  0  0  0  0  0  0
   -2.3271   27.3445  -25.4310 H   0  0  0  0  0  0  0  0  0  0  0  0
   -0.7180   27.6777  -23.3353 H   0  0  0  0  0  0  0  0  0  0  0  0
    0.5630   25.4240  -22.9740 H   0  0  0  0  0  0  0  0  0  0  0  0
   -0.2138   23.7233  -24.7723 H   0  0  0  0  0  0  0  0  0  0  0  0
   -0.3454   24.0355  -27.5452 H   0  0  0  0  0  0  0  0  0  0  0  0
   -0.2501   22.8109  -29.6031 H   0  0  0  0  0  0  0  0  0  0  0  0
   -1.3842   21.7268  -31.5177 H   0  0  0  0  0  0  0  0  0  0  0  0
   -4.5841   20.7633  -31.6736 H   0  0  0  0  0  0  0  0  0  0  0  0
   -4.5136   22.2710  -32.6476 H   0  0  0  0  0  0  0  0  0  0  0  0
   -3.1215   21.1359  -32.6476 H   0  0  0  0  0  0  0  0  0  0  0  0
  1  2  1  0
  2  3  1  0
  3  4  1  0
  4  5  1  0
  5  6  1  0
  6  7  1  0
  7  8  2  0
  8  9  1  0
  9 10  2  0
 10 11  1  0
 11 12  1  0
 12 13  1  0
 13 14  2  0
 14 15  1  0
 15 16  2  0
 11 17  2  0
 17 18  1  0
 18 19  2  0
 19 20  1  0
 20 21  2  0
 21 22  1  0
 21  7  1  0
 18  8  1  0
 16 12  1  0
  1 23  1  0
  1 24  1  0
  1 25  1  0
  2 26  1  0
  2 27  1  0
  3 28  1  0
  3 29  1  0
  4 30  1  0
  4 31  1  0
  5 32  1  0
  5 33  1  0
  6 34  1  0
  6 35  1  0
  9 36  1  0
 10 37  1  0
 13 38  1  0
 14 39  1  0
 15 40  1  0
 16 41  1  0
 17 42  1  0
 19 43  1  0
 20 44  1  0
 22 45  1  0
 22 46  1  0
 22 47  1  0
M  CHG  2  15   1  21   1
M  END
>  <UniqueID>  (7) 
7

>  <SMILES>  (7) 
CCCCCCc1c2ccc(-n3cc[nH+]c3)cc2cc[n+]1C

>  <Energy>  (7) 
86.98984412353846

>  <Genealogy>  (7) 
CCCCCCc1c2ccc(-n3cc[nH+]c3)cc2cc[n+]1C (protonated)
CCCCCCc1c2ccc(-n3cc[nH+]c3)cc2cc[n+]1C (3D coordinates assigned)
CCCCCCc1c2ccc(-n3cc[nH+]c3)cc2cc[n+]1C (optimized conformer: 86.98984412353846 kcal/mol)

>  <smiles>  (7) 
CCCCCCc1c2ccc(-n3ccnc3)cc2cc[n+]1C

>  <score_type>  (7) 
oracle

>  <origin>  (7) 
adg

>  <m_score__min__energy>  (7) 
-6.7000000000000002

>  <m_primary>  (7) 
energy

$$$$
7:0
     RDKit          3D

 19 19  0  0  0  0  0  0  0  0999 V2000
   -6.1790   17.3820  -31.5580 C   0  0  0  0  0  0  0  0  0  0  0  0
   -7.1580   17.9910  -31.9110 C   0  0  0  0  0  0  0  0  0  0  0  0
   -8.3520   18.7340  -32.3440 C   0  0  0  0  0  0  0  0  0  0  0  0
   -8.0130   19.7870  -33.3150 N   0  0  0  0  0  0  0  0  0  0  0  0
   -7.4970   20.9640  -32.6550 C   0  0  0  0  0  0  0  0  0  0  0  0
   -8.3500   21.8080  -31.9250 C   0  0  0  0  0  0  0  0  0  0  0  0
   -7.8370   22.9300  -31.2740 C   0  0  0  0  0  0  0  0  0  0  0  0
   -6.4680   23.2010  -31.3530 C   0  0  0  0  0  0  0  0  0  0  0  0
   -5.7370   24.7260  -30.4720 Br  0  0  0  0  0  0  0  0  0  0  0  0
   -5.6520   22.3730  -32.0560 N   0  0  0  0  0  0  0  0  0  0  0  0
   -6.1270   21.2740  -32.7000 C   0  0  0  0  0  0  0  0  0  0  0  0
   -5.2859   16.8264  -31.2360 H   0  0  0  0  0  0  0  0  0  0  0  0
   -9.0591   18.0324  -32.8107 H   0  0  0  0  0  0  0  0  0  0  0  0
   -8.7986   19.2124  -31.4599 H   0  0  0  0  0  0  0  0  0  0  0  0
   -7.3210   19.4240  -34.0130 H   0  0  0  0  0  0  0  0  0  0  0  0
   -8.8770   20.0460  -33.8440 H   0  0  0  0  0  0  0  0  0  0  0  0
   -9.4253   21.5836  -31.8665 H   0  0  0  0  0  0  0  0  0  0  0  0
   -8.5030   23.5947  -30.7043 H   0  0  0  0  0  0  0  0  0  0  0  0
   -5.4364   20.6250  -33.2584 H   0  0  0  0  0  0  0  0  0  0  0  0
  1  2  3  0
  2  3  1  0
  3  4  1  0
  4  5  1  0
  5  6  2  0
  6  7  1  0
  7  8  2  0
  8  9  1  0
  8 10  1  0
 10 11  2  0
 11  5  1  0
  1 12  1  0
  3 13  1  0
  3 14  1  0
  4 15  1  0
  4 16  1  0
  6 17  1  0
  7 18  1  0
 11 19  1  0
M  CHG  1   4   1
M  END
>  <UniqueID>  (8) 
8

>  <SMILES>  (8) 
C#CC[NH2+]c1ccc(Br)nc1

>  <Energy>  (8) 
17.07221476141973

>  <Genealogy>  (8) 
C#CC[NH2+]c1ccc(Br)nc1 (protonated)
C#CC[NH2+]c1ccc(Br)nc1 (3D coordinates assigned)
C#CC[NH2+]c1ccc(Br)nc1 (optimized conformer: 17.07221476141973 kcal/mol)

>  <smiles>  (8) 
C#CCNc1ccc(Br)nc1

>  <score_type>  (8) 
oracle

>  <origin>  (8) 
adg

>  <m_score__min__energy>  (8) 
-4.7599999999999998

>  <m_primary>  (8) 
energy

$$$$
8:0
     RDKit          3D

 41 44  0  0  0  0  0  0  0  0999 V2000
   -9.0550   18.5530  -31.5880 C   0  0  0  0  0  0  0  0  0  0  0  0
   -8.9910   19.6940  -32.5980 C   0  0  0  0  0  0  0  0  0  0  0  0
   -7.6280   20.2200  -32.6850 N   0  0  0  0  0  0  0  0  0  0  0  0
   -6.6320   19.7220  -33.4550 C   0  0  0  0  0  0  0  0  0  0  0  0
   -5.4500   20.4230  -33.2410 C   0  0  0  0  0  0  0  0  0  0  0  0
   -5.7590   21.3740  -32.2920 C   0  0  0  0  0  0  0  0  0  0  0  0
   -4.9560   22.3370  -31.6860 C   0  0  0  0  0  0  0  0  0  0  0  0
   -5.5430   23.1750  -30.7170 C   0  0  0  0  0  0  0  0  0  0  0  0
   -4.5650   24.3840  -29.8920 S   0  0  0  0  0  0  0  0  0  0  0  0
   -4.2510   25.5050  -30.8420 O   0  0  0  0  0  0  0  0  0  0  0  0
   -5.3310   24.9320  -28.7210 O   0  0  0  0  0  0  0  0  0  0  0  0
   -3.0910   23.6620  -29.3370 N   0  0  0  0  0  0  0  0  0  0  0  0
   -2.3330   22.6470  -30.0650 C   0  0  0  0  0  0  0  0  0  0  0  0
   -1.1070   22.3200  -29.1780 C   0  0  0  0  0  0  0  0  0  0  0  0
   -1.2880   23.2070  -27.9940 C   0  0  0  0  0  0  0  0  0  0  0  0
   -0.4680   23.3270  -26.8710 C   0  0  0  0  0  0  0  0  0  0  0  0
   -0.8370   24.2360  -25.8660 C   0  0  0  0  0  0  0  0  0  0  0  0
   -2.0100   25.0040  -26.0000 C   0  0  0  0  0  0  0  0  0  0  0  0
   -2.8200   24.8660  -27.1390 C   0  0  0  0  0  0  0  0  0  0  0  0
   -2.4270   23.9530  -28.1230 C   0  0  0  0  0  0  0  0  0  0  0  0
   -6.9070   23.0140  -30.3760 C   0  0  0  0  0  0  0  0  0  0  0  0
   -7.6930   22.0320  -31.0050 C   0  0  0  0  0  0  0  0  0  0  0  0
   -7.0830   21.2250  -31.9690 C   0  0  0  0  0  0  0  0  0  0  0  0
   -9.0319   18.9644  -30.5681 H   0  0  0  0  0  0  0  0  0  0  0  0
   -9.9864   17.9861  -31.7337 H   0  0  0  0  0  0  0  0  0  0  0  0
   -8.1929   17.8855  -31.7337 H   0  0  0  0  0  0  0  0  0  0  0  0
   -9.3000   19.3218  -33.5859 H   0  0  0  0  0  0  0  0  0  0  0  0
   -9.6650   20.4994  -32.2709 H   0  0  0  0  0  0  0  0  0  0  0  0
   -6.7424   18.8794  -34.1534 H   0  0  0  0  0  0  0  0  0  0  0  0
   -4.4768   20.2546  -33.7253 H   0  0  0  0  0  0  0  0  0  0  0  0
   -3.8946   22.4405  -31.9558 H   0  0  0  0  0  0  0  0  0  0  0  0
   -2.9465   21.7468  -30.2176 H   0  0  0  0  0  0  0  0  0  0  0  0
   -2.0293   23.0044  -31.0600 H   0  0  0  0  0  0  0  0  0  0  0  0
   -1.1085   21.2611  -28.8800 H   0  0  0  0  0  0  0  0  0  0  0  0
   -0.1492   22.4836  -29.6936 H   0  0  0  0  0  0  0  0  0  0  0  0
    0.4465   22.7233  -26.7752 H   0  0  0  0  0  0  0  0  0  0  0  0
   -0.2076   24.3486  -24.9709 H   0  0  0  0  0  0  0  0  0  0  0  0
   -2.2928   25.7147  -25.2095 H   0  0  0  0  0  0  0  0  0  0  0  0
   -3.7387   25.4599  -27.2541 H   0  0  0  0  0  0  0  0  0  0  0  0
   -7.3571   23.6637  -29.6110 H   0  0  0  0  0  0  0  0  0  0  0  0
   -8.7544   21.9032  -30.7463 H   0  0  0  0  0  0  0  0  0  0  0  0
  1  2  1  0
  2  3  1  0
  3  4  1  0
  4  5  2  0
  5  6  1  0
  6  7  2  0
  7  8  1  0
  8  9  1  0
  9 10  2  0
  9 11  2  0
  9 12  1  0
 12 13  1  0
 13 14  1  0
 14 15  1  0
 15 16  2  0
 16 17  1  0
 17 18  2  0
 18 19  1  0
 19 20  2  0
  8 21  2  0
 21 22  1  0
 22 23  2  0
 23  3  1  0
 23  6  1  0
 20 12  1  0
 20 15  1  0
  1 24  1  0
  1 25  1  0
  1 26  1  0
  2 27  1  0
  2 28  1  0
  4 29  1  0
  5 30  1  0
  7 31  1  0
 13 32  1  0
 13 33  1  0
 14 34  1  0
 14 35  1  0
 16 36  1  0
 17 37  1  0
 18 38  1  0
 19 39  1  0
 21 40  1  0
 22 41  1  0
M  END
>  <UniqueID>  (9) 
9

>  <SMILES>  (9) 
CCn1ccc2cc(S(=O)(=O)N3CCc4ccccc43)ccc21

>  <Energy>  (9) 
90.3301387152004

>  <Genealogy>  (9) 
CCn1ccc2cc(S(=O)(=O)N3CCc4ccccc43)ccc21 (3D coordinates assigned)
CCn1ccc2cc(S(=O)(=O)N3CCc4ccccc43)ccc21 (nonaromatic ring conformer: 90.3301387152004 kcal/mol)

>  <smiles>  (9) 
CCn1ccc2cc(S(=O)(=O)N3CCc4ccccc43)ccc21

>  <score_type>  (9) 
oracle

>  <origin>  (9) 
adg

>  <m_score__min__energy>  (9) 
-9.0600000000000005

>  <m_primary>  (9) 
energy

$$$$
9:0
     RDKit          3D

 15 16  0  0  0  0  0  0  0  0999 V2000
   -6.3760   23.6420  -30.4290 C   0  0  0  0  0  0  0  0  0  0  0  0
   -5.7770   24.6870  -31.1700 C   0  0  0  0  0  0  0  0  0  0  0  0
   -4.5340   25.1500  -30.8400 N   0  0  0  0  0  0  0  0  0  0  0  0
   -3.8830   24.5910  -29.7890 C   0  0  0  0  0  0  0  0  0  0  0  0
   -2.6650   24.9280  -29.3390 N   0  0  0  0  0  0  0  0  0  0  0  0
   -2.4330   24.1100  -28.2850 C   0  0  0  0  0  0  0  0  0  0  0  0
   -3.5130   23.2530  -28.0730 C   0  0  0  0  0  0  0  0  0  0  0  0
   -4.4270   23.5810  -29.0480 C   0  0  0  0  0  0  0  0  0  0  0  0
   -5.6890   23.0740  -29.3420 C   0  0  0  0  0  0  0  0  0  0  0  0
   -7.3762   23.2748  -30.7023 H   0  0  0  0  0  0  0  0  0  0  0  0
   -6.3163   25.1312  -32.0196 H   0  0  0  0  0  0  0  0  0  0  0  0
   -2.0300   25.6640  -29.7180 H   0  0  0  0  0  0  0  0  0  0  0  0
   -1.5160   24.1200  -27.6776 H   0  0  0  0  0  0  0  0  0  0  0  0
   -3.6125   22.4819  -27.2949 H   0  0  0  0  0  0  0  0  0  0  0  0
   -6.1315   22.2611  -28.7475 H   0  0  0  0  0  0  0  0  0  0  0  0
  1  2  2  0
  2  3  1  0
  3  4  2  0
  4  5  1  0
  5  6  1  0
  6  7  2  0
  7  8  1  0
  8  9  2  0
  9  1  1  0
  8  4  1  0
  1 10  1  0
  2 11  1  0
  5 12  1  0
  6 13  1  0
  7 14  1  0
  9 15  1  0
M  END
>  <UniqueID>  (10) 
10

>  <SMILES>  (10) 
c1cnc2[nH]ccc2c1

>  <Energy>  (10) 
50.214820963978724

>  <Genealogy>  (10) 
c1cnc2[nH]ccc2c1 (3D coordinates assigned)
c1cnc2[nH]ccc2c1 (optimized conformer: 50.214820963978724 kcal/mol)

>  <smiles>  (10) 
c1cnc2[nH]ccc2c1

>  <score_type>  (10) 
oracle

>  <origin>  (10) 
adg

>  <m_score__min__energy>  (10) 
-5.1699999999999999

>  <m_primary>  (10) 
energy

$$$$
10:0
     RDKit          3D

 37 39  0  0  0  0  0  0  0  0999 V2000
   -3.8150   19.9760  -32.5320 C   0  0  0  0  0  0  0  0  0  0  0  0
   -4.4770   19.7780  -33.7750 O   0  0  0  0  0  0  0  0  0  0  0  0
   -5.8040   19.3420  -33.8640 C   0  0  0  0  0  0  0  0  0  0  0  0
   -6.1030   18.3820  -34.6250 O   0  0  0  0  0  0  0  0  0  0  0  0
   -6.8540   20.0090  -33.0610 C   0  0  0  0  0  0  0  0  0  0  0  0
   -7.9840   19.2950  -32.6230 C   0  0  0  0  0  0  0  0  0  0  0  0
   -8.9660   19.9270  -31.8550 C   0  0  0  0  0  0  0  0  0  0  0  0
   -8.8350   21.2760  -31.5200 C   0  0  0  0  0  0  0  0  0  0  0  0
   -7.7230   22.0080  -31.9610 C   0  0  0  0  0  0  0  0  0  0  0  0
   -7.5590   23.4490  -31.5620 C   0  0  0  0  0  0  0  0  0  0  0  0
   -6.2080   23.6710  -31.0600 N   0  0  0  0  0  0  0  0  0  0  0  0
   -5.6520   23.1070  -29.9750 C   0  0  0  0  0  0  0  0  0  0  0  0
   -4.3990   23.6780  -29.8450 C   0  0  0  0  0  0  0  0  0  0  0  0
   -3.3820   23.4050  -28.8030 C   0  0  0  0  0  0  0  0  0  0  0  0
   -2.7240   24.4530  -28.1310 C   0  0  0  0  0  0  0  0  0  0  0  0
   -1.7660   24.1750  -27.1510 C   0  0  0  0  0  0  0  0  0  0  0  0
   -1.4540   22.8520  -26.8300 C   0  0  0  0  0  0  0  0  0  0  0  0
   -2.0990   21.8040  -27.4890 C   0  0  0  0  0  0  0  0  0  0  0  0
   -3.0580   22.0760  -28.4700 C   0  0  0  0  0  0  0  0  0  0  0  0
   -4.2440   24.5720  -30.8450 N   0  0  0  0  0  0  0  0  0  0  0  0
   -5.3580   24.5520  -31.5630 N   0  0  0  0  0  0  0  0  0  0  0  0
   -6.7300   21.3680  -32.7200 C   0  0  0  0  0  0  0  0  0  0  0  0
   -4.5128   19.7673  -31.7076 H   0  0  0  0  0  0  0  0  0  0  0  0
   -2.9527   19.2964  -32.4635 H   0  0  0  0  0  0  0  0  0  0  0  0
   -3.4675   21.0174  -32.4635 H   0  0  0  0  0  0  0  0  0  0  0  0
   -8.0955   18.2329  -32.8865 H   0  0  0  0  0  0  0  0  0  0  0  0
   -9.8445   19.3599  -31.5136 H   0  0  0  0  0  0  0  0  0  0  0  0
   -9.6065   21.7663  -30.9082 H   0  0  0  0  0  0  0  0  0  0  0  0
   -7.7340   24.0925  -32.4368 H   0  0  0  0  0  0  0  0  0  0  0  0
   -8.2849   23.6924  -30.7722 H   0  0  0  0  0  0  0  0  0  0  0  0
   -6.1023   22.3450  -29.3219 H   0  0  0  0  0  0  0  0  0  0  0  0
   -2.9652   25.4973  -28.3786 H   0  0  0  0  0  0  0  0  0  0  0  0
   -1.2569   25.0003  -26.6317 H   0  0  0  0  0  0  0  0  0  0  0  0
   -0.7004   22.6360  -26.0583 H   0  0  0  0  0  0  0  0  0  0  0  0
   -1.8525   20.7622  -27.2362 H   0  0  0  0  0  0  0  0  0  0  0  0
   -3.5628   21.2455  -28.9852 H   0  0  0  0  0  0  0  0  0  0  0  0
   -5.8471   21.9346  -33.0509 H   0  0  0  0  0  0  0  0  0  0  0  0
  1  2  1  0
  2  3  1  0
  3  4  2  0
  3  5  1  0
  5  6  2  0
  6  7  1  0
  7  8  2  0
  8  9  1  0
  9 10  1  0
 10 11  1  0
 11 12  1  0
 12 13  2  0
 13 14  1  0
 14 15  2  0
 15 16  1  0
 16 17  2  0
 17 18  1  0
 18 19  2  0
 13 20  1  0
 20 21  2  0
  9 22  2  0
 22  5  1  0
 21 11  1  0
 19 14  1  0
  1 23  1  0
  1 24  1  0
  1 25  1  0
  6 26  1  0
  7 27  1  0
  8 28  1  0
 10 29  1  0
 10 30  1  0
 12 31  1  0
 15 32  1  0
 16 33  1  0
 17 34  1  0
 18 35  1  0
 19 36  1  0
 22 37  1  0
M  END
>  <UniqueID>  (11) 
11

>  <SMILES>  (11) 
COC(=O)c1cccc(Cn2cc(-c3ccccc3)nn2)c1

>  <Energy>  (11) 
72.16872769746257

>  <Genealogy>  (11) 
COC(=O)c1cccc(Cn2cc(-c3ccccc3)nn2)c1 (3D coordinates assigned)
COC(=O)c1cccc(Cn2cc(-c3ccccc3)nn2)c1 (optimized conformer: 72.16872769746257 kcal/mol)

>  <smiles>  (11) 
COC(=O)c1cccc(Cn2cc(-c3ccccc3)nn2)c1

>  <score_type>  (11) 
oracle

>  <origin>  (11) 
adg

>  <m_score__min__energy>  (11) 
-8.4299999999999997

>  <m_primary>  (11) 
energy

$$$$
11:0
     RDKit          3D

 50 52  0  0  0  0  0  0  0  0999 V2000
   -9.1050   18.5690  -31.9850 C   0  0  0  0  0  0  0  0  0  0  0  0
   -8.9680   19.8570  -32.5770 O   0  0  0  0  0  0  0  0  0  0  0  0
   -7.9960   20.7990  -32.2090 C   0  0  0  0  0  0  0  0  0  0  0  0
   -8.3510   21.8000  -31.3010 C   0  0  0  0  0  0  0  0  0  0  0  0
   -7.4190   22.7620  -30.9030 C   0  0  0  0  0  0  0  0  0  0  0  0
   -6.1020   22.7460  -31.4020 C   0  0  0  0  0  0  0  0  0  0  0  0
   -5.1380   23.7990  -30.9520 C   0  0  0  0  0  0  0  0  0  0  0  0
   -5.1040   24.8910  -31.5840 O   0  0  0  0  0  0  0  0  0  0  0  0
   -4.1820   23.6480  -29.7820 C   0  0  0  0  0  0  0  0  0  0  0  0
   -4.5740   24.5410  -28.5860 C   0  0  0  0  0  0  0  0  0  0  0  0
   -3.8180   24.2290  -27.2730 C   0  0  0  0  0  0  0  0  0  0  0  0
   -2.8510   23.1110  -27.3620 N   0  0  0  0  0  0  0  0  0  0  0  0
   -1.4710   23.3600  -27.9000 C   0  0  2  0  0  0  0  0  0  0  0  0
   -0.4110   22.8800  -26.8600 C   0  0  0  0  0  0  0  0  0  0  0  0
    0.0320   23.9600  -25.8470 C   0  0  0  0  0  0  0  0  0  0  0  0
   -0.9680   25.1140  -25.7410 C   0  0  0  0  0  0  0  0  0  0  0  0
   -1.1430   25.8160  -27.0960 C   0  0  0  0  0  0  0  0  0  0  0  0
   -1.1250   24.8320  -28.2920 C   0  0  2  0  0  0  0  0  0  0  0  0
   -1.9290   25.3100  -29.3390 O   0  0  0  0  0  0  0  0  0  0  0  0
   -3.5170   21.9350  -27.9690 C   0  0  0  0  0  0  0  0  0  0  0  0
   -3.9210   22.1640  -29.4360 C   0  0  0  0  0  0  0  0  0  0  0  0
   -5.7520   21.7330  -32.3210 C   0  0  0  0  0  0  0  0  0  0  0  0
   -6.6870   20.7710  -32.7170 C   0  0  0  0  0  0  0  0  0  0  0  0
   -9.0947   18.6661  -30.8893 H   0  0  0  0  0  0  0  0  0  0  0  0
  -10.0562   18.1180  -32.3042 H   0  0  0  0  0  0  0  0  0  0  0  0
   -8.2700   17.9280  -32.3042 H   0  0  0  0  0  0  0  0  0  0  0  0
   -9.3732   21.8310  -30.8959 H   0  0  0  0  0  0  0  0  0  0  0  0
   -7.7184   23.5436  -30.1892 H   0  0  0  0  0  0  0  0  0  0  0  0
   -3.2010   24.0347  -30.0953 H   0  0  0  0  0  0  0  0  0  0  0  0
   -4.3710   25.5873  -28.8582 H   0  0  0  0  0  0  0  0  0  0  0  0
   -5.6379   24.3450  -28.3867 H   0  0  0  0  0  0  0  0  0  0  0  0
   -3.2686   25.1331  -26.9717 H   0  0  0  0  0  0  0  0  0  0  0  0
   -4.5809   23.9203  -26.5431 H   0  0  0  0  0  0  0  0  0  0  0  0
   -1.4490   22.7899  -28.8405 H   0  0  0  0  0  0  0  0  0  0  0  0
   -0.8394   22.0373  -26.2976 H   0  0  0  0  0  0  0  0  0  0  0  0
    0.4860   22.6044  -27.4339 H   0  0  0  0  0  0  0  0  0  0  0  0
    0.1365   23.4924  -24.8568 H   0  0  0  0  0  0  0  0  0  0  0  0
    0.9859   24.3776  -26.2015 H   0  0  0  0  0  0  0  0  0  0  0  0
   -1.9404   24.7185  -25.4124 H   0  0  0  0  0  0  0  0  0  0  0  0
   -0.5842   25.8451  -25.0142 H   0  0  0  0  0  0  0  0  0  0  0  0
   -2.1058   26.3480  -27.0938 H   0  0  0  0  0  0  0  0  0  0  0  0
   -0.2947   26.5047  -27.2227 H   0  0  0  0  0  0  0  0  0  0  0  0
   -0.0857   24.7889  -28.6498 H   0  0  0  0  0  0  0  0  0  0  0  0
   -1.5890   24.9000  -30.1770 H   0  0  0  0  0  0  0  0  0  0  0  0
   -2.8268   21.0796  -27.9249 H   0  0  0  0  0  0  0  0  0  0  0  0
   -4.4390   21.7482  -27.3989 H   0  0  0  0  0  0  0  0  0  0  0  0
   -3.1110   21.7937  -30.0816 H   0  0  0  0  0  0  0  0  0  0  0  0
   -4.8655   21.6241  -29.5984 H   0  0  0  0  0  0  0  0  0  0  0  0
   -4.7316   21.6999  -32.7306 H   0  0  0  0  0  0  0  0  0  0  0  0
   -6.3950   19.9871  -33.4313 H   0  0  0  0  0  0  0  0  0  0  0  0
  1  2  1  0
  2  3  1  0
  3  4  2  0
  4  5  1  0
  5  6  2  0
  6  7  1  0
  7  8  2  0
  7  9  1  0
  9 10  1  0
 10 11  1  0
 11 12  1  0
 12 13  1  0
 13 14  1  0
 14 15  1  0
 15 16  1  0
 16 17  1  0
 17 18  1  0
 18 19  1  0
 12 20  1  0
 20 21  1  0
  6 22  1  0
 22 23  2  0
 23  3  1  0
 21  9  1  0
 18 13  1  0
  1 24  1  0
  1 25  1  0
  1 26  1  0
  4 27  1  0
  5 28  1  0
  9 29  1  0
 10 30  1  0
 10 31  1  0
 11 32  1  0
 11 33  1  0
 13 34  1  6
 14 35  1  0
 14 36  1  0
 15 37  1  0
 15 38  1  0
 16 39  1  0
 16 40  1  0
 17 41  1  0
 17 42  1  0
 18 43  1  6
 19 44  1  0
 20 45  1  0
 20 46  1  0
 21 47  1  0
 21 48  1  0
 22 49  1  0
 23 50  1  0
M  END
>  <UniqueID>  (12) 
12

>  <SMILES>  (12) 
COc1ccc(C(=O)C2CCN([C@@H]3CCCC[C@@H]3O)CC2)cc1

>  <Energy>  (12) 
81.31801859001024

>  <Genealogy>  (12) 
COc1ccc(C(=O)C2CCN([C@@H]3CCCC[C@@H]3O)CC2)cc1 (chirality)
COc1ccc(C(=O)C2CCN([C@@H]3CCCC[C@@H]3O)CC2)cc1 (3D coordinates assigned)
COc1ccc(C(=O)C2CCN([C@@H]3CCCC[C@@H]3O)CC2)cc1 (nonaromatic ring conformer: 81.31801859001024 kcal/mol)

>  <smiles>  (12) 
COc1ccc(C(=O)C2CCN(C3CCCCC3O)CC2)cc1

>  <score_type>  (12) 
oracle

>  <origin>  (12) 
adg

>  <m_score__min__energy>  (12) 
-9.0600000000000005

>  <m_primary>  (12) 
energy

$$$$
12:0
     RDKit          3D

 35 37  0  0  0  0  0  0  0  0999 V2000
   -4.8030   17.7790  -34.8440 C   0  0  0  0  0  0  0  0  0  0  0  0
   -6.0880   18.3650  -34.2460 C   0  0  0  0  0  0  0  0  0  0  0  0
   -6.7900   17.3450  -33.3420 C   0  0  0  0  0  0  0  0  0  0  0  0
   -5.8050   19.6550  -33.4990 C   0  0  0  0  0  0  0  0  0  0  0  0
   -6.8540   20.3510  -32.8770 C   0  0  0  0  0  0  0  0  0  0  0  0
   -6.6070   21.5400  -32.1850 C   0  0  0  0  0  0  0  0  0  0  0  0
   -5.3030   22.0590  -32.0980 C   0  0  0  0  0  0  0  0  0  0  0  0
   -5.0280   23.3200  -31.3670 C   0  0  0  0  0  0  0  0  0  0  0  0
   -5.9110   24.2570  -31.0220 C   0  0  0  0  0  0  0  0  0  0  0  0
   -5.1440   25.2320  -30.1780 C   0  0  1  0  0  0  0  0  0  0  0  0
   -4.8870   24.5520  -28.8150 C   0  0  0  0  0  0  0  0  0  0  0  0
   -3.8590   23.4750  -29.2150 C   0  0  0  0  0  0  0  0  0  0  0  0
   -3.7320   23.7470  -30.7290 C   0  0  2  0  0  0  0  0  0  0  0  0
   -3.8440   25.1950  -30.8280 N   0  0  0  0  0  0  0  0  0  0  0  0
   -4.2540   21.3630  -32.7220 C   0  0  0  0  0  0  0  0  0  0  0  0
   -4.5010   20.1740  -33.4120 C   0  0  0  0  0  0  0  0  0  0  0  0
   -4.1279   17.4711  -34.0320 H   0  0  0  0  0  0  0  0  0  0  0  0
   -5.0524   16.9056  -35.4645 H   0  0  0  0  0  0  0  0  0  0  0  0
   -4.3071   18.5400  -35.4645 H   0  0  0  0  0  0  0  0  0  0  0  0
   -6.7684   18.6019  -35.0772 H   0  0  0  0  0  0  0  0  0  0  0  0
   -6.6112   17.6048  -32.2882 H   0  0  0  0  0  0  0  0  0  0  0  0
   -7.8711   17.3584  -33.5446 H   0  0  0  0  0  0  0  0  0  0  0  0
   -6.3914   16.3400  -33.5446 H   0  0  0  0  0  0  0  0  0  0  0  0
   -7.8794   19.9569  -32.9349 H   0  0  0  0  0  0  0  0  0  0  0  0
   -7.4398   22.0743  -31.7044 H   0  0  0  0  0  0  0  0  0  0  0  0
   -6.9749   24.3052  -31.2973 H   0  0  0  0  0  0  0  0  0  0  0  0
   -5.6274   26.2137  -30.0660 H   0  0  0  0  0  0  0  0  0  0  0  0
   -4.4683   25.2586  -28.0832 H   0  0  0  0  0  0  0  0  0  0  0  0
   -5.7904   24.1583  -28.3263 H   0  0  0  0  0  0  0  0  0  0  0  0
   -2.8998   23.6179  -28.6959 H   0  0  0  0  0  0  0  0  0  0  0  0
   -4.1533   22.4464  -28.9595 H   0  0  0  0  0  0  0  0  0  0  0  0
   -2.8356   23.2766  -31.1592 H   0  0  0  0  0  0  0  0  0  0  0  0
   -3.1130   25.6730  -30.2460 H   0  0  0  0  0  0  0  0  0  0  0  0
   -3.2289   21.7581  -32.6666 H   0  0  0  0  0  0  0  0  0  0  0  0
   -3.6681   19.6389  -33.8916 H   0  0  0  0  0  0  0  0  0  0  0  0
  1  2  1  0
  2  3  1  0
  2  4  1  0
  4  5  2  0
  5  6  1  0
  6  7  2  0
  7  8  1  0
  8  9  2  0
  9 10  1  0
 10 11  1  0
 11 12  1  0
 12 13  1  0
 13 14  1  0
  7 15  1  0
 15 16  2  0
 16  4  1  0
 13  8  1  0
 14 10  1  0
  1 17  1  0
  1 18  1  0
  1 19  1  0
  2 20  1  0
  3 21  1  0
  3 22  1  0
  3 23  1  0
  5 24  1  0
  6 25  1  0
  9 26  1  0
 10 27  1  1
 11 28  1  0
 11 29  1  0
 12 30  1  0
 12 31  1  0
 13 32  1  6
 14 33  1  0
 15 34  1  0
 16 35  1  0
M  END
>  <UniqueID>  (13) 
13

>  <SMILES>  (13) 
CC(C)c1ccc(C2=C[C@H]3CC[C@@H]2N3)cc1

>  <Energy>  (13) 
76.93260614727966

>  <Genealogy>  (13) 
CC(C)c1ccc(C2=C[C@H]3CC[C@@H]2N3)cc1 (chirality)
CC(C)c1ccc(C2=C[C@H]3CC[C@@H]2N3)cc1 (3D coordinates assigned)
CC(C)c1ccc(C2=C[C@H]3CC[C@@H]2N3)cc1 (nonaromatic ring conformer: 76.93260614727966 kcal/mol)

>  <smiles>  (13) 
CC(C)c1ccc(C2=CC3CCC2N3)cc1

>  <score_type>  (13) 
oracle

>  <origin>  (13) 
adg

>  <m_score__min__energy>  (13) 
-8.1600000000000001

>  <m_primary>  (13) 
energy

$$$$
13:0
     RDKit          3D

 36 38  0  0  0  0  0  0  0  0999 V2000
   -5.2860   25.1040  -30.3160 C   0  0  0  0  0  0  0  0  0  0  0  0
   -3.8760   24.9830  -30.4710 O   0  0  0  0  0  0  0  0  0  0  0  0
   -3.0330   24.2750  -29.5980 C   0  0  0  0  0  0  0  0  0  0  0  0
   -2.0230   24.9210  -28.8570 C   0  0  0  0  0  0  0  0  0  0  0  0
   -1.1640   24.1820  -28.0400 C   0  0  0  0  0  0  0  0  0  0  0  0
   -1.2960   22.7950  -27.9580 C   0  0  0  0  0  0  0  0  0  0  0  0
   -2.2970   22.1440  -28.6810 C   0  0  0  0  0  0  0  0  0  0  0  0
   -3.1860   22.8760  -29.4820 C   0  0  0  0  0  0  0  0  0  0  0  0
   -4.2020   22.1750  -30.2140 N   0  0  0  0  0  0  0  0  0  0  0  0
   -4.0670   21.8250  -31.6000 C   0  0  0  0  0  0  0  0  0  0  0  0
   -3.1170   22.2970  -32.2840 O   0  0  0  0  0  0  0  0  0  0  0  0
   -5.0690   20.9530  -32.2530 C   0  0  0  0  0  0  0  0  0  0  0  0
   -4.6090   19.9100  -33.0730 C   0  0  0  0  0  0  0  0  0  0  0  0
   -5.5050   19.0280  -33.6760 C   0  0  0  0  0  0  0  0  0  0  0  0
   -6.8750   19.1690  -33.4720 C   0  0  0  0  0  0  0  0  0  0  0  0
   -7.3670   20.2080  -32.6700 C   0  0  0  0  0  0  0  0  0  0  0  0
   -8.7510   20.3530  -32.4830 C   0  0  0  0  0  0  0  0  0  0  0  0
   -9.2500   21.3990  -31.7060 C   0  0  0  0  0  0  0  0  0  0  0  0
   -8.3770   22.3130  -31.1180 C   0  0  0  0  0  0  0  0  0  0  0  0
   -6.9970   22.1810  -31.2900 C   0  0  0  0  0  0  0  0  0  0  0  0
   -6.4660   21.1190  -32.0550 C   0  0  0  0  0  0  0  0  0  0  0  0
   -5.5366   25.1255  -29.2452 H   0  0  0  0  0  0  0  0  0  0  0  0
   -5.6286   26.0348  -30.7915 H   0  0  0  0  0  0  0  0  0  0  0  0
   -5.7822   24.2451  -30.7915 H   0  0  0  0  0  0  0  0  0  0  0  0
   -1.9105   26.0133  -28.9224 H   0  0  0  0  0  0  0  0  0  0  0  0
   -0.3821   24.6942  -27.4602 H   0  0  0  0  0  0  0  0  0  0  0  0
   -0.6106   22.2143  -27.3231 H   0  0  0  0  0  0  0  0  0  0  0  0
   -2.3893   21.0495  -28.6222 H   0  0  0  0  0  0  0  0  0  0  0  0
   -5.1160   22.0020  -29.7380 H   0  0  0  0  0  0  0  0  0  0  0  0
   -3.5290   19.7873  -33.2417 H   0  0  0  0  0  0  0  0  0  0  0  0
   -5.1276   18.2169  -34.3160 H   0  0  0  0  0  0  0  0  0  0  0  0
   -7.5743   18.4620  -33.9422 H   0  0  0  0  0  0  0  0  0  0  0  0
   -9.4447   19.6390  -32.9510 H   0  0  0  0  0  0  0  0  0  0  0  0
  -10.3349   21.5027  -31.5571 H   0  0  0  0  0  0  0  0  0  0  0  0
   -8.7767   23.1421  -30.5157 H   0  0  0  0  0  0  0  0  0  0  0  0
   -6.3176   22.9108  -30.8254 H   0  0  0  0  0  0  0  0  0  0  0  0
  1  2  1  0
  2  3  1  0
  3  4  2  0
  4  5  1  0
  5  6  2  0
  6  7  1  0
  7  8  2  0
  8  9  1  0
  9 10  1  0
 10 11  2  0
 10 12  1  0
 12 13  2  0
 13 14  1  0
 14 15  2  0
 15 16  1  0
 16 17  2  0
 17 18  1  0
 18 19  2  0
 19 20  1  0
 20 21  2  0
  8  3  1  0
 21 12  1  0
 21 16  1  0
  1 22  1  0
  1 23  1  0
  1 24  1  0
  4 25  1  0
  5 26  1  0
  6 27  1  0
  7 28  1  0
  9 29  1  0
 13 30  1  0
 14 31  1  0
 15 32  1  0
 17 33  1  0
 18 34  1  0
 19 35  1  0
 20 36  1  0
M  END
>  <UniqueID>  (14) 
14

>  <SMILES>  (14) 
COc1ccccc1NC(=O)c1cccc2ccccc12

>  <Energy>  (14) 
53.12341481646829

>  <Genealogy>  (14) 
COc1ccccc1NC(=O)c1cccc2ccccc12 (3D coordinates assigned)
COc1ccccc1NC(=O)c1cccc2ccccc12 (optimized conformer: 53.12341481646829 kcal/mol)

>  <smiles>  (14) 
COc1ccccc1NC(=O)c1cccc2ccccc12

>  <score_type>  (14) 
oracle

>  <origin>  (14) 
adg

>  <m_score__min__energy>  (14) 
-8.9499999999999993

>  <m_primary>  (14) 
energy

$$$$
14:0
     RDKit          3D

 60 64  0  0  0  0  0  0  0  0999 V2000
    2.0770   24.5390  -27.7860 C   0  0  0  0  0  0  0  0  0  0  0  0
    0.7220   24.7580  -28.1720 O   0  0  0  0  0  0  0  0  0  0  0  0
   -0.3180   25.1500  -27.3140 C   0  0  0  0  0  0  0  0  0  0  0  0
   -0.1160   26.2210  -26.4170 C   0  0  0  0  0  0  0  0  0  0  0  0
   -1.1290   26.6450  -25.5680 C   0  0  0  0  0  0  0  0  0  0  0  0
   -2.3620   26.0080  -25.5850 C   0  0  0  0  0  0  0  0  0  0  0  0
   -2.5900   24.9460  -26.4570 C   0  0  0  0  0  0  0  0  0  0  0  0
   -1.5850   24.4810  -27.3490 C   0  0  0  0  0  0  0  0  0  0  0  0
   -1.8790   23.3730  -28.2730 N   0  0  0  0  0  0  0  0  0  0  0  0
   -2.8800   22.3490  -27.8600 C   0  0  0  0  0  0  0  0  0  0  0  0
   -3.1140   21.1990  -28.8560 C   0  0  0  0  0  0  0  0  0  0  0  0
   -2.8970   21.6420  -30.2330 N   0  0  0  0  0  0  0  0  0  0  0  0
   -3.3360   20.6590  -31.2500 C   0  0  0  0  0  0  0  0  0  0  0  0
   -3.0770   21.0720  -32.7200 C   0  0  0  0  0  0  0  0  0  0  0  0
   -4.2360   21.8850  -33.3210 C   0  0  0  0  0  0  0  0  0  0  0  0
   -5.3350   21.9990  -32.3490 N   0  0  0  0  0  0  0  0  0  0  0  0
   -5.5020   23.1830  -31.5420 C   0  0  0  0  0  0  0  0  0  0  0  0
   -4.4180   23.7430  -30.8450 C   0  0  0  0  0  0  0  0  0  0  0  0
   -4.6290   24.7820  -29.9300 C   0  0  0  0  0  0  0  0  0  0  0  0
   -5.9230   25.2470  -29.6830 C   0  0  0  0  0  0  0  0  0  0  0  0
   -7.0110   24.6880  -30.3630 C   0  0  0  0  0  0  0  0  0  0  0  0
   -6.8000   23.6700  -31.2980 C   0  0  0  0  0  0  0  0  0  0  0  0
   -8.1770   23.0190  -32.2510 S   0  0  0  0  0  0  0  0  0  0  0  0
   -7.6730   21.3110  -32.0150 C   0  0  0  0  0  0  0  0  0  0  0  0
   -8.6220   20.3350  -31.6970 C   0  0  0  0  0  0  0  0  0  0  0  0
   -8.2380   18.9940  -31.6000 C   0  0  0  0  0  0  0  0  0  0  0  0
   -6.9070   18.6280  -31.8240 C   0  0  0  0  0  0  0  0  0  0  0  0
   -5.9500   19.6050  -32.1180 C   0  0  0  0  0  0  0  0  0  0  0  0
   -6.3260   20.9570  -32.2120 C   0  0  0  0  0  0  0  0  0  0  0  0
   -1.5010   22.0590  -30.3850 C   0  0  0  0  0  0  0  0  0  0  0  0
   -1.3080   23.3710  -29.6390 C   0  0  0  0  0  0  0  0  0  0  0  0
    2.1483   24.5275  -26.6884 H   0  0  0  0  0  0  0  0  0  0  0  0
    2.4207   23.5736  -28.1859 H   0  0  0  0  0  0  0  0  0  0  0  0
    2.7073   25.3469  -28.1859 H   0  0  0  0  0  0  0  0  0  0  0  0
    0.8599   26.7278  -26.3904 H   0  0  0  0  0  0  0  0  0  0  0  0
   -0.9544   27.4864  -24.8813 H   0  0  0  0  0  0  0  0  0  0  0  0
   -3.1616   26.3428  -24.9078 H   0  0  0  0  0  0  0  0  0  0  0  0
   -3.5738   24.4539  -26.4555 H   0  0  0  0  0  0  0  0  0  0  0  0
   -2.5404   21.9091  -26.9107 H   0  0  0  0  0  0  0  0  0  0  0  0
   -3.8397   22.8819  -27.7891 H   0  0  0  0  0  0  0  0  0  0  0  0
   -2.4168   20.3792  -28.6283 H   0  0  0  0  0  0  0  0  0  0  0  0
   -4.1557   20.8592  -28.7586 H   0  0  0  0  0  0  0  0  0  0  0  0
   -2.8037   19.7147  -31.0628 H   0  0  0  0  0  0  0  0  0  0  0  0
   -4.4277   20.5761  -31.1437 H   0  0  0  0  0  0  0  0  0  0  0  0
   -2.1623   21.6819  -32.7583 H   0  0  0  0  0  0  0  0  0  0  0  0
   -2.9761   20.1500  -33.3114 H   0  0  0  0  0  0  0  0  0  0  0  0
   -3.8766   22.8912  -33.5826 H   0  0  0  0  0  0  0  0  0  0  0  0
   -4.6051   21.3719  -34.2213 H   0  0  0  0  0  0  0  0  0  0  0  0
   -3.4001   23.3640  -31.0187 H   0  0  0  0  0  0  0  0  0  0  0  0
   -3.7741   25.2329  -29.4047 H   0  0  0  0  0  0  0  0  0  0  0  0
   -6.0869   26.0535  -28.9531 H   0  0  0  0  0  0  0  0  0  0  0  0
   -8.0305   25.0489  -30.1622 H   0  0  0  0  0  0  0  0  0  0  0  0
   -9.6697   20.6217  -31.5233 H   0  0  0  0  0  0  0  0  0  0  0  0
   -8.9838   18.2260  -31.3472 H   0  0  0  0  0  0  0  0  0  0  0  0
   -6.6120   17.5697  -31.7689 H   0  0  0  0  0  0  0  0  0  0  0  0
   -4.9007   19.3151  -32.2761 H   0  0  0  0  0  0  0  0  0  0  0  0
   -0.8358   21.2908  -29.9639 H   0  0  0  0  0  0  0  0  0  0  0  0
   -1.2596   22.1907  -31.4501 H   0  0  0  0  0  0  0  0  0  0  0  0
   -0.2290   23.5714  -29.5638 H   0  0  0  0  0  0  0  0  0  0  0  0
   -1.8420   24.1449  -30.2099 H   0  0  0  0  0  0  0  0  0  0  0  0
  1  2  1  0
  2  3  1  0
  3  4  2  0
  4  5  1  0
  5  6  2  0
  6  7  1  0
  7  8  2  0
  8  9  1  0
  9 10  1  0
 10 11  1  0
 11 12  1  0
 12 13  1  0
 13 14  1  0
 14 15  1  0
 15 16  1  0
 16 17  1  0
 17 18  2  0
 18 19  1  0
 19 20  2  0
 20 21  1  0
 21 22  2  0
 22 23  1  0
 23 24  1  0
 24 25  2  0
 25 26  1  0
 26 27  2  0
 27 28  1  0
 28 29  2  0
 12 30  1  0
 30 31  1  0
  8  3  1  0
 31  9  1  0
 29 16  1  0
 22 17  1  0
 29 24  1  0
  1 32  1  0
  1 33  1  0
  1 34  1  0
  4 35  1  0
  5 36  1  0
  6 37  1  0
  7 38  1  0
 10 39  1  0
 10 40  1  0
 11 41  1  0
 11 42  1  0
 13 43  1  0
 13 44  1  0
 14 45  1  0
 14 46  1  0
 15 47  1  0
 15 48  1  0
 18 49  1  0
 19 50  1  0
 20 51  1  0
 21 52  1  0
 25 53  1  0
 26 54  1  0
 27 55  1  0
 28 56  1  0
 30 57  1  0
 30 58  1  0
 31 59  1  0
 31 60  1  0
M  END
>  <UniqueID>  (15) 
15

>  <SMILES>  (15) 
COc1ccccc1N1CCN(CCCN2c3ccccc3Sc3ccccc32)CC1

>  <Energy>  (15) 
98.7079525033966

>  <Genealogy>  (15) 
COc1ccccc1N1CCN(CCCN2c3ccccc3Sc3ccccc32)CC1 (3D coordinates assigned)
COc1ccccc1N1CCN(CCCN2c3ccccc3Sc3ccccc32)CC1 (nonaromatic ring conformer: 98.7079525033966 kcal/mol)

>  <smiles>  (15) 
COc1ccccc1N1CCN(CCCN2c3ccccc3Sc3ccccc32)CC1

>  <score_type>  (15) 
oracle

>  <origin>  (15) 
adg

>  <m_score__min__energy>  (15) 
-10.210000000000001

>  <m_primary>  (15) 
energy

$$$$
15:0
     RDKit          3D

 49 51  0  0  0  0  0  0  0  0999 V2000
   -9.3660   20.2190  -32.3380 C   0  0  0  0  0  0  0  0  0  0  0  0
   -8.8630   21.2300  -31.3110 C   0  0  0  0  0  0  0  0  0  0  0  0
   -8.3920   22.5440  -31.9530 C   0  0  0  0  0  0  0  0  0  0  0  0
   -6.9250   22.7040  -31.8470 N   0  0  0  0  0  0  0  0  0  0  0  0
   -6.0970   21.8960  -32.6030 C   0  0  0  0  0  0  0  0  0  0  0  0
   -6.6070   21.0640  -33.4080 O   0  0  0  0  0  0  0  0  0  0  0  0
   -4.7210   21.9800  -32.4930 N   0  0  0  0  0  0  0  0  0  0  0  0
   -3.8660   21.0410  -33.2550 C   0  0  0  0  0  0  0  0  0  0  0  0
   -3.9020   19.6190  -32.6440 C   0  0  0  0  0  0  0  0  0  0  0  0
   -5.2250   18.9450  -32.7850 N   0  0  2  0  0  0  0  0  0  0  0  0
   -5.8170   18.7210  -31.4290 C   0  0  0  0  0  0  0  0  0  0  0  0
   -6.8780   17.6040  -31.3740 C   0  0  0  0  0  0  0  0  0  0  0  0
   -7.5740   17.4490  -32.7170 C   0  0  0  0  0  0  0  0  0  0  0  0
   -6.5630   17.0830  -33.8080 C   0  0  0  0  0  0  0  0  0  0  0  0
   -5.1410   17.6600  -33.5460 C   0  0  1  0  0  0  0  0  0  0  0  0
   -4.4170   17.7850  -34.9060 C   0  0  0  0  0  0  0  0  0  0  0  0
   -4.1570   22.9120  -31.6580 C   0  0  0  0  0  0  0  0  0  0  0  0
   -2.9050   23.0390  -31.5640 O   0  0  0  0  0  0  0  0  0  0  0  0
   -4.9850   23.7240  -30.9060 C   0  0  0  0  0  0  0  0  0  0  0  0
   -4.5630   24.9060  -29.7910 S   0  0  0  0  0  0  0  0  0  0  0  0
   -6.1530   25.3010  -29.3880 C   0  0  0  0  0  0  0  0  0  0  0  0
   -7.0230   24.5060  -30.1290 C   0  0  0  0  0  0  0  0  0  0  0  0
   -6.3550   23.6130  -30.9930 C   0  0  0  0  0  0  0  0  0  0  0  0
   -9.7977   19.3514  -31.8175 H   0  0  0  0  0  0  0  0  0  0  0  0
  -10.1355   20.6886  -32.9683 H   0  0  0  0  0  0  0  0  0  0  0  0
   -8.5273   19.8884  -32.9683 H   0  0  0  0  0  0  0  0  0  0  0  0
   -9.6796   21.4544  -30.6090 H   0  0  0  0  0  0  0  0  0  0  0  0
   -7.9983   20.7817  -30.7998 H   0  0  0  0  0  0  0  0  0  0  0  0
   -8.6757   22.5444  -33.0158 H   0  0  0  0  0  0  0  0  0  0  0  0
   -8.8697   23.3792  -31.4199 H   0  0  0  0  0  0  0  0  0  0  0  0
   -4.2249   20.9931  -34.2937 H   0  0  0  0  0  0  0  0  0  0  0  0
   -2.8297   21.4078  -33.2158 H   0  0  0  0  0  0  0  0  0  0  0  0
   -3.1422   19.0039  -33.1483 H   0  0  0  0  0  0  0  0  0  0  0  0
   -3.7053   19.7242  -31.5669 H   0  0  0  0  0  0  0  0  0  0  0  0
   -5.8590   19.5850  -33.3220 H   0  0  0  0  0  0  0  0  0  0  0  0
   -5.0032   18.4568  -30.7377 H   0  0  0  0  0  0  0  0  0  0  0  0
   -6.3290   19.6543  -31.1519 H   0  0  0  0  0  0  0  0  0  0  0  0
   -6.3882   16.6549  -31.1107 H   0  0  0  0  0  0  0  0  0  0  0  0
   -7.6304   17.8714  -30.6174 H   0  0  0  0  0  0  0  0  0  0  0  0
   -8.3300   16.6534  -32.6429 H   0  0  0  0  0  0  0  0  0  0  0  0
   -8.0518   18.4038  -32.9816 H   0  0  0  0  0  0  0  0  0  0  0  0
   -6.4905   15.9868  -33.8637 H   0  0  0  0  0  0  0  0  0  0  0  0
   -6.9252   17.5220  -34.7493 H   0  0  0  0  0  0  0  0  0  0  0  0
   -4.5486   16.9871  -32.9085 H   0  0  0  0  0  0  0  0  0  0  0  0
   -3.3461   17.9699  -34.7357 H   0  0  0  0  0  0  0  0  0  0  0  0
   -4.5420   16.8520  -35.4751 H   0  0  0  0  0  0  0  0  0  0  0  0
   -4.8476   18.6221  -35.4751 H   0  0  0  0  0  0  0  0  0  0  0  0
   -6.4542   26.0651  -28.6562 H   0  0  0  0  0  0  0  0  0  0  0  0
   -8.1184   24.5678  -30.0491 H   0  0  0  0  0  0  0  0  0  0  0  0
  1  2  1  0
  2  3  1  0
  3  4  1  0
  4  5  1  0
  5  6  2  0
  5  7  1  0
  7  8  1  0
  8  9  1  0
  9 10  1  0
 10 11  1  0
 11 12  1  0
 12 13  1  0
 13 14  1  0
 14 15  1  0
 15 16  1  0
  7 17  1  0
 17 18  2  0
 17 19  1  0
 19 20  1  0
 20 21  1  0
 21 22  2  0
 22 23  1  0
 23  4  1  0
 15 10  1  0
 23 19  2  0
  1 24  1  0
  1 25  1  0
  1 26  1  0
  2 27  1  0
  2 28  1  0
  3 29  1  0
  3 30  1  0
  8 31  1  0
  8 32  1  0
  9 33  1  0
  9 34  1  0
 10 35  1  6
 11 36  1  0
 11 37  1  0
 12 38  1  0
 12 39  1  0
 13 40  1  0
 13 41  1  0
 14 42  1  0
 14 43  1  0
 15 44  1  1
 16 45  1  0
 16 46  1  0
 16 47  1  0
 21 48  1  0
 22 49  1  0
M  CHG  1  10   1
M  END
>  <UniqueID>  (16) 
16

>  <SMILES>  (16) 
CCCn1c(=O)n(CC[N@@H+]2CCCC[C@H]2C)c(=O)c2sccc21

>  <Energy>  (16) 
94.37316241351863

>  <Genealogy>  (16) 
CCCn1c(=O)n(CC[NH+]2CCCCC2C)c(=O)c2sccc21 (protonated)
CCCn1c(=O)n(CC[N@@H+]2CCCC[C@H]2C)c(=O)c2sccc21 (chirality)
CCCn1c(=O)n(CC[N@@H+]2CCCC[C@H]2C)c(=O)c2sccc21 (3D coordinates assigned)
CCCn1c(=O)n(CC[N@@H+]2CCCC[C@H]2C)c(=O)c2sccc21 (nonaromatic ring conformer: 94.37316241351863 kcal/mol)

>  <smiles>  (16) 
CCCn1c(=O)n(CCN2CCCCC2C)c(=O)c2sccc21

>  <score_type>  (16) 
oracle

>  <origin>  (16) 
adg

>  <m_score__min__energy>  (16) 
-7.2800000000000002

>  <m_primary>  (16) 
energy

$$$$
16:0
     RDKit          3D

 43 45  0  0  0  0  0  0  0  0999 V2000
   -6.1020   17.0780  -34.5500 C   0  0  0  0  0  0  0  0  0  0  0  0
   -6.5060   16.3470  -33.4290 C   0  0  0  0  0  0  0  0  0  0  0  0
   -6.3150   16.8530  -32.1820 N   0  0  0  0  0  0  0  0  0  0  0  0
   -5.7420   18.0710  -31.9840 C   0  0  0  0  0  0  0  0  0  0  0  0
   -5.3370   18.8460  -33.0810 C   0  0  0  0  0  0  0  0  0  0  0  0
   -4.6450   20.1650  -32.8730 C   0  0  0  0  0  0  0  0  0  0  0  0
   -5.6110   21.2620  -32.9440 N   0  0  0  0  0  0  0  0  0  0  0  0
   -6.9310   21.1840  -32.3740 C   0  0  0  0  0  0  0  0  0  0  0  0
   -7.9420   20.4380  -33.0100 C   0  0  0  0  0  0  0  0  0  0  0  0
   -9.2160   20.3440  -32.4470 C   0  0  0  0  0  0  0  0  0  0  0  0
   -9.5000   20.9940  -31.2480 C   0  0  0  0  0  0  0  0  0  0  0  0
   -8.5120   21.7420  -30.6060 C   0  0  0  0  0  0  0  0  0  0  0  0
   -7.2210   21.8380  -31.1520 C   0  0  0  0  0  0  0  0  0  0  0  0
   -6.2390   22.6680  -30.5020 N   0  0  0  0  0  0  0  0  0  0  0  0
   -4.9130   22.0890  -30.2190 C   0  0  0  0  0  0  0  0  0  0  0  0
   -3.7450   22.9040  -30.8140 C   0  0  0  0  0  0  0  0  0  0  0  0
   -3.3810   24.2060  -30.0850 C   0  0  0  0  0  0  0  0  0  0  0  0
   -4.2610   25.3300  -30.4330 N   0  0  0  0  0  0  0  0  0  0  0  0
   -5.4750   24.9780  -31.1930 C   0  0  0  0  0  0  0  0  0  0  0  0
   -6.4980   24.1210  -30.4180 C   0  0  0  0  0  0  0  0  0  0  0  0
   -5.5110   18.3300  -34.3730 C   0  0  0  0  0  0  0  0  0  0  0  0
   -6.2484   16.6707  -35.5613 H   0  0  0  0  0  0  0  0  0  0  0  0
   -6.9787   15.3619  -33.5561 H   0  0  0  0  0  0  0  0  0  0  0  0
   -5.5959   18.4490  -30.9614 H   0  0  0  0  0  0  0  0  0  0  0  0
   -4.1625   20.1698  -31.8845 H   0  0  0  0  0  0  0  0  0  0  0  0
   -3.8901   20.3013  -33.6614 H   0  0  0  0  0  0  0  0  0  0  0  0
   -5.3360   22.1330  -33.4460 H   0  0  0  0  0  0  0  0  0  0  0  0
   -7.7260   19.9249  -33.9587 H   0  0  0  0  0  0  0  0  0  0  0  0
   -9.9969   19.7557  -32.9510 H   0  0  0  0  0  0  0  0  0  0  0  0
  -10.5046   20.9176  -30.8065 H   0  0  0  0  0  0  0  0  0  0  0  0
   -8.7460   22.2607  -29.6646 H   0  0  0  0  0  0  0  0  0  0  0  0
   -4.7813   22.0375  -29.1281 H   0  0  0  0  0  0  0  0  0  0  0  0
   -4.8869   21.0953  -30.6901 H   0  0  0  0  0  0  0  0  0  0  0  0
   -2.8533   22.2599  -30.8145 H   0  0  0  0  0  0  0  0  0  0  0  0
   -4.0834   23.2132  -31.8139 H   0  0  0  0  0  0  0  0  0  0  0  0
   -3.4498   24.0308  -29.0012 H   0  0  0  0  0  0  0  0  0  0  0  0
   -2.3621   24.4805  -30.3955 H   0  0  0  0  0  0  0  0  0  0  0  0
   -4.5590   25.7770  -29.5350 H   0  0  0  0  0  0  0  0  0  0  0  0
   -5.9711   25.9115  -31.4970 H   0  0  0  0  0  0  0  0  0  0  0  0
   -5.1410   24.3669  -32.0444 H   0  0  0  0  0  0  0  0  0  0  0  0
   -6.4694   24.4185  -29.3594 H   0  0  0  0  0  0  0  0  0  0  0  0
   -7.4815   24.2999  -30.8771 H   0  0  0  0  0  0  0  0  0  0  0  0
   -5.1819   18.9116  -35.2467 H   0  0  0  0  0  0  0  0  0  0  0  0
  1  2  2  0
  2  3  1  0
  3  4  2  0
  4  5  1  0
  5  6  1  0
  6  7  1  0
  7  8  1  0
  8  9  2  0
  9 10  1  0
 10 11  2  0
 11 12  1  0
 12 13  2  0
 13 14  1  0
 14 15  1  0
 15 16  1  0
 16 17  1  0
 17 18  1  0
 18 19  1  0
 19 20  1  0
  5 21  2  0
 21  1  1  0
 13  8  1  0
 20 14  1  0
  1 22  1  0
  2 23  1  0
  4 24  1  0
  6 25  1  0
  6 26  1  0
  7 27  1  0
  9 28  1  0
 10 29  1  0
 11 30  1  0
 12 31  1  0
 15 32  1  0
 15 33  1  0
 16 34  1  0
 16 35  1  0
 17 36  1  0
 17 37  1  0
 18 38  1  0
 19 39  1  0
 19 40  1  0
 20 41  1  0
 20 42  1  0
 21 43  1  0
M  END
>  <UniqueID>  (17) 
17

>  <SMILES>  (17) 
c1cncc(CNc2ccccc2N2CCCNCC2)c1

>  <Energy>  (17) 
60.11798811280105

>  <Genealogy>  (17) 
c1cncc(CNc2ccccc2N2CCCNCC2)c1 (3D coordinates assigned)
c1cncc(CNc2ccccc2N2CCCNCC2)c1 (nonaromatic ring conformer: 60.11798811280105 kcal/mol)

>  <smiles>  (17) 
c1cncc(CNc2ccccc2N2CCCNCC2)c1

>  <score_type>  (17) 
oracle

>  <origin>  (17) 
adg

>  <m_score__min__energy>  (17) 
-6.29

>  <m_primary>  (17) 
energy

$$$$
17:0
     RDKit          3D

 40 42  0  0  0  0  0  0  0  0999 V2000
   -4.2700   15.3660  -32.6120 C   0  0  0  0  0  0  0  0  0  0  0  0
   -5.1440   16.5760  -32.5170 C   0  0  0  0  0  0  0  0  0  0  0  0
   -5.3080   17.3760  -33.6030 N   0  0  0  0  0  0  0  0  0  0  0  0
   -6.1120   18.4690  -33.5540 C   0  0  0  0  0  0  0  0  0  0  0  0
   -6.7790   18.7970  -32.3680 C   0  0  0  0  0  0  0  0  0  0  0  0
   -7.6920   19.9600  -32.3070 C   0  0  0  0  0  0  0  0  0  0  0  0
   -9.0720   19.7060  -32.2930 C   0  0  0  0  0  0  0  0  0  0  0  0
   -9.9870   20.7500  -32.1590 C   0  0  0  0  0  0  0  0  0  0  0  0
   -9.5340   22.0600  -32.0230 C   0  0  0  0  0  0  0  0  0  0  0  0
   -8.1660   22.3390  -32.0490 C   0  0  0  0  0  0  0  0  0  0  0  0
   -7.7640   23.6260  -31.8900 F   0  0  0  0  0  0  0  0  0  0  0  0
   -7.2240   21.3030  -32.2290 C   0  0  0  0  0  0  0  0  0  0  0  0
   -5.7420   21.6600  -32.3230 C   0  0  0  0  0  0  0  0  0  0  0  0
   -5.3030   22.7670  -31.4420 N   0  0  0  0  0  0  0  0  0  0  0  0
   -5.7660   22.7060  -30.0590 C   0  0  0  0  0  0  0  0  0  0  0  0
   -4.9070   23.7050  -29.2980 C   0  0  0  0  0  0  0  0  0  0  0  0
   -3.6360   23.8610  -30.1340 C   0  0  2  0  0  0  0  0  0  0  0  0
   -3.4710   25.2050  -30.5090 O   0  0  0  0  0  0  0  0  0  0  0  0
   -3.8600   22.9820  -31.3650 C   0  0  0  0  0  0  0  0  0  0  0  0
   -6.6290   17.9360  -31.2750 C   0  0  0  0  0  0  0  0  0  0  0  0
   -5.8150   16.8510  -31.3640 N   0  0  0  0  0  0  0  0  0  0  0  0
   -4.0172   15.0160  -31.6003 H   0  0  0  0  0  0  0  0  0  0  0  0
   -4.8031   14.5702  -33.1528 H   0  0  0  0  0  0  0  0  0  0  0  0
   -3.3469   15.6220  -33.1528 H   0  0  0  0  0  0  0  0  0  0  0  0
   -6.2394   19.0976  -34.4476 H   0  0  0  0  0  0  0  0  0  0  0  0
   -9.4360   18.6724  -32.3887 H   0  0  0  0  0  0  0  0  0  0  0  0
  -11.0665   20.5388  -32.1607 H   0  0  0  0  0  0  0  0  0  0  0  0
  -10.2573   22.8787  -31.8945 H   0  0  0  0  0  0  0  0  0  0  0  0
   -5.1590   20.7648  -32.0609 H   0  0  0  0  0  0  0  0  0  0  0  0
   -5.5761   22.0060  -33.3539 H   0  0  0  0  0  0  0  0  0  0  0  0
   -6.8279   22.9860  -29.9965 H   0  0  0  0  0  0  0  0  0  0  0  0
   -5.6770   21.6915  -29.6433 H   0  0  0  0  0  0  0  0  0  0  0  0
   -5.4280   24.6693  -29.2048 H   0  0  0  0  0  0  0  0  0  0  0  0
   -4.6870   23.3629  -28.2760 H   0  0  0  0  0  0  0  0  0  0  0  0
   -2.7314   23.5669  -29.5816 H   0  0  0  0  0  0  0  0  0  0  0  0
   -3.0760   25.6700  -29.7260 H   0  0  0  0  0  0  0  0  0  0  0  0
   -3.4996   23.4918  -32.2707 H   0  0  0  0  0  0  0  0  0  0  0  0
   -3.3120   22.0312  -31.2893 H   0  0  0  0  0  0  0  0  0  0  0  0
   -7.1721   18.1381  -30.3400 H   0  0  0  0  0  0  0  0  0  0  0  0
   -5.7130   16.2230  -30.5350 H   0  0  0  0  0  0  0  0  0  0  0  0
  1  2  1  0
  2  3  2  0
  3  4  1  0
  4  5  2  0
  5  6  1  0
  6  7  2  0
  7  8  1  0
  8  9  2  0
  9 10  1  0
 10 11  1  0
 10 12  2  0
 12 13  1  0
 13 14  1  0
 14 15  1  0
 15 16  1  0
 16 17  1  0
 17 18  1  0
 17 19  1  0
  5 20  1  0
 20 21  2  0
 21  2  1  0
 12  6  1  0
 19 14  1  0
  1 22  1  0
  1 23  1  0
  1 24  1  0
  4 25  1  0
  7 26  1  0
  8 27  1  0
  9 28  1  0
 13 29  1  0
 13 30  1  0
 15 31  1  0
 15 32  1  0
 16 33  1  0
 16 34  1  0
 17 35  1  1
 18 36  1  0
 19 37  1  0
 19 38  1  0
 20 39  1  0
 21 40  1  0
M  CHG  1  21   1
M  END
>  <UniqueID>  (18) 
18

>  <SMILES>  (18) 
Cc1ncc(-c2cccc(F)c2CN2CC[C@H](O)C2)c[nH+]1

>  <Energy>  (18) 
57.717523149859666

>  <Genealogy>  (18) 
Cc1ncc(-c2cccc(F)c2CN2CCC(O)C2)c[nH+]1 (protonated)
Cc1ncc(-c2cccc(F)c2CN2CC[C@H](O)C2)c[nH+]1 (chirality)
Cc1ncc(-c2cccc(F)c2CN2CC[C@H](O)C2)c[nH+]1 (3D coordinates assigned)
Cc1ncc(-c2cccc(F)c2CN2CC[C@H](O)C2)c[nH+]1 (nonaromatic ring conformer: 57.717523149859666 kcal/mol)

>  <smiles>  (18) 
Cc1ncc(-c2cccc(F)c2CN2CCC(O)C2)cn1

>  <score_type>  (18) 
oracle

>  <origin>  (18) 
adg

>  <m_score__min__energy>  (18) 
-8.5999999999999996

>  <m_primary>  (18) 
energy

$$$$
18:0
     RDKit          3D

 33 35  0  0  0  0  0  0  0  0999 V2000
   -3.9400   25.2860  -30.8010 O   0  0  0  0  0  0  0  0  0  0  0  0
   -4.6020   24.3850  -29.7960 S   0  0  0  0  0  0  0  0  0  0  0  0
   -5.3900   25.2410  -28.8460 O   0  0  0  0  0  0  0  0  0  0  0  0
   -5.7070   23.2970  -30.6400 C   0  0  0  0  0  0  0  0  0  0  0  0
   -5.2580   22.5470  -31.7370 C   0  0  0  0  0  0  0  0  0  0  0  0
   -6.1350   21.6880  -32.4070 C   0  0  0  0  0  0  0  0  0  0  0  0
   -7.4620   21.5730  -31.9850 C   0  0  0  0  0  0  0  0  0  0  0  0
   -7.9140   22.3170  -30.8910 C   0  0  0  0  0  0  0  0  0  0  0  0
   -7.0400   23.1760  -30.2180 C   0  0  0  0  0  0  0  0  0  0  0  0
   -3.3300   23.5210  -28.8740 C   0  0  0  0  0  0  0  0  0  0  0  0
   -2.6920   24.2250  -27.7550 C   0  0  0  0  0  0  0  0  0  0  0  0
   -2.1690   24.8070  -26.8370 C   0  0  0  0  0  0  0  0  0  0  0  0
   -1.5450   25.5000  -25.7420 C   0  0  0  0  0  0  0  0  0  0  0  0
   -1.6010   26.8920  -25.6530 C   0  0  0  0  0  0  0  0  0  0  0  0
   -1.0060   27.5270  -24.6110 N   0  0  0  0  0  0  0  0  0  0  0  0
   -0.3520   26.8260  -23.6470 C   0  0  0  0  0  0  0  0  0  0  0  0
   -0.2860   25.4710  -23.7160 N   0  0  0  0  0  0  0  0  0  0  0  0
   -0.8690   24.7960  -24.7430 C   0  0  0  0  0  0  0  0  0  0  0  0
   -2.4340   22.5680  -29.6480 C   0  0  0  0  0  0  0  0  0  0  0  0
   -3.4960   22.0210  -28.6970 C   0  0  0  0  0  0  0  0  0  0  0  0
   -4.2136   22.6347  -32.0711 H   0  0  0  0  0  0  0  0  0  0  0  0
   -5.7796   21.1021  -33.2674 H   0  0  0  0  0  0  0  0  0  0  0  0
   -8.1508   20.8974  -32.5133 H   0  0  0  0  0  0  0  0  0  0  0  0
   -8.9589   22.2264  -30.5593 H   0  0  0  0  0  0  0  0  0  0  0  0
   -7.3979   23.7582  -29.3560 H   0  0  0  0  0  0  0  0  0  0  0  0
   -2.1261   27.4731  -26.4254 H   0  0  0  0  0  0  0  0  0  0  0  0
    0.1245   27.3570  -22.8098 H   0  0  0  0  0  0  0  0  0  0  0  0
    0.2200   24.9400  -22.9710 H   0  0  0  0  0  0  0  0  0  0  0  0
   -0.8082   23.6985  -24.7866 H   0  0  0  0  0  0  0  0  0  0  0  0
   -2.5584   22.4561  -30.7352 H   0  0  0  0  0  0  0  0  0  0  0  0
   -1.3474   22.4382  -29.7597 H   0  0  0  0  0  0  0  0  0  0  0  0
   -4.3861   21.5146  -29.0986 H   0  0  0  0  0  0  0  0  0  0  0  0
   -3.4926   21.3331  -27.8386 H   0  0  0  0  0  0  0  0  0  0  0  0
  1  2  2  0
  2  3  2  0
  2  4  1  0
  4  5  2  0
  5  6  1  0
  6  7  2  0
  7  8  1  0
  8  9  2  0
  2 10  1  0
 10 11  1  0
 11 12  3  0
 12 13  1  0
 13 14  2  0
 14 15  1  0
 15 16  2  0
 16 17  1  0
 17 18  2  0
 10 19  1  0
 19 20  1  0
  9  4  1  0
 20 10  1  0
 18 13  1  0
  5 21  1  0
  6 22  1  0
  7 23  1  0
  8 24  1  0
  9 25  1  0
 14 26  1  0
 16 27  1  0
 17 28  1  0
 18 29  1  0
 19 30  1  0
 19 31  1  0
 20 32  1  0
 20 33  1  0
M  CHG  1  17   1
M  END
>  <UniqueID>  (19) 
19

>  <SMILES>  (19) 
O=S(=O)(c1ccccc1)C1(C#Cc2cnc[nH+]c2)CC1

>  <Energy>  (19) 
296.69078341836365

>  <Genealogy>  (19) 
O=S(=O)(c1ccccc1)C1(C#Cc2cnc[nH+]c2)CC1 (protonated)
O=S(=O)(c1ccccc1)C1(C#Cc2cnc[nH+]c2)CC1 (3D coordinates assigned)
O=S(=O)(c1ccccc1)C1(C#Cc2cnc[nH+]c2)CC1 (nonaromatic ring conformer: 296.69078341836365 kcal/mol)

>  <smiles>  (19) 
O=S(=O)(c1ccccc1)C1(C#Cc2cncnc2)CC1

>  <score_type>  (19) 
oracle

>  <origin>  (19) 
adg

>  <m_score__min__energy>  (19) 
-7.96

>  <m_primary>  (19) 
energy

$$$$
19:0
     RDKit          3D

 56 60  0  0  0  0  0  0  0  0999 V2000
    0.5190   16.9250  -34.6530 C   0  0  0  0  0  0  0  0  0  0  0  0
   -0.7040   16.3490  -35.0980 O   0  0  0  0  0  0  0  0  0  0  0  0
   -1.9810   16.7860  -34.7120 C   0  0  0  0  0  0  0  0  0  0  0  0
   -2.1740   17.9680  -33.9720 C   0  0  0  0  0  0  0  0  0  0  0  0
   -3.4660   18.3800  -33.6020 C   0  0  0  0  0  0  0  0  0  0  0  0
   -3.7090   19.5660  -32.8970 C   0  0  0  0  0  0  0  0  0  0  0  0
   -5.0080   19.9720  -32.6060 C   0  0  0  0  0  0  0  0  0  0  0  0
   -6.0760   19.1290  -32.8050 N   0  0  0  0  0  0  0  0  0  0  0  0
   -7.3700   19.3000  -32.1070 C   0  0  0  0  0  0  0  0  0  0  0  0
   -8.2090   20.4350  -32.7270 C   0  0  0  0  0  0  0  0  0  0  0  0
   -9.5220   20.7190  -31.9620 C   0  0  0  0  0  0  0  0  0  0  0  0
   -9.4680   22.0070  -31.2380 N   0  0  0  0  0  0  0  0  0  0  0  0
   -9.0870   23.1090  -32.1410 C   0  0  0  0  0  0  0  0  0  0  0  0
   -8.4910   21.9210  -30.1400 C   0  0  0  0  0  0  0  0  0  0  0  0
   -5.8830   17.9880  -33.5580 C   0  0  0  0  0  0  0  0  0  0  0  0
   -6.8730   17.2650  -33.8660 O   0  0  0  0  0  0  0  0  0  0  0  0
   -4.5840   17.5980  -33.9750 C   0  0  0  0  0  0  0  0  0  0  0  0
   -4.3830   16.4200  -34.7180 C   0  0  0  0  0  0  0  0  0  0  0  0
   -3.0880   16.0130  -35.0880 C   0  0  0  0  0  0  0  0  0  0  0  0
   -2.8570   14.8420  -35.8290 O   0  0  0  0  0  0  0  0  0  0  0  0
   -2.3950   14.8140  -37.1750 C   0  0  0  0  0  0  0  0  0  0  0  0
   -4.9370   21.3110  -31.9550 C   0  0  0  0  0  0  0  0  0  0  0  0
   -5.9120   22.3190  -31.7660 C   0  0  0  0  0  0  0  0  0  0  0  0
   -5.4680   23.5280  -31.2190 C   0  0  0  0  0  0  0  0  0  0  0  0
   -4.1520   23.7690  -30.9470 C   0  0  0  0  0  0  0  0  0  0  0  0
   -3.1530   22.8350  -31.2210 C   0  0  0  0  0  0  0  0  0  0  0  0
   -3.5840   21.6090  -31.7520 C   0  0  0  0  0  0  0  0  0  0  0  0
   -2.7800   20.5510  -32.3320 C   0  0  0  0  0  0  0  0  0  0  0  0
   -1.5220   20.5110  -32.3430 O   0  0  0  0  0  0  0  0  0  0  0  0
   -4.0150   25.0490  -30.4450 O   0  0  0  0  0  0  0  0  0  0  0  0
   -5.3170   25.6490  -30.3970 C   0  0  0  0  0  0  0  0  0  0  0  0
   -6.2110   24.6490  -30.9080 O   0  0  0  0  0  0  0  0  0  0  0  0
    0.5407   16.9352  -33.5533 H   0  0  0  0  0  0  0  0  0  0  0  0
    1.3635   16.3299  -35.0309 H   0  0  0  0  0  0  0  0  0  0  0  0
    0.5981   17.9550  -35.0309 H   0  0  0  0  0  0  0  0  0  0  0  0
   -1.3046   18.5755  -33.6803 H   0  0  0  0  0  0  0  0  0  0  0  0
   -7.9376   18.3602  -32.1739 H   0  0  0  0  0  0  0  0  0  0  0  0
   -7.1614   19.5620  -31.0592 H   0  0  0  0  0  0  0  0  0  0  0  0
   -7.6032   21.3532  -32.7320 H   0  0  0  0  0  0  0  0  0  0  0  0
   -8.4882   20.1143  -33.7415 H   0  0  0  0  0  0  0  0  0  0  0  0
  -10.3537   20.7494  -32.6813 H   0  0  0  0  0  0  0  0  0  0  0  0
   -9.6675   19.9172  -31.2231 H   0  0  0  0  0  0  0  0  0  0  0  0
   -8.7848   23.9831  -31.5455 H   0  0  0  0  0  0  0  0  0  0  0  0
   -8.2472   22.7894  -32.7755 H   0  0  0  0  0  0  0  0  0  0  0  0
   -9.9449   23.3764  -32.7755 H   0  0  0  0  0  0  0  0  0  0  0  0
   -9.0182   21.9674  -29.1757 H   0  0  0  0  0  0  0  0  0  0  0  0
   -7.9412   20.9710  -30.2120 H   0  0  0  0  0  0  0  0  0  0  0  0
   -7.7837   22.7604  -30.2120 H   0  0  0  0  0  0  0  0  0  0  0  0
   -5.2492   15.8097  -35.0132 H   0  0  0  0  0  0  0  0  0  0  0  0
   -1.2971   14.7475  -37.1845 H   0  0  0  0  0  0  0  0  0  0  0  0
   -2.8198   13.9400  -37.6904 H   0  0  0  0  0  0  0  0  0  0  0  0
   -2.7111   15.7330  -37.6904 H   0  0  0  0  0  0  0  0  0  0  0  0
   -6.9665   22.1601  -32.0357 H   0  0  0  0  0  0  0  0  0  0  0  0
   -2.0902   23.0466  -31.0322 H   0  0  0  0  0  0  0  0  0  0  0  0
   -5.5828   25.9117  -29.3624 H   0  0  0  0  0  0  0  0  0  0  0  0
   -5.3629   26.5793  -30.9821 H   0  0  0  0  0  0  0  0  0  0  0  0
  1  2  1  0
  2  3  1  0
  3  4  2  0
  4  5  1  0
  5  6  1  0
  6  7  2  0
  7  8  1  0
  8  9  1  0
  9 10  1  0
 10 11  1  0
 11 12  1  0
 12 13  1  0
 12 14  1  0
  8 15  1  0
 15 16  2  0
 15 17  1  0
 17 18  1  0
 18 19  2  0
 19 20  1  0
 20 21  1  0
  7 22  1  0
 22 23  2  0
 23 24  1  0
 24 25  2  0
 25 26  1  0
 26 27  2  0
 27 28  1  0
 28 29  2  0
 25 30  1  0
 30 31  1  0
 31 32  1  0
 19  3  1  0
 27 22  1  0
 17  5  2  0
 32 24  1  0
 28  6  1  0
  1 33  1  0
  1 34  1  0
  1 35  1  0
  4 36  1  0
  9 37  1  0
  9 38  1  0
 10 39  1  0
 10 40  1  0
 11 41  1  0
 11 42  1  0
 13 43  1  0
 13 44  1  0
 13 45  1  0
 14 46  1  0
 14 47  1  0
 14 48  1  0
 18 49  1  0
 21 50  1  0
 21 51  1  0
 21 52  1  0
 23 53  1  0
 26 54  1  0
 31 55  1  0
 31 56  1  0
M  END
>  <UniqueID>  (20) 
20

>  <SMILES>  (20) 
COc1cc2c3c(n(CCCN(C)C)c(=O)c2cc1OC)-c1cc2c(cc1C3=O)OCO2

>  <Energy>  (20) 
140.73432369307287

>  <Genealogy>  (20) 
COc1cc2c3c(n(CCCN(C)C)c(=O)c2cc1OC)-c1cc2c(cc1C3=O)OCO2 (3D coordinates assigned)
COc1cc2c3c(n(CCCN(C)C)c(=O)c2cc1OC)-c1cc2c(cc1C3=O)OCO2 (nonaromatic ring conformer: 140.73432369307287 kcal/mol)

>  <smiles>  (20) 
COc1cc2c3c(n(CCCN(C)C)c(=O)c2cc1OC)-c1cc2c(cc1C3=O)OCO2

>  <score_type>  (20) 
oracle

>  <origin>  (20) 
adg

>  <m_score__min__energy>  (20) 
-8.4600000000000009

>  <m_primary>  (20) 
energy

$$$$
20:0
     RDKit          3D

 45 46  0  0  0  0  0  0  0  0999 V2000
   -5.9210   22.0244  -33.6906 H   0  0  0  0  0  0  0  0  0  0  0  0
   -5.8880   21.4550  -32.7500 C   0  0  0  0  0  0  0  0  0  0  0  0
   -6.8760   20.3730  -32.5190 C   0  0  0  0  0  0  0  0  0  0  0  0
   -8.0890   20.6650  -31.9720 C   0  0  0  0  0  0  0  0  0  0  0  0
   -8.5140   22.0940  -31.7360 C   0  0  0  0  0  0  0  0  0  0  0  0
   -8.5710   22.2857  -30.6543 H   0  0  0  0  0  0  0  0  0  0  0  0
   -7.7795   22.7749  -32.1908 H   0  0  0  0  0  0  0  0  0  0  0  0
   -9.5012   22.2628  -32.1908 H   0  0  0  0  0  0  0  0  0  0  0  0
   -9.1340   19.6000  -31.7190 C   0  0  0  0  0  0  0  0  0  0  0  0
   -9.8507   19.6078  -32.5535 H   0  0  0  0  0  0  0  0  0  0  0  0
   -9.6164   19.8359  -30.7590 H   0  0  0  0  0  0  0  0  0  0  0  0
   -8.5450   18.2000  -31.5990 C   0  0  0  0  0  0  0  0  0  0  0  0
   -9.3583   17.4593  -31.5981 H   0  0  0  0  0  0  0  0  0  0  0  0
   -7.9755   18.1219  -30.6611 H   0  0  0  0  0  0  0  0  0  0  0  0
   -7.6180   17.9340  -32.7780 C   0  0  0  0  0  0  0  0  0  0  0  0
   -8.1915   18.0328  -33.7115 H   0  0  0  0  0  0  0  0  0  0  0  0
   -7.2105   16.9179  -32.6706 H   0  0  0  0  0  0  0  0  0  0  0  0
   -6.4280   18.9310  -32.8110 C   0  0  0  0  0  0  0  0  0  0  0  0
   -5.7850   18.8460  -34.2150 C   0  0  0  0  0  0  0  0  0  0  0  0
   -4.6992   18.7025  -34.1129 H   0  0  0  0  0  0  0  0  0  0  0  0
   -6.2169   17.9971  -34.7653 H   0  0  0  0  0  0  0  0  0  0  0  0
   -5.9815   19.7779  -34.7653 H   0  0  0  0  0  0  0  0  0  0  0  0
   -5.3700   18.5170  -31.7620 C   0  0  0  0  0  0  0  0  0  0  0  0
   -5.7743   18.6752  -30.7513 H   0  0  0  0  0  0  0  0  0  0  0  0
   -5.1188   17.4543  -31.8942 H   0  0  0  0  0  0  0  0  0  0  0  0
   -4.4643   19.1270  -31.8942 H   0  0  0  0  0  0  0  0  0  0  0  0
   -4.9580   21.7510  -31.8360 C   0  0  0  0  0  0  0  0  0  0  0  0
   -4.0773   21.0991  -31.7391 H   0  0  0  0  0  0  0  0  0  0  0  0
   -5.0800   22.9310  -30.9510 C   0  0  0  0  0  0  0  0  0  0  0  0
   -5.8780   23.9860  -31.4140 C   0  0  0  0  0  0  0  0  0  0  0  0
   -6.3251   23.9380  -32.4179 H   0  0  0  0  0  0  0  0  0  0  0  0
   -6.1040   25.0910  -30.6060 C   0  0  0  0  0  0  0  0  0  0  0  0
   -6.7187   25.9265  -30.9722 H   0  0  0  0  0  0  0  0  0  0  0  0
   -5.5510   25.1380  -29.3330 C   0  0  0  0  0  0  0  0  0  0  0  0
   -5.7481   25.9997  -28.6783 H   0  0  0  0  0  0  0  0  0  0  0  0
   -4.7400   24.0840  -28.8830 C   0  0  0  0  0  0  0  0  0  0  0  0
   -4.1660   24.1810  -27.4890 C   0  0  0  0  0  0  0  0  0  0  0  0
   -4.9703   24.0451  -26.7510 H   0  0  0  0  0  0  0  0  0  0  0  0
   -3.4052   23.3987  -27.3505 H   0  0  0  0  0  0  0  0  0  0  0  0
   -3.7045   25.1699  -27.3505 H   0  0  0  0  0  0  0  0  0  0  0  0
   -4.4580   23.0220  -29.7190 N   0  0  0  0  0  0  0  0  0  0  0  0
   -3.4890   21.9910  -29.2940 C   0  0  0  0  0  0  0  0  0  0  0  0
   -3.4528   21.9525  -28.1953 H   0  0  0  0  0  0  0  0  0  0  0  0
   -3.8008   21.0113  -29.6851 H   0  0  0  0  0  0  0  0  0  0  0  0
   -2.4919   22.2415  -29.6851 H   0  0  0  0  0  0  0  0  0  0  0  0
  1  2  1  0
  2  3  1  0
  3  4  2  0
  4  5  1  0
  5  6  1  0
  5  7  1  0
  5  8  1  0
  4  9  1  0
  9 10  1  0
  9 11  1  0
  9 12  1  0
 12 13  1  0
 12 14  1  0
 12 15  1  0
 15 16  1  0
 15 17  1  0
 15 18  1  0
 18 19  1  0
 19 20  1  0
 19 21  1  0
 19 22  1  0
 18 23  1  0
 23 24  1  0
 23 25  1  0
 23 26  1  0
  2 27  2  0
 27 28  1  0
 27 29  1  0
 29 30  2  0
 30 31  1  0
 30 32  1  0
 32 33  1  0
 32 34  2  0
 34 35  1  0
 34 36  1  0
 36 37  1  0
 37 38  1  0
 37 39  1  0
 37 40  1  0
 36 41  2  0
 41 42  1  0
 42 43  1  0
 42 44  1  0
 42 45  1  0
 18  3  1  0
 41 29  1  0
M  CHG  1  41   1
M  END
>  <UniqueID>  (21) 
21

>  <SMILES>  (21) 
CC1=C(/C=C/c2cccc(C)[n+]2C)C(C)(C)CCC1

>  <Energy>  (21) 
59.15521365473027

>  <Genealogy>  (21) 
CC1=C(/C=C/c2cccc(C)[n+]2C)C(C)(C)CCC1 (cis-trans isomerization)
CC1=C(/C=C/c2cccc(C)[n+]2C)C(C)(C)CCC1 (3D coordinates assigned)
CC1=C(/C=C/c2cccc(C)[n+]2C)C(C)(C)CCC1 (nonaromatic ring conformer: 59.15521365473027 kcal/mol)

>  <smiles>  (21) 
CC1=C(C=Cc2cccc(C)[n+]2C)C(C)(C)CCC1

>  <score_type>  (21) 
oracle

>  <origin>  (21) 
adg

>  <m_score__min__energy>  (21) 
-7.4400000000000004

>  <m_primary>  (21) 
energy

$$$$
21:0
     RDKit          3D

 45 47  0  0  0  0  0  0  0  0999 V2000
   -8.7590   19.8330  -31.2800 C   0  0  0  0  0  0  0  0  0  0  0  0
   -8.3270   20.0780  -32.7300 C   0  0  0  0  0  0  0  0  0  0  0  0
   -7.1480   19.2580  -33.1120 N   0  0  0  0  0  0  0  0  0  0  0  0
   -6.1640   20.0500  -33.8820 C   0  0  0  0  0  0  0  0  0  0  0  0
   -5.5050   21.1620  -33.0340 C   0  0  0  0  0  0  0  0  0  0  0  0
   -5.5750   20.8830  -31.5810 N   0  0  0  0  0  0  0  0  0  0  0  0
   -4.5840   21.6870  -30.8350 C   0  0  0  0  0  0  0  0  0  0  0  0
   -5.1180   23.0200  -30.5290 N   0  0  0  0  0  0  0  0  0  0  0  0
   -6.4850   23.2700  -30.2250 C   0  0  0  0  0  0  0  0  0  0  0  0
   -7.3230   22.3400  -30.0860 O   0  0  0  0  0  0  0  0  0  0  0  0
   -6.8650   24.6890  -30.0730 C   0  0  0  0  0  0  0  0  0  0  0  0
   -5.4430   25.6690  -30.6560 S   0  0  0  0  0  0  0  0  0  0  0  0
   -4.3120   24.2300  -30.6280 C   0  0  1  0  0  0  0  0  0  0  0  0
   -3.4010   24.3520  -29.4450 C   0  0  0  0  0  0  0  0  0  0  0  0
   -3.3920   23.5160  -28.3440 C   0  0  0  0  0  0  0  0  0  0  0  0
   -2.3750   23.9770  -27.5340 C   0  0  0  0  0  0  0  0  0  0  0  0
   -1.8410   25.0700  -28.1890 C   0  0  0  0  0  0  0  0  0  0  0  0
   -0.7000   25.9000  -27.7090 C   0  0  0  0  0  0  0  0  0  0  0  0
   -2.4670   25.2670  -29.3260 O   0  0  0  0  0  0  0  0  0  0  0  0
   -5.3630   19.4490  -31.3220 C   0  0  0  0  0  0  0  0  0  0  0  0
   -6.5050   18.6110  -31.9360 C   0  0  0  0  0  0  0  0  0  0  0  0
   -8.0089   20.2584  -30.5971 H   0  0  0  0  0  0  0  0  0  0  0  0
   -9.7321   20.3136  -31.1011 H   0  0  0  0  0  0  0  0  0  0  0  0
   -8.8460   18.7511  -31.1011 H   0  0  0  0  0  0  0  0  0  0  0  0
   -9.1648   19.8254  -33.3965 H   0  0  0  0  0  0  0  0  0  0  0  0
   -8.0455   21.1373  -32.8235 H   0  0  0  0  0  0  0  0  0  0  0  0
   -7.4740   18.4970  -33.7550 H   0  0  0  0  0  0  0  0  0  0  0  0
   -5.3778   19.3743  -34.2499 H   0  0  0  0  0  0  0  0  0  0  0  0
   -6.7007   20.5354  -34.7105 H   0  0  0  0  0  0  0  0  0  0  0  0
   -4.4481   21.2490  -33.3261 H   0  0  0  0  0  0  0  0  0  0  0  0
   -6.0544   22.0962  -33.2221 H   0  0  0  0  0  0  0  0  0  0  0  0
   -4.3370   21.1728  -29.8944 H   0  0  0  0  0  0  0  0  0  0  0  0
   -3.6837   21.8020  -31.4564 H   0  0  0  0  0  0  0  0  0  0  0  0
   -7.7548   24.9115  -30.6803 H   0  0  0  0  0  0  0  0  0  0  0  0
   -7.1102   24.9259  -29.0272 H   0  0  0  0  0  0  0  0  0  0  0  0
   -3.7012   24.1896  -31.5420 H   0  0  0  0  0  0  0  0  0  0  0  0
   -4.0574   22.6610  -28.1535 H   0  0  0  0  0  0  0  0  0  0  0  0
   -2.0555   23.5608  -26.5672 H   0  0  0  0  0  0  0  0  0  0  0  0
   -0.6894   25.9077  -26.6091 H   0  0  0  0  0  0  0  0  0  0  0  0
    0.2441   25.4761  -28.0818 H   0  0  0  0  0  0  0  0  0  0  0  0
   -0.8126   26.9288  -28.0818 H   0  0  0  0  0  0  0  0  0  0  0  0
   -4.4067   19.1386  -31.7682 H   0  0  0  0  0  0  0  0  0  0  0  0
   -5.3471   19.2837  -30.2346 H   0  0  0  0  0  0  0  0  0  0  0  0
   -6.0939   17.6413  -32.2533 H   0  0  0  0  0  0  0  0  0  0  0  0
   -7.2793   18.5019  -31.1623 H   0  0  0  0  0  0  0  0  0  0  0  0
  1  2  1  0
  2  3  1  0
  3  4  1  0
  4  5  1  0
  5  6  1  0
  6  7  1  0
  7  8  1  0
  8  9  1  0
  9 10  2  0
  9 11  1  0
 11 12  1  0
 12 13  1  0
 13 14  1  0
 14 15  2  0
 15 16  1  0
 16 17  2  0
 17 18  1  0
 17 19  1  0
  6 20  1  0
 20 21  1  0
 21  3  1  0
 13  8  1  0
 19 14  1  0
  1 22  1  0
  1 23  1  0
  1 24  1  0
  2 25  1  0
  2 26  1  0
  3 27  1  0
  4 28  1  0
  4 29  1  0
  5 30  1  0
  5 31  1  0
  7 32  1  0
  7 33  1  0
 11 34  1  0
 11 35  1  0
 13 36  1  6
 15 37  1  0
 16 38  1  0
 18 39  1  0
 18 40  1  0
 18 41  1  0
 20 42  1  0
 20 43  1  0
 21 44  1  0
 21 45  1  0
M  CHG  1   3   1
M  END
>  <UniqueID>  (22) 
22

>  <SMILES>  (22) 
CC[NH+]1CCN(CN2C(=O)CS[C@H]2c2ccc(C)o2)CC1

>  <Energy>  (22) 
72.91731593406145

>  <Genealogy>  (22) 
CC[NH+]1CCN(CN2C(=O)CSC2c2ccc(C)o2)CC1 (protonated)
CC[NH+]1CCN(CN2C(=O)CS[C@H]2c2ccc(C)o2)CC1 (chirality)
CC[NH+]1CCN(CN2C(=O)CS[C@H]2c2ccc(C)o2)CC1 (3D coordinates assigned)
CC[NH+]1CCN(CN2C(=O)CS[C@H]2c2ccc(C)o2)CC1 (nonaromatic ring conformer: 72.91731593406145 kcal/mol)

>  <smiles>  (22) 
CCN1CCN(CN2C(=O)CSC2c2ccc(C)o2)CC1

>  <score_type>  (22) 
oracle

>  <origin>  (22) 
adg

>  <m_score__min__energy>  (22) 
-7.0599999999999996

>  <m_primary>  (22) 
energy

$$$$
22:0
     RDKit          3D

 48 51  0  0  0  0  0  0  0  0999 V2000
   -0.8700   24.0950  -25.2690 C   0  0  0  0  0  0  0  0  0  0  0  0
   -1.2500   23.7920  -26.6600 N   0  0  0  0  0  0  0  0  0  0  0  0
   -1.4970   22.3630  -26.9240 C   0  0  0  0  0  0  0  0  0  0  0  0
   -1.5240   21.9840  -28.4130 C   0  0  0  0  0  0  0  0  0  0  0  0
   -2.8580   22.3260  -29.0910 C   0  0  0  0  0  0  0  0  0  0  0  0
   -3.0480   23.7580  -29.3860 N   0  0  0  0  0  0  0  0  0  0  0  0
   -4.1880   24.1560  -30.1770 C   0  0  0  0  0  0  0  0  0  0  0  0
   -4.1470   25.2310  -30.8370 O   0  0  0  0  0  0  0  0  0  0  0  0
   -5.4310   23.3010  -30.2810 C   0  0  0  0  0  0  0  0  0  0  0  0
   -5.7750   22.9010  -31.7320 C   0  0  0  0  0  0  0  0  0  0  0  0
   -7.0990   22.1880  -31.8520 C   0  0  0  0  0  0  0  0  0  0  0  0
   -8.3730   22.6890  -31.5730 C   0  0  0  0  0  0  0  0  0  0  0  0
   -9.4860   21.8640  -31.8000 C   0  0  0  0  0  0  0  0  0  0  0  0
   -9.3170   20.5670  -32.3230 C   0  0  0  0  0  0  0  0  0  0  0  0
   -8.0340   20.0850  -32.6240 C   0  0  0  0  0  0  0  0  0  0  0  0
   -6.9420   20.9170  -32.3770 C   0  0  0  0  0  0  0  0  0  0  0  0
   -5.5350   20.7050  -32.6430 C   0  0  0  0  0  0  0  0  0  0  0  0
   -4.8840   19.5950  -33.1830 C   0  0  0  0  0  0  0  0  0  0  0  0
   -3.4940   19.6630  -33.3640 C   0  0  0  0  0  0  0  0  0  0  0  0
   -2.7870   20.8300  -33.0120 C   0  0  0  0  0  0  0  0  0  0  0  0
   -3.4640   21.9370  -32.4740 C   0  0  0  0  0  0  0  0  0  0  0  0
   -4.8460   21.8510  -32.2890 C   0  0  0  0  0  0  0  0  0  0  0  0
   -2.2140   24.8040  -28.7690 C   0  0  0  0  0  0  0  0  0  0  0  0
   -2.2460   24.7150  -27.2350 C   0  0  0  0  0  0  0  0  0  0  0  0
   -1.5409   23.5600  -24.5808 H   0  0  0  0  0  0  0  0  0  0  0  0
    0.1672   23.7734  -25.0939 H   0  0  0  0  0  0  0  0  0  0  0  0
   -0.9526   25.1778  -25.0939 H   0  0  0  0  0  0  0  0  0  0  0  0
   -0.7012   21.7812  -26.4360 H   0  0  0  0  0  0  0  0  0  0  0  0
   -2.4985   22.1407  -26.5270 H   0  0  0  0  0  0  0  0  0  0  0  0
   -0.7185   22.5276  -28.9285 H   0  0  0  0  0  0  0  0  0  0  0  0
   -1.3892   20.8943  -28.4793 H   0  0  0  0  0  0  0  0  0  0  0  0
   -2.9134   21.7703  -30.0387 H   0  0  0  0  0  0  0  0  0  0  0  0
   -3.6494   22.0469  -28.3798 H   0  0  0  0  0  0  0  0  0  0  0  0
   -5.2748   22.3843  -29.6934 H   0  0  0  0  0  0  0  0  0  0  0  0
   -6.2716   23.8988  -29.8989 H   0  0  0  0  0  0  0  0  0  0  0  0
   -5.7335   23.8683  -32.2542 H   0  0  0  0  0  0  0  0  0  0  0  0
   -8.5014   23.7096  -31.1832 H   0  0  0  0  0  0  0  0  0  0  0  0
  -10.4961   22.2326  -31.5681 H   0  0  0  0  0  0  0  0  0  0  0  0
  -10.1957   19.9284  -32.4964 H   0  0  0  0  0  0  0  0  0  0  0  0
   -7.8931   19.0779  -33.0435 H   0  0  0  0  0  0  0  0  0  0  0  0
   -5.4456   18.6905  -33.4595 H   0  0  0  0  0  0  0  0  0  0  0  0
   -2.9538   18.8011  -33.7827 H   0  0  0  0  0  0  0  0  0  0  0  0
   -1.6978   20.8744  -33.1595 H   0  0  0  0  0  0  0  0  0  0  0  0
   -2.9173   22.8525  -32.2040 H   0  0  0  0  0  0  0  0  0  0  0  0
   -1.1761   24.6833  -29.1129 H   0  0  0  0  0  0  0  0  0  0  0  0
   -2.6126   25.7850  -29.0671 H   0  0  0  0  0  0  0  0  0  0  0  0
   -2.0602   25.7198  -26.8276 H   0  0  0  0  0  0  0  0  0  0  0  0
   -3.2358   24.3198  -26.9629 H   0  0  0  0  0  0  0  0  0  0  0  0
  1  2  1  0
  2  3  1  0
  3  4  1  0
  4  5  1  0
  5  6  1  0
  6  7  1  0
  7  8  2  0
  7  9  1  0
  9 10  1  0
 10 11  1  0
 11 12  2  0
 12 13  1  0
 13 14  2  0
 14 15  1  0
 15 16  2  0
 16 17  1  0
 17 18  2  0
 18 19  1  0
 19 20  2  0
 20 21  1  0
 21 22  2  0
  6 23  1  0
 23 24  1  0
 24  2  1  0
 22 10  1  0
 16 11  1  0
 22 17  1  0
  1 25  1  0
  1 26  1  0
  1 27  1  0
  3 28  1  0
  3 29  1  0
  4 30  1  0
  4 31  1  0
  5 32  1  0
  5 33  1  0
  9 34  1  0
  9 35  1  0
 10 36  1  0
 12 37  1  0
 13 38  1  0
 14 39  1  0
 15 40  1  0
 18 41  1  0
 19 42  1  0
 20 43  1  0
 21 44  1  0
 23 45  1  0
 23 46  1  0
 24 47  1  0
 24 48  1  0
M  END
>  <UniqueID>  (23) 
23

>  <SMILES>  (23) 
CN1CCCN(C(=O)CC2c3ccccc3-c3ccccc32)CC1

>  <Energy>  (23) 
79.53554669201215

>  <Genealogy>  (23) 
CN1CCCN(C(=O)CC2c3ccccc3-c3ccccc32)CC1 (3D coordinates assigned)
CN1CCCN(C(=O)CC2c3ccccc3-c3ccccc32)CC1 (nonaromatic ring conformer: 79.53554669201215 kcal/mol)

>  <smiles>  (23) 
CN1CCCN(C(=O)CC2c3ccccc3-c3ccccc32)CC1

>  <score_type>  (23) 
oracle

>  <origin>  (23) 
adg

>  <m_score__min__energy>  (23) 
-7.46

>  <m_primary>  (23) 
energy

$$$$
23:0
     RDKit          3D

 50 53  0  0  0  0  0  0  0  0999 V2000
   -7.3856   25.5547  -30.1485 H   0  0  0  0  0  0  0  0  0  0  0  0
   -6.5190   24.9510  -30.4560 C   0  0  0  0  0  0  0  0  0  0  0  0
   -5.2680   25.3020  -30.0540 N   0  0  0  0  0  0  0  0  0  0  0  0
   -4.1800   24.5640  -30.4130 C   0  0  0  0  0  0  0  0  0  0  0  0
   -2.9770   24.9180  -30.0650 N   0  0  0  0  0  0  0  0  0  0  0  0
   -2.3500   24.7040  -28.7880 C   0  0  0  0  0  0  0  0  0  0  0  0
   -2.7390   23.6570  -27.9350 C   0  0  0  0  0  0  0  0  0  0  0  0
   -3.5608   22.9875  -28.2290 H   0  0  0  0  0  0  0  0  0  0  0  0
   -2.0860   23.4630  -26.7150 C   0  0  0  0  0  0  0  0  0  0  0  0
   -2.3986   22.6430  -26.0518 H   0  0  0  0  0  0  0  0  0  0  0  0
   -1.0340   24.3080  -26.3310 C   0  0  0  0  0  0  0  0  0  0  0  0
   -0.6030   25.3240  -27.2060 C   0  0  0  0  0  0  0  0  0  0  0  0
   -1.2670   25.5130  -28.4270 C   0  0  0  0  0  0  0  0  0  0  0  0
   -0.9319   26.3077  -29.1097 H   0  0  0  0  0  0  0  0  0  0  0  0
    0.5030   26.2730  -26.8200 C   0  0  0  0  0  0  0  0  0  0  0  0
    1.2231   26.3274  -27.6498 H   0  0  0  0  0  0  0  0  0  0  0  0
    0.0400   27.2488  -26.6117 H   0  0  0  0  0  0  0  0  0  0  0  0
    1.2540   25.8400  -25.5470 C   0  0  0  0  0  0  0  0  0  0  0  0
    2.0060   25.0865  -25.8241 H   0  0  0  0  0  0  0  0  0  0  0  0
    1.7122   26.7420  -25.1153 H   0  0  0  0  0  0  0  0  0  0  0  0
    0.3650   25.2600  -24.5130 N   0  0  1  0  0  0  0  0  0  0  0  0
    0.9820   24.9410  -23.7290 H   0  0  0  0  0  0  0  0  0  0  0  0
   -0.6210   26.2280  -23.9610 C   0  0  0  0  0  0  0  0  0  0  0  0
   -1.6216   25.9669  -24.3361 H   0  0  0  0  0  0  0  0  0  0  0  0
   -0.5756   26.1667  -22.8636 H   0  0  0  0  0  0  0  0  0  0  0  0
   -0.3070   27.6600  -24.3610 C   0  0  0  0  0  0  0  0  0  0  0  0
   -1.2050   28.3360  -25.2080 C   0  0  0  0  0  0  0  0  0  0  0  0
   -2.1176   27.8260  -25.5502 H   0  0  0  0  0  0  0  0  0  0  0  0
   -0.9520   29.6450  -25.6190 C   0  0  0  0  0  0  0  0  0  0  0  0
   -1.6659   30.1620  -26.2770 H   0  0  0  0  0  0  0  0  0  0  0  0
    0.2060   30.2990  -25.1960 C   0  0  0  0  0  0  0  0  0  0  0  0
    0.4095   31.3272  -25.5298 H   0  0  0  0  0  0  0  0  0  0  0  0
    1.1070   29.6490  -24.3490 C   0  0  0  0  0  0  0  0  0  0  0  0
    2.0171   30.1710  -24.0183 H   0  0  0  0  0  0  0  0  0  0  0  0
    0.8620   28.3340  -23.9150 C   0  0  0  0  0  0  0  0  0  0  0  0
    1.8270   27.6970  -22.9460 C   0  0  0  0  0  0  0  0  0  0  0  0
    1.5056   27.9092  -21.9156 H   0  0  0  0  0  0  0  0  0  0  0  0
    1.8447   26.6091  -23.1079 H   0  0  0  0  0  0  0  0  0  0  0  0
    2.8343   28.1083  -23.1079 H   0  0  0  0  0  0  0  0  0  0  0  0
   -0.3010   24.0470  -25.0370 C   0  0  0  0  0  0  0  0  0  0  0  0
    0.4609   23.2731  -25.2121 H   0  0  0  0  0  0  0  0  0  0  0  0
   -1.0412   23.7214  -24.2913 H   0  0  0  0  0  0  0  0  0  0  0  0
   -4.3440   23.4670  -31.2000 N   0  0  0  0  0  0  0  0  0  0  0  0
   -5.5770   23.0810  -31.6280 C   0  0  0  0  0  0  0  0  0  0  0  0
   -5.7230   21.8690  -32.4930 C   0  0  0  0  0  0  0  0  0  0  0  0
   -5.8305   20.9767  -31.8588 H   0  0  0  0  0  0  0  0  0  0  0  0
   -6.6146   21.9770  -33.1281 H   0  0  0  0  0  0  0  0  0  0  0  0
   -4.8312   21.7622  -33.1281 H   0  0  0  0  0  0  0  0  0  0  0  0
   -6.7020   23.8270  -31.2570 C   0  0  0  0  0  0  0  0  0  0  0  0
   -7.7077   23.5318  -31.5908 H   0  0  0  0  0  0  0  0  0  0  0  0
  1  2  1  0
  2  3  1  0
  3  4  1  0
  4  5  2  0
  5  6  1  0
  6  7  2  0
  7  8  1  0
  7  9  1  0
  9 10  1  0
  9 11  2  0
 11 12  1  0
 12 13  2  0
 13 14  1  0
 12 15  1  0
 15 16  1  0
 15 17  1  0
 15 18  1  0
 18 19  1  0
 18 20  1  0
 18 21  1  0
 21 22  1  1
 21 23  1  0
 23 24  1  0
 23 25  1  0
 23 26  1  0
 26 27  2  0
 27 28  1  0
 27 29  1  0
 29 30  1  0
 29 31  2  0
 31 32  1  0
 31 33  1  0
 33 34  1  0
 33 35  2  0
 35 36  1  0
 36 37  1  0
 36 38  1  0
 36 39  1  0
 21 40  1  0
 40 41  1  0
 40 42  1  0
  4 43  1  0
 43 44  2  0
 44 45  1  0
 45 46  1  0
 45 47  1  0
 45 48  1  0
 44 49  1  0
 49 50  1  0
 49  2  2  0
 13  6  1  0
 35 26  1  0
 40 11  1  0
M  CHG  2   3  -1  21   1
M  END
>  <UniqueID>  (24) 
24

>  <SMILES>  (24) 
Cc1cc[n-]/c(=N\c2ccc3c(c2)CC[N@@H+](Cc2ccccc2C)C3)n1

>  <Energy>  (24) 
67.83904869859923

>  <Genealogy>  (24) 
Cc1cc[n-]c(=Nc2ccc3c(c2)CC[NH+](Cc2ccccc2C)C3)n1 (protonated)
Cc1cc[n-]c(=Nc2ccc3c(c2)CC[N@@H+](Cc2ccccc2C)C3)n1 (chirality)
Cc1cc[n-]/c(=N\c2ccc3c(c2)CC[N@@H+](Cc2ccccc2C)C3)n1 (cis-trans isomerization)
Cc1cc[n-]/c(=N\c2ccc3c(c2)CC[N@@H+](Cc2ccccc2C)C3)n1 (3D coordinates assigned)
Cc1cc[n-]/c(=N\c2ccc3c(c2)CC[N@@H+](Cc2ccccc2C)C3)n1 (nonaromatic ring conformer: 67.83904869859923 kcal/mol)

>  <smiles>  (24) 
Cc1cc[nH]c(=Nc2ccc3c(c2)CCN(Cc2ccccc2C)C3)n1

>  <score_type>  (24) 
oracle

>  <origin>  (24) 
adg

>  <m_score__min__energy>  (24) 
-9.4299999999999997

>  <m_primary>  (24) 
energy

$$$$
24:0
     RDKit          3D

 48 51  0  0  0  0  0  0  0  0999 V2000
   -0.2124   26.0193  -22.9753 H   0  0  0  0  0  0  0  0  0  0  0  0
   -0.5780   25.7850  -23.9860 C   0  0  0  0  0  0  0  0  0  0  0  0
   -1.1740   26.7780  -24.7620 C   0  0  0  0  0  0  0  0  0  0  0  0
   -1.2772   27.8011  -24.3713 H   0  0  0  0  0  0  0  0  0  0  0  0
   -1.6390   26.4610  -26.0410 C   0  0  0  0  0  0  0  0  0  0  0  0
   -2.1115   27.2373  -26.6607 H   0  0  0  0  0  0  0  0  0  0  0  0
   -1.5090   25.1950  -26.5220 N   0  0  0  0  0  0  0  0  0  0  0  0
   -1.8810   24.9810  -27.4760 H   0  0  0  0  0  0  0  0  0  0  0  0
   -0.9230   24.2050  -25.7850 C   0  0  0  0  0  0  0  0  0  0  0  0
   -0.8670   22.7960  -26.3170 C   0  0  0  0  0  0  0  0  0  0  0  0
   -1.8932   22.4422  -26.4952 H   0  0  0  0  0  0  0  0  0  0  0  0
   -0.3556   22.1701  -25.5709 H   0  0  0  0  0  0  0  0  0  0  0  0
   -0.0780   22.7110  -27.6300 C   0  0  0  0  0  0  0  0  0  0  0  0
   -0.2912   21.7474  -28.1158 H   0  0  0  0  0  0  0  0  0  0  0  0
    0.9942   22.7985  -27.4003 H   0  0  0  0  0  0  0  0  0  0  0  0
   -0.4410   23.7710  -28.5160 O   0  0  0  0  0  0  0  0  0  0  0  0
   -1.4980   23.6800  -29.4280 C   0  0  0  0  0  0  0  0  0  0  0  0
   -2.4270   24.6780  -29.5470 N   0  0  0  0  0  0  0  0  0  0  0  0
   -3.5000   24.5650  -30.3920 C   0  0  0  0  0  0  0  0  0  0  0  0
   -4.3620   25.5360  -30.4530 N   0  0  0  0  0  0  0  0  0  0  0  0
   -5.7550   25.4440  -30.0180 C   0  0  0  0  0  0  0  0  0  0  0  0
   -5.7895   25.3843  -28.9202 H   0  0  0  0  0  0  0  0  0  0  0  0
   -6.2982   26.3361  -30.3632 H   0  0  0  0  0  0  0  0  0  0  0  0
   -6.4030   24.2180  -30.6030 C   0  0  0  0  0  0  0  0  0  0  0  0
   -6.9060   23.2190  -29.7550 C   0  0  0  0  0  0  0  0  0  0  0  0
   -6.8482   23.3465  -28.6639 H   0  0  0  0  0  0  0  0  0  0  0  0
   -7.4800   22.0630  -30.2910 C   0  0  0  0  0  0  0  0  0  0  0  0
   -7.8838   21.2893  -29.6214 H   0  0  0  0  0  0  0  0  0  0  0  0
   -7.5420   21.8880  -31.6780 C   0  0  0  0  0  0  0  0  0  0  0  0
   -8.2450   20.4300  -32.3490 Cl  0  0  0  0  0  0  0  0  0  0  0  0
   -7.0350   22.8770  -32.5290 C   0  0  0  0  0  0  0  0  0  0  0  0
   -7.0828   22.7405  -33.6195 H   0  0  0  0  0  0  0  0  0  0  0  0
   -6.4680   24.0380  -31.9950 C   0  0  0  0  0  0  0  0  0  0  0  0
   -6.0714   24.8133  -32.6670 H   0  0  0  0  0  0  0  0  0  0  0  0
   -3.6600   23.4340  -31.1470 N   0  0  0  0  0  0  0  0  0  0  0  0
   -2.7320   22.4520  -31.0480 C   0  0  0  0  0  0  0  0  0  0  0  0
   -1.6610   22.5510  -30.2170 C   0  0  0  0  0  0  0  0  0  0  0  0
   -0.9620   21.3640  -30.2970 C   0  0  0  0  0  0  0  0  0  0  0  0
   -0.0422   21.0910  -29.7590 H   0  0  0  0  0  0  0  0  0  0  0  0
   -1.6750   20.5860  -31.2080 C   0  0  0  0  0  0  0  0  0  0  0  0
   -1.4017   19.5633  -31.5071 H   0  0  0  0  0  0  0  0  0  0  0  0
   -2.7520   21.2650  -31.6740 N   0  0  0  0  0  0  0  0  0  0  0  0
   -3.8000   20.7480  -32.5470 C   0  0  0  0  0  0  0  0  0  0  0  0
   -4.6201   20.3434  -31.9356 H   0  0  0  0  0  0  0  0  0  0  0  0
   -4.1825   21.5608  -33.1819 H   0  0  0  0  0  0  0  0  0  0  0  0
   -3.3878   19.9499  -33.1819 H   0  0  0  0  0  0  0  0  0  0  0  0
   -0.4470   24.4930  -24.4960 C   0  0  0  0  0  0  0  0  0  0  0  0
    0.0263   23.7049  -23.8919 H   0  0  0  0  0  0  0  0  0  0  0  0
  1  2  1  0
  2  3  2  0
  3  4  1  0
  3  5  1  0
  5  6  1  0
  5  7  2  0
  7  8  1  0
  7  9  1  0
  9 10  1  0
 10 11  1  0
 10 12  1  0
 10 13  1  0
 13 14  1  0
 13 15  1  0
 13 16  1  0
 16 17  1  0
 17 18  2  0
 18 19  1  0
 19 20  2  0
 20 21  1  0
 21 22  1  0
 21 23  1  0
 21 24  1  0
 24 25  2  0
 25 26  1  0
 25 27  1  0
 27 28  1  0
 27 29  2  0
 29 30  1  0
 29 31  1  0
 31 32  1  0
 31 33  2  0
 33 34  1  0
 19 35  1  0
 35 36  1  0
 36 37  2  0
 37 38  1  0
 38 39  1  0
 38 40  2  0
 40 41  1  0
 40 42  1  0
 42 43  1  0
 43 44  1  0
 43 45  1  0
 43 46  1  0
  9 47  2  0
 47 48  1  0
 47  2  1  0
 37 17  1  0
 33 24  1  0
 42 36  1  0
M  CHG  2   7   1  35  -1
M  END
>  <UniqueID>  (25) 
25

>  <SMILES>  (25) 
Cn1ccc2c(OCCc3cccc[nH+]3)n/c(=N/Cc3ccc(Cl)cc3)[n-]c21

>  <Energy>  (25) 
78.09204437587881

>  <Genealogy>  (25) 
Cn1ccc2c(OCCc3cccc[nH+]3)nc(=NCc3ccc(Cl)cc3)[n-]c21 (protonated)
Cn1ccc2c(OCCc3cccc[nH+]3)n/c(=N/Cc3ccc(Cl)cc3)[n-]c21 (cis-trans isomerization)
Cn1ccc2c(OCCc3cccc[nH+]3)n/c(=N/Cc3ccc(Cl)cc3)[n-]c21 (3D coordinates assigned)
Cn1ccc2c(OCCc3cccc[nH+]3)n/c(=N/Cc3ccc(Cl)cc3)[n-]c21 (optimized conformer: 78.09204437587881 kcal/mol)

>  <smiles>  (25) 
Cn1ccc2c(OCCc3ccccn3)nc(=NCc3ccc(Cl)cc3)[nH]c21

>  <score_type>  (25) 
oracle

>  <origin>  (25) 
adg

>  <m_score__min__energy>  (25) 
-10.49

>  <m_primary>  (25) 
energy

$$$$
25:0
     RDKit          3D

 47 49  0  0  0  0  0  0  0  0999 V2000
   -3.4880   20.3170  -33.4520 C   0  0  0  0  0  0  0  0  0  0  0  0
   -4.5870   20.3870  -32.5490 O   0  0  0  0  0  0  0  0  0  0  0  0
   -5.6820   19.5100  -32.5600 C   0  0  0  0  0  0  0  0  0  0  0  0
   -5.5580   18.1660  -32.9660 C   0  0  0  0  0  0  0  0  0  0  0  0
   -6.6660   17.3130  -32.9340 C   0  0  0  0  0  0  0  0  0  0  0  0
   -7.9030   17.7880  -32.4980 C   0  0  0  0  0  0  0  0  0  0  0  0
   -8.0390   19.1190  -32.1000 C   0  0  0  0  0  0  0  0  0  0  0  0
   -6.9370   19.9870  -32.1370 C   0  0  0  0  0  0  0  0  0  0  0  0
   -7.0960   21.3580  -31.7370 N   0  0  0  0  0  0  0  0  0  0  0  0
   -7.8370   21.6730  -30.5100 C   0  0  0  0  0  0  0  0  0  0  0  0
   -7.2700   22.9250  -29.8050 C   0  0  0  0  0  0  0  0  0  0  0  0
   -6.4490   23.7840  -30.6930 N   0  0  0  0  0  0  0  0  0  0  0  0
   -6.3350   25.1200  -30.1360 C   0  0  0  0  0  0  0  0  0  0  0  0
   -7.2460   25.5540  -29.4410 O   0  0  0  0  0  0  0  0  0  0  0  0
   -5.1640   26.0280  -30.4630 C   0  0  0  0  0  0  0  0  0  0  0  0
   -3.9460   25.2920  -30.5920 O   0  0  0  0  0  0  0  0  0  0  0  0
   -3.6080   24.1490  -29.8470 C   0  0  0  0  0  0  0  0  0  0  0  0
   -3.1420   23.0230  -30.5370 C   0  0  0  0  0  0  0  0  0  0  0  0
   -2.7910   21.8600  -29.8450 C   0  0  0  0  0  0  0  0  0  0  0  0
   -2.9010   21.8140  -28.4510 C   0  0  0  0  0  0  0  0  0  0  0  0
   -2.4170   20.2270  -27.5060 Br  0  0  0  0  0  0  0  0  0  0  0  0
   -3.3620   22.9330  -27.7520 C   0  0  0  0  0  0  0  0  0  0  0  0
   -3.7180   24.0960  -28.4420 C   0  0  0  0  0  0  0  0  0  0  0  0
   -6.9680   23.8030  -32.0760 C   0  0  0  0  0  0  0  0  0  0  0  0
   -6.8100   22.4170  -32.7120 C   0  0  0  0  0  0  0  0  0  0  0  0
   -2.5488   20.2572  -32.8825 H   0  0  0  0  0  0  0  0  0  0  0  0
   -3.5903   19.4235  -34.0855 H   0  0  0  0  0  0  0  0  0  0  0  0
   -3.4761   21.2162  -34.0855 H   0  0  0  0  0  0  0  0  0  0  0  0
   -4.5847   17.7859  -33.3098 H   0  0  0  0  0  0  0  0  0  0  0  0
   -6.5617   16.2655  -33.2533 H   0  0  0  0  0  0  0  0  0  0  0  0
   -8.7715   17.1136  -32.4678 H   0  0  0  0  0  0  0  0  0  0  0  0
   -9.0157   19.4896  -31.7554 H   0  0  0  0  0  0  0  0  0  0  0  0
   -8.8909   21.8553  -30.7670 H   0  0  0  0  0  0  0  0  0  0  0  0
   -7.7405   20.8195  -29.8228 H   0  0  0  0  0  0  0  0  0  0  0  0
   -8.1122   23.5218  -29.4249 H   0  0  0  0  0  0  0  0  0  0  0  0
   -6.6113   22.5712  -28.9982 H   0  0  0  0  0  0  0  0  0  0  0  0
   -5.4830   23.3770  -30.7280 H   0  0  0  0  0  0  0  0  0  0  0  0
   -5.3691   26.5473  -31.4108 H   0  0  0  0  0  0  0  0  0  0  0  0
   -5.0456   26.7462  -29.6383 H   0  0  0  0  0  0  0  0  0  0  0  0
   -3.0514   23.0538  -31.6328 H   0  0  0  0  0  0  0  0  0  0  0  0
   -2.4281   20.9804  -30.3970 H   0  0  0  0  0  0  0  0  0  0  0  0
   -3.4451   22.8988  -26.6557 H   0  0  0  0  0  0  0  0  0  0  0  0
   -4.0849   24.9721  -27.8873 H   0  0  0  0  0  0  0  0  0  0  0  0
   -8.0328   24.0787  -32.0622 H   0  0  0  0  0  0  0  0  0  0  0  0
   -6.4010   24.5386  -32.6654 H   0  0  0  0  0  0  0  0  0  0  0  0
   -7.5084   22.3267  -33.5571 H   0  0  0  0  0  0  0  0  0  0  0  0
   -5.7718   22.3053  -33.0581 H   0  0  0  0  0  0  0  0  0  0  0  0
  1  2  1  0
  2  3  1  0
  3  4  2  0
  4  5  1  0
  5  6  2  0
  6  7  1  0
  7  8  2  0
  8  9  1  0
  9 10  1  0
 10 11  1  0
 11 12  1  0
 12 13  1  0
 13 14  2  0
 13 15  1  0
 15 16  1  0
 16 17  1  0
 17 18  2  0
 18 19  1  0
 19 20  2  0
 20 21  1  0
 20 22  1  0
 22 23  2  0
 12 24  1  0
 24 25  1  0
  8  3  1  0
 25  9  1  0
 23 17  1  0
  1 26  1  0
  1 27  1  0
  1 28  1  0
  4 29  1  0
  5 30  1  0
  6 31  1  0
  7 32  1  0
 10 33  1  0
 10 34  1  0
 11 35  1  0
 11 36  1  0
 12 37  1  0
 15 38  1  0
 15 39  1  0
 18 40  1  0
 19 41  1  0
 22 42  1  0
 23 43  1  0
 24 44  1  0
 24 45  1  0
 25 46  1  0
 25 47  1  0
M  CHG  1  12   1
M  END
>  <UniqueID>  (26) 
26

>  <SMILES>  (26) 
COc1ccccc1N1CC[NH+](C(=O)COc2ccc(Br)cc2)CC1

>  <Energy>  (26) 
61.420145293156494

>  <Genealogy>  (26) 
COc1ccccc1N1CC[NH+](C(=O)COc2ccc(Br)cc2)CC1 (protonated)
COc1ccccc1N1CC[NH+](C(=O)COc2ccc(Br)cc2)CC1 (3D coordinates assigned)
COc1ccccc1N1CC[NH+](C(=O)COc2ccc(Br)cc2)CC1 (nonaromatic ring conformer: 61.420145293156494 kcal/mol)

>  <smiles>  (26) 
COc1ccccc1N1CCN(C(=O)COc2ccc(Br)cc2)CC1

>  <score_type>  (26) 
oracle

>  <origin>  (26) 
adg

>  <m_score__min__energy>  (26) 
-7.7699999999999996

>  <m_primary>  (26) 
energy

$$$$
26:0
     RDKit          3D

 40 41  0  0  0  0  0  0  0  0999 V2000
   -2.9510   20.3530  -33.4770 C   0  0  0  0  0  0  0  0  0  0  0  0
   -4.0350   21.3710  -33.0790 C   0  0  2  0  0  0  0  0  0  0  0  0
   -3.5360   22.3690  -32.0120 C   0  0  0  0  0  0  0  0  0  0  0  0
   -4.5790   23.3250  -31.5590 N   0  0  0  0  0  0  0  0  0  0  0  0
   -4.7630   23.3640  -30.0900 C   0  0  0  0  0  0  0  0  0  0  0  0
   -4.3960   24.7460  -29.5460 C   0  0  0  0  0  0  0  0  0  0  0  0
   -3.8640   25.5440  -30.5680 O   0  0  0  0  0  0  0  0  0  0  0  0
   -5.8540   23.2220  -32.2990 C   0  0  0  0  0  0  0  0  0  0  0  0
   -6.3840   21.7740  -32.3660 C   0  0  0  0  0  0  0  0  0  0  0  0
   -5.3500   20.7590  -32.7270 N   0  0  2  0  0  0  0  0  0  0  0  0
   -5.3340   19.5710  -31.8160 C   0  0  0  0  0  0  0  0  0  0  0  0
   -5.6350   18.2230  -32.4530 C   0  0  0  0  0  0  0  0  0  0  0  0
   -6.9410   17.9150  -32.8840 C   0  0  0  0  0  0  0  0  0  0  0  0
   -7.2190   16.6890  -33.4910 C   0  0  0  0  0  0  0  0  0  0  0  0
   -6.1970   15.7650  -33.7190 C   0  0  0  0  0  0  0  0  0  0  0  0
   -6.6380   14.0890  -34.5350 Br  0  0  0  0  0  0  0  0  0  0  0  0
   -4.8770   16.0900  -33.3660 C   0  0  0  0  0  0  0  0  0  0  0  0
   -3.4230   14.8870  -33.6970 Br  0  0  0  0  0  0  0  0  0  0  0  0
   -4.6010   17.3230  -32.7640 C   0  0  0  0  0  0  0  0  0  0  0  0
   -2.4974   19.9270  -32.5700 H   0  0  0  0  0  0  0  0  0  0  0  0
   -3.4054   19.5476  -34.0727 H   0  0  0  0  0  0  0  0  0  0  0  0
   -2.1757   20.8570  -34.0727 H   0  0  0  0  0  0  0  0  0  0  0  0
   -4.2348   21.9513  -33.9919 H   0  0  0  0  0  0  0  0  0  0  0  0
   -3.1843   21.7987  -31.1396 H   0  0  0  0  0  0  0  0  0  0  0  0
   -2.7334   22.9621  -32.4748 H   0  0  0  0  0  0  0  0  0  0  0  0
   -5.8143   23.1469  -29.8500 H   0  0  0  0  0  0  0  0  0  0  0  0
   -4.1079   22.6114  -29.6270 H   0  0  0  0  0  0  0  0  0  0  0  0
   -5.2980   25.2281  -29.1411 H   0  0  0  0  0  0  0  0  0  0  0  0
   -3.6429   24.6305  -28.7526 H   0  0  0  0  0  0  0  0  0  0  0  0
   -3.4760   24.9240  -31.2400 H   0  0  0  0  0  0  0  0  0  0  0  0
   -6.6050   23.8495  -31.7967 H   0  0  0  0  0  0  0  0  0  0  0  0
   -5.6698   23.5582  -33.3300 H   0  0  0  0  0  0  0  0  0  0  0  0
   -6.7955   21.5115  -31.3802 H   0  0  0  0  0  0  0  0  0  0  0  0
   -7.1408   21.7514  -33.1640 H   0  0  0  0  0  0  0  0  0  0  0  0
   -5.6810   20.3540  -33.6370 H   0  0  0  0  0  0  0  0  0  0  0  0
   -4.3334   19.5106  -31.3631 H   0  0  0  0  0  0  0  0  0  0  0  0
   -6.1504   19.7429  -31.0991 H   0  0  0  0  0  0  0  0  0  0  0  0
   -7.7489   18.6476  -32.7407 H   0  0  0  0  0  0  0  0  0  0  0  0
   -8.2496   16.4492  -33.7916 H   0  0  0  0  0  0  0  0  0  0  0  0
   -3.5601   17.5916  -32.5309 H   0  0  0  0  0  0  0  0  0  0  0  0
  1  2  1  0
  2  3  1  0
  3  4  1  0
  4  5  1  0
  5  6  1  0
  6  7  1  0
  4  8  1  0
  8  9  1  0
  9 10  1  0
 10 11  1  0
 11 12  1  0
 12 13  2  0
 13 14  1  0
 14 15  2  0
 15 16  1  0
 15 17  1  0
 17 18  1  0
 17 19  2  0
 10  2  1  0
 19 12  1  0
  1 20  1  0
  1 21  1  0
  1 22  1  0
  2 23  1  6
  3 24  1  0
  3 25  1  0
  5 26  1  0
  5 27  1  0
  6 28  1  0
  6 29  1  0
  7 30  1  0
  8 31  1  0
  8 32  1  0
  9 33  1  0
  9 34  1  0
 10 35  1  6
 11 36  1  0
 11 37  1  0
 13 38  1  0
 14 39  1  0
 19 40  1  0
M  CHG  1  10   1
M  END
>  <UniqueID>  (27) 
27

>  <SMILES>  (27) 
C[C@@H]1CN(CCO)CC[N@@H+]1Cc1ccc(Br)c(Br)c1

>  <Energy>  (27) 
64.87514907156127

>  <Genealogy>  (27) 
CC1CN(CCO)CC[NH+]1Cc1ccc(Br)c(Br)c1 (protonated)
C[C@@H]1CN(CCO)CC[N@@H+]1Cc1ccc(Br)c(Br)c1 (chirality)
C[C@@H]1CN(CCO)CC[N@@H+]1Cc1ccc(Br)c(Br)c1 (3D coordinates assigned)
C[C@@H]1CN(CCO)CC[N@@H+]1Cc1ccc(Br)c(Br)c1 (nonaromatic ring conformer: 64.87514907156127 kcal/mol)

>  <smiles>  (27) 
CC1CN(CCO)CCN1Cc1ccc(Br)c(Br)c1

>  <score_type>  (27) 
oracle

>  <origin>  (27) 
adg

>  <m_score__min__energy>  (27) 
-6.8200000000000003

>  <m_primary>  (27) 
energy

$$$$
27:0
     RDKit          3D

 44 46  0  0  0  0  0  0  0  0999 V2000
   -1.6090   25.4500  -27.1130 C   0  0  0  0  0  0  0  0  0  0  0  0
   -1.7840   25.5500  -28.5220 O   0  0  0  0  0  0  0  0  0  0  0  0
   -2.1950   24.4930  -29.3480 C   0  0  0  0  0  0  0  0  0  0  0  0
   -1.3750   23.3810  -29.6110 C   0  0  0  0  0  0  0  0  0  0  0  0
   -1.8280   22.3540  -30.4390 C   0  0  0  0  0  0  0  0  0  0  0  0
   -3.1060   22.4130  -31.0130 C   0  0  0  0  0  0  0  0  0  0  0  0
   -3.5640   21.3230  -31.9050 C   0  0  0  0  0  0  0  0  0  0  0  0
   -4.8620   20.9100  -31.8370 N   0  0  0  0  0  0  0  0  0  0  0  0
   -5.3420   19.9080  -32.6280 C   0  0  0  0  0  0  0  0  0  0  0  0
   -6.7600   19.5040  -32.4930 C   0  0  0  0  0  0  0  0  0  0  0  0
   -7.7840   20.4330  -32.7240 C   0  0  0  0  0  0  0  0  0  0  0  0
   -9.1190   20.0530  -32.5760 C   0  0  0  0  0  0  0  0  0  0  0  0
   -9.4190   18.7460  -32.1880 C   0  0  0  0  0  0  0  0  0  0  0  0
   -8.4150   17.8590  -31.9500 N   0  0  0  0  0  0  0  0  0  0  0  0
   -7.1080   18.2050  -32.0890 C   0  0  0  0  0  0  0  0  0  0  0  0
   -4.4770   19.3070  -33.5670 C   0  0  0  0  0  0  0  0  0  0  0  0
   -4.9300   18.2350  -34.5150 C   0  0  0  0  0  0  0  0  0  0  0  0
   -3.1810   19.7080  -33.6150 N   0  0  0  0  0  0  0  0  0  0  0  0
   -2.6910   20.6840  -32.8090 C   0  0  0  0  0  0  0  0  0  0  0  0
   -1.2400   21.0500  -32.9200 C   0  0  0  0  0  0  0  0  0  0  0  0
   -3.9340   23.5250  -30.7640 C   0  0  0  0  0  0  0  0  0  0  0  0
   -5.2090   23.5650  -31.3520 O   0  0  0  0  0  0  0  0  0  0  0  0
   -6.3510   24.1800  -30.7650 C   0  0  0  0  0  0  0  0  0  0  0  0
   -3.4660   24.5580  -29.9280 C   0  0  0  0  0  0  0  0  0  0  0  0
   -2.4553   25.9336  -26.6032 H   0  0  0  0  0  0  0  0  0  0  0  0
   -1.5638   24.3898  -26.8235 H   0  0  0  0  0  0  0  0  0  0  0  0
   -0.6726   25.9494  -26.8235 H   0  0  0  0  0  0  0  0  0  0  0  0
   -0.3726   23.3210  -29.1620 H   0  0  0  0  0  0  0  0  0  0  0  0
   -1.1775   21.4908  -30.6433 H   0  0  0  0  0  0  0  0  0  0  0  0
   -5.5060   21.3720  -31.1540 H   0  0  0  0  0  0  0  0  0  0  0  0
   -7.5354   21.4622  -33.0221 H   0  0  0  0  0  0  0  0  0  0  0  0
   -9.9265   20.7761  -32.7632 H   0  0  0  0  0  0  0  0  0  0  0  0
  -10.4674   18.4331  -32.0746 H   0  0  0  0  0  0  0  0  0  0  0  0
   -6.3203   17.4650  -31.8843 H   0  0  0  0  0  0  0  0  0  0  0  0
   -5.2956   17.3698  -33.9425 H   0  0  0  0  0  0  0  0  0  0  0  0
   -5.7405   18.6244  -35.1486 H   0  0  0  0  0  0  0  0  0  0  0  0
   -4.0859   17.9252  -35.1486 H   0  0  0  0  0  0  0  0  0  0  0  0
   -0.8111   21.1582  -31.9129 H   0  0  0  0  0  0  0  0  0  0  0  0
   -0.7030   20.2592  -33.4642 H   0  0  0  0  0  0  0  0  0  0  0  0
   -1.1423   22.0009  -33.4642 H   0  0  0  0  0  0  0  0  0  0  0  0
   -6.2686   24.1356  -29.6690 H   0  0  0  0  0  0  0  0  0  0  0  0
   -6.4075   25.2305  -31.0862 H   0  0  0  0  0  0  0  0  0  0  0  0
   -7.2592   23.6490  -31.0862 H   0  0  0  0  0  0  0  0  0  0  0  0
   -4.1092   25.4278  -29.7287 H   0  0  0  0  0  0  0  0  0  0  0  0
  1  2  1  0
  2  3  1  0
  3  4  2  0
  4  5  1  0
  5  6  2  0
  6  7  1  0
  7  8  2  0
  8  9  1  0
  9 10  1  0
 10 11  2  0
 11 12  1  0
 12 13  2  0
 13 14  1  0
 14 15  2  0
  9 16  2  0
 16 17  1  0
 16 18  1  0
 18 19  2  0
 19 20  1  0
  6 21  1  0
 21 22  1  0
 22 23  1  0
 21 24  2  0
 24  3  1  0
 19  7  1  0
 15 10  1  0
  1 25  1  0
  1 26  1  0
  1 27  1  0
  4 28  1  0
  5 29  1  0
  8 30  1  0
 11 31  1  0
 12 32  1  0
 13 33  1  0
 15 34  1  0
 17 35  1  0
 17 36  1  0
 17 37  1  0
 20 38  1  0
 20 39  1  0
 20 40  1  0
 23 41  1  0
 23 42  1  0
 23 43  1  0
 24 44  1  0
M  CHG  1   8   1
M  END
>  <UniqueID>  (28) 
28

>  <SMILES>  (28) 
COc1ccc(-c2[nH+]c(-c3cccnc3)c(C)nc2C)c(OC)c1

>  <Energy>  (28) 
60.0340506277441

>  <Genealogy>  (28) 
COc1ccc(-c2[nH+]c(-c3cccnc3)c(C)nc2C)c(OC)c1 (protonated)
COc1ccc(-c2[nH+]c(-c3cccnc3)c(C)nc2C)c(OC)c1 (3D coordinates assigned)
COc1ccc(-c2[nH+]c(-c3cccnc3)c(C)nc2C)c(OC)c1 (optimized conformer: 60.0340506277441 kcal/mol)

>  <smiles>  (28) 
COc1ccc(-c2nc(-c3cccnc3)c(C)nc2C)c(OC)c1

>  <score_type>  (28) 
oracle

>  <origin>  (28) 
adg

>  <m_score__min__energy>  (28) 
-7.2800000000000002

>  <m_primary>  (28) 
energy

$$$$
28:0
     RDKit          3D

 32 33  0  0  0  0  0  0  0  0999 V2000
   -9.6570   21.5240  -30.7330 C   0  0  0  0  0  0  0  0  0  0  0  0
   -9.0180   22.0680  -32.0050 C   0  0  0  0  0  0  0  0  0  0  0  0
   -7.7530   21.3830  -32.2760 N   0  0  0  0  0  0  0  0  0  0  0  0
   -7.6760   20.3120  -33.0510 N   0  0  0  0  0  0  0  0  0  0  0  0
   -6.3700   20.0240  -33.2180 C   0  0  0  0  0  0  0  0  0  0  0  0
   -5.8660   18.9250  -34.0920 C   0  0  0  0  0  0  0  0  0  0  0  0
   -5.5900   20.9620  -32.5710 C   0  0  0  0  0  0  0  0  0  0  0  0
   -6.5040   21.8060  -31.9700 C   0  0  0  0  0  0  0  0  0  0  0  0
   -6.1590   23.0130  -31.1940 C   0  0  0  0  0  0  0  0  0  0  0  0
   -7.1770   23.8060  -30.6450 C   0  0  0  0  0  0  0  0  0  0  0  0
   -6.8590   24.9530  -29.9160 C   0  0  0  0  0  0  0  0  0  0  0  0
   -5.5230   25.3260  -29.7410 C   0  0  0  0  0  0  0  0  0  0  0  0
   -4.4920   24.5520  -30.3070 C   0  0  0  0  0  0  0  0  0  0  0  0
   -3.1380   24.8920  -30.1730 O   0  0  0  0  0  0  0  0  0  0  0  0
   -2.2120   24.1980  -29.3430 C   0  0  0  0  0  0  0  0  0  0  0  0
   -4.8210   23.4020  -31.0340 C   0  0  0  0  0  0  0  0  0  0  0  0
   -9.1516   21.9543  -29.8558 H   0  0  0  0  0  0  0  0  0  0  0  0
  -10.7225   21.7964  -30.7125 H   0  0  0  0  0  0  0  0  0  0  0  0
   -9.5581   20.4286  -30.7125 H   0  0  0  0  0  0  0  0  0  0  0  0
   -9.7036   21.9103  -32.8506 H   0  0  0  0  0  0  0  0  0  0  0  0
   -8.8201   23.1419  -31.8728 H   0  0  0  0  0  0  0  0  0  0  0  0
   -5.4889   18.1026  -33.4663 H   0  0  0  0  0  0  0  0  0  0  0  0
   -6.6852   18.5566  -34.7271 H   0  0  0  0  0  0  0  0  0  0  0  0
   -5.0524   19.3054  -34.7271 H   0  0  0  0  0  0  0  0  0  0  0  0
   -4.4921   21.0232  -32.5410 H   0  0  0  0  0  0  0  0  0  0  0  0
   -8.2301   23.5230  -30.7894 H   0  0  0  0  0  0  0  0  0  0  0  0
   -7.6614   25.5649  -29.4781 H   0  0  0  0  0  0  0  0  0  0  0  0
   -5.2767   26.2267  -29.1595 H   0  0  0  0  0  0  0  0  0  0  0  0
   -2.4573   24.3818  -28.2866 H   0  0  0  0  0  0  0  0  0  0  0  0
   -2.2704   23.1194  -29.5507 H   0  0  0  0  0  0  0  0  0  0  0  0
   -1.1931   24.5568  -29.5507 H   0  0  0  0  0  0  0  0  0  0  0  0
   -4.0211   22.7964  -31.4850 H   0  0  0  0  0  0  0  0  0  0  0  0
  1  2  1  0
  2  3  1  0
  3  4  1  0
  4  5  2  0
  5  6  1  0
  5  7  1  0
  7  8  2  0
  8  9  1  0
  9 10  2  0
 10 11  1  0
 11 12  2  0
 12 13  1  0
 13 14  1  0
 14 15  1  0
 13 16  2  0
  8  3  1  0
 16  9  1  0
  1 17  1  0
  1 18  1  0
  1 19  1  0
  2 20  1  0
  2 21  1  0
  6 22  1  0
  6 23  1  0
  6 24  1  0
  7 25  1  0
 10 26  1  0
 11 27  1  0
 12 28  1  0
 15 29  1  0
 15 30  1  0
 15 31  1  0
 16 32  1  0
M  END
>  <UniqueID>  (29) 
29

>  <SMILES>  (29) 
CCn1nc(C)cc1-c1cccc(OC)c1

>  <Energy>  (29) 
61.969826786735254

>  <Genealogy>  (29) 
CCn1nc(C)cc1-c1cccc(OC)c1 (3D coordinates assigned)
CCn1nc(C)cc1-c1cccc(OC)c1 (optimized conformer: 61.969826786735254 kcal/mol)

>  <smiles>  (29) 
CCn1nc(C)cc1-c1cccc(OC)c1

>  <score_type>  (29) 
oracle

>  <origin>  (29) 
adg

>  <m_score__min__energy>  (29) 
-6.96

>  <m_primary>  (29) 
energy

$$$$
29:0
     RDKit          3D

 39 41  0  0  1  0  0  0  0  0999 V2000
   -3.2400   18.8280  -25.8980 C   0  0  0  0  0  0  0  0  0  0  0  0
   -1.9730   19.0310  -26.6680 C   0  0  0  0  0  0  0  0  0  0  0  0
   -1.6430   20.2490  -27.2360 C   0  0  0  0  0  0  0  0  0  0  0  0
   -0.4570   20.3170  -27.9180 C   0  0  0  0  0  0  0  0  0  0  0  0
   -0.1570   21.4750  -28.4490 N   0  0  0  0  0  0  0  0  0  0  0  0
   -1.1610   22.2900  -29.0530 C   0  0  0  0  0  0  0  0  0  0  0  0
   -1.9000   21.9250  -30.0640 C   0  0  0  0  0  0  0  0  0  0  0  0
   -2.9130   22.8500  -30.6130 C   0  0  0  0  0  0  0  0  0  0  0  0
   -3.6320   22.5110  -31.5890 O   0  0  0  0  0  0  0  0  0  0  0  0
   -3.0820   24.1720  -30.0210 C   0  0  0  0  0  0  0  0  0  0  0  0
   -4.0080   25.1000  -30.4760 O   0  0  0  0  0  0  0  0  0  0  0  0
   -5.2970   25.2050  -29.8760 C   0  0  0  0  0  0  0  0  0  0  0  0
   -6.1580   24.1390  -30.4770 C   0  0  0  0  0  0  0  0  0  0  0  0
   -6.1910   24.1240  -31.8740 C   0  0  0  0  0  0  0  0  0  0  0  0
   -6.9560   23.1780  -32.5060 C   0  0  0  0  0  0  0  0  0  0  0  0
   -7.6820   22.2560  -31.7680 C   0  0  0  0  0  0  0  0  0  0  0  0
   -8.4360   21.3250  -32.4210 F   0  0  0  0  0  0  0  0  0  0  0  0
   -7.6250   22.3000  -30.3790 C   0  0  0  0  0  0  0  0  0  0  0  0
   -6.8640   23.2390  -29.7180 C   0  0  0  0  0  0  0  0  0  0  0  0
   -2.3310   24.5610  -28.9840 C   0  0  0  0  0  0  0  0  0  0  0  0
   -1.3390   23.6260  -28.4630 C   0  0  0  0  0  0  0  0  0  0  0  0
   -0.6430   24.0210  -27.4810 O   0  0  0  0  0  0  0  0  0  0  0  0
    0.3910   19.2830  -28.0640 N   0  0  0  0  0  0  0  0  0  0  0  0
    0.0420   18.1030  -27.5000 C   0  0  0  0  0  0  0  0  0  0  0  0
   -1.1310   17.9900  -26.8100 N   0  0  0  0  0  0  0  0  0  0  0  0
   -3.0235   18.8627  -24.8201 H   0  0  0  0  0  0  0  0  0  0  0  0
   -3.9560   19.6229  -26.1540 H   0  0  0  0  0  0  0  0  0  0  0  0
   -3.6718   17.8492  -26.1540 H   0  0  0  0  0  0  0  0  0  0  0  0
   -2.3037   21.1236  -27.1439 H   0  0  0  0  0  0  0  0  0  0  0  0
   -1.7689   20.9273  -30.5084 H   0  0  0  0  0  0  0  0  0  0  0  0
   -5.2189   25.0569  -28.7888 H   0  0  0  0  0  0  0  0  0  0  0  0
   -5.7291   26.2005  -30.0553 H   0  0  0  0  0  0  0  0  0  0  0  0
   -5.6138   24.8577  -32.4558 H   0  0  0  0  0  0  0  0  0  0  0  0
   -6.9939   23.1504  -33.6050 H   0  0  0  0  0  0  0  0  0  0  0  0
   -8.2012   21.5677  -29.7944 H   0  0  0  0  0  0  0  0  0  0  0  0
   -6.8234   23.2667  -28.6191 H   0  0  0  0  0  0  0  0  0  0  0  0
   -2.4579   25.5579  -28.5367 H   0  0  0  0  0  0  0  0  0  0  0  0
    0.7060   17.2315  -27.5979 H   0  0  0  0  0  0  0  0  0  0  0  0
   -1.3780   17.0500  -26.3770 H   0  0  0  0  0  0  0  0  0  0  0  0
  1  2  1  0
  2  3  2  0
  3  4  1  0
  4  5  2  0
  5  6  1  0
  6  7  2  0
  7  8  1  0
  8  9  2  0
  8 10  1  0
 10 11  1  0
 11 12  1  0
 12 13  1  0
 13 14  2  0
 14 15  1  0
 15 16  2  0
 16 17  1  0
 16 18  1  0
 18 19  2  0
 10 20  2  0
 20 21  1  0
 21 22  2  0
  4 23  1  0
 23 24  2  0
 24 25  1  0
 25  2  1  0
 21  6  1  0
 19 13  1  0
  1 26  1  0
  1 27  1  0
  1 28  1  0
  3 29  1  0
  7 30  1  0
 12 31  1  0
 12 32  1  0
 14 33  1  0
 15 34  1  0
 18 35  1  0
 19 36  1  0
 20 37  1  0
 24 38  1  0
 25 39  1  0
M  END
>  <smiles>  (30) 
Cc1cc(=NC2=CC(=O)C(OCc3ccc(F)cc3)=CC2=O)nc[nH]1

>  <score_type>  (30) 
oracle

>  <origin>  (30) 
adg

>  <m_score__min__energy>  (30) 
-8.5099999999999998

>  <m_primary>  (30) 
energy

$$$$
30:0
     RDKit          3D

 44 46  0  0  0  0  0  0  0  0999 V2000
   -1.3970   24.9090  -28.3740 C   0  0  0  0  0  0  0  0  0  0  0  0
   -2.3660   25.2970  -29.3410 O   0  0  0  0  0  0  0  0  0  0  0  0
   -3.6200   24.6870  -29.4940 C   0  0  0  0  0  0  0  0  0  0  0  0
   -3.8340   23.4440  -28.8850 C   0  0  0  0  0  0  0  0  0  0  0  0
   -5.0660   22.7950  -29.0080 C   0  0  0  0  0  0  0  0  0  0  0  0
   -6.1080   23.3860  -29.7400 C   0  0  0  0  0  0  0  0  0  0  0  0
   -7.4290   22.6750  -29.9020 C   0  0  0  0  0  0  0  0  0  0  0  0
   -8.1190   23.0730  -31.1400 N   0  0  0  0  0  0  0  0  0  0  0  0
   -7.4970   22.4790  -32.3400 C   0  0  0  0  0  0  0  0  0  0  0  0
   -7.5170   20.9630  -32.2770 C   0  0  0  0  0  0  0  0  0  0  0  0
   -8.7530   20.4090  -31.8910 C   0  0  0  0  0  0  0  0  0  0  0  0
   -8.9860   19.0440  -31.9550 C   0  0  0  0  0  0  0  0  0  0  0  0
   -8.0050   18.1940  -32.4330 C   0  0  0  0  0  0  0  0  0  0  0  0
   -6.7480   18.6920  -32.8000 C   0  0  0  0  0  0  0  0  0  0  0  0
   -5.8010   17.7900  -33.3030 C   0  0  0  0  0  0  0  0  0  0  0  0
   -4.5390   18.2270  -33.6710 C   0  0  0  0  0  0  0  0  0  0  0  0
   -4.1810   19.5530  -33.4840 C   0  0  0  0  0  0  0  0  0  0  0  0
   -5.0830   20.4860  -32.9380 C   0  0  0  0  0  0  0  0  0  0  0  0
   -4.4890   21.8350  -32.6120 C   0  0  0  0  0  0  0  0  0  0  0  0
   -6.4410   20.0860  -32.6680 C   0  0  0  0  0  0  0  0  0  0  0  0
   -5.8950   24.6290  -30.3570 C   0  0  0  0  0  0  0  0  0  0  0  0
   -4.6620   25.2770  -30.2340 C   0  0  0  0  0  0  0  0  0  0  0  0
   -1.8016   25.0710  -27.3640 H   0  0  0  0  0  0  0  0  0  0  0  0
   -1.1540   23.8442  -28.5052 H   0  0  0  0  0  0  0  0  0  0  0  0
   -0.4863   25.5118  -28.5052 H   0  0  0  0  0  0  0  0  0  0  0  0
   -3.0258   22.9745  -28.3050 H   0  0  0  0  0  0  0  0  0  0  0  0
   -5.2197   21.8168  -28.5290 H   0  0  0  0  0  0  0  0  0  0  0  0
   -7.2480   21.5903  -29.9288 H   0  0  0  0  0  0  0  0  0  0  0  0
   -8.0701   22.9494  -29.0513 H   0  0  0  0  0  0  0  0  0  0  0  0
   -8.1100   24.1170  -31.2220 H   0  0  0  0  0  0  0  0  0  0  0  0
   -9.1200   22.7790  -31.0680 H   0  0  0  0  0  0  0  0  0  0  0  0
   -8.0513   22.8081  -33.2313 H   0  0  0  0  0  0  0  0  0  0  0  0
   -6.4495   22.8111  -32.3891 H   0  0  0  0  0  0  0  0  0  0  0  0
   -9.5514   21.0744  -31.5307 H   0  0  0  0  0  0  0  0  0  0  0  0
   -9.9528   18.6360  -31.6251 H   0  0  0  0  0  0  0  0  0  0  0  0
   -8.2136   17.1179  -32.5257 H   0  0  0  0  0  0  0  0  0  0  0  0
   -6.0618   16.7264  -33.4065 H   0  0  0  0  0  0  0  0  0  0  0  0
   -3.8201   17.5209  -34.1121 H   0  0  0  0  0  0  0  0  0  0  0  0
   -3.1710   19.8833  -33.7682 H   0  0  0  0  0  0  0  0  0  0  0  0
   -4.4350   21.9577  -31.5202 H   0  0  0  0  0  0  0  0  0  0  0  0
   -3.4776   21.9032  -33.0391 H   0  0  0  0  0  0  0  0  0  0  0  0
   -5.1216   22.6271  -33.0391 H   0  0  0  0  0  0  0  0  0  0  0  0
   -6.7024   25.0957  -30.9403 H   0  0  0  0  0  0  0  0  0  0  0  0
   -4.5056   26.2524  -30.7178 H   0  0  0  0  0  0  0  0  0  0  0  0
  1  2  1  0
  2  3  1  0
  3  4  2  0
  4  5  1  0
  5  6  2  0
  6  7  1  0
  7  8  1  0
  8  9  1  0
  9 10  1  0
 10 11  2  0
 11 12  1  0
 12 13  2  0
 13 14  1  0
 14 15  2  0
 15 16  1  0
 16 17  2  0
 17 18  1  0
 18 19  1  0
 18 20  2  0
  6 21  1  0
 21 22  2  0
 22  3  1  0
 20 10  1  0
 20 14  1  0
  1 23  1  0
  1 24  1  0
  1 25  1  0
  4 26  1  0
  5 27  1  0
  7 28  1  0
  7 29  1  0
  8 30  1  0
  8 31  1  0
  9 32  1  0
  9 33  1  0
 11 34  1  0
 12 35  1  0
 13 36  1  0
 15 37  1  0
 16 38  1  0
 17 39  1  0
 19 40  1  0
 19 41  1  0
 19 42  1  0
 21 43  1  0
 22 44  1  0
M  CHG  1   8   1
M  END
>  <UniqueID>  (31) 
30

>  <SMILES>  (31) 
COc1ccc(C[NH2+]Cc2cccc3cccc(C)c23)cc1

>  <Energy>  (31) 
63.8748154505419

>  <Genealogy>  (31) 
COc1ccc(C[NH2+]Cc2cccc3cccc(C)c23)cc1 (protonated)
COc1ccc(C[NH2+]Cc2cccc3cccc(C)c23)cc1 (3D coordinates assigned)
COc1ccc(C[NH2+]Cc2cccc3cccc(C)c23)cc1 (optimized conformer: 63.8748154505419 kcal/mol)

>  <smiles>  (31) 
COc1ccc(CNCc2cccc3cccc(C)c23)cc1

>  <score_type>  (31) 
oracle

>  <origin>  (31) 
adg

>  <m_score__min__energy>  (31) 
-8.0800000000000001

>  <m_primary>  (31) 
energy

$$$$
31:0
     RDKit          3D

 47 50  0  0  0  0  0  0  0  0999 V2000
   -5.6190   25.4650  -30.4810 C   0  0  0  0  0  0  0  0  0  0  0  0
   -4.2550   25.2360  -30.8150 O   0  0  0  0  0  0  0  0  0  0  0  0
   -3.5110   24.1120  -30.4160 C   0  0  0  0  0  0  0  0  0  0  0  0
   -2.5770   24.1820  -29.3660 C   0  0  0  0  0  0  0  0  0  0  0  0
   -1.8590   23.0510  -28.9780 C   0  0  0  0  0  0  0  0  0  0  0  0
   -2.0540   21.8260  -29.6280 C   0  0  0  0  0  0  0  0  0  0  0  0
   -1.2880   20.6350  -29.1900 C   0  0  0  0  0  0  0  0  0  0  0  0
   -1.6260   19.8350  -28.1420 N   0  0  0  0  0  0  0  0  0  0  0  0
   -0.6530   18.9140  -28.1250 C   0  0  0  0  0  0  0  0  0  0  0  0
   -0.4850   17.8420  -27.2530 C   0  0  0  0  0  0  0  0  0  0  0  0
    0.6370   17.0140  -27.4480 C   0  0  0  0  0  0  0  0  0  0  0  0
    1.5500   17.2800  -28.4970 C   0  0  0  0  0  0  0  0  0  0  0  0
    1.3480   18.3770  -29.3570 C   0  0  0  0  0  0  0  0  0  0  0  0
    0.2270   19.1710  -29.1330 C   0  0  0  0  0  0  0  0  0  0  0  0
   -0.1710   20.2350  -29.7840 O   0  0  0  0  0  0  0  0  0  0  0  0
   -2.9720   21.7560  -30.6870 C   0  0  0  0  0  0  0  0  0  0  0  0
   -3.7130   22.8880  -31.0840 C   0  0  0  0  0  0  0  0  0  0  0  0
   -4.6770   22.8090  -32.1580 N   0  0  0  0  0  0  0  0  0  0  0  0
   -5.1940   21.5570  -32.7190 C   0  0  0  0  0  0  0  0  0  0  0  0
   -6.6750   21.3920  -32.4350 C   0  0  0  0  0  0  0  0  0  0  0  0
   -7.3990   22.4950  -31.9420 C   0  0  0  0  0  0  0  0  0  0  0  0
   -8.7630   22.3870  -31.6630 C   0  0  0  0  0  0  0  0  0  0  0  0
   -9.4280   21.1840  -31.8880 C   0  0  0  0  0  0  0  0  0  0  0  0
   -8.7380   20.0890  -32.4090 C   0  0  0  0  0  0  0  0  0  0  0  0
   -7.3670   20.1820  -32.7080 C   0  0  0  0  0  0  0  0  0  0  0  0
   -6.6710   18.9840  -33.3010 C   0  0  0  0  0  0  0  0  0  0  0  0
   -5.7304   25.4837  -29.3868 H   0  0  0  0  0  0  0  0  0  0  0  0
   -5.9418   26.4299  -30.8990 H   0  0  0  0  0  0  0  0  0  0  0  0
   -6.2393   24.6584  -30.8990 H   0  0  0  0  0  0  0  0  0  0  0  0
   -2.4116   25.1374  -28.8464 H   0  0  0  0  0  0  0  0  0  0  0  0
   -1.1333   23.1218  -28.1544 H   0  0  0  0  0  0  0  0  0  0  0  0
   -2.4310   19.9120  -27.4820 H   0  0  0  0  0  0  0  0  0  0  0  0
   -1.2022   17.6489  -26.4416 H   0  0  0  0  0  0  0  0  0  0  0  0
    0.8053   16.1553  -26.7814 H   0  0  0  0  0  0  0  0  0  0  0  0
    2.4225   16.6258  -28.6412 H   0  0  0  0  0  0  0  0  0  0  0  0
    2.0497   18.5979  -30.1748 H   0  0  0  0  0  0  0  0  0  0  0  0
   -3.1159   20.8024  -31.2161 H   0  0  0  0  0  0  0  0  0  0  0  0
   -5.0620   23.6930  -32.5620 H   0  0  0  0  0  0  0  0  0  0  0  0
   -5.0368   21.5610  -33.8077 H   0  0  0  0  0  0  0  0  0  0  0  0
   -4.6566   20.7198  -32.2496 H   0  0  0  0  0  0  0  0  0  0  0  0
   -6.8840   23.4525  -31.7748 H   0  0  0  0  0  0  0  0  0  0  0  0
   -9.3128   23.2527  -31.2652 H   0  0  0  0  0  0  0  0  0  0  0  0
  -10.4994   21.0971  -31.6544 H   0  0  0  0  0  0  0  0  0  0  0  0
   -9.2715   19.1438  -32.5876 H   0  0  0  0  0  0  0  0  0  0  0  0
   -6.2967   18.3397  -32.4918 H   0  0  0  0  0  0  0  0  0  0  0  0
   -7.3808   18.4178  -33.9220 H   0  0  0  0  0  0  0  0  0  0  0  0
   -5.8276   19.3201  -33.9220 H   0  0  0  0  0  0  0  0  0  0  0  0
  1  2  1  0
  2  3  1  0
  3  4  2  0
  4  5  1  0
  5  6  2  0
  6  7  1  0
  7  8  2  0
  8  9  1  0
  9 10  2  0
 10 11  1  0
 11 12  2  0
 12 13  1  0
 13 14  2  0
 14 15  1  0
  6 16  1  0
 16 17  2  0
 17 18  1  0
 18 19  1  0
 19 20  1  0
 20 21  2  0
 21 22  1  0
 22 23  2  0
 23 24  1  0
 24 25  2  0
 25 26  1  0
 17  3  1  0
 25 20  1  0
 15  7  1  0
 14  9  1  0
  1 27  1  0
  1 28  1  0
  1 29  1  0
  4 30  1  0
  5 31  1  0
  8 32  1  0
 10 33  1  0
 11 34  1  0
 12 35  1  0
 13 36  1  0
 16 37  1  0
 18 38  1  0
 19 39  1  0
 19 40  1  0
 21 41  1  0
 22 42  1  0
 23 43  1  0
 24 44  1  0
 26 45  1  0
 26 46  1  0
 26 47  1  0
M  CHG  1   8   1
M  END
>  <UniqueID>  (32) 
31

>  <SMILES>  (32) 
COc1ccc(-c2[nH+]c3ccccc3o2)cc1NCc1ccccc1C

>  <Energy>  (32) 
92.17781432757616

>  <Genealogy>  (32) 
COc1ccc(-c2[nH+]c3ccccc3o2)cc1NCc1ccccc1C (protonated)
COc1ccc(-c2[nH+]c3ccccc3o2)cc1NCc1ccccc1C (3D coordinates assigned)
COc1ccc(-c2[nH+]c3ccccc3o2)cc1NCc1ccccc1C (optimized conformer: 92.17781432757616 kcal/mol)

>  <smiles>  (32) 
COc1ccc(-c2nc3ccccc3o2)cc1NCc1ccccc1C

>  <score_type>  (32) 
oracle

>  <origin>  (32) 
adg

>  <m_score__min__energy>  (32) 
-8.1500000000000004

>  <m_primary>  (32) 
energy

$$$$
32:0
     RDKit          3D

 59 61  0  0  0  0  0  0  0  0999 V2000
   -5.7010   16.6820  -32.0670 C   0  0  0  0  0  0  0  0  0  0  0  0
   -6.4840   16.3080  -33.3290 C   0  0  0  0  0  0  0  0  0  0  0  0
   -5.8700   16.9170  -34.5970 C   0  0  0  0  0  0  0  0  0  0  0  0
   -6.1640   18.3490  -34.7030 N   0  0  0  0  0  0  0  0  0  0  0  0
   -5.6230   19.3520  -33.8160 C   0  0  0  0  0  0  0  0  0  0  0  0
   -4.2400   19.6160  -33.8230 C   0  0  0  0  0  0  0  0  0  0  0  0
   -3.6970   20.6190  -33.0190 C   0  0  0  0  0  0  0  0  0  0  0  0
   -4.5180   21.3830  -32.1810 C   0  0  0  0  0  0  0  0  0  0  0  0
   -3.9040   22.4360  -31.3420 C   0  0  0  0  0  0  0  0  0  0  0  0
   -4.6700   23.5420  -30.9360 C   0  0  0  0  0  0  0  0  0  0  0  0
   -4.1000   24.5300  -30.1300 C   0  0  0  0  0  0  0  0  0  0  0  0
   -2.7760   24.4120  -29.6870 C   0  0  0  0  0  0  0  0  0  0  0  0
   -2.2720   25.4090  -28.8520 O   0  0  0  0  0  0  0  0  0  0  0  0
   -2.0240   25.2370  -27.4590 C   0  0  0  0  0  0  0  0  0  0  0  0
   -0.7960   24.3450  -27.2750 C   0  0  0  0  0  0  0  0  0  0  0  0
   -1.1630   23.1380  -26.4970 N   0  0  0  0  0  0  0  0  0  0  0  0
   -1.0980   21.8860  -27.2990 C   0  0  0  0  0  0  0  0  0  0  0  0
   -1.5860   20.6350  -26.5540 C   0  0  0  0  0  0  0  0  0  0  0  0
   -0.4710   23.0840  -25.1870 C   0  0  0  0  0  0  0  0  0  0  0  0
   -0.5110   24.4280  -24.4600 C   0  0  0  0  0  0  0  0  0  0  0  0
   -2.0090   23.3040  -30.0900 C   0  0  0  0  0  0  0  0  0  0  0  0
   -2.5690   22.3210  -30.9130 C   0  0  0  0  0  0  0  0  0  0  0  0
   -5.9050   21.1320  -32.1440 C   0  0  0  0  0  0  0  0  0  0  0  0
   -6.7100   21.8570  -31.3160 N   0  0  0  0  0  0  0  0  0  0  0  0
   -8.0510   21.6510  -31.2430 C   0  0  0  0  0  0  0  0  0  0  0  0
   -8.6470   20.6560  -32.0180 C   0  0  0  0  0  0  0  0  0  0  0  0
   -7.8580   19.8830  -32.8700 C   0  0  0  0  0  0  0  0  0  0  0  0
   -6.4680   20.1120  -32.9620 C   0  0  0  0  0  0  0  0  0  0  0  0
   -6.2847   16.4032  -31.1773 H   0  0  0  0  0  0  0  0  0  0  0  0
   -4.7409   16.1453  -32.0587 H   0  0  0  0  0  0  0  0  0  0  0  0
   -5.5151   17.7661  -32.0587 H   0  0  0  0  0  0  0  0  0  0  0  0
   -6.4903   15.2127  -33.4299 H   0  0  0  0  0  0  0  0  0  0  0  0
   -7.5035   16.7074  -33.2234 H   0  0  0  0  0  0  0  0  0  0  0  0
   -4.7793   16.7774  -34.5683 H   0  0  0  0  0  0  0  0  0  0  0  0
   -6.3074   16.4098  -35.4696 H   0  0  0  0  0  0  0  0  0  0  0  0
   -6.7970   18.6380  -35.4800 H   0  0  0  0  0  0  0  0  0  0  0  0
   -3.5781   19.0232  -34.4715 H   0  0  0  0  0  0  0  0  0  0  0  0
   -2.6142   20.8111  -33.0439 H   0  0  0  0  0  0  0  0  0  0  0  0
   -5.7196   23.6297  -31.2533 H   0  0  0  0  0  0  0  0  0  0  0  0
   -4.6956   25.4083  -29.8405 H   0  0  0  0  0  0  0  0  0  0  0  0
   -1.8404   26.2168  -26.9940 H   0  0  0  0  0  0  0  0  0  0  0  0
   -2.8973   24.7675  -26.9827 H   0  0  0  0  0  0  0  0  0  0  0  0
   -0.4142   24.0416  -28.2610 H   0  0  0  0  0  0  0  0  0  0  0  0
   -0.0195   24.9041  -26.7324 H   0  0  0  0  0  0  0  0  0  0  0  0
   -1.7209   22.0182  -28.1960 H   0  0  0  0  0  0  0  0  0  0  0  0
   -0.0374   21.7182  -27.5375 H   0  0  0  0  0  0  0  0  0  0  0  0
   -1.5197   20.8050  -25.4692 H   0  0  0  0  0  0  0  0  0  0  0  0
   -2.6307   20.4283  -26.8295 H   0  0  0  0  0  0  0  0  0  0  0  0
   -0.9572   19.7755  -26.8295 H   0  0  0  0  0  0  0  0  0  0  0  0
   -0.9606   22.3258  -24.5582 H   0  0  0  0  0  0  0  0  0  0  0  0
    0.5832   22.8295  -25.3709 H   0  0  0  0  0  0  0  0  0  0  0  0
   -0.5059   24.2574  -23.3733 H   0  0  0  0  0  0  0  0  0  0  0  0
    0.3698   25.0236  -24.7417 H   0  0  0  0  0  0  0  0  0  0  0  0
   -1.4257   24.9702  -24.7417 H   0  0  0  0  0  0  0  0  0  0  0  0
   -0.9649   23.2100  -29.7568 H   0  0  0  0  0  0  0  0  0  0  0  0
   -1.9645   21.4567  -31.2252 H   0  0  0  0  0  0  0  0  0  0  0  0
   -8.6667   22.2688  -30.5728 H   0  0  0  0  0  0  0  0  0  0  0  0
   -9.7315   20.4822  -31.9577 H   0  0  0  0  0  0  0  0  0  0  0  0
   -8.3221   19.0896  -33.4743 H   0  0  0  0  0  0  0  0  0  0  0  0
  1  2  1  0
  2  3  1  0
  3  4  1  0
  4  5  1  0
  5  6  2  0
  6  7  1  0
  7  8  2  0
  8  9  1  0
  9 10  2  0
 10 11  1  0
 11 12  2  0
 12 13  1  0
 13 14  1  0
 14 15  1  0
 15 16  1  0
 16 17  1  0
 17 18  1  0
 16 19  1  0
 19 20  1  0
 12 21  1  0
 21 22  2  0
  8 23  1  0
 23 24  2  0
 24 25  1  0
 25 26  2  0
 26 27  1  0
 27 28  2  0
 28  5  1  0
 22  9  1  0
 28 23  1  0
  1 29  1  0
  1 30  1  0
  1 31  1  0
  2 32  1  0
  2 33  1  0
  3 34  1  0
  3 35  1  0
  4 36  1  0
  6 37  1  0
  7 38  1  0
 10 39  1  0
 11 40  1  0
 14 41  1  0
 14 42  1  0
 15 43  1  0
 15 44  1  0
 17 45  1  0
 17 46  1  0
 18 47  1  0
 18 48  1  0
 18 49  1  0
 19 50  1  0
 19 51  1  0
 20 52  1  0
 20 53  1  0
 20 54  1  0
 21 55  1  0
 22 56  1  0
 25 57  1  0
 26 58  1  0
 27 59  1  0
M  END
>  <UniqueID>  (33) 
32

>  <SMILES>  (33) 
CCCNc1ccc(-c2ccc(OCCN(CC)CC)cc2)c2ncccc12

>  <Energy>  (33) 
73.98840300952813

>  <Genealogy>  (33) 
CCCNc1ccc(-c2ccc(OCCN(CC)CC)cc2)c2ncccc12 (3D coordinates assigned)
CCCNc1ccc(-c2ccc(OCCN(CC)CC)cc2)c2ncccc12 (optimized conformer: 73.98840300952813 kcal/mol)

>  <smiles>  (33) 
CCCNc1ccc(-c2ccc(OCCN(CC)CC)cc2)c2ncccc12

>  <score_type>  (33) 
oracle

>  <origin>  (33) 
adg

>  <m_score__min__energy>  (33) 
-8.8300000000000001

>  <m_primary>  (33) 
energy

$$$$
33:0
     RDKit          3D

 39 40  0  0  0  0  0  0  0  0999 V2000
   -2.9399   20.2535  -31.0991 H   0  0  0  0  0  0  0  0  0  0  0  0
   -3.1330   21.3260  -30.9490 C   0  0  0  0  0  0  0  0  0  0  0  0
   -4.3180   21.9070  -31.4370 C   0  0  0  0  0  0  0  0  0  0  0  0
   -5.3380   21.1120  -32.1680 C   0  0  0  0  0  0  0  0  0  0  0  0
   -6.7110   21.3510  -32.0020 C   0  0  0  0  0  0  0  0  0  0  0  0
   -7.0533   22.1371  -31.3129 H   0  0  0  0  0  0  0  0  0  0  0  0
   -7.6490   20.5850  -32.7170 C   0  0  0  0  0  0  0  0  0  0  0  0
   -9.0320   20.7890  -32.5820 O   0  0  0  0  0  0  0  0  0  0  0  0
   -9.6370   21.6010  -31.5820 C   0  0  0  0  0  0  0  0  0  0  0  0
   -9.3575   21.2258  -30.5864 H   0  0  0  0  0  0  0  0  0  0  0  0
   -9.2904   22.6390  -31.6933 H   0  0  0  0  0  0  0  0  0  0  0  0
  -10.7308   21.5658  -31.6933 H   0  0  0  0  0  0  0  0  0  0  0  0
   -7.2160   19.6170  -33.5720 N   0  0  0  0  0  0  0  0  0  0  0  0
   -7.9470   19.0790  -34.0850 H   0  0  0  0  0  0  0  0  0  0  0  0
   -5.8840   19.3640  -33.7640 C   0  0  0  0  0  0  0  0  0  0  0  0
   -5.4640   18.4410  -34.5840 N   0  0  0  0  0  0  0  0  0  0  0  0
   -5.3800   16.9980  -34.3430 C   0  0  0  0  0  0  0  0  0  0  0  0
   -5.1340   16.4807  -35.2821 H   0  0  0  0  0  0  0  0  0  0  0  0
   -6.7250   16.4640  -33.8390 C   0  0  0  0  0  0  0  0  0  0  0  0
   -6.7298   16.4621  -32.7390 H   0  0  0  0  0  0  0  0  0  0  0  0
   -7.5368   17.1081  -34.2081 H   0  0  0  0  0  0  0  0  0  0  0  0
   -6.8739   15.4385  -34.2081 H   0  0  0  0  0  0  0  0  0  0  0  0
   -4.2880   16.7350  -33.3060 C   0  0  0  0  0  0  0  0  0  0  0  0
   -4.7100   16.8366  -32.2953 H   0  0  0  0  0  0  0  0  0  0  0  0
   -3.8944   15.7164  -33.4383 H   0  0  0  0  0  0  0  0  0  0  0  0
   -3.4738   17.4627  -33.4383 H   0  0  0  0  0  0  0  0  0  0  0  0
   -4.9320   20.1160  -33.0670 C   0  0  0  0  0  0  0  0  0  0  0  0
   -3.8603   19.9248  -33.2252 H   0  0  0  0  0  0  0  0  0  0  0  0
   -4.5220   23.2420  -31.2510 N   0  0  0  0  0  0  0  0  0  0  0  0
   -3.6290   24.0360  -30.5950 C   0  0  0  0  0  0  0  0  0  0  0  0
   -3.8590   25.3060  -30.4350 N   0  0  0  0  0  0  0  0  0  0  0  0
   -5.1910   25.9020  -30.4630 C   0  0  0  0  0  0  0  0  0  0  0  0
   -5.5438   26.0599  -29.4331 H   0  0  0  0  0  0  0  0  0  0  0  0
   -5.1497   26.8675  -30.9885 H   0  0  0  0  0  0  0  0  0  0  0  0
   -5.8834   25.2278  -30.9885 H   0  0  0  0  0  0  0  0  0  0  0  0
   -2.4500   23.4790  -30.0910 C   0  0  0  0  0  0  0  0  0  0  0  0
   -1.7230   24.1074  -29.5557 H   0  0  0  0  0  0  0  0  0  0  0  0
   -2.2050   22.1180  -30.2740 C   0  0  0  0  0  0  0  0  0  0  0  0
   -1.2789   21.6692  -29.8855 H   0  0  0  0  0  0  0  0  0  0  0  0
  1  2  1  0
  2  3  2  0
  3  4  1  0
  4  5  1  0
  5  6  1  0
  5  7  2  0
  7  8  1  0
  8  9  1  0
  9 10  1  0
  9 11  1  0
  9 12  1  0
  7 13  1  0
 13 14  1  0
 13 15  1  0
 15 16  2  0
 16 17  1  0
 17 18  1  0
 17 19  1  0
 19 20  1  0
 19 21  1  0
 19 22  1  0
 17 23  1  0
 23 24  1  0
 23 25  1  0
 23 26  1  0
 15 27  1  0
 27 28  1  0
  3 29  1  0
 29 30  1  0
 30 31  2  0
 31 32  1  0
 32 33  1  0
 32 34  1  0
 32 35  1  0
 30 36  1  0
 36 37  1  0
 36 38  2  0
 38 39  1  0
 38  2  1  0
 27  4  2  0
M  CHG  1  29  -1
M  END
>  <UniqueID>  (34) 
33

>  <SMILES>  (34) 
C/N=c1/cccc(-c2cc(OC)[nH]/c(=N\C(C)C)c2)[n-]1

>  <Energy>  (34) 
39.26411555331052

>  <Genealogy>  (34) 
CN=c1cccc(-c2cc(OC)[nH]c(=NC(C)C)c2)[n-]1 (protonated)
C/N=c1/cccc(-c2cc(OC)[nH]/c(=N\C(C)C)c2)[n-]1 (cis-trans isomerization)
C/N=c1/cccc(-c2cc(OC)[nH]/c(=N\C(C)C)c2)[n-]1 (3D coordinates assigned)
C/N=c1/cccc(-c2cc(OC)[nH]/c(=N\C(C)C)c2)[n-]1 (optimized conformer: 39.26411555331052 kcal/mol)

>  <smiles>  (34) 
CN=c1cccc(-c2cc(OC)[nH]c(=NC(C)C)c2)[nH]1

>  <score_type>  (34) 
oracle

>  <origin>  (34) 
adg

>  <m_score__min__energy>  (34) 
-8.3000000000000007

>  <m_primary>  (34) 
energy

$$$$
34:0
     RDKit          3D

 21 20  0  0  0  0  0  0  0  0999 V2000
   -1.1700   24.5930  -29.0040 C   0  0  0  0  0  0  0  0  0  0  0  0
   -2.2980   25.2980  -28.5390 O   0  0  0  0  0  0  0  0  0  0  0  0
   -2.5310   24.9650  -27.1860 C   0  0  0  0  0  0  0  0  0  0  0  0
   -3.8830   24.2590  -27.0550 C   0  0  0  0  0  0  0  0  0  0  0  0
   -4.7550   24.5540  -28.2060 N   0  0  0  0  0  0  0  0  0  0  0  0
   -4.6720   23.5080  -29.2390 C   0  0  0  0  0  0  0  0  0  0  0  0
   -4.3950   24.0870  -30.5980 C   0  0  0  0  0  0  0  0  0  0  0  0
   -3.9140   25.4240  -30.7170 N   0  0  0  0  0  0  0  0  0  0  0  0
   -4.6070   23.4010  -31.6320 O   0  0  0  0  0  0  0  0  0  0  0  0
   -0.5863   24.2282  -28.1460 H   0  0  0  0  0  0  0  0  0  0  0  0
   -1.4976   23.7386  -29.6145 H   0  0  0  0  0  0  0  0  0  0  0  0
   -0.5456   25.2619  -29.6145 H   0  0  0  0  0  0  0  0  0  0  0  0
   -1.7331   24.2961  -26.8312 H   0  0  0  0  0  0  0  0  0  0  0  0
   -2.5389   25.8833  -26.5805 H   0  0  0  0  0  0  0  0  0  0  0  0
   -3.7164   23.1730  -27.0008 H   0  0  0  0  0  0  0  0  0  0  0  0
   -4.3777   24.6229  -26.1424 H   0  0  0  0  0  0  0  0  0  0  0  0
   -4.4540   25.4570  -28.6400 H   0  0  0  0  0  0  0  0  0  0  0  0
   -5.7480   24.6590  -27.8870 H   0  0  0  0  0  0  0  0  0  0  0  0
   -3.8618   22.8118  -28.9766 H   0  0  0  0  0  0  0  0  0  0  0  0
   -5.6412   22.9892  -29.2792 H   0  0  0  0  0  0  0  0  0  0  0  0
   -3.8540   26.0470  -29.8830 H   0  0  0  0  0  0  0  0  0  0  0  0
  1  2  1  0
  2  3  1  0
  3  4  1  0
  4  5  1  0
  5  6  1  0
  6  7  1  0
  7  8  1  0
  7  9  2  0
  1 10  1  0
  1 11  1  0
  1 12  1  0
  3 13  1  0
  3 14  1  0
  4 15  1  0
  4 16  1  0
  5 17  1  0
  5 18  1  0
  6 19  1  0
  6 20  1  0
  8 21  1  0
M  CHG  2   5   1   8  -1
M  END
>  <UniqueID>  (35) 
34

>  <SMILES>  (35) 
COCC[NH2+]CC([NH-])=O

>  <Energy>  (35) 
13.584593620008214

>  <Genealogy>  (35) 
COCC[NH2+]CC([NH-])=O (protonated)
COCC[NH2+]CC([NH-])=O (3D coordinates assigned)
COCC[NH2+]CC([NH-])=O (optimized conformer: 13.584593620008214 kcal/mol)

>  <smiles>  (35) 
COCCNCC(N)=O

>  <score_type>  (35) 
oracle

>  <origin>  (35) 
adg

>  <m_score__min__energy>  (35) 
-5.7300000000000004

>  <m_primary>  (35) 
energy

$$$$
35:0
     RDKit          3D

 56 60  0  0  0  0  0  0  0  0999 V2000
   -0.2300   27.0330  -23.8790 C   0  0  0  0  0  0  0  0  0  0  0  0
   -0.0960   26.9390  -25.2940 O   0  0  0  0  0  0  0  0  0  0  0  0
   -0.9410   26.1830  -26.1200 C   0  0  0  0  0  0  0  0  0  0  0  0
   -0.6370   25.9130  -27.4670 C   0  0  0  0  0  0  0  0  0  0  0  0
   -1.5110   25.1510  -28.2470 C   0  0  0  0  0  0  0  0  0  0  0  0
   -2.6940   24.6380  -27.6940 C   0  0  0  0  0  0  0  0  0  0  0  0
   -3.6270   23.8290  -28.5160 C   0  0  0  0  0  0  0  0  0  0  0  0
   -4.7810   24.4030  -28.9630 N   0  0  0  0  0  0  0  0  0  0  0  0
   -5.6360   23.7440  -29.7950 C   0  0  0  0  0  0  0  0  0  0  0  0
   -5.3390   22.4230  -30.1760 C   0  0  0  0  0  0  0  0  0  0  0  0
   -4.1990   21.8460  -29.7180 N   0  0  0  0  0  0  0  0  0  0  0  0
   -3.3380   22.4940  -28.8910 C   0  0  0  0  0  0  0  0  0  0  0  0
   -2.1540   21.7540  -28.3960 C   0  0  0  0  0  0  0  0  0  0  0  0
   -2.2660   20.8340  -27.3380 C   0  0  0  0  0  0  0  0  0  0  0  0
   -1.1410   20.1380  -26.8880 C   0  0  0  0  0  0  0  0  0  0  0  0
    0.0990   20.3410  -27.4990 C   0  0  0  0  0  0  0  0  0  0  0  0
    0.2150   21.2370  -28.5650 C   0  0  0  0  0  0  0  0  0  0  0  0
   -0.9080   21.9360  -29.0180 C   0  0  0  0  0  0  0  0  0  0  0  0
   -6.2260   21.6380  -31.1080 C   0  0  0  0  0  0  0  0  0  0  0  0
   -7.4880   22.3360  -31.3760 N   0  0  0  0  0  0  0  0  0  0  0  0
   -8.6510   21.5770  -31.7530 C   0  0  0  0  0  0  0  0  0  0  0  0
   -9.6240   22.1620  -32.3050 O   0  0  0  0  0  0  0  0  0  0  0  0
   -8.7300   20.0970  -31.5040 C   0  0  0  0  0  0  0  0  0  0  0  0
   -7.7970   19.3580  -32.4120 C   0  0  0  0  0  0  0  0  0  0  0  0
   -7.4370   18.0220  -32.2940 C   0  0  0  0  0  0  0  0  0  0  0  0
   -6.4960   17.6180  -33.2500 C   0  0  0  0  0  0  0  0  0  0  0  0
   -6.1060   18.6360  -34.1110 C   0  0  0  0  0  0  0  0  0  0  0  0
   -6.9290   20.0390  -33.6810 S   0  0  0  0  0  0  0  0  0  0  0  0
   -7.4550   23.7950  -31.5170 C   0  0  0  0  0  0  0  0  0  0  0  0
   -6.9170   24.4110  -30.2290 C   0  0  0  0  0  0  0  0  0  0  0  0
   -3.0040   24.9230  -26.3550 C   0  0  0  0  0  0  0  0  0  0  0  0
   -2.1310   25.6860  -25.5760 C   0  0  0  0  0  0  0  0  0  0  0  0
    0.5789   26.4656  -23.3956 H   0  0  0  0  0  0  0  0  0  0  0  0
   -0.1704   28.0883  -23.5743 H   0  0  0  0  0  0  0  0  0  0  0  0
   -1.2020   26.6178  -23.5743 H   0  0  0  0  0  0  0  0  0  0  0  0
    0.2922   26.3032  -27.9078 H   0  0  0  0  0  0  0  0  0  0  0  0
   -1.2698   24.9521  -29.3016 H   0  0  0  0  0  0  0  0  0  0  0  0
   -5.0050   25.3860  -28.6850 H   0  0  0  0  0  0  0  0  0  0  0  0
   -3.2431   20.6617  -26.8629 H   0  0  0  0  0  0  0  0  0  0  0  0
   -1.2318   19.4293  -26.0516 H   0  0  0  0  0  0  0  0  0  0  0  0
    0.9843   19.7953  -27.1407 H   0  0  0  0  0  0  0  0  0  0  0  0
    1.1908   21.3926  -29.0483 H   0  0  0  0  0  0  0  0  0  0  0  0
   -0.8152   22.6315  -29.8652 H   0  0  0  0  0  0  0  0  0  0  0  0
   -5.6953   21.4841  -32.0592 H   0  0  0  0  0  0  0  0  0  0  0  0
   -6.4621   20.6774  -30.6270 H   0  0  0  0  0  0  0  0  0  0  0  0
   -8.4554   19.8913  -30.4589 H   0  0  0  0  0  0  0  0  0  0  0  0
   -9.7580   19.7591  -31.7016 H   0  0  0  0  0  0  0  0  0  0  0  0
   -7.8490   17.3491  -31.5275 H   0  0  0  0  0  0  0  0  0  0  0  0
   -6.1034   16.5924  -33.3129 H   0  0  0  0  0  0  0  0  0  0  0  0
   -5.3822   18.5410  -34.9339 H   0  0  0  0  0  0  0  0  0  0  0  0
   -6.8002   24.0688  -32.3574 H   0  0  0  0  0  0  0  0  0  0  0  0
   -8.4705   24.1708  -31.7106 H   0  0  0  0  0  0  0  0  0  0  0  0
   -6.7247   25.4810  -30.3968 H   0  0  0  0  0  0  0  0  0  0  0  0
   -7.6673   24.2695  -29.4371 H   0  0  0  0  0  0  0  0  0  0  0  0
   -3.9390   24.5436  -25.9170 H   0  0  0  0  0  0  0  0  0  0  0  0
   -2.3809   25.8981  -24.5260 H   0  0  0  0  0  0  0  0  0  0  0  0
  1  2  1  0
  2  3  1  0
  3  4  2  0
  4  5  1  0
  5  6  2  0
  6  7  1  0
  7  8  2  0
  8  9  1  0
  9 10  2  0
 10 11  1  0
 11 12  2  0
 12 13  1  0
 13 14  2  0
 14 15  1  0
 15 16  2  0
 16 17  1  0
 17 18  2  0
 10 19  1  0
 19 20  1  0
 20 21  1  0
 21 22  2  0
 21 23  1  0
 23 24  1  0
 24 25  2  0
 25 26  1  0
 26 27  2  0
 27 28  1  0
 20 29  1  0
 29 30  1  0
  6 31  1  0
 31 32  2  0
 32  3  1  0
 12  7  1  0
 18 13  1  0
 28 24  1  0
 30  9  1  0
  1 33  1  0
  1 34  1  0
  1 35  1  0
  4 36  1  0
  5 37  1  0
  8 38  1  0
 14 39  1  0
 15 40  1  0
 16 41  1  0
 17 42  1  0
 18 43  1  0
 19 44  1  0
 19 45  1  0
 23 46  1  0
 23 47  1  0
 25 48  1  0
 26 49  1  0
 27 50  1  0
 29 51  1  0
 29 52  1  0
 30 53  1  0
 30 54  1  0
 31 55  1  0
 32 56  1  0
M  CHG  1   8   1
M  END
>  <UniqueID>  (36) 
35

>  <SMILES>  (36) 
COc1ccc(-c2[nH+]c3c(nc2-c2ccccc2)CN(C(=O)Cc2cccs2)CC3)cc1

>  <Energy>  (36) 
101.62608093517183

>  <Genealogy>  (36) 
COc1ccc(-c2[nH+]c3c(nc2-c2ccccc2)CN(C(=O)Cc2cccs2)CC3)cc1 (protonated)
COc1ccc(-c2[nH+]c3c(nc2-c2ccccc2)CN(C(=O)Cc2cccs2)CC3)cc1 (3D coordinates assigned)
COc1ccc(-c2[nH+]c3c(nc2-c2ccccc2)CN(C(=O)Cc2cccs2)CC3)cc1 (nonaromatic ring conformer: 101.62608093517183 kcal/mol)

>  <smiles>  (36) 
COc1ccc(-c2nc3c(nc2-c2ccccc2)CN(C(=O)Cc2cccs2)CC3)cc1

>  <score_type>  (36) 
oracle

>  <origin>  (36) 
adg

>  <m_score__min__energy>  (36) 
-9.0399999999999991

>  <m_primary>  (36) 
energy

$$$$
36:0
     RDKit          3D

 62 66  0  0  0  0  0  0  0  0999 V2000
   -3.9140   24.7290  -29.3760 C   0  0  0  0  0  0  0  0  0  0  0  0
   -2.5420   24.8940  -29.7160 O   0  0  0  0  0  0  0  0  0  0  0  0
   -1.4980   25.0240  -28.7870 C   0  0  0  0  0  0  0  0  0  0  0  0
   -1.1600   26.2680  -28.2110 C   0  0  0  0  0  0  0  0  0  0  0  0
   -0.0840   26.3660  -27.3280 C   0  0  0  0  0  0  0  0  0  0  0  0
    0.6620   25.2330  -27.0030 C   0  0  0  0  0  0  0  0  0  0  0  0
    0.3310   23.9930  -27.5560 C   0  0  0  0  0  0  0  0  0  0  0  0
   -0.7570   23.8790  -28.4340 C   0  0  0  0  0  0  0  0  0  0  0  0
   -1.0790   22.6010  -29.0090 N   0  0  0  0  0  0  0  0  0  0  0  0
   -1.5360   21.4920  -28.1560 C   0  0  0  0  0  0  0  0  0  0  0  0
   -2.8910   20.9420  -28.6510 C   0  0  0  0  0  0  0  0  0  0  0  0
   -3.1240   21.3110  -30.0620 N   0  0  0  0  0  0  0  0  0  0  0  0
   -4.3550   21.9700  -30.4640 C   0  0  0  0  0  0  0  0  0  0  0  0
   -5.1980   22.3030  -29.5830 O   0  0  0  0  0  0  0  0  0  0  0  0
   -4.7400   22.1730  -31.9090 C   0  0  0  0  0  0  0  0  0  0  0  0
   -5.7590   21.2120  -32.3650 N   0  0  0  0  0  0  0  0  0  0  0  0
   -5.6090   20.1590  -33.2180 C   0  0  0  0  0  0  0  0  0  0  0  0
   -4.3060   19.7400  -33.8420 C   0  0  0  0  0  0  0  0  0  0  0  0
   -4.4350   18.4540  -34.4540 O   0  0  0  0  0  0  0  0  0  0  0  0
   -4.5120   17.2400  -33.7520 C   0  0  0  0  0  0  0  0  0  0  0  0
   -3.7610   16.1490  -34.2160 C   0  0  0  0  0  0  0  0  0  0  0  0
   -3.7670   14.9340  -33.5230 C   0  0  0  0  0  0  0  0  0  0  0  0
   -4.5330   14.7950  -32.3620 C   0  0  0  0  0  0  0  0  0  0  0  0
   -4.5270   13.2780  -31.4830 Cl  0  0  0  0  0  0  0  0  0  0  0  0
   -5.3070   15.8670  -31.9040 C   0  0  0  0  0  0  0  0  0  0  0  0
   -5.3070   17.0800  -32.5980 C   0  0  0  0  0  0  0  0  0  0  0  0
   -6.7740   19.5120  -33.4930 N   0  0  0  0  0  0  0  0  0  0  0  0
   -7.6840   20.2210  -32.8060 C   0  0  0  0  0  0  0  0  0  0  0  0
   -9.0570   20.0030  -32.7520 C   0  0  0  0  0  0  0  0  0  0  0  0
   -9.8310   20.8890  -31.9790 C   0  0  0  0  0  0  0  0  0  0  0  0
   -9.2190   21.9620  -31.2920 C   0  0  0  0  0  0  0  0  0  0  0  0
   -7.8290   22.1580  -31.3710 C   0  0  0  0  0  0  0  0  0  0  0  0
   -7.0870   21.2560  -32.1410 C   0  0  0  0  0  0  0  0  0  0  0  0
   -1.9330   21.2880  -30.9180 C   0  0  0  0  0  0  0  0  0  0  0  0
   -0.9920   22.4150  -30.4660 C   0  0  0  0  0  0  0  0  0  0  0  0
   -4.0215   24.7161  -28.2813 H   0  0  0  0  0  0  0  0  0  0  0  0
   -4.4977   25.5634  -29.7919 H   0  0  0  0  0  0  0  0  0  0  0  0
   -4.2833   23.7800  -29.7919 H   0  0  0  0  0  0  0  0  0  0  0  0
   -1.7476   27.1641  -28.4595 H   0  0  0  0  0  0  0  0  0  0  0  0
    0.1767   27.3394  -26.8870 H   0  0  0  0  0  0  0  0  0  0  0  0
    1.5124   25.3157  -26.3102 H   0  0  0  0  0  0  0  0  0  0  0  0
    0.9258   23.1032  -27.3019 H   0  0  0  0  0  0  0  0  0  0  0  0
   -0.7884   20.6855  -28.1817 H   0  0  0  0  0  0  0  0  0  0  0  0
   -1.6611   21.8656  -27.1290 H   0  0  0  0  0  0  0  0  0  0  0  0
   -2.8897   19.8457  -28.5606 H   0  0  0  0  0  0  0  0  0  0  0  0
   -3.6931   21.3764  -28.0363 H   0  0  0  0  0  0  0  0  0  0  0  0
   -5.1384   23.1914  -32.0275 H   0  0  0  0  0  0  0  0  0  0  0  0
   -3.8381   22.0161  -32.5189 H   0  0  0  0  0  0  0  0  0  0  0  0
   -4.0167   20.4770  -34.6056 H   0  0  0  0  0  0  0  0  0  0  0  0
   -3.5369   19.6853  -33.0575 H   0  0  0  0  0  0  0  0  0  0  0  0
   -3.1621   16.2503  -35.1331 H   0  0  0  0  0  0  0  0  0  0  0  0
   -3.1688   14.0877  -33.8917 H   0  0  0  0  0  0  0  0  0  0  0  0
   -5.9169   15.7547  -30.9955 H   0  0  0  0  0  0  0  0  0  0  0  0
   -5.9300   17.9140  -32.2426 H   0  0  0  0  0  0  0  0  0  0  0  0
   -9.5219   19.1668  -33.2948 H   0  0  0  0  0  0  0  0  0  0  0  0
  -10.9193   20.7453  -31.9091 H   0  0  0  0  0  0  0  0  0  0  0  0
   -9.8343   22.6482  -30.6916 H   0  0  0  0  0  0  0  0  0  0  0  0
   -7.3415   22.9922  -30.8452 H   0  0  0  0  0  0  0  0  0  0  0  0
   -1.4242   20.3175  -30.8214 H   0  0  0  0  0  0  0  0  0  0  0  0
   -2.2197   21.4328  -31.9701 H   0  0  0  0  0  0  0  0  0  0  0  0
    0.0418   22.1549  -30.7373 H   0  0  0  0  0  0  0  0  0  0  0  0
   -1.2891   23.3498  -30.9639 H   0  0  0  0  0  0  0  0  0  0  0  0
  1  2  1  0
  2  3  1  0
  3  4  2  0
  4  5  1  0
  5  6  2  0
  6  7  1  0
  7  8  2  0
  8  9  1  0
  9 10  1  0
 10 11  1  0
 11 12  1  0
 12 13  1  0
 13 14  2  0
 13 15  1  0
 15 16  1  0
 16 17  1  0
 17 18  1  0
 18 19  1  0
 19 20  1  0
 20 21  2  0
 21 22  1  0
 22 23  2  0
 23 24  1  0
 23 25  1  0
 25 26  2  0
 17 27  2  0
 27 28  1  0
 28 29  2  0
 29 30  1  0
 30 31  2  0
 31 32  1  0
 32 33  2  0
 12 34  1  0
 34 35  1  0
  8  3  1  0
 35  9  1  0
 33 16  1  0
 26 20  1  0
 33 28  1  0
  1 36  1  0
  1 37  1  0
  1 38  1  0
  4 39  1  0
  5 40  1  0
  6 41  1  0
  7 42  1  0
 10 43  1  0
 10 44  1  0
 11 45  1  0
 11 46  1  0
 15 47  1  0
 15 48  1  0
 18 49  1  0
 18 50  1  0
 21 51  1  0
 22 52  1  0
 25 53  1  0
 26 54  1  0
 29 55  1  0
 30 56  1  0
 31 57  1  0
 32 58  1  0
 34 59  1  0
 34 60  1  0
 35 61  1  0
 35 62  1  0
M  END
>  <UniqueID>  (37) 
36

>  <SMILES>  (37) 
COc1ccccc1N1CCN(C(=O)Cn2c(COc3ccc(Cl)cc3)nc3ccccc32)CC1

>  <Energy>  (37) 
112.85223098886084

>  <Genealogy>  (37) 
COc1ccccc1N1CCN(C(=O)Cn2c(COc3ccc(Cl)cc3)nc3ccccc32)CC1 (3D coordinates assigned)
COc1ccccc1N1CCN(C(=O)Cn2c(COc3ccc(Cl)cc3)nc3ccccc32)CC1 (nonaromatic ring conformer: 112.85223098886084 kcal/mol)

>  <smiles>  (37) 
COc1ccccc1N1CCN(C(=O)Cn2c(COc3ccc(Cl)cc3)nc3ccccc32)CC1

>  <score_type>  (37) 
oracle

>  <origin>  (37) 
adg

>  <m_score__min__energy>  (37) 
-9.0299999999999994

>  <m_primary>  (37) 
energy

$$$$
37:0
     RDKit          3D

 25 27  0  0  0  0  0  0  0  0999 V2000
   -1.5830   25.1790  -28.0680 C   0  0  0  0  0  0  0  0  0  0  0  0
   -2.1960   25.2990  -29.3460 O   0  0  0  0  0  0  0  0  0  0  0  0
   -3.0640   24.3300  -29.8500 C   0  0  0  0  0  0  0  0  0  0  0  0
   -4.2080   24.6240  -30.5330 N   0  0  0  0  0  0  0  0  0  0  0  0
   -4.7900   23.4900  -30.8840 N   0  0  0  0  0  0  0  0  0  0  0  0
   -5.9450   23.1260  -31.4370 C   0  0  0  0  0  0  0  0  0  0  0  0
   -6.8250   23.9250  -31.8540 O   0  0  0  0  0  0  0  0  0  0  0  0
   -6.0470   21.7680  -31.4060 N   0  0  0  0  0  0  0  0  0  0  0  0
   -7.1340   20.9450  -31.8700 C   0  0  0  0  0  0  0  0  0  0  0  0
   -8.4420   21.4600  -31.8910 C   0  0  0  0  0  0  0  0  0  0  0  0
   -9.5090   20.6700  -32.3310 C   0  0  0  0  0  0  0  0  0  0  0  0
   -9.2830   19.3560  -32.7450 C   0  0  0  0  0  0  0  0  0  0  0  0
   -7.9910   18.8270  -32.7140 C   0  0  0  0  0  0  0  0  0  0  0  0
   -6.9200   19.6130  -32.2760 C   0  0  0  0  0  0  0  0  0  0  0  0
   -4.9570   21.2820  -30.7950 N   0  0  0  0  0  0  0  0  0  0  0  0
   -4.2210   22.3720  -30.5080 C   0  0  0  0  0  0  0  0  0  0  0  0
   -2.8060   22.6350  -29.6500 S   0  0  0  0  0  0  0  0  0  0  0  0
   -2.3394   25.3271  -27.2832 H   0  0  0  0  0  0  0  0  0  0  0  0
   -1.1403   24.1772  -27.9663 H   0  0  0  0  0  0  0  0  0  0  0  0
   -0.7952   25.9400  -27.9663 H   0  0  0  0  0  0  0  0  0  0  0  0
   -8.6276   22.4921  -31.5589 H   0  0  0  0  0  0  0  0  0  0  0  0
  -10.5277   21.0846  -32.3509 H   0  0  0  0  0  0  0  0  0  0  0  0
  -10.1224   18.7375  -33.0955 H   0  0  0  0  0  0  0  0  0  0  0  0
   -7.8151   17.7896  -33.0348 H   0  0  0  0  0  0  0  0  0  0  0  0
   -5.9054   19.1889  -32.2484 H   0  0  0  0  0  0  0  0  0  0  0  0
  1  2  1  0
  2  3  1  0
  3  4  2  0
  4  5  1  0
  5  6  1  0
  6  7  2  0
  6  8  1  0
  8  9  1  0
  9 10  2  0
 10 11  1  0
 11 12  2  0
 12 13  1  0
 13 14  2  0
  8 15  1  0
 15 16  2  0
 16 17  1  0
 17  3  1  0
 16  5  1  0
 14  9  1  0
  1 18  1  0
  1 19  1  0
  1 20  1  0
 10 21  1  0
 11 22  1  0
 12 23  1  0
 13 24  1  0
 14 25  1  0
M  END
>  <UniqueID>  (38) 
37

>  <SMILES>  (38) 
COc1nn2c(=O)n(-c3ccccc3)nc2s1

>  <Energy>  (38) 
125.74467492768706

>  <Genealogy>  (38) 
COc1nn2c(=O)n(-c3ccccc3)nc2s1 (3D coordinates assigned)
COc1nn2c(=O)n(-c3ccccc3)nc2s1 (optimized conformer: 125.74467492768706 kcal/mol)

>  <smiles>  (38) 
COc1nn2c(=O)n(-c3ccccc3)nc2s1

>  <score_type>  (38) 
oracle

>  <origin>  (38) 
adg

>  <m_score__min__energy>  (38) 
-7.1299999999999999

>  <m_primary>  (38) 
energy

$$$$
38:0
     RDKit          3D

 47 50  0  0  0  0  0  0  0  0999 V2000
   -4.5980   13.3140  -31.1870 C   0  0  0  0  0  0  0  0  0  0  0  0
   -4.1520   13.5060  -32.5780 N   0  0  0  0  0  0  0  0  0  0  0  0
   -5.2690   13.2020  -33.4920 C   0  0  0  0  0  0  0  0  0  0  0  0
   -3.6490   14.8920  -32.7810 C   0  0  0  0  0  0  0  0  0  0  0  0
   -4.2320   15.5640  -34.0390 C   0  0  0  0  0  0  0  0  0  0  0  0
   -5.0440   16.7400  -33.7080 N   0  0  0  0  0  0  0  0  0  0  0  0
   -6.4140   16.5630  -33.2930 C   0  0  0  0  0  0  0  0  0  0  0  0
   -7.2220   17.6100  -33.0930 C   0  0  0  0  0  0  0  0  0  0  0  0
   -6.7720   19.0170  -33.4420 C   0  0  1  0  0  0  0  0  0  0  0  0
   -7.5700   20.1160  -32.7420 C   0  0  0  0  0  0  0  0  0  0  0  0
   -8.9700   20.0170  -32.6090 C   0  0  0  0  0  0  0  0  0  0  0  0
   -9.7020   21.0200  -31.9720 C   0  0  0  0  0  0  0  0  0  0  0  0
   -9.0650   22.1630  -31.4960 C   0  0  0  0  0  0  0  0  0  0  0  0
   -7.6880   22.3350  -31.6930 C   0  0  0  0  0  0  0  0  0  0  0  0
   -7.0610   23.5160  -31.2710 C   0  0  0  0  0  0  0  0  0  0  0  0
   -5.7020   23.7160  -31.5170 C   0  0  0  0  0  0  0  0  0  0  0  0
   -4.9590   22.7450  -32.1900 C   0  0  0  0  0  0  0  0  0  0  0  0
   -5.5600   21.5440  -32.5980 C   0  0  0  0  0  0  0  0  0  0  0  0
   -6.9350   21.3230  -32.3430 C   0  0  0  0  0  0  0  0  0  0  0  0
   -4.7570   20.5480  -33.3910 C   0  0  0  0  0  0  0  0  0  0  0  0
   -5.2660   19.1310  -33.1170 C   0  0  2  0  0  0  0  0  0  0  0  0
   -4.4870   18.0830  -33.9290 C   0  0  0  0  0  0  0  0  0  0  0  0
   -3.8096   13.6534  -30.4990 H   0  0  0  0  0  0  0  0  0  0  0  0
   -5.5138   13.8976  -31.0117 H   0  0  0  0  0  0  0  0  0  0  0  0
   -4.8035   12.2477  -31.0117 H   0  0  0  0  0  0  0  0  0  0  0  0
   -3.3880   12.8110  -32.7540 H   0  0  0  0  0  0  0  0  0  0  0  0
   -6.1668   12.9577  -32.9052 H   0  0  0  0  0  0  0  0  0  0  0  0
   -5.4725   14.0774  -34.1262 H   0  0  0  0  0  0  0  0  0  0  0  0
   -5.0008   12.3442  -34.1262 H   0  0  0  0  0  0  0  0  0  0  0  0
   -3.9207   15.4960  -31.9027 H   0  0  0  0  0  0  0  0  0  0  0  0
   -2.5589   14.8309  -32.9149 H   0  0  0  0  0  0  0  0  0  0  0  0
   -3.4031   15.8769  -34.6909 H   0  0  0  0  0  0  0  0  0  0  0  0
   -4.8817   14.8339  -34.5439 H   0  0  0  0  0  0  0  0  0  0  0  0
   -6.8025   15.5457  -33.1377 H   0  0  0  0  0  0  0  0  0  0  0  0
   -8.2248   17.4494  -32.6704 H   0  0  0  0  0  0  0  0  0  0  0  0
   -6.9583   19.1768  -34.5143 H   0  0  0  0  0  0  0  0  0  0  0  0
   -9.4925   19.1372  -33.0128 H   0  0  0  0  0  0  0  0  0  0  0  0
  -10.7888   20.9069  -31.8452 H   0  0  0  0  0  0  0  0  0  0  0  0
   -9.6437   22.9326  -30.9642 H   0  0  0  0  0  0  0  0  0  0  0  0
   -7.6422   24.2873  -30.7444 H   0  0  0  0  0  0  0  0  0  0  0  0
   -5.2145   24.6424  -31.1792 H   0  0  0  0  0  0  0  0  0  0  0  0
   -3.8943   22.9223  -32.4023 H   0  0  0  0  0  0  0  0  0  0  0  0
   -4.8571   20.7703  -34.4636 H   0  0  0  0  0  0  0  0  0  0  0  0
   -3.7002   20.6166  -33.0937 H   0  0  0  0  0  0  0  0  0  0  0  0
   -5.1078   18.9320  -32.0468 H   0  0  0  0  0  0  0  0  0  0  0  0
   -4.5542   18.3310  -34.9986 H   0  0  0  0  0  0  0  0  0  0  0  0
   -3.4365   18.0899  -33.6027 H   0  0  0  0  0  0  0  0  0  0  0  0
  1  2  1  0
  2  3  1  0
  2  4  1  0
  4  5  1  0
  5  6  1  0
  6  7  1  0
  7  8  2  0
  8  9  1  0
  9 10  1  0
 10 11  2  0
 11 12  1  0
 12 13  2  0
 13 14  1  0
 14 15  2  0
 15 16  1  0
 16 17  2  0
 17 18  1  0
 18 19  2  0
 18 20  1  0
 20 21  1  0
 21 22  1  0
 22  6  1  0
 21  9  1  0
 19 10  1  0
 19 14  1  0
  1 23  1  0
  1 24  1  0
  1 25  1  0
  2 26  1  0
  3 27  1  0
  3 28  1  0
  3 29  1  0
  4 30  1  0
  4 31  1  0
  5 32  1  0
  5 33  1  0
  7 34  1  0
  8 35  1  0
  9 36  1  6
 11 37  1  0
 12 38  1  0
 13 39  1  0
 15 40  1  0
 16 41  1  0
 17 42  1  0
 20 43  1  0
 20 44  1  0
 21 45  1  1
 22 46  1  0
 22 47  1  0
M  CHG  1   2   1
M  END
>  <UniqueID>  (39) 
38

>  <SMILES>  (39) 
C[NH+](C)CCN1C=C[C@H]2c3cccc4cccc(c34)C[C@@H]2C1

>  <Energy>  (39) 
58.48981524257209

>  <Genealogy>  (39) 
C[NH+](C)CCN1C=CC2c3cccc4cccc(c34)CC2C1 (protonated)
C[NH+](C)CCN1C=C[C@H]2c3cccc4cccc(c34)C[C@@H]2C1 (chirality)
C[NH+](C)CCN1C=C[C@H]2c3cccc4cccc(c34)C[C@@H]2C1 (3D coordinates assigned)
C[NH+](C)CCN1C=C[C@H]2c3cccc4cccc(c34)C[C@@H]2C1 (nonaromatic ring conformer: 58.48981524257209 kcal/mol)

>  <smiles>  (39) 
CN(C)CCN1C=CC2c3cccc4cccc(c34)CC2C1

>  <score_type>  (39) 
oracle

>  <origin>  (39) 
adg

>  <m_score__min__energy>  (39) 
-7.9000000000000004

>  <m_primary>  (39) 
energy

$$$$
39:0
     RDKit          3D

 55 56  0  0  0  0  0  0  0  0999 V2000
   -0.5140   19.9230  -28.6460 C   0  0  0  0  0  0  0  0  0  0  0  0
   -0.1740   20.4980  -30.0230 C   0  0  0  0  0  0  0  0  0  0  0  0
   -1.4310   20.7510  -30.8560 C   0  0  0  0  0  0  0  0  0  0  0  0
   -2.1600   21.9660  -30.6920 C   0  0  0  0  0  0  0  0  0  0  0  0
   -1.7130   23.0110  -29.8460 C   0  0  0  0  0  0  0  0  0  0  0  0
   -2.4360   24.2090  -29.7140 C   0  0  0  0  0  0  0  0  0  0  0  0
   -2.0020   25.2580  -28.8850 O   0  0  0  0  0  0  0  0  0  0  0  0
   -1.8700   25.1740  -27.4690 C   0  0  0  0  0  0  0  0  0  0  0  0
   -3.6230   24.3820  -30.4260 C   0  0  0  0  0  0  0  0  0  0  0  0
   -4.3180   25.5930  -30.2770 O   0  0  0  0  0  0  0  0  0  0  0  0
   -5.7260   25.7010  -30.0830 C   0  0  0  0  0  0  0  0  0  0  0  0
   -4.0850   23.3550  -31.2600 C   0  0  0  0  0  0  0  0  0  0  0  0
   -3.3640   22.1520  -31.4090 C   0  0  0  0  0  0  0  0  0  0  0  0
   -3.8340   21.1330  -32.2580 C   0  0  0  0  0  0  0  0  0  0  0  0
   -5.0500   21.3160  -33.0050 N   0  0  0  0  0  0  0  0  0  0  0  0
   -6.3610   21.0200  -32.4220 C   0  0  0  0  0  0  0  0  0  0  0  0
   -7.0150   19.7950  -33.0970 C   0  0  0  0  0  0  0  0  0  0  0  0
   -8.4830   19.7310  -32.9010 N   0  0  0  0  0  0  0  0  0  0  0  0
   -8.8780   18.5890  -32.0550 C   0  0  0  0  0  0  0  0  0  0  0  0
   -8.9590   20.9840  -32.2890 C   0  0  0  0  0  0  0  0  0  0  0  0
   -3.1140   19.9260  -32.3590 C   0  0  0  0  0  0  0  0  0  0  0  0
   -3.7300   18.7660  -33.1240 C   0  0  0  0  0  0  0  0  0  0  0  0
   -1.8770   19.8000  -31.7590 N   0  0  0  0  0  0  0  0  0  0  0  0
   -1.0540   18.6050  -32.0510 C   0  0  0  0  0  0  0  0  0  0  0  0
   -0.1205   20.5884  -27.8635 H   0  0  0  0  0  0  0  0  0  0  0  0
   -1.6060   19.8408  -28.5424 H   0  0  0  0  0  0  0  0  0  0  0  0
   -0.0598   18.9265  -28.5424 H   0  0  0  0  0  0  0  0  0  0  0  0
    0.3627   21.4489  -29.8897 H   0  0  0  0  0  0  0  0  0  0  0  0
    0.4492   19.7651  -30.5564 H   0  0  0  0  0  0  0  0  0  0  0  0
   -0.7789   22.8817  -29.2797 H   0  0  0  0  0  0  0  0  0  0  0  0
   -2.7057   25.7058  -26.9907 H   0  0  0  0  0  0  0  0  0  0  0  0
   -1.8834   24.1179  -27.1615 H   0  0  0  0  0  0  0  0  0  0  0  0
   -0.9190   25.6334  -27.1615 H   0  0  0  0  0  0  0  0  0  0  0  0
   -5.9474   25.7180  -29.0057 H   0  0  0  0  0  0  0  0  0  0  0  0
   -6.0899   26.6297  -30.5468 H   0  0  0  0  0  0  0  0  0  0  0  0
   -6.2273   24.8387  -30.5468 H   0  0  0  0  0  0  0  0  0  0  0  0
   -5.0285   23.4897  -31.8092 H   0  0  0  0  0  0  0  0  0  0  0  0
   -4.9820   21.4990  -34.0310 H   0  0  0  0  0  0  0  0  0  0  0  0
   -6.2368   20.8132  -31.3488 H   0  0  0  0  0  0  0  0  0  0  0  0
   -7.0140   21.8911  -32.5791 H   0  0  0  0  0  0  0  0  0  0  0  0
   -6.8086   19.8397  -34.1765 H   0  0  0  0  0  0  0  0  0  0  0  0
   -6.5847   18.8972  -32.6293 H   0  0  0  0  0  0  0  0  0  0  0  0
   -8.9520   19.6340  -33.8320 H   0  0  0  0  0  0  0  0  0  0  0  0
   -8.7818   18.8673  -30.9951 H   0  0  0  0  0  0  0  0  0  0  0  0
   -9.9222   18.3177  -32.2695 H   0  0  0  0  0  0  0  0  0  0  0  0
   -8.2246   17.7305  -32.2695 H   0  0  0  0  0  0  0  0  0  0  0  0
   -8.9245   20.8931  -31.1933 H   0  0  0  0  0  0  0  0  0  0  0  0
   -8.3143   21.8161  -32.6084 H   0  0  0  0  0  0  0  0  0  0  0  0
   -9.9935   21.1782  -32.6084 H   0  0  0  0  0  0  0  0  0  0  0  0
   -4.1234   18.0252  -32.4124 H   0  0  0  0  0  0  0  0  0  0  0  0
   -4.5494   19.1379  -33.7566 H   0  0  0  0  0  0  0  0  0  0  0  0
   -2.9630   18.2954  -33.7566 H   0  0  0  0  0  0  0  0  0  0  0  0
   -0.7341   18.1405  -31.1066 H   0  0  0  0  0  0  0  0  0  0  0  0
   -1.6478   17.8838  -32.6317 H   0  0  0  0  0  0  0  0  0  0  0  0
   -0.1684   18.9026  -32.6317 H   0  0  0  0  0  0  0  0  0  0  0  0
  1  2  1  0
  2  3  1  0
  3  4  2  0
  4  5  1  0
  5  6  2  0
  6  7  1  0
  7  8  1  0
  6  9  1  0
  9 10  1  0
 10 11  1  0
  9 12  2  0
 12 13  1  0
 13 14  2  0
 14 15  1  0
 15 16  1  0
 16 17  1  0
 17 18  1  0
 18 19  1  0
 18 20  1  0
 14 21  1  0
 21 22  1  0
 21 23  2  0
 23 24  1  0
 23  3  1  0
 13  4  1  0
  1 25  1  0
  1 26  1  0
  1 27  1  0
  2 28  1  0
  2 29  1  0
  5 30  1  0
  8 31  1  0
  8 32  1  0
  8 33  1  0
 11 34  1  0
 11 35  1  0
 11 36  1  0
 12 37  1  0
 15 38  1  0
 16 39  1  0
 16 40  1  0
 17 41  1  0
 17 42  1  0
 18 43  1  0
 19 44  1  0
 19 45  1  0
 19 46  1  0
 20 47  1  0
 20 48  1  0
 20 49  1  0
 22 50  1  0
 22 51  1  0
 22 52  1  0
 24 53  1  0
 24 54  1  0
 24 55  1  0
M  CHG  2  18   1  23   1
M  END
>  <UniqueID>  (40) 
39

>  <SMILES>  (40) 
CCc1c2cc(OC)c(OC)cc2c(NCC[NH+](C)C)c(C)[n+]1C

>  <Energy>  (40) 
74.32973896676833

>  <Genealogy>  (40) 
CCc1c2cc(OC)c(OC)cc2c(NCC[NH+](C)C)c(C)[n+]1C (protonated)
CCc1c2cc(OC)c(OC)cc2c(NCC[NH+](C)C)c(C)[n+]1C (3D coordinates assigned)
CCc1c2cc(OC)c(OC)cc2c(NCC[NH+](C)C)c(C)[n+]1C (optimized conformer: 74.32973896676833 kcal/mol)

>  <smiles>  (40) 
CCc1c2cc(OC)c(OC)cc2c(NCCN(C)C)c(C)[n+]1C

>  <score_type>  (40) 
oracle

>  <origin>  (40) 
adg

>  <m_score__min__energy>  (40) 
-6.5

>  <m_primary>  (40) 
energy

$$$$
40:0
     RDKit          3D

 51 52  0  0  0  0  0  0  0  0999 V2000
   -4.2800   19.5620  -33.4980 C   0  0  0  0  0  0  0  0  0  0  0  0
   -4.9700   18.4930  -34.3380 C   0  0  0  0  0  0  0  0  0  0  0  0
   -6.3610   18.4770  -34.0680 O   0  0  0  0  0  0  0  0  0  0  0  0
   -6.6290   17.9670  -32.7740 C   0  0  0  0  0  0  0  0  0  0  0  0
   -8.1040   18.1850  -32.4130 C   0  0  0  0  0  0  0  0  0  0  0  0
   -8.3010   19.4970  -31.7550 N   0  0  0  0  0  0  0  0  0  0  0  0
   -9.3530   20.3120  -32.4300 C   0  0  0  0  0  0  0  0  0  0  0  0
   -9.8240   21.5560  -31.6480 C   0  0  0  0  0  0  0  0  0  0  0  0
   -9.0160   22.8340  -31.9690 C   0  0  0  0  0  0  0  0  0  0  0  0
   -7.5610   22.5790  -31.9680 N   0  0  0  0  0  0  0  0  0  0  0  0
   -6.7530   23.8200  -31.9360 C   0  0  0  0  0  0  0  0  0  0  0  0
   -5.3240   23.6050  -31.4800 C   0  0  0  0  0  0  0  0  0  0  0  0
   -4.5990   22.4830  -31.9100 C   0  0  0  0  0  0  0  0  0  0  0  0
   -3.2730   22.3040  -31.5090 C   0  0  0  0  0  0  0  0  0  0  0  0
   -2.6650   23.2330  -30.6620 C   0  0  0  0  0  0  0  0  0  0  0  0
   -3.3850   24.3360  -30.1880 C   0  0  0  0  0  0  0  0  0  0  0  0
   -2.7220   25.2830  -29.3390 N   0  0  0  0  0  0  0  0  0  0  0  0
   -1.5830   25.0340  -28.5050 C   0  0  0  0  0  0  0  0  0  0  0  0
   -1.6040   24.0130  -27.4090 C   0  0  0  0  0  0  0  0  0  0  0  0
   -0.5180   25.6690  -28.7260 O   0  0  0  0  0  0  0  0  0  0  0  0
   -4.7100   24.5300  -30.6170 C   0  0  0  0  0  0  0  0  0  0  0  0
   -7.1430   21.6070  -30.9390 C   0  0  0  0  0  0  0  0  0  0  0  0
   -7.0090   20.1730  -31.4880 C   0  0  0  0  0  0  0  0  0  0  0  0
   -4.4239   19.3390  -32.4305 H   0  0  0  0  0  0  0  0  0  0  0  0
   -3.2045   19.5721  -33.7287 H   0  0  0  0  0  0  0  0  0  0  0  0
   -4.7137   20.5462  -33.7287 H   0  0  0  0  0  0  0  0  0  0  0  0
   -4.8099   18.7101  -35.4044 H   0  0  0  0  0  0  0  0  0  0  0  0
   -4.5453   17.5102  -34.0855 H   0  0  0  0  0  0  0  0  0  0  0  0
   -6.4056   16.8901  -32.7545 H   0  0  0  0  0  0  0  0  0  0  0  0
   -5.9990   18.4948  -32.0429 H   0  0  0  0  0  0  0  0  0  0  0  0
   -8.7083   18.1489  -33.3315 H   0  0  0  0  0  0  0  0  0  0  0  0
   -8.4149   17.3930  -31.7158 H   0  0  0  0  0  0  0  0  0  0  0  0
   -8.9531   20.6497  -33.3975 H   0  0  0  0  0  0  0  0  0  0  0  0
  -10.2330   19.6584  -32.5218 H   0  0  0  0  0  0  0  0  0  0  0  0
  -10.8799   21.7417  -31.8940 H   0  0  0  0  0  0  0  0  0  0  0  0
   -9.6738   21.3403  -30.5799 H   0  0  0  0  0  0  0  0  0  0  0  0
   -9.3121   23.2021  -32.9624 H   0  0  0  0  0  0  0  0  0  0  0  0
   -9.2325   23.5796  -31.1898 H   0  0  0  0  0  0  0  0  0  0  0  0
   -6.7335   24.2479  -32.9492 H   0  0  0  0  0  0  0  0  0  0  0  0
   -7.2258   24.4926  -31.2052 H   0  0  0  0  0  0  0  0  0  0  0  0
   -5.0773   21.7408  -32.5661 H   0  0  0  0  0  0  0  0  0  0  0  0
   -2.7065   21.4294  -31.8612 H   0  0  0  0  0  0  0  0  0  0  0  0
   -1.6144   23.0973  -30.3656 H   0  0  0  0  0  0  0  0  0  0  0  0
   -1.5935   24.5217  -26.4337 H   0  0  0  0  0  0  0  0  0  0  0  0
   -2.5149   23.4023  -27.4942 H   0  0  0  0  0  0  0  0  0  0  0  0
   -0.7190   23.3653  -27.4942 H   0  0  0  0  0  0  0  0  0  0  0  0
   -5.2707   25.4124  -30.2748 H   0  0  0  0  0  0  0  0  0  0  0  0
   -6.1692   21.9206  -30.5349 H   0  0  0  0  0  0  0  0  0  0  0  0
   -7.9225   21.5920  -30.1630 H   0  0  0  0  0  0  0  0  0  0  0  0
   -6.4423   20.2166  -32.4298 H   0  0  0  0  0  0  0  0  0  0  0  0
   -6.5015   19.5846  -30.7094 H   0  0  0  0  0  0  0  0  0  0  0  0
  1  2  1  0
  2  3  1  0
  3  4  1  0
  4  5  1  0
  5  6  1  0
  6  7  1  0
  7  8  1  0
  8  9  1  0
  9 10  1  0
 10 11  1  0
 11 12  1  0
 12 13  2  0
 13 14  1  0
 14 15  2  0
 15 16  1  0
 16 17  1  0
 17 18  1  0
 18 19  1  0
 18 20  2  0
 16 21  2  0
 10 22  1  0
 22 23  1  0
 23  6  1  0
 21 12  1  0
  1 24  1  0
  1 25  1  0
  1 26  1  0
  2 27  1  0
  2 28  1  0
  4 29  1  0
  4 30  1  0
  5 31  1  0
  5 32  1  0
  7 33  1  0
  7 34  1  0
  8 35  1  0
  8 36  1  0
  9 37  1  0
  9 38  1  0
 11 39  1  0
 11 40  1  0
 13 41  1  0
 14 42  1  0
 15 43  1  0
 19 44  1  0
 19 45  1  0
 19 46  1  0
 21 47  1  0
 22 48  1  0
 22 49  1  0
 23 50  1  0
 23 51  1  0
M  CHG  1  17  -1
M  END
>  <UniqueID>  (41) 
40

>  <SMILES>  (41) 
CCOCCN1CCCN(Cc2cccc([N-]C(C)=O)c2)CC1

>  <Energy>  (41) 
70.93121048451287

>  <Genealogy>  (41) 
CCOCCN1CCCN(Cc2cccc([N-]C(C)=O)c2)CC1 (protonated)
CCOCCN1CCCN(Cc2cccc([N-]C(C)=O)c2)CC1 (3D coordinates assigned)
CCOCCN1CCCN(Cc2cccc([N-]C(C)=O)c2)CC1 (nonaromatic ring conformer: 70.93121048451287 kcal/mol)

>  <smiles>  (41) 
CCOCCN1CCCN(Cc2cccc(NC(C)=O)c2)CC1

>  <score_type>  (41) 
oracle

>  <origin>  (41) 
adg

>  <m_score__min__energy>  (41) 
-7.21

>  <m_primary>  (41) 
energy

$$$$
41:0
     RDKit          3D

 38 40  0  0  0  0  0  0  0  0999 V2000
   -9.0110   18.5940  -31.6220 Br  0  0  0  0  0  0  0  0  0  0  0  0
   -7.2690   18.5700  -32.4160 C   0  0  0  0  0  0  0  0  0  0  0  0
   -6.8190   17.3650  -32.9620 C   0  0  0  0  0  0  0  0  0  0  0  0
   -5.5320   17.2500  -33.4900 C   0  0  0  0  0  0  0  0  0  0  0  0
   -5.0200   15.5450  -34.2140 Br  0  0  0  0  0  0  0  0  0  0  0  0
   -4.6620   18.3610  -33.4640 C   0  0  0  0  0  0  0  0  0  0  0  0
   -3.3530   18.2860  -33.9730 C   0  0  0  0  0  0  0  0  0  0  0  0
   -2.5260   19.4080  -33.9260 C   0  0  0  0  0  0  0  0  0  0  0  0
   -2.9800   20.5710  -33.3940 N   0  0  0  0  0  0  0  0  0  0  0  0
   -4.2370   20.6870  -32.8920 C   0  0  0  0  0  0  0  0  0  0  0  0
   -5.1130   19.5870  -32.9120 C   0  0  0  0  0  0  0  0  0  0  0  0
   -6.4240   19.6950  -32.4030 C   0  0  0  0  0  0  0  0  0  0  0  0
   -6.8530   20.9190  -31.8770 O   0  0  0  0  0  0  0  0  0  0  0  0
   -7.2310   22.0240  -32.6940 C   0  0  0  0  0  0  0  0  0  0  0  0
   -6.4720   23.2890  -32.2620 C   0  0  0  0  0  0  0  0  0  0  0  0
   -6.0180   23.3140  -30.8450 N   0  0  0  0  0  0  0  0  0  0  0  0
   -4.5840   22.9510  -30.6720 C   0  0  0  0  0  0  0  0  0  0  0  0
   -3.7120   24.1290  -30.2190 C   0  0  0  0  0  0  0  0  0  0  0  0
   -4.2030   25.3320  -30.7550 O   0  0  0  0  0  0  0  0  0  0  0  0
   -5.4070   25.6740  -30.1040 C   0  0  0  0  0  0  0  0  0  0  0  0
   -6.4460   24.5250  -30.0980 C   0  0  0  0  0  0  0  0  0  0  0  0
   -7.4896   16.4932  -32.9759 H   0  0  0  0  0  0  0  0  0  0  0  0
   -2.9827   17.3454  -34.4068 H   0  0  0  0  0  0  0  0  0  0  0  0
   -1.5013   19.3500  -34.3218 H   0  0  0  0  0  0  0  0  0  0  0  0
   -4.5711   21.6455  -32.4680 H   0  0  0  0  0  0  0  0  0  0  0  0
   -6.9923   21.7980  -33.7437 H   0  0  0  0  0  0  0  0  0  0  0  0
   -8.3114   22.1987  -32.5833 H   0  0  0  0  0  0  0  0  0  0  0  0
   -5.5839   23.3865  -32.9037 H   0  0  0  0  0  0  0  0  0  0  0  0
   -7.1873   24.1185  -32.3635 H   0  0  0  0  0  0  0  0  0  0  0  0
   -6.5580   22.5280  -30.4050 H   0  0  0  0  0  0  0  0  0  0  0  0
   -4.5139   22.1538  -29.9173 H   0  0  0  0  0  0  0  0  0  0  0  0
   -4.2089   22.6255  -31.6535 H   0  0  0  0  0  0  0  0  0  0  0  0
   -3.7246   24.1889  -29.1207 H   0  0  0  0  0  0  0  0  0  0  0  0
   -2.6833   23.9713  -30.5753 H   0  0  0  0  0  0  0  0  0  0  0  0
   -5.1770   25.9426  -29.0624 H   0  0  0  0  0  0  0  0  0  0  0  0
   -5.8514   26.5133  -30.6591 H   0  0  0  0  0  0  0  0  0  0  0  0
   -6.6360   24.2370  -29.0535 H   0  0  0  0  0  0  0  0  0  0  0  0
   -7.3443   24.9080  -30.6042 H   0  0  0  0  0  0  0  0  0  0  0  0
  1  2  1  0
  2  3  2  0
  3  4  1  0
  4  5  1  0
  4  6  2  0
  6  7  1  0
  7  8  2  0
  8  9  1  0
  9 10  2  0
 10 11  1  0
 11 12  2  0
 12 13  1  0
 13 14  1  0
 14 15  1  0
 15 16  1  0
 16 17  1  0
 17 18  1  0
 18 19  1  0
 19 20  1  0
 20 21  1  0
 12  2  1  0
 21 16  1  0
 11  6  1  0
  3 22  1  0
  7 23  1  0
  8 24  1  0
 10 25  1  0
 14 26  1  0
 14 27  1  0
 15 28  1  0
 15 29  1  0
 16 30  1  0
 17 31  1  0
 17 32  1  0
 18 33  1  0
 18 34  1  0
 20 35  1  0
 20 36  1  0
 21 37  1  0
 21 38  1  0
M  CHG  1  16   1
M  END
>  <UniqueID>  (42) 
41

>  <SMILES>  (42) 
Brc1cc(Br)c2ccncc2c1OCC[NH+]1CCOCC1

>  <Energy>  (42) 
69.11949037922254

>  <Genealogy>  (42) 
Brc1cc(Br)c2ccncc2c1OCC[NH+]1CCOCC1 (protonated)
Brc1cc(Br)c2ccncc2c1OCC[NH+]1CCOCC1 (3D coordinates assigned)
Brc1cc(Br)c2ccncc2c1OCC[NH+]1CCOCC1 (nonaromatic ring conformer: 69.11949037922254 kcal/mol)

>  <smiles>  (42) 
Brc1cc(Br)c2ccncc2c1OCCN1CCOCC1

>  <score_type>  (42) 
oracle

>  <origin>  (42) 
adg

>  <m_score__min__energy>  (42) 
-7.6299999999999999

>  <m_primary>  (42) 
energy

$$$$
42:0
     RDKit          3D

 36 38  0  0  0  0  0  0  0  0999 V2000
   -5.3260   13.2810  -32.7510 F   0  0  0  0  0  0  0  0  0  0  0  0
   -5.6340   13.1220  -34.0880 C   0  0  0  0  0  0  0  0  0  0  0  0
   -6.9830   12.8380  -34.2080 F   0  0  0  0  0  0  0  0  0  0  0  0
   -5.3290   14.3270  -34.7840 O   0  0  0  0  0  0  0  0  0  0  0  0
   -5.5620   15.6190  -34.2890 C   0  0  0  0  0  0  0  0  0  0  0  0
   -4.5540   16.6000  -34.2270 C   0  0  0  0  0  0  0  0  0  0  0  0
   -4.8390   17.8740  -33.7230 C   0  0  0  0  0  0  0  0  0  0  0  0
   -6.1320   18.1920  -33.2730 C   0  0  0  0  0  0  0  0  0  0  0  0
   -6.4340   19.5440  -32.7380 C   0  0  0  0  0  0  0  0  0  0  0  0
   -5.4130   20.5040  -32.6040 C   0  0  0  0  0  0  0  0  0  0  0  0
   -5.6980   21.7770  -32.1030 C   0  0  0  0  0  0  0  0  0  0  0  0
   -7.0040   22.1110  -31.7160 C   0  0  0  0  0  0  0  0  0  0  0  0
   -7.3170   23.4950  -31.2190 C   0  0  0  0  0  0  0  0  0  0  0  0
   -6.1160   24.1060  -30.6590 N   0  0  0  0  0  0  0  0  0  0  0  0
   -5.4790   23.7490  -29.5320 C   0  0  0  0  0  0  0  0  0  0  0  0
   -4.3500   24.5300  -29.4220 C   0  0  0  0  0  0  0  0  0  0  0  0
   -4.2700   25.3630  -30.4810 N   0  0  0  0  0  0  0  0  0  0  0  0
   -5.3630   25.0720  -31.2180 C   0  0  0  0  0  0  0  0  0  0  0  0
   -8.0280   21.1630  -31.8610 C   0  0  0  0  0  0  0  0  0  0  0  0
   -7.7440   19.8900  -32.3630 C   0  0  0  0  0  0  0  0  0  0  0  0
   -7.1340   17.2070  -33.3350 C   0  0  0  0  0  0  0  0  0  0  0  0
   -6.8480   15.9360  -33.8400 C   0  0  0  0  0  0  0  0  0  0  0  0
   -5.0467   12.2967  -34.5169 H   0  0  0  0  0  0  0  0  0  0  0  0
   -3.5380   16.3640  -34.5763 H   0  0  0  0  0  0  0  0  0  0  0  0
   -4.0442   18.6331  -33.6786 H   0  0  0  0  0  0  0  0  0  0  0  0
   -4.3833   20.2501  -32.8958 H   0  0  0  0  0  0  0  0  0  0  0  0
   -4.8933   22.5214  -32.0116 H   0  0  0  0  0  0  0  0  0  0  0  0
   -7.6822   24.1089  -32.0556 H   0  0  0  0  0  0  0  0  0  0  0  0
   -8.0891   23.4329  -30.4380 H   0  0  0  0  0  0  0  0  0  0  0  0
   -5.8013   22.9718  -28.8234 H   0  0  0  0  0  0  0  0  0  0  0  0
   -3.6241   24.4822  -28.5969 H   0  0  0  0  0  0  0  0  0  0  0  0
   -5.6105   25.5682  -32.1680 H   0  0  0  0  0  0  0  0  0  0  0  0
   -9.0588   21.4228  -31.5784 H   0  0  0  0  0  0  0  0  0  0  0  0
   -8.5531   19.1518  -32.4657 H   0  0  0  0  0  0  0  0  0  0  0  0
   -8.1502   17.4389  -32.9834 H   0  0  0  0  0  0  0  0  0  0  0  0
   -7.6427   15.1767  -33.8849 H   0  0  0  0  0  0  0  0  0  0  0  0
  1  2  1  0
  2  3  1  0
  2  4  1  0
  4  5  1  0
  5  6  2  0
  6  7  1  0
  7  8  2  0
  8  9  1  0
  9 10  2  0
 10 11  1  0
 11 12  2  0
 12 13  1  0
 13 14  1  0
 14 15  1  0
 15 16  2  0
 16 17  1  0
 17 18  2  0
 12 19  1  0
 19 20  2  0
  8 21  1  0
 21 22  2  0
 22  5  1  0
 20  9  1  0
 18 14  1  0
  2 23  1  0
  6 24  1  0
  7 25  1  0
 10 26  1  0
 11 27  1  0
 13 28  1  0
 13 29  1  0
 15 30  1  0
 16 31  1  0
 18 32  1  0
 19 33  1  0
 20 34  1  0
 21 35  1  0
 22 36  1  0
M  END
>  <UniqueID>  (43) 
42

>  <SMILES>  (43) 
FC(F)Oc1ccc(-c2ccc(Cn3ccnc3)cc2)cc1

>  <Energy>  (43) 
70.72053905603983

>  <Genealogy>  (43) 
FC(F)Oc1ccc(-c2ccc(Cn3ccnc3)cc2)cc1 (3D coordinates assigned)
FC(F)Oc1ccc(-c2ccc(Cn3ccnc3)cc2)cc1 (optimized conformer: 70.72053905603983 kcal/mol)

>  <smiles>  (43) 
FC(F)Oc1ccc(-c2ccc(Cn3ccnc3)cc2)cc1

>  <score_type>  (43) 
oracle

>  <origin>  (43) 
adg

>  <m_score__min__energy>  (43) 
-6.6900000000000004

>  <m_primary>  (43) 
energy

$$$$
43:0
     RDKit          3D

 48 51  0  0  0  0  0  0  0  0999 V2000
   -6.0050   26.0440  -30.0140 C   0  0  0  0  0  0  0  0  0  0  0  0
   -5.0580   25.2150  -30.8260 C   0  0  0  0  0  0  0  0  0  0  0  0
   -3.8210   25.2920  -30.6030 O   0  0  0  0  0  0  0  0  0  0  0  0
   -5.5270   24.3320  -31.8500 N   0  0  0  0  0  0  0  0  0  0  0  0
   -6.8610   23.7390  -31.8650 C   0  0  0  0  0  0  0  0  0  0  0  0
   -6.9240   22.5530  -30.8840 C   0  0  1  0  0  0  0  0  0  0  0  0
   -7.0680   21.1820  -31.5980 C   0  0  0  0  0  0  0  0  0  0  0  0
   -5.7910   20.3110  -31.5250 C   0  0  1  0  0  0  0  0  0  0  0  0
   -5.8290   19.2030  -32.5740 C   0  0  0  0  0  0  0  0  0  0  0  0
   -6.9460   18.3760  -32.8350 C   0  0  0  0  0  0  0  0  0  0  0  0
   -6.8420   17.3090  -33.7640 C   0  0  0  0  0  0  0  0  0  0  0  0
   -5.6200   17.0360  -34.4160 C   0  0  0  0  0  0  0  0  0  0  0  0
   -4.5330   17.8630  -34.1240 C   0  0  0  0  0  0  0  0  0  0  0  0
   -4.6620   18.8920  -33.2450 C   0  0  0  0  0  0  0  0  0  0  0  0
   -3.4430   19.4520  -33.0510 C   0  0  0  0  0  0  0  0  0  0  0  0
   -2.5570   18.7110  -33.8260 C   0  0  0  0  0  0  0  0  0  0  0  0
   -3.2430   17.7530  -34.5090 N   0  0  0  0  0  0  0  0  0  0  0  0
   -2.6570   16.7020  -35.3350 C   0  0  0  0  0  0  0  0  0  0  0  0
   -3.2040   20.4430  -31.9600 C   0  0  0  0  0  0  0  0  0  0  0  0
   -4.5270   21.2370  -31.6760 C   0  0  2  0  0  0  0  0  0  0  0  0
   -4.4220   22.2480  -30.5670 N   0  0  2  0  0  0  0  0  0  0  0  0
   -3.4510   21.8900  -29.5120 C   0  0  0  0  0  0  0  0  0  0  0  0
   -5.7250   22.5570  -29.9140 C   0  0  0  0  0  0  0  0  0  0  0  0
   -5.8138   25.8766  -28.9438 H   0  0  0  0  0  0  0  0  0  0  0  0
   -5.8568   27.1079  -30.2509 H   0  0  0  0  0  0  0  0  0  0  0  0
   -7.0399   25.7563  -30.2509 H   0  0  0  0  0  0  0  0  0  0  0  0
   -7.5997   24.4975  -31.5668 H   0  0  0  0  0  0  0  0  0  0  0  0
   -7.0835   23.3788  -32.8802 H   0  0  0  0  0  0  0  0  0  0  0  0
   -7.8410   22.6928  -30.2928 H   0  0  0  0  0  0  0  0  0  0  0  0
   -7.8940   20.6291  -31.1268 H   0  0  0  0  0  0  0  0  0  0  0  0
   -7.2579   21.3893  -32.6615 H   0  0  0  0  0  0  0  0  0  0  0  0
   -5.7355   19.8103  -30.5471 H   0  0  0  0  0  0  0  0  0  0  0  0
   -7.8982   18.5606  -32.3162 H   0  0  0  0  0  0  0  0  0  0  0  0
   -7.7236   16.6872  -33.9788 H   0  0  0  0  0  0  0  0  0  0  0  0
   -5.5273   16.2025  -35.1279 H   0  0  0  0  0  0  0  0  0  0  0  0
   -1.4704   18.8736  -33.8790 H   0  0  0  0  0  0  0  0  0  0  0  0
   -2.2240   15.9253  -34.6875 H   0  0  0  0  0  0  0  0  0  0  0  0
   -3.4371   16.2569  -35.9700 H   0  0  0  0  0  0  0  0  0  0  0  0
   -1.8682   17.1317  -35.9700 H   0  0  0  0  0  0  0  0  0  0  0  0
   -2.8900   19.9151  -31.0474 H   0  0  0  0  0  0  0  0  0  0  0  0
   -2.4144   21.1442  -32.2679 H   0  0  0  0  0  0  0  0  0  0  0  0
   -4.6813   21.8290  -32.5902 H   0  0  0  0  0  0  0  0  0  0  0  0
   -4.0740   23.1410  -30.9920 H   0  0  0  0  0  0  0  0  0  0  0  0
   -3.9047   22.0573  -28.5240 H   0  0  0  0  0  0  0  0  0  0  0  0
   -3.1735   20.8304  -29.6134 H   0  0  0  0  0  0  0  0  0  0  0  0
   -2.5521   22.5158  -29.6134 H   0  0  0  0  0  0  0  0  0  0  0  0
   -5.9084   21.8046  -29.1328 H   0  0  0  0  0  0  0  0  0  0  0  0
   -5.6457   23.5759  -29.5070 H   0  0  0  0  0  0  0  0  0  0  0  0
  1  2  1  0
  2  3  2  0
  2  4  1  0
  4  5  1  0
  5  6  1  0
  6  7  1  0
  7  8  1  0
  8  9  1  0
  9 10  2  0
 10 11  1  0
 11 12  2  0
 12 13  1  0
 13 14  2  0
 14 15  1  0
 15 16  2  0
 16 17  1  0
 17 18  1  0
 15 19  1  0
 19 20  1  0
 20 21  1  0
 21 22  1  0
 21 23  1  0
 23  6  1  0
 20  8  1  0
 14  9  1  0
 17 13  1  0
  1 24  1  0
  1 25  1  0
  1 26  1  0
  5 27  1  0
  5 28  1  0
  6 29  1  1
  7 30  1  0
  7 31  1  0
  8 32  1  1
 10 33  1  0
 11 34  1  0
 12 35  1  0
 16 36  1  0
 18 37  1  0
 18 38  1  0
 18 39  1  0
 19 40  1  0
 19 41  1  0
 20 42  1  6
 21 43  1  6
 22 44  1  0
 22 45  1  0
 22 46  1  0
 23 47  1  0
 23 48  1  0
M  CHG  2   4  -1  21   1
M  END
>  <UniqueID>  (44) 
43

>  <SMILES>  (44) 
CC(=O)[N-]C[C@H]1C[C@H]2c3cccc4c3c(cn4C)CC2[NH+](C)C1

>  <Energy>  (44) 
103.96149465436191

>  <Genealogy>  (44) 
CC(=O)[N-]CC1CC2c3cccc4c3c(cn4C)CC2[NH+](C)C1 (protonated)
CC(=O)[N-]C[C@H]1C[C@H]2c3cccc4c3c(cn4C)CC2[NH+](C)C1 (chirality)
CC(=O)[N-]C[C@H]1C[C@H]2c3cccc4c3c(cn4C)CC2[NH+](C)C1 (3D coordinates assigned)
CC(=O)[N-]C[C@H]1C[C@H]2c3cccc4c3c(cn4C)CC2[NH+](C)C1 (nonaromatic ring conformer: 103.96149465436191 kcal/mol)

>  <smiles>  (44) 
CC(=O)NCC1CC2c3cccc4c3c(cn4C)CC2N(C)C1

>  <score_type>  (44) 
oracle

>  <origin>  (44) 
adg

>  <m_score__min__energy>  (44) 
-9.1300000000000008

>  <m_primary>  (44) 
energy

$$$$
