0:0
     RDKit          3D

 73 75  0  0  0  0  0  0  0  0999 V2000
   -4.5600   14.7510  -32.4110 C   0  0  0  0  0  0  0  0  0  0  0  0
   -3.8230   15.9140  -33.1160 C   0  0  0  0  0  0  0  0  0  0  0  0
   -3.5220   15.4590  -34.5580 C   0  0  0  0  0  0  0  0  0  0  0  0
   -4.5840   17.2090  -33.1290 N   0  0  0  0  0  0  0  0  0  0  0  0
   -6.0360   16.9650  -33.3820 C   0  0  0  0  0  0  0  0  0  0  0  0
   -6.8500   17.0870  -32.0860 C   0  0  0  0  0  0  0  0  0  0  0  0
   -5.9730   17.2740  -30.9340 N   0  0  0  0  0  0  0  0  0  0  0  0
   -4.0350   18.1950  -34.1000 C   0  0  0  0  0  0  0  0  0  0  0  0
   -4.0400   19.6420  -33.5710 C   0  0  0  0  0  0  0  0  0  0  0  0
   -4.7210   19.7170  -32.2750 N   0  0  0  0  0  0  0  0  0  0  0  0
   -5.3480   20.9280  -31.8160 C   0  0  0  0  0  0  0  0  0  0  0  0
   -6.7420   21.0750  -31.9110 C   0  0  0  0  0  0  0  0  0  0  0  0
   -7.5280   20.0990  -32.5590 C   0  0  0  0  0  0  0  0  0  0  0  0
   -8.9180   20.1900  -32.5650 C   0  0  0  0  0  0  0  0  0  0  0  0
   -9.5460   21.2520  -31.9250 C   0  0  0  0  0  0  0  0  0  0  0  0
   -8.7880   22.2490  -31.3110 C   0  0  0  0  0  0  0  0  0  0  0  0
   -7.3680   22.2110  -31.3310 C   0  0  0  0  0  0  0  0  0  0  0  0
   -6.6030   23.2310  -30.7940 N   0  0  0  0  0  0  0  0  0  0  0  0
   -7.2350   24.5260  -30.4520 C   0  0  0  0  0  0  0  0  0  0  0  0
   -5.2360   23.0630  -30.6340 C   0  0  0  0  0  0  0  0  0  0  0  0
   -4.4470   23.9990  -29.9150 C   0  0  0  0  0  0  0  0  0  0  0  0
   -3.0450   23.8980  -29.8780 C   0  0  0  0  0  0  0  0  0  0  0  0
   -2.2290   24.8540  -29.2470 O   0  0  0  0  0  0  0  0  0  0  0  0
   -1.1870   24.5770  -28.3060 C   0  0  0  0  0  0  0  0  0  0  0  0
   -0.9520   25.7600  -27.3300 C   0  0  0  0  0  0  0  0  0  0  0  0
   -1.5350   25.6080  -25.9580 N   0  0  0  0  0  0  0  0  0  0  0  0
   -1.3830   26.9050  -25.2520 C   0  0  0  0  0  0  0  0  0  0  0  0
   -2.9810   25.2830  -26.0260 C   0  0  0  0  0  0  0  0  0  0  0  0
   -0.8290   24.5670  -25.1720 C   0  0  0  0  0  0  0  0  0  0  0  0
   -2.4260   22.8160  -30.4960 C   0  0  0  0  0  0  0  0  0  0  0  0
   -3.1800   21.8390  -31.1360 C   0  0  0  0  0  0  0  0  0  0  0  0
   -4.5850   21.9320  -31.1930 C   0  0  0  0  0  0  0  0  0  0  0  0
   -4.4817   14.8746  -31.3208 H   0  0  0  0  0  0  0  0  0  0  0  0
   -5.6198   14.7565  -32.7054 H   0  0  0  0  0  0  0  0  0  0  0  0
   -4.1026   13.7949  -32.7054 H   0  0  0  0  0  0  0  0  0  0  0  0
   -2.9060   16.1291  -32.5478 H   0  0  0  0  0  0  0  0  0  0  0  0
   -2.9152   14.5418  -34.5340 H   0  0  0  0  0  0  0  0  0  0  0  0
   -4.4671   15.2597  -35.0844 H   0  0  0  0  0  0  0  0  0  0  0  0
   -2.9689   16.2508  -35.0844 H   0  0  0  0  0  0  0  0  0  0  0  0
   -6.4036   17.7048  -34.1083 H   0  0  0  0  0  0  0  0  0  0  0  0
   -6.1559   15.9449  -33.7756 H   0  0  0  0  0  0  0  0  0  0  0  0
   -7.5274   17.9499  -32.1664 H   0  0  0  0  0  0  0  0  0  0  0  0
   -7.4236   16.1593  -31.9433 H   0  0  0  0  0  0  0  0  0  0  0  0
   -4.9830   17.2340  -31.2700 H   0  0  0  0  0  0  0  0  0  0  0  0
   -6.1010   16.4550  -30.2980 H   0  0  0  0  0  0  0  0  0  0  0  0
   -2.9980   17.9131  -34.3347 H   0  0  0  0  0  0  0  0  0  0  0  0
   -4.6832   18.1716  -34.9884 H   0  0  0  0  0  0  0  0  0  0  0  0
   -3.0022   19.9875  -33.4542 H   0  0  0  0  0  0  0  0  0  0  0  0
   -4.5756   20.2797  -34.2897 H   0  0  0  0  0  0  0  0  0  0  0  0
   -4.7040   18.8840  -31.6420 H   0  0  0  0  0  0  0  0  0  0  0  0
   -7.0369   19.2553  -33.0660 H   0  0  0  0  0  0  0  0  0  0  0  0
   -9.5179   19.4223  -33.0756 H   0  0  0  0  0  0  0  0  0  0  0  0
  -10.6444   21.3064  -31.9026 H   0  0  0  0  0  0  0  0  0  0  0  0
   -9.2989   23.0797  -30.8021 H   0  0  0  0  0  0  0  0  0  0  0  0
   -7.2864   24.6314  -29.3583 H   0  0  0  0  0  0  0  0  0  0  0  0
   -6.6368   25.3481  -30.8719 H   0  0  0  0  0  0  0  0  0  0  0  0
   -8.2511   24.5603  -30.8719 H   0  0  0  0  0  0  0  0  0  0  0  0
   -4.9425   24.8199  -29.3759 H   0  0  0  0  0  0  0  0  0  0  0  0
   -1.4631   23.6859  -27.7232 H   0  0  0  0  0  0  0  0  0  0  0  0
   -0.2566   24.4130  -28.8695 H   0  0  0  0  0  0  0  0  0  0  0  0
    0.1342   25.8949  -27.2206 H   0  0  0  0  0  0  0  0  0  0  0  0
   -1.4707   26.6204  -27.7780 H   0  0  0  0  0  0  0  0  0  0  0  0
   -1.4029   26.7355  -24.1653 H   0  0  0  0  0  0  0  0  0  0  0  0
   -0.4247   27.3657  -25.5338 H   0  0  0  0  0  0  0  0  0  0  0  0
   -2.2088   27.5748  -25.5338 H   0  0  0  0  0  0  0  0  0  0  0  0
   -3.3847   25.1923  -25.0068 H   0  0  0  0  0  0  0  0  0  0  0  0
   -3.5121   26.0842  -26.5608 H   0  0  0  0  0  0  0  0  0  0  0  0
   -3.1182   24.3316  -26.5608 H   0  0  0  0  0  0  0  0  0  0  0  0
   -0.9629   24.7645  -24.0982 H   0  0  0  0  0  0  0  0  0  0  0  0
   -1.2436   23.5781  -25.4174 H   0  0  0  0  0  0  0  0  0  0  0  0
    0.2431   24.5863  -25.4174 H   0  0  0  0  0  0  0  0  0  0  0  0
   -1.3293   22.7328  -30.4780 H   0  0  0  0  0  0  0  0  0  0  0  0
   -2.6733   20.9822  -31.6040 H   0  0  0  0  0  0  0  0  0  0  0  0
  1  2  1  0
  2  3  1  0
  2  4  1  0
  4  5  1  0
  5  6  1  0
  6  7  1  0
  4  8  1  0
  8  9  1  0
  9 10  1  0
 10 11  1  0
 11 12  2  0
 12 13  1  0
 13 14  2  0
 14 15  1  0
 15 16  2  0
 16 17  1  0
 17 18  2  0
 18 19  1  0
 18 20  1  0
 20 21  2  0
 21 22  1  0
 22 23  1  0
 23 24  1  0
 24 25  1  0
 25 26  1  0
 26 27  1  0
 26 28  1  0
 26 29  1  0
 22 30  2  0
 30 31  1  0
 31 32  2  0
 32 11  1  0
 17 12  1  0
 32 20  1  0
  1 33  1  0
  1 34  1  0
  1 35  1  0
  2 36  1  0
  3 37  1  0
  3 38  1  0
  3 39  1  0
  5 40  1  0
  5 41  1  0
  6 42  1  0
  6 43  1  0
  7 44  1  0
  7 45  1  0
  8 46  1  0
  8 47  1  0
  9 48  1  0
  9 49  1  0
 10 50  1  0
 13 51  1  0
 14 52  1  0
 15 53  1  0
 16 54  1  0
 19 55  1  0
 19 56  1  0
 19 57  1  0
 21 58  1  0
 24 59  1  0
 24 60  1  0
 25 61  1  0
 25 62  1  0
 27 63  1  0
 27 64  1  0
 27 65  1  0
 28 66  1  0
 28 67  1  0
 28 68  1  0
 29 69  1  0
 29 70  1  0
 29 71  1  0
 30 72  1  0
 31 73  1  0
M  CHG  2  18   1  26   1
M  END
>  <UniqueID>  (1) 
1

>  <SMILES>  (1) 
CC(C)N(CCN)CCNc1c2ccccc2[n+](C)c2cc(OCC[N+](C)(C)C)ccc12

>  <Energy>  (1) 
110.66172900033155

>  <Genealogy>  (1) 
CC(C)N(CCN)CCNc1c2ccccc2[n+](C)c2cc(OCC[N+](C)(C)C)ccc12 (3D coordinates assigned)
CC(C)N(CCN)CCNc1c2ccccc2[n+](C)c2cc(OCC[N+](C)(C)C)ccc12 (optimized conformer: 110.66172900033155 kcal/mol)

>  <smiles>  (1) 
CC(C)N(CCN)CCNc1c2ccccc2[n+](C)c2cc(OCC[N+](C)(C)C)ccc12

>  <score_type>  (1) 
oracle

>  <origin>  (1) 
adg

>  <m_score__min__energy>  (1) 
-9.0299999999999994

>  <m_primary>  (1) 
energy

$$$$
1:0
     RDKit          3D

 36 39  0  0  0  0  0  0  0  0999 V2000
   -5.2930   18.3630  -33.3180 C   0  0  0  0  0  0  0  0  0  0  0  0
   -5.7590   19.5510  -32.6090 N   0  0  0  0  0  0  0  0  0  0  0  0
   -4.9830   20.5430  -32.1150 C   0  0  0  0  0  0  0  0  0  0  0  0
   -5.7740   21.5270  -31.5260 C   0  0  0  0  0  0  0  0  0  0  0  0
   -5.2810   22.7500  -30.8620 C   0  0  0  0  0  0  0  0  0  0  0  0
   -4.2060   23.4310  -31.2980 C   0  0  0  0  0  0  0  0  0  0  0  0
   -3.8670   24.5720  -30.4850 N   0  0  0  0  0  0  0  0  0  0  0  0
   -3.5090   24.1390  -29.1220 C   0  0  0  0  0  0  0  0  0  0  0  0
   -4.7320   23.3690  -28.5250 C   0  0  0  0  0  0  0  0  0  0  0  0
   -5.8800   23.3380  -29.5830 C   0  0  0  0  0  0  0  0  0  0  0  0
   -6.2450   24.8190  -29.9020 C   0  0  0  0  0  0  0  0  0  0  0  0
   -4.9770   25.5440  -30.4670 C   0  0  0  0  0  0  0  0  0  0  0  0
   -7.0860   21.1080  -31.6980 C   0  0  0  0  0  0  0  0  0  0  0  0
   -8.3040   21.7180  -31.3870 C   0  0  0  0  0  0  0  0  0  0  0  0
   -9.4880   21.0420  -31.7330 C   0  0  0  0  0  0  0  0  0  0  0  0
   -9.4350   19.7950  -32.3890 C   0  0  0  0  0  0  0  0  0  0  0  0
   -8.1980   19.2150  -32.7170 C   0  0  0  0  0  0  0  0  0  0  0  0
   -7.0360   19.9030  -32.3580 C   0  0  0  0  0  0  0  0  0  0  0  0
   -4.9920   17.5957  -32.5895 H   0  0  0  0  0  0  0  0  0  0  0  0
   -6.1040   17.9711  -33.9494 H   0  0  0  0  0  0  0  0  0  0  0  0
   -4.4318   18.6270  -33.9494 H   0  0  0  0  0  0  0  0  0  0  0  0
   -3.8847   20.5689  -32.1705 H   0  0  0  0  0  0  0  0  0  0  0  0
   -3.6369   23.1431  -32.1942 H   0  0  0  0  0  0  0  0  0  0  0  0
   -2.6319   23.4762  -29.1588 H   0  0  0  0  0  0  0  0  0  0  0  0
   -3.2618   25.0092  -28.4962 H   0  0  0  0  0  0  0  0  0  0  0  0
   -4.4335   22.3403  -28.2747 H   0  0  0  0  0  0  0  0  0  0  0  0
   -5.0809   23.8760  -27.6133 H   0  0  0  0  0  0  0  0  0  0  0  0
   -6.7506   22.7665  -29.2287 H   0  0  0  0  0  0  0  0  0  0  0  0
   -7.0508   24.8477  -30.6503 H   0  0  0  0  0  0  0  0  0  0  0  0
   -6.5859   25.3242  -28.9863 H   0  0  0  0  0  0  0  0  0  0  0  0
   -5.1757   25.9028  -31.4877 H   0  0  0  0  0  0  0  0  0  0  0  0
   -4.7184   26.4083  -29.8376 H   0  0  0  0  0  0  0  0  0  0  0  0
   -8.3360   22.6972  -30.8868 H   0  0  0  0  0  0  0  0  0  0  0  0
  -10.4629   21.4897  -31.4899 H   0  0  0  0  0  0  0  0  0  0  0  0
  -10.3684   19.2727  -32.6457 H   0  0  0  0  0  0  0  0  0  0  0  0
   -8.1459   18.2489  -33.2404 H   0  0  0  0  0  0  0  0  0  0  0  0
  1  2  1  0
  2  3  1  0
  3  4  2  0
  4  5  1  0
  5  6  2  0
  6  7  1  0
  7  8  1  0
  8  9  1  0
  9 10  1  0
 10 11  1  0
 11 12  1  0
  4 13  1  0
 13 14  2  0
 14 15  1  0
 15 16  2  0
 16 17  1  0
 17 18  2  0
 18  2  1  0
 10  5  1  0
 18 13  1  0
 12  7  1  0
  1 19  1  0
  1 20  1  0
  1 21  1  0
  3 22  1  0
  6 23  1  0
  8 24  1  0
  8 25  1  0
  9 26  1  0
  9 27  1  0
 10 28  1  0
 11 29  1  0
 11 30  1  0
 12 31  1  0
 12 32  1  0
 14 33  1  0
 15 34  1  0
 16 35  1  0
 17 36  1  0
M  END
>  <UniqueID>  (2) 
2

>  <SMILES>  (2) 
Cn1cc(C2=CN3CCC2CC3)c2ccccc21

>  <Energy>  (2) 
113.99872985167583

>  <Genealogy>  (2) 
Cn1cc(C2=CN3CCC2CC3)c2ccccc21 (3D coordinates assigned)
Cn1cc(C2=CN3CCC2CC3)c2ccccc21 (nonaromatic ring conformer: 113.99872985167583 kcal/mol)

>  <smiles>  (2) 
Cn1cc(C2=CN3CCC2CC3)c2ccccc21

>  <score_type>  (2) 
oracle

>  <origin>  (2) 
adg

>  <m_score__min__energy>  (2) 
-7.6299999999999999

>  <m_primary>  (2) 
energy

$$$$
2:0
     RDKit          3D

 50 53  0  0  0  0  0  0  0  0999 V2000
   -6.4910   25.6530  -29.4060 C   0  0  0  0  0  0  0  0  0  0  0  0
   -5.1770   24.9050  -29.2010 C   0  0  0  0  0  0  0  0  0  0  0  0
   -4.4840   24.7200  -30.4980 N   0  0  0  0  0  0  0  0  0  0  0  0
   -3.3490   23.7920  -30.3500 C   0  0  0  0  0  0  0  0  0  0  0  0
   -5.4120   24.2250  -31.5390 C   0  0  0  0  0  0  0  0  0  0  0  0
   -5.6150   22.7140  -31.3930 C   0  0  0  0  0  0  0  0  0  0  0  0
   -5.5470   22.0630  -32.7000 N   0  0  0  0  0  0  0  0  0  0  0  0
   -5.6080   20.6340  -32.8050 C   0  0  0  0  0  0  0  0  0  0  0  0
   -6.7930   19.9160  -32.5110 C   0  0  0  0  0  0  0  0  0  0  0  0
   -7.9410   20.5830  -32.0390 C   0  0  0  0  0  0  0  0  0  0  0  0
   -9.0970   19.8720  -31.7230 C   0  0  0  0  0  0  0  0  0  0  0  0
   -9.1290   18.4890  -31.8640 C   0  0  0  0  0  0  0  0  0  0  0  0
   -8.0130   17.8020  -32.3410 C   0  0  0  0  0  0  0  0  0  0  0  0
   -6.8290   18.4930  -32.6990 C   0  0  0  0  0  0  0  0  0  0  0  0
   -5.7250   17.8230  -33.2100 N   0  0  0  0  0  0  0  0  0  0  0  0
   -5.7740   16.3820  -33.5190 C   0  0  0  0  0  0  0  0  0  0  0  0
   -4.5700   18.5330  -33.4080 C   0  0  0  0  0  0  0  0  0  0  0  0
   -3.3620   18.0270  -33.7670 N   0  0  0  0  0  0  0  0  0  0  0  0
   -2.5300   19.0860  -33.7950 C   0  0  0  0  0  0  0  0  0  0  0  0
   -1.1650   19.0650  -34.0740 C   0  0  0  0  0  0  0  0  0  0  0  0
   -0.4550   20.2770  -34.0000 C   0  0  0  0  0  0  0  0  0  0  0  0
    1.4170   20.3050  -34.3740 Br  0  0  0  0  0  0  0  0  0  0  0  0
   -1.1170   21.4690  -33.6330 C   0  0  0  0  0  0  0  0  0  0  0  0
   -2.4930   21.4640  -33.3460 C   0  0  0  0  0  0  0  0  0  0  0  0
   -3.1820   20.2530  -33.4560 C   0  0  0  0  0  0  0  0  0  0  0  0
   -4.4980   19.8980  -33.2140 C   0  0  0  0  0  0  0  0  0  0  0  0
   -6.9279   25.9017  -28.4276 H   0  0  0  0  0  0  0  0  0  0  0  0
   -6.3019   26.5788  -29.9691 H   0  0  0  0  0  0  0  0  0  0  0  0
   -7.1905   25.0177  -29.9691 H   0  0  0  0  0  0  0  0  0  0  0  0
   -4.5316   25.4837  -28.5238 H   0  0  0  0  0  0  0  0  0  0  0  0
   -5.3908   23.9180  -28.7650 H   0  0  0  0  0  0  0  0  0  0  0  0
   -3.1472   23.6270  -29.2813 H   0  0  0  0  0  0  0  0  0  0  0  0
   -3.5948   22.8328  -30.8291 H   0  0  0  0  0  0  0  0  0  0  0  0
   -2.4577   24.2234  -30.8291 H   0  0  0  0  0  0  0  0  0  0  0  0
   -6.3816   24.7336  -31.4328 H   0  0  0  0  0  0  0  0  0  0  0  0
   -4.9837   24.4350  -32.5302 H   0  0  0  0  0  0  0  0  0  0  0  0
   -4.8288   22.3037  -30.7422 H   0  0  0  0  0  0  0  0  0  0  0  0
   -6.6054   22.5276  -30.9522 H   0  0  0  0  0  0  0  0  0  0  0  0
   -5.1490   22.6080  -33.4980 H   0  0  0  0  0  0  0  0  0  0  0  0
   -7.9244   21.6763  -31.9187 H   0  0  0  0  0  0  0  0  0  0  0  0
   -9.9874   20.4067  -31.3607 H   0  0  0  0  0  0  0  0  0  0  0  0
  -10.0402   17.9334  -31.5977 H   0  0  0  0  0  0  0  0  0  0  0  0
   -8.0526   16.7073  -32.4408 H   0  0  0  0  0  0  0  0  0  0  0  0
   -5.7936   15.8065  -32.5818 H   0  0  0  0  0  0  0  0  0  0  0  0
   -6.6801   16.1628  -34.1029 H   0  0  0  0  0  0  0  0  0  0  0  0
   -4.8849   16.1018  -34.1029 H   0  0  0  0  0  0  0  0  0  0  0  0
   -3.0880   17.0340  -33.9360 H   0  0  0  0  0  0  0  0  0  0  0  0
   -0.6572   18.1274  -34.3444 H   0  0  0  0  0  0  0  0  0  0  0  0
   -0.5508   22.4100  -33.5711 H   0  0  0  0  0  0  0  0  0  0  0  0
   -3.0120   22.3856  -33.0439 H   0  0  0  0  0  0  0  0  0  0  0  0
  1  2  1  0
  2  3  1  0
  3  4  1  0
  3  5  1  0
  5  6  1  0
  6  7  1  0
  7  8  1  0
  8  9  2  0
  9 10  1  0
 10 11  2  0
 11 12  1  0
 12 13  2  0
 13 14  1  0
 14 15  2  0
 15 16  1  0
 15 17  1  0
 17 18  1  0
 18 19  1  0
 19 20  2  0
 20 21  1  0
 21 22  1  0
 21 23  2  0
 23 24  1  0
 24 25  2  0
 25 26  1  0
 26  8  1  0
 14  9  1  0
 26 17  2  0
 25 19  1  0
  1 27  1  0
  1 28  1  0
  1 29  1  0
  2 30  1  0
  2 31  1  0
  4 32  1  0
  4 33  1  0
  4 34  1  0
  5 35  1  0
  5 36  1  0
  6 37  1  0
  6 38  1  0
  7 39  1  0
 10 40  1  0
 11 41  1  0
 12 42  1  0
 13 43  1  0
 16 44  1  0
 16 45  1  0
 16 46  1  0
 18 47  1  0
 20 48  1  0
 23 49  1  0
 24 50  1  0
M  CHG  1  15   1
M  END
>  <UniqueID>  (3) 
3

>  <SMILES>  (3) 
CCN(C)CCNc1c2ccccc2[n+](C)c2[nH]c3cc(Br)ccc3c12

>  <Energy>  (3) 
107.97979431829428

>  <Genealogy>  (3) 
CCN(C)CCNc1c2ccccc2[n+](C)c2[nH]c3cc(Br)ccc3c12 (3D coordinates assigned)
CCN(C)CCNc1c2ccccc2[n+](C)c2[nH]c3cc(Br)ccc3c12 (optimized conformer: 107.97979431829428 kcal/mol)

>  <smiles>  (3) 
CCN(C)CCNc1c2ccccc2[n+](C)c2[nH]c3cc(Br)ccc3c12

>  <score_type>  (3) 
oracle

>  <origin>  (3) 
adg

>  <m_score__min__energy>  (3) 
-9.0999999999999996

>  <m_primary>  (3) 
energy

$$$$
3:0
     RDKit          3D

 48 49  0  0  0  0  0  0  0  0999 V2000
   -5.4990   14.0240  -33.7310 C   0  0  0  0  0  0  0  0  0  0  0  0
   -4.6810   14.7210  -32.6560 C   0  0  0  0  0  0  0  0  0  0  0  0
   -4.2720   15.9840  -33.1320 O   0  0  0  0  0  0  0  0  0  0  0  0
   -4.4630   16.0460  -34.5300 C   0  0  0  0  0  0  0  0  0  0  0  0
   -4.0210   17.4190  -35.0610 C   0  0  0  0  0  0  0  0  0  0  0  0
   -3.6610   18.3830  -34.0030 N   0  0  0  0  0  0  0  0  0  0  0  0
   -2.2350   18.7510  -33.9630 C   0  0  0  0  0  0  0  0  0  0  0  0
   -1.9730   20.0530  -33.1770 C   0  0  0  0  0  0  0  0  0  0  0  0
   -3.1290   20.4830  -32.3590 N   0  0  0  0  0  0  0  0  0  0  0  0
   -3.8400   21.6490  -32.9160 C   0  0  0  0  0  0  0  0  0  0  0  0
   -5.2850   21.6990  -32.4690 C   0  0  0  0  0  0  0  0  0  0  0  0
   -5.9050   22.9470  -32.3060 C   0  0  0  0  0  0  0  0  0  0  0  0
   -7.2360   23.0280  -31.8960 C   0  0  0  0  0  0  0  0  0  0  0  0
   -7.9790   21.8650  -31.6890 C   0  0  0  0  0  0  0  0  0  0  0  0
   -9.6730   21.9970  -31.2390 Cl  0  0  0  0  0  0  0  0  0  0  0  0
   -7.3930   20.6070  -31.8940 C   0  0  0  0  0  0  0  0  0  0  0  0
   -6.0170   20.5200  -32.2190 C   0  0  0  0  0  0  0  0  0  0  0  0
   -5.3600   19.2820  -32.2770 O   0  0  0  0  0  0  0  0  0  0  0  0
   -5.8210   18.1240  -31.5860 C   0  0  0  0  0  0  0  0  0  0  0  0
   -6.9570   17.4280  -32.3370 C   0  0  0  0  0  0  0  0  0  0  0  0
   -8.0920   18.3760  -32.7250 C   0  0  0  0  0  0  0  0  0  0  0  0
   -8.2050   19.4680  -31.8150 O   0  0  0  0  0  0  0  0  0  0  0  0
   -6.2546   13.3802  -33.2571 H   0  0  0  0  0  0  0  0  0  0  0  0
   -5.9997   14.7773  -34.3569 H   0  0  0  0  0  0  0  0  0  0  0  0
   -4.8347   13.4101  -34.3569 H   0  0  0  0  0  0  0  0  0  0  0  0
   -5.2943   14.8493  -31.7519 H   0  0  0  0  0  0  0  0  0  0  0  0
   -3.7971   14.1136  -32.4115 H   0  0  0  0  0  0  0  0  0  0  0  0
   -3.8664   15.2589  -35.0143 H   0  0  0  0  0  0  0  0  0  0  0  0
   -5.5294   15.8981  -34.7555 H   0  0  0  0  0  0  0  0  0  0  0  0
   -3.1445   17.2735  -35.7095 H   0  0  0  0  0  0  0  0  0  0  0  0
   -4.8804   17.8439  -35.6004 H   0  0  0  0  0  0  0  0  0  0  0  0
   -3.9290   17.9860  -33.0730 H   0  0  0  0  0  0  0  0  0  0  0  0
   -1.6748   17.9337  -33.4852 H   0  0  0  0  0  0  0  0  0  0  0  0
   -1.9082   18.9196  -34.9997 H   0  0  0  0  0  0  0  0  0  0  0  0
   -1.1134   19.8916  -32.5099 H   0  0  0  0  0  0  0  0  0  0  0  0
   -1.7809   20.8467  -33.9140 H   0  0  0  0  0  0  0  0  0  0  0  0
   -2.8580   20.6740  -31.3670 H   0  0  0  0  0  0  0  0  0  0  0  0
   -3.8140   19.6920  -32.3310 H   0  0  0  0  0  0  0  0  0  0  0  0
   -3.3332   22.5665  -32.5824 H   0  0  0  0  0  0  0  0  0  0  0  0
   -3.8265   21.5630  -34.0125 H   0  0  0  0  0  0  0  0  0  0  0  0
   -5.3374   23.8684  -32.5029 H   0  0  0  0  0  0  0  0  0  0  0  0
   -7.7013   24.0117  -31.7354 H   0  0  0  0  0  0  0  0  0  0  0  0
   -4.9838   17.4193  -31.4745 H   0  0  0  0  0  0  0  0  0  0  0  0
   -6.2043   18.4416  -30.6051 H   0  0  0  0  0  0  0  0  0  0  0  0
   -6.5469   16.9799  -33.2540 H   0  0  0  0  0  0  0  0  0  0  0  0
   -7.3803   16.6708  -31.6607 H   0  0  0  0  0  0  0  0  0  0  0  0
   -7.8968   18.7712  -33.7328 H   0  0  0  0  0  0  0  0  0  0  0  0
   -9.0346   17.8096  -32.6978 H   0  0  0  0  0  0  0  0  0  0  0  0
  1  2  1  0
  2  3  1  0
  3  4  1  0
  4  5  1  0
  5  6  1  0
  6  7  1  0
  7  8  1  0
  8  9  1  0
  9 10  1  0
 10 11  1  0
 11 12  2  0
 12 13  1  0
 13 14  2  0
 14 15  1  0
 14 16  1  0
 16 17  2  0
 17 18  1  0
 18 19  1  0
 19 20  1  0
 20 21  1  0
 21 22  1  0
 17 11  1  0
 22 16  1  0
  1 23  1  0
  1 24  1  0
  1 25  1  0
  2 26  1  0
  2 27  1  0
  4 28  1  0
  4 29  1  0
  5 30  1  0
  5 31  1  0
  6 32  1  0
  7 33  1  0
  7 34  1  0
  8 35  1  0
  8 36  1  0
  9 37  1  0
  9 38  1  0
 10 39  1  0
 10 40  1  0
 12 41  1  0
 13 42  1  0
 19 43  1  0
 19 44  1  0
 20 45  1  0
 20 46  1  0
 21 47  1  0
 21 48  1  0
M  CHG  1   9   1
M  END
>  <UniqueID>  (4) 
4

>  <SMILES>  (4) 
CCOCCNCC[NH2+]Cc1ccc(Cl)c2c1OCCCO2

>  <Energy>  (4) 
52.6056064051143

>  <Genealogy>  (4) 
CCOCCNCC[NH2+]Cc1ccc(Cl)c2c1OCCCO2 (protonated)
CCOCCNCC[NH2+]Cc1ccc(Cl)c2c1OCCCO2 (3D coordinates assigned)
CCOCCNCC[NH2+]Cc1ccc(Cl)c2c1OCCCO2 (nonaromatic ring conformer: 52.6056064051143 kcal/mol)

>  <smiles>  (4) 
CCOCCNCCNCc1ccc(Cl)c2c1OCCCO2

>  <score_type>  (4) 
oracle

>  <origin>  (4) 
adg

>  <m_score__min__energy>  (4) 
-5.5099999999999998

>  <m_primary>  (4) 
energy

$$$$
4:0
     RDKit          3D

 47 48  0  0  0  0  0  0  0  0999 V2000
   -2.8330   21.9430  -31.3880 C   0  0  0  0  0  0  0  0  0  0  0  0
   -2.4110   22.7650  -30.1770 C   0  0  0  0  0  0  0  0  0  0  0  0
   -3.5890   23.2290  -29.4260 N   0  0  0  0  0  0  0  0  0  0  0  0
   -3.6620   22.9470  -27.9870 C   0  0  0  0  0  0  0  0  0  0  0  0
   -3.9000   24.2300  -27.1980 C   0  0  0  0  0  0  0  0  0  0  0  0
   -4.4190   24.2520  -30.0110 C   0  0  0  0  0  0  0  0  0  0  0  0
   -3.8720   25.2910  -30.4740 O   0  0  0  0  0  0  0  0  0  0  0  0
   -5.9290   24.1300  -30.1070 C   0  0  0  0  0  0  0  0  0  0  0  0
   -6.4820   24.4860  -31.5110 C   0  0  0  0  0  0  0  0  0  0  0  0
   -6.5000   23.2980  -32.4850 C   0  0  0  0  0  0  0  0  0  0  0  0
   -6.9390   22.0580  -31.8290 N   0  0  0  0  0  0  0  0  0  0  0  0
   -6.8130   20.8170  -32.5420 C   0  0  0  0  0  0  0  0  0  0  0  0
   -7.1190   20.7760  -33.7650 O   0  0  0  0  0  0  0  0  0  0  0  0
   -6.3230   19.6380  -31.8770 N   0  0  0  0  0  0  0  0  0  0  0  0
   -6.0220   18.4040  -32.5490 C   0  0  0  0  0  0  0  0  0  0  0  0
   -7.0760   17.5660  -32.9470 C   0  0  0  0  0  0  0  0  0  0  0  0
   -6.8100   16.3460  -33.5770 C   0  0  0  0  0  0  0  0  0  0  0  0
   -5.4890   15.9450  -33.7980 C   0  0  0  0  0  0  0  0  0  0  0  0
   -4.4330   16.7600  -33.3820 C   0  0  0  0  0  0  0  0  0  0  0  0
   -4.6960   17.9810  -32.7520 C   0  0  0  0  0  0  0  0  0  0  0  0
   -7.4680   22.1070  -30.4610 C   0  0  0  0  0  0  0  0  0  0  0  0
   -6.4490   22.7800  -29.5400 C   0  0  0  0  0  0  0  0  0  0  0  0
   -3.3111   21.0117  -31.0504 H   0  0  0  0  0  0  0  0  0  0  0  0
   -3.5453   22.5221  -31.9941 H   0  0  0  0  0  0  0  0  0  0  0  0
   -1.9473   21.7017  -31.9941 H   0  0  0  0  0  0  0  0  0  0  0  0
   -1.7854   22.1437  -29.5193 H   0  0  0  0  0  0  0  0  0  0  0  0
   -1.8458   23.6422  -30.5250 H   0  0  0  0  0  0  0  0  0  0  0  0
   -4.4897   22.2477  -27.7976 H   0  0  0  0  0  0  0  0  0  0  0  0
   -2.7078   22.5051  -27.6643 H   0  0  0  0  0  0  0  0  0  0  0  0
   -3.8594   24.0109  -26.1208 H   0  0  0  0  0  0  0  0  0  0  0  0
   -3.1231   24.9661  -27.4520 H   0  0  0  0  0  0  0  0  0  0  0  0
   -4.8892   24.6385  -27.4520 H   0  0  0  0  0  0  0  0  0  0  0  0
   -6.3487   24.9031  -29.4466 H   0  0  0  0  0  0  0  0  0  0  0  0
   -7.5113   24.8565  -31.3955 H   0  0  0  0  0  0  0  0  0  0  0  0
   -5.8098   25.2439  -31.9395 H   0  0  0  0  0  0  0  0  0  0  0  0
   -7.1890   23.5262  -33.3116 H   0  0  0  0  0  0  0  0  0  0  0  0
   -5.4752   23.1441  -32.8540 H   0  0  0  0  0  0  0  0  0  0  0  0
   -6.1900   19.6630  -30.8420 H   0  0  0  0  0  0  0  0  0  0  0  0
   -8.1167   17.8707  -32.7623 H   0  0  0  0  0  0  0  0  0  0  0  0
   -7.6410   15.7013  -33.8990 H   0  0  0  0  0  0  0  0  0  0  0  0
   -5.2810   14.9882  -34.2992 H   0  0  0  0  0  0  0  0  0  0  0  0
   -3.3937   16.4411  -33.5501 H   0  0  0  0  0  0  0  0  0  0  0  0
   -3.8619   18.6133  -32.4138 H   0  0  0  0  0  0  0  0  0  0  0  0
   -8.4057   22.6821  -30.4516 H   0  0  0  0  0  0  0  0  0  0  0  0
   -7.6599   21.0834  -30.1069 H   0  0  0  0  0  0  0  0  0  0  0  0
   -6.9246   22.9671  -28.5659 H   0  0  0  0  0  0  0  0  0  0  0  0
   -5.5864   22.1037  -29.4479 H   0  0  0  0  0  0  0  0  0  0  0  0
  1  2  1  0
  2  3  1  0
  3  4  1  0
  4  5  1  0
  3  6  1  0
  6  7  2  0
  6  8  1  0
  8  9  1  0
  9 10  1  0
 10 11  1  0
 11 12  1  0
 12 13  2  0
 12 14  1  0
 14 15  1  0
 15 16  2  0
 16 17  1  0
 17 18  2  0
 18 19  1  0
 19 20  2  0
 11 21  1  0
 21 22  1  0
 22  8  1  0
 20 15  1  0
  1 23  1  0
  1 24  1  0
  1 25  1  0
  2 26  1  0
  2 27  1  0
  4 28  1  0
  4 29  1  0
  5 30  1  0
  5 31  1  0
  5 32  1  0
  8 33  1  0
  9 34  1  0
  9 35  1  0
 10 36  1  0
 10 37  1  0
 14 38  1  0
 16 39  1  0
 17 40  1  0
 18 41  1  0
 19 42  1  0
 20 43  1  0
 21 44  1  0
 21 45  1  0
 22 46  1  0
 22 47  1  0
M  END
>  <UniqueID>  (5) 
5

>  <SMILES>  (5) 
CCN(CC)C(=O)C1CCN(C(=O)Nc2ccccc2)CC1

>  <Energy>  (5) 
52.5727001309115

>  <Genealogy>  (5) 
CCN(CC)C(=O)C1CCN(C(=O)Nc2ccccc2)CC1 (3D coordinates assigned)
CCN(CC)C(=O)C1CCN(C(=O)Nc2ccccc2)CC1 (nonaromatic ring conformer: 52.5727001309115 kcal/mol)

>  <smiles>  (5) 
CCN(CC)C(=O)C1CCN(C(=O)Nc2ccccc2)CC1

>  <score_type>  (5) 
oracle

>  <origin>  (5) 
adg

>  <m_score__min__energy>  (5) 
-7.5

>  <m_primary>  (5) 
energy

$$$$
5:0
     RDKit          3D

 75 77  0  0  0  0  0  0  0  0999 V2000
   -4.4830   13.6550  -31.4380 C   0  0  0  0  0  0  0  0  0  0  0  0
   -3.3090   13.1640  -32.2810 C   0  0  0  0  0  0  0  0  0  0  0  0
   -2.0510   14.0010  -32.0190 C   0  0  0  0  0  0  0  0  0  0  0  0
   -1.3960   14.5120  -33.3170 C   0  0  0  0  0  0  0  0  0  0  0  0
   -1.1560   15.9730  -33.3030 N   0  0  0  0  0  0  0  0  0  0  0  0
    0.2690   16.2960  -33.0930 C   0  0  0  0  0  0  0  0  0  0  0  0
    0.5180   17.8130  -32.9970 C   0  0  0  0  0  0  0  0  0  0  0  0
   -0.7280   18.6330  -32.6400 C   0  0  0  0  0  0  0  0  0  0  0  0
   -1.7790   18.3950  -33.5780 O   0  0  0  0  0  0  0  0  0  0  0  0
   -3.1220   18.7130  -33.3340 C   0  0  0  0  0  0  0  0  0  0  0  0
   -4.0540   17.6810  -33.3970 C   0  0  0  0  0  0  0  0  0  0  0  0
   -3.5940   16.3930  -33.7230 O   0  0  0  0  0  0  0  0  0  0  0  0
   -4.2540   15.4950  -34.6090 C   0  0  0  0  0  0  0  0  0  0  0  0
   -5.4050   17.9480  -33.1490 C   0  0  0  0  0  0  0  0  0  0  0  0
   -5.8440   19.2320  -32.7480 C   0  0  0  0  0  0  0  0  0  0  0  0
   -4.8890   20.2850  -32.6790 C   0  0  0  0  0  0  0  0  0  0  0  0
   -3.5430   20.0390  -33.0930 C   0  0  0  0  0  0  0  0  0  0  0  0
   -2.6080   21.1670  -33.4790 C   0  0  0  0  0  0  0  0  0  0  0  0
   -5.3240   21.5520  -32.2190 C   0  0  0  0  0  0  0  0  0  0  0  0
   -4.3860   22.5230  -31.7240 N   0  0  0  0  0  0  0  0  0  0  0  0
   -3.9350   22.5120  -30.3310 C   0  0  0  0  0  0  0  0  0  0  0  0
   -3.5640   23.9200  -29.8470 C   0  0  0  0  0  0  0  0  0  0  0  0
   -3.8880   24.9580  -30.8390 N   0  0  0  0  0  0  0  0  0  0  0  0
   -5.1390   25.6560  -30.5130 C   0  0  0  0  0  0  0  0  0  0  0  0
   -5.8770   24.9230  -29.3980 C   0  0  0  0  0  0  0  0  0  0  0  0
   -6.7010   21.8240  -32.1390 C   0  0  0  0  0  0  0  0  0  0  0  0
   -7.1700   23.1260  -31.8550 C   0  0  0  0  0  0  0  0  0  0  0  0
   -8.5360   23.3950  -31.8140 C   0  0  0  0  0  0  0  0  0  0  0  0
   -9.4540   22.3810  -32.0630 C   0  0  0  0  0  0  0  0  0  0  0  0
   -9.0120   21.0840  -32.3160 C   0  0  0  0  0  0  0  0  0  0  0  0
   -7.6280   20.7690  -32.3170 C   0  0  0  0  0  0  0  0  0  0  0  0
   -7.1760   19.4730  -32.4570 N   0  0  0  0  0  0  0  0  0  0  0  0
   -8.1120   18.3420  -32.2590 C   0  0  0  0  0  0  0  0  0  0  0  0
   -4.2366   13.5520  -30.3709 H   0  0  0  0  0  0  0  0  0  0  0  0
   -4.6827   14.7120  -31.6678 H   0  0  0  0  0  0  0  0  0  0  0  0
   -5.3758   13.0548  -31.6678 H   0  0  0  0  0  0  0  0  0  0  0  0
   -3.1004   12.1138  -32.0288 H   0  0  0  0  0  0  0  0  0  0  0  0
   -3.5776   13.2613  -33.3432 H   0  0  0  0  0  0  0  0  0  0  0  0
   -2.3272   14.8670  -31.3995 H   0  0  0  0  0  0  0  0  0  0  0  0
   -1.3210   13.3538  -31.5108 H   0  0  0  0  0  0  0  0  0  0  0  0
   -0.4321   13.9989  -33.4496 H   0  0  0  0  0  0  0  0  0  0  0  0
   -2.0895   14.2986  -34.1437 H   0  0  0  0  0  0  0  0  0  0  0  0
   -1.7480   16.4420  -32.5770 H   0  0  0  0  0  0  0  0  0  0  0  0
   -1.4410   16.3560  -34.2350 H   0  0  0  0  0  0  0  0  0  0  0  0
    0.6047   15.8228  -32.1584 H   0  0  0  0  0  0  0  0  0  0  0  0
    0.8305   15.9176  -33.9599 H   0  0  0  0  0  0  0  0  0  0  0  0
    1.2802   17.9893  -32.2238 H   0  0  0  0  0  0  0  0  0  0  0  0
    0.8393   18.1445  -33.9954 H   0  0  0  0  0  0  0  0  0  0  0  0
   -1.0710   18.3482  -31.6344 H   0  0  0  0  0  0  0  0  0  0  0  0
   -0.4665   19.7011  -32.6677 H   0  0  0  0  0  0  0  0  0  0  0  0
   -4.8062   14.7437  -34.0254 H   0  0  0  0  0  0  0  0  0  0  0  0
   -4.9566   16.0556  -35.2431 H   0  0  0  0  0  0  0  0  0  0  0  0
   -3.5092   14.9919  -35.2431 H   0  0  0  0  0  0  0  0  0  0  0  0
   -6.1429   17.1410  -33.2685 H   0  0  0  0  0  0  0  0  0  0  0  0
   -2.2131   21.6434  -32.5695 H   0  0  0  0  0  0  0  0  0  0  0  0
   -1.7746   20.7651  -34.0738 H   0  0  0  0  0  0  0  0  0  0  0  0
   -3.1575   21.9114  -34.0738 H   0  0  0  0  0  0  0  0  0  0  0  0
   -4.1000   23.3190  -32.3380 H   0  0  0  0  0  0  0  0  0  0  0  0
   -4.7430   22.1179  -29.6971 H   0  0  0  0  0  0  0  0  0  0  0  0
   -3.0388   21.8776  -30.2642 H   0  0  0  0  0  0  0  0  0  0  0  0
   -4.1172   24.1321  -28.9202 H   0  0  0  0  0  0  0  0  0  0  0  0
   -2.4767   23.9420  -29.6815 H   0  0  0  0  0  0  0  0  0  0  0  0
   -3.1110   25.6610  -30.8110 H   0  0  0  0  0  0  0  0  0  0  0  0
   -4.9084   26.6800  -30.1839 H   0  0  0  0  0  0  0  0  0  0  0  0
   -5.7779   25.6836  -31.4080 H   0  0  0  0  0  0  0  0  0  0  0  0
   -5.5164   25.2811  -28.4224 H   0  0  0  0  0  0  0  0  0  0  0  0
   -6.9564   25.1168  -29.4836 H   0  0  0  0  0  0  0  0  0  0  0  0
   -5.6906   23.8423  -29.4836 H   0  0  0  0  0  0  0  0  0  0  0  0
   -6.4495   23.9351  -31.6644 H   0  0  0  0  0  0  0  0  0  0  0  0
   -8.8890   24.4112  -31.5843 H   0  0  0  0  0  0  0  0  0  0  0  0
  -10.5314   22.6031  -32.0603 H   0  0  0  0  0  0  0  0  0  0  0  0
   -9.7475   20.2914  -32.5182 H   0  0  0  0  0  0  0  0  0  0  0  0
   -8.2553   18.1688  -31.1822 H   0  0  0  0  0  0  0  0  0  0  0  0
   -9.0798   18.5813  -32.7239 H   0  0  0  0  0  0  0  0  0  0  0  0
   -7.6959   17.4360  -32.7239 H   0  0  0  0  0  0  0  0  0  0  0  0
  1  2  1  0
  2  3  1  0
  3  4  1  0
  4  5  1  0
  5  6  1  0
  6  7  1  0
  7  8  1  0
  8  9  1  0
  9 10  1  0
 10 11  2  0
 11 12  1  0
 12 13  1  0
 11 14  1  0
 14 15  2  0
 15 16  1  0
 16 17  2  0
 17 18  1  0
 16 19  1  0
 19 20  1  0
 20 21  1  0
 21 22  1  0
 22 23  1  0
 23 24  1  0
 24 25  1  0
 19 26  2  0
 26 27  1  0
 27 28  2  0
 28 29  1  0
 29 30  2  0
 30 31  1  0
 31 32  2  0
 32 33  1  0
 17 10  1  0
 31 26  1  0
 32 15  1  0
  1 34  1  0
  1 35  1  0
  1 36  1  0
  2 37  1  0
  2 38  1  0
  3 39  1  0
  3 40  1  0
  4 41  1  0
  4 42  1  0
  5 43  1  0
  5 44  1  0
  6 45  1  0
  6 46  1  0
  7 47  1  0
  7 48  1  0
  8 49  1  0
  8 50  1  0
 13 51  1  0
 13 52  1  0
 13 53  1  0
 14 54  1  0
 18 55  1  0
 18 56  1  0
 18 57  1  0
 20 58  1  0
 21 59  1  0
 21 60  1  0
 22 61  1  0
 22 62  1  0
 23 63  1  0
 24 64  1  0
 24 65  1  0
 25 66  1  0
 25 67  1  0
 25 68  1  0
 27 69  1  0
 28 70  1  0
 29 71  1  0
 30 72  1  0
 33 73  1  0
 33 74  1  0
 33 75  1  0
M  CHG  2   5   1  32   1
M  END
>  <UniqueID>  (6) 
6

>  <SMILES>  (6) 
CCCC[NH2+]CCCOc1c(OC)cc2c(c1C)c(NCCNCC)c1ccccc1[n+]2C

>  <Energy>  (6) 
99.32162422037938

>  <Genealogy>  (6) 
CCCC[NH2+]CCCOc1c(OC)cc2c(c1C)c(NCCNCC)c1ccccc1[n+]2C (protonated)
CCCC[NH2+]CCCOc1c(OC)cc2c(c1C)c(NCCNCC)c1ccccc1[n+]2C (3D coordinates assigned)
CCCC[NH2+]CCCOc1c(OC)cc2c(c1C)c(NCCNCC)c1ccccc1[n+]2C (optimized conformer: 99.32162422037938 kcal/mol)

>  <smiles>  (6) 
CCCCNCCCOc1c(OC)cc2c(c1C)c(NCCNCC)c1ccccc1[n+]2C

>  <score_type>  (6) 
oracle

>  <origin>  (6) 
adg

>  <m_score__min__energy>  (6) 
-8.6099999999999994

>  <m_primary>  (6) 
energy

$$$$
6:0
     RDKit          3D

 24 25  0  0  0  0  0  0  0  0999 V2000
   -1.7962   21.4323  -29.6694 H   0  0  0  0  0  0  0  0  0  0  0  0
   -2.0490   22.4480  -29.3310 C   0  0  0  0  0  0  0  0  0  0  0  0
   -2.8120   23.2540  -30.1130 N   0  0  0  0  0  0  0  0  0  0  0  0
   -3.1370   24.5150  -29.7150 C   0  0  0  0  0  0  0  0  0  0  0  0
   -3.8650   25.2870  -30.4650 N   0  0  0  0  0  0  0  0  0  0  0  0
   -5.2610   25.0370  -30.8230 C   0  0  0  0  0  0  0  0  0  0  0  0
   -5.3828   23.9742  -31.0790 H   0  0  0  0  0  0  0  0  0  0  0  0
   -5.5232   25.6706  -31.6831 H   0  0  0  0  0  0  0  0  0  0  0  0
   -6.1880   25.3810  -29.6620 C   0  0  0  0  0  0  0  0  0  0  0  0
   -5.6707   25.1890  -28.7104 H   0  0  0  0  0  0  0  0  0  0  0  0
   -6.4685   26.4431  -29.7191 H   0  0  0  0  0  0  0  0  0  0  0  0
   -7.0935   24.7590  -29.7191 H   0  0  0  0  0  0  0  0  0  0  0  0
   -2.6910   24.9780  -28.5170 N   0  0  0  0  0  0  0  0  0  0  0  0
   -1.9240   24.2080  -27.6980 C   0  0  0  0  0  0  0  0  0  0  0  0
   -1.4730   24.7690  -26.4110 C   0  0  0  0  0  0  0  0  0  0  0  0
   -0.7260   24.1140  -25.5520 O   0  0  0  0  0  0  0  0  0  0  0  0
   -0.4820   24.8490  -24.5100 N   0  0  0  0  0  0  0  0  0  0  0  0
    0.0890   24.5530  -23.6880 H   0  0  0  0  0  0  0  0  0  0  0  0
   -1.0880   26.0380  -24.6780 C   0  0  0  0  0  0  0  0  0  0  0  0
   -1.0668   26.8767  -23.9665 H   0  0  0  0  0  0  0  0  0  0  0  0
   -1.7410   26.0280  -25.8940 C   0  0  0  0  0  0  0  0  0  0  0  0
   -2.3369   26.8332  -26.3485 H   0  0  0  0  0  0  0  0  0  0  0  0
   -1.5860   22.9080  -28.0990 C   0  0  0  0  0  0  0  0  0  0  0  0
   -0.9685   22.2644  -27.4552 H   0  0  0  0  0  0  0  0  0  0  0  0
  1  2  1  0
  2  3  1  0
  3  4  1  0
  4  5  2  0
  5  6  1  0
  6  7  1  0
  6  8  1  0
  6  9  1  0
  9 10  1  0
  9 11  1  0
  9 12  1  0
  4 13  1  0
 13 14  2  0
 14 15  1  0
 15 16  1  0
 16 17  1  0
 17 18  1  0
 17 19  2  0
 19 20  1  0
 19 21  1  0
 21 22  1  0
 14 23  1  0
 23 24  1  0
 23  2  2  0
 21 15  2  0
M  CHG  2   3  -1  17   1
M  END
>  <UniqueID>  (7) 
7

>  <SMILES>  (7) 
CC/N=c1/nc(-c2cc[nH+]o2)cc[n-]1

>  <Energy>  (7) 
53.120361839485575

>  <Genealogy>  (7) 
CCN=c1nc(-c2cc[nH+]o2)cc[n-]1 (protonated)
CC/N=c1/nc(-c2cc[nH+]o2)cc[n-]1 (cis-trans isomerization)
CC/N=c1/nc(-c2cc[nH+]o2)cc[n-]1 (3D coordinates assigned)
CC/N=c1/nc(-c2cc[nH+]o2)cc[n-]1 (optimized conformer: 53.120361839485575 kcal/mol)

>  <smiles>  (7) 
CCN=c1nc(-c2ccno2)cc[nH]1

>  <score_type>  (7) 
oracle

>  <origin>  (7) 
adg

>  <m_score__min__energy>  (7) 
-6.7199999999999998

>  <m_primary>  (7) 
energy

$$$$
7:0
     RDKit          3D

 48 50  0  0  0  0  0  0  0  0999 V2000
   -3.2780   24.3230  -27.3760 C   0  0  0  0  0  0  0  0  0  0  0  0
   -2.2980   24.6430  -28.4980 C   0  0  0  0  0  0  0  0  0  0  0  0
   -2.9950   24.9350  -29.7080 O   0  0  0  0  0  0  0  0  0  0  0  0
   -4.0310   24.1460  -30.2260 C   0  0  0  0  0  0  0  0  0  0  0  0
   -3.9630   22.7800  -30.5050 C   0  0  0  0  0  0  0  0  0  0  0  0
   -5.2170   22.4550  -30.9780 C   0  0  0  0  0  0  0  0  0  0  0  0
   -5.7310   21.2280  -31.3920 C   0  0  0  0  0  0  0  0  0  0  0  0
   -7.0730   21.1820  -31.8180 C   0  0  0  0  0  0  0  0  0  0  0  0
   -7.7650   19.6440  -32.3310 S   0  0  0  0  0  0  0  0  0  0  0  0
   -7.6760   18.6420  -31.2120 O   0  0  0  0  0  0  0  0  0  0  0  0
   -9.2150   19.8600  -32.6660 O   0  0  0  0  0  0  0  0  0  0  0  0
   -6.9110   19.0490  -33.7340 N   0  0  1  0  0  0  0  0  0  0  0  0
   -5.5900   19.7200  -33.8780 C   0  0  0  0  0  0  0  0  0  0  0  0
   -4.4260   18.8580  -33.3700 C   0  0  0  0  0  0  0  0  0  0  0  0
   -4.3410   17.5290  -34.1550 C   0  0  1  0  0  0  0  0  0  0  0  0
   -3.5940   16.4710  -33.3330 C   0  0  0  0  0  0  0  0  0  0  0  0
   -5.7370   17.0210  -34.5930 C   0  0  0  0  0  0  0  0  0  0  0  0
   -6.8400   17.5670  -33.6800 C   0  0  0  0  0  0  0  0  0  0  0  0
   -7.8610   22.3590  -31.8080 C   0  0  0  0  0  0  0  0  0  0  0  0
   -7.3130   23.5820  -31.3820 C   0  0  0  0  0  0  0  0  0  0  0  0
   -5.9780   23.5960  -30.9740 C   0  0  0  0  0  0  0  0  0  0  0  0
   -5.2560   24.6420  -30.5250 N   0  0  0  0  0  0  0  0  0  0  0  0
   -5.7220   26.0110  -30.3250 C   0  0  0  0  0  0  0  0  0  0  0  0
   -2.7879   24.4830  -26.4043 H   0  0  0  0  0  0  0  0  0  0  0  0
   -4.1556   24.9813  -27.4568 H   0  0  0  0  0  0  0  0  0  0  0  0
   -3.5980   23.2737  -27.4568 H   0  0  0  0  0  0  0  0  0  0  0  0
   -1.6923   25.5151  -28.2107 H   0  0  0  0  0  0  0  0  0  0  0  0
   -1.6523   23.7680  -28.6640 H   0  0  0  0  0  0  0  0  0  0  0  0
   -3.0997   22.1105  -30.3760 H   0  0  0  0  0  0  0  0  0  0  0  0
   -5.1073   20.3219  -31.3864 H   0  0  0  0  0  0  0  0  0  0  0  0
   -7.4930   19.3080  -34.5650 H   0  0  0  0  0  0  0  0  0  0  0  0
   -5.6084   20.6587  -33.3048 H   0  0  0  0  0  0  0  0  0  0  0  0
   -5.4252   19.8998  -34.9506 H   0  0  0  0  0  0  0  0  0  0  0  0
   -4.5799   18.6372  -32.3034 H   0  0  0  0  0  0  0  0  0  0  0  0
   -3.4876   19.4131  -33.5156 H   0  0  0  0  0  0  0  0  0  0  0  0
   -3.7723   17.7204  -35.0769 H   0  0  0  0  0  0  0  0  0  0  0  0
   -3.7360   16.6721  -32.2609 H   0  0  0  0  0  0  0  0  0  0  0  0
   -3.9889   15.4731  -33.5743 H   0  0  0  0  0  0  0  0  0  0  0  0
   -2.5215   16.5091  -33.5743 H   0  0  0  0  0  0  0  0  0  0  0  0
   -5.7479   15.9219  -34.5503 H   0  0  0  0  0  0  0  0  0  0  0  0
   -5.9287   17.3727  -35.6175 H   0  0  0  0  0  0  0  0  0  0  0  0
   -6.6326   17.2571  -32.6451 H   0  0  0  0  0  0  0  0  0  0  0  0
   -7.8033   17.1638  -34.0255 H   0  0  0  0  0  0  0  0  0  0  0  0
   -8.9100   22.3160  -32.1361 H   0  0  0  0  0  0  0  0  0  0  0  0
   -7.9183   24.5004  -31.3706 H   0  0  0  0  0  0  0  0  0  0  0  0
   -5.7933   26.2203  -29.2475 H   0  0  0  0  0  0  0  0  0  0  0  0
   -5.0117   26.7115  -30.7884 H   0  0  0  0  0  0  0  0  0  0  0  0
   -6.7122   26.1327  -30.7884 H   0  0  0  0  0  0  0  0  0  0  0  0
  1  2  1  0
  2  3  1  0
  3  4  1  0
  4  5  2  0
  5  6  1  0
  6  7  2  0
  7  8  1  0
  8  9  1  0
  9 10  2  0
  9 11  2  0
  9 12  1  0
 12 13  1  0
 13 14  1  0
 14 15  1  0
 15 16  1  0
 15 17  1  0
 17 18  1  0
  8 19  2  0
 19 20  1  0
 20 21  2  0
 21 22  1  0
 22 23  1  0
 22  4  1  0
 21  6  1  0
 18 12  1  0
  1 24  1  0
  1 25  1  0
  1 26  1  0
  2 27  1  0
  2 28  1  0
  5 29  1  0
  7 30  1  0
 12 31  1  6
 13 32  1  0
 13 33  1  0
 14 34  1  0
 14 35  1  0
 15 36  1  6
 16 37  1  0
 16 38  1  0
 16 39  1  0
 17 40  1  0
 17 41  1  0
 18 42  1  0
 18 43  1  0
 19 44  1  0
 20 45  1  0
 23 46  1  0
 23 47  1  0
 23 48  1  0
M  CHG  1  12   1
M  END
>  <UniqueID>  (8) 
8

>  <SMILES>  (8) 
CCOc1cc2cc(S(=O)(=O)[NH+]3CCC(C)CC3)ccc2n1C

>  <Energy>  (8) 
82.19990700700123

>  <Genealogy>  (8) 
CCOc1cc2cc(S(=O)(=O)[NH+]3CCC(C)CC3)ccc2n1C (protonated)
CCOc1cc2cc(S(=O)(=O)[NH+]3CCC(C)CC3)ccc2n1C (3D coordinates assigned)
CCOc1cc2cc(S(=O)(=O)[NH+]3CCC(C)CC3)ccc2n1C (nonaromatic ring conformer: 82.19990700700123 kcal/mol)

>  <smiles>  (8) 
CCOc1cc2cc(S(=O)(=O)N3CCC(C)CC3)ccc2n1C

>  <score_type>  (8) 
oracle

>  <origin>  (8) 
adg

>  <m_score__min__energy>  (8) 
-8.9000000000000004

>  <m_primary>  (8) 
energy

$$$$
8:0
     RDKit          3D

 51 53  0  0  0  0  0  0  0  0999 V2000
   -2.6120   19.9590  -27.2390 C   0  0  0  0  0  0  0  0  0  0  0  0
   -2.1190   20.9610  -28.1960 N   0  0  0  0  0  0  0  0  0  0  0  0
   -2.9710   20.9530  -29.3980 C   0  0  0  0  0  0  0  0  0  0  0  0
   -2.0950   22.3010  -27.5680 C   0  0  0  0  0  0  0  0  0  0  0  0
   -3.1220   23.2500  -28.2100 C   0  0  0  0  0  0  0  0  0  0  0  0
   -2.5190   24.6060  -28.5820 C   0  0  0  0  0  0  0  0  0  0  0  0
   -3.1870   25.1480  -29.7190 O   0  0  0  0  0  0  0  0  0  0  0  0
   -4.4290   24.6810  -30.1560 C   0  0  0  0  0  0  0  0  0  0  0  0
   -5.6050   25.3550  -29.7680 C   0  0  0  0  0  0  0  0  0  0  0  0
   -6.8540   24.8880  -30.2040 C   0  0  0  0  0  0  0  0  0  0  0  0
   -6.8620   23.7630  -31.0220 C   0  0  0  0  0  0  0  0  0  0  0  0
   -7.9380   23.1290  -31.5230 N   0  0  0  0  0  0  0  0  0  0  0  0
   -7.4310   22.0820  -32.2170 C   0  0  0  0  0  0  0  0  0  0  0  0
   -6.0400   22.1040  -32.1290 C   0  0  0  0  0  0  0  0  0  0  0  0
   -5.0930   21.1270  -32.7190 C   0  0  0  0  0  0  0  0  0  0  0  0
   -3.7420   21.4700  -32.8880 C   0  0  0  0  0  0  0  0  0  0  0  0
   -2.8490   20.5610  -33.4540 C   0  0  0  0  0  0  0  0  0  0  0  0
   -3.2880   19.3000  -33.8590 C   0  0  0  0  0  0  0  0  0  0  0  0
   -4.6360   18.9220  -33.6940 C   0  0  0  0  0  0  0  0  0  0  0  0
   -5.1000   17.6150  -34.1190 N   0  0  0  0  0  0  0  0  0  0  0  0
   -6.4850   17.1990  -33.8710 C   0  0  0  0  0  0  0  0  0  0  0  0
   -4.1940   16.6940  -34.8160 C   0  0  0  0  0  0  0  0  0  0  0  0
   -5.5250   19.8460  -33.1090 C   0  0  0  0  0  0  0  0  0  0  0  0
   -5.7150   23.1690  -31.3720 N   0  0  0  0  0  0  0  0  0  0  0  0
   -4.5180   23.5790  -30.9570 N   0  0  0  0  0  0  0  0  0  0  0  0
   -2.4370   20.3147  -26.2129 H   0  0  0  0  0  0  0  0  0  0  0  0
   -3.6898   19.8029  -27.3941 H   0  0  0  0  0  0  0  0  0  0  0  0
   -2.0780   19.0099  -27.3941 H   0  0  0  0  0  0  0  0  0  0  0  0
   -4.0291   20.9431  -29.0974 H   0  0  0  0  0  0  0  0  0  0  0  0
   -2.7684   21.8531  -29.9970 H   0  0  0  0  0  0  0  0  0  0  0  0
   -2.7516   20.0569  -29.9970 H   0  0  0  0  0  0  0  0  0  0  0  0
   -2.3264   22.1970  -26.4976 H   0  0  0  0  0  0  0  0  0  0  0  0
   -1.0930   22.7304  -27.7154 H   0  0  0  0  0  0  0  0  0  0  0  0
   -3.5160   22.7777  -29.1220 H   0  0  0  0  0  0  0  0  0  0  0  0
   -3.9161   23.4305  -27.4706 H   0  0  0  0  0  0  0  0  0  0  0  0
   -2.6281   25.2971  -27.7332 H   0  0  0  0  0  0  0  0  0  0  0  0
   -1.4542   24.4708  -28.8226 H   0  0  0  0  0  0  0  0  0  0  0  0
   -5.5433   26.2452  -29.1247 H   0  0  0  0  0  0  0  0  0  0  0  0
   -7.7878   25.3904  -29.9113 H   0  0  0  0  0  0  0  0  0  0  0  0
   -8.9440   23.3790  -31.3980 H   0  0  0  0  0  0  0  0  0  0  0  0
   -8.0231   21.3331  -32.7634 H   0  0  0  0  0  0  0  0  0  0  0  0
   -3.3860   22.4617  -32.5720 H   0  0  0  0  0  0  0  0  0  0  0  0
   -1.7926   20.8395  -33.5819 H   0  0  0  0  0  0  0  0  0  0  0  0
   -2.5756   18.5943  -34.3112 H   0  0  0  0  0  0  0  0  0  0  0  0
   -6.6632   17.1455  -32.7869 H   0  0  0  0  0  0  0  0  0  0  0  0
   -7.1734   17.9300  -34.3201 H   0  0  0  0  0  0  0  0  0  0  0  0
   -6.6567   16.2096  -34.3201 H   0  0  0  0  0  0  0  0  0  0  0  0
   -3.6224   16.1129  -34.0774 H   0  0  0  0  0  0  0  0  0  0  0  0
   -4.7806   16.0096  -35.4465 H   0  0  0  0  0  0  0  0  0  0  0  0
   -3.5001   17.2693  -35.4465 H   0  0  0  0  0  0  0  0  0  0  0  0
   -6.5760   19.5604  -32.9545 H   0  0  0  0  0  0  0  0  0  0  0  0
  1  2  1  0
  2  3  1  0
  2  4  1  0
  4  5  1  0
  5  6  1  0
  6  7  1  0
  7  8  1  0
  8  9  1  0
  9 10  2  0
 10 11  1  0
 11 12  2  0
 12 13  1  0
 13 14  2  0
 14 15  1  0
 15 16  2  0
 16 17  1  0
 17 18  2  0
 18 19  1  0
 19 20  1  0
 20 21  1  0
 20 22  1  0
 19 23  2  0
 14 24  1  0
 24 25  1  0
 25  8  2  0
 24 11  1  0
 23 15  1  0
  1 26  1  0
  1 27  1  0
  1 28  1  0
  3 29  1  0
  3 30  1  0
  3 31  1  0
  4 32  1  0
  4 33  1  0
  5 34  1  0
  5 35  1  0
  6 36  1  0
  6 37  1  0
  9 38  1  0
 10 39  1  0
 12 40  1  0
 13 41  1  0
 16 42  1  0
 17 43  1  0
 18 44  1  0
 21 45  1  0
 21 46  1  0
 21 47  1  0
 22 48  1  0
 22 49  1  0
 22 50  1  0
 23 51  1  0
M  CHG  1  12   1
M  END
>  <UniqueID>  (9) 
9

>  <SMILES>  (9) 
CN(C)CCCOc1ccc2[nH+]cc(-c3cccc(N(C)C)c3)n2n1

>  <Energy>  (9) 
89.15586738495364

>  <Genealogy>  (9) 
CN(C)CCCOc1ccc2[nH+]cc(-c3cccc(N(C)C)c3)n2n1 (protonated)
CN(C)CCCOc1ccc2[nH+]cc(-c3cccc(N(C)C)c3)n2n1 (3D coordinates assigned)
CN(C)CCCOc1ccc2[nH+]cc(-c3cccc(N(C)C)c3)n2n1 (optimized conformer: 89.15586738495364 kcal/mol)

>  <smiles>  (9) 
CN(C)CCCOc1ccc2ncc(-c3cccc(N(C)C)c3)n2n1

>  <score_type>  (9) 
oracle

>  <origin>  (9) 
adg

>  <m_score__min__energy>  (9) 
-7.3499999999999996

>  <m_primary>  (9) 
energy

$$$$
9:0
     RDKit          3D

 49 50  0  0  0  0  0  0  0  0999 V2000
   -7.9580   17.8450  -31.9290 C   0  0  0  0  0  0  0  0  0  0  0  0
   -8.8760   18.9840  -31.4970 C   0  0  0  0  0  0  0  0  0  0  0  0
   -8.9960   20.0490  -32.5940 C   0  0  0  0  0  0  0  0  0  0  0  0
   -8.0620   21.1640  -32.3380 N   0  0  0  0  0  0  0  0  0  0  0  0
   -8.5950   22.3160  -31.8290 C   0  0  0  0  0  0  0  0  0  0  0  0
   -7.8010   23.4210  -31.5510 C   0  0  0  0  0  0  0  0  0  0  0  0
   -6.4270   23.3810  -31.7950 C   0  0  0  0  0  0  0  0  0  0  0  0
   -5.6220   24.5490  -31.5430 N   0  0  0  0  0  0  0  0  0  0  0  0
   -5.6340   25.2740  -30.2710 C   0  0  0  0  0  0  0  0  0  0  0  0
   -4.9710   24.4400  -29.1650 C   0  0  0  0  0  0  0  0  0  0  0  0
   -3.4950   24.5100  -29.2640 N   0  0  0  0  0  0  0  0  0  0  0  0
   -2.9450   23.4080  -30.0970 C   0  0  0  0  0  0  0  0  0  0  0  0
   -3.2130   22.0710  -29.4170 C   0  0  0  0  0  0  0  0  0  0  0  0
   -2.8850   24.5360  -27.9150 C   0  0  0  0  0  0  0  0  0  0  0  0
   -3.9570   24.5870  -26.8260 C   0  0  0  0  0  0  0  0  0  0  0  0
   -5.8620   22.2010  -32.3280 C   0  0  0  0  0  0  0  0  0  0  0  0
   -4.4750   22.0950  -32.5560 C   0  0  0  0  0  0  0  0  0  0  0  0
   -3.9280   20.9360  -33.0990 C   0  0  0  0  0  0  0  0  0  0  0  0
   -4.7500   19.8600  -33.4220 C   0  0  0  0  0  0  0  0  0  0  0  0
   -4.0530   18.4090  -34.1210 Cl  0  0  0  0  0  0  0  0  0  0  0  0
   -6.1230   19.9300  -33.1830 C   0  0  0  0  0  0  0  0  0  0  0  0
   -6.7080   21.0890  -32.6150 C   0  0  0  0  0  0  0  0  0  0  0  0
   -7.5530   17.3425  -31.0382 H   0  0  0  0  0  0  0  0  0  0  0  0
   -8.5288   17.1219  -32.5302 H   0  0  0  0  0  0  0  0  0  0  0  0
   -7.1302   18.2492  -32.5302 H   0  0  0  0  0  0  0  0  0  0  0  0
   -9.8750   18.5771  -31.2817 H   0  0  0  0  0  0  0  0  0  0  0  0
   -8.4466   19.4554  -30.6007 H   0  0  0  0  0  0  0  0  0  0  0  0
   -8.7587   19.5944  -33.5672 H   0  0  0  0  0  0  0  0  0  0  0  0
  -10.0240   20.4404  -32.5984 H   0  0  0  0  0  0  0  0  0  0  0  0
   -9.6766   22.3685  -31.6355 H   0  0  0  0  0  0  0  0  0  0  0  0
   -8.2570   24.3322  -31.1365 H   0  0  0  0  0  0  0  0  0  0  0  0
   -4.9890   24.9020  -32.2940 H   0  0  0  0  0  0  0  0  0  0  0  0
   -5.0843   26.2195  -30.3890 H   0  0  0  0  0  0  0  0  0  0  0  0
   -6.6779   25.4725  -29.9868 H   0  0  0  0  0  0  0  0  0  0  0  0
   -5.2851   24.8273  -28.1845 H   0  0  0  0  0  0  0  0  0  0  0  0
   -5.2819   23.3913  -29.2811 H   0  0  0  0  0  0  0  0  0  0  0  0
   -3.4283   23.4196  -31.0851 H   0  0  0  0  0  0  0  0  0  0  0  0
   -1.8603   23.5464  -30.2162 H   0  0  0  0  0  0  0  0  0  0  0  0
   -3.1865   22.2031  -28.3253 H   0  0  0  0  0  0  0  0  0  0  0  0
   -4.2036   21.6989  -29.7174 H   0  0  0  0  0  0  0  0  0  0  0  0
   -2.4423   21.3458  -29.7174 H   0  0  0  0  0  0  0  0  0  0  0  0
   -2.2771   23.6295  -27.7783 H   0  0  0  0  0  0  0  0  0  0  0  0
   -2.2600   25.4374  -27.8319 H   0  0  0  0  0  0  0  0  0  0  0  0
   -3.4762   24.5641  -25.8369 H   0  0  0  0  0  0  0  0  0  0  0  0
   -4.5403   25.5139  -26.9288 H   0  0  0  0  0  0  0  0  0  0  0  0
   -4.6257   23.7197  -26.9288 H   0  0  0  0  0  0  0  0  0  0  0  0
   -3.8167   22.9388  -32.3016 H   0  0  0  0  0  0  0  0  0  0  0  0
   -2.8439   20.8702  -33.2733 H   0  0  0  0  0  0  0  0  0  0  0  0
   -6.7615   19.0718  -33.4396 H   0  0  0  0  0  0  0  0  0  0  0  0
  1  2  1  0
  2  3  1  0
  3  4  1  0
  4  5  2  0
  5  6  1  0
  6  7  2  0
  7  8  1  0
  8  9  1  0
  9 10  1  0
 10 11  1  0
 11 12  1  0
 12 13  1  0
 11 14  1  0
 14 15  1  0
  7 16  1  0
 16 17  2  0
 17 18  1  0
 18 19  2  0
 19 20  1  0
 19 21  1  0
 21 22  2  0
 22  4  1  0
 22 16  1  0
  1 23  1  0
  1 24  1  0
  1 25  1  0
  2 26  1  0
  2 27  1  0
  3 28  1  0
  3 29  1  0
  5 30  1  0
  6 31  1  0
  8 32  1  0
  9 33  1  0
  9 34  1  0
 10 35  1  0
 10 36  1  0
 12 37  1  0
 12 38  1  0
 13 39  1  0
 13 40  1  0
 13 41  1  0
 14 42  1  0
 14 43  1  0
 15 44  1  0
 15 45  1  0
 15 46  1  0
 17 47  1  0
 18 48  1  0
 21 49  1  0
M  CHG  1   4   1
M  END
>  <UniqueID>  (10) 
10

>  <SMILES>  (10) 
CCC[n+]1ccc(NCCN(CC)CC)c2ccc(Cl)cc21

>  <Energy>  (10) 
53.3752471678662

>  <Genealogy>  (10) 
CCC[n+]1ccc(NCCN(CC)CC)c2ccc(Cl)cc21 (3D coordinates assigned)
CCC[n+]1ccc(NCCN(CC)CC)c2ccc(Cl)cc21 (optimized conformer: 53.3752471678662 kcal/mol)

>  <smiles>  (10) 
CCC[n+]1ccc(NCCN(CC)CC)c2ccc(Cl)cc21

>  <score_type>  (10) 
oracle

>  <origin>  (10) 
adg

>  <m_score__min__energy>  (10) 
-7.1699999999999999

>  <m_primary>  (10) 
energy

$$$$
10:0
     RDKit          3D

 55 56  0  0  0  0  0  0  0  0999 V2000
   -9.1380   20.0350  -32.2890 C   0  0  0  0  0  0  0  0  0  0  0  0
   -7.6790   20.0960  -32.7430 C   0  0  0  0  0  0  0  0  0  0  0  0
   -6.7500   20.6790  -31.6660 C   0  0  0  0  0  0  0  0  0  0  0  0
   -5.4560   21.2590  -32.2600 C   0  0  0  0  0  0  0  0  0  0  0  0
   -5.2090   22.7210  -31.8460 C   0  0  0  0  0  0  0  0  0  0  0  0
   -6.4630   23.6180  -31.8510 C   0  0  0  0  0  0  0  0  0  0  0  0
   -6.4160   24.7860  -30.8520 C   0  0  0  0  0  0  0  0  0  0  0  0
   -5.1020   24.8530  -30.1280 C   0  0  0  0  0  0  0  0  0  0  0  0
   -4.0960   25.3270  -30.7220 O   0  0  0  0  0  0  0  0  0  0  0  0
   -4.9820   24.3210  -28.7990 N   0  0  0  0  0  0  0  0  0  0  0  0
   -3.7730   24.3630  -28.0240 C   0  0  0  0  0  0  0  0  0  0  0  0
   -2.5490   23.9200  -28.5510 C   0  0  0  0  0  0  0  0  0  0  0  0
   -1.3820   23.9950  -27.7840 C   0  0  0  0  0  0  0  0  0  0  0  0
   -1.4180   24.5350  -26.4860 C   0  0  0  0  0  0  0  0  0  0  0  0
   -0.2380   24.5900  -25.6660 N   0  0  0  0  0  0  0  0  0  0  0  0
    0.2150   25.7660  -24.9720 C   0  0  0  0  0  0  0  0  0  0  0  0
   -0.2470   26.0810  -23.6850 C   0  0  0  0  0  0  0  0  0  0  0  0
    0.2440   27.2140  -23.0310 C   0  0  0  0  0  0  0  0  0  0  0  0
    1.1890   28.0040  -23.6250 N   0  0  0  0  0  0  0  0  0  0  0  0
    1.6740   29.2050  -22.9330 C   0  0  0  0  0  0  0  0  0  0  0  0
    2.1460   28.8540  -21.5260 C   0  0  0  0  0  0  0  0  0  0  0  0
    1.6540   27.7060  -24.8770 C   0  0  0  0  0  0  0  0  0  0  0  0
    1.1860   26.5820  -25.5610 C   0  0  0  0  0  0  0  0  0  0  0  0
   -2.6420   24.9720  -25.9610 C   0  0  0  0  0  0  0  0  0  0  0  0
   -3.8060   24.9020  -26.7300 C   0  0  0  0  0  0  0  0  0  0  0  0
   -9.1802   20.0332  -31.1898 H   0  0  0  0  0  0  0  0  0  0  0  0
   -9.6792   20.9113  -32.6753 H   0  0  0  0  0  0  0  0  0  0  0  0
   -9.6041   19.1166  -32.6753 H   0  0  0  0  0  0  0  0  0  0  0  0
   -7.3422   19.0772  -32.9851 H   0  0  0  0  0  0  0  0  0  0  0  0
   -7.6298   20.7581  -33.6201 H   0  0  0  0  0  0  0  0  0  0  0  0
   -7.2846   21.4798  -31.1341 H   0  0  0  0  0  0  0  0  0  0  0  0
   -6.4698   19.8610  -30.9860 H   0  0  0  0  0  0  0  0  0  0  0  0
   -4.6078   20.6488  -31.9162 H   0  0  0  0  0  0  0  0  0  0  0  0
   -5.5577   21.2389  -33.3551 H   0  0  0  0  0  0  0  0  0  0  0  0
   -4.7922   22.7221  -30.8280 H   0  0  0  0  0  0  0  0  0  0  0  0
   -4.5250   23.1429  -32.5971 H   0  0  0  0  0  0  0  0  0  0  0  0
   -6.5829   24.0351  -32.8618 H   0  0  0  0  0  0  0  0  0  0  0  0
   -7.3053   22.9796  -31.5462 H   0  0  0  0  0  0  0  0  0  0  0  0
   -6.5687   25.7280  -31.3992 H   0  0  0  0  0  0  0  0  0  0  0  0
   -7.2081   24.6273  -30.1055 H   0  0  0  0  0  0  0  0  0  0  0  0
   -5.7850   23.7730  -28.4150 H   0  0  0  0  0  0  0  0  0  0  0  0
   -2.5080   23.5121  -29.5718 H   0  0  0  0  0  0  0  0  0  0  0  0
   -0.4307   23.6296  -28.1983 H   0  0  0  0  0  0  0  0  0  0  0  0
    0.3240   23.7140  -25.5610 H   0  0  0  0  0  0  0  0  0  0  0  0
   -0.9924   25.4388  -23.1931 H   0  0  0  0  0  0  0  0  0  0  0  0
   -0.1326   27.4725  -22.0303 H   0  0  0  0  0  0  0  0  0  0  0  0
    2.5126   29.6359  -23.4996 H   0  0  0  0  0  0  0  0  0  0  0  0
    0.8519   29.9325  -22.8624 H   0  0  0  0  0  0  0  0  0  0  0  0
    1.4917   29.3406  -20.7877 H   0  0  0  0  0  0  0  0  0  0  0  0
    2.1074   27.7634  -21.3877 H   0  0  0  0  0  0  0  0  0  0  0  0
    3.1793   29.2048  -21.3877 H   0  0  0  0  0  0  0  0  0  0  0  0
    2.4036   28.3580  -25.3492 H   0  0  0  0  0  0  0  0  0  0  0  0
    1.5796   26.3395  -26.5591 H   0  0  0  0  0  0  0  0  0  0  0  0
   -2.6862   25.3724  -24.9374 H   0  0  0  0  0  0  0  0  0  0  0  0
   -4.7559   25.2726  -26.3172 H   0  0  0  0  0  0  0  0  0  0  0  0
  1  2  1  0
  2  3  1  0
  3  4  1  0
  4  5  1  0
  5  6  1  0
  6  7  1  0
  7  8  1  0
  8  9  2  0
  8 10  1  0
 10 11  1  0
 11 12  2  0
 12 13  1  0
 13 14  2  0
 14 15  1  0
 15 16  1  0
 16 17  2  0
 17 18  1  0
 18 19  2  0
 19 20  1  0
 20 21  1  0
 19 22  1  0
 22 23  2  0
 14 24  1  0
 24 25  2  0
 25 11  1  0
 23 16  1  0
  1 26  1  0
  1 27  1  0
  1 28  1  0
  2 29  1  0
  2 30  1  0
  3 31  1  0
  3 32  1  0
  4 33  1  0
  4 34  1  0
  5 35  1  0
  5 36  1  0
  6 37  1  0
  6 38  1  0
  7 39  1  0
  7 40  1  0
 10 41  1  0
 12 42  1  0
 13 43  1  0
 15 44  1  0
 17 45  1  0
 18 46  1  0
 20 47  1  0
 20 48  1  0
 21 49  1  0
 21 50  1  0
 21 51  1  0
 22 52  1  0
 23 53  1  0
 24 54  1  0
 25 55  1  0
M  CHG  1  19   1
M  END
>  <UniqueID>  (11) 
11

>  <SMILES>  (11) 
CCCCCCCC(=O)Nc1ccc(Nc2cc[n+](CC)cc2)cc1

>  <Energy>  (11) 
49.44593689085927

>  <Genealogy>  (11) 
CCCCCCCC(=O)Nc1ccc(Nc2cc[n+](CC)cc2)cc1 (3D coordinates assigned)
CCCCCCCC(=O)Nc1ccc(Nc2cc[n+](CC)cc2)cc1 (optimized conformer: 49.44593689085927 kcal/mol)

>  <smiles>  (11) 
CCCCCCCC(=O)Nc1ccc(Nc2cc[n+](CC)cc2)cc1

>  <score_type>  (11) 
oracle

>  <origin>  (11) 
adg

>  <m_score__min__energy>  (11) 
-8.1099999999999994

>  <m_primary>  (11) 
energy

$$$$
11:0
     RDKit          3D

 43 45  0  0  0  0  0  0  0  0999 V2000
   -3.7050   24.1620  -27.8240 C   0  0  0  0  0  0  0  0  0  0  0  0
   -2.7510   24.5620  -28.9450 C   0  0  0  0  0  0  0  0  0  0  0  0
   -3.4920   24.9100  -30.1590 N   0  0  0  0  0  0  0  0  0  0  0  0
   -4.7190   24.2800  -30.5840 C   0  0  0  0  0  0  0  0  0  0  0  0
   -5.9730   24.8620  -30.3460 C   0  0  0  0  0  0  0  0  0  0  0  0
   -7.1370   24.1890  -30.7060 C   0  0  0  0  0  0  0  0  0  0  0  0
   -7.0710   22.9460  -31.3500 C   0  0  0  0  0  0  0  0  0  0  0  0
   -8.2430   22.2340  -31.5970 C   0  0  0  0  0  0  0  0  0  0  0  0
   -8.2110   20.9810  -32.1360 N   0  0  0  0  0  0  0  0  0  0  0  0
   -9.4920   20.2670  -32.2850 C   0  0  0  0  0  0  0  0  0  0  0  0
   -7.0160   20.4240  -32.5460 C   0  0  0  0  0  0  0  0  0  0  0  0
   -6.9730   19.1250  -33.0890 C   0  0  0  0  0  0  0  0  0  0  0  0
   -5.7890   18.5830  -33.5610 C   0  0  0  0  0  0  0  0  0  0  0  0
   -4.6160   19.3470  -33.6010 C   0  0  0  0  0  0  0  0  0  0  0  0
   -3.4260   18.8060  -34.1110 O   0  0  0  0  0  0  0  0  0  0  0  0
   -3.1370   17.4160  -34.2190 C   0  0  0  0  0  0  0  0  0  0  0  0
   -4.6390   20.6780  -33.1150 C   0  0  0  0  0  0  0  0  0  0  0  0
   -3.5710   21.5690  -33.3470 O   0  0  0  0  0  0  0  0  0  0  0  0
   -2.1910   21.3500  -33.0660 C   0  0  0  0  0  0  0  0  0  0  0  0
   -5.8000   21.1630  -32.4410 C   0  0  0  0  0  0  0  0  0  0  0  0
   -5.8240   22.3910  -31.7110 C   0  0  0  0  0  0  0  0  0  0  0  0
   -4.6560   23.0450  -31.2480 C   0  0  0  0  0  0  0  0  0  0  0  0
   -3.2314   24.3606  -26.8512 H   0  0  0  0  0  0  0  0  0  0  0  0
   -4.6331   24.7468  -27.9062 H   0  0  0  0  0  0  0  0  0  0  0  0
   -3.9385   23.0902  -27.9062 H   0  0  0  0  0  0  0  0  0  0  0  0
   -2.1593   25.4313  -28.6220 H   0  0  0  0  0  0  0  0  0  0  0  0
   -2.0909   23.7105  -29.1668 H   0  0  0  0  0  0  0  0  0  0  0  0
   -3.0960   25.6770  -30.7500 H   0  0  0  0  0  0  0  0  0  0  0  0
   -6.0366   25.8533  -29.8734 H   0  0  0  0  0  0  0  0  0  0  0  0
   -8.1169   24.6365  -30.4832 H   0  0  0  0  0  0  0  0  0  0  0  0
   -9.2132   22.6911  -31.3526 H   0  0  0  0  0  0  0  0  0  0  0  0
   -9.9022   20.0384  -31.2903 H   0  0  0  0  0  0  0  0  0  0  0  0
  -10.2021   20.8994  -32.8380 H   0  0  0  0  0  0  0  0  0  0  0  0
   -9.3276   19.3304  -32.8380 H   0  0  0  0  0  0  0  0  0  0  0  0
   -7.8968   18.5300  -33.1391 H   0  0  0  0  0  0  0  0  0  0  0  0
   -5.7698   17.5396  -33.9087 H   0  0  0  0  0  0  0  0  0  0  0  0
   -3.0466   16.9810  -33.2127 H   0  0  0  0  0  0  0  0  0  0  0  0
   -3.9499   16.9137  -34.7639 H   0  0  0  0  0  0  0  0  0  0  0  0
   -2.1912   17.2794  -34.7639 H   0  0  0  0  0  0  0  0  0  0  0  0
   -2.0379   21.3257  -31.9770 H   0  0  0  0  0  0  0  0  0  0  0  0
   -1.8758   20.3906  -33.5021 H   0  0  0  0  0  0  0  0  0  0  0  0
   -1.5942   22.1647  -33.5021 H   0  0  0  0  0  0  0  0  0  0  0  0
   -3.6759   22.5736  -31.4128 H   0  0  0  0  0  0  0  0  0  0  0  0
  1  2  1  0
  2  3  1  0
  3  4  1  0
  4  5  2  0
  5  6  1  0
  6  7  2  0
  7  8  1  0
  8  9  2  0
  9 10  1  0
  9 11  1  0
 11 12  2  0
 12 13  1  0
 13 14  2  0
 14 15  1  0
 15 16  1  0
 14 17  1  0
 17 18  1  0
 18 19  1  0
 17 20  2  0
 20 21  1  0
 21 22  2  0
 22  4  1  0
 21  7  1  0
 20 11  1  0
  1 23  1  0
  1 24  1  0
  1 25  1  0
  2 26  1  0
  2 27  1  0
  3 28  1  0
  5 29  1  0
  6 30  1  0
  8 31  1  0
 10 32  1  0
 10 33  1  0
 10 34  1  0
 12 35  1  0
 13 36  1  0
 16 37  1  0
 16 38  1  0
 16 39  1  0
 19 40  1  0
 19 41  1  0
 19 42  1  0
 22 43  1  0
M  CHG  1   9   1
M  END
>  <UniqueID>  (12) 
12

>  <SMILES>  (12) 
CCNc1ccc2c[n+](C)c3ccc(OC)c(OC)c3c2c1

>  <Energy>  (12) 
68.19925084517712

>  <Genealogy>  (12) 
CCNc1ccc2c[n+](C)c3ccc(OC)c(OC)c3c2c1 (3D coordinates assigned)
CCNc1ccc2c[n+](C)c3ccc(OC)c(OC)c3c2c1 (optimized conformer: 68.19925084517712 kcal/mol)

>  <smiles>  (12) 
CCNc1ccc2c[n+](C)c3ccc(OC)c(OC)c3c2c1

>  <score_type>  (12) 
oracle

>  <origin>  (12) 
adg

>  <m_score__min__energy>  (12) 
-7.71

>  <m_primary>  (12) 
energy

$$$$
12:0
     RDKit          3D

 68 71  0  0  0  0  0  0  0  0999 V2000
   -3.9820   23.9520  -28.5580 C   0  0  0  0  0  0  0  0  0  0  0  0
   -3.5850   24.1780  -30.0300 C   0  0  0  0  0  0  0  0  0  0  0  0
   -4.6650   24.7560  -30.8680 N   0  0  0  0  0  0  0  0  0  0  0  0
   -5.5550   25.6690  -30.1110 C   0  0  0  0  0  0  0  0  0  0  0  0
   -6.8810   24.9710  -29.8340 C   0  0  0  0  0  0  0  0  0  0  0  0
   -5.4000   23.7370  -31.6450 C   0  0  0  0  0  0  0  0  0  0  0  0
   -4.5500   22.4730  -31.8260 C   0  0  0  0  0  0  0  0  0  0  0  0
   -4.9150   21.7750  -33.0630 N   0  0  0  0  0  0  0  0  0  0  0  0
   -5.2570   20.3770  -33.0600 C   0  0  0  0  0  0  0  0  0  0  0  0
   -6.5370   20.0030  -32.6030 C   0  0  0  0  0  0  0  0  0  0  0  0
   -7.3560   20.9170  -31.9000 C   0  0  0  0  0  0  0  0  0  0  0  0
   -8.6220   20.5440  -31.4500 C   0  0  0  0  0  0  0  0  0  0  0  0
   -9.0880   19.2540  -31.6690 C   0  0  0  0  0  0  0  0  0  0  0  0
   -8.2950   18.3310  -32.3490 C   0  0  0  0  0  0  0  0  0  0  0  0
   -7.0120   18.6910  -32.8430 C   0  0  0  0  0  0  0  0  0  0  0  0
   -6.2270   17.7980  -33.5380 N   0  0  0  0  0  0  0  0  0  0  0  0
   -6.8340   16.5650  -34.0900 C   0  0  0  0  0  0  0  0  0  0  0  0
   -4.8800   18.0540  -33.7180 C   0  0  0  0  0  0  0  0  0  0  0  0
   -4.0030   17.0130  -34.0960 C   0  0  0  0  0  0  0  0  0  0  0  0
   -2.6610   17.2490  -34.3270 C   0  0  0  0  0  0  0  0  0  0  0  0
   -2.1350   18.5170  -34.1710 C   0  0  0  0  0  0  0  0  0  0  0  0
   -2.9430   19.6050  -33.7580 C   0  0  0  0  0  0  0  0  0  0  0  0
   -2.3540   20.9180  -33.5490 N   0  0  0  0  0  0  0  0  0  0  0  0
   -1.0840   20.9840  -32.8000 C   0  0  0  0  0  0  0  0  0  0  0  0
   -1.2710   21.7970  -31.5060 C   0  0  0  0  0  0  0  0  0  0  0  0
   -1.1690   20.9290  -30.3280 N   0  0  0  0  0  0  0  0  0  0  0  0
   -2.0510   21.0870  -29.2930 C   0  0  0  0  0  0  0  0  0  0  0  0
   -1.9710   20.2700  -28.1630 C   0  0  0  0  0  0  0  0  0  0  0  0
   -0.9790   19.2920  -28.0940 C   0  0  0  0  0  0  0  0  0  0  0  0
   -0.0770   19.1450  -29.1480 C   0  0  0  0  0  0  0  0  0  0  0  0
   -0.1820   19.9810  -30.2620 C   0  0  0  0  0  0  0  0  0  0  0  0
   -4.3500   19.3700  -33.5140 C   0  0  0  0  0  0  0  0  0  0  0  0
   -3.2157   24.3883  -27.9004 H   0  0  0  0  0  0  0  0  0  0  0  0
   -4.9512   24.4338  -28.3615 H   0  0  0  0  0  0  0  0  0  0  0  0
   -4.0625   22.8727  -28.3615 H   0  0  0  0  0  0  0  0  0  0  0  0
   -2.7249   24.8633  -30.0543 H   0  0  0  0  0  0  0  0  0  0  0  0
   -3.3526   23.1886  -30.4509 H   0  0  0  0  0  0  0  0  0  0  0  0
   -5.0772   25.9402  -29.1580 H   0  0  0  0  0  0  0  0  0  0  0  0
   -5.7358   26.5788  -30.7023 H   0  0  0  0  0  0  0  0  0  0  0  0
   -7.0332   24.8909  -28.7475 H   0  0  0  0  0  0  0  0  0  0  0  0
   -7.7018   25.5539  -30.2773 H   0  0  0  0  0  0  0  0  0  0  0  0
   -6.8651   23.9644  -30.2773 H   0  0  0  0  0  0  0  0  0  0  0  0
   -6.3261   23.4757  -31.1121 H   0  0  0  0  0  0  0  0  0  0  0  0
   -5.6332   24.1504  -32.6373 H   0  0  0  0  0  0  0  0  0  0  0  0
   -3.4879   22.7556  -31.8709 H   0  0  0  0  0  0  0  0  0  0  0  0
   -4.7307   21.8007  -30.9743 H   0  0  0  0  0  0  0  0  0  0  0  0
   -4.5960   22.1970  -33.9650 H   0  0  0  0  0  0  0  0  0  0  0  0
   -6.9894   21.9357  -31.7056 H   0  0  0  0  0  0  0  0  0  0  0  0
   -9.2530   21.2730  -30.9204 H   0  0  0  0  0  0  0  0  0  0  0  0
  -10.0838   18.9604  -31.3055 H   0  0  0  0  0  0  0  0  0  0  0  0
   -8.6681   17.3081  -32.5057 H   0  0  0  0  0  0  0  0  0  0  0  0
   -7.1550   15.9129  -33.2643 H   0  0  0  0  0  0  0  0  0  0  0  0
   -7.7047   16.8298  -34.7078 H   0  0  0  0  0  0  0  0  0  0  0  0
   -6.0931   16.0364  -34.7078 H   0  0  0  0  0  0  0  0  0  0  0  0
   -4.3969   15.9922  -34.2090 H   0  0  0  0  0  0  0  0  0  0  0  0
   -2.0067   16.4210  -34.6374 H   0  0  0  0  0  0  0  0  0  0  0  0
   -1.0666   18.6853  -34.3716 H   0  0  0  0  0  0  0  0  0  0  0  0
   -2.1430   21.3040  -34.4910 H   0  0  0  0  0  0  0  0  0  0  0  0
   -3.0480   21.5070  -33.0350 H   0  0  0  0  0  0  0  0  0  0  0  0
   -0.7594   19.9645  -32.5447 H   0  0  0  0  0  0  0  0  0  0  0  0
   -0.3238   21.4749  -33.4254 H   0  0  0  0  0  0  0  0  0  0  0  0
   -0.4928   22.5725  -31.4514 H   0  0  0  0  0  0  0  0  0  0  0  0
   -2.2696   22.2581  -31.5197 H   0  0  0  0  0  0  0  0  0  0  0  0
   -2.8284   21.8630  -29.3517 H   0  0  0  0  0  0  0  0  0  0  0  0
   -2.6839   20.3967  -27.3349 H   0  0  0  0  0  0  0  0  0  0  0  0
   -0.9081   18.6389  -27.2117 H   0  0  0  0  0  0  0  0  0  0  0  0
    0.7098   18.3776  -29.1022 H   0  0  0  0  0  0  0  0  0  0  0  0
    0.5325   19.8776  -31.0919 H   0  0  0  0  0  0  0  0  0  0  0  0
  1  2  1  0
  2  3  1  0
  3  4  1  0
  4  5  1  0
  3  6  1  0
  6  7  1  0
  7  8  1  0
  8  9  1  0
  9 10  2  0
 10 11  1  0
 11 12  2  0
 12 13  1  0
 13 14  2  0
 14 15  1  0
 15 16  2  0
 16 17  1  0
 16 18  1  0
 18 19  2  0
 19 20  1  0
 20 21  2  0
 21 22  1  0
 22 23  1  0
 23 24  1  0
 24 25  1  0
 25 26  1  0
 26 27  2  0
 27 28  1  0
 28 29  2  0
 29 30  1  0
 30 31  2  0
 22 32  2  0
 32  9  1  0
 15 10  1  0
 32 18  1  0
 31 26  1  0
  1 33  1  0
  1 34  1  0
  1 35  1  0
  2 36  1  0
  2 37  1  0
  4 38  1  0
  4 39  1  0
  5 40  1  0
  5 41  1  0
  5 42  1  0
  6 43  1  0
  6 44  1  0
  7 45  1  0
  7 46  1  0
  8 47  1  0
 11 48  1  0
 12 49  1  0
 13 50  1  0
 14 51  1  0
 17 52  1  0
 17 53  1  0
 17 54  1  0
 19 55  1  0
 20 56  1  0
 21 57  1  0
 23 58  1  0
 23 59  1  0
 24 60  1  0
 24 61  1  0
 25 62  1  0
 25 63  1  0
 27 64  1  0
 28 65  1  0
 29 66  1  0
 30 67  1  0
 31 68  1  0
M  CHG  3  16   1  23   1  26   1
M  END
>  <UniqueID>  (13) 
13

>  <SMILES>  (13) 
CCN(CC)CCNc1c2ccccc2[n+](C)c2cccc([NH2+]CC[n+]3ccccc3)c12

>  <Energy>  (13) 
113.5769448148251

>  <Genealogy>  (13) 
CCN(CC)CCNc1c2ccccc2[n+](C)c2cccc([NH2+]CC[n+]3ccccc3)c12 (protonated)
CCN(CC)CCNc1c2ccccc2[n+](C)c2cccc([NH2+]CC[n+]3ccccc3)c12 (3D coordinates assigned)
CCN(CC)CCNc1c2ccccc2[n+](C)c2cccc([NH2+]CC[n+]3ccccc3)c12 (optimized conformer: 113.5769448148251 kcal/mol)

>  <smiles>  (13) 
CCN(CC)CCNc1c2ccccc2[n+](C)c2cccc(NCC[n+]3ccccc3)c12

>  <score_type>  (13) 
oracle

>  <origin>  (13) 
adg

>  <m_score__min__energy>  (13) 
-8.3300000000000001

>  <m_primary>  (13) 
energy

$$$$
13:0
     RDKit          3D

 43 46  0  0  0  0  0  0  0  0999 V2000
   -5.6680   25.4330  -30.2340 C   0  0  0  0  0  0  0  0  0  0  0  0
   -4.7850   24.6540  -31.0360 O   0  0  0  0  0  0  0  0  0  0  0  0
   -4.9850   23.3030  -31.3660 C   0  0  0  0  0  0  0  0  0  0  0  0
   -6.2690   22.7750  -31.6060 C   0  0  0  0  0  0  0  0  0  0  0  0
   -6.4350   21.4200  -31.9380 C   0  0  0  0  0  0  0  0  0  0  0  0
   -5.2830   20.5860  -32.0250 C   0  0  0  0  0  0  0  0  0  0  0  0
   -4.0160   21.1160  -31.7840 C   0  0  0  0  0  0  0  0  0  0  0  0
   -3.8570   22.4750  -31.4600 C   0  0  0  0  0  0  0  0  0  0  0  0
   -2.5950   23.0450  -31.2190 O   0  0  0  0  0  0  0  0  0  0  0  0
   -1.7640   22.7750  -30.0890 C   0  0  0  0  0  0  0  0  0  0  0  0
   -2.2260   23.5570  -28.8870 C   0  0  0  0  0  0  0  0  0  0  0  0
   -3.4520   23.2480  -28.2750 C   0  0  0  0  0  0  0  0  0  0  0  0
   -3.8800   23.9650  -27.1540 C   0  0  0  0  0  0  0  0  0  0  0  0
   -3.0860   24.9880  -26.6310 C   0  0  0  0  0  0  0  0  0  0  0  0
   -1.8580   25.2930  -27.2260 C   0  0  0  0  0  0  0  0  0  0  0  0
   -1.4260   24.5770  -28.3470 C   0  0  0  0  0  0  0  0  0  0  0  0
   -5.4050   19.2590  -32.3440 N   0  0  0  0  0  0  0  0  0  0  0  0
   -6.6110   18.6730  -32.5930 C   0  0  0  0  0  0  0  0  0  0  0  0
   -6.6930   17.2200  -32.9380 C   0  0  0  0  0  0  0  0  0  0  0  0
   -7.7470   19.4710  -32.5140 C   0  0  0  0  0  0  0  0  0  0  0  0
   -9.0280   19.1200  -32.7160 N   0  0  0  0  0  0  0  0  0  0  0  0
   -9.7360   20.2290  -32.5250 N   0  0  0  0  0  0  0  0  0  0  0  0
   -8.9510   21.2550  -32.2130 N   0  0  0  0  0  0  0  0  0  0  0  0
   -9.4730   22.5920  -31.9530 C   0  0  0  0  0  0  0  0  0  0  0  0
   -7.6770   20.7970  -32.1990 C   0  0  0  0  0  0  0  0  0  0  0  0
   -5.4575   25.2473  -29.1704 H   0  0  0  0  0  0  0  0  0  0  0  0
   -5.5200   26.5001  -30.4562 H   0  0  0  0  0  0  0  0  0  0  0  0
   -6.7083   25.1531  -30.4562 H   0  0  0  0  0  0  0  0  0  0  0  0
   -7.1498   23.4298  -31.5327 H   0  0  0  0  0  0  0  0  0  0  0  0
   -3.1320   20.4645  -31.8480 H   0  0  0  0  0  0  0  0  0  0  0  0
   -1.8067   21.7003  -29.8584 H   0  0  0  0  0  0  0  0  0  0  0  0
   -0.7331   23.0740  -30.3296 H   0  0  0  0  0  0  0  0  0  0  0  0
   -4.0777   22.4387  -28.6794 H   0  0  0  0  0  0  0  0  0  0  0  0
   -4.8441   23.7230  -26.6828 H   0  0  0  0  0  0  0  0  0  0  0  0
   -3.4266   25.5536  -25.7512 H   0  0  0  0  0  0  0  0  0  0  0  0
   -1.2313   26.0967  -26.8121 H   0  0  0  0  0  0  0  0  0  0  0  0
   -0.4556   24.8138  -28.8076 H   0  0  0  0  0  0  0  0  0  0  0  0
   -6.7266   16.6249  -32.0135 H   0  0  0  0  0  0  0  0  0  0  0  0
   -7.6031   17.0338  -33.5271 H   0  0  0  0  0  0  0  0  0  0  0  0
   -5.8096   16.9326  -33.5271 H   0  0  0  0  0  0  0  0  0  0  0  0
   -9.5370   22.7559  -30.8672 H   0  0  0  0  0  0  0  0  0  0  0  0
   -8.8012   23.3408  -32.3979 H   0  0  0  0  0  0  0  0  0  0  0  0
  -10.4745   22.6875  -32.3979 H   0  0  0  0  0  0  0  0  0  0  0  0
  1  2  1  0
  2  3  1  0
  3  4  2  0
  4  5  1  0
  5  6  2  0
  6  7  1  0
  7  8  2  0
  8  9  1  0
  9 10  1  0
 10 11  1  0
 11 12  2  0
 12 13  1  0
 13 14  2  0
 14 15  1  0
 15 16  2  0
  6 17  1  0
 17 18  2  0
 18 19  1  0
 18 20  1  0
 20 21  1  0
 21 22  2  0
 22 23  1  0
 23 24  1  0
 23 25  1  0
  8  3  1  0
 16 11  1  0
 25 20  2  0
 25  5  1  0
  1 26  1  0
  1 27  1  0
  1 28  1  0
  4 29  1  0
  7 30  1  0
 10 31  1  0
 10 32  1  0
 12 33  1  0
 13 34  1  0
 14 35  1  0
 15 36  1  0
 16 37  1  0
 19 38  1  0
 19 39  1  0
 19 40  1  0
 24 41  1  0
 24 42  1  0
 24 43  1  0
M  END
>  <UniqueID>  (14) 
14

>  <SMILES>  (14) 
COc1cc2c(cc1OCc1ccccc1)nc(C)c1nnn(C)c12

>  <Energy>  (14) 
96.80285343624023

>  <Genealogy>  (14) 
COc1cc2c(cc1OCc1ccccc1)nc(C)c1nnn(C)c12 (3D coordinates assigned)
COc1cc2c(cc1OCc1ccccc1)nc(C)c1nnn(C)c12 (optimized conformer: 96.80285343624023 kcal/mol)

>  <smiles>  (14) 
COc1cc2c(cc1OCc1ccccc1)nc(C)c1nnn(C)c12

>  <score_type>  (14) 
oracle

>  <origin>  (14) 
adg

>  <m_score__min__energy>  (14) 
-8.9499999999999993

>  <m_primary>  (14) 
energy

$$$$
14:0
     RDKit          3D

 68 72  0  0  0  0  0  0  0  0999 V2000
   -4.6100   13.0280  -32.2770 C   0  0  0  0  0  0  0  0  0  0  0  0
   -4.5410   13.5070  -33.7300 C   0  0  0  0  0  0  0  0  0  0  0  0
   -4.6950   14.9660  -33.8530 N   0  0  0  0  0  0  0  0  0  0  0  0
   -6.0970   15.3650  -34.0310 C   0  0  0  0  0  0  0  0  0  0  0  0
   -6.2780   16.7870  -33.5700 C   0  0  0  0  0  0  0  0  0  0  0  0
   -7.3410   17.1200  -32.7200 C   0  0  0  0  0  0  0  0  0  0  0  0
   -7.5230   18.4050  -32.3220 N   0  0  0  0  0  0  0  0  0  0  0  0
   -6.7040   19.4160  -32.7210 C   0  0  0  0  0  0  0  0  0  0  0  0
   -6.9770   20.7990  -32.2480 C   0  0  0  0  0  0  0  0  0  0  0  0
   -8.2640   21.3600  -32.3030 C   0  0  0  0  0  0  0  0  0  0  0  0
   -8.4770   22.6340  -31.8790 N   0  0  0  0  0  0  0  0  0  0  0  0
   -7.4740   23.4050  -31.3860 C   0  0  0  0  0  0  0  0  0  0  0  0
   -6.1720   22.8970  -31.2990 C   0  0  0  0  0  0  0  0  0  0  0  0
   -5.0800   23.7510  -30.7830 C   0  0  0  0  0  0  0  0  0  0  0  0
   -4.9530   25.0650  -31.0850 N   0  0  0  0  0  0  0  0  0  0  0  0
   -3.8670   25.5490  -30.4890 N   0  0  0  0  0  0  0  0  0  0  0  0
   -3.3050   24.5390  -29.8030 C   0  0  0  0  0  0  0  0  0  0  0  0
   -2.1650   24.5880  -29.0100 C   0  0  0  0  0  0  0  0  0  0  0  0
   -1.7750   23.4110  -28.3440 C   0  0  0  0  0  0  0  0  0  0  0  0
   -2.5370   22.2150  -28.4740 C   0  0  0  0  0  0  0  0  0  0  0  0
   -2.1690   20.9990  -27.7930 N   0  0  0  0  0  0  0  0  0  0  0  0
   -1.4090   19.9040  -28.3970 C   0  0  0  0  0  0  0  0  0  0  0  0
   -0.6510   20.3970  -29.6410 C   0  0  0  0  0  0  0  0  0  0  0  0
   -1.1280   19.8000  -30.9080 N   0  0  0  0  0  0  0  0  0  0  0  0
   -0.1790   19.8970  -32.0390 C   0  0  0  0  0  0  0  0  0  0  0  0
   -0.4140   21.1460  -32.9230 C   0  0  0  0  0  0  0  0  0  0  0  0
   -1.5830   21.8630  -32.5820 O   0  0  0  0  0  0  0  0  0  0  0  0
   -2.6720   20.9760  -32.4960 C   0  0  0  0  0  0  0  0  0  0  0  0
   -2.5380   20.0940  -31.2470 C   0  0  0  0  0  0  0  0  0  0  0  0
   -3.6990   22.2180  -29.2800 C   0  0  0  0  0  0  0  0  0  0  0  0
   -4.0350   23.3950  -29.9500 C   0  0  0  0  0  0  0  0  0  0  0  0
   -5.9270   21.5950  -31.7580 C   0  0  0  0  0  0  0  0  0  0  0  0
   -5.6400   19.1280  -33.5940 C   0  0  0  0  0  0  0  0  0  0  0  0
   -5.4220   17.8060  -34.0240 C   0  0  0  0  0  0  0  0  0  0  0  0
   -4.3740   17.4740  -34.9010 O   0  0  0  0  0  0  0  0  0  0  0  0
   -2.9910   17.5530  -34.5760 C   0  0  0  0  0  0  0  0  0  0  0  0
   -4.4862   13.8872  -31.6014 H   0  0  0  0  0  0  0  0  0  0  0  0
   -5.5856   12.5544  -32.0930 H   0  0  0  0  0  0  0  0  0  0  0  0
   -3.8077   12.2983  -32.0930 H   0  0  0  0  0  0  0  0  0  0  0  0
   -3.5660   13.2190  -34.1500 H   0  0  0  0  0  0  0  0  0  0  0  0
   -5.3725   13.0370  -34.2756 H   0  0  0  0  0  0  0  0  0  0  0  0
   -4.1340   15.3080  -34.6700 H   0  0  0  0  0  0  0  0  0  0  0  0
   -6.3679   15.2872  -35.0943 H   0  0  0  0  0  0  0  0  0  0  0  0
   -6.7443   14.7026  -33.4376 H   0  0  0  0  0  0  0  0  0  0  0  0
   -8.0312   16.3366  -32.3737 H   0  0  0  0  0  0  0  0  0  0  0  0
   -9.1039   20.7651  -32.6913 H   0  0  0  0  0  0  0  0  0  0  0  0
   -7.6849   24.4322  -31.0538 H   0  0  0  0  0  0  0  0  0  0  0  0
   -1.5857   25.5173  -28.9060 H   0  0  0  0  0  0  0  0  0  0  0  0
   -0.8717   23.4150  -27.7162 H   0  0  0  0  0  0  0  0  0  0  0  0
   -2.4680   20.8780  -26.7990 H   0  0  0  0  0  0  0  0  0  0  0  0
   -0.6871   19.5164  -27.6631 H   0  0  0  0  0  0  0  0  0  0  0  0
   -2.1076   19.1093  -28.6976 H   0  0  0  0  0  0  0  0  0  0  0  0
   -0.7667   21.4889  -29.7072 H   0  0  0  0  0  0  0  0  0  0  0  0
    0.3984   20.0908  -29.5183 H   0  0  0  0  0  0  0  0  0  0  0  0
    0.8434   19.9409  -31.6355 H   0  0  0  0  0  0  0  0  0  0  0  0
   -0.3333   19.0120  -32.6737 H   0  0  0  0  0  0  0  0  0  0  0  0
    0.4507   21.8173  -32.8151 H   0  0  0  0  0  0  0  0  0  0  0  0
   -0.5397   20.7929  -33.9572 H   0  0  0  0  0  0  0  0  0  0  0  0
   -3.6068   21.5527  -32.4353 H   0  0  0  0  0  0  0  0  0  0  0  0
   -2.6846   20.3345  -33.3895 H   0  0  0  0  0  0  0  0  0  0  0  0
   -3.0040   20.6137  -30.3968 H   0  0  0  0  0  0  0  0  0  0  0  0
   -3.0367   19.1368  -31.4594 H   0  0  0  0  0  0  0  0  0  0  0  0
   -4.3216   21.3163  -29.3762 H   0  0  0  0  0  0  0  0  0  0  0  0
   -4.9035   21.1926  -31.7345 H   0  0  0  0  0  0  0  0  0  0  0  0
   -4.9785   19.9356  -33.9406 H   0  0  0  0  0  0  0  0  0  0  0  0
   -2.8711   17.5598  -33.4826 H   0  0  0  0  0  0  0  0  0  0  0  0
   -2.4651   16.6834  -34.9971 H   0  0  0  0  0  0  0  0  0  0  0  0
   -2.5676   18.4768  -34.9971 H   0  0  0  0  0  0  0  0  0  0  0  0
  1  2  1  0
  2  3  1  0
  3  4  1  0
  4  5  1  0
  5  6  2  0
  6  7  1  0
  7  8  2  0
  8  9  1  0
  9 10  2  0
 10 11  1  0
 11 12  2  0
 12 13  1  0
 13 14  1  0
 14 15  2  0
 15 16  1  0
 16 17  1  0
 17 18  2  0
 18 19  1  0
 19 20  2  0
 20 21  1  0
 21 22  1  0
 22 23  1  0
 23 24  1  0
 24 25  1  0
 25 26  1  0
 26 27  1  0
 27 28  1  0
 28 29  1  0
 20 30  1  0
 30 31  2  0
 13 32  2  0
  8 33  1  0
 33 34  2  0
 34 35  1  0
 35 36  1  0
 34  5  1  0
 32  9  1  0
 31 14  1  0
 31 17  1  0
 29 24  1  0
  1 37  1  0
  1 38  1  0
  1 39  1  0
  2 40  1  0
  2 41  1  0
  3 42  1  0
  4 43  1  0
  4 44  1  0
  6 45  1  0
 10 46  1  0
 12 47  1  0
 18 48  1  0
 19 49  1  0
 21 50  1  0
 22 51  1  0
 22 52  1  0
 23 53  1  0
 23 54  1  0
 25 55  1  0
 25 56  1  0
 26 57  1  0
 26 58  1  0
 28 59  1  0
 28 60  1  0
 29 61  1  0
 29 62  1  0
 30 63  1  0
 32 64  1  0
 33 65  1  0
 36 66  1  0
 36 67  1  0
 36 68  1  0
M  CHG  1  16  -1
M  END
>  <UniqueID>  (15) 
15

>  <SMILES>  (15) 
CCNCc1cnc(-c2cncc(-c3n[n-]c4ccc(NCCN5CCOCC5)cc34)c2)cc1OC

>  <Energy>  (15) 
131.2375813073849

>  <Genealogy>  (15) 
CCNCc1cnc(-c2cncc(-c3n[n-]c4ccc(NCCN5CCOCC5)cc34)c2)cc1OC (protonated)
CCNCc1cnc(-c2cncc(-c3n[n-]c4ccc(NCCN5CCOCC5)cc34)c2)cc1OC (3D coordinates assigned)
CCNCc1cnc(-c2cncc(-c3n[n-]c4ccc(NCCN5CCOCC5)cc34)c2)cc1OC (nonaromatic ring conformer: 131.2375813073849 kcal/mol)

>  <smiles>  (15) 
CCNCc1cnc(-c2cncc(-c3n[nH]c4ccc(NCCN5CCOCC5)cc34)c2)cc1OC

>  <score_type>  (15) 
oracle

>  <origin>  (15) 
adg

>  <m_score__min__energy>  (15) 
-10.710000000000001

>  <m_primary>  (15) 
energy

$$$$
15:0
     RDKit          3D

 55 57  0  0  0  0  0  0  0  0999 V2000
   -6.1460   25.2840  -29.4220 C   0  0  0  0  0  0  0  0  0  0  0  0
   -4.7970   24.5620  -29.5150 C   0  0  0  0  0  0  0  0  0  0  0  0
   -4.4440   23.7320  -28.3330 N   0  0  0  0  0  0  0  0  0  0  0  0
   -3.6840   24.4830  -27.2920 C   0  0  0  0  0  0  0  0  0  0  0  0
   -4.4950   24.9540  -26.0720 C   0  0  0  0  0  0  0  0  0  0  0  0
   -3.8710   22.4160  -28.7190 C   0  0  0  0  0  0  0  0  0  0  0  0
   -4.3730   21.9350  -30.1010 C   0  0  0  0  0  0  0  0  0  0  0  0
   -3.4240   22.3300  -31.2480 C   0  0  0  0  0  0  0  0  0  0  0  0
   -4.0040   22.0530  -32.5670 N   0  0  0  0  0  0  0  0  0  0  0  0
   -5.1070   21.1500  -32.7530 C   0  0  0  0  0  0  0  0  0  0  0  0
   -6.4080   21.5850  -32.4510 C   0  0  0  0  0  0  0  0  0  0  0  0
   -6.7050   22.9570  -32.3110 C   0  0  0  0  0  0  0  0  0  0  0  0
   -8.0040   23.3800  -32.0350 C   0  0  0  0  0  0  0  0  0  0  0  0
   -9.0260   22.4460  -31.9000 C   0  0  0  0  0  0  0  0  0  0  0  0
   -8.7480   21.0830  -32.0050 C   0  0  0  0  0  0  0  0  0  0  0  0
   -7.4290   20.6230  -32.2440 C   0  0  0  0  0  0  0  0  0  0  0  0
   -7.1180   19.2780  -32.2480 N   0  0  0  0  0  0  0  0  0  0  0  0
   -8.0630   18.3010  -31.6630 C   0  0  0  0  0  0  0  0  0  0  0  0
   -5.9140   18.8510  -32.7780 C   0  0  0  0  0  0  0  0  0  0  0  0
   -5.6670   17.4790  -33.0310 C   0  0  0  0  0  0  0  0  0  0  0  0
   -4.4450   17.0500  -33.5370 C   0  0  0  0  0  0  0  0  0  0  0  0
   -3.4670   17.9720  -33.8770 C   0  0  0  0  0  0  0  0  0  0  0  0
   -3.6900   19.3420  -33.7120 C   0  0  0  0  0  0  0  0  0  0  0  0
   -2.7460   20.2470  -34.3020 N   0  0  0  0  0  0  0  0  0  0  0  0
   -4.8900   19.7930  -33.0890 C   0  0  0  0  0  0  0  0  0  0  0  0
   -6.4132   25.4270  -28.3646 H   0  0  0  0  0  0  0  0  0  0  0  0
   -6.0726   26.2634  -29.9173 H   0  0  0  0  0  0  0  0  0  0  0  0
   -6.9202   24.6797  -29.9173 H   0  0  0  0  0  0  0  0  0  0  0  0
   -4.8217   23.9056  -30.3974 H   0  0  0  0  0  0  0  0  0  0  0  0
   -4.0313   25.3494  -29.5766 H   0  0  0  0  0  0  0  0  0  0  0  0
   -5.3740   23.5230  -27.8970 H   0  0  0  0  0  0  0  0  0  0  0  0
   -2.8772   23.8300  -26.9279 H   0  0  0  0  0  0  0  0  0  0  0  0
   -3.3324   25.4007  -27.7862 H   0  0  0  0  0  0  0  0  0  0  0  0
   -3.9772   24.6533  -25.1492 H   0  0  0  0  0  0  0  0  0  0  0  0
   -4.5927   26.0494  -26.0973 H   0  0  0  0  0  0  0  0  0  0  0  0
   -5.4948   24.4960  -26.0973 H   0  0  0  0  0  0  0  0  0  0  0  0
   -2.7751   22.5044  -28.7527 H   0  0  0  0  0  0  0  0  0  0  0  0
   -4.1937   21.6778  -27.9701 H   0  0  0  0  0  0  0  0  0  0  0  0
   -4.4635   20.8389  -30.0807 H   0  0  0  0  0  0  0  0  0  0  0  0
   -5.3423   22.4195  -30.2897 H   0  0  0  0  0  0  0  0  0  0  0  0
   -3.2083   23.4061  -31.1747 H   0  0  0  0  0  0  0  0  0  0  0  0
   -2.5070   21.7305  -31.1495 H   0  0  0  0  0  0  0  0  0  0  0  0
   -3.6310   22.5760  -33.3910 H   0  0  0  0  0  0  0  0  0  0  0  0
   -5.9024   23.7012  -32.4209 H   0  0  0  0  0  0  0  0  0  0  0  0
   -8.2211   24.4526  -31.9239 H   0  0  0  0  0  0  0  0  0  0  0  0
  -10.0557   22.7830  -31.7100 H   0  0  0  0  0  0  0  0  0  0  0  0
   -9.5652   20.3541  -31.9007 H   0  0  0  0  0  0  0  0  0  0  0  0
   -8.0121   18.3536  -30.5654 H   0  0  0  0  0  0  0  0  0  0  0  0
   -9.0852   18.5360  -31.9944 H   0  0  0  0  0  0  0  0  0  0  0  0
   -7.7941   17.2871  -31.9944 H   0  0  0  0  0  0  0  0  0  0  0  0
   -6.4555   16.7406  -32.8236 H   0  0  0  0  0  0  0  0  0  0  0  0
   -4.2534   15.9748  -33.6681 H   0  0  0  0  0  0  0  0  0  0  0  0
   -2.5056   17.6218  -34.2808 H   0  0  0  0  0  0  0  0  0  0  0  0
   -3.0220   21.2110  -34.5870 H   0  0  0  0  0  0  0  0  0  0  0  0
   -1.8240   19.8970  -34.6470 H   0  0  0  0  0  0  0  0  0  0  0  0
  1  2  1  0
  2  3  1  0
  3  4  1  0
  4  5  1  0
  3  6  1  0
  6  7  1  0
  7  8  1  0
  8  9  1  0
  9 10  1  0
 10 11  2  0
 11 12  1  0
 12 13  2  0
 13 14  1  0
 14 15  2  0
 15 16  1  0
 16 17  2  0
 17 18  1  0
 17 19  1  0
 19 20  2  0
 20 21  1  0
 21 22  2  0
 22 23  1  0
 23 24  1  0
 23 25  2  0
 25 10  1  0
 16 11  1  0
 25 19  1  0
  1 26  1  0
  1 27  1  0
  1 28  1  0
  2 29  1  0
  2 30  1  0
  3 31  1  0
  4 32  1  0
  4 33  1  0
  5 34  1  0
  5 35  1  0
  5 36  1  0
  6 37  1  0
  6 38  1  0
  7 39  1  0
  7 40  1  0
  8 41  1  0
  8 42  1  0
  9 43  1  0
 12 44  1  0
 13 45  1  0
 14 46  1  0
 15 47  1  0
 18 48  1  0
 18 49  1  0
 18 50  1  0
 20 51  1  0
 21 52  1  0
 22 53  1  0
 24 54  1  0
 24 55  1  0
M  CHG  2   3   1  17   1
M  END
>  <UniqueID>  (16) 
16

>  <SMILES>  (16) 
CC[NH+](CC)CCCNc1c2ccccc2[n+](C)c2cccc(N)c12

>  <Energy>  (16) 
91.49790069820429

>  <Genealogy>  (16) 
CC[NH+](CC)CCCNc1c2ccccc2[n+](C)c2cccc(N)c12 (protonated)
CC[NH+](CC)CCCNc1c2ccccc2[n+](C)c2cccc(N)c12 (3D coordinates assigned)
CC[NH+](CC)CCCNc1c2ccccc2[n+](C)c2cccc(N)c12 (optimized conformer: 91.49790069820429 kcal/mol)

>  <smiles>  (16) 
CCN(CC)CCCNc1c2ccccc2[n+](C)c2cccc(N)c12

>  <score_type>  (16) 
oracle

>  <origin>  (16) 
adg

>  <m_score__min__energy>  (16) 
-6.8700000000000001

>  <m_primary>  (16) 
energy

$$$$
16:0
     RDKit          3D

 69 71  0  0  0  0  0  0  0  0999 V2000
   -0.9430   19.5480  -34.1010 C   0  0  0  0  0  0  0  0  0  0  0  0
   -1.2460   19.2660  -32.6320 C   0  0  0  0  0  0  0  0  0  0  0  0
   -1.8140   20.4720  -31.9870 N   0  0  0  0  0  0  0  0  0  0  0  0
   -0.9740   20.9560  -30.8630 C   0  0  0  0  0  0  0  0  0  0  0  0
   -1.0460   20.0800  -29.6060 C   0  0  0  0  0  0  0  0  0  0  0  0
   -2.1580   21.5130  -32.9900 C   0  0  0  0  0  0  0  0  0  0  0  0
   -3.6250   21.9760  -32.8990 C   0  0  0  0  0  0  0  0  0  0  0  0
   -4.3700   21.2470  -31.8520 N   0  0  0  0  0  0  0  0  0  0  0  0
   -5.5660   20.6030  -32.3930 C   0  0  0  0  0  0  0  0  0  0  0  0
   -5.4680   19.3550  -33.0510 C   0  0  0  0  0  0  0  0  0  0  0  0
   -4.3060   18.9840  -33.7660 C   0  0  0  0  0  0  0  0  0  0  0  0
   -4.2320   17.7550  -34.4180 C   0  0  0  0  0  0  0  0  0  0  0  0
   -5.3130   16.8850  -34.3900 C   0  0  0  0  0  0  0  0  0  0  0  0
   -6.4790   17.2380  -33.7120 C   0  0  0  0  0  0  0  0  0  0  0  0
   -6.5780   18.4730  -33.0220 C   0  0  0  0  0  0  0  0  0  0  0  0
   -7.7180   18.8270  -32.3320 N   0  0  0  0  0  0  0  0  0  0  0  0
   -8.7150   17.7970  -31.9640 C   0  0  0  0  0  0  0  0  0  0  0  0
   -7.9340   20.1540  -32.0090 C   0  0  0  0  0  0  0  0  0  0  0  0
   -9.2030   20.6110  -31.5820 C   0  0  0  0  0  0  0  0  0  0  0  0
   -9.4140   21.9480  -31.2680 C   0  0  0  0  0  0  0  0  0  0  0  0
   -8.4020   22.8770  -31.4500 C   0  0  0  0  0  0  0  0  0  0  0  0
   -7.1450   22.4830  -31.9290 C   0  0  0  0  0  0  0  0  0  0  0  0
   -6.2260   23.4890  -32.3950 N   0  0  0  0  0  0  0  0  0  0  0  0
   -5.7400   24.5920  -31.5670 C   0  0  0  0  0  0  0  0  0  0  0  0
   -5.9280   24.3070  -30.0660 C   0  0  0  0  0  0  0  0  0  0  0  0
   -4.6150   24.3400  -29.2640 C   0  0  0  0  0  0  0  0  0  0  0  0
   -3.7020   23.2460  -29.6630 N   0  0  0  0  0  0  0  0  0  0  0  0
   -3.8430   22.1030  -28.7470 C   0  0  0  0  0  0  0  0  0  0  0  0
   -2.2980   23.6970  -29.6780 C   0  0  0  0  0  0  0  0  0  0  0  0
   -6.8710   21.0970  -32.1190 C   0  0  0  0  0  0  0  0  0  0  0  0
   -0.1395   20.2958  -34.1727 H   0  0  0  0  0  0  0  0  0  0  0  0
   -0.6237   18.6183  -34.5946 H   0  0  0  0  0  0  0  0  0  0  0  0
   -1.8475   19.9332  -34.5946 H   0  0  0  0  0  0  0  0  0  0  0  0
   -1.9704   18.4411  -32.5621 H   0  0  0  0  0  0  0  0  0  0  0  0
   -0.3127   18.9902  -32.1192 H   0  0  0  0  0  0  0  0  0  0  0  0
    0.0719   20.9884  -31.2022 H   0  0  0  0  0  0  0  0  0  0  0  0
   -1.3600   21.9470  -30.5820 H   0  0  0  0  0  0  0  0  0  0  0  0
   -0.9936   20.7177  -28.7112 H   0  0  0  0  0  0  0  0  0  0  0  0
   -1.9931   19.5206  -29.6027 H   0  0  0  0  0  0  0  0  0  0  0  0
   -0.2029   19.3735  -29.6027 H   0  0  0  0  0  0  0  0  0  0  0  0
   -1.5051   22.3836  -32.8295 H   0  0  0  0  0  0  0  0  0  0  0  0
   -2.0142   21.0698  -33.9865 H   0  0  0  0  0  0  0  0  0  0  0  0
   -3.6447   23.0509  -32.6661 H   0  0  0  0  0  0  0  0  0  0  0  0
   -4.1075   21.7703  -33.8659 H   0  0  0  0  0  0  0  0  0  0  0  0
   -4.6370   21.9560  -31.1330 H   0  0  0  0  0  0  0  0  0  0  0  0
   -3.7500   20.5620  -31.3680 H   0  0  0  0  0  0  0  0  0  0  0  0
   -3.4503   19.6739  -33.8080 H   0  0  0  0  0  0  0  0  0  0  0  0
   -3.3148   17.4736  -34.9561 H   0  0  0  0  0  0  0  0  0  0  0  0
   -5.2497   15.9145  -34.9040 H   0  0  0  0  0  0  0  0  0  0  0  0
   -7.3355   16.5478  -33.7123 H   0  0  0  0  0  0  0  0  0  0  0  0
   -8.7827   17.7271  -30.8683 H   0  0  0  0  0  0  0  0  0  0  0  0
   -9.6970   18.0738  -32.3751 H   0  0  0  0  0  0  0  0  0  0  0  0
   -8.4063   16.8245  -32.3751 H   0  0  0  0  0  0  0  0  0  0  0  0
  -10.0354   19.8969  -31.4973 H   0  0  0  0  0  0  0  0  0  0  0  0
  -10.3887   22.2705  -30.8732 H   0  0  0  0  0  0  0  0  0  0  0  0
   -8.5873   23.9357  -31.2159 H   0  0  0  0  0  0  0  0  0  0  0  0
   -5.9370   23.4610  -33.3980 H   0  0  0  0  0  0  0  0  0  0  0  0
   -4.6694   24.7438  -31.7691 H   0  0  0  0  0  0  0  0  0  0  0  0
   -6.3218   25.4908  -31.8195 H   0  0  0  0  0  0  0  0  0  0  0  0
   -6.6085   25.0649  -29.6506 H   0  0  0  0  0  0  0  0  0  0  0  0
   -6.3338   23.2883  -29.9792 H   0  0  0  0  0  0  0  0  0  0  0  0
   -4.1145   25.3037  -29.4392 H   0  0  0  0  0  0  0  0  0  0  0  0
   -4.8602   24.2108  -28.1995 H   0  0  0  0  0  0  0  0  0  0  0  0
   -3.7991   22.4589  -27.7071 H   0  0  0  0  0  0  0  0  0  0  0  0
   -4.8090   21.6078  -28.9246 H   0  0  0  0  0  0  0  0  0  0  0  0
   -3.0263   21.3879  -28.9246 H   0  0  0  0  0  0  0  0  0  0  0  0
   -1.9389   23.8124  -28.6447 H   0  0  0  0  0  0  0  0  0  0  0  0
   -1.6793   22.9524  -30.2002 H   0  0  0  0  0  0  0  0  0  0  0  0
   -2.2286   24.6626  -30.2002 H   0  0  0  0  0  0  0  0  0  0  0  0
  1  2  1  0
  2  3  1  0
  3  4  1  0
  4  5  1  0
  3  6  1  0
  6  7  1  0
  7  8  1  0
  8  9  1  0
  9 10  2  0
 10 11  1  0
 11 12  2  0
 12 13  1  0
 13 14  2  0
 14 15  1  0
 15 16  2  0
 16 17  1  0
 16 18  1  0
 18 19  2  0
 19 20  1  0
 20 21  2  0
 21 22  1  0
 22 23  1  0
 23 24  1  0
 24 25  1  0
 25 26  1  0
 26 27  1  0
 27 28  1  0
 27 29  1  0
 22 30  2  0
 30  9  1  0
 15 10  1  0
 30 18  1  0
  1 31  1  0
  1 32  1  0
  1 33  1  0
  2 34  1  0
  2 35  1  0
  4 36  1  0
  4 37  1  0
  5 38  1  0
  5 39  1  0
  5 40  1  0
  6 41  1  0
  6 42  1  0
  7 43  1  0
  7 44  1  0
  8 45  1  0
  8 46  1  0
 11 47  1  0
 12 48  1  0
 13 49  1  0
 14 50  1  0
 17 51  1  0
 17 52  1  0
 17 53  1  0
 19 54  1  0
 20 55  1  0
 21 56  1  0
 23 57  1  0
 24 58  1  0
 24 59  1  0
 25 60  1  0
 25 61  1  0
 26 62  1  0
 26 63  1  0
 28 64  1  0
 28 65  1  0
 28 66  1  0
 29 67  1  0
 29 68  1  0
 29 69  1  0
M  CHG  2   8   1  16   1
M  END
>  <UniqueID>  (17) 
17

>  <SMILES>  (17) 
CCN(CC)CC[NH2+]c1c2ccccc2[n+](C)c2cccc(NCCCN(C)C)c12

>  <Energy>  (17) 
110.70230739201168

>  <Genealogy>  (17) 
CCN(CC)CC[NH2+]c1c2ccccc2[n+](C)c2cccc(NCCCN(C)C)c12 (protonated)
CCN(CC)CC[NH2+]c1c2ccccc2[n+](C)c2cccc(NCCCN(C)C)c12 (3D coordinates assigned)
CCN(CC)CC[NH2+]c1c2ccccc2[n+](C)c2cccc(NCCCN(C)C)c12 (optimized conformer: 110.70230739201168 kcal/mol)

>  <smiles>  (17) 
CCN(CC)CCNc1c2ccccc2[n+](C)c2cccc(NCCCN(C)C)c12

>  <score_type>  (17) 
oracle

>  <origin>  (17) 
adg

>  <m_score__min__energy>  (17) 
-8.5199999999999996

>  <m_primary>  (17) 
energy

$$$$
17:0
     RDKit          3D

 51 54  0  0  0  0  0  0  0  0999 V2000
    0.2730   20.0300  -35.7150 C   0  0  0  0  0  0  0  0  0  0  0  0
   -0.1370   21.2750  -35.0470 N   0  0  0  0  0  0  0  0  0  0  0  0
    0.5870   22.4350  -35.5910 C   0  0  0  0  0  0  0  0  0  0  0  0
   -0.0650   21.1900  -33.5710 C   0  0  0  0  0  0  0  0  0  0  0  0
   -1.3850   20.7690  -32.8920 C   0  0  0  0  0  0  0  0  0  0  0  0
   -2.4350   20.5710  -33.8920 N   0  0  0  0  0  0  0  0  0  0  0  0
   -3.6020   19.8020  -33.5710 C   0  0  0  0  0  0  0  0  0  0  0  0
   -4.7060   20.4280  -32.9750 C   0  0  0  0  0  0  0  0  0  0  0  0
   -5.8650   19.6770  -32.6990 C   0  0  0  0  0  0  0  0  0  0  0  0
   -5.8260   18.2990  -32.7790 N   0  0  0  0  0  0  0  0  0  0  0  0
   -6.8170   17.4790  -32.0510 C   0  0  0  0  0  0  0  0  0  0  0  0
   -4.7950   17.6790  -33.4560 C   0  0  0  0  0  0  0  0  0  0  0  0
   -4.8320   16.2950  -33.7630 C   0  0  0  0  0  0  0  0  0  0  0  0
   -3.7870   15.6860  -34.4570 C   0  0  0  0  0  0  0  0  0  0  0  0
   -2.6890   16.4330  -34.8700 C   0  0  0  0  0  0  0  0  0  0  0  0
   -2.6270   17.7970  -34.5900 C   0  0  0  0  0  0  0  0  0  0  0  0
   -3.6650   18.4310  -33.8770 C   0  0  0  0  0  0  0  0  0  0  0  0
   -7.0840   20.4470  -32.2890 C   0  0  0  0  0  0  0  0  0  0  0  0
   -8.3740   20.0240  -32.6620 C   0  0  0  0  0  0  0  0  0  0  0  0
   -9.4850   20.7750  -32.2870 C   0  0  0  0  0  0  0  0  0  0  0  0
   -9.3110   21.9610  -31.5800 C   0  0  0  0  0  0  0  0  0  0  0  0
   -8.0210   22.4030  -31.2920 C   0  0  0  0  0  0  0  0  0  0  0  0
   -6.9320   21.6720  -31.6830 N   0  0  0  0  0  0  0  0  0  0  0  0
   -5.5820   22.2030  -31.4460 C   0  0  0  0  0  0  0  0  0  0  0  0
   -4.6820   21.9070  -32.6520 C   0  0  0  0  0  0  0  0  0  0  0  0
    0.5225   19.2724  -34.9575 H   0  0  0  0  0  0  0  0  0  0  0  0
   -0.5515   19.6624  -36.3435 H   0  0  0  0  0  0  0  0  0  0  0  0
    1.1546   20.2243  -36.3435 H   0  0  0  0  0  0  0  0  0  0  0  0
    0.9704   23.0492  -34.7629 H   0  0  0  0  0  0  0  0  0  0  0  0
    1.4278   22.0859  -36.2084 H   0  0  0  0  0  0  0  0  0  0  0  0
   -0.0960   23.0370  -36.2084 H   0  0  0  0  0  0  0  0  0  0  0  0
    0.7083   20.4539  -33.3060 H   0  0  0  0  0  0  0  0  0  0  0  0
    0.1653   22.2028  -33.2089 H   0  0  0  0  0  0  0  0  0  0  0  0
   -1.2260   19.8292  -32.3430 H   0  0  0  0  0  0  0  0  0  0  0  0
   -1.6984   21.5642  -32.1995 H   0  0  0  0  0  0  0  0  0  0  0  0
   -2.4520   21.1540  -34.7610 H   0  0  0  0  0  0  0  0  0  0  0  0
   -6.6693   17.6012  -30.9678 H   0  0  0  0  0  0  0  0  0  0  0  0
   -7.8322   17.8047  -32.3217 H   0  0  0  0  0  0  0  0  0  0  0  0
   -6.6871   16.4208  -32.3217 H   0  0  0  0  0  0  0  0  0  0  0  0
   -5.6976   15.6931  -33.4491 H   0  0  0  0  0  0  0  0  0  0  0  0
   -3.8313   14.6095  -34.6789 H   0  0  0  0  0  0  0  0  0  0  0  0
   -1.8686   15.9468  -35.4182 H   0  0  0  0  0  0  0  0  0  0  0  0
   -1.7605   18.3841  -34.9283 H   0  0  0  0  0  0  0  0  0  0  0  0
   -8.5039   19.1024  -33.2483 H   0  0  0  0  0  0  0  0  0  0  0  0
  -10.4968   20.4320  -32.5487 H   0  0  0  0  0  0  0  0  0  0  0  0
  -10.1838   22.5443  -31.2514 H   0  0  0  0  0  0  0  0  0  0  0  0
   -7.8769   23.3470  -30.7460 H   0  0  0  0  0  0  0  0  0  0  0  0
   -5.6402   23.2908  -31.2933 H   0  0  0  0  0  0  0  0  0  0  0  0
   -5.1571   21.7227  -30.5522 H   0  0  0  0  0  0  0  0  0  0  0  0
   -5.0433   22.4744  -33.5224 H   0  0  0  0  0  0  0  0  0  0  0  0
   -3.6507   22.2038  -32.4103 H   0  0  0  0  0  0  0  0  0  0  0  0
  1  2  1  0
  2  3  1  0
  2  4  1  0
  4  5  1  0
  5  6  1  0
  6  7  1  0
  7  8  2  0
  8  9  1  0
  9 10  2  0
 10 11  1  0
 10 12  1  0
 12 13  2  0
 13 14  1  0
 14 15  2  0
 15 16  1  0
 16 17  2  0
  9 18  1  0
 18 19  2  0
 19 20  1  0
 20 21  2  0
 21 22  1  0
 22 23  2  0
 23 24  1  0
 24 25  1  0
 17  7  1  0
 23 18  1  0
 25  8  1  0
 17 12  1  0
  1 26  1  0
  1 27  1  0
  1 28  1  0
  3 29  1  0
  3 30  1  0
  3 31  1  0
  4 32  1  0
  4 33  1  0
  5 34  1  0
  5 35  1  0
  6 36  1  0
 11 37  1  0
 11 38  1  0
 11 39  1  0
 13 40  1  0
 14 41  1  0
 15 42  1  0
 16 43  1  0
 19 44  1  0
 20 45  1  0
 21 46  1  0
 22 47  1  0
 24 48  1  0
 24 49  1  0
 25 50  1  0
 25 51  1  0
M  CHG  2  10   1  23   1
M  END
>  <UniqueID>  (18) 
18

>  <SMILES>  (18) 
CN(C)CCNc1c2c([n+](C)c3ccccc13)-c1cccc[n+]1CC2

>  <Energy>  (18) 
85.70437203771411

>  <Genealogy>  (18) 
CN(C)CCNc1c2c([n+](C)c3ccccc13)-c1cccc[n+]1CC2 (3D coordinates assigned)
CN(C)CCNc1c2c([n+](C)c3ccccc13)-c1cccc[n+]1CC2 (nonaromatic ring conformer: 85.70437203771411 kcal/mol)

>  <smiles>  (18) 
CN(C)CCNc1c2c([n+](C)c3ccccc13)-c1cccc[n+]1CC2

>  <score_type>  (18) 
oracle

>  <origin>  (18) 
adg

>  <m_score__min__energy>  (18) 
-7.8899999999999997

>  <m_primary>  (18) 
energy

$$$$
18:0
     RDKit          3D

 63 65  0  0  0  0  0  0  0  0999 V2000
    2.0430   24.3780  -35.8960 C   0  0  0  0  0  0  0  0  0  0  0  0
    0.5810   23.9890  -36.0670 C   0  0  0  0  0  0  0  0  0  0  0  0
    0.3010   22.7440  -35.3410 N   0  0  0  0  0  0  0  0  0  0  0  0
    0.9380   21.5820  -35.9880 C   0  0  0  0  0  0  0  0  0  0  0  0
    0.1840   20.2950  -35.6250 C   0  0  0  0  0  0  0  0  0  0  0  0
   -0.2940   20.2780  -34.1680 C   0  0  0  0  0  0  0  0  0  0  0  0
   -1.5560   21.0160  -34.0340 N   0  0  0  0  0  0  0  0  0  0  0  0
   -1.6770   21.5860  -32.6880 C   0  0  0  0  0  0  0  0  0  0  0  0
   -3.1490   21.8280  -32.3300 C   0  0  0  0  0  0  0  0  0  0  0  0
   -4.0310   21.6400  -33.4960 N   0  0  0  0  0  0  0  0  0  0  0  0
   -5.1930   20.8390  -33.1360 C   0  0  0  0  0  0  0  0  0  0  0  0
   -6.3440   21.4440  -32.5680 C   0  0  0  0  0  0  0  0  0  0  0  0
   -6.3670   22.8160  -32.2110 C   0  0  0  0  0  0  0  0  0  0  0  0
   -7.5320   23.4180  -31.7430 C   0  0  0  0  0  0  0  0  0  0  0  0
   -8.6990   22.6780  -31.6240 C   0  0  0  0  0  0  0  0  0  0  0  0
   -8.6960   21.3190  -31.9230 C   0  0  0  0  0  0  0  0  0  0  0  0
   -7.5120   20.6600  -32.3470 C   0  0  0  0  0  0  0  0  0  0  0  0
   -7.4870   19.2950  -32.5530 N   0  0  0  0  0  0  0  0  0  0  0  0
   -8.5940   18.4520  -32.0440 C   0  0  0  0  0  0  0  0  0  0  0  0
   -6.4060   18.7050  -33.1790 C   0  0  0  0  0  0  0  0  0  0  0  0
   -6.4550   17.3620  -33.6250 C   0  0  0  0  0  0  0  0  0  0  0  0
   -5.3390   16.7380  -34.1720 C   0  0  0  0  0  0  0  0  0  0  0  0
   -4.1230   17.4200  -34.2920 C   0  0  0  0  0  0  0  0  0  0  0  0
   -2.9520   16.7590  -34.8340 N   0  0  0  0  0  0  0  0  0  0  0  0
   -1.6070   17.2450  -34.5080 C   0  0  0  0  0  0  0  0  0  0  0  0
   -3.0930   15.5880  -35.7080 C   0  0  0  0  0  0  0  0  0  0  0  0
   -4.0710   18.7660  -33.8960 C   0  0  0  0  0  0  0  0  0  0  0  0
   -5.2160   19.4450  -33.4060 C   0  0  0  0  0  0  0  0  0  0  0  0
    2.2825   24.4417  -34.8243 H   0  0  0  0  0  0  0  0  0  0  0  0
    2.6823   23.6187  -36.3701 H   0  0  0  0  0  0  0  0  0  0  0  0
    2.2204   25.3546  -36.3701 H   0  0  0  0  0  0  0  0  0  0  0  0
   -0.0577   24.7923  -35.6712 H   0  0  0  0  0  0  0  0  0  0  0  0
    0.3721   23.8366  -37.1362 H   0  0  0  0  0  0  0  0  0  0  0  0
   -0.7360   22.5960  -35.3370 H   0  0  0  0  0  0  0  0  0  0  0  0
    0.9199   21.7184  -37.0794 H   0  0  0  0  0  0  0  0  0  0  0  0
    1.9774   21.5006  -35.6374 H   0  0  0  0  0  0  0  0  0  0  0  0
   -0.6923   20.2032  -36.2836 H   0  0  0  0  0  0  0  0  0  0  0  0
    0.8815   19.4544  -35.7549 H   0  0  0  0  0  0  0  0  0  0  0  0
   -0.4478   19.2365  -33.8493 H   0  0  0  0  0  0  0  0  0  0  0  0
    0.4685   20.7581  -33.5370 H   0  0  0  0  0  0  0  0  0  0  0  0
   -1.5440   21.8030  -34.7250 H   0  0  0  0  0  0  0  0  0  0  0  0
   -1.2387   20.8877  -31.9598 H   0  0  0  0  0  0  0  0  0  0  0  0
   -1.1449   22.5484  -32.6632 H   0  0  0  0  0  0  0  0  0  0  0  0
   -3.4451   21.1208  -31.5412 H   0  0  0  0  0  0  0  0  0  0  0  0
   -3.2520   22.8677  -31.9858 H   0  0  0  0  0  0  0  0  0  0  0  0
   -4.3120   22.5630  -33.8900 H   0  0  0  0  0  0  0  0  0  0  0  0
   -3.5180   21.2030  -34.2920 H   0  0  0  0  0  0  0  0  0  0  0  0
   -5.4491   23.4148  -32.3053 H   0  0  0  0  0  0  0  0  0  0  0  0
   -7.5268   24.4828  -31.4670 H   0  0  0  0  0  0  0  0  0  0  0  0
   -9.6277   23.1658  -31.2930 H   0  0  0  0  0  0  0  0  0  0  0  0
   -9.6291   20.7441  -31.8290 H   0  0  0  0  0  0  0  0  0  0  0  0
   -8.5845   18.4592  -30.9441 H   0  0  0  0  0  0  0  0  0  0  0  0
   -9.5538   18.8500  -32.4050 H   0  0  0  0  0  0  0  0  0  0  0  0
   -8.4655   17.4209  -32.4050 H   0  0  0  0  0  0  0  0  0  0  0  0
   -7.3964   16.7999  -33.5369 H   0  0  0  0  0  0  0  0  0  0  0  0
   -5.4131   15.6953  -34.5146 H   0  0  0  0  0  0  0  0  0  0  0  0
   -1.4876   17.2882  -33.4154 H   0  0  0  0  0  0  0  0  0  0  0  0
   -0.8572   16.5610  -34.9321 H   0  0  0  0  0  0  0  0  0  0  0  0
   -1.4676   18.2503  -34.9321 H   0  0  0  0  0  0  0  0  0  0  0  0
   -3.2020   14.6825  -35.0930 H   0  0  0  0  0  0  0  0  0  0  0  0
   -3.9830   15.7094  -36.3429 H   0  0  0  0  0  0  0  0  0  0  0  0
   -2.1996   15.4947  -36.3429 H   0  0  0  0  0  0  0  0  0  0  0  0
   -3.1168   19.3085  -33.9676 H   0  0  0  0  0  0  0  0  0  0  0  0
  1  2  1  0
  2  3  1  0
  3  4  1  0
  4  5  1  0
  5  6  1  0
  6  7  1  0
  7  8  1  0
  8  9  1  0
  9 10  1  0
 10 11  1  0
 11 12  2  0
 12 13  1  0
 13 14  2  0
 14 15  1  0
 15 16  2  0
 16 17  1  0
 17 18  2  0
 18 19  1  0
 18 20  1  0
 20 21  2  0
 21 22  1  0
 22 23  2  0
 23 24  1  0
 24 25  1  0
 24 26  1  0
 23 27  1  0
 27 28  2  0
 28 11  1  0
 17 12  1  0
 28 20  1  0
  1 29  1  0
  1 30  1  0
  1 31  1  0
  2 32  1  0
  2 33  1  0
  3 34  1  0
  4 35  1  0
  4 36  1  0
  5 37  1  0
  5 38  1  0
  6 39  1  0
  6 40  1  0
  7 41  1  0
  8 42  1  0
  8 43  1  0
  9 44  1  0
  9 45  1  0
 10 46  1  0
 10 47  1  0
 13 48  1  0
 14 49  1  0
 15 50  1  0
 16 51  1  0
 19 52  1  0
 19 53  1  0
 19 54  1  0
 21 55  1  0
 22 56  1  0
 25 57  1  0
 25 58  1  0
 25 59  1  0
 26 60  1  0
 26 61  1  0
 26 62  1  0
 27 63  1  0
M  CHG  2  10   1  18   1
M  END
>  <UniqueID>  (19) 
19

>  <SMILES>  (19) 
CCNCCCNCC[NH2+]c1c2ccccc2[n+](C)c2ccc(N(C)C)cc12

>  <Energy>  (19) 
83.23225575498326

>  <Genealogy>  (19) 
CCNCCCNCC[NH2+]c1c2ccccc2[n+](C)c2ccc(N(C)C)cc12 (protonated)
CCNCCCNCC[NH2+]c1c2ccccc2[n+](C)c2ccc(N(C)C)cc12 (3D coordinates assigned)
CCNCCCNCC[NH2+]c1c2ccccc2[n+](C)c2ccc(N(C)C)cc12 (optimized conformer: 83.23225575498326 kcal/mol)

>  <smiles>  (19) 
CCNCCCNCCNc1c2ccccc2[n+](C)c2ccc(N(C)C)cc12

>  <score_type>  (19) 
oracle

>  <origin>  (19) 
adg

>  <m_score__min__energy>  (19) 
-8.25

>  <m_primary>  (19) 
energy

$$$$
19:0
     RDKit          3D

 57 59  0  0  0  0  0  0  0  0999 V2000
   -0.7500   20.6640  -30.3320 C   0  0  0  0  0  0  0  0  0  0  0  0
   -1.0110   22.1630  -30.4500 C   0  0  0  0  0  0  0  0  0  0  0  0
   -2.4350   22.4730  -30.2590 N   0  0  0  0  0  0  0  0  0  0  0  0
   -2.9700   21.9620  -28.9830 C   0  0  0  0  0  0  0  0  0  0  0  0
   -2.7890   23.0000  -27.8690 C   0  0  0  0  0  0  0  0  0  0  0  0
   -3.0580   24.4260  -28.3660 C   0  0  0  0  0  0  0  0  0  0  0  0
   -4.4170   24.5260  -29.0630 C   0  0  0  0  0  0  0  0  0  0  0  0
   -4.2180   24.8300  -30.4920 N   0  0  0  0  0  0  0  0  0  0  0  0
   -5.4810   25.0370  -31.2180 C   0  0  0  0  0  0  0  0  0  0  0  0
   -5.8610   23.8010  -32.0440 C   0  0  0  0  0  0  0  0  0  0  0  0
   -5.1740   22.6040  -31.5580 N   0  0  0  0  0  0  0  0  0  0  0  0
   -5.3410   21.3190  -32.1800 C   0  0  0  0  0  0  0  0  0  0  0  0
   -4.2640   20.6990  -32.8360 C   0  0  0  0  0  0  0  0  0  0  0  0
   -3.0400   21.3770  -33.0150 C   0  0  0  0  0  0  0  0  0  0  0  0
   -1.9810   20.7670  -33.6820 C   0  0  0  0  0  0  0  0  0  0  0  0
   -2.1310   19.4880  -34.2050 C   0  0  0  0  0  0  0  0  0  0  0  0
   -3.3360   18.8040  -34.0510 C   0  0  0  0  0  0  0  0  0  0  0  0
   -4.4190   19.3780  -33.3370 C   0  0  0  0  0  0  0  0  0  0  0  0
   -5.6050   18.6950  -33.1370 N   0  0  0  0  0  0  0  0  0  0  0  0
   -5.6750   17.2390  -33.3910 C   0  0  0  0  0  0  0  0  0  0  0  0
   -6.7210   19.3720  -32.6840 C   0  0  0  0  0  0  0  0  0  0  0  0
   -8.0140   18.7880  -32.7200 C   0  0  0  0  0  0  0  0  0  0  0  0
   -9.1230   19.4640  -32.2110 C   0  0  0  0  0  0  0  0  0  0  0  0
   -8.9800   20.7350  -31.6680 C   0  0  0  0  0  0  0  0  0  0  0  0
   -7.7310   21.3500  -31.6530 C   0  0  0  0  0  0  0  0  0  0  0  0
   -6.5970   20.6900  -32.1720 C   0  0  0  0  0  0  0  0  0  0  0  0
   -0.7010   20.3829  -29.2697 H   0  0  0  0  0  0  0  0  0  0  0  0
   -1.5652   20.1103  -30.8206 H   0  0  0  0  0  0  0  0  0  0  0  0
    0.2044   20.4184  -30.8206 H   0  0  0  0  0  0  0  0  0  0  0  0
   -0.4234   22.6905  -29.6842 H   0  0  0  0  0  0  0  0  0  0  0  0
   -0.7167   22.4887  -31.4586 H   0  0  0  0  0  0  0  0  0  0  0  0
   -2.5200   23.5160  -30.2460 H   0  0  0  0  0  0  0  0  0  0  0  0
   -4.0412   21.7422  -29.1020 H   0  0  0  0  0  0  0  0  0  0  0  0
   -2.4227   21.0480  -28.7091 H   0  0  0  0  0  0  0  0  0  0  0  0
   -3.4888   22.7703  -27.0519 H   0  0  0  0  0  0  0  0  0  0  0  0
   -1.7458   22.9507  -27.5236 H   0  0  0  0  0  0  0  0  0  0  0  0
   -3.0446   25.1131  -27.5071 H   0  0  0  0  0  0  0  0  0  0  0  0
   -2.2757   24.6937  -29.0915 H   0  0  0  0  0  0  0  0  0  0  0  0
   -4.9511   23.5696  -28.9630 H   0  0  0  0  0  0  0  0  0  0  0  0
   -5.0085   25.3281  -28.5975 H   0  0  0  0  0  0  0  0  0  0  0  0
   -3.7250   24.0200  -30.9370 H   0  0  0  0  0  0  0  0  0  0  0  0
   -6.2816   25.2423  -30.4921 H   0  0  0  0  0  0  0  0  0  0  0  0
   -5.3501   25.8858  -31.9053 H   0  0  0  0  0  0  0  0  0  0  0  0
   -6.9474   23.6437  -31.9741 H   0  0  0  0  0  0  0  0  0  0  0  0
   -5.5588   23.9748  -33.0873 H   0  0  0  0  0  0  0  0  0  0  0  0
   -4.5110   22.6900  -30.7530 H   0  0  0  0  0  0  0  0  0  0  0  0
   -2.9210   22.3981  -32.6236 H   0  0  0  0  0  0  0  0  0  0  0  0
   -1.0243   21.2980  -33.7952 H   0  0  0  0  0  0  0  0  0  0  0  0
   -1.2963   19.0140  -34.7421 H   0  0  0  0  0  0  0  0  0  0  0  0
   -3.4489   17.8020  -34.4907 H   0  0  0  0  0  0  0  0  0  0  0  0
   -5.7009   16.7004  -32.4322 H   0  0  0  0  0  0  0  0  0  0  0  0
   -6.5852   17.0102  -33.9648 H   0  0  0  0  0  0  0  0  0  0  0  0
   -4.7910   16.9240  -33.9648 H   0  0  0  0  0  0  0  0  0  0  0  0
   -8.1437   17.7865  -33.1561 H   0  0  0  0  0  0  0  0  0  0  0  0
  -10.1147   18.9890  -32.2396 H   0  0  0  0  0  0  0  0  0  0  0  0
   -9.8541   21.2556  -31.2497 H   0  0  0  0  0  0  0  0  0  0  0  0
   -7.6272   22.3610  -31.2321 H   0  0  0  0  0  0  0  0  0  0  0  0
  1  2  1  0
  2  3  1  0
  3  4  1  0
  4  5  1  0
  5  6  1  0
  6  7  1  0
  7  8  1  0
  8  9  1  0
  9 10  1  0
 10 11  1  0
 11 12  1  0
 12 13  2  0
 13 14  1  0
 14 15  2  0
 15 16  1  0
 16 17  2  0
 17 18  1  0
 18 19  2  0
 19 20  1  0
 19 21  1  0
 21 22  2  0
 22 23  1  0
 23 24  2  0
 24 25  1  0
 25 26  2  0
 26 12  1  0
 18 13  1  0
 26 21  1  0
  1 27  1  0
  1 28  1  0
  1 29  1  0
  2 30  1  0
  2 31  1  0
  3 32  1  0
  4 33  1  0
  4 34  1  0
  5 35  1  0
  5 36  1  0
  6 37  1  0
  6 38  1  0
  7 39  1  0
  7 40  1  0
  8 41  1  0
  9 42  1  0
  9 43  1  0
 10 44  1  0
 10 45  1  0
 11 46  1  0
 14 47  1  0
 15 48  1  0
 16 49  1  0
 17 50  1  0
 20 51  1  0
 20 52  1  0
 20 53  1  0
 22 54  1  0
 23 55  1  0
 24 56  1  0
 25 57  1  0
M  CHG  1  19   1
M  END
>  <UniqueID>  (20) 
20

>  <SMILES>  (20) 
CCNCCCCNCCNc1c2ccccc2[n+](C)c2ccccc12

>  <Energy>  (20) 
71.43318088024115

>  <Genealogy>  (20) 
CCNCCCCNCCNc1c2ccccc2[n+](C)c2ccccc12 (3D coordinates assigned)
CCNCCCCNCCNc1c2ccccc2[n+](C)c2ccccc12 (optimized conformer: 71.43318088024115 kcal/mol)

>  <smiles>  (20) 
CCNCCCCNCCNc1c2ccccc2[n+](C)c2ccccc12

>  <score_type>  (20) 
oracle

>  <origin>  (20) 
adg

>  <m_score__min__energy>  (20) 
-9.0500000000000007

>  <m_primary>  (20) 
energy

$$$$
20:0
     RDKit          3D

 81 85  0  0  0  0  0  0  0  0999 V2000
   -0.4210   19.2240  -29.5010 C   0  0  0  0  0  0  0  0  0  0  0  0
   -0.8470   19.5680  -28.0680 C   0  0  0  0  0  0  0  0  0  0  0  0
   -2.2130   20.1470  -27.9940 N   0  0  1  0  0  0  0  0  0  0  0  0
   -3.0910   19.3170  -27.1410 C   0  0  0  0  0  0  0  0  0  0  0  0
   -2.1320   21.5360  -27.4710 C   0  0  0  0  0  0  0  0  0  0  0  0
   -2.9490   22.5430  -28.3120 C   0  0  0  0  0  0  0  0  0  0  0  0
   -2.5720   22.4610  -29.7380 N   0  0  0  0  0  0  0  0  0  0  0  0
   -1.1060   22.4600  -29.9490 C   0  0  0  0  0  0  0  0  0  0  0  0
   -0.5240   23.6020  -29.2410 C   0  0  0  0  0  0  0  0  0  0  0  0
   -0.0680   24.5110  -28.6910 N   0  0  0  0  0  0  0  0  0  0  0  0
   -3.2890   23.3850  -30.6700 C   0  0  2  0  0  0  0  0  0  0  0  0
   -4.1300   24.4840  -29.9820 C   0  0  0  0  0  0  0  0  0  0  0  0
   -5.5080   24.0290  -29.4920 C   0  0  0  0  0  0  0  0  0  0  0  0
   -6.2110   23.0600  -30.4080 C   0  0  0  0  0  0  0  0  0  0  0  0
   -7.5800   22.8080  -30.1720 C   0  0  0  0  0  0  0  0  0  0  0  0
   -8.2520   21.9130  -30.9990 C   0  0  0  0  0  0  0  0  0  0  0  0
   -7.6340   21.2920  -32.0160 C   0  0  0  0  0  0  0  0  0  0  0  0
   -6.2830   21.4950  -32.2860 C   0  0  0  0  0  0  0  0  0  0  0  0
   -5.5330   22.3540  -31.4470 C   0  0  0  0  0  0  0  0  0  0  0  0
   -4.0800   22.6500  -31.7870 C   0  0  2  0  0  0  0  0  0  0  0  0
   -3.2950   21.4470  -32.2950 C   0  0  0  0  0  0  0  0  0  0  0  0
   -3.5260   20.1830  -31.7270 C   0  0  0  0  0  0  0  0  0  0  0  0
   -2.8940   19.0470  -32.2400 C   0  0  0  0  0  0  0  0  0  0  0  0
   -2.0410   19.1460  -33.3450 C   0  0  0  0  0  0  0  0  0  0  0  0
   -1.4560   17.9730  -33.8440 O   0  0  0  0  0  0  0  0  0  0  0  0
   -2.1460   16.7330  -33.9880 C   0  0  0  0  0  0  0  0  0  0  0  0
   -3.1940   16.8670  -35.1070 C   0  0  0  0  0  0  0  0  0  0  0  0
   -4.5980   16.7990  -34.6410 N   0  0  0  0  0  0  0  0  0  0  0  0
   -4.7270   16.5790  -33.1860 C   0  0  0  0  0  0  0  0  0  0  0  0
   -6.1230   16.9880  -32.6940 C   0  0  0  0  0  0  0  0  0  0  0  0
   -6.4290   18.3590  -32.9250 O   0  0  0  0  0  0  0  0  0  0  0  0
   -5.8130   18.9020  -34.0850 C   0  0  0  0  0  0  0  0  0  0  0  0
   -5.4790   17.8620  -35.1690 C   0  0  0  0  0  0  0  0  0  0  0  0
   -1.8040   20.4080  -33.9170 C   0  0  0  0  0  0  0  0  0  0  0  0
   -2.4180   21.5480  -33.3920 C   0  0  0  0  0  0  0  0  0  0  0  0
   -8.6090   20.4450  -32.7240 C   0  0  0  0  0  0  0  0  0  0  0  0
   -9.8600   20.6120  -32.0650 O   0  0  0  0  0  0  0  0  0  0  0  0
   -9.6670   21.5090  -30.9790 C   0  0  0  0  0  0  0  0  0  0  0  0
    0.4345   18.5331  -29.4733 H   0  0  0  0  0  0  0  0  0  0  0  0
   -1.2603   18.7473  -30.0286 H   0  0  0  0  0  0  0  0  0  0  0  0
   -0.1318   20.1449  -30.0286 H   0  0  0  0  0  0  0  0  0  0  0  0
   -0.8223   18.6488  -27.4643 H   0  0  0  0  0  0  0  0  0  0  0  0
   -0.1462   20.3262  -27.6884 H   0  0  0  0  0  0  0  0  0  0  0  0
   -2.6150   20.1780  -28.9610 H   0  0  0  0  0  0  0  0  0  0  0  0
   -2.8740   19.5221  -26.0823 H   0  0  0  0  0  0  0  0  0  0  0  0
   -4.1430   19.5585  -27.3531 H   0  0  0  0  0  0  0  0  0  0  0  0
   -2.9090   18.2531  -27.3531 H   0  0  0  0  0  0  0  0  0  0  0  0
   -2.5162   21.5461  -26.4403 H   0  0  0  0  0  0  0  0  0  0  0  0
   -1.0775   21.8456  -27.5174 H   0  0  0  0  0  0  0  0  0  0  0  0
   -4.0200   22.3147  -28.2082 H   0  0  0  0  0  0  0  0  0  0  0  0
   -2.7380   23.5596  -27.9488 H   0  0  0  0  0  0  0  0  0  0  0  0
   -0.6773   21.5256  -29.5578 H   0  0  0  0  0  0  0  0  0  0  0  0
   -0.8842   22.5355  -31.0238 H   0  0  0  0  0  0  0  0  0  0  0  0
   -2.4711   23.9264  -31.1680 H   0  0  0  0  0  0  0  0  0  0  0  0
   -3.5641   24.8547  -29.1146 H   0  0  0  0  0  0  0  0  0  0  0  0
   -4.3128   25.2556  -30.7444 H   0  0  0  0  0  0  0  0  0  0  0  0
   -5.3812   23.5448  -28.5124 H   0  0  0  0  0  0  0  0  0  0  0  0
   -6.1371   24.9303  -29.4495 H   0  0  0  0  0  0  0  0  0  0  0  0
   -8.1069   23.3110  -29.3478 H   0  0  0  0  0  0  0  0  0  0  0  0
   -5.8045   20.9942  -33.1405 H   0  0  0  0  0  0  0  0  0  0  0  0
   -4.1755   23.3544  -32.6265 H   0  0  0  0  0  0  0  0  0  0  0  0
   -4.2102   20.0866  -30.8711 H   0  0  0  0  0  0  0  0  0  0  0  0
   -3.0684   18.0672  -31.7715 H   0  0  0  0  0  0  0  0  0  0  0  0
   -1.4289   15.9404  -34.2479 H   0  0  0  0  0  0  0  0  0  0  0  0
   -2.6446   16.4743  -33.0422 H   0  0  0  0  0  0  0  0  0  0  0  0
   -3.0434   17.8360  -35.6053 H   0  0  0  0  0  0  0  0  0  0  0  0
   -3.0450   16.0107  -35.7811 H   0  0  0  0  0  0  0  0  0  0  0  0
   -4.5653   15.5133  -32.9667 H   0  0  0  0  0  0  0  0  0  0  0  0
   -3.9765   17.1947  -32.6685 H   0  0  0  0  0  0  0  0  0  0  0  0
   -6.8701   16.3721  -33.2160 H   0  0  0  0  0  0  0  0  0  0  0  0
   -6.1400   16.8324  -31.6052 H   0  0  0  0  0  0  0  0  0  0  0  0
   -6.4949   19.6471  -34.5206 H   0  0  0  0  0  0  0  0  0  0  0  0
   -4.8565   19.3372  -33.7599 H   0  0  0  0  0  0  0  0  0  0  0  0
   -6.4135   17.4068  -35.5288 H   0  0  0  0  0  0  0  0  0  0  0  0
   -4.9534   18.3726  -35.9894 H   0  0  0  0  0  0  0  0  0  0  0  0
   -1.1314   20.4986  -34.7827 H   0  0  0  0  0  0  0  0  0  0  0  0
   -2.2147   22.5322  -33.8392 H   0  0  0  0  0  0  0  0  0  0  0  0
   -8.6904   20.7599  -33.7748 H   0  0  0  0  0  0  0  0  0  0  0  0
   -8.2958   19.3906  -32.7113 H   0  0  0  0  0  0  0  0  0  0  0  0
  -10.3132   22.3911  -31.0986 H   0  0  0  0  0  0  0  0  0  0  0  0
   -9.9240   21.0286  -30.0234 H   0  0  0  0  0  0  0  0  0  0  0  0
  1  2  1  0
  2  3  1  0
  3  4  1  0
  3  5  1  0
  5  6  1  0
  6  7  1  0
  7  8  1  0
  8  9  1  0
  9 10  3  0
  7 11  1  0
 11 12  1  0
 12 13  1  0
 13 14  1  0
 14 15  2  0
 15 16  1  0
 16 17  2  0
 17 18  1  0
 18 19  2  0
 19 20  1  0
 20 21  1  0
 21 22  2  0
 22 23  1  0
 23 24  2  0
 24 25  1  0
 25 26  1  0
 26 27  1  0
 27 28  1  0
 28 29  1  0
 29 30  1  0
 30 31  1  0
 31 32  1  0
 32 33  1  0
 24 34  1  0
 34 35  2  0
 17 36  1  0
 36 37  1  0
 37 38  1  0
 20 11  1  0
 35 21  1  0
 19 14  1  0
 33 28  1  0
 38 16  1  0
  1 39  1  0
  1 40  1  0
  1 41  1  0
  2 42  1  0
  2 43  1  0
  3 44  1  6
  4 45  1  0
  4 46  1  0
  4 47  1  0
  5 48  1  0
  5 49  1  0
  6 50  1  0
  6 51  1  0
  8 52  1  0
  8 53  1  0
 11 54  1  6
 12 55  1  0
 12 56  1  0
 13 57  1  0
 13 58  1  0
 15 59  1  0
 18 60  1  0
 20 61  1  6
 22 62  1  0
 23 63  1  0
 26 64  1  0
 26 65  1  0
 27 66  1  0
 27 67  1  0
 29 68  1  0
 29 69  1  0
 30 70  1  0
 30 71  1  0
 32 72  1  0
 32 73  1  0
 33 74  1  0
 33 75  1  0
 34 76  1  0
 35 77  1  0
 36 78  1  0
 36 79  1  0
 38 80  1  0
 38 81  1  0
M  CHG  1   3   1
M  END
>  <UniqueID>  (21) 
21

>  <SMILES>  (21) 
CC[N@@H+](C)CCN(CC#N)[C@@H]1CCc2cc3c(cc2C1c1ccc(OCCN2CCOCC2)cc1)COC3

>  <Energy>  (21) 
124.58513647654053

>  <Genealogy>  (21) 
CC[NH+](C)CCN(CC#N)C1CCc2cc3c(cc2C1c1ccc(OCCN2CCOCC2)cc1)COC3 (protonated)
CC[N@@H+](C)CCN(CC#N)[C@@H]1CCc2cc3c(cc2C1c1ccc(OCCN2CCOCC2)cc1)COC3 (chirality)
CC[N@@H+](C)CCN(CC#N)[C@@H]1CCc2cc3c(cc2C1c1ccc(OCCN2CCOCC2)cc1)COC3 (3D coordinates assigned)
CC[N@@H+](C)CCN(CC#N)[C@@H]1CCc2cc3c(cc2C1c1ccc(OCCN2CCOCC2)cc1)COC3 (nonaromatic ring conformer: 124.58513647654053 kcal/mol)

>  <smiles>  (21) 
CCN(C)CCN(CC#N)C1CCc2cc3c(cc2C1c1ccc(OCCN2CCOCC2)cc1)COC3

>  <score_type>  (21) 
oracle

>  <origin>  (21) 
adg

>  <m_score__min__energy>  (21) 
-8.6799999999999997

>  <m_primary>  (21) 
energy

$$$$
21:0
     RDKit          3D

 56 58  0  0  0  0  0  0  0  0999 V2000
   -5.3970   26.0310  -30.4880 C   0  0  0  0  0  0  0  0  0  0  0  0
   -5.2030   24.5700  -30.4810 N   0  0  0  0  0  0  0  0  0  0  0  0
   -5.2070   24.0820  -29.0920 C   0  0  0  0  0  0  0  0  0  0  0  0
   -6.2540   23.8880  -31.2690 C   0  0  0  0  0  0  0  0  0  0  0  0
   -6.2850   22.3860  -30.9630 C   0  0  0  0  0  0  0  0  0  0  0  0
   -5.4570   21.6500  -31.9500 N   0  0  0  0  0  0  0  0  0  0  0  0
   -4.5190   20.6850  -31.3400 C   0  0  0  0  0  0  0  0  0  0  0  0
   -3.0650   21.1910  -31.4060 C   0  0  0  0  0  0  0  0  0  0  0  0
   -2.9780   22.6520  -31.2430 N   0  0  0  0  0  0  0  0  0  0  0  0
   -2.4640   23.0100  -29.9450 C   0  0  0  0  0  0  0  0  0  0  0  0
   -2.2970   22.0370  -28.9470 C   0  0  0  0  0  0  0  0  0  0  0  0
   -1.7600   22.3960  -27.7080 C   0  0  0  0  0  0  0  0  0  0  0  0
   -1.6080   21.5120  -26.8200 O   0  0  0  0  0  0  0  0  0  0  0  0
   -1.3950   23.7330  -27.4660 C   0  0  0  0  0  0  0  0  0  0  0  0
   -0.8510   24.1480  -26.2370 C   0  0  0  0  0  0  0  0  0  0  0  0
   -0.5040   25.4890  -26.0410 C   0  0  0  0  0  0  0  0  0  0  0  0
   -0.6930   26.4230  -27.0620 C   0  0  0  0  0  0  0  0  0  0  0  0
   -1.2310   26.0220  -28.2900 C   0  0  0  0  0  0  0  0  0  0  0  0
   -1.5840   24.6840  -28.4970 C   0  0  0  0  0  0  0  0  0  0  0  0
   -2.1030   24.2990  -29.6930 N   0  0  0  0  0  0  0  0  0  0  0  0
   -6.2520   21.0520  -33.0500 C   0  0  0  0  0  0  0  0  0  0  0  0
   -7.1690   19.9280  -32.6040 C   0  0  0  0  0  0  0  0  0  0  0  0
   -6.8180   18.5890  -32.5900 C   0  0  0  0  0  0  0  0  0  0  0  0
   -7.9150   17.8950  -32.1230 C   0  0  0  0  0  0  0  0  0  0  0  0
   -8.8900   18.8310  -31.8550 C   0  0  0  0  0  0  0  0  0  0  0  0
   -8.4320   20.0690  -32.1280 N   0  0  0  0  0  0  0  0  0  0  0  0
   -9.2220   21.2890  -31.9650 C   0  0  0  0  0  0  0  0  0  0  0  0
   -5.4459   26.3994  -29.4527 H   0  0  0  0  0  0  0  0  0  0  0  0
   -4.5546   26.5103  -31.0083 H   0  0  0  0  0  0  0  0  0  0  0  0
   -6.3353   26.2738  -31.0083 H   0  0  0  0  0  0  0  0  0  0  0  0
   -5.2000   24.9389  -28.4023 H   0  0  0  0  0  0  0  0  0  0  0  0
   -6.1101   23.4786  -28.9179 H   0  0  0  0  0  0  0  0  0  0  0  0
   -4.3139   23.4639  -28.9179 H   0  0  0  0  0  0  0  0  0  0  0  0
   -7.2316   24.3259  -31.0191 H   0  0  0  0  0  0  0  0  0  0  0  0
   -6.0323   24.0226  -32.3380 H   0  0  0  0  0  0  0  0  0  0  0  0
   -5.8876   22.2119  -29.9522 H   0  0  0  0  0  0  0  0  0  0  0  0
   -7.3229   22.0266  -31.0228 H   0  0  0  0  0  0  0  0  0  0  0  0
   -4.7971   20.5334  -30.2866 H   0  0  0  0  0  0  0  0  0  0  0  0
   -4.5815   19.7412  -31.9015 H   0  0  0  0  0  0  0  0  0  0  0  0
   -2.4854   20.7097  -30.6045 H   0  0  0  0  0  0  0  0  0  0  0  0
   -2.6630   20.9367  -32.3978 H   0  0  0  0  0  0  0  0  0  0  0  0
   -3.9150   23.0870  -31.4110 H   0  0  0  0  0  0  0  0  0  0  0  0
   -2.3220   23.0290  -31.9670 H   0  0  0  0  0  0  0  0  0  0  0  0
   -2.5883   20.9940  -29.1400 H   0  0  0  0  0  0  0  0  0  0  0  0
   -0.6983   23.4173  -25.4291 H   0  0  0  0  0  0  0  0  0  0  0  0
   -0.0801   25.8094  -25.0778 H   0  0  0  0  0  0  0  0  0  0  0  0
   -0.4184   27.4759  -26.9006 H   0  0  0  0  0  0  0  0  0  0  0  0
   -1.3765   26.7593  -29.0932 H   0  0  0  0  0  0  0  0  0  0  0  0
   -6.8682   21.8432  -33.5020 H   0  0  0  0  0  0  0  0  0  0  0  0
   -5.5356   20.6166  -33.7622 H   0  0  0  0  0  0  0  0  0  0  0  0
   -5.8510   18.1610  -32.8928 H   0  0  0  0  0  0  0  0  0  0  0  0
   -7.9957   16.8060  -31.9904 H   0  0  0  0  0  0  0  0  0  0  0  0
   -9.8959   18.6013  -31.4737 H   0  0  0  0  0  0  0  0  0  0  0  0
   -9.3572   21.4978  -30.8935 H   0  0  0  0  0  0  0  0  0  0  0  0
   -8.6976   22.1315  -32.4395 H   0  0  0  0  0  0  0  0  0  0  0  0
  -10.2054   21.1552  -32.4395 H   0  0  0  0  0  0  0  0  0  0  0  0
  1  2  1  0
  2  3  1  0
  2  4  1  0
  4  5  1  0
  5  6  1  0
  6  7  1  0
  7  8  1  0
  8  9  1  0
  9 10  1  0
 10 11  2  0
 11 12  1  0
 12 13  2  0
 12 14  1  0
 14 15  2  0
 15 16  1  0
 16 17  2  0
 17 18  1  0
 18 19  2  0
 19 20  1  0
  6 21  1  0
 21 22  1  0
 22 23  2  0
 23 24  1  0
 24 25  2  0
 25 26  1  0
 26 27  1  0
 20 10  1  0
 26 22  1  0
 19 14  1  0
  1 28  1  0
  1 29  1  0
  1 30  1  0
  3 31  1  0
  3 32  1  0
  3 33  1  0
  4 34  1  0
  4 35  1  0
  5 36  1  0
  5 37  1  0
  7 38  1  0
  7 39  1  0
  8 40  1  0
  8 41  1  0
  9 42  1  0
  9 43  1  0
 11 44  1  0
 15 45  1  0
 16 46  1  0
 17 47  1  0
 18 48  1  0
 21 49  1  0
 21 50  1  0
 23 51  1  0
 24 52  1  0
 25 53  1  0
 27 54  1  0
 27 55  1  0
 27 56  1  0
M  CHG  2   9   1  20  -1
M  END
>  <UniqueID>  (22) 
22

>  <SMILES>  (22) 
CN(C)CCN(CC[NH2+]c1cc(=O)c2ccccc2[n-]1)Cc1cccn1C

>  <Energy>  (22) 
90.8960636639061

>  <Genealogy>  (22) 
CN(C)CCN(CC[NH2+]c1cc(=O)c2ccccc2[n-]1)Cc1cccn1C (protonated)
CN(C)CCN(CC[NH2+]c1cc(=O)c2ccccc2[n-]1)Cc1cccn1C (3D coordinates assigned)
CN(C)CCN(CC[NH2+]c1cc(=O)c2ccccc2[n-]1)Cc1cccn1C (optimized conformer: 90.8960636639061 kcal/mol)

>  <smiles>  (22) 
CN(C)CCN(CCNc1cc(=O)c2ccccc2[nH]1)Cc1cccn1C

>  <score_type>  (22) 
oracle

>  <origin>  (22) 
adg

>  <m_score__min__energy>  (22) 
-7.7000000000000002

>  <m_primary>  (22) 
energy

$$$$
22:0
     RDKit          3D

 46 49  0  0  0  0  0  0  0  0999 V2000
   -2.6450   22.7660  -30.6150 C   0  0  0  0  0  0  0  0  0  0  0  0
   -3.5880   23.8690  -30.3470 N   0  0  0  0  0  0  0  0  0  0  0  0
   -3.1950   24.5520  -29.1030 C   0  0  0  0  0  0  0  0  0  0  0  0
   -4.9750   23.3710  -30.2290 C   0  0  0  0  0  0  0  0  0  0  0  0
   -5.8780   23.9720  -31.3120 C   0  0  0  0  0  0  0  0  0  0  0  0
   -5.6280   23.3200  -32.5970 N   0  0  0  0  0  0  0  0  0  0  0  0
   -5.6740   21.8910  -32.7110 C   0  0  0  0  0  0  0  0  0  0  0  0
   -6.8410   21.1400  -32.4380 C   0  0  0  0  0  0  0  0  0  0  0  0
   -7.9990   21.7660  -31.9360 C   0  0  0  0  0  0  0  0  0  0  0  0
   -9.1350   21.0180  -31.6320 C   0  0  0  0  0  0  0  0  0  0  0  0
   -9.1290   19.6370  -31.7970 C   0  0  0  0  0  0  0  0  0  0  0  0
   -7.9920   18.9870  -32.2780 C   0  0  0  0  0  0  0  0  0  0  0  0
   -6.8300   19.7150  -32.6320 C   0  0  0  0  0  0  0  0  0  0  0  0
   -5.6930   19.0850  -33.1210 N   0  0  0  0  0  0  0  0  0  0  0  0
   -5.7150   17.6850  -33.5790 C   0  0  0  0  0  0  0  0  0  0  0  0
   -4.5440   19.8270  -33.2250 C   0  0  0  0  0  0  0  0  0  0  0  0
   -4.5300   21.1920  -33.0610 C   0  0  0  0  0  0  0  0  0  0  0  0
   -3.3320   21.6930  -33.2780 O   0  0  0  0  0  0  0  0  0  0  0  0
   -2.5430   20.6780  -33.5570 C   0  0  0  0  0  0  0  0  0  0  0  0
   -1.1780   20.7340  -33.8290 C   0  0  0  0  0  0  0  0  0  0  0  0
   -0.5210   21.9190  -33.8630 F   0  0  0  0  0  0  0  0  0  0  0  0
   -0.4960   19.5260  -34.0500 C   0  0  0  0  0  0  0  0  0  0  0  0
   -1.1830   18.2960  -33.9780 C   0  0  0  0  0  0  0  0  0  0  0  0
   -2.5630   18.2600  -33.7030 C   0  0  0  0  0  0  0  0  0  0  0  0
   -3.2310   19.4790  -33.5300 C   0  0  0  0  0  0  0  0  0  0  0  0
   -2.2883   22.3488  -29.6617 H   0  0  0  0  0  0  0  0  0  0  0  0
   -3.1546   21.9799  -31.1915 H   0  0  0  0  0  0  0  0  0  0  0  0
   -1.7892   23.1472  -31.1915 H   0  0  0  0  0  0  0  0  0  0  0  0
   -3.5341   23.9627  -28.2383 H   0  0  0  0  0  0  0  0  0  0  0  0
   -2.1002   24.6538  -29.0707 H   0  0  0  0  0  0  0  0  0  0  0  0
   -3.6571   25.5497  -29.0707 H   0  0  0  0  0  0  0  0  0  0  0  0
   -4.9722   22.2759  -30.3322 H   0  0  0  0  0  0  0  0  0  0  0  0
   -5.3678   23.6689  -29.2456 H   0  0  0  0  0  0  0  0  0  0  0  0
   -6.9310   23.8261  -31.0293 H   0  0  0  0  0  0  0  0  0  0  0  0
   -5.6598   25.0460  -31.4060 H   0  0  0  0  0  0  0  0  0  0  0  0
   -5.8280   23.8800  -33.4560 H   0  0  0  0  0  0  0  0  0  0  0  0
   -8.0066   22.8552  -31.7826 H   0  0  0  0  0  0  0  0  0  0  0  0
  -10.0395   21.5216  -31.2603 H   0  0  0  0  0  0  0  0  0  0  0  0
  -10.0270   19.0531  -31.5465 H   0  0  0  0  0  0  0  0  0  0  0  0
   -7.9983   17.8921  -32.3839 H   0  0  0  0  0  0  0  0  0  0  0  0
   -5.7255   17.0142  -32.7073 H   0  0  0  0  0  0  0  0  0  0  0  0
   -6.6160   17.5118  -34.1858 H   0  0  0  0  0  0  0  0  0  0  0  0
   -4.8199   17.4836  -34.1858 H   0  0  0  0  0  0  0  0  0  0  0  0
    0.5795   19.5392  -34.2804 H   0  0  0  0  0  0  0  0  0  0  0  0
   -0.6349   17.3558  -34.1383 H   0  0  0  0  0  0  0  0  0  0  0  0
   -3.1007   17.3034  -33.6263 H   0  0  0  0  0  0  0  0  0  0  0  0
  1  2  1  0
  2  3  1  0
  2  4  1  0
  4  5  1  0
  5  6  1  0
  6  7  1  0
  7  8  2  0
  8  9  1  0
  9 10  2  0
 10 11  1  0
 11 12  2  0
 12 13  1  0
 13 14  2  0
 14 15  1  0
 14 16  1  0
 16 17  2  0
 17 18  1  0
 18 19  1  0
 19 20  2  0
 20 21  1  0
 20 22  1  0
 22 23  2  0
 23 24  1  0
 24 25  2  0
 17  7  1  0
 25 19  1  0
 13  8  1  0
 25 16  1  0
  1 26  1  0
  1 27  1  0
  1 28  1  0
  3 29  1  0
  3 30  1  0
  3 31  1  0
  4 32  1  0
  4 33  1  0
  5 34  1  0
  5 35  1  0
  6 36  1  0
  9 37  1  0
 10 38  1  0
 11 39  1  0
 12 40  1  0
 15 41  1  0
 15 42  1  0
 15 43  1  0
 22 44  1  0
 23 45  1  0
 24 46  1  0
M  CHG  1  14   1
M  END
>  <UniqueID>  (23) 
23

>  <SMILES>  (23) 
CN(C)CCNc1c2ccccc2[n+](C)c2c1oc1c(F)cccc12

>  <Energy>  (23) 
109.77504192426076

>  <Genealogy>  (23) 
CN(C)CCNc1c2ccccc2[n+](C)c2c1oc1c(F)cccc12 (3D coordinates assigned)
CN(C)CCNc1c2ccccc2[n+](C)c2c1oc1c(F)cccc12 (optimized conformer: 109.77504192426076 kcal/mol)

>  <smiles>  (23) 
CN(C)CCNc1c2ccccc2[n+](C)c2c1oc1c(F)cccc12

>  <score_type>  (23) 
oracle

>  <origin>  (23) 
adg

>  <m_score__min__energy>  (23) 
-8.1699999999999999

>  <m_primary>  (23) 
energy

$$$$
23:0
     RDKit          3D

 44 45  0  0  0  0  0  0  0  0999 V2000
   -2.4060   25.1780  -26.6810 C   0  0  0  0  0  0  0  0  0  0  0  0
   -1.4790   25.4690  -27.8550 C   0  0  0  0  0  0  0  0  0  0  0  0
   -2.1590   25.2770  -29.0960 O   0  0  0  0  0  0  0  0  0  0  0  0
   -2.7820   24.0900  -29.5170 C   0  0  0  0  0  0  0  0  0  0  0  0
   -2.3620   22.8200  -29.0770 C   0  0  0  0  0  0  0  0  0  0  0  0
   -3.0250   21.6710  -29.5070 C   0  0  0  0  0  0  0  0  0  0  0  0
   -4.1160   21.7710  -30.3690 C   0  0  0  0  0  0  0  0  0  0  0  0
   -4.5480   23.0240  -30.8290 C   0  0  0  0  0  0  0  0  0  0  0  0
   -5.7960   23.1010  -31.6860 C   0  0  0  0  0  0  0  0  0  0  0  0
   -6.6700   21.9340  -31.4910 N   0  0  0  0  0  0  0  0  0  0  0  0
   -8.0920   22.2960  -31.5880 C   0  0  0  0  0  0  0  0  0  0  0  0
   -8.9350   21.0770  -31.9740 C   0  0  0  0  0  0  0  0  0  0  0  0
   -8.0790   19.8890  -32.2910 C   0  0  0  0  0  0  0  0  0  0  0  0
   -8.0820   18.6790  -31.6100 C   0  0  0  0  0  0  0  0  0  0  0  0
   -7.1350   17.7710  -32.0960 C   0  0  0  0  0  0  0  0  0  0  0  0
   -6.3810   18.2660  -33.1530 C   0  0  0  0  0  0  0  0  0  0  0  0
   -6.8920   19.8350  -33.4800 S   0  0  0  0  0  0  0  0  0  0  0  0
   -3.8600   24.1870  -30.4140 C   0  0  0  0  0  0  0  0  0  0  0  0
   -4.2580   25.4500  -30.8640 O   0  0  0  0  0  0  0  0  0  0  0  0
   -5.4930   26.0460  -30.4680 C   0  0  0  0  0  0  0  0  0  0  0  0
   -6.1000   25.3040  -29.2840 C   0  0  0  0  0  0  0  0  0  0  0  0
   -1.8668   25.3473  -25.7373 H   0  0  0  0  0  0  0  0  0  0  0  0
   -3.2792   25.8452  -26.7291 H   0  0  0  0  0  0  0  0  0  0  0  0
   -2.7412   24.1314  -26.7291 H   0  0  0  0  0  0  0  0  0  0  0  0
   -1.1318   26.5108  -27.7911 H   0  0  0  0  0  0  0  0  0  0  0  0
   -0.6244   24.7779  -27.8099 H   0  0  0  0  0  0  0  0  0  0  0  0
   -1.5067   22.7338  -28.3907 H   0  0  0  0  0  0  0  0  0  0  0  0
   -2.6859   20.6821  -29.1648 H   0  0  0  0  0  0  0  0  0  0  0  0
   -4.6423   20.8603  -30.6910 H   0  0  0  0  0  0  0  0  0  0  0  0
   -6.3539   24.0111  -31.4204 H   0  0  0  0  0  0  0  0  0  0  0  0
   -5.4839   23.1199  -32.7406 H   0  0  0  0  0  0  0  0  0  0  0  0
   -6.4820   21.5260  -30.5450 H   0  0  0  0  0  0  0  0  0  0  0  0
   -8.4345   22.6787  -30.6152 H   0  0  0  0  0  0  0  0  0  0  0  0
   -8.2088   23.0672  -32.3637 H   0  0  0  0  0  0  0  0  0  0  0  0
   -9.6001   20.8235  -31.1353 H   0  0  0  0  0  0  0  0  0  0  0  0
   -9.5145   21.3319  -32.8736 H   0  0  0  0  0  0  0  0  0  0  0  0
   -8.7603   18.4568  -30.7730 H   0  0  0  0  0  0  0  0  0  0  0  0
   -7.0002   16.7613  -31.6808 H   0  0  0  0  0  0  0  0  0  0  0  0
   -5.5854   17.7241  -33.6853 H   0  0  0  0  0  0  0  0  0  0  0  0
   -5.3125   27.0929  -30.1827 H   0  0  0  0  0  0  0  0  0  0  0  0
   -6.1953   25.9936  -31.3130 H   0  0  0  0  0  0  0  0  0  0  0  0
   -5.7357   25.7493  -28.3464 H   0  0  0  0  0  0  0  0  0  0  0  0
   -7.1964   25.3822  -29.3253 H   0  0  0  0  0  0  0  0  0  0  0  0
   -5.8061   24.2448  -29.3253 H   0  0  0  0  0  0  0  0  0  0  0  0
  1  2  1  0
  2  3  1  0
  3  4  1  0
  4  5  2  0
  5  6  1  0
  6  7  2  0
  7  8  1  0
  8  9  1  0
  9 10  1  0
 10 11  1  0
 11 12  1  0
 12 13  1  0
 13 14  2  0
 14 15  1  0
 15 16  2  0
 16 17  1  0
  8 18  2  0
 18 19  1  0
 19 20  1  0
 20 21  1  0
 18  4  1  0
 17 13  1  0
  1 22  1  0
  1 23  1  0
  1 24  1  0
  2 25  1  0
  2 26  1  0
  5 27  1  0
  6 28  1  0
  7 29  1  0
  9 30  1  0
  9 31  1  0
 10 32  1  0
 11 33  1  0
 11 34  1  0
 12 35  1  0
 12 36  1  0
 14 37  1  0
 15 38  1  0
 16 39  1  0
 20 40  1  0
 20 41  1  0
 21 42  1  0
 21 43  1  0
 21 44  1  0
M  END
>  <UniqueID>  (24) 
24

>  <SMILES>  (24) 
CCOc1cccc(CNCCc2cccs2)c1OCC

>  <Energy>  (24) 
67.91166250435637

>  <Genealogy>  (24) 
CCOc1cccc(CNCCc2cccs2)c1OCC (3D coordinates assigned)
CCOc1cccc(CNCCc2cccs2)c1OCC (optimized conformer: 67.91166250435637 kcal/mol)

>  <smiles>  (24) 
CCOc1cccc(CNCCc2cccs2)c1OCC

>  <score_type>  (24) 
oracle

>  <origin>  (24) 
adg

>  <m_score__min__energy>  (24) 
-8.2899999999999991

>  <m_primary>  (24) 
energy

$$$$
24:0
     RDKit          3D

 45 46  0  0  0  0  0  0  0  0999 V2000
   -1.6850   21.5040  -30.3440 C   0  0  0  0  0  0  0  0  0  0  0  0
   -3.0400   21.0660  -29.7910 C   0  0  0  0  0  0  0  0  0  0  0  0
   -3.0690   21.1240  -28.3130 N   0  0  0  0  0  0  0  0  0  0  0  0
   -2.2300   20.1240  -27.6100 C   0  0  0  0  0  0  0  0  0  0  0  0
   -3.0110   19.1670  -26.7060 C   0  0  0  0  0  0  0  0  0  0  0  0
   -3.0250   22.4890  -27.7340 C   0  0  0  0  0  0  0  0  0  0  0  0
   -3.8480   23.5430  -28.5100 C   0  0  0  0  0  0  0  0  0  0  0  0
   -2.9420   24.5450  -29.2350 C   0  0  0  0  0  0  0  0  0  0  0  0
   -3.5290   24.9770  -30.4610 O   0  0  0  0  0  0  0  0  0  0  0  0
   -4.9100   25.0200  -30.6830 C   0  0  0  0  0  0  0  0  0  0  0  0
   -5.5630   26.0770  -30.4630 O   0  0  0  0  0  0  0  0  0  0  0  0
   -5.6020   23.8250  -31.1740 C   0  0  0  0  0  0  0  0  0  0  0  0
   -5.0310   22.8310  -31.9700 C   0  0  0  0  0  0  0  0  0  0  0  0
   -5.9410   21.8160  -32.2860 C   0  0  0  0  0  0  0  0  0  0  0  0
   -5.6770   20.6860  -33.0640 C   0  0  0  0  0  0  0  0  0  0  0  0
   -6.7050   19.7520  -33.2930 C   0  0  0  0  0  0  0  0  0  0  0  0
   -6.4140   18.6260  -34.0770 O   0  0  0  0  0  0  0  0  0  0  0  0
   -6.4340   17.2860  -33.5970 C   0  0  0  0  0  0  0  0  0  0  0  0
   -7.9900   19.9740  -32.7320 C   0  0  0  0  0  0  0  0  0  0  0  0
   -8.2420   21.1120  -31.9530 C   0  0  0  0  0  0  0  0  0  0  0  0
   -7.2030   22.0140  -31.7480 C   0  0  0  0  0  0  0  0  0  0  0  0
   -7.2250   23.4450  -30.8690 S   0  0  0  0  0  0  0  0  0  0  0  0
   -1.0025   21.7246  -29.5100 H   0  0  0  0  0  0  0  0  0  0  0  0
   -1.2621   20.6968  -30.9601 H   0  0  0  0  0  0  0  0  0  0  0  0
   -1.8146   22.4060  -30.9601 H   0  0  0  0  0  0  0  0  0  0  0  0
   -3.8203   21.7309  -30.1898 H   0  0  0  0  0  0  0  0  0  0  0  0
   -3.2169   20.0247  -30.0982 H   0  0  0  0  0  0  0  0  0  0  0  0
   -1.6997   19.5269  -28.3665 H   0  0  0  0  0  0  0  0  0  0  0  0
   -1.5498   20.6891  -26.9558 H   0  0  0  0  0  0  0  0  0  0  0  0
   -2.8108   19.4123  -25.6525 H   0  0  0  0  0  0  0  0  0  0  0  0
   -4.0875   19.2684  -26.9079 H   0  0  0  0  0  0  0  0  0  0  0  0
   -2.6959   18.1326  -26.9079 H   0  0  0  0  0  0  0  0  0  0  0  0
   -3.4137   22.4386  -26.7062 H   0  0  0  0  0  0  0  0  0  0  0  0
   -1.9755   22.8149  -27.7823 H   0  0  0  0  0  0  0  0  0  0  0  0
   -4.4772   23.0292  -29.2517 H   0  0  0  0  0  0  0  0  0  0  0  0
   -4.4651   24.0974  -27.7877 H   0  0  0  0  0  0  0  0  0  0  0  0
   -2.7819   25.4188  -28.5862 H   0  0  0  0  0  0  0  0  0  0  0  0
   -1.9861   24.0501  -29.4615 H   0  0  0  0  0  0  0  0  0  0  0  0
   -3.9850   22.8439  -32.3102 H   0  0  0  0  0  0  0  0  0  0  0  0
   -4.6765   20.5278  -33.4930 H   0  0  0  0  0  0  0  0  0  0  0  0
   -6.4339   17.2905  -32.4970 H   0  0  0  0  0  0  0  0  0  0  0  0
   -7.3398   16.7794  -33.9615 H   0  0  0  0  0  0  0  0  0  0  0  0
   -5.5437   16.7526  -33.9615 H   0  0  0  0  0  0  0  0  0  0  0  0
   -8.7955   19.2463  -32.9102 H   0  0  0  0  0  0  0  0  0  0  0  0
   -9.2358   21.2872  -31.5151 H   0  0  0  0  0  0  0  0  0  0  0  0
  1  2  1  0
  2  3  1  0
  3  4  1  0
  4  5  1  0
  3  6  1  0
  6  7  1  0
  7  8  1  0
  8  9  1  0
  9 10  1  0
 10 11  2  0
 10 12  1  0
 12 13  2  0
 13 14  1  0
 14 15  2  0
 15 16  1  0
 16 17  1  0
 17 18  1  0
 16 19  2  0
 19 20  1  0
 20 21  2  0
 21 22  1  0
 22 12  1  0
 21 14  1  0
  1 23  1  0
  1 24  1  0
  1 25  1  0
  2 26  1  0
  2 27  1  0
  4 28  1  0
  4 29  1  0
  5 30  1  0
  5 31  1  0
  5 32  1  0
  6 33  1  0
  6 34  1  0
  7 35  1  0
  7 36  1  0
  8 37  1  0
  8 38  1  0
 13 39  1  0
 15 40  1  0
 18 41  1  0
 18 42  1  0
 18 43  1  0
 19 44  1  0
 20 45  1  0
M  END
>  <UniqueID>  (25) 
25

>  <SMILES>  (25) 
CCN(CC)CCCOC(=O)c1cc2cc(OC)ccc2s1

>  <Energy>  (25) 
75.1141324065461

>  <Genealogy>  (25) 
CCN(CC)CCCOC(=O)c1cc2cc(OC)ccc2s1 (3D coordinates assigned)
CCN(CC)CCCOC(=O)c1cc2cc(OC)ccc2s1 (optimized conformer: 75.1141324065461 kcal/mol)

>  <smiles>  (25) 
CCN(CC)CCCOC(=O)c1cc2cc(OC)ccc2s1

>  <score_type>  (25) 
oracle

>  <origin>  (25) 
adg

>  <m_score__min__energy>  (25) 
-7.3300000000000001

>  <m_primary>  (25) 
energy

$$$$
25:0
     RDKit          3D

 78 81  0  0  0  0  0  0  0  0999 V2000
   -4.9960   12.6120  -31.7890 C   0  0  0  0  0  0  0  0  0  0  0  0
   -4.5940   14.0830  -31.5980 C   0  0  0  0  0  0  0  0  0  0  0  0
   -4.6900   14.9190  -32.8270 N   0  0  0  0  0  0  0  0  0  0  0  0
   -3.3720   15.2210  -33.4450 C   0  0  0  0  0  0  0  0  0  0  0  0
   -3.4250   15.2560  -34.9760 C   0  0  0  0  0  0  0  0  0  0  0  0
   -5.4550   16.1660  -32.5640 C   0  0  0  0  0  0  0  0  0  0  0  0
   -6.6240   16.3810  -33.5570 C   0  0  0  0  0  0  0  0  0  0  0  0
   -6.5100   17.6760  -34.2320 N   0  0  0  0  0  0  0  0  0  0  0  0
   -6.0970   18.8730  -33.5460 C   0  0  0  0  0  0  0  0  0  0  0  0
   -7.0270   19.6500  -32.8300 C   0  0  0  0  0  0  0  0  0  0  0  0
   -8.3620   19.2300  -32.6630 C   0  0  0  0  0  0  0  0  0  0  0  0
   -9.2860   20.0390  -32.0040 C   0  0  0  0  0  0  0  0  0  0  0  0
   -8.8960   21.2750  -31.4980 C   0  0  0  0  0  0  0  0  0  0  0  0
   -7.5750   21.7020  -31.6310 C   0  0  0  0  0  0  0  0  0  0  0  0
   -6.6110   20.8910  -32.2820 C   0  0  0  0  0  0  0  0  0  0  0  0
   -5.2940   21.2870  -32.3870 N   0  0  0  0  0  0  0  0  0  0  0  0
   -4.9780   22.7310  -32.3320 C   0  0  0  0  0  0  0  0  0  0  0  0
   -4.3330   20.3760  -32.7810 C   0  0  0  0  0  0  0  0  0  0  0  0
   -4.7410   19.2490  -33.5390 C   0  0  0  0  0  0  0  0  0  0  0  0
   -3.7940   18.5610  -34.3160 C   0  0  0  0  0  0  0  0  0  0  0  0
   -2.4650   18.9650  -34.3340 C   0  0  0  0  0  0  0  0  0  0  0  0
   -2.0180   19.9440  -33.4450 C   0  0  0  0  0  0  0  0  0  0  0  0
   -0.6520   20.2520  -33.3920 C   0  0  0  0  0  0  0  0  0  0  0  0
   -0.1600   21.0770  -32.3900 C   0  0  0  0  0  0  0  0  0  0  0  0
   -1.0070   21.5310  -31.3840 C   0  0  0  0  0  0  0  0  0  0  0  0
   -2.3880   21.2520  -31.4150 C   0  0  0  0  0  0  0  0  0  0  0  0
   -3.1490   21.4160  -30.1100 C   0  0  0  0  0  0  0  0  0  0  0  0
   -2.3150   21.0530  -28.9550 N   0  0  0  0  0  0  0  0  0  0  0  0
   -2.7000   21.8500  -27.7830 C   0  0  0  0  0  0  0  0  0  0  0  0
   -1.6070   21.8040  -26.7060 C   0  0  0  0  0  0  0  0  0  0  0  0
   -1.6080   20.4720  -25.9390 C   0  0  0  0  0  0  0  0  0  0  0  0
   -2.1950   19.3960  -26.7670 N   0  0  0  0  0  0  0  0  0  0  0  0
   -1.1360   18.4980  -27.2580 C   0  0  0  0  0  0  0  0  0  0  0  0
   -3.1820   18.6110  -26.0030 C   0  0  0  0  0  0  0  0  0  0  0  0
   -2.9310   20.5680  -32.5500 C   0  0  0  0  0  0  0  0  0  0  0  0
   -5.1259   12.1367  -30.8055 H   0  0  0  0  0  0  0  0  0  0  0  0
   -5.9413   12.5600  -32.3491 H   0  0  0  0  0  0  0  0  0  0  0  0
   -4.2085   12.0864  -32.3491 H   0  0  0  0  0  0  0  0  0  0  0  0
   -5.2518   14.5214  -30.8331 H   0  0  0  0  0  0  0  0  0  0  0  0
   -3.5334   14.0799  -31.3064 H   0  0  0  0  0  0  0  0  0  0  0  0
   -5.2430   14.3480  -33.5120 H   0  0  0  0  0  0  0  0  0  0  0  0
   -3.0313   16.2023  -33.0831 H   0  0  0  0  0  0  0  0  0  0  0  0
   -2.6802   14.4157  -33.1571 H   0  0  0  0  0  0  0  0  0  0  0  0
   -4.3024   15.8354  -35.2994 H   0  0  0  0  0  0  0  0  0  0  0  0
   -2.5104   15.7283  -35.3638 H   0  0  0  0  0  0  0  0  0  0  0  0
   -3.5003   14.2294  -35.3638 H   0  0  0  0  0  0  0  0  0  0  0  0
   -5.8657   16.1166  -31.5448 H   0  0  0  0  0  0  0  0  0  0  0  0
   -4.7601   17.0098  -32.6869 H   0  0  0  0  0  0  0  0  0  0  0  0
   -6.6072   15.5801  -34.3108 H   0  0  0  0  0  0  0  0  0  0  0  0
   -7.5689   16.3619  -32.9942 H   0  0  0  0  0  0  0  0  0  0  0  0
   -6.8650   17.7590  -35.2100 H   0  0  0  0  0  0  0  0  0  0  0  0
   -8.6781   18.2529  -33.0571 H   0  0  0  0  0  0  0  0  0  0  0  0
  -10.3254   19.6997  -31.8837 H   0  0  0  0  0  0  0  0  0  0  0  0
   -9.6316   21.9172  -30.9916 H   0  0  0  0  0  0  0  0  0  0  0  0
   -7.2771   22.6803  -31.2258 H   0  0  0  0  0  0  0  0  0  0  0  0
   -4.9079   23.0513  -31.2820 H   0  0  0  0  0  0  0  0  0  0  0  0
   -4.0182   22.9158  -32.8366 H   0  0  0  0  0  0  0  0  0  0  0  0
   -5.7729   23.2998  -32.8366 H   0  0  0  0  0  0  0  0  0  0  0  0
   -4.1079   17.6941  -34.9159 H   0  0  0  0  0  0  0  0  0  0  0  0
   -1.7634   18.5125  -35.0503 H   0  0  0  0  0  0  0  0  0  0  0  0
    0.0328   19.8385  -34.1471 H   0  0  0  0  0  0  0  0  0  0  0  0
    0.8997   21.3719  -32.3913 H   0  0  0  0  0  0  0  0  0  0  0  0
   -0.5920   22.1172  -30.5509 H   0  0  0  0  0  0  0  0  0  0  0  0
   -3.4642   22.4650  -30.0086 H   0  0  0  0  0  0  0  0  0  0  0  0
   -4.0220   20.7471  -30.1312 H   0  0  0  0  0  0  0  0  0  0  0  0
   -2.4960   20.0500  -28.7210 H   0  0  0  0  0  0  0  0  0  0  0  0
   -2.8565   22.8938  -28.0929 H   0  0  0  0  0  0  0  0  0  0  0  0
   -3.6260   21.4312  -27.3620 H   0  0  0  0  0  0  0  0  0  0  0  0
   -0.6273   21.9347  -27.1888 H   0  0  0  0  0  0  0  0  0  0  0  0
   -1.8070   22.6105  -25.9852 H   0  0  0  0  0  0  0  0  0  0  0  0
   -0.5735   20.2041  -25.6781 H   0  0  0  0  0  0  0  0  0  0  0  0
   -2.2121   20.5879  -25.0271 H   0  0  0  0  0  0  0  0  0  0  0  0
   -0.6086   18.0508  -26.4025 H   0  0  0  0  0  0  0  0  0  0  0  0
   -1.5851   17.7012  -27.8691 H   0  0  0  0  0  0  0  0  0  0  0  0
   -0.4233   19.0713  -27.8691 H   0  0  0  0  0  0  0  0  0  0  0  0
   -3.0069   18.7503  -24.9260 H   0  0  0  0  0  0  0  0  0  0  0  0
   -4.1968   18.9515  -26.2565 H   0  0  0  0  0  0  0  0  0  0  0  0
   -3.0787   17.5456  -26.2565 H   0  0  0  0  0  0  0  0  0  0  0  0
  1  2  1  0
  2  3  1  0
  3  4  1  0
  4  5  1  0
  3  6  1  0
  6  7  1  0
  7  8  1  0
  8  9  1  0
  9 10  2  0
 10 11  1  0
 11 12  2  0
 12 13  1  0
 13 14  2  0
 14 15  1  0
 15 16  2  0
 16 17  1  0
 16 18  1  0
 18 19  2  0
 19 20  1  0
 20 21  2  0
 21 22  1  0
 22 23  2  0
 23 24  1  0
 24 25  2  0
 25 26  1  0
 26 27  1  0
 27 28  1  0
 28 29  1  0
 29 30  1  0
 30 31  1  0
 31 32  1  0
 32 33  1  0
 32 34  1  0
 26 35  2  0
 19  9  1  0
 35 22  1  0
 15 10  1  0
 35 18  1  0
  1 36  1  0
  1 37  1  0
  1 38  1  0
  2 39  1  0
  2 40  1  0
  3 41  1  0
  4 42  1  0
  4 43  1  0
  5 44  1  0
  5 45  1  0
  5 46  1  0
  6 47  1  0
  6 48  1  0
  7 49  1  0
  7 50  1  0
  8 51  1  0
 11 52  1  0
 12 53  1  0
 13 54  1  0
 14 55  1  0
 17 56  1  0
 17 57  1  0
 17 58  1  0
 20 59  1  0
 21 60  1  0
 23 61  1  0
 24 62  1  0
 25 63  1  0
 27 64  1  0
 27 65  1  0
 28 66  1  0
 29 67  1  0
 29 68  1  0
 30 69  1  0
 30 70  1  0
 31 71  1  0
 31 72  1  0
 33 73  1  0
 33 74  1  0
 33 75  1  0
 34 76  1  0
 34 77  1  0
 34 78  1  0
M  CHG  2   3   1  16   1
M  END
>  <UniqueID>  (26) 
26

>  <SMILES>  (26) 
CC[NH+](CC)CCNc1c2ccccc2[n+](C)c2c1ccc1cccc(CNCCCN(C)C)c12

>  <Energy>  (26) 
129.80999789425007

>  <Genealogy>  (26) 
CC[NH+](CC)CCNc1c2ccccc2[n+](C)c2c1ccc1cccc(CNCCCN(C)C)c12 (protonated)
CC[NH+](CC)CCNc1c2ccccc2[n+](C)c2c1ccc1cccc(CNCCCN(C)C)c12 (3D coordinates assigned)
CC[NH+](CC)CCNc1c2ccccc2[n+](C)c2c1ccc1cccc(CNCCCN(C)C)c12 (optimized conformer: 129.80999789425007 kcal/mol)

>  <smiles>  (26) 
CCN(CC)CCNc1c2ccccc2[n+](C)c2c1ccc1cccc(CNCCCN(C)C)c12

>  <score_type>  (26) 
oracle

>  <origin>  (26) 
adg

>  <m_score__min__energy>  (26) 
-8.4900000000000002

>  <m_primary>  (26) 
energy

$$$$
26:0
     RDKit          3D

 52 54  0  0  0  0  0  0  0  0999 V2000
   -1.3920   26.0230  -25.7700 C   0  0  0  0  0  0  0  0  0  0  0  0
   -1.4970   25.1300  -26.9710 C   0  0  0  0  0  0  0  0  0  0  0  0
   -0.3450   24.5870  -27.5550 C   0  0  0  0  0  0  0  0  0  0  0  0
   -0.4410   23.7860  -28.6980 C   0  0  0  0  0  0  0  0  0  0  0  0
   -1.6930   23.5180  -29.2770 C   0  0  0  0  0  0  0  0  0  0  0  0
   -1.7650   22.6590  -30.5130 C   0  0  0  0  0  0  0  0  0  0  0  0
   -2.8540   24.1050  -28.7210 C   0  0  0  0  0  0  0  0  0  0  0  0
   -4.1410   23.9280  -29.3370 N   0  0  0  0  0  0  0  0  0  0  0  0
   -4.7370   25.0480  -30.0750 C   0  0  0  0  0  0  0  0  0  0  0  0
   -5.6410   24.5590  -31.2300 C   0  0  0  0  0  0  0  0  0  0  0  0
   -6.0060   23.1280  -31.1190 N   0  0  0  0  0  0  0  0  0  0  0  0
   -7.1610   22.8230  -31.9870 C   0  0  0  0  0  0  0  0  0  0  0  0
   -7.0970   21.3960  -32.4580 C   0  0  0  0  0  0  0  0  0  0  0  0
   -8.1610   20.5190  -32.6140 C   0  0  0  0  0  0  0  0  0  0  0  0
   -9.6040   20.7970  -32.3210 C   0  0  0  0  0  0  0  0  0  0  0  0
   -7.7150   19.3890  -33.1950 N   0  0  0  0  0  0  0  0  0  0  0  0
   -6.4110   19.5030  -33.4020 N   0  0  0  0  0  0  0  0  0  0  0  0
   -5.5970   18.4710  -34.0400 C   0  0  0  0  0  0  0  0  0  0  0  0
   -5.9940   20.7100  -32.9560 C   0  0  0  0  0  0  0  0  0  0  0  0
   -4.5970   21.2450  -33.0770 C   0  0  0  0  0  0  0  0  0  0  0  0
   -6.2810   22.7680  -29.7150 C   0  0  0  0  0  0  0  0  0  0  0  0
   -4.9610   22.7750  -28.9480 C   0  0  0  0  0  0  0  0  0  0  0  0
   -2.7450   24.9030  -27.5690 C   0  0  0  0  0  0  0  0  0  0  0  0
   -1.4633   25.4167  -24.8549 H   0  0  0  0  0  0  0  0  0  0  0  0
   -0.4259   26.5486  -25.7873 H   0  0  0  0  0  0  0  0  0  0  0  0
   -2.2099   26.7584  -25.7873 H   0  0  0  0  0  0  0  0  0  0  0  0
    0.6409   24.7917  -27.1121 H   0  0  0  0  0  0  0  0  0  0  0  0
    0.4700   23.3630  -29.1466 H   0  0  0  0  0  0  0  0  0  0  0  0
   -1.8536   21.6023  -30.2205 H   0  0  0  0  0  0  0  0  0  0  0  0
   -2.6420   22.9488  -31.1104 H   0  0  0  0  0  0  0  0  0  0  0  0
   -0.8520   22.7988  -31.1104 H   0  0  0  0  0  0  0  0  0  0  0  0
   -5.3412   25.6505  -29.3807 H   0  0  0  0  0  0  0  0  0  0  0  0
   -3.9208   25.6442  -30.5089 H   0  0  0  0  0  0  0  0  0  0  0  0
   -6.5645   25.1566  -31.2282 H   0  0  0  0  0  0  0  0  0  0  0  0
   -5.0725   24.6800  -32.1639 H   0  0  0  0  0  0  0  0  0  0  0  0
   -8.0913   22.9769  -31.4206 H   0  0  0  0  0  0  0  0  0  0  0  0
   -7.1377   23.4900  -32.8614 H   0  0  0  0  0  0  0  0  0  0  0  0
   -9.7580   20.8267  -31.2322 H   0  0  0  0  0  0  0  0  0  0  0  0
   -9.8868   21.7661  -32.7578 H   0  0  0  0  0  0  0  0  0  0  0  0
  -10.2266   20.0023  -32.7578 H   0  0  0  0  0  0  0  0  0  0  0  0
   -8.2960   18.5630  -33.4670 H   0  0  0  0  0  0  0  0  0  0  0  0
   -5.1123   17.8564  -33.2671 H   0  0  0  0  0  0  0  0  0  0  0  0
   -6.2381   17.8336  -34.6666 H   0  0  0  0  0  0  0  0  0  0  0  0
   -4.8278   18.9460  -34.6666 H   0  0  0  0  0  0  0  0  0  0  0  0
   -4.1776   21.4056  -32.0728 H   0  0  0  0  0  0  0  0  0  0  0  0
   -3.9735   20.5220  -33.6234 H   0  0  0  0  0  0  0  0  0  0  0  0
   -4.6159   22.1995  -33.6234 H   0  0  0  0  0  0  0  0  0  0  0  0
   -6.9718   23.5006  -29.2722 H   0  0  0  0  0  0  0  0  0  0  0  0
   -6.7423   21.7707  -29.6641 H   0  0  0  0  0  0  0  0  0  0  0  0
   -5.1704   22.8283  -27.8694 H   0  0  0  0  0  0  0  0  0  0  0  0
   -4.4096   21.8531  -29.1847 H   0  0  0  0  0  0  0  0  0  0  0  0
   -3.6480   25.3541  -27.1320 H   0  0  0  0  0  0  0  0  0  0  0  0
  1  2  1  0
  2  3  2  0
  3  4  1  0
  4  5  2  0
  5  6  1  0
  5  7  1  0
  7  8  1  0
  8  9  1  0
  9 10  1  0
 10 11  1  0
 11 12  1  0
 12 13  1  0
 13 14  1  0
 14 15  1  0
 14 16  2  0
 16 17  1  0
 17 18  1  0
 17 19  1  0
 19 20  1  0
 11 21  1  0
 21 22  1  0
  7 23  2  0
 23  2  1  0
 22  8  1  0
 19 13  2  0
  1 24  1  0
  1 25  1  0
  1 26  1  0
  3 27  1  0
  4 28  1  0
  6 29  1  0
  6 30  1  0
  6 31  1  0
  9 32  1  0
  9 33  1  0
 10 34  1  0
 10 35  1  0
 12 36  1  0
 12 37  1  0
 15 38  1  0
 15 39  1  0
 15 40  1  0
 16 41  1  0
 18 42  1  0
 18 43  1  0
 18 44  1  0
 20 45  1  0
 20 46  1  0
 20 47  1  0
 21 48  1  0
 21 49  1  0
 22 50  1  0
 22 51  1  0
 23 52  1  0
M  CHG  1  16   1
M  END
>  <UniqueID>  (27) 
27

>  <SMILES>  (27) 
Cc1ccc(C)c(N2CCN(Cc3c(C)[nH+]n(C)c3C)CC2)c1

>  <Energy>  (27) 
88.81072516650418

>  <Genealogy>  (27) 
Cc1ccc(C)c(N2CCN(Cc3c(C)[nH+]n(C)c3C)CC2)c1 (protonated)
Cc1ccc(C)c(N2CCN(Cc3c(C)[nH+]n(C)c3C)CC2)c1 (3D coordinates assigned)
Cc1ccc(C)c(N2CCN(Cc3c(C)[nH+]n(C)c3C)CC2)c1 (nonaromatic ring conformer: 88.81072516650418 kcal/mol)

>  <smiles>  (27) 
Cc1ccc(C)c(N2CCN(Cc3c(C)nn(C)c3C)CC2)c1

>  <score_type>  (27) 
oracle

>  <origin>  (27) 
adg

>  <m_score__min__energy>  (27) 
-8.0899999999999999

>  <m_primary>  (27) 
energy

$$$$
27:0
     RDKit          3D

 73 76  0  0  0  0  0  0  0  0999 V2000
    0.1040   21.5670  -34.9580 C   0  0  0  0  0  0  0  0  0  0  0  0
   -0.5380   20.3550  -34.2710 C   0  0  0  0  0  0  0  0  0  0  0  0
   -2.0130   20.4730  -34.1420 N   0  0  1  0  0  0  0  0  0  0  0  0
   -2.6290   19.1310  -34.1120 C   0  0  0  0  0  0  0  0  0  0  0  0
   -2.4650   21.3040  -32.9930 C   0  0  0  0  0  0  0  0  0  0  0  0
   -2.1020   20.7420  -31.5980 C   0  0  0  0  0  0  0  0  0  0  0  0
   -3.3070   20.4260  -30.8290 N   0  0  0  0  0  0  0  0  0  0  0  0
   -4.5660   21.0780  -31.0560 C   0  0  0  0  0  0  0  0  0  0  0  0
   -5.6280   20.3830  -31.6630 C   0  0  0  0  0  0  0  0  0  0  0  0
   -5.5180   19.0080  -31.9570 C   0  0  0  0  0  0  0  0  0  0  0  0
   -6.5350   18.3450  -32.6410 C   0  0  0  0  0  0  0  0  0  0  0  0
   -7.6710   19.0380  -33.0440 C   0  0  0  0  0  0  0  0  0  0  0  0
   -7.8250   20.3840  -32.7140 C   0  0  0  0  0  0  0  0  0  0  0  0
   -6.8310   21.0720  -31.9670 C   0  0  0  0  0  0  0  0  0  0  0  0
   -7.0100   22.3780  -31.5500 N   0  0  0  0  0  0  0  0  0  0  0  0
   -8.3570   22.9910  -31.6020 C   0  0  0  0  0  0  0  0  0  0  0  0
   -5.9440   23.0940  -31.0300 C   0  0  0  0  0  0  0  0  0  0  0  0
   -6.0240   24.4900  -30.8010 C   0  0  0  0  0  0  0  0  0  0  0  0
   -4.9620   25.1900  -30.2370 C   0  0  0  0  0  0  0  0  0  0  0  0
   -3.7830   24.5390  -29.8950 C   0  0  0  0  0  0  0  0  0  0  0  0
   -2.7370   25.2970  -29.3470 O   0  0  0  0  0  0  0  0  0  0  0  0
   -2.0070   24.9390  -28.1750 C   0  0  0  0  0  0  0  0  0  0  0  0
   -0.9840   23.8090  -28.4470 C   0  0  0  0  0  0  0  0  0  0  0  0
   -1.1260   22.5580  -27.6230 N   0  0  0  0  0  0  0  0  0  0  0  0
   -0.3700   22.7180  -26.3490 C   0  0  0  0  0  0  0  0  0  0  0  0
   -2.5830   22.2760  -27.3440 C   0  0  0  0  0  0  0  0  0  0  0  0
   -3.0200   20.8120  -27.5610 C   0  0  0  0  0  0  0  0  0  0  0  0
   -1.9650   19.8410  -27.0520 C   0  0  0  0  0  0  0  0  0  0  0  0
   -0.6220   20.0580  -27.7630 C   0  0  0  0  0  0  0  0  0  0  0  0
   -0.4980   21.4540  -28.4160 C   0  0  0  0  0  0  0  0  0  0  0  0
   -3.6710   23.1580  -30.1220 C   0  0  0  0  0  0  0  0  0  0  0  0
   -4.7230   22.4360  -30.7280 C   0  0  0  0  0  0  0  0  0  0  0  0
    0.4749   22.2671  -34.1949 H   0  0  0  0  0  0  0  0  0  0  0  0
    0.9424   21.2311  -35.5858 H   0  0  0  0  0  0  0  0  0  0  0  0
   -0.6449   22.0719  -35.5858 H   0  0  0  0  0  0  0  0  0  0  0  0
   -0.3089   19.4557  -34.8615 H   0  0  0  0  0  0  0  0  0  0  0  0
   -0.1231   20.2961  -33.2539 H   0  0  0  0  0  0  0  0  0  0  0  0
   -2.3680   20.9390  -35.0120 H   0  0  0  0  0  0  0  0  0  0  0  0
   -2.7731   18.8170  -33.0677 H   0  0  0  0  0  0  0  0  0  0  0  0
   -3.6026   19.1629  -34.6230 H   0  0  0  0  0  0  0  0  0  0  0  0
   -1.9701   18.4136  -34.6230 H   0  0  0  0  0  0  0  0  0  0  0  0
   -2.0064   22.2991  -33.0901 H   0  0  0  0  0  0  0  0  0  0  0  0
   -3.5638   21.3235  -33.0406 H   0  0  0  0  0  0  0  0  0  0  0  0
   -1.5051   19.8266  -31.7233 H   0  0  0  0  0  0  0  0  0  0  0  0
   -1.5281   21.5050  -31.0517 H   0  0  0  0  0  0  0  0  0  0  0  0
   -3.2400   19.7370  -30.0430 H   0  0  0  0  0  0  0  0  0  0  0  0
   -4.6210   18.4538  -31.6434 H   0  0  0  0  0  0  0  0  0  0  0  0
   -6.4389   17.2718  -32.8624 H   0  0  0  0  0  0  0  0  0  0  0  0
   -8.4504   18.5230  -33.6248 H   0  0  0  0  0  0  0  0  0  0  0  0
   -8.7291   20.9211  -33.0366 H   0  0  0  0  0  0  0  0  0  0  0  0
   -8.7237   23.1579  -30.5784 H   0  0  0  0  0  0  0  0  0  0  0  0
   -8.3019   23.9527  -32.1331 H   0  0  0  0  0  0  0  0  0  0  0  0
   -9.0460   22.3178  -32.1331 H   0  0  0  0  0  0  0  0  0  0  0  0
   -6.9425   25.0302  -31.0741 H   0  0  0  0  0  0  0  0  0  0  0  0
   -5.0569   26.2715  -30.0598 H   0  0  0  0  0  0  0  0  0  0  0  0
   -1.4675   25.8250  -27.8090 H   0  0  0  0  0  0  0  0  0  0  0  0
   -2.7259   24.5718  -27.4278 H   0  0  0  0  0  0  0  0  0  0  0  0
   -1.0758   23.5236  -29.5053 H   0  0  0  0  0  0  0  0  0  0  0  0
   -0.0066   24.2299  -28.1686 H   0  0  0  0  0  0  0  0  0  0  0  0
   -1.0515   22.5738  -25.4977 H   0  0  0  0  0  0  0  0  0  0  0  0
    0.4358   21.9705  -26.3044 H   0  0  0  0  0  0  0  0  0  0  0  0
    0.0638   23.7279  -26.3044 H   0  0  0  0  0  0  0  0  0  0  0  0
   -2.7866   22.5405  -26.2959 H   0  0  0  0  0  0  0  0  0  0  0  0
   -3.1549   22.8766  -28.0666 H   0  0  0  0  0  0  0  0  0  0  0  0
   -3.9613   20.6347  -27.0202 H   0  0  0  0  0  0  0  0  0  0  0  0
   -3.1548   20.6453  -28.6399 H   0  0  0  0  0  0  0  0  0  0  0  0
   -1.8278   19.9942  -25.9714 H   0  0  0  0  0  0  0  0  0  0  0  0
   -2.3066   18.8159  -27.2580 H   0  0  0  0  0  0  0  0  0  0  0  0
    0.1865   19.9436  -27.0259 H   0  0  0  0  0  0  0  0  0  0  0  0
   -0.5543   19.3125  -28.5690 H   0  0  0  0  0  0  0  0  0  0  0  0
    0.5706   21.6832  -28.5410 H   0  0  0  0  0  0  0  0  0  0  0  0
   -1.0370   21.4052  -29.3736 H   0  0  0  0  0  0  0  0  0  0  0  0
   -2.7522   22.6315  -29.8241 H   0  0  0  0  0  0  0  0  0  0  0  0
  1  2  1  0
  2  3  1  0
  3  4  1  0
  3  5  1  0
  5  6  1  0
  6  7  1  0
  7  8  1  0
  8  9  2  0
  9 10  1  0
 10 11  2  0
 11 12  1  0
 12 13  2  0
 13 14  1  0
 14 15  2  0
 15 16  1  0
 15 17  1  0
 17 18  2  0
 18 19  1  0
 19 20  2  0
 20 21  1  0
 21 22  1  0
 22 23  1  0
 23 24  1  0
 24 25  1  0
 24 26  1  0
 26 27  1  0
 27 28  1  0
 28 29  1  0
 29 30  1  0
 20 31  1  0
 31 32  2  0
 32  8  1  0
 14  9  1  0
 32 17  1  0
 30 24  1  0
  1 33  1  0
  1 34  1  0
  1 35  1  0
  2 36  1  0
  2 37  1  0
  3 38  1  6
  4 39  1  0
  4 40  1  0
  4 41  1  0
  5 42  1  0
  5 43  1  0
  6 44  1  0
  6 45  1  0
  7 46  1  0
 10 47  1  0
 11 48  1  0
 12 49  1  0
 13 50  1  0
 16 51  1  0
 16 52  1  0
 16 53  1  0
 18 54  1  0
 19 55  1  0
 22 56  1  0
 22 57  1  0
 23 58  1  0
 23 59  1  0
 25 60  1  0
 25 61  1  0
 25 62  1  0
 26 63  1  0
 26 64  1  0
 27 65  1  0
 27 66  1  0
 28 67  1  0
 28 68  1  0
 29 69  1  0
 29 70  1  0
 30 71  1  0
 30 72  1  0
 31 73  1  0
M  CHG  3   3   1  15   1  24   1
M  END
>  <UniqueID>  (28) 
28

>  <SMILES>  (28) 
CC[N@@H+](C)CCNc1c2ccccc2[n+](C)c2ccc(OCC[N+]3(C)CCCCC3)cc12

>  <Energy>  (28) 
120.42668294112735

>  <Genealogy>  (28) 
CC[NH+](C)CCNc1c2ccccc2[n+](C)c2ccc(OCC[N+]3(C)CCCCC3)cc12 (protonated)
CC[N@@H+](C)CCNc1c2ccccc2[n+](C)c2ccc(OCC[N+]3(C)CCCCC3)cc12 (chirality)
CC[N@@H+](C)CCNc1c2ccccc2[n+](C)c2ccc(OCC[N+]3(C)CCCCC3)cc12 (3D coordinates assigned)
CC[N@@H+](C)CCNc1c2ccccc2[n+](C)c2ccc(OCC[N+]3(C)CCCCC3)cc12 (nonaromatic ring conformer: 120.42668294112735 kcal/mol)

>  <smiles>  (28) 
CCN(C)CCNc1c2ccccc2[n+](C)c2ccc(OCC[N+]3(C)CCCCC3)cc12

>  <score_type>  (28) 
oracle

>  <origin>  (28) 
adg

>  <m_score__min__energy>  (28) 
-7.7999999999999998

>  <m_primary>  (28) 
energy

$$$$
28:0
     RDKit          3D

 87 89  0  0  0  0  0  0  0  0999 V2000
   -0.3430   23.3290  -25.6080 C   0  0  0  0  0  0  0  0  0  0  0  0
   -0.8390   24.5710  -24.8560 C   0  0  0  0  0  0  0  0  0  0  0  0
   -1.4540   25.5780  -25.7740 N   0  0  0  0  0  0  0  0  0  0  0  0
   -1.1830   26.9690  -25.3220 C   0  0  0  0  0  0  0  0  0  0  0  0
   -0.8340   27.0920  -23.8290 C   0  0  0  0  0  0  0  0  0  0  0  0
   -2.9100   25.3550  -25.9720 C   0  0  0  0  0  0  0  0  0  0  0  0
   -3.2130   24.5450  -27.2420 C   0  0  0  0  0  0  0  0  0  0  0  0
   -2.3630   24.9600  -28.2960 O   0  0  0  0  0  0  0  0  0  0  0  0
   -1.5900   23.8820  -28.7940 C   0  0  0  0  0  0  0  0  0  0  0  0
   -2.1970   23.3080  -30.0850 C   0  0  0  0  0  0  0  0  0  0  0  0
   -3.7190   23.4810  -30.1420 C   0  0  0  0  0  0  0  0  0  0  0  0
   -4.0640   24.8720  -30.4690 N   0  0  0  0  0  0  0  0  0  0  0  0
   -5.4110   24.9680  -31.0470 C   0  0  0  0  0  0  0  0  0  0  0  0
   -6.0580   23.5800  -31.0920 C   0  0  0  0  0  0  0  0  0  0  0  0
   -6.0520   23.0360  -32.4520 N   0  0  0  0  0  0  0  0  0  0  0  0
   -5.9000   21.6300  -32.7110 C   0  0  0  0  0  0  0  0  0  0  0  0
   -6.9950   20.7630  -32.5460 C   0  0  0  0  0  0  0  0  0  0  0  0
   -8.2250   21.2380  -32.0450 C   0  0  0  0  0  0  0  0  0  0  0  0
   -9.2950   20.3690  -31.8440 C   0  0  0  0  0  0  0  0  0  0  0  0
   -9.1530   19.0160  -32.1240 C   0  0  0  0  0  0  0  0  0  0  0  0
   -7.9520   18.5280  -32.6380 C   0  0  0  0  0  0  0  0  0  0  0  0
   -6.8600   19.3940  -32.8970 C   0  0  0  0  0  0  0  0  0  0  0  0
   -5.6870   18.9380  -33.4700 N   0  0  0  0  0  0  0  0  0  0  0  0
   -5.6490   17.6080  -34.1190 C   0  0  0  0  0  0  0  0  0  0  0  0
   -4.5560   19.7340  -33.4560 C   0  0  0  0  0  0  0  0  0  0  0  0
   -3.2760   19.2180  -33.7860 C   0  0  0  0  0  0  0  0  0  0  0  0
   -2.1370   20.0410  -33.8020 C   0  0  0  0  0  0  0  0  0  0  0  0
   -0.8680   19.5670  -34.1690 O   0  0  0  0  0  0  0  0  0  0  0  0
    0.3460   20.2980  -34.0100 C   0  0  0  0  0  0  0  0  0  0  0  0
    1.3110   19.4860  -33.1260 C   0  0  0  0  0  0  0  0  0  0  0  0
    0.8110   19.1760  -31.7520 N   0  0  0  0  0  0  0  0  0  0  0  0
   -0.0430   17.9630  -31.7470 C   0  0  0  0  0  0  0  0  0  0  0  0
    1.9870   18.9220  -30.8840 C   0  0  0  0  0  0  0  0  0  0  0  0
    0.0540   20.3190  -31.1850 C   0  0  0  0  0  0  0  0  0  0  0  0
   -2.2590   21.3800  -33.4420 C   0  0  0  0  0  0  0  0  0  0  0  0
   -3.4960   21.9050  -33.0760 C   0  0  0  0  0  0  0  0  0  0  0  0
   -4.6530   21.1030  -33.0890 C   0  0  0  0  0  0  0  0  0  0  0  0
   -0.0359   22.5601  -24.8837 H   0  0  0  0  0  0  0  0  0  0  0  0
   -1.1528   22.9351  -26.2397 H   0  0  0  0  0  0  0  0  0  0  0  0
    0.5154   23.6013  -26.2397 H   0  0  0  0  0  0  0  0  0  0  0  0
   -1.5911   24.2603  -24.1159 H   0  0  0  0  0  0  0  0  0  0  0  0
    0.0290   25.0415  -24.3709 H   0  0  0  0  0  0  0  0  0  0  0  0
   -1.0000   25.5120  -26.7170 H   0  0  0  0  0  0  0  0  0  0  0  0
   -0.3388   27.3631  -25.9069 H   0  0  0  0  0  0  0  0  0  0  0  0
   -2.1120   27.5374  -25.4765 H   0  0  0  0  0  0  0  0  0  0  0  0
   -1.7002   26.7867  -23.2236 H   0  0  0  0  0  0  0  0  0  0  0  0
    0.0224   26.4415  -23.5978 H   0  0  0  0  0  0  0  0  0  0  0  0
   -0.5746   28.1357  -23.5978 H   0  0  0  0  0  0  0  0  0  0  0  0
   -3.3048   24.8089  -25.1026 H   0  0  0  0  0  0  0  0  0  0  0  0
   -3.3875   26.3399  -26.0814 H   0  0  0  0  0  0  0  0  0  0  0  0
   -3.0480   23.4763  -27.0404 H   0  0  0  0  0  0  0  0  0  0  0  0
   -4.2599   24.7122  -27.5355 H   0  0  0  0  0  0  0  0  0  0  0  0
   -0.5713   24.2392  -29.0051 H   0  0  0  0  0  0  0  0  0  0  0  0
   -1.5742   23.0865  -28.0345 H   0  0  0  0  0  0  0  0  0  0  0  0
   -1.7500   23.8260  -30.9463 H   0  0  0  0  0  0  0  0  0  0  0  0
   -1.9809   22.2297  -30.1068 H   0  0  0  0  0  0  0  0  0  0  0  0
   -4.1311   22.8142  -30.9137 H   0  0  0  0  0  0  0  0  0  0  0  0
   -4.1441   23.2292  -29.1592 H   0  0  0  0  0  0  0  0  0  0  0  0
   -4.0470   25.4220  -29.5770 H   0  0  0  0  0  0  0  0  0  0  0  0
   -6.0266   25.6377  -30.4285 H   0  0  0  0  0  0  0  0  0  0  0  0
   -5.3393   25.3680  -32.0692 H   0  0  0  0  0  0  0  0  0  0  0  0
   -5.4978   22.9015  -30.4318 H   0  0  0  0  0  0  0  0  0  0  0  0
   -7.1022   23.6717  -30.7584 H   0  0  0  0  0  0  0  0  0  0  0  0
   -6.0240   23.7000  -33.2580 H   0  0  0  0  0  0  0  0  0  0  0  0
   -8.3406   22.3065  -31.8104 H   0  0  0  0  0  0  0  0  0  0  0  0
  -10.2525   20.7543  -31.4635 H   0  0  0  0  0  0  0  0  0  0  0  0
   -9.9906   18.3272  -31.9397 H   0  0  0  0  0  0  0  0  0  0  0  0
   -7.8503   17.4526  -32.8460 H   0  0  0  0  0  0  0  0  0  0  0  0
   -5.6266   16.8241  -33.3476 H   0  0  0  0  0  0  0  0  0  0  0  0
   -6.5439   17.4802  -34.7458 H   0  0  0  0  0  0  0  0  0  0  0  0
   -4.7483   17.5315  -34.7458 H   0  0  0  0  0  0  0  0  0  0  0  0
   -3.1731   18.1514  -34.0345 H   0  0  0  0  0  0  0  0  0  0  0  0
    0.8046   20.4693  -34.9951 H   0  0  0  0  0  0  0  0  0  0  0  0
    0.1353   21.2676  -33.5351 H   0  0  0  0  0  0  0  0  0  0  0  0
    1.5181   18.5332  -33.6352 H   0  0  0  0  0  0  0  0  0  0  0  0
    2.2023   20.1162  -32.9903 H   0  0  0  0  0  0  0  0  0  0  0  0
   -0.2521   17.6660  -30.7087 H   0  0  0  0  0  0  0  0  0  0  0  0
   -0.9895   18.1788  -32.2643 H   0  0  0  0  0  0  0  0  0  0  0  0
    0.4793   17.1447  -32.2643 H   0  0  0  0  0  0  0  0  0  0  0  0
    1.6845   18.9873  -29.8284 H   0  0  0  0  0  0  0  0  0  0  0  0
    2.3846   17.9173  -31.0900 H   0  0  0  0  0  0  0  0  0  0  0  0
    2.7638   19.6731  -31.0900 H   0  0  0  0  0  0  0  0  0  0  0  0
    0.0858   20.2710  -30.0865 H   0  0  0  0  0  0  0  0  0  0  0  0
    0.5063   21.2627  -31.5240 H   0  0  0  0  0  0  0  0  0  0  0  0
   -0.9913   20.2708  -31.5240 H   0  0  0  0  0  0  0  0  0  0  0  0
   -1.3709   22.0290  -33.4466 H   0  0  0  0  0  0  0  0  0  0  0  0
   -3.5699   22.9598  -32.7729 H   0  0  0  0  0  0  0  0  0  0  0  0
  1  2  1  0
  2  3  1  0
  3  4  1  0
  4  5  1  0
  3  6  1  0
  6  7  1  0
  7  8  1  0
  8  9  1  0
  9 10  1  0
 10 11  1  0
 11 12  1  0
 12 13  1  0
 13 14  1  0
 14 15  1  0
 15 16  1  0
 16 17  2  0
 17 18  1  0
 18 19  2  0
 19 20  1  0
 20 21  2  0
 21 22  1  0
 22 23  2  0
 23 24  1  0
 23 25  1  0
 25 26  2  0
 26 27  1  0
 27 28  1  0
 28 29  1  0
 29 30  1  0
 30 31  1  0
 31 32  1  0
 31 33  1  0
 31 34  1  0
 27 35  2  0
 35 36  1  0
 36 37  2  0
 37 16  1  0
 22 17  1  0
 37 25  1  0
  1 38  1  0
  1 39  1  0
  1 40  1  0
  2 41  1  0
  2 42  1  0
  3 43  1  0
  4 44  1  0
  4 45  1  0
  5 46  1  0
  5 47  1  0
  5 48  1  0
  6 49  1  0
  6 50  1  0
  7 51  1  0
  7 52  1  0
  9 53  1  0
  9 54  1  0
 10 55  1  0
 10 56  1  0
 11 57  1  0
 11 58  1  0
 12 59  1  0
 13 60  1  0
 13 61  1  0
 14 62  1  0
 14 63  1  0
 15 64  1  0
 18 65  1  0
 19 66  1  0
 20 67  1  0
 21 68  1  0
 24 69  1  0
 24 70  1  0
 24 71  1  0
 26 72  1  0
 29 73  1  0
 29 74  1  0
 30 75  1  0
 30 76  1  0
 32 77  1  0
 32 78  1  0
 32 79  1  0
 33 80  1  0
 33 81  1  0
 33 82  1  0
 34 83  1  0
 34 84  1  0
 34 85  1  0
 35 86  1  0
 36 87  1  0
M  CHG  3   3   1  23   1  31   1
M  END
>  <UniqueID>  (29) 
29

>  <SMILES>  (29) 
CC[NH+](CC)CCOCCCNCCNc1c2ccccc2[n+](C)c2cc(OCC[N+](C)(C)C)ccc12

>  <Energy>  (29) 
117.9839377294709

>  <Genealogy>  (29) 
CC[NH+](CC)CCOCCCNCCNc1c2ccccc2[n+](C)c2cc(OCC[N+](C)(C)C)ccc12 (protonated)
CC[NH+](CC)CCOCCCNCCNc1c2ccccc2[n+](C)c2cc(OCC[N+](C)(C)C)ccc12 (3D coordinates assigned)
CC[NH+](CC)CCOCCCNCCNc1c2ccccc2[n+](C)c2cc(OCC[N+](C)(C)C)ccc12 (optimized conformer: 117.9839377294709 kcal/mol)

>  <smiles>  (29) 
CCN(CC)CCOCCCNCCNc1c2ccccc2[n+](C)c2cc(OCC[N+](C)(C)C)ccc12

>  <score_type>  (29) 
oracle

>  <origin>  (29) 
adg

>  <m_score__min__energy>  (29) 
-9.0399999999999991

>  <m_primary>  (29) 
energy

$$$$
29:0
     RDKit          3D

 65 67  0  0  0  0  0  0  0  0999 V2000
   -3.4970   19.0140  -26.5100 C   0  0  0  0  0  0  0  0  0  0  0  0
   -1.9780   18.9070  -26.6860 C   0  0  0  0  0  0  0  0  0  0  0  0
   -1.4220   19.9590  -27.5770 N   0  0  2  0  0  0  0  0  0  0  0  0
   -0.5490   19.3450  -28.6010 C   0  0  0  0  0  0  0  0  0  0  0  0
   -0.7340   21.0680  -26.8610 C   0  0  0  0  0  0  0  0  0  0  0  0
   -1.5770   22.3520  -26.6960 C   0  0  0  0  0  0  0  0  0  0  0  0
   -2.4710   22.5030  -27.7830 O   0  0  0  0  0  0  0  0  0  0  0  0
   -1.8310   23.0690  -28.9130 C   0  0  0  0  0  0  0  0  0  0  0  0
   -2.3730   22.4770  -30.2210 C   0  0  0  0  0  0  0  0  0  0  0  0
   -2.6270   21.0920  -30.0810 O   0  0  0  0  0  0  0  0  0  0  0  0
   -2.6530   20.4360  -31.3360 C   0  0  0  0  0  0  0  0  0  0  0  0
   -2.4950   21.4410  -32.4820 C   0  0  0  0  0  0  0  0  0  0  0  0
   -3.6550   21.4060  -33.3750 N   0  0  0  0  0  0  0  0  0  0  0  0
   -4.9520   20.9950  -32.9100 C   0  0  0  0  0  0  0  0  0  0  0  0
   -5.4520   19.7260  -33.2550 C   0  0  0  0  0  0  0  0  0  0  0  0
   -6.7140   19.3130  -32.7530 C   0  0  0  0  0  0  0  0  0  0  0  0
   -7.4890   20.1930  -32.0140 N   0  0  0  0  0  0  0  0  0  0  0  0
   -8.8750   19.8320  -31.6330 C   0  0  0  0  0  0  0  0  0  0  0  0
   -6.9790   21.4180  -31.6240 C   0  0  0  0  0  0  0  0  0  0  0  0
   -7.6820   22.2710  -30.7310 C   0  0  0  0  0  0  0  0  0  0  0  0
   -7.1800   23.5230  -30.3800 C   0  0  0  0  0  0  0  0  0  0  0  0
   -5.9700   23.9630  -30.9040 C   0  0  0  0  0  0  0  0  0  0  0  0
   -5.3480   25.5460  -30.4690 Cl  0  0  0  0  0  0  0  0  0  0  0  0
   -5.2440   23.1390  -31.7630 C   0  0  0  0  0  0  0  0  0  0  0  0
   -5.7190   21.8540  -32.1080 C   0  0  0  0  0  0  0  0  0  0  0  0
   -7.2400   17.9190  -33.0960 C   0  0  0  0  0  0  0  0  0  0  0  0
   -6.1790   16.9630  -33.6400 C   0  0  0  0  0  0  0  0  0  0  0  0
   -5.3820   17.6530  -34.7340 C   0  0  0  0  0  0  0  0  0  0  0  0
   -4.6020   18.8170  -34.1310 C   0  0  0  0  0  0  0  0  0  0  0  0
   -3.7416   19.0312  -25.4377 H   0  0  0  0  0  0  0  0  0  0  0  0
   -3.8566   19.9397  -26.9830 H   0  0  0  0  0  0  0  0  0  0  0  0
   -3.9828   18.1479  -26.9830 H   0  0  0  0  0  0  0  0  0  0  0  0
   -1.5032   18.9974  -25.6979 H   0  0  0  0  0  0  0  0  0  0  0  0
   -1.7683   17.9340  -27.1543 H   0  0  0  0  0  0  0  0  0  0  0  0
   -2.2250   20.3880  -28.1000 H   0  0  0  0  0  0  0  0  0  0  0  0
    0.2547   18.7797  -28.1065 H   0  0  0  0  0  0  0  0  0  0  0  0
   -1.1429   18.6647  -29.2290 H   0  0  0  0  0  0  0  0  0  0  0  0
   -0.1095   20.1340  -29.2290 H   0  0  0  0  0  0  0  0  0  0  0  0
   -0.4572   20.7089  -25.8588 H   0  0  0  0  0  0  0  0  0  0  0  0
    0.1342   21.3439  -27.4775 H   0  0  0  0  0  0  0  0  0  0  0  0
   -2.1523   22.2892  -25.7605 H   0  0  0  0  0  0  0  0  0  0  0  0
   -0.9011   23.2195  -26.6690 H   0  0  0  0  0  0  0  0  0  0  0  0
   -2.0026   24.1555  -28.9142 H   0  0  0  0  0  0  0  0  0  0  0  0
   -0.7564   22.8426  -28.8507 H   0  0  0  0  0  0  0  0  0  0  0  0
   -3.3089   22.9897  -30.4878 H   0  0  0  0  0  0  0  0  0  0  0  0
   -1.6194   22.6183  -31.0097 H   0  0  0  0  0  0  0  0  0  0  0  0
   -1.8292   19.7083  -31.3791 H   0  0  0  0  0  0  0  0  0  0  0  0
   -3.6218   19.9268  -31.4463 H   0  0  0  0  0  0  0  0  0  0  0  0
   -2.3950   22.4527  -32.0619 H   0  0  0  0  0  0  0  0  0  0  0  0
   -1.5989   21.1736  -33.0612 H   0  0  0  0  0  0  0  0  0  0  0  0
   -3.5890   21.9030  -34.2920 H   0  0  0  0  0  0  0  0  0  0  0  0
   -8.9599   19.8099  -30.5365 H   0  0  0  0  0  0  0  0  0  0  0  0
   -9.5733   20.5782  -32.0399 H   0  0  0  0  0  0  0  0  0  0  0  0
   -9.1205   18.8399  -32.0399 H   0  0  0  0  0  0  0  0  0  0  0  0
   -8.6410   21.9367  -30.3085 H   0  0  0  0  0  0  0  0  0  0  0  0
   -7.7430   24.1648  -29.6863 H   0  0  0  0  0  0  0  0  0  0  0  0
   -4.2889   23.4941  -32.1775 H   0  0  0  0  0  0  0  0  0  0  0  0
   -7.6662   17.4773  -32.1832 H   0  0  0  0  0  0  0  0  0  0  0  0
   -7.9846   18.0509  -33.8949 H   0  0  0  0  0  0  0  0  0  0  0  0
   -5.5017   16.6665  -32.8256 H   0  0  0  0  0  0  0  0  0  0  0  0
   -6.6705   16.0705  -34.0545 H   0  0  0  0  0  0  0  0  0  0  0  0
   -4.6811   16.9358  -35.1861 H   0  0  0  0  0  0  0  0  0  0  0  0
   -6.0673   18.0298  -35.5076 H   0  0  0  0  0  0  0  0  0  0  0  0
   -3.7841   18.4087  -33.5192 H   0  0  0  0  0  0  0  0  0  0  0  0
   -4.2312   19.4271  -34.9678 H   0  0  0  0  0  0  0  0  0  0  0  0
  1  2  1  0
  2  3  1  0
  3  4  1  0
  3  5  1  0
  5  6  1  0
  6  7  1  0
  7  8  1  0
  8  9  1  0
  9 10  1  0
 10 11  1  0
 11 12  1  0
 12 13  1  0
 13 14  1  0
 14 15  2  0
 15 16  1  0
 16 17  2  0
 17 18  1  0
 17 19  1  0
 19 20  2  0
 20 21  1  0
 21 22  2  0
 22 23  1  0
 22 24  1  0
 24 25  2  0
 16 26  1  0
 26 27  1  0
 27 28  1  0
 28 29  1  0
 25 14  1  0
 29 15  1  0
 25 19  1  0
  1 30  1  0
  1 31  1  0
  1 32  1  0
  2 33  1  0
  2 34  1  0
  3 35  1  6
  4 36  1  0
  4 37  1  0
  4 38  1  0
  5 39  1  0
  5 40  1  0
  6 41  1  0
  6 42  1  0
  8 43  1  0
  8 44  1  0
  9 45  1  0
  9 46  1  0
 11 47  1  0
 11 48  1  0
 12 49  1  0
 12 50  1  0
 13 51  1  0
 18 52  1  0
 18 53  1  0
 18 54  1  0
 20 55  1  0
 21 56  1  0
 24 57  1  0
 26 58  1  0
 26 59  1  0
 27 60  1  0
 27 61  1  0
 28 62  1  0
 28 63  1  0
 29 64  1  0
 29 65  1  0
M  CHG  2   3   1  17   1
M  END
>  <UniqueID>  (30) 
30

>  <SMILES>  (30) 
CC[N@H+](C)CCOCCOCCNc1c2c([n+](C)c3ccc(Cl)cc13)CCCC2

>  <Energy>  (30) 
91.20773366175634

>  <Genealogy>  (30) 
CC[NH+](C)CCOCCOCCNc1c2c([n+](C)c3ccc(Cl)cc13)CCCC2 (protonated)
CC[N@H+](C)CCOCCOCCNc1c2c([n+](C)c3ccc(Cl)cc13)CCCC2 (chirality)
CC[N@H+](C)CCOCCOCCNc1c2c([n+](C)c3ccc(Cl)cc13)CCCC2 (3D coordinates assigned)
CC[N@H+](C)CCOCCOCCNc1c2c([n+](C)c3ccc(Cl)cc13)CCCC2 (nonaromatic ring conformer: 91.20773366175634 kcal/mol)

>  <smiles>  (30) 
CCN(C)CCOCCOCCNc1c2c([n+](C)c3ccc(Cl)cc13)CCCC2

>  <score_type>  (30) 
oracle

>  <origin>  (30) 
adg

>  <m_score__min__energy>  (30) 
-8.9600000000000009

>  <m_primary>  (30) 
energy

$$$$
30:0
     RDKit          3D

 75 77  0  0  0  0  0  0  0  0999 V2000
   -0.4100   20.2560  -29.6200 C   0  0  0  0  0  0  0  0  0  0  0  0
   -0.5570   21.7780  -29.5050 C   0  0  0  0  0  0  0  0  0  0  0  0
   -0.8570   22.2120  -28.1130 N   0  0  0  0  0  0  0  0  0  0  0  0
   -1.7880   21.2450  -27.4660 C   0  0  0  0  0  0  0  0  0  0  0  0
   -3.2270   21.4050  -27.9680 C   0  0  0  0  0  0  0  0  0  0  0  0
    0.4000   22.3300  -27.3230 C   0  0  0  0  0  0  0  0  0  0  0  0
    1.0880   23.6900  -27.5200 C   0  0  0  0  0  0  0  0  0  0  0  0
    0.2030   24.5570  -28.2120 O   0  0  0  0  0  0  0  0  0  0  0  0
   -0.5040   25.4010  -27.3230 C   0  0  0  0  0  0  0  0  0  0  0  0
   -2.0160   25.2520  -27.4920 C   0  0  0  0  0  0  0  0  0  0  0  0
   -2.2960   24.9820  -28.8480 O   0  0  0  0  0  0  0  0  0  0  0  0
   -3.5440   24.3340  -28.9630 C   0  0  0  0  0  0  0  0  0  0  0  0
   -3.7750   23.9670  -30.4260 C   0  0  0  0  0  0  0  0  0  0  0  0
   -4.4620   25.0060  -31.0990 O   0  0  0  0  0  0  0  0  0  0  0  0
   -5.8620   24.9030  -30.9240 C   0  0  0  0  0  0  0  0  0  0  0  0
   -6.3290   23.4440  -30.9610 C   0  0  0  0  0  0  0  0  0  0  0  0
   -6.2110   22.8950  -32.3110 N   0  0  0  0  0  0  0  0  0  0  0  0
   -6.1640   21.4810  -32.5540 C   0  0  0  0  0  0  0  0  0  0  0  0
   -4.9870   20.8530  -33.0400 C   0  0  0  0  0  0  0  0  0  0  0  0
   -5.0090   19.4520  -33.3270 C   0  0  0  0  0  0  0  0  0  0  0  0
   -6.1250   18.6950  -33.0080 N   0  0  0  0  0  0  0  0  0  0  0  0
   -6.1310   17.2280  -33.1550 C   0  0  0  0  0  0  0  0  0  0  0  0
   -7.2530   19.3370  -32.5770 C   0  0  0  0  0  0  0  0  0  0  0  0
   -8.7730   18.6730  -32.2690 S   0  0  0  0  0  0  0  0  0  0  0  0
   -9.5120   20.1330  -31.8610 C   0  0  0  0  0  0  0  0  0  0  0  0
   -8.5740   21.1540  -31.9680 C   0  0  0  0  0  0  0  0  0  0  0  0
   -7.3040   20.7000  -32.3620 C   0  0  0  0  0  0  0  0  0  0  0  0
   -3.7820   18.8130  -33.9620 C   0  0  0  0  0  0  0  0  0  0  0  0
   -2.6450   18.6600  -32.9450 C   0  0  0  0  0  0  0  0  0  0  0  0
   -1.8170   19.9420  -32.7880 C   0  0  0  0  0  0  0  0  0  0  0  0
   -2.6150   21.1220  -32.2140 C   0  0  0  0  0  0  0  0  0  0  0  0
   -3.6960   21.6420  -33.1780 C   0  0  0  0  0  0  0  0  0  0  0  0
   -0.3674   19.8146  -28.6133 H   0  0  0  0  0  0  0  0  0  0  0  0
   -1.2726   19.8444  -30.1646 H   0  0  0  0  0  0  0  0  0  0  0  0
    0.5154   20.0171  -30.1646 H   0  0  0  0  0  0  0  0  0  0  0  0
    0.3827   22.2498  -29.8281 H   0  0  0  0  0  0  0  0  0  0  0  0
   -1.3995   22.0843  -30.1424 H   0  0  0  0  0  0  0  0  0  0  0  0
   -1.3170   23.1530  -28.1480 H   0  0  0  0  0  0  0  0  0  0  0  0
   -1.4471   20.2227  -27.6868 H   0  0  0  0  0  0  0  0  0  0  0  0
   -1.7831   21.4429  -26.3840 H   0  0  0  0  0  0  0  0  0  0  0  0
   -3.9090   21.4808  -27.1082 H   0  0  0  0  0  0  0  0  0  0  0  0
   -3.3032   22.3172  -28.5780 H   0  0  0  0  0  0  0  0  0  0  0  0
   -3.5017   20.5319  -28.5780 H   0  0  0  0  0  0  0  0  0  0  0  0
    0.1604   22.2061  -26.2566 H   0  0  0  0  0  0  0  0  0  0  0  0
    1.0916   21.5495  -27.6730 H   0  0  0  0  0  0  0  0  0  0  0  0
    1.3378   24.1228  -26.5401 H   0  0  0  0  0  0  0  0  0  0  0  0
    2.0123   23.5592  -28.1018 H   0  0  0  0  0  0  0  0  0  0  0  0
   -0.2324   25.1394  -26.2897 H   0  0  0  0  0  0  0  0  0  0  0  0
   -0.2327   26.4431  -27.5474 H   0  0  0  0  0  0  0  0  0  0  0  0
   -2.3781   24.4223  -26.8671 H   0  0  0  0  0  0  0  0  0  0  0  0
   -2.5205   26.1794  -27.1830 H   0  0  0  0  0  0  0  0  0  0  0  0
   -3.5448   23.4217  -28.3485 H   0  0  0  0  0  0  0  0  0  0  0  0
   -4.3453   25.0021  -28.6144 H   0  0  0  0  0  0  0  0  0  0  0  0
   -2.8036   23.8006  -30.9145 H   0  0  0  0  0  0  0  0  0  0  0  0
   -4.3851   23.0527  -30.4697 H   0  0  0  0  0  0  0  0  0  0  0  0
   -6.1334   25.3402  -29.9518 H   0  0  0  0  0  0  0  0  0  0  0  0
   -6.3524   25.4423  -31.7478 H   0  0  0  0  0  0  0  0  0  0  0  0
   -5.7086   22.8493  -30.2744 H   0  0  0  0  0  0  0  0  0  0  0  0
   -7.3849   23.4040  -30.6552 H   0  0  0  0  0  0  0  0  0  0  0  0
   -6.0190   23.5490  -33.1030 H   0  0  0  0  0  0  0  0  0  0  0  0
   -6.1329   16.7598  -32.1596 H   0  0  0  0  0  0  0  0  0  0  0  0
   -7.0304   16.9185  -33.7075 H   0  0  0  0  0  0  0  0  0  0  0  0
   -5.2341   16.9112  -33.7075 H   0  0  0  0  0  0  0  0  0  0  0  0
  -10.5627   20.2572  -31.5599 H   0  0  0  0  0  0  0  0  0  0  0  0
   -8.8031   22.2105  -31.7647 H   0  0  0  0  0  0  0  0  0  0  0  0
   -4.0543   17.8194  -34.3474 H   0  0  0  0  0  0  0  0  0  0  0  0
   -3.4337   19.4643  -34.7772 H   0  0  0  0  0  0  0  0  0  0  0  0
   -3.0787   18.3990  -31.9684 H   0  0  0  0  0  0  0  0  0  0  0  0
   -1.9720   17.8720  -33.3139 H   0  0  0  0  0  0  0  0  0  0  0  0
   -0.9740   19.7312  -32.1136 H   0  0  0  0  0  0  0  0  0  0  0  0
   -1.4838   20.2365  -33.7941 H   0  0  0  0  0  0  0  0  0  0  0  0
   -3.1026   20.7959  -31.2834 H   0  0  0  0  0  0  0  0  0  0  0  0
   -1.9062   21.9449  -32.0394 H   0  0  0  0  0  0  0  0  0  0  0  0
   -3.8972   22.6998  -32.9533 H   0  0  0  0  0  0  0  0  0  0  0  0
   -3.3271   21.5253  -34.2077 H   0  0  0  0  0  0  0  0  0  0  0  0
  1  2  1  0
  2  3  1  0
  3  4  1  0
  4  5  1  0
  3  6  1  0
  6  7  1  0
  7  8  1  0
  8  9  1  0
  9 10  1  0
 10 11  1  0
 11 12  1  0
 12 13  1  0
 13 14  1  0
 14 15  1  0
 15 16  1  0
 16 17  1  0
 17 18  1  0
 18 19  2  0
 19 20  1  0
 20 21  2  0
 21 22  1  0
 21 23  1  0
 23 24  1  0
 24 25  1  0
 25 26  2  0
 26 27  1  0
 20 28  1  0
 28 29  1  0
 29 30  1  0
 30 31  1  0
 31 32  1  0
 27 18  1  0
 32 19  1  0
 27 23  2  0
  1 33  1  0
  1 34  1  0
  1 35  1  0
  2 36  1  0
  2 37  1  0
  3 38  1  0
  4 39  1  0
  4 40  1  0
  5 41  1  0
  5 42  1  0
  5 43  1  0
  6 44  1  0
  6 45  1  0
  7 46  1  0
  7 47  1  0
  9 48  1  0
  9 49  1  0
 10 50  1  0
 10 51  1  0
 12 52  1  0
 12 53  1  0
 13 54  1  0
 13 55  1  0
 15 56  1  0
 15 57  1  0
 16 58  1  0
 16 59  1  0
 17 60  1  0
 22 61  1  0
 22 62  1  0
 22 63  1  0
 25 64  1  0
 26 65  1  0
 28 66  1  0
 28 67  1  0
 29 68  1  0
 29 69  1  0
 30 70  1  0
 30 71  1  0
 31 72  1  0
 31 73  1  0
 32 74  1  0
 32 75  1  0
M  CHG  2   3   1  21   1
M  END
>  <UniqueID>  (31) 
31

>  <SMILES>  (31) 
CC[NH+](CC)CCOCCOCCOCCNc1c2c([n+](C)c3sccc13)CCCCC2

>  <Energy>  (31) 
121.28571146338376

>  <Genealogy>  (31) 
CC[NH+](CC)CCOCCOCCOCCNc1c2c([n+](C)c3sccc13)CCCCC2 (protonated)
CC[NH+](CC)CCOCCOCCOCCNc1c2c([n+](C)c3sccc13)CCCCC2 (3D coordinates assigned)
CC[NH+](CC)CCOCCOCCOCCNc1c2c([n+](C)c3sccc13)CCCCC2 (nonaromatic ring conformer: 121.28571146338376 kcal/mol)

>  <smiles>  (31) 
CCN(CC)CCOCCOCCOCCNc1c2c([n+](C)c3sccc13)CCCCC2

>  <score_type>  (31) 
oracle

>  <origin>  (31) 
adg

>  <m_score__min__energy>  (31) 
-6.9400000000000004

>  <m_primary>  (31) 
energy

$$$$
31:0
     RDKit          3D

 51 53  0  0  0  0  0  0  0  0999 V2000
    0.2350   25.1550  -36.4030 C   0  0  0  0  0  0  0  0  0  0  0  0
    1.1490   23.9990  -36.0280 C   0  0  0  0  0  0  0  0  0  0  0  0
    0.3870   22.9830  -35.4130 O   0  0  0  0  0  0  0  0  0  0  0  0
    0.9440   21.7100  -35.6850 C   0  0  0  0  0  0  0  0  0  0  0  0
   -0.0290   20.6140  -35.2350 C   0  0  0  0  0  0  0  0  0  0  0  0
   -1.1850   21.1890  -34.5160 N   0  0  0  0  0  0  0  0  0  0  0  0
   -1.1820   20.8630  -33.0760 C   0  0  0  0  0  0  0  0  0  0  0  0
   -2.5310   21.1620  -32.3860 C   0  0  0  0  0  0  0  0  0  0  0  0
   -3.6180   21.3650  -33.3520 N   0  0  0  0  0  0  0  0  0  0  0  0
   -4.9930   21.0520  -33.0650 C   0  0  0  0  0  0  0  0  0  0  0  0
   -5.7790   21.9660  -32.3410 C   0  0  0  0  0  0  0  0  0  0  0  0
   -5.2680   23.2330  -31.9880 C   0  0  0  0  0  0  0  0  0  0  0  0
   -6.0080   24.1040  -31.1920 C   0  0  0  0  0  0  0  0  0  0  0  0
   -7.2580   23.7210  -30.7190 C   0  0  0  0  0  0  0  0  0  0  0  0
   -7.7890   22.4800  -31.0660 C   0  0  0  0  0  0  0  0  0  0  0  0
   -7.0820   21.5900  -31.9150 C   0  0  0  0  0  0  0  0  0  0  0  0
   -7.6140   20.3720  -32.2950 N   0  0  0  0  0  0  0  0  0  0  0  0
   -9.0510   20.0910  -32.0750 C   0  0  0  0  0  0  0  0  0  0  0  0
   -6.8150   19.4300  -32.9150 C   0  0  0  0  0  0  0  0  0  0  0  0
   -7.2450   18.0910  -33.1000 C   0  0  0  0  0  0  0  0  0  0  0  0
   -6.4700   17.1790  -33.8140 C   0  0  0  0  0  0  0  0  0  0  0  0
   -5.2550   17.5720  -34.3610 C   0  0  0  0  0  0  0  0  0  0  0  0
   -4.7790   18.8630  -34.1470 C   0  0  0  0  0  0  0  0  0  0  0  0
   -5.5180   19.7840  -33.3750 C   0  0  0  0  0  0  0  0  0  0  0  0
   -0.1440   25.6344  -35.4884 H   0  0  0  0  0  0  0  0  0  0  0  0
    0.7985   25.8905  -36.9960 H   0  0  0  0  0  0  0  0  0  0  0  0
   -0.6106   24.7764  -36.9960 H   0  0  0  0  0  0  0  0  0  0  0  0
    1.6288   23.6010  -36.9343 H   0  0  0  0  0  0  0  0  0  0  0  0
    1.9232   24.3523  -35.3310 H   0  0  0  0  0  0  0  0  0  0  0  0
    1.1281   21.6146  -36.7653 H   0  0  0  0  0  0  0  0  0  0  0  0
    1.8923   21.6026  -35.1380 H   0  0  0  0  0  0  0  0  0  0  0  0
   -0.3911   20.0700  -36.1199 H   0  0  0  0  0  0  0  0  0  0  0  0
    0.5028   19.9342  -34.5530 H   0  0  0  0  0  0  0  0  0  0  0  0
   -1.2240   22.2210  -34.6490 H   0  0  0  0  0  0  0  0  0  0  0  0
   -2.0610   20.7980  -34.9350 H   0  0  0  0  0  0  0  0  0  0  0  0
   -0.9587   19.7922  -32.9596 H   0  0  0  0  0  0  0  0  0  0  0  0
   -0.4205   21.4961  -32.5972 H   0  0  0  0  0  0  0  0  0  0  0  0
   -2.7905   20.3146  -31.7344 H   0  0  0  0  0  0  0  0  0  0  0  0
   -2.4153   22.0915  -31.8093 H   0  0  0  0  0  0  0  0  0  0  0  0
   -3.3920   21.8080  -34.2720 H   0  0  0  0  0  0  0  0  0  0  0  0
   -4.2731   23.5365  -32.3458 H   0  0  0  0  0  0  0  0  0  0  0  0
   -5.6035   25.0948  -30.9376 H   0  0  0  0  0  0  0  0  0  0  0  0
   -7.8297   24.3996  -30.0688 H   0  0  0  0  0  0  0  0  0  0  0  0
   -8.7739   22.1853  -30.6746 H   0  0  0  0  0  0  0  0  0  0  0  0
   -9.2556   20.0510  -30.9949 H   0  0  0  0  0  0  0  0  0  0  0  0
   -9.6548   20.8881  -32.5333 H   0  0  0  0  0  0  0  0  0  0  0  0
   -9.3101   19.1252  -32.5333 H   0  0  0  0  0  0  0  0  0  0  0  0
   -8.2057   17.7673  -32.6730 H   0  0  0  0  0  0  0  0  0  0  0  0
   -6.8214   16.1449  -33.9448 H   0  0  0  0  0  0  0  0  0  0  0  0
   -4.6685   16.8628  -34.9636 H   0  0  0  0  0  0  0  0  0  0  0  0
   -3.8168   19.1679  -34.5844 H   0  0  0  0  0  0  0  0  0  0  0  0
  1  2  1  0
  2  3  1  0
  3  4  1  0
  4  5  1  0
  5  6  1  0
  6  7  1  0
  7  8  1  0
  8  9  1  0
  9 10  1  0
 10 11  2  0
 11 12  1  0
 12 13  2  0
 13 14  1  0
 14 15  2  0
 15 16  1  0
 16 17  2  0
 17 18  1  0
 17 19  1  0
 19 20  2  0
 20 21  1  0
 21 22  2  0
 22 23  1  0
 23 24  2  0
 24 10  1  0
 16 11  1  0
 24 19  1  0
  1 25  1  0
  1 26  1  0
  1 27  1  0
  2 28  1  0
  2 29  1  0
  4 30  1  0
  4 31  1  0
  5 32  1  0
  5 33  1  0
  6 34  1  0
  6 35  1  0
  7 36  1  0
  7 37  1  0
  8 38  1  0
  8 39  1  0
  9 40  1  0
 12 41  1  0
 13 42  1  0
 14 43  1  0
 15 44  1  0
 18 45  1  0
 18 46  1  0
 18 47  1  0
 20 48  1  0
 21 49  1  0
 22 50  1  0
 23 51  1  0
M  CHG  2   6   1  17   1
M  END
>  <UniqueID>  (32) 
32

>  <SMILES>  (32) 
CCOCC[NH2+]CCNc1c2ccccc2[n+](C)c2ccccc12

>  <Energy>  (32) 
74.7190088436485

>  <Genealogy>  (32) 
CCOCC[NH2+]CCNc1c2ccccc2[n+](C)c2ccccc12 (protonated)
CCOCC[NH2+]CCNc1c2ccccc2[n+](C)c2ccccc12 (3D coordinates assigned)
CCOCC[NH2+]CCNc1c2ccccc2[n+](C)c2ccccc12 (optimized conformer: 74.7190088436485 kcal/mol)

>  <smiles>  (32) 
CCOCCNCCNc1c2ccccc2[n+](C)c2ccccc12

>  <score_type>  (32) 
oracle

>  <origin>  (32) 
adg

>  <m_score__min__energy>  (32) 
-7.7699999999999996

>  <m_primary>  (32) 
energy

$$$$
32:0
     RDKit          3D

 22 22  0  0  0  0  0  0  0  0999 V2000
   -9.1450   21.3784  -30.2770 H   0  0  0  0  0  0  0  0  0  0  0  0
   -8.2400   21.7020  -30.8120 C   0  0  0  0  0  0  0  0  0  0  0  0
   -7.6040   22.8930  -30.4500 C   0  0  0  0  0  0  0  0  0  0  0  0
   -8.0164   23.5069  -29.6357 H   0  0  0  0  0  0  0  0  0  0  0  0
   -6.4420   23.3110  -31.1190 C   0  0  0  0  0  0  0  0  0  0  0  0
   -5.7790   24.5840  -30.7420 C   0  0  0  0  0  0  0  0  0  0  0  0
   -4.6160   24.9160  -31.2180 N   0  0  0  0  0  0  0  0  0  0  0  0
   -3.4830   24.9770  -30.4370 O   0  0  0  0  0  0  0  0  0  0  0  0
   -2.9610   23.8030  -29.8380 C   0  0  0  0  0  0  0  0  0  0  0  0
   -3.0040   23.8998  -28.7431 H   0  0  0  0  0  0  0  0  0  0  0  0
   -3.5576   22.9342  -30.1530 H   0  0  0  0  0  0  0  0  0  0  0  0
   -1.9163   23.6640  -30.1530 H   0  0  0  0  0  0  0  0  0  0  0  0
   -6.4050   25.4730  -29.7100 C   0  0  0  0  0  0  0  0  0  0  0  0
   -6.1471   25.1067  -28.7054 H   0  0  0  0  0  0  0  0  0  0  0  0
   -6.0293   26.4994  -29.8337 H   0  0  0  0  0  0  0  0  0  0  0  0
   -7.4980   25.4652  -29.8337 H   0  0  0  0  0  0  0  0  0  0  0  0
   -5.9410   22.5250  -32.1740 C   0  0  0  0  0  0  0  0  0  0  0  0
   -5.0416   22.8491  -32.7181 H   0  0  0  0  0  0  0  0  0  0  0  0
   -6.5800   21.3350  -32.5340 C   0  0  0  0  0  0  0  0  0  0  0  0
   -6.1784   20.7231  -33.3551 H   0  0  0  0  0  0  0  0  0  0  0  0
   -7.7280   20.9210  -31.8530 C   0  0  0  0  0  0  0  0  0  0  0  0
   -8.6000   19.2950  -32.3480 Br  0  0  0  0  0  0  0  0  0  0  0  0
  1  2  1  0
  2  3  2  0
  3  4  1  0
  3  5  1  0
  5  6  1  0
  6  7  2  0
  7  8  1  0
  8  9  1  0
  9 10  1  0
  9 11  1  0
  9 12  1  0
  6 13  1  0
 13 14  1  0
 13 15  1  0
 13 16  1  0
  5 17  2  0
 17 18  1  0
 17 19  1  0
 19 20  1  0
 19 21  2  0
 21 22  1  0
 21  2  1  0
M  END
>  <UniqueID>  (33) 
33

>  <SMILES>  (33) 
CO/N=C(/C)c1ccc(Br)cc1

>  <Energy>  (33) 
20.237081945383665

>  <Genealogy>  (33) 
CO/N=C(/C)c1ccc(Br)cc1 (cis-trans isomerization)
CO/N=C(/C)c1ccc(Br)cc1 (3D coordinates assigned)
CO/N=C(/C)c1ccc(Br)cc1 (optimized conformer: 20.237081945383665 kcal/mol)

>  <smiles>  (33) 
CON=C(C)c1ccc(Br)cc1

>  <score_type>  (33) 
oracle

>  <origin>  (33) 
adg

>  <m_score__min__energy>  (33) 
-7.2400000000000002

>  <m_primary>  (33) 
energy

$$$$
