0:0
     RDKit          3D

 71 74  0  0  0  0  0  0  0  0999 V2000
   -6.7950   24.1690  -30.4680 C   0  0  0  0  0  0  0  0  0  0  0  0
   -5.6430   23.3540  -31.0310 C   0  0  0  0  0  0  0  0  0  0  0  0
   -5.9910   22.8460  -32.3040 O   0  0  0  0  0  0  0  0  0  0  0  0
   -5.7300   21.4610  -32.3580 C   0  0  0  0  0  0  0  0  0  0  0  0
   -6.9810   20.5900  -32.3430 C   0  0  0  0  0  0  0  0  0  0  0  0
   -8.1780   21.2870  -32.0870 C   0  0  0  0  0  0  0  0  0  0  0  0
   -9.4140   20.6430  -32.1240 C   0  0  0  0  0  0  0  0  0  0  0  0
  -10.5540   21.3330  -31.8700 F   0  0  0  0  0  0  0  0  0  0  0  0
   -9.4860   19.2890  -32.4300 C   0  0  0  0  0  0  0  0  0  0  0  0
   -8.3220   18.5770  -32.7050 C   0  0  0  0  0  0  0  0  0  0  0  0
   -7.0530   19.2020  -32.6870 C   0  0  0  0  0  0  0  0  0  0  0  0
   -5.8610   18.2970  -32.9010 C   0  0  0  0  0  0  0  0  0  0  0  0
   -5.5570   18.1450  -34.4110 C   0  0  0  0  0  0  0  0  0  0  0  0
   -4.2100   18.5390  -34.7150 O   0  0  0  0  0  0  0  0  0  0  0  0
   -3.2020   18.9120  -33.7970 C   0  0  0  0  0  0  0  0  0  0  0  0
   -2.1880   18.0320  -33.3460 C   0  0  0  0  0  0  0  0  0  0  0  0
   -1.2280   18.4560  -32.4120 C   0  0  0  0  0  0  0  0  0  0  0  0
   -1.2880   19.7610  -31.9130 C   0  0  0  0  0  0  0  0  0  0  0  0
   -2.2520   20.6260  -32.3770 C   0  0  0  0  0  0  0  0  0  0  0  0
   -3.1940   20.2390  -33.3320 C   0  0  0  0  0  0  0  0  0  0  0  0
   -2.1870   21.9220  -31.6670 C   0  0  0  0  0  0  0  0  0  0  0  0
   -1.0750   21.6620  -30.6850 C   0  0  0  0  0  0  0  0  0  0  0  0
   -0.6570   22.7160  -29.6800 C   0  0  0  0  0  0  0  0  0  0  0  0
   -1.6060   22.8170  -28.4610 C   0  0  0  0  0  0  0  0  0  0  0  0
   -2.9260   23.5580  -28.7360 C   0  0  0  0  0  0  0  0  0  0  0  0
   -2.7230   24.8930  -29.3940 C   0  0  0  0  0  0  0  0  0  0  0  0
   -1.8300   25.6780  -28.9670 O   0  0  0  0  0  0  0  0  0  0  0  0
   -3.5400   25.2870  -30.4470 O   0  0  0  0  0  0  0  0  0  0  0  0
   -0.5340   20.4320  -30.8360 C   0  0  0  0  0  0  0  0  0  0  0  0
    0.7340   19.9650  -30.1230 C   0  0  0  0  0  0  0  0  0  0  0  0
    1.1670   18.5670  -30.5980 C   0  0  0  0  0  0  0  0  0  0  0  0
    0.3520   17.4500  -29.9340 C   0  0  0  0  0  0  0  0  0  0  0  0
    0.3210   17.5420  -28.3970 C   0  0  0  0  0  0  0  0  0  0  0  0
    1.0250   18.7850  -27.8240 C   0  0  0  0  0  0  0  0  0  0  0  0
    0.6920   20.0960  -28.5740 C   0  0  0  0  0  0  0  0  0  0  0  0
   -6.7593   24.1437  -29.3689 H   0  0  0  0  0  0  0  0  0  0  0  0
   -6.7112   25.2099  -30.8138 H   0  0  0  0  0  0  0  0  0  0  0  0
   -7.7486   23.7435  -30.8138 H   0  0  0  0  0  0  0  0  0  0  0  0
   -4.7539   23.9950  -31.1245 H   0  0  0  0  0  0  0  0  0  0  0  0
   -5.4266   22.5154  -30.3528 H   0  0  0  0  0  0  0  0  0  0  0  0
   -5.1737   21.2503  -33.2832 H   0  0  0  0  0  0  0  0  0  0  0  0
   -5.1588   21.2107  -31.4519 H   0  0  0  0  0  0  0  0  0  0  0  0
   -8.1367   22.3611  -31.8532 H   0  0  0  0  0  0  0  0  0  0  0  0
  -10.4613   18.7810  -32.4548 H   0  0  0  0  0  0  0  0  0  0  0  0
   -8.3903   17.5049  -32.9415 H   0  0  0  0  0  0  0  0  0  0  0  0
   -4.9838   18.7292  -32.3973 H   0  0  0  0  0  0  0  0  0  0  0  0
   -6.0890   17.3052  -32.4834 H   0  0  0  0  0  0  0  0  0  0  0  0
   -5.6964   17.0929  -34.7003 H   0  0  0  0  0  0  0  0  0  0  0  0
   -6.2438   18.7971  -34.9705 H   0  0  0  0  0  0  0  0  0  0  0  0
   -2.1516   17.0027  -33.7322 H   0  0  0  0  0  0  0  0  0  0  0  0
   -0.4374   17.7686  -32.0767 H   0  0  0  0  0  0  0  0  0  0  0  0
   -3.9239   20.9661  -33.7175 H   0  0  0  0  0  0  0  0  0  0  0  0
   -1.9355   22.7449  -32.3523 H   0  0  0  0  0  0  0  0  0  0  0  0
   -3.1355   22.2310  -31.2036 H   0  0  0  0  0  0  0  0  0  0  0  0
    0.3517   22.4701  -29.3166 H   0  0  0  0  0  0  0  0  0  0  0  0
   -0.6890   23.6867  -30.1965 H   0  0  0  0  0  0  0  0  0  0  0  0
   -1.8482   21.7965  -28.1293 H   0  0  0  0  0  0  0  0  0  0  0  0
   -1.0725   23.4035  -27.6986 H   0  0  0  0  0  0  0  0  0  0  0  0
   -3.5480   22.9336  -29.3942 H   0  0  0  0  0  0  0  0  0  0  0  0
   -3.4101   23.7397  -27.7651 H   0  0  0  0  0  0  0  0  0  0  0  0
    1.5199   20.6732  -30.4244 H   0  0  0  0  0  0  0  0  0  0  0  0
    1.0302   18.5052  -31.6877 H   0  0  0  0  0  0  0  0  0  0  0  0
    2.2215   18.4273  -30.3178 H   0  0  0  0  0  0  0  0  0  0  0  0
   -0.6814   17.5044  -30.3069 H   0  0  0  0  0  0  0  0  0  0  0  0
    0.8390   16.4978  -30.1912 H   0  0  0  0  0  0  0  0  0  0  0  0
   -0.7303   17.5616  -28.0739 H   0  0  0  0  0  0  0  0  0  0  0  0
    0.8679   16.6664  -28.0173 H   0  0  0  0  0  0  0  0  0  0  0  0
    0.7220   18.9008  -26.7729 H   0  0  0  0  0  0  0  0  0  0  0  0
    2.1066   18.6192  -27.9362 H   0  0  0  0  0  0  0  0  0  0  0  0
   -0.3190   20.4153  -28.2809 H   0  0  0  0  0  0  0  0  0  0  0  0
    1.4641   20.8280  -28.2948 H   0  0  0  0  0  0  0  0  0  0  0  0
  1  2  1  0
  2  3  1  0
  3  4  1  0
  4  5  1  0
  5  6  2  0
  6  7  1  0
  7  8  1  0
  7  9  2  0
  9 10  1  0
 10 11  2  0
 11 12  1  0
 12 13  1  0
 13 14  1  0
 14 15  1  0
 15 16  2  0
 16 17  1  0
 17 18  2  0
 18 19  1  0
 19 20  2  0
 19 21  1  0
 21 22  1  0
 22 23  1  0
 23 24  1  0
 24 25  1  0
 25 26  1  0
 26 27  2  0
 26 28  1  0
 22 29  2  0
 29 30  1  0
 30 31  1  0
 31 32  1  0
 32 33  1  0
 33 34  1  0
 34 35  1  0
 11  5  1  0
 20 15  1  0
 35 30  1  0
 29 18  1  0
  1 36  1  0
  1 37  1  0
  1 38  1  0
  2 39  1  0
  2 40  1  0
  4 41  1  0
  4 42  1  0
  6 43  1  0
  9 44  1  0
 10 45  1  0
 12 46  1  0
 12 47  1  0
 13 48  1  0
 13 49  1  0
 16 50  1  0
 17 51  1  0
 20 52  1  0
 21 53  1  0
 21 54  1  0
 23 55  1  0
 23 56  1  0
 24 57  1  0
 24 58  1  0
 25 59  1  0
 25 60  1  0
 30 61  1  0
 31 62  1  0
 31 63  1  0
 32 64  1  0
 32 65  1  0
 33 66  1  0
 33 67  1  0
 34 68  1  0
 34 69  1  0
 35 70  1  0
 35 71  1  0
M  CHG  1  28  -1
M  END
>  <UniqueID>  (1) 
1

>  <SMILES>  (1) 
CCOCc1cc(F)ccc1CCOc1ccc2c(c1)CC(CCCC(=O)[O-])=C2C1CCCCC1

>  <Energy>  (1) 
108.92913522131227

>  <Genealogy>  (1) 
CCOCc1cc(F)ccc1CCOc1ccc2c(c1)CC(CCCC(=O)[O-])=C2C1CCCCC1 (protonated)
CCOCc1cc(F)ccc1CCOc1ccc2c(c1)CC(CCCC(=O)[O-])=C2C1CCCCC1 (3D coordinates assigned)
CCOCc1cc(F)ccc1CCOc1ccc2c(c1)CC(CCCC(=O)[O-])=C2C1CCCCC1 (nonaromatic ring conformer: 108.92913522131227 kcal/mol)

>  <smiles>  (1) 
CCOCc1cc(F)ccc1CCOc1ccc2c(c1)CC(CCCC(=O)O)=C2C1CCCCC1

>  <score_type>  (1) 
oracle

>  <origin>  (1) 
adg

>  <m_score__min__energy>  (1) 
-12.800000000000001

>  <m_primary>  (1) 
energy

$$$$
1:0
     RDKit          3D

 47 48  0  0  0  0  0  0  0  0999 V2000
   -9.0400   22.2920  -31.7030 C   0  0  0  0  0  0  0  0  0  0  0  0
   -7.6620   21.8600  -32.1890 C   0  0  0  0  0  0  0  0  0  0  0  0
   -7.5550   20.3860  -32.1440 N   0  0  0  0  0  0  0  0  0  0  0  0
   -8.7130   19.7550  -31.4700 C   0  0  0  0  0  0  0  0  0  0  0  0
   -8.6890   18.2340  -31.6090 C   0  0  0  0  0  0  0  0  0  0  0  0
   -7.1440   19.7670  -33.4310 C   0  0  0  0  0  0  0  0  0  0  0  0
   -5.6210   19.6460  -33.6720 C   0  0  0  0  0  0  0  0  0  0  0  0
   -4.8080   19.3920  -32.3940 C   0  0  0  0  0  0  0  0  0  0  0  0
   -4.6840   20.6260  -31.6030 N   0  0  0  0  0  0  0  0  0  0  0  0
   -3.7640   20.4280  -30.4740 C   0  0  0  0  0  0  0  0  0  0  0  0
   -3.1470   21.7410  -30.0580 C   0  0  0  0  0  0  0  0  0  0  0  0
   -1.8770   21.7610  -29.4570 C   0  0  0  0  0  0  0  0  0  0  0  0
   -1.2760   22.9760  -29.1110 C   0  0  0  0  0  0  0  0  0  0  0  0
   -1.9370   24.1830  -29.3600 C   0  0  0  0  0  0  0  0  0  0  0  0
   -3.1980   24.1740  -29.9580 C   0  0  0  0  0  0  0  0  0  0  0  0
   -3.7940   22.9600  -30.3330 C   0  0  0  0  0  0  0  0  0  0  0  0
   -5.0350   22.9920  -30.9820 O   0  0  0  0  0  0  0  0  0  0  0  0
   -5.5630   24.2100  -31.5120 C   0  0  0  0  0  0  0  0  0  0  0  0
   -5.2640   25.3730  -30.5600 C   0  0  0  0  0  0  0  0  0  0  0  0
   -3.8820   25.3710  -30.1960 O   0  0  0  0  0  0  0  0  0  0  0  0
   -9.0560   22.2970  -30.6031 H   0  0  0  0  0  0  0  0  0  0  0  0
   -9.2608   23.3025  -32.0775 H   0  0  0  0  0  0  0  0  0  0  0  0
   -9.7981   21.5884  -32.0775 H   0  0  0  0  0  0  0  0  0  0  0  0
   -7.5144   22.2056  -33.2228 H   0  0  0  0  0  0  0  0  0  0  0  0
   -6.8925   22.3003  -31.5379 H   0  0  0  0  0  0  0  0  0  0  0  0
   -8.6888   20.0156  -30.4016 H   0  0  0  0  0  0  0  0  0  0  0  0
   -9.6316   20.1280  -31.9465 H   0  0  0  0  0  0  0  0  0  0  0  0
   -8.6818   17.7745  -30.6096 H   0  0  0  0  0  0  0  0  0  0  0  0
   -9.5820   17.9019  -32.1588 H   0  0  0  0  0  0  0  0  0  0  0  0
   -7.7860   17.9302  -32.1588 H   0  0  0  0  0  0  0  0  0  0  0  0
   -7.5717   18.7543  -33.4686 H   0  0  0  0  0  0  0  0  0  0  0  0
   -7.5146   20.4430  -34.2157 H   0  0  0  0  0  0  0  0  0  0  0  0
   -5.4453   18.8110  -34.3662 H   0  0  0  0  0  0  0  0  0  0  0  0
   -5.2840   20.6108  -34.0789 H   0  0  0  0  0  0  0  0  0  0  0  0
   -5.3150   18.6252  -31.7899 H   0  0  0  0  0  0  0  0  0  0  0  0
   -3.8014   19.0507  -32.6771 H   0  0  0  0  0  0  0  0  0  0  0  0
   -5.6280   20.8970  -31.2360 H   0  0  0  0  0  0  0  0  0  0  0  0
   -4.3160   21.3930  -32.2140 H   0  0  0  0  0  0  0  0  0  0  0  0
   -4.3195   20.0039  -29.6246 H   0  0  0  0  0  0  0  0  0  0  0  0
   -2.9629   19.7411  -30.7843 H   0  0  0  0  0  0  0  0  0  0  0  0
   -1.3520   20.8152  -29.2573 H   0  0  0  0  0  0  0  0  0  0  0  0
   -0.2810   22.9820  -28.6419 H   0  0  0  0  0  0  0  0  0  0  0  0
   -1.4641   25.1374  -29.0851 H   0  0  0  0  0  0  0  0  0  0  0  0
   -5.1005   24.4120  -32.4894 H   0  0  0  0  0  0  0  0  0  0  0  0
   -6.6524   24.1100  -31.6265 H   0  0  0  0  0  0  0  0  0  0  0  0
   -5.5067   26.3226  -31.0592 H   0  0  0  0  0  0  0  0  0  0  0  0
   -5.8742   25.2590  -29.6519 H   0  0  0  0  0  0  0  0  0  0  0  0
  1  2  1  0
  2  3  1  0
  3  4  1  0
  4  5  1  0
  3  6  1  0
  6  7  1  0
  7  8  1  0
  8  9  1  0
  9 10  1  0
 10 11  1  0
 11 12  2  0
 12 13  1  0
 13 14  2  0
 14 15  1  0
 15 16  2  0
 16 17  1  0
 17 18  1  0
 18 19  1  0
 19 20  1  0
 16 11  1  0
 20 15  1  0
  1 21  1  0
  1 22  1  0
  1 23  1  0
  2 24  1  0
  2 25  1  0
  4 26  1  0
  4 27  1  0
  5 28  1  0
  5 29  1  0
  5 30  1  0
  6 31  1  0
  6 32  1  0
  7 33  1  0
  7 34  1  0
  8 35  1  0
  8 36  1  0
  9 37  1  0
  9 38  1  0
 10 39  1  0
 10 40  1  0
 12 41  1  0
 13 42  1  0
 14 43  1  0
 18 44  1  0
 18 45  1  0
 19 46  1  0
 19 47  1  0
M  CHG  1   9   1
M  END
>  <UniqueID>  (2) 
2

>  <SMILES>  (2) 
CCN(CC)CCC[NH2+]Cc1cccc2c1OCCO2

>  <Energy>  (2) 
46.0416834059563

>  <Genealogy>  (2) 
CCN(CC)CCC[NH2+]Cc1cccc2c1OCCO2 (protonated)
CCN(CC)CCC[NH2+]Cc1cccc2c1OCCO2 (3D coordinates assigned)
CCN(CC)CCC[NH2+]Cc1cccc2c1OCCO2 (nonaromatic ring conformer: 46.0416834059563 kcal/mol)

>  <smiles>  (2) 
CCN(CC)CCCNCc1cccc2c1OCCO2

>  <score_type>  (2) 
oracle

>  <origin>  (2) 
adg

>  <m_score__min__energy>  (2) 
-5.9100000000000001

>  <m_primary>  (2) 
energy

$$$$
2:0
     RDKit          3D

 30 32  0  0  0  0  0  0  0  0999 V2000
   -8.9670   18.7040  -31.4580 C   0  0  0  0  0  0  0  0  0  0  0  0
   -8.2600   19.9470  -31.8850 C   0  0  0  0  0  0  0  0  0  0  0  0
   -8.1990   21.0720  -31.1410 N   0  0  0  0  0  0  0  0  0  0  0  0
   -7.5280   21.9050  -31.9670 C   0  0  0  0  0  0  0  0  0  0  0  0
   -7.1490   23.3150  -31.5980 C   0  0  2  0  0  0  0  0  0  0  0  0
   -5.8080   23.7690  -32.2490 C   0  0  0  0  0  0  0  0  0  0  0  0
   -4.8640   24.2820  -31.2250 N   0  0  0  0  0  0  0  0  0  0  0  0
   -5.4850   25.4210  -30.5040 C   0  0  0  0  0  0  0  0  0  0  0  0
   -6.7920   24.9910  -29.7880 C   0  0  0  0  0  0  0  0  0  0  0  0
   -7.0490   23.4960  -30.0620 C   0  0  0  0  0  0  0  0  0  0  0  0
   -5.8310   22.7140  -29.5290 C   0  0  0  0  0  0  0  0  0  0  0  0
   -4.5530   23.1990  -30.2610 C   0  0  0  0  0  0  0  0  0  0  0  0
   -7.2230   21.3210  -33.1030 O   0  0  0  0  0  0  0  0  0  0  0  0
   -7.6730   20.1060  -33.0830 N   0  0  0  0  0  0  0  0  0  0  0  0
   -8.9940   18.6565  -30.3594 H   0  0  0  0  0  0  0  0  0  0  0  0
   -9.9948   18.7137  -31.8500 H   0  0  0  0  0  0  0  0  0  0  0  0
   -8.4334   17.8256  -31.8500 H   0  0  0  0  0  0  0  0  0  0  0  0
   -7.9571   23.9488  -31.9919 H   0  0  0  0  0  0  0  0  0  0  0  0
   -5.3495   22.9112  -32.7628 H   0  0  0  0  0  0  0  0  0  0  0  0
   -6.0224   24.5777  -32.9631 H   0  0  0  0  0  0  0  0  0  0  0  0
   -4.7746   25.8008  -29.7549 H   0  0  0  0  0  0  0  0  0  0  0  0
   -5.7325   26.2023  -31.2377 H   0  0  0  0  0  0  0  0  0  0  0  0
   -6.6897   25.1547  -28.7051 H   0  0  0  0  0  0  0  0  0  0  0  0
   -7.6353   25.5874  -30.1665 H   0  0  0  0  0  0  0  0  0  0  0  0
   -7.9703   23.1385  -29.5788 H   0  0  0  0  0  0  0  0  0  0  0  0
   -5.7251   22.8900  -28.4483 H   0  0  0  0  0  0  0  0  0  0  0  0
   -5.9746   21.6385  -29.7099 H   0  0  0  0  0  0  0  0  0  0  0  0
   -3.8352   23.5759  -29.5176 H   0  0  0  0  0  0  0  0  0  0  0  0
   -4.1273   22.3505  -30.8167 H   0  0  0  0  0  0  0  0  0  0  0  0
   -7.5880   19.4100  -33.8560 H   0  0  0  0  0  0  0  0  0  0  0  0
  1  2  1  0
  2  3  1  0
  3  4  2  0
  4  5  1  0
  5  6  1  0
  6  7  1  0
  7  8  1  0
  8  9  1  0
  9 10  1  0
 10 11  1  0
 11 12  1  0
  4 13  1  0
 13 14  1  0
 14  2  2  0
 10  5  1  0
 12  7  1  0
  1 15  1  0
  1 16  1  0
  1 17  1  0
  5 18  1  6
  6 19  1  0
  6 20  1  0
  8 21  1  0
  8 22  1  0
  9 23  1  0
  9 24  1  0
 10 25  1  0
 11 26  1  0
 11 27  1  0
 12 28  1  0
 12 29  1  0
 14 30  1  0
M  CHG  1  14   1
M  END
>  <UniqueID>  (3) 
3

>  <SMILES>  (3) 
Cc1nc([C@@H]2CN3CCC2CC3)o[nH+]1

>  <Energy>  (3) 
76.92695835568456

>  <Genealogy>  (3) 
Cc1nc(C2CN3CCC2CC3)o[nH+]1 (protonated)
Cc1nc([C@@H]2CN3CCC2CC3)o[nH+]1 (chirality)
Cc1nc([C@@H]2CN3CCC2CC3)o[nH+]1 (3D coordinates assigned)
Cc1nc([C@@H]2CN3CCC2CC3)o[nH+]1 (nonaromatic ring conformer: 76.92695835568456 kcal/mol)

>  <smiles>  (3) 
Cc1noc(C2CN3CCC2CC3)n1

>  <score_type>  (3) 
oracle

>  <origin>  (3) 
adg

>  <m_score__min__energy>  (3) 
-6.5800000000000001

>  <m_primary>  (3) 
energy

$$$$
3:0
     RDKit          3D

 44 46  0  0  0  0  0  0  0  0999 V2000
    0.2920   21.4900  -35.9910 C   0  0  0  0  0  0  0  0  0  0  0  0
    0.0380   21.4180  -34.4780 C   0  0  0  0  0  0  0  0  0  0  0  0
   -1.2100   20.7100  -34.1000 N   0  0  1  0  0  0  0  0  0  0  0  0
   -1.2190   19.3170  -34.5980 C   0  0  0  0  0  0  0  0  0  0  0  0
   -1.4600   20.7700  -32.6370 C   0  0  0  0  0  0  0  0  0  0  0  0
   -2.3940   21.9330  -32.2540 C   0  0  0  0  0  0  0  0  0  0  0  0
   -3.5910   21.9240  -33.0950 N   0  0  0  0  0  0  0  0  0  0  0  0
   -4.9210   21.8540  -32.5530 C   0  0  0  0  0  0  0  0  0  0  0  0
   -5.7360   20.7070  -32.7170 C   0  0  0  0  0  0  0  0  0  0  0  0
   -5.2940   19.6090  -33.4830 C   0  0  0  0  0  0  0  0  0  0  0  0
   -6.1080   18.4920  -33.6600 C   0  0  0  0  0  0  0  0  0  0  0  0
   -7.3750   18.4490  -33.0860 C   0  0  0  0  0  0  0  0  0  0  0  0
   -7.8440   19.5230  -32.3310 C   0  0  0  0  0  0  0  0  0  0  0  0
   -7.0480   20.6760  -32.1270 C   0  0  0  0  0  0  0  0  0  0  0  0
   -7.5130   21.7550  -31.3890 N   0  0  0  0  0  0  0  0  0  0  0  0
   -8.8450   21.7350  -30.7600 C   0  0  0  0  0  0  0  0  0  0  0  0
   -6.6990   22.8520  -31.2720 C   0  0  0  0  0  0  0  0  0  0  0  0
   -6.9000   24.0540  -30.6140 C   0  0  0  0  0  0  0  0  0  0  0  0
   -5.7260   24.7660  -30.8190 C   0  0  0  0  0  0  0  0  0  0  0  0
   -4.8810   24.0570  -31.5410 O   0  0  0  0  0  0  0  0  0  0  0  0
   -5.4510   22.9120  -31.8230 C   0  0  0  0  0  0  0  0  0  0  0  0
    1.3356   21.7858  -36.1739 H   0  0  0  0  0  0  0  0  0  0  0  0
    0.1061   20.5038  -36.4413 H   0  0  0  0  0  0  0  0  0  0  0  0
   -0.3838   22.2320  -36.4413 H   0  0  0  0  0  0  0  0  0  0  0  0
    0.8855   20.8947  -34.0112 H   0  0  0  0  0  0  0  0  0  0  0  0
   -0.0705   22.4551  -34.1277 H   0  0  0  0  0  0  0  0  0  0  0  0
   -1.9860   21.2150  -34.5920 H   0  0  0  0  0  0  0  0  0  0  0  0
   -1.2235   18.6226  -33.7449 H   0  0  0  0  0  0  0  0  0  0  0  0
   -2.1182   19.1521  -35.2097 H   0  0  0  0  0  0  0  0  0  0  0  0
   -0.3220   19.1405  -35.2097 H   0  0  0  0  0  0  0  0  0  0  0  0
   -1.9223   19.8244  -32.3175 H   0  0  0  0  0  0  0  0  0  0  0  0
   -0.4945   20.9329  -32.1357 H   0  0  0  0  0  0  0  0  0  0  0  0
   -2.6907   21.8275  -31.2000 H   0  0  0  0  0  0  0  0  0  0  0  0
   -1.8603   22.8832  -32.4032 H   0  0  0  0  0  0  0  0  0  0  0  0
   -3.4700   22.0470  -34.1250 H   0  0  0  0  0  0  0  0  0  0  0  0
   -4.2963   19.6344  -33.9457 H   0  0  0  0  0  0  0  0  0  0  0  0
   -5.7476   17.6406  -34.2560 H   0  0  0  0  0  0  0  0  0  0  0  0
   -8.0102   17.5623  -33.2289 H   0  0  0  0  0  0  0  0  0  0  0  0
   -8.8490   19.4739  -31.8865 H   0  0  0  0  0  0  0  0  0  0  0  0
   -8.7338   21.7367  -29.6656 H   0  0  0  0  0  0  0  0  0  0  0  0
   -9.4114   22.6247  -31.0723 H   0  0  0  0  0  0  0  0  0  0  0  0
   -9.3844   20.8287  -31.0723 H   0  0  0  0  0  0  0  0  0  0  0  0
   -7.7912   24.3733  -30.0538 H   0  0  0  0  0  0  0  0  0  0  0  0
   -5.5289   25.7774  -30.4340 H   0  0  0  0  0  0  0  0  0  0  0  0
  1  2  1  0
  2  3  1  0
  3  4  1  0
  3  5  1  0
  5  6  1  0
  6  7  1  0
  7  8  1  0
  8  9  2  0
  9 10  1  0
 10 11  2  0
 11 12  1  0
 12 13  2  0
 13 14  1  0
 14 15  2  0
 15 16  1  0
 15 17  1  0
 17 18  1  0
 18 19  2  0
 19 20  1  0
 20 21  1  0
 21  8  1  0
 14  9  1  0
 21 17  2  0
  1 22  1  0
  1 23  1  0
  1 24  1  0
  2 25  1  0
  2 26  1  0
  3 27  1  6
  4 28  1  0
  4 29  1  0
  4 30  1  0
  5 31  1  0
  5 32  1  0
  6 33  1  0
  6 34  1  0
  7 35  1  0
 10 36  1  0
 11 37  1  0
 12 38  1  0
 13 39  1  0
 16 40  1  0
 16 41  1  0
 16 42  1  0
 18 43  1  0
 19 44  1  0
M  CHG  2   3   1  15   1
M  END
>  <UniqueID>  (4) 
4

>  <SMILES>  (4) 
CC[N@@H+](C)CCNc1c2ccccc2[n+](C)c2ccoc12

>  <Energy>  (4) 
93.25992035324919

>  <Genealogy>  (4) 
CC[NH+](C)CCNc1c2ccccc2[n+](C)c2ccoc12 (protonated)
CC[N@@H+](C)CCNc1c2ccccc2[n+](C)c2ccoc12 (chirality)
CC[N@@H+](C)CCNc1c2ccccc2[n+](C)c2ccoc12 (3D coordinates assigned)
CC[N@@H+](C)CCNc1c2ccccc2[n+](C)c2ccoc12 (optimized conformer: 93.25992035324919 kcal/mol)

>  <smiles>  (4) 
CCN(C)CCNc1c2ccccc2[n+](C)c2ccoc12

>  <score_type>  (4) 
oracle

>  <origin>  (4) 
adg

>  <m_score__min__energy>  (4) 
-6.4400000000000004

>  <m_primary>  (4) 
energy

$$$$
5:0
     RDKit          3D

 70 72  0  0  0  0  0  0  0  0999 V2000
   -4.2300   24.9180  -26.3870 C   0  0  0  0  0  0  0  0  0  0  0  0
   -3.8310   24.3330  -27.7490 C   0  0  0  0  0  0  0  0  0  0  0  0
   -4.4670   23.0330  -28.0520 N   0  0  0  0  0  0  0  0  0  0  0  0
   -3.4950   21.9270  -28.0990 C   0  0  0  0  0  0  0  0  0  0  0  0
   -5.3290   23.0740  -29.2520 C   0  0  0  0  0  0  0  0  0  0  0  0
   -5.1980   24.4220  -29.9620 C   0  0  0  0  0  0  0  0  0  0  0  0
   -4.4730   24.2360  -31.1590 O   0  0  0  0  0  0  0  0  0  0  0  0
   -3.3560   23.3950  -30.9590 C   0  0  0  0  0  0  0  0  0  0  0  0
   -3.3670   22.1780  -31.8920 C   0  0  0  0  0  0  0  0  0  0  0  0
   -4.5230   22.1770  -32.8030 N   0  0  0  0  0  0  0  0  0  0  0  0
   -5.5500   21.1640  -32.7550 C   0  0  0  0  0  0  0  0  0  0  0  0
   -6.8660   21.5500  -32.3890 C   0  0  0  0  0  0  0  0  0  0  0  0
   -7.2340   22.9120  -32.2860 C   0  0  0  0  0  0  0  0  0  0  0  0
   -8.5150   23.2830  -31.8870 C   0  0  0  0  0  0  0  0  0  0  0  0
   -9.4640   22.3100  -31.6030 C   0  0  0  0  0  0  0  0  0  0  0  0
   -9.1440   20.9610  -31.7490 C   0  0  0  0  0  0  0  0  0  0  0  0
   -7.8490   20.5570  -32.1610 C   0  0  0  0  0  0  0  0  0  0  0  0
   -7.5570   19.2360  -32.4040 N   0  0  0  0  0  0  0  0  0  0  0  0
   -8.4590   18.1720  -31.9160 C   0  0  0  0  0  0  0  0  0  0  0  0
   -6.4270   18.9090  -33.1230 C   0  0  0  0  0  0  0  0  0  0  0  0
   -6.3700   17.6900  -33.8340 C   0  0  0  0  0  0  0  0  0  0  0  0
   -5.2690   17.3630  -34.6020 C   0  0  0  0  0  0  0  0  0  0  0  0
   -4.1510   18.1770  -34.5930 C   0  0  0  0  0  0  0  0  0  0  0  0
   -4.0990   19.3390  -33.7950 C   0  0  0  0  0  0  0  0  0  0  0  0
   -2.8200   20.0100  -33.6180 N   0  0  0  0  0  0  0  0  0  0  0  0
   -1.6340   19.2600  -34.0910 C   0  0  0  0  0  0  0  0  0  0  0  0
   -0.5720   19.0780  -32.9920 C   0  0  0  0  0  0  0  0  0  0  0  0
   -0.8700   19.9640  -31.8450 N   0  0  0  0  0  0  0  0  0  0  0  0
   -0.1730   21.2540  -31.9690 C   0  0  0  0  0  0  0  0  0  0  0  0
   -0.5270   19.3190  -30.5700 C   0  0  0  0  0  0  0  0  0  0  0  0
   -5.3270   19.8200  -33.2070 C   0  0  0  0  0  0  0  0  0  0  0  0
   -3.8068   24.2976  -25.5833 H   0  0  0  0  0  0  0  0  0  0  0  0
   -3.8426   25.9439  -26.3009 H   0  0  0  0  0  0  0  0  0  0  0  0
   -5.3265   24.9317  -26.3009 H   0  0  0  0  0  0  0  0  0  0  0  0
   -4.1188   25.0502  -28.5318 H   0  0  0  0  0  0  0  0  0  0  0  0
   -2.7456   24.1575  -27.7156 H   0  0  0  0  0  0  0  0  0  0  0  0
   -3.2312   21.6269  -27.0741 H   0  0  0  0  0  0  0  0  0  0  0  0
   -3.9386   21.0712  -28.6290 H   0  0  0  0  0  0  0  0  0  0  0  0
   -2.5894   22.2570  -28.6290 H   0  0  0  0  0  0  0  0  0  0  0  0
   -5.0277   22.2714  -29.9413 H   0  0  0  0  0  0  0  0  0  0  0  0
   -6.3754   22.9362  -28.9422 H   0  0  0  0  0  0  0  0  0  0  0  0
   -6.1982   24.8172  -30.1930 H   0  0  0  0  0  0  0  0  0  0  0  0
   -4.6715   25.1372  -29.3129 H   0  0  0  0  0  0  0  0  0  0  0  0
   -2.4396   23.9744  -31.1447 H   0  0  0  0  0  0  0  0  0  0  0  0
   -3.3955   23.0249  -29.9239 H   0  0  0  0  0  0  0  0  0  0  0  0
   -2.4450   22.1850  -32.4919 H   0  0  0  0  0  0  0  0  0  0  0  0
   -3.4346   21.2767  -31.2651 H   0  0  0  0  0  0  0  0  0  0  0  0
   -4.6090   22.9580  -33.4890 H   0  0  0  0  0  0  0  0  0  0  0  0
   -6.4953   23.6912  -32.5253 H   0  0  0  0  0  0  0  0  0  0  0  0
   -8.7757   24.3478  -31.7966 H   0  0  0  0  0  0  0  0  0  0  0  0
  -10.4681   22.6035  -31.2629 H   0  0  0  0  0  0  0  0  0  0  0  0
   -9.9085   20.1979  -31.5412 H   0  0  0  0  0  0  0  0  0  0  0  0
   -8.4613   18.1692  -30.8160 H   0  0  0  0  0  0  0  0  0  0  0  0
   -9.4786   18.3582  -32.2844 H   0  0  0  0  0  0  0  0  0  0  0  0
   -8.1084   17.1966  -32.2844 H   0  0  0  0  0  0  0  0  0  0  0  0
   -7.2160   16.9894  -33.7754 H   0  0  0  0  0  0  0  0  0  0  0  0
   -5.2817   16.4541  -35.2214 H   0  0  0  0  0  0  0  0  0  0  0  0
   -3.2863   17.9134  -35.2197 H   0  0  0  0  0  0  0  0  0  0  0  0
   -2.8510   20.9350  -34.1060 H   0  0  0  0  0  0  0  0  0  0  0  0
   -2.6440   20.1470  -32.6090 H   0  0  0  0  0  0  0  0  0  0  0  0
   -1.9591   18.2669  -34.4347 H   0  0  0  0  0  0  0  0  0  0  0  0
   -1.1752   19.8408  -34.9048 H   0  0  0  0  0  0  0  0  0  0  0  0
   -0.5745   18.0314  -32.6535 H   0  0  0  0  0  0  0  0  0  0  0  0
    0.4162   19.3372  -33.3999 H   0  0  0  0  0  0  0  0  0  0  0  0
    0.0422   21.6523  -30.9665 H   0  0  0  0  0  0  0  0  0  0  0  0
    0.7701   21.1101  -32.5166 H   0  0  0  0  0  0  0  0  0  0  0  0
   -0.8103   21.9639  -32.5166 H   0  0  0  0  0  0  0  0  0  0  0  0
   -0.8639   19.9526  -29.7363 H   0  0  0  0  0  0  0  0  0  0  0  0
   -1.0232   18.3391  -30.5096 H   0  0  0  0  0  0  0  0  0  0  0  0
    0.5628   19.1825  -30.5096 H   0  0  0  0  0  0  0  0  0  0  0  0
  1  2  1  0
  2  3  1  0
  3  4  1  0
  3  5  1  0
  5  6  1  0
  6  7  1  0
  7  8  1  0
  8  9  1  0
  9 10  1  0
 10 11  1  0
 11 12  2  0
 12 13  1  0
 13 14  2  0
 14 15  1  0
 15 16  2  0
 16 17  1  0
 17 18  2  0
 18 19  1  0
 18 20  1  0
 20 21  2  0
 21 22  1  0
 22 23  2  0
 23 24  1  0
 24 25  1  0
 25 26  1  0
 26 27  1  0
 27 28  1  0
 28 29  1  0
 28 30  1  0
 24 31  2  0
 31 11  1  0
 17 12  1  0
 31 20  1  0
  1 32  1  0
  1 33  1  0
  1 34  1  0
  2 35  1  0
  2 36  1  0
  4 37  1  0
  4 38  1  0
  4 39  1  0
  5 40  1  0
  5 41  1  0
  6 42  1  0
  6 43  1  0
  8 44  1  0
  8 45  1  0
  9 46  1  0
  9 47  1  0
 10 48  1  0
 13 49  1  0
 14 50  1  0
 15 51  1  0
 16 52  1  0
 19 53  1  0
 19 54  1  0
 19 55  1  0
 21 56  1  0
 22 57  1  0
 23 58  1  0
 25 59  1  0
 25 60  1  0
 26 61  1  0
 26 62  1  0
 27 63  1  0
 27 64  1  0
 29 65  1  0
 29 66  1  0
 29 67  1  0
 30 68  1  0
 30 69  1  0
 30 70  1  0
M  CHG  2  18   1  25   1
M  END
>  <UniqueID>  (5) 
5

>  <SMILES>  (5) 
CCN(C)CCOCCNc1c2ccccc2[n+](C)c2cccc([NH2+]CCN(C)C)c12

>  <Energy>  (5) 
114.51114431491786

>  <Genealogy>  (5) 
CCN(C)CCOCCNc1c2ccccc2[n+](C)c2cccc([NH2+]CCN(C)C)c12 (protonated)
CCN(C)CCOCCNc1c2ccccc2[n+](C)c2cccc([NH2+]CCN(C)C)c12 (3D coordinates assigned)
CCN(C)CCOCCNc1c2ccccc2[n+](C)c2cccc([NH2+]CCN(C)C)c12 (optimized conformer: 114.51114431491786 kcal/mol)

>  <smiles>  (5) 
CCN(C)CCOCCNc1c2ccccc2[n+](C)c2cccc(NCCN(C)C)c12

>  <score_type>  (5) 
oracle

>  <origin>  (5) 
adg

>  <m_score__min__energy>  (5) 
-8.0399999999999991

>  <m_primary>  (5) 
energy

$$$$
6:0
     RDKit          3D

 87 90  0  0  0  0  0  0  0  0999 V2000
   -7.2930   23.5690  -30.9350 C   0  0  0  0  0  0  0  0  0  0  0  0
   -6.1090   24.1050  -31.7310 C   0  0  0  0  0  0  0  0  0  0  0  0
   -5.0760   24.6380  -30.8120 N   0  0  0  0  0  0  0  0  0  0  0  0
   -5.3660   26.0390  -30.4630 C   0  0  0  0  0  0  0  0  0  0  0  0
   -4.9590   23.8190  -29.5840 C   0  0  0  0  0  0  0  0  0  0  0  0
   -3.6550   24.1420  -28.8520 C   0  0  0  0  0  0  0  0  0  0  0  0
   -2.6360   24.4300  -29.7950 O   0  0  0  0  0  0  0  0  0  0  0  0
   -1.5100   23.5910  -29.6200 C   0  0  0  0  0  0  0  0  0  0  0  0
   -1.9100   22.1150  -29.6730 C   0  0  0  0  0  0  0  0  0  0  0  0
   -2.1170   21.7270  -31.0130 O   0  0  0  0  0  0  0  0  0  0  0  0
   -3.4970   21.5380  -31.2710 C   0  0  0  0  0  0  0  0  0  0  0  0
   -3.8730   22.2080  -32.5980 C   0  0  0  0  0  0  0  0  0  0  0  0
   -4.0900   21.2130  -33.6550 N   0  0  0  0  0  0  0  0  0  0  0  0
   -4.5750   19.8990  -33.3200 C   0  0  0  0  0  0  0  0  0  0  0  0
   -5.9400   19.7370  -33.0170 C   0  0  0  0  0  0  0  0  0  0  0  0
   -6.7300   20.8380  -32.6200 C   0  0  0  0  0  0  0  0  0  0  0  0
   -8.0770   20.6710  -32.3040 C   0  0  0  0  0  0  0  0  0  0  0  0
   -8.6540   19.4080  -32.3600 C   0  0  0  0  0  0  0  0  0  0  0  0
   -7.8920   18.3050  -32.7450 C   0  0  0  0  0  0  0  0  0  0  0  0
   -6.5250   18.4500  -33.1010 C   0  0  0  0  0  0  0  0  0  0  0  0
   -5.7660   17.3800  -33.5200 N   0  0  0  0  0  0  0  0  0  0  0  0
   -6.4300   16.1300  -33.9520 C   0  0  0  0  0  0  0  0  0  0  0  0
   -4.3860   17.4740  -33.5240 C   0  0  0  0  0  0  0  0  0  0  0  0
   -3.5860   16.3110  -33.6250 C   0  0  0  0  0  0  0  0  0  0  0  0
   -2.2030   16.3830  -33.6170 C   0  0  0  0  0  0  0  0  0  0  0  0
   -1.5700   17.6010  -33.4570 C   0  0  0  0  0  0  0  0  0  0  0  0
   -2.3050   18.7890  -33.3100 C   0  0  0  0  0  0  0  0  0  0  0  0
   -1.5640   19.9820  -32.9600 N   0  0  0  0  0  0  0  0  0  0  0  0
   -0.3530   20.1360  -33.7890 C   0  0  0  0  0  0  0  0  0  0  0  0
    0.9350   20.3820  -32.9780 C   0  0  0  0  0  0  0  0  0  0  0  0
    1.2560   19.2570  -31.9740 C   0  0  0  0  0  0  0  0  0  0  0  0
    0.2030   19.1320  -30.9410 N   0  0  0  0  0  0  0  0  0  0  0  0
   -0.0510   17.7020  -30.6100 C   0  0  0  0  0  0  0  0  0  0  0  0
    0.7020   17.2490  -29.3500 C   0  0  0  0  0  0  0  0  0  0  0  0
    0.2660   18.0640  -28.1220 C   0  0  0  0  0  0  0  0  0  0  0  0
   -0.2140   19.4770  -28.4910 C   0  0  0  0  0  0  0  0  0  0  0  0
    0.4950   19.9810  -29.7550 C   0  0  0  0  0  0  0  0  0  0  0  0
   -3.7420   18.7460  -33.3950 C   0  0  0  0  0  0  0  0  0  0  0  0
   -7.0844   23.6634  -29.8591 H   0  0  0  0  0  0  0  0  0  0  0  0
   -8.1950   24.1466  -31.1857 H   0  0  0  0  0  0  0  0  0  0  0  0
   -7.4542   22.5101  -31.1857 H   0  0  0  0  0  0  0  0  0  0  0  0
   -5.6764   23.2914  -32.3318 H   0  0  0  0  0  0  0  0  0  0  0  0
   -6.4557   24.9142  -32.3905 H   0  0  0  0  0  0  0  0  0  0  0  0
   -5.3884   26.1471  -29.3686 H   0  0  0  0  0  0  0  0  0  0  0  0
   -4.5836   26.6902  -30.8799 H   0  0  0  0  0  0  0  0  0  0  0  0
   -6.3426   26.3261  -30.8799 H   0  0  0  0  0  0  0  0  0  0  0  0
   -5.8101   24.0350  -28.9214 H   0  0  0  0  0  0  0  0  0  0  0  0
   -4.9586   22.7549  -29.8626 H   0  0  0  0  0  0  0  0  0  0  0  0
   -3.8079   25.0153  -28.2008 H   0  0  0  0  0  0  0  0  0  0  0  0
   -3.3544   23.2759  -28.2441 H   0  0  0  0  0  0  0  0  0  0  0  0
   -0.7822   23.7950  -30.4192 H   0  0  0  0  0  0  0  0  0  0  0  0
   -1.0692   23.7986  -28.6338 H   0  0  0  0  0  0  0  0  0  0  0  0
   -1.1081   21.5028  -29.2347 H   0  0  0  0  0  0  0  0  0  0  0  0
   -2.8395   21.9685  -29.1033 H   0  0  0  0  0  0  0  0  0  0  0  0
   -3.7133   20.4612  -31.3313 H   0  0  0  0  0  0  0  0  0  0  0  0
   -4.0840   21.9885  -30.4571 H   0  0  0  0  0  0  0  0  0  0  0  0
   -4.7967   22.7885  -32.4572 H   0  0  0  0  0  0  0  0  0  0  0  0
   -3.0441   22.8636  -32.9031 H   0  0  0  0  0  0  0  0  0  0  0  0
   -3.4540   21.2820  -34.4810 H   0  0  0  0  0  0  0  0  0  0  0  0
   -6.2772   21.8386  -32.5595 H   0  0  0  0  0  0  0  0  0  0  0  0
   -8.6841   21.5398  -32.0099 H   0  0  0  0  0  0  0  0  0  0  0  0
   -9.7148   19.2778  -32.0999 H   0  0  0  0  0  0  0  0  0  0  0  0
   -8.3567   17.3084  -32.7733 H   0  0  0  0  0  0  0  0  0  0  0  0
   -6.7365   15.5529  -33.0671 H   0  0  0  0  0  0  0  0  0  0  0  0
   -7.3167   16.3753  -34.5550 H   0  0  0  0  0  0  0  0  0  0  0  0
   -5.7303   15.5326  -34.5550 H   0  0  0  0  0  0  0  0  0  0  0  0
   -4.0732   15.3286  -33.7117 H   0  0  0  0  0  0  0  0  0  0  0  0
   -1.6060   15.4671  -33.7385 H   0  0  0  0  0  0  0  0  0  0  0  0
   -0.4708   17.6409  -33.4445 H   0  0  0  0  0  0  0  0  0  0  0  0
   -2.1740   20.8230  -33.0280 H   0  0  0  0  0  0  0  0  0  0  0  0
   -1.3150   19.9530  -31.9450 H   0  0  0  0  0  0  0  0  0  0  0  0
   -0.2195   19.2180  -34.3802 H   0  0  0  0  0  0  0  0  0  0  0  0
   -0.5083   21.0255  -34.4172 H   0  0  0  0  0  0  0  0  0  0  0  0
    1.7766   20.4718  -33.6806 H   0  0  0  0  0  0  0  0  0  0  0  0
    0.7781   21.3008  -32.3939 H   0  0  0  0  0  0  0  0  0  0  0  0
    1.3367   18.3047  -32.5186 H   0  0  0  0  0  0  0  0  0  0  0  0
    2.2031   19.5037  -31.4719 H   0  0  0  0  0  0  0  0  0  0  0  0
   -1.1298   17.5639  -30.4454 H   0  0  0  0  0  0  0  0  0  0  0  0
    0.3097   17.0939  -31.4527 H   0  0  0  0  0  0  0  0  0  0  0  0
    0.4909   16.1848  -29.1684 H   0  0  0  0  0  0  0  0  0  0  0  0
    1.7786   17.4076  -29.5104 H   0  0  0  0  0  0  0  0  0  0  0  0
   -0.5559   17.5325  -27.6200 H   0  0  0  0  0  0  0  0  0  0  0  0
    1.1414   18.1704  -27.4645 H   0  0  0  0  0  0  0  0  0  0  0  0
   -1.2989   19.4537  -28.6712 H   0  0  0  0  0  0  0  0  0  0  0  0
    0.0217   20.1576  -27.6596 H   0  0  0  0  0  0  0  0  0  0  0  0
    0.1597   21.0077  -29.9634 H   0  0  0  0  0  0  0  0  0  0  0  0
    1.5789   19.9426  -29.5716 H   0  0  0  0  0  0  0  0  0  0  0  0
  1  2  1  0
  2  3  1  0
  3  4  1  0
  3  5  1  0
  5  6  1  0
  6  7  1  0
  7  8  1  0
  8  9  1  0
  9 10  1  0
 10 11  1  0
 11 12  1  0
 12 13  1  0
 13 14  1  0
 14 15  2  0
 15 16  1  0
 16 17  2  0
 17 18  1  0
 18 19  2  0
 19 20  1  0
 20 21  2  0
 21 22  1  0
 21 23  1  0
 23 24  2  0
 24 25  1  0
 25 26  2  0
 26 27  1  0
 27 28  1  0
 28 29  1  0
 29 30  1  0
 30 31  1  0
 31 32  1  0
 32 33  1  0
 33 34  1  0
 34 35  1  0
 35 36  1  0
 36 37  1  0
 27 38  2  0
 38 14  1  0
 20 15  1  0
 38 23  1  0
 37 32  1  0
  1 39  1  0
  1 40  1  0
  1 41  1  0
  2 42  1  0
  2 43  1  0
  4 44  1  0
  4 45  1  0
  4 46  1  0
  5 47  1  0
  5 48  1  0
  6 49  1  0
  6 50  1  0
  8 51  1  0
  8 52  1  0
  9 53  1  0
  9 54  1  0
 11 55  1  0
 11 56  1  0
 12 57  1  0
 12 58  1  0
 13 59  1  0
 16 60  1  0
 17 61  1  0
 18 62  1  0
 19 63  1  0
 22 64  1  0
 22 65  1  0
 22 66  1  0
 24 67  1  0
 25 68  1  0
 26 69  1  0
 28 70  1  0
 28 71  1  0
 29 72  1  0
 29 73  1  0
 30 74  1  0
 30 75  1  0
 31 76  1  0
 31 77  1  0
 33 78  1  0
 33 79  1  0
 34 80  1  0
 34 81  1  0
 35 82  1  0
 35 83  1  0
 36 84  1  0
 36 85  1  0
 37 86  1  0
 37 87  1  0
M  CHG  2  21   1  28   1
M  END
>  <UniqueID>  (6) 
6

>  <SMILES>  (6) 
CCN(C)CCOCCOCCNc1c2ccccc2[n+](C)c2cccc([NH2+]CCCN3CCCCC3)c12

>  <Energy>  (6) 
137.91178331735765

>  <Genealogy>  (6) 
CCN(C)CCOCCOCCNc1c2ccccc2[n+](C)c2cccc([NH2+]CCCN3CCCCC3)c12 (protonated)
CCN(C)CCOCCOCCNc1c2ccccc2[n+](C)c2cccc([NH2+]CCCN3CCCCC3)c12 (3D coordinates assigned)
CCN(C)CCOCCOCCNc1c2ccccc2[n+](C)c2cccc([NH2+]CCCN3CCCCC3)c12 (nonaromatic ring conformer: 137.91178331735765 kcal/mol)

>  <smiles>  (6) 
CCN(C)CCOCCOCCNc1c2ccccc2[n+](C)c2cccc(NCCCN3CCCCC3)c12

>  <score_type>  (6) 
oracle

>  <origin>  (6) 
adg

>  <m_score__min__energy>  (6) 
-8.6300000000000008

>  <m_primary>  (6) 
energy

$$$$
7:0
     RDKit          3D

 56 58  0  0  0  0  0  0  0  0999 V2000
   -4.4310   17.1520  -33.3710 C   0  0  0  0  0  0  0  0  0  0  0  0
   -5.4770   18.0660  -33.8320 N   0  0  0  0  0  0  0  0  0  0  0  0
   -5.6890   18.1950  -35.2740 C   0  0  0  0  0  0  0  0  0  0  0  0
   -6.5540   18.4240  -32.9430 C   0  0  0  0  0  0  0  0  0  0  0  0
   -7.5530   17.4710  -32.7030 C   0  0  0  0  0  0  0  0  0  0  0  0
   -8.6860   17.8000  -31.9750 C   0  0  0  0  0  0  0  0  0  0  0  0
   -8.8780   19.1020  -31.5300 C   0  0  0  0  0  0  0  0  0  0  0  0
   -7.9140   20.1100  -31.7770 C   0  0  0  0  0  0  0  0  0  0  0  0
   -6.6870   19.7400  -32.4030 C   0  0  0  0  0  0  0  0  0  0  0  0
   -5.6480   20.7000  -32.4720 C   0  0  0  0  0  0  0  0  0  0  0  0
   -4.3220   20.3260  -32.8810 N   0  0  0  0  0  0  0  0  0  0  0  0
   -3.2100   20.3570  -31.9320 C   0  0  0  0  0  0  0  0  0  0  0  0
   -2.0400   21.1750  -32.5000 C   0  0  0  0  0  0  0  0  0  0  0  0
   -1.6550   20.7440  -33.8660 N   0  0  0  0  0  0  0  0  0  0  0  0
   -1.7470   19.2800  -34.0240 C   0  0  0  0  0  0  0  0  0  0  0  0
   -0.2780   21.1850  -34.1560 C   0  0  0  0  0  0  0  0  0  0  0  0
   -5.8750   22.0050  -32.0010 C   0  0  0  0  0  0  0  0  0  0  0  0
   -7.1110   22.3320  -31.4160 C   0  0  0  0  0  0  0  0  0  0  0  0
   -8.1440   21.4220  -31.4090 N   0  0  0  0  0  0  0  0  0  0  0  0
   -9.5050   21.8660  -31.0380 C   0  0  0  0  0  0  0  0  0  0  0  0
   -7.2350   23.7130  -30.7890 C   0  0  0  0  0  0  0  0  0  0  0  0
   -5.9510   24.0700  -30.0310 C   0  0  0  0  0  0  0  0  0  0  0  0
   -4.6780   23.9540  -30.8950 C   0  0  0  0  0  0  0  0  0  0  0  0
   -4.8570   23.1170  -32.1740 C   0  0  0  0  0  0  0  0  0  0  0  0
   -4.4149   17.1380  -32.2712 H   0  0  0  0  0  0  0  0  0  0  0  0
   -4.6369   16.1392  -33.7477 H   0  0  0  0  0  0  0  0  0  0  0  0
   -3.4550   17.4919  -33.7477 H   0  0  0  0  0  0  0  0  0  0  0  0
   -6.6153   18.7586  -35.4595 H   0  0  0  0  0  0  0  0  0  0  0  0
   -4.8387   18.7289  -35.7233 H   0  0  0  0  0  0  0  0  0  0  0  0
   -5.7724   17.1944  -35.7233 H   0  0  0  0  0  0  0  0  0  0  0  0
   -7.4369   16.4504  -33.0967 H   0  0  0  0  0  0  0  0  0  0  0  0
   -9.4356   17.0274  -31.7489 H   0  0  0  0  0  0  0  0  0  0  0  0
   -9.7944   19.3544  -30.9763 H   0  0  0  0  0  0  0  0  0  0  0  0
   -4.1020   20.2870  -33.9020 H   0  0  0  0  0  0  0  0  0  0  0  0
   -3.5494   20.8157  -30.9916 H   0  0  0  0  0  0  0  0  0  0  0  0
   -2.8688   19.3272  -31.7503 H   0  0  0  0  0  0  0  0  0  0  0  0
   -2.3342   22.2344  -32.5343 H   0  0  0  0  0  0  0  0  0  0  0  0
   -1.1721   21.0170  -31.8430 H   0  0  0  0  0  0  0  0  0  0  0  0
   -2.2890   21.1970  -34.5660 H   0  0  0  0  0  0  0  0  0  0  0  0
   -1.7768   18.8053  -33.0321 H   0  0  0  0  0  0  0  0  0  0  0  0
   -2.6628   19.0279  -34.5788 H   0  0  0  0  0  0  0  0  0  0  0  0
   -0.8700   18.9153  -34.5788 H   0  0  0  0  0  0  0  0  0  0  0  0
    0.2586   21.3569  -33.2113 H   0  0  0  0  0  0  0  0  0  0  0  0
    0.2412   20.4082  -34.7365 H   0  0  0  0  0  0  0  0  0  0  0  0
   -0.3067   22.1189  -34.7365 H   0  0  0  0  0  0  0  0  0  0  0  0
   -9.5951   21.8954  -29.9421 H   0  0  0  0  0  0  0  0  0  0  0  0
   -9.6876   22.8703  -31.4480 H   0  0  0  0  0  0  0  0  0  0  0  0
  -10.2447   21.1626  -31.4480 H   0  0  0  0  0  0  0  0  0  0  0  0
   -7.4078   24.4569  -31.5807 H   0  0  0  0  0  0  0  0  0  0  0  0
   -8.0787   23.7113  -30.0832 H   0  0  0  0  0  0  0  0  0  0  0  0
   -6.0350   25.1060  -29.6710 H   0  0  0  0  0  0  0  0  0  0  0  0
   -5.8502   23.3503  -29.2053 H   0  0  0  0  0  0  0  0  0  0  0  0
   -4.3659   24.9676  -31.1870 H   0  0  0  0  0  0  0  0  0  0  0  0
   -3.9260   23.4363  -30.2814 H   0  0  0  0  0  0  0  0  0  0  0  0
   -5.1923   23.7796  -32.9855 H   0  0  0  0  0  0  0  0  0  0  0  0
   -3.8884   22.6510  -32.4077 H   0  0  0  0  0  0  0  0  0  0  0  0
  1  2  1  0
  2  3  1  0
  2  4  1  0
  4  5  2  0
  5  6  1  0
  6  7  2  0
  7  8  1  0
  8  9  2  0
  9 10  1  0
 10 11  1  0
 11 12  1  0
 12 13  1  0
 13 14  1  0
 14 15  1  0
 14 16  1  0
 10 17  2  0
 17 18  1  0
 18 19  2  0
 19 20  1  0
 18 21  1  0
 21 22  1  0
 22 23  1  0
 23 24  1  0
  9  4  1  0
 24 17  1  0
 19  8  1  0
  1 25  1  0
  1 26  1  0
  1 27  1  0
  3 28  1  0
  3 29  1  0
  3 30  1  0
  5 31  1  0
  6 32  1  0
  7 33  1  0
 11 34  1  0
 12 35  1  0
 12 36  1  0
 13 37  1  0
 13 38  1  0
 14 39  1  0
 15 40  1  0
 15 41  1  0
 15 42  1  0
 16 43  1  0
 16 44  1  0
 16 45  1  0
 20 46  1  0
 20 47  1  0
 20 48  1  0
 21 49  1  0
 21 50  1  0
 22 51  1  0
 22 52  1  0
 23 53  1  0
 23 54  1  0
 24 55  1  0
 24 56  1  0
M  CHG  2  14   1  19   1
M  END
>  <UniqueID>  (7) 
7

>  <SMILES>  (7) 
CN(C)c1cccc2c1c(NCC[NH+](C)C)c1c([n+]2C)CCCC1

>  <Energy>  (7) 
87.71548800644901

>  <Genealogy>  (7) 
CN(C)c1cccc2c1c(NCC[NH+](C)C)c1c([n+]2C)CCCC1 (protonated)
CN(C)c1cccc2c1c(NCC[NH+](C)C)c1c([n+]2C)CCCC1 (3D coordinates assigned)
CN(C)c1cccc2c1c(NCC[NH+](C)C)c1c([n+]2C)CCCC1 (nonaromatic ring conformer: 87.71548800644901 kcal/mol)

>  <smiles>  (7) 
CN(C)CCNc1c2c([n+](C)c3cccc(N(C)C)c13)CCCC2

>  <score_type>  (7) 
oracle

>  <origin>  (7) 
adg

>  <m_score__min__energy>  (7) 
-6.8799999999999999

>  <m_primary>  (7) 
energy

$$$$
8:0
     RDKit          3D

 53 56  0  0  0  0  0  0  0  0999 V2000
   -3.5360   22.9590  -29.6750 C   0  0  0  0  0  0  0  0  0  0  0  0
   -3.5330   24.4560  -30.0000 C   0  0  0  0  0  0  0  0  0  0  0  0
   -4.3560   24.7810  -31.1760 N   0  0  0  0  0  0  0  0  0  0  0  0
   -5.7780   24.9270  -30.8370 C   0  0  0  0  0  0  0  0  0  0  0  0
   -6.5520   23.6670  -31.2420 C   0  0  0  0  0  0  0  0  0  0  0  0
   -6.0720   23.1300  -32.5260 N   0  0  0  0  0  0  0  0  0  0  0  0
   -6.2640   21.6940  -32.5760 C   0  0  0  0  0  0  0  0  0  0  0  0
   -7.5370   21.1480  -32.3530 C   0  0  0  0  0  0  0  0  0  0  0  0
   -7.7420   19.7950  -32.3810 C   0  0  0  0  0  0  0  0  0  0  0  0
   -6.7400   18.9140  -32.6880 N   0  0  0  0  0  0  0  0  0  0  0  0
   -6.9830   17.4740  -32.4980 C   0  0  0  0  0  0  0  0  0  0  0  0
   -5.5180   19.4110  -33.1050 C   0  0  0  0  0  0  0  0  0  0  0  0
   -5.2170   20.7950  -32.9270 C   0  0  0  0  0  0  0  0  0  0  0  0
   -3.7940   21.2710  -33.1870 C   0  0  0  0  0  0  0  0  0  0  0  0
   -2.7730   20.1780  -32.8430 C   0  0  0  0  0  0  0  0  0  0  0  0
   -3.1110   18.9190  -33.5890 C   0  0  0  0  0  0  0  0  0  0  0  0
   -2.0970   18.1350  -34.1620 C   0  0  0  0  0  0  0  0  0  0  0  0
   -2.4280   17.0280  -34.9460 C   0  0  0  0  0  0  0  0  0  0  0  0
   -3.7680   16.7170  -35.1830 C   0  0  0  0  0  0  0  0  0  0  0  0
   -4.7800   17.4850  -34.6020 C   0  0  0  0  0  0  0  0  0  0  0  0
   -4.4640   18.5500  -33.7360 C   0  0  0  0  0  0  0  0  0  0  0  0
   -9.1460   19.4420  -32.0270 C   0  0  0  0  0  0  0  0  0  0  0  0
   -9.8680   20.7950  -31.9720 C   0  0  0  0  0  0  0  0  0  0  0  0
   -8.7830   21.8810  -31.9990 C   0  0  0  0  0  0  0  0  0  0  0  0
   -3.5363   22.8207  -28.5837 H   0  0  0  0  0  0  0  0  0  0  0  0
   -4.4351   22.4925  -30.1039 H   0  0  0  0  0  0  0  0  0  0  0  0
   -2.6388   22.4889  -30.1039 H   0  0  0  0  0  0  0  0  0  0  0  0
   -3.9259   25.0058  -29.1321 H   0  0  0  0  0  0  0  0  0  0  0  0
   -2.4966   24.7455  -30.2281 H   0  0  0  0  0  0  0  0  0  0  0  0
   -4.0120   25.6740  -31.6040 H   0  0  0  0  0  0  0  0  0  0  0  0
   -5.8788   25.0823  -29.7527 H   0  0  0  0  0  0  0  0  0  0  0  0
   -6.1893   25.7905  -31.3804 H   0  0  0  0  0  0  0  0  0  0  0  0
   -6.4218   22.9014  -30.4630 H   0  0  0  0  0  0  0  0  0  0  0  0
   -7.6132   23.9342  -31.3540 H   0  0  0  0  0  0  0  0  0  0  0  0
   -6.5480   23.5980  -33.3270 H   0  0  0  0  0  0  0  0  0  0  0  0
   -5.0590   23.3650  -32.6330 H   0  0  0  0  0  0  0  0  0  0  0  0
   -7.0212   17.2474  -31.4223 H   0  0  0  0  0  0  0  0  0  0  0  0
   -7.9403   17.1989  -32.9649 H   0  0  0  0  0  0  0  0  0  0  0  0
   -6.1690   16.9000  -32.9649 H   0  0  0  0  0  0  0  0  0  0  0  0
   -3.6924   21.5355  -34.2499 H   0  0  0  0  0  0  0  0  0  0  0  0
   -3.5968   22.1457  -32.5498 H   0  0  0  0  0  0  0  0  0  0  0  0
   -1.7659   20.5145  -33.1303 H   0  0  0  0  0  0  0  0  0  0  0  0
   -2.8008   19.9800  -31.7613 H   0  0  0  0  0  0  0  0  0  0  0  0
   -1.0411   18.3930  -33.9932 H   0  0  0  0  0  0  0  0  0  0  0  0
   -1.6332   16.4013  -35.3767 H   0  0  0  0  0  0  0  0  0  0  0  0
   -4.0277   15.8652  -35.8288 H   0  0  0  0  0  0  0  0  0  0  0  0
   -5.8330   17.2560  -34.8228 H   0  0  0  0  0  0  0  0  0  0  0  0
   -9.5911   18.7925  -32.7951 H   0  0  0  0  0  0  0  0  0  0  0  0
   -9.2164   18.8864  -31.0802 H   0  0  0  0  0  0  0  0  0  0  0  0
  -10.5339   20.9040  -32.8407 H   0  0  0  0  0  0  0  0  0  0  0  0
  -10.4837   20.8761  -31.0641 H   0  0  0  0  0  0  0  0  0  0  0  0
   -9.0145   22.6443  -32.7565 H   0  0  0  0  0  0  0  0  0  0  0  0
   -8.6987   22.4144  -31.0407 H   0  0  0  0  0  0  0  0  0  0  0  0
  1  2  1  0
  2  3  1  0
  3  4  1  0
  4  5  1  0
  5  6  1  0
  6  7  1  0
  7  8  2  0
  8  9  1  0
  9 10  2  0
 10 11  1  0
 10 12  1  0
 12 13  2  0
 13 14  1  0
 14 15  1  0
 15 16  1  0
 16 17  2  0
 17 18  1  0
 18 19  2  0
 19 20  1  0
 20 21  2  0
  9 22  1  0
 22 23  1  0
 23 24  1  0
 13  7  1  0
 21 16  1  0
 24  8  1  0
 21 12  1  0
  1 25  1  0
  1 26  1  0
  1 27  1  0
  2 28  1  0
  2 29  1  0
  3 30  1  0
  4 31  1  0
  4 32  1  0
  5 33  1  0
  5 34  1  0
  6 35  1  0
  6 36  1  0
 11 37  1  0
 11 38  1  0
 11 39  1  0
 14 40  1  0
 14 41  1  0
 15 42  1  0
 15 43  1  0
 17 44  1  0
 18 45  1  0
 19 46  1  0
 20 47  1  0
 22 48  1  0
 22 49  1  0
 23 50  1  0
 23 51  1  0
 24 52  1  0
 24 53  1  0
M  CHG  2   6   1  10   1
M  END
>  <UniqueID>  (8) 
8

>  <SMILES>  (8) 
CCNCC[NH2+]c1c2c([n+](C)c3c1CCc1ccccc1-3)CCC2

>  <Energy>  (8) 
78.17107391965354

>  <Genealogy>  (8) 
CCNCC[NH2+]c1c2c([n+](C)c3c1CCc1ccccc1-3)CCC2 (protonated)
CCNCC[NH2+]c1c2c([n+](C)c3c1CCc1ccccc1-3)CCC2 (3D coordinates assigned)
CCNCC[NH2+]c1c2c([n+](C)c3c1CCc1ccccc1-3)CCC2 (nonaromatic ring conformer: 78.17107391965354 kcal/mol)

>  <smiles>  (8) 
CCNCCNc1c2c([n+](C)c3c1CCc1ccccc1-3)CCC2

>  <score_type>  (8) 
oracle

>  <origin>  (8) 
adg

>  <m_score__min__energy>  (8) 
-8.6799999999999997

>  <m_primary>  (8) 
energy

$$$$
9:0
     RDKit          3D

 55 57  0  0  0  0  0  0  0  0999 V2000
   -0.4320   26.5820  -36.1100 C   0  0  0  0  0  0  0  0  0  0  0  0
   -0.0500   25.3890  -36.5740 C   0  0  0  0  0  0  0  0  0  0  0  0
    0.7920   24.4450  -35.7520 C   0  0  0  0  0  0  0  0  0  0  0  0
    0.2610   23.0730  -35.7860 N   0  0  0  0  0  0  0  0  0  0  0  0
    1.2560   22.0680  -35.3750 C   0  0  0  0  0  0  0  0  0  0  0  0
    0.7270   20.6390  -35.5790 C   0  0  0  0  0  0  0  0  0  0  0  0
   -0.2320   20.1710  -34.4660 C   0  0  0  0  0  0  0  0  0  0  0  0
   -1.3260   21.1250  -34.1970 N   0  0  0  0  0  0  0  0  0  0  0  0
   -1.3630   21.5300  -32.7860 C   0  0  0  0  0  0  0  0  0  0  0  0
   -2.7980   21.4880  -32.2580 C   0  0  0  0  0  0  0  0  0  0  0  0
   -3.7440   21.2360  -33.3450 N   0  0  0  0  0  0  0  0  0  0  0  0
   -5.0460   20.6770  -33.1010 C   0  0  0  0  0  0  0  0  0  0  0  0
   -6.0680   21.4800  -32.5680 C   0  0  0  0  0  0  0  0  0  0  0  0
   -5.8630   22.8590  -32.3490 C   0  0  0  0  0  0  0  0  0  0  0  0
   -6.8880   23.6600  -31.8530 C   0  0  0  0  0  0  0  0  0  0  0  0
   -8.1340   23.1070  -31.5800 C   0  0  0  0  0  0  0  0  0  0  0  0
   -8.3560   21.7440  -31.7780 C   0  0  0  0  0  0  0  0  0  0  0  0
   -7.3200   20.8940  -32.2430 C   0  0  0  0  0  0  0  0  0  0  0  0
   -7.5080   19.5320  -32.3950 N   0  0  0  0  0  0  0  0  0  0  0  0
   -8.6900   18.8760  -31.7900 C   0  0  0  0  0  0  0  0  0  0  0  0
   -6.5830   18.7810  -33.0970 C   0  0  0  0  0  0  0  0  0  0  0  0
   -6.8620   17.4560  -33.5170 C   0  0  0  0  0  0  0  0  0  0  0  0
   -5.9080   16.7020  -34.2030 C   0  0  0  0  0  0  0  0  0  0  0  0
   -4.6680   17.2510  -34.5050 C   0  0  0  0  0  0  0  0  0  0  0  0
   -4.3770   18.5630  -34.1380 C   0  0  0  0  0  0  0  0  0  0  0  0
   -5.3220   19.3410  -33.4370 C   0  0  0  0  0  0  0  0  0  0  0  0
   -1.0460   27.2451  -36.7371 H   0  0  0  0  0  0  0  0  0  0  0  0
   -0.1325   26.9012  -35.1008 H   0  0  0  0  0  0  0  0  0  0  0  0
   -0.3585   25.0860  -37.5854 H   0  0  0  0  0  0  0  0  0  0  0  0
    1.8167   24.4408  -36.1520 H   0  0  0  0  0  0  0  0  0  0  0  0
    0.7779   24.7927  -34.7085 H   0  0  0  0  0  0  0  0  0  0  0  0
   -0.5700   23.0110  -35.1510 H   0  0  0  0  0  0  0  0  0  0  0  0
    2.1681   22.2011  -35.9753 H   0  0  0  0  0  0  0  0  0  0  0  0
    1.4689   22.2089  -34.3050 H   0  0  0  0  0  0  0  0  0  0  0  0
    0.1910   20.6003  -36.5388 H   0  0  0  0  0  0  0  0  0  0  0  0
    1.5975   19.9668  -35.5585 H   0  0  0  0  0  0  0  0  0  0  0  0
   -0.6736   19.2096  -34.7673 H   0  0  0  0  0  0  0  0  0  0  0  0
    0.3590   20.0849  -33.5423 H   0  0  0  0  0  0  0  0  0  0  0  0
   -1.2430   21.9730  -34.8060 H   0  0  0  0  0  0  0  0  0  0  0  0
   -0.7389   20.8434  -32.1951 H   0  0  0  0  0  0  0  0  0  0  0  0
   -0.9801   22.5575  -32.6990 H   0  0  0  0  0  0  0  0  0  0  0  0
   -2.8842   20.6848  -31.5113 H   0  0  0  0  0  0  0  0  0  0  0  0
   -3.0349   22.4609  -31.8027 H   0  0  0  0  0  0  0  0  0  0  0  0
   -3.4970   21.5350  -34.3140 H   0  0  0  0  0  0  0  0  0  0  0  0
   -4.8830   23.3057  -32.5726 H   0  0  0  0  0  0  0  0  0  0  0  0
   -6.7118   24.7314  -31.6769 H   0  0  0  0  0  0  0  0  0  0  0  0
   -8.9475   23.7463  -31.2066 H   0  0  0  0  0  0  0  0  0  0  0  0
   -9.3503   21.3218  -31.5702 H   0  0  0  0  0  0  0  0  0  0  0  0
   -8.6122   18.9192  -30.6936 H   0  0  0  0  0  0  0  0  0  0  0  0
   -9.6037   19.3961  -32.1135 H   0  0  0  0  0  0  0  0  0  0  0  0
   -8.7320   17.8255  -32.1135 H   0  0  0  0  0  0  0  0  0  0  0  0
   -7.8458   17.0149  -33.2989 H   0  0  0  0  0  0  0  0  0  0  0  0
   -6.1389   15.6699  -34.5054 H   0  0  0  0  0  0  0  0  0  0  0  0
   -3.9150   16.6489  -35.0346 H   0  0  0  0  0  0  0  0  0  0  0  0
   -3.4001   18.9968  -34.3976 H   0  0  0  0  0  0  0  0  0  0  0  0
  1  2  2  0
  2  3  1  0
  3  4  1  0
  4  5  1  0
  5  6  1  0
  6  7  1  0
  7  8  1  0
  8  9  1  0
  9 10  1  0
 10 11  1  0
 11 12  1  0
 12 13  2  0
 13 14  1  0
 14 15  2  0
 15 16  1  0
 16 17  2  0
 17 18  1  0
 18 19  2  0
 19 20  1  0
 19 21  1  0
 21 22  2  0
 22 23  1  0
 23 24  2  0
 24 25  1  0
 25 26  2  0
 26 12  1  0
 18 13  1  0
 26 21  1  0
  1 27  1  0
  1 28  1  0
  2 29  1  0
  3 30  1  0
  3 31  1  0
  4 32  1  0
  5 33  1  0
  5 34  1  0
  6 35  1  0
  6 36  1  0
  7 37  1  0
  7 38  1  0
  8 39  1  0
  9 40  1  0
  9 41  1  0
 10 42  1  0
 10 43  1  0
 11 44  1  0
 14 45  1  0
 15 46  1  0
 16 47  1  0
 17 48  1  0
 20 49  1  0
 20 50  1  0
 20 51  1  0
 22 52  1  0
 23 53  1  0
 24 54  1  0
 25 55  1  0
M  CHG  1  19   1
M  END
>  <UniqueID>  (9) 
9

>  <SMILES>  (9) 
C=CCNCCCNCCNc1c2ccccc2[n+](C)c2ccccc12

>  <Energy>  (9) 
78.33057830986648

>  <Genealogy>  (9) 
C=CCNCCCNCCNc1c2ccccc2[n+](C)c2ccccc12 (3D coordinates assigned)
C=CCNCCCNCCNc1c2ccccc2[n+](C)c2ccccc12 (optimized conformer: 78.33057830986648 kcal/mol)

>  <smiles>  (9) 
C=CCNCCCNCCNc1c2ccccc2[n+](C)c2ccccc12

>  <score_type>  (9) 
oracle

>  <origin>  (9) 
adg

>  <m_score__min__energy>  (9) 
-9.1099999999999994

>  <m_primary>  (9) 
energy

$$$$
10:0
     RDKit          3D

 44 45  0  0  0  0  0  0  0  0999 V2000
   -6.3350   25.2380  -29.7040 C   0  0  0  0  0  0  0  0  0  0  0  0
   -5.3760   25.6520  -30.8140 C   0  0  0  0  0  0  0  0  0  0  0  0
   -4.5050   24.5280  -31.1760 N   0  0  0  0  0  0  0  0  0  0  0  0
   -4.5540   23.4900  -30.1370 C   0  0  0  0  0  0  0  0  0  0  0  0
   -3.2170   22.7370  -30.0470 C   0  0  0  0  0  0  0  0  0  0  0  0
   -3.0960   21.5280  -30.9910 C   0  0  0  0  0  0  0  0  0  0  0  0
   -2.9070   21.9310  -32.4580 C   0  0  0  0  0  0  0  0  0  0  0  0
   -4.2070   22.1550  -33.0870 N   0  0  0  0  0  0  0  0  0  0  0  0
   -5.2320   21.1540  -33.0190 C   0  0  0  0  0  0  0  0  0  0  0  0
   -4.9480   19.8640  -33.4870 C   0  0  0  0  0  0  0  0  0  0  0  0
   -5.8930   18.8390  -33.4000 C   0  0  0  0  0  0  0  0  0  0  0  0
   -5.5390   17.5660  -33.8750 O   0  0  0  0  0  0  0  0  0  0  0  0
   -6.3960   16.4310  -33.8520 C   0  0  0  0  0  0  0  0  0  0  0  0
   -7.1560   19.1100  -32.8440 C   0  0  0  0  0  0  0  0  0  0  0  0
   -7.4690   20.4010  -32.3960 C   0  0  0  0  0  0  0  0  0  0  0  0
   -8.7330   20.6830  -31.8620 C   0  0  0  0  0  0  0  0  0  0  0  0
   -9.0390   21.9770  -31.4490 C   0  0  0  0  0  0  0  0  0  0  0  0
   -8.0830   22.9850  -31.5800 C   0  0  0  0  0  0  0  0  0  0  0  0
   -6.8560   22.7060  -32.0980 N   0  0  0  0  0  0  0  0  0  0  0  0
   -6.5120   21.4410  -32.4910 C   0  0  0  0  0  0  0  0  0  0  0  0
   -5.8723   25.4378  -28.7262 H   0  0  0  0  0  0  0  0  0  0  0  0
   -7.2684   25.8133  -29.7923 H   0  0  0  0  0  0  0  0  0  0  0  0
   -6.5564   24.1641  -29.7923 H   0  0  0  0  0  0  0  0  0  0  0  0
   -5.9542   25.9627  -31.6967 H   0  0  0  0  0  0  0  0  0  0  0  0
   -4.7550   26.4876  -30.4589 H   0  0  0  0  0  0  0  0  0  0  0  0
   -3.5250   24.8950  -31.2140 H   0  0  0  0  0  0  0  0  0  0  0  0
   -4.7669   23.9622  -29.1666 H   0  0  0  0  0  0  0  0  0  0  0  0
   -5.3444   22.7707  -30.3973 H   0  0  0  0  0  0  0  0  0  0  0  0
   -2.4090   23.4431  -30.2890 H   0  0  0  0  0  0  0  0  0  0  0  0
   -3.1520   22.3399  -29.0232 H   0  0  0  0  0  0  0  0  0  0  0  0
   -2.2309   20.9246  -30.6789 H   0  0  0  0  0  0  0  0  0  0  0  0
   -4.0368   20.9620  -30.9235 H   0  0  0  0  0  0  0  0  0  0  0  0
   -2.3140   22.8561  -32.5080 H   0  0  0  0  0  0  0  0  0  0  0  0
   -2.3835   21.1227  -32.9896 H   0  0  0  0  0  0  0  0  0  0  0  0
   -4.2290   22.8050  -33.9060 H   0  0  0  0  0  0  0  0  0  0  0  0
   -3.9634   19.6549  -33.9307 H   0  0  0  0  0  0  0  0  0  0  0  0
   -6.6068   16.1518  -32.8091 H   0  0  0  0  0  0  0  0  0  0  0  0
   -7.3387   16.6729  -34.3646 H   0  0  0  0  0  0  0  0  0  0  0  0
   -5.9052   15.5905  -34.3646 H   0  0  0  0  0  0  0  0  0  0  0  0
   -7.9015   18.3055  -32.7603 H   0  0  0  0  0  0  0  0  0  0  0  0
   -9.4826   19.8834  -31.7691 H   0  0  0  0  0  0  0  0  0  0  0  0
  -10.0274   22.2031  -31.0225 H   0  0  0  0  0  0  0  0  0  0  0  0
   -8.3225   24.0107  -31.2628 H   0  0  0  0  0  0  0  0  0  0  0  0
   -6.1880   23.5010  -32.2010 H   0  0  0  0  0  0  0  0  0  0  0  0
  1  2  1  0
  2  3  1  0
  3  4  1  0
  4  5  1  0
  5  6  1  0
  6  7  1  0
  7  8  1  0
  8  9  1  0
  9 10  2  0
 10 11  1  0
 11 12  1  0
 12 13  1  0
 11 14  2  0
 14 15  1  0
 15 16  2  0
 16 17  1  0
 17 18  2  0
 18 19  1  0
 19 20  2  0
 20  9  1  0
 20 15  1  0
  1 21  1  0
  1 22  1  0
  1 23  1  0
  2 24  1  0
  2 25  1  0
  3 26  1  0
  4 27  1  0
  4 28  1  0
  5 29  1  0
  5 30  1  0
  6 31  1  0
  6 32  1  0
  7 33  1  0
  7 34  1  0
  8 35  1  0
 10 36  1  0
 13 37  1  0
 13 38  1  0
 13 39  1  0
 14 40  1  0
 16 41  1  0
 17 42  1  0
 18 43  1  0
 19 44  1  0
M  CHG  1  19   1
M  END
>  <UniqueID>  (10) 
10

>  <SMILES>  (10) 
CCNCCCCNc1cc(OC)cc2ccc[nH+]c12

>  <Energy>  (10) 
42.51250694535898

>  <Genealogy>  (10) 
CCNCCCCNc1cc(OC)cc2ccc[nH+]c12 (protonated)
CCNCCCCNc1cc(OC)cc2ccc[nH+]c12 (3D coordinates assigned)
CCNCCCCNc1cc(OC)cc2ccc[nH+]c12 (optimized conformer: 42.51250694535898 kcal/mol)

>  <smiles>  (10) 
CCNCCCCNc1cc(OC)cc2cccnc12

>  <score_type>  (10) 
oracle

>  <origin>  (10) 
adg

>  <m_score__min__energy>  (10) 
-7.1200000000000001

>  <m_primary>  (10) 
energy

$$$$
11:0
     RDKit          3D

 52 53  0  0  0  0  0  0  0  0999 V2000
   -2.6780   21.1870  -33.2970 C   0  0  0  0  0  0  0  0  0  0  0  0
   -3.0810   20.8940  -31.8480 C   0  0  0  0  0  0  0  0  0  0  0  0
   -3.4820   22.1120  -31.1200 N   0  0  0  0  0  0  0  0  0  0  0  0
   -2.5550   22.4840  -30.0310 C   0  0  0  0  0  0  0  0  0  0  0  0
   -2.6000   23.9830  -29.6810 C   0  0  0  0  0  0  0  0  0  0  0  0
   -3.5510   24.6470  -30.4880 O   0  0  0  0  0  0  0  0  0  0  0  0
   -4.7340   24.8700  -29.7460 C   0  0  0  0  0  0  0  0  0  0  0  0
   -5.9600   24.4670  -30.5690 C   0  0  0  0  0  0  0  0  0  0  0  0
   -5.5950   23.5570  -31.6680 N   0  0  0  0  0  0  0  0  0  0  0  0
   -6.6810   23.3430  -32.6400 C   0  0  0  0  0  0  0  0  0  0  0  0
   -7.5270   22.1190  -32.3130 C   0  0  0  0  0  0  0  0  0  0  0  0
   -8.7060   22.3210  -31.5790 C   0  0  0  0  0  0  0  0  0  0  0  0
   -9.4560   21.2700  -31.1690 N   0  0  0  0  0  0  0  0  0  0  0  0
   -9.1040   19.9900  -31.4430 C   0  0  0  0  0  0  0  0  0  0  0  0
   -7.9510   19.7160  -32.1890 C   0  0  0  0  0  0  0  0  0  0  0  0
   -7.1700   20.7890  -32.6730 C   0  0  0  0  0  0  0  0  0  0  0  0
   -5.9460   20.4820  -33.5080 C   0  0  0  0  0  0  0  0  0  0  0  0
   -6.0950   19.1620  -34.2550 C   0  0  0  0  0  0  0  0  0  0  0  0
   -6.4330   18.0850  -33.3190 N   0  0  0  0  0  0  0  0  0  0  0  0
   -5.8400   16.7740  -33.4800 C   0  0  0  0  0  0  0  0  0  0  0  0
   -4.3570   16.5680  -33.3870 C   0  0  0  0  0  0  0  0  0  0  0  0
   -6.5690   15.7720  -33.7130 O   0  0  0  0  0  0  0  0  0  0  0  0
   -7.5560   18.2690  -32.3860 C   0  0  0  0  0  0  0  0  0  0  0  0
   -1.7883   21.8338  -33.3065 H   0  0  0  0  0  0  0  0  0  0  0  0
   -2.4500   20.2423  -33.8124 H   0  0  0  0  0  0  0  0  0  0  0  0
   -3.5063   21.6952  -33.8124 H   0  0  0  0  0  0  0  0  0  0  0  0
   -3.9262   20.1900  -31.8516 H   0  0  0  0  0  0  0  0  0  0  0  0
   -2.2055   20.4691  -31.3352 H   0  0  0  0  0  0  0  0  0  0  0  0
   -4.4450   21.9740  -30.7340 H   0  0  0  0  0  0  0  0  0  0  0  0
   -3.5460   22.9120  -31.7940 H   0  0  0  0  0  0  0  0  0  0  0  0
   -2.8213   21.9072  -29.1330 H   0  0  0  0  0  0  0  0  0  0  0  0
   -1.5357   22.2602  -30.3789 H   0  0  0  0  0  0  0  0  0  0  0  0
   -2.8769   24.1004  -28.6229 H   0  0  0  0  0  0  0  0  0  0  0  0
   -1.6080   24.4225  -29.8621 H   0  0  0  0  0  0  0  0  0  0  0  0
   -4.7027   24.2708  -28.8241 H   0  0  0  0  0  0  0  0  0  0  0  0
   -4.8049   25.9393  -29.4977 H   0  0  0  0  0  0  0  0  0  0  0  0
   -6.6822   23.9616  -29.9110 H   0  0  0  0  0  0  0  0  0  0  0  0
   -6.3985   25.3769  -31.0046 H   0  0  0  0  0  0  0  0  0  0  0  0
   -4.7630   23.9480  -32.1670 H   0  0  0  0  0  0  0  0  0  0  0  0
   -7.3313   24.2302  -32.6427 H   0  0  0  0  0  0  0  0  0  0  0  0
   -6.2191   23.1755  -33.6242 H   0  0  0  0  0  0  0  0  0  0  0  0
   -9.0249   23.3448  -31.3337 H   0  0  0  0  0  0  0  0  0  0  0  0
   -9.7280   19.1613  -31.0771 H   0  0  0  0  0  0  0  0  0  0  0  0
   -5.7997   21.2913  -34.2385 H   0  0  0  0  0  0  0  0  0  0  0  0
   -5.0804   20.4009  -32.8340 H   0  0  0  0  0  0  0  0  0  0  0  0
   -6.8951   19.2568  -35.0039 H   0  0  0  0  0  0  0  0  0  0  0  0
   -5.1430   18.9209  -34.7505 H   0  0  0  0  0  0  0  0  0  0  0  0
   -4.0582   16.5265  -32.3292 H   0  0  0  0  0  0  0  0  0  0  0  0
   -4.0862   15.6236  -33.8818 H   0  0  0  0  0  0  0  0  0  0  0  0
   -3.8391   17.4028  -33.8818 H   0  0  0  0  0  0  0  0  0  0  0  0
   -8.4261   17.7215  -32.7773 H   0  0  0  0  0  0  0  0  0  0  0  0
   -7.2270   17.8891  -31.4075 H   0  0  0  0  0  0  0  0  0  0  0  0
  1  2  1  0
  2  3  1  0
  3  4  1  0
  4  5  1  0
  5  6  1  0
  6  7  1  0
  7  8  1  0
  8  9  1  0
  9 10  1  0
 10 11  1  0
 11 12  2  0
 12 13  1  0
 13 14  2  0
 14 15  1  0
 15 16  2  0
 16 17  1  0
 17 18  1  0
 18 19  1  0
 19 20  1  0
 20 21  1  0
 20 22  2  0
 19 23  1  0
 16 11  1  0
 23 15  1  0
  1 24  1  0
  1 25  1  0
  1 26  1  0
  2 27  1  0
  2 28  1  0
  3 29  1  0
  3 30  1  0
  4 31  1  0
  4 32  1  0
  5 33  1  0
  5 34  1  0
  7 35  1  0
  7 36  1  0
  8 37  1  0
  8 38  1  0
  9 39  1  0
 10 40  1  0
 10 41  1  0
 12 42  1  0
 14 43  1  0
 17 44  1  0
 17 45  1  0
 18 46  1  0
 18 47  1  0
 21 48  1  0
 21 49  1  0
 21 50  1  0
 23 51  1  0
 23 52  1  0
M  CHG  1   3   1
M  END
>  <UniqueID>  (11) 
11

>  <SMILES>  (11) 
CC[NH2+]CCOCCNCc1cncc2c1CCN(C(C)=O)C2

>  <Energy>  (11) 
54.082180018100395

>  <Genealogy>  (11) 
CC[NH2+]CCOCCNCc1cncc2c1CCN(C(C)=O)C2 (protonated)
CC[NH2+]CCOCCNCc1cncc2c1CCN(C(C)=O)C2 (3D coordinates assigned)
CC[NH2+]CCOCCNCc1cncc2c1CCN(C(C)=O)C2 (nonaromatic ring conformer: 54.082180018100395 kcal/mol)

>  <smiles>  (11) 
CCNCCOCCNCc1cncc2c1CCN(C(C)=O)C2

>  <score_type>  (11) 
oracle

>  <origin>  (11) 
adg

>  <m_score__min__energy>  (11) 
-6.9699999999999998

>  <m_primary>  (11) 
energy

$$$$
12:0
     RDKit          3D

 40 41  0  0  1  0  0  0  0  0999 V2000
   -6.1550   24.9960  -29.6220 C   0  0  0  0  0  0  0  0  0  0  0  0
   -5.4050   25.6460  -30.7900 C   0  0  0  0  0  0  0  0  0  0  0  0
   -4.1120   25.1970  -30.7310 O   0  0  0  0  0  0  0  0  0  0  0  0
   -3.7640   24.5160  -29.5850 C   0  0  0  0  0  0  0  0  0  0  0  0
   -2.8960   23.3340  -29.8740 C   0  0  0  0  0  0  0  0  0  0  0  0
   -3.0150   22.8650  -31.1700 O   0  0  0  0  0  0  0  0  0  0  0  0
   -2.0950   21.9190  -31.5440 C   0  0  0  0  0  0  0  0  0  0  0  0
   -2.8960   20.8060  -32.2340 C   0  0  0  0  0  0  0  0  0  0  0  0
   -3.8820   21.3290  -33.1330 N   0  0  0  0  0  0  0  0  0  0  0  0
   -5.0570   21.6230  -32.6730 C   0  0  0  0  0  0  0  0  0  0  0  0
   -5.4820   22.7700  -32.1270 N   0  0  0  0  0  0  0  0  0  0  0  0
   -6.7610   22.6790  -31.7770 N   0  0  0  0  0  0  0  0  0  0  0  0
   -7.1470   21.4440  -32.1110 C   0  0  0  0  0  0  0  0  0  0  0  0
   -6.0940   20.7870  -32.6670 N   0  0  0  0  0  0  0  0  0  0  0  0
   -6.2090   19.4440  -33.1220 C   0  0  0  0  0  0  0  0  0  0  0  0
   -5.7470   19.0120  -34.3450 C   0  0  0  0  0  0  0  0  0  0  0  0
   -5.9330   17.6770  -34.6450 C   0  0  0  0  0  0  0  0  0  0  0  0
   -6.5490   16.7900  -33.7860 C   0  0  0  0  0  0  0  0  0  0  0  0
   -6.8000   14.9470  -34.2110 Br  0  0  0  0  0  0  0  0  0  0  0  0
   -7.0130   17.2250  -32.5590 C   0  0  0  0  0  0  0  0  0  0  0  0
   -6.8360   18.5590  -32.2380 C   0  0  0  0  0  0  0  0  0  0  0  0
   -5.7372   25.3581  -28.6710 H   0  0  0  0  0  0  0  0  0  0  0  0
   -7.2213   25.2604  -29.6784 H   0  0  0  0  0  0  0  0  0  0  0  0
   -6.0448   23.9030  -29.6784 H   0  0  0  0  0  0  0  0  0  0  0  0
   -5.8645   25.3519  -31.7452 H   0  0  0  0  0  0  0  0  0  0  0  0
   -5.4446   26.7432  -30.7219 H   0  0  0  0  0  0  0  0  0  0  0  0
   -3.2202   25.2004  -28.9172 H   0  0  0  0  0  0  0  0  0  0  0  0
   -4.6887   24.1499  -29.1150 H   0  0  0  0  0  0  0  0  0  0  0  0
   -1.8481   23.6215  -29.7027 H   0  0  0  0  0  0  0  0  0  0  0  0
   -3.2211   22.5231  -29.2056 H   0  0  0  0  0  0  0  0  0  0  0  0
   -1.3622   22.3519  -32.2409 H   0  0  0  0  0  0  0  0  0  0  0  0
   -1.5331   21.5367  -30.6791 H   0  0  0  0  0  0  0  0  0  0  0  0
   -2.2016   20.1687  -32.8011 H   0  0  0  0  0  0  0  0  0  0  0  0
   -3.4188   20.2321  -31.4547 H   0  0  0  0  0  0  0  0  0  0  0  0
   -4.9270   23.6210  -31.9830 H   0  0  0  0  0  0  0  0  0  0  0  0
   -8.1535   21.0264  -31.9606 H   0  0  0  0  0  0  0  0  0  0  0  0
   -5.2533   19.6976  -35.0494 H   0  0  0  0  0  0  0  0  0  0  0  0
   -5.5730   17.3029  -35.6148 H   0  0  0  0  0  0  0  0  0  0  0  0
   -7.5068   16.5333  -31.8606 H   0  0  0  0  0  0  0  0  0  0  0  0
   -7.1957   18.9317  -31.2676 H   0  0  0  0  0  0  0  0  0  0  0  0
  1  2  1  0
  2  3  1  0
  3  4  1  0
  4  5  1  0
  5  6  1  0
  6  7  1  0
  7  8  1  0
  8  9  1  0
  9 10  2  0
 10 11  1  0
 11 12  1  0
 12 13  2  0
 13 14  1  0
 14 15  1  0
 15 16  2  0
 16 17  1  0
 17 18  2  0
 18 19  1  0
 18 20  1  0
 20 21  2  0
 14 10  1  0
 21 15  1  0
  1 22  1  0
  1 23  1  0
  1 24  1  0
  2 25  1  0
  2 26  1  0
  4 27  1  0
  4 28  1  0
  5 29  1  0
  5 30  1  0
  7 31  1  0
  7 32  1  0
  8 33  1  0
  8 34  1  0
 11 35  1  0
 13 36  1  0
 16 37  1  0
 17 38  1  0
 20 39  1  0
 21 40  1  0
M  END
>  <smiles>  (12) 
CCOCCOCCN=c1[nH]ncn1-c1ccc(Br)cc1

>  <score_type>  (12) 
oracle

>  <origin>  (12) 
adg

>  <m_score__min__energy>  (12) 
-7.6399999999999997

>  <m_primary>  (12) 
energy

$$$$
13:0
     RDKit          3D

 53 55  0  0  0  0  0  0  0  0999 V2000
   -0.9080   22.3490  -30.1980 C   0  0  0  0  0  0  0  0  0  0  0  0
   -0.2750   23.0540  -29.0040 C   0  0  0  0  0  0  0  0  0  0  0  0
   -0.4670   24.5060  -29.1160 N   0  0  0  0  0  0  0  0  0  0  0  0
   -1.3460   25.0200  -28.0570 C   0  0  0  0  0  0  0  0  0  0  0  0
   -2.8150   24.7210  -28.3830 C   0  0  0  0  0  0  0  0  0  0  0  0
   -3.0750   24.9170  -29.7600 O   0  0  0  0  0  0  0  0  0  0  0  0
   -4.4610   24.8810  -30.0500 C   0  0  0  0  0  0  0  0  0  0  0  0
   -4.9030   23.4220  -30.1430 C   0  0  0  0  0  0  0  0  0  0  0  0
   -4.1250   22.6630  -31.2190 C   0  0  0  0  0  0  0  0  0  0  0  0
   -5.0020   22.3250  -32.3380 N   0  0  0  0  0  0  0  0  0  0  0  0
   -5.2990   20.9540  -32.6450 C   0  0  0  0  0  0  0  0  0  0  0  0
   -4.2780   20.1250  -33.1480 C   0  0  0  0  0  0  0  0  0  0  0  0
   -3.0420   20.6660  -33.5690 C   0  0  0  0  0  0  0  0  0  0  0  0
   -2.0490   19.8450  -34.0970 C   0  0  0  0  0  0  0  0  0  0  0  0
   -2.2700   18.4800  -34.2250 C   0  0  0  0  0  0  0  0  0  0  0  0
   -3.4720   17.9220  -33.7960 C   0  0  0  0  0  0  0  0  0  0  0  0
   -4.4860   18.7250  -33.2120 C   0  0  0  0  0  0  0  0  0  0  0  0
   -5.6420   18.1760  -32.6980 N   0  0  0  0  0  0  0  0  0  0  0  0
   -5.7150   16.7200  -32.4390 C   0  0  0  0  0  0  0  0  0  0  0  0
   -6.7240   18.9870  -32.4080 C   0  0  0  0  0  0  0  0  0  0  0  0
   -8.0020   18.4320  -32.1470 C   0  0  0  0  0  0  0  0  0  0  0  0
   -9.0890   19.2390  -31.8400 C   0  0  0  0  0  0  0  0  0  0  0  0
   -8.9540   20.6170  -31.8300 C   0  0  0  0  0  0  0  0  0  0  0  0
   -7.7290   21.2160  -32.1260 C   0  0  0  0  0  0  0  0  0  0  0  0
   -7.8120   23.1310  -32.3150 Br  0  0  0  0  0  0  0  0  0  0  0  0
   -6.5780   20.4080  -32.3850 C   0  0  0  0  0  0  0  0  0  0  0  0
   -1.6030   21.5749  -29.8406 H   0  0  0  0  0  0  0  0  0  0  0  0
   -1.4572   23.0817  -30.8076 H   0  0  0  0  0  0  0  0  0  0  0  0
   -0.1206   21.8816  -30.8076 H   0  0  0  0  0  0  0  0  0  0  0  0
   -0.7466   22.6949  -28.0774 H   0  0  0  0  0  0  0  0  0  0  0  0
    0.8025   22.8334  -28.9850 H   0  0  0  0  0  0  0  0  0  0  0  0
   -0.9320   24.7020  -30.0340 H   0  0  0  0  0  0  0  0  0  0  0  0
   -1.0822   24.5396  -27.1032 H   0  0  0  0  0  0  0  0  0  0  0  0
   -1.2134   26.1095  -27.9834 H   0  0  0  0  0  0  0  0  0  0  0  0
   -3.0374   23.6765  -28.1193 H   0  0  0  0  0  0  0  0  0  0  0  0
   -3.4509   25.4064  -27.8035 H   0  0  0  0  0  0  0  0  0  0  0  0
   -5.0202   25.3870  -29.2492 H   0  0  0  0  0  0  0  0  0  0  0  0
   -4.6585   25.3944  -31.0026 H   0  0  0  0  0  0  0  0  0  0  0  0
   -4.7340   22.9356  -29.1710 H   0  0  0  0  0  0  0  0  0  0  0  0
   -5.9692   23.4031  -30.4130 H   0  0  0  0  0  0  0  0  0  0  0  0
   -3.3000   23.2933  -31.5825 H   0  0  0  0  0  0  0  0  0  0  0  0
   -3.7273   21.7343  -30.7839 H   0  0  0  0  0  0  0  0  0  0  0  0
   -5.1980   23.0600  -33.0550 H   0  0  0  0  0  0  0  0  0  0  0  0
   -2.8625   21.7475  -33.4786 H   0  0  0  0  0  0  0  0  0  0  0  0
   -1.0885   20.2781  -34.4130 H   0  0  0  0  0  0  0  0  0  0  0  0
   -1.4937   17.8377  -34.6664 H   0  0  0  0  0  0  0  0  0  0  0  0
   -3.6381   16.8408  -33.9118 H   0  0  0  0  0  0  0  0  0  0  0  0
   -5.7240   16.5406  -31.3538 H   0  0  0  0  0  0  0  0  0  0  0  0
   -6.6346   16.3138  -32.8854 H   0  0  0  0  0  0  0  0  0  0  0  0
   -4.8406   16.2239  -32.8854 H   0  0  0  0  0  0  0  0  0  0  0  0
   -8.1349   17.3409  -32.1885 H   0  0  0  0  0  0  0  0  0  0  0  0
  -10.0613   18.7820  -31.6038 H   0  0  0  0  0  0  0  0  0  0  0  0
   -9.8223   21.2467  -31.5859 H   0  0  0  0  0  0  0  0  0  0  0  0
  1  2  1  0
  2  3  1  0
  3  4  1  0
  4  5  1  0
  5  6  1  0
  6  7  1  0
  7  8  1  0
  8  9  1  0
  9 10  1  0
 10 11  1  0
 11 12  2  0
 12 13  1  0
 13 14  2  0
 14 15  1  0
 15 16  2  0
 16 17  1  0
 17 18  2  0
 18 19  1  0
 18 20  1  0
 20 21  2  0
 21 22  1  0
 22 23  2  0
 23 24  1  0
 24 25  1  0
 24 26  2  0
 26 11  1  0
 17 12  1  0
 26 20  1  0
  1 27  1  0
  1 28  1  0
  1 29  1  0
  2 30  1  0
  2 31  1  0
  3 32  1  0
  4 33  1  0
  4 34  1  0
  5 35  1  0
  5 36  1  0
  7 37  1  0
  7 38  1  0
  8 39  1  0
  8 40  1  0
  9 41  1  0
  9 42  1  0
 10 43  1  0
 13 44  1  0
 14 45  1  0
 15 46  1  0
 16 47  1  0
 19 48  1  0
 19 49  1  0
 19 50  1  0
 21 51  1  0
 22 52  1  0
 23 53  1  0
M  CHG  1  18   1
M  END
>  <UniqueID>  (13) 
12

>  <SMILES>  (13) 
CCNCCOCCCNc1c2ccccc2[n+](C)c2cccc(Br)c12

>  <Energy>  (13) 
78.89897423321814

>  <Genealogy>  (13) 
CCNCCOCCCNc1c2ccccc2[n+](C)c2cccc(Br)c12 (3D coordinates assigned)
CCNCCOCCCNc1c2ccccc2[n+](C)c2cccc(Br)c12 (optimized conformer: 78.89897423321814 kcal/mol)

>  <smiles>  (13) 
CCNCCOCCCNc1c2ccccc2[n+](C)c2cccc(Br)c12

>  <score_type>  (13) 
oracle

>  <origin>  (13) 
adg

>  <m_score__min__energy>  (13) 
-8.5600000000000005

>  <m_primary>  (13) 
energy

$$$$
14:0
     RDKit          3D

 55 57  0  0  0  0  0  0  0  0999 V2000
   -5.4440   22.8280  -29.7630 C   0  0  0  0  0  0  0  0  0  0  0  0
   -6.1090   24.1750  -30.0860 C   0  0  0  0  0  0  0  0  0  0  0  0
   -5.0410   25.2080  -30.4640 C   0  0  0  0  0  0  0  0  0  0  0  0
   -7.1470   24.0450  -31.2220 C   0  0  0  0  0  0  0  0  0  0  0  0
   -7.4370   22.6060  -31.5760 C   0  0  0  0  0  0  0  0  0  0  0  0
   -8.4130   21.8840  -30.8720 C   0  0  0  0  0  0  0  0  0  0  0  0
   -8.6870   20.5540  -31.2050 C   0  0  0  0  0  0  0  0  0  0  0  0
   -7.9920   19.9240  -32.2520 C   0  0  0  0  0  0  0  0  0  0  0  0
   -8.3630   18.5260  -32.6990 C   0  0  0  0  0  0  0  0  0  0  0  0
   -7.2840   17.5110  -32.5650 N   0  0  0  0  0  0  0  0  0  0  0  0
   -6.8350   16.9350  -33.8580 C   0  0  0  0  0  0  0  0  0  0  0  0
   -5.7020   17.7270  -34.5570 C   0  0  0  0  0  0  0  0  0  0  0  0
   -4.9660   18.6280  -33.6460 N   0  0  0  0  0  0  0  0  0  0  0  0
   -3.6500   18.9710  -34.2250 C   0  0  0  0  0  0  0  0  0  0  0  0
   -2.8780   19.8740  -33.2980 C   0  0  0  0  0  0  0  0  0  0  0  0
   -1.5790   19.5230  -32.9060 C   0  0  0  0  0  0  0  0  0  0  0  0
   -0.8440   20.3610  -32.0640 C   0  0  0  0  0  0  0  0  0  0  0  0
   -1.4030   21.5580  -31.6070 C   0  0  0  0  0  0  0  0  0  0  0  0
   -2.6970   21.9170  -31.9940 C   0  0  0  0  0  0  0  0  0  0  0  0
   -3.2370   23.0800  -31.5530 F   0  0  0  0  0  0  0  0  0  0  0  0
   -3.4350   21.0790  -32.8380 C   0  0  0  0  0  0  0  0  0  0  0  0
   -4.8140   17.9950  -32.3280 C   0  0  0  0  0  0  0  0  0  0  0  0
   -6.1830   17.9200  -31.6470 C   0  0  0  0  0  0  0  0  0  0  0  0
   -7.0210   20.6530  -32.9590 C   0  0  0  0  0  0  0  0  0  0  0  0
   -6.7350   21.9760  -32.6150 C   0  0  0  0  0  0  0  0  0  0  0  0
   -5.3818   22.7021  -28.6720 H   0  0  0  0  0  0  0  0  0  0  0  0
   -6.0424   22.0112  -30.1929 H   0  0  0  0  0  0  0  0  0  0  0  0
   -4.4317   22.8064  -30.1929 H   0  0  0  0  0  0  0  0  0  0  0  0
   -6.6429   24.5102  -29.1846 H   0  0  0  0  0  0  0  0  0  0  0  0
   -4.6018   25.6328  -29.5493 H   0  0  0  0  0  0  0  0  0  0  0  0
   -4.2531   24.7206  -31.0569 H   0  0  0  0  0  0  0  0  0  0  0  0
   -5.5019   26.0117  -31.0569 H   0  0  0  0  0  0  0  0  0  0  0  0
   -8.0832   24.5254  -30.9015 H   0  0  0  0  0  0  0  0  0  0  0  0
   -6.7288   24.5320  -32.1153 H   0  0  0  0  0  0  0  0  0  0  0  0
   -8.9659   22.3675  -30.0531 H   0  0  0  0  0  0  0  0  0  0  0  0
   -9.4516   19.9968  -30.6439 H   0  0  0  0  0  0  0  0  0  0  0  0
   -9.2207   18.1924  -32.0964 H   0  0  0  0  0  0  0  0  0  0  0  0
   -8.5828   18.5976  -33.7744 H   0  0  0  0  0  0  0  0  0  0  0  0
   -7.7610   16.7130  -32.0780 H   0  0  0  0  0  0  0  0  0  0  0  0
   -6.4746   15.9126  -33.6716 H   0  0  0  0  0  0  0  0  0  0  0  0
   -7.7026   16.9698  -34.5333 H   0  0  0  0  0  0  0  0  0  0  0  0
   -4.9890   17.0085  -34.9876 H   0  0  0  0  0  0  0  0  0  0  0  0
   -6.1734   18.3573  -35.3255 H   0  0  0  0  0  0  0  0  0  0  0  0
   -3.0762   18.0470  -34.3894 H   0  0  0  0  0  0  0  0  0  0  0  0
   -3.8096   19.4965  -35.1781 H   0  0  0  0  0  0  0  0  0  0  0  0
   -1.1356   18.5820  -33.2635 H   0  0  0  0  0  0  0  0  0  0  0  0
    0.1750   20.0789  -31.7605 H   0  0  0  0  0  0  0  0  0  0  0  0
   -0.8245   22.2171  -30.9430 H   0  0  0  0  0  0  0  0  0  0  0  0
   -4.4530   21.3644  -33.1417 H   0  0  0  0  0  0  0  0  0  0  0  0
   -4.4080   16.9801  -32.4515 H   0  0  0  0  0  0  0  0  0  0  0  0
   -4.1246   18.5883  -31.7094 H   0  0  0  0  0  0  0  0  0  0  0  0
   -6.1241   17.1890  -30.8271 H   0  0  0  0  0  0  0  0  0  0  0  0
   -6.4210   18.9323  -31.2883 H   0  0  0  0  0  0  0  0  0  0  0  0
   -6.4811   20.1773  -33.7911 H   0  0  0  0  0  0  0  0  0  0  0  0
   -5.9554   22.5271  -33.1614 H   0  0  0  0  0  0  0  0  0  0  0  0
  1  2  1  0
  2  3  1  0
  2  4  1  0
  4  5  1  0
  5  6  2  0
  6  7  1  0
  7  8  2  0
  8  9  1  0
  9 10  1  0
 10 11  1  0
 11 12  1  0
 12 13  1  0
 13 14  1  0
 14 15  1  0
 15 16  2  0
 16 17  1  0
 17 18  2  0
 18 19  1  0
 19 20  1  0
 19 21  2  0
 13 22  1  0
 22 23  1  0
  8 24  1  0
 24 25  2  0
 25  5  1  0
 23 10  1  0
 21 15  1  0
  1 26  1  0
  1 27  1  0
  1 28  1  0
  2 29  1  0
  3 30  1  0
  3 31  1  0
  3 32  1  0
  4 33  1  0
  4 34  1  0
  6 35  1  0
  7 36  1  0
  9 37  1  0
  9 38  1  0
 10 39  1  0
 11 40  1  0
 11 41  1  0
 12 42  1  0
 12 43  1  0
 14 44  1  0
 14 45  1  0
 16 46  1  0
 17 47  1  0
 18 48  1  0
 21 49  1  0
 22 50  1  0
 22 51  1  0
 23 52  1  0
 23 53  1  0
 24 54  1  0
 25 55  1  0
M  CHG  1  10   1
M  END
>  <UniqueID>  (14) 
13

>  <SMILES>  (14) 
CC(C)Cc1ccc(C[NH+]2CCN(Cc3cccc(F)c3)CC2)cc1

>  <Energy>  (14) 
62.804022654043976

>  <Genealogy>  (14) 
CC(C)Cc1ccc(C[NH+]2CCN(Cc3cccc(F)c3)CC2)cc1 (protonated)
CC(C)Cc1ccc(C[NH+]2CCN(Cc3cccc(F)c3)CC2)cc1 (3D coordinates assigned)
CC(C)Cc1ccc(C[NH+]2CCN(Cc3cccc(F)c3)CC2)cc1 (nonaromatic ring conformer: 62.804022654043976 kcal/mol)

>  <smiles>  (14) 
CC(C)Cc1ccc(CN2CCN(Cc3cccc(F)c3)CC2)cc1

>  <score_type>  (14) 
oracle

>  <origin>  (14) 
adg

>  <m_score__min__energy>  (14) 
-7.3600000000000003

>  <m_primary>  (14) 
energy

$$$$
15:0
     RDKit          3D

 48 50  0  0  0  0  0  0  0  0999 V2000
   -5.2520   25.7250  -30.4470 C   0  0  0  0  0  0  0  0  0  0  0  0
   -3.8880   25.3130  -30.4670 O   0  0  0  0  0  0  0  0  0  0  0  0
   -3.4560   23.9970  -30.2420 C   0  0  0  0  0  0  0  0  0  0  0  0
   -2.8510   23.6970  -29.0160 C   0  0  0  0  0  0  0  0  0  0  0  0
   -2.3930   22.4060  -28.7500 C   0  0  0  0  0  0  0  0  0  0  0  0
   -2.5260   21.4000  -29.7110 C   0  0  0  0  0  0  0  0  0  0  0  0
   -3.1290   21.6810  -30.9510 C   0  0  0  0  0  0  0  0  0  0  0  0
   -3.2590   20.6730  -31.9700 N   0  0  0  0  0  0  0  0  0  0  0  0
   -2.1470   20.2500  -32.8220 C   0  0  0  0  0  0  0  0  0  0  0  0
   -2.5870   19.1950  -33.8430 C   0  0  0  0  0  0  0  0  0  0  0  0
   -3.7790   18.4760  -33.3600 N   0  0  0  0  0  0  0  0  0  0  0  0
   -4.6960   18.0480  -34.4360 C   0  0  0  0  0  0  0  0  0  0  0  0
   -6.1260   17.9050  -33.9000 C   0  0  0  0  0  0  0  0  0  0  0  0
   -6.6000   19.1670  -33.2320 C   0  0  0  0  0  0  0  0  0  0  0  0
   -5.9460   20.3500  -33.3810 N   0  0  0  0  0  0  0  0  0  0  0  0
   -6.6460   21.1870  -32.5970 C   0  0  0  0  0  0  0  0  0  0  0  0
   -6.3890   22.5350  -32.3610 C   0  0  0  0  0  0  0  0  0  0  0  0
   -7.2400   23.2170  -31.4710 C   0  0  0  0  0  0  0  0  0  0  0  0
   -8.3100   22.5400  -30.8440 C   0  0  0  0  0  0  0  0  0  0  0  0
   -8.5410   21.1760  -31.1000 C   0  0  0  0  0  0  0  0  0  0  0  0
   -7.6820   20.5310  -31.9960 C   0  0  0  0  0  0  0  0  0  0  0  0
   -7.6780   19.2480  -32.4010 N   0  0  0  0  0  0  0  0  0  0  0  0
   -8.5600   18.1650  -31.9620 C   0  0  0  0  0  0  0  0  0  0  0  0
   -3.6030   22.9780  -31.2040 C   0  0  0  0  0  0  0  0  0  0  0  0
   -5.5890   25.8268  -29.4049 H   0  0  0  0  0  0  0  0  0  0  0  0
   -5.3502   26.6929  -30.9603 H   0  0  0  0  0  0  0  0  0  0  0  0
   -5.8696   24.9733  -30.9603 H   0  0  0  0  0  0  0  0  0  0  0  0
   -2.7357   24.4846  -28.2567 H   0  0  0  0  0  0  0  0  0  0  0  0
   -1.9256   22.1793  -27.7804 H   0  0  0  0  0  0  0  0  0  0  0  0
   -2.1582   20.3855  -29.4974 H   0  0  0  0  0  0  0  0  0  0  0  0
   -4.2060   20.2630  -32.1350 H   0  0  0  0  0  0  0  0  0  0  0  0
   -1.7564   21.1263  -33.3601 H   0  0  0  0  0  0  0  0  0  0  0  0
   -1.3723   19.8051  -32.1802 H   0  0  0  0  0  0  0  0  0  0  0  0
   -2.8243   19.6903  -34.7961 H   0  0  0  0  0  0  0  0  0  0  0  0
   -1.7689   18.4734  -33.9844 H   0  0  0  0  0  0  0  0  0  0  0  0
   -4.3070   19.1150  -32.7170 H   0  0  0  0  0  0  0  0  0  0  0  0
   -4.6846   18.7980  -35.2406 H   0  0  0  0  0  0  0  0  0  0  0  0
   -4.3618   17.0731  -34.8205 H   0  0  0  0  0  0  0  0  0  0  0  0
   -6.7989   17.6712  -34.7382 H   0  0  0  0  0  0  0  0  0  0  0  0
   -6.1322   17.0986  -33.1519 H   0  0  0  0  0  0  0  0  0  0  0  0
   -5.5501   23.0491  -32.8530 H   0  0  0  0  0  0  0  0  0  0  0  0
   -7.0709   24.2837  -31.2623 H   0  0  0  0  0  0  0  0  0  0  0  0
   -8.9678   23.0838  -30.1500 H   0  0  0  0  0  0  0  0  0  0  0  0
   -9.3669   20.6365  -30.6134 H   0  0  0  0  0  0  0  0  0  0  0  0
   -8.5845   18.1349  -30.8627 H   0  0  0  0  0  0  0  0  0  0  0  0
   -9.5755   18.3404  -32.3467 H   0  0  0  0  0  0  0  0  0  0  0  0
   -8.1827   17.2060  -32.3467 H   0  0  0  0  0  0  0  0  0  0  0  0
   -4.0940   23.2010  -32.1627 H   0  0  0  0  0  0  0  0  0  0  0  0
  1  2  1  0
  2  3  1  0
  3  4  2  0
  4  5  1  0
  5  6  2  0
  6  7  1  0
  7  8  1  0
  8  9  1  0
  9 10  1  0
 10 11  1  0
 11 12  1  0
 12 13  1  0
 13 14  1  0
 14 15  2  0
 15 16  1  0
 16 17  2  0
 17 18  1  0
 18 19  2  0
 19 20  1  0
 20 21  2  0
 21 22  1  0
 22 23  1  0
  7 24  2  0
 24  3  1  0
 22 14  1  0
 21 16  1  0
  1 25  1  0
  1 26  1  0
  1 27  1  0
  4 28  1  0
  5 29  1  0
  6 30  1  0
  8 31  1  0
  9 32  1  0
  9 33  1  0
 10 34  1  0
 10 35  1  0
 11 36  1  0
 12 37  1  0
 12 38  1  0
 13 39  1  0
 13 40  1  0
 17 41  1  0
 18 42  1  0
 19 43  1  0
 20 44  1  0
 23 45  1  0
 23 46  1  0
 23 47  1  0
 24 48  1  0
M  END
>  <UniqueID>  (15) 
14

>  <SMILES>  (15) 
COc1cccc(NCCNCCc2nc3ccccc3n2C)c1

>  <Energy>  (15) 
83.34393977824772

>  <Genealogy>  (15) 
COc1cccc(NCCNCCc2nc3ccccc3n2C)c1 (3D coordinates assigned)
COc1cccc(NCCNCCc2nc3ccccc3n2C)c1 (optimized conformer: 83.34393977824772 kcal/mol)

>  <smiles>  (15) 
COc1cccc(NCCNCCc2nc3ccccc3n2C)c1

>  <score_type>  (15) 
oracle

>  <origin>  (15) 
adg

>  <m_score__min__energy>  (15) 
-7.46

>  <m_primary>  (15) 
energy

$$$$
16:0
     RDKit          3D

 52 55  0  0  0  0  0  0  0  0999 V2000
   -0.7670   18.6840  -34.2560 C   0  0  0  0  0  0  0  0  0  0  0  0
   -0.1080   19.8890  -33.5880 C   0  0  0  0  0  0  0  0  0  0  0  0
   -0.5410   21.2080  -34.2330 C   0  0  0  0  0  0  0  0  0  0  0  0
   -1.9110   21.5500  -33.8280 N   0  0  0  0  0  0  0  0  0  0  0  0
   -2.0810   21.4980  -32.3660 C   0  0  0  0  0  0  0  0  0  0  0  0
   -3.5700   21.4150  -32.0130 C   0  0  0  0  0  0  0  0  0  0  0  0
   -4.4200   21.4980  -33.2190 N   0  0  0  0  0  0  0  0  0  0  0  0
   -5.6430   20.7200  -33.0650 C   0  0  0  0  0  0  0  0  0  0  0  0
   -6.8110   21.3650  -32.5700 C   0  0  0  0  0  0  0  0  0  0  0  0
   -6.8980   22.7740  -32.4210 C   0  0  0  0  0  0  0  0  0  0  0  0
   -8.0620   23.3790  -31.9580 C   0  0  0  0  0  0  0  0  0  0  0  0
   -9.1670   22.6060  -31.6350 C   0  0  0  0  0  0  0  0  0  0  0  0
   -9.1050   21.2210  -31.7540 C   0  0  0  0  0  0  0  0  0  0  0  0
   -7.9240   20.5740  -32.2030 C   0  0  0  0  0  0  0  0  0  0  0  0
   -7.8380   19.2060  -32.2700 N   0  0  0  0  0  0  0  0  0  0  0  0
   -8.9390   18.3680  -31.7390 C   0  0  0  0  0  0  0  0  0  0  0  0
   -6.7530   18.6080  -32.8650 C   0  0  0  0  0  0  0  0  0  0  0  0
   -6.7560   17.2540  -33.0100 N   0  0  0  0  0  0  0  0  0  0  0  0
   -5.7540   16.5760  -33.6020 C   0  0  0  0  0  0  0  0  0  0  0  0
   -5.8160   15.1810  -33.7050 C   0  0  0  0  0  0  0  0  0  0  0  0
   -4.7880   14.4820  -34.3420 C   0  0  0  0  0  0  0  0  0  0  0  0
   -3.7020   15.1760  -34.8800 C   0  0  0  0  0  0  0  0  0  0  0  0
   -3.6410   16.5700  -34.7800 C   0  0  0  0  0  0  0  0  0  0  0  0
   -4.6740   17.2810  -34.1320 C   0  0  0  0  0  0  0  0  0  0  0  0
   -4.6650   18.6810  -34.0100 C   0  0  0  0  0  0  0  0  0  0  0  0
   -3.7370   19.3040  -34.5920 O   0  0  0  0  0  0  0  0  0  0  0  0
   -5.6730   19.3510  -33.3190 N   0  0  0  0  0  0  0  0  0  0  0  0
   -1.1429   17.9967  -33.4837 H   0  0  0  0  0  0  0  0  0  0  0  0
   -1.6044   19.0246  -34.8827 H   0  0  0  0  0  0  0  0  0  0  0  0
   -0.0284   18.1627  -34.8827 H   0  0  0  0  0  0  0  0  0  0  0  0
   -0.3895   19.9040  -32.5247 H   0  0  0  0  0  0  0  0  0  0  0  0
    0.9810   19.7921  -33.7091 H   0  0  0  0  0  0  0  0  0  0  0  0
    0.1420   22.0090  -33.9139 H   0  0  0  0  0  0  0  0  0  0  0  0
   -0.5091   21.0979  -35.3270 H   0  0  0  0  0  0  0  0  0  0  0  0
   -2.5580   20.8520  -34.2650 H   0  0  0  0  0  0  0  0  0  0  0  0
   -1.5631   20.6118  -31.9705 H   0  0  0  0  0  0  0  0  0  0  0  0
   -1.6551   22.4092  -31.9208 H   0  0  0  0  0  0  0  0  0  0  0  0
   -3.7637   20.4589  -31.5048 H   0  0  0  0  0  0  0  0  0  0  0  0
   -3.8166   22.2644  -31.3589 H   0  0  0  0  0  0  0  0  0  0  0  0
   -3.8870   21.1610  -34.0500 H   0  0  0  0  0  0  0  0  0  0  0  0
   -4.6300   22.4850  -33.4850 H   0  0  0  0  0  0  0  0  0  0  0  0
   -6.0293   23.3987  -32.6762 H   0  0  0  0  0  0  0  0  0  0  0  0
   -8.1059   24.4726  -31.8479 H   0  0  0  0  0  0  0  0  0  0  0  0
  -10.0920   23.0874  -31.2849 H   0  0  0  0  0  0  0  0  0  0  0  0
   -9.9870   20.6167  -31.4955 H   0  0  0  0  0  0  0  0  0  0  0  0
   -8.9157   18.3857  -30.6394 H   0  0  0  0  0  0  0  0  0  0  0  0
   -9.9032   18.7628  -32.0917 H   0  0  0  0  0  0  0  0  0  0  0  0
   -8.8153   17.3335  -32.0917 H   0  0  0  0  0  0  0  0  0  0  0  0
   -6.6738   14.6358  -33.2845 H   0  0  0  0  0  0  0  0  0  0  0  0
   -4.8338   13.3857  -34.4198 H   0  0  0  0  0  0  0  0  0  0  0  0
   -2.8933   14.6256  -35.3832 H   0  0  0  0  0  0  0  0  0  0  0  0
   -2.7856   17.1136  -35.2075 H   0  0  0  0  0  0  0  0  0  0  0  0
  1  2  1  0
  2  3  1  0
  3  4  1  0
  4  5  1  0
  5  6  1  0
  6  7  1  0
  7  8  1  0
  8  9  2  0
  9 10  1  0
 10 11  2  0
 11 12  1  0
 12 13  2  0
 13 14  1  0
 14 15  2  0
 15 16  1  0
 15 17  1  0
 17 18  2  0
 18 19  1  0
 19 20  2  0
 20 21  1  0
 21 22  2  0
 22 23  1  0
 23 24  2  0
 24 25  1  0
 25 26  2  0
 25 27  1  0
 27  8  1  0
 14  9  1  0
 27 17  1  0
 24 19  1  0
  1 28  1  0
  1 29  1  0
  1 30  1  0
  2 31  1  0
  2 32  1  0
  3 33  1  0
  3 34  1  0
  4 35  1  0
  5 36  1  0
  5 37  1  0
  6 38  1  0
  6 39  1  0
  7 40  1  0
  7 41  1  0
 10 42  1  0
 11 43  1  0
 12 44  1  0
 13 45  1  0
 16 46  1  0
 16 47  1  0
 16 48  1  0
 20 49  1  0
 21 50  1  0
 22 51  1  0
 23 52  1  0
M  CHG  2   7   1  15   1
M  END
>  <UniqueID>  (16) 
15

>  <SMILES>  (16) 
CCCNCC[NH2+]c1c2ccccc2[n+](C)c2nc3ccccc3c(=O)n12

>  <Energy>  (16) 
85.80132690509404

>  <Genealogy>  (16) 
CCCNCC[NH2+]c1c2ccccc2[n+](C)c2nc3ccccc3c(=O)n12 (protonated)
CCCNCC[NH2+]c1c2ccccc2[n+](C)c2nc3ccccc3c(=O)n12 (3D coordinates assigned)
CCCNCC[NH2+]c1c2ccccc2[n+](C)c2nc3ccccc3c(=O)n12 (optimized conformer: 85.80132690509404 kcal/mol)

>  <smiles>  (16) 
CCCNCCNc1c2ccccc2[n+](C)c2nc3ccccc3c(=O)n12

>  <score_type>  (16) 
oracle

>  <origin>  (16) 
adg

>  <m_score__min__energy>  (16) 
-8.5099999999999998

>  <m_primary>  (16) 
energy

$$$$
17:0
     RDKit          3D

 61 63  0  0  0  0  0  0  0  0999 V2000
   -1.9030   23.5370  -28.7590 C   0  0  0  0  0  0  0  0  0  0  0  0
   -1.3270   22.6750  -29.8730 C   0  0  0  0  0  0  0  0  0  0  0  0
   -2.0400   21.3740  -29.9090 N   0  0  0  0  0  0  0  0  0  0  0  0
   -2.9240   21.1710  -28.7390 C   0  0  0  0  0  0  0  0  0  0  0  0
   -2.4040   20.1200  -27.7460 C   0  0  0  0  0  0  0  0  0  0  0  0
   -1.1470   20.2220  -30.1560 C   0  0  0  0  0  0  0  0  0  0  0  0
   -0.7370   20.1560  -31.6340 C   0  0  0  0  0  0  0  0  0  0  0  0
   -1.7420   19.5130  -32.3950 O   0  0  0  0  0  0  0  0  0  0  0  0
   -1.9880   20.1960  -33.6110 C   0  0  0  0  0  0  0  0  0  0  0  0
   -3.1860   21.1410  -33.4450 C   0  0  0  0  0  0  0  0  0  0  0  0
   -3.5670   21.3470  -32.0330 N   0  0  0  0  0  0  0  0  0  0  0  0
   -4.9930   21.6130  -31.8690 C   0  0  0  0  0  0  0  0  0  0  0  0
   -5.4300   22.8390  -31.2920 C   0  0  0  0  0  0  0  0  0  0  0  0
   -4.5130   23.8140  -30.8240 C   0  0  0  0  0  0  0  0  0  0  0  0
   -4.9510   24.9870  -30.2160 C   0  0  0  0  0  0  0  0  0  0  0  0
   -6.3070   25.2170  -30.0460 C   0  0  0  0  0  0  0  0  0  0  0  0
   -7.2350   24.2910  -30.5100 C   0  0  0  0  0  0  0  0  0  0  0  0
   -6.8230   23.1050  -31.1740 C   0  0  0  0  0  0  0  0  0  0  0  0
   -7.7480   22.2150  -31.6790 N   0  0  0  0  0  0  0  0  0  0  0  0
   -9.1600   22.6320  -31.8470 C   0  0  0  0  0  0  0  0  0  0  0  0
   -7.3560   20.9480  -32.0550 C   0  0  0  0  0  0  0  0  0  0  0  0
   -8.3120   19.9220  -32.2680 C   0  0  0  0  0  0  0  0  0  0  0  0
   -7.9320   18.6570  -32.6980 C   0  0  0  0  0  0  0  0  0  0  0  0
   -6.5940   18.3760  -32.9330 C   0  0  0  0  0  0  0  0  0  0  0  0
   -6.1040   16.7420  -33.4920 S   0  0  0  0  0  0  0  0  0  0  0  0
   -5.0020   17.3850  -34.7900 C   0  0  0  0  0  0  0  0  0  0  0  0
   -5.6270   19.3540  -32.7110 C   0  0  0  0  0  0  0  0  0  0  0  0
   -5.9740   20.6390  -32.2190 C   0  0  0  0  0  0  0  0  0  0  0  0
   -1.6200   23.1135  -27.7841 H   0  0  0  0  0  0  0  0  0  0  0  0
   -1.5059   24.5593  -28.8439 H   0  0  0  0  0  0  0  0  0  0  0  0
   -2.9995   23.5613  -28.8439 H   0  0  0  0  0  0  0  0  0  0  0  0
   -1.4529   23.1892  -30.8372 H   0  0  0  0  0  0  0  0  0  0  0  0
   -0.2566   22.5021  -29.6874 H   0  0  0  0  0  0  0  0  0  0  0  0
   -3.0241   22.1297  -28.2090 H   0  0  0  0  0  0  0  0  0  0  0  0
   -3.8859   20.8012  -29.1236 H   0  0  0  0  0  0  0  0  0  0  0  0
   -2.5771   20.4699  -26.7176 H   0  0  0  0  0  0  0  0  0  0  0  0
   -2.9363   19.1706  -27.9048 H   0  0  0  0  0  0  0  0  0  0  0  0
   -1.3263   19.9671  -27.9048 H   0  0  0  0  0  0  0  0  0  0  0  0
   -0.2445   20.3261  -29.5358 H   0  0  0  0  0  0  0  0  0  0  0  0
   -1.6848   19.2978  -29.8981 H   0  0  0  0  0  0  0  0  0  0  0  0
   -0.5905   21.1772  -32.0157 H   0  0  0  0  0  0  0  0  0  0  0  0
    0.1982   19.5833  -31.7203 H   0  0  0  0  0  0  0  0  0  0  0  0
   -1.0980   20.7802  -33.8879 H   0  0  0  0  0  0  0  0  0  0  0  0
   -2.2112   19.4627  -34.4000 H   0  0  0  0  0  0  0  0  0  0  0  0
   -2.9270   22.1158  -33.8840 H   0  0  0  0  0  0  0  0  0  0  0  0
   -4.0442   20.6769  -33.9531 H   0  0  0  0  0  0  0  0  0  0  0  0
   -3.3060   20.4990  -31.4840 H   0  0  0  0  0  0  0  0  0  0  0  0
   -2.9620   22.0740  -31.5990 H   0  0  0  0  0  0  0  0  0  0  0  0
   -3.4335   23.6398  -30.9439 H   0  0  0  0  0  0  0  0  0  0  0  0
   -4.2198   25.7324  -29.8700 H   0  0  0  0  0  0  0  0  0  0  0  0
   -6.6498   26.1334  -29.5433 H   0  0  0  0  0  0  0  0  0  0  0  0
   -8.3081   24.4806  -30.3600 H   0  0  0  0  0  0  0  0  0  0  0  0
   -9.6221   22.7685  -30.8582 H   0  0  0  0  0  0  0  0  0  0  0  0
   -9.1986   23.5799  -32.4038 H   0  0  0  0  0  0  0  0  0  0  0  0
   -9.7074   21.8572  -32.4038 H   0  0  0  0  0  0  0  0  0  0  0  0
   -9.3767   20.1325  -32.0889 H   0  0  0  0  0  0  0  0  0  0  0  0
   -8.6926   17.8775  -32.8523 H   0  0  0  0  0  0  0  0  0  0  0  0
   -4.1412   17.8873  -34.3245 H   0  0  0  0  0  0  0  0  0  0  0  0
   -4.6468   16.5524  -35.4150 H   0  0  0  0  0  0  0  0  0  0  0  0
   -5.5520   18.1039  -35.4150 H   0  0  0  0  0  0  0  0  0  0  0  0
   -4.5719   19.1252  -32.9216 H   0  0  0  0  0  0  0  0  0  0  0  0
  1  2  1  0
  2  3  1  0
  3  4  1  0
  4  5  1  0
  3  6  1  0
  6  7  1  0
  7  8  1  0
  8  9  1  0
  9 10  1  0
 10 11  1  0
 11 12  1  0
 12 13  2  0
 13 14  1  0
 14 15  2  0
 15 16  1  0
 16 17  2  0
 17 18  1  0
 18 19  2  0
 19 20  1  0
 19 21  1  0
 21 22  2  0
 22 23  1  0
 23 24  2  0
 24 25  1  0
 25 26  1  0
 24 27  1  0
 27 28  2  0
 28 12  1  0
 18 13  1  0
 28 21  1  0
  1 29  1  0
  1 30  1  0
  1 31  1  0
  2 32  1  0
  2 33  1  0
  4 34  1  0
  4 35  1  0
  5 36  1  0
  5 37  1  0
  5 38  1  0
  6 39  1  0
  6 40  1  0
  7 41  1  0
  7 42  1  0
  9 43  1  0
  9 44  1  0
 10 45  1  0
 10 46  1  0
 11 47  1  0
 11 48  1  0
 14 49  1  0
 15 50  1  0
 16 51  1  0
 17 52  1  0
 20 53  1  0
 20 54  1  0
 20 55  1  0
 22 56  1  0
 23 57  1  0
 26 58  1  0
 26 59  1  0
 26 60  1  0
 27 61  1  0
M  CHG  2  11   1  19   1
M  END
>  <UniqueID>  (17) 
16

>  <SMILES>  (17) 
CCN(CC)CCOCC[NH2+]c1c2ccccc2[n+](C)c2ccc(SC)cc12

>  <Energy>  (17) 
88.0477091168524

>  <Genealogy>  (17) 
CCN(CC)CCOCC[NH2+]c1c2ccccc2[n+](C)c2ccc(SC)cc12 (protonated)
CCN(CC)CCOCC[NH2+]c1c2ccccc2[n+](C)c2ccc(SC)cc12 (3D coordinates assigned)
CCN(CC)CCOCC[NH2+]c1c2ccccc2[n+](C)c2ccc(SC)cc12 (optimized conformer: 88.0477091168524 kcal/mol)

>  <smiles>  (17) 
CCN(CC)CCOCCNc1c2ccccc2[n+](C)c2ccc(SC)cc12

>  <score_type>  (17) 
oracle

>  <origin>  (17) 
adg

>  <m_score__min__energy>  (17) 
-7.9500000000000002

>  <m_primary>  (17) 
energy

$$$$
18:0
     RDKit          3D

 53 55  0  0  0  0  0  0  0  0999 V2000
   -0.8390   24.7380  -28.8990 C   0  0  0  0  0  0  0  0  0  0  0  0
   -2.1420   24.8830  -28.2310 N   0  0  0  0  0  0  0  0  0  0  0  0
   -1.9490   25.4440  -26.8830 C   0  0  0  0  0  0  0  0  0  0  0  0
   -2.8260   23.5750  -28.1650 C   0  0  0  0  0  0  0  0  0  0  0  0
   -3.2090   23.0960  -29.5500 C   0  0  0  0  0  0  0  0  0  0  0  0
   -2.3640   22.1810  -30.2010 C   0  0  0  0  0  0  0  0  0  0  0  0
   -2.6830   21.6940  -31.4660 C   0  0  0  0  0  0  0  0  0  0  0  0
   -3.8530   22.1050  -32.0980 C   0  0  0  0  0  0  0  0  0  0  0  0
   -4.7260   23.0000  -31.4630 C   0  0  0  0  0  0  0  0  0  0  0  0
   -4.4050   23.5200  -30.1900 C   0  0  0  0  0  0  0  0  0  0  0  0
   -5.3530   24.4810  -29.4980 C   0  0  0  0  0  0  0  0  0  0  0  0
   -6.5960   24.8730  -30.3280 C   0  0  0  0  0  0  0  0  0  0  0  0
   -7.0540   23.8130  -31.2560 N   0  0  2  0  0  0  0  0  0  0  0  0
   -7.6000   22.6350  -30.5900 C   0  0  0  0  0  0  0  0  0  0  0  0
   -7.8430   22.6590  -29.3510 O   0  0  0  0  0  0  0  0  0  0  0  0
   -7.8780   21.3700  -31.3310 C   0  0  0  0  0  0  0  0  0  0  0  0
   -9.2030   21.0440  -31.6660 C   0  0  0  0  0  0  0  0  0  0  0  0
   -9.4920   19.8620  -32.3460 C   0  0  0  0  0  0  0  0  0  0  0  0
   -8.4670   18.9880  -32.7060 C   0  0  0  0  0  0  0  0  0  0  0  0
   -7.1250   19.2850  -32.3940 C   0  0  0  0  0  0  0  0  0  0  0  0
   -6.0580   18.3740  -32.7650 N   0  0  0  0  0  0  0  0  0  0  0  0
   -6.0380   16.9980  -32.2520 C   0  0  0  0  0  0  0  0  0  0  0  0
   -4.9720   18.8140  -33.6520 C   0  0  0  0  0  0  0  0  0  0  0  0
   -6.8450   20.4880  -31.7110 C   0  0  0  0  0  0  0  0  0  0  0  0
   -5.9640   23.4580  -32.1890 C   0  0  0  0  0  0  0  0  0  0  0  0
   -0.0464   24.6498  -28.1414 H   0  0  0  0  0  0  0  0  0  0  0  0
   -0.8476   23.8353  -29.5275 H   0  0  0  0  0  0  0  0  0  0  0  0
   -0.6489   25.6205  -29.5275 H   0  0  0  0  0  0  0  0  0  0  0  0
   -2.2097   24.6861  -26.1296 H   0  0  0  0  0  0  0  0  0  0  0  0
   -0.8973   25.7403  -26.7563 H   0  0  0  0  0  0  0  0  0  0  0  0
   -2.5958   26.3246  -26.7563 H   0  0  0  0  0  0  0  0  0  0  0  0
   -2.1520   22.8388  -27.7027 H   0  0  0  0  0  0  0  0  0  0  0  0
   -3.7415   23.6865  -27.5655 H   0  0  0  0  0  0  0  0  0  0  0  0
   -1.4406   21.8459  -29.7059 H   0  0  0  0  0  0  0  0  0  0  0  0
   -2.0091   20.9832  -31.9667 H   0  0  0  0  0  0  0  0  0  0  0  0
   -4.0943   21.7254  -33.1018 H   0  0  0  0  0  0  0  0  0  0  0  0
   -5.6983   24.0098  -28.5659 H   0  0  0  0  0  0  0  0  0  0  0  0
   -4.7865   25.4089  -29.3304 H   0  0  0  0  0  0  0  0  0  0  0  0
   -7.4173   25.1050  -29.6340 H   0  0  0  0  0  0  0  0  0  0  0  0
   -6.3095   25.7372  -30.9452 H   0  0  0  0  0  0  0  0  0  0  0  0
   -7.8240   24.2440  -31.8160 H   0  0  0  0  0  0  0  0  0  0  0  0
  -10.0193   21.7274  -31.3893 H   0  0  0  0  0  0  0  0  0  0  0  0
  -10.5340   19.6175  -32.5999 H   0  0  0  0  0  0  0  0  0  0  0  0
   -8.7083   18.0567  -33.2393 H   0  0  0  0  0  0  0  0  0  0  0  0
   -6.0383   17.0167  -31.1522 H   0  0  0  0  0  0  0  0  0  0  0  0
   -6.9284   16.4603  -32.6098 H   0  0  0  0  0  0  0  0  0  0  0  0
   -5.1323   16.4864  -32.6098 H   0  0  0  0  0  0  0  0  0  0  0  0
   -4.1209   19.1588  -33.0464 H   0  0  0  0  0  0  0  0  0  0  0  0
   -4.6539   17.9738  -34.2868 H   0  0  0  0  0  0  0  0  0  0  0  0
   -5.3284   19.6387  -34.2868 H   0  0  0  0  0  0  0  0  0  0  0  0
   -5.8021   20.7423  -31.4707 H   0  0  0  0  0  0  0  0  0  0  0  0
   -6.3099   22.6474  -32.8472 H   0  0  0  0  0  0  0  0  0  0  0  0
   -5.7055   24.3574  -32.7672 H   0  0  0  0  0  0  0  0  0  0  0  0
  1  2  1  0
  2  3  1  0
  2  4  1  0
  4  5  1  0
  5  6  2  0
  6  7  1  0
  7  8  2  0
  8  9  1  0
  9 10  2  0
 10 11  1  0
 11 12  1  0
 12 13  1  0
 13 14  1  0
 14 15  2  0
 14 16  1  0
 16 17  2  0
 17 18  1  0
 18 19  2  0
 19 20  1  0
 20 21  1  0
 21 22  1  0
 21 23  1  0
 20 24  2  0
 13 25  1  0
 10  5  1  0
 24 16  1  0
 25  9  1  0
  1 26  1  0
  1 27  1  0
  1 28  1  0
  3 29  1  0
  3 30  1  0
  3 31  1  0
  4 32  1  0
  4 33  1  0
  6 34  1  0
  7 35  1  0
  8 36  1  0
 11 37  1  0
 11 38  1  0
 12 39  1  0
 12 40  1  0
 13 41  1  6
 17 42  1  0
 18 43  1  0
 19 44  1  0
 22 45  1  0
 22 46  1  0
 22 47  1  0
 23 48  1  0
 23 49  1  0
 23 50  1  0
 24 51  1  0
 25 52  1  0
 25 53  1  0
M  CHG  1  13   1
M  END
>  <UniqueID>  (18) 
17

>  <SMILES>  (18) 
CN(C)Cc1cccc2c1CC[N@H+](C(=O)c1cccc(N(C)C)c1)C2

>  <Energy>  (18) 
69.46933135697158

>  <Genealogy>  (18) 
CN(C)Cc1cccc2c1CC[NH+](C(=O)c1cccc(N(C)C)c1)C2 (protonated)
CN(C)Cc1cccc2c1CC[N@H+](C(=O)c1cccc(N(C)C)c1)C2 (chirality)
CN(C)Cc1cccc2c1CC[N@H+](C(=O)c1cccc(N(C)C)c1)C2 (3D coordinates assigned)
CN(C)Cc1cccc2c1CC[N@H+](C(=O)c1cccc(N(C)C)c1)C2 (nonaromatic ring conformer: 69.46933135697158 kcal/mol)

>  <smiles>  (18) 
CN(C)Cc1cccc2c1CCN(C(=O)c1cccc(N(C)C)c1)C2

>  <score_type>  (18) 
oracle

>  <origin>  (18) 
adg

>  <m_score__min__energy>  (18) 
-7.7400000000000002

>  <m_primary>  (18) 
energy

$$$$
19:0
     RDKit          3D

 76 79  0  0  0  0  0  0  0  0999 V2000
   -1.3070   18.0590  -32.8930 C   0  0  0  0  0  0  0  0  0  0  0  0
   -0.4270   19.1390  -32.2420 C   0  0  0  0  0  0  0  0  0  0  0  0
   -0.5620   20.4860  -32.8540 N   0  0  0  0  0  0  0  0  0  0  0  0
    0.6110   20.8450  -33.6810 C   0  0  0  0  0  0  0  0  0  0  0  0
    0.1660   21.5240  -34.9740 C   0  0  0  0  0  0  0  0  0  0  0  0
   -0.9040   21.5550  -31.8860 C   0  0  0  0  0  0  0  0  0  0  0  0
   -2.3870   21.9430  -31.9910 C   0  0  0  0  0  0  0  0  0  0  0  0
   -3.2160   21.0070  -32.9110 C   0  0  0  0  0  0  0  0  0  0  0  0
   -4.5710   21.4650  -33.3320 N   0  0  0  0  0  0  0  0  0  0  0  0
   -5.7120   20.6560  -32.9200 C   0  0  0  0  0  0  0  0  0  0  0  0
   -5.7520   19.2770  -33.2900 C   0  0  0  0  0  0  0  0  0  0  0  0
   -4.6510   18.6420  -33.9260 C   0  0  0  0  0  0  0  0  0  0  0  0
   -4.7050   17.3030  -34.3010 C   0  0  0  0  0  0  0  0  0  0  0  0
   -5.8540   16.5640  -34.0780 C   0  0  0  0  0  0  0  0  0  0  0  0
   -6.9490   17.1530  -33.4530 C   0  0  0  0  0  0  0  0  0  0  0  0
   -6.9130   18.5050  -33.0220 C   0  0  0  0  0  0  0  0  0  0  0  0
   -7.9920   19.0730  -32.3860 N   0  0  0  0  0  0  0  0  0  0  0  0
   -9.0660   18.2110  -31.8390 C   0  0  0  0  0  0  0  0  0  0  0  0
   -8.0610   20.4390  -32.2230 C   0  0  0  0  0  0  0  0  0  0  0  0
   -9.3020   21.0610  -31.9480 C   0  0  0  0  0  0  0  0  0  0  0  0
   -9.3890   22.4180  -31.7000 C   0  0  0  0  0  0  0  0  0  0  0  0
   -8.2430   23.1880  -31.6730 C   0  0  0  0  0  0  0  0  0  0  0  0
   -6.9900   22.6300  -31.9560 C   0  0  0  0  0  0  0  0  0  0  0  0
   -5.8410   23.4460  -31.6830 N   0  0  0  0  0  0  0  0  0  0  0  0
   -5.9480   24.8250  -31.2070 C   0  0  0  0  0  0  0  0  0  0  0  0
   -4.6930   25.2180  -30.4220 C   0  0  0  0  0  0  0  0  0  0  0  0
   -3.9380   24.0080  -30.0330 N   0  0  0  0  0  0  0  0  0  0  0  0
   -2.5580   24.3500  -29.6220 C   0  0  0  0  0  0  0  0  0  0  0  0
   -1.8790   23.1710  -28.9190 C   0  0  0  0  0  0  0  0  0  0  0  0
   -2.6210   22.7860  -27.6280 C   0  0  0  0  0  0  0  0  0  0  0  0
   -4.0960   23.2210  -27.6410 C   0  0  0  0  0  0  0  0  0  0  0  0
   -4.6790   23.1580  -29.0590 C   0  0  0  0  0  0  0  0  0  0  0  0
   -6.8910   21.2500  -32.3520 C   0  0  0  0  0  0  0  0  0  0  0  0
   -1.7942   17.4611  -32.1087 H   0  0  0  0  0  0  0  0  0  0  0  0
   -2.0744   18.5390  -33.5180 H   0  0  0  0  0  0  0  0  0  0  0  0
   -0.6819   17.4043  -33.5180 H   0  0  0  0  0  0  0  0  0  0  0  0
   -0.7022   19.2138  -31.1796 H   0  0  0  0  0  0  0  0  0  0  0  0
    0.6174   18.8276  -32.3913 H   0  0  0  0  0  0  0  0  0  0  0  0
    1.2564   21.5325  -33.1147 H   0  0  0  0  0  0  0  0  0  0  0  0
    1.1630   19.9274  -33.9328 H   0  0  0  0  0  0  0  0  0  0  0  0
   -0.4223   22.4217  -34.7331 H   0  0  0  0  0  0  0  0  0  0  0  0
    1.0510   21.8121  -35.5603 H   0  0  0  0  0  0  0  0  0  0  0  0
   -0.4513   20.8275  -35.5603 H   0  0  0  0  0  0  0  0  0  0  0  0
   -0.6979   21.1961  -30.8668 H   0  0  0  0  0  0  0  0  0  0  0  0
   -0.2941   22.4414  -32.1146 H   0  0  0  0  0  0  0  0  0  0  0  0
   -2.8251   21.9148  -30.9824 H   0  0  0  0  0  0  0  0  0  0  0  0
   -2.4245   22.9472  -32.4384 H   0  0  0  0  0  0  0  0  0  0  0  0
   -2.6274   20.8409  -33.8253 H   0  0  0  0  0  0  0  0  0  0  0  0
   -3.4047   20.1134  -32.2979 H   0  0  0  0  0  0  0  0  0  0  0  0
   -4.5880   21.5730  -34.3720 H   0  0  0  0  0  0  0  0  0  0  0  0
   -4.7030   22.4610  -33.0630 H   0  0  0  0  0  0  0  0  0  0  0  0
   -3.7373   19.2209  -34.1259 H   0  0  0  0  0  0  0  0  0  0  0  0
   -3.8324   16.8306  -34.7758 H   0  0  0  0  0  0  0  0  0  0  0  0
   -5.9015   15.5116  -34.3947 H   0  0  0  0  0  0  0  0  0  0  0  0
   -7.8604   16.5592  -33.2897 H   0  0  0  0  0  0  0  0  0  0  0  0
   -9.0332   18.2373  -30.7398 H   0  0  0  0  0  0  0  0  0  0  0  0
  -10.0432   18.5783  -32.1856 H   0  0  0  0  0  0  0  0  0  0  0  0
   -8.9189   17.1774  -32.1856 H   0  0  0  0  0  0  0  0  0  0  0  0
  -10.2174   20.4513  -31.9312 H   0  0  0  0  0  0  0  0  0  0  0  0
  -10.3698   22.8840  -31.5244 H   0  0  0  0  0  0  0  0  0  0  0  0
   -8.3155   24.2573  -31.4251 H   0  0  0  0  0  0  0  0  0  0  0  0
   -4.8960   23.0080  -31.7170 H   0  0  0  0  0  0  0  0  0  0  0  0
   -6.0617   25.4983  -32.0694 H   0  0  0  0  0  0  0  0  0  0  0  0
   -6.8229   24.9071  -30.5453 H   0  0  0  0  0  0  0  0  0  0  0  0
   -4.0562   25.8579  -31.0505 H   0  0  0  0  0  0  0  0  0  0  0  0
   -4.9917   25.7634  -29.5146 H   0  0  0  0  0  0  0  0  0  0  0  0
   -1.9745   24.6193  -30.5147 H   0  0  0  0  0  0  0  0  0  0  0  0
   -2.6042   25.1942  -28.9183 H   0  0  0  0  0  0  0  0  0  0  0  0
   -1.8700   22.3059  -29.5984 H   0  0  0  0  0  0  0  0  0  0  0  0
   -0.8539   23.4691  -28.6539 H   0  0  0  0  0  0  0  0  0  0  0  0
   -2.5771   21.6933  -27.5090 H   0  0  0  0  0  0  0  0  0  0  0  0
   -2.1280   23.3054  -26.7931 H   0  0  0  0  0  0  0  0  0  0  0  0
   -4.6733   22.5525  -26.9854 H   0  0  0  0  0  0  0  0  0  0  0  0
   -4.1566   24.2599  -27.2846 H   0  0  0  0  0  0  0  0  0  0  0  0
   -4.6433   22.1149  -29.4063 H   0  0  0  0  0  0  0  0  0  0  0  0
   -5.7094   23.5395  -29.0076 H   0  0  0  0  0  0  0  0  0  0  0  0
  1  2  1  0
  2  3  1  0
  3  4  1  0
  4  5  1  0
  3  6  1  0
  6  7  1  0
  7  8  1  0
  8  9  1  0
  9 10  1  0
 10 11  2  0
 11 12  1  0
 12 13  2  0
 13 14  1  0
 14 15  2  0
 15 16  1  0
 16 17  2  0
 17 18  1  0
 17 19  1  0
 19 20  2  0
 20 21  1  0
 21 22  2  0
 22 23  1  0
 23 24  1  0
 24 25  1  0
 25 26  1  0
 26 27  1  0
 27 28  1  0
 28 29  1  0
 29 30  1  0
 30 31  1  0
 31 32  1  0
 23 33  2  0
 33 10  1  0
 16 11  1  0
 33 19  1  0
 32 27  1  0
  1 34  1  0
  1 35  1  0
  1 36  1  0
  2 37  1  0
  2 38  1  0
  4 39  1  0
  4 40  1  0
  5 41  1  0
  5 42  1  0
  5 43  1  0
  6 44  1  0
  6 45  1  0
  7 46  1  0
  7 47  1  0
  8 48  1  0
  8 49  1  0
  9 50  1  0
  9 51  1  0
 12 52  1  0
 13 53  1  0
 14 54  1  0
 15 55  1  0
 18 56  1  0
 18 57  1  0
 18 58  1  0
 20 59  1  0
 21 60  1  0
 22 61  1  0
 24 62  1  0
 25 63  1  0
 25 64  1  0
 26 65  1  0
 26 66  1  0
 28 67  1  0
 28 68  1  0
 29 69  1  0
 29 70  1  0
 30 71  1  0
 30 72  1  0
 31 73  1  0
 31 74  1  0
 32 75  1  0
 32 76  1  0
M  CHG  2   9   1  17   1
M  END
>  <UniqueID>  (19) 
18

>  <SMILES>  (19) 
CCN(CC)CCC[NH2+]c1c2ccccc2[n+](C)c2cccc(NCCN3CCCCC3)c12

>  <Energy>  (19) 
130.71876374172783

>  <Genealogy>  (19) 
CCN(CC)CCC[NH2+]c1c2ccccc2[n+](C)c2cccc(NCCN3CCCCC3)c12 (protonated)
CCN(CC)CCC[NH2+]c1c2ccccc2[n+](C)c2cccc(NCCN3CCCCC3)c12 (3D coordinates assigned)
CCN(CC)CCC[NH2+]c1c2ccccc2[n+](C)c2cccc(NCCN3CCCCC3)c12 (nonaromatic ring conformer: 130.71876374172783 kcal/mol)

>  <smiles>  (19) 
CCN(CC)CCCNc1c2ccccc2[n+](C)c2cccc(NCCN3CCCCC3)c12

>  <score_type>  (19) 
oracle

>  <origin>  (19) 
adg

>  <m_score__min__energy>  (19) 
-8.6799999999999997

>  <m_primary>  (19) 
energy

$$$$
20:0
     RDKit          3D

 54 56  0  0  0  0  0  0  0  0999 V2000
    1.1040   22.7510  -36.0650 C   0  0  0  0  0  0  0  0  0  0  0  0
    0.5290   21.5190  -35.3790 C   0  0  0  0  0  0  0  0  0  0  0  0
   -0.5110   21.9260  -34.4170 N   0  0  0  0  0  0  0  0  0  0  0  0
   -0.6330   21.0000  -33.2820 C   0  0  0  0  0  0  0  0  0  0  0  0
   -2.0440   20.4010  -33.2130 C   0  0  0  0  0  0  0  0  0  0  0  0
   -3.0500   21.4040  -32.6400 C   0  0  0  0  0  0  0  0  0  0  0  0
   -4.2690   21.4400  -33.4500 N   0  0  0  0  0  0  0  0  0  0  0  0
   -5.4500   20.7040  -33.0850 C   0  0  0  0  0  0  0  0  0  0  0  0
   -6.5540   21.3800  -32.5380 C   0  0  0  0  0  0  0  0  0  0  0  0
   -6.4950   22.7670  -32.2820 C   0  0  0  0  0  0  0  0  0  0  0  0
   -7.6160   23.4540  -31.8220 C   0  0  0  0  0  0  0  0  0  0  0  0
   -8.8110   22.7760  -31.6180 C   0  0  0  0  0  0  0  0  0  0  0  0
   -8.8850   21.4010  -31.8380 C   0  0  0  0  0  0  0  0  0  0  0  0
   -7.7490   20.6650  -32.2640 C   0  0  0  0  0  0  0  0  0  0  0  0
   -7.7910   19.2940  -32.4330 N   0  0  0  0  0  0  0  0  0  0  0  0
   -8.9260   18.5170  -31.8820 C   0  0  0  0  0  0  0  0  0  0  0  0
   -6.7530   18.6400  -33.0730 C   0  0  0  0  0  0  0  0  0  0  0  0
   -6.8610   17.2880  -33.4820 C   0  0  0  0  0  0  0  0  0  0  0  0
   -5.7720   16.6020  -34.0460 C   0  0  0  0  0  0  0  0  0  0  0  0
   -5.8600   15.2570  -34.4440 O   0  0  0  0  0  0  0  0  0  0  0  0
   -5.2520   14.1660  -33.7590 C   0  0  0  0  0  0  0  0  0  0  0  0
   -4.5550   17.2620  -34.2220 C   0  0  0  0  0  0  0  0  0  0  0  0
   -3.4770   16.5380  -34.7600 O   0  0  0  0  0  0  0  0  0  0  0  0
   -2.1090   16.9080  -34.6310 C   0  0  0  0  0  0  0  0  0  0  0  0
   -4.4440   18.6160  -33.8730 C   0  0  0  0  0  0  0  0  0  0  0  0
   -5.5430   19.3260  -33.3510 C   0  0  0  0  0  0  0  0  0  0  0  0
    1.4400   23.4710  -35.3043 H   0  0  0  0  0  0  0  0  0  0  0  0
    1.9575   22.4561  -36.6931 H   0  0  0  0  0  0  0  0  0  0  0  0
    0.3298   23.2158  -36.6931 H   0  0  0  0  0  0  0  0  0  0  0  0
    0.0875   20.8524  -36.1345 H   0  0  0  0  0  0  0  0  0  0  0  0
    1.3327   20.9910  -34.8449 H   0  0  0  0  0  0  0  0  0  0  0  0
   -1.4330   21.9320  -34.9150 H   0  0  0  0  0  0  0  0  0  0  0  0
    0.0981   20.1867  -33.4006 H   0  0  0  0  0  0  0  0  0  0  0  0
   -0.4416   21.5563  -32.3525 H   0  0  0  0  0  0  0  0  0  0  0  0
   -2.3614   20.1153  -34.2267 H   0  0  0  0  0  0  0  0  0  0  0  0
   -2.0152   19.5231  -32.5508 H   0  0  0  0  0  0  0  0  0  0  0  0
   -3.3086   21.1081  -31.6126 H   0  0  0  0  0  0  0  0  0  0  0  0
   -2.5928   22.4044  -32.6474 H   0  0  0  0  0  0  0  0  0  0  0  0
   -4.2540   21.9440  -34.3660 H   0  0  0  0  0  0  0  0  0  0  0  0
   -5.5535   23.3112  -32.4476 H   0  0  0  0  0  0  0  0  0  0  0  0
   -7.5549   24.5336  -31.6203 H   0  0  0  0  0  0  0  0  0  0  0  0
   -9.7024   23.3258  -31.2816 H   0  0  0  0  0  0  0  0  0  0  0  0
   -9.8397   20.8783  -31.6787 H   0  0  0  0  0  0  0  0  0  0  0  0
   -8.8886   18.5426  -30.7829 H   0  0  0  0  0  0  0  0  0  0  0  0
   -9.8733   18.9569  -32.2270 H   0  0  0  0  0  0  0  0  0  0  0  0
   -8.8586   17.4747  -32.2270 H   0  0  0  0  0  0  0  0  0  0  0  0
   -7.8193   16.7631  -33.3552 H   0  0  0  0  0  0  0  0  0  0  0  0
   -5.3383   14.3208  -32.6734 H   0  0  0  0  0  0  0  0  0  0  0  0
   -5.7587   13.2301  -34.0373 H   0  0  0  0  0  0  0  0  0  0  0  0
   -4.1896   14.1046  -34.0373 H   0  0  0  0  0  0  0  0  0  0  0  0
   -1.8473   16.9788  -33.5649 H   0  0  0  0  0  0  0  0  0  0  0  0
   -1.4766   16.1486  -35.1142 H   0  0  0  0  0  0  0  0  0  0  0  0
   -1.9456   17.8826  -35.1142 H   0  0  0  0  0  0  0  0  0  0  0  0
   -3.4823   19.1323  -34.0093 H   0  0  0  0  0  0  0  0  0  0  0  0
  1  2  1  0
  2  3  1  0
  3  4  1  0
  4  5  1  0
  5  6  1  0
  6  7  1  0
  7  8  1  0
  8  9  2  0
  9 10  1  0
 10 11  2  0
 11 12  1  0
 12 13  2  0
 13 14  1  0
 14 15  2  0
 15 16  1  0
 15 17  1  0
 17 18  2  0
 18 19  1  0
 19 20  1  0
 20 21  1  0
 19 22  2  0
 22 23  1  0
 23 24  1  0
 22 25  1  0
 25 26  2  0
 26  8  1  0
 14  9  1  0
 26 17  1  0
  1 27  1  0
  1 28  1  0
  1 29  1  0
  2 30  1  0
  2 31  1  0
  3 32  1  0
  4 33  1  0
  4 34  1  0
  5 35  1  0
  5 36  1  0
  6 37  1  0
  6 38  1  0
  7 39  1  0
 10 40  1  0
 11 41  1  0
 12 42  1  0
 13 43  1  0
 16 44  1  0
 16 45  1  0
 16 46  1  0
 18 47  1  0
 21 48  1  0
 21 49  1  0
 21 50  1  0
 24 51  1  0
 24 52  1  0
 24 53  1  0
 25 54  1  0
M  CHG  1  15   1
M  END
>  <UniqueID>  (20) 
19

>  <SMILES>  (20) 
CCNCCCNc1c2ccccc2[n+](C)c2cc(OC)c(OC)cc12

>  <Energy>  (20) 
74.92135590531663

>  <Genealogy>  (20) 
CCNCCCNc1c2ccccc2[n+](C)c2cc(OC)c(OC)cc12 (3D coordinates assigned)
CCNCCCNc1c2ccccc2[n+](C)c2cc(OC)c(OC)cc12 (optimized conformer: 74.92135590531663 kcal/mol)

>  <smiles>  (20) 
CCNCCCNc1c2ccccc2[n+](C)c2cc(OC)c(OC)cc12

>  <score_type>  (20) 
oracle

>  <origin>  (20) 
adg

>  <m_score__min__energy>  (20) 
-8.4299999999999997

>  <m_primary>  (20) 
energy

$$$$
21:0
     RDKit          3D

 84 88  0  0  0  0  0  0  0  0999 V2000
   -5.8190   25.7860  -30.1130 C   0  0  0  0  0  0  0  0  0  0  0  0
   -4.8210   24.9770  -30.8300 N   0  0  0  0  0  0  0  0  0  0  0  0
   -3.8080   24.4990  -29.8690 C   0  0  0  0  0  0  0  0  0  0  0  0
   -5.4790   23.8420  -31.5140 C   0  0  0  0  0  0  0  0  0  0  0  0
   -4.7940   22.5160  -31.1470 C   0  0  0  0  0  0  0  0  0  0  0  0
   -3.6910   22.1300  -32.1450 C   0  0  0  0  0  0  0  0  0  0  0  0
   -2.3640   22.0830  -31.5180 N   0  0  0  0  0  0  0  0  0  0  0  0
   -1.7060   20.8460  -31.1710 C   0  0  0  0  0  0  0  0  0  0  0  0
   -1.4480   20.5360  -29.8200 C   0  0  0  0  0  0  0  0  0  0  0  0
   -2.0100   21.3000  -28.7760 C   0  0  0  0  0  0  0  0  0  0  0  0
   -1.7520   20.9860  -27.4440 C   0  0  0  0  0  0  0  0  0  0  0  0
   -0.9450   19.9000  -27.1280 C   0  0  0  0  0  0  0  0  0  0  0  0
   -0.3800   19.1290  -28.1400 C   0  0  0  0  0  0  0  0  0  0  0  0
   -0.6040   19.4370  -29.5060 C   0  0  0  0  0  0  0  0  0  0  0  0
   -0.0310   18.6940  -30.5190 N   0  0  0  0  0  0  0  0  0  0  0  0
    1.0820   17.7660  -30.2200 C   0  0  0  0  0  0  0  0  0  0  0  0
   -0.4920   18.8290  -31.8150 C   0  0  0  0  0  0  0  0  0  0  0  0
   -0.1870   17.8710  -32.8140 C   0  0  0  0  0  0  0  0  0  0  0  0
   -0.6290   18.0330  -34.1360 C   0  0  0  0  0  0  0  0  0  0  0  0
   -0.3160   17.1120  -35.1430 O   0  0  0  0  0  0  0  0  0  0  0  0
   -0.9690   15.8570  -35.3110 C   0  0  0  0  0  0  0  0  0  0  0  0
   -2.5040   15.9930  -35.2280 C   0  0  0  0  0  0  0  0  0  0  0  0
   -3.1680   15.4720  -33.9900 N   0  0  2  0  0  0  0  0  0  0  0  0
   -2.2400   14.7630  -33.0760 C   0  0  0  0  0  0  0  0  0  0  0  0
   -4.2830   14.5670  -34.3660 C   0  0  0  0  0  0  0  0  0  0  0  0
   -5.4660   14.9300  -33.4720 C   0  0  0  0  0  0  0  0  0  0  0  0
   -5.2920   16.3520  -33.1080 N   0  0  2  0  0  0  0  0  0  0  0  0
   -5.6720   16.5920  -31.6960 C   0  0  0  0  0  0  0  0  0  0  0  0
   -5.9750   17.2900  -34.0500 C   0  0  0  0  0  0  0  0  0  0  0  0
   -6.7310   18.4240  -33.3760 C   0  0  0  0  0  0  0  0  0  0  0  0
   -7.9690   18.1800  -32.7550 C   0  0  0  0  0  0  0  0  0  0  0  0
   -8.6660   19.2150  -32.1250 C   0  0  0  0  0  0  0  0  0  0  0  0
   -8.1280   20.5060  -32.0970 C   0  0  0  0  0  0  0  0  0  0  0  0
   -9.0030   21.8070  -31.3140 Cl  0  0  0  0  0  0  0  0  0  0  0  0
   -6.8860   20.7570  -32.6860 C   0  0  0  0  0  0  0  0  0  0  0  0
   -6.1820   19.7220  -33.3140 C   0  0  0  0  0  0  0  0  0  0  0  0
   -4.9660   19.9910  -33.8590 F   0  0  0  0  0  0  0  0  0  0  0  0
   -3.8670   16.5160  -33.2720 C   0  0  0  0  0  0  0  0  0  0  0  0
   -3.2880   17.5000  -32.8340 O   0  0  0  0  0  0  0  0  0  0  0  0
   -1.3930   19.1480  -34.4730 C   0  0  0  0  0  0  0  0  0  0  0  0
   -1.7620   20.0700  -33.4960 C   0  0  0  0  0  0  0  0  0  0  0  0
   -1.3150   19.9320  -32.1660 C   0  0  0  0  0  0  0  0  0  0  0  0
   -5.6751   25.6693  -29.0287 H   0  0  0  0  0  0  0  0  0  0  0  0
   -5.6985   26.8445  -30.3871 H   0  0  0  0  0  0  0  0  0  0  0  0
   -6.8296   25.4491  -30.3871 H   0  0  0  0  0  0  0  0  0  0  0  0
   -4.1671   24.6684  -28.8431 H   0  0  0  0  0  0  0  0  0  0  0  0
   -3.6342   23.4239  -30.0238 H   0  0  0  0  0  0  0  0  0  0  0  0
   -2.8677   25.0484  -30.0238 H   0  0  0  0  0  0  0  0  0  0  0  0
   -6.5350   23.7995  -31.2089 H   0  0  0  0  0  0  0  0  0  0  0  0
   -5.4017   23.9911  -32.6011 H   0  0  0  0  0  0  0  0  0  0  0  0
   -4.3467   22.6145  -30.1469 H   0  0  0  0  0  0  0  0  0  0  0  0
   -5.5589   21.7258  -31.1706 H   0  0  0  0  0  0  0  0  0  0  0  0
   -3.9213   21.1379  -32.5605 H   0  0  0  0  0  0  0  0  0  0  0  0
   -3.6647   22.8986  -32.9315 H   0  0  0  0  0  0  0  0  0  0  0  0
   -1.8360   22.9800  -31.4170 H   0  0  0  0  0  0  0  0  0  0  0  0
   -2.6599   22.1542  -29.0168 H   0  0  0  0  0  0  0  0  0  0  0  0
   -2.1877   21.5986  -26.6410 H   0  0  0  0  0  0  0  0  0  0  0  0
   -0.7519   19.6486  -26.0747 H   0  0  0  0  0  0  0  0  0  0  0  0
    0.2503   18.2671  -27.8759 H   0  0  0  0  0  0  0  0  0  0  0  0
    1.1968   17.6702  -29.1302 H   0  0  0  0  0  0  0  0  0  0  0  0
    0.8631   16.7791  -30.6538 H   0  0  0  0  0  0  0  0  0  0  0  0
    2.0135   18.1588  -30.6538 H   0  0  0  0  0  0  0  0  0  0  0  0
    0.4071   16.9842  -32.5482 H   0  0  0  0  0  0  0  0  0  0  0  0
   -0.7009   15.4452  -36.2952 H   0  0  0  0  0  0  0  0  0  0  0  0
   -0.6409   15.1900  -34.5002 H   0  0  0  0  0  0  0  0  0  0  0  0
   -2.7471   17.0627  -35.3096 H   0  0  0  0  0  0  0  0  0  0  0  0
   -2.8905   15.3655  -36.0446 H   0  0  0  0  0  0  0  0  0  0  0  0
   -2.5185   14.9758  -32.0333 H   0  0  0  0  0  0  0  0  0  0  0  0
   -2.3019   13.6800  -33.2584 H   0  0  0  0  0  0  0  0  0  0  0  0
   -1.2113   15.1074  -33.2584 H   0  0  0  0  0  0  0  0  0  0  0  0
   -4.5487   14.7125  -35.4235 H   0  0  0  0  0  0  0  0  0  0  0  0
   -3.9975   13.5129  -34.2343 H   0  0  0  0  0  0  0  0  0  0  0  0
   -6.4115   14.7894  -34.0162 H   0  0  0  0  0  0  0  0  0  0  0  0
   -5.5014   14.2905  -32.5777 H   0  0  0  0  0  0  0  0  0  0  0  0
   -4.9305   16.1237  -31.0321 H   0  0  0  0  0  0  0  0  0  0  0  0
   -5.7042   17.6746  -31.5039 H   0  0  0  0  0  0  0  0  0  0  0  0
   -6.6634   16.1559  -31.5039 H   0  0  0  0  0  0  0  0  0  0  0  0
   -5.2123   17.7301  -34.7093 H   0  0  0  0  0  0  0  0  0  0  0  0
   -6.7240   16.6956  -34.5938 H   0  0  0  0  0  0  0  0  0  0  0  0
   -8.3929   17.1650  -32.7651 H   0  0  0  0  0  0  0  0  0  0  0  0
   -9.6381   19.0142  -31.6510 H   0  0  0  0  0  0  0  0  0  0  0  0
   -6.4599   21.7707  -32.6563 H   0  0  0  0  0  0  0  0  0  0  0  0
   -1.7066   19.3013  -35.5161 H   0  0  0  0  0  0  0  0  0  0  0  0
   -2.4105   20.9166  -33.7657 H   0  0  0  0  0  0  0  0  0  0  0  0
  1  2  1  0
  2  3  1  0
  2  4  1  0
  4  5  1  0
  5  6  1  0
  6  7  1  0
  7  8  1  0
  8  9  2  0
  9 10  1  0
 10 11  2  0
 11 12  1  0
 12 13  2  0
 13 14  1  0
 14 15  2  0
 15 16  1  0
 15 17  1  0
 17 18  2  0
 18 19  1  0
 19 20  1  0
 20 21  1  0
 21 22  1  0
 23 22  1  6
 23 24  1  0
 23 25  1  0
 25 26  1  0
 26 27  1  0
 27 28  1  1
 27 29  1  0
 29 30  1  0
 30 31  2  0
 31 32  1  0
 32 33  2  0
 33 34  1  0
 33 35  1  0
 35 36  2  0
 36 37  1  0
 27 38  1  0
 38 39  2  0
 19 40  2  0
 40 41  1  0
 41 42  2  0
 42  8  1  0
 14  9  1  0
 42 17  1  0
 38 23  1  0
 36 30  1  0
  1 43  1  0
  1 44  1  0
  1 45  1  0
  3 46  1  0
  3 47  1  0
  3 48  1  0
  4 49  1  0
  4 50  1  0
  5 51  1  0
  5 52  1  0
  6 53  1  0
  6 54  1  0
  7 55  1  0
 10 56  1  0
 11 57  1  0
 12 58  1  0
 13 59  1  0
 16 60  1  0
 16 61  1  0
 16 62  1  0
 18 63  1  0
 21 64  1  0
 21 65  1  0
 22 66  1  0
 22 67  1  0
 24 68  1  0
 24 69  1  0
 24 70  1  0
 25 71  1  0
 25 72  1  0
 26 73  1  0
 26 74  1  0
 28 75  1  0
 28 76  1  0
 28 77  1  0
 29 78  1  0
 29 79  1  0
 31 80  1  0
 32 81  1  0
 35 82  1  0
 40 83  1  0
 41 84  1  0
M  CHG  3  15   1  23   1  27   1
M  END
>  <UniqueID>  (21) 
20

>  <SMILES>  (21) 
CN(C)CCCNc1c2ccccc2[n+](C)c2cc(OCC[N@+]3(C)CC[N@+](C)(Cc4ccc(Cl)cc4F)C3=O)ccc12

>  <Energy>  (21) 
135.74616731601384

>  <Genealogy>  (21) 
CN(C)CCCNc1c2ccccc2[n+](C)c2cc(OCC[N@+]3(C)CC[N@+](C)(Cc4ccc(Cl)cc4F)C3=O)ccc12 (chirality)
CN(C)CCCNc1c2ccccc2[n+](C)c2cc(OCC[N@+]3(C)CC[N@+](C)(Cc4ccc(Cl)cc4F)C3=O)ccc12 (3D coordinates assigned)
CN(C)CCCNc1c2ccccc2[n+](C)c2cc(OCC[N@+]3(C)CC[N@+](C)(Cc4ccc(Cl)cc4F)C3=O)ccc12 (nonaromatic ring conformer: 135.74616731601384 kcal/mol)

>  <smiles>  (21) 
CN(C)CCCNc1c2ccccc2[n+](C)c2cc(OCC[N+]3(C)CC[N+](C)(Cc4ccc(Cl)cc4F)C3=O)ccc12

>  <score_type>  (21) 
oracle

>  <origin>  (21) 
adg

>  <m_score__min__energy>  (21) 
-9.2799999999999994

>  <m_primary>  (21) 
energy

$$$$
22:0
     RDKit          3D

 63 65  0  0  0  0  0  0  0  0999 V2000
   -3.1090   18.6690  -26.0270 C   0  0  0  0  0  0  0  0  0  0  0  0
   -2.2820   19.3870  -27.0890 C   0  0  0  0  0  0  0  0  0  0  0  0
   -2.9750   20.6780  -27.5510 C   0  0  0  0  0  0  0  0  0  0  0  0
   -2.8170   20.9170  -29.0670 C   0  0  0  0  0  0  0  0  0  0  0  0
   -1.5130   21.6390  -29.4490 C   0  0  0  0  0  0  0  0  0  0  0  0
   -1.1740   21.5100  -30.9340 C   0  0  0  0  0  0  0  0  0  0  0  0
   -2.4840   22.2990  -31.9380 S   0  0  0  0  0  0  0  0  0  0  0  0
   -3.0940   20.7580  -32.6630 C   0  0  0  0  0  0  0  0  0  0  0  0
   -2.0640   19.9060  -33.0750 C   0  0  0  0  0  0  0  0  0  0  0  0
   -2.3270   18.6350  -33.5400 C   0  0  0  0  0  0  0  0  0  0  0  0
   -3.6160   18.1410  -33.4950 C   0  0  0  0  0  0  0  0  0  0  0  0
   -4.6890   18.9180  -32.9940 C   0  0  0  0  0  0  0  0  0  0  0  0
   -4.4680   20.3030  -32.6940 C   0  0  0  0  0  0  0  0  0  0  0  0
   -5.6250   21.1240  -32.4410 C   0  0  0  0  0  0  0  0  0  0  0  0
   -5.5350   22.5710  -32.3550 N   0  0  0  0  0  0  0  0  0  0  0  0
   -6.1730   23.0740  -31.1230 C   0  0  0  0  0  0  0  0  0  0  0  0
   -5.7730   24.5290  -30.8540 C   0  0  0  0  0  0  0  0  0  0  0  0
   -4.3500   24.7170  -31.1740 N   0  0  0  0  0  0  0  0  0  0  0  0
   -3.4890   24.5850  -29.9880 C   0  0  0  0  0  0  0  0  0  0  0  0
   -4.2660   24.1660  -28.7340 C   0  0  0  0  0  0  0  0  0  0  0  0
   -6.9160   20.5130  -32.4050 C   0  0  0  0  0  0  0  0  0  0  0  0
   -8.0970   21.2650  -32.1530 C   0  0  0  0  0  0  0  0  0  0  0  0
   -9.3560   20.6750  -32.1950 C   0  0  0  0  0  0  0  0  0  0  0  0
   -9.4810   19.3280  -32.4910 C   0  0  0  0  0  0  0  0  0  0  0  0
   -8.3470   18.5570  -32.7120 C   0  0  0  0  0  0  0  0  0  0  0  0
   -7.0440   19.1190  -32.6320 C   0  0  0  0  0  0  0  0  0  0  0  0
   -5.9250   18.3380  -32.8020 N   0  0  0  0  0  0  0  0  0  0  0  0
   -6.0390   16.8620  -32.7210 C   0  0  0  0  0  0  0  0  0  0  0  0
   -2.7626   18.9697  -25.0272 H   0  0  0  0  0  0  0  0  0  0  0  0
   -4.1692   18.9380  -26.1440 H   0  0  0  0  0  0  0  0  0  0  0  0
   -2.9915   17.5816  -26.1440 H   0  0  0  0  0  0  0  0  0  0  0  0
   -1.2974   19.6387  -26.6680 H   0  0  0  0  0  0  0  0  0  0  0  0
   -2.1726   18.7197  -27.9566 H   0  0  0  0  0  0  0  0  0  0  0  0
   -4.0468   20.6086  -27.3136 H   0  0  0  0  0  0  0  0  0  0  0  0
   -2.5011   21.5207  -27.0263 H   0  0  0  0  0  0  0  0  0  0  0  0
   -2.8354   19.9418  -29.5756 H   0  0  0  0  0  0  0  0  0  0  0  0
   -3.6470   21.5690  -29.3769 H   0  0  0  0  0  0  0  0  0  0  0  0
   -1.6183   22.7063  -29.2046 H   0  0  0  0  0  0  0  0  0  0  0  0
   -0.6967   21.1675  -28.8821 H   0  0  0  0  0  0  0  0  0  0  0  0
   -0.2124   22.0054  -31.1336 H   0  0  0  0  0  0  0  0  0  0  0  0
   -1.1038   20.4449  -31.1999 H   0  0  0  0  0  0  0  0  0  0  0  0
   -1.0227   20.2573  -33.0270 H   0  0  0  0  0  0  0  0  0  0  0  0
   -1.5129   18.0164  -33.9455 H   0  0  0  0  0  0  0  0  0  0  0  0
   -3.8137   17.1211  -33.8564 H   0  0  0  0  0  0  0  0  0  0  0  0
   -4.5530   22.8900  -32.4460 H   0  0  0  0  0  0  0  0  0  0  0  0
   -5.9700   23.0200  -33.1910 H   0  0  0  0  0  0  0  0  0  0  0  0
   -7.2658   23.0157  -31.2338 H   0  0  0  0  0  0  0  0  0  0  0  0
   -5.8388   22.4557  -30.2768 H   0  0  0  0  0  0  0  0  0  0  0  0
   -6.3807   25.1976  -31.4814 H   0  0  0  0  0  0  0  0  0  0  0  0
   -5.9428   24.7642  -29.7929 H   0  0  0  0  0  0  0  0  0  0  0  0
   -4.2170   25.6690  -31.5910 H   0  0  0  0  0  0  0  0  0  0  0  0
   -2.7197   23.8264  -30.1947 H   0  0  0  0  0  0  0  0  0  0  0  0
   -3.0455   25.5718  -29.7889 H   0  0  0  0  0  0  0  0  0  0  0  0
   -3.7054   24.4683  -27.8372 H   0  0  0  0  0  0  0  0  0  0  0  0
   -5.2513   24.6551  -28.7327 H   0  0  0  0  0  0  0  0  0  0  0  0
   -4.3987   23.0740  -28.7327 H   0  0  0  0  0  0  0  0  0  0  0  0
   -8.0127   22.3367  -31.9198 H   0  0  0  0  0  0  0  0  0  0  0  0
  -10.2530   21.2789  -31.9929 H   0  0  0  0  0  0  0  0  0  0  0  0
  -10.4786   18.8685  -32.5511 H   0  0  0  0  0  0  0  0  0  0  0  0
   -8.4597   17.4898  -32.9538 H   0  0  0  0  0  0  0  0  0  0  0  0
   -6.0628   16.5535  -31.6654 H   0  0  0  0  0  0  0  0  0  0  0  0
   -6.9649   16.5379  -33.2187 H   0  0  0  0  0  0  0  0  0  0  0  0
   -5.1739   16.3996  -33.2187 H   0  0  0  0  0  0  0  0  0  0  0  0
  1  2  1  0
  2  3  1  0
  3  4  1  0
  4  5  1  0
  5  6  1  0
  6  7  1  0
  7  8  1  0
  8  9  2  0
  9 10  1  0
 10 11  2  0
 11 12  1  0
 12 13  2  0
 13 14  1  0
 14 15  1  0
 15 16  1  0
 16 17  1  0
 17 18  1  0
 18 19  1  0
 19 20  1  0
 14 21  2  0
 21 22  1  0
 22 23  2  0
 23 24  1  0
 24 25  2  0
 25 26  1  0
 26 27  2  0
 27 28  1  0
 13  8  1  0
 26 21  1  0
 27 12  1  0
  1 29  1  0
  1 30  1  0
  1 31  1  0
  2 32  1  0
  2 33  1  0
  3 34  1  0
  3 35  1  0
  4 36  1  0
  4 37  1  0
  5 38  1  0
  5 39  1  0
  6 40  1  0
  6 41  1  0
  9 42  1  0
 10 43  1  0
 11 44  1  0
 15 45  1  0
 15 46  1  0
 16 47  1  0
 16 48  1  0
 17 49  1  0
 17 50  1  0
 18 51  1  0
 19 52  1  0
 19 53  1  0
 20 54  1  0
 20 55  1  0
 20 56  1  0
 22 57  1  0
 23 58  1  0
 24 59  1  0
 25 60  1  0
 28 61  1  0
 28 62  1  0
 28 63  1  0
M  CHG  2  15   1  27   1
M  END
>  <UniqueID>  (22) 
21

>  <SMILES>  (22) 
CCCCCCSc1cccc2c1c([NH2+]CCNCC)c1ccccc1[n+]2C

>  <Energy>  (22) 
90.3850524034854

>  <Genealogy>  (22) 
CCCCCCSc1cccc2c1c([NH2+]CCNCC)c1ccccc1[n+]2C (protonated)
CCCCCCSc1cccc2c1c([NH2+]CCNCC)c1ccccc1[n+]2C (3D coordinates assigned)
CCCCCCSc1cccc2c1c([NH2+]CCNCC)c1ccccc1[n+]2C (optimized conformer: 90.3850524034854 kcal/mol)

>  <smiles>  (22) 
CCCCCCSc1cccc2c1c(NCCNCC)c1ccccc1[n+]2C

>  <score_type>  (22) 
oracle

>  <origin>  (22) 
adg

>  <m_score__min__energy>  (22) 
-9.1500000000000004

>  <m_primary>  (22) 
energy

$$$$
