0:0
     RDKit          3D

 46 49  0  0  0  0  0  0  0  0999 V2000
   -9.7710   21.8990  -30.8300 O   0  0  0  0  0  0  0  0  0  0  0  0
   -8.9420   21.1220  -31.3770 C   0  0  0  0  0  0  0  0  0  0  0  0
   -9.0910   19.7480  -31.2170 C   0  0  0  0  0  0  0  0  0  0  0  0
   -8.1900   18.8860  -31.8300 C   0  0  0  0  0  0  0  0  0  0  0  0
   -7.1490   19.4160  -32.6000 C   0  0  0  0  0  0  0  0  0  0  0  0
   -6.1850   18.5200  -33.2870 C   0  0  0  0  0  0  0  0  0  0  0  0
   -5.5720   17.4650  -32.5850 C   0  0  0  0  0  0  0  0  0  0  0  0
   -4.6650   16.6180  -33.2310 C   0  0  0  0  0  0  0  0  0  0  0  0
   -4.3610   16.8140  -34.5800 C   0  0  0  0  0  0  0  0  0  0  0  0
   -4.9650   17.8560  -35.2870 C   0  0  0  0  0  0  0  0  0  0  0  0
   -5.8720   18.7060  -34.6460 C   0  0  0  0  0  0  0  0  0  0  0  0
   -7.0420   20.7730  -32.7220 N   0  0  0  0  0  0  0  0  0  0  0  0
   -7.9040   21.6120  -32.1280 N   0  0  0  0  0  0  0  0  0  0  0  0
   -7.7490   23.0590  -32.3400 C   0  0  0  0  0  0  0  0  0  0  0  0
   -6.6140   23.5850  -31.5040 C   0  0  0  0  0  0  0  0  0  0  0  0
   -6.8560   24.5460  -30.5100 C   0  0  0  0  0  0  0  0  0  0  0  0
   -5.8080   25.0150  -29.7140 C   0  0  0  0  0  0  0  0  0  0  0  0
   -4.5150   24.5180  -29.8920 C   0  0  0  0  0  0  0  0  0  0  0  0
   -4.2630   23.5340  -30.8650 C   0  0  0  0  0  0  0  0  0  0  0  0
   -2.9760   23.0200  -31.0840 O   0  0  0  0  0  0  0  0  0  0  0  0
   -2.6810   21.8340  -31.7710 C   0  0  0  0  0  0  0  0  0  0  0  0
   -3.1100   21.6140  -33.0940 C   0  0  0  0  0  0  0  0  0  0  0  0
   -2.7790   20.4240  -33.7510 C   0  0  0  0  0  0  0  0  0  0  0  0
   -2.0110   19.4550  -33.1000 C   0  0  0  0  0  0  0  0  0  0  0  0
   -1.5660   19.6770  -31.7940 C   0  0  0  0  0  0  0  0  0  0  0  0
   -1.8940   20.8650  -31.1350 C   0  0  0  0  0  0  0  0  0  0  0  0
   -5.3130   23.0830  -31.6740 C   0  0  0  0  0  0  0  0  0  0  0  0
   -9.9159   19.3471  -30.6097 H   0  0  0  0  0  0  0  0  0  0  0  0
   -8.2942   17.7974  -31.7111 H   0  0  0  0  0  0  0  0  0  0  0  0
   -5.8075   17.3056  -31.5224 H   0  0  0  0  0  0  0  0  0  0  0  0
   -4.1903   15.7959  -32.6753 H   0  0  0  0  0  0  0  0  0  0  0  0
   -3.6462   16.1480  -35.0854 H   0  0  0  0  0  0  0  0  0  0  0  0
   -4.7269   18.0085  -36.3500 H   0  0  0  0  0  0  0  0  0  0  0  0
   -6.3438   19.5254  -35.2081 H   0  0  0  0  0  0  0  0  0  0  0  0
   -6.2520   21.1660  -33.2820 H   0  0  0  0  0  0  0  0  0  0  0  0
   -7.5377   23.2505  -33.4024 H   0  0  0  0  0  0  0  0  0  0  0  0
   -8.6789   23.5678  -32.0459 H   0  0  0  0  0  0  0  0  0  0  0  0
   -7.8749   24.9314  -30.3571 H   0  0  0  0  0  0  0  0  0  0  0  0
   -6.0017   25.7775  -28.9452 H   0  0  0  0  0  0  0  0  0  0  0  0
   -3.6912   24.8972  -29.2694 H   0  0  0  0  0  0  0  0  0  0  0  0
   -3.7066   22.3793  -33.6120 H   0  0  0  0  0  0  0  0  0  0  0  0
   -3.1237   20.2510  -34.7812 H   0  0  0  0  0  0  0  0  0  0  0  0
   -1.7566   18.5172  -33.6156 H   0  0  0  0  0  0  0  0  0  0  0  0
   -0.9570   18.9160  -31.2842 H   0  0  0  0  0  0  0  0  0  0  0  0
   -1.5322   21.0402  -30.1111 H   0  0  0  0  0  0  0  0  0  0  0  0
   -5.1173   22.3284  -32.4501 H   0  0  0  0  0  0  0  0  0  0  0  0
  1  2  2  0
  2  3  1  0
  3  4  2  0
  4  5  1  0
  5  6  1  0
  6  7  2  0
  7  8  1  0
  8  9  2  0
  9 10  1  0
 10 11  2  0
  5 12  2  0
 12 13  1  0
 13 14  1  0
 14 15  1  0
 15 16  2  0
 16 17  1  0
 17 18  2  0
 18 19  1  0
 19 20  1  0
 20 21  1  0
 21 22  2  0
 22 23  1  0
 23 24  2  0
 24 25  1  0
 25 26  2  0
 19 27  2  0
 13  2  1  0
 27 15  1  0
 11  6  1  0
 26 21  1  0
  3 28  1  0
  4 29  1  0
  7 30  1  0
  8 31  1  0
  9 32  1  0
 10 33  1  0
 11 34  1  0
 12 35  1  0
 14 36  1  0
 14 37  1  0
 16 38  1  0
 17 39  1  0
 18 40  1  0
 22 41  1  0
 23 42  1  0
 24 43  1  0
 25 44  1  0
 26 45  1  0
 27 46  1  0
M  CHG  1  12   1
M  END
>  <UniqueID>  (1) 
1

>  <SMILES>  (1) 
O=c1ccc(-c2ccccc2)[nH+]n1Cc1cccc(Oc2ccccc2)c1

>  <Energy>  (1) 
63.05605298472484

>  <Genealogy>  (1) 
O=c1ccc(-c2ccccc2)[nH+]n1Cc1cccc(Oc2ccccc2)c1 (protonated)
O=c1ccc(-c2ccccc2)[nH+]n1Cc1cccc(Oc2ccccc2)c1 (3D coordinates assigned)
O=c1ccc(-c2ccccc2)[nH+]n1Cc1cccc(Oc2ccccc2)c1 (optimized conformer: 63.05605298472484 kcal/mol)

>  <smiles>  (1) 
O=c1ccc(-c2ccccc2)nn1Cc1cccc(Oc2ccccc2)c1

>  <score_type>  (1) 
oracle

>  <origin>  (1) 
adg

>  <m_score__min__energy>  (1) 
-9.0800000000000001

>  <m_primary>  (1) 
energy

$$$$
1:0
     RDKit          3D

 43 45  0  0  0  0  0  0  0  0999 V2000
   -0.1660   21.1740  -32.5360 C   0  0  0  0  0  0  0  0  0  0  0  0
   -0.5000   21.0520  -34.0200 C   0  0  0  0  0  0  0  0  0  0  0  0
   -1.8980   20.6720  -34.2120 N   0  0  0  0  0  0  0  0  0  0  0  0
   -2.3680   19.3590  -33.8760 C   0  0  0  0  0  0  0  0  0  0  0  0
   -1.6380   18.5820  -33.2060 O   0  0  0  0  0  0  0  0  0  0  0  0
   -3.6870   18.9320  -34.2380 N   0  0  0  0  0  0  0  0  0  0  0  0
   -4.9080   19.3580  -33.6160 C   0  0  0  0  0  0  0  0  0  0  0  0
   -6.0190   18.5100  -33.6620 C   0  0  0  0  0  0  0  0  0  0  0  0
   -7.2290   18.9020  -33.0870 C   0  0  0  0  0  0  0  0  0  0  0  0
   -7.3430   20.1530  -32.4740 C   0  0  0  0  0  0  0  0  0  0  0  0
   -6.2470   21.0310  -32.4400 C   0  0  0  0  0  0  0  0  0  0  0  0
   -6.3960   22.3580  -31.8000 C   0  0  0  0  0  0  0  0  0  0  0  0
   -7.5630   22.9370  -31.3250 C   0  0  0  0  0  0  0  0  0  0  0  0
   -7.1950   24.1620  -30.8090 C   0  0  0  0  0  0  0  0  0  0  0  0
   -5.8300   24.2560  -30.9970 C   0  0  0  0  0  0  0  0  0  0  0  0
   -4.9780   25.3940  -30.6080 C   0  0  0  0  0  0  0  0  0  0  0  0
   -5.4970   26.5310  -30.4570 O   0  0  0  0  0  0  0  0  0  0  0  0
   -3.5580   25.2560  -30.4670 N   0  0  0  0  0  0  0  0  0  0  0  0
   -2.8770   24.2120  -29.7560 C   0  0  0  0  0  0  0  0  0  0  0  0
   -2.3690   24.4140  -28.4600 C   0  0  0  0  0  0  0  0  0  0  0  0
   -1.7060   23.3800  -27.7950 C   0  0  0  0  0  0  0  0  0  0  0  0
   -1.5230   22.1460  -28.4270 C   0  0  0  0  0  0  0  0  0  0  0  0
   -1.9970   21.9490  -29.7270 C   0  0  0  0  0  0  0  0  0  0  0  0
   -2.6630   22.9830  -30.3930 C   0  0  0  0  0  0  0  0  0  0  0  0
   -5.3880   23.1740  -31.5950 O   0  0  0  0  0  0  0  0  0  0  0  0
   -5.0320   20.6300  -33.0280 C   0  0  0  0  0  0  0  0  0  0  0  0
   -1.0331   20.8573  -31.9378 H   0  0  0  0  0  0  0  0  0  0  0  0
    0.6961   20.5327  -32.3003 H   0  0  0  0  0  0  0  0  0  0  0  0
    0.0798   22.2200  -32.3003 H   0  0  0  0  0  0  0  0  0  0  0  0
   -0.3197   22.0201  -34.5102 H   0  0  0  0  0  0  0  0  0  0  0  0
    0.1390   20.2724  -34.4604 H   0  0  0  0  0  0  0  0  0  0  0  0
   -2.5780   21.3730  -34.5860 H   0  0  0  0  0  0  0  0  0  0  0  0
   -5.9390   17.5293  -34.1537 H   0  0  0  0  0  0  0  0  0  0  0  0
   -8.0952   18.2246  -33.1164 H   0  0  0  0  0  0  0  0  0  0  0  0
   -8.2971   20.4519  -32.0153 H   0  0  0  0  0  0  0  0  0  0  0  0
   -8.5752   22.5073  -31.3538 H   0  0  0  0  0  0  0  0  0  0  0  0
   -7.8533   24.9103  -30.3435 H   0  0  0  0  0  0  0  0  0  0  0  0
   -2.4943   25.3900  -27.9683 H   0  0  0  0  0  0  0  0  0  0  0  0
   -1.3277   23.5364  -26.7740 H   0  0  0  0  0  0  0  0  0  0  0  0
   -1.0058   21.3301  -27.9008 H   0  0  0  0  0  0  0  0  0  0  0  0
   -1.8462   20.9806  -30.2264 H   0  0  0  0  0  0  0  0  0  0  0  0
   -3.0205   22.8303  -31.4220 H   0  0  0  0  0  0  0  0  0  0  0  0
   -4.1728   21.3169  -33.0276 H   0  0  0  0  0  0  0  0  0  0  0  0
  1  2  1  0
  2  3  1  0
  3  4  1  0
  4  5  2  0
  4  6  1  0
  6  7  1  0
  7  8  2  0
  8  9  1  0
  9 10  2  0
 10 11  1  0
 11 12  1  0
 12 13  2  0
 13 14  1  0
 14 15  2  0
 15 16  1  0
 16 17  2  0
 16 18  1  0
 18 19  1  0
 19 20  2  0
 20 21  1  0
 21 22  2  0
 22 23  1  0
 23 24  2  0
 15 25  1  0
 11 26  2  0
 26  7  1  0
 25 12  1  0
 24 19  1  0
  1 27  1  0
  1 28  1  0
  1 29  1  0
  2 30  1  0
  2 31  1  0
  3 32  1  0
  8 33  1  0
  9 34  1  0
 10 35  1  0
 13 36  1  0
 14 37  1  0
 20 38  1  0
 21 39  1  0
 22 40  1  0
 23 41  1  0
 24 42  1  0
 26 43  1  0
M  CHG  2   6  -1  18  -1
M  END
>  <UniqueID>  (2) 
2

>  <SMILES>  (2) 
CCNC(=O)[N-]c1cccc(-c2ccc(C(=O)[N-]c3ccccc3)o2)c1

>  <Energy>  (2) 
74.44017838123052

>  <Genealogy>  (2) 
CCNC(=O)[N-]c1cccc(-c2ccc(C(=O)[N-]c3ccccc3)o2)c1 (protonated)
CCNC(=O)[N-]c1cccc(-c2ccc(C(=O)[N-]c3ccccc3)o2)c1 (3D coordinates assigned)
CCNC(=O)[N-]c1cccc(-c2ccc(C(=O)[N-]c3ccccc3)o2)c1 (optimized conformer: 74.44017838123052 kcal/mol)

>  <smiles>  (2) 
CCNC(=O)Nc1cccc(-c2ccc(C(=O)Nc3ccccc3)o2)c1

>  <score_type>  (2) 
oracle

>  <origin>  (2) 
adg

>  <m_score__min__energy>  (2) 
-10.300000000000001

>  <m_primary>  (2) 
energy

$$$$
2:0
     RDKit          3D

 41 44  0  0  0  0  0  0  0  0999 V2000
   -8.2110   24.4602  -30.4100 H   0  0  0  0  0  0  0  0  0  0  0  0
   -7.1170   24.5420  -30.4910 C   0  0  0  0  0  0  0  0  0  0  0  0
   -6.0950   25.2850  -29.3800 S   0  0  0  0  0  0  0  0  0  0  0  0
   -4.7080   24.9500  -30.2800 C   0  0  0  0  0  0  0  0  0  0  0  0
   -3.4900   25.2630  -29.9500 N   0  0  0  0  0  0  0  0  0  0  0  0
   -2.6740   24.5490  -28.9690 C   0  0  0  0  0  0  0  0  0  0  0  0
   -1.7155   25.0744  -28.8459 H   0  0  0  0  0  0  0  0  0  0  0  0
   -3.2178   24.5172  -28.0134 H   0  0  0  0  0  0  0  0  0  0  0  0
   -2.4090   23.1370  -29.4220 C   0  0  0  0  0  0  0  0  0  0  0  0
   -3.3490   22.1210  -29.1860 C   0  0  0  0  0  0  0  0  0  0  0  0
   -4.2919   22.3558  -28.6704 H   0  0  0  0  0  0  0  0  0  0  0  0
   -3.0910   20.8120  -29.6040 C   0  0  0  0  0  0  0  0  0  0  0  0
   -3.8295   20.0193  -29.4136 H   0  0  0  0  0  0  0  0  0  0  0  0
   -1.8970   20.5090  -30.2630 C   0  0  0  0  0  0  0  0  0  0  0  0
   -1.6955   19.4782  -30.5898 H   0  0  0  0  0  0  0  0  0  0  0  0
   -0.9590   21.5150  -30.5070 C   0  0  0  0  0  0  0  0  0  0  0  0
   -0.0198   21.2760  -31.0274 H   0  0  0  0  0  0  0  0  0  0  0  0
   -1.2130   22.8270  -30.0900 C   0  0  0  0  0  0  0  0  0  0  0  0
   -0.4737   23.6175  -30.2861 H   0  0  0  0  0  0  0  0  0  0  0  0
   -4.9960   24.2790  -31.4120 N   0  0  0  0  0  0  0  0  0  0  0  0
   -6.3320   24.0480  -31.5330 C   0  0  0  0  0  0  0  0  0  0  0  0
   -6.8920   23.2540  -32.6730 C   0  0  0  0  0  0  0  0  0  0  0  0
   -6.0634   22.8190  -33.2511 H   0  0  0  0  0  0  0  0  0  0  0  0
   -7.4917   23.9228  -33.3079 H   0  0  0  0  0  0  0  0  0  0  0  0
   -7.7750   22.1480  -32.1690 C   0  0  0  0  0  0  0  0  0  0  0  0
   -8.9440   22.3670  -31.5330 N   0  0  0  0  0  0  0  0  0  0  0  0
   -9.4210   21.1850  -31.1690 N   0  0  0  0  0  0  0  0  0  0  0  0
   -8.5310   20.2630  -31.5800 C   0  0  0  0  0  0  0  0  0  0  0  0
   -8.7360   18.6550  -31.3550 S   0  0  0  0  0  0  0  0  0  0  0  0
   -7.4880   20.8290  -32.2210 N   0  0  0  0  0  0  0  0  0  0  0  0
   -6.3180   20.1940  -32.7590 C   0  0  0  0  0  0  0  0  0  0  0  0
   -6.4440   19.1080  -33.6380 C   0  0  0  0  0  0  0  0  0  0  0  0
   -7.4411   18.7147  -33.8851 H   0  0  0  0  0  0  0  0  0  0  0  0
   -5.3040   18.5240  -34.2010 C   0  0  0  0  0  0  0  0  0  0  0  0
   -5.4062   17.6720  -34.8892 H   0  0  0  0  0  0  0  0  0  0  0  0
   -4.0350   19.0220  -33.8900 C   0  0  0  0  0  0  0  0  0  0  0  0
   -3.1396   18.5643  -34.3359 H   0  0  0  0  0  0  0  0  0  0  0  0
   -3.9050   20.1020  -33.0120 C   0  0  0  0  0  0  0  0  0  0  0  0
   -2.9066   20.4935  -32.7671 H   0  0  0  0  0  0  0  0  0  0  0  0
   -5.0410   20.6850  -32.4450 C   0  0  0  0  0  0  0  0  0  0  0  0
   -4.9344   21.5313  -31.7504 H   0  0  0  0  0  0  0  0  0  0  0  0
  1  2  1  0
  2  3  1  0
  3  4  1  0
  4  5  2  0
  5  6  1  0
  6  7  1  0
  6  8  1  0
  6  9  1  0
  9 10  2  0
 10 11  1  0
 10 12  1  0
 12 13  1  0
 12 14  2  0
 14 15  1  0
 14 16  1  0
 16 17  1  0
 16 18  2  0
 18 19  1  0
  4 20  1  0
 20 21  1  0
 21 22  1  0
 22 23  1  0
 22 24  1  0
 22 25  1  0
 25 26  2  0
 26 27  1  0
 27 28  1  0
 28 29  2  0
 28 30  1  0
 30 31  1  0
 31 32  2  0
 32 33  1  0
 32 34  1  0
 34 35  1  0
 34 36  2  0
 36 37  1  0
 36 38  1  0
 38 39  1  0
 38 40  2  0
 40 41  1  0
 21  2  2  0
 30 25  1  0
 40 31  1  0
 18  9  1  0
M  CHG  2  20  -1  27  -1
M  END
>  <UniqueID>  (3) 
3

>  <SMILES>  (3) 
S=c1[n-]nc(Cc2cs/c(=N\Cc3ccccc3)[n-]2)n1-c1ccccc1

>  <Energy>  (3) 
113.26797113585715

>  <Genealogy>  (3) 
S=c1[n-]nc(Cc2csc(=NCc3ccccc3)[n-]2)n1-c1ccccc1 (protonated)
S=c1[n-]nc(Cc2cs/c(=N\Cc3ccccc3)[n-]2)n1-c1ccccc1 (cis-trans isomerization)
S=c1[n-]nc(Cc2cs/c(=N\Cc3ccccc3)[n-]2)n1-c1ccccc1 (3D coordinates assigned)
S=c1[n-]nc(Cc2cs/c(=N\Cc3ccccc3)[n-]2)n1-c1ccccc1 (optimized conformer: 113.26797113585715 kcal/mol)

>  <smiles>  (3) 
S=c1[nH]nc(Cc2csc(=NCc3ccccc3)[nH]2)n1-c1ccccc1

>  <score_type>  (3) 
oracle

>  <origin>  (3) 
adg

>  <m_score__min__energy>  (3) 
-10.93

>  <m_primary>  (3) 
energy

$$$$
3:0
     RDKit          3D

 36 38  0  0  0  0  0  0  0  0999 V2000
    1.3320   24.9230  -28.1900 O   0  0  0  0  0  0  0  0  0  0  0  0
    0.5490   24.2480  -27.4910 N   0  0  0  0  0  0  0  0  0  0  0  0
    1.0720   23.4030  -26.5390 O   0  0  0  0  0  0  0  0  0  0  0  0
   -0.8750   24.3550  -27.6700 C   0  0  0  0  0  0  0  0  0  0  0  0
   -1.7240   24.4680  -26.5560 C   0  0  0  0  0  0  0  0  0  0  0  0
   -3.1080   24.5610  -26.7270 C   0  0  0  0  0  0  0  0  0  0  0  0
   -3.6590   24.5490  -28.0100 C   0  0  0  0  0  0  0  0  0  0  0  0
   -2.8320   24.4560  -29.1340 C   0  0  0  0  0  0  0  0  0  0  0  0
   -3.4250   24.4360  -30.4050 O   0  0  0  0  0  0  0  0  0  0  0  0
   -4.6510   23.8300  -30.7120 C   0  0  0  0  0  0  0  0  0  0  0  0
   -4.6510   22.5070  -31.1710 C   0  0  0  0  0  0  0  0  0  0  0  0
   -5.8520   21.8720  -31.4980 C   0  0  0  0  0  0  0  0  0  0  0  0
   -7.0690   22.5520  -31.3570 C   0  0  0  0  0  0  0  0  0  0  0  0
   -8.5840   21.7690  -31.7960 S   0  0  0  0  0  0  0  0  0  0  0  0
   -9.2260   21.1440  -30.5890 O   0  0  0  0  0  0  0  0  0  0  0  0
   -9.5160   22.7990  -32.3680 O   0  0  0  0  0  0  0  0  0  0  0  0
   -8.2960   20.5390  -32.9860 N   0  0  0  0  0  0  0  0  0  0  0  0
   -7.6040   19.4620  -32.7700 C   0  0  0  0  0  0  0  0  0  0  0  0
   -7.7070   18.7470  -31.6310 N   0  0  0  0  0  0  0  0  0  0  0  0
   -6.8950   17.6570  -31.6280 C   0  0  0  0  0  0  0  0  0  0  0  0
   -6.1300   17.4970  -32.7800 C   0  0  0  0  0  0  0  0  0  0  0  0
   -6.4890   18.7670  -33.8280 S   0  0  0  0  0  0  0  0  0  0  0  0
   -7.0770   23.8620  -30.8620 C   0  0  0  0  0  0  0  0  0  0  0  0
   -5.8760   24.5000  -30.5350 C   0  0  0  0  0  0  0  0  0  0  0  0
   -5.9130   25.7520  -30.0160 F   0  0  0  0  0  0  0  0  0  0  0  0
   -1.4410   24.3420  -28.9600 C   0  0  0  0  0  0  0  0  0  0  0  0
   -1.2965   24.4834  -25.5426 H   0  0  0  0  0  0  0  0  0  0  0  0
   -3.7649   24.6439  -25.8486 H   0  0  0  0  0  0  0  0  0  0  0  0
   -4.7497   24.6131  -28.1374 H   0  0  0  0  0  0  0  0  0  0  0  0
   -3.6998   21.9644  -31.2748 H   0  0  0  0  0  0  0  0  0  0  0  0
   -5.8420   20.8358  -31.8670 H   0  0  0  0  0  0  0  0  0  0  0  0
   -8.3410   18.9960  -30.8380 H   0  0  0  0  0  0  0  0  0  0  0  0
   -6.8462   16.9562  -30.7816 H   0  0  0  0  0  0  0  0  0  0  0  0
   -5.4155   16.6832  -32.9727 H   0  0  0  0  0  0  0  0  0  0  0  0
   -8.0320   24.3916  -30.7298 H   0  0  0  0  0  0  0  0  0  0  0  0
   -0.7886   24.2417  -29.8399 H   0  0  0  0  0  0  0  0  0  0  0  0
  1  2  2  0
  2  3  1  0
  2  4  1  0
  4  5  2  0
  5  6  1  0
  6  7  2  0
  7  8  1  0
  8  9  1  0
  9 10  1  0
 10 11  2  0
 11 12  1  0
 12 13  2  0
 13 14  1  0
 14 15  2  0
 14 16  2  0
 14 17  1  0
 17 18  2  3
 18 19  1  0
 19 20  1  0
 20 21  2  0
 21 22  1  0
 13 23  1  0
 23 24  2  0
 24 25  1  0
  8 26  2  0
 26  4  1  0
 24 10  1  0
 22 18  1  0
  5 27  1  0
  6 28  1  0
  7 29  1  0
 11 30  1  0
 12 31  1  0
 19 32  1  0
 20 33  1  0
 21 34  1  0
 23 35  1  0
 26 36  1  0
M  CHG  2   2   1   3  -1
M  END
>  <UniqueID>  (4) 
4

>  <SMILES>  (4) 
O=[N+]([O-])c1cccc(Oc2ccc(S(=O)(=O)N=c3[nH]ccs3)cc2F)c1

>  <Energy>  (4) 
80.30713879880247

>  <Genealogy>  (4) 
O=[N+]([O-])c1cccc(Oc2ccc(S(=O)(=O)N=c3[nH]ccs3)cc2F)c1 (3D coordinates assigned)
O=[N+]([O-])c1cccc(Oc2ccc(S(=O)(=O)N=c3[nH]ccs3)cc2F)c1 (optimized conformer: 80.30713879880247 kcal/mol)

>  <smiles>  (4) 
O=[N+]([O-])c1cccc(Oc2ccc(S(=O)(=O)N=c3[nH]ccs3)cc2F)c1

>  <score_type>  (4) 
oracle

>  <origin>  (4) 
adg

>  <m_score__min__energy>  (4) 
-8.8399999999999999

>  <m_primary>  (4) 
energy

$$$$
4:0
     RDKit          3D

 41 42  0  0  0  0  0  0  0  0999 V2000
   -3.8670   24.5470  -27.0150 C   0  0  0  0  0  0  0  0  0  0  0  0
   -4.1850   23.4910  -28.0690 C   0  0  0  0  0  0  0  0  0  0  0  0
   -4.9350   24.0620  -29.1400 O   0  0  0  0  0  0  0  0  0  0  0  0
   -4.4510   24.1750  -30.4490 C   0  0  0  0  0  0  0  0  0  0  0  0
   -3.9110   25.2470  -30.8340 O   0  0  0  0  0  0  0  0  0  0  0  0
   -4.5830   23.0340  -31.3820 C   0  0  0  0  0  0  0  0  0  0  0  0
   -5.8530   22.6030  -31.8010 C   0  0  0  0  0  0  0  0  0  0  0  0
   -5.9790   21.5240  -32.6810 C   0  0  0  0  0  0  0  0  0  0  0  0
   -4.8470   20.8560  -33.1570 C   0  0  0  0  0  0  0  0  0  0  0  0
   -5.0350   19.7740  -34.0330 O   0  0  0  0  0  0  0  0  0  0  0  0
   -6.1350   18.8640  -33.9990 C   0  0  0  0  0  0  0  0  0  0  0  0
   -6.2300   18.1740  -32.6660 C   0  0  0  0  0  0  0  0  0  0  0  0
   -5.5230   17.0580  -32.2470 C   0  0  0  0  0  0  0  0  0  0  0  0
   -4.4610   16.3280  -33.0070 C   0  0  0  0  0  0  0  0  0  0  0  0
   -5.9700   16.6970  -31.0310 N   0  0  0  0  0  0  0  0  0  0  0  0
   -6.9220   17.5130  -30.6880 O   0  0  0  0  0  0  0  0  0  0  0  0
   -7.1230   18.4120  -31.6260 C   0  0  0  0  0  0  0  0  0  0  0  0
   -8.1880   19.4640  -31.5490 C   0  0  0  0  0  0  0  0  0  0  0  0
   -9.1990   19.3000  -32.6780 C   0  0  0  0  0  0  0  0  0  0  0  0
   -3.5730   21.2870  -32.7440 C   0  0  0  0  0  0  0  0  0  0  0  0
   -3.4440   22.3640  -31.8640 C   0  0  0  0  0  0  0  0  0  0  0  0
   -3.9972   24.1147  -26.0119 H   0  0  0  0  0  0  0  0  0  0  0  0
   -2.8273   24.8849  -27.1365 H   0  0  0  0  0  0  0  0  0  0  0  0
   -4.5473   25.4029  -27.1365 H   0  0  0  0  0  0  0  0  0  0  0  0
   -3.2444   23.0802  -28.4648 H   0  0  0  0  0  0  0  0  0  0  0  0
   -4.7819   22.6930  -27.6034 H   0  0  0  0  0  0  0  0  0  0  0  0
   -6.7535   23.1176  -31.4345 H   0  0  0  0  0  0  0  0  0  0  0  0
   -6.9791   21.1973  -33.0021 H   0  0  0  0  0  0  0  0  0  0  0  0
   -7.0663   19.4200  -34.1822 H   0  0  0  0  0  0  0  0  0  0  0  0
   -5.9793   18.1007  -34.7756 H   0  0  0  0  0  0  0  0  0  0  0  0
   -3.7666   15.8507  -32.2999 H   0  0  0  0  0  0  0  0  0  0  0  0
   -4.9266   15.5582  -33.6399 H   0  0  0  0  0  0  0  0  0  0  0  0
   -3.9090   17.0385  -33.6399 H   0  0  0  0  0  0  0  0  0  0  0  0
   -5.6370   15.8930  -30.4530 H   0  0  0  0  0  0  0  0  0  0  0  0
   -8.7091   19.3787  -30.5840 H   0  0  0  0  0  0  0  0  0  0  0  0
   -7.7131   20.4517  -31.6439 H   0  0  0  0  0  0  0  0  0  0  0  0
  -10.2004   19.1376  -32.2527 H   0  0  0  0  0  0  0  0  0  0  0  0
   -9.2069   20.2086  -33.2980 H   0  0  0  0  0  0  0  0  0  0  0  0
   -8.9193   18.4355  -33.2980 H   0  0  0  0  0  0  0  0  0  0  0  0
   -2.6742   20.7733  -33.1159 H   0  0  0  0  0  0  0  0  0  0  0  0
   -2.4433   22.6910  -31.5452 H   0  0  0  0  0  0  0  0  0  0  0  0
  1  2  1  0
  2  3  1  0
  3  4  1  0
  4  5  2  0
  4  6  1  0
  6  7  2  0
  7  8  1  0
  8  9  2  0
  9 10  1  0
 10 11  1  0
 11 12  1  0
 12 13  1  0
 13 14  1  0
 13 15  2  0
 15 16  1  0
 16 17  1  0
 17 18  1  0
 18 19  1  0
  9 20  1  0
 20 21  2  0
 21  6  1  0
 17 12  2  0
  1 22  1  0
  1 23  1  0
  1 24  1  0
  2 25  1  0
  2 26  1  0
  7 27  1  0
  8 28  1  0
 11 29  1  0
 11 30  1  0
 14 31  1  0
 14 32  1  0
 14 33  1  0
 15 34  1  0
 18 35  1  0
 18 36  1  0
 19 37  1  0
 19 38  1  0
 19 39  1  0
 20 40  1  0
 21 41  1  0
M  CHG  1  15   1
M  END
>  <UniqueID>  (5) 
5

>  <SMILES>  (5) 
CCOC(=O)c1ccc(OCc2c(C)[nH+]oc2CC)cc1

>  <Energy>  (5) 
62.690298995105536

>  <Genealogy>  (5) 
CCOC(=O)c1ccc(OCc2c(C)[nH+]oc2CC)cc1 (protonated)
CCOC(=O)c1ccc(OCc2c(C)[nH+]oc2CC)cc1 (3D coordinates assigned)
CCOC(=O)c1ccc(OCc2c(C)[nH+]oc2CC)cc1 (optimized conformer: 62.690298995105536 kcal/mol)

>  <smiles>  (5) 
CCOC(=O)c1ccc(OCc2c(C)noc2CC)cc1

>  <score_type>  (5) 
oracle

>  <origin>  (5) 
adg

>  <m_score__min__energy>  (5) 
-7.29

>  <m_primary>  (5) 
energy

$$$$
5:0
     RDKit          3D

 38 41  0  0  0  0  0  0  0  0999 V2000
   -6.3210   25.6640  -29.0560 C   0  0  0  0  0  0  0  0  0  0  0  0
   -6.4990   25.3540  -30.4350 O   0  0  0  0  0  0  0  0  0  0  0  0
   -6.2640   24.0920  -31.0070 C   0  0  0  0  0  0  0  0  0  0  0  0
   -7.3140   23.2450  -31.3850 C   0  0  0  0  0  0  0  0  0  0  0  0
   -7.0550   21.9740  -31.8940 C   0  0  0  0  0  0  0  0  0  0  0  0
   -8.0860   21.2190  -32.2550 O   0  0  0  0  0  0  0  0  0  0  0  0
   -7.9580   19.9920  -32.7320 C   0  0  0  0  0  0  0  0  0  0  0  0
   -8.9930   19.3610  -33.0790 O   0  0  0  0  0  0  0  0  0  0  0  0
   -6.6910   19.3990  -32.8180 C   0  0  0  0  0  0  0  0  0  0  0  0
   -6.5110   18.0770  -33.2440 C   0  0  0  0  0  0  0  0  0  0  0  0
   -5.2960   17.4770  -33.2280 C   0  0  0  0  0  0  0  0  0  0  0  0
   -4.1630   18.1290  -32.7700 C   0  0  0  0  0  0  0  0  0  0  0  0
   -4.2900   19.4600  -32.3390 C   0  0  0  0  0  0  0  0  0  0  0  0
   -5.5440   20.1430  -32.4110 C   0  0  0  0  0  0  0  0  0  0  0  0
   -5.7240   21.5070  -32.0290 C   0  0  0  0  0  0  0  0  0  0  0  0
   -4.6650   22.4340  -31.8040 C   0  0  0  0  0  0  0  0  0  0  0  0
   -3.3710   22.1710  -32.2540 O   0  0  0  0  0  0  0  0  0  0  0  0
   -2.3190   21.8590  -31.3460 C   0  0  0  0  0  0  0  0  0  0  0  0
   -4.9380   23.6920  -31.2100 C   0  0  0  0  0  0  0  0  0  0  0  0
   -3.9370   24.6030  -30.8220 O   0  0  0  0  0  0  0  0  0  0  0  0
   -3.1620   24.5450  -29.6280 C   0  0  0  0  0  0  0  0  0  0  0  0
   -5.4100   16.1790  -33.6850 O   0  0  0  0  0  0  0  0  0  0  0  0
   -6.7860   15.9430  -34.0110 C   0  0  0  0  0  0  0  0  0  0  0  0
   -7.4530   17.1760  -33.7090 O   0  0  0  0  0  0  0  0  0  0  0  0
   -6.7751   24.8732  -28.4408 H   0  0  0  0  0  0  0  0  0  0  0  0
   -5.2464   25.7319  -28.8312 H   0  0  0  0  0  0  0  0  0  0  0  0
   -6.8041   26.6263  -28.8312 H   0  0  0  0  0  0  0  0  0  0  0  0
   -8.3541   23.5870  -31.2788 H   0  0  0  0  0  0  0  0  0  0  0  0
   -3.1893   17.6179  -32.7444 H   0  0  0  0  0  0  0  0  0  0  0  0
   -3.4101   19.9855  -31.9395 H   0  0  0  0  0  0  0  0  0  0  0  0
   -2.6821   21.9667  -30.3132 H   0  0  0  0  0  0  0  0  0  0  0  0
   -1.9866   20.8236  -31.5117 H   0  0  0  0  0  0  0  0  0  0  0  0
   -1.4759   22.5458  -31.5117 H   0  0  0  0  0  0  0  0  0  0  0  0
   -3.8293   24.5949  -28.7550 H   0  0  0  0  0  0  0  0  0  0  0  0
   -2.5962   23.6020  -29.6036 H   0  0  0  0  0  0  0  0  0  0  0  0
   -2.4621   25.3933  -29.6036 H   0  0  0  0  0  0  0  0  0  0  0  0
   -6.8942   15.6954  -35.0773 H   0  0  0  0  0  0  0  0  0  0  0  0
   -7.2058   15.0962  -33.4481 H   0  0  0  0  0  0  0  0  0  0  0  0
  1  2  1  0
  2  3  1  0
  3  4  2  0
  4  5  1  0
  5  6  1  0
  6  7  1  0
  7  8  2  0
  7  9  1  0
  9 10  2  0
 10 11  1  0
 11 12  2  0
 12 13  1  0
 13 14  2  0
 14 15  1  0
 15 16  1  0
 16 17  1  0
 17 18  1  0
 16 19  2  0
 19 20  1  0
 20 21  1  0
 11 22  1  0
 22 23  1  0
 23 24  1  0
 19  3  1  0
 15  5  2  0
 14  9  1  0
 24 10  1  0
  1 25  1  0
  1 26  1  0
  1 27  1  0
  4 28  1  0
 12 29  1  0
 13 30  1  0
 18 31  1  0
 18 32  1  0
 18 33  1  0
 21 34  1  0
 21 35  1  0
 21 36  1  0
 23 37  1  0
 23 38  1  0
M  END
>  <UniqueID>  (6) 
6

>  <SMILES>  (6) 
COc1cc2oc(=O)c3c4c(ccc3c2c(OC)c1OC)OCO4

>  <Energy>  (6) 
96.44843819534049

>  <Genealogy>  (6) 
COc1cc2oc(=O)c3c4c(ccc3c2c(OC)c1OC)OCO4 (3D coordinates assigned)
COc1cc2oc(=O)c3c4c(ccc3c2c(OC)c1OC)OCO4 (nonaromatic ring conformer: 96.44843819534049 kcal/mol)

>  <smiles>  (6) 
COc1cc2oc(=O)c3c4c(ccc3c2c(OC)c1OC)OCO4

>  <score_type>  (6) 
oracle

>  <origin>  (6) 
adg

>  <m_score__min__energy>  (6) 
-6.6699999999999999

>  <m_primary>  (6) 
energy

$$$$
6:0
     RDKit          3D

 31 32  0  0  1  0  0  0  0  0999 V2000
   -2.9420   24.4700  -29.3510 C   0  0  0  0  0  0  0  0  0  0  0  0
   -7.3360   22.5500  -32.3350 N   0  0  0  0  0  0  0  0  0  0  0  0
   -6.6440   23.1960  -31.4870 C   0  0  0  0  0  0  0  0  0  0  0  0
   -6.9440   23.5330  -30.2190 N   0  0  0  0  0  0  0  0  0  0  0  0
   -5.9390   24.2090  -29.6810 N   0  0  0  0  0  0  0  0  0  0  0  0
   -4.9670   24.3150  -30.6150 C   0  0  0  0  0  0  0  0  0  0  0  0
   -3.8590   24.9180  -30.4020 N   0  0  0  0  0  0  0  0  0  0  0  0
   -7.5240   21.1420  -32.3400 C   0  0  0  0  0  0  0  0  0  0  0  0
   -6.5200   20.2650  -32.7010 C   0  0  0  0  0  0  0  0  0  0  0  0
   -5.1950   20.7610  -33.1000 C   0  0  0  0  0  0  0  0  0  0  0  0
   -6.7780   18.9090  -32.6810 C   0  0  0  0  0  0  0  0  0  0  0  0
   -8.0110   18.3870  -32.3130 C   0  0  0  0  0  0  0  0  0  0  0  0
   -9.0100   19.2890  -31.9530 C   0  0  0  0  0  0  0  0  0  0  0  0
   -8.7550   20.6530  -31.9710 C   0  0  0  0  0  0  0  0  0  0  0  0
   -9.8480   21.5520  -31.5820 C   0  0  0  0  0  0  0  0  0  0  0  0
   -5.4150   23.6840  -31.7280 N   0  0  0  0  0  0  0  0  0  0  0  0
   -3.3810   24.6845  -28.3655 H   0  0  0  0  0  0  0  0  0  0  0  0
   -2.7725   23.3876  -29.4492 H   0  0  0  0  0  0  0  0  0  0  0  0
   -1.9840   25.0016  -29.4492 H   0  0  0  0  0  0  0  0  0  0  0  0
   -7.8390   23.2960  -29.7300 H   0  0  0  0  0  0  0  0  0  0  0  0
   -5.9560   24.5680  -28.7120 H   0  0  0  0  0  0  0  0  0  0  0  0
   -4.6009   20.9834  -32.2014 H   0  0  0  0  0  0  0  0  0  0  0  0
   -4.6814   19.9942  -33.6986 H   0  0  0  0  0  0  0  0  0  0  0  0
   -5.3112   21.6765  -33.6986 H   0  0  0  0  0  0  0  0  0  0  0  0
   -5.9748   18.2143  -32.9680 H   0  0  0  0  0  0  0  0  0  0  0  0
   -8.1922   17.3021  -32.3060 H   0  0  0  0  0  0  0  0  0  0  0  0
  -10.0021   18.9195  -31.6541 H   0  0  0  0  0  0  0  0  0  0  0  0
   -9.9088   21.6020  -30.4848 H   0  0  0  0  0  0  0  0  0  0  0  0
   -9.6567   22.5575  -31.9848 H   0  0  0  0  0  0  0  0  0  0  0  0
  -10.7977   21.1702  -31.9848 H   0  0  0  0  0  0  0  0  0  0  0  0
   -4.8660   23.6100  -32.6110 H   0  0  0  0  0  0  0  0  0  0  0  0
  1  2  1  0
  2  3  2  0
  3  4  1  0
  4  5  1  0
  5  6  1  0
  6  7  2  0
  7  8  1  0
  8  9  2  0
  9 10  1  0
  9 11  1  0
 11 12  2  0
 12 13  1  0
 13 14  2  0
 14 15  1  0
  6 16  1  0
 16  3  1  0
 14  8  1  0
  1 17  1  0
  1 18  1  0
  1 19  1  0
  4 20  1  0
  5 21  1  0
 10 22  1  0
 10 23  1  0
 10 24  1  0
 11 25  1  0
 12 26  1  0
 13 27  1  0
 15 28  1  0
 15 29  1  0
 15 30  1  0
 16 31  1  0
M  END
>  <smiles>  (7) 
CN=c1[nH][nH]c(=Nc2c(C)cccc2C)[nH]1

>  <score_type>  (7) 
oracle

>  <origin>  (7) 
adg

>  <m_score__min__energy>  (7) 
-6.71

>  <m_primary>  (7) 
energy

$$$$
7:0
     RDKit          3D

 41 43  0  0  0  0  0  0  0  0999 V2000
   -6.1430   17.1100  -34.5740 N   0  0  0  0  0  0  0  0  0  0  0  0
   -6.0830   18.0900  -33.9620 C   0  0  0  0  0  0  0  0  0  0  0  0
   -6.0070   19.3130  -33.1990 C   0  0  0  0  0  0  0  0  0  0  0  0
   -4.8830   20.1330  -33.3660 C   0  0  0  0  0  0  0  0  0  0  0  0
   -4.7630   21.3240  -32.6490 C   0  0  0  0  0  0  0  0  0  0  0  0
   -5.7660   21.7100  -31.7520 C   0  0  0  0  0  0  0  0  0  0  0  0
   -5.6400   22.9420  -31.0230 N   0  0  0  0  0  0  0  0  0  0  0  0
   -6.6040   24.0140  -31.3080 C   0  0  0  0  0  0  0  0  0  0  0  0
   -6.0960   25.3770  -30.8400 C   0  0  0  0  0  0  0  0  0  0  0  0
   -5.6630   25.3040  -29.3750 C   0  0  0  0  0  0  0  0  0  0  0  0
   -4.4910   24.3300  -29.1900 C   0  0  2  0  0  0  0  0  0  0  0  0
   -3.2650   24.9140  -29.7450 N   0  0  0  0  0  0  0  0  0  0  0  0
   -1.8840   24.5350  -28.7580 S   0  0  0  0  0  0  0  0  0  0  0  0
   -0.8220   25.5770  -28.9650 O   0  0  0  0  0  0  0  0  0  0  0  0
   -2.2810   24.5200  -27.3090 O   0  0  0  0  0  0  0  0  0  0  0  0
   -1.2470   22.9660  -29.2150 C   0  0  0  0  0  0  0  0  0  0  0  0
   -0.5220   22.1210  -28.3910 C   0  0  0  0  0  0  0  0  0  0  0  0
   -0.1200   20.9450  -29.0360 C   0  0  0  0  0  0  0  0  0  0  0  0
   -0.5260   20.8710  -30.3630 C   0  0  0  0  0  0  0  0  0  0  0  0
   -1.3860   22.2680  -30.7360 S   0  0  0  0  0  0  0  0  0  0  0  0
   -4.7520   23.0220  -29.8860 C   0  0  0  0  0  0  0  0  0  0  0  0
   -4.1060   22.0040  -29.5140 O   0  0  0  0  0  0  0  0  0  0  0  0
   -6.8970   20.8980  -31.5850 C   0  0  0  0  0  0  0  0  0  0  0  0
   -7.0330   19.6920  -32.3010 C   0  0  0  0  0  0  0  0  0  0  0  0
   -8.2600   18.8230  -32.1100 C   0  0  0  0  0  0  0  0  0  0  0  0
   -7.9630   17.4750  -32.2230 F   0  0  0  0  0  0  0  0  0  0  0  0
   -8.7950   19.0460  -30.8550 F   0  0  0  0  0  0  0  0  0  0  0  0
   -9.2060   19.1400  -33.0690 F   0  0  0  0  0  0  0  0  0  0  0  0
   -4.0895   19.8356  -34.0674 H   0  0  0  0  0  0  0  0  0  0  0  0
   -3.8776   21.9615  -32.7890 H   0  0  0  0  0  0  0  0  0  0  0  0
   -6.7809   24.0539  -32.3930 H   0  0  0  0  0  0  0  0  0  0  0  0
   -7.5328   23.7909  -30.7625 H   0  0  0  0  0  0  0  0  0  0  0  0
   -5.2370   25.6767  -31.4584 H   0  0  0  0  0  0  0  0  0  0  0  0
   -6.9054   26.1153  -30.9390 H   0  0  0  0  0  0  0  0  0  0  0  0
   -5.3530   26.3056  -29.0422 H   0  0  0  0  0  0  0  0  0  0  0  0
   -6.5135   24.9427  -28.7782 H   0  0  0  0  0  0  0  0  0  0  0  0
   -4.3774   24.1469  -28.1113 H   0  0  0  0  0  0  0  0  0  0  0  0
   -0.2869   22.3496  -27.3410 H   0  0  0  0  0  0  0  0  0  0  0  0
    0.4620   20.1546  -28.5394 H   0  0  0  0  0  0  0  0  0  0  0  0
   -0.3199   20.0395  -31.0530 H   0  0  0  0  0  0  0  0  0  0  0  0
   -7.6883   21.2065  -30.8860 H   0  0  0  0  0  0  0  0  0  0  0  0
  1  2  3  0
  2  3  1  0
  3  4  2  0
  4  5  1  0
  5  6  2  0
  6  7  1  0
  7  8  1  0
  8  9  1  0
  9 10  1  0
 10 11  1  0
 11 12  1  0
 12 13  1  0
 13 14  2  0
 13 15  2  0
 13 16  1  0
 16 17  2  0
 17 18  1  0
 18 19  2  0
 19 20  1  0
 11 21  1  0
 21 22  2  0
  6 23  1  0
 23 24  2  0
 24 25  1  0
 25 26  1  0
 25 27  1  0
 25 28  1  0
 24  3  1  0
 21  7  1  0
 20 16  1  0
  4 29  1  0
  5 30  1  0
  8 31  1  0
  8 32  1  0
  9 33  1  0
  9 34  1  0
 10 35  1  0
 10 36  1  0
 11 37  1  1
 17 38  1  0
 18 39  1  0
 19 40  1  0
 23 41  1  0
M  CHG  1  12  -1
M  END
>  <UniqueID>  (8) 
7

>  <SMILES>  (8) 
N#Cc1ccc(N2CCC[C@H]([N-]S(=O)(=O)c3cccs3)C2=O)cc1C(F)(F)F

>  <Energy>  (8) 
74.14622098514832

>  <Genealogy>  (8) 
N#Cc1ccc(N2CCCC([N-]S(=O)(=O)c3cccs3)C2=O)cc1C(F)(F)F (protonated)
N#Cc1ccc(N2CCC[C@H]([N-]S(=O)(=O)c3cccs3)C2=O)cc1C(F)(F)F (chirality)
N#Cc1ccc(N2CCC[C@H]([N-]S(=O)(=O)c3cccs3)C2=O)cc1C(F)(F)F (3D coordinates assigned)
N#Cc1ccc(N2CCC[C@H]([N-]S(=O)(=O)c3cccs3)C2=O)cc1C(F)(F)F (nonaromatic ring conformer: 74.14622098514832 kcal/mol)

>  <smiles>  (8) 
N#Cc1ccc(N2CCCC(NS(=O)(=O)c3cccs3)C2=O)cc1C(F)(F)F

>  <score_type>  (8) 
oracle

>  <origin>  (8) 
adg

>  <m_score__min__energy>  (8) 
-9.8599999999999994

>  <m_primary>  (8) 
energy

$$$$
8:0
     RDKit          3D

 50 53  0  0  0  0  0  0  0  0999 V2000
   -1.1580   25.4630  -29.8930 H   0  0  0  0  0  0  0  0  0  0  0  0
   -1.9520   25.2090  -29.2630 N   0  0  0  0  0  0  0  0  0  0  0  0
   -2.9920   24.5770  -29.7040 C   0  0  0  0  0  0  0  0  0  0  0  0
   -3.9020   25.2410  -30.4680 N   0  0  0  0  0  0  0  0  0  0  0  0
   -5.0060   24.6340  -30.9740 C   0  0  0  0  0  0  0  0  0  0  0  0
   -5.7182   25.2112  -31.5820 H   0  0  0  0  0  0  0  0  0  0  0  0
   -5.2430   23.2700  -30.7240 C   0  0  0  0  0  0  0  0  0  0  0  0
   -6.4610   22.5960  -31.2500 C   0  0  0  0  0  0  0  0  0  0  0  0
   -7.7120   23.1570  -31.4880 C   0  0  0  0  0  0  0  0  0  0  0  0
   -7.9871   24.2032  -31.2885 H   0  0  0  0  0  0  0  0  0  0  0  0
   -8.5350   22.2200  -32.0010 N   0  0  0  0  0  0  0  0  0  0  0  0
   -7.8520   21.0900  -32.0830 N   0  0  0  0  0  0  0  0  0  0  0  0
   -8.3810   19.8610  -32.6610 C   0  0  0  0  0  0  0  0  0  0  0  0
   -8.6767   19.1741  -31.8543 H   0  0  0  0  0  0  0  0  0  0  0  0
   -9.2577   20.0958  -33.2824 H   0  0  0  0  0  0  0  0  0  0  0  0
   -7.6078   19.3856  -33.2824 H   0  0  0  0  0  0  0  0  0  0  0  0
   -6.5900   21.2770  -31.6510 C   0  0  0  0  0  0  0  0  0  0  0  0
   -5.7985   20.5137  -31.6218 H   0  0  0  0  0  0  0  0  0  0  0  0
   -4.3080   22.5660  -29.9460 C   0  0  0  0  0  0  0  0  0  0  0  0
   -4.4657   21.4960  -29.7453 H   0  0  0  0  0  0  0  0  0  0  0  0
   -3.1770   23.2080  -29.4220 C   0  0  0  0  0  0  0  0  0  0  0  0
   -2.2420   22.4400  -28.5630 C   0  0  0  0  0  0  0  0  0  0  0  0
   -2.6760   21.5130  -27.8260 O   0  0  0  0  0  0  0  0  0  0  0  0
   -0.8390   22.7240  -28.5940 N   0  0  0  0  0  0  0  0  0  0  0  0
   -0.5250   23.6770  -28.8890 H   0  0  0  0  0  0  0  0  0  0  0  0
    0.1560   21.6580  -28.5570 C   0  0  0  0  0  0  0  0  0  0  0  0
    0.0188   21.0578  -27.6454 H   0  0  0  0  0  0  0  0  0  0  0  0
    1.1658   22.0942  -28.5555 H   0  0  0  0  0  0  0  0  0  0  0  0
   -0.0150   20.7810  -29.7680 C   0  0  0  0  0  0  0  0  0  0  0  0
   -0.1730   19.3980  -29.6250 C   0  0  0  0  0  0  0  0  0  0  0  0
   -0.0992   18.9377  -28.6287 H   0  0  0  0  0  0  0  0  0  0  0  0
   -0.4240   18.6010  -30.7430 C   0  0  0  0  0  0  0  0  0  0  0  0
   -0.5379   17.5131  -30.6265 H   0  0  0  0  0  0  0  0  0  0  0  0
   -0.5310   19.1810  -32.0100 C   0  0  0  0  0  0  0  0  0  0  0  0
   -0.7273   18.5454  -32.8861 H   0  0  0  0  0  0  0  0  0  0  0  0
   -0.3900   20.5690  -32.1740 C   0  0  0  0  0  0  0  0  0  0  0  0
   -0.5190   21.1870  -33.5140 C   0  0  0  0  0  0  0  0  0  0  0  0
   -1.6150   21.7160  -33.8540 O   0  0  0  0  0  0  0  0  0  0  0  0
    0.6050   21.1870  -34.4140 N   0  0  0  0  0  0  0  0  0  0  0  0
    0.9710   22.1660  -35.1870 C   0  0  0  0  0  0  0  0  0  0  0  0
    0.2690   23.3030  -35.3720 N   0  0  0  0  0  0  0  0  0  0  0  0
    1.0630   23.9470  -36.2540 C   0  0  0  0  0  0  0  0  0  0  0  0
    0.7540   25.2970  -36.8080 C   0  0  0  0  0  0  0  0  0  0  0  0
    0.5921   26.0043  -35.9813 H   0  0  0  0  0  0  0  0  0  0  0  0
    1.5965   25.6415  -37.4256 H   0  0  0  0  0  0  0  0  0  0  0  0
   -0.1545   25.2407  -37.4256 H   0  0  0  0  0  0  0  0  0  0  0  0
    2.1730   23.2480  -36.5690 N   0  0  0  0  0  0  0  0  0  0  0  0
    2.0780   22.1480  -35.8860 O   0  0  0  0  0  0  0  0  0  0  0  0
   -0.1320   21.3630  -31.0410 C   0  0  0  0  0  0  0  0  0  0  0  0
   -0.0207   22.4515  -31.1536 H   0  0  0  0  0  0  0  0  0  0  0  0
  1  2  1  0
  2  3  2  3
  3  4  1  0
  4  5  1  0
  5  6  1  0
  5  7  2  0
  7  8  1  0
  8  9  1  0
  9 10  1  0
  9 11  2  0
 11 12  1  0
 12 13  1  0
 13 14  1  0
 13 15  1  0
 13 16  1  0
 12 17  1  0
 17 18  1  0
  7 19  1  0
 19 20  1  0
 19 21  2  0
 21 22  1  0
 22 23  2  0
 22 24  1  0
 24 25  1  0
 24 26  1  0
 26 27  1  0
 26 28  1  0
 26 29  1  0
 29 30  2  0
 30 31  1  0
 30 32  1  0
 32 33  1  0
 32 34  2  0
 34 35  1  0
 34 36  1  0
 36 37  1  0
 37 38  2  0
 37 39  1  0
 39 40  2  0
 40 41  1  0
 41 42  2  0
 42 43  1  0
 43 44  1  0
 43 45  1  0
 43 46  1  0
 42 47  1  0
 47 48  1  0
 36 49  2  0
 49 50  1  0
 21  3  1  0
 49 29  1  0
 17  8  2  0
 48 40  1  0
M  CHG  2   4  -1  47  -1
M  END
>  <UniqueID>  (9) 
8

>  <SMILES>  (9) 
Cc1n/c(=N\C(=O)c2cccc(CNC(=O)c3cc(-c4cnn(C)c4)c[n-]c3=N)c2)o[n-]1

>  <Energy>  (9) 
122.52971834410077

>  <Genealogy>  (9) 
Cc1nc(=NC(=O)c2cccc(CNC(=O)c3cc(-c4cnn(C)c4)c[n-]c3=N)c2)o[n-]1 (protonated)
Cc1n/c(=N\C(=O)c2cccc(CNC(=O)c3cc(-c4cnn(C)c4)c[n-]c3=N)c2)o[n-]1 (cis-trans isomerization)
Cc1n/c(=N\C(=O)c2cccc(CNC(=O)c3cc(-c4cnn(C)c4)c[n-]c3=N)c2)o[n-]1 (3D coordinates assigned)
Cc1n/c(=N\C(=O)c2cccc(CNC(=O)c3cc(-c4cnn(C)c4)c[n-]c3=N)c2)o[n-]1 (optimized conformer: 122.52971834410077 kcal/mol)

>  <smiles>  (9) 
Cc1nc(=NC(=O)c2cccc(CNC(=O)c3cc(-c4cnn(C)c4)c[nH]c3=N)c2)o[nH]1

>  <score_type>  (9) 
oracle

>  <origin>  (9) 
adg

>  <m_score__min__energy>  (9) 
-11.93

>  <m_primary>  (9) 
energy

$$$$
9:0
     RDKit          3D

 35 37  0  0  0  0  0  0  0  0999 V2000
   -1.4620   24.8630  -28.2340 C   0  0  0  0  0  0  0  0  0  0  0  0
   -2.2460   25.2950  -29.3400 O   0  0  0  0  0  0  0  0  0  0  0  0
   -3.2720   24.5200  -29.8880 C   0  0  0  0  0  0  0  0  0  0  0  0
   -3.2740   23.1380  -29.6840 C   0  0  0  0  0  0  0  0  0  0  0  0
   -4.3010   22.3650  -30.2290 C   0  0  0  0  0  0  0  0  0  0  0  0
   -5.3260   22.9750  -30.9650 C   0  0  0  0  0  0  0  0  0  0  0  0
   -6.3820   22.1840  -31.5390 N   0  0  0  0  0  0  0  0  0  0  0  0
   -7.6970   22.3820  -31.3380 C   0  0  0  0  0  0  0  0  0  0  0  0
   -8.3760   21.3480  -31.9410 C   0  0  0  0  0  0  0  0  0  0  0  0
   -9.8600   21.1960  -32.0010 C   0  0  0  0  0  0  0  0  0  0  0  0
   -7.5080   20.5120  -32.5430 N   0  0  0  0  0  0  0  0  0  0  0  0
   -6.2960   21.0490  -32.2790 C   0  0  0  0  0  0  0  0  0  0  0  0
   -5.0480   20.4700  -32.8220 C   0  0  0  0  0  0  0  0  0  0  0  0
   -3.9560   21.2890  -33.1590 C   0  0  0  0  0  0  0  0  0  0  0  0
   -2.7890   20.7280  -33.6860 C   0  0  0  0  0  0  0  0  0  0  0  0
   -2.7080   19.3480  -33.8940 C   0  0  0  0  0  0  0  0  0  0  0  0
   -3.7960   18.5300  -33.5820 C   0  0  0  0  0  0  0  0  0  0  0  0
   -4.9650   19.0880  -33.0550 C   0  0  0  0  0  0  0  0  0  0  0  0
   -5.2780   24.3640  -31.1590 C   0  0  0  0  0  0  0  0  0  0  0  0
   -4.2670   25.0960  -30.6210 N   0  0  0  0  0  0  0  0  0  0  0  0
   -1.9660   25.1407  -27.2965 H   0  0  0  0  0  0  0  0  0  0  0  0
   -1.3404   23.7705  -28.2752 H   0  0  0  0  0  0  0  0  0  0  0  0
   -0.4735   25.3438  -28.2752 H   0  0  0  0  0  0  0  0  0  0  0  0
   -2.4730   22.6627  -29.0988 H   0  0  0  0  0  0  0  0  0  0  0  0
   -4.3057   21.2751  -30.0805 H   0  0  0  0  0  0  0  0  0  0  0  0
   -8.1493   23.2212  -30.7892 H   0  0  0  0  0  0  0  0  0  0  0  0
  -10.2659   21.1544  -30.9795 H   0  0  0  0  0  0  0  0  0  0  0  0
  -10.2952   22.0543  -32.5339 H   0  0  0  0  0  0  0  0  0  0  0  0
  -10.1122   20.2673  -32.5339 H   0  0  0  0  0  0  0  0  0  0  0  0
   -4.0202   22.3766  -33.0072 H   0  0  0  0  0  0  0  0  0  0  0  0
   -1.9340   21.3729  -33.9372 H   0  0  0  0  0  0  0  0  0  0  0  0
   -1.7874   18.9065  -34.3034 H   0  0  0  0  0  0  0  0  0  0  0  0
   -3.7334   17.4449  -33.7511 H   0  0  0  0  0  0  0  0  0  0  0  0
   -5.8236   18.4411  -32.8219 H   0  0  0  0  0  0  0  0  0  0  0  0
   -6.0616   24.8623  -31.7487 H   0  0  0  0  0  0  0  0  0  0  0  0
  1  2  1  0
  2  3  1  0
  3  4  2  0
  4  5  1  0
  5  6  2  0
  6  7  1  0
  7  8  1  0
  8  9  2  0
  9 10  1  0
  9 11  1  0
 11 12  2  0
 12 13  1  0
 13 14  2  0
 14 15  1  0
 15 16  2  0
 16 17  1  0
 17 18  2  0
  6 19  1  0
 19 20  2  0
 20  3  1  0
 12  7  1  0
 18 13  1  0
  1 21  1  0
  1 22  1  0
  1 23  1  0
  4 24  1  0
  5 25  1  0
  8 26  1  0
 10 27  1  0
 10 28  1  0
 10 29  1  0
 14 30  1  0
 15 31  1  0
 16 32  1  0
 17 33  1  0
 18 34  1  0
 19 35  1  0
M  END
>  <UniqueID>  (10) 
9

>  <SMILES>  (10) 
COc1ccc(-n2cc(C)nc2-c2ccccc2)cn1

>  <Energy>  (10) 
73.11695230131002

>  <Genealogy>  (10) 
COc1ccc(-n2cc(C)nc2-c2ccccc2)cn1 (3D coordinates assigned)
COc1ccc(-n2cc(C)nc2-c2ccccc2)cn1 (optimized conformer: 73.11695230131002 kcal/mol)

>  <smiles>  (10) 
COc1ccc(-n2cc(C)nc2-c2ccccc2)cn1

>  <score_type>  (10) 
oracle

>  <origin>  (10) 
adg

>  <m_score__min__energy>  (10) 
-7.8899999999999997

>  <m_primary>  (10) 
energy

$$$$
10:0
     RDKit          3D

 24 26  0  0  1  0  0  0  0  0999 V2000
   -6.4960   15.9710  -33.8410 Br  0  0  0  0  0  0  0  0  0  0  0  0
   -6.5860   17.8030  -33.3740 C   0  0  0  0  0  0  0  0  0  0  0  0
   -5.7590   18.7020  -34.0310 C   0  0  0  0  0  0  0  0  0  0  0  0
   -5.7820   20.0660  -33.7280 C   0  0  0  0  0  0  0  0  0  0  0  0
   -6.6350   20.5510  -32.7570 C   0  0  0  0  0  0  0  0  0  0  0  0
   -6.7020   21.9290  -32.4060 N   0  0  0  0  0  0  0  0  0  0  0  0
   -5.7370   22.5930  -31.8910 C   0  0  0  0  0  0  0  0  0  0  0  0
   -4.4440   22.3270  -32.1580 N   0  0  0  0  0  0  0  0  0  0  0  0
   -3.4500   23.0410  -31.6050 N   0  0  0  0  0  0  0  0  0  0  0  0
   -3.7230   24.0190  -30.7850 N   0  0  0  0  0  0  0  0  0  0  0  0
   -4.9880   24.3430  -30.4700 C   0  0  0  0  0  0  0  0  0  0  0  0
   -5.5470   25.2900  -29.6660 N   0  0  0  0  0  0  0  0  0  0  0  0
   -6.8990   25.1590  -29.7240 C   0  0  0  0  0  0  0  0  0  0  0  0
   -7.1830   24.1330  -30.5630 N   0  0  0  0  0  0  0  0  0  0  0  0
   -6.0280   23.6270  -31.0250 C   0  0  0  0  0  0  0  0  0  0  0  0
   -7.4560   19.6350  -32.1110 C   0  0  0  0  0  0  0  0  0  0  0  0
   -7.4420   18.2890  -32.4010 C   0  0  0  0  0  0  0  0  0  0  0  0
   -5.0710   18.3338  -34.8063 H   0  0  0  0  0  0  0  0  0  0  0  0
   -5.1167   20.7571  -34.2662 H   0  0  0  0  0  0  0  0  0  0  0  0
   -4.2580   21.5400  -32.8180 H   0  0  0  0  0  0  0  0  0  0  0  0
   -5.0290   26.0090  -29.0900 H   0  0  0  0  0  0  0  0  0  0  0  0
   -7.6328   25.7765  -29.1852 H   0  0  0  0  0  0  0  0  0  0  0  0
   -8.1457   20.0002  -31.3358 H   0  0  0  0  0  0  0  0  0  0  0  0
   -8.1095   17.6016  -31.8607 H   0  0  0  0  0  0  0  0  0  0  0  0
  1  2  1  0
  2  3  2  0
  3  4  1  0
  4  5  2  0
  5  6  1  0
  6  7  2  0
  7  8  1  0
  8  9  1  0
  9 10  2  0
 10 11  1  0
 11 12  1  0
 12 13  1  0
 13 14  2  0
 14 15  1  0
  5 16  1  0
 16 17  2  0
 17  2  1  0
 15  7  1  0
 15 11  2  0
  3 18  1  0
  4 19  1  0
  8 20  1  0
 12 21  1  0
 13 22  1  0
 16 23  1  0
 17 24  1  0
M  END
>  <smiles>  (11) 
Brc1ccc(N=c2[nH]nnc3[nH]cnc23)cc1

>  <score_type>  (11) 
oracle

>  <origin>  (11) 
adg

>  <m_score__min__energy>  (11) 
-7.4299999999999997

>  <m_primary>  (11) 
energy

$$$$
11:0
     RDKit          3D

 40 42  0  0  0  0  0  0  0  0999 V2000
   -9.4790   21.9030  -30.5400 C   0  0  0  0  0  0  0  0  0  0  0  0
   -8.9780   20.7510  -31.3420 C   0  0  0  0  0  0  0  0  0  0  0  0
   -9.4080   20.3760  -32.5970 C   0  0  0  0  0  0  0  0  0  0  0  0
   -8.7240   19.2750  -32.9510 N   0  0  0  0  0  0  0  0  0  0  0  0
   -7.9130   19.0200  -31.9050 C   0  0  0  0  0  0  0  0  0  0  0  0
   -6.9670   17.8640  -31.8370 C   0  0  0  0  0  0  0  0  0  0  0  0
   -6.0510   17.8970  -32.9750 N   0  0  0  0  0  0  0  0  0  0  0  0
   -6.1360   17.0260  -34.1330 C   0  0  0  0  0  0  0  0  0  0  0  0
   -5.0140   17.5310  -35.0530 C   0  0  0  0  0  0  0  0  0  0  0  0
   -4.4230   18.6630  -34.3490 N   0  0  0  0  0  0  0  0  0  0  0  0
   -4.9930   18.8170  -33.2020 C   0  0  0  0  0  0  0  0  0  0  0  0
   -4.6540   19.9550  -32.2780 C   0  0  0  0  0  0  0  0  0  0  0  0
   -4.5420   21.2880  -33.0280 C   0  0  0  0  0  0  0  0  0  0  0  0
   -5.1080   22.4080  -32.1950 C   0  0  0  0  0  0  0  0  0  0  0  0
   -6.4530   22.7860  -32.3370 C   0  0  0  0  0  0  0  0  0  0  0  0
   -6.9870   23.8020  -31.5380 C   0  0  0  0  0  0  0  0  0  0  0  0
   -6.1850   24.4390  -30.5860 C   0  0  0  0  0  0  0  0  0  0  0  0
   -4.8490   24.0590  -30.4290 C   0  0  0  0  0  0  0  0  0  0  0  0
   -4.3120   23.0430  -31.2270 C   0  0  0  0  0  0  0  0  0  0  0  0
   -8.0630   19.8990  -30.9390 O   0  0  0  0  0  0  0  0  0  0  0  0
   -9.3797   21.6746  -29.4686 H   0  0  0  0  0  0  0  0  0  0  0  0
   -8.8899   22.8005  -30.7798 H   0  0  0  0  0  0  0  0  0  0  0  0
  -10.5372   22.0841  -30.7798 H   0  0  0  0  0  0  0  0  0  0  0  0
  -10.1734   20.8863  -33.2001 H   0  0  0  0  0  0  0  0  0  0  0  0
   -8.8130   18.7340  -33.8400 H   0  0  0  0  0  0  0  0  0  0  0  0
   -6.3889   17.9214  -30.9029 H   0  0  0  0  0  0  0  0  0  0  0  0
   -7.5417   16.9265  -31.8645 H   0  0  0  0  0  0  0  0  0  0  0  0
   -5.9670   15.9771  -33.8479 H   0  0  0  0  0  0  0  0  0  0  0  0
   -7.1250   17.0520  -34.6138 H   0  0  0  0  0  0  0  0  0  0  0  0
   -4.2638   16.7430  -35.2148 H   0  0  0  0  0  0  0  0  0  0  0  0
   -5.3931   17.8164  -36.0454 H   0  0  0  0  0  0  0  0  0  0  0  0
   -5.4426   20.0411  -31.5159 H   0  0  0  0  0  0  0  0  0  0  0  0
   -3.6784   19.7405  -31.8174 H   0  0  0  0  0  0  0  0  0  0  0  0
   -3.4833   21.4953  -33.2427 H   0  0  0  0  0  0  0  0  0  0  0  0
   -5.1113   21.2184  -33.9666 H   0  0  0  0  0  0  0  0  0  0  0  0
   -7.0887   22.2812  -33.0793 H   0  0  0  0  0  0  0  0  0  0  0  0
   -8.0389   24.1003  -31.6586 H   0  0  0  0  0  0  0  0  0  0  0  0
   -6.6058   25.2398  -29.9601 H   0  0  0  0  0  0  0  0  0  0  0  0
   -4.2197   24.5589  -29.6779 H   0  0  0  0  0  0  0  0  0  0  0  0
   -3.2626   22.7402  -31.0960 H   0  0  0  0  0  0  0  0  0  0  0  0
  1  2  1  0
  2  3  2  0
  3  4  1  0
  4  5  2  0
  5  6  1  0
  6  7  1  0
  7  8  1  0
  8  9  1  0
  9 10  1  0
 10 11  2  0
 11 12  1  0
 12 13  1  0
 13 14  1  0
 14 15  2  0
 15 16  1  0
 16 17  2  0
 17 18  1  0
 18 19  2  0
  5 20  1  0
 20  2  1  0
 11  7  1  0
 19 14  1  0
  1 21  1  0
  1 22  1  0
  1 23  1  0
  3 24  1  0
  4 25  1  0
  6 26  1  0
  6 27  1  0
  8 28  1  0
  8 29  1  0
  9 30  1  0
  9 31  1  0
 12 32  1  0
 12 33  1  0
 13 34  1  0
 13 35  1  0
 15 36  1  0
 16 37  1  0
 17 38  1  0
 18 39  1  0
 19 40  1  0
M  CHG  1   4   1
M  END
>  <UniqueID>  (12) 
10

>  <SMILES>  (12) 
Cc1c[nH+]c(CN2CCN=C2CCc2ccccc2)o1

>  <Energy>  (12) 
76.17505782410291

>  <Genealogy>  (12) 
Cc1c[nH+]c(CN2CCN=C2CCc2ccccc2)o1 (protonated)
Cc1c[nH+]c(CN2CCN=C2CCc2ccccc2)o1 (3D coordinates assigned)
Cc1c[nH+]c(CN2CCN=C2CCc2ccccc2)o1 (nonaromatic ring conformer: 76.17505782410291 kcal/mol)

>  <smiles>  (12) 
Cc1cnc(CN2CCN=C2CCc2ccccc2)o1

>  <score_type>  (12) 
oracle

>  <origin>  (12) 
adg

>  <m_score__min__energy>  (12) 
-6.5099999999999998

>  <m_primary>  (12) 
energy

$$$$
12:0
     RDKit          3D

 52 55  0  0  0  0  0  0  0  0999 V2000
    2.2010   23.9930  -27.3370 C   0  0  0  0  0  0  0  0  0  0  0  0
    1.2900   24.8280  -28.0460 O   0  0  0  0  0  0  0  0  0  0  0  0
   -0.0990   24.8590  -27.8310 C   0  0  0  0  0  0  0  0  0  0  0  0
   -1.0030   24.3220  -28.7680 C   0  0  0  0  0  0  0  0  0  0  0  0
   -2.3860   24.3510  -28.5330 C   0  0  0  0  0  0  0  0  0  0  0  0
   -3.3410   23.7480  -29.5300 C   0  0  0  0  0  0  0  0  0  0  0  0
   -3.5950   24.6730  -30.6450 N   0  0  0  0  0  0  0  0  0  0  0  0
   -5.0180   25.0200  -30.7980 C   0  0  0  0  0  0  0  0  0  0  0  0
   -5.8640   23.8360  -31.2040 C   0  0  0  0  0  0  0  0  0  0  0  0
   -7.2300   23.8000  -30.8890 C   0  0  0  0  0  0  0  0  0  0  0  0
   -8.0040   22.6960  -31.2480 C   0  0  0  0  0  0  0  0  0  0  0  0
   -7.4270   21.6220  -31.9260 C   0  0  0  0  0  0  0  0  0  0  0  0
   -6.0580   21.6360  -32.2610 C   0  0  0  0  0  0  0  0  0  0  0  0
   -5.4580   20.5240  -32.9660 N   0  0  0  0  0  0  0  0  0  0  0  0
   -6.1990   19.6130  -33.8280 C   0  0  0  0  0  0  0  0  0  0  0  0
   -5.2190   18.5120  -34.2120 C   0  0  0  0  0  0  0  0  0  0  0  0
   -3.8330   19.0700  -33.9130 C   0  0  0  0  0  0  0  0  0  0  0  0
   -4.0440   20.1820  -32.8960 C   0  0  0  0  0  0  0  0  0  0  0  0
   -5.2860   22.7560  -31.8920 C   0  0  0  0  0  0  0  0  0  0  0  0
   -2.8760   24.9300  -27.3550 C   0  0  0  0  0  0  0  0  0  0  0  0
   -1.9940   25.4740  -26.4150 C   0  0  0  0  0  0  0  0  0  0  0  0
   -2.4770   26.0540  -25.2330 C   0  0  0  0  0  0  0  0  0  0  0  0
   -1.6140   26.5780  -24.3230 N   0  0  0  0  0  0  0  0  0  0  0  0
   -0.2690   26.5580  -24.5240 C   0  0  0  0  0  0  0  0  0  0  0  0
    0.2630   25.9910  -25.6850 C   0  0  0  0  0  0  0  0  0  0  0  0
   -0.5990   25.4410  -26.6480 C   0  0  0  0  0  0  0  0  0  0  0  0
    2.0550   24.1268  -26.2550 H   0  0  0  0  0  0  0  0  0  0  0  0
    2.0188   22.9416  -27.6043 H   0  0  0  0  0  0  0  0  0  0  0  0
    3.2326   24.2658  -27.6043 H   0  0  0  0  0  0  0  0  0  0  0  0
   -0.6197   23.8738  -29.6965 H   0  0  0  0  0  0  0  0  0  0  0  0
   -2.9072   22.8180  -29.9262 H   0  0  0  0  0  0  0  0  0  0  0  0
   -4.2946   23.5432  -29.0213 H   0  0  0  0  0  0  0  0  0  0  0  0
   -3.2540   24.2270  -31.5290 H   0  0  0  0  0  0  0  0  0  0  0  0
   -5.3914   25.4074  -29.8385 H   0  0  0  0  0  0  0  0  0  0  0  0
   -5.0935   25.7730  -31.5963 H   0  0  0  0  0  0  0  0  0  0  0  0
   -7.6926   24.6446  -30.3573 H   0  0  0  0  0  0  0  0  0  0  0  0
   -9.0743   22.6724  -30.9952 H   0  0  0  0  0  0  0  0  0  0  0  0
   -8.0464   20.7558  -32.2018 H   0  0  0  0  0  0  0  0  0  0  0  0
   -7.0584   19.1891  -33.2879 H   0  0  0  0  0  0  0  0  0  0  0  0
   -6.5951   20.1287  -34.7152 H   0  0  0  0  0  0  0  0  0  0  0  0
   -5.4052   17.6074  -33.6145 H   0  0  0  0  0  0  0  0  0  0  0  0
   -5.3224   18.2276  -35.2696 H   0  0  0  0  0  0  0  0  0  0  0  0
   -3.1864   18.2851  -33.4937 H   0  0  0  0  0  0  0  0  0  0  0  0
   -3.3415   19.4425  -34.8239 H   0  0  0  0  0  0  0  0  0  0  0  0
   -3.7847   19.8312  -31.8862 H   0  0  0  0  0  0  0  0  0  0  0  0
   -3.4068   21.0524  -33.1113 H   0  0  0  0  0  0  0  0  0  0  0  0
   -4.2162   22.7849  -32.1462 H   0  0  0  0  0  0  0  0  0  0  0  0
   -3.9597   24.9570  -27.1682 H   0  0  0  0  0  0  0  0  0  0  0  0
   -3.5597   26.0850  -25.0414 H   0  0  0  0  0  0  0  0  0  0  0  0
   -1.9910   27.0060  -23.4480 H   0  0  0  0  0  0  0  0  0  0  0  0
    0.4035   26.9905  -23.7686 H   0  0  0  0  0  0  0  0  0  0  0  0
    1.3513   25.9754  -25.8440 H   0  0  0  0  0  0  0  0  0  0  0  0
  1  2  1  0
  2  3  1  0
  3  4  2  0
  4  5  1  0
  5  6  1  0
  6  7  1  0
  7  8  1  0
  8  9  1  0
  9 10  2  0
 10 11  1  0
 11 12  2  0
 12 13  1  0
 13 14  1  0
 14 15  1  0
 15 16  1  0
 16 17  1  0
 17 18  1  0
 13 19  2  0
  5 20  2  0
 20 21  1  0
 21 22  2  0
 22 23  1  0
 23 24  2  0
 24 25  1  0
 25 26  2  0
 26  3  1  0
 19  9  1  0
 26 21  1  0
 18 14  1  0
  1 27  1  0
  1 28  1  0
  1 29  1  0
  4 30  1  0
  6 31  1  0
  6 32  1  0
  7 33  1  0
  8 34  1  0
  8 35  1  0
 10 36  1  0
 11 37  1  0
 12 38  1  0
 15 39  1  0
 15 40  1  0
 16 41  1  0
 16 42  1  0
 17 43  1  0
 17 44  1  0
 18 45  1  0
 18 46  1  0
 19 47  1  0
 20 48  1  0
 22 49  1  0
 23 50  1  0
 24 51  1  0
 25 52  1  0
M  CHG  1  23   1
M  END
>  <UniqueID>  (13) 
11

>  <SMILES>  (13) 
COc1cc(CNCc2cccc(N3CCCC3)c2)cc2c[nH+]ccc12

>  <Energy>  (13) 
58.703771047181874

>  <Genealogy>  (13) 
COc1cc(CNCc2cccc(N3CCCC3)c2)cc2c[nH+]ccc12 (protonated)
COc1cc(CNCc2cccc(N3CCCC3)c2)cc2c[nH+]ccc12 (3D coordinates assigned)
COc1cc(CNCc2cccc(N3CCCC3)c2)cc2c[nH+]ccc12 (nonaromatic ring conformer: 58.703771047181874 kcal/mol)

>  <smiles>  (13) 
COc1cc(CNCc2cccc(N3CCCC3)c2)cc2cnccc12

>  <score_type>  (13) 
oracle

>  <origin>  (13) 
adg

>  <m_score__min__energy>  (13) 
-9.3100000000000005

>  <m_primary>  (13) 
energy

$$$$
13:0
     RDKit          3D

 43 46  0  0  0  0  0  0  0  0999 V2000
   -0.9710   25.2710  -27.9710 C   0  0  0  0  0  0  0  0  0  0  0  0
   -1.9580   25.5330  -28.9630 O   0  0  0  0  0  0  0  0  0  0  0  0
   -2.7450   24.5480  -29.5780 C   0  0  0  0  0  0  0  0  0  0  0  0
   -3.9890   24.9190  -30.0990 C   0  0  0  0  0  0  0  0  0  0  0  0
   -4.8110   23.9760  -30.7200 C   0  0  0  0  0  0  0  0  0  0  0  0
   -4.3990   22.6360  -30.8290 C   0  0  0  0  0  0  0  0  0  0  0  0
   -5.2570   21.6210  -31.5000 C   0  0  0  0  0  0  0  0  0  0  0  0
   -6.5900   21.6680  -31.2910 C   0  0  0  0  0  0  0  0  0  0  0  0
   -7.5950   20.7450  -31.8600 C   0  0  0  0  0  0  0  0  0  0  0  0
   -8.8680   21.2460  -32.1640 C   0  0  0  0  0  0  0  0  0  0  0  0
   -9.8760   20.3890  -32.6010 C   0  0  0  0  0  0  0  0  0  0  0  0
   -9.6110   19.0260  -32.7110 C   0  0  0  0  0  0  0  0  0  0  0  0
   -8.3810   18.5410  -32.3940 N   0  0  0  0  0  0  0  0  0  0  0  0
   -7.3720   19.3590  -31.9710 C   0  0  0  0  0  0  0  0  0  0  0  0
   -6.0900   18.8050  -31.6510 N   0  0  0  0  0  0  0  0  0  0  0  0
   -5.9980   17.5840  -30.8480 C   0  0  0  0  0  0  0  0  0  0  0  0
   -4.9610   19.2630  -32.4060 C   0  0  0  0  0  0  0  0  0  0  0  0
   -4.2380   18.3520  -33.1980 C   0  0  0  0  0  0  0  0  0  0  0  0
   -3.1730   18.7890  -33.9860 C   0  0  0  0  0  0  0  0  0  0  0  0
   -2.8210   20.1360  -33.9970 C   0  0  0  0  0  0  0  0  0  0  0  0
   -3.5240   21.0490  -33.2110 C   0  0  0  0  0  0  0  0  0  0  0  0
   -4.5990   20.6280  -32.4010 C   0  0  0  0  0  0  0  0  0  0  0  0
   -3.1480   22.2630  -30.3110 C   0  0  0  0  0  0  0  0  0  0  0  0
   -2.3270   23.2090  -29.6890 C   0  0  0  0  0  0  0  0  0  0  0  0
   -1.4152   25.3889  -26.9716 H   0  0  0  0  0  0  0  0  0  0  0  0
   -0.5980   24.2427  -28.0875 H   0  0  0  0  0  0  0  0  0  0  0  0
   -0.1371   25.9789  -28.0875 H   0  0  0  0  0  0  0  0  0  0  0  0
   -4.3232   25.9639  -30.0188 H   0  0  0  0  0  0  0  0  0  0  0  0
   -5.7861   24.2832  -31.1261 H   0  0  0  0  0  0  0  0  0  0  0  0
   -6.9635   22.4685  -30.6355 H   0  0  0  0  0  0  0  0  0  0  0  0
   -9.0725   22.3215  -32.0571 H   0  0  0  0  0  0  0  0  0  0  0  0
  -10.8702   20.7845  -32.8563 H   0  0  0  0  0  0  0  0  0  0  0  0
  -10.3990   18.3401  -33.0553 H   0  0  0  0  0  0  0  0  0  0  0  0
   -8.2140   17.5150  -32.4940 H   0  0  0  0  0  0  0  0  0  0  0  0
   -6.0177   17.8454  -29.7797 H   0  0  0  0  0  0  0  0  0  0  0  0
   -6.8492   16.9272  -31.0805 H   0  0  0  0  0  0  0  0  0  0  0  0
   -5.0580   17.0622  -31.0805 H   0  0  0  0  0  0  0  0  0  0  0  0
   -4.5146   17.2873  -33.1958 H   0  0  0  0  0  0  0  0  0  0  0  0
   -2.6110   18.0690  -34.5990 H   0  0  0  0  0  0  0  0  0  0  0  0
   -1.9873   20.4807  -34.6264 H   0  0  0  0  0  0  0  0  0  0  0  0
   -3.2363   22.1107  -33.2231 H   0  0  0  0  0  0  0  0  0  0  0  0
   -2.8115   21.2191  -30.3951 H   0  0  0  0  0  0  0  0  0  0  0  0
   -1.3502   22.9050  -29.2848 H   0  0  0  0  0  0  0  0  0  0  0  0
  1  2  1  0
  2  3  1  0
  3  4  2  0
  4  5  1  0
  5  6  2  0
  6  7  1  0
  7  8  2  0
  8  9  1  0
  9 10  2  0
 10 11  1  0
 11 12  2  0
 12 13  1  0
 13 14  2  0
 14 15  1  0
 15 16  1  0
 15 17  1  0
 17 18  2  0
 18 19  1  0
 19 20  2  0
 20 21  1  0
 21 22  2  0
  6 23  1  0
 23 24  2  0
 24  3  1  0
 22  7  1  0
 14  9  1  0
 22 17  1  0
  1 25  1  0
  1 26  1  0
  1 27  1  0
  4 28  1  0
  5 29  1  0
  8 30  1  0
 10 31  1  0
 11 32  1  0
 12 33  1  0
 13 34  1  0
 16 35  1  0
 16 36  1  0
 16 37  1  0
 18 38  1  0
 19 39  1  0
 20 40  1  0
 21 41  1  0
 23 42  1  0
 24 43  1  0
M  CHG  1  13   1
M  END
>  <UniqueID>  (14) 
12

>  <SMILES>  (14) 
COc1ccc(C2=Cc3ccc[nH+]c3N(C)c3ccccc32)cc1

>  <Energy>  (14) 
74.24988455623156

>  <Genealogy>  (14) 
COc1ccc(C2=Cc3ccc[nH+]c3N(C)c3ccccc32)cc1 (protonated)
COc1ccc(C2=Cc3ccc[nH+]c3N(C)c3ccccc32)cc1 (3D coordinates assigned)
COc1ccc(C2=Cc3ccc[nH+]c3N(C)c3ccccc32)cc1 (nonaromatic ring conformer: 74.24988455623156 kcal/mol)

>  <smiles>  (14) 
COc1ccc(C2=Cc3cccnc3N(C)c3ccccc32)cc1

>  <score_type>  (14) 
oracle

>  <origin>  (14) 
adg

>  <m_score__min__energy>  (14) 
-6.2400000000000002

>  <m_primary>  (14) 
energy

$$$$
14:0
     RDKit          3D

 78 83  0  0  0  0  0  0  0  0999 V2000
   -4.6215   23.2267  -29.1568 H   0  0  0  0  0  0  0  0  0  0  0  0
   -3.6550   23.6500  -28.8460 C   0  0  0  0  0  0  0  0  0  0  0  0
   -3.1590   24.8150  -29.6040 C   0  0  0  0  0  0  0  0  0  0  0  0
   -2.0160   25.2790  -29.3400 O   0  0  0  0  0  0  0  0  0  0  0  0
   -3.8660   25.3360  -30.6820 O   0  0  0  0  0  0  0  0  0  0  0  0
   -3.0370   23.0610  -27.8150 C   0  0  0  0  0  0  0  0  0  0  0  0
   -3.3020   23.4138  -26.8074 H   0  0  0  0  0  0  0  0  0  0  0  0
   -2.0290   21.9780  -27.9040 C   0  0  0  0  0  0  0  0  0  0  0  0
   -2.4070   20.7060  -28.1980 N   0  0  0  0  0  0  0  0  0  0  0  0
   -1.5220   19.6800  -28.2160 C   0  0  0  0  0  0  0  0  0  0  0  0
   -1.8516   18.6670  -28.4904 H   0  0  0  0  0  0  0  0  0  0  0  0
   -0.1880   19.9210  -27.8830 C   0  0  0  0  0  0  0  0  0  0  0  0
    0.6530   18.9310  -27.8440 N   0  0  0  0  0  0  0  0  0  0  0  0
    1.8270   18.8030  -28.6620 C   0  0  0  0  0  0  0  0  0  0  0  0
    2.9520   18.9010  -28.0990 O   0  0  0  0  0  0  0  0  0  0  0  0
    1.7310   18.3650  -30.1230 C   0  0  0  0  0  0  0  0  0  0  0  0
    1.7670   19.5560  -30.9880 N   0  0  0  0  0  0  0  0  0  0  0  0
    0.9730   19.8030  -32.1610 C   0  0  0  0  0  0  0  0  0  0  0  0
    1.4900   19.7420  -33.3150 O   0  0  0  0  0  0  0  0  0  0  0  0
   -0.4260   20.2330  -32.0300 C   0  0  0  0  0  0  0  0  0  0  0  0
   -0.7180   21.4910  -31.4500 C   0  0  0  0  0  0  0  0  0  0  0  0
    0.1039   22.1390  -31.1114 H   0  0  0  0  0  0  0  0  0  0  0  0
   -2.0470   21.9190  -31.3030 C   0  0  0  0  0  0  0  0  0  0  0  0
   -2.2793   22.9082  -30.8817 H   0  0  0  0  0  0  0  0  0  0  0  0
   -3.0660   21.0530  -31.7070 C   0  0  0  0  0  0  0  0  0  0  0  0
   -4.4480   21.1830  -31.6540 C   0  0  0  0  0  0  0  0  0  0  0  0
   -5.2620   22.3890  -31.2220 C   0  0  0  0  0  0  0  0  0  0  0  0
   -4.5683   22.9393  -30.5694 H   0  0  0  0  0  0  0  0  0  0  0  0
   -5.7030   23.2580  -32.3880 C   0  0  0  0  0  0  0  0  0  0  0  0
   -4.9248   23.9937  -32.6392 H   0  0  0  0  0  0  0  0  0  0  0  0
   -5.8828   22.6697  -33.2999 H   0  0  0  0  0  0  0  0  0  0  0  0
   -6.9620   23.9560  -31.8970 C   0  0  0  0  0  0  0  0  0  0  0  0
   -6.7043   24.9066  -31.4071 H   0  0  0  0  0  0  0  0  0  0  0  0
   -7.6414   24.1887  -32.7302 H   0  0  0  0  0  0  0  0  0  0  0  0
   -7.6150   23.0060  -30.8970 C   0  0  0  0  0  0  0  0  0  0  0  0
   -7.9926   23.5691  -30.0308 H   0  0  0  0  0  0  0  0  0  0  0  0
   -8.4668   22.4791  -31.3517 H   0  0  0  0  0  0  0  0  0  0  0  0
   -6.5340   22.0200  -30.4530 C   0  0  0  0  0  0  0  0  0  0  0  0
   -6.3618   22.1080  -29.3701 H   0  0  0  0  0  0  0  0  0  0  0  0
   -6.8350   20.9823  -30.6592 H   0  0  0  0  0  0  0  0  0  0  0  0
   -4.9500   19.9750  -32.1620 C   0  0  0  0  0  0  0  0  0  0  0  0
   -6.3820   19.6270  -32.2440 C   0  0  0  0  0  0  0  0  0  0  0  0
   -7.2270   20.4310  -32.9530 N   0  0  0  0  0  0  0  0  0  0  0  0
   -8.5550   20.1590  -33.0700 C   0  0  0  0  0  0  0  0  0  0  0  0
   -9.2063   20.8274  -33.6523 H   0  0  0  0  0  0  0  0  0  0  0  0
   -9.0880   19.0280  -32.4480 C   0  0  0  0  0  0  0  0  0  0  0  0
  -10.1614   18.8023  -32.5315 H   0  0  0  0  0  0  0  0  0  0  0  0
   -8.2430   18.1840  -31.7170 C   0  0  0  0  0  0  0  0  0  0  0  0
   -8.6534   17.2927  -31.2199 H   0  0  0  0  0  0  0  0  0  0  0  0
   -6.8800   18.4720  -31.6180 C   0  0  0  0  0  0  0  0  0  0  0  0
   -6.2071   17.8052  -31.0589 H   0  0  0  0  0  0  0  0  0  0  0  0
   -3.9310   19.1420  -32.5110 N   0  0  0  0  0  0  0  0  0  0  0  0
   -4.0480   17.7950  -33.0710 C   0  0  0  0  0  0  0  0  0  0  0  0
   -4.1117   17.0622  -32.2531 H   0  0  0  0  0  0  0  0  0  0  0  0
   -4.9549   17.7329  -33.6904 H   0  0  0  0  0  0  0  0  0  0  0  0
   -3.1654   17.5775  -33.6904 H   0  0  0  0  0  0  0  0  0  0  0  0
   -2.7920   19.8170  -32.2500 C   0  0  0  0  0  0  0  0  0  0  0  0
   -1.4770   19.3880  -32.4520 C   0  0  0  0  0  0  0  0  0  0  0  0
   -1.2660   18.4184  -32.9268 H   0  0  0  0  0  0  0  0  0  0  0  0
    0.4300   17.5890  -30.3350 C   0  0  0  0  0  0  0  0  0  0  0  0
   -0.3614   17.9838  -29.6809 H   0  0  0  0  0  0  0  0  0  0  0  0
    0.0717   17.6786  -31.3711 H   0  0  0  0  0  0  0  0  0  0  0  0
    0.7430   16.1320  -29.9730 C   0  0  0  0  0  0  0  0  0  0  0  0
    0.3807   15.9075  -28.9589 H   0  0  0  0  0  0  0  0  0  0  0  0
    0.2474   15.4376  -30.6674 H   0  0  0  0  0  0  0  0  0  0  0  0
    2.2640   15.9780  -30.0350 C   0  0  0  0  0  0  0  0  0  0  0  0
    2.6587   15.7055  -29.0451 H   0  0  0  0  0  0  0  0  0  0  0  0
    2.5542   15.1841  -30.7389 H   0  0  0  0  0  0  0  0  0  0  0  0
    2.8210   17.3300  -30.4700 C   0  0  0  0  0  0  0  0  0  0  0  0
    3.7499   17.5548  -29.9254 H   0  0  0  0  0  0  0  0  0  0  0  0
    3.0635   17.3417  -31.5429 H   0  0  0  0  0  0  0  0  0  0  0  0
    0.1930   21.1860  -27.5610 N   0  0  0  0  0  0  0  0  0  0  0  0
   -0.6850   22.2240  -27.5750 C   0  0  0  0  0  0  0  0  0  0  0  0
   -0.2460   23.5190  -27.2650 O   0  0  0  0  0  0  0  0  0  0  0  0
   -0.3560   24.0730  -25.9630 C   0  0  0  0  0  0  0  0  0  0  0  0
   -0.1991   23.2829  -25.2139 H   0  0  0  0  0  0  0  0  0  0  0  0
    0.4039   24.8577  -25.8330 H   0  0  0  0  0  0  0  0  0  0  0  0
   -1.3580   24.5078  -25.8330 H   0  0  0  0  0  0  0  0  0  0  0  0
  1  2  1  0
  2  3  1  0
  3  4  2  0
  3  5  1  0
  2  6  2  0
  6  7  1  0
  6  8  1  0
  8  9  1  0
  9 10  2  0
 10 11  1  0
 10 12  1  0
 12 13  2  3
 13 14  1  0
 14 15  2  0
 14 16  1  0
 16 17  1  0
 17 18  1  0
 18 19  2  0
 18 20  1  0
 20 21  2  0
 21 22  1  0
 21 23  1  0
 23 24  1  0
 23 25  2  0
 25 26  1  0
 26 27  1  0
 27 28  1  0
 27 29  1  0
 29 30  1  0
 29 31  1  0
 29 32  1  0
 32 33  1  0
 32 34  1  0
 32 35  1  0
 35 36  1  0
 35 37  1  0
 35 38  1  0
 38 39  1  0
 38 40  1  0
 26 41  2  0
 41 42  1  0
 42 43  2  0
 43 44  1  0
 44 45  1  0
 44 46  2  0
 46 47  1  0
 46 48  1  0
 48 49  1  0
 48 50  2  0
 50 51  1  0
 41 52  1  0
 52 53  1  0
 53 54  1  0
 53 55  1  0
 53 56  1  0
 52 57  1  0
 57 58  2  0
 58 59  1  0
 16 60  1  0
 60 61  1  0
 60 62  1  0
 60 63  1  0
 63 64  1  0
 63 65  1  0
 63 66  1  0
 66 67  1  0
 66 68  1  0
 66 69  1  0
 69 70  1  0
 69 71  1  0
 12 72  1  0
 72 73  1  0
 73 74  1  0
 74 75  1  0
 75 76  1  0
 75 77  1  0
 75 78  1  0
 73  8  2  0
 69 16  1  0
 58 20  1  0
 57 25  1  0
 38 27  1  0
 50 42  1  0
M  CHG  3   5  -1  17  -1  72  -1
M  END
>  <UniqueID>  (15) 
13

>  <SMILES>  (15) 
COc1[n-]c(=NC(=O)C2([N-]C(=O)c3ccc4c(C5CCCC5)c(-c5ccccn5)n(C)c4c3)CCCC2)cnc1/C=C\C(=O)[O-]

>  <Energy>  (15) 
152.3454417484136

>  <Genealogy>  (15) 
COc1[n-]c(=NC(=O)C2([N-]C(=O)c3ccc4c(C5CCCC5)c(-c5ccccn5)n(C)c4c3)CCCC2)cnc1C=CC(=O)[O-] (protonated)
COc1[n-]c(=NC(=O)C2([N-]C(=O)c3ccc4c(C5CCCC5)c(-c5ccccn5)n(C)c4c3)CCCC2)cnc1/C=C\C(=O)[O-] (cis-trans isomerization)
COc1[n-]c(=NC(=O)C2([N-]C(=O)c3ccc4c(C5CCCC5)c(-c5ccccn5)n(C)c4c3)CCCC2)cnc1/C=C\C(=O)[O-] (3D coordinates assigned)
COc1[n-]c(=NC(=O)C2([N-]C(=O)c3ccc4c(C5CCCC5)c(-c5ccccn5)n(C)c4c3)CCCC2)cnc1/C=C\C(=O)[O-] (nonaromatic ring conformer: 152.3454417484136 kcal/mol)

>  <smiles>  (15) 
COc1[nH]c(=NC(=O)C2(NC(=O)c3ccc4c(C5CCCC5)c(-c5ccccn5)n(C)c4c3)CCCC2)cnc1C=CC(=O)O

>  <score_type>  (15) 
oracle

>  <origin>  (15) 
adg

>  <m_score__min__energy>  (15) 
-13.85

>  <m_primary>  (15) 
energy

$$$$
15:0
     RDKit          3D

 22 23  0  0  0  0  0  0  0  0999 V2000
   -6.0410   18.7400  -33.8970 C   0  0  0  0  0  0  0  0  0  0  0  0
   -6.9100   19.5850  -33.0030 C   0  0  0  0  0  0  0  0  0  0  0  0
   -7.8730   19.0910  -32.1530 C   0  0  0  0  0  0  0  0  0  0  0  0
   -8.4570   20.1840  -31.5010 C   0  0  0  0  0  0  0  0  0  0  0  0
   -7.7990   21.2830  -32.0070 C   0  0  0  0  0  0  0  0  0  0  0  0
   -8.0860   22.6900  -31.6000 C   0  0  0  0  0  0  0  0  0  0  0  0
   -6.8320   23.7980  -32.3070 S   0  0  0  0  0  0  0  0  0  0  0  0
   -5.5150   24.0400  -31.1210 C   0  0  0  0  0  0  0  0  0  0  0  0
   -5.1450   23.2470  -30.0980 N   0  0  0  0  0  0  0  0  0  0  0  0
   -4.0900   23.8290  -29.4580 C   0  0  0  0  0  0  0  0  0  0  0  0
   -3.8340   24.9910  -30.1160 N   0  0  0  0  0  0  0  0  0  0  0  0
   -4.7040   25.1130  -31.1270 N   0  0  0  0  0  0  0  0  0  0  0  0
   -6.9040   20.8870  -32.8790 O   0  0  0  0  0  0  0  0  0  0  0  0
   -5.3881   18.1051  -33.2800 H   0  0  0  0  0  0  0  0  0  0  0  0
   -6.6762   18.1049  -34.5320 H   0  0  0  0  0  0  0  0  0  0  0  0
   -5.4240   19.3928  -34.5320 H   0  0  0  0  0  0  0  0  0  0  0  0
   -8.1357   18.0322  -32.0117 H   0  0  0  0  0  0  0  0  0  0  0  0
   -9.2620   20.1683  -30.7516 H   0  0  0  0  0  0  0  0  0  0  0  0
   -9.0809   22.9815  -31.9676 H   0  0  0  0  0  0  0  0  0  0  0  0
   -8.0619   22.7646  -30.5028 H   0  0  0  0  0  0  0  0  0  0  0  0
   -3.5526   23.4358  -28.5825 H   0  0  0  0  0  0  0  0  0  0  0  0
   -3.0670   25.6550  -29.8430 H   0  0  0  0  0  0  0  0  0  0  0  0
  1  2  1  0
  2  3  2  0
  3  4  1  0
  4  5  2  0
  5  6  1  0
  6  7  1  0
  7  8  1  0
  8  9  1  0
  9 10  2  0
 10 11  1  0
 11 12  1  0
  5 13  1  0
 13  2  1  0
 12  8  2  0
  1 14  1  0
  1 15  1  0
  1 16  1  0
  3 17  1  0
  4 18  1  0
  6 19  1  0
  6 20  1  0
 10 21  1  0
 11 22  1  0
M  END
>  <smiles>  (16) 
Cc1ccc(CSc2nc[nH]n2)o1

>  <score_type>  (16) 
oracle

>  <origin>  (16) 
adg

>  <m_score__min__energy>  (16) 
-6.1900000000000004

>  <m_primary>  (16) 
energy

$$$$
16:0
     RDKit          3D

 27 29  0  0  0  0  0  0  0  0999 V2000
   -3.4930   20.7200  -33.4280 C   0  0  0  0  0  0  0  0  0  0  0  0
   -4.5600   21.5040  -32.7240 C   0  0  0  0  0  0  0  0  0  0  0  0
   -4.1900   22.6730  -32.1260 N   0  0  0  0  0  0  0  0  0  0  0  0
   -5.1140   23.4120  -31.4760 C   0  0  0  0  0  0  0  0  0  0  0  0
   -4.8850   24.5990  -30.8900 N   0  0  0  0  0  0  0  0  0  0  0  0
   -6.1260   24.9070  -30.4380 C   0  0  0  0  0  0  0  0  0  0  0  0
   -7.0480   23.9630  -30.7360 N   0  0  0  0  0  0  0  0  0  0  0  0
   -6.3870   23.0250  -31.3870 N   0  0  0  0  0  0  0  0  0  0  0  0
   -6.8530   21.8570  -31.9190 C   0  0  0  0  0  0  0  0  0  0  0  0
   -5.9240   21.0770  -32.6690 C   0  0  0  0  0  0  0  0  0  0  0  0
   -6.4320   19.8750  -33.3820 C   0  0  0  0  0  0  0  0  0  0  0  0
   -5.7540   19.2990  -34.2740 O   0  0  0  0  0  0  0  0  0  0  0  0
   -7.7450   19.3990  -33.0930 N   0  0  0  0  0  0  0  0  0  0  0  0
   -8.4650   19.9100  -31.9350 C   0  0  0  0  0  0  0  0  0  0  0  0
   -8.3310   21.4420  -31.8490 C   0  0  1  0  0  0  0  0  0  0  0  0
   -9.0590   21.9240  -30.5810 C   0  0  0  0  0  0  0  0  0  0  0  0
   -2.8398   20.2400  -32.6844 H   0  0  0  0  0  0  0  0  0  0  0  0
   -3.9601   19.9487  -34.0580 H   0  0  0  0  0  0  0  0  0  0  0  0
   -2.8965   21.3962  -34.0580 H   0  0  0  0  0  0  0  0  0  0  0  0
   -6.3589   25.8295  -29.8859 H   0  0  0  0  0  0  0  0  0  0  0  0
   -8.1820   18.6680  -33.6980 H   0  0  0  0  0  0  0  0  0  0  0  0
   -9.5287   19.6441  -32.0239 H   0  0  0  0  0  0  0  0  0  0  0  0
   -8.0373   19.4640  -31.0250 H   0  0  0  0  0  0  0  0  0  0  0  0
   -8.8098   21.9323  -32.7095 H   0  0  0  0  0  0  0  0  0  0  0  0
   -8.5202   21.5672  -29.6908 H   0  0  0  0  0  0  0  0  0  0  0  0
   -9.0927   23.0235  -30.5731 H   0  0  0  0  0  0  0  0  0  0  0  0
  -10.0843   21.5257  -30.5731 H   0  0  0  0  0  0  0  0  0  0  0  0
  1  2  1  0
  2  3  2  0
  3  4  1  0
  4  5  2  0
  5  6  1  0
  6  7  2  0
  7  8  1  0
  8  9  1  0
  9 10  2  0
 10 11  1  0
 11 12  2  0
 11 13  1  0
 13 14  1  0
 14 15  1  0
 15 16  1  0
 10  2  1  0
  8  4  1  0
 15  9  1  0
  1 17  1  0
  1 18  1  0
  1 19  1  0
  6 20  1  0
 13 21  1  0
 14 22  1  0
 14 23  1  0
 15 24  1  6
 16 25  1  0
 16 26  1  0
 16 27  1  0
M  END
>  <UniqueID>  (17) 
14

>  <SMILES>  (17) 
Cc1nc2ncnn2c2c1C(=O)NC[C@H]2C

>  <Energy>  (17) 
73.73081400207599

>  <Genealogy>  (17) 
Cc1nc2ncnn2c2c1C(=O)NC[C@H]2C (chirality)
Cc1nc2ncnn2c2c1C(=O)NC[C@H]2C (3D coordinates assigned)
Cc1nc2ncnn2c2c1C(=O)NC[C@H]2C (nonaromatic ring conformer: 73.73081400207599 kcal/mol)

>  <smiles>  (17) 
Cc1nc2ncnn2c2c1C(=O)NCC2C

>  <score_type>  (17) 
oracle

>  <origin>  (17) 
adg

>  <m_score__min__energy>  (17) 
-7.1900000000000004

>  <m_primary>  (17) 
energy

$$$$
17:0
     RDKit          3D

 54 58  0  0  0  0  0  0  0  0999 V2000
   -2.0978   23.2590  -31.8390 H   0  0  0  0  0  0  0  0  0  0  0  0
   -2.0910   22.8210  -30.8300 C   0  0  0  0  0  0  0  0  0  0  0  0
   -2.7330   23.4980  -29.7680 C   0  0  0  0  0  0  0  0  0  0  0  0
   -3.4010   24.7440  -29.9860 N   0  0  0  0  0  0  0  0  0  0  0  0
   -5.1060   24.8720  -30.2730 S   0  0  0  0  0  0  0  0  0  0  0  0
   -5.8040   25.1010  -28.9630 O   0  0  0  0  0  0  0  0  0  0  0  0
   -5.3710   26.0480  -31.1700 O   0  0  0  0  0  0  0  0  0  0  0  0
   -5.7590   23.4200  -31.0070 C   0  0  0  0  0  0  0  0  0  0  0  0
   -7.2860   22.7720  -30.6660 S   0  0  0  0  0  0  0  0  0  0  0  0
   -7.0960   21.4520  -31.6870 C   0  0  0  0  0  0  0  0  0  0  0  0
   -7.9780   20.4090  -31.9480 C   0  0  0  0  0  0  0  0  0  0  0  0
   -8.9662   20.3672  -31.4667 H   0  0  0  0  0  0  0  0  0  0  0  0
   -7.5670   19.4130  -32.8440 C   0  0  0  0  0  0  0  0  0  0  0  0
   -8.2348   18.5707  -33.0778 H   0  0  0  0  0  0  0  0  0  0  0  0
   -6.2930   19.4950  -33.4450 C   0  0  0  0  0  0  0  0  0  0  0  0
   -5.7710   18.2530  -34.5650 Cl  0  0  0  0  0  0  0  0  0  0  0  0
   -5.4590   20.5380  -33.1590 N   0  0  0  0  0  0  0  0  0  0  0  0
   -5.8530   21.5060  -32.2930 C   0  0  0  0  0  0  0  0  0  0  0  0
   -5.0860   22.6110  -31.9210 C   0  0  0  0  0  0  0  0  0  0  0  0
   -4.0751   22.8180  -32.3021 H   0  0  0  0  0  0  0  0  0  0  0  0
   -2.7700   22.9180  -28.4880 C   0  0  0  0  0  0  0  0  0  0  0  0
   -3.2972   23.4133  -27.6593 H   0  0  0  0  0  0  0  0  0  0  0  0
   -2.1220   21.7000  -28.2960 C   0  0  0  0  0  0  0  0  0  0  0  0
   -1.9800   20.8010  -26.8870 S   0  0  0  0  0  0  0  0  0  0  0  0
   -1.0830   19.5880  -27.6760 C   0  0  0  0  0  0  0  0  0  0  0  0
   -0.5750   18.5300  -27.1170 N   0  0  0  0  0  0  0  0  0  0  0  0
    0.1970   17.5110  -27.7670 C   0  0  0  0  0  0  0  0  0  0  0  0
    0.8820   16.7270  -27.0590 O   0  0  0  0  0  0  0  0  0  0  0  0
    0.2650   17.4330  -29.2000 N   0  0  0  0  0  0  0  0  0  0  0  0
   -0.0660   18.2460  -29.7660 H   0  0  0  0  0  0  0  0  0  0  0  0
    0.9750   16.3640  -29.8990 C   0  0  0  0  0  0  0  0  0  0  0  0
    1.9901   16.2754  -29.4846 H   0  0  0  0  0  0  0  0  0  0  0  0
    0.4192   15.4249  -29.7605 H   0  0  0  0  0  0  0  0  0  0  0  0
    1.0700   16.6580  -31.3970 C   0  0  0  0  0  0  0  0  0  0  0  0
    2.1206   16.5876  -31.7152 H   0  0  0  0  0  0  0  0  0  0  0  0
    0.4613   15.9245  -31.9460 H   0  0  0  0  0  0  0  0  0  0  0  0
    0.5610   18.0220  -31.6850 N   0  0  0  0  0  0  0  0  0  0  0  0
   -0.8740   18.0300  -32.0530 C   0  0  0  0  0  0  0  0  0  0  0  0
   -1.3806   17.2125  -31.5191 H   0  0  0  0  0  0  0  0  0  0  0  0
   -1.2877   19.0100  -31.7729 H   0  0  0  0  0  0  0  0  0  0  0  0
   -1.0910   17.8420  -33.5690 C   0  0  0  0  0  0  0  0  0  0  0  0
   -1.9720   17.2034  -33.7302 H   0  0  0  0  0  0  0  0  0  0  0  0
   -1.2436   18.8302  -34.0273 H   0  0  0  0  0  0  0  0  0  0  0  0
    0.0350   17.2360  -34.1680 O   0  0  0  0  0  0  0  0  0  0  0  0
    1.1420   18.1200  -34.1150 C   0  0  0  0  0  0  0  0  0  0  0  0
    2.0472   17.5675  -34.4072 H   0  0  0  0  0  0  0  0  0  0  0  0
    0.9330   18.9536  -34.8016 H   0  0  0  0  0  0  0  0  0  0  0  0
    1.3630   18.7210  -32.7070 C   0  0  0  0  0  0  0  0  0  0  0  0
    2.4279   18.6346  -32.4454 H   0  0  0  0  0  0  0  0  0  0  0  0
    1.0477   19.7746  -32.7298 H   0  0  0  0  0  0  0  0  0  0  0  0
   -0.8800   19.8690  -28.9850 N   0  0  0  0  0  0  0  0  0  0  0  0
   -1.4670   21.0450  -29.3270 C   0  0  0  0  0  0  0  0  0  0  0  0
   -1.4440   21.5930  -30.6080 C   0  0  0  0  0  0  0  0  0  0  0  0
   -0.9292   21.0743  -31.4301 H   0  0  0  0  0  0  0  0  0  0  0  0
  1  2  1  0
  2  3  2  0
  3  4  1  0
  4  5  1  0
  5  6  2  0
  5  7  2  0
  5  8  1  0
  8  9  1  0
  9 10  1  0
 10 11  2  0
 11 12  1  0
 11 13  1  0
 13 14  1  0
 13 15  2  0
 15 16  1  0
 15 17  1  0
 17 18  2  0
 18 19  1  0
 19 20  1  0
  3 21  1  0
 21 22  1  0
 21 23  2  0
 23 24  1  0
 24 25  1  0
 25 26  2  0
 26 27  1  0
 27 28  2  0
 27 29  1  0
 29 30  1  0
 29 31  1  0
 31 32  1  0
 31 33  1  0
 31 34  1  0
 34 35  1  0
 34 36  1  0
 34 37  1  0
 37 38  1  0
 38 39  1  0
 38 40  1  0
 38 41  1  0
 41 42  1  0
 41 43  1  0
 41 44  1  0
 44 45  1  0
 45 46  1  0
 45 47  1  0
 45 48  1  0
 48 49  1  0
 48 50  1  0
 25 51  1  0
 51 52  1  0
 52 53  2  0
 53 54  1  0
 53  2  1  0
 19  8  2  0
 52 23  1  0
 18 10  1  0
 48 37  1  0
M  CHG  2   4  -1  51  -1
M  END
>  <UniqueID>  (18) 
15

>  <SMILES>  (18) 
O=C(/N=c1/[n-]c2ccc([N-]S(=O)(=O)c3cc4nc(Cl)ccc4s3)cc2s1)NCCN1CCOCC1

>  <Energy>  (18) 
149.8309118392767

>  <Genealogy>  (18) 
O=C(N=c1[n-]c2ccc([N-]S(=O)(=O)c3cc4nc(Cl)ccc4s3)cc2s1)NCCN1CCOCC1 (protonated)
O=C(/N=c1/[n-]c2ccc([N-]S(=O)(=O)c3cc4nc(Cl)ccc4s3)cc2s1)NCCN1CCOCC1 (cis-trans isomerization)
O=C(/N=c1/[n-]c2ccc([N-]S(=O)(=O)c3cc4nc(Cl)ccc4s3)cc2s1)NCCN1CCOCC1 (3D coordinates assigned)
O=C(/N=c1/[n-]c2ccc([N-]S(=O)(=O)c3cc4nc(Cl)ccc4s3)cc2s1)NCCN1CCOCC1 (nonaromatic ring conformer: 149.8309118392767 kcal/mol)

>  <smiles>  (18) 
O=C(N=c1[nH]c2ccc(NS(=O)(=O)c3cc4nc(Cl)ccc4s3)cc2s1)NCCN1CCOCC1

>  <score_type>  (18) 
oracle

>  <origin>  (18) 
adg

>  <m_score__min__energy>  (18) 
-12.43

>  <m_primary>  (18) 
energy

$$$$
18:0
     RDKit          3D

 29 31  0  0  0  0  0  0  0  0999 V2000
   -9.4920   21.6800  -31.9630 C   0  0  0  0  0  0  0  0  0  0  0  0
   -8.4760   21.6750  -30.8240 C   0  0  0  0  0  0  0  0  0  0  0  0
   -7.1910   22.2250  -31.2700 N   0  0  0  0  0  0  0  0  0  0  0  0
   -6.2250   21.6410  -32.0430 C   0  0  0  0  0  0  0  0  0  0  0  0
   -6.3210   20.2970  -32.6510 C   0  0  0  0  0  0  0  0  0  0  0  0
   -6.9970   19.2710  -31.9740 C   0  0  0  0  0  0  0  0  0  0  0  0
   -7.0690   18.0330  -32.5290 N   0  0  0  0  0  0  0  0  0  0  0  0
   -6.4860   17.7630  -33.7250 C   0  0  0  0  0  0  0  0  0  0  0  0
   -5.7920   18.7720  -34.3930 C   0  0  0  0  0  0  0  0  0  0  0  0
   -5.7170   20.0140  -33.8420 N   0  0  0  0  0  0  0  0  0  0  0  0
   -5.0990   22.3970  -32.1600 N   0  0  0  0  0  0  0  0  0  0  0  0
   -5.3990   23.4890  -31.4400 C   0  0  0  0  0  0  0  0  0  0  0  0
   -4.5860   24.5510  -31.2140 N   0  0  0  0  0  0  0  0  0  0  0  0
   -5.0330   25.5670  -30.4160 C   0  0  0  0  0  0  0  0  0  0  0  0
   -6.3150   25.5040  -29.8230 C   0  0  0  0  0  0  0  0  0  0  0  0
   -7.1410   24.3910  -30.0600 C   0  0  0  0  0  0  0  0  0  0  0  0
   -6.6410   23.3930  -30.8970 C   0  0  0  0  0  0  0  0  0  0  0  0
  -10.5100   21.6850  -31.5463 H   0  0  0  0  0  0  0  0  0  0  0  0
   -9.3447   22.5774  -32.5818 H   0  0  0  0  0  0  0  0  0  0  0  0
   -9.3535   20.7812  -32.5818 H   0  0  0  0  0  0  0  0  0  0  0  0
   -8.8613   22.2859  -29.9943 H   0  0  0  0  0  0  0  0  0  0  0  0
   -8.3202   20.6370  -30.4949 H   0  0  0  0  0  0  0  0  0  0  0  0
   -7.4664   19.4678  -30.9988 H   0  0  0  0  0  0  0  0  0  0  0  0
   -6.5603   16.7570  -34.1636 H   0  0  0  0  0  0  0  0  0  0  0  0
   -5.3084   18.5650  -35.3591 H   0  0  0  0  0  0  0  0  0  0  0  0
   -5.1590   20.7430  -34.3380 H   0  0  0  0  0  0  0  0  0  0  0  0
   -4.3900   26.4407  -30.2337 H   0  0  0  0  0  0  0  0  0  0  0  0
   -6.6652   26.3234  -29.1781 H   0  0  0  0  0  0  0  0  0  0  0  0
   -8.1391   24.3106  -29.6048 H   0  0  0  0  0  0  0  0  0  0  0  0
  1  2  1  0
  2  3  1  0
  3  4  1  0
  4  5  1  0
  5  6  2  0
  6  7  1  0
  7  8  2  0
  8  9  1  0
  9 10  2  0
  4 11  2  0
 11 12  1  0
 12 13  2  0
 13 14  1  0
 14 15  2  0
 15 16  1  0
 16 17  2  0
 17  3  1  0
 10  5  1  0
 17 12  1  0
  1 18  1  0
  1 19  1  0
  1 20  1  0
  2 21  1  0
  2 22  1  0
  6 23  1  0
  8 24  1  0
  9 25  1  0
 10 26  1  0
 14 27  1  0
 15 28  1  0
 16 29  1  0
M  CHG  1  10   1
M  END
>  <UniqueID>  (19) 
16

>  <SMILES>  (19) 
CCn1c(-c2cncc[nH+]2)nc2ncccc21

>  <Energy>  (19) 
74.85654938056614

>  <Genealogy>  (19) 
CCn1c(-c2cncc[nH+]2)nc2ncccc21 (protonated)
CCn1c(-c2cncc[nH+]2)nc2ncccc21 (3D coordinates assigned)
CCn1c(-c2cncc[nH+]2)nc2ncccc21 (optimized conformer: 74.85654938056614 kcal/mol)

>  <smiles>  (19) 
CCn1c(-c2cnccn2)nc2ncccc21

>  <score_type>  (19) 
oracle

>  <origin>  (19) 
adg

>  <m_score__min__energy>  (19) 
-6.1399999999999997

>  <m_primary>  (19) 
energy

$$$$
19:0
     RDKit          3D

 40 42  0  0  0  0  0  0  0  0999 V2000
   -4.0540   16.6360  -34.6570 C   0  0  0  0  0  0  0  0  0  0  0  0
   -3.5500   17.9550  -34.8450 O   0  0  0  0  0  0  0  0  0  0  0  0
   -3.4380   18.9220  -33.8320 C   0  0  0  0  0  0  0  0  0  0  0  0
   -2.2250   19.1370  -33.1540 C   0  0  0  0  0  0  0  0  0  0  0  0
   -2.1290   20.1050  -32.1540 C   0  0  0  0  0  0  0  0  0  0  0  0
   -3.2460   20.8810  -31.8120 C   0  0  0  0  0  0  0  0  0  0  0  0
   -3.1840   21.8700  -30.8130 C   0  0  0  0  0  0  0  0  0  0  0  0
   -2.1090   22.0780  -30.1840 O   0  0  0  0  0  0  0  0  0  0  0  0
   -4.3300   22.6280  -30.5190 C   0  0  0  0  0  0  0  0  0  0  0  0
   -4.3300   23.6790  -29.4390 C   0  0  0  0  0  0  0  0  0  0  0  0
   -3.6240   24.9070  -29.9160 C   0  0  0  0  0  0  0  0  0  0  0  0
   -2.3770   25.2820  -29.3380 N   0  0  0  0  0  0  0  0  0  0  0  0
   -4.1130   25.5930  -30.8540 O   0  0  0  0  0  0  0  0  0  0  0  0
   -5.5090   22.3480  -31.2230 C   0  0  0  0  0  0  0  0  0  0  0  0
   -5.5350   21.4060  -32.1580 O   0  0  0  0  0  0  0  0  0  0  0  0
   -4.4710   20.6730  -32.4830 C   0  0  0  0  0  0  0  0  0  0  0  0
   -4.5730   19.6910  -33.4910 C   0  0  0  0  0  0  0  0  0  0  0  0
   -5.8750   19.5020  -34.2390 C   0  0  0  0  0  0  0  0  0  0  0  0
   -7.0050   19.2400  -33.2780 C   0  0  0  0  0  0  0  0  0  0  0  0
   -7.0380   18.0540  -32.5250 C   0  0  0  0  0  0  0  0  0  0  0  0
   -8.0690   17.8290  -31.6080 C   0  0  0  0  0  0  0  0  0  0  0  0
   -9.0730   18.7840  -31.4340 C   0  0  0  0  0  0  0  0  0  0  0  0
   -9.0480   19.9680  -32.1770 C   0  0  0  0  0  0  0  0  0  0  0  0
   -8.0170   20.1970  -33.0940 C   0  0  0  0  0  0  0  0  0  0  0  0
   -4.1349   16.4243  -33.5806 H   0  0  0  0  0  0  0  0  0  0  0  0
   -5.0471   16.5531  -35.1226 H   0  0  0  0  0  0  0  0  0  0  0  0
   -3.3692   15.9120  -35.1226 H   0  0  0  0  0  0  0  0  0  0  0  0
   -1.3420   18.5352  -33.4150 H   0  0  0  0  0  0  0  0  0  0  0  0
   -1.1734   20.2602  -31.6317 H   0  0  0  0  0  0  0  0  0  0  0  0
   -5.3682   23.9340  -29.1797 H   0  0  0  0  0  0  0  0  0  0  0  0
   -3.8086   23.2853  -28.5541 H   0  0  0  0  0  0  0  0  0  0  0  0
   -1.6140   25.6860  -29.9250 H   0  0  0  0  0  0  0  0  0  0  0  0
   -6.4240   22.9157  -30.9981 H   0  0  0  0  0  0  0  0  0  0  0  0
   -6.0954   20.4117  -34.8168 H   0  0  0  0  0  0  0  0  0  0  0  0
   -5.7749   18.6383  -34.9128 H   0  0  0  0  0  0  0  0  0  0  0  0
   -6.2490   17.2991  -32.6577 H   0  0  0  0  0  0  0  0  0  0  0  0
   -8.0894   16.8980  -31.0225 H   0  0  0  0  0  0  0  0  0  0  0  0
   -9.8835   18.6046  -30.7123 H   0  0  0  0  0  0  0  0  0  0  0  0
   -9.8394   20.7197  -32.0404 H   0  0  0  0  0  0  0  0  0  0  0  0
   -7.9984   21.1314  -33.6742 H   0  0  0  0  0  0  0  0  0  0  0  0
  1  2  1  0
  2  3  1  0
  3  4  2  0
  4  5  1  0
  5  6  2  0
  6  7  1  0
  7  8  2  0
  7  9  1  0
  9 10  1  0
 10 11  1  0
 11 12  1  0
 11 13  2  0
  9 14  2  0
 14 15  1  0
 15 16  1  0
 16 17  2  0
 17 18  1  0
 18 19  1  0
 19 20  2  0
 20 21  1  0
 21 22  2  0
 22 23  1  0
 23 24  2  0
 17  3  1  0
 24 19  1  0
 16  6  1  0
  1 25  1  0
  1 26  1  0
  1 27  1  0
  4 28  1  0
  5 29  1  0
 10 30  1  0
 10 31  1  0
 12 32  1  0
 14 33  1  0
 18 34  1  0
 18 35  1  0
 20 36  1  0
 21 37  1  0
 22 38  1  0
 23 39  1  0
 24 40  1  0
M  CHG  1  12  -1
M  END
>  <UniqueID>  (20) 
17

>  <SMILES>  (20) 
COc1ccc2c(=O)c(CC([NH-])=O)coc2c1Cc1ccccc1

>  <Energy>  (20) 
45.31653915759206

>  <Genealogy>  (20) 
COc1ccc2c(=O)c(CC([NH-])=O)coc2c1Cc1ccccc1 (protonated)
COc1ccc2c(=O)c(CC([NH-])=O)coc2c1Cc1ccccc1 (3D coordinates assigned)
COc1ccc2c(=O)c(CC([NH-])=O)coc2c1Cc1ccccc1 (optimized conformer: 45.31653915759206 kcal/mol)

>  <smiles>  (20) 
COc1ccc2c(=O)c(CC(N)=O)coc2c1Cc1ccccc1

>  <score_type>  (20) 
oracle

>  <origin>  (20) 
adg

>  <m_score__min__energy>  (20) 
-10.66

>  <m_primary>  (20) 
energy

$$$$
20:0
     RDKit          3D

 39 41  0  0  0  0  0  0  0  0999 V2000
   -5.8230   25.6910  -30.0870 C   0  0  0  0  0  0  0  0  0  0  0  0
   -5.3500   24.9680  -31.2190 O   0  0  0  0  0  0  0  0  0  0  0  0
   -5.6230   23.6150  -31.4730 C   0  0  0  0  0  0  0  0  0  0  0  0
   -6.6180   23.2190  -32.3900 C   0  0  0  0  0  0  0  0  0  0  0  0
   -6.8870   21.8640  -32.6010 C   0  0  0  0  0  0  0  0  0  0  0  0
   -6.1710   20.8920  -31.9030 C   0  0  0  0  0  0  0  0  0  0  0  0
   -5.1810   21.2690  -30.9950 C   0  0  0  0  0  0  0  0  0  0  0  0
   -4.8940   22.6270  -30.7770 C   0  0  0  0  0  0  0  0  0  0  0  0
   -3.8640   22.9960  -29.8420 N   0  0  0  0  0  0  0  0  0  0  0  0
   -2.5140   23.3000  -30.3410 C   0  0  0  0  0  0  0  0  0  0  0  0
   -1.5200   23.4800  -29.1900 C   0  0  0  0  0  0  0  0  0  0  0  0
   -2.0890   24.3750  -28.1760 N   0  0  0  0  0  0  0  0  0  0  0  0
   -1.3570   25.5390  -27.7620 C   0  0  0  0  0  0  0  0  0  0  0  0
   -0.8700   26.3070  -28.6340 O   0  0  0  0  0  0  0  0  0  0  0  0
   -1.1600   25.8520  -26.3370 C   0  0  0  0  0  0  0  0  0  0  0  0
   -0.8350   24.9500  -25.3300 C   0  0  0  0  0  0  0  0  0  0  0  0
   -0.6660   25.5540  -24.0800 C   0  0  0  0  0  0  0  0  0  0  0  0
   -0.8440   26.9310  -24.0970 C   0  0  0  0  0  0  0  0  0  0  0  0
   -1.2090   27.3960  -25.6700 S   0  0  0  0  0  0  0  0  0  0  0  0
   -3.4780   24.1960  -27.7260 C   0  0  0  0  0  0  0  0  0  0  0  0
   -4.1380   22.9880  -28.3970 C   0  0  0  0  0  0  0  0  0  0  0  0
   -5.4935   25.1873  -29.1663 H   0  0  0  0  0  0  0  0  0  0  0  0
   -5.4189   26.7138  -30.1101 H   0  0  0  0  0  0  0  0  0  0  0  0
   -6.9221   25.7304  -30.1101 H   0  0  0  0  0  0  0  0  0  0  0  0
   -7.1862   23.9815  -32.9429 H   0  0  0  0  0  0  0  0  0  0  0  0
   -7.6646   21.5637  -33.3187 H   0  0  0  0  0  0  0  0  0  0  0  0
   -6.3871   19.8262  -32.0686 H   0  0  0  0  0  0  0  0  0  0  0  0
   -4.6212   20.4975  -30.4459 H   0  0  0  0  0  0  0  0  0  0  0  0
   -2.1743   22.4724  -30.9811 H   0  0  0  0  0  0  0  0  0  0  0  0
   -2.5589   24.2405  -30.9098 H   0  0  0  0  0  0  0  0  0  0  0  0
   -1.3073   22.5014  -28.7350 H   0  0  0  0  0  0  0  0  0  0  0  0
   -0.5893   23.9183  -29.5796 H   0  0  0  0  0  0  0  0  0  0  0  0
   -0.7221   23.8690  -25.4996 H   0  0  0  0  0  0  0  0  0  0  0  0
   -0.4155   24.9910  -23.1688 H   0  0  0  0  0  0  0  0  0  0  0  0
   -0.7604   27.6023  -23.2296 H   0  0  0  0  0  0  0  0  0  0  0  0
   -3.4834   24.0459  -26.6363 H   0  0  0  0  0  0  0  0  0  0  0  0
   -4.0472   25.0959  -28.0021 H   0  0  0  0  0  0  0  0  0  0  0  0
   -3.7366   22.0635  -27.9563 H   0  0  0  0  0  0  0  0  0  0  0  0
   -5.2252   23.0391  -28.2379 H   0  0  0  0  0  0  0  0  0  0  0  0
  1  2  1  0
  2  3  1  0
  3  4  2  0
  4  5  1  0
  5  6  2  0
  6  7  1  0
  7  8  2  0
  8  9  1  0
  9 10  1  0
 10 11  1  0
 11 12  1  0
 12 13  1  0
 13 14  2  0
 13 15  1  0
 15 16  2  0
 16 17  1  0
 17 18  2  0
 18 19  1  0
 12 20  1  0
 20 21  1  0
  8  3  1  0
 21  9  1  0
 19 15  1  0
  1 22  1  0
  1 23  1  0
  1 24  1  0
  4 25  1  0
  5 26  1  0
  6 27  1  0
  7 28  1  0
 10 29  1  0
 10 30  1  0
 11 31  1  0
 11 32  1  0
 16 33  1  0
 17 34  1  0
 18 35  1  0
 20 36  1  0
 20 37  1  0
 21 38  1  0
 21 39  1  0
M  END
>  <UniqueID>  (21) 
18

>  <SMILES>  (21) 
COc1ccccc1N1CCN(C(=O)c2cccs2)CC1

>  <Energy>  (21) 
74.66087783973175

>  <Genealogy>  (21) 
COc1ccccc1N1CCN(C(=O)c2cccs2)CC1 (3D coordinates assigned)
COc1ccccc1N1CCN(C(=O)c2cccs2)CC1 (nonaromatic ring conformer: 74.66087783973175 kcal/mol)

>  <smiles>  (21) 
COc1ccccc1N1CCN(C(=O)c2cccs2)CC1

>  <score_type>  (21) 
oracle

>  <origin>  (21) 
adg

>  <m_score__min__energy>  (21) 
-6.96

>  <m_primary>  (21) 
energy

$$$$
21:0
     RDKit          3D

 39 42  0  0  0  0  0  0  0  0999 V2000
   -3.8910   25.2400  -30.2430 O   0  0  0  0  0  0  0  0  0  0  0  0
   -4.6760   24.3810  -29.7560 C   0  0  0  0  0  0  0  0  0  0  0  0
   -4.5870   24.0230  -28.3680 N   0  0  0  0  0  0  0  0  0  0  0  0
   -3.5170   24.4650  -27.5140 C   0  0  0  0  0  0  0  0  0  0  0  0
   -3.8170   25.1880  -26.3470 C   0  0  0  0  0  0  0  0  0  0  0  0
   -2.7990   25.6760  -25.5270 C   0  0  0  0  0  0  0  0  0  0  0  0
   -1.4630   25.4590  -25.8620 C   0  0  0  0  0  0  0  0  0  0  0  0
   -1.1330   24.7450  -27.0220 C   0  0  0  0  0  0  0  0  0  0  0  0
    0.2130   24.5260  -27.3530 C   0  0  0  0  0  0  0  0  0  0  0  0
    0.5470   23.8030  -28.4990 C   0  0  0  0  0  0  0  0  0  0  0  0
   -0.4570   23.2890  -29.3210 C   0  0  0  0  0  0  0  0  0  0  0  0
   -1.8020   23.4990  -29.0060 C   0  0  0  0  0  0  0  0  0  0  0  0
   -2.1620   24.2390  -27.8600 C   0  0  0  0  0  0  0  0  0  0  0  0
   -5.7010   23.7690  -30.6170 C   0  0  0  0  0  0  0  0  0  0  0  0
   -6.4810   24.4280  -31.5470 C   0  0  0  0  0  0  0  0  0  0  0  0
   -7.2720   23.4400  -32.0940 C   0  0  0  0  0  0  0  0  0  0  0  0
   -6.9650   22.2630  -31.5070 N   0  0  0  0  0  0  0  0  0  0  0  0
   -7.5430   20.9700  -31.7840 C   0  0  0  0  0  0  0  0  0  0  0  0
   -8.9150   20.8610  -32.0790 C   0  0  0  0  0  0  0  0  0  0  0  0
   -9.4890   19.6170  -32.3530 C   0  0  0  0  0  0  0  0  0  0  0  0
   -8.7010   18.4640  -32.3370 C   0  0  0  0  0  0  0  0  0  0  0  0
   -7.3380   18.5550  -32.0510 C   0  0  0  0  0  0  0  0  0  0  0  0
   -6.7580   19.7980  -31.7760 C   0  0  0  0  0  0  0  0  0  0  0  0
   -6.0090   22.4580  -30.6100 N   0  0  0  0  0  0  0  0  0  0  0  0
   -5.3380   23.4270  -27.9550 H   0  0  0  0  0  0  0  0  0  0  0  0
   -4.8673   25.3715  -26.0766 H   0  0  0  0  0  0  0  0  0  0  0  0
   -3.0513   26.2338  -24.6131 H   0  0  0  0  0  0  0  0  0  0  0  0
   -0.6650   25.8497  -25.2134 H   0  0  0  0  0  0  0  0  0  0  0  0
    1.0081   24.9259  -26.7065 H   0  0  0  0  0  0  0  0  0  0  0  0
    1.6040   23.6379  -28.7550 H   0  0  0  0  0  0  0  0  0  0  0  0
   -0.1883   22.7161  -30.2208 H   0  0  0  0  0  0  0  0  0  0  0  0
   -2.5861   23.0842  -29.6565 H   0  0  0  0  0  0  0  0  0  0  0  0
   -6.4730   25.4996  -31.7953 H   0  0  0  0  0  0  0  0  0  0  0  0
   -8.0284   23.5863  -32.8791 H   0  0  0  0  0  0  0  0  0  0  0  0
   -9.5419   21.7648  -32.0940 H   0  0  0  0  0  0  0  0  0  0  0  0
  -10.5626   19.5456  -32.5816 H   0  0  0  0  0  0  0  0  0  0  0  0
   -9.1544   17.4846  -32.5497 H   0  0  0  0  0  0  0  0  0  0  0  0
   -6.7179   17.6465  -32.0418 H   0  0  0  0  0  0  0  0  0  0  0  0
   -5.6829   19.8619  -31.5521 H   0  0  0  0  0  0  0  0  0  0  0  0
  1  2  2  0
  2  3  1  0
  3  4  1  0
  4  5  2  0
  5  6  1  0
  6  7  2  0
  7  8  1  0
  8  9  2  0
  9 10  1  0
 10 11  2  0
 11 12  1  0
 12 13  2  0
  2 14  1  0
 14 15  1  0
 15 16  2  0
 16 17  1  0
 17 18  1  0
 18 19  2  0
 19 20  1  0
 20 21  2  0
 21 22  1  0
 22 23  2  0
 17 24  1  0
 13  4  1  0
 24 14  2  0
 13  8  1  0
 23 18  1  0
  3 25  1  0
  5 26  1  0
  6 27  1  0
  7 28  1  0
  9 29  1  0
 10 30  1  0
 11 31  1  0
 12 32  1  0
 15 33  1  0
 16 34  1  0
 19 35  1  0
 20 36  1  0
 21 37  1  0
 22 38  1  0
 23 39  1  0
M  END
>  <UniqueID>  (22) 
19

>  <SMILES>  (22) 
O=C(Nc1cccc2ccccc12)c1ccn(-c2ccccc2)n1

>  <Energy>  (22) 
84.16369748695502

>  <Genealogy>  (22) 
O=C(Nc1cccc2ccccc12)c1ccn(-c2ccccc2)n1 (3D coordinates assigned)
O=C(Nc1cccc2ccccc12)c1ccn(-c2ccccc2)n1 (optimized conformer: 84.16369748695502 kcal/mol)

>  <smiles>  (22) 
O=C(Nc1cccc2ccccc12)c1ccn(-c2ccccc2)n1

>  <score_type>  (22) 
oracle

>  <origin>  (22) 
adg

>  <m_score__min__energy>  (22) 
-8.9100000000000001

>  <m_primary>  (22) 
energy

$$$$
22:0
     RDKit          3D

 45 48  0  0  0  0  0  0  0  0999 V2000
    0.0630   29.5390  -25.4390 C   0  0  0  0  0  0  0  0  0  0  0  0
   -0.4710   28.1790  -25.7780 C   0  0  0  0  0  0  0  0  0  0  0  0
   -0.8640   27.3010  -24.7560 C   0  0  0  0  0  0  0  0  0  0  0  0
   -1.3200   26.0170  -25.0690 C   0  0  0  0  0  0  0  0  0  0  0  0
   -1.3840   25.6020  -26.4010 C   0  0  0  0  0  0  0  0  0  0  0  0
   -1.0020   26.4670  -27.4350 C   0  0  0  0  0  0  0  0  0  0  0  0
   -1.0670   25.9910  -28.7880 N   0  0  0  0  0  0  0  0  0  0  0  0
   -1.8860   24.9280  -29.2850 C   0  0  0  0  0  0  0  0  0  0  0  0
   -1.4340   23.7550  -29.3680 O   0  0  0  0  0  0  0  0  0  0  0  0
   -3.2270   25.2230  -29.6930 N   0  0  0  0  0  0  0  0  0  0  0  0
   -4.1010   24.3850  -30.4660 C   0  0  0  0  0  0  0  0  0  0  0  0
   -3.7090   23.1170  -30.9300 C   0  0  0  0  0  0  0  0  0  0  0  0
   -4.5860   22.3460  -31.6990 C   0  0  0  0  0  0  0  0  0  0  0  0
   -5.8600   22.8400  -32.0340 C   0  0  0  0  0  0  0  0  0  0  0  0
   -6.7640   22.1090  -32.8170 O   0  0  0  0  0  0  0  0  0  0  0  0
   -6.6690   20.7320  -33.0220 C   0  0  0  0  0  0  0  0  0  0  0  0
   -5.6990   20.2240  -33.8380 N   0  0  0  0  0  0  0  0  0  0  0  0
   -5.5860   18.8780  -34.0640 C   0  0  0  0  0  0  0  0  0  0  0  0
   -6.4510   18.0020  -33.4690 N   0  0  0  0  0  0  0  0  0  0  0  0
   -7.4100   18.5000  -32.6520 C   0  0  0  0  0  0  0  0  0  0  0  0
   -8.3910   17.8300  -31.9550 C   0  0  0  0  0  0  0  0  0  0  0  0
   -9.1060   18.8310  -31.3020 C   0  0  0  0  0  0  0  0  0  0  0  0
   -8.5810   20.0530  -31.5750 N   0  0  0  0  0  0  0  0  0  0  0  0
   -9.1170   21.3330  -31.1210 C   0  0  0  0  0  0  0  0  0  0  0  0
   -7.5430   19.8330  -32.4080 C   0  0  0  0  0  0  0  0  0  0  0  0
   -6.2360   24.1130  -31.5920 C   0  0  0  0  0  0  0  0  0  0  0  0
   -5.3600   24.8830  -30.8210 C   0  0  0  0  0  0  0  0  0  0  0  0
   -0.5160   27.7500  -27.1150 C   0  0  0  0  0  0  0  0  0  0  0  0
    0.1079   29.6533  -24.3459 H   0  0  0  0  0  0  0  0  0  0  0  0
    1.0724   29.6523  -25.8613 H   0  0  0  0  0  0  0  0  0  0  0  0
   -0.5996   30.3088  -25.8613 H   0  0  0  0  0  0  0  0  0  0  0  0
   -0.8131   27.6240  -23.7057 H   0  0  0  0  0  0  0  0  0  0  0  0
   -1.6288   25.3327  -24.2651 H   0  0  0  0  0  0  0  0  0  0  0  0
   -1.7371   24.5881  -26.6403 H   0  0  0  0  0  0  0  0  0  0  0  0
   -2.7084   22.7300  -30.6871 H   0  0  0  0  0  0  0  0  0  0  0  0
   -4.2782   21.3478  -32.0439 H   0  0  0  0  0  0  0  0  0  0  0  0
   -4.7949   18.4995  -34.7280 H   0  0  0  0  0  0  0  0  0  0  0  0
   -8.5700   16.7452  -31.9215 H   0  0  0  0  0  0  0  0  0  0  0  0
   -9.9771   18.6555  -30.6536 H   0  0  0  0  0  0  0  0  0  0  0  0
   -9.1270   21.3570  -30.0213 H   0  0  0  0  0  0  0  0  0  0  0  0
   -8.4854   22.1501  -31.4998 H   0  0  0  0  0  0  0  0  0  0  0  0
  -10.1423   21.4563  -31.4998 H   0  0  0  0  0  0  0  0  0  0  0  0
   -7.2278   24.5109  -31.8529 H   0  0  0  0  0  0  0  0  0  0  0  0
   -5.6625   25.8878  -30.4909 H   0  0  0  0  0  0  0  0  0  0  0  0
   -0.1699   28.4195  -27.9163 H   0  0  0  0  0  0  0  0  0  0  0  0
  1  2  1  0
  2  3  2  0
  3  4  1  0
  4  5  2  0
  5  6  1  0
  6  7  1  0
  7  8  1  0
  8  9  2  0
  8 10  1  0
 10 11  1  0
 11 12  2  0
 12 13  1  0
 13 14  2  0
 14 15  1  0
 15 16  1  0
 16 17  2  0
 17 18  1  0
 18 19  2  0
 19 20  1  0
 20 21  1  0
 21 22  2  0
 22 23  1  0
 23 24  1  0
 23 25  1  0
 14 26  1  0
 26 27  2  0
  6 28  2  0
 28  2  1  0
 27 11  1  0
 25 16  1  0
 25 20  2  0
  1 29  1  0
  1 30  1  0
  1 31  1  0
  3 32  1  0
  4 33  1  0
  5 34  1  0
 12 35  1  0
 13 36  1  0
 18 37  1  0
 21 38  1  0
 22 39  1  0
 24 40  1  0
 24 41  1  0
 24 42  1  0
 26 43  1  0
 27 44  1  0
 28 45  1  0
M  CHG  2   7  -1  10  -1
M  END
>  <UniqueID>  (23) 
20

>  <SMILES>  (23) 
Cc1cccc([N-]C(=O)[N-]c2ccc(Oc3ncnc4ccn(C)c34)cc2)c1

>  <Energy>  (23) 
101.45065994923338

>  <Genealogy>  (23) 
Cc1cccc([N-]C(=O)[N-]c2ccc(Oc3ncnc4ccn(C)c34)cc2)c1 (protonated)
Cc1cccc([N-]C(=O)[N-]c2ccc(Oc3ncnc4ccn(C)c34)cc2)c1 (3D coordinates assigned)
Cc1cccc([N-]C(=O)[N-]c2ccc(Oc3ncnc4ccn(C)c34)cc2)c1 (optimized conformer: 101.45065994923338 kcal/mol)

>  <smiles>  (23) 
Cc1cccc(NC(=O)Nc2ccc(Oc3ncnc4ccn(C)c34)cc2)c1

>  <score_type>  (23) 
oracle

>  <origin>  (23) 
adg

>  <m_score__min__energy>  (23) 
-11.640000000000001

>  <m_primary>  (23) 
energy

$$$$
23:0
     RDKit          3D

 27 29  0  0  0  0  0  0  0  0999 V2000
   -9.1170   18.8700  -31.4800 O   0  0  0  0  0  0  0  0  0  0  0  0
   -8.0370   19.4610  -31.7550 C   0  0  0  0  0  0  0  0  0  0  0  0
   -7.7960   20.7310  -31.2290 C   0  0  0  0  0  0  0  0  0  0  0  0
   -6.5870   21.3920  -31.5360 C   0  0  0  0  0  0  0  0  0  0  0  0
   -6.2490   22.7530  -31.0160 C   0  0  0  0  0  0  0  0  0  0  0  0
   -7.2280   23.6710  -30.5740 C   0  0  0  0  0  0  0  0  0  0  0  0
   -6.8600   24.9320  -30.0960 C   0  0  0  0  0  0  0  0  0  0  0  0
   -5.5150   25.3020  -30.0500 C   0  0  0  0  0  0  0  0  0  0  0  0
   -4.5340   24.4100  -30.4830 C   0  0  0  0  0  0  0  0  0  0  0  0
   -4.8950   23.1470  -30.9610 C   0  0  0  0  0  0  0  0  0  0  0  0
   -5.7010   20.7820  -32.3250 O   0  0  0  0  0  0  0  0  0  0  0  0
   -5.8890   19.5740  -32.8460 C   0  0  0  0  0  0  0  0  0  0  0  0
   -4.9030   19.0110  -33.6630 C   0  0  0  0  0  0  0  0  0  0  0  0
   -5.0890   17.7400  -34.2180 C   0  0  0  0  0  0  0  0  0  0  0  0
   -3.8420   17.0480  -35.2410 Cl  0  0  0  0  0  0  0  0  0  0  0  0
   -6.2660   17.0260  -33.9550 C   0  0  0  0  0  0  0  0  0  0  0  0
   -6.4520   15.7930  -34.4890 F   0  0  0  0  0  0  0  0  0  0  0  0
   -7.2560   17.5820  -33.1390 C   0  0  0  0  0  0  0  0  0  0  0  0
   -7.0760   18.8590  -32.5780 C   0  0  0  0  0  0  0  0  0  0  0  0
   -8.5422   21.2131  -30.5803 H   0  0  0  0  0  0  0  0  0  0  0  0
   -8.2911   23.3904  -30.6064 H   0  0  0  0  0  0  0  0  0  0  0  0
   -7.6336   25.6356  -29.7547 H   0  0  0  0  0  0  0  0  0  0  0  0
   -5.2292   26.2951  -29.6730 H   0  0  0  0  0  0  0  0  0  0  0  0
   -3.4738   24.7011  -30.4482 H   0  0  0  0  0  0  0  0  0  0  0  0
   -4.1132   22.4509  -31.2988 H   0  0  0  0  0  0  0  0  0  0  0  0
   -3.9781   19.5694  -33.8699 H   0  0  0  0  0  0  0  0  0  0  0  0
   -8.1786   17.0188  -32.9352 H   0  0  0  0  0  0  0  0  0  0  0  0
  1  2  2  0
  2  3  1  0
  3  4  2  0
  4  5  1  0
  5  6  2  0
  6  7  1  0
  7  8  2  0
  8  9  1  0
  9 10  2  0
  4 11  1  0
 11 12  1  0
 12 13  2  0
 13 14  1  0
 14 15  1  0
 14 16  2  0
 16 17  1  0
 16 18  1  0
 18 19  2  0
 19  2  1  0
 10  5  1  0
 19 12  1  0
  3 20  1  0
  6 21  1  0
  7 22  1  0
  8 23  1  0
  9 24  1  0
 10 25  1  0
 13 26  1  0
 18 27  1  0
M  END
>  <UniqueID>  (24) 
21

>  <SMILES>  (24) 
O=c1cc(-c2ccccc2)oc2cc(Cl)c(F)cc12

>  <Energy>  (24) 
39.62272189085331

>  <Genealogy>  (24) 
O=c1cc(-c2ccccc2)oc2cc(Cl)c(F)cc12 (3D coordinates assigned)
O=c1cc(-c2ccccc2)oc2cc(Cl)c(F)cc12 (optimized conformer: 39.62272189085331 kcal/mol)

>  <smiles>  (24) 
O=c1cc(-c2ccccc2)oc2cc(Cl)c(F)cc12

>  <score_type>  (24) 
oracle

>  <origin>  (24) 
adg

>  <m_score__min__energy>  (24) 
-7.3099999999999996

>  <m_primary>  (24) 
energy

$$$$
24:0
     RDKit          3D

 46 50  0  0  0  0  0  0  0  0999 V2000
   -7.2460   17.0440  -33.1650 C   0  0  0  0  0  0  0  0  0  0  0  0
   -6.5400   18.3260  -33.0420 N   0  0  0  0  0  0  0  0  0  0  0  0
   -5.1570   18.4580  -33.4170 C   0  0  0  0  0  0  0  0  0  0  0  0
   -4.5490   17.5780  -34.3340 C   0  0  0  0  0  0  0  0  0  0  0  0
   -3.2120   17.7540  -34.7000 C   0  0  0  0  0  0  0  0  0  0  0  0
   -2.4720   18.8060  -34.1590 C   0  0  0  0  0  0  0  0  0  0  0  0
   -3.0670   19.6900  -33.2570 C   0  0  0  0  0  0  0  0  0  0  0  0
   -4.4190   19.5400  -32.8960 C   0  0  0  0  0  0  0  0  0  0  0  0
   -4.9990   20.4130  -31.9000 N   0  0  0  0  0  0  0  0  0  0  0  0
   -6.4370   20.5710  -32.0400 C   0  0  0  0  0  0  0  0  0  0  0  0
   -7.0920   21.7440  -31.5800 C   0  0  0  0  0  0  0  0  0  0  0  0
   -6.3590   22.8520  -30.9340 C   0  0  0  0  0  0  0  0  0  0  0  0
   -6.7190   24.1350  -30.9730 C   0  0  0  0  0  0  0  0  0  0  0  0
   -5.7480   24.8920  -30.1870 C   0  0  0  0  0  0  0  0  0  0  0  0
   -5.8010   26.1330  -29.9810 O   0  0  0  0  0  0  0  0  0  0  0  0
   -4.7590   24.0280  -29.6350 N   0  0  0  0  0  0  0  0  0  0  0  0
   -3.6440   24.3700  -28.7950 C   0  0  0  0  0  0  0  0  0  0  0  0
   -3.8210   24.5360  -27.4110 C   0  0  0  0  0  0  0  0  0  0  0  0
   -2.7370   24.8710  -26.5930 C   0  0  0  0  0  0  0  0  0  0  0  0
   -1.4670   25.0420  -27.1490 C   0  0  0  0  0  0  0  0  0  0  0  0
   -1.2790   24.8780  -28.5230 C   0  0  0  0  0  0  0  0  0  0  0  0
   -2.3610   24.5440  -29.3440 C   0  0  0  0  0  0  0  0  0  0  0  0
   -5.1590   22.7420  -30.1000 C   0  0  0  0  0  0  0  0  0  0  0  0
   -4.5620   21.6690  -29.8190 O   0  0  0  0  0  0  0  0  0  0  0  0
   -8.4810   21.8700  -31.7390 C   0  0  0  0  0  0  0  0  0  0  0  0
   -9.2280   20.8380  -32.3010 C   0  0  0  0  0  0  0  0  0  0  0  0
   -8.6010   19.6640  -32.7120 C   0  0  0  0  0  0  0  0  0  0  0  0
   -7.2110   19.5110  -32.5740 C   0  0  0  0  0  0  0  0  0  0  0  0
   -7.4642   16.6479  -32.1623 H   0  0  0  0  0  0  0  0  0  0  0  0
   -8.1880   17.1952  -33.7124 H   0  0  0  0  0  0  0  0  0  0  0  0
   -6.6146   16.3287  -33.7124 H   0  0  0  0  0  0  0  0  0  0  0  0
   -5.1296   16.7484  -34.7639 H   0  0  0  0  0  0  0  0  0  0  0  0
   -2.7425   17.0626  -35.4152 H   0  0  0  0  0  0  0  0  0  0  0  0
   -1.4179   18.9391  -34.4437 H   0  0  0  0  0  0  0  0  0  0  0  0
   -2.4745   20.5101  -32.8251 H   0  0  0  0  0  0  0  0  0  0  0  0
   -4.8000   20.0050  -30.9590 H   0  0  0  0  0  0  0  0  0  0  0  0
   -4.5360   21.3490  -31.9760 H   0  0  0  0  0  0  0  0  0  0  0  0
   -7.5902   24.5490  -31.5018 H   0  0  0  0  0  0  0  0  0  0  0  0
   -4.8188   24.4016  -26.9678 H   0  0  0  0  0  0  0  0  0  0  0  0
   -2.8848   24.9999  -25.5106 H   0  0  0  0  0  0  0  0  0  0  0  0
   -0.6153   25.3057  -26.5048 H   0  0  0  0  0  0  0  0  0  0  0  0
   -0.2785   25.0117  -28.9603 H   0  0  0  0  0  0  0  0  0  0  0  0
   -2.2075   24.4166  -30.4258 H   0  0  0  0  0  0  0  0  0  0  0  0
   -8.9844   22.7933  -31.4164 H   0  0  0  0  0  0  0  0  0  0  0  0
  -10.3157   20.9501  -32.4207 H   0  0  0  0  0  0  0  0  0  0  0  0
   -9.1988   18.8501  -33.1481 H   0  0  0  0  0  0  0  0  0  0  0  0
  1  2  1  0
  2  3  1  0
  3  4  2  0
  4  5  1  0
  5  6  2  0
  6  7  1  0
  7  8  2  0
  8  9  1  0
  9 10  1  0
 10 11  2  0
 11 12  1  0
 12 13  2  0
 13 14  1  0
 14 15  2  0
 14 16  1  0
 16 17  1  0
 17 18  2  0
 18 19  1  0
 19 20  2  0
 20 21  1  0
 21 22  2  0
 16 23  1  0
 23 24  2  0
 11 25  1  0
 25 26  2  0
 26 27  1  0
 27 28  2  0
 28  2  1  0
  8  3  1  0
 28 10  1  0
 23 12  1  0
 22 17  1  0
  1 29  1  0
  1 30  1  0
  1 31  1  0
  4 32  1  0
  5 33  1  0
  6 34  1  0
  7 35  1  0
  9 36  1  0
  9 37  1  0
 13 38  1  0
 18 39  1  0
 19 40  1  0
 20 41  1  0
 21 42  1  0
 22 43  1  0
 25 44  1  0
 26 45  1  0
 27 46  1  0
M  CHG  1   9   1
M  END
>  <UniqueID>  (25) 
22

>  <SMILES>  (25) 
CN1c2ccccc2[NH2+]c2c(C3=CC(=O)N(c4ccccc4)C3=O)cccc21

>  <Energy>  (25) 
102.58881353107309

>  <Genealogy>  (25) 
CN1c2ccccc2[NH2+]c2c(C3=CC(=O)N(c4ccccc4)C3=O)cccc21 (protonated)
CN1c2ccccc2[NH2+]c2c(C3=CC(=O)N(c4ccccc4)C3=O)cccc21 (3D coordinates assigned)
CN1c2ccccc2[NH2+]c2c(C3=CC(=O)N(c4ccccc4)C3=O)cccc21 (nonaromatic ring conformer: 102.58881353107309 kcal/mol)

>  <smiles>  (25) 
CN1c2ccccc2Nc2c(C3=CC(=O)N(c4ccccc4)C3=O)cccc21

>  <score_type>  (25) 
oracle

>  <origin>  (25) 
adg

>  <m_score__min__energy>  (25) 
-8.9499999999999993

>  <m_primary>  (25) 
energy

$$$$
25:0
     RDKit          3D

 57 58  0  0  0  0  0  0  0  0999 V2000
    0.0400   18.9420  -29.3590 C   0  0  0  0  0  0  0  0  0  0  0  0
   -0.7530   19.8250  -30.1460 O   0  0  0  0  0  0  0  0  0  0  0  0
   -1.7380   20.6850  -29.6340 C   0  0  0  0  0  0  0  0  0  0  0  0
   -2.0490   20.7180  -28.2600 C   0  0  0  0  0  0  0  0  0  0  0  0
   -3.0330   21.5820  -27.7760 C   0  0  0  0  0  0  0  0  0  0  0  0
   -3.7170   22.4240  -28.6530 C   0  0  0  0  0  0  0  0  0  0  0  0
   -3.4190   22.4050  -30.0160 C   0  0  0  0  0  0  0  0  0  0  0  0
   -2.4320   21.5390  -30.5190 C   0  0  0  0  0  0  0  0  0  0  0  0
   -2.1180   21.5660  -32.0000 C   0  0  0  0  0  0  0  0  0  0  0  0
   -1.5390   20.2920  -32.4660 N   0  0  0  0  0  0  0  0  0  0  0  0
   -1.7610   20.0170  -33.8990 C   0  0  0  0  0  0  0  0  0  0  0  0
   -2.2620   18.5860  -34.2070 C   0  0  0  0  0  0  0  0  0  0  0  0
   -3.5400   18.1550  -33.4660 C   0  0  0  0  0  0  0  0  0  0  0  0
   -4.6400   19.2260  -33.4960 C   0  0  0  0  0  0  0  0  0  0  0  0
   -5.9610   18.6390  -34.0110 C   0  0  0  0  0  0  0  0  0  0  0  0
   -7.0980   18.7940  -32.9920 C   0  0  0  0  0  0  0  0  0  0  0  0
   -7.8720   20.0270  -33.2100 N   0  0  0  0  0  0  0  0  0  0  0  0
   -8.3730   20.6210  -31.9580 C   0  0  0  0  0  0  0  0  0  0  0  0
   -7.5430   21.8240  -31.5940 C   0  0  0  0  0  0  0  0  0  0  0  0
   -7.7230   22.4740  -30.3630 C   0  0  0  0  0  0  0  0  0  0  0  0
   -6.9640   23.6030  -30.0440 C   0  0  0  0  0  0  0  0  0  0  0  0
   -6.0130   24.1060  -30.9490 C   0  0  0  0  0  0  0  0  0  0  0  0
   -5.2320   25.2670  -30.6160 N   0  0  0  0  0  0  0  0  0  0  0  0
   -5.7730   26.2790  -30.1220 O   0  0  0  0  0  0  0  0  0  0  0  0
   -3.8740   25.2830  -30.8370 O   0  0  0  0  0  0  0  0  0  0  0  0
   -5.8320   23.4480  -32.1800 C   0  0  0  0  0  0  0  0  0  0  0  0
   -6.5930   22.3190  -32.4990 C   0  0  0  0  0  0  0  0  0  0  0  0
   -0.1388   19.1411  -28.2920 H   0  0  0  0  0  0  0  0  0  0  0  0
   -0.2326   17.9013  -29.5885 H   0  0  0  0  0  0  0  0  0  0  0  0
    1.1039   19.1015  -29.5885 H   0  0  0  0  0  0  0  0  0  0  0  0
   -1.5121   20.0576  -27.5631 H   0  0  0  0  0  0  0  0  0  0  0  0
   -3.2692   21.5988  -26.7018 H   0  0  0  0  0  0  0  0  0  0  0  0
   -4.4922   23.1037  -28.2696 H   0  0  0  0  0  0  0  0  0  0  0  0
   -3.9604   23.0727  -30.7024 H   0  0  0  0  0  0  0  0  0  0  0  0
   -3.0472   21.7583  -32.5565 H   0  0  0  0  0  0  0  0  0  0  0  0
   -1.3772   22.3599  -32.1755 H   0  0  0  0  0  0  0  0  0  0  0  0
   -0.5170   20.2850  -32.2560 H   0  0  0  0  0  0  0  0  0  0  0  0
   -1.9550   19.5060  -31.9120 H   0  0  0  0  0  0  0  0  0  0  0  0
   -2.5088   20.7311  -34.2742 H   0  0  0  0  0  0  0  0  0  0  0  0
   -0.7833   20.1194  -34.3926 H   0  0  0  0  0  0  0  0  0  0  0  0
   -2.4592   18.5217  -35.2873 H   0  0  0  0  0  0  0  0  0  0  0  0
   -1.4690   17.9080  -33.8585 H   0  0  0  0  0  0  0  0  0  0  0  0
   -3.9279   17.2406  -33.9386 H   0  0  0  0  0  0  0  0  0  0  0  0
   -3.2700   17.9895  -32.4126 H   0  0  0  0  0  0  0  0  0  0  0  0
   -4.7913   19.6156  -32.4785 H   0  0  0  0  0  0  0  0  0  0  0  0
   -4.3261   20.0337  -34.1736 H   0  0  0  0  0  0  0  0  0  0  0  0
   -6.2426   19.1592  -34.9384 H   0  0  0  0  0  0  0  0  0  0  0  0
   -5.8081   17.5640  -34.1869 H   0  0  0  0  0  0  0  0  0  0  0  0
   -7.7738   17.9306  -33.0804 H   0  0  0  0  0  0  0  0  0  0  0  0
   -6.6493   18.8483  -31.9891 H   0  0  0  0  0  0  0  0  0  0  0  0
   -8.6960   19.7740  -33.8040 H   0  0  0  0  0  0  0  0  0  0  0  0
   -9.4206   20.9280  -32.0934 H   0  0  0  0  0  0  0  0  0  0  0  0
   -8.3054   19.8764  -31.1511 H   0  0  0  0  0  0  0  0  0  0  0  0
   -8.4651   22.0928  -29.6460 H   0  0  0  0  0  0  0  0  0  0  0  0
   -7.1120   24.1030  -29.0755 H   0  0  0  0  0  0  0  0  0  0  0  0
   -5.0867   23.8245  -32.8961 H   0  0  0  0  0  0  0  0  0  0  0  0
   -6.4455   21.8160  -33.4660 H   0  0  0  0  0  0  0  0  0  0  0  0
  1  2  1  0
  2  3  1  0
  3  4  2  0
  4  5  1  0
  5  6  2  0
  6  7  1  0
  7  8  2  0
  8  9  1  0
  9 10  1  0
 10 11  1  0
 11 12  1  0
 12 13  1  0
 13 14  1  0
 14 15  1  0
 15 16  1  0
 16 17  1  0
 17 18  1  0
 18 19  1  0
 19 20  2  0
 20 21  1  0
 21 22  2  0
 22 23  1  0
 23 24  2  0
 23 25  1  0
 22 26  1  0
 26 27  2  0
  8  3  1  0
 27 19  1  0
  1 28  1  0
  1 29  1  0
  1 30  1  0
  4 31  1  0
  5 32  1  0
  6 33  1  0
  7 34  1  0
  9 35  1  0
  9 36  1  0
 10 37  1  0
 10 38  1  0
 11 39  1  0
 11 40  1  0
 12 41  1  0
 12 42  1  0
 13 43  1  0
 13 44  1  0
 14 45  1  0
 14 46  1  0
 15 47  1  0
 15 48  1  0
 16 49  1  0
 16 50  1  0
 17 51  1  0
 18 52  1  0
 18 53  1  0
 20 54  1  0
 21 55  1  0
 26 56  1  0
 27 57  1  0
M  CHG  3  10   1  23   1  25  -1
M  END
>  <UniqueID>  (26) 
23

>  <SMILES>  (26) 
COc1ccccc1C[NH2+]CCCCCCNCc1ccc([N+](=O)[O-])cc1

>  <Energy>  (26) 
47.28824210178674

>  <Genealogy>  (26) 
COc1ccccc1C[NH2+]CCCCCCNCc1ccc([N+](=O)[O-])cc1 (protonated)
COc1ccccc1C[NH2+]CCCCCCNCc1ccc([N+](=O)[O-])cc1 (3D coordinates assigned)
COc1ccccc1C[NH2+]CCCCCCNCc1ccc([N+](=O)[O-])cc1 (optimized conformer: 47.28824210178674 kcal/mol)

>  <smiles>  (26) 
COc1ccccc1CNCCCCCCNCc1ccc([N+](=O)[O-])cc1

>  <score_type>  (26) 
oracle

>  <origin>  (26) 
adg

>  <m_score__min__energy>  (26) 
-7.6900000000000004

>  <m_primary>  (26) 
energy

$$$$
26:0
     RDKit          3D

 21 21  0  0  0  0  0  0  0  0999 V2000
   -7.8460   23.3330  -31.9630 C   0  0  0  0  0  0  0  0  0  0  0  0
   -6.7720   22.2800  -32.0840 C   0  0  0  0  0  0  0  0  0  0  0  0
   -5.4610   22.6190  -32.0550 C   0  0  0  0  0  0  0  0  0  0  0  0
   -4.4640   21.8350  -32.7460 C   0  0  0  0  0  0  0  0  0  0  0  0
   -3.6650   21.2080  -33.3000 N   0  0  0  0  0  0  0  0  0  0  0  0
   -4.9950   23.8070  -31.3810 C   0  0  0  0  0  0  0  0  0  0  0  0
   -4.6220   24.7600  -30.8400 N   0  0  0  0  0  0  0  0  0  0  0  0
   -7.2010   20.8600  -32.1820 C   0  0  0  0  0  0  0  0  0  0  0  0
   -8.3440   20.4240  -31.4940 C   0  0  0  0  0  0  0  0  0  0  0  0
   -8.7420   19.0900  -31.5980 C   0  0  0  0  0  0  0  0  0  0  0  0
   -8.0060   18.2060  -32.3860 C   0  0  0  0  0  0  0  0  0  0  0  0
   -6.8790   18.6730  -33.0660 C   0  0  0  0  0  0  0  0  0  0  0  0
   -6.5030   19.9760  -32.9560 N   0  0  0  0  0  0  0  0  0  0  0  0
   -8.0476   23.5306  -30.8998 H   0  0  0  0  0  0  0  0  0  0  0  0
   -7.5079   24.2593  -32.4505 H   0  0  0  0  0  0  0  0  0  0  0  0
   -8.7655   22.9767  -32.4505 H   0  0  0  0  0  0  0  0  0  0  0  0
   -8.9219   21.1282  -30.8774 H   0  0  0  0  0  0  0  0  0  0  0  0
   -9.6340   18.7371  -31.0596 H   0  0  0  0  0  0  0  0  0  0  0  0
   -8.3097   17.1522  -32.4712 H   0  0  0  0  0  0  0  0  0  0  0  0
   -6.2931   17.9847  -33.6929 H   0  0  0  0  0  0  0  0  0  0  0  0
   -5.6670   20.3000  -33.4940 H   0  0  0  0  0  0  0  0  0  0  0  0
  1  2  1  0
  2  3  2  3
  3  4  1  0
  4  5  3  0
  3  6  1  0
  6  7  3  0
  2  8  1  0
  8  9  2  0
  9 10  1  0
 10 11  2  0
 11 12  1  0
 12 13  2  0
 13  8  1  0
  1 14  1  0
  1 15  1  0
  1 16  1  0
  9 17  1  0
 10 18  1  0
 11 19  1  0
 12 20  1  0
 13 21  1  0
M  CHG  1  13   1
M  END
>  <UniqueID>  (27) 
24

>  <SMILES>  (27) 
CC(=C(C#N)C#N)c1cccc[nH+]1

>  <Energy>  (27) 
24.98911345124255

>  <Genealogy>  (27) 
CC(=C(C#N)C#N)c1cccc[nH+]1 (protonated)
CC(=C(C#N)C#N)c1cccc[nH+]1 (3D coordinates assigned)
CC(=C(C#N)C#N)c1cccc[nH+]1 (optimized conformer: 24.98911345124255 kcal/mol)

>  <smiles>  (27) 
CC(=C(C#N)C#N)c1ccccn1

>  <score_type>  (27) 
oracle

>  <origin>  (27) 
adg

>  <m_score__min__energy>  (27) 
-4.8700000000000001

>  <m_primary>  (27) 
energy

$$$$
27:0
     RDKit          3D

 20 20  0  0  0  0  0  0  0  0999 V2000
   -9.8096   21.2334  -30.5595 H   0  0  0  0  0  0  0  0  0  0  0  0
   -8.7660   21.3840  -30.8730 C   0  0  0  0  0  0  0  0  0  0  0  0
   -8.0050   22.4020  -30.2910 C   0  0  0  0  0  0  0  0  0  0  0  0
   -8.4487   23.0414  -29.5137 H   0  0  0  0  0  0  0  0  0  0  0  0
   -6.6750   22.6120  -30.6950 C   0  0  0  0  0  0  0  0  0  0  0  0
   -5.8620   23.6360  -30.0940 N   0  0  0  0  0  0  0  0  0  0  0  0
   -6.1620   24.0170  -29.1680 H   0  0  0  0  0  0  0  0  0  0  0  0
   -4.6100   24.0980  -30.6270 C   0  0  0  0  0  0  0  0  0  0  0  0
   -3.9960   23.3990  -31.5380 N   0  0  0  0  0  0  0  0  0  0  0  0
   -2.9570   22.4920  -31.2740 C   0  0  0  0  0  0  0  0  0  0  0  0
   -2.1000   21.7450  -31.0580 N   0  0  0  0  0  0  0  0  0  0  0  0
   -4.0330   25.2980  -30.0940 N   0  0  0  0  0  0  0  0  0  0  0  0
   -3.1170   25.6720  -30.4260 H   0  0  0  0  0  0  0  0  0  0  0  0
   -4.5370   25.8350  -29.3540 H   0  0  0  0  0  0  0  0  0  0  0  0
   -6.1110   21.7640  -31.6590 C   0  0  0  0  0  0  0  0  0  0  0  0
   -5.0615   21.9015  -31.9584 H   0  0  0  0  0  0  0  0  0  0  0  0
   -6.8710   20.7440  -32.2440 C   0  0  0  0  0  0  0  0  0  0  0  0
   -6.1260   19.7180  -33.4610 Cl  0  0  0  0  0  0  0  0  0  0  0  0
   -8.2070   20.5560  -31.8520 C   0  0  0  0  0  0  0  0  0  0  0  0
   -9.1960   19.2870  -32.5600 Cl  0  0  0  0  0  0  0  0  0  0  0  0
  1  2  1  0
  2  3  2  0
  3  4  1  0
  3  5  1  0
  5  6  1  0
  6  7  1  0
  6  8  1  0
  8  9  2  0
  9 10  1  0
 10 11  3  0
  8 12  1  0
 12 13  1  0
 12 14  1  0
  5 15  2  0
 15 16  1  0
 15 17  1  0
 17 18  1  0
 17 19  2  0
 19 20  1  0
 19  2  1  0
M  END
>  <UniqueID>  (28) 
25

>  <SMILES>  (28) 
N#C/N=C(\N)Nc1ccc(Cl)c(Cl)c1

>  <Energy>  (28) 
22.641421473977122

>  <Genealogy>  (28) 
N#C/N=C(\N)Nc1ccc(Cl)c(Cl)c1 (cis-trans isomerization)
N#C/N=C(\N)Nc1ccc(Cl)c(Cl)c1 (3D coordinates assigned)
N#C/N=C(\N)Nc1ccc(Cl)c(Cl)c1 (optimized conformer: 22.641421473977122 kcal/mol)

>  <smiles>  (28) 
N#CN=C(N)Nc1ccc(Cl)c(Cl)c1

>  <score_type>  (28) 
oracle

>  <origin>  (28) 
adg

>  <m_score__min__energy>  (28) 
-6.6500000000000004

>  <m_primary>  (28) 
energy

$$$$
28:0
     RDKit          3D

 33 34  0  0  0  0  0  0  0  0999 V2000
   -6.1880   17.9710  -31.9230 C   0  0  0  0  0  0  0  0  0  0  0  0
   -7.2270   19.0530  -31.9290 C   0  0  0  0  0  0  0  0  0  0  0  0
   -8.5420   18.7690  -32.3290 C   0  0  0  0  0  0  0  0  0  0  0  0
   -9.4980   19.7860  -32.3780 C   0  0  0  0  0  0  0  0  0  0  0  0
   -9.1480   21.0950  -32.0380 C   0  0  0  0  0  0  0  0  0  0  0  0
   -7.8340   21.3980  -31.6470 C   0  0  0  0  0  0  0  0  0  0  0  0
   -7.4480   22.8190  -31.3270 C   0  0  0  0  0  0  0  0  0  0  0  0
   -6.8020   22.9330  -29.9410 C   0  0  0  0  0  0  0  0  0  0  0  0
   -6.2870   24.2880  -29.7180 N   0  0  0  0  0  0  0  0  0  0  0  0
   -4.5640   24.3020  -29.9380 S   0  0  0  0  0  0  0  0  0  0  0  0
   -4.1790   25.4380  -30.8460 O   0  0  0  0  0  0  0  0  0  0  0  0
   -3.8920   24.4970  -28.6090 O   0  0  0  0  0  0  0  0  0  0  0  0
   -4.0290   22.7820  -30.6330 C   0  0  0  0  0  0  0  0  0  0  0  0
   -3.4170   21.7520  -29.9330 C   0  0  0  0  0  0  0  0  0  0  0  0
   -3.1360   20.6410  -30.7360 C   0  0  0  0  0  0  0  0  0  0  0  0
   -3.5340   20.8060  -32.0560 C   0  0  0  0  0  0  0  0  0  0  0  0
   -3.3330   19.5210  -33.4500 Br  0  0  0  0  0  0  0  0  0  0  0  0
   -4.2350   22.3240  -32.2370 S   0  0  0  0  0  0  0  0  0  0  0  0
   -6.8740   20.3740  -31.6050 C   0  0  0  0  0  0  0  0  0  0  0  0
   -5.9369   17.7095  -30.8845 H   0  0  0  0  0  0  0  0  0  0  0  0
   -6.5804   17.0829  -32.4401 H   0  0  0  0  0  0  0  0  0  0  0  0
   -5.2848   18.3271  -32.4401 H   0  0  0  0  0  0  0  0  0  0  0  0
   -8.8208   17.7413  -32.6050 H   0  0  0  0  0  0  0  0  0  0  0  0
  -10.5289   19.5557  -32.6850 H   0  0  0  0  0  0  0  0  0  0  0  0
   -9.9053   21.8919  -32.0768 H   0  0  0  0  0  0  0  0  0  0  0  0
   -6.7327   23.1731  -32.0839 H   0  0  0  0  0  0  0  0  0  0  0  0
   -8.3616   23.4316  -31.3308 H   0  0  0  0  0  0  0  0  0  0  0  0
   -7.5539   22.7016  -29.1722 H   0  0  0  0  0  0  0  0  0  0  0  0
   -5.9643   22.2226  -29.8822 H   0  0  0  0  0  0  0  0  0  0  0  0
   -6.4550   24.5440  -28.7180 H   0  0  0  0  0  0  0  0  0  0  0  0
   -3.1781   21.8034  -28.8605 H   0  0  0  0  0  0  0  0  0  0  0  0
   -2.6491   19.7293  -30.3596 H   0  0  0  0  0  0  0  0  0  0  0  0
   -5.8385   20.6076  -31.3165 H   0  0  0  0  0  0  0  0  0  0  0  0
  1  2  1  0
  2  3  2  0
  3  4  1  0
  4  5  2  0
  5  6  1  0
  6  7  1  0
  7  8  1  0
  8  9  1  0
  9 10  1  0
 10 11  2  0
 10 12  2  0
 10 13  1  0
 13 14  2  0
 14 15  1  0
 15 16  2  0
 16 17  1  0
 16 18  1  0
  6 19  2  0
 19  2  1  0
 18 13  1  0
  1 20  1  0
  1 21  1  0
  1 22  1  0
  3 23  1  0
  4 24  1  0
  5 25  1  0
  7 26  1  0
  7 27  1  0
  8 28  1  0
  8 29  1  0
  9 30  1  0
 14 31  1  0
 15 32  1  0
 19 33  1  0
M  END
>  <UniqueID>  (29) 
26

>  <SMILES>  (29) 
Cc1cccc(CCNS(=O)(=O)c2ccc(Br)s2)c1

>  <Energy>  (29) 
53.15910450491945

>  <Genealogy>  (29) 
Cc1cccc(CCNS(=O)(=O)c2ccc(Br)s2)c1 (3D coordinates assigned)
Cc1cccc(CCNS(=O)(=O)c2ccc(Br)s2)c1 (optimized conformer: 53.15910450491945 kcal/mol)

>  <smiles>  (29) 
Cc1cccc(CCNS(=O)(=O)c2ccc(Br)s2)c1

>  <score_type>  (29) 
oracle

>  <origin>  (29) 
adg

>  <m_score__min__energy>  (29) 
-8.9399999999999995

>  <m_primary>  (29) 
energy

$$$$
29:0
     RDKit          3D

 39 41  0  0  0  0  0  0  0  0999 V2000
   -4.3180   26.3930  -31.0670 H   0  0  0  0  0  0  0  0  0  0  0  0
   -4.4860   25.4010  -30.7840 N   0  0  0  0  0  0  0  0  0  0  0  0
   -3.5130   24.6220  -30.4410 C   0  0  0  0  0  0  0  0  0  0  0  0
   -2.7230   24.9550  -29.3690 N   0  0  0  0  0  0  0  0  0  0  0  0
   -1.6870   24.1570  -28.9750 C   0  0  0  0  0  0  0  0  0  0  0  0
   -0.9730   24.4730  -27.9880 O   0  0  0  0  0  0  0  0  0  0  0  0
   -1.4530   22.9960  -29.6960 C   0  0  0  0  0  0  0  0  0  0  0  0
   -0.5180   22.0450  -29.5090 N   0  0  0  0  0  0  0  0  0  0  0  0
   -0.7920   21.1570  -30.5060 C   0  0  0  0  0  0  0  0  0  0  0  0
   -0.2201   20.2308  -30.6647 H   0  0  0  0  0  0  0  0  0  0  0  0
   -1.8410   21.5290  -31.2840 N   0  0  0  0  0  0  0  0  0  0  0  0
   -2.4330   20.7940  -32.4000 C   0  0  0  0  0  0  0  0  0  0  0  0
   -2.2779   21.3648  -33.3275 H   0  0  0  0  0  0  0  0  0  0  0  0
   -1.9476   19.8089  -32.4634 H   0  0  0  0  0  0  0  0  0  0  0  0
   -3.9360   20.5800  -32.1910 C   0  0  0  0  0  0  0  0  0  0  0  0
   -4.2090   19.5850  -32.5724 H   0  0  0  0  0  0  0  0  0  0  0  0
   -4.1439   20.6654  -31.1142 H   0  0  0  0  0  0  0  0  0  0  0  0
   -4.7810   21.6430  -32.9240 C   0  0  0  0  0  0  0  0  0  0  0  0
   -4.1262   22.2120  -33.6003 H   0  0  0  0  0  0  0  0  0  0  0  0
   -5.5731   21.1210  -33.4809 H   0  0  0  0  0  0  0  0  0  0  0  0
   -5.4320   22.5880  -31.9800 N   0  0  0  0  0  0  0  0  0  0  0  0
   -4.7720   23.3880  -31.8180 H   0  0  0  0  0  0  0  0  0  0  0  0
   -5.6220   21.9300  -30.6600 C   0  0  0  0  0  0  0  0  0  0  0  0
   -5.9731   20.9003  -30.8228 H   0  0  0  0  0  0  0  0  0  0  0  0
   -4.6575   21.9402  -30.1312 H   0  0  0  0  0  0  0  0  0  0  0  0
   -6.6460   22.6720  -29.7960 C   0  0  0  0  0  0  0  0  0  0  0  0
   -6.7121   22.1803  -28.8142 H   0  0  0  0  0  0  0  0  0  0  0  0
   -6.3183   23.7159  -29.6826 H   0  0  0  0  0  0  0  0  0  0  0  0
   -8.0350   22.6630  -30.4580 C   0  0  0  0  0  0  0  0  0  0  0  0
   -8.6180   21.8279  -30.0423 H   0  0  0  0  0  0  0  0  0  0  0  0
   -8.5100   23.6329  -30.2491 H   0  0  0  0  0  0  0  0  0  0  0  0
   -7.9610   22.5000  -31.9840 C   0  0  0  0  0  0  0  0  0  0  0  0
   -7.9501   21.4281  -32.2308 H   0  0  0  0  0  0  0  0  0  0  0  0
   -8.8383   22.9905  -32.4310 H   0  0  0  0  0  0  0  0  0  0  0  0
   -6.6930   23.1580  -32.5490 C   0  0  0  0  0  0  0  0  0  0  0  0
   -6.6808   23.0151  -33.6396 H   0  0  0  0  0  0  0  0  0  0  0  0
   -6.7253   24.2224  -32.2732 H   0  0  0  0  0  0  0  0  0  0  0  0
   -2.2420   22.6880  -30.7490 C   0  0  0  0  0  0  0  0  0  0  0  0
   -3.2740   23.4720  -31.1450 N   0  0  0  0  0  0  0  0  0  0  0  0
  1  2  1  0
  2  3  2  0
  3  4  1  0
  4  5  1  0
  5  6  2  0
  5  7  1  0
  7  8  1  0
  8  9  2  0
  9 10  1  0
  9 11  1  0
 11 12  1  0
 12 13  1  0
 12 14  1  0
 12 15  1  0
 15 16  1  0
 15 17  1  0
 15 18  1  0
 18 19  1  0
 18 20  1  0
 18 21  1  0
 21 22  1  0
 21 23  1  0
 23 24  1  0
 23 25  1  0
 23 26  1  0
 26 27  1  0
 26 28  1  0
 26 29  1  0
 29 30  1  0
 29 31  1  0
 29 32  1  0
 32 33  1  0
 32 34  1  0
 32 35  1  0
 35 36  1  0
 35 37  1  0
 11 38  1  0
 38 39  1  0
 39  3  1  0
 38  7  2  0
 35 21  1  0
M  CHG  3   4  -1  21   1  39  -1
M  END
>  <UniqueID>  (30) 
27

>  <SMILES>  (30) 
[H]/N=c1/[n-]c(=O)c2ncn(CCC[NH+]3CCCCC3)c2[n-]1

>  <Energy>  (30) 
85.19041236786958

>  <Genealogy>  (30) 
N=c1[n-]c(=O)c2ncn(CCC[NH+]3CCCCC3)c2[n-]1 (protonated)
[H]/N=c1/[n-]c(=O)c2ncn(CCC[NH+]3CCCCC3)c2[n-]1 (cis-trans isomerization)
[H]/N=c1/[n-]c(=O)c2ncn(CCC[NH+]3CCCCC3)c2[n-]1 (3D coordinates assigned)
[H]/N=c1/[n-]c(=O)c2ncn(CCC[NH+]3CCCCC3)c2[n-]1 (nonaromatic ring conformer: 85.19041236786958 kcal/mol)

>  <smiles>  (30) 
N=c1[nH]c(=O)c2ncn(CCCN3CCCCC3)c2[nH]1

>  <score_type>  (30) 
oracle

>  <origin>  (30) 
adg

>  <m_score__min__energy>  (30) 
-8.6300000000000008

>  <m_primary>  (30) 
energy

$$$$
30:0
     RDKit          3D

 31 33  0  0  0  0  0  0  0  0999 V2000
   -5.4760   20.2650  -32.7480 C   0  0  0  0  0  0  0  0  0  0  0  0
   -6.8320   20.7550  -32.3140 C   0  0  0  0  0  0  0  0  0  0  0  0
   -7.9690   20.0120  -32.6760 C   0  0  0  0  0  0  0  0  0  0  0  0
   -9.2460   20.4470  -32.3210 C   0  0  0  0  0  0  0  0  0  0  0  0
   -9.4050   21.6280  -31.5970 C   0  0  0  0  0  0  0  0  0  0  0  0
   -8.2860   22.3700  -31.2150 C   0  0  0  0  0  0  0  0  0  0  0  0
   -6.9890   21.9430  -31.5540 C   0  0  0  0  0  0  0  0  0  0  0  0
   -5.8560   22.7170  -31.1170 N   0  0  0  0  0  0  0  0  0  0  0  0
   -5.5440   23.0440  -29.8460 C   0  0  0  0  0  0  0  0  0  0  0  0
   -4.3540   23.7470  -29.9000 C   0  0  0  0  0  0  0  0  0  0  0  0
   -3.5880   24.3340  -28.7820 C   0  0  0  0  0  0  0  0  0  0  0  0
   -4.0870   24.3380  -27.4670 C   0  0  0  0  0  0  0  0  0  0  0  0
   -3.3240   24.9040  -26.4450 C   0  0  0  0  0  0  0  0  0  0  0  0
   -2.0770   25.4610  -26.7330 C   0  0  0  0  0  0  0  0  0  0  0  0
   -1.6110   25.4410  -28.0480 C   0  0  0  0  0  0  0  0  0  0  0  0
   -2.3680   24.8850  -29.0320 N   0  0  0  0  0  0  0  0  0  0  0  0
   -3.9880   23.8120  -31.1940 N   0  0  0  0  0  0  0  0  0  0  0  0
   -4.9040   23.1810  -31.9120 N   0  0  0  0  0  0  0  0  0  0  0  0
   -4.8647   20.0441  -31.8606 H   0  0  0  0  0  0  0  0  0  0  0  0
   -5.5916   19.3518  -33.3502 H   0  0  0  0  0  0  0  0  0  0  0  0
   -4.9811   21.0412  -33.3502 H   0  0  0  0  0  0  0  0  0  0  0  0
   -7.8506   19.0781  -33.2450 H   0  0  0  0  0  0  0  0  0  0  0  0
  -10.1281   19.8580  -32.6124 H   0  0  0  0  0  0  0  0  0  0  0  0
  -10.4131   21.9753  -31.3266 H   0  0  0  0  0  0  0  0  0  0  0  0
   -8.4199   23.2995  -30.6422 H   0  0  0  0  0  0  0  0  0  0  0  0
   -6.1228   22.7994  -28.9431 H   0  0  0  0  0  0  0  0  0  0  0  0
   -5.0709   23.8985  -27.2460 H   0  0  0  0  0  0  0  0  0  0  0  0
   -3.7050   24.9112  -25.4131 H   0  0  0  0  0  0  0  0  0  0  0  0
   -1.4694   25.9100  -25.9335 H   0  0  0  0  0  0  0  0  0  0  0  0
   -0.6298   25.8756  -28.2894 H   0  0  0  0  0  0  0  0  0  0  0  0
   -3.1370   24.2680  -31.5910 H   0  0  0  0  0  0  0  0  0  0  0  0
  1  2  1  0
  2  3  2  0
  3  4  1  0
  4  5  2  0
  5  6  1  0
  6  7  2  0
  7  8  1  0
  8  9  1  0
  9 10  2  0
 10 11  1  0
 11 12  2  0
 12 13  1  0
 13 14  2  0
 14 15  1  0
 15 16  2  0
 10 17  1  0
 17 18  2  0
  7  2  1  0
 18  8  1  0
 16 11  1  0
  1 19  1  0
  1 20  1  0
  1 21  1  0
  3 22  1  0
  4 23  1  0
  5 24  1  0
  6 25  1  0
  9 26  1  0
 12 27  1  0
 13 28  1  0
 14 29  1  0
 15 30  1  0
 17 31  1  0
M  CHG  1  17   1
M  END
>  <UniqueID>  (31) 
28

>  <SMILES>  (31) 
Cc1ccccc1-n1cc(-c2ccccn2)[nH+]n1

>  <Energy>  (31) 
75.54228527643751

>  <Genealogy>  (31) 
Cc1ccccc1-n1cc(-c2ccccn2)[nH+]n1 (protonated)
Cc1ccccc1-n1cc(-c2ccccn2)[nH+]n1 (3D coordinates assigned)
Cc1ccccc1-n1cc(-c2ccccn2)[nH+]n1 (optimized conformer: 75.54228527643751 kcal/mol)

>  <smiles>  (31) 
Cc1ccccc1-n1cc(-c2ccccn2)nn1

>  <score_type>  (31) 
oracle

>  <origin>  (31) 
adg

>  <m_score__min__energy>  (31) 
-7.0899999999999999

>  <m_primary>  (31) 
energy

$$$$
31:0
     RDKit          3D

 27 29  0  0  0  0  0  0  0  0999 V2000
   -3.8680   25.3000  -30.5010 O   0  0  0  0  0  0  0  0  0  0  0  0
   -4.0770   24.0560  -30.4900 C   0  0  0  0  0  0  0  0  0  0  0  0
   -5.2810   23.5570  -30.9950 C   0  0  0  0  0  0  0  0  0  0  0  0
   -5.5150   22.1670  -30.9820 C   0  0  0  0  0  0  0  0  0  0  0  0
   -6.7740   21.5500  -31.5020 C   0  0  0  0  0  0  0  0  0  0  0  0
   -7.9880   21.7960  -30.8330 C   0  0  0  0  0  0  0  0  0  0  0  0
   -9.1800   21.2360  -31.2930 C   0  0  0  0  0  0  0  0  0  0  0  0
   -9.1620   20.4250  -32.4250 C   0  0  0  0  0  0  0  0  0  0  0  0
   -7.9910   20.1860  -33.0720 N   0  0  0  0  0  0  0  0  0  0  0  0
   -6.8130   20.7200  -32.6450 C   0  0  0  0  0  0  0  0  0  0  0  0
   -4.5770   21.3580  -30.4870 O   0  0  0  0  0  0  0  0  0  0  0  0
   -3.4180   21.7880  -29.9970 C   0  0  0  0  0  0  0  0  0  0  0  0
   -2.4920   20.8680  -29.4980 C   0  0  0  0  0  0  0  0  0  0  0  0
   -1.2710   21.3100  -28.9810 C   0  0  0  0  0  0  0  0  0  0  0  0
   -0.9710   22.6750  -28.9600 C   0  0  0  0  0  0  0  0  0  0  0  0
    0.2150   23.0980  -28.4570 F   0  0  0  0  0  0  0  0  0  0  0  0
   -1.8890   23.6050  -29.4570 C   0  0  0  0  0  0  0  0  0  0  0  0
   -3.1210   23.1680  -29.9800 C   0  0  0  0  0  0  0  0  0  0  0  0
   -6.0397   24.2433  -31.3992 H   0  0  0  0  0  0  0  0  0  0  0  0
   -7.9967   22.4362  -29.9386 H   0  0  0  0  0  0  0  0  0  0  0  0
  -10.1254   21.4332  -30.7664 H   0  0  0  0  0  0  0  0  0  0  0  0
  -10.0961   19.9776  -32.7956 H   0  0  0  0  0  0  0  0  0  0  0  0
   -7.9960   19.5750  -33.9200 H   0  0  0  0  0  0  0  0  0  0  0  0
   -5.8848   20.5035  -33.1942 H   0  0  0  0  0  0  0  0  0  0  0  0
   -2.7247   19.7930  -29.5121 H   0  0  0  0  0  0  0  0  0  0  0  0
   -0.5448   20.5822  -28.5899 H   0  0  0  0  0  0  0  0  0  0  0  0
   -1.6487   24.6783  -29.4394 H   0  0  0  0  0  0  0  0  0  0  0  0
  1  2  2  0
  2  3  1  0
  3  4  2  0
  4  5  1  0
  5  6  2  0
  6  7  1  0
  7  8  2  0
  8  9  1  0
  9 10  2  0
  4 11  1  0
 11 12  1  0
 12 13  2  0
 13 14  1  0
 14 15  2  0
 15 16  1  0
 15 17  1  0
 17 18  2  0
 18  2  1  0
 10  5  1  0
 18 12  1  0
  3 19  1  0
  6 20  1  0
  7 21  1  0
  8 22  1  0
  9 23  1  0
 10 24  1  0
 13 25  1  0
 14 26  1  0
 17 27  1  0
M  CHG  1   9   1
M  END
>  <UniqueID>  (32) 
29

>  <SMILES>  (32) 
O=c1cc(-c2ccc[nH+]c2)oc2ccc(F)cc12

>  <Energy>  (32) 
39.26093395851394

>  <Genealogy>  (32) 
O=c1cc(-c2ccc[nH+]c2)oc2ccc(F)cc12 (protonated)
O=c1cc(-c2ccc[nH+]c2)oc2ccc(F)cc12 (3D coordinates assigned)
O=c1cc(-c2ccc[nH+]c2)oc2ccc(F)cc12 (optimized conformer: 39.26093395851394 kcal/mol)

>  <smiles>  (32) 
O=c1cc(-c2cccnc2)oc2ccc(F)cc12

>  <score_type>  (32) 
oracle

>  <origin>  (32) 
adg

>  <m_score__min__energy>  (32) 
-6.2000000000000002

>  <m_primary>  (32) 
energy

$$$$
32:0
     RDKit          3D

 30 31  0  0  0  0  0  0  0  0999 V2000
   -6.4830   25.6790  -29.3450 C   0  0  0  0  0  0  0  0  0  0  0  0
   -7.1490   24.6860  -30.2940 C   0  0  0  0  0  0  0  0  0  0  0  0
   -6.1940   24.1940  -31.3900 C   0  0  0  0  0  0  0  0  0  0  0  0
   -5.0570   23.4510  -30.8310 N   0  0  0  0  0  0  0  0  0  0  0  0
   -3.8430   24.0760  -30.4330 C   0  0  0  0  0  0  0  0  0  0  0  0
   -3.6210   25.2990  -30.6400 O   0  0  0  0  0  0  0  0  0  0  0  0
   -2.8560   23.2160  -29.7460 C   0  0  0  0  0  0  0  0  0  0  0  0
   -3.5340   21.5250  -29.7440 S   0  0  0  0  0  0  0  0  0  0  0  0
   -5.1470   22.0460  -30.4420 C   0  0  2  0  0  0  0  0  0  0  0  0
   -5.5040   21.1700  -31.6290 C   0  0  0  0  0  0  0  0  0  0  0  0
   -4.4860   20.7170  -32.4970 C   0  0  0  0  0  0  0  0  0  0  0  0
   -3.1880   21.0540  -32.2820 F   0  0  0  0  0  0  0  0  0  0  0  0
   -4.7950   19.9130  -33.5970 C   0  0  0  0  0  0  0  0  0  0  0  0
   -6.1160   19.5480  -33.8500 C   0  0  0  0  0  0  0  0  0  0  0  0
   -7.1350   19.9830  -33.0040 C   0  0  0  0  0  0  0  0  0  0  0  0
   -6.8430   20.7900  -31.8960 C   0  0  0  0  0  0  0  0  0  0  0  0
   -8.1920   21.2920  -30.8810 Cl  0  0  0  0  0  0  0  0  0  0  0  0
   -6.6822   25.3821  -28.3047 H   0  0  0  0  0  0  0  0  0  0  0  0
   -5.3975   25.6850  -29.5232 H   0  0  0  0  0  0  0  0  0  0  0  0
   -6.8894   26.6855  -29.5232 H   0  0  0  0  0  0  0  0  0  0  0  0
   -7.4955   23.8192  -29.7121 H   0  0  0  0  0  0  0  0  0  0  0  0
   -7.9867   25.2021  -30.7858 H   0  0  0  0  0  0  0  0  0  0  0  0
   -6.7477   23.5349  -32.0749 H   0  0  0  0  0  0  0  0  0  0  0  0
   -5.7998   25.0739  -31.9195 H   0  0  0  0  0  0  0  0  0  0  0  0
   -1.8967   23.2378  -30.2838 H   0  0  0  0  0  0  0  0  0  0  0  0
   -2.6754   23.5680  -28.7196 H   0  0  0  0  0  0  0  0  0  0  0  0
   -5.9422   21.9328  -29.6904 H   0  0  0  0  0  0  0  0  0  0  0  0
   -3.9930   19.5669  -34.2656 H   0  0  0  0  0  0  0  0  0  0  0  0
   -6.3548   18.9160  -34.7181 H   0  0  0  0  0  0  0  0  0  0  0  0
   -8.1757   19.6908  -33.2075 H   0  0  0  0  0  0  0  0  0  0  0  0
  1  2  1  0
  2  3  1  0
  3  4  1  0
  4  5  1  0
  5  6  2  0
  5  7  1  0
  7  8  1  0
  8  9  1  0
  9 10  1  0
 10 11  2  0
 11 12  1  0
 11 13  1  0
 13 14  2  0
 14 15  1  0
 15 16  2  0
 16 17  1  0
  9  4  1  0
 16 10  1  0
  1 18  1  0
  1 19  1  0
  1 20  1  0
  2 21  1  0
  2 22  1  0
  3 23  1  0
  3 24  1  0
  7 25  1  0
  7 26  1  0
  9 27  1  1
 13 28  1  0
 14 29  1  0
 15 30  1  0
M  END
>  <UniqueID>  (33) 
30

>  <SMILES>  (33) 
CCCN1C(=O)CS[C@@H]1c1c(F)cccc1Cl

>  <Energy>  (33) 
24.584526860883287

>  <Genealogy>  (33) 
CCCN1C(=O)CS[C@@H]1c1c(F)cccc1Cl (chirality)
CCCN1C(=O)CS[C@@H]1c1c(F)cccc1Cl (3D coordinates assigned)
CCCN1C(=O)CS[C@@H]1c1c(F)cccc1Cl (nonaromatic ring conformer: 24.584526860883287 kcal/mol)

>  <smiles>  (33) 
CCCN1C(=O)CSC1c1c(F)cccc1Cl

>  <score_type>  (33) 
oracle

>  <origin>  (33) 
adg

>  <m_score__min__energy>  (33) 
-6.4100000000000001

>  <m_primary>  (33) 
energy

$$$$
33:0
     RDKit          3D

 56 60  0  0  0  0  0  0  0  0999 V2000
    1.0210   12.7270  -35.3420 C   0  0  0  0  0  0  0  0  0  0  0  0
   -0.3520   12.4850  -35.0530 O   0  0  0  0  0  0  0  0  0  0  0  0
   -1.2550   13.4650  -34.6110 C   0  0  0  0  0  0  0  0  0  0  0  0
   -1.4010   13.7880  -33.2490 C   0  0  0  0  0  0  0  0  0  0  0  0
   -2.3120   14.7690  -32.8480 C   0  0  0  0  0  0  0  0  0  0  0  0
   -3.0970   15.4440  -33.7980 C   0  0  0  0  0  0  0  0  0  0  0  0
   -4.0600   16.4910  -33.3780 C   0  0  0  0  0  0  0  0  0  0  0  0
   -3.8900   17.8160  -33.8190 C   0  0  0  0  0  0  0  0  0  0  0  0
   -4.7950   18.8240  -33.4350 C   0  0  0  0  0  0  0  0  0  0  0  0
   -4.6520   20.1560  -33.8560 O   0  0  0  0  0  0  0  0  0  0  0  0
   -3.4370   20.8940  -33.8030 C   0  0  0  0  0  0  0  0  0  0  0  0
   -5.8770   18.4960  -32.6010 C   0  0  0  0  0  0  0  0  0  0  0  0
   -6.8150   19.5120  -32.1940 N   0  0  0  0  0  0  0  0  0  0  0  0
   -8.1460   19.3280  -32.4800 C   0  0  0  0  0  0  0  0  0  0  0  0
   -8.5370   18.2830  -33.0710 O   0  0  0  0  0  0  0  0  0  0  0  0
   -9.0880   20.2950  -32.1310 C   0  0  0  0  0  0  0  0  0  0  0  0
   -8.6820   21.4580  -31.4900 C   0  0  0  0  0  0  0  0  0  0  0  0
   -7.3320   21.6540  -31.1900 C   0  0  0  0  0  0  0  0  0  0  0  0
   -6.9140   22.8270  -30.5460 C   0  0  0  0  0  0  0  0  0  0  0  0
   -5.5610   23.0280  -30.2490 C   0  0  0  0  0  0  0  0  0  0  0  0
   -5.0240   24.5150  -29.4750 S   0  0  0  0  0  0  0  0  0  0  0  0
   -5.9600   25.6480  -29.7870 O   0  0  0  0  0  0  0  0  0  0  0  0
   -4.9860   24.3060  -27.9880 O   0  0  0  0  0  0  0  0  0  0  0  0
   -3.4320   24.9280  -30.0330 N   0  0  0  0  0  0  0  0  0  0  0  0
   -2.3560   24.8160  -29.3160 C   0  0  0  0  0  0  0  0  0  0  0  0
   -2.0330   23.7910  -28.4480 C   0  0  0  0  0  0  0  0  0  0  0  0
   -0.8010   24.1720  -27.9580 C   0  0  0  0  0  0  0  0  0  0  0  0
   -0.4360   25.3470  -28.5120 N   0  0  0  0  0  0  0  0  0  0  0  0
   -1.3930   25.7030  -29.3200 O   0  0  0  0  0  0  0  0  0  0  0  0
   -4.6270   22.0430  -30.5820 C   0  0  0  0  0  0  0  0  0  0  0  0
   -5.0310   20.8690  -31.2200 C   0  0  0  0  0  0  0  0  0  0  0  0
   -6.3890   20.6560  -31.5470 C   0  0  0  0  0  0  0  0  0  0  0  0
   -6.0500   17.1760  -32.1650 C   0  0  0  0  0  0  0  0  0  0  0  0
   -5.1510   16.1790  -32.5480 C   0  0  0  0  0  0  0  0  0  0  0  0
   -5.3700   14.9040  -32.1340 F   0  0  0  0  0  0  0  0  0  0  0  0
   -2.9460   15.1240  -35.1570 C   0  0  0  0  0  0  0  0  0  0  0  0
   -2.0350   14.1420  -35.5610 C   0  0  0  0  0  0  0  0  0  0  0  0
   -1.8870   13.7600  -37.2700 Cl  0  0  0  0  0  0  0  0  0  0  0  0
    1.5819   12.8259  -34.4009 H   0  0  0  0  0  0  0  0  0  0  0  0
    1.4268   11.8865  -35.9242 H   0  0  0  0  0  0  0  0  0  0  0  0
    1.1150   13.6556  -35.9242 H   0  0  0  0  0  0  0  0  0  0  0  0
   -0.7942   13.2649  -32.4952 H   0  0  0  0  0  0  0  0  0  0  0  0
   -2.4153   15.0145  -31.7807 H   0  0  0  0  0  0  0  0  0  0  0  0
   -3.0406   18.0674  -34.4711 H   0  0  0  0  0  0  0  0  0  0  0  0
   -3.1569   21.0642  -32.7530 H   0  0  0  0  0  0  0  0  0  0  0  0
   -2.6411   20.3266  -34.3075 H   0  0  0  0  0  0  0  0  0  0  0  0
   -3.5736   21.8619  -34.3075 H   0  0  0  0  0  0  0  0  0  0  0  0
  -10.1515   20.1368  -32.3632 H   0  0  0  0  0  0  0  0  0  0  0  0
   -9.4230   22.2243  -31.2187 H   0  0  0  0  0  0  0  0  0  0  0  0
   -7.6536   23.5939  -30.2725 H   0  0  0  0  0  0  0  0  0  0  0  0
   -2.6163   22.8902  -28.2064 H   0  0  0  0  0  0  0  0  0  0  0  0
   -0.2066   23.6043  -27.2269 H   0  0  0  0  0  0  0  0  0  0  0  0
   -3.5648   22.1942  -30.3393 H   0  0  0  0  0  0  0  0  0  0  0  0
   -4.2841   20.1014  -31.4709 H   0  0  0  0  0  0  0  0  0  0  0  0
   -6.9011   16.9230  -31.5156 H   0  0  0  0  0  0  0  0  0  0  0  0
   -3.5497   15.6504  -35.9110 H   0  0  0  0  0  0  0  0  0  0  0  0
  1  2  1  0
  2  3  1  0
  3  4  2  0
  4  5  1  0
  5  6  2  0
  6  7  1  0
  7  8  2  0
  8  9  1  0
  9 10  1  0
 10 11  1  0
  9 12  2  0
 12 13  1  0
 13 14  1  0
 14 15  2  0
 14 16  1  0
 16 17  2  0
 17 18  1  0
 18 19  2  0
 19 20  1  0
 20 21  1  0
 21 22  2  0
 21 23  2  0
 21 24  1  0
 24 25  2  3
 25 26  1  0
 26 27  2  0
 27 28  1  0
 28 29  1  0
 20 30  2  0
 30 31  1  0
 31 32  2  0
 12 33  1  0
 33 34  2  0
 34 35  1  0
  6 36  1  0
 36 37  2  0
 37 38  1  0
 37  3  1  0
 34  7  1  0
 32 13  1  0
 32 18  1  0
 29 25  1  0
  1 39  1  0
  1 40  1  0
  1 41  1  0
  4 42  1  0
  5 43  1  0
  8 44  1  0
 11 45  1  0
 11 46  1  0
 11 47  1  0
 16 48  1  0
 17 49  1  0
 19 50  1  0
 26 51  1  0
 27 52  1  0
 30 53  1  0
 31 54  1  0
 33 55  1  0
 36 56  1  0
M  CHG  1  28  -1
M  END
>  <UniqueID>  (34) 
31

>  <SMILES>  (34) 
COc1ccc(-c2cc(OC)c(-n3c(=O)ccc4cc(S(=O)(=O)N=c5cc[n-]o5)ccc43)cc2F)cc1Cl

>  <Energy>  (34) 
117.26494138047539

>  <Genealogy>  (34) 
COc1ccc(-c2cc(OC)c(-n3c(=O)ccc4cc(S(=O)(=O)N=c5cc[n-]o5)ccc43)cc2F)cc1Cl (protonated)
COc1ccc(-c2cc(OC)c(-n3c(=O)ccc4cc(S(=O)(=O)N=c5cc[n-]o5)ccc43)cc2F)cc1Cl (3D coordinates assigned)
COc1ccc(-c2cc(OC)c(-n3c(=O)ccc4cc(S(=O)(=O)N=c5cc[n-]o5)ccc43)cc2F)cc1Cl (optimized conformer: 117.26494138047539 kcal/mol)

>  <smiles>  (34) 
COc1ccc(-c2cc(OC)c(-n3c(=O)ccc4cc(S(=O)(=O)N=c5cc[nH]o5)ccc43)cc2F)cc1Cl

>  <score_type>  (34) 
oracle

>  <origin>  (34) 
adg

>  <m_score__min__energy>  (34) 
-12.1

>  <m_primary>  (34) 
energy

$$$$
34:0
     RDKit          3D

 37 39  0  0  0  0  0  0  0  0999 V2000
   -4.9890   23.8270  -29.4500 C   0  0  0  0  0  0  0  0  0  0  0  0
   -5.3840   25.0940  -30.0850 N   0  0  0  0  0  0  0  0  0  0  0  0
   -6.5020   25.6940  -29.3360 C   0  0  0  0  0  0  0  0  0  0  0  0
   -5.7620   24.8580  -31.4940 C   0  0  0  0  0  0  0  0  0  0  0  0
   -6.4380   23.5200  -31.6440 C   0  0  0  0  0  0  0  0  0  0  0  0
   -7.7950   23.3410  -31.2980 C   0  0  0  0  0  0  0  0  0  0  0  0
   -8.4270   22.0900  -31.4820 C   0  0  0  0  0  0  0  0  0  0  0  0
   -7.7140   20.9990  -32.0090 C   0  0  0  0  0  0  0  0  0  0  0  0
   -6.3670   21.1920  -32.3250 C   0  0  0  0  0  0  0  0  0  0  0  0
   -5.7600   22.4110  -32.1640 C   0  0  0  0  0  0  0  0  0  0  0  0
   -4.4730   22.2560  -32.6410 C   0  0  0  0  0  0  0  0  0  0  0  0
   -4.3420   20.9800  -33.0670 N   0  0  0  0  0  0  0  0  0  0  0  0
   -5.4840   20.3280  -32.8700 N   0  0  0  0  0  0  0  0  0  0  0  0
   -5.6870   18.9430  -33.2030 C   0  0  0  0  0  0  0  0  0  0  0  0
   -5.9170   18.0040  -32.1850 C   0  0  0  0  0  0  0  0  0  0  0  0
   -6.1340   16.6590  -32.5000 C   0  0  0  0  0  0  0  0  0  0  0  0
   -6.1360   16.2440  -33.8360 C   0  0  0  0  0  0  0  0  0  0  0  0
   -6.4100   14.5580  -34.2320 Cl  0  0  0  0  0  0  0  0  0  0  0  0
   -5.9260   17.1780  -34.8570 C   0  0  0  0  0  0  0  0  0  0  0  0
   -5.7070   18.5220  -34.5430 C   0  0  0  0  0  0  0  0  0  0  0  0
   -5.0238   23.9386  -28.3562 H   0  0  0  0  0  0  0  0  0  0  0  0
   -5.6814   23.0302  -29.7595 H   0  0  0  0  0  0  0  0  0  0  0  0
   -3.9665   23.5649  -29.7595 H   0  0  0  0  0  0  0  0  0  0  0  0
   -6.3157   25.5940  -28.2565 H   0  0  0  0  0  0  0  0  0  0  0  0
   -6.5878   26.7593  -29.5962 H   0  0  0  0  0  0  0  0  0  0  0  0
   -7.4372   25.1766  -29.5962 H   0  0  0  0  0  0  0  0  0  0  0  0
   -6.4515   25.6502  -31.8210 H   0  0  0  0  0  0  0  0  0  0  0  0
   -4.8520   24.8671  -32.1119 H   0  0  0  0  0  0  0  0  0  0  0  0
   -8.3663   24.1835  -30.8810 H   0  0  0  0  0  0  0  0  0  0  0  0
   -9.4861   21.9691  -31.2104 H   0  0  0  0  0  0  0  0  0  0  0  0
   -8.2008   20.0254  -32.1673 H   0  0  0  0  0  0  0  0  0  0  0  0
   -3.6941   23.0322  -32.6691 H   0  0  0  0  0  0  0  0  0  0  0  0
   -3.4770   20.5600  -33.4740 H   0  0  0  0  0  0  0  0  0  0  0  0
   -5.9266   18.3281  -31.1339 H   0  0  0  0  0  0  0  0  0  0  0  0
   -6.3032   15.9268  -31.6968 H   0  0  0  0  0  0  0  0  0  0  0  0
   -5.9333   16.8537  -35.9081 H   0  0  0  0  0  0  0  0  0  0  0  0
   -5.5495   19.2538  -35.3490 H   0  0  0  0  0  0  0  0  0  0  0  0
  1  2  1  0
  2  3  1  0
  2  4  1  0
  4  5  1  0
  5  6  2  0
  6  7  1  0
  7  8  2  0
  8  9  1  0
  9 10  2  0
 10 11  1  0
 11 12  2  0
 12 13  1  0
 13 14  1  0
 14 15  2  0
 15 16  1  0
 16 17  2  0
 17 18  1  0
 17 19  1  0
 19 20  2  0
 10  5  1  0
 20 14  1  0
 13  9  1  0
  1 21  1  0
  1 22  1  0
  1 23  1  0
  3 24  1  0
  3 25  1  0
  3 26  1  0
  4 27  1  0
  4 28  1  0
  6 29  1  0
  7 30  1  0
  8 31  1  0
 11 32  1  0
 12 33  1  0
 15 34  1  0
 16 35  1  0
 19 36  1  0
 20 37  1  0
M  CHG  1  12   1
M  END
>  <UniqueID>  (35) 
32

>  <SMILES>  (35) 
CN(C)Cc1cccc2c1c[nH+]n2-c1ccc(Cl)cc1

>  <Energy>  (35) 
82.92255785615097

>  <Genealogy>  (35) 
CN(C)Cc1cccc2c1c[nH+]n2-c1ccc(Cl)cc1 (protonated)
CN(C)Cc1cccc2c1c[nH+]n2-c1ccc(Cl)cc1 (3D coordinates assigned)
CN(C)Cc1cccc2c1c[nH+]n2-c1ccc(Cl)cc1 (optimized conformer: 82.92255785615097 kcal/mol)

>  <smiles>  (35) 
CN(C)Cc1cccc2c1cnn2-c1ccc(Cl)cc1

>  <score_type>  (35) 
oracle

>  <origin>  (35) 
adg

>  <m_score__min__energy>  (35) 
-6.8899999999999997

>  <m_primary>  (35) 
energy

$$$$
35:0
     RDKit          3D

 37 39  0  0  0  0  0  0  0  0999 V2000
   -4.4970   21.5600  -33.4130 O   0  0  0  0  0  0  0  0  0  0  0  0
   -5.3380   20.6280  -33.2850 C   0  0  0  0  0  0  0  0  0  0  0  0
   -4.9580   19.2470  -33.6760 C   0  0  0  0  0  0  0  0  0  0  0  0
   -3.8680   18.5910  -33.0750 C   0  0  0  0  0  0  0  0  0  0  0  0
   -3.5380   17.2880  -33.4510 C   0  0  0  0  0  0  0  0  0  0  0  0
   -4.3030   16.6430  -34.4230 C   0  0  0  0  0  0  0  0  0  0  0  0
   -5.3610   17.2800  -34.9900 N   0  0  0  0  0  0  0  0  0  0  0  0
   -5.7030   18.5480  -34.6400 C   0  0  0  0  0  0  0  0  0  0  0  0
   -6.6710   20.9450  -32.7220 C   0  0  0  0  0  0  0  0  0  0  0  0
   -7.6540   19.9390  -32.6890 C   0  0  0  0  0  0  0  0  0  0  0  0
   -8.8980   20.1810  -32.1050 C   0  0  0  0  0  0  0  0  0  0  0  0
   -9.8360   19.2010  -32.0780 F   0  0  0  0  0  0  0  0  0  0  0  0
   -9.1760   21.4260  -31.5440 C   0  0  0  0  0  0  0  0  0  0  0  0
   -8.2120   22.4350  -31.5660 C   0  0  0  0  0  0  0  0  0  0  0  0
   -6.9510   22.2100  -32.1500 C   0  0  0  0  0  0  0  0  0  0  0  0
   -5.9820   23.2720  -32.2070 N   0  0  0  0  0  0  0  0  0  0  0  0
   -5.4410   24.1200  -30.7940 S   0  0  0  0  0  0  0  0  0  0  0  0
   -6.6330   24.6020  -30.0160 O   0  0  0  0  0  0  0  0  0  0  0  0
   -4.6120   25.3040  -31.2080 O   0  0  0  0  0  0  0  0  0  0  0  0
   -4.4560   23.0600  -29.8000 C   0  0  0  0  0  0  0  0  0  0  0  0
   -4.2310   23.3660  -28.4520 C   0  0  0  0  0  0  0  0  0  0  0  0
   -3.4260   22.5210  -27.6860 C   0  0  0  0  0  0  0  0  0  0  0  0
   -2.8580   21.3860  -28.2680 C   0  0  0  0  0  0  0  0  0  0  0  0
   -3.1060   21.1140  -29.6160 C   0  0  0  0  0  0  0  0  0  0  0  0
   -3.8910   21.9500  -30.3470 N   0  0  0  0  0  0  0  0  0  0  0  0
   -3.2739   19.1068  -32.3062 H   0  0  0  0  0  0  0  0  0  0  0  0
   -2.6835   16.7750  -32.9857 H   0  0  0  0  0  0  0  0  0  0  0  0
   -4.0496   15.6178  -34.7308 H   0  0  0  0  0  0  0  0  0  0  0  0
   -6.5698   19.0305  -35.1153 H   0  0  0  0  0  0  0  0  0  0  0  0
   -7.4400   18.9531  -33.1274 H   0  0  0  0  0  0  0  0  0  0  0  0
  -10.1569   21.6138  -31.0830 H   0  0  0  0  0  0  0  0  0  0  0  0
   -8.4398   23.4156  -31.1227 H   0  0  0  0  0  0  0  0  0  0  0  0
   -5.4970   23.4870  -33.1060 H   0  0  0  0  0  0  0  0  0  0  0  0
   -4.6834   24.2620  -28.0019 H   0  0  0  0  0  0  0  0  0  0  0  0
   -3.2396   22.7489  -26.6261 H   0  0  0  0  0  0  0  0  0  0  0  0
   -2.2228   20.7139  -27.6724 H   0  0  0  0  0  0  0  0  0  0  0  0
   -2.6657   20.2225  -30.0865 H   0  0  0  0  0  0  0  0  0  0  0  0
  1  2  2  0
  2  3  1  0
  3  4  2  0
  4  5  1  0
  5  6  2  0
  6  7  1  0
  7  8  2  0
  2  9  1  0
  9 10  2  0
 10 11  1  0
 11 12  1  0
 11 13  2  0
 13 14  1  0
 14 15  2  0
 15 16  1  0
 16 17  1  0
 17 18  2  0
 17 19  2  0
 17 20  1  0
 20 21  2  0
 21 22  1  0
 22 23  2  0
 23 24  1  0
 24 25  2  0
  8  3  1  0
 15  9  1  0
 25 20  1  0
  4 26  1  0
  5 27  1  0
  6 28  1  0
  8 29  1  0
 10 30  1  0
 13 31  1  0
 14 32  1  0
 16 33  1  0
 21 34  1  0
 22 35  1  0
 23 36  1  0
 24 37  1  0
M  END
>  <UniqueID>  (36) 
33

>  <SMILES>  (36) 
O=C(c1cccnc1)c1cc(F)ccc1NS(=O)(=O)c1ccccn1

>  <Energy>  (36) 
52.72429347036348

>  <Genealogy>  (36) 
O=C(c1cccnc1)c1cc(F)ccc1NS(=O)(=O)c1ccccn1 (3D coordinates assigned)
O=C(c1cccnc1)c1cc(F)ccc1NS(=O)(=O)c1ccccn1 (optimized conformer: 52.72429347036348 kcal/mol)

>  <smiles>  (36) 
O=C(c1cccnc1)c1cc(F)ccc1NS(=O)(=O)c1ccccn1

>  <score_type>  (36) 
oracle

>  <origin>  (36) 
adg

>  <m_score__min__energy>  (36) 
-8.7799999999999994

>  <m_primary>  (36) 
energy

$$$$
36:0
     RDKit          3D

 49 53  0  0  0  0  0  0  0  0999 V2000
   -9.4400   19.3650  -32.5580 C   0  0  0  0  0  0  0  0  0  0  0  0
   -9.6260   20.7450  -32.3150 C   0  0  0  0  0  0  0  0  0  0  0  0
   -8.5500   21.5470  -31.8900 C   0  0  0  0  0  0  0  0  0  0  0  0
   -7.3100   20.9270  -31.7190 C   0  0  0  0  0  0  0  0  0  0  0  0
   -7.1320   19.5960  -31.9620 C   0  0  0  0  0  0  0  0  0  0  0  0
   -8.1760   18.7730  -32.3820 C   0  0  0  0  0  0  0  0  0  0  0  0
   -5.8540   19.2590  -31.7280 N   0  0  0  0  0  0  0  0  0  0  0  0
   -5.2630   20.4160  -31.3330 C   0  0  0  0  0  0  0  0  0  0  0  0
   -3.8320   20.4700  -30.8460 C   0  0  0  0  0  0  0  0  0  0  0  0
   -2.8510   20.7670  -31.9120 N   0  0  0  0  0  0  0  0  0  0  0  0
   -1.4550   20.7160  -31.4400 C   0  0  0  0  0  0  0  0  0  0  0  0
   -0.5060   21.1740  -32.5540 C   0  0  0  0  0  0  0  0  0  0  0  0
   -0.7010   20.3350  -33.7520 N   0  0  0  0  0  0  0  0  0  0  0  0
    0.3700   20.5900  -34.7550 C   0  0  0  0  0  0  0  0  0  0  0  0
    0.2020   21.8940  -35.5040 C   0  0  0  0  0  0  0  0  0  0  0  0
    1.4030   22.4230  -34.9880 O   0  0  0  0  0  0  0  0  0  0  0  0
    1.6590   21.2340  -34.2760 C   0  0  0  0  0  0  0  0  0  0  0  0
   -2.1040   20.4310  -34.2190 C   0  0  0  0  0  0  0  0  0  0  0  0
   -3.0350   19.9320  -33.1140 C   0  0  0  0  0  0  0  0  0  0  0  0
   -6.1360   21.4650  -31.3310 N   0  0  0  0  0  0  0  0  0  0  0  0
   -5.8980   22.8320  -30.9650 C   0  0  0  0  0  0  0  0  0  0  0  0
   -4.6650   23.4450  -31.2260 C   0  0  0  0  0  0  0  0  0  0  0  0
   -4.4770   24.7440  -30.8760 N   0  0  0  0  0  0  0  0  0  0  0  0
   -5.4650   25.4640  -30.2830 C   0  0  0  0  0  0  0  0  0  0  0  0
   -6.7000   24.8620  -30.0390 C   0  0  0  0  0  0  0  0  0  0  0  0
   -6.8910   23.5630  -30.3880 N   0  0  0  0  0  0  0  0  0  0  0  0
  -10.2900   18.7493  -32.8872 H   0  0  0  0  0  0  0  0  0  0  0  0
  -10.6191   21.1956  -32.4591 H   0  0  0  0  0  0  0  0  0  0  0  0
   -8.6809   22.6225  -31.6995 H   0  0  0  0  0  0  0  0  0  0  0  0
   -8.0173   17.7007  -32.5688 H   0  0  0  0  0  0  0  0  0  0  0  0
   -5.4200   18.3120  -31.8030 H   0  0  0  0  0  0  0  0  0  0  0  0
   -3.7564   21.2528  -30.0769 H   0  0  0  0  0  0  0  0  0  0  0  0
   -3.5882   19.4713  -30.4546 H   0  0  0  0  0  0  0  0  0  0  0  0
   -1.3407   21.3784  -30.5693 H   0  0  0  0  0  0  0  0  0  0  0  0
   -1.2074   19.6820  -31.1581 H   0  0  0  0  0  0  0  0  0  0  0  0
   -0.7171   22.2240  -32.8050 H   0  0  0  0  0  0  0  0  0  0  0  0
    0.5338   21.0778  -32.2082 H   0  0  0  0  0  0  0  0  0  0  0  0
    0.3531   19.5844  -35.2006 H   0  0  0  0  0  0  0  0  0  0  0  0
    0.2095   21.7754  -36.5976 H   0  0  0  0  0  0  0  0  0  0  0  0
   -0.7294   22.4651  -35.3760 H   0  0  0  0  0  0  0  0  0  0  0  0
    2.5643   20.7072  -34.6122 H   0  0  0  0  0  0  0  0  0  0  0  0
    1.8581   21.2909  -33.1957 H   0  0  0  0  0  0  0  0  0  0  0  0
   -2.3423   21.4784  -34.4562 H   0  0  0  0  0  0  0  0  0  0  0  0
   -2.2369   19.8157  -35.1211 H   0  0  0  0  0  0  0  0  0  0  0  0
   -4.0790   20.0006  -33.4535 H   0  0  0  0  0  0  0  0  0  0  0  0
   -2.7987   18.8843  -32.8763 H   0  0  0  0  0  0  0  0  0  0  0  0
   -3.8559   22.8787  -31.7104 H   0  0  0  0  0  0  0  0  0  0  0  0
   -5.2928   26.5123  -29.9978 H   0  0  0  0  0  0  0  0  0  0  0  0
   -7.5124   25.4347  -29.5678 H   0  0  0  0  0  0  0  0  0  0  0  0
  1  2  2  0
  2  3  1  0
  3  4  2  0
  4  5  1  0
  5  6  2  0
  5  7  1  0
  7  8  2  0
  8  9  1  0
  9 10  1  0
 10 11  1  0
 11 12  1  0
 12 13  1  0
 13 14  1  0
 14 15  1  0
 15 16  1  0
 16 17  1  0
 13 18  1  0
 18 19  1  0
  8 20  1  0
 20 21  1  0
 21 22  2  0
 22 23  1  0
 23 24  2  0
 24 25  1  0
 25 26  2  0
  6  1  1  0
 19 10  1  0
 26 21  1  0
 20  4  1  0
 17 14  1  0
  1 27  1  0
  2 28  1  0
  3 29  1  0
  6 30  1  0
  7 31  1  0
  9 32  1  0
  9 33  1  0
 11 34  1  0
 11 35  1  0
 12 36  1  0
 12 37  1  0
 14 38  1  0
 15 39  1  0
 15 40  1  0
 17 41  1  0
 17 42  1  0
 18 43  1  0
 18 44  1  0
 19 45  1  0
 19 46  1  0
 22 47  1  0
 24 48  1  0
 25 49  1  0
M  CHG  1   7   1
M  END
>  <UniqueID>  (37) 
34

>  <SMILES>  (37) 
c1ccc2c(c1)[nH+]c(CN1CCN(C3COC3)CC1)n2-c1cnccn1

>  <Energy>  (37) 
174.4144370051753

>  <Genealogy>  (37) 
c1ccc2c(c1)[nH+]c(CN1CCN(C3COC3)CC1)n2-c1cnccn1 (protonated)
c1ccc2c(c1)[nH+]c(CN1CCN(C3COC3)CC1)n2-c1cnccn1 (3D coordinates assigned)
c1ccc2c(c1)[nH+]c(CN1CCN(C3COC3)CC1)n2-c1cnccn1 (nonaromatic ring conformer: 174.4144370051753 kcal/mol)

>  <smiles>  (37) 
c1ccc2c(c1)nc(CN1CCN(C3COC3)CC1)n2-c1cnccn1

>  <score_type>  (37) 
oracle

>  <origin>  (37) 
adg

>  <m_score__min__energy>  (37) 
-8.1300000000000008

>  <m_primary>  (37) 
energy

$$$$
37:0
     RDKit          3D

 25 27  0  0  0  0  0  0  0  0999 V2000
   -4.3750   22.2940  -32.5060 F   0  0  0  0  0  0  0  0  0  0  0  0
   -4.2550   22.8440  -31.2720 C   0  0  0  0  0  0  0  0  0  0  0  0
   -2.9770   23.0610  -30.7330 C   0  0  0  0  0  0  0  0  0  0  0  0
   -2.8860   23.6270  -29.4640 C   0  0  0  0  0  0  0  0  0  0  0  0
   -1.5090   23.9930  -28.5830 S   0  0  0  0  0  0  0  0  0  0  0  0
   -2.3310   24.6150  -27.2330 C   0  0  0  0  0  0  0  0  0  0  0  0
   -1.6790   25.1510  -26.0070 C   0  0  0  0  0  0  0  0  0  0  0  0
   -1.8550   26.4880  -25.6060 C   0  0  0  0  0  0  0  0  0  0  0  0
   -1.2320   26.9650  -24.4530 C   0  0  0  0  0  0  0  0  0  0  0  0
   -0.4340   26.1050  -23.6990 C   0  0  0  0  0  0  0  0  0  0  0  0
   -0.2660   24.8140  -24.0900 N   0  0  0  0  0  0  0  0  0  0  0  0
   -0.8640   24.3250  -25.2110 C   0  0  0  0  0  0  0  0  0  0  0  0
   -3.7100   24.5330  -27.4800 C   0  0  0  0  0  0  0  0  0  0  0  0
   -4.0060   23.9780  -28.7310 C   0  0  0  0  0  0  0  0  0  0  0  0
   -5.2840   23.7690  -29.2570 C   0  0  0  0  0  0  0  0  0  0  0  0
   -5.4070   23.1970  -30.5370 C   0  0  0  0  0  0  0  0  0  0  0  0
   -7.0040   22.9270  -31.2140 Cl  0  0  0  0  0  0  0  0  0  0  0  0
   -2.0723   22.7913  -31.2976 H   0  0  0  0  0  0  0  0  0  0  0  0
   -2.4870   27.1604  -26.2047 H   0  0  0  0  0  0  0  0  0  0  0  0
   -1.3689   28.0109  -24.1409 H   0  0  0  0  0  0  0  0  0  0  0  0
    0.0599   26.4717  -22.7871 H   0  0  0  0  0  0  0  0  0  0  0  0
    0.3340   24.1820  -23.5150 H   0  0  0  0  0  0  0  0  0  0  0  0
   -0.7086   23.2743  -25.4972 H   0  0  0  0  0  0  0  0  0  0  0  0
   -4.4769   24.8690  -26.7666 H   0  0  0  0  0  0  0  0  0  0  0  0
   -6.1785   24.0469  -28.6803 H   0  0  0  0  0  0  0  0  0  0  0  0
  1  2  1  0
  2  3  2  0
  3  4  1  0
  4  5  1  0
  5  6  1  0
  6  7  1  0
  7  8  2  0
  8  9  1  0
  9 10  2  0
 10 11  1  0
 11 12  2  0
  6 13  2  0
 13 14  1  0
 14 15  1  0
 15 16  2  0
 16 17  1  0
 16  2  1  0
 14  4  2  0
 12  7  1  0
  3 18  1  0
  8 19  1  0
  9 20  1  0
 10 21  1  0
 11 22  1  0
 12 23  1  0
 13 24  1  0
 15 25  1  0
M  CHG  1  11   1
M  END
>  <UniqueID>  (38) 
35

>  <SMILES>  (38) 
Fc1cc2sc(-c3ccc[nH+]c3)cc2cc1Cl

>  <Energy>  (38) 
61.114117997905886

>  <Genealogy>  (38) 
Fc1cc2sc(-c3ccc[nH+]c3)cc2cc1Cl (protonated)
Fc1cc2sc(-c3ccc[nH+]c3)cc2cc1Cl (3D coordinates assigned)
Fc1cc2sc(-c3ccc[nH+]c3)cc2cc1Cl (optimized conformer: 61.114117997905886 kcal/mol)

>  <smiles>  (38) 
Fc1cc2sc(-c3cccnc3)cc2cc1Cl

>  <score_type>  (38) 
oracle

>  <origin>  (38) 
adg

>  <m_score__min__energy>  (38) 
-6.4900000000000002

>  <m_primary>  (38) 
energy

$$$$
38:0
     RDKit          3D

 40 40  0  0  0  0  0  0  0  0999 V2000
   -7.6000   18.2630  -32.1250 C   0  0  0  0  0  0  0  0  0  0  0  0
   -7.4960   19.4530  -32.9890 N   0  0  0  0  0  0  0  0  0  0  0  0
   -8.0210   20.7150  -32.4310 C   0  0  0  0  0  0  0  0  0  0  0  0
   -6.9830   21.6100  -31.7030 C   0  0  0  0  0  0  0  0  0  0  0  0
   -5.5820   21.7190  -32.3410 C   0  0  0  0  0  0  0  0  0  0  0  0
   -4.6910   20.5330  -32.1650 N   0  0  2  0  0  0  0  0  0  0  0  0
   -3.2880   20.9160  -32.2670 C   0  0  0  0  0  0  0  0  0  0  0  0
   -2.5430   20.9620  -33.7350 S   0  0  0  0  0  0  0  0  0  0  0  0
   -2.5020   21.2550  -31.1050 N   0  0  0  0  0  0  0  0  0  0  0  0
   -2.9800   21.2290  -29.7230 C   0  0  0  0  0  0  0  0  0  0  0  0
   -3.8270   22.3960  -29.4530 C   0  0  0  0  0  0  0  0  0  0  0  0
   -4.5210   23.3570  -29.2340 C   0  0  0  0  0  0  0  0  0  0  0  0
   -5.3660   24.5280  -28.9730 C   0  0  0  0  0  0  0  0  0  0  0  0
   -5.3560   25.4750  -30.1730 C   0  0  0  0  0  0  0  0  0  0  0  0
   -4.4720   24.9580  -31.2120 N   0  0  0  0  0  0  0  0  0  0  0  0
   -4.9560   19.3870  -33.0640 C   0  0  0  0  0  0  0  0  0  0  0  0
   -6.2850   19.5270  -33.8340 C   0  0  0  0  0  0  0  0  0  0  0  0
   -7.5729   18.5725  -31.0698 H   0  0  0  0  0  0  0  0  0  0  0  0
   -8.5471   17.7425  -32.3303 H   0  0  0  0  0  0  0  0  0  0  0  0
   -6.7576   17.5861  -32.3303 H   0  0  0  0  0  0  0  0  0  0  0  0
   -8.4494   21.2987  -33.2591 H   0  0  0  0  0  0  0  0  0  0  0  0
   -8.7553   20.4229  -31.6659 H   0  0  0  0  0  0  0  0  0  0  0  0
   -7.4019   22.6255  -31.6468 H   0  0  0  0  0  0  0  0  0  0  0  0
   -6.8171   21.1223  -30.7311 H   0  0  0  0  0  0  0  0  0  0  0  0
   -5.7151   21.8833  -33.4205 H   0  0  0  0  0  0  0  0  0  0  0  0
   -5.0810   22.5478  -31.8194 H   0  0  0  0  0  0  0  0  0  0  0  0
   -4.8720   20.1850  -31.1990 H   0  0  0  0  0  0  0  0  0  0  0  0
   -1.5190   21.5740  -31.2570 H   0  0  0  0  0  0  0  0  0  0  0  0
   -3.5640   20.3114  -29.5586 H   0  0  0  0  0  0  0  0  0  0  0  0
   -2.1139   21.2522  -29.0453 H   0  0  0  0  0  0  0  0  0  0  0  0
   -6.3971   24.1951  -28.7834 H   0  0  0  0  0  0  0  0  0  0  0  0
   -4.9720   25.0620  -28.0957 H   0  0  0  0  0  0  0  0  0  0  0  0
   -6.3762   25.5643  -30.5745 H   0  0  0  0  0  0  0  0  0  0  0  0
   -4.9933   26.4619  -29.8499 H   0  0  0  0  0  0  0  0  0  0  0  0
   -4.2550   25.7380  -31.8750 H   0  0  0  0  0  0  0  0  0  0  0  0
   -3.5670   24.6970  -30.7580 H   0  0  0  0  0  0  0  0  0  0  0  0
   -4.1342   19.3135  -33.7915 H   0  0  0  0  0  0  0  0  0  0  0  0
   -5.0287   18.4850  -32.4386 H   0  0  0  0  0  0  0  0  0  0  0  0
   -6.2835   20.5000  -34.3472 H   0  0  0  0  0  0  0  0  0  0  0  0
   -6.3355   18.6742  -34.5269 H   0  0  0  0  0  0  0  0  0  0  0  0
  1  2  1  0
  2  3  1  0
  3  4  1  0
  4  5  1  0
  5  6  1  0
  6  7  1  0
  7  8  2  0
  7  9  1  0
  9 10  1  0
 10 11  1  0
 11 12  3  0
 12 13  1  0
 13 14  1  0
 14 15  1  0
  6 16  1  0
 16 17  1  0
 17  2  1  0
  1 18  1  0
  1 19  1  0
  1 20  1  0
  3 21  1  0
  3 22  1  0
  4 23  1  0
  4 24  1  0
  5 25  1  0
  5 26  1  0
  6 27  1  1
  9 28  1  0
 10 29  1  0
 10 30  1  0
 13 31  1  0
 13 32  1  0
 14 33  1  0
 14 34  1  0
 15 35  1  0
 15 36  1  0
 16 37  1  0
 16 38  1  0
 17 39  1  0
 17 40  1  0
M  CHG  1   6   1
M  END
>  <UniqueID>  (39) 
36

>  <SMILES>  (39) 
CN1CCC[N@H+](C(=S)NCC#CCCN)CC1

>  <Energy>  (39) 
54.07709015369859

>  <Genealogy>  (39) 
CN1CCC[NH+](C(=S)NCC#CCCN)CC1 (protonated)
CN1CCC[N@H+](C(=S)NCC#CCCN)CC1 (chirality)
CN1CCC[N@H+](C(=S)NCC#CCCN)CC1 (3D coordinates assigned)
CN1CCC[N@H+](C(=S)NCC#CCCN)CC1 (nonaromatic ring conformer: 54.07709015369859 kcal/mol)

>  <smiles>  (39) 
CN1CCCN(C(=S)NCC#CCCN)CC1

>  <score_type>  (39) 
oracle

>  <origin>  (39) 
adg

>  <m_score__min__energy>  (39) 
-3.9100000000000001

>  <m_primary>  (39) 
energy

$$$$
39:0
     RDKit          3D

 44 45  0  0  0  0  0  0  0  0999 V2000
   -4.6220   17.2460  -32.9270 C   0  0  0  0  0  0  0  0  0  0  0  0
   -4.4040   18.5700  -33.5200 N   0  0  0  0  0  0  0  0  0  0  0  0
   -5.5560   19.2960  -34.0690 C   0  0  0  0  0  0  0  0  0  0  0  0
   -5.8960   20.4310  -33.2080 N   0  0  0  0  0  0  0  0  0  0  0  0
   -7.2310   20.6870  -32.7240 C   0  0  0  0  0  0  0  0  0  0  0  0
   -8.2010   19.6660  -32.6960 C   0  0  0  0  0  0  0  0  0  0  0  0
   -9.4890   19.9210  -32.2250 C   0  0  0  0  0  0  0  0  0  0  0  0
   -9.8280   21.1950  -31.7760 C   0  0  0  0  0  0  0  0  0  0  0  0
   -8.8800   22.2200  -31.7950 C   0  0  0  0  0  0  0  0  0  0  0  0
   -7.5730   21.9790  -32.2600 C   0  0  0  0  0  0  0  0  0  0  0  0
   -6.5930   22.9850  -32.3100 O   0  0  0  0  0  0  0  0  0  0  0  0
   -4.9720   22.8770  -31.7550 S   0  0  0  0  0  0  0  0  0  0  0  0
   -4.8790   21.6800  -30.8500 O   0  0  0  0  0  0  0  0  0  0  0  0
   -4.0220   22.6630  -32.9000 O   0  0  0  0  0  0  0  0  0  0  0  0
   -4.5160   24.2920  -30.8360 N   0  0  0  0  0  0  0  0  0  0  0  0
   -5.6990   25.0760  -30.4680 C   0  0  0  0  0  0  0  0  0  0  0  0
   -3.7910   23.8730  -29.6310 C   0  0  0  0  0  0  0  0  0  0  0  0
   -3.0970   19.1870  -33.4670 C   0  0  0  0  0  0  0  0  0  0  0  0
   -2.0260   18.6590  -34.2120 C   0  0  0  0  0  0  0  0  0  0  0  0
   -0.7740   19.2720  -34.1580 C   0  0  0  0  0  0  0  0  0  0  0  0
   -0.5890   20.4010  -33.3640 C   0  0  0  0  0  0  0  0  0  0  0  0
   -1.6650   20.9040  -32.6320 C   0  0  0  0  0  0  0  0  0  0  0  0
   -2.8820   20.2970  -32.6940 N   0  0  0  0  0  0  0  0  0  0  0  0
   -4.6084   17.3287  -31.8302 H   0  0  0  0  0  0  0  0  0  0  0  0
   -5.5968   16.8542  -33.2531 H   0  0  0  0  0  0  0  0  0  0  0  0
   -3.8243   16.5623  -33.2531 H   0  0  0  0  0  0  0  0  0  0  0  0
   -5.3071   19.6649  -35.0750 H   0  0  0  0  0  0  0  0  0  0  0  0
   -6.4179   18.6145  -34.1213 H   0  0  0  0  0  0  0  0  0  0  0  0
   -5.1280   21.0940  -32.9550 H   0  0  0  0  0  0  0  0  0  0  0  0
   -7.9402   18.6574  -33.0491 H   0  0  0  0  0  0  0  0  0  0  0  0
  -10.2376   19.1152  -32.2082 H   0  0  0  0  0  0  0  0  0  0  0  0
  -10.8445   21.3941  -31.4057 H   0  0  0  0  0  0  0  0  0  0  0  0
   -9.1568   23.2249  -31.4435 H   0  0  0  0  0  0  0  0  0  0  0  0
   -5.7779   25.1283  -29.3721 H   0  0  0  0  0  0  0  0  0  0  0  0
   -5.6072   26.0926  -30.8779 H   0  0  0  0  0  0  0  0  0  0  0  0
   -6.5995   24.5953  -30.8779 H   0  0  0  0  0  0  0  0  0  0  0  0
   -4.3472   24.1944  -28.7381 H   0  0  0  0  0  0  0  0  0  0  0  0
   -3.6906   22.7776  -29.6258 H   0  0  0  0  0  0  0  0  0  0  0  0
   -2.7917   24.3328  -29.6258 H   0  0  0  0  0  0  0  0  0  0  0  0
   -2.1758   17.7651  -34.8354 H   0  0  0  0  0  0  0  0  0  0  0  0
    0.0650   18.8646  -34.7412 H   0  0  0  0  0  0  0  0  0  0  0  0
    0.3947   20.8908  -33.3145 H   0  0  0  0  0  0  0  0  0  0  0  0
   -1.5293   21.7953  -32.0018 H   0  0  0  0  0  0  0  0  0  0  0  0
   -3.6520   20.6960  -32.1130 H   0  0  0  0  0  0  0  0  0  0  0  0
  1  2  1  0
  2  3  1  0
  3  4  1  0
  4  5  1  0
  5  6  2  0
  6  7  1  0
  7  8  2  0
  8  9  1  0
  9 10  2  0
 10 11  1  0
 11 12  1  0
 12 13  2  0
 12 14  2  0
 12 15  1  0
 15 16  1  0
 15 17  1  0
  2 18  1  0
 18 19  2  0
 19 20  1  0
 20 21  2  0
 21 22  1  0
 22 23  2  0
 10  5  1  0
 23 18  1  0
  1 24  1  0
  1 25  1  0
  1 26  1  0
  3 27  1  0
  3 28  1  0
  4 29  1  0
  6 30  1  0
  7 31  1  0
  8 32  1  0
  9 33  1  0
 16 34  1  0
 16 35  1  0
 16 36  1  0
 17 37  1  0
 17 38  1  0
 17 39  1  0
 19 40  1  0
 20 41  1  0
 21 42  1  0
 22 43  1  0
 23 44  1  0
M  CHG  1  23   1
M  END
>  <UniqueID>  (40) 
37

>  <SMILES>  (40) 
CN(CNc1ccccc1OS(=O)(=O)N(C)C)c1cccc[nH+]1

>  <Energy>  (40) 
44.0223157662598

>  <Genealogy>  (40) 
CN(CNc1ccccc1OS(=O)(=O)N(C)C)c1cccc[nH+]1 (protonated)
CN(CNc1ccccc1OS(=O)(=O)N(C)C)c1cccc[nH+]1 (3D coordinates assigned)
CN(CNc1ccccc1OS(=O)(=O)N(C)C)c1cccc[nH+]1 (optimized conformer: 44.0223157662598 kcal/mol)

>  <smiles>  (40) 
CN(CNc1ccccc1OS(=O)(=O)N(C)C)c1ccccn1

>  <score_type>  (40) 
oracle

>  <origin>  (40) 
adg

>  <m_score__min__energy>  (40) 
-6.4199999999999999

>  <m_primary>  (40) 
energy

$$$$
40:0
     RDKit          3D

 36 38  0  0  0  0  0  0  0  0999 V2000
   -3.9350   25.2660  -30.4260 O   0  0  0  0  0  0  0  0  0  0  0  0
   -4.9500   24.5220  -30.4950 C   0  0  0  0  0  0  0  0  0  0  0  0
   -5.7490   24.4270  -31.6760 N   0  0  0  0  0  0  0  0  0  0  0  0
   -6.7060   23.6150  -31.3770 C   0  0  0  0  0  0  0  0  0  0  0  0
   -7.8090   23.2570  -32.3220 C   0  0  0  0  0  0  0  0  0  0  0  0
   -8.1030   21.7940  -32.2310 C   0  0  0  0  0  0  0  0  0  0  0  0
   -7.3180   20.7730  -32.7510 C   0  0  0  0  0  0  0  0  0  0  0  0
   -7.8840   19.5030  -32.5800 C   0  0  0  0  0  0  0  0  0  0  0  0
   -9.1170   19.5240  -31.9400 C   0  0  0  0  0  0  0  0  0  0  0  0
   -9.5050   21.1230  -31.5900 S   0  0  0  0  0  0  0  0  0  0  0  0
   -6.5780   23.1690  -29.9990 C   0  0  0  0  0  0  0  0  0  0  0  0
   -7.3960   22.4210  -29.4000 O   0  0  0  0  0  0  0  0  0  0  0  0
   -5.4240   23.7430  -29.3850 N   0  0  1  0  0  0  0  0  0  0  0  0
   -4.4490   22.7360  -28.9000 C   0  0  0  0  0  0  0  0  0  0  0  0
   -3.2100   22.4970  -29.8030 C   0  0  0  0  0  0  0  0  0  0  0  0
   -3.4940   21.6270  -31.0020 C   0  0  0  0  0  0  0  0  0  0  0  0
   -3.0000   21.9820  -32.2710 C   0  0  0  0  0  0  0  0  0  0  0  0
   -3.2750   21.1820  -33.3840 C   0  0  0  0  0  0  0  0  0  0  0  0
   -4.0310   20.0150  -33.2390 C   0  0  0  0  0  0  0  0  0  0  0  0
   -4.5060   19.6430  -31.9790 C   0  0  0  0  0  0  0  0  0  0  0  0
   -4.2350   20.4410  -30.8630 C   0  0  0  0  0  0  0  0  0  0  0  0
   -8.7125   23.8274  -32.0607 H   0  0  0  0  0  0  0  0  0  0  0  0
   -7.4991   23.5007  -33.3489 H   0  0  0  0  0  0  0  0  0  0  0  0
   -6.3509   20.9441  -33.2464 H   0  0  0  0  0  0  0  0  0  0  0  0
   -7.3981   18.5767  -32.9203 H   0  0  0  0  0  0  0  0  0  0  0  0
   -9.7342   18.6450  -31.7026 H   0  0  0  0  0  0  0  0  0  0  0  0
   -5.7210   24.3780  -28.6080 H   0  0  0  0  0  0  0  0  0  0  0  0
   -4.0883   23.0647  -27.9142 H   0  0  0  0  0  0  0  0  0  0  0  0
   -4.9933   21.7802  -28.8852 H   0  0  0  0  0  0  0  0  0  0  0  0
   -2.8464   23.4721  -30.1594 H   0  0  0  0  0  0  0  0  0  0  0  0
   -2.4630   21.9692  -29.1918 H   0  0  0  0  0  0  0  0  0  0  0  0
   -2.3947   22.8931  -32.3877 H   0  0  0  0  0  0  0  0  0  0  0  0
   -2.8960   21.4712  -34.3753 H   0  0  0  0  0  0  0  0  0  0  0  0
   -4.2518   19.3899  -34.1168 H   0  0  0  0  0  0  0  0  0  0  0  0
   -5.0943   18.7206  -31.8645 H   0  0  0  0  0  0  0  0  0  0  0  0
   -4.6036   20.1389  -29.8716 H   0  0  0  0  0  0  0  0  0  0  0  0
  1  2  2  0
  2  3  1  0
  3  4  2  0
  4  5  1  0
  5  6  1  0
  6  7  2  0
  7  8  1  0
  8  9  2  0
  9 10  1  0
  4 11  1  0
 11 12  2  0
 11 13  1  0
 13 14  1  0
 14 15  1  0
 15 16  1  0
 16 17  2  0
 17 18  1  0
 18 19  2  0
 19 20  1  0
 20 21  2  0
 13  2  1  0
 21 16  1  0
 10  6  1  0
  5 22  1  0
  5 23  1  0
  7 24  1  0
  8 25  1  0
  9 26  1  0
 13 27  1  1
 14 28  1  0
 14 29  1  0
 15 30  1  0
 15 31  1  0
 17 32  1  0
 18 33  1  0
 19 34  1  0
 20 35  1  0
 21 36  1  0
M  CHG  1  13   1
M  END
>  <UniqueID>  (41) 
38

>  <SMILES>  (41) 
O=C1N=C(Cc2cccs2)C(=O)[N@H+]1CCc1ccccc1

>  <Energy>  (41) 
82.41228734466993

>  <Genealogy>  (41) 
O=C1N=C(Cc2cccs2)C(=O)[NH+]1CCc1ccccc1 (protonated)
O=C1N=C(Cc2cccs2)C(=O)[N@H+]1CCc1ccccc1 (chirality)
O=C1N=C(Cc2cccs2)C(=O)[N@H+]1CCc1ccccc1 (3D coordinates assigned)
O=C1N=C(Cc2cccs2)C(=O)[N@H+]1CCc1ccccc1 (nonaromatic ring conformer: 82.41228734466993 kcal/mol)

>  <smiles>  (41) 
O=C1N=C(Cc2cccs2)C(=O)N1CCc1ccccc1

>  <score_type>  (41) 
oracle

>  <origin>  (41) 
adg

>  <m_score__min__energy>  (41) 
-8.0700000000000003

>  <m_primary>  (41) 
energy

$$$$
41:0
     RDKit          3D

 49 51  0  0  0  0  0  0  0  0999 V2000
    0.2880   22.1820  -35.7030 C   0  0  0  0  0  0  0  0  0  0  0  0
    0.6480   21.1260  -34.6630 C   0  0  0  0  0  0  0  0  0  0  0  0
    0.1960   21.5280  -33.3720 O   0  0  0  0  0  0  0  0  0  0  0  0
   -1.1200   21.3510  -32.9280 C   0  0  0  0  0  0  0  0  0  0  0  0
   -2.0950   21.5240  -33.7090 O   0  0  0  0  0  0  0  0  0  0  0  0
   -1.3600   20.8880  -31.5290 C   0  0  0  0  0  0  0  0  0  0  0  0
   -2.0720   21.9640  -30.7710 C   0  0  0  0  0  0  0  0  0  0  0  0
   -1.7050   22.3550  -29.4830 C   0  0  0  0  0  0  0  0  0  0  0  0
   -2.6310   23.6990  -29.0630 S   0  0  0  0  0  0  0  0  0  0  0  0
   -3.4590   23.7200  -30.5220 C   0  0  0  0  0  0  0  0  0  0  0  0
   -4.3240   24.6380  -30.8400 N   0  0  0  0  0  0  0  0  0  0  0  0
   -5.7240   24.4280  -31.0620 C   0  0  0  0  0  0  0  0  0  0  0  0
   -6.5740   24.8210  -30.2170 O   0  0  0  0  0  0  0  0  0  0  0  0
   -6.1840   23.8170  -32.3500 C   0  0  0  0  0  0  0  0  0  0  0  0
   -7.0940   22.6300  -32.0840 C   0  0  0  0  0  0  0  0  0  0  0  0
   -8.3680   22.9300  -31.5750 C   0  0  0  0  0  0  0  0  0  0  0  0
   -9.2910   21.9310  -31.3240 C   0  0  0  0  0  0  0  0  0  0  0  0
   -8.9750   20.6050  -31.5780 C   0  0  0  0  0  0  0  0  0  0  0  0
   -7.7120   20.2380  -32.1020 C   0  0  0  0  0  0  0  0  0  0  0  0
   -6.7570   21.2610  -32.3710 C   0  0  0  0  0  0  0  0  0  0  0  0
   -5.5150   20.8580  -32.9190 C   0  0  0  0  0  0  0  0  0  0  0  0
   -4.6150   21.7070  -33.1590 O   0  0  0  0  0  0  0  0  0  0  0  0
   -5.2660   19.5420  -33.1920 N   0  0  0  0  0  0  0  0  0  0  0  0
   -3.9590   19.1550  -33.7590 C   0  0  0  0  0  0  0  0  0  0  0  0
   -6.1850   18.5780  -32.8780 C   0  0  0  0  0  0  0  0  0  0  0  0
   -5.9000   17.3640  -33.0790 O   0  0  0  0  0  0  0  0  0  0  0  0
   -7.4050   18.9150  -32.3500 N   0  0  0  0  0  0  0  0  0  0  0  0
   -8.3890   17.8480  -32.0570 C   0  0  0  0  0  0  0  0  0  0  0  0
   -3.0420   22.7290  -31.3450 N   0  0  0  0  0  0  0  0  0  0  0  0
   -0.0267   23.1052  -35.1944 H   0  0  0  0  0  0  0  0  0  0  0  0
    1.1656   22.3910  -36.3323 H   0  0  0  0  0  0  0  0  0  0  0  0
   -0.5346   21.8114  -36.3323 H   0  0  0  0  0  0  0  0  0  0  0  0
    0.1708   20.1726  -34.9338 H   0  0  0  0  0  0  0  0  0  0  0  0
    1.7412   21.0068  -34.6380 H   0  0  0  0  0  0  0  0  0  0  0  0
   -1.9773   19.9777  -31.5433 H   0  0  0  0  0  0  0  0  0  0  0  0
   -0.3986   20.6668  -31.0424 H   0  0  0  0  0  0  0  0  0  0  0  0
   -0.9447   21.8710  -28.8524 H   0  0  0  0  0  0  0  0  0  0  0  0
   -6.7344   24.5712  -32.9316 H   0  0  0  0  0  0  0  0  0  0  0  0
   -5.3043   23.4704  -32.9121 H   0  0  0  0  0  0  0  0  0  0  0  0
   -8.6364   23.9774  -31.3725 H   0  0  0  0  0  0  0  0  0  0  0  0
  -10.2811   22.1898  -30.9207 H   0  0  0  0  0  0  0  0  0  0  0  0
   -9.7199   19.8232  -31.3684 H   0  0  0  0  0  0  0  0  0  0  0  0
   -3.2525   18.9458  -32.9423 H   0  0  0  0  0  0  0  0  0  0  0  0
   -4.0803   18.2542  -34.3786 H   0  0  0  0  0  0  0  0  0  0  0  0
   -3.5703   19.9766  -34.3786 H   0  0  0  0  0  0  0  0  0  0  0  0
   -8.4935   17.7346  -30.9679 H   0  0  0  0  0  0  0  0  0  0  0  0
   -9.3625   18.1172  -32.4927 H   0  0  0  0  0  0  0  0  0  0  0  0
   -8.0420   16.8995  -32.4927 H   0  0  0  0  0  0  0  0  0  0  0  0
   -3.3630   22.5890  -32.3290 H   0  0  0  0  0  0  0  0  0  0  0  0
  1  2  1  0
  2  3  1  0
  3  4  1  0
  4  5  2  0
  4  6  1  0
  6  7  1  0
  7  8  2  0
  8  9  1  0
  9 10  1  0
 10 11  2  3
 11 12  1  0
 12 13  2  0
 12 14  1  0
 14 15  1  0
 15 16  2  0
 16 17  1  0
 17 18  2  0
 18 19  1  0
 19 20  2  0
 20 21  1  0
 21 22  2  0
 21 23  1  0
 23 24  1  0
 23 25  1  0
 25 26  2  0
 25 27  1  0
 27 28  1  0
 10 29  1  0
 29  7  1  0
 20 15  1  0
 27 19  1  0
  1 30  1  0
  1 31  1  0
  1 32  1  0
  2 33  1  0
  2 34  1  0
  6 35  1  0
  6 36  1  0
  8 37  1  0
 14 38  1  0
 14 39  1  0
 16 40  1  0
 17 41  1  0
 18 42  1  0
 24 43  1  0
 24 44  1  0
 24 45  1  0
 28 46  1  0
 28 47  1  0
 28 48  1  0
 29 49  1  0
M  END
>  <UniqueID>  (42) 
39

>  <SMILES>  (42) 
CCOC(=O)Cc1csc(=NC(=O)Cc2cccc3c2c(=O)n(C)c(=O)n3C)[nH]1

>  <Energy>  (42) 
94.83042162514897

>  <Genealogy>  (42) 
CCOC(=O)Cc1csc(=NC(=O)Cc2cccc3c2c(=O)n(C)c(=O)n3C)[nH]1 (3D coordinates assigned)
CCOC(=O)Cc1csc(=NC(=O)Cc2cccc3c2c(=O)n(C)c(=O)n3C)[nH]1 (optimized conformer: 94.83042162514897 kcal/mol)

>  <smiles>  (42) 
CCOC(=O)Cc1csc(=NC(=O)Cc2cccc3c2c(=O)n(C)c(=O)n3C)[nH]1

>  <score_type>  (42) 
oracle

>  <origin>  (42) 
adg

>  <m_score__min__energy>  (42) 
-9.5399999999999991

>  <m_primary>  (42) 
energy

$$$$
42:0
     RDKit          3D

 65 69  0  0  0  0  0  0  0  0999 V2000
    0.0980   21.6400  -34.9730 C   0  0  0  0  0  0  0  0  0  0  0  0
   -0.8540   21.4570  -33.9300 O   0  0  0  0  0  0  0  0  0  0  0  0
   -1.4670   20.2330  -33.6270 C   0  0  0  0  0  0  0  0  0  0  0  0
   -0.7980   19.3490  -32.7460 C   0  0  0  0  0  0  0  0  0  0  0  0
   -1.3630   18.1080  -32.4010 C   0  0  0  0  0  0  0  0  0  0  0  0
   -2.5950   17.7770  -32.9550 C   0  0  0  0  0  0  0  0  0  0  0  0
   -3.3120   16.6590  -32.7380 N   0  0  0  0  0  0  0  0  0  0  0  0
   -4.4430   16.7940  -33.4660 C   0  0  0  0  0  0  0  0  0  0  0  0
   -4.4340   18.0010  -34.1590 C   0  0  0  0  0  0  0  0  0  0  0  0
   -5.5440   18.5530  -35.0040 C   0  0  0  0  0  0  0  0  0  0  0  0
   -6.4470   19.4900  -34.1950 C   0  0  0  0  0  0  0  0  0  0  0  0
   -5.6580   20.3940  -33.3590 N   0  0  0  0  0  0  0  0  0  0  0  0
   -5.6720   20.3280  -31.9230 C   0  0  0  0  0  0  0  0  0  0  0  0
   -6.3840   19.4610  -31.3470 O   0  0  0  0  0  0  0  0  0  0  0  0
   -4.8440   21.2460  -31.1040 C   0  0  0  0  0  0  0  0  0  0  0  0
   -3.5170   20.9030  -30.7950 C   0  0  0  0  0  0  0  0  0  0  0  0
   -2.7230   21.7590  -30.0250 C   0  0  0  0  0  0  0  0  0  0  0  0
   -3.2370   22.9760  -29.5540 C   0  0  0  0  0  0  0  0  0  0  0  0
   -2.3800   23.8530  -28.7290 C   0  0  0  0  0  0  0  0  0  0  0  0
   -2.1550   25.1190  -29.0360 O   0  0  0  0  0  0  0  0  0  0  0  0
   -1.3570   25.6200  -28.1260 C   0  0  0  0  0  0  0  0  0  0  0  0
   -0.8570   26.9160  -28.0590 C   0  0  0  0  0  0  0  0  0  0  0  0
   -0.0090   27.2430  -26.9870 C   0  0  0  0  0  0  0  0  0  0  0  0
    0.3250   26.2740  -26.0010 C   0  0  0  0  0  0  0  0  0  0  0  0
    1.2400   26.6530  -24.8530 C   0  0  0  0  0  0  0  0  0  0  0  0
    2.1310   25.4730  -24.4460 C   0  0  0  0  0  0  0  0  0  0  0  0
    0.4360   27.1740  -23.6560 C   0  0  0  0  0  0  0  0  0  0  0  0
   -0.2060   24.9650  -26.1060 C   0  0  0  0  0  0  0  0  0  0  0  0
   -1.0430   24.6780  -27.1840 C   0  0  0  0  0  0  0  0  0  0  0  0
   -1.7090   23.5240  -27.5440 C   0  0  0  0  0  0  0  0  0  0  0  0
   -1.7130   22.2230  -26.7990 C   0  0  0  0  0  0  0  0  0  0  0  0
   -4.5740   23.3040  -29.8310 C   0  0  0  0  0  0  0  0  0  0  0  0
   -5.3690   22.4490  -30.6000 C   0  0  0  0  0  0  0  0  0  0  0  0
   -3.2500   18.6220  -33.8120 C   0  0  0  0  0  0  0  0  0  0  0  0
   -2.7220   19.8610  -34.1710 C   0  0  0  0  0  0  0  0  0  0  0  0
    1.0891   21.8305  -34.5355 H   0  0  0  0  0  0  0  0  0  0  0  0
    0.1397   20.7334  -35.5946 H   0  0  0  0  0  0  0  0  0  0  0  0
   -0.1994   22.4974  -35.5946 H   0  0  0  0  0  0  0  0  0  0  0  0
    0.1769   19.6368  -32.3257 H   0  0  0  0  0  0  0  0  0  0  0  0
   -0.8467   17.4208  -31.7146 H   0  0  0  0  0  0  0  0  0  0  0  0
   -3.0580   15.8580  -32.1190 H   0  0  0  0  0  0  0  0  0  0  0  0
   -5.2560   16.0541  -33.5052 H   0  0  0  0  0  0  0  0  0  0  0  0
   -5.1094   19.1125  -35.8454 H   0  0  0  0  0  0  0  0  0  0  0  0
   -6.1534   17.7129  -35.3684 H   0  0  0  0  0  0  0  0  0  0  0  0
   -7.0592   20.0853  -34.8884 H   0  0  0  0  0  0  0  0  0  0  0  0
   -7.0856   18.8787  -33.5403 H   0  0  0  0  0  0  0  0  0  0  0  0
   -5.0310   21.0730  -33.8470 H   0  0  0  0  0  0  0  0  0  0  0  0
   -3.0993   19.9537  -31.1616 H   0  0  0  0  0  0  0  0  0  0  0  0
   -1.6872   21.4755  -29.7869 H   0  0  0  0  0  0  0  0  0  0  0  0
   -1.1177   27.6634  -28.8228 H   0  0  0  0  0  0  0  0  0  0  0  0
    0.4013   28.2607  -26.9096 H   0  0  0  0  0  0  0  0  0  0  0  0
    1.8947   27.4665  -25.1989 H   0  0  0  0  0  0  0  0  0  0  0  0
    2.1782   25.4105  -23.3488 H   0  0  0  0  0  0  0  0  0  0  0  0
    1.7102   24.5398  -24.8486 H   0  0  0  0  0  0  0  0  0  0  0  0
    3.1437   25.6223  -24.8486 H   0  0  0  0  0  0  0  0  0  0  0  0
    0.9232   26.8583  -22.7217 H   0  0  0  0  0  0  0  0  0  0  0  0
    0.3924   28.2725  -23.6938 H   0  0  0  0  0  0  0  0  0  0  0  0
   -0.5844   26.7650  -23.6938 H   0  0  0  0  0  0  0  0  0  0  0  0
    0.0353   24.1958  -25.3576 H   0  0  0  0  0  0  0  0  0  0  0  0
   -1.7124   22.4202  -25.7168 H   0  0  0  0  0  0  0  0  0  0  0  0
   -2.6129   21.6499  -27.0668 H   0  0  0  0  0  0  0  0  0  0  0  0
   -0.8166   21.6444  -27.0668 H   0  0  0  0  0  0  0  0  0  0  0  0
   -4.9988   24.2403  -29.4401 H   0  0  0  0  0  0  0  0  0  0  0  0
   -6.4138   22.7196  -30.8125 H   0  0  0  0  0  0  0  0  0  0  0  0
   -3.2631   20.5302  -34.8561 H   0  0  0  0  0  0  0  0  0  0  0  0
  1  2  1  0
  2  3  1  0
  3  4  2  0
  4  5  1  0
  5  6  2  0
  6  7  1  0
  7  8  1  0
  8  9  2  0
  9 10  1  0
 10 11  1  0
 11 12  1  0
 12 13  1  0
 13 14  2  0
 13 15  1  0
 15 16  2  0
 16 17  1  0
 17 18  2  0
 18 19  1  0
 19 20  1  0
 20 21  1  0
 21 22  2  0
 22 23  1  0
 23 24  2  0
 24 25  1  0
 25 26  1  0
 25 27  1  0
 24 28  1  0
 28 29  2  0
 29 30  1  0
 30 31  1  0
 18 32  1  0
 32 33  2  0
  9 34  1  0
 34 35  2  0
 35  3  1  0
 34  6  1  0
 33 15  1  0
 30 19  2  0
 29 21  1  0
  1 36  1  0
  1 37  1  0
  1 38  1  0
  4 39  1  0
  5 40  1  0
  7 41  1  0
  8 42  1  0
 10 43  1  0
 10 44  1  0
 11 45  1  0
 11 46  1  0
 12 47  1  0
 16 48  1  0
 17 49  1  0
 22 50  1  0
 23 51  1  0
 25 52  1  0
 26 53  1  0
 26 54  1  0
 26 55  1  0
 27 56  1  0
 27 57  1  0
 27 58  1  0
 28 59  1  0
 31 60  1  0
 31 61  1  0
 31 62  1  0
 32 63  1  0
 33 64  1  0
 35 65  1  0
M  END
>  <UniqueID>  (43) 
40

>  <SMILES>  (43) 
COc1ccc2[nH]cc(CCNC(=O)c3ccc(-c4oc5ccc(C(C)C)cc5c4C)cc3)c2c1

>  <Energy>  (43) 
133.4500009766192

>  <Genealogy>  (43) 
COc1ccc2[nH]cc(CCNC(=O)c3ccc(-c4oc5ccc(C(C)C)cc5c4C)cc3)c2c1 (3D coordinates assigned)
COc1ccc2[nH]cc(CCNC(=O)c3ccc(-c4oc5ccc(C(C)C)cc5c4C)cc3)c2c1 (optimized conformer: 133.4500009766192 kcal/mol)

>  <smiles>  (43) 
COc1ccc2[nH]cc(CCNC(=O)c3ccc(-c4oc5ccc(C(C)C)cc5c4C)cc3)c2c1

>  <score_type>  (43) 
oracle

>  <origin>  (43) 
adg

>  <m_score__min__energy>  (43) 
-10.48

>  <m_primary>  (43) 
energy

$$$$
43:0
     RDKit          3D

 41 43  0  0  0  0  0  0  0  0999 V2000
   -5.7310   18.1220  -34.2470 Br  0  0  0  0  0  0  0  0  0  0  0  0
   -6.9350   19.0310  -33.0770 C   0  0  0  0  0  0  0  0  0  0  0  0
   -7.8800   18.3040  -32.3450 C   0  0  0  0  0  0  0  0  0  0  0  0
   -8.7540   18.9670  -31.4790 C   0  0  0  0  0  0  0  0  0  0  0  0
   -8.6860   20.3570  -31.3430 C   0  0  0  0  0  0  0  0  0  0  0  0
   -7.7450   21.0960  -32.0800 C   0  0  0  0  0  0  0  0  0  0  0  0
   -7.6770   22.5940  -31.9550 C   0  0  0  0  0  0  0  0  0  0  0  0
   -6.3970   23.0110  -31.3420 N   0  0  0  0  0  0  0  0  0  0  0  0
   -6.4790   24.4210  -30.9080 C   0  0  0  0  0  0  0  0  0  0  0  0
   -5.0960   25.0440  -30.6070 C   0  0  0  0  0  0  0  0  0  0  0  0
   -4.0160   24.0460  -30.4800 N   0  0  0  0  0  0  0  0  0  0  0  0
   -3.7660   23.5410  -29.1130 C   0  0  0  0  0  0  0  0  0  0  0  0
   -2.7050   24.3120  -28.3620 C   0  0  0  0  0  0  0  0  0  0  0  0
   -2.9180   24.7300  -27.0390 C   0  0  0  0  0  0  0  0  0  0  0  0
   -1.9060   25.3930  -26.3440 C   0  0  0  0  0  0  0  0  0  0  0  0
   -0.6860   25.6340  -26.9770 C   0  0  0  0  0  0  0  0  0  0  0  0
   -0.4890   25.2220  -28.2570 N   0  0  0  0  0  0  0  0  0  0  0  0
   -1.4580   24.5700  -28.9530 C   0  0  0  0  0  0  0  0  0  0  0  0
   -3.9450   23.0390  -31.5620 C   0  0  0  0  0  0  0  0  0  0  0  0
   -5.2810   22.8430  -32.2890 C   0  0  0  0  0  0  0  0  0  0  0  0
   -6.8700   20.4230  -32.9460 C   0  0  0  0  0  0  0  0  0  0  0  0
   -7.9351   17.2105  -32.4511 H   0  0  0  0  0  0  0  0  0  0  0  0
   -9.4964   18.3945  -30.9036 H   0  0  0  0  0  0  0  0  0  0  0  0
   -9.3721   20.8742  -30.6561 H   0  0  0  0  0  0  0  0  0  0  0  0
   -7.7616   23.0438  -32.9553 H   0  0  0  0  0  0  0  0  0  0  0  0
   -8.5032   22.9327  -31.3125 H   0  0  0  0  0  0  0  0  0  0  0  0
   -6.9602   25.0056  -31.7059 H   0  0  0  0  0  0  0  0  0  0  0  0
   -7.0595   24.4436  -29.9739 H   0  0  0  0  0  0  0  0  0  0  0  0
   -4.8390   25.7330  -31.4250 H   0  0  0  0  0  0  0  0  0  0  0  0
   -5.1768   25.5586  -29.6381 H   0  0  0  0  0  0  0  0  0  0  0  0
   -4.7056   23.6004  -28.5442 H   0  0  0  0  0  0  0  0  0  0  0  0
   -3.3998   22.5088  -29.2150 H   0  0  0  0  0  0  0  0  0  0  0  0
   -3.8836   24.5347  -26.5497 H   0  0  0  0  0  0  0  0  0  0  0  0
   -2.0683   25.7225  -25.3071 H   0  0  0  0  0  0  0  0  0  0  0  0
    0.1176   26.1583  -26.4391 H   0  0  0  0  0  0  0  0  0  0  0  0
   -1.2638   24.2428  -29.9851 H   0  0  0  0  0  0  0  0  0  0  0  0
   -3.1920   23.3648  -32.2948 H   0  0  0  0  0  0  0  0  0  0  0  0
   -3.6792   22.0774  -31.0987 H   0  0  0  0  0  0  0  0  0  0  0  0
   -5.3707   23.5872  -33.0940 H   0  0  0  0  0  0  0  0  0  0  0  0
   -5.3165   21.8291  -32.7141 H   0  0  0  0  0  0  0  0  0  0  0  0
   -6.1285   20.9927  -33.5254 H   0  0  0  0  0  0  0  0  0  0  0  0
  1  2  1  0
  2  3  2  0
  3  4  1  0
  4  5  2  0
  5  6  1  0
  6  7  1  0
  7  8  1  0
  8  9  1  0
  9 10  1  0
 10 11  1  0
 11 12  1  0
 12 13  1  0
 13 14  2  0
 14 15  1  0
 15 16  2  0
 16 17  1  0
 17 18  2  0
 11 19  1  0
 19 20  1  0
  6 21  2  0
 21  2  1  0
 20  8  1  0
 18 13  1  0
  3 22  1  0
  4 23  1  0
  5 24  1  0
  7 25  1  0
  7 26  1  0
  9 27  1  0
  9 28  1  0
 10 29  1  0
 10 30  1  0
 12 31  1  0
 12 32  1  0
 14 33  1  0
 15 34  1  0
 16 35  1  0
 18 36  1  0
 19 37  1  0
 19 38  1  0
 20 39  1  0
 20 40  1  0
 21 41  1  0
M  END
>  <UniqueID>  (44) 
41

>  <SMILES>  (44) 
Brc1cccc(CN2CCN(Cc3cccnc3)CC2)c1

>  <Energy>  (44) 
55.10496157862694

>  <Genealogy>  (44) 
Brc1cccc(CN2CCN(Cc3cccnc3)CC2)c1 (3D coordinates assigned)
Brc1cccc(CN2CCN(Cc3cccnc3)CC2)c1 (nonaromatic ring conformer: 55.10496157862694 kcal/mol)

>  <smiles>  (44) 
Brc1cccc(CN2CCN(Cc3cccnc3)CC2)c1

>  <score_type>  (44) 
oracle

>  <origin>  (44) 
adg

>  <m_score__min__energy>  (44) 
-8.9199999999999999

>  <m_primary>  (44) 
energy

$$$$
44:0
     RDKit          3D

 34 37  0  0  0  0  0  0  0  0999 V2000
   -2.9590   18.9230  -25.8710 Cl  0  0  0  0  0  0  0  0  0  0  0  0
   -2.6520   19.9600  -27.2520 C   0  0  0  0  0  0  0  0  0  0  0  0
   -1.6110   19.6570  -28.1370 C   0  0  0  0  0  0  0  0  0  0  0  0
   -1.3660   20.4840  -29.2380 C   0  0  0  0  0  0  0  0  0  0  0  0
   -2.1570   21.6200  -29.4530 C   0  0  0  0  0  0  0  0  0  0  0  0
   -1.8340   22.6840  -30.8600 S   0  0  0  0  0  0  0  0  0  0  0  0
   -3.5290   23.2690  -30.9210 C   0  0  0  0  0  0  0  0  0  0  0  0
   -3.8240   24.5230  -30.4720 N   0  0  0  0  0  0  0  0  0  0  0  0
   -5.1030   25.0050  -30.4850 C   0  0  0  0  0  0  0  0  0  0  0  0
   -6.1260   24.2350  -30.9520 N   0  0  0  0  0  0  0  0  0  0  0  0
   -5.8460   22.9890  -31.4030 C   0  0  0  0  0  0  0  0  0  0  0  0
   -6.9270   21.8710  -32.0220 S   0  0  0  0  0  0  0  0  0  0  0  0
   -5.7510   20.6770  -32.3130 C   0  0  0  0  0  0  0  0  0  0  0  0
   -6.0240   19.3360  -32.8880 C   0  0  0  0  0  0  0  0  0  0  0  0
   -5.4510   18.9610  -34.1200 C   0  0  0  0  0  0  0  0  0  0  0  0
   -5.7060   17.6990  -34.6670 C   0  0  0  0  0  0  0  0  0  0  0  0
   -6.5370   16.7990  -33.9970 C   0  0  0  0  0  0  0  0  0  0  0  0
   -7.1150   17.1590  -32.7790 C   0  0  0  0  0  0  0  0  0  0  0  0
   -6.8630   18.4190  -32.2260 C   0  0  0  0  0  0  0  0  0  0  0  0
   -4.4980   21.1720  -31.9230 C   0  0  0  0  0  0  0  0  0  0  0  0
   -4.5680   22.4730  -31.4080 C   0  0  0  0  0  0  0  0  0  0  0  0
   -3.2030   21.9180  -28.5700 C   0  0  0  0  0  0  0  0  0  0  0  0
   -3.4470   21.0910  -27.4690 C   0  0  0  0  0  0  0  0  0  0  0  0
   -0.9854   18.7684  -27.9667 H   0  0  0  0  0  0  0  0  0  0  0  0
   -0.5510   20.2421  -29.9361 H   0  0  0  0  0  0  0  0  0  0  0  0
   -5.3079   26.0209  -30.1162 H   0  0  0  0  0  0  0  0  0  0  0  0
   -4.7983   19.6662  -34.6555 H   0  0  0  0  0  0  0  0  0  0  0  0
   -5.2507   17.4150  -35.6273 H   0  0  0  0  0  0  0  0  0  0  0  0
   -6.7359   15.8071  -34.4289 H   0  0  0  0  0  0  0  0  0  0  0  0
   -7.7706   16.4500  -32.2522 H   0  0  0  0  0  0  0  0  0  0  0  0
   -7.3239   18.6957  -31.2663 H   0  0  0  0  0  0  0  0  0  0  0  0
   -3.5621   20.6008  -32.0118 H   0  0  0  0  0  0  0  0  0  0  0  0
   -3.8328   22.8031  -28.7428 H   0  0  0  0  0  0  0  0  0  0  0  0
   -4.2646   21.3297  -26.7729 H   0  0  0  0  0  0  0  0  0  0  0  0
  1  2  1  0
  2  3  2  0
  3  4  1  0
  4  5  2  0
  5  6  1  0
  6  7  1  0
  7  8  2  0
  8  9  1  0
  9 10  2  0
 10 11  1  0
 11 12  1  0
 12 13  1  0
 13 14  1  0
 14 15  2  0
 15 16  1  0
 16 17  2  0
 17 18  1  0
 18 19  2  0
 13 20  2  0
 20 21  1  0
  5 22  1  0
 22 23  2  0
 23  2  1  0
 21  7  1  0
 21 11  2  0
 19 14  1  0
  3 24  1  0
  4 25  1  0
  9 26  1  0
 15 27  1  0
 16 28  1  0
 17 29  1  0
 18 30  1  0
 19 31  1  0
 20 32  1  0
 22 33  1  0
 23 34  1  0
M  END
>  <UniqueID>  (45) 
42

>  <SMILES>  (45) 
Clc1ccc(Sc2ncnc3sc(-c4ccccc4)cc23)cc1

>  <Energy>  (45) 
70.41645163079794

>  <Genealogy>  (45) 
Clc1ccc(Sc2ncnc3sc(-c4ccccc4)cc23)cc1 (3D coordinates assigned)
Clc1ccc(Sc2ncnc3sc(-c4ccccc4)cc23)cc1 (optimized conformer: 70.41645163079794 kcal/mol)

>  <smiles>  (45) 
Clc1ccc(Sc2ncnc3sc(-c4ccccc4)cc23)cc1

>  <score_type>  (45) 
oracle

>  <origin>  (45) 
adg

>  <m_score__min__energy>  (45) 
-9.2899999999999991

>  <m_primary>  (45) 
energy

$$$$
45:0
     RDKit          3D

 38 39  0  0  0  0  0  0  0  0999 V2000
   -9.4790   21.5460  -30.4560 C   0  0  0  0  0  0  0  0  0  0  0  0
   -9.0390   21.5810  -31.7220 C   0  0  0  0  0  0  0  0  0  0  0  0
   -9.1570   20.3500  -32.5790 C   0  0  0  0  0  0  0  0  0  0  0  0
   -8.4020   22.8400  -32.2640 C   0  0  0  0  0  0  0  0  0  0  0  0
   -6.9860   22.6890  -32.3740 O   0  0  0  0  0  0  0  0  0  0  0  0
   -6.0310   23.2660  -31.5170 C   0  0  0  0  0  0  0  0  0  0  0  0
   -6.3950   24.1470  -30.4780 C   0  0  0  0  0  0  0  0  0  0  0  0
   -5.4230   24.6860  -29.6330 C   0  0  0  0  0  0  0  0  0  0  0  0
   -4.0790   24.3580  -29.8110 C   0  0  0  0  0  0  0  0  0  0  0  0
   -3.1390   24.8790  -28.9850 F   0  0  0  0  0  0  0  0  0  0  0  0
   -3.7020   23.4940  -30.8420 C   0  0  0  0  0  0  0  0  0  0  0  0
   -4.6680   22.9520  -31.7070 C   0  0  0  0  0  0  0  0  0  0  0  0
   -4.2390   22.0050  -32.8010 C   0  0  0  0  0  0  0  0  0  0  0  0
   -5.0380   20.7300  -32.7440 C   0  0  0  0  0  0  0  0  0  0  0  0
   -5.0340   19.9230  -31.6020 C   0  0  0  0  0  0  0  0  0  0  0  0
   -5.7470   18.7680  -31.5830 N   0  0  0  0  0  0  0  0  0  0  0  0
   -6.4690   18.3700  -32.6630 C   0  0  0  0  0  0  0  0  0  0  0  0
   -7.2530   17.0980  -32.6070 C   0  0  0  0  0  0  0  0  0  0  0  0
   -6.4960   19.1440  -33.7840 N   0  0  0  0  0  0  0  0  0  0  0  0
   -5.7960   20.3080  -33.8440 C   0  0  0  0  0  0  0  0  0  0  0  0
   -9.3977   22.4402  -29.8205 H   0  0  0  0  0  0  0  0  0  0  0  0
   -9.9213   20.6231  -30.0528 H   0  0  0  0  0  0  0  0  0  0  0  0
   -9.2421   19.4620  -31.9354 H   0  0  0  0  0  0  0  0  0  0  0  0
  -10.0516   20.4297  -33.2141 H   0  0  0  0  0  0  0  0  0  0  0  0
   -8.2635   20.2583  -33.2141 H   0  0  0  0  0  0  0  0  0  0  0  0
   -8.8194   23.0552  -33.2587 H   0  0  0  0  0  0  0  0  0  0  0  0
   -8.6141   23.6673  -31.5707 H   0  0  0  0  0  0  0  0  0  0  0  0
   -7.4527   24.4116  -30.3321 H   0  0  0  0  0  0  0  0  0  0  0  0
   -5.7179   25.3712  -28.8246 H   0  0  0  0  0  0  0  0  0  0  0  0
   -2.6413   23.2360  -30.9778 H   0  0  0  0  0  0  0  0  0  0  0  0
   -4.3961   22.4863  -33.7775 H   0  0  0  0  0  0  0  0  0  0  0  0
   -3.1751   21.7625  -32.6621 H   0  0  0  0  0  0  0  0  0  0  0  0
   -4.4525   20.2244  -30.7182 H   0  0  0  0  0  0  0  0  0  0  0  0
   -7.4249   16.8191  -31.5569 H   0  0  0  0  0  0  0  0  0  0  0  0
   -8.2200   17.2408  -33.1114 H   0  0  0  0  0  0  0  0  0  0  0  0
   -6.6909   16.2983  -33.1114 H   0  0  0  0  0  0  0  0  0  0  0  0
   -7.0560   18.8460  -34.6140 H   0  0  0  0  0  0  0  0  0  0  0  0
   -5.8249   20.9195  -34.7579 H   0  0  0  0  0  0  0  0  0  0  0  0
  1  2  2  0
  2  3  1  0
  2  4  1  0
  4  5  1  0
  5  6  1  0
  6  7  2  0
  7  8  1  0
  8  9  2  0
  9 10  1  0
  9 11  1  0
 11 12  2  0
 12 13  1  0
 13 14  1  0
 14 15  2  0
 15 16  1  0
 16 17  2  0
 17 18  1  0
 17 19  1  0
 19 20  2  0
 12  6  1  0
 20 14  1  0
  1 21  1  0
  1 22  1  0
  3 23  1  0
  3 24  1  0
  3 25  1  0
  4 26  1  0
  4 27  1  0
  7 28  1  0
  8 29  1  0
 11 30  1  0
 13 31  1  0
 13 32  1  0
 15 33  1  0
 18 34  1  0
 18 35  1  0
 18 36  1  0
 19 37  1  0
 20 38  1  0
M  CHG  1  19   1
M  END
>  <UniqueID>  (46) 
43

>  <SMILES>  (46) 
C=C(C)COc1ccc(F)cc1Cc1cnc(C)[nH+]c1

>  <Energy>  (46) 
30.976592712020235

>  <Genealogy>  (46) 
C=C(C)COc1ccc(F)cc1Cc1cnc(C)[nH+]c1 (protonated)
C=C(C)COc1ccc(F)cc1Cc1cnc(C)[nH+]c1 (3D coordinates assigned)
C=C(C)COc1ccc(F)cc1Cc1cnc(C)[nH+]c1 (optimized conformer: 30.976592712020235 kcal/mol)

>  <smiles>  (46) 
C=C(C)COc1ccc(F)cc1Cc1cnc(C)nc1

>  <score_type>  (46) 
oracle

>  <origin>  (46) 
adg

>  <m_score__min__energy>  (46) 
-6.4199999999999999

>  <m_primary>  (46) 
energy

$$$$
46:0
     RDKit          3D

 51 54  0  0  0  0  0  0  0  0999 V2000
   -4.6650   15.5870  -34.0200 C   0  0  0  0  0  0  0  0  0  0  0  0
   -3.9430   16.8700  -33.7660 C   0  0  0  0  0  0  0  0  0  0  0  0
   -2.6470   16.9270  -33.3780 N   0  0  0  0  0  0  0  0  0  0  0  0
   -2.3840   18.2500  -33.3570 C   0  0  0  0  0  0  0  0  0  0  0  0
   -1.1560   18.8270  -33.0340 C   0  0  0  0  0  0  0  0  0  0  0  0
   -1.0540   20.2240  -33.0950 C   0  0  0  0  0  0  0  0  0  0  0  0
   -2.1650   21.0010  -33.4740 C   0  0  0  0  0  0  0  0  0  0  0  0
   -3.3750   20.3690  -33.7890 C   0  0  0  0  0  0  0  0  0  0  0  0
   -3.4330   19.0120  -33.7180 N   0  0  0  0  0  0  0  0  0  0  0  0
   -4.4370   18.1530  -33.9810 C   0  0  0  0  0  0  0  0  0  0  0  0
   -5.7830   18.5160  -34.5510 C   0  0  0  0  0  0  0  0  0  0  0  0
   -6.6800   19.0530  -33.4680 C   0  0  0  0  0  0  0  0  0  0  0  0
   -7.6130   18.2190  -32.8350 C   0  0  0  0  0  0  0  0  0  0  0  0
   -8.4620   18.7310  -31.8530 C   0  0  0  0  0  0  0  0  0  0  0  0
   -8.4010   20.0830  -31.5020 C   0  0  0  0  0  0  0  0  0  0  0  0
   -9.2590   20.5570  -30.5630 F   0  0  0  0  0  0  0  0  0  0  0  0
   -7.4840   20.9400  -32.1390 C   0  0  0  0  0  0  0  0  0  0  0  0
   -7.4250   22.3820  -31.7840 C   0  0  0  0  0  0  0  0  0  0  0  0
   -8.5080   23.0040  -31.5940 O   0  0  0  0  0  0  0  0  0  0  0  0
   -6.1600   23.0760  -31.6400 N   0  0  2  0  0  0  0  0  0  0  0  0
   -5.0770   22.1050  -31.3380 C   0  0  0  0  0  0  0  0  0  0  0  0
   -3.6950   22.7660  -31.1500 C   0  0  0  0  0  0  0  0  0  0  0  0
   -3.6800   23.8850  -30.0870 C   0  0  0  0  0  0  0  0  0  0  0  0
   -3.9310   25.2040  -30.6870 N   0  0  0  0  0  0  0  0  0  0  0  0
   -5.3540   25.4380  -30.9860 C   0  0  0  0  0  0  0  0  0  0  0  0
   -6.2840   24.2290  -30.7080 C   0  0  0  0  0  0  0  0  0  0  0  0
   -6.6160   20.4090  -33.1100 C   0  0  0  0  0  0  0  0  0  0  0  0
   -4.9287   15.1184  -33.0603 H   0  0  0  0  0  0  0  0  0  0  0  0
   -5.5817   15.7894  -34.5933 H   0  0  0  0  0  0  0  0  0  0  0  0
   -4.0162   14.9085  -34.5933 H   0  0  0  0  0  0  0  0  0  0  0  0
   -0.2961   18.2067  -32.7411 H   0  0  0  0  0  0  0  0  0  0  0  0
   -0.1018   20.7150  -32.8456 H   0  0  0  0  0  0  0  0  0  0  0  0
   -2.0836   22.0969  -33.5225 H   0  0  0  0  0  0  0  0  0  0  0  0
   -4.2565   20.9559  -34.0865 H   0  0  0  0  0  0  0  0  0  0  0  0
   -5.6531   19.2832  -35.3285 H   0  0  0  0  0  0  0  0  0  0  0  0
   -6.2434   17.6157  -34.9840 H   0  0  0  0  0  0  0  0  0  0  0  0
   -7.6758   17.1568  -33.1138 H   0  0  0  0  0  0  0  0  0  0  0  0
   -9.1828   18.0676  -31.3526 H   0  0  0  0  0  0  0  0  0  0  0  0
   -5.9200   23.5100  -32.5620 H   0  0  0  0  0  0  0  0  0  0  0  0
   -5.3364   21.5703  -30.4124 H   0  0  0  0  0  0  0  0  0  0  0  0
   -4.9981   21.4281  -32.2015 H   0  0  0  0  0  0  0  0  0  0  0  0
   -2.9774   21.9895  -30.8465 H   0  0  0  0  0  0  0  0  0  0  0  0
   -3.4292   23.2322  -32.1102 H   0  0  0  0  0  0  0  0  0  0  0  0
   -4.4603   23.6782  -29.3398 H   0  0  0  0  0  0  0  0  0  0  0  0
   -2.6843   23.9030  -29.6199 H   0  0  0  0  0  0  0  0  0  0  0  0
   -3.4030   25.2600  -31.5890 H   0  0  0  0  0  0  0  0  0  0  0  0
   -5.6983   26.2830  -30.3717 H   0  0  0  0  0  0  0  0  0  0  0  0
   -5.4153   25.6338  -32.0667 H   0  0  0  0  0  0  0  0  0  0  0  0
   -6.0665   23.8649  -29.6931 H   0  0  0  0  0  0  0  0  0  0  0  0
   -7.3076   24.6081  -30.8438 H   0  0  0  0  0  0  0  0  0  0  0  0
   -5.8777   21.0644  -33.5950 H   0  0  0  0  0  0  0  0  0  0  0  0
  1  2  1  0
  2  3  1  0
  3  4  2  0
  4  5  1  0
  5  6  2  0
  6  7  1  0
  7  8  2  0
  8  9  1  0
  9 10  1  0
 10 11  1  0
 11 12  1  0
 12 13  2  0
 13 14  1  0
 14 15  2  0
 15 16  1  0
 15 17  1  0
 17 18  1  0
 18 19  2  0
 18 20  1  0
 20 21  1  0
 21 22  1  0
 22 23  1  0
 23 24  1  0
 24 25  1  0
 25 26  1  0
 17 27  2  0
 10  2  2  0
 27 12  1  0
  9  4  1  0
 26 20  1  0
  1 28  1  0
  1 29  1  0
  1 30  1  0
  5 31  1  0
  6 32  1  0
  7 33  1  0
  8 34  1  0
 11 35  1  0
 11 36  1  0
 13 37  1  0
 14 38  1  0
 20 39  1  6
 21 40  1  0
 21 41  1  0
 22 42  1  0
 22 43  1  0
 23 44  1  0
 23 45  1  0
 24 46  1  0
 25 47  1  0
 25 48  1  0
 26 49  1  0
 26 50  1  0
 27 51  1  0
M  CHG  1  20   1
M  END
>  <UniqueID>  (47) 
44

>  <SMILES>  (47) 
Cc1nc2ccccn2c1Cc1ccc(F)c(C(=O)[N@@H+]2CCCNCC2)c1

>  <Energy>  (47) 
106.06266283555527

>  <Genealogy>  (47) 
Cc1nc2ccccn2c1Cc1ccc(F)c(C(=O)[NH+]2CCCNCC2)c1 (protonated)
Cc1nc2ccccn2c1Cc1ccc(F)c(C(=O)[N@@H+]2CCCNCC2)c1 (chirality)
Cc1nc2ccccn2c1Cc1ccc(F)c(C(=O)[N@@H+]2CCCNCC2)c1 (3D coordinates assigned)
Cc1nc2ccccn2c1Cc1ccc(F)c(C(=O)[N@@H+]2CCCNCC2)c1 (nonaromatic ring conformer: 106.06266283555527 kcal/mol)

>  <smiles>  (47) 
Cc1nc2ccccn2c1Cc1ccc(F)c(C(=O)N2CCCNCC2)c1

>  <score_type>  (47) 
oracle

>  <origin>  (47) 
adg

>  <m_score__min__energy>  (47) 
-6.5700000000000003

>  <m_primary>  (47) 
energy

$$$$
47:0
     RDKit          3D

 27 29  0  0  0  0  0  0  0  0999 V2000
   -8.9630   23.1570  -31.8710 O   0  0  0  0  0  0  0  0  0  0  0  0
   -7.8220   22.6250  -31.8400 C   0  0  0  0  0  0  0  0  0  0  0  0
   -7.6570   21.4210  -32.3780 O   0  0  0  0  0  0  0  0  0  0  0  0
   -6.4930   20.7680  -32.4000 C   0  0  0  0  0  0  0  0  0  0  0  0
   -6.4550   19.4170  -33.0400 C   0  0  0  0  0  0  0  0  0  0  0  0
   -5.7230   19.1460  -34.2200 C   0  0  0  0  0  0  0  0  0  0  0  0
   -5.7220   17.8640  -34.7780 C   0  0  0  0  0  0  0  0  0  0  0  0
   -6.4430   16.8330  -34.1770 C   0  0  0  0  0  0  0  0  0  0  0  0
   -7.1710   17.0810  -33.0140 C   0  0  0  0  0  0  0  0  0  0  0  0
   -7.1790   18.3590  -32.4490 C   0  0  0  0  0  0  0  0  0  0  0  0
   -5.3600   21.3750  -31.8200 C   0  0  0  0  0  0  0  0  0  0  0  0
   -5.4830   22.6420  -31.2400 C   0  0  0  0  0  0  0  0  0  0  0  0
   -4.3740   23.2750  -30.6550 C   0  0  0  0  0  0  0  0  0  0  0  0
   -4.5120   24.5410  -30.0800 C   0  0  0  0  0  0  0  0  0  0  0  0
   -5.7530   25.1830  -30.0840 C   0  0  0  0  0  0  0  0  0  0  0  0
   -6.8640   24.5630  -30.6630 C   0  0  0  0  0  0  0  0  0  0  0  0
   -6.7360   23.2890  -31.2460 C   0  0  0  0  0  0  0  0  0  0  0  0
   -5.1496   19.9511  -34.7027 H   0  0  0  0  0  0  0  0  0  0  0  0
   -5.1492   17.6677  -35.6963 H   0  0  0  0  0  0  0  0  0  0  0  0
   -6.4375   15.8259  -34.6195 H   0  0  0  0  0  0  0  0  0  0  0  0
   -7.7407   16.2682  -32.5399 H   0  0  0  0  0  0  0  0  0  0  0  0
   -7.7572   18.5431  -31.5315 H   0  0  0  0  0  0  0  0  0  0  0  0
   -4.3894   20.8575  -31.8236 H   0  0  0  0  0  0  0  0  0  0  0  0
   -3.3951   22.7732  -30.6495 H   0  0  0  0  0  0  0  0  0  0  0  0
   -3.6412   25.0336  -29.6229 H   0  0  0  0  0  0  0  0  0  0  0  0
   -5.8561   26.1796  -29.6300 H   0  0  0  0  0  0  0  0  0  0  0  0
   -7.8393   25.0717  -30.6628 H   0  0  0  0  0  0  0  0  0  0  0  0
  1  2  2  0
  2  3  1  0
  3  4  1  0
  4  5  1  0
  5  6  2  0
  6  7  1  0
  7  8  2  0
  8  9  1  0
  9 10  2  0
  4 11  2  0
 11 12  1  0
 12 13  2  0
 13 14  1  0
 14 15  2  0
 15 16  1  0
 16 17  2  0
 17  2  1  0
 10  5  1  0
 17 12  1  0
  6 18  1  0
  7 19  1  0
  8 20  1  0
  9 21  1  0
 10 22  1  0
 11 23  1  0
 13 24  1  0
 14 25  1  0
 15 26  1  0
 16 27  1  0
M  END
>  <UniqueID>  (48) 
45

>  <SMILES>  (48) 
O=c1oc(-c2ccccc2)cc2ccccc12

>  <Energy>  (48) 
40.03682162452662

>  <Genealogy>  (48) 
O=c1oc(-c2ccccc2)cc2ccccc12 (3D coordinates assigned)
O=c1oc(-c2ccccc2)cc2ccccc12 (optimized conformer: 40.03682162452662 kcal/mol)

>  <smiles>  (48) 
O=c1oc(-c2ccccc2)cc2ccccc12

>  <score_type>  (48) 
oracle

>  <origin>  (48) 
adg

>  <m_score__min__energy>  (48) 
-7.0300000000000002

>  <m_primary>  (48) 
energy

$$$$
48:0
     RDKit          3D

 27 28  0  0  0  0  0  0  0  0999 V2000
   -8.0320   18.7770  -32.6950 C   0  0  0  0  0  0  0  0  0  0  0  0
   -6.7730   19.5260  -32.7070 N   0  0  0  0  0  0  0  0  0  0  0  0
   -5.6960   19.2200  -33.4860 C   0  0  0  0  0  0  0  0  0  0  0  0
   -5.5550   17.6880  -34.6300 Br  0  0  0  0  0  0  0  0  0  0  0  0
   -4.7100   20.1390  -33.4040 N   0  0  0  0  0  0  0  0  0  0  0  0
   -5.1830   21.0620  -32.5570 C   0  0  0  0  0  0  0  0  0  0  0  0
   -4.5630   22.2330  -32.1650 C   0  0  0  0  0  0  0  0  0  0  0  0
   -5.2590   23.0670  -31.2860 C   0  0  0  0  0  0  0  0  0  0  0  0
   -4.6480   24.3000  -30.8530 C   0  0  0  0  0  0  0  0  0  0  0  0
   -4.1580   25.2890  -30.5060 N   0  0  0  0  0  0  0  0  0  0  0  0
   -6.5490   22.6930  -30.8270 C   0  0  0  0  0  0  0  0  0  0  0  0
   -7.1510   23.4600  -30.0230 O   0  0  0  0  0  0  0  0  0  0  0  0
   -7.1410   21.5100  -31.2420 N   0  0  0  0  0  0  0  0  0  0  0  0
   -8.4450   21.1230  -30.6630 C   0  0  0  0  0  0  0  0  0  0  0  0
   -9.5930   21.3970  -31.6460 C   0  0  0  0  0  0  0  0  0  0  0  0
   -9.4900   22.7410  -32.2260 C   0  0  0  0  0  0  0  0  0  0  0  0
   -9.4080   23.8000  -32.6840 N   0  0  0  0  0  0  0  0  0  0  0  0
   -6.4330   20.7110  -32.1200 C   0  0  0  0  0  0  0  0  0  0  0  0
   -8.3398   18.5939  -31.6549 H   0  0  0  0  0  0  0  0  0  0  0  0
   -8.8100   19.3592  -33.2105 H   0  0  0  0  0  0  0  0  0  0  0  0
   -7.8916   17.8155  -33.2105 H   0  0  0  0  0  0  0  0  0  0  0  0
   -3.7960   20.1410  -33.9090 H   0  0  0  0  0  0  0  0  0  0  0  0
   -3.5601   22.4985  -32.5308 H   0  0  0  0  0  0  0  0  0  0  0  0
   -8.4266   20.0496  -30.4231 H   0  0  0  0  0  0  0  0  0  0  0  0
   -8.6139   21.7207  -29.7551 H   0  0  0  0  0  0  0  0  0  0  0  0
   -9.5561   20.6536  -32.4559 H   0  0  0  0  0  0  0  0  0  0  0  0
  -10.5437   21.3281  -31.0969 H   0  0  0  0  0  0  0  0  0  0  0  0
  1  2  1  0
  2  3  1  0
  3  4  1  0
  3  5  2  0
  5  6  1  0
  6  7  1  0
  7  8  2  0
  8  9  1  0
  9 10  3  0
  8 11  1  0
 11 12  2  0
 11 13  1  0
 13 14  1  0
 14 15  1  0
 15 16  1  0
 16 17  3  0
 13 18  1  0
 18  2  1  0
 18  6  2  0
  1 19  1  0
  1 20  1  0
  1 21  1  0
  5 22  1  0
  7 23  1  0
 14 24  1  0
 14 25  1  0
 15 26  1  0
 15 27  1  0
M  CHG  1   5   1
M  END
>  <UniqueID>  (49) 
46

>  <SMILES>  (49) 
Cn1c(Br)[nH+]c2cc(C#N)c(=O)n(CCC#N)c21

>  <Energy>  (49) 
74.2657223592482

>  <Genealogy>  (49) 
Cn1c(Br)[nH+]c2cc(C#N)c(=O)n(CCC#N)c21 (protonated)
Cn1c(Br)[nH+]c2cc(C#N)c(=O)n(CCC#N)c21 (3D coordinates assigned)
Cn1c(Br)[nH+]c2cc(C#N)c(=O)n(CCC#N)c21 (optimized conformer: 74.2657223592482 kcal/mol)

>  <smiles>  (49) 
Cn1c(Br)nc2cc(C#N)c(=O)n(CCC#N)c21

>  <score_type>  (49) 
oracle

>  <origin>  (49) 
adg

>  <m_score__min__energy>  (49) 
-5.75

>  <m_primary>  (49) 
energy

$$$$
